# Generated by pormake.
# Topology wla, (5)-cn, num edge types: 1
# Building blocks:
#     Node 0, Type 0, BuildingBlock: XOMCOT_clean_sbu_0, # of connection points: 5
#     Node 1, Type 0, BuildingBlock: XOMCOT_clean_sbu_0, # of connection points: 5
#     Node 2, Type 0, BuildingBlock: XOMCOT_clean_sbu_0, # of connection points: 5
#     Node 3, Type 0, BuildingBlock: XOMCOT_clean_sbu_0, # of connection points: 5
#     Node 4, Type 0, BuildingBlock: XOMCOT_clean_sbu_0, # of connection points: 5
#     Node 5, Type 0, BuildingBlock: XOMCOT_clean_sbu_0, # of connection points: 5
#     Node 6, Type 0, BuildingBlock: XOMCOT_clean_sbu_0, # of connection points: 5
#     Node 7, Type 0, BuildingBlock: XOMCOT_clean_sbu_0, # of connection points: 5
#     Node 8, Type 0, BuildingBlock: XOMCOT_clean_sbu_0, # of connection points: 5
#     Node 9, Type 0, BuildingBlock: XOMCOT_clean_sbu_0, # of connection points: 5
#     Node 10, Type 0, BuildingBlock: XOMCOT_clean_sbu_0, # of connection points: 5
#     Node 11, Type 0, BuildingBlock: XOMCOT_clean_sbu_0, # of connection points: 5
#     Node 12, Type 0, BuildingBlock: XOMCOT_clean_sbu_0, # of connection points: 5
#     Node 13, Type 0, BuildingBlock: XOMCOT_clean_sbu_0, # of connection points: 5
#     Node 14, Type 0, BuildingBlock: XOMCOT_clean_sbu_0, # of connection points: 5
#     Node 15, Type 0, BuildingBlock: XOMCOT_clean_sbu_0, # of connection points: 5
#     Node 16, Type 0, BuildingBlock: XOMCOT_clean_sbu_0, # of connection points: 5
#     Node 17, Type 0, BuildingBlock: XOMCOT_clean_sbu_0, # of connection points: 5
#     Edge 18, Type (0, 0), BuildingBlock: CIFDUS_clean_linker_0, # of connection points: 2
#     Edge 19, Type (0, 0), BuildingBlock: CIFDUS_clean_linker_0, # of connection points: 2
#     Edge 20, Type (0, 0), BuildingBlock: CIFDUS_clean_linker_0, # of connection points: 2
#     Edge 21, Type (0, 0), BuildingBlock: CIFDUS_clean_linker_0, # of connection points: 2
#     Edge 22, Type (0, 0), BuildingBlock: CIFDUS_clean_linker_0, # of connection points: 2
#     Edge 23, Type (0, 0), BuildingBlock: CIFDUS_clean_linker_0, # of connection points: 2
#     Edge 24, Type (0, 0), BuildingBlock: CIFDUS_clean_linker_0, # of connection points: 2
#     Edge 25, Type (0, 0), BuildingBlock: CIFDUS_clean_linker_0, # of connection points: 2
#     Edge 26, Type (0, 0), BuildingBlock: CIFDUS_clean_linker_0, # of connection points: 2
#     Edge 27, Type (0, 0), BuildingBlock: CIFDUS_clean_linker_0, # of connection points: 2
#     Edge 28, Type (0, 0), BuildingBlock: CIFDUS_clean_linker_0, # of connection points: 2
#     Edge 29, Type (0, 0), BuildingBlock: CIFDUS_clean_linker_0, # of connection points: 2
#     Edge 30, Type (0, 0), BuildingBlock: CIFDUS_clean_linker_0, # of connection points: 2
#     Edge 31, Type (0, 0), BuildingBlock: CIFDUS_clean_linker_0, # of connection points: 2
#     Edge 32, Type (0, 0), BuildingBlock: CIFDUS_clean_linker_0, # of connection points: 2
#     Edge 33, Type (0, 0), BuildingBlock: CIFDUS_clean_linker_0, # of connection points: 2
#     Edge 34, Type (0, 0), BuildingBlock: CIFDUS_clean_linker_0, # of connection points: 2
#     Edge 35, Type (0, 0), BuildingBlock: CIFDUS_clean_linker_0, # of connection points: 2
#     Edge 36, Type (0, 0), BuildingBlock: CIFDUS_clean_linker_0, # of connection points: 2
#     Edge 37, Type (0, 0), BuildingBlock: CIFDUS_clean_linker_0, # of connection points: 2
#     Edge 38, Type (0, 0), BuildingBlock: CIFDUS_clean_linker_0, # of connection points: 2
#     Edge 39, Type (0, 0), BuildingBlock: CIFDUS_clean_linker_0, # of connection points: 2
#     Edge 40, Type (0, 0), BuildingBlock: CIFDUS_clean_linker_0, # of connection points: 2
#     Edge 41, Type (0, 0), BuildingBlock: CIFDUS_clean_linker_0, # of connection points: 2
#     Edge 42, Type (0, 0), BuildingBlock: CIFDUS_clean_linker_0, # of connection points: 2
#     Edge 43, Type (0, 0), BuildingBlock: CIFDUS_clean_linker_0, # of connection points: 2
#     Edge 44, Type (0, 0), BuildingBlock: CIFDUS_clean_linker_0, # of connection points: 2
#     Edge 45, Type (0, 0), BuildingBlock: CIFDUS_clean_linker_0, # of connection points: 2
#     Edge 46, Type (0, 0), BuildingBlock: CIFDUS_clean_linker_0, # of connection points: 2
#     Edge 47, Type (0, 0), BuildingBlock: CIFDUS_clean_linker_0, # of connection points: 2
#     Edge 48, Type (0, 0), BuildingBlock: CIFDUS_clean_linker_0, # of connection points: 2
#     Edge 49, Type (0, 0), BuildingBlock: CIFDUS_clean_linker_0, # of connection points: 2
#     Edge 50, Type (0, 0), BuildingBlock: CIFDUS_clean_linker_0, # of connection points: 2
#     Edge 51, Type (0, 0), BuildingBlock: CIFDUS_clean_linker_0, # of connection points: 2
#     Edge 52, Type (0, 0), BuildingBlock: CIFDUS_clean_linker_0, # of connection points: 2
#     Edge 53, Type (0, 0), BuildingBlock: CIFDUS_clean_linker_0, # of connection points: 2
#     Edge 54, Type (0, 0), BuildingBlock: CIFDUS_clean_linker_0, # of connection points: 2
#     Edge 55, Type (0, 0), BuildingBlock: CIFDUS_clean_linker_0, # of connection points: 2
#     Edge 56, Type (0, 0), BuildingBlock: CIFDUS_clean_linker_0, # of connection points: 2
#     Edge 57, Type (0, 0), BuildingBlock: CIFDUS_clean_linker_0, # of connection points: 2
#     Edge 58, Type (0, 0), BuildingBlock: CIFDUS_clean_linker_0, # of connection points: 2
#     Edge 59, Type (0, 0), BuildingBlock: CIFDUS_clean_linker_0, # of connection points: 2
#     Edge 60, Type (0, 0), BuildingBlock: CIFDUS_clean_linker_0, # of connection points: 2
#     Edge 61, Type (0, 0), BuildingBlock: CIFDUS_clean_linker_0, # of connection points: 2
#     Edge 62, Type (0, 0), BuildingBlock: CIFDUS_clean_linker_0, # of connection points: 2
# Relax obj value: 0.270
# Max RMSD: 0.260
# Mean RMSD: 0.260
data_MOF--net-wla--node1-XOMCOT_clean_sbu_0--edge1-CIFDUS_clean_linker_0
_symmetry_space_group_name_H-M    P1
_symmetry_Int_Tables_number       1
_symmetry_cell_setting            triclinic
loop_
_symmetry_equiv_pos_as_xyz
'x, y, z'
_cell_length_a     52.74446
_cell_length_b     52.741378
_cell_length_c     28.125765
_cell_angle_alpha  89.965739
_cell_angle_beta   90.010029
_cell_angle_gamma 119.972
loop_
_atom_site_label
_atom_site_type_symbol
_atom_site_fract_x
_atom_site_fract_y
_atom_site_fract_z
_atom_type_partial_charge
Co0 Co 0.16497 0.02503 0.20056 0.0
C1 C 0.22681 0.07109 0.18081 0.0
C2 C 0.19548 0.07593 0.13895 0.0
C3 C 0.22301 0.09556 0.12265 0.0
N4 N 0.19776 0.06055 0.17545 0.0
N5 N 0.24255 0.09247 0.14908 0.0
H6 H 0.23636 0.06222 0.20478 0.0
H7 H 0.17503 0.07195 0.12349 0.0
C8 C 0.1506 0.07262 0.22148 0.0
O9 O 0.17787 0.09069 0.23376 0.0
N10 N 0.13198 0.98959 0.22449 0.0
C11 C 0.13242 0.96662 0.2446 0.0
C12 C 0.10476 0.94737 0.26149 0.0
C13 C 0.10428 0.98412 0.22939 0.0
N14 N 0.08726 0.95863 0.25221 0.0
C15 C 0.20243 0.02626 0.27572 0.0
C16 C 0.17338 0.03625 0.34853 0.0
C17 C 0.19488 0.02909 0.36012 0.0
C18 C 0.20981 0.02449 0.32296 0.0
C19 C 0.16639 0.03738 0.30101 0.0
N20 N 0.18096 0.03267 0.26497 0.0
H21 H 0.21277 0.02054 0.24794 0.0
H22 H 0.14759 0.03968 0.29398 0.0
H23 H 0.15167 0.96444 0.24803 0.0
H24 H 0.09665 0.99849 0.21678 0.0
O25 O 0.18235 0.00275 0.17538 0.0
O26 O 0.15175 0.01284 0.13666 0.0
O27 O 0.14246 0.04617 0.21053 0.0
C28 C 0.16801 0.00081 0.1366 0.0
H29 H 0.22829 0.11026 0.0927 0.0
H30 H 0.09828 0.92718 0.28047 0.0
H31 H 0.16052 0.0389 0.37604 0.0
H32 H 0.22629 0.01849 0.33032 0.0
Co33 Co 0.97386 0.1434 0.19462 0.0
C34 C 0.92197 0.15172 0.19426 0.0
C35 C 0.91057 0.1079 0.17631 0.0
C36 C 0.8863 0.11083 0.17004 0.0
N37 N 0.93288 0.13331 0.19283 0.0
N38 N 0.89351 0.13849 0.18109 0.0
H39 H 0.93497 0.1748 0.20142 0.0
H40 H 0.91227 0.08906 0.16601 0.0
C41 C 0.94275 0.08413 0.24053 0.0
O42 O 0.92903 0.09354 0.26804 0.0
N43 N 0.01476 0.15391 0.19494 0.0
C44 C 0.03751 0.18147 0.19758 0.0
C45 C 0.0629 0.18051 0.2025 0.0
C46 C 0.0267 0.13649 0.19848 0.0
N47 N 0.05618 0.15223 0.20357 0.0
C48 C 0.97577 0.17822 0.2761 0.0
C49 C 0.99417 0.15083 0.33982 0.0
C50 C 0.99069 0.174 0.35593 0.0
C51 C 0.98123 0.18774 0.32351 0.0
C52 C 0.98828 0.14193 0.29263 0.0
N53 N 0.97827 0.15485 0.26148 0.0
H54 H 0.97086 0.19052 0.25098 0.0
H55 H 0.99261 0.12498 0.28102 0.0
H56 H 0.03576 0.20103 0.1976 0.0
H57 H 0.01399 0.11287 0.19961 0.0
O58 O 0.98479 0.18056 0.16378 0.0
O59 O 0.97234 0.13864 0.12704 0.0
O60 O 0.96184 0.10153 0.21079 0.0
C61 C 0.98045 0.16622 0.12405 0.0
H62 H 0.86561 0.09444 0.15516 0.0
H63 H 0.0846 0.19935 0.20571 0.0
H64 H 0.00161 0.13968 0.3635 0.0
H65 H 0.97913 0.20632 0.33425 0.0
Co66 Co 0.86281 0.83337 0.21402 0.0
C67 C 0.84983 0.77285 0.1969 0.0
C68 C 0.89371 0.80449 0.17649 0.0
C69 C 0.88942 0.77692 0.16787 0.0
N70 N 0.86893 0.80182 0.19483 0.0
N71 N 0.86183 0.75704 0.18077 0.0
H72 H 0.82781 0.76363 0.21061 0.0
H73 H 0.91349 0.82506 0.16979 0.0
C74 C 0.91561 0.8698 0.27817 0.0
O75 O 0.90137 0.87797 0.30685 0.0
N76 N 0.85669 0.86554 0.23248 0.0
C77 C 0.83082 0.86358 0.24319 0.0
C78 C 0.8352 0.89098 0.25248 0.0
C79 C 0.87625 0.89463 0.23285 0.0
N80 N 0.8638 0.91053 0.24651 0.0
C81 C 0.81417 0.79991 0.27682 0.0
C82 C 0.84701 0.80144 0.35431 0.0
C83 C 0.8178 0.79412 0.36147 0.0
C84 C 0.80084 0.79156 0.32144 0.0
C85 C 0.8594 0.80973 0.30903 0.0
N86 N 0.84373 0.81195 0.27219 0.0
H87 H 0.80093 0.79832 0.24648 0.0
H88 H 0.8819 0.81538 0.30447 0.0
H89 H 0.80976 0.84395 0.24248 0.0
H90 H 0.89914 0.90392 0.22385 0.0
O91 O 0.82937 0.81889 0.17115 0.0
O92 O 0.87543 0.85114 0.15279 0.0
O93 O 0.90292 0.85261 0.24333 0.0
C94 C 0.84828 0.83611 0.13964 0.0
H95 H 0.9053 0.77198 0.15266 0.0
H96 H 0.81838 0.89617 0.26161 0.0
H97 H 0.86078 0.80271 0.38383 0.0
H98 H 0.7778 0.78455 0.32491 0.0
Co99 Co 0.02894 0.16729 0.7926 0.0
C100 C 0.07821 0.22925 0.79983 0.0
C101 C 0.0857 0.19903 0.8399 0.0
C102 C 0.10875 0.22674 0.84756 0.0
N103 N 0.06681 0.20042 0.80911 0.0
N104 N 0.104 0.24573 0.82245 0.0
H105 H 0.06772 0.23827 0.77836 0.0
H106 H 0.08245 0.17921 0.85684 0.0
C107 C 0.07219 0.14806 0.76809 0.0
O108 O 0.08913 0.17356 0.74792 0.0
N109 N 0.99127 0.13408 0.77753 0.0
C110 C 0.96864 0.13464 0.75649 0.0
C111 C 0.9467 0.10624 0.74874 0.0
C112 C 0.98288 0.10556 0.78258 0.0
N113 N 0.95575 0.08796 0.765 0.0
C114 C 0.03094 0.20094 0.70995 0.0
C115 C 0.03498 0.16419 0.64422 0.0
C116 C 0.0338 0.18862 0.6279 0.0
C117 C 0.03126 0.20694 0.66128 0.0
C118 C 0.03396 0.15871 0.69275 0.0
N119 N 0.03347 0.17769 0.7253 0.0
H120 H 0.02745 0.21431 0.73512 0.0
H121 H 0.03221 0.13831 0.70367 0.0
H122 H 0.96834 0.15432 0.74666 0.0
H123 H 0.99669 0.09789 0.79761 0.0
O124 O 0.00979 0.18841 0.81534 0.0
O125 O 0.02062 0.15989 0.85895 0.0
O126 O 0.0474 0.14207 0.7852 0.0
C127 C 0.00948 0.1769 0.85653 0.0
H128 H 0.12693 0.23261 0.8715 0.0
H129 H 0.92575 0.09966 0.73239 0.0
H130 H 0.03543 0.14868 0.61947 0.0
H131 H 0.02925 0.22548 0.64988 0.0
Co132 Co 0.83477 0.86183 0.7866 0.0
C133 C 0.77288 0.84908 0.79077 0.0
C134 C 0.80373 0.89281 0.81248 0.0
C135 C 0.776 0.88842 0.81891 0.0
N136 N 0.80187 0.86837 0.79389 0.0
N137 N 0.7566 0.86087 0.80542 0.0
H138 H 0.76372 0.82664 0.77971 0.0
H139 H 0.82392 0.91216 0.82251 0.0
C140 C 0.85111 0.91664 0.73182 0.0
O141 O 0.8252 0.9034 0.71153 0.0
N142 N 0.86742 0.85515 0.78036 0.0
C143 C 0.86506 0.8286 0.77661 0.0
C144 C 0.89213 0.83222 0.76637 0.0
C145 C 0.89594 0.87466 0.77251 0.0
N146 N 0.9115 0.86114 0.76354 0.0
C147 C 0.79864 0.81591 0.72006 0.0
C148 C 0.83268 0.84344 0.6412 0.0
C149 C 0.80858 0.81541 0.63615 0.0
C150 C 0.7915 0.80132 0.67612 0.0
C151 C 0.83932 0.85687 0.68554 0.0
N152 N 0.82175 0.8438 0.7241 0.0
H153 H 0.78647 0.80417 0.75117 0.0
H154 H 0.85963 0.87722 0.68892 0.0
H155 H 0.84481 0.80797 0.77944 0.0
H156 H 0.90489 0.89811 0.77136 0.0
O157 O 0.81517 0.8277 0.82827 0.0
O158 O 0.84499 0.87334 0.85134 0.0
O159 O 0.85883 0.90244 0.75942 0.0
C160 C 0.82813 0.84614 0.86301 0.0
H161 H 0.77056 0.90384 0.83457 0.0
H162 H 0.8971 0.81485 0.76095 0.0
H163 H 0.84707 0.85439 0.61138 0.0
H164 H 0.77333 0.77912 0.67365 0.0
Co165 Co 0.14307 0.97259 0.79573 0.0
C166 C 0.15228 0.92176 0.78462 0.0
C167 C 0.10818 0.90856 0.80403 0.0
C168 C 0.11163 0.88441 0.80563 0.0
N169 N 0.13347 0.93199 0.78966 0.0
N170 N 0.13947 0.89275 0.79375 0.0
H171 H 0.17535 0.93551 0.77801 0.0
H172 H 0.08914 0.90932 0.81627 0.0
C173 C 0.08457 0.94355 0.747 0.0
O174 O 0.09421 0.93105 0.71728 0.0
N175 N 0.15322 0.01311 0.80317 0.0
C176 C 0.18075 0.03598 0.80552 0.0
C177 C 0.17986 0.0615 0.80281 0.0
C178 C 0.13592 0.02511 0.79911 0.0
N179 N 0.15171 0.05469 0.79821 0.0
C180 C 0.18075 0.98186 0.71367 0.0
C181 C 0.15319 0.00305 0.65568 0.0
C182 C 0.17771 0.00257 0.63815 0.0
C183 C 0.19148 0.99151 0.66745 0.0
C184 C 0.14312 0.99301 0.7013 0.0
N185 N 0.15628 0.98187 0.72969 0.0
H186 H 0.19298 0.97576 0.73704 0.0
H187 H 0.12523 0.99544 0.71416 0.0
H188 H 0.20038 0.03435 0.80668 0.0
H189 H 0.11253 0.01256 0.79365 0.0
O190 O 0.17928 0.98155 0.82865 0.0
O191 O 0.13601 0.96623 0.86244 0.0
O192 O 0.10162 0.96133 0.77848 0.0
C193 C 0.16347 0.97443 0.86732 0.0
H194 H 0.09553 0.8629 0.81829 0.0
H195 H 0.19866 0.08337 0.80278 0.0
H196 H 0.14202 0.01162 0.63443 0.0
H197 H 0.21099 0.99149 0.65551 0.0
Co198 Co 0.83645 0.36261 0.52786 0.0
C199 C 0.8969 0.41428 0.521 0.0
C200 C 0.86449 0.42203 0.48922 0.0
C201 C 0.89153 0.44615 0.48136 0.0
N202 N 0.86771 0.40224 0.51501 0.0
N203 N 0.91191 0.44121 0.5012 0.0
H204 H 0.9072 0.40336 0.53763 0.0
H205 H 0.84393 0.41863 0.47522 0.0
C206 C 0.81262 0.40039 0.56271 0.0
O207 O 0.83751 0.41728 0.58462 0.0
N208 N 0.80498 0.32332 0.53917 0.0
C209 C 0.80695 0.3009 0.55802 0.0
C210 C 0.77907 0.2774 0.56345 0.0
C211 C 0.7762 0.31326 0.53298 0.0
N212 N 0.75978 0.28528 0.54779 0.0
C213 C 0.87189 0.36372 0.60657 0.0
C214 C 0.8334 0.35953 0.67679 0.0
C215 C 0.85905 0.35964 0.68983 0.0
C216 C 0.87835 0.36147 0.65411 0.0
C217 C 0.82758 0.36128 0.62904 0.0
N218 N 0.84725 0.36463 0.59453 0.0
H219 H 0.88598 0.36311 0.57942 0.0
H220 H 0.80641 0.35833 0.61999 0.0
H221 H 0.82718 0.30179 0.56802 0.0
H222 H 0.76744 0.32647 0.51929 0.0
O223 O 0.85969 0.34697 0.50103 0.0
O224 O 0.82943 0.3571 0.46093 0.0
O225 O 0.80875 0.37767 0.54049 0.0
C226 C 0.84781 0.34753 0.46076 0.0
H227 H 0.89595 0.46515 0.46041 0.0
H228 H 0.7735 0.25622 0.57794 0.0
H229 H 0.81719 0.35663 0.70318 0.0
H230 H 0.89791 0.3606 0.66274 0.0
Co231 Co 0.63454 0.47164 0.53916 0.0
C232 C 0.58747 0.48649 0.54221 0.0
C233 C 0.57204 0.44327 0.51555 0.0
C234 C 0.55074 0.45065 0.50797 0.0
N235 N 0.59503 0.46562 0.53773 0.0
N236 N 0.56063 0.47804 0.52429 0.0
H237 H 0.60224 0.50834 0.55433 0.0
H238 H 0.57179 0.42402 0.50174 0.0
C239 C 0.59741 0.4123 0.58055 0.0
O240 O 0.58558 0.42406 0.60732 0.0
N241 N 0.67435 0.47876 0.53936 0.0
C242 C 0.69815 0.50567 0.54295 0.0
C243 C 0.72233 0.503 0.55044 0.0
C244 C 0.68451 0.45992 0.54487 0.0
N245 N 0.7138 0.47432 0.55221 0.0
C246 C 0.64287 0.5075 0.62197 0.0
C247 C 0.65618 0.47451 0.68249 0.0
C248 C 0.65924 0.50087 0.69886 0.0
C249 C 0.65197 0.5173 0.6685 0.0
C250 C 0.64686 0.46548 0.63629 0.0
N251 N 0.63976 0.48152 0.60655 0.0
H252 H 0.6404 0.52189 0.59772 0.0
H253 H 0.64725 0.44637 0.62389 0.0
H254 H 0.69795 0.52605 0.54278 0.0
H255 H 0.6707 0.43638 0.54651 0.0
O256 O 0.64883 0.51024 0.51174 0.0
O257 O 0.63317 0.46884 0.47124 0.0
O258 O 0.61834 0.42848 0.55232 0.0
C259 C 0.64369 0.49697 0.47089 0.0
H260 H 0.53072 0.4378 0.48812 0.0
H261 H 0.74446 0.52088 0.55549 0.0
H262 H 0.66188 0.46135 0.70481 0.0
H263 H 0.65487 0.53824 0.6797 0.0
Co264 Co 0.53233 0.16123 0.53323 0.0
C265 C 0.51267 0.09778 0.53362 0.0
C266 C 0.55722 0.12376 0.51127 0.0
C267 C 0.54866 0.09476 0.50446 0.0
N268 N 0.53482 0.12573 0.53045 0.0
N269 N 0.52052 0.0784 0.51824 0.0
H270 H 0.49072 0.09175 0.5438 0.0
H271 H 0.57771 0.14222 0.49973 0.0
C272 C 0.58903 0.17716 0.58162 0.0
O273 O 0.57561 0.1527 0.60616 0.0
N274 N 0.5295 0.19636 0.53475 0.0
C275 C 0.50443 0.19677 0.54147 0.0
C276 C 0.51087 0.22531 0.54564 0.0
C277 C 0.55096 0.22472 0.53471 0.0
N278 N 0.5401 0.24288 0.54168 0.0
C279 C 0.49069 0.13169 0.60943 0.0
C280 C 0.52512 0.16939 0.6804 0.0
C281 C 0.49789 0.14556 0.69257 0.0
C282 C 0.48017 0.12694 0.65629 0.0
C283 C 0.53448 0.17358 0.63332 0.0
N284 N 0.51823 0.15387 0.59881 0.0
H285 H 0.47626 0.11812 0.58161 0.0
H286 H 0.55462 0.19325 0.62472 0.0
H287 H 0.48299 0.17755 0.54461 0.0
H288 H 0.57403 0.23189 0.5316 0.0
O289 O 0.49545 0.14137 0.49852 0.0
O290 O 0.5398 0.16572 0.46629 0.0
O291 O 0.57458 0.1842 0.55336 0.0
C292 C 0.51171 0.15005 0.46042 0.0
H293 H 0.56154 0.08657 0.4874 0.0
H294 H 0.49522 0.23256 0.55162 0.0
H295 H 0.53882 0.18519 0.70698 0.0
H296 H 0.45846 0.10895 0.66405 0.0
Co297 Co 0.69157 0.50382 0.13844 0.0
C298 C 0.73766 0.56619 0.14265 0.0
C299 C 0.75188 0.53852 0.17435 0.0
C300 C 0.77309 0.56726 0.18186 0.0
N301 N 0.72986 0.53784 0.14889 0.0
N302 N 0.76394 0.5846 0.16213 0.0
H303 H 0.72384 0.57339 0.12659 0.0
H304 H 0.75179 0.51949 0.18886 0.0
C305 C 0.73285 0.48294 0.10665 0.0
O306 O 0.74901 0.50757 0.08361 0.0
N307 N 0.65336 0.47019 0.12886 0.0
C308 C 0.62968 0.47052 0.11178 0.0
C309 C 0.60751 0.4421 0.10568 0.0
C310 C 0.64536 0.44173 0.13327 0.0
N311 N 0.61748 0.42406 0.11902 0.0
C312 C 0.68761 0.53525 0.05807 0.0
C313 C 0.68869 0.49842 0.98945 0.0
C314 C 0.68536 0.52206 0.97537 0.0
C315 C 0.68459 0.5405 0.01031 0.0
C316 C 0.69127 0.49378 0.03751 0.0
N317 N 0.69202 0.51279 0.07121 0.0
H318 H 0.68478 0.54841 0.08445 0.0
H319 H 0.69102 0.47393 0.04738 0.0
H320 H 0.62884 0.49008 0.10319 0.0
H321 H 0.65992 0.4341 0.14502 0.0
O322 O 0.67322 0.52495 0.16394 0.0
O323 O 0.68722 0.49823 0.20575 0.0
O324 O 0.70963 0.47842 0.12798 0.0
C325 C 0.67544 0.51473 0.20488 0.0
H326 H 0.7928 0.57475 0.20275 0.0
H327 H 0.58583 0.43529 0.09216 0.0
H328 H 0.68786 0.48276 0.96368 0.0
H329 H 0.68108 0.55844 0.00093 0.0
Co330 Co 0.49644 0.19674 0.12887 0.0
C331 C 0.43298 0.17822 0.12727 0.0
C332 C 0.46022 0.22316 0.14686 0.0
C333 C 0.43159 0.21551 0.15497 0.0
N334 N 0.46127 0.19997 0.12875 0.0
N335 N 0.4146 0.18733 0.1425 0.0
H336 H 0.42598 0.15552 0.12069 0.0
H337 H 0.47908 0.24352 0.15772 0.0
C338 C 0.51473 0.25332 0.07934 0.0
O339 O 0.49145 0.23962 0.05215 0.0
N340 N 0.53143 0.19354 0.13085 0.0
C341 C 0.53206 0.16856 0.12442 0.0
C342 C 0.56072 0.17513 0.12168 0.0
C343 C 0.55977 0.21504 0.13232 0.0
N344 N 0.57813 0.20435 0.1263 0.0
C345 C 0.46823 0.15842 0.04762 0.0
C346 C 0.51449 0.18997 0.98625 0.0
C347 C 0.49053 0.16401 0.97006 0.0
C348 C 0.46692 0.14823 0.00101 0.0
C349 C 0.51476 0.19943 0.0324 0.0
N350 N 0.49165 0.18416 0.06252 0.0
H351 H 0.45114 0.1448 0.07213 0.0
H352 H 0.53439 0.2186 0.04441 0.0
H353 H 0.51295 0.14715 0.12 0.0
H354 H 0.5668 0.23808 0.13517 0.0
O355 O 0.47514 0.1592 0.16132 0.0
O356 O 0.49862 0.20288 0.19612 0.0
O357 O 0.52037 0.23916 0.11041 0.0
C358 C 0.48276 0.17468 0.20029 0.0
H359 H 0.42393 0.22896 0.17158 0.0
H360 H 0.56816 0.15962 0.11576 0.0
H361 H 0.53332 0.20264 0.96361 0.0
H362 H 0.44836 0.1276 0.99005 0.0
Co363 Co 0.80744 0.30598 0.125 0.0
C364 C 0.82412 0.25994 0.12189 0.0
C365 C 0.7809 0.24361 0.14926 0.0
C366 C 0.78876 0.22259 0.15582 0.0
N367 N 0.80288 0.26697 0.12716 0.0
N368 N 0.81614 0.23295 0.13895 0.0
H369 H 0.84579 0.27502 0.10935 0.0
H370 H 0.76141 0.24281 0.16327 0.0
C371 C 0.74836 0.26696 0.08379 0.0
O372 O 0.76069 0.2556 0.05726 0.0
N373 N 0.81313 0.34533 0.12399 0.0
C374 C 0.83965 0.36953 0.11926 0.0
C375 C 0.83615 0.39323 0.1119 0.0
C376 C 0.79364 0.35479 0.11929 0.0
N377 N 0.80731 0.38406 0.11143 0.0
C378 C 0.84419 0.31555 0.04281 0.0
C379 C 0.81014 0.32678 0.98127 0.0
C380 C 0.83717 0.33123 0.96548 0.0
C381 C 0.85413 0.32496 0.99637 0.0
C382 C 0.80104 0.31727 0.02741 0.0
N383 N 0.81764 0.31123 0.05768 0.0
H384 H 0.85889 0.31389 0.06748 0.0
H385 H 0.78143 0.31679 0.03941 0.0
H386 H 0.86031 0.36988 0.11865 0.0
H387 H 0.77014 0.34053 0.11878 0.0
O388 O 0.84605 0.3216 0.15319 0.0
O389 O 0.80422 0.30474 0.19284 0.0
O390 O 0.76414 0.28838 0.11144 0.0
C391 C 0.83245 0.31615 0.19379 0.0
H392 H 0.77613 0.20228 0.17506 0.0
H393 H 0.85356 0.41551 0.10613 0.0
H394 H 0.79653 0.33169 0.9586 0.0
H395 H 0.87555 0.32895 0.9857 0.0
Co396 Co 0.50247 0.69405 0.87172 0.0
C397 C 0.56647 0.73695 0.86066 0.0
C398 C 0.5391 0.7515 0.82872 0.0
C399 C 0.56774 0.77158 0.81858 0.0
N400 N 0.53821 0.73 0.85589 0.0
N401 N 0.58498 0.7624 0.83858 0.0
H402 H 0.57349 0.7234 0.87832 0.0
H403 H 0.52006 0.75193 0.81548 0.0
C404 C 0.49237 0.7418 0.90802 0.0
O405 O 0.51859 0.7547 0.92726 0.0
N406 N 0.4666 0.65829 0.88623 0.0
C407 C 0.46426 0.63268 0.89954 0.0
C408 C 0.43539 0.61319 0.90994 0.0
C409 C 0.43923 0.65415 0.88881 0.0
N410 N 0.41972 0.62678 0.90341 0.0
C411 C 0.5356 0.68734 0.94697 0.0
C412 C 0.50425 0.69295 0.02079 0.0
C413 C 0.52633 0.68647 0.0313 0.0
C414 C 0.54202 0.68346 0.99376 0.0
C415 C 0.49823 0.69613 0.97368 0.0
N416 N 0.51454 0.69451 0.93732 0.0
H417 H 0.54656 0.68299 0.9185 0.0
H418 H 0.47928 0.69825 0.96671 0.0
H419 H 0.4824 0.62867 0.90267 0.0
H420 H 0.43366 0.67079 0.88044 0.0
O421 O 0.51823 0.67143 0.84291 0.0
O422 O 0.49292 0.68874 0.80532 0.0
O423 O 0.48266 0.71732 0.8867 0.0
C424 C 0.50693 0.67434 0.80361 0.0
H425 H 0.57514 0.7907 0.7962 0.0
H426 H 0.42677 0.59104 0.92282 0.0
H427 H 0.49062 0.69399 0.04867 0.0
H428 H 0.55861 0.67751 0.00041 0.0
Co429 Co 0.30748 0.80781 0.859 0.0
C430 C 0.26186 0.82502 0.85224 0.0
C431 C 0.24784 0.78307 0.82115 0.0
C432 C 0.22719 0.79103 0.8114 0.0
N433 N 0.26938 0.80411 0.84767 0.0
N434 N 0.23611 0.81756 0.83076 0.0
H435 H 0.27573 0.84606 0.86812 0.0
H436 H 0.24805 0.76412 0.807 0.0
C437 C 0.26521 0.7466 0.89019 0.0
O438 O 0.25069 0.7568 0.91376 0.0
N439 N 0.3456 0.81199 0.86904 0.0
C440 C 0.36942 0.83645 0.88445 0.0
C441 C 0.39193 0.83069 0.89009 0.0
C442 C 0.35384 0.79162 0.86551 0.0
N443 N 0.38213 0.80245 0.87846 0.0
C444 C 0.30809 0.83987 0.94322 0.0
C445 C 0.30794 0.8 0.00718 0.0
C446 C 0.3077 0.82469 0.02457 0.0
C447 C 0.30854 0.84525 0.99213 0.0
C448 C 0.30809 0.79584 0.95844 0.0
N449 N 0.30626 0.81459 0.92691 0.0
H450 H 0.31039 0.85658 0.91873 0.0
H451 H 0.31046 0.77776 0.94628 0.0
H452 H 0.37023 0.85696 0.89184 0.0
H453 H 0.33924 0.76921 0.85498 0.0
O454 O 0.32629 0.8478 0.83517 0.0
O455 O 0.31246 0.80769 0.79181 0.0
O456 O 0.28856 0.7641 0.86778 0.0
C457 C 0.32424 0.83592 0.79367 0.0
H458 H 0.20816 0.77906 0.78899 0.0
H459 H 0.41384 0.84626 0.90178 0.0
H460 H 0.30889 0.78441 0.03118 0.0
H461 H 0.30966 0.86524 0.00441 0.0
Co462 Co 0.1876 0.49624 0.88579 0.0
C463 C 0.16939 0.4354 0.86241 0.0
C464 C 0.21447 0.46388 0.84404 0.0
C465 C 0.20671 0.43564 0.83129 0.0
N466 N 0.19105 0.46352 0.8638 0.0
N467 N 0.17831 0.41785 0.84272 0.0
H468 H 0.1475 0.42798 0.87551 0.0
H469 H 0.23551 0.48329 0.83841 0.0
C470 C 0.24672 0.53742 0.9321 0.0
O471 O 0.23554 0.54804 0.96251 0.0
N472 N 0.18304 0.5288 0.9073 0.0
C473 C 0.15903 0.5263 0.9287 0.0
C474 C 0.16261 0.55358 0.9355 0.0
C475 C 0.20042 0.55785 0.89933 0.0
N476 N 0.1888 0.57358 0.91766 0.0
C477 C 0.145 0.46154 0.95656 0.0
C478 C 0.18408 0.47178 0.02927 0.0
C479 C 0.15438 0.46015 0.04044 0.0
C480 C 0.13454 0.45332 0.00287 0.0
C481 C 0.19351 0.47942 0.98236 0.0
N482 N 0.17436 0.47696 0.94753 0.0
H483 H 0.12941 0.45734 0.92855 0.0
H484 H 0.21637 0.48809 0.97506 0.0
H485 H 0.13942 0.50613 0.93712 0.0
H486 H 0.22124 0.5672 0.88111 0.0
O487 O 0.15031 0.48049 0.85274 0.0
O488 O 0.19395 0.51149 0.82241 0.0
O489 O 0.23038 0.51669 0.90377 0.0
C490 C 0.16584 0.49605 0.81681 0.0
H491 H 0.22066 0.42888 0.81388 0.0
H492 H 0.14659 0.55815 0.95117 0.0
H493 H 0.20028 0.47668 0.05671 0.0
H494 H 0.11124 0.44306 0.0094 0.0
Co495 Co 0.36095 0.83219 0.458 0.0
C496 C 0.41358 0.892 0.46273 0.0
C497 C 0.42177 0.85889 0.49005 0.0
C498 C 0.44609 0.88571 0.49824 0.0
N499 N 0.40154 0.86266 0.46665 0.0
N500 N 0.44088 0.90656 0.48126 0.0
H501 H 0.40219 0.90268 0.44938 0.0
H502 H 0.41841 0.83815 0.5031 0.0
C503 C 0.39589 0.80631 0.4197 0.0
O504 O 0.41146 0.83045 0.39512 0.0
N505 N 0.32043 0.8018 0.45084 0.0
C506 C 0.29781 0.80627 0.44267 0.0
C507 C 0.27314 0.77975 0.43412 0.0
C508 C 0.30923 0.77258 0.44705 0.0
N509 N 0.28031 0.75853 0.43647 0.0
C510 C 0.36193 0.86677 0.3775 0.0
C511 C 0.34919 0.82372 0.31058 0.0
C512 C 0.35098 0.84994 0.29608 0.0
C513 C 0.3578 0.87185 0.32998 0.0
C514 C 0.35368 0.81968 0.35802 0.0
N515 N 0.36073 0.84128 0.39089 0.0
H516 H 0.36428 0.88265 0.40373 0.0
H517 H 0.34996 0.79842 0.36847 0.0
H518 H 0.29928 0.82746 0.44147 0.0
H519 H 0.32218 0.76198 0.44988 0.0
O520 O 0.34822 0.85768 0.48596 0.0
O521 O 0.35812 0.82711 0.52554 0.0
O522 O 0.37417 0.80306 0.44448 0.0
C523 C 0.35018 0.84677 0.52644 0.0
H524 H 0.46529 0.88959 0.51806 0.0
H525 H 0.25164 0.77652 0.42627 0.0
H526 H 0.34359 0.80608 0.28557 0.0
H527 H 0.35844 0.89205 0.32034 0.0
Co528 Co 0.16457 0.52549 0.47032 0.0
C529 C 0.10328 0.51127 0.46179 0.0
C530 C 0.1301 0.55412 0.4907 0.0
C531 C 0.10118 0.54683 0.49483 0.0
N532 N 0.13141 0.53187 0.46946 0.0
N533 N 0.08436 0.51967 0.47712 0.0
H534 H 0.09657 0.48969 0.44862 0.0
H535 H 0.14868 0.5733 0.50562 0.0
C536 C 0.18737 0.58465 0.42404 0.0
O537 O 0.16276 0.57511 0.4004 0.0
N538 N 0.19706 0.51821 0.47175 0.0
C539 C 0.19459 0.4916 0.47624 0.0
C540 C 0.22124 0.49397 0.46697 0.0
C541 C 0.22524 0.53641 0.45955 0.0
N542 N 0.24042 0.52208 0.45617 0.0
C543 C 0.13546 0.4818 0.39791 0.0
C544 C 0.1732 0.51325 0.32489 0.0
C545 C 0.15077 0.48472 0.31628 0.0
C546 C 0.13167 0.46879 0.35315 0.0
C547 C 0.17619 0.52541 0.36991 0.0
N548 N 0.15693 0.51013 0.40563 0.0
H549 H 0.12187 0.46854 0.42681 0.0
H550 H 0.19511 0.5465 0.37615 0.0
H551 H 0.1745 0.47144 0.48339 0.0
H552 H 0.23413 0.55922 0.45055 0.0
O553 O 0.14103 0.48974 0.50686 0.0
O554 O 0.1689 0.53414 0.5368 0.0
O555 O 0.19161 0.56714 0.44972 0.0
C556 C 0.15091 0.50656 0.54418 0.0
H557 H 0.09316 0.55951 0.51305 0.0
H558 H 0.22595 0.4762 0.46715 0.0
H559 H 0.1889 0.52576 0.29735 0.0
H560 H 0.11463 0.44629 0.34783 0.0
Co561 Co 0.47133 0.63502 0.46424 0.0
C562 C 0.47945 0.583 0.46256 0.0
C563 C 0.43658 0.57239 0.48549 0.0
C564 C 0.43941 0.54805 0.49114 0.0
N565 N 0.46142 0.59422 0.46642 0.0
N566 N 0.46646 0.55477 0.47701 0.0
H567 H 0.50216 0.59562 0.45257 0.0
H568 H 0.41835 0.57457 0.4978 0.0
C569 C 0.41185 0.60263 0.41971 0.0
O570 O 0.42078 0.58804 0.39334 0.0
N571 N 0.48135 0.67571 0.46345 0.0
C572 C 0.50867 0.6988 0.45985 0.0
C573 C 0.50695 0.72366 0.45249 0.0
C574 C 0.46338 0.68686 0.45831 0.0
N575 N 0.47846 0.71611 0.45104 0.0
C576 C 0.50806 0.63986 0.38421 0.0
C577 C 0.48005 0.65765 0.32067 0.0
C578 C 0.50561 0.65812 0.30638 0.0
C579 C 0.51947 0.64853 0.3382 0.0
C580 C 0.46936 0.64868 0.36633 0.0
N581 N 0.483 0.63956 0.39764 0.0
H582 H 0.52052 0.63534 0.4097 0.0
H583 H 0.4511 0.6511 0.37713 0.0
H584 H 0.52851 0.69756 0.4602 0.0
H585 H 0.43982 0.6737 0.45691 0.0
O586 O 0.5085 0.64639 0.49516 0.0
O587 O 0.46639 0.63364 0.53164 0.0
O588 O 0.42955 0.62256 0.44796 0.0
C589 C 0.49404 0.64213 0.53474 0.0
H590 H 0.42356 0.52774 0.50781 0.0
H591 H 0.52534 0.74548 0.44737 0.0
H592 H 0.46894 0.66526 0.29719 0.0
H593 H 0.53973 0.64931 0.32856 0.0
H594 H 0.15799 0.12599 0.2464 0.0
H595 H 0.09448 0.04209 0.18853 0.0
H596 H 0.0596 0.05908 0.17851 0.0
H597 H 0.04758 0.09829 0.18306 0.0
H598 H 0.11045 0.18174 0.24322 0.0
H599 H 0.14496 0.16449 0.25455 0.0
C600 C 0.13648 0.11137 0.23182 0.0
C601 C 0.12903 0.08282 0.21825 0.0
C602 C 0.11636 0.12128 0.22596 0.0
C603 C 0.10094 0.06417 0.19951 0.0
C604 C 0.0809 0.07389 0.19355 0.0
C605 C 0.06865 0.11267 0.19912 0.0
C606 C 0.07626 0.14146 0.2116 0.0
C607 C 0.08844 0.10249 0.20626 0.0
C608 C 0.10397 0.15971 0.23208 0.0
C609 C 0.12378 0.14978 0.23902 0.0
H610 H 0.91153 0.9535 0.20188 0.0
H611 H 0.84693 0.93782 0.3093 0.0
H612 H 0.86676 0.99023 0.31887 0.0
H613 H 0.9005 0.04046 0.29384 0.0
H614 H 0.96533 0.05694 0.1863 0.0
H615 H 0.94775 0.00453 0.18035 0.0
C616 C 0.90208 0.9616 0.22775 0.0
C617 C 0.87745 0.94168 0.25422 0.0
C618 C 0.91359 0.99198 0.23307 0.0
C619 C 0.86542 0.95259 0.28759 0.0
C620 C 0.87686 0.98261 0.29334 0.0
C621 C 0.911 0.03268 0.26938 0.0
C622 C 0.93405 0.05267 0.24035 0.0
C623 C 0.9006 0.0025 0.26573 0.0
C624 C 0.94743 0.04208 0.20898 0.0
C625 C 0.93735 0.01206 0.20545 0.0
H626 H 0.95758 0.926 0.29474 0.0
H627 H 0.94418 0.8395 0.2703 0.0
H628 H 0.99698 0.85929 0.26393 0.0
H629 H 0.04648 0.90168 0.25713 0.0
H630 H 0.05985 0.98862 0.27577 0.0
H631 H 0.00775 0.96842 0.29215 0.0
C632 C 0.9664 0.91153 0.28928 0.0
C633 C 0.94725 0.8814 0.28348 0.0
C634 C 0.99673 0.92323 0.28362 0.0
C635 C 0.95869 0.86279 0.27517 0.0
C636 C 0.98881 0.8741 0.27123 0.0
C637 C 0.03802 0.91612 0.26551 0.0
C638 C 0.05692 0.94655 0.26487 0.0
C639 C 0.00798 0.90436 0.27411 0.0
C640 C 0.04563 0.9651 0.27524 0.0
C641 C 0.01587 0.95356 0.2849 0.0
H642 H 0.09767 0.04604 0.81591 0.0
H643 H 0.18197 0.10861 0.75817 0.0
H644 H 0.16455 0.14269 0.74252 0.0
H645 H 0.12564 0.1552 0.74607 0.0
H646 H 0.04111 0.09239 0.80293 0.0
H647 H 0.05821 0.05784 0.81697 0.0
C648 C 0.11216 0.067 0.79952 0.0
C649 C 0.14118 0.07472 0.78874 0.0
C650 C 0.10193 0.08649 0.79014 0.0
C651 C 0.15972 0.1022 0.76789 0.0
C652 C 0.14971 0.12168 0.75848 0.0
C653 C 0.11088 0.13389 0.7612 0.0
C654 C 0.08216 0.1265 0.77344 0.0
C655 C 0.1209 0.11413 0.76963 0.0
C656 C 0.06337 0.09876 0.79317 0.0
C657 C 0.07313 0.07894 0.80136 0.0
H658 H 0.9123 0.05342 0.70416 0.0
H659 H 0.96414 0.05086 0.82094 0.0
H660 H 0.93806 0.99765 0.81772 0.0
H661 H 0.89908 0.9518 0.78466 0.0
H662 H 0.84523 0.95384 0.67079 0.0
H663 H 0.87356 0.00733 0.67012 0.0
C664 C 0.91777 0.0413 0.72922 0.0
C665 C 0.94021 0.05636 0.76283 0.0
C666 C 0.90234 0.01056 0.72768 0.0
C667 C 0.94728 0.04008 0.79432 0.0
C668 C 0.93225 0.00954 0.79269 0.0
C669 C 0.89368 0.96387 0.75927 0.0
C670 C 0.87003 0.94879 0.72781 0.0
C671 C 0.90962 0.99457 0.75977 0.0
C672 C 0.8633 0.96488 0.69543 0.0
C673 C 0.87944 0.99548 0.69513 0.0
H674 H 0.03948 0.89613 0.70461 0.0
H675 H 0.05887 0.9703 0.79361 0.0
H676 H 0.00667 0.95226 0.80418 0.0
H677 H 0.95542 0.91332 0.79329 0.0
H678 H 0.93638 0.83865 0.70609 0.0
H679 H 0.98837 0.85886 0.68991 0.0
C680 C 0.03231 0.90859 0.72574 0.0
C681 C 0.05309 0.93446 0.74839 0.0
C682 C 0.00224 0.89778 0.73254 0.0
C683 C 0.04337 0.95023 0.77592 0.0
C684 C 0.01349 0.9399 0.7821 0.0
C685 C 0.96267 0.90172 0.77025 0.0
C686 C 0.94206 0.87436 0.75144 0.0
C687 C 0.99271 0.91338 0.76138 0.0
C688 C 0.95181 0.85945 0.72186 0.0
C689 C 0.98155 0.87108 0.71233 0.0
H690 H 0.70819 0.42343 0.52103 0.0
H691 H 0.76115 0.49834 0.60954 0.0
H692 H 0.79577 0.48126 0.6227 0.0
H693 H 0.81278 0.4468 0.60508 0.0
H694 H 0.76005 0.37164 0.51656 0.0
H695 H 0.72353 0.38677 0.50808 0.0
C696 C 0.72709 0.43572 0.54368 0.0
C697 C 0.73236 0.46236 0.56349 0.0
C698 C 0.74708 0.42581 0.55101 0.0
C699 C 0.75698 0.47814 0.59282 0.0
C700 C 0.77674 0.46832 0.60062 0.0
C701 C 0.79321 0.43359 0.58423 0.0
C702 C 0.78937 0.40831 0.5612 0.0
C703 C 0.77234 0.44251 0.57912 0.0
C704 C 0.76372 0.39134 0.53456 0.0
C705 C 0.74277 0.39998 0.52957 0.0
H706 H 0.61661 0.3801 0.5317 0.0
H707 H 0.55083 0.37206 0.63174 0.0
H708 H 0.5282 0.31903 0.62984 0.0
H709 H 0.52557 0.27484 0.59755 0.0
H710 H 0.59053 0.28163 0.4975 0.0
H711 H 0.61529 0.33522 0.5022 0.0
C712 C 0.59743 0.36675 0.55329 0.0
C713 C 0.58535 0.38016 0.58155 0.0
C714 C 0.58435 0.33603 0.55201 0.0
C715 C 0.56059 0.36247 0.60953 0.0
C716 C 0.54756 0.33206 0.60844 0.0
C717 C 0.54506 0.28803 0.57656 0.0
C718 C 0.55595 0.2743 0.54667 0.0
C719 C 0.55898 0.31862 0.57935 0.0
C720 C 0.58173 0.2917 0.52077 0.0
C721 C 0.59578 0.32231 0.52329 0.0
H722 H 0.62348 0.22405 0.52619 0.0
H723 H 0.62713 0.17176 0.64128 0.0
H724 H 0.68058 0.2008 0.64105 0.0
H725 H 0.72623 0.24057 0.6072 0.0
H726 H 0.72202 0.2914 0.49028 0.0
H727 H 0.66877 0.26348 0.49254 0.0
C728 C 0.63589 0.21905 0.5515 0.0
C729 C 0.62127 0.19574 0.58374 0.0
C730 C 0.66654 0.23554 0.55076 0.0
C731 C 0.6378 0.18957 0.61607 0.0
C732 C 0.66838 0.20612 0.61589 0.0
C733 C 0.71371 0.24536 0.58188 0.0
C734 C 0.72825 0.26813 0.54864 0.0
C735 C 0.68299 0.229 0.58309 0.0
C736 C 0.71153 0.27431 0.51666 0.0
C737 C 0.68102 0.25824 0.51776 0.0
H738 H 0.75784 0.37939 0.14814 0.0
H739 H 0.82864 0.42971 0.05079 0.0
H740 H 0.81136 0.46435 0.03936 0.0
H741 H 0.77792 0.48216 0.06052 0.0
H742 H 0.7069 0.4321 0.15799 0.0
H743 H 0.72222 0.39567 0.16543 0.0
C744 C 0.76914 0.39771 0.12395 0.0
C745 C 0.79472 0.40221 0.10099 0.0
C746 C 0.75917 0.41779 0.11775 0.0
C747 C 0.80925 0.42611 0.06975 0.0
C748 C 0.79934 0.4459 0.06303 0.0
C749 C 0.7657 0.46323 0.08322 0.0
C750 C 0.74143 0.4601 0.10882 0.0
C751 C 0.77468 0.44232 0.08757 0.0
C752 C 0.72573 0.43522 0.13783 0.0
C753 C 0.73449 0.41431 0.14222 0.0
H754 H 0.57463 0.39028 0.05744 0.0
H755 H 0.62605 0.38691 0.17402 0.0
H756 H 0.59996 0.33356 0.16975 0.0
H757 H 0.56137 0.28801 0.13512 0.0
H758 H 0.50892 0.29114 0.0198 0.0
H759 H 0.53664 0.34458 0.02146 0.0
C760 C 0.57995 0.37789 0.0822 0.0
C761 C 0.60213 0.39259 0.11622 0.0
C762 C 0.56473 0.34722 0.07973 0.0
C763 C 0.60922 0.37618 0.1473 0.0
C764 C 0.59423 0.34567 0.14501 0.0
C765 C 0.55607 0.30032 0.11007 0.0
C766 C 0.53299 0.28556 0.07751 0.0
C767 C 0.57183 0.33098 0.11158 0.0
C768 C 0.52653 0.30192 0.0453 0.0
C769 C 0.54231 0.33249 0.04631 0.0
H770 H 0.71509 0.28455 0.13328 0.0
H771 H 0.70878 0.21907 0.03422 0.0
H772 H 0.65561 0.19449 0.03792 0.0
H773 H 0.61088 0.19035 0.07111 0.0
H774 H 0.61614 0.25519 0.16997 0.0
H775 H 0.66969 0.28147 0.16407 0.0
C776 C 0.70208 0.26501 0.11228 0.0
C777 C 0.71604 0.25363 0.08372 0.0
C778 C 0.67131 0.25081 0.11462 0.0
C779 C 0.69877 0.22835 0.05659 0.0
C780 C 0.66829 0.21418 0.05873 0.0
C781 C 0.62373 0.21011 0.09166 0.0
C782 C 0.60956 0.22057 0.12147 0.0
C783 C 0.65435 0.22498 0.08805 0.0
C784 C 0.62653 0.2467 0.14678 0.0
C785 C 0.65713 0.26164 0.14353 0.0
H786 H 0.43043 0.81698 0.93112 0.0
H787 H 0.37072 0.75306 0.83078 0.0
H788 H 0.3988 0.72781 0.83321 0.0
H789 H 0.44128 0.72492 0.86131 0.0
H790 H 0.50226 0.79014 0.95878 0.0
H791 H 0.47282 0.8141 0.95935 0.0
C792 C 0.42363 0.79774 0.90931 0.0
C793 C 0.39845 0.78715 0.88057 0.0
C794 C 0.44018 0.78359 0.91023 0.0
C795 C 0.38976 0.76167 0.85356 0.0
C796 C 0.40594 0.74727 0.8547 0.0
C797 C 0.44811 0.7443 0.88292 0.0
C798 C 0.47401 0.75573 0.90994 0.0
C799 C 0.43129 0.75816 0.88264 0.0
C800 C 0.48251 0.78092 0.93754 0.0
C801 C 0.46567 0.79463 0.93788 0.0
H802 H 0.22469 0.70514 0.94832 0.0
H803 H 0.28279 0.71678 0.83189 0.0
H804 H 0.26469 0.66412 0.83028 0.0
H805 H 0.23112 0.61442 0.86065 0.0
H806 H 0.17508 0.60406 0.97983 0.0
H807 H 0.19342 0.65632 0.98118 0.0
C808 C 0.2334 0.69618 0.92255 0.0
C809 C 0.25486 0.71484 0.89009 0.0
C810 C 0.22312 0.66598 0.92206 0.0
C811 C 0.26618 0.70289 0.8573 0.0
C812 C 0.25582 0.67275 0.85629 0.0
C813 C 0.22311 0.62358 0.88717 0.0
C814 C 0.20124 0.60498 0.9194 0.0
C815 C 0.23414 0.65402 0.88838 0.0
C816 C 0.19121 0.61748 0.95355 0.0
C817 C 0.20187 0.64753 0.9547 0.0
H818 H 0.28987 0.59337 0.9494 0.0
H819 H 0.27512 0.5084 0.90741 0.0
H820 H 0.32759 0.52853 0.89565 0.0
H821 H 0.37743 0.57057 0.89406 0.0
H822 H 0.39251 0.65609 0.93274 0.0
H823 H 0.34025 0.63566 0.94834 0.0
C824 C 0.29826 0.57925 0.93834 0.0
C825 C 0.2787 0.54943 0.92955 0.0
C826 C 0.32847 0.59116 0.93041 0.0
C827 C 0.28976 0.53145 0.91436 0.0
C828 C 0.31974 0.54294 0.90755 0.0
C829 C 0.36932 0.58468 0.90633 0.0
C830 C 0.38887 0.61479 0.91223 0.0
C831 C 0.33926 0.57281 0.91493 0.0
C832 C 0.37791 0.6329 0.92735 0.0
C833 C 0.34804 0.62118 0.93661 0.0
H834 H 0.42507 0.70773 0.474 0.0
H835 H 0.50515 0.76678 0.40073 0.0
H836 H 0.48589 0.799 0.3821 0.0
H837 H 0.44705 0.81141 0.38871 0.0
H838 H 0.36682 0.75242 0.4617 0.0
H839 H 0.38514 0.71889 0.4771 0.0
C840 C 0.43821 0.72746 0.45353 0.0
C841 C 0.46668 0.73485 0.43935 0.0
C842 C 0.42692 0.74589 0.44256 0.0
C843 C 0.48345 0.76074 0.41315 0.0
C844 C 0.47235 0.77913 0.40204 0.0
C845 C 0.4334 0.79106 0.40747 0.0
C846 C 0.40565 0.78453 0.42411 0.0
C847 C 0.44422 0.77206 0.41689 0.0
C848 C 0.38833 0.75808 0.44857 0.0
C849 C 0.39881 0.7389 0.45756 0.0
H850 H 0.28796 0.71376 0.46509 0.0
H851 H 0.22959 0.73322 0.3859 0.0
H852 H 0.19646 0.68128 0.37284 0.0
H853 H 0.18287 0.62997 0.38637 0.0
H854 H 0.24164 0.61065 0.46463 0.0
H855 H 0.27596 0.66273 0.47427 0.0
C856 C 0.26823 0.70678 0.44446 0.0
C857 C 0.26132 0.72766 0.42714 0.0
C858 C 0.24925 0.67673 0.43661 0.0
C859 C 0.23535 0.71787 0.40077 0.0
C860 C 0.2164 0.68805 0.39286 0.0
C861 C 0.20333 0.63713 0.40503 0.0
C862 C 0.2095 0.6163 0.42486 0.0
C863 C 0.22295 0.66724 0.41102 0.0
C864 C 0.23617 0.62608 0.44905 0.0
C865 C 0.25584 0.65594 0.45477 0.0
H866 H 0.36566 0.55096 0.39132 0.0
H867 H 0.38771 0.63403 0.45452 0.0
H868 H 0.33603 0.61693 0.46877 0.0
H869 H 0.28493 0.57692 0.46955 0.0
H870 H 0.2631 0.49346 0.40851 0.0
H871 H 0.31426 0.51205 0.3875 0.0
C872 C 0.35912 0.56549 0.40745 0.0
C873 C 0.3805 0.59365 0.42199 0.0
C874 C 0.3294 0.55528 0.41665 0.0
C875 C 0.37169 0.61216 0.44322 0.0
C876 C 0.34213 0.60238 0.45152 0.0
C877 C 0.29134 0.56297 0.45108 0.0
C878 C 0.27031 0.53377 0.44119 0.0
C879 C 0.32086 0.57375 0.43939 0.0
C880 C 0.27897 0.51584 0.41751 0.0
C881 C 0.30819 0.52651 0.40516 0.0
H882 H 0.37309 0.15366 0.08014 0.0
H883 H 0.38775 0.18148 0.22619 0.0
H884 H 0.33511 0.15241 0.24251 0.0
H885 H 0.28454 0.1205 0.21393 0.0
H886 H 0.26955 0.09653 0.06617 0.0
H887 H 0.32244 0.12239 0.05125 0.0
C888 C 0.36455 0.15305 0.11545 0.0
C889 C 0.3839 0.16944 0.152 0.0
C890 C 0.33426 0.13707 0.12401 0.0
C891 C 0.37296 0.169 0.19766 0.0
C892 C 0.34298 0.15241 0.20692 0.0
C893 C 0.29307 0.12088 0.1787 0.0
C894 C 0.27353 0.10674 0.14116 0.0
C895 C 0.32338 0.13658 0.17026 0.0
C896 C 0.28445 0.10749 0.09536 0.0
C897 C 0.31458 0.1222 0.08693 0.0
H898 H 0.79823 0.17564 0.15322 0.0
H899 H 0.87583 0.26053 0.1382 0.0
H900 H 0.90643 0.23868 0.14937 0.0
H901 H 0.91157 0.19568 0.16408 0.0
H902 H 0.8343 0.11114 0.1833 0.0
H903 H 0.80339 0.13276 0.17019 0.0
C904 C 0.82181 0.18949 0.15275 0.0
C905 C 0.8344 0.21981 0.14461 0.0
C906 C 0.83951 0.17684 0.16011 0.0
C907 C 0.86516 0.23714 0.14347 0.0
C908 C 0.88285 0.22467 0.15032 0.0
C909 C 0.88801 0.18196 0.16608 0.0
C910 C 0.87541 0.15171 0.17474 0.0
C911 C 0.87029 0.19458 0.15885 0.0
C912 C 0.8447 0.13437 0.17616 0.0
C913 C 0.82696 0.14675 0.16886 0.0
H914 H 0.8217 0.62317 0.16931 0.0
H915 H 0.73704 0.61701 0.16314 0.0
H916 H 0.76005 0.67003 0.16771 0.0
H917 H 0.80411 0.71825 0.1732 0.0
H918 H 0.88882 0.72473 0.18211 0.0
H919 H 0.86592 0.67162 0.17667 0.0
C920 C 0.8083 0.63342 0.16933 0.0
C921 C 0.7777 0.61603 0.16547 0.0
C922 C 0.82167 0.66405 0.17236 0.0
C923 C 0.76066 0.62975 0.16506 0.0
C924 C 0.77379 0.66014 0.16806 0.0
C925 C 0.81758 0.70809 0.17449 0.0
C926 C 0.84818 0.72559 0.17803 0.0
C927 C 0.80426 0.67751 0.17166 0.0
C928 C 0.86527 0.71193 0.17876 0.0
C929 C 0.85217 0.68149 0.17594 0.0
H930 H 0.08548 0.2849 0.81561 0.0
H931 H 0.16271 0.2773 0.83165 0.0
H932 H 0.193 0.33045 0.83799 0.0
H933 H 0.19727 0.37898 0.84197 0.0
H934 H 0.11999 0.38656 0.82642 0.0
H935 H 0.09 0.33362 0.81684 0.0
C936 C 0.10898 0.29492 0.81979 0.0
C937 C 0.12182 0.27717 0.82321 0.0
C938 C 0.12622 0.32549 0.82385 0.0
C939 C 0.15227 0.29048 0.82945 0.0
C940 C 0.16961 0.32086 0.83293 0.0
C941 C 0.17393 0.36907 0.83592 0.0
C942 C 0.16091 0.38671 0.83518 0.0
C943 C 0.15679 0.33857 0.83065 0.0
C944 C 0.13053 0.37347 0.82793 0.0
C945 C 0.11337 0.34319 0.82217 0.0
H946 H 0.62304 0.81965 0.82423 0.0
H947 H 0.61796 0.73601 0.84269 0.0
H948 H 0.67095 0.75918 0.83372 0.0
H949 H 0.71884 0.8033 0.82042 0.0
H950 H 0.72343 0.88656 0.79986 0.0
H951 H 0.67051 0.86338 0.80945 0.0
C952 C 0.63343 0.80639 0.82585 0.0
C953 C 0.61639 0.77609 0.83413 0.0
C954 C 0.66388 0.81981 0.8202 0.0
C955 C 0.63043 0.75941 0.83703 0.0
C956 C 0.66078 0.77263 0.83153 0.0
C957 C 0.70825 0.81631 0.81744 0.0
C958 C 0.72516 0.84668 0.80942 0.0
C959 C 0.67772 0.80281 0.82298 0.0
C960 C 0.71103 0.86325 0.80655 0.0
C961 C 0.68074 0.84998 0.81185 0.0
H962 H 0.1793 0.79904 0.81115 0.0
H963 H 0.26251 0.87696 0.83682 0.0
H964 H 0.23988 0.90704 0.82741 0.0
H965 H 0.19652 0.91147 0.81254 0.0
H966 H 0.11369 0.83402 0.7833 0.0
H967 H 0.13624 0.80366 0.79308 0.0
C968 C 0.19262 0.8226 0.81424 0.0
C969 C 0.22263 0.83547 0.82504 0.0
C970 C 0.17953 0.83997 0.80806 0.0
C971 C 0.23931 0.86614 0.82951 0.0
C972 C 0.22641 0.88351 0.8237 0.0
C973 C 0.18341 0.88803 0.80752 0.0
C974 C 0.15335 0.87514 0.79716 0.0
C975 C 0.19655 0.87068 0.813 0.0
C976 C 0.13675 0.84456 0.79181 0.0
C977 C 0.14967 0.82716 0.79724 0.0
H978 H 0.95211 0.42394 0.49901 0.0
H979 H 0.94227 0.5003 0.49478 0.0
H980 H 0.9952 0.53171 0.48616 0.0
H981 H 0.04438 0.53735 0.47936 0.0
H982 H 0.05354 0.46054 0.48598 0.0
H983 H 0.00091 0.42956 0.49398 0.0
C984 C 0.96152 0.44746 0.49688 0.0
C985 C 0.94322 0.45972 0.4977 0.0
C986 C 0.99192 0.46535 0.49194 0.0
C987 C 0.95583 0.49026 0.49381 0.0
C988 C 0.98611 0.50825 0.48905 0.0
C989 C 0.03485 0.51386 0.48279 0.0
C990 C 0.05302 0.50142 0.48148 0.0
C991 C 0.00438 0.49602 0.48794 0.0
C992 C 0.04023 0.47083 0.48566 0.0
C993 C 0.01004 0.45302 0.49074 0.0
H994 H 0.52373 0.57302 0.4916 0.0
H995 H 0.43892 0.4956 0.47653 0.0
H996 H 0.46052 0.46478 0.49123 0.0
H997 H 0.50341 0.45986 0.50951 0.0
H998 H 0.58846 0.53765 0.52058 0.0
H999 H 0.56674 0.56809 0.50669 0.0
C1000 C 0.50998 0.54944 0.49075 0.0
C1001 C 0.47969 0.53672 0.48295 0.0
C1002 C 0.52254 0.53182 0.49906 0.0
C1003 C 0.46223 0.50602 0.48298 0.0
C1004 C 0.47458 0.48835 0.49124 0.0
C1005 C 0.51728 0.48344 0.50853 0.0
C1006 C 0.54758 0.49618 0.5166 0.0
C1007 C 0.50471 0.50102 0.49959 0.0
C1008 C 0.56504 0.52693 0.51566 0.0
C1009 C 0.55266 0.54451 0.50719 0.0
H1010 H 0.42381 0.94701 0.48796 0.0
H1011 H 0.49991 0.9366 0.48806 0.0
H1012 H 0.53142 0.98906 0.50092 0.0
H1013 H 0.53732 0.03782 0.51264 0.0
H1014 H 0.4612 0.04828 0.50886 0.0
H1015 H 0.42985 0.99591 0.49725 0.0
C1016 C 0.44729 0.95619 0.49007 0.0
C1017 C 0.45941 0.93777 0.48696 0.0
C1018 C 0.46533 0.98642 0.49724 0.0
C1019 C 0.48993 0.95015 0.49084 0.0
C1020 C 0.508 0.9802 0.49802 0.0
C1021 C 0.51392 0.02875 0.50887 0.0
C1022 C 0.50183 0.04721 0.51192 0.0
C1023 C 0.49592 0.99853 0.5014 0.0
C1024 C 0.4713 0.0348 0.50763 0.0
C1025 C 0.45326 0.00476 0.50052 0.0
H1026 H 0.20003 0.06209 0.43759 0.0
H1027 H 0.19821 0.98258 0.39576 0.0
H1028 H 0.19667 0.96884 0.47923 0.0
H1029 H 0.18942 0.97656 0.56395 0.0
H1030 H 0.18998 0.05565 0.60449 0.0
H1031 H 0.19859 0.07247 0.52215 0.0
C1032 C 0.19967 0.04193 0.44681 0.0
C1033 C 0.19898 0.0233 0.41051 0.0
C1034 C 0.1983 0.03396 0.4948 0.0
C1035 C 0.19893 0.99743 0.423 0.0
C1036 C 0.19781 0.98943 0.47077 0.0
C1037 C 0.19216 0.99776 0.55476 0.0
C1038 C 0.18873 0.01469 0.59006 0.0
C1039 C 0.19662 0.00711 0.50698 0.0
C1040 C 0.19219 0.04209 0.57776 0.0
C1041 C 0.19705 0.0517 0.53069 0.0
H1042 H 0.9936 0.19542 0.57699 0.0
H1043 H 0.07278 0.19116 0.56277 0.0
H1044 H 0.06805 0.18962 0.4763 0.0
H1045 H 0.03865 0.18389 0.40572 0.0
H1046 H 0.95816 0.18573 0.41875 0.0
H1047 H 0.96638 0.19448 0.50448 0.0
C1048 C 0.01013 0.19488 0.55477 0.0
C1049 C 0.03343 0.19325 0.57602 0.0
C1050 C 0.00686 0.19328 0.50498 0.0
C1051 C 0.05459 0.19224 0.54704 0.0
C1052 C 0.05185 0.19129 0.49769 0.0
C1053 C 0.02301 0.18641 0.4273 0.0
C1054 C 0.99761 0.18369 0.40617 0.0
C1055 C 0.0276 0.19083 0.47641 0.0
C1056 C 0.97786 0.1877 0.43428 0.0
C1057 C 0.98247 0.19251 0.4833 0.0
H1058 H 0.78423 0.82467 0.55875 0.0
H1059 H 0.82368 0.77537 0.60936 0.0
H1060 H 0.82712 0.76108 0.52767 0.0
H1061 H 0.82497 0.76848 0.44134 0.0
H1062 H 0.78612 0.8188 0.39157 0.0
H1063 H 0.77565 0.82616 0.47308 0.0
C1064 C 0.79268 0.81003 0.55177 0.0
C1065 C 0.8035 0.80083 0.58957 0.0
C1066 C 0.79495 0.80235 0.5048 0.0
C1067 C 0.81488 0.78228 0.58055 0.0
C1068 C 0.81709 0.77439 0.53389 0.0
C1069 C 0.8138 0.78065 0.44837 0.0
C1070 C 0.80658 0.79325 0.41033 0.0
C1071 C 0.80816 0.78518 0.4956 0.0
C1072 C 0.79173 0.80863 0.42002 0.0
C1073 C 0.78596 0.81311 0.46673 0.0
H1074 H 0.85787 0.31128 0.89449 0.0
H1075 H 0.84006 0.38036 0.93042 0.0
H1076 H 0.84916 0.39774 0.84844 0.0
H1077 H 0.8559 0.38949 0.76511 0.0
H1078 H 0.87226 0.31979 0.72728 0.0
H1079 H 0.87074 0.30682 0.81135 0.0
C1080 C 0.85665 0.33049 0.88438 0.0
C1081 C 0.84783 0.34424 0.91799 0.0
C1082 C 0.86145 0.34011 0.83685 0.0
C1083 C 0.84631 0.36915 0.90475 0.0
C1084 C 0.85152 0.3791 0.85797 0.0
C1085 C 0.85959 0.37176 0.77546 0.0
C1086 C 0.86384 0.3554 0.74032 0.0
C1087 C 0.85808 0.36413 0.82347 0.0
C1088 C 0.86901 0.33273 0.75391 0.0
C1089 C 0.86789 0.32517 0.80188 0.0
H1090 H 0.71645 0.52076 0.90024 0.0
H1091 H 0.64278 0.53101 0.93733 0.0
H1092 H 0.63011 0.52924 0.85319 0.0
H1093 H 0.63655 0.5184 0.76996 0.0
H1094 H 0.7094 0.5064 0.73446 0.0
H1095 H 0.72596 0.51535 0.81692 0.0
C1096 C 0.69782 0.52292 0.88975 0.0
C1097 C 0.68038 0.52566 0.9247 0.0
C1098 C 0.6904 0.52132 0.84164 0.0
C1099 C 0.65657 0.52895 0.91088 0.0
C1100 C 0.64921 0.52773 0.86285 0.0
C1101 C 0.65637 0.51841 0.7803 0.0
C1102 C 0.67154 0.51136 0.74668 0.0
C1103 C 0.66546 0.52303 0.82803 0.0
C1104 C 0.69719 0.51135 0.76016 0.0
C1105 C 0.70665 0.51645 0.80719 0.0
H1106 H 0.52776 0.1436 0.76873 0.0
H1107 H 0.44665 0.13885 0.72883 0.0
H1108 H 0.43499 0.14044 0.8129 0.0
H1109 H 0.45123 0.14945 0.89731 0.0
H1110 H 0.5332 0.15522 0.93506 0.0
H1111 H 0.54109 0.14669 0.85258 0.0
C1112 C 0.50734 0.1425 0.77858 0.0
C1113 C 0.48824 0.14145 0.74287 0.0
C1114 C 0.50108 0.14382 0.82663 0.0
C1115 C 0.46166 0.13963 0.75586 0.0
C1116 C 0.45512 0.14074 0.80387 0.0
C1117 C 0.47041 0.14813 0.88744 0.0
C1118 C 0.49179 0.15329 0.92193 0.0
C1119 C 0.47509 0.1437 0.83954 0.0
C1120 C 0.51665 0.15165 0.90889 0.0
C1121 C 0.5212 0.14683 0.86178 0.0
H1122 H 0.51789 0.63202 0.23341 0.0
H1123 H 0.52058 0.71206 0.27445 0.0
H1124 H 0.53138 0.72985 0.1927 0.0
H1125 H 0.53308 0.7197 0.10834 0.0
H1126 H 0.52858 0.63913 0.06554 0.0
H1127 H 0.52611 0.62467 0.14896 0.0
C1128 C 0.52163 0.65363 0.22443 0.0
C1129 C 0.51816 0.67063 0.25944 0.0
C1130 C 0.52719 0.66346 0.17701 0.0
C1131 C 0.52289 0.69856 0.24771 0.0
C1132 C 0.52897 0.70869 0.20105 0.0
C1133 C 0.53204 0.69921 0.11744 0.0
C1134 C 0.53066 0.68035 0.0811 0.0
C1135 C 0.53005 0.69086 0.16518 0.0
C1136 C 0.52973 0.65402 0.09307 0.0
C1137 C 0.52809 0.64566 0.14071 0.0
H1138 H 0.34708 0.87151 0.07645 0.0
H1139 H 0.26942 0.78672 0.0887 0.0
H1140 H 0.27436 0.78867 0.17513 0.0
H1141 H 0.30374 0.81171 0.24586 0.0
H1142 H 0.38263 0.89551 0.23496 0.0
H1143 H 0.37408 0.89713 0.14949 0.0
C1144 C 0.33092 0.85387 0.0983 0.0
C1145 C 0.30802 0.82893 0.07653 0.0
C1146 C 0.33434 0.85484 0.148 0.0
C1147 C 0.2873 0.80602 0.10491 0.0
C1148 C 0.29017 0.80709 0.15421 0.0
C1149 C 0.31894 0.83042 0.22476 0.0
C1150 C 0.34403 0.8532 0.24624 0.0
C1151 C 0.31411 0.83091 0.17592 0.0
C1152 C 0.36323 0.87767 0.21897 0.0
C1153 C 0.3584 0.8785 0.17016 0.0
H1154 H 0.11811 0.48342 0.24171 0.0
H1155 H 0.18041 0.45815 0.28631 0.0
H1156 H 0.18424 0.44423 0.20457 0.0
H1157 H 0.17389 0.44461 0.11946 0.0
H1158 H 0.11393 0.47332 0.07477 0.0
H1159 H 0.10435 0.47951 0.15727 0.0
C1160 C 0.13193 0.47419 0.23342 0.0
C1161 C 0.14885 0.47155 0.26939 0.0
C1162 C 0.13448 0.46694 0.18632 0.0
C1163 C 0.16708 0.46004 0.25878 0.0
C1164 C 0.16935 0.45227 0.21216 0.0
C1165 C 0.15856 0.45201 0.12775 0.0
C1166 C 0.1449 0.45869 0.09071 0.0
C1167 C 0.15382 0.45647 0.1754 0.0
C1168 C 0.12459 0.46766 0.10231 0.0
C1169 C 0.1193 0.47156 0.14961 0.0
H1170 H 0.20966 0.02444 0.06879 0.0
H1171 H 0.1295 0.94651 0.10677 0.0
H1172 H 0.12421 0.9282 0.02538 0.0
H1173 H 0.13727 0.93907 0.94147 0.0
H1174 H 0.21578 0.01811 0.90133 0.0
H1175 H 0.2275 0.03112 0.98546 0.0
C1176 C 0.19176 0.00293 0.05939 0.0
C1177 C 0.17011 0.98653 0.09333 0.0
C1178 C 0.18843 0.99307 0.01208 0.0
C1179 C 0.14653 0.95912 0.08106 0.0
C1180 C 0.1434 0.94884 0.03452 0.0
C1181 C 0.15744 0.95868 0.95131 0.0
C1182 C 0.17554 0.97778 0.91562 0.0
C1183 C 0.16345 0.96627 -0.00062 0.0
C1184 C 0.20166 0.00304 0.92839 0.0
C1185 C 0.20813 0.01061 0.97644 0.0
H1186 H 0.94511 0.14688 0.04808 0.0
H1187 H 0.0292 0.21579 0.0952 0.0
H1188 H 0.04447 0.22977 0.01241 0.0
H1189 H 0.03691 0.21514 0.92761 0.0
H1190 H 0.95282 0.1458 0.88142 0.0
H1191 H 0.93401 0.13952 0.96268 0.0
C1192 C 0.96638 0.16561 0.04004 0.0
C1193 C 0.98619 0.1802 0.07712 0.0
C1194 C 0.97496 0.1732 0.99258 0.0
C1195 C 0.01366 0.20444 0.06691 0.0
C1196 C 0.02244 0.2122 0.01963 0.0
C1197 C 0.0141 0.19967 0.93524 0.0
C1198 C 0.99604 0.1811 0.89904 0.0
C1199 C 0.00375 0.1958 0.98223 0.0
C1200 C 0.96678 0.16058 0.90892 0.0
C1201 C 0.95619 0.15676 0.9554 0.0
H1202 H 0.84376 0.88233 0.93779 0.0
H1203 H 0.80441 0.79085 0.90211 0.0
H1204 H 0.80362 0.77873 0.98676 0.0
H1205 H 0.81882 0.79533 0.07048 0.0
H1206 H 0.86069 0.88751 0.10213 0.0
H1207 H 0.85547 0.89824 0.01953 0.0
C1208 C 0.83483 0.85965 0.94838 0.0
C1209 C 0.82454 0.83755 0.91372 0.0
C1210 C 0.83487 0.85306 0.99652 0.0
C1211 C 0.81261 0.80828 0.92818 0.0
C1212 C 0.81223 0.80139 0.97653 0.0
C1213 C 0.82609 0.81759 0.05918 0.0
C1214 C 0.83996 0.84068 0.09196 0.0
C1215 C 0.82389 0.82371 0.01099 0.0
C1216 C 0.84989 0.86952 0.07723 0.0
C1217 C 0.84704 0.87566 0.03008 0.0
H1218 H 0.82054 0.28183 0.27038 0.0
H1219 H 0.87755 0.36923 0.2188 0.0
H1220 H 0.8923 0.38667 0.30045 0.0
H1221 H 0.88057 0.37831 0.38616 0.0
H1222 H 0.82367 0.29077 0.43719 0.0
H1223 H 0.81761 0.27167 0.35614 0.0
C1224 C 0.83698 0.30445 0.27718 0.0
C1225 C 0.84784 0.3244 0.23935 0.0
C1226 C 0.84506 0.31419 0.32399 0.0
C1227 C 0.86913 0.35362 0.2478 0.0
C1228 C 0.87729 0.36359 0.2944 0.0
C1229 C 0.86791 0.35495 0.37946 0.0
C1230 C 0.8526 0.33579 0.41689 0.0
C1231 C 0.86427 0.34432 0.33279 0.0
C1232 C 0.83585 0.30565 0.40851 0.0
C1233 C 0.83215 0.29484 0.36224 0.0
H1234 H 0.70553 0.54762 0.27954 0.0
H1235 H 0.61844 0.48979 0.22772 0.0
H1236 H 0.59905 0.48283 0.30873 0.0
H1237 H 0.60918 0.48506 0.3945 0.0
H1238 H 0.69615 0.54315 0.44666 0.0
H1239 H 0.71352 0.55891 0.36528 0.0
C1240 C 0.68217 0.53456 0.28608 0.0
C1241 C 0.66326 0.51919 0.24848 0.0
C1242 C 0.67139 0.53042 0.33267 0.0
C1243 C 0.63312 0.502 0.25657 0.0
C1244 C 0.62216 0.49778 0.30281 0.0
C1245 C 0.63166 0.50194 0.3879 0.0
C1246 C 0.65157 0.51279 0.42574 0.0
C1247 C 0.64136 0.51064 0.34124 0.0
C1248 C 0.68059 0.53469 0.41761 0.0
C1249 C 0.69052 0.54346 0.37117 0.0
H1250 H 0.49986 0.13938 0.24036 0.0
H1251 H 0.45109 0.18337 0.26677 0.0
H1252 H 0.45049 0.17397 0.35217 0.0
H1253 H 0.47202 0.16152 0.41986 0.0
H1254 H 0.5264 0.12359 0.39303 0.0
H1255 H 0.51644 0.1217 0.30777 0.0
C1256 C 0.48817 0.14581 0.26484 0.0
C1257 C 0.47525 0.16166 0.24785 0.0
C1258 C 0.48943 0.14179 0.31399 0.0
C1259 C 0.46089 0.17082 0.27953 0.0
C1260 C 0.46078 0.16568 0.32827 0.0
C1261 C 0.48077 0.15196 0.39529 0.0
C1262 C 0.49973 0.14258 0.41215 0.0
C1263 C 0.47614 0.15238 0.34611 0.0
C1264 C 0.51165 0.13084 0.38036 0.0
C1265 C 0.50608 0.1299 0.33171 0.0
H1266 H 0.54206 0.70198 0.72926 0.0
H1267 H 0.47436 0.61776 0.77842 0.0
H1268 H 0.46772 0.5981 0.6976 0.0
H1269 H 0.47518 0.60788 0.61186 0.0
H1270 H 0.54292 0.69191 0.56204 0.0
H1271 H 0.55633 0.70873 0.64433 0.0
C1272 C 0.5266 0.6791 0.72221 0.0
C1273 C 0.50863 0.66116 0.75898 0.0
C1274 C 0.52285 0.66814 0.67571 0.0
C1275 C 0.48845 0.63167 0.75021 0.0
C1276 C 0.48455 0.62056 0.70411 0.0
C1277 C 0.49354 0.62951 0.61927 0.0
C1278 C 0.50802 0.6488 0.58157 0.0
C1279 C 0.50075 0.63897 0.66638 0.0
C1280 C 0.53174 0.67674 0.5909 0.0
C1281 C 0.53913 0.68641 0.63783 0.0
H1282 H 0.29277 0.83884 0.7213 0.0
H1283 H 0.38087 0.86817 0.768 0.0
H1284 H 0.39839 0.87945 0.68583 0.0
H1285 H 0.38628 0.8703 0.60069 0.0
H1286 H 0.29816 0.84064 0.55367 0.0
H1287 H 0.28276 0.84058 0.63598 0.0
C1288 C 0.31597 0.849 0.71342 0.0
C1289 C 0.33566 0.85289 0.75002 0.0
C1290 C 0.32563 0.85476 0.66612 0.0
C1291 C 0.36557 0.86552 0.74006 0.0
C1292 C 0.37546 0.87155 0.69311 0.0
C1293 C 0.36398 0.86489 0.60858 0.0
C1294 C 0.34321 0.85528 0.57191 0.0
C1295 C 0.3554 0.86471 0.65579 0.0
C1296 C 0.31438 0.84824 0.58175 0.0
C1297 C 0.30559 0.84797 0.62873 0.0
H1298 H 0.1486 0.53644 0.61917 0.0
H1299 H 0.13691 0.45247 0.57874 0.0
H1300 H 0.13513 0.43918 0.66291 0.0
H1301 H 0.1454 0.45533 0.74719 0.0
H1302 H 0.15993 0.54069 0.78514 0.0
H1303 H 0.15164 0.54959 0.70282 0.0
C1304 C 0.14512 0.51501 0.62885 0.0
C1305 C 0.1434 0.49561 0.59322 0.0
C1306 C 0.14473 0.50792 0.67685 0.0
C1307 C 0.13837 0.46773 0.60584 0.0
C1308 C 0.13756 0.46026 0.65387 0.0
C1309 C 0.14563 0.47535 0.73739 0.0
C1310 C 0.15289 0.4973 0.77161 0.0
C1311 C 0.14187 0.48066 0.68962 0.0
C1312 C 0.15397 0.52351 0.75904 0.0
C1313 C 0.1495 0.52865 0.71205 0.0
loop_
_geom_bond_atom_site_label_1
_geom_bond_atom_site_label_2
_geom_bond_distance
_geom_bond_site_symmetry_2
_ccdc_geom_bond_type
Co0 N4 2.148 . S
Co0 N10 2.128 1_545 S
Co0 N20 2.194 1_545 S
Co0 O25 2.351 1_545 S
Co0 O26 2.155 1_545 S
Co0 O27 2.096 . S
C1 N4 1.301 . S
C1 N5 1.328 . S
C1 H6 0.930 . S
C2 C3 1.333 . S
C2 N4 1.317 . S
C2 H7 0.930 . S
C3 C2 1.333 . S
C3 N5 1.350 . S
C3 H29 0.931 . S
N4 Co0 2.148 . S
N4 C1 1.301 . S
N4 C2 1.317 . S
N5 C1 1.328 . S
N5 C3 1.350 . S
H6 C1 0.930 . S
H7 C2 0.930 . S
C8 O9 1.224 . S
C8 O27 1.247 . S
O9 C8 1.224 . S
N10 Co0 2.128 1_565 S
N10 C11 1.355 . S
N10 C13 1.311 . S
C11 N10 1.355 . S
C11 C12 1.363 . S
C11 H23 0.929 . S
C12 C11 1.363 . S
C12 N14 1.375 . S
C12 H30 0.931 . S
C13 N10 1.311 . S
C13 N14 1.347 . S
C13 H24 0.929 . S
N14 C12 1.375 . S
N14 C13 1.347 . S
C15 C18 1.365 . S
C15 N20 1.328 . S
C15 H21 0.929 . S
C16 C17 1.362 . S
C16 C19 1.366 1_565 S
C16 H31 0.942 . S
C17 C16 1.362 . S
C17 C18 1.366 . S
C18 C15 1.365 . S
C18 C17 1.366 . S
C18 H32 0.930 . S
C19 C16 1.366 1_545 S
C19 N20 1.301 1_545 S
C19 H22 0.960 . S
N20 Co0 2.194 1_565 S
N20 C15 1.328 . S
N20 C19 1.301 1_565 S
H21 C15 0.929 . S
H22 C19 0.960 . S
H23 C11 0.929 . S
H24 C13 0.929 . S
O25 Co0 2.351 1_565 S
O25 C28 1.244 . S
O26 Co0 2.155 1_565 S
O26 C28 1.240 . S
O27 Co0 2.096 . S
O27 C8 1.247 . S
C28 O25 1.244 . S
C28 O26 1.240 . S
H29 C3 0.931 . S
H30 C12 0.931 . S
H31 C16 0.942 . S
H32 C18 0.930 . S
Co33 N37 2.148 . S
Co33 N43 2.128 1_655 S
Co33 N53 2.194 1_655 S
Co33 O58 2.351 1_655 S
Co33 O59 2.155 1_655 S
Co33 O60 2.096 . S
C34 N37 1.301 . S
C34 N38 1.328 . S
C34 H39 0.930 . S
C35 C36 1.333 . S
C35 N37 1.317 . S
C35 H40 0.930 . S
C36 C35 1.333 . S
C36 N38 1.350 . S
C36 H62 0.931 . S
N37 Co33 2.148 . S
N37 C34 1.301 . S
N37 C35 1.317 . S
N38 C34 1.328 . S
N38 C36 1.350 . S
H39 C34 0.930 . S
H40 C35 0.930 . S
C41 O42 1.224 . S
C41 O60 1.247 . S
O42 C41 1.224 . S
N43 Co33 2.128 1_455 S
N43 C44 1.355 . S
N43 C46 1.311 . S
C44 N43 1.355 . S
C44 C45 1.363 . S
C44 H56 0.929 . S
C45 C44 1.363 . S
C45 N47 1.375 . S
C45 H63 0.931 . S
C46 N43 1.311 . S
C46 N47 1.347 . S
C46 H57 0.929 . S
N47 C45 1.375 . S
N47 C46 1.347 . S
C48 C51 1.365 . S
C48 N53 1.328 . S
C48 H54 0.929 . S
C49 C50 1.362 . S
C49 C52 1.375 1_455 S
C49 H64 0.931 . S
C50 C49 1.362 . S
C50 C51 1.366 . S
C51 C48 1.365 . S
C51 C50 1.366 . S
C51 H65 0.930 . S
C52 C49 1.375 1_655 S
C52 N53 1.314 1_655 S
C52 H55 0.935 . S
N53 Co33 2.194 1_455 S
N53 C48 1.328 . S
N53 C52 1.314 1_455 S
H54 C48 0.929 . S
H55 C52 0.935 . S
H56 C44 0.929 . S
H57 C46 0.929 . S
O58 Co33 2.351 1_455 S
O58 C61 1.244 . S
O59 Co33 2.155 1_455 S
O59 C61 1.240 . S
O60 Co33 2.096 . S
O60 C41 1.247 . S
C61 O58 1.244 . S
C61 O59 1.240 . S
H62 C36 0.931 . S
H63 C45 0.931 . S
H64 C49 0.931 . S
H65 C51 0.930 . S
Co66 N70 2.148 . S
Co66 N76 2.128 . S
Co66 N86 2.194 . S
Co66 O91 2.351 . S
Co66 O92 2.155 . S
Co66 O93 2.096 . S
C67 N70 1.301 . S
C67 N71 1.328 . S
C67 H72 0.930 . S
C68 C69 1.333 . S
C68 N70 1.317 . S
C68 H73 0.930 . S
C69 C68 1.333 . S
C69 N71 1.350 . S
C69 H95 0.931 . S
N70 Co66 2.148 . S
N70 C67 1.301 . S
N70 C68 1.317 . S
N71 C67 1.328 . S
N71 C69 1.350 . S
H72 C67 0.930 . S
H73 C68 0.930 . S
C74 O75 1.224 . S
C74 O93 1.247 . S
O75 C74 1.224 . S
N76 Co66 2.128 . S
N76 C77 1.355 . S
N76 C79 1.311 . S
C77 N76 1.355 . S
C77 C78 1.363 . S
C77 H89 0.929 . S
C78 C77 1.363 . S
C78 N80 1.375 . S
C78 H96 0.931 . S
C79 N76 1.311 . S
C79 N80 1.347 . S
C79 H90 0.929 . S
N80 C78 1.375 . S
N80 C79 1.347 . S
C81 C84 1.365 . S
C81 N86 1.328 . S
C81 H87 0.929 . S
C82 C83 1.362 . S
C82 C85 1.378 . S
C82 H97 0.929 . S
C83 C82 1.362 . S
C83 C84 1.366 . S
C84 C81 1.365 . S
C84 C83 1.366 . S
C84 H98 0.930 . S
C85 C82 1.378 . S
C85 N86 1.315 . S
C85 H88 0.930 . S
N86 Co66 2.194 . S
N86 C81 1.328 . S
N86 C85 1.315 . S
H87 C81 0.929 . S
H88 C85 0.930 . S
H89 C77 0.929 . S
H90 C79 0.929 . S
O91 Co66 2.351 . S
O91 C94 1.244 . S
O92 Co66 2.155 . S
O92 C94 1.240 . S
O93 Co66 2.096 . S
O93 C74 1.247 . S
C94 O91 1.244 . S
C94 O92 1.240 . S
H95 C69 0.931 . S
H96 C78 0.931 . S
H97 C82 0.929 . S
H98 C84 0.930 . S
Co99 N103 2.148 . S
Co99 N109 2.128 1_455 S
Co99 N119 2.194 1_455 S
Co99 O124 2.351 1_455 S
Co99 O125 2.155 1_455 S
Co99 O126 2.096 . S
C100 N103 1.301 . S
C100 N104 1.328 . S
C100 H105 0.930 . S
C101 C102 1.333 . S
C101 N103 1.317 . S
C101 H106 0.930 . S
C102 C101 1.333 . S
C102 N104 1.350 . S
C102 H128 0.931 . S
N103 Co99 2.148 . S
N103 C100 1.301 . S
N103 C101 1.317 . S
N104 C100 1.328 . S
N104 C102 1.350 . S
H105 C100 0.930 . S
H106 C101 0.930 . S
C107 O108 1.224 . S
C107 O126 1.247 . S
O108 C107 1.224 . S
N109 Co99 2.128 1_655 S
N109 C110 1.355 . S
N109 C112 1.311 . S
C110 N109 1.355 . S
C110 C111 1.363 . S
C110 H122 0.929 . S
C111 C110 1.363 . S
C111 N113 1.375 . S
C111 H129 0.931 . S
C112 N109 1.311 . S
C112 N113 1.347 . S
C112 H123 0.929 . S
N113 C111 1.375 . S
N113 C112 1.347 . S
C114 C117 1.365 . S
C114 N119 1.328 . S
C114 H120 0.929 . S
C115 C116 1.362 . S
C115 C118 1.366 1_655 S
C115 H130 0.942 . S
C116 C115 1.362 . S
C116 C117 1.366 . S
C117 C114 1.365 . S
C117 C116 1.366 . S
C117 H131 0.930 . S
C118 C115 1.366 1_455 S
C118 N119 1.301 1_455 S
C118 H121 0.960 . S
N119 Co99 2.194 1_655 S
N119 C114 1.328 . S
N119 C118 1.301 1_655 S
H120 C114 0.929 . S
H121 C118 0.960 . S
H122 C110 0.929 . S
H123 C112 0.929 . S
O124 Co99 2.351 1_655 S
O124 C127 1.244 . S
O125 Co99 2.155 1_655 S
O125 C127 1.240 . S
O126 Co99 2.096 . S
O126 C107 1.247 . S
C127 O124 1.244 . S
C127 O125 1.240 . S
H128 C102 0.931 . S
H129 C111 0.931 . S
H130 C115 0.942 . S
H131 C117 0.930 . S
Co132 N136 2.148 . S
Co132 N142 2.128 . S
Co132 N152 2.194 . S
Co132 O157 2.351 . S
Co132 O158 2.155 . S
Co132 O159 2.096 . S
C133 N136 1.301 . S
C133 N137 1.328 . S
C133 H138 0.930 . S
C134 C135 1.333 . S
C134 N136 1.317 . S
C134 H139 0.930 . S
C135 C134 1.333 . S
C135 N137 1.350 . S
C135 H161 0.931 . S
N136 Co132 2.148 . S
N136 C133 1.301 . S
N136 C134 1.317 . S
N137 C133 1.328 . S
N137 C135 1.350 . S
H138 C133 0.930 . S
H139 C134 0.930 . S
C140 O141 1.224 . S
C140 O159 1.247 . S
O141 C140 1.224 . S
N142 Co132 2.128 . S
N142 C143 1.355 . S
N142 C145 1.311 . S
C143 N142 1.355 . S
C143 C144 1.363 . S
C143 H155 0.929 . S
C144 C143 1.363 . S
C144 N146 1.375 . S
C144 H162 0.931 . S
C145 N142 1.311 . S
C145 N146 1.347 . S
C145 H156 0.929 . S
N146 C144 1.375 . S
N146 C145 1.347 . S
C147 C150 1.365 . S
C147 N152 1.328 . S
C147 H153 0.929 . S
C148 C149 1.362 . S
C148 C151 1.378 . S
C148 H163 0.929 . S
C149 C148 1.362 . S
C149 C150 1.366 . S
C150 C147 1.365 . S
C150 C149 1.366 . S
C150 H164 0.930 . S
C151 C148 1.378 . S
C151 N152 1.315 . S
C151 H154 0.930 . S
N152 Co132 2.194 . S
N152 C147 1.328 . S
N152 C151 1.315 . S
H153 C147 0.929 . S
H154 C151 0.930 . S
H155 C143 0.929 . S
H156 C145 0.929 . S
O157 Co132 2.351 . S
O157 C160 1.244 . S
O158 Co132 2.155 . S
O158 C160 1.240 . S
O159 Co132 2.096 . S
O159 C140 1.247 . S
C160 O157 1.244 . S
C160 O158 1.240 . S
H161 C135 0.931 . S
H162 C144 0.931 . S
H163 C148 0.929 . S
H164 C150 0.930 . S
Co165 N169 2.148 . S
Co165 N175 2.128 1_565 S
Co165 N185 2.194 1_565 S
Co165 O190 2.351 1_565 S
Co165 O191 2.155 1_565 S
Co165 O192 2.096 . S
C166 N169 1.301 . S
C166 N170 1.328 . S
C166 H171 0.930 . S
C167 C168 1.333 . S
C167 N169 1.317 . S
C167 H172 0.930 . S
C168 C167 1.333 . S
C168 N170 1.350 . S
C168 H194 0.931 . S
N169 Co165 2.148 . S
N169 C166 1.301 . S
N169 C167 1.317 . S
N170 C166 1.328 . S
N170 C168 1.350 . S
H171 C166 0.930 . S
H172 C167 0.930 . S
C173 O174 1.224 . S
C173 O192 1.247 . S
O174 C173 1.224 . S
N175 Co165 2.128 1_545 S
N175 C176 1.355 . S
N175 C178 1.311 . S
C176 N175 1.355 . S
C176 C177 1.363 . S
C176 H188 0.929 . S
C177 C176 1.363 . S
C177 N179 1.375 . S
C177 H195 0.931 . S
C178 N175 1.311 . S
C178 N179 1.347 . S
C178 H189 0.929 . S
N179 C177 1.375 . S
N179 C178 1.347 . S
C180 C183 1.365 . S
C180 N185 1.328 . S
C180 H186 0.929 . S
C181 C182 1.362 . S
C181 C184 1.375 1_545 S
C181 H196 0.931 . S
C182 C181 1.362 . S
C182 C183 1.366 . S
C183 C180 1.365 . S
C183 C182 1.366 . S
C183 H197 0.930 . S
C184 C181 1.375 1_565 S
C184 N185 1.314 1_565 S
C184 H187 0.935 . S
N185 Co165 2.194 1_545 S
N185 C180 1.328 . S
N185 C184 1.314 1_545 S
H186 C180 0.929 . S
H187 C184 0.935 . S
H188 C176 0.929 . S
H189 C178 0.929 . S
O190 Co165 2.351 1_545 S
O190 C193 1.244 . S
O191 Co165 2.155 1_545 S
O191 C193 1.240 . S
O192 Co165 2.096 . S
O192 C173 1.247 . S
C193 O190 1.244 . S
C193 O191 1.240 . S
H194 C168 0.931 . S
H195 C177 0.931 . S
H196 C181 0.931 . S
H197 C183 0.930 . S
Co198 N202 2.148 . S
Co198 N208 2.128 . S
Co198 N218 2.194 . S
Co198 O223 2.351 . S
Co198 O224 2.155 . S
Co198 O225 2.096 . S
C199 N202 1.301 . S
C199 N203 1.328 . S
C199 H204 0.930 . S
C200 C201 1.333 . S
C200 N202 1.317 . S
C200 H205 0.930 . S
C201 C200 1.333 . S
C201 N203 1.350 . S
C201 H227 0.931 . S
N202 Co198 2.148 . S
N202 C199 1.301 . S
N202 C200 1.317 . S
N203 C199 1.328 . S
N203 C201 1.350 . S
H204 C199 0.930 . S
H205 C200 0.930 . S
C206 O207 1.224 . S
C206 O225 1.247 . S
O207 C206 1.224 . S
N208 Co198 2.128 . S
N208 C209 1.355 . S
N208 C211 1.311 . S
C209 N208 1.355 . S
C209 C210 1.363 . S
C209 H221 0.929 . S
C210 C209 1.363 . S
C210 N212 1.375 . S
C210 H228 0.931 . S
C211 N208 1.311 . S
C211 N212 1.347 . S
C211 H222 0.929 . S
N212 C210 1.375 . S
N212 C211 1.347 . S
C213 C216 1.365 . S
C213 N218 1.328 . S
C213 H219 0.929 . S
C214 C215 1.362 . S
C214 C217 1.378 . S
C214 H229 0.929 . S
C215 C214 1.362 . S
C215 C216 1.366 . S
C216 C213 1.365 . S
C216 C215 1.366 . S
C216 H230 0.930 . S
C217 C214 1.378 . S
C217 N218 1.315 . S
C217 H220 0.930 . S
N218 Co198 2.194 . S
N218 C213 1.328 . S
N218 C217 1.315 . S
H219 C213 0.929 . S
H220 C217 0.930 . S
H221 C209 0.929 . S
H222 C211 0.929 . S
O223 Co198 2.351 . S
O223 C226 1.244 . S
O224 Co198 2.155 . S
O224 C226 1.240 . S
O225 Co198 2.096 . S
O225 C206 1.247 . S
C226 O223 1.244 . S
C226 O224 1.240 . S
H227 C201 0.931 . S
H228 C210 0.931 . S
H229 C214 0.929 . S
H230 C216 0.930 . S
Co231 N235 2.148 . S
Co231 N241 2.128 . S
Co231 N251 2.194 . S
Co231 O256 2.351 . S
Co231 O257 2.155 . S
Co231 O258 2.096 . S
C232 N235 1.301 . S
C232 N236 1.328 . S
C232 H237 0.930 . S
C233 C234 1.333 . S
C233 N235 1.317 . S
C233 H238 0.930 . S
C234 C233 1.333 . S
C234 N236 1.350 . S
C234 H260 0.931 . S
N235 Co231 2.148 . S
N235 C232 1.301 . S
N235 C233 1.317 . S
N236 C232 1.328 . S
N236 C234 1.350 . S
H237 C232 0.930 . S
H238 C233 0.930 . S
C239 O240 1.224 . S
C239 O258 1.247 . S
O240 C239 1.224 . S
N241 Co231 2.128 . S
N241 C242 1.355 . S
N241 C244 1.311 . S
C242 N241 1.355 . S
C242 C243 1.363 . S
C242 H254 0.929 . S
C243 C242 1.363 . S
C243 N245 1.375 . S
C243 H261 0.931 . S
C244 N241 1.311 . S
C244 N245 1.347 . S
C244 H255 0.929 . S
N245 C243 1.375 . S
N245 C244 1.347 . S
C246 C249 1.365 . S
C246 N251 1.328 . S
C246 H252 0.929 . S
C247 C248 1.362 . S
C247 C250 1.378 . S
C247 H262 0.929 . S
C248 C247 1.362 . S
C248 C249 1.366 . S
C249 C246 1.365 . S
C249 C248 1.366 . S
C249 H263 0.930 . S
C250 C247 1.378 . S
C250 N251 1.315 . S
C250 H253 0.930 . S
N251 Co231 2.194 . S
N251 C246 1.328 . S
N251 C250 1.315 . S
H252 C246 0.929 . S
H253 C250 0.930 . S
H254 C242 0.929 . S
H255 C244 0.929 . S
O256 Co231 2.351 . S
O256 C259 1.244 . S
O257 Co231 2.155 . S
O257 C259 1.240 . S
O258 Co231 2.096 . S
O258 C239 1.247 . S
C259 O256 1.244 . S
C259 O257 1.240 . S
H260 C234 0.931 . S
H261 C243 0.931 . S
H262 C247 0.929 . S
H263 C249 0.930 . S
Co264 N268 2.148 . S
Co264 N274 2.128 . S
Co264 N284 2.194 . S
Co264 O289 2.351 . S
Co264 O290 2.155 . S
Co264 O291 2.096 . S
C265 N268 1.301 . S
C265 N269 1.328 . S
C265 H270 0.930 . S
C266 C267 1.333 . S
C266 N268 1.317 . S
C266 H271 0.930 . S
C267 C266 1.333 . S
C267 N269 1.350 . S
C267 H293 0.931 . S
N268 Co264 2.148 . S
N268 C265 1.301 . S
N268 C266 1.317 . S
N269 C265 1.328 . S
N269 C267 1.350 . S
H270 C265 0.930 . S
H271 C266 0.930 . S
C272 O273 1.224 . S
C272 O291 1.247 . S
O273 C272 1.224 . S
N274 Co264 2.128 . S
N274 C275 1.355 . S
N274 C277 1.311 . S
C275 N274 1.355 . S
C275 C276 1.363 . S
C275 H287 0.929 . S
C276 C275 1.363 . S
C276 N278 1.375 . S
C276 H294 0.931 . S
C277 N274 1.311 . S
C277 N278 1.347 . S
C277 H288 0.929 . S
N278 C276 1.375 . S
N278 C277 1.347 . S
C279 C282 1.365 . S
C279 N284 1.328 . S
C279 H285 0.929 . S
C280 C281 1.362 . S
C280 C283 1.378 . S
C280 H295 0.929 . S
C281 C280 1.362 . S
C281 C282 1.366 . S
C282 C279 1.365 . S
C282 C281 1.366 . S
C282 H296 0.930 . S
C283 C280 1.378 . S
C283 N284 1.315 . S
C283 H286 0.930 . S
N284 Co264 2.194 . S
N284 C279 1.328 . S
N284 C283 1.315 . S
H285 C279 0.929 . S
H286 C283 0.930 . S
H287 C275 0.929 . S
H288 C277 0.929 . S
O289 Co264 2.351 . S
O289 C292 1.244 . S
O290 Co264 2.155 . S
O290 C292 1.240 . S
O291 Co264 2.096 . S
O291 C272 1.247 . S
C292 O289 1.244 . S
C292 O290 1.240 . S
H293 C267 0.931 . S
H294 C276 0.931 . S
H295 C280 0.929 . S
H296 C282 0.930 . S
Co297 N301 2.148 . S
Co297 N307 2.128 . S
Co297 N317 2.194 . S
Co297 O322 2.351 . S
Co297 O323 2.155 . S
Co297 O324 2.096 . S
C298 N301 1.301 . S
C298 N302 1.328 . S
C298 H303 0.930 . S
C299 C300 1.333 . S
C299 N301 1.317 . S
C299 H304 0.930 . S
C300 C299 1.333 . S
C300 N302 1.350 . S
C300 H326 0.931 . S
N301 Co297 2.148 . S
N301 C298 1.301 . S
N301 C299 1.317 . S
N302 C298 1.328 . S
N302 C300 1.350 . S
H303 C298 0.930 . S
H304 C299 0.930 . S
C305 O306 1.224 . S
C305 O324 1.247 . S
O306 C305 1.224 . S
N307 Co297 2.128 . S
N307 C308 1.355 . S
N307 C310 1.311 . S
C308 N307 1.355 . S
C308 C309 1.363 . S
C308 H320 0.929 . S
C309 C308 1.363 . S
C309 N311 1.375 . S
C309 H327 0.931 . S
C310 N307 1.311 . S
C310 N311 1.347 . S
C310 H321 0.929 . S
N311 C309 1.375 . S
N311 C310 1.347 . S
C312 C315 1.365 . S
C312 N317 1.328 . S
C312 H318 0.929 . S
C313 C314 1.362 . S
C313 C316 1.378 1_556 S
C313 H328 0.929 . S
C314 C313 1.362 . S
C314 C315 1.366 1_556 S
C315 C312 1.365 . S
C315 C314 1.366 1_554 S
C315 H329 0.930 . S
C316 C313 1.378 1_554 S
C316 N317 1.315 . S
C316 H319 0.930 . S
N317 Co297 2.194 . S
N317 C312 1.328 . S
N317 C316 1.315 . S
H318 C312 0.929 . S
H319 C316 0.930 . S
H320 C308 0.929 . S
H321 C310 0.929 . S
O322 Co297 2.351 . S
O322 C325 1.244 . S
O323 Co297 2.155 . S
O323 C325 1.240 . S
O324 Co297 2.096 . S
O324 C305 1.247 . S
C325 O322 1.244 . S
C325 O323 1.240 . S
H326 C300 0.931 . S
H327 C309 0.931 . S
H328 C313 0.929 . S
H329 C315 0.930 . S
Co330 N334 2.148 . S
Co330 N340 2.128 . S
Co330 N350 2.194 . S
Co330 O355 2.351 . S
Co330 O356 2.155 . S
Co330 O357 2.096 . S
C331 N334 1.301 . S
C331 N335 1.328 . S
C331 H336 0.930 . S
C332 C333 1.333 . S
C332 N334 1.317 . S
C332 H337 0.930 . S
C333 C332 1.333 . S
C333 N335 1.350 . S
C333 H359 0.931 . S
N334 Co330 2.148 . S
N334 C331 1.301 . S
N334 C332 1.317 . S
N335 C331 1.328 . S
N335 C333 1.350 . S
H336 C331 0.930 . S
H337 C332 0.930 . S
C338 O339 1.224 . S
C338 O357 1.247 . S
O339 C338 1.224 . S
N340 Co330 2.128 . S
N340 C341 1.355 . S
N340 C343 1.311 . S
C341 N340 1.355 . S
C341 C342 1.363 . S
C341 H353 0.929 . S
C342 C341 1.363 . S
C342 N344 1.375 . S
C342 H360 0.931 . S
C343 N340 1.311 . S
C343 N344 1.347 . S
C343 H354 0.929 . S
N344 C342 1.375 . S
N344 C343 1.347 . S
C345 C348 1.365 . S
C345 N350 1.328 . S
C345 H351 0.929 . S
C346 C347 1.362 . S
C346 C349 1.378 1_556 S
C346 H361 0.929 . S
C347 C346 1.362 . S
C347 C348 1.366 1_556 S
C348 C345 1.365 . S
C348 C347 1.366 1_554 S
C348 H362 0.930 . S
C349 C346 1.378 1_554 S
C349 N350 1.315 . S
C349 H352 0.930 . S
N350 Co330 2.194 . S
N350 C345 1.328 . S
N350 C349 1.315 . S
H351 C345 0.929 . S
H352 C349 0.930 . S
H353 C341 0.929 . S
H354 C343 0.929 . S
O355 Co330 2.351 . S
O355 C358 1.244 . S
O356 Co330 2.155 . S
O356 C358 1.240 . S
O357 Co330 2.096 . S
O357 C338 1.247 . S
C358 O355 1.244 . S
C358 O356 1.240 . S
H359 C333 0.931 . S
H360 C342 0.931 . S
H361 C346 0.929 . S
H362 C348 0.930 . S
Co363 N367 2.148 . S
Co363 N373 2.128 . S
Co363 N383 2.194 . S
Co363 O388 2.351 . S
Co363 O389 2.155 . S
Co363 O390 2.096 . S
C364 N367 1.301 . S
C364 N368 1.328 . S
C364 H369 0.930 . S
C365 C366 1.333 . S
C365 N367 1.317 . S
C365 H370 0.930 . S
C366 C365 1.333 . S
C366 N368 1.350 . S
C366 H392 0.931 . S
N367 Co363 2.148 . S
N367 C364 1.301 . S
N367 C365 1.317 . S
N368 C364 1.328 . S
N368 C366 1.350 . S
H369 C364 0.930 . S
H370 C365 0.930 . S
C371 O372 1.224 . S
C371 O390 1.247 . S
O372 C371 1.224 . S
N373 Co363 2.128 . S
N373 C374 1.355 . S
N373 C376 1.311 . S
C374 N373 1.355 . S
C374 C375 1.363 . S
C374 H386 0.929 . S
C375 C374 1.363 . S
C375 N377 1.375 . S
C375 H393 0.931 . S
C376 N373 1.311 . S
C376 N377 1.347 . S
C376 H387 0.929 . S
N377 C375 1.375 . S
N377 C376 1.347 . S
C378 C381 1.365 . S
C378 N383 1.328 . S
C378 H384 0.929 . S
C379 C380 1.362 . S
C379 C382 1.378 1_556 S
C379 H394 0.929 . S
C380 C379 1.362 . S
C380 C381 1.366 1_556 S
C381 C378 1.365 . S
C381 C380 1.366 1_554 S
C381 H395 0.930 . S
C382 C379 1.378 1_554 S
C382 N383 1.315 . S
C382 H385 0.930 . S
N383 Co363 2.194 . S
N383 C378 1.328 . S
N383 C382 1.315 . S
H384 C378 0.929 . S
H385 C382 0.930 . S
H386 C374 0.929 . S
H387 C376 0.929 . S
O388 Co363 2.351 . S
O388 C391 1.244 . S
O389 Co363 2.155 . S
O389 C391 1.240 . S
O390 Co363 2.096 . S
O390 C371 1.247 . S
C391 O388 1.244 . S
C391 O389 1.240 . S
H392 C366 0.931 . S
H393 C375 0.931 . S
H394 C379 0.929 . S
H395 C381 0.930 . S
Co396 N400 2.148 . S
Co396 N406 2.128 . S
Co396 N416 2.194 . S
Co396 O421 2.351 . S
Co396 O422 2.155 . S
Co396 O423 2.096 . S
C397 N400 1.301 . S
C397 N401 1.328 . S
C397 H402 0.930 . S
C398 C399 1.333 . S
C398 N400 1.317 . S
C398 H403 0.930 . S
C399 C398 1.333 . S
C399 N401 1.350 . S
C399 H425 0.931 . S
N400 Co396 2.148 . S
N400 C397 1.301 . S
N400 C398 1.317 . S
N401 C397 1.328 . S
N401 C399 1.350 . S
H402 C397 0.930 . S
H403 C398 0.930 . S
C404 O405 1.224 . S
C404 O423 1.247 . S
O405 C404 1.224 . S
N406 Co396 2.128 . S
N406 C407 1.355 . S
N406 C409 1.311 . S
C407 N406 1.355 . S
C407 C408 1.363 . S
C407 H419 0.929 . S
C408 C407 1.363 . S
C408 N410 1.375 . S
C408 H426 0.931 . S
C409 N406 1.311 . S
C409 N410 1.347 . S
C409 H420 0.929 . S
N410 C408 1.375 . S
N410 C409 1.347 . S
C411 C414 1.365 . S
C411 N416 1.328 . S
C411 H417 0.929 . S
C412 C413 1.362 . S
C412 C415 1.378 1_554 S
C412 H427 0.929 . S
C413 C412 1.362 . S
C413 C414 1.366 1_554 S
C414 C411 1.365 . S
C414 C413 1.366 1_556 S
C414 H428 0.930 . S
C415 C412 1.378 1_556 S
C415 N416 1.315 . S
C415 H418 0.930 . S
N416 Co396 2.194 . S
N416 C411 1.328 . S
N416 C415 1.315 . S
H417 C411 0.929 . S
H418 C415 0.930 . S
H419 C407 0.929 . S
H420 C409 0.929 . S
O421 Co396 2.351 . S
O421 C424 1.244 . S
O422 Co396 2.155 . S
O422 C424 1.240 . S
O423 Co396 2.096 . S
O423 C404 1.247 . S
C424 O421 1.244 . S
C424 O422 1.240 . S
H425 C399 0.931 . S
H426 C408 0.931 . S
H427 C412 0.929 . S
H428 C414 0.930 . S
Co429 N433 2.148 . S
Co429 N439 2.128 . S
Co429 N449 2.194 . S
Co429 O454 2.351 . S
Co429 O455 2.155 . S
Co429 O456 2.096 . S
C430 N433 1.301 . S
C430 N434 1.328 . S
C430 H435 0.930 . S
C431 C432 1.333 . S
C431 N433 1.317 . S
C431 H436 0.930 . S
C432 C431 1.333 . S
C432 N434 1.350 . S
C432 H458 0.931 . S
N433 Co429 2.148 . S
N433 C430 1.301 . S
N433 C431 1.317 . S
N434 C430 1.328 . S
N434 C432 1.350 . S
H435 C430 0.930 . S
H436 C431 0.930 . S
C437 O438 1.224 . S
C437 O456 1.247 . S
O438 C437 1.224 . S
N439 Co429 2.128 . S
N439 C440 1.355 . S
N439 C442 1.311 . S
C440 N439 1.355 . S
C440 C441 1.363 . S
C440 H452 0.929 . S
C441 C440 1.363 . S
C441 N443 1.375 . S
C441 H459 0.931 . S
C442 N439 1.311 . S
C442 N443 1.347 . S
C442 H453 0.929 . S
N443 C441 1.375 . S
N443 C442 1.347 . S
C444 C447 1.365 . S
C444 N449 1.328 . S
C444 H450 0.929 . S
C445 C446 1.362 . S
C445 C448 1.378 1_554 S
C445 H460 0.929 . S
C446 C445 1.362 . S
C446 C447 1.366 1_554 S
C447 C444 1.365 . S
C447 C446 1.366 1_556 S
C447 H461 0.930 . S
C448 C445 1.378 1_556 S
C448 N449 1.315 . S
C448 H451 0.930 . S
N449 Co429 2.194 . S
N449 C444 1.328 . S
N449 C448 1.315 . S
H450 C444 0.929 . S
H451 C448 0.930 . S
H452 C440 0.929 . S
H453 C442 0.929 . S
O454 Co429 2.351 . S
O454 C457 1.244 . S
O455 Co429 2.155 . S
O455 C457 1.240 . S
O456 Co429 2.096 . S
O456 C437 1.247 . S
C457 O454 1.244 . S
C457 O455 1.240 . S
H458 C432 0.931 . S
H459 C441 0.931 . S
H460 C445 0.929 . S
H461 C447 0.930 . S
Co462 N466 2.148 . S
Co462 N472 2.128 . S
Co462 N482 2.194 . S
Co462 O487 2.351 . S
Co462 O488 2.155 . S
Co462 O489 2.096 . S
C463 N466 1.301 . S
C463 N467 1.328 . S
C463 H468 0.930 . S
C464 C465 1.333 . S
C464 N466 1.317 . S
C464 H469 0.930 . S
C465 C464 1.333 . S
C465 N467 1.350 . S
C465 H491 0.931 . S
N466 Co462 2.148 . S
N466 C463 1.301 . S
N466 C464 1.317 . S
N467 C463 1.328 . S
N467 C465 1.350 . S
H468 C463 0.930 . S
H469 C464 0.930 . S
C470 O471 1.224 . S
C470 O489 1.247 . S
O471 C470 1.224 . S
N472 Co462 2.128 . S
N472 C473 1.355 . S
N472 C475 1.311 . S
C473 N472 1.355 . S
C473 C474 1.363 . S
C473 H485 0.929 . S
C474 C473 1.363 . S
C474 N476 1.375 . S
C474 H492 0.931 . S
C475 N472 1.311 . S
C475 N476 1.347 . S
C475 H486 0.929 . S
N476 C474 1.375 . S
N476 C475 1.347 . S
C477 C480 1.365 . S
C477 N482 1.328 . S
C477 H483 0.929 . S
C478 C479 1.362 . S
C478 C481 1.378 1_554 S
C478 H493 0.929 . S
C479 C478 1.362 . S
C479 C480 1.366 1_554 S
C480 C477 1.365 . S
C480 C479 1.366 1_556 S
C480 H494 0.930 . S
C481 C478 1.378 1_556 S
C481 N482 1.315 . S
C481 H484 0.930 . S
N482 Co462 2.194 . S
N482 C477 1.328 . S
N482 C481 1.315 . S
H483 C477 0.929 . S
H484 C481 0.930 . S
H485 C473 0.929 . S
H486 C475 0.929 . S
O487 Co462 2.351 . S
O487 C490 1.244 . S
O488 Co462 2.155 . S
O488 C490 1.240 . S
O489 Co462 2.096 . S
O489 C470 1.247 . S
C490 O487 1.244 . S
C490 O488 1.240 . S
H491 C465 0.931 . S
H492 C474 0.931 . S
H493 C478 0.929 . S
H494 C480 0.930 . S
Co495 N499 2.148 . S
Co495 N505 2.128 . S
Co495 N515 2.194 . S
Co495 O520 2.351 . S
Co495 O521 2.155 . S
Co495 O522 2.096 . S
C496 N499 1.301 . S
C496 N500 1.328 . S
C496 H501 0.930 . S
C497 C498 1.333 . S
C497 N499 1.317 . S
C497 H502 0.930 . S
C498 C497 1.333 . S
C498 N500 1.350 . S
C498 H524 0.931 . S
N499 Co495 2.148 . S
N499 C496 1.301 . S
N499 C497 1.317 . S
N500 C496 1.328 . S
N500 C498 1.350 . S
H501 C496 0.930 . S
H502 C497 0.930 . S
C503 O504 1.224 . S
C503 O522 1.247 . S
O504 C503 1.224 . S
N505 Co495 2.128 . S
N505 C506 1.355 . S
N505 C508 1.311 . S
C506 N505 1.355 . S
C506 C507 1.363 . S
C506 H518 0.929 . S
C507 C506 1.363 . S
C507 N509 1.375 . S
C507 H525 0.931 . S
C508 N505 1.311 . S
C508 N509 1.347 . S
C508 H519 0.929 . S
N509 C507 1.375 . S
N509 C508 1.347 . S
C510 C513 1.365 . S
C510 N515 1.328 . S
C510 H516 0.929 . S
C511 C512 1.362 . S
C511 C514 1.378 . S
C511 H526 0.929 . S
C512 C511 1.362 . S
C512 C513 1.366 . S
C513 C510 1.365 . S
C513 C512 1.366 . S
C513 H527 0.930 . S
C514 C511 1.378 . S
C514 N515 1.315 . S
C514 H517 0.930 . S
N515 Co495 2.194 . S
N515 C510 1.328 . S
N515 C514 1.315 . S
H516 C510 0.929 . S
H517 C514 0.930 . S
H518 C506 0.929 . S
H519 C508 0.929 . S
O520 Co495 2.351 . S
O520 C523 1.244 . S
O521 Co495 2.155 . S
O521 C523 1.240 . S
O522 Co495 2.096 . S
O522 C503 1.247 . S
C523 O520 1.244 . S
C523 O521 1.240 . S
H524 C498 0.931 . S
H525 C507 0.931 . S
H526 C511 0.929 . S
H527 C513 0.930 . S
Co528 N532 2.148 . S
Co528 N538 2.128 . S
Co528 N548 2.194 . S
Co528 O553 2.351 . S
Co528 O554 2.155 . S
Co528 O555 2.096 . S
C529 N532 1.301 . S
C529 N533 1.328 . S
C529 H534 0.930 . S
C530 C531 1.333 . S
C530 N532 1.317 . S
C530 H535 0.930 . S
C531 C530 1.333 . S
C531 N533 1.350 . S
C531 H557 0.931 . S
N532 Co528 2.148 . S
N532 C529 1.301 . S
N532 C530 1.317 . S
N533 C529 1.328 . S
N533 C531 1.350 . S
H534 C529 0.930 . S
H535 C530 0.930 . S
C536 O537 1.224 . S
C536 O555 1.247 . S
O537 C536 1.224 . S
N538 Co528 2.128 . S
N538 C539 1.355 . S
N538 C541 1.311 . S
C539 N538 1.355 . S
C539 C540 1.363 . S
C539 H551 0.929 . S
C540 C539 1.363 . S
C540 N542 1.375 . S
C540 H558 0.931 . S
C541 N538 1.311 . S
C541 N542 1.347 . S
C541 H552 0.929 . S
N542 C540 1.375 . S
N542 C541 1.347 . S
C543 C546 1.365 . S
C543 N548 1.328 . S
C543 H549 0.929 . S
C544 C545 1.362 . S
C544 C547 1.378 . S
C544 H559 0.929 . S
C545 C544 1.362 . S
C545 C546 1.366 . S
C546 C543 1.365 . S
C546 C545 1.366 . S
C546 H560 0.930 . S
C547 C544 1.378 . S
C547 N548 1.315 . S
C547 H550 0.930 . S
N548 Co528 2.194 . S
N548 C543 1.328 . S
N548 C547 1.315 . S
H549 C543 0.929 . S
H550 C547 0.930 . S
H551 C539 0.929 . S
H552 C541 0.929 . S
O553 Co528 2.351 . S
O553 C556 1.244 . S
O554 Co528 2.155 . S
O554 C556 1.240 . S
O555 Co528 2.096 . S
O555 C536 1.247 . S
C556 O553 1.244 . S
C556 O554 1.240 . S
H557 C531 0.931 . S
H558 C540 0.931 . S
H559 C544 0.929 . S
H560 C546 0.930 . S
Co561 N565 2.148 . S
Co561 N571 2.128 . S
Co561 N581 2.194 . S
Co561 O586 2.351 . S
Co561 O587 2.155 . S
Co561 O588 2.096 . S
C562 N565 1.301 . S
C562 N566 1.328 . S
C562 H567 0.930 . S
C563 C564 1.333 . S
C563 N565 1.317 . S
C563 H568 0.930 . S
C564 C563 1.333 . S
C564 N566 1.350 . S
C564 H590 0.931 . S
N565 Co561 2.148 . S
N565 C562 1.301 . S
N565 C563 1.317 . S
N566 C562 1.328 . S
N566 C564 1.350 . S
H567 C562 0.930 . S
H568 C563 0.930 . S
C569 O570 1.224 . S
C569 O588 1.247 . S
O570 C569 1.224 . S
N571 Co561 2.128 . S
N571 C572 1.355 . S
N571 C574 1.311 . S
C572 N571 1.355 . S
C572 C573 1.363 . S
C572 H584 0.929 . S
C573 C572 1.363 . S
C573 N575 1.375 . S
C573 H591 0.931 . S
C574 N571 1.311 . S
C574 N575 1.347 . S
C574 H585 0.929 . S
N575 C573 1.375 . S
N575 C574 1.347 . S
C576 C579 1.365 . S
C576 N581 1.328 . S
C576 H582 0.929 . S
C577 C578 1.362 . S
C577 C580 1.378 . S
C577 H592 0.929 . S
C578 C577 1.362 . S
C578 C579 1.366 . S
C579 C576 1.365 . S
C579 C578 1.366 . S
C579 H593 0.930 . S
C580 C577 1.378 . S
C580 N581 1.315 . S
C580 H583 0.930 . S
N581 Co561 2.194 . S
N581 C576 1.328 . S
N581 C580 1.315 . S
H582 C576 0.929 . S
H583 C580 0.930 . S
H584 C572 0.929 . S
H585 C574 0.929 . S
O586 Co561 2.351 . S
O586 C589 1.244 . S
O587 Co561 2.155 . S
O587 C589 1.240 . S
O588 Co561 2.096 . S
O588 C569 1.247 . S
C589 O586 1.244 . S
C589 O587 1.240 . S
H590 C564 0.931 . S
H591 C573 0.931 . S
H592 C577 0.929 . S
H593 C579 0.930 . S
H594 C600 0.930 . S
H595 C603 0.930 . S
H596 C604 0.930 . S
H597 C605 0.930 . S
H598 C608 0.930 . S
H599 C609 0.930 . S
C600 H594 0.930 . S
C600 C601 1.355 . S
C600 C602 1.415 . S
C601 C600 1.355 . S
C601 C603 1.419 . S
C602 C600 1.415 . S
C602 C607 1.425 . S
C602 C609 1.409 . S
C603 H595 0.930 . S
C603 C601 1.419 . S
C603 C604 1.362 . S
C604 H596 0.930 . S
C604 C603 1.362 . S
C604 C607 1.409 . S
C605 H597 0.930 . S
C605 C606 1.355 . S
C605 C607 1.415 . S
C606 C605 1.355 . S
C606 C608 1.419 . S
C607 C602 1.425 . S
C607 C604 1.409 . S
C607 C605 1.415 . S
C608 H598 0.930 . S
C608 C606 1.419 . S
C608 C609 1.362 . S
C609 H599 0.930 . S
C609 C602 1.409 . S
C609 C608 1.362 . S
H610 C616 0.930 . S
H611 C619 0.930 . S
H612 C620 0.930 1_545 S
H613 C621 0.930 . S
H614 C624 0.930 . S
H615 C625 0.930 . S
C616 H610 0.930 . S
C616 C617 1.355 . S
C616 C618 1.415 1_565 S
C617 C616 1.355 . S
C617 C619 1.419 . S
C618 C616 1.415 1_545 S
C618 C623 1.425 . S
C618 C625 1.409 . S
C619 H611 0.930 . S
C619 C617 1.419 . S
C619 C620 1.362 . S
C620 H612 0.930 1_565 S
C620 C619 1.362 . S
C620 C623 1.409 1_565 S
C621 H613 0.930 . S
C621 C622 1.355 . S
C621 C623 1.415 . S
C622 C621 1.355 . S
C622 C624 1.419 . S
C623 C618 1.425 . S
C623 C620 1.409 1_545 S
C623 C621 1.415 . S
C624 H614 0.930 . S
C624 C622 1.419 . S
C624 C625 1.362 . S
C625 H615 0.930 . S
C625 C618 1.409 . S
C625 C624 1.362 . S
H626 C632 0.930 . S
H627 C635 0.930 . S
H628 C636 0.930 . S
H629 C637 0.930 . S
H630 C640 0.930 . S
H631 C641 0.954 . S
C632 H626 0.930 . S
C632 C633 1.355 . S
C632 C634 1.415 . S
C633 C632 1.355 . S
C633 C635 1.419 . S
C634 C632 1.415 . S
C634 C639 1.425 . S
C634 C641 1.415 . S
C635 H627 0.930 . S
C635 C633 1.419 . S
C635 C636 1.362 . S
C636 H628 0.930 . S
C636 C635 1.362 . S
C636 C639 1.409 . S
C637 H629 0.930 . S
C637 C638 1.355 . S
C637 C639 1.415 1_455 S
C638 C637 1.355 . S
C638 C640 1.419 . S
C639 C634 1.425 . S
C639 C636 1.409 . S
C639 C637 1.415 1_655 S
C640 H630 0.930 . S
C640 C638 1.419 . S
C640 C641 1.333 1_455 S
C641 H631 0.954 . S
C641 C634 1.415 . S
C641 C640 1.333 1_655 S
H642 C648 0.930 . S
H643 C651 0.930 . S
H644 C652 0.930 . S
H645 C653 0.930 . S
H646 C656 0.930 . S
H647 C657 0.930 . S
C648 H642 0.930 . S
C648 C649 1.355 . S
C648 C650 1.415 . S
C649 C648 1.355 . S
C649 C651 1.419 . S
C650 C648 1.415 . S
C650 C655 1.425 . S
C650 C657 1.409 . S
C651 H643 0.930 . S
C651 C649 1.419 . S
C651 C652 1.362 . S
C652 H644 0.930 . S
C652 C651 1.362 . S
C652 C655 1.409 . S
C653 H645 0.930 . S
C653 C654 1.355 . S
C653 C655 1.415 . S
C654 C653 1.355 . S
C654 C656 1.419 . S
C655 C650 1.425 . S
C655 C652 1.409 . S
C655 C653 1.415 . S
C656 H646 0.930 . S
C656 C654 1.419 . S
C656 C657 1.362 . S
C657 H647 0.930 . S
C657 C650 1.409 . S
C657 C656 1.362 . S
H658 C664 0.930 . S
H659 C667 0.930 . S
H660 C668 0.930 1_565 S
H661 C669 0.930 . S
H662 C672 0.930 . S
H663 C673 0.930 . S
C664 H658 0.930 . S
C664 C665 1.355 . S
C664 C666 1.415 1_545 S
C665 C664 1.355 . S
C665 C667 1.419 . S
C666 C664 1.415 1_565 S
C666 C671 1.425 . S
C666 C673 1.409 . S
C667 H659 0.930 . S
C667 C665 1.419 . S
C667 C668 1.362 . S
C668 H660 0.930 1_545 S
C668 C667 1.362 . S
C668 C671 1.409 1_545 S
C669 H661 0.930 . S
C669 C670 1.355 . S
C669 C671 1.415 . S
C670 C669 1.355 . S
C670 C672 1.419 . S
C671 C666 1.425 . S
C671 C668 1.409 1_565 S
C671 C669 1.415 . S
C672 H662 0.930 . S
C672 C670 1.419 . S
C672 C673 1.362 . S
C673 H663 0.930 . S
C673 C666 1.409 . S
C673 C672 1.362 . S
H674 C680 0.930 . S
H675 C683 0.930 . S
H676 C684 0.930 . S
H677 C685 0.930 . S
H678 C688 0.930 . S
H679 C689 0.914 1_455 S
C680 H674 0.930 . S
C680 C681 1.355 . S
C680 C682 1.415 . S
C681 C680 1.355 . S
C681 C683 1.419 . S
C682 C680 1.415 . S
C682 C687 1.425 . S
C682 C689 1.396 1_455 S
C683 H675 0.930 . S
C683 C681 1.419 . S
C683 C684 1.362 . S
C684 H676 0.930 . S
C684 C683 1.362 . S
C684 C687 1.409 . S
C685 H677 0.930 . S
C685 C686 1.355 . S
C685 C687 1.415 1_655 S
C686 C685 1.355 . S
C686 C688 1.419 . S
C687 C682 1.425 . S
C687 C684 1.409 . S
C687 C685 1.415 1_455 S
C688 H678 0.930 . S
C688 C686 1.419 . S
C688 C689 1.392 . S
C689 H679 0.914 1_655 S
C689 C682 1.396 1_655 S
C689 C688 1.392 . S
H690 C696 0.930 . S
H691 C699 0.930 . S
H692 C700 0.930 . S
H693 C701 0.930 . S
H694 C704 0.930 . S
H695 C705 0.930 . S
C696 H690 0.930 . S
C696 C697 1.355 . S
C696 C698 1.415 . S
C697 C696 1.355 . S
C697 C699 1.419 . S
C698 C696 1.415 . S
C698 C703 1.425 . S
C698 C705 1.409 . S
C699 H691 0.930 . S
C699 C697 1.419 . S
C699 C700 1.362 . S
C700 H692 0.930 . S
C700 C699 1.362 . S
C700 C703 1.409 . S
C701 H693 0.930 . S
C701 C702 1.355 . S
C701 C703 1.415 . S
C702 C701 1.355 . S
C702 C704 1.419 . S
C703 C698 1.425 . S
C703 C700 1.409 . S
C703 C701 1.415 . S
C704 H694 0.930 . S
C704 C702 1.419 . S
C704 C705 1.362 . S
C705 H695 0.930 . S
C705 C698 1.409 . S
C705 C704 1.362 . S
H706 C712 0.930 . S
H707 C715 0.930 . S
H708 C716 0.930 . S
H709 C717 0.930 . S
H710 C720 0.930 . S
H711 C721 0.930 . S
C712 H706 0.930 . S
C712 C713 1.355 . S
C712 C714 1.415 . S
C713 C712 1.355 . S
C713 C715 1.419 . S
C714 C712 1.415 . S
C714 C719 1.425 . S
C714 C721 1.409 . S
C715 H707 0.930 . S
C715 C713 1.419 . S
C715 C716 1.362 . S
C716 H708 0.930 . S
C716 C715 1.362 . S
C716 C719 1.409 . S
C717 H709 0.930 . S
C717 C718 1.355 . S
C717 C719 1.415 . S
C718 C717 1.355 . S
C718 C720 1.419 . S
C719 C714 1.425 . S
C719 C716 1.409 . S
C719 C717 1.415 . S
C720 H710 0.930 . S
C720 C718 1.419 . S
C720 C721 1.362 . S
C721 H711 0.930 . S
C721 C714 1.409 . S
C721 C720 1.362 . S
H722 C728 0.930 . S
H723 C731 0.930 . S
H724 C732 0.930 . S
H725 C733 0.930 . S
H726 C736 0.930 . S
H727 C737 0.930 . S
C728 H722 0.930 . S
C728 C729 1.355 . S
C728 C730 1.415 . S
C729 C728 1.355 . S
C729 C731 1.419 . S
C730 C728 1.415 . S
C730 C735 1.425 . S
C730 C737 1.409 . S
C731 H723 0.930 . S
C731 C729 1.419 . S
C731 C732 1.362 . S
C732 H724 0.930 . S
C732 C731 1.362 . S
C732 C735 1.409 . S
C733 H725 0.930 . S
C733 C734 1.355 . S
C733 C735 1.415 . S
C734 C733 1.355 . S
C734 C736 1.419 . S
C735 C730 1.425 . S
C735 C732 1.409 . S
C735 C733 1.415 . S
C736 H726 0.930 . S
C736 C734 1.419 . S
C736 C737 1.362 . S
C737 H727 0.930 . S
C737 C730 1.409 . S
C737 C736 1.362 . S
H738 C744 0.930 . S
H739 C747 0.930 . S
H740 C748 0.930 . S
H741 C749 0.930 . S
H742 C752 0.930 . S
H743 C753 0.930 . S
C744 H738 0.930 . S
C744 C745 1.355 . S
C744 C746 1.415 . S
C745 C744 1.355 . S
C745 C747 1.419 . S
C746 C744 1.415 . S
C746 C751 1.425 . S
C746 C753 1.409 . S
C747 H739 0.930 . S
C747 C745 1.419 . S
C747 C748 1.362 . S
C748 H740 0.930 . S
C748 C747 1.362 . S
C748 C751 1.409 . S
C749 H741 0.930 . S
C749 C750 1.355 . S
C749 C751 1.415 . S
C750 C749 1.355 . S
C750 C752 1.419 . S
C751 C746 1.425 . S
C751 C748 1.409 . S
C751 C749 1.415 . S
C752 H742 0.930 . S
C752 C750 1.419 . S
C752 C753 1.362 . S
C753 H743 0.930 . S
C753 C746 1.409 . S
C753 C752 1.362 . S
H754 C760 0.930 . S
H755 C763 0.930 . S
H756 C764 0.930 . S
H757 C765 0.930 . S
H758 C768 0.930 . S
H759 C769 0.930 . S
C760 H754 0.930 . S
C760 C761 1.355 . S
C760 C762 1.415 . S
C761 C760 1.355 . S
C761 C763 1.419 . S
C762 C760 1.415 . S
C762 C767 1.425 . S
C762 C769 1.409 . S
C763 H755 0.930 . S
C763 C761 1.419 . S
C763 C764 1.362 . S
C764 H756 0.930 . S
C764 C763 1.362 . S
C764 C767 1.409 . S
C765 H757 0.930 . S
C765 C766 1.355 . S
C765 C767 1.415 . S
C766 C765 1.355 . S
C766 C768 1.419 . S
C767 C762 1.425 . S
C767 C764 1.409 . S
C767 C765 1.415 . S
C768 H758 0.930 . S
C768 C766 1.419 . S
C768 C769 1.362 . S
C769 H759 0.930 . S
C769 C762 1.409 . S
C769 C768 1.362 . S
H770 C776 0.930 . S
H771 C779 0.930 . S
H772 C780 0.930 . S
H773 C781 0.930 . S
H774 C784 0.930 . S
H775 C785 0.930 . S
C776 H770 0.930 . S
C776 C777 1.355 . S
C776 C778 1.415 . S
C777 C776 1.355 . S
C777 C779 1.419 . S
C778 C776 1.415 . S
C778 C783 1.425 . S
C778 C785 1.409 . S
C779 H771 0.930 . S
C779 C777 1.419 . S
C779 C780 1.362 . S
C780 H772 0.930 . S
C780 C779 1.362 . S
C780 C783 1.409 . S
C781 H773 0.930 . S
C781 C782 1.355 . S
C781 C783 1.415 . S
C782 C781 1.355 . S
C782 C784 1.419 . S
C783 C778 1.425 . S
C783 C780 1.409 . S
C783 C781 1.415 . S
C784 H774 0.930 . S
C784 C782 1.419 . S
C784 C785 1.362 . S
C785 H775 0.930 . S
C785 C778 1.409 . S
C785 C784 1.362 . S
H786 C792 0.930 . S
H787 C795 0.930 . S
H788 C796 0.930 . S
H789 C797 0.930 . S
H790 C800 0.930 . S
H791 C801 0.930 . S
C792 H786 0.930 . S
C792 C793 1.355 . S
C792 C794 1.415 . S
C793 C792 1.355 . S
C793 C795 1.419 . S
C794 C792 1.415 . S
C794 C799 1.425 . S
C794 C801 1.409 . S
C795 H787 0.930 . S
C795 C793 1.419 . S
C795 C796 1.362 . S
C796 H788 0.930 . S
C796 C795 1.362 . S
C796 C799 1.409 . S
C797 H789 0.930 . S
C797 C798 1.355 . S
C797 C799 1.415 . S
C798 C797 1.355 . S
C798 C800 1.419 . S
C799 C794 1.425 . S
C799 C796 1.409 . S
C799 C797 1.415 . S
C800 H790 0.930 . S
C800 C798 1.419 . S
C800 C801 1.362 . S
C801 H791 0.930 . S
C801 C794 1.409 . S
C801 C800 1.362 . S
H802 C808 0.930 . S
H803 C811 0.930 . S
H804 C812 0.930 . S
H805 C813 0.930 . S
H806 C816 0.930 . S
H807 C817 0.930 . S
C808 H802 0.930 . S
C808 C809 1.355 . S
C808 C810 1.415 . S
C809 C808 1.355 . S
C809 C811 1.419 . S
C810 C808 1.415 . S
C810 C815 1.425 . S
C810 C817 1.409 . S
C811 H803 0.930 . S
C811 C809 1.419 . S
C811 C812 1.362 . S
C812 H804 0.930 . S
C812 C811 1.362 . S
C812 C815 1.409 . S
C813 H805 0.930 . S
C813 C814 1.355 . S
C813 C815 1.415 . S
C814 C813 1.355 . S
C814 C816 1.419 . S
C815 C810 1.425 . S
C815 C812 1.409 . S
C815 C813 1.415 . S
C816 H806 0.930 . S
C816 C814 1.419 . S
C816 C817 1.362 . S
C817 H807 0.930 . S
C817 C810 1.409 . S
C817 C816 1.362 . S
H818 C824 0.930 . S
H819 C827 0.930 . S
H820 C828 0.930 . S
H821 C829 0.930 . S
H822 C832 0.930 . S
H823 C833 0.930 . S
C824 H818 0.930 . S
C824 C825 1.355 . S
C824 C826 1.415 . S
C825 C824 1.355 . S
C825 C827 1.419 . S
C826 C824 1.415 . S
C826 C831 1.425 . S
C826 C833 1.409 . S
C827 H819 0.930 . S
C827 C825 1.419 . S
C827 C828 1.362 . S
C828 H820 0.930 . S
C828 C827 1.362 . S
C828 C831 1.409 . S
C829 H821 0.930 . S
C829 C830 1.355 . S
C829 C831 1.415 . S
C830 C829 1.355 . S
C830 C832 1.419 . S
C831 C826 1.425 . S
C831 C828 1.409 . S
C831 C829 1.415 . S
C832 H822 0.930 . S
C832 C830 1.419 . S
C832 C833 1.362 . S
C833 H823 0.930 . S
C833 C826 1.409 . S
C833 C832 1.362 . S
H834 C840 0.930 . S
H835 C843 0.930 . S
H836 C844 0.930 . S
H837 C845 0.930 . S
H838 C848 0.930 . S
H839 C849 0.930 . S
C840 H834 0.930 . S
C840 C841 1.355 . S
C840 C842 1.415 . S
C841 C840 1.355 . S
C841 C843 1.419 . S
C842 C840 1.415 . S
C842 C847 1.425 . S
C842 C849 1.409 . S
C843 H835 0.930 . S
C843 C841 1.419 . S
C843 C844 1.362 . S
C844 H836 0.930 . S
C844 C843 1.362 . S
C844 C847 1.409 . S
C845 H837 0.930 . S
C845 C846 1.355 . S
C845 C847 1.415 . S
C846 C845 1.355 . S
C846 C848 1.419 . S
C847 C842 1.425 . S
C847 C844 1.409 . S
C847 C845 1.415 . S
C848 H838 0.930 . S
C848 C846 1.419 . S
C848 C849 1.362 . S
C849 H839 0.930 . S
C849 C842 1.409 . S
C849 C848 1.362 . S
H850 C856 0.930 . S
H851 C859 0.930 . S
H852 C860 0.930 . S
H853 C861 0.930 . S
H854 C864 0.930 . S
H855 C865 0.930 . S
C856 H850 0.930 . S
C856 C857 1.355 . S
C856 C858 1.415 . S
C857 C856 1.355 . S
C857 C859 1.419 . S
C858 C856 1.415 . S
C858 C863 1.425 . S
C858 C865 1.409 . S
C859 H851 0.930 . S
C859 C857 1.419 . S
C859 C860 1.362 . S
C860 H852 0.930 . S
C860 C859 1.362 . S
C860 C863 1.409 . S
C861 H853 0.930 . S
C861 C862 1.355 . S
C861 C863 1.415 . S
C862 C861 1.355 . S
C862 C864 1.419 . S
C863 C858 1.425 . S
C863 C860 1.409 . S
C863 C861 1.415 . S
C864 H854 0.930 . S
C864 C862 1.419 . S
C864 C865 1.362 . S
C865 H855 0.930 . S
C865 C858 1.409 . S
C865 C864 1.362 . S
H866 C872 0.930 . S
H867 C875 0.930 . S
H868 C876 0.930 . S
H869 C877 0.930 . S
H870 C880 0.930 . S
H871 C881 0.930 . S
C872 H866 0.930 . S
C872 C873 1.355 . S
C872 C874 1.415 . S
C873 C872 1.355 . S
C873 C875 1.419 . S
C874 C872 1.415 . S
C874 C879 1.425 . S
C874 C881 1.409 . S
C875 H867 0.930 . S
C875 C873 1.419 . S
C875 C876 1.362 . S
C876 H868 0.930 . S
C876 C875 1.362 . S
C876 C879 1.409 . S
C877 H869 0.930 . S
C877 C878 1.355 . S
C877 C879 1.415 . S
C878 C877 1.355 . S
C878 C880 1.419 . S
C879 C874 1.425 . S
C879 C876 1.409 . S
C879 C877 1.415 . S
C880 H870 0.930 . S
C880 C878 1.419 . S
C880 C881 1.362 . S
C881 H871 0.930 . S
C881 C874 1.409 . S
C881 C880 1.362 . S
H882 C888 0.930 . S
H883 C891 0.930 . S
H884 C892 0.930 . S
H885 C893 0.930 . S
H886 C896 0.930 . S
H887 C897 0.930 . S
C888 H882 0.930 . S
C888 C889 1.355 . S
C888 C890 1.415 . S
C889 C888 1.355 . S
C889 C891 1.419 . S
C890 C888 1.415 . S
C890 C895 1.425 . S
C890 C897 1.409 . S
C891 H883 0.930 . S
C891 C889 1.419 . S
C891 C892 1.362 . S
C892 H884 0.930 . S
C892 C891 1.362 . S
C892 C895 1.409 . S
C893 H885 0.930 . S
C893 C894 1.355 . S
C893 C895 1.415 . S
C894 C893 1.355 . S
C894 C896 1.419 . S
C895 C890 1.425 . S
C895 C892 1.409 . S
C895 C893 1.415 . S
C896 H886 0.930 . S
C896 C894 1.419 . S
C896 C897 1.362 . S
C897 H887 0.930 . S
C897 C890 1.409 . S
C897 C896 1.362 . S
H898 C904 0.930 . S
H899 C907 0.930 . S
H900 C908 0.930 . S
H901 C909 0.930 . S
H902 C912 0.930 . S
H903 C913 0.930 . S
C904 H898 0.930 . S
C904 C905 1.355 . S
C904 C906 1.415 . S
C905 C904 1.355 . S
C905 C907 1.419 . S
C906 C904 1.415 . S
C906 C911 1.425 . S
C906 C913 1.409 . S
C907 H899 0.930 . S
C907 C905 1.419 . S
C907 C908 1.362 . S
C908 H900 0.930 . S
C908 C907 1.362 . S
C908 C911 1.409 . S
C909 H901 0.930 . S
C909 C910 1.355 . S
C909 C911 1.415 . S
C910 C909 1.355 . S
C910 C912 1.419 . S
C911 C906 1.425 . S
C911 C908 1.409 . S
C911 C909 1.415 . S
C912 H902 0.930 . S
C912 C910 1.419 . S
C912 C913 1.362 . S
C913 H903 0.930 . S
C913 C906 1.409 . S
C913 C912 1.362 . S
H914 C920 0.930 . S
H915 C923 0.930 . S
H916 C924 0.930 . S
H917 C925 0.930 . S
H918 C928 0.930 . S
H919 C929 0.930 . S
C920 H914 0.930 . S
C920 C921 1.355 . S
C920 C922 1.415 . S
C921 C920 1.355 . S
C921 C923 1.419 . S
C922 C920 1.415 . S
C922 C927 1.425 . S
C922 C929 1.409 . S
C923 H915 0.930 . S
C923 C921 1.419 . S
C923 C924 1.362 . S
C924 H916 0.930 . S
C924 C923 1.362 . S
C924 C927 1.409 . S
C925 H917 0.930 . S
C925 C926 1.355 . S
C925 C927 1.415 . S
C926 C925 1.355 . S
C926 C928 1.419 . S
C927 C922 1.425 . S
C927 C924 1.409 . S
C927 C925 1.415 . S
C928 H918 0.930 . S
C928 C926 1.419 . S
C928 C929 1.362 . S
C929 H919 0.930 . S
C929 C922 1.409 . S
C929 C928 1.362 . S
H930 C936 0.930 . S
H931 C939 0.930 . S
H932 C940 0.930 . S
H933 C941 0.930 . S
H934 C944 0.930 . S
H935 C945 0.930 . S
C936 H930 0.930 . S
C936 C937 1.355 . S
C936 C938 1.415 . S
C937 C936 1.355 . S
C937 C939 1.419 . S
C938 C936 1.415 . S
C938 C943 1.425 . S
C938 C945 1.409 . S
C939 H931 0.930 . S
C939 C937 1.419 . S
C939 C940 1.362 . S
C940 H932 0.930 . S
C940 C939 1.362 . S
C940 C943 1.409 . S
C941 H933 0.930 . S
C941 C942 1.355 . S
C941 C943 1.415 . S
C942 C941 1.355 . S
C942 C944 1.419 . S
C943 C938 1.425 . S
C943 C940 1.409 . S
C943 C941 1.415 . S
C944 H934 0.930 . S
C944 C942 1.419 . S
C944 C945 1.362 . S
C945 H935 0.930 . S
C945 C938 1.409 . S
C945 C944 1.362 . S
H946 C952 0.930 . S
H947 C955 0.930 . S
H948 C956 0.930 . S
H949 C957 0.930 . S
H950 C960 0.930 . S
H951 C961 0.930 . S
C952 H946 0.930 . S
C952 C953 1.355 . S
C952 C954 1.415 . S
C953 C952 1.355 . S
C953 C955 1.419 . S
C954 C952 1.415 . S
C954 C959 1.425 . S
C954 C961 1.409 . S
C955 H947 0.930 . S
C955 C953 1.419 . S
C955 C956 1.362 . S
C956 H948 0.930 . S
C956 C955 1.362 . S
C956 C959 1.409 . S
C957 H949 0.930 . S
C957 C958 1.355 . S
C957 C959 1.415 . S
C958 C957 1.355 . S
C958 C960 1.419 . S
C959 C954 1.425 . S
C959 C956 1.409 . S
C959 C957 1.415 . S
C960 H950 0.930 . S
C960 C958 1.419 . S
C960 C961 1.362 . S
C961 H951 0.930 . S
C961 C954 1.409 . S
C961 C960 1.362 . S
H962 C968 0.930 . S
H963 C971 0.930 . S
H964 C972 0.930 . S
H965 C973 0.930 . S
H966 C976 0.930 . S
H967 C977 0.930 . S
C968 H962 0.930 . S
C968 C969 1.355 . S
C968 C970 1.415 . S
C969 C968 1.355 . S
C969 C971 1.419 . S
C970 C968 1.415 . S
C970 C975 1.425 . S
C970 C977 1.409 . S
C971 H963 0.930 . S
C971 C969 1.419 . S
C971 C972 1.362 . S
C972 H964 0.930 . S
C972 C971 1.362 . S
C972 C975 1.409 . S
C973 H965 0.930 . S
C973 C974 1.355 . S
C973 C975 1.415 . S
C974 C973 1.355 . S
C974 C976 1.419 . S
C975 C970 1.425 . S
C975 C972 1.409 . S
C975 C973 1.415 . S
C976 H966 0.930 . S
C976 C974 1.419 . S
C976 C977 1.362 . S
C977 H967 0.930 . S
C977 C970 1.409 . S
C977 C976 1.362 . S
H978 C984 0.930 . S
H979 C987 0.930 . S
H980 C988 0.930 . S
H981 C989 0.930 . S
H982 C992 0.930 . S
H983 C993 0.930 . S
C984 H978 0.930 . S
C984 C985 1.355 . S
C984 C986 1.415 . S
C985 C984 1.355 . S
C985 C987 1.419 . S
C986 C984 1.415 . S
C986 C991 1.425 1_655 S
C986 C993 1.409 1_655 S
C987 H979 0.930 . S
C987 C985 1.419 . S
C987 C988 1.362 . S
C988 H980 0.930 . S
C988 C987 1.362 . S
C988 C991 1.409 1_655 S
C989 H981 0.930 . S
C989 C990 1.355 . S
C989 C991 1.415 . S
C990 C989 1.355 . S
C990 C992 1.419 . S
C991 C986 1.425 1_455 S
C991 C988 1.409 1_455 S
C991 C989 1.415 . S
C992 H982 0.930 . S
C992 C990 1.419 . S
C992 C993 1.362 . S
C993 H983 0.930 . S
C993 C986 1.409 1_455 S
C993 C992 1.362 . S
H994 C1000 0.930 . S
H995 C1003 0.930 . S
H996 C1004 0.930 . S
H997 C1005 0.930 . S
H998 C1008 0.930 . S
H999 C1009 0.930 . S
C1000 H994 0.930 . S
C1000 C1001 1.355 . S
C1000 C1002 1.415 . S
C1001 C1000 1.355 . S
C1001 C1003 1.419 . S
C1002 C1000 1.415 . S
C1002 C1007 1.425 . S
C1002 C1009 1.409 . S
C1003 H995 0.930 . S
C1003 C1001 1.419 . S
C1003 C1004 1.362 . S
C1004 H996 0.930 . S
C1004 C1003 1.362 . S
C1004 C1007 1.409 . S
C1005 H997 0.930 . S
C1005 C1006 1.355 . S
C1005 C1007 1.415 . S
C1006 C1005 1.355 . S
C1006 C1008 1.419 . S
C1007 C1002 1.425 . S
C1007 C1004 1.409 . S
C1007 C1005 1.415 . S
C1008 H998 0.930 . S
C1008 C1006 1.419 . S
C1008 C1009 1.362 . S
C1009 H999 0.930 . S
C1009 C1002 1.409 . S
C1009 C1008 1.362 . S
H1010 C1016 0.930 . S
H1011 C1019 0.930 . S
H1012 C1020 0.930 . S
H1013 C1021 0.930 . S
H1014 C1024 0.930 . S
H1015 C1025 0.930 . S
C1016 H1010 0.930 . S
C1016 C1017 1.355 . S
C1016 C1018 1.415 . S
C1017 C1016 1.355 . S
C1017 C1019 1.419 . S
C1018 C1016 1.415 . S
C1018 C1023 1.425 1_565 S
C1018 C1025 1.409 1_565 S
C1019 H1011 0.930 . S
C1019 C1017 1.419 . S
C1019 C1020 1.362 . S
C1020 H1012 0.930 . S
C1020 C1019 1.362 . S
C1020 C1023 1.409 1_565 S
C1021 H1013 0.930 . S
C1021 C1022 1.355 . S
C1021 C1023 1.415 . S
C1022 C1021 1.355 . S
C1022 C1024 1.419 . S
C1023 C1018 1.425 1_545 S
C1023 C1020 1.409 1_545 S
C1023 C1021 1.415 . S
C1024 H1014 0.930 . S
C1024 C1022 1.419 . S
C1024 C1025 1.362 . S
C1025 H1015 0.930 . S
C1025 C1018 1.409 1_545 S
C1025 C1024 1.362 . S
H1026 C1032 0.930 . S
H1027 C1035 0.930 . S
H1028 C1036 0.930 . S
H1029 C1037 0.930 . S
H1030 C1040 0.930 . S
H1031 C1041 0.930 . S
C1032 H1026 0.930 . S
C1032 C1033 1.355 1_545 S
C1032 C1034 1.415 . S
C1033 C1032 1.355 1_565 S
C1033 C1035 1.419 . S
C1034 C1032 1.415 . S
C1034 C1039 1.425 1_545 S
C1034 C1041 1.409 . S
C1035 H1027 0.930 . S
C1035 C1033 1.419 . S
C1035 C1036 1.362 . S
C1036 H1028 0.930 . S
C1036 C1035 1.362 . S
C1036 C1039 1.409 . S
C1037 H1029 0.930 . S
C1037 C1038 1.355 1_565 S
C1037 C1039 1.415 . S
C1038 C1037 1.355 1_545 S
C1038 C1040 1.419 . S
C1039 C1034 1.425 1_565 S
C1039 C1036 1.409 . S
C1039 C1037 1.415 . S
C1040 H1030 0.930 . S
C1040 C1038 1.419 . S
C1040 C1041 1.362 . S
C1041 H1031 0.930 . S
C1041 C1034 1.409 . S
C1041 C1040 1.362 . S
H1042 C1048 0.930 . S
H1043 C1051 0.930 . S
H1044 C1052 0.930 . S
H1045 C1053 0.930 . S
H1046 C1056 0.930 . S
H1047 C1057 0.930 . S
C1048 H1042 0.930 . S
C1048 C1049 1.355 . S
C1048 C1050 1.415 . S
C1049 C1048 1.355 . S
C1049 C1051 1.419 1_655 S
C1050 C1048 1.415 . S
C1050 C1055 1.425 1_655 S
C1050 C1057 1.409 . S
C1051 H1043 0.930 . S
C1051 C1049 1.419 1_455 S
C1051 C1052 1.362 . S
C1052 H1044 0.930 . S
C1052 C1051 1.362 . S
C1052 C1055 1.409 . S
C1053 H1045 0.930 . S
C1053 C1054 1.355 . S
C1053 C1055 1.415 . S
C1054 C1053 1.355 . S
C1054 C1056 1.419 1_455 S
C1055 C1050 1.425 1_455 S
C1055 C1052 1.409 . S
C1055 C1053 1.415 . S
C1056 H1046 0.930 . S
C1056 C1054 1.419 1_655 S
C1056 C1057 1.362 . S
C1057 H1047 0.930 . S
C1057 C1050 1.409 . S
C1057 C1056 1.362 . S
H1058 C1064 0.930 . S
H1059 C1067 0.930 . S
H1060 C1068 0.930 . S
H1061 C1069 0.930 . S
H1062 C1072 0.930 . S
H1063 C1073 0.930 . S
C1064 H1058 0.930 . S
C1064 C1065 1.355 . S
C1064 C1066 1.415 . S
C1065 C1064 1.355 . S
C1065 C1067 1.419 . S
C1066 C1064 1.415 . S
C1066 C1071 1.425 . S
C1066 C1073 1.409 . S
C1067 H1059 0.930 . S
C1067 C1065 1.419 . S
C1067 C1068 1.362 . S
C1068 H1060 0.930 . S
C1068 C1067 1.362 . S
C1068 C1071 1.409 . S
C1069 H1061 0.930 . S
C1069 C1070 1.355 . S
C1069 C1071 1.415 . S
C1070 C1069 1.355 . S
C1070 C1072 1.419 . S
C1071 C1066 1.425 . S
C1071 C1068 1.409 . S
C1071 C1069 1.415 . S
C1072 H1062 0.930 . S
C1072 C1070 1.419 . S
C1072 C1073 1.362 . S
C1073 H1063 0.930 . S
C1073 C1066 1.409 . S
C1073 C1072 1.362 . S
H1074 C1080 0.930 . S
H1075 C1083 0.930 . S
H1076 C1084 0.930 . S
H1077 C1085 0.930 . S
H1078 C1088 0.930 . S
H1079 C1089 0.930 . S
C1080 H1074 0.930 . S
C1080 C1081 1.355 . S
C1080 C1082 1.415 . S
C1081 C1080 1.355 . S
C1081 C1083 1.419 . S
C1082 C1080 1.415 . S
C1082 C1087 1.425 . S
C1082 C1089 1.409 . S
C1083 H1075 0.930 . S
C1083 C1081 1.419 . S
C1083 C1084 1.362 . S
C1084 H1076 0.930 . S
C1084 C1083 1.362 . S
C1084 C1087 1.409 . S
C1085 H1077 0.930 . S
C1085 C1086 1.355 . S
C1085 C1087 1.415 . S
C1086 C1085 1.355 . S
C1086 C1088 1.419 . S
C1087 C1082 1.425 . S
C1087 C1084 1.409 . S
C1087 C1085 1.415 . S
C1088 H1078 0.930 . S
C1088 C1086 1.419 . S
C1088 C1089 1.362 . S
C1089 H1079 0.930 . S
C1089 C1082 1.409 . S
C1089 C1088 1.362 . S
H1090 C1096 0.930 . S
H1091 C1099 0.930 . S
H1092 C1100 0.930 . S
H1093 C1101 0.930 . S
H1094 C1104 0.930 . S
H1095 C1105 0.930 . S
C1096 H1090 0.930 . S
C1096 C1097 1.355 . S
C1096 C1098 1.415 . S
C1097 C1096 1.355 . S
C1097 C1099 1.419 . S
C1098 C1096 1.415 . S
C1098 C1103 1.425 . S
C1098 C1105 1.409 . S
C1099 H1091 0.930 . S
C1099 C1097 1.419 . S
C1099 C1100 1.362 . S
C1100 H1092 0.930 . S
C1100 C1099 1.362 . S
C1100 C1103 1.409 . S
C1101 H1093 0.930 . S
C1101 C1102 1.355 . S
C1101 C1103 1.415 . S
C1102 C1101 1.355 . S
C1102 C1104 1.419 . S
C1103 C1098 1.425 . S
C1103 C1100 1.409 . S
C1103 C1101 1.415 . S
C1104 H1094 0.930 . S
C1104 C1102 1.419 . S
C1104 C1105 1.362 . S
C1105 H1095 0.930 . S
C1105 C1098 1.409 . S
C1105 C1104 1.362 . S
H1106 C1112 0.930 . S
H1107 C1115 0.930 . S
H1108 C1116 0.930 . S
H1109 C1117 0.930 . S
H1110 C1120 0.930 . S
H1111 C1121 0.930 . S
C1112 H1106 0.930 . S
C1112 C1113 1.355 . S
C1112 C1114 1.415 . S
C1113 C1112 1.355 . S
C1113 C1115 1.419 . S
C1114 C1112 1.415 . S
C1114 C1119 1.425 . S
C1114 C1121 1.409 . S
C1115 H1107 0.930 . S
C1115 C1113 1.419 . S
C1115 C1116 1.362 . S
C1116 H1108 0.930 . S
C1116 C1115 1.362 . S
C1116 C1119 1.409 . S
C1117 H1109 0.930 . S
C1117 C1118 1.355 . S
C1117 C1119 1.415 . S
C1118 C1117 1.355 . S
C1118 C1120 1.419 . S
C1119 C1114 1.425 . S
C1119 C1116 1.409 . S
C1119 C1117 1.415 . S
C1120 H1110 0.930 . S
C1120 C1118 1.419 . S
C1120 C1121 1.362 . S
C1121 H1111 0.930 . S
C1121 C1114 1.409 . S
C1121 C1120 1.362 . S
H1122 C1128 0.930 . S
H1123 C1131 0.930 . S
H1124 C1132 0.930 . S
H1125 C1133 0.930 . S
H1126 C1136 0.930 . S
H1127 C1137 0.930 . S
C1128 H1122 0.930 . S
C1128 C1129 1.355 . S
C1128 C1130 1.415 . S
C1129 C1128 1.355 . S
C1129 C1131 1.419 . S
C1130 C1128 1.415 . S
C1130 C1135 1.425 . S
C1130 C1137 1.409 . S
C1131 H1123 0.930 . S
C1131 C1129 1.419 . S
C1131 C1132 1.362 . S
C1132 H1124 0.930 . S
C1132 C1131 1.362 . S
C1132 C1135 1.409 . S
C1133 H1125 0.930 . S
C1133 C1134 1.355 . S
C1133 C1135 1.415 . S
C1134 C1133 1.355 . S
C1134 C1136 1.419 . S
C1135 C1130 1.425 . S
C1135 C1132 1.409 . S
C1135 C1133 1.415 . S
C1136 H1126 0.930 . S
C1136 C1134 1.419 . S
C1136 C1137 1.362 . S
C1137 H1127 0.930 . S
C1137 C1130 1.409 . S
C1137 C1136 1.362 . S
H1138 C1144 0.930 . S
H1139 C1147 0.930 . S
H1140 C1148 0.930 . S
H1141 C1149 0.930 . S
H1142 C1152 0.930 . S
H1143 C1153 0.930 . S
C1144 H1138 0.930 . S
C1144 C1145 1.355 . S
C1144 C1146 1.415 . S
C1145 C1144 1.355 . S
C1145 C1147 1.419 . S
C1146 C1144 1.415 . S
C1146 C1151 1.425 . S
C1146 C1153 1.409 . S
C1147 H1139 0.930 . S
C1147 C1145 1.419 . S
C1147 C1148 1.362 . S
C1148 H1140 0.930 . S
C1148 C1147 1.362 . S
C1148 C1151 1.409 . S
C1149 H1141 0.930 . S
C1149 C1150 1.355 . S
C1149 C1151 1.415 . S
C1150 C1149 1.355 . S
C1150 C1152 1.419 . S
C1151 C1146 1.425 . S
C1151 C1148 1.409 . S
C1151 C1149 1.415 . S
C1152 H1142 0.930 . S
C1152 C1150 1.419 . S
C1152 C1153 1.362 . S
C1153 H1143 0.930 . S
C1153 C1146 1.409 . S
C1153 C1152 1.362 . S
H1154 C1160 0.930 . S
H1155 C1163 0.930 . S
H1156 C1164 0.930 . S
H1157 C1165 0.930 . S
H1158 C1168 0.930 . S
H1159 C1169 0.930 . S
C1160 H1154 0.930 . S
C1160 C1161 1.355 . S
C1160 C1162 1.415 . S
C1161 C1160 1.355 . S
C1161 C1163 1.419 . S
C1162 C1160 1.415 . S
C1162 C1167 1.425 . S
C1162 C1169 1.409 . S
C1163 H1155 0.930 . S
C1163 C1161 1.419 . S
C1163 C1164 1.362 . S
C1164 H1156 0.930 . S
C1164 C1163 1.362 . S
C1164 C1167 1.409 . S
C1165 H1157 0.930 . S
C1165 C1166 1.355 . S
C1165 C1167 1.415 . S
C1166 C1165 1.355 . S
C1166 C1168 1.419 . S
C1167 C1162 1.425 . S
C1167 C1164 1.409 . S
C1167 C1165 1.415 . S
C1168 H1158 0.930 . S
C1168 C1166 1.419 . S
C1168 C1169 1.362 . S
C1169 H1159 0.930 . S
C1169 C1162 1.409 . S
C1169 C1168 1.362 . S
H1170 C1176 0.958 . S
H1171 C1179 0.930 . S
H1172 C1180 0.930 1_556 S
H1173 C1181 0.950 . S
H1174 C1184 0.930 . S
H1175 C1185 0.930 1_554 S
C1176 H1170 0.958 . S
C1176 C1177 1.320 1_545 S
C1176 C1178 1.422 . S
C1177 C1176 1.320 1_565 S
C1177 C1179 1.419 . S
C1178 C1176 1.422 . S
C1178 C1183 1.425 1_544 S
C1178 C1185 1.409 1_554 S
C1179 H1171 0.930 . S
C1179 C1177 1.419 . S
C1179 C1180 1.362 . S
C1180 H1172 0.930 1_554 S
C1180 C1179 1.362 . S
C1180 C1183 1.409 1_554 S
C1181 H1173 0.950 . S
C1181 C1182 1.330 1_565 S
C1181 C1183 1.420 . S
C1182 C1181 1.330 1_545 S
C1182 C1184 1.419 . S
C1183 C1178 1.425 1_566 S
C1183 C1180 1.409 1_556 S
C1183 C1181 1.420 . S
C1184 H1174 0.930 . S
C1184 C1182 1.419 . S
C1184 C1185 1.362 . S
C1185 H1175 0.930 1_556 S
C1185 C1178 1.409 1_556 S
C1185 C1184 1.362 . S
H1186 C1192 0.930 1_655 S
H1187 C1195 0.930 . S
H1188 C1196 0.930 1_556 S
H1189 C1197 0.930 1_455 S
H1190 C1200 0.930 . S
H1191 C1201 0.930 1_554 S
C1192 H1186 0.930 1_455 S
C1192 C1193 1.355 . S
C1192 C1194 1.415 1_455 S
C1193 C1192 1.355 . S
C1193 C1195 1.419 . S
C1194 C1192 1.415 1_655 S
C1194 C1199 1.425 1_654 S
C1194 C1201 1.409 1_554 S
C1195 H1187 0.930 . S
C1195 C1193 1.419 . S
C1195 C1196 1.362 . S
C1196 H1188 0.930 1_554 S
C1196 C1195 1.362 . S
C1196 C1199 1.409 1_554 S
C1197 H1189 0.930 1_655 S
C1197 C1198 1.355 . S
C1197 C1199 1.415 1_655 S
C1198 C1197 1.355 . S
C1198 C1200 1.419 . S
C1199 C1194 1.425 1_456 S
C1199 C1196 1.409 1_556 S
C1199 C1197 1.415 1_455 S
C1200 H1190 0.930 . S
C1200 C1198 1.419 . S
C1200 C1201 1.362 . S
C1201 H1191 0.930 1_556 S
C1201 C1194 1.409 1_556 S
C1201 C1200 1.362 . S
H1202 C1208 0.930 . S
H1203 C1211 0.930 . S
H1204 C1212 0.930 . S
H1205 C1213 0.930 . S
H1206 C1216 0.930 . S
H1207 C1217 0.930 . S
C1208 H1202 0.930 . S
C1208 C1209 1.355 . S
C1208 C1210 1.415 . S
C1209 C1208 1.355 . S
C1209 C1211 1.419 . S
C1210 C1208 1.415 . S
C1210 C1215 1.425 1_556 S
C1210 C1217 1.409 1_556 S
C1211 H1203 0.930 . S
C1211 C1209 1.419 . S
C1211 C1212 1.362 . S
C1212 H1204 0.930 . S
C1212 C1211 1.362 . S
C1212 C1215 1.409 1_556 S
C1213 H1205 0.930 . S
C1213 C1214 1.355 . S
C1213 C1215 1.415 . S
C1214 C1213 1.355 . S
C1214 C1216 1.419 . S
C1215 C1210 1.425 1_554 S
C1215 C1212 1.409 1_554 S
C1215 C1213 1.415 . S
C1216 H1206 0.930 . S
C1216 C1214 1.419 . S
C1216 C1217 1.362 . S
C1217 H1207 0.930 . S
C1217 C1210 1.409 1_554 S
C1217 C1216 1.362 . S
H1218 C1224 0.930 . S
H1219 C1227 0.930 . S
H1220 C1228 0.930 . S
H1221 C1229 0.930 . S
H1222 C1232 0.930 . S
H1223 C1233 0.930 . S
C1224 H1218 0.930 . S
C1224 C1225 1.355 . S
C1224 C1226 1.415 . S
C1225 C1224 1.355 . S
C1225 C1227 1.419 . S
C1226 C1224 1.415 . S
C1226 C1231 1.425 . S
C1226 C1233 1.409 . S
C1227 H1219 0.930 . S
C1227 C1225 1.419 . S
C1227 C1228 1.362 . S
C1228 H1220 0.930 . S
C1228 C1227 1.362 . S
C1228 C1231 1.409 . S
C1229 H1221 0.930 . S
C1229 C1230 1.355 . S
C1229 C1231 1.415 . S
C1230 C1229 1.355 . S
C1230 C1232 1.419 . S
C1231 C1226 1.425 . S
C1231 C1228 1.409 . S
C1231 C1229 1.415 . S
C1232 H1222 0.930 . S
C1232 C1230 1.419 . S
C1232 C1233 1.362 . S
C1233 H1223 0.930 . S
C1233 C1226 1.409 . S
C1233 C1232 1.362 . S
H1234 C1240 0.930 . S
H1235 C1243 0.930 . S
H1236 C1244 0.930 . S
H1237 C1245 0.930 . S
H1238 C1248 0.930 . S
H1239 C1249 0.930 . S
C1240 H1234 0.930 . S
C1240 C1241 1.355 . S
C1240 C1242 1.415 . S
C1241 C1240 1.355 . S
C1241 C1243 1.419 . S
C1242 C1240 1.415 . S
C1242 C1247 1.425 . S
C1242 C1249 1.409 . S
C1243 H1235 0.930 . S
C1243 C1241 1.419 . S
C1243 C1244 1.362 . S
C1244 H1236 0.930 . S
C1244 C1243 1.362 . S
C1244 C1247 1.409 . S
C1245 H1237 0.930 . S
C1245 C1246 1.355 . S
C1245 C1247 1.415 . S
C1246 C1245 1.355 . S
C1246 C1248 1.419 . S
C1247 C1242 1.425 . S
C1247 C1244 1.409 . S
C1247 C1245 1.415 . S
C1248 H1238 0.930 . S
C1248 C1246 1.419 . S
C1248 C1249 1.362 . S
C1249 H1239 0.930 . S
C1249 C1242 1.409 . S
C1249 C1248 1.362 . S
H1250 C1256 0.930 . S
H1251 C1259 0.930 . S
H1252 C1260 0.930 . S
H1253 C1261 0.930 . S
H1254 C1264 0.930 . S
H1255 C1265 0.930 . S
C1256 H1250 0.930 . S
C1256 C1257 1.355 . S
C1256 C1258 1.415 . S
C1257 C1256 1.355 . S
C1257 C1259 1.419 . S
C1258 C1256 1.415 . S
C1258 C1263 1.425 . S
C1258 C1265 1.409 . S
C1259 H1251 0.930 . S
C1259 C1257 1.419 . S
C1259 C1260 1.362 . S
C1260 H1252 0.930 . S
C1260 C1259 1.362 . S
C1260 C1263 1.409 . S
C1261 H1253 0.930 . S
C1261 C1262 1.355 . S
C1261 C1263 1.415 . S
C1262 C1261 1.355 . S
C1262 C1264 1.419 . S
C1263 C1258 1.425 . S
C1263 C1260 1.409 . S
C1263 C1261 1.415 . S
C1264 H1254 0.930 . S
C1264 C1262 1.419 . S
C1264 C1265 1.362 . S
C1265 H1255 0.930 . S
C1265 C1258 1.409 . S
C1265 C1264 1.362 . S
H1266 C1272 0.930 . S
H1267 C1275 0.930 . S
H1268 C1276 0.930 . S
H1269 C1277 0.930 . S
H1270 C1280 0.930 . S
H1271 C1281 0.930 . S
C1272 H1266 0.930 . S
C1272 C1273 1.355 . S
C1272 C1274 1.415 . S
C1273 C1272 1.355 . S
C1273 C1275 1.419 . S
C1274 C1272 1.415 . S
C1274 C1279 1.425 . S
C1274 C1281 1.409 . S
C1275 H1267 0.930 . S
C1275 C1273 1.419 . S
C1275 C1276 1.362 . S
C1276 H1268 0.930 . S
C1276 C1275 1.362 . S
C1276 C1279 1.409 . S
C1277 H1269 0.930 . S
C1277 C1278 1.355 . S
C1277 C1279 1.415 . S
C1278 C1277 1.355 . S
C1278 C1280 1.419 . S
C1279 C1274 1.425 . S
C1279 C1276 1.409 . S
C1279 C1277 1.415 . S
C1280 H1270 0.930 . S
C1280 C1278 1.419 . S
C1280 C1281 1.362 . S
C1281 H1271 0.930 . S
C1281 C1274 1.409 . S
C1281 C1280 1.362 . S
H1282 C1288 0.930 . S
H1283 C1291 0.930 . S
H1284 C1292 0.930 . S
H1285 C1293 0.930 . S
H1286 C1296 0.930 . S
H1287 C1297 0.930 . S
C1288 H1282 0.930 . S
C1288 C1289 1.355 . S
C1288 C1290 1.415 . S
C1289 C1288 1.355 . S
C1289 C1291 1.419 . S
C1290 C1288 1.415 . S
C1290 C1295 1.425 . S
C1290 C1297 1.409 . S
C1291 H1283 0.930 . S
C1291 C1289 1.419 . S
C1291 C1292 1.362 . S
C1292 H1284 0.930 . S
C1292 C1291 1.362 . S
C1292 C1295 1.409 . S
C1293 H1285 0.930 . S
C1293 C1294 1.355 . S
C1293 C1295 1.415 . S
C1294 C1293 1.355 . S
C1294 C1296 1.419 . S
C1295 C1290 1.425 . S
C1295 C1292 1.409 . S
C1295 C1293 1.415 . S
C1296 H1286 0.930 . S
C1296 C1294 1.419 . S
C1296 C1297 1.362 . S
C1297 H1287 0.930 . S
C1297 C1290 1.409 . S
C1297 C1296 1.362 . S
H1298 C1304 0.930 . S
H1299 C1307 0.930 . S
H1300 C1308 0.930 . S
H1301 C1309 0.930 . S
H1302 C1312 0.930 . S
H1303 C1313 0.930 . S
C1304 H1298 0.930 . S
C1304 C1305 1.355 . S
C1304 C1306 1.415 . S
C1305 C1304 1.355 . S
C1305 C1307 1.419 . S
C1306 C1304 1.415 . S
C1306 C1311 1.425 . S
C1306 C1313 1.409 . S
C1307 H1299 0.930 . S
C1307 C1305 1.419 . S
C1307 C1308 1.362 . S
C1308 H1300 0.930 . S
C1308 C1307 1.362 . S
C1308 C1311 1.409 . S
C1309 H1301 0.930 . S
C1309 C1310 1.355 . S
C1309 C1311 1.415 . S
C1310 C1309 1.355 . S
C1310 C1312 1.419 . S
C1311 C1306 1.425 . S
C1311 C1308 1.409 . S
C1311 C1309 1.415 . S
C1312 H1302 0.930 . S
C1312 C1310 1.419 . S
C1312 C1313 1.362 . S
C1313 H1303 0.930 . S
C1313 C1306 1.409 . S
C1313 C1312 1.362 . S
C601 C8 1.218 . S
C606 N47 1.204 . S
C617 N80 1.207 . S
C622 C41 1.220 . S
C633 C74 1.250 . S
C638 N14 1.246 . S
C649 N179 1.217 . S
C654 C107 1.228 . S
C665 N113 1.202 . S
C670 C140 1.210 . S
C681 C173 1.220 . S
C686 N146 1.206 . S
C697 N245 1.222 . S
C702 C206 1.233 . S
C713 C239 1.224 . S
C718 N278 1.222 . S
C729 C272 1.250 . S
C734 N212 1.248 . S
C745 N377 1.229 . S
C750 C305 1.238 . S
C761 N311 1.198 . S
C766 C338 1.208 . S
C777 C371 1.247 . S
C782 N344 1.243 . S
C793 N443 1.200 . S
C798 C404 1.209 . S
C809 C437 1.219 . S
C814 N476 1.205 . S
C825 C470 1.250 . S
C830 N410 1.250 . S
C841 N575 1.211 . S
C846 C503 1.224 . S
C857 N509 1.204 . S
C862 C536 1.218 . S
C873 C569 1.212 . S
C878 N542 1.197 . S
C889 N335 1.375 . S
C894 N5 1.385 . S
C905 N368 1.404 . S
C910 N38 1.363 . S
C921 N302 1.400 . S
C926 N71 1.366 . S
C937 N104 1.366 . S
C942 N467 1.401 . S
C953 N401 1.376 . S
C958 N137 1.382 . S
C969 N434 1.395 . S
C974 N170 1.363 . S
C985 N203 1.366 . S
C990 N533 1.403 . S
C1001 N566 1.371 . S
C1006 N236 1.404 . S
C1017 N500 1.367 . S
C1022 N269 1.396 . S
C1033 C17 1.820 . S
C1038 C182 1.805 . S
C1049 C116 1.742 . S
C1054 C50 1.763 . S
C1065 C149 1.791 . S
C1070 C83 1.760 . S
C1081 C380 1.771 . S
C1086 C215 1.800 . S
C1097 C314 1.818 . S
C1102 C248 1.798 . S
C1113 C281 1.820 . S
C1118 C347 1.806 . S
C1129 C578 1.787 . S
C1134 C413 1.812 . S
C1145 C446 1.744 . S
C1150 C512 1.769 . S
C1161 C545 1.800 . S
C1166 C479 1.819 . S
C1177 C28 1.325 . S
C1182 C193 1.310 . S
C1193 C61 1.330 . S
C1198 C127 1.294 . S
C1209 C160 1.298 . S
C1214 C94 1.223 . S
C1225 C391 1.330 . S
C1230 C226 1.299 . S
C1241 C325 1.321 . S
C1246 C259 1.252 . S
C1257 C358 1.267 . S
C1262 C292 1.205 . S
C1273 C424 1.302 . S
C1278 C589 1.329 . S
C1289 C457 1.217 . S
C1294 C523 1.290 . S
C1305 C556 1.295 . S
C1310 C490 1.221 . S
