# Generated by pormake.
# Topology sou, (8)-cn, num edge types: 1
# Building blocks:
#     Node 0, Type 0, BuildingBlock: HISSIN_clean_sbu_1, # of connection points: 8
#     Node 1, Type 0, BuildingBlock: HISSIN_clean_sbu_1, # of connection points: 8
#     Node 2, Type 0, BuildingBlock: HISSIN_clean_sbu_1, # of connection points: 8
#     Node 3, Type 0, BuildingBlock: HISSIN_clean_sbu_1, # of connection points: 8
#     Node 4, Type 0, BuildingBlock: HISSIN_clean_sbu_1, # of connection points: 8
#     Node 5, Type 0, BuildingBlock: HISSIN_clean_sbu_1, # of connection points: 8
#     Node 6, Type 0, BuildingBlock: HISSIN_clean_sbu_1, # of connection points: 8
#     Node 7, Type 0, BuildingBlock: HISSIN_clean_sbu_1, # of connection points: 8
#     Node 8, Type 0, BuildingBlock: HISSIN_clean_sbu_1, # of connection points: 8
#     Node 9, Type 0, BuildingBlock: HISSIN_clean_sbu_1, # of connection points: 8
#     Node 10, Type 0, BuildingBlock: HISSIN_clean_sbu_1, # of connection points: 8
#     Node 11, Type 0, BuildingBlock: HISSIN_clean_sbu_1, # of connection points: 8
#     Node 12, Type 0, BuildingBlock: HISSIN_clean_sbu_1, # of connection points: 8
#     Node 13, Type 0, BuildingBlock: HISSIN_clean_sbu_1, # of connection points: 8
#     Node 14, Type 0, BuildingBlock: HISSIN_clean_sbu_1, # of connection points: 8
#     Node 15, Type 0, BuildingBlock: HISSIN_clean_sbu_1, # of connection points: 8
#     Node 16, Type 0, BuildingBlock: HISSIN_clean_sbu_1, # of connection points: 8
#     Node 17, Type 0, BuildingBlock: HISSIN_clean_sbu_1, # of connection points: 8
#     Node 18, Type 0, BuildingBlock: HISSIN_clean_sbu_1, # of connection points: 8
#     Node 19, Type 0, BuildingBlock: HISSIN_clean_sbu_1, # of connection points: 8
#     Node 20, Type 0, BuildingBlock: HISSIN_clean_sbu_1, # of connection points: 8
#     Node 21, Type 0, BuildingBlock: HISSIN_clean_sbu_1, # of connection points: 8
#     Node 22, Type 0, BuildingBlock: HISSIN_clean_sbu_1, # of connection points: 8
#     Node 23, Type 0, BuildingBlock: HISSIN_clean_sbu_1, # of connection points: 8
#     Node 24, Type 0, BuildingBlock: HISSIN_clean_sbu_1, # of connection points: 8
#     Node 25, Type 0, BuildingBlock: HISSIN_clean_sbu_1, # of connection points: 8
#     Node 26, Type 0, BuildingBlock: HISSIN_clean_sbu_1, # of connection points: 8
#     Node 27, Type 0, BuildingBlock: HISSIN_clean_sbu_1, # of connection points: 8
#     Node 28, Type 0, BuildingBlock: HISSIN_clean_sbu_1, # of connection points: 8
#     Node 29, Type 0, BuildingBlock: HISSIN_clean_sbu_1, # of connection points: 8
#     Node 30, Type 0, BuildingBlock: HISSIN_clean_sbu_1, # of connection points: 8
#     Node 31, Type 0, BuildingBlock: HISSIN_clean_sbu_1, # of connection points: 8
#     Edge 32, Type (0, 0), BuildingBlock: MIFKUJ_clean_linker_0, # of connection points: 2
#     Edge 33, Type (0, 0), BuildingBlock: MIFKUJ_clean_linker_0, # of connection points: 2
#     Edge 34, Type (0, 0), BuildingBlock: MIFKUJ_clean_linker_0, # of connection points: 2
#     Edge 35, Type (0, 0), BuildingBlock: MIFKUJ_clean_linker_0, # of connection points: 2
#     Edge 36, Type (0, 0), BuildingBlock: MIFKUJ_clean_linker_0, # of connection points: 2
#     Edge 37, Type (0, 0), BuildingBlock: MIFKUJ_clean_linker_0, # of connection points: 2
#     Edge 38, Type (0, 0), BuildingBlock: MIFKUJ_clean_linker_0, # of connection points: 2
#     Edge 39, Type (0, 0), BuildingBlock: MIFKUJ_clean_linker_0, # of connection points: 2
#     Edge 40, Type (0, 0), BuildingBlock: MIFKUJ_clean_linker_0, # of connection points: 2
#     Edge 41, Type (0, 0), BuildingBlock: MIFKUJ_clean_linker_0, # of connection points: 2
#     Edge 42, Type (0, 0), BuildingBlock: MIFKUJ_clean_linker_0, # of connection points: 2
#     Edge 43, Type (0, 0), BuildingBlock: MIFKUJ_clean_linker_0, # of connection points: 2
#     Edge 44, Type (0, 0), BuildingBlock: MIFKUJ_clean_linker_0, # of connection points: 2
#     Edge 45, Type (0, 0), BuildingBlock: MIFKUJ_clean_linker_0, # of connection points: 2
#     Edge 46, Type (0, 0), BuildingBlock: MIFKUJ_clean_linker_0, # of connection points: 2
#     Edge 47, Type (0, 0), BuildingBlock: MIFKUJ_clean_linker_0, # of connection points: 2
#     Edge 48, Type (0, 0), BuildingBlock: MIFKUJ_clean_linker_0, # of connection points: 2
#     Edge 49, Type (0, 0), BuildingBlock: MIFKUJ_clean_linker_0, # of connection points: 2
#     Edge 50, Type (0, 0), BuildingBlock: MIFKUJ_clean_linker_0, # of connection points: 2
#     Edge 51, Type (0, 0), BuildingBlock: MIFKUJ_clean_linker_0, # of connection points: 2
#     Edge 52, Type (0, 0), BuildingBlock: MIFKUJ_clean_linker_0, # of connection points: 2
#     Edge 53, Type (0, 0), BuildingBlock: MIFKUJ_clean_linker_0, # of connection points: 2
#     Edge 54, Type (0, 0), BuildingBlock: MIFKUJ_clean_linker_0, # of connection points: 2
#     Edge 55, Type (0, 0), BuildingBlock: MIFKUJ_clean_linker_0, # of connection points: 2
#     Edge 56, Type (0, 0), BuildingBlock: MIFKUJ_clean_linker_0, # of connection points: 2
#     Edge 57, Type (0, 0), BuildingBlock: MIFKUJ_clean_linker_0, # of connection points: 2
#     Edge 58, Type (0, 0), BuildingBlock: MIFKUJ_clean_linker_0, # of connection points: 2
#     Edge 59, Type (0, 0), BuildingBlock: MIFKUJ_clean_linker_0, # of connection points: 2
#     Edge 60, Type (0, 0), BuildingBlock: MIFKUJ_clean_linker_0, # of connection points: 2
#     Edge 61, Type (0, 0), BuildingBlock: MIFKUJ_clean_linker_0, # of connection points: 2
#     Edge 62, Type (0, 0), BuildingBlock: MIFKUJ_clean_linker_0, # of connection points: 2
#     Edge 63, Type (0, 0), BuildingBlock: MIFKUJ_clean_linker_0, # of connection points: 2
#     Edge 64, Type (0, 0), BuildingBlock: MIFKUJ_clean_linker_0, # of connection points: 2
#     Edge 65, Type (0, 0), BuildingBlock: MIFKUJ_clean_linker_0, # of connection points: 2
#     Edge 66, Type (0, 0), BuildingBlock: MIFKUJ_clean_linker_0, # of connection points: 2
#     Edge 67, Type (0, 0), BuildingBlock: MIFKUJ_clean_linker_0, # of connection points: 2
#     Edge 68, Type (0, 0), BuildingBlock: MIFKUJ_clean_linker_0, # of connection points: 2
#     Edge 69, Type (0, 0), BuildingBlock: MIFKUJ_clean_linker_0, # of connection points: 2
#     Edge 70, Type (0, 0), BuildingBlock: MIFKUJ_clean_linker_0, # of connection points: 2
#     Edge 71, Type (0, 0), BuildingBlock: MIFKUJ_clean_linker_0, # of connection points: 2
#     Edge 72, Type (0, 0), BuildingBlock: MIFKUJ_clean_linker_0, # of connection points: 2
#     Edge 73, Type (0, 0), BuildingBlock: MIFKUJ_clean_linker_0, # of connection points: 2
#     Edge 74, Type (0, 0), BuildingBlock: MIFKUJ_clean_linker_0, # of connection points: 2
#     Edge 75, Type (0, 0), BuildingBlock: MIFKUJ_clean_linker_0, # of connection points: 2
#     Edge 76, Type (0, 0), BuildingBlock: MIFKUJ_clean_linker_0, # of connection points: 2
#     Edge 77, Type (0, 0), BuildingBlock: MIFKUJ_clean_linker_0, # of connection points: 2
#     Edge 78, Type (0, 0), BuildingBlock: MIFKUJ_clean_linker_0, # of connection points: 2
#     Edge 79, Type (0, 0), BuildingBlock: MIFKUJ_clean_linker_0, # of connection points: 2
#     Edge 80, Type (0, 0), BuildingBlock: MIFKUJ_clean_linker_0, # of connection points: 2
#     Edge 81, Type (0, 0), BuildingBlock: MIFKUJ_clean_linker_0, # of connection points: 2
#     Edge 82, Type (0, 0), BuildingBlock: MIFKUJ_clean_linker_0, # of connection points: 2
#     Edge 83, Type (0, 0), BuildingBlock: MIFKUJ_clean_linker_0, # of connection points: 2
#     Edge 84, Type (0, 0), BuildingBlock: MIFKUJ_clean_linker_0, # of connection points: 2
#     Edge 85, Type (0, 0), BuildingBlock: MIFKUJ_clean_linker_0, # of connection points: 2
#     Edge 86, Type (0, 0), BuildingBlock: MIFKUJ_clean_linker_0, # of connection points: 2
#     Edge 87, Type (0, 0), BuildingBlock: MIFKUJ_clean_linker_0, # of connection points: 2
#     Edge 88, Type (0, 0), BuildingBlock: MIFKUJ_clean_linker_0, # of connection points: 2
#     Edge 89, Type (0, 0), BuildingBlock: MIFKUJ_clean_linker_0, # of connection points: 2
#     Edge 90, Type (0, 0), BuildingBlock: MIFKUJ_clean_linker_0, # of connection points: 2
#     Edge 91, Type (0, 0), BuildingBlock: MIFKUJ_clean_linker_0, # of connection points: 2
#     Edge 92, Type (0, 0), BuildingBlock: MIFKUJ_clean_linker_0, # of connection points: 2
#     Edge 93, Type (0, 0), BuildingBlock: MIFKUJ_clean_linker_0, # of connection points: 2
#     Edge 94, Type (0, 0), BuildingBlock: MIFKUJ_clean_linker_0, # of connection points: 2
#     Edge 95, Type (0, 0), BuildingBlock: MIFKUJ_clean_linker_0, # of connection points: 2
#     Edge 96, Type (0, 0), BuildingBlock: MIFKUJ_clean_linker_0, # of connection points: 2
#     Edge 97, Type (0, 0), BuildingBlock: MIFKUJ_clean_linker_0, # of connection points: 2
#     Edge 98, Type (0, 0), BuildingBlock: MIFKUJ_clean_linker_0, # of connection points: 2
#     Edge 99, Type (0, 0), BuildingBlock: MIFKUJ_clean_linker_0, # of connection points: 2
#     Edge 100, Type (0, 0), BuildingBlock: MIFKUJ_clean_linker_0, # of connection points: 2
#     Edge 101, Type (0, 0), BuildingBlock: MIFKUJ_clean_linker_0, # of connection points: 2
#     Edge 102, Type (0, 0), BuildingBlock: MIFKUJ_clean_linker_0, # of connection points: 2
#     Edge 103, Type (0, 0), BuildingBlock: MIFKUJ_clean_linker_0, # of connection points: 2
#     Edge 104, Type (0, 0), BuildingBlock: MIFKUJ_clean_linker_0, # of connection points: 2
#     Edge 105, Type (0, 0), BuildingBlock: MIFKUJ_clean_linker_0, # of connection points: 2
#     Edge 106, Type (0, 0), BuildingBlock: MIFKUJ_clean_linker_0, # of connection points: 2
#     Edge 107, Type (0, 0), BuildingBlock: MIFKUJ_clean_linker_0, # of connection points: 2
#     Edge 108, Type (0, 0), BuildingBlock: MIFKUJ_clean_linker_0, # of connection points: 2
#     Edge 109, Type (0, 0), BuildingBlock: MIFKUJ_clean_linker_0, # of connection points: 2
#     Edge 110, Type (0, 0), BuildingBlock: MIFKUJ_clean_linker_0, # of connection points: 2
#     Edge 111, Type (0, 0), BuildingBlock: MIFKUJ_clean_linker_0, # of connection points: 2
#     Edge 112, Type (0, 0), BuildingBlock: MIFKUJ_clean_linker_0, # of connection points: 2
#     Edge 113, Type (0, 0), BuildingBlock: MIFKUJ_clean_linker_0, # of connection points: 2
#     Edge 114, Type (0, 0), BuildingBlock: MIFKUJ_clean_linker_0, # of connection points: 2
#     Edge 115, Type (0, 0), BuildingBlock: MIFKUJ_clean_linker_0, # of connection points: 2
#     Edge 116, Type (0, 0), BuildingBlock: MIFKUJ_clean_linker_0, # of connection points: 2
#     Edge 117, Type (0, 0), BuildingBlock: MIFKUJ_clean_linker_0, # of connection points: 2
#     Edge 118, Type (0, 0), BuildingBlock: MIFKUJ_clean_linker_0, # of connection points: 2
#     Edge 119, Type (0, 0), BuildingBlock: MIFKUJ_clean_linker_0, # of connection points: 2
#     Edge 120, Type (0, 0), BuildingBlock: MIFKUJ_clean_linker_0, # of connection points: 2
#     Edge 121, Type (0, 0), BuildingBlock: MIFKUJ_clean_linker_0, # of connection points: 2
#     Edge 122, Type (0, 0), BuildingBlock: MIFKUJ_clean_linker_0, # of connection points: 2
#     Edge 123, Type (0, 0), BuildingBlock: MIFKUJ_clean_linker_0, # of connection points: 2
#     Edge 124, Type (0, 0), BuildingBlock: MIFKUJ_clean_linker_0, # of connection points: 2
#     Edge 125, Type (0, 0), BuildingBlock: MIFKUJ_clean_linker_0, # of connection points: 2
#     Edge 126, Type (0, 0), BuildingBlock: MIFKUJ_clean_linker_0, # of connection points: 2
#     Edge 127, Type (0, 0), BuildingBlock: MIFKUJ_clean_linker_0, # of connection points: 2
#     Edge 128, Type (0, 0), BuildingBlock: MIFKUJ_clean_linker_0, # of connection points: 2
#     Edge 129, Type (0, 0), BuildingBlock: MIFKUJ_clean_linker_0, # of connection points: 2
#     Edge 130, Type (0, 0), BuildingBlock: MIFKUJ_clean_linker_0, # of connection points: 2
#     Edge 131, Type (0, 0), BuildingBlock: MIFKUJ_clean_linker_0, # of connection points: 2
#     Edge 132, Type (0, 0), BuildingBlock: MIFKUJ_clean_linker_0, # of connection points: 2
#     Edge 133, Type (0, 0), BuildingBlock: MIFKUJ_clean_linker_0, # of connection points: 2
#     Edge 134, Type (0, 0), BuildingBlock: MIFKUJ_clean_linker_0, # of connection points: 2
#     Edge 135, Type (0, 0), BuildingBlock: MIFKUJ_clean_linker_0, # of connection points: 2
#     Edge 136, Type (0, 0), BuildingBlock: MIFKUJ_clean_linker_0, # of connection points: 2
#     Edge 137, Type (0, 0), BuildingBlock: MIFKUJ_clean_linker_0, # of connection points: 2
#     Edge 138, Type (0, 0), BuildingBlock: MIFKUJ_clean_linker_0, # of connection points: 2
#     Edge 139, Type (0, 0), BuildingBlock: MIFKUJ_clean_linker_0, # of connection points: 2
#     Edge 140, Type (0, 0), BuildingBlock: MIFKUJ_clean_linker_0, # of connection points: 2
#     Edge 141, Type (0, 0), BuildingBlock: MIFKUJ_clean_linker_0, # of connection points: 2
#     Edge 142, Type (0, 0), BuildingBlock: MIFKUJ_clean_linker_0, # of connection points: 2
#     Edge 143, Type (0, 0), BuildingBlock: MIFKUJ_clean_linker_0, # of connection points: 2
#     Edge 144, Type (0, 0), BuildingBlock: MIFKUJ_clean_linker_0, # of connection points: 2
#     Edge 145, Type (0, 0), BuildingBlock: MIFKUJ_clean_linker_0, # of connection points: 2
#     Edge 146, Type (0, 0), BuildingBlock: MIFKUJ_clean_linker_0, # of connection points: 2
#     Edge 147, Type (0, 0), BuildingBlock: MIFKUJ_clean_linker_0, # of connection points: 2
#     Edge 148, Type (0, 0), BuildingBlock: MIFKUJ_clean_linker_0, # of connection points: 2
#     Edge 149, Type (0, 0), BuildingBlock: MIFKUJ_clean_linker_0, # of connection points: 2
#     Edge 150, Type (0, 0), BuildingBlock: MIFKUJ_clean_linker_0, # of connection points: 2
#     Edge 151, Type (0, 0), BuildingBlock: MIFKUJ_clean_linker_0, # of connection points: 2
#     Edge 152, Type (0, 0), BuildingBlock: MIFKUJ_clean_linker_0, # of connection points: 2
#     Edge 153, Type (0, 0), BuildingBlock: MIFKUJ_clean_linker_0, # of connection points: 2
#     Edge 154, Type (0, 0), BuildingBlock: MIFKUJ_clean_linker_0, # of connection points: 2
#     Edge 155, Type (0, 0), BuildingBlock: MIFKUJ_clean_linker_0, # of connection points: 2
#     Edge 156, Type (0, 0), BuildingBlock: MIFKUJ_clean_linker_0, # of connection points: 2
#     Edge 157, Type (0, 0), BuildingBlock: MIFKUJ_clean_linker_0, # of connection points: 2
#     Edge 158, Type (0, 0), BuildingBlock: MIFKUJ_clean_linker_0, # of connection points: 2
#     Edge 159, Type (0, 0), BuildingBlock: MIFKUJ_clean_linker_0, # of connection points: 2
# Relax obj value: 0.063
# Max RMSD: 0.157
# Mean RMSD: 0.157
data_MOF--net-sou--node1-HISSIN_clean_sbu_1--edge1-MIFKUJ_clean_linker_0
_symmetry_space_group_name_H-M    P1
_symmetry_Int_Tables_number       1
_symmetry_cell_setting            triclinic
loop_
_symmetry_equiv_pos_as_xyz
'x, y, z'
_cell_length_a     102.21518
_cell_length_b     54.792133
_cell_length_c     52.879628
_cell_angle_alpha  90.05644
_cell_angle_beta   90.025781
_cell_angle_gamma 89.917014
loop_
_atom_site_label
_atom_site_type_symbol
_atom_site_fract_x
_atom_site_fract_y
_atom_site_fract_z
_atom_type_partial_charge
Eu0 Eu 0.99464 0.2928 0.04214 0.0
C1 C 0.01031 0.29162 0.99102 0.0
O2 O 1.00212 0.25544 0.05319 0.0
C3 C 0.05752 0.35403 0.03485 0.0
C4 C 0.08393 0.35824 0.048 0.0
C5 C 0.06498 0.37418 0.02614 0.0
C6 C 0.07833 0.37602 0.03259 0.0
C7 C 0.06365 0.33598 0.04985 0.0
C8 C 0.07688 0.33804 0.05612 0.0
Eu9 Eu 0.02128 0.34291 0.00809 0.0
O10 O 1.00425 0.32007 0.068 0.0
O11 O 0.01787 0.35861 0.96897 0.0
O12 O 0.02097 0.30515 0.99082 0.0
O13 O 1.00438 0.34638 0.03493 0.0
C14 C 0.01151 0.37827 0.96122 0.0
O15 O 0.00903 0.38 0.9369 0.0
O16 O 0.03739 0.33117 0.03194 0.0
C17 C 0.04313 0.35264 0.03118 0.0
C18 C 0.01078 0.25129 0.07109 0.0
O19 O 0.01627 0.26983 0.08271 0.0
O20 O 0.03698 0.36867 0.017 0.0
O21 O 0.9996 0.30019 0.00145 0.0
C22 C 0.96932 0.29432 0.04636 0.0
O23 O 0.97682 0.31366 0.04835 0.0
C24 C 0.95803 0.29622 0.02898 0.0
C25 C 0.93798 0.3001 0.99357 0.0
C26 C 0.95117 0.27513 0.02119 0.0
C27 C 0.94049 0.27732 0.00459 0.0
C28 C 0.95297 0.31933 0.02247 0.0
C29 C 0.94252 0.32116 0.00548 0.0
C30 C 0.00657 0.34206 0.05904 0.0
O31 O 0.97601 0.27389 0.04569 0.0
H32 H 0.09421 0.35956 0.05289 0.0
H33 H 0.06054 0.38808 0.01435 0.0
H34 H 0.05817 0.32043 0.05676 0.0
H35 H 0.92995 0.30186 0.98023 0.0
H36 H 0.95355 0.25754 0.02933 0.0
H37 H 0.95646 0.33565 0.03189 0.0
Eu38 Eu 0.267 0.95806 0.04899 0.0
C39 C 0.25249 0.96724 0.99608 0.0
O40 O 0.26 0.99187 0.07034 0.0
C41 C 0.20339 0.90038 0.02803 0.0
C42 C 0.17715 0.89555 0.04205 0.0
C43 C 0.19535 0.88282 0.01591 0.0
C44 C 0.18208 0.88077 0.02289 0.0
C45 C 0.19806 0.91511 0.04734 0.0
C46 C 0.18503 0.9124 0.0544 0.0
Eu47 Eu 0.24121 0.91422 0.00965 0.0
O48 O 0.2563 0.92963 0.07215 0.0
O49 O 0.24819 0.89884 0.9725 0.0
O50 O 0.24201 0.95333 0.99632 0.0
O51 O 0.25549 0.90256 0.03953 0.0
C52 C 0.25198 0.87627 0.96776 0.0
O53 O 0.25627 0.87115 0.94496 0.0
O54 O 0.22329 0.92429 0.02821 0.0
C55 C 0.21715 0.90458 0.0205 0.0
C56 C 0.25209 0.00862 0.06094 0.0
O57 O 0.24723 0.00549 0.03817 0.0
O58 O 0.22423 0.8893 0.00694 0.0
O59 O 0.26339 0.96006 0.00692 0.0
C60 C 0.29239 0.95483 0.05237 0.0
O61 O 0.2848 0.93584 0.04842 0.0
C62 C 0.30351 0.9583 0.03454 0.0
C63 C 0.32078 0.9649 0.99481 0.0
C64 C 0.30841 0.98192 0.02915 0.0
C65 C 0.31768 0.98498 0.00983 0.0
C66 C 0.31025 0.93796 0.02427 0.0
C67 C 0.31991 0.94154 0.00551 0.0
C68 C 0.25334 0.90782 0.06335 0.0
O69 O 0.28574 0.97447 0.05854 0.0
H70 H 0.16698 0.89372 0.04772 0.0
H71 H 0.19925 0.8714 0.00095 0.0
H72 H 0.20402 0.92848 0.05713 0.0
H73 H 0.32695 0.96797 0.97848 0.0
H74 H 0.30548 0.9975 0.04044 0.0
H75 H 0.30842 0.91995 0.03185 0.0
Eu76 Eu 0.99783 0.9632 0.1995 0.0
C77 C 0.00998 0.96418 0.25498 0.0
O78 O 1.00114 0.99595 0.17434 0.0
C79 C 0.05972 0.90984 0.21769 0.0
C80 C 0.08592 0.9063 0.20307 0.0
C81 C 0.06804 0.89197 0.22883 0.0
C82 C 0.08132 0.89049 0.22163 0.0
C83 C 0.06472 0.92529 0.19879 0.0
C84 C 0.07773 0.92312 0.19132 0.0
Eu85 Eu 0.02119 0.91485 0.23563 0.0
O86 O 1.00514 0.93345 0.17333 0.0
O87 O 0.01691 0.88416 0.2615 0.0
O88 O 0.01456 0.94328 0.263 0.0
O89 O 0.00722 0.9043 0.20438 0.0
C90 C 1.00494 0.87602 0.26328 0.0
O91 O 0.99527 0.88967 0.2551 0.0
O92 O 0.03832 0.93026 0.21707 0.0
C93 C 0.04567 0.91166 0.22424 0.0
C94 C 0.01063 0.01126 0.17995 0.0
O95 O 0.01849 0.00596 0.19881 0.0
O96 O 0.03974 0.89515 0.23809 0.0
O97 O 0.01193 0.97018 0.23135 0.0
C98 C 0.97297 0.9588 0.20979 0.0
O99 O 0.98134 0.94054 0.21083 0.0
C100 C 0.96125 0.95829 0.2265 0.0
C101 C 0.93901 0.95511 0.25684 0.0
C102 C 0.95417 0.9798 0.233 0.0
C103 C 0.94242 0.97797 0.24702 0.0
C104 C 0.95529 0.93548 0.23107 0.0
C105 C 0.94373 0.93407 0.24516 0.0
C106 C 0.00803 0.91095 0.18052 0.0
O107 O 0.97841 0.97968 0.2037 0.0
H108 H 0.09599 0.90481 0.19664 0.0
H109 H 0.06427 0.8795 0.24293 0.0
H110 H 0.05845 0.93834 0.18927 0.0
H111 H 0.93025 0.95354 0.26836 0.0
H112 H 0.95718 0.99735 0.22561 0.0
H113 H 0.95893 0.91918 0.22179 0.0
Eu114 Eu 0.26339 0.29524 0.19819 0.0
C115 C 0.24919 0.28469 0.25403 0.0
O116 O 0.26068 0.25754 0.18104 0.0
C117 C 0.20225 0.35164 0.21576 0.0
C118 C 0.17767 0.35841 0.19299 0.0
C119 C 0.19423 0.37184 0.22253 0.0
C120 C 0.18178 0.37487 0.21139 0.0
C121 C 0.19728 0.33423 0.19844 0.0
C122 C 0.1849 0.33751 0.18752 0.0
Eu123 Eu 0.2394 0.3409 0.23757 0.0
O124 O 0.25288 0.32402 0.17481 0.0
O125 O 0.24602 0.3553 0.27566 0.0
O126 O 0.24329 0.30568 0.25846 0.0
O127 O 0.25227 0.35362 0.20571 0.0
C128 C 0.25263 0.37491 0.28251 0.0
O129 O 0.25662 0.37608 0.3061 0.0
O130 O 0.22084 0.32584 0.22547 0.0
C131 C 0.21432 0.34606 0.23061 0.0
C132 C 0.25016 0.25071 0.1685 0.0
O133 O 0.24099 0.26683 0.16354 0.0
O134 O 0.22175 0.36381 0.23941 0.0
O135 O 0.25587 0.27861 0.23377 0.0
C136 C 0.28819 0.30426 0.20347 0.0
O137 O 0.27902 0.31563 0.21648 0.0
C138 C 0.30075 0.29906 0.21648 0.0
C139 C 0.32495 0.29346 0.24055 0.0
C140 C 0.30517 0.27535 0.22362 0.0
C141 C 0.31743 0.27272 0.23597 0.0
C142 C 0.30901 0.31922 0.22018 0.0
C143 C 0.32118 0.31622 0.2316 0.0
C144 C 0.25057 0.34672 0.18214 0.0
O145 O 0.28364 0.2887 0.18668 0.0
H146 H 0.16797 0.36047 0.1848 0.0
H147 H 0.19726 0.38413 0.23749 0.0
H148 H 0.20258 0.31751 0.19461 0.0
H149 H 0.3346 0.29155 0.24898 0.0
H150 H 0.29929 0.2594 0.2195 0.0
H151 H 0.30626 0.33707 0.21304 0.0
Eu152 Eu 0.98923 0.66235 0.98687 0.0
C153 C 1.00479 0.66023 0.93642 0.0
O154 O 0.9959 0.64751 0.02476 0.0
C155 C 0.05347 0.70772 0.96891 0.0
C156 C 0.07347 0.70207 0.00414 0.0
C157 C 0.06025 0.72839 0.97809 0.0
C158 C 0.07095 0.72542 0.99453 0.0
C159 C 0.05876 0.68437 0.97363 0.0
C160 C 0.06917 0.68174 0.99065 0.0
Eu161 Eu 0.01687 0.71106 0.95215 0.0
O162 O 0.98826 0.70197 -0.00112 0.0
O163 O 0.00984 0.74352 0.92911 0.0
O164 O 0.00819 0.68179 0.92764 0.0
O165 O 0.01011 0.70519 0.9923 0.0
C166 C 1.00082 0.7592 0.93641 0.0
O167 O 0.99455 0.75538 0.95771 0.0
O168 O 0.03517 0.69148 0.94624 0.0
C169 C 0.04229 0.71084 0.95143 0.0
C170 C 1.00143 0.62706 0.0328 0.0
O171 O 1.00486 0.62648 0.05675 0.0
O172 O 0.03525 0.73073 0.95442 0.0
O173 O 0.00609 0.65528 0.96063 0.0
C174 C 0.96696 0.64492 0.97096 0.0
O175 O 0.97437 0.6596 0.9575 0.0
C176 C 0.95265 0.649 0.97068 0.0
C177 C 0.92567 0.65631 0.97125 0.0
C178 C 0.94424 0.63038 0.97957 0.0
C179 C 0.93059 0.63353 0.97841 0.0
C180 C 0.94715 0.66928 0.95811 0.0
C181 C 0.93355 0.67225 0.9574 0.0
C182 C 0.99916 0.7147 0.00075 0.0
O183 O 0.97221 0.63912 0.99276 0.0
H184 H 0.08133 0.69963 0.01773 0.0
H185 H 0.0578 0.74636 0.97099 0.0
H186 H 0.05541 0.66863 0.96303 0.0
H187 H 0.91513 0.65889 0.97058 0.0
H188 H 0.94827 0.61305 0.98569 0.0
H189 H 0.95326 0.68152 0.94721 0.0
Eu190 Eu 0.77108 0.09154 0.98705 0.0
C191 C 0.7587 0.09071 0.93129 0.0
O192 O 0.76191 0.10397 0.02372 0.0
C193 C 0.70723 0.04183 0.96224 0.0
C194 C 0.68554 0.04174 0.99469 0.0
C195 C 0.70166 0.01958 0.97047 0.0
C196 C 0.69062 0.01961 0.98625 0.0
C197 C 0.70069 0.06386 0.96805 0.0
C198 C 0.68957 0.06362 0.98367 0.0
Eu199 Eu 0.74399 0.04211 0.94595 0.0
O200 O 0.77086 0.05174 0.99817 0.0
O201 O 0.75221 0.00942 0.92457 0.0
O202 O 0.75364 0.07069 0.92154 0.0
O203 O 0.74977 0.04859 0.98644 0.0
C204 C 0.75877 0.99167 0.93561 0.0
O205 O 0.76151 0.99354 0.95978 0.0
O206 O 0.72543 0.06168 0.94199 0.0
C207 C 0.71855 0.04155 0.94453 0.0
C208 C 0.75808 0.12572 0.03149 0.0
O209 O 0.75283 0.12725 0.0541 0.0
O210 O 0.72582 0.02176 0.94462 0.0
O211 O 0.7564 0.09534 0.95524 0.0
C212 C 0.7953 0.10496 0.98108 0.0
O213 O 0.79162 0.08256 0.98612 0.0
C214 C 0.80718 0.10785 0.96535 0.0
C215 C 0.83171 0.11047 0.94206 0.0
C216 C 0.81588 0.12709 0.97122 0.0
C217 C 0.82835 0.12789 0.96008 0.0
C218 C 0.81132 0.08914 0.94862 0.0
C219 C 0.82372 0.09044 0.9373 0.0
C220 C 0.76021 0.03851 0.99624 0.0
O221 O 0.78549 0.1205 0.97917 0.0
H222 H 0.67657 0.04159 0.00577 0.0
H223 H 0.70536 0.00231 0.96345 0.0
H224 H 0.70358 0.08075 0.95901 0.0
H225 H 0.84142 0.11094 0.93377 0.0
H226 H 0.81338 0.14017 0.98584 0.0
H227 H 0.80531 0.07313 0.94557 0.0
Eu228 Eu 0.98692 0.0833 0.76052 0.0
C229 C 0.99999 0.093 0.814 0.0
O230 O 0.99214 0.11163 0.73205 0.0
C231 C 0.05114 0.05027 0.78087 0.0
C232 C 0.07536 0.04491 0.7564 0.0
C233 C 0.05703 0.02685 0.77864 0.0
C234 C 0.06926 0.02436 0.76641 0.0
C235 C 0.05802 0.07085 0.77194 0.0
C236 C 0.07015 0.06821 0.75983 0.0
Eu237 Eu 0.01375 0.04388 0.79688 0.0
O238 O 0.99155 0.05036 0.73692 0.0
O239 O 0.01086 0.00642 0.81433 0.0
O240 O 1.00241 0.0705 0.82148 0.0
O241 O 0.00794 0.02904 0.75894 0.0
C242 C 0.9996 0.99895 0.82369 0.0
O243 O 0.98969 0.01422 0.82459 0.0
O244 O 0.02944 0.06704 0.7826 0.0
C245 C 0.03859 0.05466 0.79458 0.0
C246 C 1.00386 0.12128 0.7322 0.0
O247 O 0.01361 0.10877 0.74187 0.0
O248 O 0.03388 0.03743 0.80928 0.0
O249 O 1.00051 0.09855 0.78995 0.0
C250 C 0.96193 0.0882 0.76944 0.0
O251 O 0.96931 0.07099 0.77957 0.0
C252 C 0.95059 0.09786 0.78423 0.0
C253 C 0.92746 0.1109 0.80952 0.0
C254 C 0.94294 0.11811 0.77572 0.0
C255 C 0.93105 0.1242 0.7881 0.0
C256 C 0.94565 0.0833 0.80398 0.0
C257 C 0.93399 0.0895 0.81606 0.0
C258 C 1.00003 0.03235 0.73953 0.0
O259 O 0.96841 0.10273 0.75422 0.0
H260 H 0.08501 0.0429 0.74804 0.0
H261 H 0.0524 0.01096 0.78686 0.0
H262 H 0.05414 0.08902 0.77514 0.0
H263 H 0.91825 0.11505 0.81887 0.0
H264 H 0.94569 0.12782 0.7587 0.0
H265 H 0.95027 0.06609 0.80872 0.0
Eu266 Eu 0.77133 0.66349 0.76148 0.0
C267 C 0.7561 0.65306 0.81281 0.0
O268 O 0.76594 0.65218 0.72157 0.0
C269 C 0.70708 0.70935 0.7827 0.0
C270 C 0.68448 0.71311 0.75285 0.0
C271 C 0.70119 0.7324 0.77824 0.0
C272 C 0.68977 0.73408 0.76354 0.0
C273 C 0.70084 0.68815 0.7733 0.0
C274 C 0.68939 0.68999 0.75862 0.0
Eu275 Eu 0.74417 0.70594 0.79676 0.0
O276 O 0.77035 0.70333 0.74997 0.0
O277 O 0.75273 0.73835 0.8188 0.0
O278 O 0.75303 0.67537 0.8204 0.0
O279 O 0.74829 0.70628 0.75489 0.0
C280 C 0.75651 0.75868 0.80753 0.0
O281 O 0.75625 0.7595 0.78273 0.0
O282 O 0.7255 0.68676 0.79866 0.0
C283 C 0.7187 0.70714 0.79962 0.0
C284 C 0.76068 0.63206 0.71215 0.0
O285 O 0.75743 0.63235 0.68811 0.0
O286 O 0.72612 0.72652 0.80228 0.0
O287 O 0.75678 0.64701 0.78873 0.0
C288 C 0.7954 0.65459 0.7733 0.0
O289 O 0.78837 0.67204 0.78376 0.0
C290 C 0.80923 0.65087 0.7809 0.0
C291 C 0.83579 0.64779 0.79315 0.0
C292 C 0.81689 0.63104 0.77179 0.0
C293 C 0.83022 0.62918 0.77869 0.0
C294 C 0.81501 0.66813 0.79726 0.0
C295 C 0.82824 0.66646 0.80327 0.0
C296 C 0.75926 0.7147 0.7456 0.0
O297 O 0.78916 0.6411 0.75662 0.0
H298 H 0.67533 0.71485 0.74253 0.0
H299 H 0.70508 0.74872 0.78703 0.0
H300 H 0.70453 0.67023 0.77826 0.0
H301 H 0.84613 0.64711 0.79788 0.0
H302 H 0.81251 0.61713 0.75994 0.0
H303 H 0.80929 0.68286 0.80537 0.0
Eu304 Eu 0.99725 0.7874 0.54401 0.0
C305 C 0.0128 0.79157 0.49161 0.0
O306 O 1.00086 0.74914 0.55718 0.0
C307 C 0.05748 0.85615 0.52887 0.0
C308 C 0.08149 0.86319 0.55343 0.0
C309 C 0.06488 0.87756 0.5246 0.0
C310 C 0.07708 0.88074 0.53638 0.0
C311 C 0.0629 0.83737 0.54401 0.0
C312 C 0.0751 0.8408 0.55578 0.0
Eu313 Eu 0.02127 0.84438 0.50245 0.0
O314 O 1.00407 0.81885 0.56849 0.0
O315 O 0.01463 0.86163 0.46597 0.0
O316 O 0.01816 0.80997 0.47982 0.0
O317 O 0.0059 0.84216 0.53342 0.0
C318 C 0.00895 0.88285 0.46213 0.0
O319 O 1.00443 0.8875 0.4394 0.0
O320 O 0.04045 0.82991 0.51206 0.0
C321 C 0.0457 0.85188 0.51301 0.0
C322 C 0.01023 0.74465 0.57353 0.0
O323 O 0.01731 0.76284 0.58217 0.0
O324 O 0.03736 0.86985 0.50889 0.0
O325 O 0.01369 0.79176 0.51635 0.0
C326 C 0.97389 0.79453 0.52725 0.0
O327 O 0.98425 0.79698 0.51279 0.0
C328 C 0.96063 0.79399 0.51656 0.0
C329 C 0.93683 0.79587 0.49128 0.0
C330 C 0.95358 0.77213 0.51227 0.0
C331 C 0.94112 0.77339 0.50073 0.0
C332 C 0.95456 0.81657 0.51205 0.0
C333 C 0.94241 0.8174 0.50007 0.0
C334 C 0.00819 0.83924 0.55776 0.0
O335 O 0.97618 0.7877 0.55069 0.0
H336 H 0.0911 0.86542 0.56191 0.0
H337 H 0.06169 0.89072 0.51059 0.0
H338 H 0.05816 0.81975 0.54529 0.0
H339 H 0.9274 0.79693 0.48182 0.0
H340 H 0.95741 0.75481 0.51883 0.0
H341 H 0.95897 0.83333 0.51887 0.0
Eu342 Eu 0.26526 0.45778 0.5523 0.0
C343 C 0.25101 0.46979 0.49559 0.0
O344 O 0.26085 0.49247 0.57455 0.0
C345 C 0.20034 0.4042 0.53182 0.0
C346 C 0.17492 0.39613 0.5495 0.0
C347 C 0.19276 0.38454 0.5219 0.0
C348 C 0.17991 0.38033 0.53111 0.0
C349 C 0.19478 0.41975 0.55001 0.0
C350 C 0.18221 0.41551 0.55893 0.0
Eu351 Eu 0.23842 0.41733 0.51388 0.0
O352 O 0.25467 0.42933 0.57554 0.0
O353 O 0.24486 0.389 0.48622 0.0
O354 O 0.2421 0.45249 0.49317 0.0
O355 O 0.25215 0.40213 0.54315 0.0
C356 C 0.25718 0.38255 0.48578 0.0
O357 O 0.2658 0.39655 0.49714 0.0
O358 O 0.22181 0.42276 0.53869 0.0
C359 C 0.21423 0.40853 0.52488 0.0
C360 C 0.25139 0.50759 0.56785 0.0
O361 O 0.24389 0.50172 0.54862 0.0
O362 O 0.21974 0.39946 0.50448 0.0
O363 O 0.25943 0.4723 0.51432 0.0
C364 C 0.29048 0.45034 0.54985 0.0
O365 O 0.28177 0.43548 0.53988 0.0
C366 C 0.30189 0.45681 0.5336 0.0
C367 C 0.32059 0.46767 0.49731 0.0
C368 C 0.30675 0.48103 0.53148 0.0
C369 C 0.31674 0.48613 0.51386 0.0
C370 C 0.30917 0.43783 0.52208 0.0
C371 C 0.31946 0.44343 0.50529 0.0
C372 C 0.25133 0.40754 0.56722 0.0
O373 O 0.28512 0.46765 0.56362 0.0
H374 H 0.1651 0.3935 0.55665 0.0
H375 H 0.19691 0.37232 0.50792 0.0
H376 H 0.20027 0.43496 0.55769 0.0
H377 H 0.32745 0.47227 0.48243 0.0
H378 H 0.30321 0.49535 0.54384 0.0
H379 H 0.30729 0.4191 0.52747 0.0
Eu380 Eu 0.9957 0.45792 0.69914 0.0
C381 C 0.00911 0.46872 0.75629 0.0
O382 O 1.00038 0.4909 0.67521 0.0
C383 C 0.05854 0.4096 0.71721 0.0
C384 C 0.08552 0.41336 0.71262 0.0
C385 C 0.06666 0.38959 0.72446 0.0
C386 C 0.08039 0.39093 0.72051 0.0
C387 C 0.06407 0.42883 0.70326 0.0
C388 C 0.07757 0.43034 0.70061 0.0
Eu389 Eu 0.02009 0.41615 0.73598 0.0
O390 O 0.006 0.42961 0.67517 0.0
O391 O 0.01559 0.389 0.76592 0.0
O392 O 0.01596 0.44871 0.7601 0.0
O393 O 0.00648 0.40126 0.70662 0.0
C394 C 1.004 0.3789 0.7666 0.0
O395 O 0.99401 0.39074 0.75691 0.0
O396 O 0.03693 0.42868 0.71474 0.0
C397 C 0.04453 0.41152 0.72429 0.0
C398 C 0.00999 0.50552 0.68186 0.0
O399 O 0.01725 0.49969 0.70145 0.0
O400 O 0.03878 0.39657 0.74018 0.0
O401 O 1.00216 0.47405 0.73605 0.0
C402 C 0.97051 0.45133 0.702 0.0
O403 O 0.97914 0.43555 0.7107 0.0
C404 C 0.95894 0.45633 0.71831 0.0
C405 C 0.93741 0.46289 0.75026 0.0
C406 C 0.95437 0.48026 0.72397 0.0
C407 C 0.94329 0.48341 0.7397 0.0
C408 C 0.95118 0.43628 0.72547 0.0
C409 C 0.93994 0.43986 0.7401 0.0
C410 C 0.00793 0.40709 0.68284 0.0
O411 O 0.97585 0.46954 0.68961 0.0
H412 H 0.09602 0.4161 0.71165 0.0
H413 H 0.06235 0.37331 0.73247 0.0
H414 H 0.05796 0.44253 0.69435 0.0
H415 H 0.92862 0.4653 0.76157 0.0
H416 H 0.95896 0.49606 0.71551 0.0
H417 H 0.95323 0.41831 0.71781 0.0
Eu418 Eu 0.26651 0.79556 0.70083 0.0
C419 C 0.25054 0.78808 0.75047 0.0
O420 O 0.26045 0.7568 0.69009 0.0
C421 C 0.20118 0.85415 0.71504 0.0
C422 C 0.17532 0.86178 0.6994 0.0
C423 C 0.19377 0.87373 0.72525 0.0
C424 C 0.18079 0.87761 0.71715 0.0
C425 C 0.19529 0.83837 0.69723 0.0
C426 C 0.18238 0.84223 0.68954 0.0
Eu427 Eu 0.23865 0.83949 0.7364 0.0
O428 O 0.2559 0.82263 0.67569 0.0
O429 O 0.245 0.85509 0.77409 0.0
O430 O 0.23949 0.80034 0.74988 0.0
O431 O 0.25407 0.85003 0.70807 0.0
C432 C 0.25063 0.87614 0.77973 0.0
O433 O 0.25476 0.87916 0.80305 0.0
O434 O 0.22148 0.83067 0.71416 0.0
C435 C 0.21484 0.84931 0.72322 0.0
C436 C 0.25071 0.75129 0.67468 0.0
O437 O 0.24337 0.76894 0.66566 0.0
O438 O 0.22132 0.86328 0.73912 0.0
O439 O 0.26124 0.79827 0.74198 0.0
C440 C 0.2919 0.79988 0.69859 0.0
O441 O 0.28407 0.81764 0.70562 0.0
C442 C 0.30334 0.79512 0.71523 0.0
C443 C 0.32315 0.78766 0.7506 0.0
C444 C 0.30761 0.77111 0.72089 0.0
C445 C 0.31793 0.76752 0.73812 0.0
C446 C 0.31107 0.81495 0.72353 0.0
C447 C 0.32167 0.81087 0.73998 0.0
C448 C 0.25272 0.84461 0.68399 0.0
O449 O 0.28552 0.78099 0.68956 0.0
H450 H 0.16533 0.86451 0.6933 0.0
H451 H 0.19804 0.88585 0.73918 0.0
H452 H 0.20068 0.82311 0.68934 0.0
H453 H 0.33094 0.78461 0.76421 0.0
H454 H 0.30339 0.75552 0.7113 0.0
H455 H 0.30937 0.83303 0.7159 0.0
Eu456 Eu 0.98845 0.16265 0.48715 0.0
C457 C 1.00133 0.15924 0.43298 0.0
O458 O 0.99556 0.15018 0.52546 0.0
C459 C 0.0527 0.20559 0.46331 0.0
C460 C 0.07428 0.2076 0.49594 0.0
C461 C 0.05788 0.22836 0.47109 0.0
C462 C 0.0689 0.22926 0.48693 0.0
C463 C 0.05966 0.18413 0.46944 0.0
C464 C 0.07075 0.18537 0.48501 0.0
Eu465 Eu 0.01597 0.20772 0.44879 0.0
O466 O 0.98976 0.20199 0.49938 0.0
O467 O 0.00983 0.24247 0.42834 0.0
O468 O 0.00528 0.18052 0.42429 0.0
O469 O 0.01142 0.20537 0.49039 0.0
C470 C 1.0006 0.2578 0.43557 0.0
O471 O 0.99359 0.25273 0.4557 0.0
O472 O 0.03363 0.18517 0.44758 0.0
C473 C 0.04131 0.20435 0.4459 0.0
C474 C 1.00068 0.12902 0.53216 0.0
O475 O 0.00534 0.12699 0.55521 0.0
O476 O 0.03481 0.22472 0.44226 0.0
O477 O 1.00322 0.1539 0.45688 0.0
C478 C 0.96395 0.15266 0.47922 0.0
O479 O 0.96907 0.17452 0.47669 0.0
C480 C 0.95199 0.14681 0.4645 0.0
C481 C 0.92739 0.13906 0.44243 0.0
C482 C 0.94428 0.12653 0.47168 0.0
C483 C 0.9319 0.12286 0.4607 0.0
C484 C 0.94677 0.16393 0.44718 0.0
C485 C 0.93432 0.16028 0.43676 0.0
C486 C 1.00075 0.21437 0.50046 0.0
O487 O 0.97249 0.13566 0.48543 0.0
H488 H 0.08321 0.20847 0.50711 0.0
H489 H 0.0539 0.24526 0.46374 0.0
H490 H 0.05707 0.16693 0.46062 0.0
H491 H 0.91761 0.13664 0.43474 0.0
H492 H 0.94752 0.11456 0.48674 0.0
H493 H 0.95189 0.18079 0.44316 0.0
Eu494 Eu 0.76965 0.59155 0.48787 0.0
C495 C 0.75873 0.59279 0.4328 0.0
O496 O 0.76217 0.60722 0.52466 0.0
C497 C 0.70921 0.54655 0.46673 0.0
C498 C 0.68743 0.54304 0.49864 0.0
C499 C 0.70333 0.52347 0.47135 0.0
C500 C 0.69207 0.52194 0.48682 0.0
C501 C 0.70276 0.5677 0.47535 0.0
C502 C 0.69162 0.56587 0.49051 0.0
Eu503 Eu 0.74583 0.5426 0.44683 0.0
O504 O 0.76738 0.55526 0.50743 0.0
O505 O 0.75002 0.50859 0.42363 0.0
O506 O 0.75639 0.57091 0.42362 0.0
O507 O 0.75279 0.52979 0.48478 0.0
C508 C 0.75918 0.49298 0.43052 0.0
O509 O 0.76656 0.49832 0.45009 0.0
O510 O 0.72945 0.56612 0.45687 0.0
C511 C 0.72068 0.54994 0.44977 0.0
C512 C 0.75768 0.62921 0.52989 0.0
O513 O 0.75268 0.63296 0.55244 0.0
O514 O 0.72585 0.53069 0.43882 0.0
O515 O 0.75545 0.59749 0.45622 0.0
C516 C 0.79434 0.60065 0.48028 0.0
O517 O 0.7891 0.57875 0.47867 0.0
C518 C 0.80627 0.60584 0.46503 0.0
C519 C 0.83063 0.6119 0.44154 0.0
C520 C 0.81462 0.62541 0.47209 0.0
C521 C 0.82699 0.62808 0.4606 0.0
C522 C 0.81074 0.58871 0.44693 0.0
C523 C 0.82302 0.59165 0.43559 0.0
C524 C 0.76042 0.53518 0.50415 0.0
O525 O 0.78583 0.61802 0.48549 0.0
H526 H 0.67849 0.54197 0.50975 0.0
H527 H 0.70692 0.50725 0.4619 0.0
H528 H 0.70581 0.58553 0.4687 0.0
H529 H 0.8403 0.61346 0.43325 0.0
H530 H 0.81192 0.63735 0.4876 0.0
H531 H 0.80511 0.57247 0.44273 0.0
Eu532 Eu 0.98662 0.58274 0.26293 0.0
C533 C 0.99991 0.59191 0.31785 0.0
O534 O 0.99307 0.60957 0.23383 0.0
C535 C 0.05176 0.55015 0.27919 0.0
C536 C 0.07196 0.54959 0.24383 0.0
C537 C 0.05871 0.52798 0.27429 0.0
C538 C 0.06951 0.5281 0.25738 0.0
C539 C 0.05712 0.57217 0.27012 0.0
C540 C 0.06767 0.57197 0.25326 0.0
Eu541 Eu 0.01499 0.54349 0.29783 0.0
O542 O 0.99176 0.55023 0.23904 0.0
O543 O 0.01136 0.50663 0.31626 0.0
O544 O 1.00411 0.56977 0.32371 0.0
O545 O 0.00953 0.53095 0.25899 0.0
C546 C 0.99981 0.49885 0.32388 0.0
O547 O 0.98969 0.5136 0.32265 0.0
O548 O 0.03111 0.56804 0.28959 0.0
C549 C 0.04013 0.55209 0.29621 0.0
C550 C 1.00498 0.61827 0.23487 0.0
O551 O 0.01401 0.60543 0.24648 0.0
O552 O 0.03516 0.53222 0.3062 0.0
O553 O 0.9985 0.59938 0.29443 0.0
C554 C 0.96136 0.5883 0.26819 0.0
O555 O 0.96804 0.56945 0.2769 0.0
C556 C 0.95038 0.59787 0.284 0.0
C557 C 0.9292 0.61292 0.31368 0.0
C558 C 0.94248 0.61809 0.27625 0.0
C559 C 0.93131 0.62493 0.29065 0.0
C560 C 0.94604 0.58352 0.30441 0.0
C561 C 0.93519 0.59059 0.31854 0.0
C562 C 1.0011 0.53366 0.24038 0.0
O563 O 0.96869 0.60379 0.25566 0.0
H564 H 0.07958 0.54943 0.22958 0.0
H565 H 0.05618 0.51142 0.28432 0.0
H566 H 0.05348 0.58953 0.27705 0.0
H567 H 0.92094 0.61818 0.3254 0.0
H568 H 0.94445 0.62715 0.25846 0.0
H569 H 0.9504 0.56586 0.30822 0.0
Eu570 Eu 0.77149 0.16155 0.25865 0.0
C571 C 0.75906 0.15731 0.31398 0.0
O572 O 0.7636 0.14835 0.22096 0.0
C573 C 0.70854 0.20714 0.28266 0.0
C574 C 0.68952 0.21524 0.24596 0.0
C575 C 0.70435 0.23123 0.27728 0.0
C576 C 0.69437 0.23513 0.25939 0.0
C577 C 0.70096 0.1875 0.27354 0.0
C578 C 0.69071 0.19194 0.25645 0.0
Eu579 Eu 0.74521 0.20644 0.29446 0.0
O580 O 0.77013 0.20037 0.24434 0.0
O581 O 0.7512 0.24567 0.30366 0.0
O582 O 0.75636 0.18024 0.31989 0.0
O583 O 0.74842 0.20518 0.25249 0.0
C584 C 0.76014 0.25138 0.3207 0.0
O585 O 0.76653 0.23369 0.33204 0.0
O586 O 0.72764 0.18417 0.29171 0.0
C587 C 0.71999 0.20207 0.29914 0.0
C588 C 0.75861 0.12714 0.21389 0.0
O589 O 0.75353 0.12573 0.19113 0.0
O590 O 0.72655 0.22085 0.30791 0.0
O591 O 0.75832 0.14935 0.29055 0.0
C592 C 0.79628 0.1529 0.26536 0.0
O593 O 0.79066 0.17411 0.26959 0.0
C594 C 0.80768 0.14621 0.28141 0.0
C595 C 0.83134 0.13709 0.3066 0.0
C596 C 0.81562 0.12614 0.27436 0.0
C597 C 0.82764 0.12203 0.28661 0.0
C598 C 0.81234 0.1626 0.30009 0.0
C599 C 0.82427 0.15813 0.31234 0.0
C600 C 0.75924 0.21292 0.24204 0.0
O601 O 0.78813 0.13601 0.25721 0.0
H602 H 0.68196 0.21845 0.23191 0.0
H603 H 0.70837 0.24663 0.2875 0.0
H604 H 0.7025 0.16928 0.28096 0.0
H605 H 0.84084 0.13432 0.31541 0.0
H606 H 0.81298 0.11502 0.25818 0.0
H607 H 0.80722 0.17951 0.30397 0.0
Eu608 Eu 0.49525 0.29269 0.54141 0.0
C609 C 0.5105 0.28894 0.49088 0.0
O610 O 0.50277 0.25472 0.55045 0.0
C611 C 0.55866 0.35574 0.53174 0.0
C612 C 0.58011 0.3646 0.56327 0.0
C613 C 0.56667 0.37652 0.52781 0.0
C614 C 0.57793 0.38022 0.54281 0.0
C615 C 0.56292 0.33774 0.54913 0.0
C616 C 0.57397 0.34192 0.5642 0.0
Eu617 Eu 0.52307 0.33964 0.50782 0.0
O618 O 0.50656 0.31601 0.56916 0.0
O619 O 0.51392 0.35557 0.47254 0.0
O620 O 0.52153 0.30122 0.49193 0.0
O621 O 0.50991 0.34708 0.54132 0.0
C622 C 0.50855 0.37716 0.46838 0.0
O623 O 0.50282 0.38066 0.44646 0.0
O624 O 0.54307 0.32816 0.51374 0.0
C625 C 0.54774 0.35049 0.51389 0.0
C626 C 0.50968 0.25054 0.57104 0.0
O627 O 0.51293 0.26906 0.5855 0.0
O628 O 0.5387 0.36721 0.50982 0.0
O629 O 0.49983 0.29838 0.5004 0.0
C630 C 0.4699 0.29456 0.54622 0.0
O631 O 0.47717 0.31395 0.54215 0.0
C632 C 0.45829 0.29135 0.52959 0.0
C633 C 0.43794 0.28656 0.49478 0.0
C634 C 0.4538 0.26784 0.52239 0.0
C635 C 0.44327 0.26555 0.50537 0.0
C636 C 0.45063 0.31186 0.52294 0.0
C637 C 0.43988 0.30903 0.50669 0.0
C638 C 0.51145 0.33768 0.56399 0.0
O639 O 0.47688 0.27503 0.5513 0.0
H640 H 0.58856 0.36764 0.57534 0.0
H641 H 0.56474 0.38852 0.51196 0.0
H642 H 0.55831 0.31996 0.54971 0.0
H643 H 0.42976 0.28473 0.48177 0.0
H644 H 0.45809 0.25156 0.53052 0.0
H645 H 0.45247 0.32941 0.53171 0.0
Eu646 Eu 0.76654 0.9586 0.54428 0.0
C647 C 0.75049 0.9618 0.49484 0.0
O648 O 0.7589 0.99666 0.55415 0.0
C649 C 0.70215 0.8943 0.53218 0.0
C650 C 0.67773 0.88685 0.55524 0.0
C651 C 0.69445 0.87372 0.52584 0.0
C652 C 0.6822 0.87006 0.53741 0.0
C653 C 0.69705 0.91167 0.5494 0.0
C654 C 0.68476 0.90806 0.5605 0.0
Eu655 Eu 0.7385 0.91079 0.51044 0.0
O656 O 0.75628 0.9332 0.5717 0.0
O657 O 0.7464 0.89901 0.47228 0.0
O658 O 0.73943 0.94982 0.4968 0.0
O659 O 0.75248 0.90273 0.54272 0.0
C660 C 0.75223 0.87879 0.46455 0.0
O661 O 0.75698 0.87857 0.44147 0.0
O662 O 0.71878 0.9222 0.51867 0.0
C663 C 0.71395 0.90005 0.51687 0.0
C664 C 0.7528 1.00149 0.57559 0.0
O665 O 0.75022 0.98339 0.59107 0.0
O666 O 0.7228 0.88322 0.51179 0.0
O667 O 0.76119 0.95199 0.50381 0.0
C668 C 0.792 0.95716 0.5466 0.0
O669 O 0.78468 0.93754 0.54502 0.0
C670 C 0.80314 0.95883 0.52858 0.0
C671 C 0.82258 0.96035 0.49171 0.0
C672 C 0.80715 0.9815 0.51827 0.0
C673 C 0.81738 0.98239 0.5004 0.0
C674 C 0.81079 0.93788 0.52356 0.0
C675 C 0.82108 0.93911 0.50603 0.0
C676 C 0.75157 0.91137 0.56594 0.0
O677 O 0.78513 0.97705 0.55065 0.0
H678 H 0.66798 0.8847 0.56314 0.0
H679 H 0.69764 0.86137 0.51105 0.0
H680 H 0.70219 0.9286 0.55301 0.0
H681 H 0.8302 0.96057 0.47747 0.0
H682 H 0.80274 0.99839 0.52469 0.0
H683 H 0.80925 0.92131 0.53432 0.0
Eu684 Eu 0.49849 0.96283 0.69954 0.0
C685 C 0.50909 0.96317 0.75664 0.0
O686 O 0.50253 0.99482 0.6738 0.0
C687 C 0.55873 0.90596 0.71512 0.0
C688 C 0.57941 0.89345 0.68307 0.0
C689 C 0.56688 0.88557 0.72086 0.0
C690 C 0.57779 0.88008 0.70535 0.0
C691 C 0.5626 0.92187 0.69557 0.0
C692 C 0.57319 0.91587 0.68009 0.0
Eu693 Eu 0.52257 0.9149 0.73876 0.0
O694 O 0.5074 0.93387 0.67409 0.0
O695 O 0.51641 0.88353 0.76244 0.0
O696 O 0.5146 0.94318 0.76515 0.0
O697 O 0.5093 0.90608 0.70586 0.0
C698 C 0.50401 0.87769 0.76243 0.0
O699 O 0.4956 0.89214 0.75105 0.0
O700 O 0.54045 0.93206 0.72547 0.0
C701 C 0.54785 0.91339 0.73225 0.0
C702 C 0.51061 0.01189 0.68169 0.0
O703 O 0.51644 0.00903 0.70361 0.0
O704 O 0.54126 0.89609 0.74378 0.0
O705 O 0.51146 0.96976 0.73329 0.0
C706 C 0.47326 0.95867 0.70696 0.0
O707 O 0.4814 0.94001 0.70679 0.0
C708 C 0.46171 0.95771 0.72421 0.0
C709 C 0.44127 0.9538 0.75843 0.0
C710 C 0.45487 0.97909 0.73218 0.0
C711 C 0.44373 0.97691 0.74807 0.0
C712 C 0.45562 0.93491 0.72835 0.0
C713 C 0.44473 0.93328 0.74433 0.0
C714 C 0.51115 0.91212 0.68214 0.0
O715 O 0.47912 0.97965 0.70297 0.0
H716 H 0.58755 0.88913 0.67066 0.0
H717 H 0.56531 0.87526 0.73807 0.0
H718 H 0.55799 0.93955 0.69332 0.0
H719 H 0.43366 0.95166 0.77252 0.0
H720 H 0.45764 0.99673 0.72476 0.0
H721 H 0.45863 0.91899 0.71763 0.0
Eu722 Eu 0.76506 0.29438 0.69675 0.0
C723 C 0.75139 0.28846 0.75516 0.0
O724 O 0.75896 0.26038 0.67486 0.0
C725 C 0.70257 0.35552 0.71275 0.0
C726 C 0.67909 0.36399 0.6868 0.0
C727 C 0.69407 0.37472 0.72033 0.0
C728 C 0.68201 0.37831 0.70788 0.0
C729 C 0.69837 0.33925 0.69359 0.0
C730 C 0.68653 0.34349 0.68084 0.0
Eu731 Eu 0.73911 0.34193 0.73717 0.0
O732 O 0.75408 0.32199 0.67352 0.0
O733 O 0.74553 0.35974 0.77386 0.0
O734 O 0.74177 0.30474 0.75541 0.0
O735 O 0.7536 0.34843 0.70623 0.0
C736 C 0.75019 0.38164 0.77946 0.0
O737 O 0.75414 0.3852 0.80281 0.0
O738 O 0.71998 0.32842 0.72605 0.0
C739 C 0.71437 0.34997 0.72826 0.0
C740 C 0.75242 0.24236 0.68553 0.0
O741 O 0.74895 0.24448 0.70934 0.0
O742 O 0.72256 0.36746 0.73456 0.0
O743 O 0.76018 0.28528 0.73712 0.0
C744 C 0.79043 0.29981 0.69592 0.0
O745 O 0.78232 0.31707 0.70332 0.0
C746 C 0.80172 0.29446 0.71295 0.0
C747 C 0.82003 0.28521 0.75052 0.0
C748 C 0.80642 0.27035 0.71674 0.0
C749 C 0.8162 0.26597 0.73495 0.0
C750 C 0.80898 0.31393 0.72359 0.0
C751 C 0.81909 0.30902 0.74109 0.0
C752 C 0.75066 0.34331 0.68275 0.0
O753 O 0.78436 0.28113 0.68567 0.0
H754 H 0.66984 0.36678 0.67706 0.0
H755 H 0.69638 0.38557 0.73688 0.0
H756 H 0.70391 0.32289 0.68936 0.0
H757 H 0.8268 0.28125 0.76576 0.0
H758 H 0.80298 0.25544 0.70504 0.0
H759 H 0.80725 0.33236 0.71704 0.0
Eu760 Eu 0.48972 0.66375 0.48337 0.0
C761 C 0.50226 0.65901 0.42686 0.0
O762 O 0.49948 0.64972 0.51893 0.0
C763 C 0.55214 0.70589 0.46277 0.0
C764 C 0.57663 0.71211 0.48546 0.0
C765 C 0.55676 0.72978 0.46861 0.0
C766 C 0.56905 0.73277 0.48055 0.0
C767 C 0.55988 0.6855 0.46924 0.0
C768 C 0.57207 0.68859 0.48087 0.0
Eu769 Eu 0.51472 0.70903 0.44718 0.0
O770 O 0.49206 0.70034 0.50314 0.0
O771 O 0.51043 0.74318 0.42437 0.0
O772 O 0.50344 0.68259 0.42293 0.0
O773 O 0.50864 0.72399 0.48445 0.0
C774 C 0.50069 0.75777 0.43057 0.0
O775 O 0.49303 0.75165 0.44945 0.0
O776 O 0.5312 0.68627 0.45884 0.0
C777 C 0.53983 0.70111 0.44856 0.0
C778 C 0.50272 0.62753 0.52634 0.0
O779 O 0.50868 0.62529 0.54822 0.0
O780 O 0.53448 0.71913 0.43582 0.0
O781 O 0.5007 0.6491 0.44936 0.0
C782 C 0.46461 0.65491 0.4814 0.0
O783 O 0.47003 0.67601 0.47577 0.0
C784 C 0.45298 0.6474 0.46607 0.0
C785 C 0.43035 0.6356 0.43876 0.0
C786 C 0.44481 0.62779 0.47403 0.0
C787 C 0.43306 0.6226 0.46086 0.0
C788 C 0.44839 0.66288 0.44654 0.0
C789 C 0.43686 0.6573 0.43354 0.0
C790 C 0.49983 0.71958 0.50191 0.0
O791 O 0.47318 0.63843 0.48893 0.0
H792 H 0.58646 0.71448 0.49287 0.0
H793 H 0.55092 0.74568 0.46401 0.0
H794 H 0.55649 0.66722 0.46489 0.0
H795 H 0.42142 0.63165 0.42843 0.0
H796 H 0.44707 0.61797 0.49127 0.0
H797 H 0.45322 0.68003 0.44251 0.0
Eu798 Eu 0.273 0.08986 0.4889 0.0
C799 C 0.26022 0.09022 0.43287 0.0
O800 O 0.26723 0.12169 0.51262 0.0
C801 C 0.21075 0.0453 0.47886 0.0
C802 C 0.18651 0.03988 0.50259 0.0
C803 C 0.20414 0.02248 0.47793 0.0
C804 C 0.19173 0.0201 0.48945 0.0
C805 C 0.20424 0.06573 0.48935 0.0
C806 C 0.19194 0.06316 0.50082 0.0
Eu807 Eu 0.24753 0.04025 0.45317 0.0
O808 O 0.26607 0.06115 0.51579 0.0
O809 O 0.25008 1.0014 0.43949 0.0
O810 O 0.25595 0.06833 0.42619 0.0
O811 O 0.26267 0.03495 0.48356 0.0
C812 C 0.25897 0.99623 0.42228 0.0
O813 O 0.26592 0.0141 0.41265 0.0
O814 O 0.23362 0.05715 0.47944 0.0
C815 C 0.22347 0.04986 0.46606 0.0
C816 C 0.25479 0.12694 0.51491 0.0
O817 O 0.2461 0.11181 0.50546 0.0
O818 O 0.22661 0.03709 0.44587 0.0
O819 O 0.25916 0.0977 0.45643 0.0
C820 C 0.29817 0.0917 0.48178 0.0
O821 O 0.29078 0.07357 0.47359 0.0
C822 C 0.31002 0.09873 0.46717 0.0
C823 C 0.33439 0.10773 0.44481 0.0
C824 C 0.31671 0.12113 0.47177 0.0
C825 C 0.32896 0.12576 0.46028 0.0
C826 C 0.31605 0.08088 0.45191 0.0
C827 C 0.32832 0.08523 0.44135 0.0
C828 C 0.26101 0.0407 0.50742 0.0
O829 O 0.2916 0.10867 0.49393 0.0
H830 H 0.17695 0.0376 0.51118 0.0
H831 H 0.20829 0.00727 0.46758 0.0
H832 H 0.20854 0.08374 0.48775 0.0
H833 H 0.34408 0.11035 0.43685 0.0
H834 H 0.31264 0.13448 0.48469 0.0
H835 H 0.31166 0.06302 0.44958 0.0
Eu836 Eu 0.48863 0.09356 0.26146 0.0
C837 C 0.50076 0.08808 0.31766 0.0
O838 O 0.498 0.10821 0.22596 0.0
C839 C 0.55217 0.0414 0.2783 0.0
C840 C 0.57226 0.04404 0.24261 0.0
C841 C 0.55714 0.01981 0.26689 0.0
C842 C 0.56768 0.02099 0.24964 0.0
C843 C 0.559 0.06346 0.2746 0.0
C844 C 0.56944 0.06439 0.25755 0.0
Eu845 Eu 0.51563 0.04152 0.29448 0.0
O846 O 0.48916 0.056 0.24397 0.0
O847 O 0.50753 0.00398 0.30378 0.0
O848 O 0.50552 0.06619 0.3231 0.0
O849 O 0.51037 0.05131 0.25467 0.0
C850 C 0.50117 0.99934 0.32491 0.0
O851 O 0.49847 0.01747 0.34032 0.0
O852 O 0.53416 0.06073 0.2992 0.0
C853 C 0.54109 0.04066 0.29652 0.0
C854 C 0.50221 0.13035 0.22061 0.0
O855 O 0.50781 0.13377 0.19856 0.0
O856 O 0.53384 0.02092 0.29657 0.0
O857 O 0.50252 0.09717 0.29483 0.0
C858 C 0.46422 0.106 0.26637 0.0
O859 O 0.46849 0.08335 0.2666 0.0
C860 C 0.45208 0.11141 0.28073 0.0
C861 C 0.42725 0.11847 0.30208 0.0
C862 C 0.44455 0.13225 0.27442 0.0
C863 C 0.4321 0.13581 0.28526 0.0
C864 C 0.4467 0.09376 0.29721 0.0
C865 C 0.4342 0.09721 0.30744 0.0
C866 C 0.49979 0.04255 0.24414 0.0
O867 O 0.47357 0.12239 0.26397 0.0
H868 H 0.58053 0.04547 0.22983 0.0
H869 H 0.55325 0.00217 0.2722 0.0
H870 H 0.55685 0.07926 0.28625 0.0
H871 H 0.41748 0.12064 0.30968 0.0
H872 H 0.44812 0.14511 0.26048 0.0
H873 H 0.45185 0.07687 0.30105 0.0
Eu874 Eu 0.27054 0.66064 0.25959 0.0
C875 C 0.25636 0.6589 0.31189 0.0
O876 O 0.26595 0.64605 0.22047 0.0
C877 C 0.20682 0.70665 0.28141 0.0
C878 C 0.18573 0.70432 0.24785 0.0
C879 C 0.19986 0.72806 0.27492 0.0
C880 C 0.1889 0.72663 0.25902 0.0
C881 C 0.20184 0.6838 0.27358 0.0
C882 C 0.19107 0.68268 0.25712 0.0
Eu883 Eu 0.24354 0.70904 0.29576 0.0
O884 O 0.26983 0.69915 0.24437 0.0
O885 O 0.25137 0.74123 0.31828 0.0
O886 O 0.25313 0.68071 0.32025 0.0
O887 O 0.2484 0.70434 0.25437 0.0
C888 C 0.25849 0.75873 0.3083 0.0
O889 O 0.26194 0.757 0.28444 0.0
O890 O 0.22551 0.68858 0.30142 0.0
C891 C 0.21819 0.70819 0.29879 0.0
C892 C 0.26173 0.62457 0.21247 0.0
O893 O 0.25843 0.62274 0.18854 0.0
O894 O 0.22504 0.72845 0.29788 0.0
O895 O 0.25461 0.65341 0.28792 0.0
C896 C 0.29397 0.65206 0.27552 0.0
O897 O 0.28792 0.67298 0.27924 0.0
C898 C 0.30739 0.64788 0.28514 0.0
C899 C 0.33325 0.64212 0.30161 0.0
C900 C 0.31489 0.62764 0.27693 0.0
C901 C 0.32789 0.62492 0.28524 0.0
C902 C 0.31317 0.6654 0.30123 0.0
C903 C 0.32614 0.66258 0.3091 0.0
C904 C 0.25914 0.71259 0.24389 0.0
O905 O 0.2871 0.63533 0.26356 0.0
H906 H 0.17719 0.70344 0.23565 0.0
H907 H 0.20239 0.74539 0.28352 0.0
H908 H 0.20584 0.66701 0.2812 0.0
H909 H 0.34339 0.64023 0.30755 0.0
H910 H 0.31085 0.61465 0.26359 0.0
H911 H 0.30778 0.68149 0.30708 0.0
Eu912 Eu 0.49731 0.79289 0.05011 0.0
C913 C 0.5098 0.78282 0.99154 0.0
O914 O 0.50176 0.75997 0.07479 0.0
C915 C 0.55852 0.84751 0.03379 0.0
C916 C 0.57855 0.8654 0.06432 0.0
C917 C 0.56593 0.86822 0.02587 0.0
C918 C 0.57669 0.87634 0.04063 0.0
C919 C 0.56336 0.83346 0.05406 0.0
C920 C 0.57379 0.84197 0.06856 0.0
Eu921 Eu 0.52235 0.8341 0.01187 0.0
O922 O 0.5081 0.82123 0.07389 0.0
O923 O 0.516 0.8635 0.9855 0.0
O924 O 0.51658 0.80279 0.98726 0.0
O925 O 0.5099 0.8501 0.04275 0.0
C926 C 0.50369 0.87012 0.98582 0.0
O927 O 0.49518 0.85619 0.99754 0.0
O928 O 0.54019 0.82038 0.02897 0.0
C929 C 0.5476 0.83727 0.01842 0.0
C930 C 0.5103 0.74349 0.06711 0.0
O931 O 0.51682 0.74759 0.04616 0.0
O932 O 0.54102 0.85194 0.00341 0.0
O933 O 0.5034 0.77751 0.01246 0.0
C934 C 0.47203 0.80042 0.04811 0.0
O935 O 0.48086 0.81718 0.04297 0.0
C936 C 0.46042 0.79941 0.03094 0.0
C937 C 0.44106 0.80119 0.99426 0.0
C938 C 0.45393 0.77743 0.02349 0.0
C939 C 0.44326 0.77866 0.00617 0.0
C940 C 0.45439 0.8218 0.02476 0.0
C941 C 0.44404 0.82244 0.00752 0.0
C942 C 0.51018 0.84397 0.06666 0.0
O943 O 0.47723 0.78003 0.05645 0.0
H944 H 0.58619 0.87208 0.07678 0.0
H945 H 0.5639 0.8767 0.0078 0.0
H946 H 0.55972 0.81519 0.05744 0.0
H947 H 0.43384 0.80253 0.97929 0.0
H948 H 0.45665 0.76018 0.03196 0.0
H949 H 0.45714 0.83838 0.03462 0.0
Eu950 Eu 0.76652 0.4584 0.04979 0.0
C951 C 0.74996 0.46462 0.00061 0.0
O952 O 0.76203 0.4973 0.06228 0.0
C953 C 0.70248 0.39488 0.03144 0.0
C954 C 0.67962 0.3898 0.05985 0.0
C955 C 0.69417 0.37448 0.02768 0.0
C956 C 0.68223 0.37266 0.04095 0.0
C957 C 0.69793 0.41448 0.04664 0.0
C958 C 0.68616 0.41211 0.06016 0.0
Eu959 Eu 0.73852 0.41152 0.00919 0.0
O960 O 0.75537 0.43211 0.07478 0.0
O961 O 0.7478 0.39935 0.97246 0.0
O962 O 0.73907 0.45183 -0.00037 0.0
O963 O 0.7533 0.40753 0.04084 0.0
C964 C 0.75186 0.37784 0.9643 0.0
O965 O 0.75723 0.37697 0.94175 0.0
O966 O 0.71782 0.4198 0.0091 0.0
C967 C 0.71428 0.39755 0.01518 0.0
C968 C 0.75033 0.5069 0.0658 0.0
O969 O 0.73988 0.49368 0.06118 0.0
O970 O 0.72427 0.38253 0.01792 0.0
O971 O 0.76057 0.45418 0.0092 0.0
C972 C 0.79178 0.45232 0.05114 0.0
O973 O 0.78358 0.4349 0.04497 0.0
C974 C 0.80329 0.45592 0.03439 0.0
C975 C 0.82595 0.46132 0.00521 0.0
C976 C 0.80893 0.47927 0.03092 0.0
C977 C 0.82028 0.48183 0.01624 0.0
C978 C 0.80947 0.43532 0.02367 0.0
C979 C 0.82094 0.43788 0.00926 0.0
C980 C 0.7509 0.41163 0.06487 0.0
O981 O 0.78588 0.47185 0.05984 0.0
H982 H 0.67073 0.38803 0.07097 0.0
H983 H 0.6965 0.36122 0.01314 0.0
H984 H 0.70301 0.43181 0.04677 0.0
H985 H 0.8352 0.46368 0.99548 0.0
H986 H 0.80486 0.49518 0.04024 0.0
H987 H 0.80563 0.41724 0.02729 0.0
Eu988 Eu 0.4949 0.45761 0.2019 0.0
C989 C 0.50956 0.46198 0.25201 0.0
O990 O 0.50237 0.49588 0.19348 0.0
C991 C 0.55946 0.39693 0.2163 0.0
C992 C 0.58261 0.38421 0.1911 0.0
C993 C 0.56679 0.37638 0.22414 0.0
C994 C 0.57865 0.37055 0.21207 0.0
C995 C 0.56458 0.4121 0.197 0.0
C996 C 0.57626 0.40583 0.1847 0.0
Eu997 Eu 0.52311 0.41449 0.23201 0.0
O998 O 0.50519 0.43359 0.17325 0.0
O999 O 0.51255 0.40223 0.26732 0.0
O1000 O 0.52092 0.45339 0.24473 0.0
O1001 O 0.51295 0.40043 0.19712 0.0
C1002 C 0.5087 0.38025 0.27429 0.0
O1003 O 0.50225 0.37826 0.29566 0.0
O1004 O 0.54299 0.42642 0.22615 0.0
C1005 C 0.54807 0.40503 0.23165 0.0
C1006 C 0.50919 0.50114 0.17303 0.0
O1007 O 0.51276 0.48329 0.15794 0.0
O1008 O 0.53929 0.38884 0.23878 0.0
O1009 O 0.49885 0.45234 0.24308 0.0
C1010 C 0.46963 0.45705 0.1959 0.0
O1011 O 0.47674 0.43722 0.19883 0.0
C1012 C 0.45739 0.4588 0.21089 0.0
C1013 C 0.43334 0.4607 0.23584 0.0
C1014 C 0.45182 0.48169 0.21769 0.0
C1015 C 0.4398 0.48254 0.23072 0.0
C1016 C 0.45077 0.43709 0.2174 0.0
C1017 C 0.43888 0.43811 0.23036 0.0
C1018 C 0.50926 0.41077 0.17572 0.0
O1019 O 0.47673 0.47683 0.19337 0.0
H1020 H 0.5919 0.37998 0.18209 0.0
H1021 H 0.56387 0.36628 0.24083 0.0
H1022 H 0.55995 0.42935 0.19246 0.0
H1023 H 0.42361 0.46125 0.24407 0.0
H1024 H 0.45674 0.49857 0.21296 0.0
H1025 H 0.45477 0.41944 0.21226 0.0
Eu1026 Eu 0.76583 0.79727 0.1964 0.0
C1027 C 0.75138 0.78602 0.25244 0.0
O1028 O 0.76272 0.76125 0.17548 0.0
C1029 C 0.70384 0.85528 0.21925 0.0
C1030 C 0.67836 0.86132 0.20006 0.0
C1031 C 0.69585 0.87496 0.22753 0.0
C1032 C 0.68307 0.8779 0.21781 0.0
C1033 C 0.69863 0.83848 0.20154 0.0
C1034 C 0.68585 0.8414 0.19233 0.0
Eu1035 Eu 0.74151 0.84273 0.23763 0.0
O1036 O 0.75487 0.82627 0.17391 0.0
O1037 O 0.7494 0.85467 0.27575 0.0
O1038 O 0.74449 0.80609 0.25624 0.0
O1039 O 0.75443 0.8549 0.20553 0.0
C1040 C 0.75465 0.87524 0.28385 0.0
O1041 O 0.75954 0.8755 0.30681 0.0
O1042 O 0.7225 0.82916 0.2268 0.0
C1043 C 0.71645 0.84975 0.23236 0.0
C1044 C 0.75152 0.74923 0.1762 0.0
O1045 O 0.74149 0.75921 0.18781 0.0
O1046 O 0.72434 0.86717 0.24043 0.0
O1047 O 0.75892 0.7812 0.23286 0.0
C1048 C 0.79087 0.80559 0.20124 0.0
O1049 O 0.78177 0.81878 0.2124 0.0
C1050 C 0.80245 0.79885 0.21695 0.0
C1051 C 0.8222 0.78906 0.2518 0.0
C1052 C 0.80669 0.77439 0.2209 0.0
C1053 C 0.81706 0.76967 0.23797 0.0
C1054 C 0.81041 0.81792 0.22619 0.0
C1055 C 0.82104 0.81275 0.24224 0.0
C1056 C 0.75227 0.84863 0.18192 0.0
O1057 O 0.78605 0.78935 0.18549 0.0
H1058 H 0.66841 0.86323 0.19309 0.0
H1059 H 0.69932 0.88729 0.24208 0.0
H1060 H 0.70419 0.82258 0.19578 0.0
H1061 H 0.82964 0.78513 0.26587 0.0
H1062 H 0.80231 0.75949 0.21043 0.0
H1063 H 0.80875 0.83638 0.21961 0.0
Eu1064 Eu 0.48739 0.16341 0.98797 0.0
C1065 C 0.49928 0.16192 0.93087 0.0
O1066 O 0.49362 0.12981 0.00824 0.0
C1067 C 0.54997 0.2062 0.97533 0.0
C1068 C 0.5753 0.21265 0.99419 0.0
C1069 C 0.55605 0.22948 0.97398 0.0
C1070 C 0.56889 0.23246 0.98335 0.0
C1071 C 0.55704 0.18624 0.98531 0.0
C1072 C 0.56976 0.18943 0.99473 0.0
Eu1073 Eu 0.51311 0.21126 0.95075 0.0
O1074 O 0.49493 0.19208 0.01432 0.0
O1075 O 0.51058 0.25008 0.93802 0.0
O1076 O 0.50426 0.18329 0.92438 0.0
O1077 O 0.49754 0.21514 0.98009 0.0
C1078 C 0.5008 0.25528 0.92283 0.0
O1079 O 0.49313 0.23762 0.91492 0.0
O1080 O 0.52688 0.19657 0.97871 0.0
C1081 C 0.537 0.20091 0.96396 0.0
C1082 C 0.50614 0.12474 0.0086 0.0
O1083 O 0.51444 0.14063 -0.00078 0.0
O1084 O 0.53393 0.21108 0.94221 0.0
O1085 O 0.5001 0.1538 0.95423 0.0
C1086 C 0.46223 0.16387 0.98075 0.0
O1087 O 0.47032 0.17939 0.96984 0.0
C1088 C 0.45091 0.15469 0.96583 0.0
C1089 C 0.42772 0.14165 0.94081 0.0
C1090 C 0.44366 0.13393 0.97368 0.0
C1091 C 0.43191 0.12766 0.96128 0.0
C1092 C 0.44578 0.16955 0.94646 0.0
C1093 C 0.43413 0.1632 0.93433 0.0
C1094 C 0.49986 0.21167 0.00408 0.0
O1095 O 0.46806 0.14887 0.99657 0.0
H1096 H 0.58532 0.21516 0.00054 0.0
H1097 H 0.55107 0.24468 0.96511 0.0
H1098 H 0.5528 0.16812 0.98506 0.0
H1099 H 0.41834 0.13757 0.9321 0.0
H1100 H 0.44663 0.12373 0.99027 0.0
H1101 H 0.45031 0.18689 0.94199 0.0
Eu1102 Eu 0.27148 0.59261 0.98576 0.0
C1103 C 0.25949 0.5916 0.92874 0.0
O1104 O 0.26234 0.60582 0.02249 0.0
C1105 C 0.20741 0.5471 0.96471 0.0
C1106 C 0.187 0.54571 -0.0003 0.0
C1107 C 0.20046 0.52511 0.96884 0.0
C1108 C 0.18981 0.52479 0.98562 0.0
C1109 C 0.20249 0.56896 0.97538 0.0
C1110 C 0.19185 0.56839 0.99223 0.0
Eu1111 Eu 0.24417 0.54512 0.95162 0.0
O1112 O 0.27002 0.55396 0.00073 0.0
O1113 O 0.25105 0.50632 0.9426 0.0
O1114 O 0.25533 0.56911 0.92425 0.0
O1115 O 0.2484 0.55295 0.99233 0.0
C1116 C 0.25918 0.50092 0.92399 0.0
O1117 O 0.26449 0.5188 0.91104 0.0
O1118 O 0.22642 0.56702 0.94834 0.0
C1119 C 0.21882 0.54773 0.94727 0.0
C1120 C 0.25964 0.62758 0.03212 0.0
O1121 O 0.25434 0.62819 0.05472 0.0
O1122 O 0.22544 0.52736 0.94457 0.0
O1123 O 0.25883 0.60147 0.95154 0.0
C1124 C 0.2962 0.60326 0.98202 0.0
O1125 O 0.29138 0.58118 0.97928 0.0
C1126 C 0.30803 0.60952 0.96702 0.0
C1127 C 0.3325 0.61756 0.9445 0.0
C1128 C 0.31578 0.62975 0.97431 0.0
C1129 C 0.32811 0.63358 0.96314 0.0
C1130 C 0.31307 0.59284 0.94904 0.0
C1131 C 0.32538 0.59676 0.93816 0.0
C1132 C 0.25867 0.54297 0.00274 0.0
O1133 O 0.28726 0.61996 0.98698 0.0
H1134 H 0.17892 0.54483 0.01293 0.0
H1135 H 0.20284 0.50883 0.95814 0.0
H1136 H 0.20649 0.58642 0.96973 0.0
H1137 H 0.3422 0.61997 0.93662 0.0
H1138 H 0.31263 0.64148 0.98966 0.0
H1139 H 0.30786 0.57616 0.94459 0.0
Eu1140 Eu 0.4872 0.58516 0.75782 0.0
C1141 C 0.49879 0.58983 0.81292 0.0
O1142 O 0.49401 0.61574 0.73333 0.0
C1143 C 0.55106 0.54526 0.7815 0.0
C1144 C 0.5741 0.5424 0.75268 0.0
C1145 C 0.5565 0.52218 0.77502 0.0
C1146 C 0.56819 0.52089 0.76082 0.0
C1147 C 0.55811 0.5665 0.77527 0.0
C1148 C 0.56971 0.56496 0.76131 0.0
Eu1149 Eu 0.51394 0.54267 0.79817 0.0
O1150 O 0.49221 0.55253 0.73391 0.0
O1151 O 0.50819 0.50992 0.82135 0.0
O1152 O 0.50302 0.56932 0.8226 0.0
O1153 O 0.50757 0.53188 0.75916 0.0
C1154 C 0.5008 0.49279 0.81143 0.0
O1155 O 0.49644 0.49544 0.78825 0.0
O1156 O 0.53105 0.56573 0.79233 0.0
C1157 C 0.53928 0.54797 0.79788 0.0
C1158 C 0.50625 0.62256 0.73525 0.0
O1159 O 0.51464 0.60785 0.7463 0.0
O1160 O 0.53342 0.52813 0.80597 0.0
O1161 O 0.50123 0.59397 0.78909 0.0
C1162 C 0.46222 0.59017 0.76673 0.0
O1163 O 0.46934 0.57172 0.77494 0.0
C1164 C 0.45122 0.59893 0.7829 0.0
C1165 C 0.42932 0.61178 0.81177 0.0
C1166 C 0.44379 0.6202 0.77672 0.0
C1167 C 0.43235 0.62603 0.79063 0.0
C1168 C 0.44617 0.58276 0.80118 0.0
C1169 C 0.43491 0.58875 0.8147 0.0
C1170 C 0.50056 0.5346 0.73841 0.0
O1171 O 0.46894 0.60588 0.75322 0.0
H1172 H 0.58345 0.54138 0.74291 0.0
H1173 H 0.55211 0.50551 0.78197 0.0
H1174 H 0.55501 0.58409 0.78257 0.0
H1175 H 0.42063 0.61609 0.82273 0.0
H1176 H 0.44628 0.63086 0.76016 0.0
H1177 H 0.45026 0.56462 0.80337 0.0
Eu1178 Eu 0.27161 0.15884 0.75747 0.0
C1179 C 0.25809 0.16021 0.8119 0.0
O1180 O 0.26495 0.14566 0.71903 0.0
C1181 C 0.20747 0.20977 0.7817 0.0
C1182 C 0.18542 0.20656 0.75044 0.0
C1183 C 0.2005 0.23105 0.77473 0.0
C1184 C 0.18916 0.22926 0.75989 0.0
C1185 C 0.20228 0.18674 0.77509 0.0
C1186 C 0.19109 0.18522 0.75971 0.0
Eu1187 Eu 0.24437 0.2103 0.79788 0.0
O1188 O 0.27105 0.19811 0.74441 0.0
O1189 O 0.25225 0.24288 0.81998 0.0
O1190 O 0.2535 0.18056 0.82195 0.0
O1191 O 0.25024 0.20184 0.75774 0.0
C1192 C 0.25904 0.26094 0.81005 0.0
O1193 O 0.26268 0.25952 0.78627 0.0
O1194 O 0.22565 0.19214 0.80431 0.0
C1195 C 0.21894 0.21196 0.79884 0.0
C1196 C 0.25917 0.12521 0.71199 0.0
O1197 O 0.25486 0.12389 0.68863 0.0
O1198 O 0.22637 0.23123 0.79556 0.0
O1199 O 0.25597 0.15616 0.78773 0.0
C1200 C 0.29568 0.14697 0.76731 0.0
O1201 O 0.29163 0.16952 0.76403 0.0
C1202 C 0.30773 0.143 0.78229 0.0
C1203 C 0.3325 0.13843 0.80443 0.0
C1204 C 0.316 0.12322 0.77582 0.0
C1205 C 0.32853 0.12127 0.78661 0.0
C1206 C 0.31239 0.16118 0.79901 0.0
C1207 C 0.32492 0.15904 0.80957 0.0
C1208 C 0.26051 0.21163 0.747 0.0
O1209 O 0.28629 0.13055 0.76635 0.0
H1210 H 0.17642 0.20532 0.73953 0.0
H1211 H 0.20332 0.24867 0.78228 0.0
H1212 H 0.2064 0.17017 0.78296 0.0
H1213 H 0.34234 0.13723 0.81218 0.0
H1214 H 0.31309 0.1105 0.76115 0.0
H1215 H 0.30672 0.17756 0.80247 0.0
H1216 H 0.82538 0.39527 0.03583 0.0
H1217 H 0.84479 0.36976 0.03176 0.0
H1218 H 0.85625 0.41071 0.96554 0.0
H1219 H 0.8357 0.43221 0.96652 0.0
H1220 H 0.86844 0.37559 0.96179 0.0
H1221 H 0.86339 0.42407 0.04258 0.0
H1222 H 0.85319 0.43192 0.0842 0.0
H1223 H 0.85937 0.35711 0.10535 0.0
H1224 H 0.86957 0.34889 0.06391 0.0
H1225 H 0.93681 0.36092 0.97543 0.0
H1226 H 0.91562 0.38214 0.97491 0.0
H1227 H 0.90334 0.33915 0.03928 0.0
H1228 H 0.9249 0.32151 0.04204 0.0
H1229 H 0.89176 0.37547 0.04385 0.0
H1230 H 0.89779 0.32782 0.96287 0.0
H1231 H 0.90825 0.32103 0.92129 0.0
H1232 H 0.90069 0.39556 0.90077 0.0
H1233 H 0.89021 0.40272 0.94215 0.0
C1234 C 0.83166 0.39782 0.01957 0.0
C1235 C 0.82934 0.41676 0.0022 0.0
C1236 C 0.84307 0.38377 0.01776 0.0
C1237 C 0.85269 0.38968 -0.00027 0.0
C1238 C 0.84935 0.40603 0.98029 0.0
C1239 C 0.83756 0.41868 0.98101 0.0
C1240 C 0.86652 0.38114 0.00205 0.0
C1241 C 0.8735 0.3757 0.97983 0.0
C1242 C 0.87333 0.38072 0.02545 0.0
C1243 C 0.86707 0.38584 0.05013 0.0
C1244 C 0.86251 0.40933 0.05612 0.0
C1245 C 0.85675 0.41383 0.07966 0.0
C1246 C 0.8556 0.39501 0.09737 0.0
C1247 C 0.86024 0.37166 0.09162 0.0
C1248 C 0.86602 0.36708 0.06814 0.0
C1249 C 0.92976 0.35731 0.99023 0.0
C1250 C 0.93249 0.34006 0.00906 0.0
C1251 C 0.91747 0.36871 0.98946 0.0
C1252 C 0.90751 0.36156 0.00634 0.0
C1253 C 0.91068 0.34533 0.02599 0.0
C1254 C 0.92311 0.33529 0.02773 0.0
C1255 C 0.89365 0.36973 0.00365 0.0
C1256 C 0.88668 0.37524 0.02582 0.0
C1257 C 0.88691 0.37031 0.98022 0.0
C1258 C 0.89335 0.36582 0.95561 0.0
C1259 C 0.89842 0.34273 0.94949 0.0
C1260 C 0.90433 0.33883 0.92596 0.0
C1261 C 0.90516 0.35786 0.90843 0.0
C1262 C 0.90006 0.38083 0.91435 0.0
C1263 C 0.89412 0.38481 0.93779 0.0
H1264 H 0.90974 0.3548 0.89025 0.0
H1265 H 0.85113 0.39853 0.11556 0.0
H1266 H 0.32159 0.89082 0.01323 0.0
H1267 H 0.34158 0.86577 0.01232 0.0
H1268 H 0.36394 0.92892 0.9902 0.0
H1269 H 0.34506 0.95337 0.99136 0.0
H1270 H 0.37193 0.89297 0.96435 0.0
H1271 H 0.36001 0.90541 0.05536 0.0
H1272 H 0.34627 0.89745 0.09287 0.0
H1273 H 0.35093 0.82023 0.08202 0.0
H1274 H 0.36461 0.82777 0.0444 0.0
H1275 H 0.43873 0.86871 0.98863 0.0
H1276 H 0.4172 0.88867 0.98929 0.0
H1277 H 0.40186 0.82773 0.03213 0.0
H1278 H 0.42361 0.81162 0.03632 0.0
H1279 H 0.38827 0.85758 0.04437 0.0
H1280 H 0.40107 0.84425 0.95329 0.0
H1281 H 0.4142 0.85251 0.91497 0.0
H1282 H 0.40751 0.92945 0.92383 0.0
H1283 H 0.39437 0.92162 0.96208 0.0
C1284 C 0.33072 0.8993 0.00784 0.0
C1285 C 0.33126 0.92439 0.00187 0.0
C1286 C 0.34217 0.88491 0.00737 0.0
C1287 C 0.35429 0.89547 0.00111 0.0
C1288 C 0.35473 0.92011 0.99465 0.0
C1289 C 0.34356 0.93423 0.9951 0.0
C1290 C 0.36696 0.88228 0.00229 0.0
C1291 C 0.37552 0.88475 0.98171 0.0
C1292 C 0.37161 0.87142 0.02472 0.0
C1293 C 0.36315 0.86715 0.04695 0.0
C1294 C 0.358 0.88676 0.06089 0.0
C1295 C 0.35025 0.88231 0.08219 0.0
C1296 C 0.34769 0.85835 0.08977 0.0
C1297 C 0.35288 0.83877 0.0761 0.0
C1298 C 0.36062 0.84312 0.0548 0.0
C1299 C 0.43079 0.8605 -0.00085 0.0
C1300 C 0.43271 0.83856 0.01217 0.0
C1301 C 0.41831 0.87133 -0.00126 0.0
C1302 C 0.40743 0.8592 0.00945 0.0
C1303 C 0.40978 0.83794 0.02362 0.0
C1304 C 0.42231 0.82849 0.02591 0.0
C1305 C 0.3936 0.8678 0.00614 0.0
C1306 C 0.3848 0.86469 0.02646 0.0
C1307 C 0.3887 0.87787 0.98325 0.0
C1308 C 0.39687 0.88234 0.96061 0.0
C1309 C 0.40247 0.86289 0.94709 0.0
C1310 C 0.40989 0.86752 0.92538 0.0
C1311 C 0.41172 0.89148 0.91702 0.0
C1312 C 0.40611 0.9109 0.93032 0.0
C1313 C 0.39867 0.90638 0.95197 0.0
H1314 H 0.41744 0.895 0.90021 0.0
H1315 H 0.34171 0.85495 0.10628 0.0
H1316 H 0.82256 0.86375 0.24135 0.0
H1317 H 0.84273 0.8885 0.24104 0.0
H1318 H 0.86591 0.82301 0.2455 0.0
H1319 H 0.84666 0.79853 0.2443 0.0
H1320 H 0.87198 0.8627 0.28237 0.0
H1321 H 0.86227 0.84348 0.19234 0.0
H1322 H 0.84882 0.84815 0.1539 0.0
H1323 H 0.85326 0.926 0.15777 0.0
H1324 H 0.86657 0.92176 0.19649 0.0
H1325 H 0.93859 0.8889 0.26659 0.0
H1326 H 0.91757 0.86752 0.26362 0.0
H1327 H 0.90385 0.9229 0.2115 0.0
H1328 H 0.9255 0.93981 0.20993 0.0
H1329 H 0.89036 0.89257 0.20158 0.0
H1330 H 0.90001 0.91579 0.2903 0.0
H1331 H 0.91189 0.91381 0.33096 0.0
H1332 H 0.90604 0.83625 0.33378 0.0
H1333 H 0.8942 0.8378 0.29318 0.0
C1334 C 0.83195 0.85466 0.24249 0.0
C1335 C 0.83274 0.829 0.24394 0.0
C1336 C 0.84342 0.86882 0.24239 0.0
C1337 C 0.8557 0.8574 0.24395 0.0
C1338 C 0.85649 0.83208 0.24517 0.0
C1339 C 0.84527 0.8181 0.24478 0.0
C1340 C 0.86814 0.87083 0.24337 0.0
C1341 C 0.87604 0.86994 0.26495 0.0
C1342 C 0.87328 0.88001 0.22064 0.0
C1343 C 0.86523 0.88233 0.19749 0.0
C1344 C 0.86024 0.86159 0.18517 0.0
C1345 C 0.85268 0.86416 0.16329 0.0
C1346 C 0.85014 0.88736 0.15345 0.0
C1347 C 0.85519 0.90804 0.16545 0.0
C1348 C 0.86273 0.90557 0.18735 0.0
C1349 C 0.93122 0.89538 0.25348 0.0
C1350 C 0.93354 0.91608 0.23868 0.0
C1351 C 0.91897 0.88385 0.25253 0.0
C1352 C 0.90853 0.89435 0.23872 0.0
C1353 C 0.91139 0.914 0.22255 0.0
C1354 C 0.92387 0.92391 0.2217 0.0
C1355 C 0.89463 0.88586 0.2412 0.0
C1356 C 0.88645 0.88693 0.21968 0.0
C1357 C 0.88909 0.87772 0.26441 0.0
C1358 C 0.89637 0.8769 0.28861 0.0
C1359 C 0.90133 0.89834 0.29957 0.0
C1360 C 0.90804 0.89728 0.32261 0.0
C1361 C 0.90976 0.87492 0.3349 0.0
C1362 C 0.90473 0.85356 0.32423 0.0
C1363 C 0.89802 0.85451 0.30124 0.0
H1364 H 0.91496 0.87415 0.35272 0.0
H1365 H 0.8443 0.88931 0.13649 0.0
H1366 H 0.3244 0.35745 0.26027 0.0
H1367 H 0.3453 0.3796 0.26511 0.0
H1368 H 0.36229 0.33541 0.20605 0.0
H1369 H 0.34149 0.31442 0.20033 0.0
H1370 H 0.37359 0.33769 0.2639 0.0
H1371 H 0.3601 0.3793 0.18511 0.0
H1372 H 0.34442 0.4049 0.16168 0.0
H1373 H 0.34953 0.4626 0.2158 0.0
H1374 H 0.36495 0.43693 0.24004 0.0
H1375 H 0.43112 0.40101 0.19936 0.0
H1376 H 0.41121 0.37697 0.20608 0.0
H1377 H 0.40811 0.4058 0.28173 0.0
H1378 H 0.42851 0.42773 0.27603 0.0
H1379 H 0.38898 0.4137 0.22263 0.0
H1380 H 0.40152 0.37147 0.30307 0.0
H1381 H 0.41658 0.34524 0.32727 0.0
H1382 H 0.41256 0.28872 0.27147 0.0
H1383 H 0.39791 0.31519 0.24637 0.0
C1384 C 0.33245 0.35346 0.24761 0.0
C1385 C 0.33145 0.33465 0.22973 0.0
C1386 C 0.34435 0.36574 0.25061 0.0
C1387 C 0.3552 0.35879 0.23604 0.0
C1388 C 0.35394 0.34091 0.21735 0.0
C1389 C 0.34207 0.32923 0.2139 0.0
C1390 C 0.36823 0.36867 0.24099 0.0
C1391 C 0.37697 0.35448 0.25519 0.0
C1392 C 0.37245 0.39046 0.22956 0.0
C1393 C 0.36345 0.40602 0.21467 0.0
C1394 C 0.35772 0.39728 0.19226 0.0
C1395 C 0.3489 0.41182 0.17879 0.0
C1396 C 0.34591 0.43532 0.18733 0.0
C1397 C 0.3518 0.44434 0.20929 0.0
C1398 C 0.36055 0.42978 0.22293 0.0
C1399 C 0.42671 0.4007 0.21798 0.0
C1400 C 0.43121 0.41632 0.23711 0.0
C1401 C 0.41528 0.38723 0.22173 0.0
C1402 C 0.40831 0.38949 0.24449 0.0
C1403 C 0.41358 0.40304 0.26443 0.0
C1404 C 0.4252 0.41572 0.26103 0.0
C1405 C 0.39446 0.38252 0.24522 0.0
C1406 C 0.38556 0.39724 0.23192 0.0
C1407 C 0.39007 0.36134 0.25768 0.0
C1408 C 0.39901 0.34561 0.27245 0.0
C1409 C 0.40416 0.35376 0.29559 0.0
C1410 C 0.41256 0.33879 0.30955 0.0
C1411 C 0.41563 0.31541 0.3008 0.0
C1412 C 0.41028 0.30694 0.2781 0.0
C1413 C 0.40198 0.32196 0.26394 0.0
H1414 H 0.42208 0.30379 0.3117 0.0
H1415 H 0.33909 0.44656 0.17687 0.0
H1416 H 0.17818 0.5815 0.03505 0.0
H1417 H 0.1565 0.60029 0.03357 0.0
H1418 H 0.16378 0.6244 0.95743 0.0
H1419 H 0.18475 0.60297 0.95742 0.0
H1420 H 0.14825 0.65233 0.01441 0.0
H1421 H 0.14948 0.59798 0.93857 0.0
H1422 H 0.15244 0.55966 0.91508 0.0
H1423 H 0.12689 0.52296 0.96692 0.0
H1424 H 0.12493 0.56052 0.99233 0.0
H1425 H 0.08669 0.68098 0.9534 0.0
H1426 H 0.1086 0.66334 0.95647 0.0
H1427 H 0.09703 0.62377 0.0232 0.0
H1428 H 0.07523 0.64298 0.02127 0.0
H1429 H 0.11423 0.60215 0.97229 0.0
H1430 H 0.11007 0.65732 0.04352 0.0
H1431 H 0.10576 0.69586 0.06592 0.0
H1432 H 0.13541 0.73151 0.02203 0.0
H1433 H 0.1392 0.69363 0.99798 0.0
C1434 C 0.17526 0.59108 0.01803 0.0
C1435 C 0.18298 0.58967 0.99596 0.0
C1436 C 0.16282 0.60157 0.01718 0.0
C1437 C 0.15824 0.61204 0.99472 0.0
C1438 C 0.16684 0.61478 0.97429 0.0
C1439 C 0.17906 0.60327 0.97468 0.0
C1440 C 0.14446 0.61987 0.99284 0.0
C1441 C 0.14081 0.64154 0.00495 0.0
C1442 C 0.13475 0.60525 0.98114 0.0
C1443 C 0.13762 0.58189 0.96812 0.0
C1444 C 0.14517 0.58146 0.94593 0.0
C1445 C 0.14659 0.55986 0.93213 0.0
C1446 C 0.14003 0.53878 0.93972 0.0
C1447 C 0.13218 0.53918 0.96133 0.0
C1448 C 0.13113 0.56049 0.97571 0.0
C1449 C 0.08864 0.66768 0.9681 0.0
C1450 C 0.07924 0.66291 0.98687 0.0
C1451 C 0.10122 0.6581 0.97014 0.0
C1452 C 0.10445 0.64302 0.99052 0.0
C1453 C 0.09471 0.63596 0.00772 0.0
C1454 C 0.08221 0.64637 0.00628 0.0
C1455 C 0.11807 0.63476 0.99351 0.0
C1456 C 0.12168 0.61296 0.98171 0.0
C1457 C 0.12773 0.64935 0.00535 0.0
C1458 C 0.12462 0.67269 0.01835 0.0
C1459 C 0.11529 0.67356 0.03787 0.0
C1460 C 0.113 0.69531 0.05099 0.0
C1461 C 0.12024 0.71618 0.04527 0.0
C1462 C 0.12975 0.71537 0.02633 0.0
C1463 C 0.13184 0.69385 0.01272 0.0
H1464 H 0.11853 0.73296 0.05559 0.0
H1465 H 0.14086 0.52231 0.92856 0.0
H1466 H 0.66905 0.06058 0.95337 0.0
H1467 H 0.64826 0.08082 0.95892 0.0
H1468 H 0.66549 0.12905 0.01433 0.0
H1469 H 0.68622 0.10612 0.011 0.0
H1470 H 0.64341 0.11469 0.03086 0.0
H1471 H 0.65548 0.14747 0.94917 0.0
H1472 H 0.66426 0.14197 0.90607 0.0
H1473 H 0.63237 0.09417 0.88777 0.0
H1474 H 0.62344 0.09927 0.93078 0.0
H1475 H 0.58607 0.1868 0.03506 0.0
H1476 H 0.60703 0.167 0.03387 0.0
H1477 H 0.59423 0.12296 0.97062 0.0
H1478 H 0.57403 0.1468 0.96872 0.0
H1479 H 0.61522 0.13793 0.95844 0.0
H1480 H 0.60369 0.10296 0.04084 0.0
H1481 H 0.59545 0.10686 0.08455 0.0
H1482 H 0.62626 0.15735 0.10199 0.0
H1483 H 0.63465 0.15382 0.05841 0.0
C1484 C 0.66854 0.0761 0.96607 0.0
C1485 C 0.67927 0.08225 0.98133 0.0
C1486 C 0.65661 0.08776 0.96923 0.0
C1487 C 0.65531 0.10712 0.98641 0.0
C1488 C 0.66628 0.11432 0.00074 0.0
C1489 C 0.67817 0.10165 -0.0015 0.0
C1490 C 0.64223 0.1184 0.99036 0.0
C1491 C 0.63729 0.12011 0.01507 0.0
C1492 C 0.6341 0.12497 0.96976 0.0
C1493 C 0.63877 0.12383 0.94318 0.0
C1494 C 0.65028 0.13597 0.93587 0.0
C1495 C 0.65531 0.13284 0.91149 0.0
C1496 C 0.64888 0.11774 0.8942 0.0
C1497 C 0.63732 0.10594 0.90115 0.0
C1498 C 0.63223 0.10904 0.92549 0.0
C1499 C 0.58758 0.17242 0.02127 0.0
C1500 C 0.57856 0.16891 0.00155 0.0
C1501 C 0.59964 0.16067 0.02083 0.0
C1502 C 0.60244 0.14302 0.00232 0.0
C1503 C 0.59252 0.13676 0.98493 0.0
C1504 C 0.58076 0.14992 0.98422 0.0
C1505 C 0.61606 0.1335 -0.00095 0.0
C1506 C 0.6212 0.13238 0.97438 0.0
C1507 C 0.62433 0.12737 0.01972 0.0
C1508 C 0.61979 0.1281 0.04637 0.0
C1509 C 0.60875 0.11477 0.05406 0.0
C1510 C 0.60404 0.11697 0.07879 0.0
C1511 C 0.61033 0.13234 0.09603 0.0
C1512 C 0.62141 0.1454 0.08865 0.0
C1513 C 0.62619 0.14321 0.06397 0.0
H1514 H 0.60661 0.13414 0.1151 0.0
H1515 H 0.65285 0.11516 0.87542 0.0
H1516 H 0.17761 0.16961 0.79962 0.0
H1517 H 0.15627 0.15068 0.79724 0.0
H1518 H 0.16241 0.13516 0.71801 0.0
H1519 H 0.18347 0.15649 0.72006 0.0
H1520 H 0.14024 0.15393 0.72183 0.0
H1521 H 0.16003 0.08929 0.76807 0.0
H1522 H 0.17364 0.07109 0.80163 0.0
H1523 H 0.14772 0.09992 0.85818 0.0
H1524 H 0.13404 0.11854 0.82495 0.0
H1525 H 0.08326 0.07858 0.71639 0.0
H1526 H 0.10411 0.09997 0.7145 0.0
H1527 H 0.09854 0.12522 0.7911 0.0
H1528 H 0.07793 0.10276 0.79339 0.0
H1529 H 0.1204 0.10075 0.78715 0.0
H1530 H 0.10043 0.16471 0.73789 0.0
H1531 H 0.08711 0.18061 0.70267 0.0
H1532 H 0.11368 0.14869 0.64913 0.0
H1533 H 0.12707 0.1323 0.68404 0.0
C1534 C 0.17474 0.16094 0.78204 0.0
C1535 C 0.18234 0.16392 0.76018 0.0
C1536 C 0.16242 0.15024 0.78058 0.0
C1537 C 0.15768 0.14108 0.7575 0.0
C1538 C 0.16581 0.14206 0.73606 0.0
C1539 C 0.17799 0.15364 0.73733 0.0
C1540 C 0.14387 0.13265 0.75547 0.0
C1541 C 0.13599 0.14188 0.73585 0.0
C1542 C 0.13815 0.11741 0.77401 0.0
C1543 C 0.14605 0.10541 0.79401 0.0
C1544 C 0.15726 0.09182 0.78767 0.0
C1545 C 0.16498 0.08141 0.80663 0.0
C1546 C 0.16156 0.08438 0.83203 0.0
C1547 C 0.15036 0.09762 0.8385 0.0
C1548 C 0.14259 0.10803 0.8196 0.0
C1549 C 0.0862 0.08966 0.73239 0.0
C1550 C 0.07901 0.089 0.75505 0.0
C1551 C 0.09815 0.10186 0.73133 0.0
C1552 C 0.10294 0.11416 0.75271 0.0
C1553 C 0.09505 0.11576 0.77441 0.0
C1554 C 0.08316 0.10328 0.77558 0.0
C1555 C 0.11679 0.12215 0.75369 0.0
C1556 C 0.12468 0.11282 0.77316 0.0
C1557 C 0.12254 0.13671 0.73463 0.0
C1558 C 0.11471 0.14716 0.71361 0.0
C1559 C 0.10341 0.161 0.71861 0.0
C1560 C 0.09584 0.1701 0.6987 0.0
C1561 C 0.09953 0.16563 0.67368 0.0
C1562 C 0.11084 0.15214 0.66852 0.0
C1563 C 0.11843 0.14297 0.68837 0.0
H1564 H 0.09365 0.17265 0.65829 0.0
H1565 H 0.16759 0.0764 0.84669 0.0
H1566 H 0.67521 0.67975 0.71593 0.0
H1567 H 0.65399 0.65928 0.71637 0.0
H1568 H 0.66208 0.63154 0.79099 0.0
H1569 H 0.68278 0.65382 0.79175 0.0
H1570 H 0.64953 0.59842 0.75368 0.0
H1571 H 0.64775 0.67479 0.79251 0.0
H1572 H 0.64679 0.71774 0.80525 0.0
H1573 H 0.61514 0.73 0.75365 0.0
H1574 H 0.61712 0.68807 0.73776 0.0
H1575 H 0.58504 0.57583 0.8006 0.0
H1576 H 0.60647 0.59555 0.79801 0.0
H1577 H 0.59872 0.61541 0.72055 0.0
H1578 H 0.57738 0.59472 0.7228 0.0
H1579 H 0.61074 0.65251 0.76013 0.0
H1580 H 0.61496 0.57024 0.72369 0.0
H1581 H 0.61329 0.52543 0.72594 0.0
H1582 H 0.63809 0.52481 0.79151 0.0
H1583 H 0.6396 0.56967 0.79008 0.0
C1584 C 0.67262 0.6688 0.73223 0.0
C1585 C 0.6805 0.66904 0.75413 0.0
C1586 C 0.66044 0.65739 0.73251 0.0
C1587 C 0.65635 0.64489 0.75413 0.0
C1588 C 0.66504 0.64172 0.7744 0.0
C1589 C 0.677 0.65405 0.77459 0.0
C1590 C 0.64287 0.63562 0.75583 0.0
C1591 C 0.64107 0.61033 0.75498 0.0
C1592 C 0.63187 0.65133 0.75807 0.0
C1593 C 0.63286 0.67802 0.76334 0.0
C1594 C 0.64119 0.68686 0.78249 0.0
C1595 C 0.64045 0.7112 0.79032 0.0
C1596 C 0.63106 0.72674 0.7799 0.0
C1597 C 0.62269 0.7182 0.76109 0.0
C1598 C 0.62379 0.69424 0.75234 0.0
C1599 C 0.58769 0.58536 0.7834 0.0
C1600 C 0.57953 0.58441 0.76206 0.0
C1601 C 0.59999 0.59614 0.78181 0.0
C1602 C 0.60414 0.60641 0.75899 0.0
C1603 C 0.59561 0.60729 0.73823 0.0
C1604 C 0.58339 0.59595 0.73963 0.0
C1605 C 0.61754 0.61582 0.75676 0.0
C1606 C 0.61931 0.64101 0.75787 0.0
C1607 C 0.62852 0.60018 0.75589 0.0
C1608 C 0.62728 0.5733 0.75691 0.0
C1609 C 0.6199 0.56057 0.73879 0.0
C1610 C 0.61902 0.53514 0.73988 0.0
C1611 C 0.6256 0.52231 0.75888 0.0
C1612 C 0.633 0.53481 0.77685 0.0
C1613 C 0.63385 0.56021 0.77592 0.0
H1614 H 0.62505 0.50267 0.75973 0.0
H1615 H 0.63006 0.74525 0.78675 0.0
H1616 H 0.93406 0.85388 0.46861 0.0
H1617 H 0.91237 0.87333 0.4719 0.0
H1618 H 0.90668 0.83889 0.54437 0.0
H1619 H 0.92849 0.82143 0.54209 0.0
H1620 H 0.889 0.84419 0.4764 0.0
H1621 H 0.89606 0.86577 0.5754 0.0
H1622 H 0.9115 0.88511 0.60523 0.0
H1623 H 0.91834 0.94297 0.5521 0.0
H1624 H 0.90329 0.92339 0.52168 0.0
H1625 H 0.82209 0.88804 0.50831 0.0
H1626 H 0.84226 0.86275 0.5096 0.0
H1627 H 0.86555 0.92803 0.50528 0.0
H1628 H 0.84633 0.95282 0.50757 0.0
H1629 H 0.8733 0.9009 0.54294 0.0
H1630 H 0.85964 0.89082 0.45443 0.0
H1631 H 0.84545 0.87515 0.42034 0.0
H1632 H 0.85195 0.80175 0.44589 0.0
H1633 H 0.86601 0.81703 0.48037 0.0
C1634 C 0.92847 0.85195 0.48588 0.0
C1635 C 0.93302 0.83693 0.50545 0.0
C1636 C 0.91602 0.86249 0.48752 0.0
C1637 C 0.90801 0.85761 0.50848 0.0
C1638 C 0.91287 0.84361 0.52851 0.0
C1639 C 0.92539 0.83386 0.52729 0.0
C1640 C 0.89427 0.86567 0.50902 0.0
C1641 C 0.88548 0.85663 0.49086 0.0
C1642 C 0.88974 0.88143 0.52811 0.0
C1643 C 0.89875 0.89303 0.54628 0.0
C1644 C 0.90096 0.88251 0.57008 0.0
C1645 C 0.90966 0.89346 0.58703 0.0
C1646 C 0.91594 0.91522 0.58053 0.0
C1647 C 0.91355 0.92603 0.55704 0.0
C1648 C 0.90502 0.91493 0.53988 0.0
C1649 C 0.83157 0.89681 0.50807 0.0
C1650 C 0.83254 0.92243 0.50714 0.0
C1651 C 0.84302 0.88243 0.50852 0.0
C1652 C 0.85538 0.89372 0.50777 0.0
C1653 C 0.85616 0.91907 0.5065 0.0
C1654 C 0.84504 0.93319 0.50719 0.0
C1655 C 0.86791 0.8804 0.50961 0.0
C1656 C 0.87661 0.88814 0.52857 0.0
C1657 C 0.87232 0.86407 0.49072 0.0
C1658 C 0.86367 0.85509 0.47025 0.0
C1659 C 0.8579 0.87137 0.45299 0.0
C1660 C 0.84991 0.86255 0.43354 0.0
C1661 C 0.84774 0.83749 0.43103 0.0
C1662 C 0.85358 0.82117 0.44792 0.0
C1663 C 0.86155 0.8299 0.46742 0.0
H1664 H 0.84158 0.8307 0.41595 0.0
H1665 H 0.92262 0.92374 0.59374 0.0
H1666 H 0.32099 0.39231 0.50583 0.0
H1667 H 0.34106 0.36747 0.50499 0.0
H1668 H 0.36417 0.43289 0.49773 0.0
H1669 H 0.3451 0.45712 0.49855 0.0
H1670 H 0.37335 0.4018 0.46762 0.0
H1671 H 0.35815 0.40001 0.55606 0.0
H1672 H 0.34389 0.38836 0.59172 0.0
H1673 H 0.34792 0.31274 0.57167 0.0
H1674 H 0.36207 0.32398 0.53577 0.0
H1675 H 0.43796 0.35936 0.49978 0.0
H1676 H 0.41747 0.38334 0.49932 0.0
H1677 H 0.39556 0.31749 0.51452 0.0
H1678 H 0.41554 0.29491 0.51812 0.0
H1679 H 0.38546 0.34856 0.53949 0.0
H1680 H 0.39942 0.35007 0.44891 0.0
H1681 H 0.414 0.36182 0.4137 0.0
H1682 H 0.41267 0.43659 0.43807 0.0
H1683 H 0.39826 0.42513 0.47357 0.0
C1684 C 0.33033 0.40136 0.50377 0.0
C1685 C 0.33107 0.42699 0.50179 0.0
C1686 C 0.3418 0.38712 0.50339 0.0
C1687 C 0.35413 0.39838 0.50129 0.0
C1688 C 0.35481 0.42367 0.49898 0.0
C1689 C 0.34359 0.43766 0.49924 0.0
C1690 C 0.36663 0.38476 0.50202 0.0
C1691 C 0.37597 0.38995 0.48327 0.0
C1692 C 0.37008 0.36931 0.52231 0.0
C1693 C 0.36096 0.36288 0.54299 0.0
C1694 C 0.35582 0.38095 0.55905 0.0
C1695 C 0.34781 0.3744 0.57936 0.0
C1696 C 0.34495 0.34984 0.58389 0.0
C1697 C 0.35009 0.33176 0.56809 0.0
C1698 C 0.35808 0.33821 0.54775 0.0
C1699 C 0.42872 0.35037 0.50343 0.0
C1700 C 0.4283 0.32518 0.50816 0.0
C1701 C 0.41702 0.36389 0.50274 0.0
C1702 C 0.40488 0.35212 0.50621 0.0
C1703 C 0.40469 0.32717 0.51174 0.0
C1704 C 0.4162 0.31413 0.51345 0.0
C1705 C 0.39214 0.365 0.50473 0.0
C1706 C 0.38279 0.35993 0.52349 0.0
C1707 C 0.38865 0.38034 0.48436 0.0
C1708 C 0.39781 0.38678 0.46381 0.0
C1709 C 0.40234 0.36896 0.44682 0.0
C1710 C 0.41056 0.37557 0.42682 0.0
C1711 C 0.41426 0.39993 0.42365 0.0
C1712 C 0.4098 0.41773 0.44052 0.0
C1713 C 0.4016 0.4112 0.46053 0.0
H1714 H 0.42058 0.40502 0.40812 0.0
H1715 H 0.3388 0.34482 0.5997 0.0
H1716 H 0.84464 0.29525 0.74914 0.0
H1717 H 0.86381 0.31942 0.75014 0.0
H1718 H 0.84096 0.38457 0.73848 0.0
H1719 H 0.8208 0.36 0.73798 0.0
H1720 H 0.86273 0.37886 0.70572 0.0
H1721 H 0.85551 0.37578 0.79633 0.0
H1722 H 0.85013 0.35425 0.83595 0.0
H1723 H 0.88312 0.3067 0.82551 0.0
H1724 H 0.88867 0.32786 0.7858 0.0
H1725 H 0.91745 0.45256 0.71836 0.0
H1726 H 0.89713 0.43118 0.71853 0.0
H1727 H 0.91583 0.36861 0.75285 0.0
H1728 H 0.93659 0.39156 0.75454 0.0
H1729 H 0.89507 0.37445 0.7756 0.0
H1730 H 0.90296 0.37538 0.68605 0.0
H1731 H 0.9093 0.39582 0.64638 0.0
H1732 H 0.87576 0.4428 0.65181 0.0
H1733 H 0.86924 0.42267 0.6915 0.0
C1734 C 0.8432 0.31471 0.74775 0.0
C1735 C 0.83073 0.32542 0.74423 0.0
C1736 C 0.85446 0.3286 0.74816 0.0
C1737 C 0.85381 0.3538 0.74505 0.0
C1738 C 0.84158 0.36503 0.74132 0.0
C1739 C 0.83008 0.35094 0.74101 0.0
C1740 C 0.86625 0.36744 0.74401 0.0
C1741 C 0.86974 0.37844 0.72112 0.0
C1742 C 0.87557 0.36562 0.76372 0.0
C1743 C 0.8725 0.35343 0.78809 0.0
C1744 C 0.86161 0.36073 0.80249 0.0
C1745 C 0.85854 0.34859 0.82496 0.0
C1746 C 0.86627 0.32912 0.83324 0.0
C1747 C 0.87715 0.32183 0.81912 0.0
C1748 C 0.8803 0.33395 0.79668 0.0
C1749 C 0.91729 0.4342 0.72597 0.0
C1750 C 0.92848 0.42386 0.737 0.0
C1751 C 0.90557 0.42177 0.72586 0.0
C1752 C 0.90474 0.39807 0.73558 0.0
C1753 C 0.91616 0.38698 0.74534 0.0
C1754 C 0.92801 0.39989 0.74613 0.0
C1755 C 0.89175 0.38598 0.7371 0.0
C1756 C 0.88814 0.37508 0.76008 0.0
C1757 C 0.88244 0.3873 0.71714 0.0
C1758 C 0.88567 0.39765 0.69192 0.0
C1759 C 0.8969 0.38997 0.67871 0.0
C1760 C 0.90054 0.40154 0.65624 0.0
C1761 C 0.89296 0.42065 0.64662 0.0
C1762 C 0.88163 0.42801 0.65927 0.0
C1763 C 0.87793 0.41646 0.68171 0.0
H1764 H 0.89586 0.42972 0.62934 0.0
H1765 H 0.86384 0.31969 0.85058 0.0
H1766 H 0.32281 0.86176 0.74283 0.0
H1767 H 0.34293 0.88691 0.74386 0.0
H1768 H 0.3664 0.82162 0.73903 0.0
H1769 H 0.34704 0.79713 0.73655 0.0
H1770 H 0.3737 0.85424 0.77869 0.0
H1771 H 0.36074 0.85257 0.68837 0.0
H1772 H 0.34599 0.86409 0.6534 0.0
H1773 H 0.35076 0.93985 0.6721 0.0
H1774 H 0.36538 0.92872 0.70743 0.0
H1775 H 0.43993 0.88523 0.75855 0.0
H1776 H 0.41865 0.86464 0.75572 0.0
H1777 H 0.40267 0.92858 0.71869 0.0
H1778 H 0.42423 0.94563 0.71611 0.0
H1779 H 0.38912 0.90025 0.70401 0.0
H1780 H 0.40199 0.90517 0.79452 0.0
H1781 H 0.41494 0.89512 0.83261 0.0
H1782 H 0.40899 0.81864 0.81902 0.0
H1783 H 0.39611 0.82823 0.78086 0.0
C1784 C 0.33229 0.85293 0.74205 0.0
C1785 C 0.33324 0.82732 0.74071 0.0
C1786 C 0.34371 0.86723 0.74273 0.0
C1787 C 0.35609 0.85593 0.74212 0.0
C1788 C 0.35696 0.83062 0.74015 0.0
C1789 C 0.34576 0.8166 0.73901 0.0
C1790 C 0.36849 0.86959 0.74273 0.0
C1791 C 0.37713 0.86487 0.76269 0.0
C1792 C 0.3728 0.88335 0.72192 0.0
C1793 C 0.36399 0.88981 0.70072 0.0
C1794 C 0.35853 0.87166 0.68518 0.0
C1795 C 0.35022 0.87812 0.66527 0.0
C1796 C 0.3474 0.90268 0.66059 0.0
C1797 C 0.35291 0.92083 0.67579 0.0
C1798 C 0.3612 0.91446 0.69575 0.0
C1799 C 0.43192 0.89406 0.74875 0.0
C1800 C 0.43361 0.91714 0.73792 0.0
C1801 C 0.41956 0.88279 0.74797 0.0
C1802 C 0.40854 0.89542 0.73838 0.0
C1803 C 0.41067 0.91791 0.72628 0.0
C1804 C 0.4231 0.92793 0.725 0.0
C1805 C 0.39479 0.886 0.74074 0.0
C1806 C 0.38587 0.89095 0.72095 0.0
C1807 C 0.39012 0.87306 0.76225 0.0
C1808 C 0.39824 0.86744 0.78471 0.0
C1809 C 0.40355 0.88624 0.79958 0.0
C1810 C 0.41085 0.8806 0.8212 0.0
C1811 C 0.41282 0.85626 0.82818 0.0
C1812 C 0.40749 0.83748 0.81357 0.0
C1813 C 0.40019 0.843 0.79197 0.0
H1814 H 0.41844 0.85196 0.84494 0.0
H1815 H 0.34098 0.90764 0.64514 0.0
H1816 H 0.09153 0.19091 0.45572 0.0
H1817 H 0.11257 0.17141 0.46085 0.0
H1818 H 0.09566 0.12025 0.51363 0.0
H1819 H 0.07464 0.14224 0.51077 0.0
H1820 H 0.11734 0.13635 0.53131 0.0
H1821 H 0.10622 0.1047 0.44832 0.0
H1822 H 0.09749 0.11186 0.40544 0.0
H1823 H 0.12896 0.16147 0.39 0.0
H1824 H 0.13783 0.15474 0.43285 0.0
H1825 H 0.1754 0.06865 0.54072 0.0
H1826 H 0.15414 0.08646 0.53665 0.0
H1827 H 0.16714 0.1273 0.47136 0.0
H1828 H 0.18749 0.10392 0.47168 0.0
H1829 H 0.14624 0.11469 0.45944 0.0
H1830 H 0.15689 0.14979 0.54195 0.0
H1831 H 0.16493 0.14649 0.58586 0.0
H1832 H 0.13425 0.09572 0.60318 0.0
H1833 H 0.1261 0.09857 0.55938 0.0
C1834 C 0.09219 0.17496 0.46778 0.0
C1835 C 0.08147 0.16766 0.48248 0.0
C1836 C 0.10425 0.16372 0.47064 0.0
C1837 C 0.10568 0.14374 0.48695 0.0
C1838 C 0.09474 0.13546 0.50069 0.0
C1839 C 0.0827 0.14763 0.49874 0.0
C1840 C 0.11886 0.133 0.49089 0.0
C1841 C 0.12362 0.13118 0.51566 0.0
C1842 C 0.12722 0.12719 0.47042 0.0
C1843 C 0.12273 0.12909 0.44375 0.0
C1844 C 0.11136 0.11691 0.43567 0.0
C1845 C 0.10635 0.12099 0.41142 0.0
C1846 C 0.11268 0.13708 0.39501 0.0
C1847 C 0.12411 0.14892 0.4027 0.0
C1848 C 0.12917 0.14488 0.42692 0.0
C1849 C 0.17384 0.08175 0.52567 0.0
C1850 C 0.183 0.08407 0.50603 0.0
C1851 C 0.16158 0.09256 0.52364 0.0
C1852 C 0.15874 0.10901 0.50399 0.0
C1853 C 0.16879 0.11443 0.48657 0.0
C1854 C 0.18069 0.10164 0.48719 0.0
C1855 C 0.1451 0.11849 0.50017 0.0
C1856 C 0.14014 0.11989 0.47531 0.0
C1857 C 0.13662 0.1245 0.52061 0.0
C1858 C 0.14092 0.12437 0.5474 0.0
C1859 C 0.15182 0.13807 0.55519 0.0
C1860 C 0.15642 0.1362 0.58003 0.0
C1861 C 0.15012 0.12088 0.59728 0.0
C1862 C 0.13911 0.1076 0.58982 0.0
C1863 C 0.13447 0.10941 0.56503 0.0
H1864 H 0.15376 0.11932 0.61643 0.0
H1865 H 0.10871 0.1404 0.37634 0.0
H1866 H 0.58584 0.68209 0.52428 0.0
H1867 H 0.60609 0.65884 0.52804 0.0
H1868 H 0.59831 0.62408 0.45647 0.0
H1869 H 0.57853 0.64912 0.45135 0.0
H1870 H 0.61292 0.60225 0.51769 0.0
H1871 H 0.6152 0.6421 0.43327 0.0
H1872 H 0.61354 0.67487 0.40164 0.0
H1873 H 0.63392 0.72367 0.45148 0.0
H1874 H 0.63514 0.69137 0.48395 0.0
H1875 H 0.67379 0.57001 0.45423 0.0
H1876 H 0.6524 0.58943 0.4583 0.0
H1877 H 0.66453 0.62269 0.52844 0.0
H1878 H 0.6858 0.60142 0.52541 0.0
H1879 H 0.64801 0.64578 0.47115 0.0
H1880 H 0.64901 0.5992 0.55171 0.0
H1881 H 0.65378 0.56169 0.57569 0.0
H1882 H 0.62839 0.52089 0.52671 0.0
H1883 H 0.62385 0.55808 0.50187 0.0
C1884 C 0.58831 0.66916 0.50951 0.0
C1885 C 0.5809 0.66804 0.48707 0.0
C1886 C 0.59986 0.65592 0.51173 0.0
C1887 C 0.60388 0.64069 0.49199 0.0
C1888 C 0.59553 0.63664 0.47135 0.0
C1889 C 0.58413 0.65054 0.46868 0.0
C1890 C 0.6174 0.63154 0.492 0.0
C1891 C 0.6206 0.61165 0.50744 0.0
C1892 C 0.62739 0.64415 0.47898 0.0
C1893 C 0.62479 0.66459 0.46141 0.0
C1894 C 0.61879 0.66011 0.43797 0.0
C1895 C 0.61807 0.67852 0.41976 0.0
C1896 C 0.62364 0.7013 0.42454 0.0
C1897 C 0.62956 0.70602 0.44786 0.0
C1898 C 0.63016 0.68774 0.46626 0.0
C1899 C 0.67201 0.58204 0.47016 0.0
C1900 C 0.68138 0.58458 0.48941 0.0
C1901 C 0.65977 0.59273 0.47266 0.0
C1902 C 0.65684 0.60662 0.49411 0.0
C1903 C 0.66657 0.61119 0.51225 0.0
C1904 C 0.67875 0.59966 0.51022 0.0
C1905 C 0.64356 0.61647 0.49667 0.0
C1906 C 0.64036 0.63661 0.48175 0.0
C1907 C 0.6336 0.60366 0.50965 0.0
C1908 C 0.63639 0.58132 0.52452 0.0
C1909 C 0.6447 0.58215 0.54567 0.0
C1910 C 0.6473 0.56095 0.55951 0.0
C1911 C 0.64146 0.53888 0.55262 0.0
C1912 C 0.63297 0.53797 0.53192 0.0
C1913 C 0.63042 0.55909 0.51792 0.0
H1914 H 0.64345 0.52251 0.56341 0.0
H1915 H 0.62353 0.71517 0.41001 0.0
H1916 H 0.18211 0.65814 0.21549 0.0
H1917 H 0.16062 0.63851 0.21337 0.0
H1918 H 0.15731 0.64402 0.2946 0.0
H1919 H 0.17896 0.66209 0.29672 0.0
H1920 H 0.14515 0.60749 0.28233 0.0
H1921 H 0.14505 0.68935 0.24826 0.0
H1922 H 0.1503 0.72327 0.21923 0.0
H1923 H 0.13602 0.68165 0.15635 0.0
H1924 H 0.13085 0.64734 0.18478 0.0
H1925 H 0.07718 0.5993 0.29216 0.0
H1926 H 0.0984 0.61955 0.29258 0.0
H1927 H 0.10186 0.60826 0.21208 0.0
H1928 H 0.0802 0.58975 0.2113 0.0
H1929 H 0.11392 0.64725 0.22355 0.0
H1930 H 0.11406 0.56498 0.26313 0.0
H1931 H 0.10731 0.53564 0.29636 0.0
H1932 H 0.12086 0.58448 0.3539 0.0
H1933 H 0.12762 0.61409 0.32135 0.0
C1934 C 0.17709 0.65371 0.23293 0.0
C1935 C 0.18224 0.6614 0.25628 0.0
C1936 C 0.16464 0.64319 0.23169 0.0
C1937 C 0.15707 0.64071 0.25372 0.0
C1938 C 0.16285 0.64591 0.27725 0.0
C1939 C 0.17537 0.65589 0.27852 0.0
C1940 C 0.14298 0.63399 0.25254 0.0
C1941 C 0.13834 0.6164 0.26957 0.0
C1942 C 0.13399 0.64543 0.23584 0.0
C1943 C 0.13773 0.66563 0.21862 0.0
C1944 C 0.14319 0.6873 0.2282 0.0
C1945 C 0.1461 0.70663 0.21189 0.0
C1946 C 0.14352 0.7046 0.18604 0.0
C1947 C 0.13805 0.68319 0.17638 0.0
C1948 C 0.13513 0.66379 0.19256 0.0
C1949 C 0.08212 0.60234 0.27432 0.0
C1950 C 0.07706 0.5926 0.2517 0.0
C1951 C 0.09446 0.61332 0.2747 0.0
C1952 C 0.10206 0.61424 0.25259 0.0
C1953 C 0.09634 0.60729 0.22953 0.0
C1954 C 0.08388 0.59686 0.22904 0.0
C1955 C 0.11615 0.62095 0.25343 0.0
C1956 C 0.12079 0.63839 0.23624 0.0
C1957 C 0.1251 0.60994 0.2705 0.0
C1958 C 0.12108 0.59191 0.28984 0.0
C1959 C 0.11543 0.56953 0.28289 0.0
C1960 C 0.11157 0.55294 0.30154 0.0
C1961 C 0.1134 0.55845 0.32709 0.0
C1962 C 0.1193 0.58038 0.33411 0.0
C1963 C 0.12315 0.59705 0.31559 0.0
H1964 H 0.11042 0.54553 0.34143 0.0
H1965 H 0.14574 0.71965 0.17351 0.0
H1966 H 0.57198 0.11393 0.24702 0.0
H1967 H 0.59285 0.13658 0.24667 0.0
H1968 H 0.61279 0.07137 0.27239 0.0
H1969 H 0.5922 0.05101 0.27684 0.0
H1970 H 0.62377 0.10236 0.29264 0.0
H1971 H 0.60928 0.09915 0.20355 0.0
H1972 H 0.5957 0.10939 0.16638 0.0
H1973 H 0.60164 0.18579 0.18029 0.0
H1974 H 0.6151 0.17604 0.21767 0.0
H1975 H 0.68913 0.14126 0.25309 0.0
H1976 H 0.6688 0.11679 0.25209 0.0
H1977 H 0.64592 0.1828 0.25723 0.0
H1978 H 0.6655 0.20667 0.25959 0.0
H1979 H 0.63762 0.15114 0.21869 0.0
H1980 H 0.65162 0.15141 0.30817 0.0
H1981 H 0.66573 0.13988 0.34411 0.0
H1982 H 0.66119 0.0641 0.32523 0.0
H1983 H 0.6472 0.07524 0.28898 0.0
C1984 C 0.58084 0.10512 0.25359 0.0
C1985 C 0.58059 0.08083 0.26186 0.0
C1986 C 0.5928 0.11772 0.25271 0.0
C1987 C 0.60458 0.10557 0.25878 0.0
C1988 C 0.60401 0.08154 0.26782 0.0
C1989 C 0.59217 0.06978 0.27031 0.0
C1990 C 0.61767 0.11711 0.25652 0.0
C1991 C 0.62676 0.1124 0.27594 0.0
C1992 C 0.62169 0.1311 0.23534 0.0
C1993 C 0.61303 0.13684 0.21362 0.0
C1994 C 0.60754 0.11812 0.19886 0.0
C1995 C 0.5999 0.12385 0.17772 0.0
C1996 C 0.59776 0.14822 0.17107 0.0
C1997 C 0.60325 0.16693 0.18554 0.0
C1998 C 0.61087 0.16131 0.2067 0.0
C1999 C 0.67973 0.15039 0.25388 0.0
C2000 C 0.679 0.17599 0.25533 0.0
C2001 C 0.6682 0.1365 0.25322 0.0
C2002 C 0.65595 0.14822 0.25398 0.0
C2003 C 0.65528 0.17353 0.25595 0.0
C2004 C 0.66659 0.18717 0.25705 0.0
C2005 C 0.64351 0.13487 0.25391 0.0
C2006 C 0.63454 0.13996 0.23454 0.0
C2007 C 0.63964 0.12058 0.27465 0.0
C2008 C 0.64859 0.11418 0.29563 0.0
C2009 C 0.65382 0.13233 0.31144 0.0
C2010 C 0.66174 0.12586 0.33193 0.0
C2011 C 0.66441 0.10129 0.33688 0.0
C2012 C 0.65917 0.08313 0.32132 0.0
C2013 C 0.65127 0.08952 0.30079 0.0
H2014 H 0.67049 0.09631 0.35283 0.0
H2015 H 0.59189 0.15261 0.15464 0.0
H2016 H 0.19152 0.4743 0.99166 0.0
H2017 H 0.17271 0.44628 0.99778 0.0
H2018 H 0.14615 0.50626 0.98704 0.0
H2019 H 0.16426 0.53327 0.97793 0.0
H2020 H 0.14613 0.47198 0.03723 0.0
H2021 H 0.14323 0.48239 0.94418 0.0
H2022 H 0.15224 0.47758 0.90119 0.0
H2023 H 0.15628 0.40043 0.91331 0.0
H2024 H 0.14764 0.40508 0.95667 0.0
H2025 H 0.07935 0.42591 0.04078 0.0
H2026 H 0.09813 0.45243 0.03129 0.0
H2027 H 0.11773 0.39149 0.99577 0.0
H2028 H 0.0986 0.36643 0.00242 0.0
H2029 H 0.12242 0.42712 0.97003 0.0
H2030 H 0.13743 0.42552 0.06914 0.0
H2031 H 0.13153 0.43191 0.11394 0.0
H2032 H 0.10593 0.49061 0.09266 0.0
H2033 H 0.11174 0.48446 0.04777 0.0
C2034 C 0.18163 0.48115 0.98967 0.0
C2035 C 0.17936 0.50602 0.98477 0.0
C2036 C 0.17096 0.46532 0.99345 0.0
C2037 C 0.1581 0.47452 0.99279 0.0
C2038 C 0.15597 0.49899 0.98715 0.0
C2039 C 0.16638 0.51432 0.98221 0.0
C2040 C 0.14653 0.45959 -0.00133 0.0
C2041 C 0.14099 0.46167 0.02279 0.0
C2042 C 0.13975 0.44693 0.9796 0.0
C2043 C 0.14511 0.44422 0.95378 0.0
C2044 C 0.14631 0.46455 0.93782 0.0
C2045 C 0.15129 0.46182 0.91337 0.0
C2046 C 0.15492 0.43873 0.90457 0.0
C2047 C 0.15355 0.41833 0.9202 0.0
C2048 C 0.14865 0.42103 0.94473 0.0
C2049 C 0.0875 0.4187 0.03002 0.0
C2050 C 0.08746 0.39426 0.02192 0.0
C2051 C 0.09847 0.43358 0.02546 0.0
C2052 C 0.10973 0.42387 0.01372 0.0
C2053 C 0.1093 0.39969 0.00487 0.0
C2054 C 0.09828 0.38532 0.00848 0.0
C2055 C 0.12192 0.43824 0.00929 0.0
C2056 C 0.12757 0.43662 0.98504 0.0
C2057 C 0.12884 0.45108 0.02851 0.0
C2058 C 0.12431 0.4534 0.05498 0.0
C2059 C 0.13027 0.43934 0.074 0.0
C2060 C 0.12704 0.44305 0.09942 0.0
C2061 C 0.11816 0.46135 0.10611 0.0
C2062 C 0.11259 0.47609 0.08741 0.0
C2063 C 0.11578 0.47236 0.06196 0.0
H2064 H 0.11573 0.46433 0.1258 0.0
H2065 H 0.15872 0.43661 0.8856 0.0
H2066 H 0.18105 0.83142 0.02875 0.0
H2067 H 0.16132 0.80627 0.02314 0.0
H2068 H 0.14132 0.86764 0.98975 0.0
H2069 H 0.16103 0.89249 0.99479 0.0
H2070 H 0.12743 0.84221 0.03193 0.0
H2071 H 0.15103 0.82646 0.9522 0.0
H2072 H 0.17104 0.81283 0.93025 0.0
H2073 H 0.16859 0.7432 0.96718 0.0
H2074 H 0.1487 0.75661 0.98969 0.0
H2075 H 0.06927 0.77627 0.99627 0.0
H2076 H 0.08763 0.80523 0.99713 0.0
H2077 H 0.11476 0.74485 0.99755 0.0
H2078 H 0.09715 0.71672 0.99422 0.0
H2079 H 0.1247 0.7734 0.97128 0.0
H2080 H 0.10387 0.78299 0.05226 0.0
H2081 H 0.08559 0.79257 0.08105 0.0
H2082 H 0.08448 0.86609 0.05311 0.0
H2083 H 0.10256 0.85681 0.0237 0.0
C2084 C 0.17265 0.83908 0.01911 0.0
C2085 C 0.17266 0.86361 0.01146 0.0
C2086 C 0.1613 0.82497 0.01649 0.0
C2087 C 0.14984 0.83533 0.00641 0.0
C2088 C 0.15003 0.85945 0.99779 0.0
C2089 C 0.16137 0.8734 8e-05 0.0
C2090 C 0.13768 0.82089 0.00401 0.0
C2091 C 0.12672 0.82716 0.01866 0.0
C2092 C 0.13695 0.80097 0.98726 0.0
C2093 C 0.14846 0.79258 0.97269 0.0
C2094 C 0.15479 0.80827 0.95565 0.0
C2095 C 0.16611 0.8006 0.94315 0.0
C2096 C 0.1711 0.77718 0.94735 0.0
C2097 C 0.16472 0.76133 0.96395 0.0
C2098 C 0.15343 0.76895 0.97657 0.0
C2099 C 0.07918 0.76929 0.99662 0.0
C2100 C 0.08157 0.74399 0.99637 0.0
C2101 C 0.08969 0.78585 0.99735 0.0
C2102 C 0.1027 0.77728 -0.00166 0.0
C2103 C 0.10494 0.75212 0.99743 0.0
C2104 C 0.09466 0.73585 0.99602 0.0
C2105 C 0.11426 0.79377 -1e-05 0.0
C2106 C 0.1252 0.7882 0.98488 0.0
C2107 C 0.11512 0.81337 0.01745 0.0
C2108 C 0.10445 0.81911 0.03551 0.0
C2109 C 0.09968 0.80116 0.05213 0.0
C2110 C 0.08934 0.80652 0.06853 0.0
C2111 C 0.08386 0.82988 0.0688 0.0
C2112 C 0.08872 0.84797 0.05278 0.0
C2113 C 0.09899 0.84267 0.03621 0.0
H2114 H 0.07587 0.83396 0.08147 0.0
H2115 H 0.17989 0.7713 0.93771 0.0
H2116 H 0.07871 0.84044 0.22394 0.0
H2117 H 0.09675 0.81083 0.22887 0.0
H2118 H 0.1236 0.86992 0.24292 0.0
H2119 H 0.10573 0.89916 0.23928 0.0
H2120 H 0.13233 0.83426 0.20472 0.0
H2121 H 0.11258 0.83928 0.29043 0.0
H2122 H 0.0937 0.83355 0.31884 0.0
H2123 H 0.09125 0.7582 0.29688 0.0
H2124 H 0.10998 0.76364 0.26801 0.0
H2125 H 0.19065 0.77586 0.24697 0.0
H2126 H 0.17211 0.80425 0.24203 0.0
H2127 H 0.14554 0.74649 0.26357 0.0
H2128 H 0.16379 0.71996 0.27155 0.0
H2129 H 0.13567 0.78073 0.2799 0.0
H2130 H 0.15393 0.76906 0.19693 0.0
H2131 H 0.17134 0.76984 0.16464 0.0
H2132 H 0.17472 0.84754 0.17306 0.0
H2133 H 0.15747 0.84715 0.20568 0.0
C2134 C 0.08838 0.84696 0.22894 0.0
C2135 C 0.09079 0.87211 0.23131 0.0
C2136 C 0.0987 0.83013 0.23119 0.0
C2137 C 0.11155 0.83834 0.23559 0.0
C2138 C 0.11382 0.86327 0.23903 0.0
C2139 C 0.10355 0.8799 0.23736 0.0
C2140 C 0.1227 0.82122 0.2383 0.0
C2141 C 0.13312 0.82231 0.22101 0.0
C2142 C 0.12352 0.80522 0.25905 0.0
C2143 C 0.11254 0.80195 0.27691 0.0
C2144 C 0.10795 0.82155 0.29157 0.0
C2145 C 0.09729 0.81835 0.30774 0.0
C2146 C 0.09124 0.79555 0.30959 0.0
C2147 C 0.09591 0.77586 0.29538 0.0
C2148 C 0.10654 0.779 0.27911 0.0
C2149 C 0.18083 0.76969 0.25119 0.0
C2150 C 0.17858 0.74559 0.25891 0.0
C2151 C 0.1702 0.78568 0.24788 0.0
C2152 C 0.15724 0.7774 0.25141 0.0
C2153 C 0.15528 0.75367 0.26054 0.0
C2154 C 0.16578 0.73827 0.26482 0.0
C2155 C 0.14555 0.79292 0.246 0.0
C2156 C 0.13498 0.79188 0.26302 0.0
C2157 C 0.14438 0.80777 0.22411 0.0
C2158 C 0.15449 0.80806 0.20394 0.0
C2159 C 0.15841 0.7863 0.19195 0.0
C2160 C 0.16827 0.78666 0.1736 0.0
C2161 C 0.17417 0.80871 0.16686 0.0
C2162 C 0.17017 0.83046 0.17833 0.0
C2163 C 0.16035 0.83019 0.19674 0.0
H2164 H 0.18182 0.80895 0.15271 0.0
H2165 H 0.08297 0.79312 0.32209 0.0
H2166 H 0.15999 0.36188 0.23636 0.0
H2167 H 0.14035 0.38646 0.24342 0.0
H2168 H 0.16027 0.44974 0.21417 0.0
H2169 H 0.18 0.4248 0.20646 0.0
H2170 H 0.14654 0.45656 0.26051 0.0
H2171 H 0.1383 0.42348 0.17757 0.0
H2172 H 0.1374 0.38876 0.14784 0.0
H2173 H 0.10729 0.35541 0.19251 0.0
H2174 H 0.10809 0.38978 0.22265 0.0
H2175 H 0.09547 0.53726 0.25661 0.0
H2176 H 0.11337 0.51046 0.24893 0.0
H2177 H 0.08746 0.44844 0.2527 0.0
H2178 H 0.06858 0.47653 0.25724 0.0
H2179 H 0.10407 0.43849 0.21909 0.0
H2180 H 0.11373 0.46547 0.30415 0.0
H2181 H 0.11868 0.4914 0.34118 0.0
H2182 H 0.14722 0.53076 0.29788 0.0
H2183 H 0.14249 0.50501 0.26072 0.0
C2184 C 0.16028 0.3812 0.232 0.0
C2185 C 0.17159 0.3916 0.22133 0.0
C2186 C 0.14898 0.39508 0.23559 0.0
C2187 C 0.14874 0.41977 0.2288 0.0
C2188 C 0.16022 0.4306 0.21926 0.0
C2189 C 0.17154 0.41653 0.21529 0.0
C2190 C 0.13669 0.43443 0.23311 0.0
C2191 C 0.13728 0.45297 0.25114 0.0
C2192 C 0.12451 0.42883 0.22169 0.0
C2193 C 0.12337 0.40907 0.20257 0.0
C2194 C 0.1315 0.40873 0.18108 0.0
C2195 C 0.13101 0.38912 0.16416 0.0
C2196 C 0.12241 0.36978 0.16848 0.0
C2197 C 0.11401 0.37033 0.18931 0.0
C2198 C 0.11445 0.38991 0.20628 0.0
C2199 C 0.09332 0.51796 0.25556 0.0
C2200 C 0.08033 0.50936 0.25698 0.0
C2201 C 0.10383 0.50238 0.2518 0.0
C2202 C 0.10209 0.47709 0.25112 0.0
C2203 C 0.08919 0.46792 0.25339 0.0
C2204 C 0.07838 0.48394 0.25628 0.0
C2205 C 0.11383 0.46107 0.24677 0.0
C2206 C 0.11325 0.44225 0.22859 0.0
C2207 C 0.1261 0.46598 0.25849 0.0
C2208 C 0.12773 0.48337 0.27971 0.0
C2209 C 0.12092 0.47988 0.30247 0.0
C2210 C 0.12379 0.49437 0.32354 0.0
C2211 C 0.13339 0.51245 0.32197 0.0
C2212 C 0.13991 0.51654 0.29917 0.0
C2213 C 0.13715 0.50201 0.27813 0.0
H2214 H 0.13567 0.52351 0.33836 0.0
H2215 H 0.1223 0.35429 0.15582 0.0
H2216 H 0.83866 0.4939 0.04987 0.0
H2217 H 0.85781 0.51861 0.04104 0.0
H2218 H 0.84006 0.54358 0.97157 0.0
H2219 H 0.82123 0.51687 0.97963 0.0
H2220 H 0.8633 0.53208 0.96145 0.0
H2221 H 0.84591 0.58205 0.02727 0.0
H2222 H 0.8363 0.59091 0.06907 0.0
H2223 H 0.87064 0.5624 0.10546 0.0
H2224 H 0.88037 0.5531 0.06389 0.0
H2225 H 0.91189 0.62314 0.9436 0.0
H2226 H 0.89347 0.59605 0.94785 0.0
H2227 H 0.9099 0.56748 0.01704 0.0
H2228 H 0.92811 0.5966 0.01379 0.0
H2229 H 0.88685 0.58137 0.0255 0.0
H2230 H 0.90447 0.53408 0.95536 0.0
H2231 H 0.91275 0.52742 0.91207 0.0
H2232 H 0.87685 0.55525 0.88128 0.0
H2233 H 0.8684 0.56238 0.92432 0.0
C2234 C 0.83857 0.50563 0.03337 0.0
C2235 C 0.82829 0.50418 0.01587 0.0
C2236 C 0.8496 0.51968 0.02817 0.0
C2237 C 0.8504 0.53346 0.0058 0.0
C2238 C 0.83971 0.53323 0.989 0.0
C2239 C 0.8288 0.51848 0.99387 0.0
C2240 C 0.86276 0.54653 -0.00063 0.0
C2241 C 0.86837 0.54318 0.97532 0.0
C2242 C 0.86955 0.56072 0.01748 0.0
C2243 C 0.86383 0.56677 0.04248 0.0
C2244 C 0.85138 0.5776 0.0442 0.0
C2245 C 0.84592 0.58269 0.06785 0.0
C2246 C 0.85285 0.57718 0.08991 0.0
C2247 C 0.86528 0.56666 0.08837 0.0
C2248 C 0.87079 0.56152 0.06477 0.0
C2249 C 0.9117 0.61101 0.95971 0.0
C2250 C 0.92124 0.61271 0.97892 0.0
C2251 C 0.9012 0.59503 0.96182 0.0
C2252 C 0.90019 0.57949 0.98272 0.0
C2253 C 0.91039 0.57943 0.00076 0.0
C2254 C 0.92083 0.59597 -0.00108 0.0
C2255 C 0.88767 0.56648 0.98779 0.0
C2256 C 0.8819 0.5701 0.0116 0.0
C2257 C 0.88066 0.55312 0.96913 0.0
C2258 C 0.88584 0.54891 0.94317 0.0
C2259 C 0.89837 0.53896 0.93938 0.0
C2260 C 0.90309 0.53506 0.91486 0.0
C2261 C 0.89534 0.54095 0.89394 0.0
C2262 C 0.88285 0.55071 0.89749 0.0
C2263 C 0.87809 0.55464 0.92195 0.0
H2264 H 0.89901 0.5379 0.875 0.0
H2265 H 0.84859 0.5811 0.1082 0.0
H2266 H 0.94226 0.22658 0.00218 0.0
H2267 H 0.92388 0.19773 0.99816 0.0
H2268 H 0.89668 0.25807 0.0014 0.0
H2269 H 0.91444 0.28595 0.00729 0.0
H2270 H 0.88711 0.22506 0.02646 0.0
H2271 H 0.90823 0.2281 0.94466 0.0
H2272 H 0.9265 0.2225 0.91478 0.0
H2273 H 0.92722 0.14574 0.93096 0.0
H2274 H 0.90911 0.15095 0.96133 0.0
H2275 H 0.83007 0.17808 0.96195 0.0
H2276 H 0.84995 0.20191 0.97161 0.0
H2277 H 0.8708 0.13533 0.98821 0.0
H2278 H 0.85111 0.11179 0.97936 0.0
H2279 H 0.88425 0.16754 0.95425 0.0
H2280 H 0.86154 0.1679 0.0356 0.0
H2281 H 0.84226 0.17633 0.06228 0.0
H2282 H 0.84357 0.25195 0.04111 0.0
H2283 H 0.86277 0.24386 0.01406 0.0
C2284 C 0.93233 0.23351 0.00207 0.0
C2285 C 0.9299 0.25873 0.00355 0.0
C2286 C 0.92185 0.21708 -0.00033 0.0
C2287 C 0.90887 0.22578 -0.00121 0.0
C2288 C 0.90654 0.25078 0.00172 0.0
C2289 C 0.91684 0.26687 0.00457 0.0
C2290 C 0.89744 0.20958 0.99462 0.0
C2291 C 0.88653 0.21263 0.0105 0.0
C2292 C 0.89663 0.19311 0.974 0.0
C2293 C 0.90744 0.18997 0.95557 0.0
C2294 C 0.91235 0.21005 0.94201 0.0
C2295 C 0.92267 0.20695 0.92495 0.0
C2296 C 0.92805 0.1838 0.92104 0.0
C2297 C 0.92308 0.16368 0.93408 0.0
C2298 C 0.91279 0.1667 0.95123 0.0
C2299 C 0.83883 0.16874 0.96825 0.0
C2300 C 0.83911 0.14321 0.96995 0.0
C2301 C 0.85018 0.18223 0.97344 0.0
C2302 C 0.86185 0.17022 0.98026 0.0
C2303 C 0.86196 0.14484 0.98267 0.0
C2304 C 0.85067 0.1315 0.97785 0.0
C2305 C 0.87398 0.18391 0.98554 0.0
C2306 C 0.88497 0.18008 0.97008 0.0
C2307 C 0.8748 0.20034 0.00598 0.0
C2308 C 0.86349 0.20524 0.02271 0.0
C2309 C 0.85767 0.18629 0.03657 0.0
C2310 C 0.84677 0.19101 0.05175 0.0
C2311 C 0.84168 0.21465 0.05335 0.0
C2312 C 0.84752 0.23365 0.03985 0.0
C2313 C 0.85841 0.22901 0.02462 0.0
H2314 H 0.83322 0.21826 0.06508 0.0
H2315 H 0.93606 0.18144 0.90788 0.0
H2316 H 0.81665 0.21913 0.75459 0.0
H2317 H 0.83632 0.19396 0.75977 0.0
H2318 H 0.85884 0.24826 0.71962 0.0
H2319 H 0.8389 0.27038 0.71044 0.0
H2320 H 0.87096 0.21359 0.71226 0.0
H2321 H 0.85786 0.24 0.7973 0.0
H2322 H 0.84114 0.24547 0.83058 0.0
H2323 H 0.83253 0.16887 0.82824 0.0
H2324 H 0.84969 0.16279 0.79582 0.0
H2325 H 0.93139 0.17391 0.77656 0.0
H2326 H 0.91213 0.19951 0.76613 0.0
H2327 H 0.88764 0.13557 0.76675 0.0
H2328 H 0.90662 0.11018 0.77577 0.0
H2329 H 0.87787 0.1775 0.79714 0.0
H2330 H 0.89537 0.15622 0.71257 0.0
H2331 H 0.91312 0.15703 0.68098 0.0
H2332 H 0.91438 0.23528 0.68542 0.0
H2333 H 0.89673 0.23485 0.71726 0.0
C2334 C 0.82571 0.22482 0.74581 0.0
C2335 C 0.82623 0.24658 0.73197 0.0
C2336 C 0.83715 0.21099 0.74967 0.0
C2337 C 0.84948 0.2197 0.74157 0.0
C2338 C 0.8497 0.24075 0.72639 0.0
C2339 C 0.8382 0.25349 0.72102 0.0
C2340 C 0.86216 0.20747 0.74891 0.0
C2341 C 0.8724 0.20629 0.73109 0.0
C2342 C 0.86449 0.19772 0.77342 0.0
C2343 C 0.85502 0.20094 0.79428 0.0
C2344 C 0.85253 0.22428 0.80422 0.0
C2345 C 0.84304 0.22746 0.82298 0.0
C2346 C 0.83587 0.20746 0.83168 0.0
C2347 C 0.83828 0.18422 0.82183 0.0
C2348 C 0.848 0.18083 0.80354 0.0
C2349 C 0.92196 0.16535 0.77376 0.0
C2350 C 0.92057 0.13999 0.77693 0.0
C2351 C 0.91093 0.17998 0.76821 0.0
C2352 C 0.89837 0.16947 0.76616 0.0
C2353 C 0.89713 0.14417 0.76861 0.0
C2354 C 0.90806 0.12965 0.77351 0.0
C2355 C 0.88641 0.18419 0.76056 0.0
C2356 C 0.87635 0.18557 0.77863 0.0
C2357 C 0.88447 0.19529 0.73679 0.0
C2358 C 0.89486 0.19548 0.71738 0.0
C2359 C 0.8995 0.17356 0.70688 0.0
C2360 C 0.90952 0.17396 0.68894 0.0
C2361 C 0.9149 0.19619 0.68124 0.0
C2362 C 0.91023 0.21808 0.69141 0.0
C2363 C 0.90021 0.21777 0.70938 0.0
H2364 H 0.92268 0.19645 0.66737 0.0
H2365 H 0.8284 0.20998 0.84594 0.0
H2366 H 0.84548 0.60397 0.81133 0.0
H2367 H 0.86512 0.58087 0.80077 0.0
H2368 H 0.85439 0.5824 0.72198 0.0
H2369 H 0.83508 0.60766 0.73224 0.0
H2370 H 0.86503 0.53464 0.74816 0.0
H2371 H 0.87214 0.61876 0.73373 0.0
H2372 H 0.87305 0.66264 0.74267 0.0
H2373 H 0.90415 0.6509 0.7954 0.0
H2374 H 0.90238 0.60634 0.78945 0.0
H2375 H 0.92776 0.49798 0.70146 0.0
H2376 H 0.90737 0.52115 0.70611 0.0
H2377 H 0.91787 0.53897 0.78287 0.0
H2378 H 0.93804 0.51493 0.77854 0.0
H2379 H 0.90725 0.57863 0.75479 0.0
H2380 H 0.89648 0.4959 0.77641 0.0
H2381 H 0.89099 0.45205 0.77572 0.0
H2382 H 0.86696 0.46309 0.71009 0.0
H2383 H 0.87254 0.50673 0.71002 0.0
C2384 C 0.84717 0.59911 0.79172 0.0
C2385 C 0.83891 0.60819 0.7725 0.0
C2386 C 0.85845 0.58604 0.78577 0.0
C2387 C 0.86141 0.58074 0.76057 0.0
C2388 C 0.85235 0.58691 0.74153 0.0
C2389 C 0.84125 0.60099 0.74741 0.0
C2390 C 0.87416 0.56926 0.75442 0.0
C2391 C 0.87427 0.54434 0.74897 0.0
C2392 C 0.88619 0.582 0.75667 0.0
C2393 C 0.88676 0.60879 0.76171 0.0
C2394 C 0.87872 0.62517 0.74827 0.0
C2395 C 0.87938 0.65026 0.75289 0.0
C2396 C 0.88845 0.65944 0.77015 0.0
C2397 C 0.89684 0.64354 0.78283 0.0
C2398 C 0.89589 0.61833 0.77904 0.0
C2399 C 0.92603 0.50787 0.71891 0.0
C2400 C 0.93479 0.5054 0.73933 0.0
C2401 C 0.91421 0.52055 0.72176 0.0
C2402 C 0.91099 0.53147 0.74495 0.0
C2403 C 0.92013 0.53061 0.76481 0.0
C2404 C 0.93182 0.5174 0.76216 0.0
C2405 C 0.89813 0.54387 0.74843 0.0
C2406 C 0.898 0.56901 0.75361 0.0
C2407 C 0.88605 0.53138 0.74612 0.0
C2408 C 0.88506 0.50457 0.74305 0.0
C2409 C 0.89036 0.48884 0.76137 0.0
C2410 C 0.88709 0.46405 0.76131 0.0
C2411 C 0.87848 0.45486 0.74311 0.0
C2412 C 0.87356 0.47019 0.72428 0.0
C2413 C 0.87684 0.49491 0.72419 0.0
H2414 H 0.87574 0.43579 0.74341 0.0
H2415 H 0.88913 0.6789 0.7734 0.0
H2416 H 0.19252 0.97246 0.50691 0.0
H2417 H 0.17302 0.94637 0.51279 0.0
H2418 H 0.14956 0.9995 0.47336 0.0
H2419 H 0.16894 0.02362 0.4648 0.0
H2420 H 0.14707 0.97133 0.53768 0.0
H2421 H 0.14224 0.97489 0.44087 0.0
H2422 H 0.15212 0.96679 0.39923 0.0
H2423 H 0.1607 0.8932 0.42175 0.0
H2424 H 0.15149 0.9014 0.46411 0.0
H2425 H 0.08044 0.93035 0.5439 0.0
H2426 H 0.10024 0.9539 0.53327 0.0
H2427 H 0.11695 0.88954 0.49858 0.0
H2428 H 0.09699 0.86721 0.50709 0.0
H2429 H 0.12383 0.92297 0.47238 0.0
H2430 H 0.12295 0.91429 0.56371 0.0
H2431 H 0.11379 0.92022 0.60642 0.0
H2432 H 0.11643 0.99793 0.59761 0.0
H2433 H 0.12523 0.99252 0.55455 0.0
C2434 C 0.18336 0.97762 0.49809 0.0
C2435 C 0.18234 0.99982 0.48492 0.0
C2436 C 0.17217 0.96307 0.50197 0.0
C2437 C 0.15984 0.97093 0.49329 0.0
C2438 C 0.15899 0.99256 0.4794 0.0
C2439 C 0.17014 0.00627 0.47439 0.0
C2440 C 0.14761 0.95765 0.49953 0.0
C2441 C 0.14195 0.96058 0.52357 0.0
C2442 C 0.14097 0.94375 0.48114 0.0
C2443 C 0.14664 0.93905 0.4559 0.0
C2444 C 0.1466 0.95725 0.43722 0.0
C2445 C 0.15202 0.9526 0.41345 0.0
C2446 C 0.15716 0.92956 0.40792 0.0
C2447 C 0.15687 0.91112 0.42616 0.0
C2448 C 0.15164 0.91583 0.45011 0.0
C2449 C 0.08821 0.92173 0.53318 0.0
C2450 C 0.08719 0.89715 0.52597 0.0
C2451 C 0.09964 0.93494 0.5276 0.0
C2452 C 0.11035 0.92342 0.51561 0.0
C2453 C 0.10896 0.89908 0.50774 0.0
C2454 C 0.0975 0.88628 0.51252 0.0
C2455 C 0.12306 0.93611 0.51091 0.0
C2456 C 0.12885 0.93332 0.48694 0.0
C2457 C 0.12981 0.94981 0.52966 0.0
C2458 C 0.12465 0.95299 0.55574 0.0
C2459 C 0.1215 0.93265 0.57079 0.0
C2460 C 0.11637 0.93592 0.59508 0.0
C2461 C 0.11455 0.95943 0.60474 0.0
C2462 C 0.11784 0.97973 0.59011 0.0
C2463 C 0.12287 0.97657 0.56573 0.0
H2464 H 0.11061 0.96191 0.62357 0.0
H2465 H 0.16126 0.92593 0.38943 0.0
H2466 H 0.08656 0.24051 0.45162 0.0
H2467 H 0.10633 0.26496 0.4579 0.0
H2468 H 0.09185 0.2884 0.53056 0.0
H2469 H 0.07225 0.26285 0.52476 0.0
H2470 H 0.10344 0.326 0.49613 0.0
H2471 H 0.11157 0.24839 0.53385 0.0
H2472 H 0.11319 0.20357 0.53607 0.0
H2473 H 0.14253 0.20397 0.47805 0.0
H2474 H 0.14084 0.24878 0.4749 0.0
H2475 H 0.16653 0.34887 0.56118 0.0
H2476 H 0.14729 0.32498 0.54991 0.0
H2477 H 0.15376 0.34095 0.47118 0.0
H2478 H 0.17267 0.36669 0.48258 0.0
H2479 H 0.14594 0.28364 0.50779 0.0
H2480 H 0.13385 0.36175 0.46549 0.0
H2481 H 0.12917 0.40568 0.46144 0.0
H2482 H 0.10504 0.40295 0.52782 0.0
H2483 H 0.11009 0.35919 0.53288 0.0
C2484 C 0.08737 0.25168 0.46847 0.0
C2485 C 0.07774 0.25046 0.48741 0.0
C2486 C 0.09876 0.2652 0.47225 0.0
C2487 C 0.1006 0.27814 0.49481 0.0
C2488 C 0.0906 0.27837 0.51306 0.0
C2489 C 0.07933 0.26421 0.50959 0.0
C2490 C 0.11302 0.29132 0.49925 0.0
C2491 C 0.11275 0.31678 0.49881 0.0
C2492 C 0.12513 0.27908 0.50236 0.0
C2493 C 0.12594 0.25202 0.50389 0.0
C2494 C 0.11821 0.23895 0.52123 0.0
C2495 C 0.11917 0.21352 0.52272 0.0
C2496 C 0.12795 0.20097 0.5072 0.0
C2497 C 0.13573 0.21375 0.49004 0.0
C2498 C 0.13476 0.23916 0.48837 0.0
C2499 C 0.16398 0.34715 0.54136 0.0
C2500 C 0.17108 0.36006 0.5228 0.0
C2501 C 0.15289 0.33361 0.535 0.0
C2502 C 0.14873 0.33204 0.50984 0.0
C2503 C 0.15646 0.34285 0.49087 0.0
C2504 C 0.16747 0.35703 0.49732 0.0
C2505 C 0.13645 0.31856 0.50397 0.0
C2506 C 0.13669 0.29291 0.5047 0.0
C2507 C 0.12424 0.33058 0.50106 0.0
C2508 C 0.12281 0.35742 0.50013 0.0
C2509 C 0.12801 0.37071 0.47981 0.0
C2510 C 0.12515 0.39553 0.47715 0.0
C2511 C 0.11685 0.40713 0.4944 0.0
C2512 C 0.11149 0.39398 0.51449 0.0
C2513 C 0.11446 0.36924 0.51741 0.0
H2514 H 0.11457 0.4263 0.49219 0.0
H2515 H 0.1288 0.18136 0.50855 0.0
H2516 H 0.10193 0.38347 0.69073 0.0
H2517 H 0.12011 0.35787 0.69884 0.0
H2518 H 0.09744 0.31782 0.75392 0.0
H2519 H 0.08004 0.34859 0.75059 0.0
H2520 H 0.11812 0.31889 0.77213 0.0
H2521 H 0.11135 0.29879 0.68243 0.0
H2522 H 0.10891 0.30734 0.63678 0.0
H2523 H 0.14563 0.34531 0.63666 0.0
H2524 H 0.14827 0.33706 0.68219 0.0
H2525 H 0.16532 0.22616 0.78038 0.0
H2526 H 0.14659 0.25213 0.77248 0.0
H2527 H 0.17119 0.30251 0.73155 0.0
H2528 H 0.19001 0.2749 0.73776 0.0
H2529 H 0.1501 0.29487 0.70623 0.0
H2530 H 0.15683 0.31458 0.79467 0.0
H2531 H 0.1604 0.30362 0.83941 0.0
H2532 H 0.12417 0.26407 0.84019 0.0
H2533 H 0.12041 0.2747 0.79545 0.0
C2534 C 0.10082 0.36997 0.7055 0.0
C2535 C 0.08973 0.36965 0.72146 0.0
C2536 C 0.11123 0.35411 0.70915 0.0
C2537 C 0.1104 0.33497 0.72658 0.0
C2538 C 0.09864 0.33261 0.74055 0.0
C2539 C 0.08852 0.35004 0.73842 0.0
C2540 C 0.12222 0.31939 0.73201 0.0
C2541 C 0.12483 0.31324 0.75738 0.0
C2542 C 0.13162 0.31258 0.71327 0.0
C2543 C 0.12996 0.31738 0.68578 0.0
C2544 C 0.11887 0.30901 0.67267 0.0
C2545 C 0.11747 0.31379 0.6468 0.0
C2546 C 0.1271 0.32688 0.63385 0.0
C2547 C 0.13818 0.33515 0.64669 0.0
C2548 C 0.13965 0.33036 0.67249 0.0
C2549 C 0.16679 0.24303 0.77006 0.0
C2550 C 0.17907 0.2486 0.75962 0.0
C2551 C 0.15607 0.25802 0.76574 0.0
C2552 C 0.15744 0.27966 0.75189 0.0
C2553 C 0.16989 0.28596 0.74243 0.0
C2554 C 0.18067 0.27044 0.74621 0.0
C2555 C 0.14564 0.29455 0.74592 0.0
C2556 C 0.14314 0.30049 0.72062 0.0
C2557 C 0.13631 0.30099 0.76454 0.0
C2558 C 0.13834 0.29545 0.79173 0.0
C2559 C 0.14962 0.30359 0.80442 0.0
C2560 C 0.15168 0.29741 0.82976 0.0
C2561 C 0.14252 0.28316 0.84263 0.0
C2562 C 0.13124 0.27516 0.83022 0.0
C2563 C 0.12911 0.28133 0.80491 0.0
H2564 H 0.14416 0.27833 0.86222 0.0
H2565 H 0.12597 0.3306 0.61386 0.0
H2566 H 0.08693 0.01205 0.80188 0.0
H2567 H 0.10658 0.98746 0.79442 0.0
H2568 H 0.09095 0.96419 0.72264 0.0
H2569 H 0.07143 0.98954 0.72976 0.0
H2570 H 0.1037 0.92667 0.74975 0.0
H2571 H 0.11133 0.00571 0.71956 0.0
H2572 H 0.11364 0.05037 0.71666 0.0
H2573 H 0.14255 0.04906 0.77556 0.0
H2574 H 0.14023 0.00448 0.7792 0.0
H2575 H 0.17032 0.91491 0.69033 0.0
H2576 H 0.151 0.93899 0.70191 0.0
H2577 H 0.15191 0.90818 0.77674 0.0
H2578 H 0.17118 0.88361 0.76511 0.0
H2579 H 0.1458 0.97138 0.74572 0.0
H2580 H 0.13349 0.88496 0.77352 0.0
H2581 H 0.13059 0.84119 0.76477 0.0
H2582 H 0.10813 0.85834 0.6985 0.0
H2583 H 0.11169 0.90227 0.70596 0.0
C2584 C 0.08739 1.00069 0.78511 0.0
C2585 C 0.07743 0.00203 0.7668 0.0
C2586 C 0.09876 0.98712 0.78059 0.0
C2587 C 0.10031 0.97429 0.75783 0.0
C2588 C 0.08995 0.974 0.74033 0.0
C2589 C 0.07867 0.98804 0.74463 0.0
C2590 C 0.1129 0.9618 0.75213 0.0
C2591 C 0.11292 0.93644 0.74902 0.0
C2592 C 0.12489 0.97465 0.75043 0.0
C2593 C 0.12545 0.00172 0.74993 0.0
C2594 C 0.11796 0.01498 0.73232 0.0
C2595 C 0.11934 0.04029 0.73042 0.0
C2596 C 0.12826 0.05254 0.74586 0.0
C2597 C 0.13565 0.03958 0.76357 0.0
C2598 C 0.13429 0.01428 0.76561 0.0
C2599 C 0.16656 0.91369 0.70945 0.0
C2600 C 0.1722 0.89735 0.72682 0.0
C2601 C 0.15537 0.92701 0.71585 0.0
C2602 C 0.14941 0.92382 0.73948 0.0
C2603 C 0.15582 0.90955 0.75778 0.0
C2604 C 0.16706 0.89612 0.75141 0.0
C2605 C 0.13671 0.93606 0.7449 0.0
C2606 C 0.13663 0.96155 0.74727 0.0
C2607 C 0.1246 0.92339 0.74506 0.0
C2608 C 0.12345 0.89694 0.73966 0.0
C2609 C 0.12849 0.87945 0.75645 0.0
C2610 C 0.1266 0.85457 0.75184 0.0
C2611 C 0.1193 0.84696 0.73093 0.0
C2612 C 0.11385 0.86423 0.7146 0.0
C2613 C 0.11594 0.88911 0.71886 0.0
H2614 H 0.11778 0.8277 0.7275 0.0
H2615 H 0.12954 0.072 0.74387 0.0
H2616 H 0.82894 0.99763 0.45615 0.0
H2617 H 0.84876 0.02238 0.45356 0.0
H2618 H 0.84427 0.04307 0.53165 0.0
H2619 H 0.82502 0.01669 0.53513 0.0
H2620 H 0.85215 0.0789 0.47629 0.0
H2621 H 0.86348 0.01944 0.54283 0.0
H2622 H 0.86657 0.97921 0.56274 0.0
H2623 H 0.88809 0.95451 0.49786 0.0
H2624 H 0.88469 0.99435 0.47715 0.0
H2625 H 0.91459 0.13298 0.49748 0.0
H2626 H 0.89386 0.11179 0.50513 0.0
H2627 H 0.90539 0.05519 0.45294 0.0
H2628 H 0.92605 0.07681 0.44481 0.0
H2629 H 0.89395 0.03754 0.49742 0.0
H2630 H 0.88263 0.09416 0.43041 0.0
H2631 H 0.87949 0.13313 0.40783 0.0
H2632 H 0.85949 0.16295 0.47215 0.0
H2633 H 0.86199 0.12377 0.49471 0.0
C2634 C 0.832 0.00775 0.47273 0.0
C2635 C 0.82548 0.00468 0.49602 0.0
C2636 C 0.84341 0.02171 0.47123 0.0
C2637 C 0.84825 0.03364 0.49271 0.0
C2638 C 0.84092 0.03321 0.51512 0.0
C2639 C 0.8297 0.01862 0.51687 0.0
C2640 C 0.86099 0.04641 0.49138 0.0
C2641 C 0.86128 0.07007 0.48142 0.0
C2642 C 0.87292 0.0345 0.49718 0.0
C2643 C 0.8735 0.00968 0.50816 0.0
C2644 C 0.86846 0.00518 0.53242 0.0
C2645 C 0.8704 0.98253 0.54398 0.0
C2646 C 0.87757 0.96438 0.53164 0.0
C2647 C 0.88257 0.96863 0.50745 0.0
C2648 C 0.88054 0.99116 0.49571 0.0
C2649 C 0.91288 0.11552 0.48843 0.0
C2650 C 0.92205 0.10603 0.4712 0.0
C2651 C 0.90095 0.10373 0.49237 0.0
C2652 C 0.89801 0.08216 0.47929 0.0
C2653 C 0.90746 0.0719 0.46313 0.0
C2654 C 0.91934 0.08395 0.45885 0.0
C2655 C 0.88512 0.07019 0.48269 0.0
C2656 C 0.88481 0.04655 0.49269 0.0
C2657 C 0.87318 0.08209 0.4769 0.0
C2658 C 0.87273 0.10624 0.46441 0.0
C2659 C 0.87777 0.10917 0.43989 0.0
C2660 C 0.87604 0.13125 0.42704 0.0
C2661 C 0.86955 0.15068 0.43871 0.0
C2662 C 0.86462 0.14797 0.46319 0.0
C2663 C 0.8661 0.12579 0.47595 0.0
H2664 H 0.86822 0.16773 0.42868 0.0
H2665 H 0.87924 0.947 0.5408 0.0
H2666 H 0.82917 0.67844 0.46045 0.0
H2667 H 0.84921 0.70194 0.46908 0.0
H2668 H 0.86931 0.63507 0.48837 0.0
H2669 H 0.84924 0.61238 0.48194 0.0
H2670 H 0.87751 0.66478 0.51786 0.0
H2671 H 0.87395 0.67204 0.42462 0.0
H2672 H 0.86464 0.68461 0.3835 0.0
H2673 H 0.85898 0.75737 0.41151 0.0
H2674 H 0.86869 0.74552 0.45244 0.0
H2675 H 0.94274 0.72401 0.48872 0.0
H2676 H 0.92399 0.69557 0.48471 0.0
H2677 H 0.89803 0.75181 0.51192 0.0
H2678 H 0.91641 0.77903 0.51776 0.0
H2679 H 0.8942 0.72648 0.45759 0.0
H2680 H 0.89839 0.71939 0.54931 0.0
H2681 H 0.90988 0.70863 0.58871 0.0
H2682 H 0.91437 0.63484 0.56262 0.0
H2683 H 0.90318 0.64539 0.52271 0.0
C2684 C 0.83778 0.66908 0.46742 0.0
C2685 C 0.83761 0.64368 0.4709 0.0
C2686 C 0.84936 0.68236 0.47168 0.0
C2687 C 0.86102 0.67031 0.47878 0.0
C2688 C 0.86058 0.64503 0.483 0.0
C2689 C 0.84904 0.63201 0.47946 0.0
C2690 C 0.87367 0.68356 0.48266 0.0
C2691 C 0.88118 0.67789 0.50425 0.0
C2692 C 0.87856 0.70123 0.46549 0.0
C2693 C 0.87181 0.70778 0.44168 0.0
C2694 C 0.87055 0.69062 0.42209 0.0
C2695 C 0.86527 0.69764 0.39879 0.0
C2696 C 0.86103 0.72163 0.39502 0.0
C2697 C 0.86218 0.73875 0.41448 0.0
C2698 C 0.86764 0.73194 0.43767 0.0
C2699 C 0.93308 0.72987 0.49446 0.0
C2700 C 0.93101 0.75393 0.50274 0.0
C2701 C 0.92239 0.71381 0.49201 0.0
C2702 C 0.90963 0.72188 0.49766 0.0
C2703 C 0.90776 0.74532 0.50731 0.0
C2704 C 0.91833 0.76087 0.51049 0.0
C2705 C 0.8979 0.70704 0.49215 0.0
C2706 C 0.89054 0.71277 0.47058 0.0
C2707 C 0.89315 0.68944 0.50922 0.0
C2708 C 0.90023 0.68332 0.5328 0.0
C2709 C 0.90208 0.70101 0.55172 0.0
C2710 C 0.90847 0.69492 0.57421 0.0
C2711 C 0.91293 0.6711 0.57811 0.0
C2712 C 0.91099 0.65332 0.55952 0.0
C2713 C 0.90464 0.65936 0.53694 0.0
H2714 H 0.91782 0.66638 0.5956 0.0
H2715 H 0.85696 0.72699 0.37696 0.0
H2716 H 0.90545 0.61415 0.29411 0.0
H2717 H 0.88679 0.63918 0.28512 0.0
H2718 H 0.91178 0.69375 0.25178 0.0
H2719 H 0.93122 0.66961 0.26435 0.0
H2720 H 0.89255 0.71593 0.27562 0.0
H2721 H 0.89164 0.6494 0.21559 0.0
H2722 H 0.89269 0.606 0.20324 0.0
H2723 H 0.85943 0.59049 0.25013 0.0
H2724 H 0.85827 0.63372 0.26293 0.0
H2725 H 0.83762 0.76549 0.20686 0.0
H2726 H 0.85746 0.74173 0.21506 0.0
H2727 H 0.8377 0.70353 0.27505 0.0
H2728 H 0.81798 0.72858 0.2679 0.0
H2729 H 0.85446 0.67456 0.23625 0.0
H2730 H 0.8549 0.73993 0.29601 0.0
H2731 H 0.85426 0.78223 0.3118 0.0
H2732 H 0.88821 0.79971 0.26768 0.0
H2733 H 0.88887 0.75766 0.25109 0.0
C2734 C 0.90721 0.6317 0.28535 0.0
C2735 C 0.92007 0.63998 0.28068 0.0
C2736 C 0.89633 0.64588 0.27959 0.0
C2737 C 0.89762 0.66817 0.26691 0.0
C2738 C 0.91041 0.6765 0.26139 0.0
C2739 C 0.92154 0.66256 0.26827 0.0
C2740 C 0.88549 0.68221 0.25977 0.0
C2741 C 0.88436 0.70699 0.26647 0.0
C2742 C 0.87447 0.67055 0.2486 0.0
C2743 C 0.87488 0.64476 0.24019 0.0
C2744 C 0.88455 0.63671 0.22322 0.0
C2745 C 0.88517 0.61214 0.21618 0.0
C2746 C 0.87613 0.5955 0.22589 0.0
C2747 C 0.86641 0.6034 0.24258 0.0
C2748 C 0.86574 0.62794 0.24967 0.0
C2749 C 0.83729 0.75123 0.22104 0.0
C2750 C 0.82604 0.74833 0.23615 0.0
C2751 C 0.84875 0.73808 0.2261 0.0
C2752 C 0.84915 0.72113 0.24591 0.0
C2753 C 0.83764 0.71669 0.25977 0.0
C2754 C 0.82626 0.73056 0.25531 0.0
C2755 C 0.86161 0.70812 0.25194 0.0
C2756 C 0.86275 0.68356 0.24505 0.0
C2757 C 0.87255 0.72003 0.2629 0.0
C2758 C 0.8718 0.74568 0.27193 0.0
C2759 C 0.86208 0.75289 0.28925 0.0
C2760 C 0.86176 0.77681 0.29849 0.0
C2761 C 0.87119 0.79365 0.29078 0.0
C2762 C 0.88092 0.78664 0.27369 0.0
C2763 C 0.88125 0.76278 0.2643 0.0
H2764 H 0.87096 0.81214 0.298 0.0
H2765 H 0.87665 0.57647 0.22047 0.0
H2766 H 0.83024 0.07197 0.28697 0.0
H2767 H 0.85048 0.04919 0.27781 0.0
H2768 H 0.8694 0.11651 0.25623 0.0
H2769 H 0.84909 0.13851 0.26337 0.0
H2770 H 0.87811 0.08561 0.22787 0.0
H2771 H 0.8731 0.08493 0.31927 0.0
H2772 H 0.86257 0.0761 0.36027 0.0
H2773 H 0.86098 0.9999 0.34148 0.0
H2774 H 0.87147 0.00829 0.30039 0.0
H2775 H 0.94394 0.02861 0.25403 0.0
H2776 H 0.92523 0.05727 0.25757 0.0
H2777 H 0.89851 0.99828 0.24258 0.0
H2778 H 0.91656 0.97055 0.23778 0.0
H2779 H 0.89544 0.02766 0.29153 0.0
H2780 H 0.89949 0.03013 0.19932 0.0
H2781 H 0.91005 0.03972 0.15861 0.0
H2782 H 0.91374 0.1148 0.18082 0.0
H2783 H 0.90336 0.10555 0.22184 0.0
C2784 C 0.83862 0.08154 0.27933 0.0
C2785 C 0.83813 0.10684 0.27555 0.0
C2786 C 0.85028 0.06871 0.2747 0.0
C2787 C 0.86168 0.08118 0.26703 0.0
C2788 C 0.86086 0.10631 0.26214 0.0
C2789 C 0.84921 0.11889 0.26607 0.0
C2790 C 0.87453 0.06853 0.26399 0.0
C2791 C 0.88195 0.07334 0.24216 0.0
C2792 C 0.87963 0.0522 0.28232 0.0
C2793 C 0.87295 0.04728 0.30668 0.0
C2794 C 0.8704 0.06633 0.32381 0.0
C2795 C 0.86448 0.06139 0.34709 0.0
C2796 C 0.86108 0.03747 0.35344 0.0
C2797 C 0.8636 0.01842 0.33654 0.0
C2798 C 0.86956 0.02325 0.31328 0.0
C2799 C 0.93409 0.02194 0.25113 0.0
C2800 C 0.93184 0.99698 0.24656 0.0
C2801 C 0.92343 0.03826 0.25321 0.0
C2802 C 0.91051 0.02967 0.25075 0.0
C2803 C 0.90837 0.00521 0.24487 0.0
C2804 C 0.91883 0.98928 0.24234 0.0
C2805 C 0.89889 0.04512 0.25573 0.0
C2806 C 0.89165 0.04055 0.27776 0.0
C2807 C 0.89402 0.06185 0.2378 0.0
C2808 C 0.90093 0.06704 0.21383 0.0
C2809 C 0.9028 0.04857 0.19573 0.0
C2810 C 0.90868 0.05398 0.17253 0.0
C2811 C 0.91263 0.07782 0.16718 0.0
C2812 C 0.91073 0.09632 0.18503 0.0
C2813 C 0.90487 0.09099 0.20826 0.0
H2814 H 0.91711 0.082 0.14916 0.0
H2815 H 0.85652 0.03368 0.37148 0.0
H2816 H 0.60356 0.3672 0.54151 0.0
H2817 H 0.62248 0.39193 0.53203 0.0
H2818 H 0.5974 0.45266 0.51361 0.0
H2819 H 0.57797 0.42789 0.52437 0.0
H2820 H 0.61773 0.44149 0.47757 0.0
H2821 H 0.61362 0.45494 0.56722 0.0
H2822 H 0.61128 0.44263 0.61184 0.0
H2823 H 0.64744 0.40289 0.60767 0.0
H2824 H 0.64991 0.41462 0.56291 0.0
H2825 H 0.66952 0.52349 0.4616 0.0
H2826 H 0.65001 0.50068 0.47114 0.0
H2827 H 0.67264 0.45127 0.51749 0.0
H2828 H 0.69203 0.47709 0.51094 0.0
H2829 H 0.6526 0.45747 0.54069 0.0
H2830 H 0.65642 0.43866 0.45195 0.0
H2831 H 0.65924 0.4478 0.40659 0.0
H2832 H 0.62447 0.49188 0.40761 0.0
H2833 H 0.62152 0.48321 0.453 0.0
C2834 C 0.60193 0.38599 0.53602 0.0
C2835 C 0.58916 0.3958 0.53463 0.0
C2836 C 0.61285 0.40008 0.53049 0.0
C2837 C 0.6114 0.42431 0.52282 0.0
C2838 C 0.5987 0.43404 0.52001 0.0
C2839 C 0.58763 0.4199 0.526 0.0
C2840 C 0.62329 0.43864 0.51661 0.0
C2841 C 0.62529 0.44542 0.4914 0.0
C2842 C 0.63338 0.44262 0.53453 0.0
C2843 C 0.6319 0.43556 0.56156 0.0
C2844 C 0.62103 0.44341 0.57572 0.0
C2845 C 0.61969 0.43656 0.60107 0.0
C2846 C 0.62919 0.42196 0.61257 0.0
C2847 C 0.64007 0.41419 0.59874 0.0
C2848 C 0.64146 0.42097 0.57338 0.0
C2849 C 0.67045 0.50726 0.47316 0.0
C2850 C 0.68239 0.50182 0.48512 0.0
C2851 C 0.6592 0.49397 0.47854 0.0
C2852 C 0.65967 0.47346 0.49443 0.0
C2853 C 0.67187 0.4669 0.50506 0.0
C2854 C 0.68308 0.48125 0.50085 0.0
C2855 C 0.64729 0.46025 0.50125 0.0
C2856 C 0.64515 0.45359 0.52665 0.0
C2857 C 0.63718 0.45565 0.48335 0.0
C2858 C 0.63879 0.46037 0.45589 0.0
C2859 C 0.6494 0.45033 0.44249 0.0
C2860 C 0.65102 0.45544 0.41678 0.0
C2861 C 0.64205 0.47044 0.40424 0.0
C2862 C 0.63141 0.48026 0.41734 0.0
C2863 C 0.62974 0.47521 0.44304 0.0
H2864 H 0.64334 0.47441 0.38435 0.0
H2865 H 0.62814 0.41669 0.63219 0.0
H2866 H 0.57471 0.77373 0.45172 0.0
H2867 H 0.59204 0.80319 0.46181 0.0
H2868 H 0.59628 0.77015 0.53557 0.0
H2869 H 0.57767 0.74449 0.52713 0.0
H2870 H 0.60533 0.80809 0.54202 0.0
H2871 H 0.61185 0.75533 0.46812 0.0
H2872 H 0.6071 0.74237 0.42444 0.0
H2873 H 0.61912 0.81237 0.39661 0.0
H2874 H 0.62267 0.82663 0.44029 0.0
H2875 H 0.67325 0.82911 0.56101 0.0
H2876 H 0.65272 0.80776 0.55165 0.0
H2877 H 0.64737 0.85316 0.48573 0.0
H2878 H 0.66822 0.87324 0.49432 0.0
H2879 H 0.63909 0.81143 0.47503 0.0
H2880 H 0.63274 0.86252 0.55074 0.0
H2881 H 0.63667 0.87442 0.59516 0.0
H2882 H 0.62659 0.80231 0.61982 0.0
H2883 H 0.62292 0.78974 0.57558 0.0
C2884 C 0.57882 0.77398 0.4706 0.0
C2885 C 0.57496 0.75646 0.48848 0.0
C2886 C 0.5891 0.79026 0.47615 0.0
C2887 C 0.59631 0.78798 0.49887 0.0
C2888 C 0.5913 0.77243 0.51765 0.0
C2889 C 0.58052 0.7576 0.51281 0.0
C2890 C 0.60948 0.79982 0.50287 0.0
C2891 C 0.61269 0.80839 0.52727 0.0
C2892 C 0.6193 0.80106 0.48379 0.0
C2893 C 0.61732 0.79216 0.45756 0.0
C2894 C 0.61337 0.76804 0.45272 0.0
C2895 C 0.61086 0.76048 0.42794 0.0
C2896 C 0.61303 0.77636 0.40772 0.0
C2897 C 0.61745 0.80006 0.41227 0.0
C2898 C 0.61951 0.80802 0.43707 0.0
C2899 C 0.66793 0.83365 0.54393 0.0
C2900 C 0.67246 0.8523 0.52798 0.0
C2901 C 0.65602 0.82192 0.53892 0.0
C2902 C 0.6482 0.8293 0.51838 0.0
C2903 C 0.65313 0.84709 0.50175 0.0
C2904 C 0.66515 0.85838 0.50643 0.0
C2905 C 0.63484 0.81897 0.51406 0.0
C2906 C 0.63165 0.81082 0.48966 0.0
C2907 C 0.62518 0.81751 0.53325 0.0
C2908 C 0.62766 0.82515 0.55979 0.0
C2909 C 0.63148 0.84915 0.5656 0.0
C2910 C 0.63365 0.85601 0.59075 0.0
C2911 C 0.63185 0.83918 0.61027 0.0
C2912 C 0.62797 0.81536 0.60469 0.0
C2913 C 0.62587 0.80833 0.57959 0.0
H2914 H 0.63344 0.84463 0.62971 0.0
H2915 H 0.61121 0.77033 0.38854 0.0
H2916 H 0.66796 0.74122 0.7906 0.0
H2917 H 0.64944 0.76674 0.77786 0.0
H2918 H 0.67322 0.80062 0.72071 0.0
H2919 H 0.69173 0.77401 0.7325 0.0
H2920 H 0.65398 0.82925 0.76073 0.0
H2921 H 0.65946 0.76919 0.69751 0.0
H2922 H 0.66186 0.72867 0.67848 0.0
H2923 H 0.62192 0.71227 0.69637 0.0
H2924 H 0.61954 0.75203 0.71729 0.0
H2925 H 0.60328 0.89326 0.70272 0.0
H2926 H 0.62255 0.86909 0.7102 0.0
H2927 H 0.59867 0.80994 0.73767 0.0
H2928 H 0.57873 0.83368 0.72745 0.0
H2929 H 0.61874 0.79355 0.70793 0.0
H2930 H 0.61657 0.85215 0.77848 0.0
H2931 H 0.61509 0.89406 0.79545 0.0
H2932 H 0.64941 0.91436 0.75368 0.0
H2933 H 0.65102 0.87268 0.73636 0.0
C2934 C 0.66936 0.75467 0.77582 0.0
C2935 C 0.68129 0.75589 0.76268 0.0
C2936 C 0.65868 0.76865 0.76812 0.0
C2937 C 0.65978 0.78439 0.74744 0.0
C2938 C 0.67209 0.78782 0.73615 0.0
C2939 C 0.68273 0.77313 0.74327 0.0
C2940 C 0.64809 0.79811 0.73888 0.0
C2941 C 0.64633 0.82143 0.74902 0.0
C2942 C 0.63811 0.78766 0.72354 0.0
C2943 C 0.6396 0.76338 0.71079 0.0
C2944 C 0.65138 0.75663 0.69879 0.0
C2945 C 0.65269 0.73375 0.6873 0.0
C2946 C 0.64214 0.71764 0.68673 0.0
C2947 C 0.6302 0.72453 0.69731 0.0
C2948 C 0.62892 0.74721 0.70922 0.0
C2949 C 0.60195 0.87495 0.70999 0.0
C2950 C 0.58931 0.86527 0.71389 0.0
C2951 C 0.61312 0.86124 0.71469 0.0
C2952 C 0.61219 0.83784 0.72504 0.0
C2953 C 0.59965 0.82807 0.72974 0.0
C2954 C 0.58826 0.8417 0.7242 0.0
C2955 C 0.62445 0.82403 0.73085 0.0
C2956 C 0.62635 0.80088 0.72002 0.0
C2957 C 0.63475 0.83456 0.74512 0.0
C2958 C 0.63387 0.85938 0.75609 0.0
C2959 C 0.62377 0.86559 0.77292 0.0
C2960 C 0.62291 0.8893 0.78258 0.0
C2961 C 0.63214 0.90687 0.77563 0.0
C2962 C 0.64228 0.90075 0.75908 0.0
C2963 C 0.64318 0.87709 0.74939 0.0
H2964 H 0.63144 0.92522 0.78309 0.0
H2965 H 0.64315 0.69999 0.6777 0.0
H2966 H 0.56935 0.48572 0.7238 0.0
H2967 H 0.58841 0.45915 0.7154 0.0
H2968 H 0.60646 0.48448 0.78421 0.0
H2969 H 0.58738 0.50979 0.79315 0.0
H2970 H 0.61735 0.48284 0.71596 0.0
H2971 H 0.60705 0.44575 0.80409 0.0
H2972 H 0.59076 0.42441 0.83035 0.0
H2973 H 0.58484 0.37177 0.77121 0.0
H2974 H 0.60073 0.39347 0.74424 0.0
H2975 H 0.68112 0.4273 0.72182 0.0
H2976 H 0.66132 0.45076 0.73298 0.0
H2977 H 0.63821 0.38511 0.72622 0.0
H2978 H 0.65779 0.3618 0.71786 0.0
H2979 H 0.62884 0.40669 0.76137 0.0
H2980 H 0.6394 0.43693 0.67549 0.0
H2981 H 0.65412 0.4561 0.64426 0.0
H2982 H 0.6593 0.51771 0.69356 0.0
H2983 H 0.64456 0.49893 0.72492 0.0
C2984 C 0.57709 0.48445 0.73775 0.0
C2985 C 0.57665 0.49896 0.75967 0.0
C2986 C 0.58806 0.46971 0.73271 0.0
C2987 C 0.5988 0.46969 0.74932 0.0
C2988 C 0.59818 0.48369 0.77147 0.0
C2989 C 0.58718 0.4979 0.77675 0.0
C2990 C 0.61103 0.45625 0.74328 0.0
C2991 C 0.61994 0.46625 0.72594 0.0
C2992 C 0.61429 0.43436 0.75573 0.0
C2993 C 0.60479 0.42155 0.77199 0.0
C2994 C 0.60206 0.42995 0.79651 0.0
C2995 C 0.59293 0.41775 0.81154 0.0
C2996 C 0.5867 0.39683 0.8024 0.0
C2997 C 0.58959 0.38808 0.7782 0.0
C2998 C 0.5986 0.40039 0.763 0.0
C2999 C 0.67183 0.41796 0.72344 0.0
C3000 C 0.67099 0.3928 0.71865 0.0
C3001 C 0.66045 0.43141 0.72925 0.0
C3002 C 0.64808 0.41994 0.72977 0.0
C3003 C 0.64749 0.39464 0.72599 0.0
C3004 C 0.65876 0.38127 0.72105 0.0
C3005 C 0.63561 0.43356 0.73447 0.0
C3006 C 0.62648 0.42342 0.7514 0.0
C3007 C 0.63217 0.45524 0.72141 0.0
C3008 C 0.64094 0.46653 0.70251 0.0
C3009 C 0.6437 0.45455 0.67962 0.0
C3010 C 0.65203 0.46536 0.66189 0.0
C3011 C 0.65766 0.48809 0.66694 0.0
C3012 C 0.65492 0.50013 0.68965 0.0
C3013 C 0.64653 0.48948 0.70733 0.0
H3014 H 0.66415 0.49638 0.65325 0.0
H3015 H 0.57968 0.38734 0.81412 0.0
H3016 H 0.40855 0.63963 0.467 0.0
H3017 H 0.38889 0.61742 0.47592 0.0
H3018 H 0.41156 0.55252 0.49105 0.0
H3019 H 0.43166 0.57465 0.47886 0.0
H3020 H 0.3909 0.53917 0.46784 0.0
H3021 H 0.39489 0.59537 0.53967 0.0
H3022 H 0.3977 0.63647 0.55806 0.0
H3023 H 0.36346 0.66152 0.5187 0.0
H3024 H 0.36053 0.62067 0.49995 0.0
H3025 H 0.33986 0.48146 0.53742 0.0
H3026 H 0.35962 0.50477 0.52795 0.0
H3027 H 0.33641 0.55786 0.48785 0.0
H3028 H 0.31651 0.53372 0.49665 0.0
H3029 H 0.35669 0.57663 0.52201 0.0
H3030 H 0.35072 0.52218 0.454 0.0
H3031 H 0.34738 0.48364 0.43096 0.0
H3032 H 0.38431 0.45695 0.45783 0.0
H3033 H 0.38771 0.49494 0.48191 0.0
C3034 C 0.40948 0.62061 0.4723 0.0
C3035 C 0.42177 0.60893 0.472 0.0
C3036 C 0.3981 0.60788 0.47784 0.0
C3037 C 0.39852 0.58328 0.48505 0.0
C3038 C 0.41086 0.57155 0.48572 0.0
C3039 C 0.4224 0.58425 0.47914 0.0
C3040 C 0.38602 0.57009 0.49121 0.0
C3041 C 0.38359 0.54712 0.48023 0.0
C3042 C 0.376 0.58085 0.50626 0.0
C3043 C 0.37751 0.60502 0.51845 0.0
C3044 C 0.38796 0.60965 0.53503 0.0
C3045 C 0.38958 0.63291 0.54545 0.0
C3046 C 0.38077 0.65159 0.53955 0.0
C3047 C 0.37027 0.64703 0.5233 0.0
C3048 C 0.3686 0.62383 0.51284 0.0
C3049 C 0.3389 0.49854 0.52725 0.0
C3050 C 0.32666 0.50567 0.5174 0.0
C3051 C 0.35025 0.51156 0.52144 0.0
C3052 C 0.34957 0.5326 0.50649 0.0
C3053 C 0.33719 0.54131 0.49893 0.0
C3054 C 0.32582 0.52775 0.50413 0.0
C3055 C 0.36182 0.54557 0.49937 0.0
C3056 C 0.36413 0.56851 0.51001 0.0
C3057 C 0.37159 0.5348 0.48386 0.0
C3058 C 0.36935 0.51137 0.47026 0.0
C3059 C 0.35801 0.50792 0.45554 0.0
C3060 C 0.35613 0.48615 0.4422 0.0
C3061 C 0.36559 0.46777 0.44309 0.0
C3062 C 0.37695 0.47111 0.45735 0.0
C3063 C 0.37884 0.49275 0.47091 0.0
H3064 H 0.36416 0.45098 0.43264 0.0
H3065 H 0.38208 0.6696 0.54757 0.0
H3066 H 0.33519 0.14513 0.5069 0.0
H3067 H 0.35452 0.17027 0.51644 0.0
H3068 H 0.36246 0.17727 0.43679 0.0
H3069 H 0.34284 0.15367 0.4271 0.0
H3070 H 0.38359 0.1548 0.47023 0.0
H3071 H 0.35641 0.22441 0.45714 0.0
H3072 H 0.33649 0.24904 0.4634 0.0
H3073 H 0.34564 0.25675 0.54228 0.0
H3074 H 0.36551 0.23165 0.53654 0.0
H3075 H 0.43727 0.23781 0.46416 0.0
H3076 H 0.41703 0.21473 0.45869 0.0
H3077 H 0.40798 0.22488 0.53764 0.0
H3078 H 0.42836 0.24781 0.54315 0.0
H3079 H 0.38727 0.2383 0.50601 0.0
H3080 H 0.41574 0.16903 0.5169 0.0
H3081 H 0.43602 0.14631 0.50766 0.0
H3082 H 0.42465 0.13974 0.42975 0.0
H3083 H 0.40437 0.16276 0.43849 0.0
C3084 C 0.34069 0.15299 0.49143 0.0
C3085 C 0.33751 0.14715 0.46625 0.0
C3086 C 0.35186 0.16702 0.4969 0.0
C3087 C 0.36007 0.17513 0.4773 0.0
C3088 C 0.35636 0.17093 0.45219 0.0
C3089 C 0.34507 0.15759 0.44672 0.0
C3090 C 0.37296 0.18653 0.48284 0.0
C3091 C 0.38439 0.17309 0.47796 0.0
C3092 C 0.37403 0.2103 0.49299 0.0
C3093 C 0.36231 0.22585 0.49651 0.0
C3094 C 0.3541 0.23113 0.47588 0.0
C3095 C 0.34283 0.24521 0.47931 0.0
C3096 C 0.33976 0.25435 0.50326 0.0
C3097 C 0.34801 0.24956 0.52377 0.0
C3098 C 0.35927 0.23541 0.52044 0.0
C3099 C 0.43137 0.23386 0.48064 0.0
C3100 C 0.43469 0.2438 0.50429 0.0
C3101 C 0.41963 0.22112 0.47742 0.0
C3102 C 0.41092 0.21812 0.49775 0.0
C3103 C 0.41452 0.22694 0.52169 0.0
C3104 C 0.42635 0.23948 0.52497 0.0
C3105 C 0.39792 0.20643 0.4937 0.0
C3106 C 0.38647 0.21986 0.49868 0.0
C3107 C 0.39682 0.18271 0.48335 0.0
C3108 C 0.40857 0.16763 0.47833 0.0
C3109 C 0.41756 0.1627 0.4978 0.0
C3110 C 0.42907 0.14983 0.49265 0.0
C3111 C 0.43163 0.1416 0.46813 0.0
C3112 C 0.42264 0.14611 0.44874 0.0
C3113 C 0.41113 0.15902 0.45379 0.0
H3114 H 0.44057 0.13172 0.46415 0.0
H3115 H 0.33102 0.26521 0.5059 0.0
H3116 H 0.42026 0.14051 0.23954 0.0
H3117 H 0.40008 0.1633 0.23097 0.0
H3118 H 0.40203 0.19552 0.30534 0.0
H3119 H 0.42209 0.17238 0.31399 0.0
H3120 H 0.37835 0.17551 0.29656 0.0
H3121 H 0.40642 0.23138 0.25384 0.0
H3122 H 0.4247 0.24041 0.22496 0.0
H3123 H 0.40316 0.20958 0.16296 0.0
H3124 H 0.38479 0.2001 0.1916 0.0
H3125 H 0.32455 0.2558 0.28195 0.0
H3126 H 0.34442 0.2328 0.28981 0.0
H3127 H 0.34682 0.2146 0.2105 0.0
H3128 H 0.32744 0.2398 0.20242 0.0
H3129 H 0.36901 0.22827 0.22261 0.0
H3130 H 0.34071 0.17152 0.26491 0.0
H3131 H 0.32348 0.15845 0.29456 0.0
H3132 H 0.34585 0.18617 0.35703 0.0
H3133 H 0.36312 0.19977 0.32772 0.0
C3134 C 0.41669 0.15333 0.25356 0.0
C3135 C 0.4229 0.1552 0.27717 0.0
C3136 C 0.40508 0.16614 0.2488 0.0
C3137 C 0.39952 0.18121 0.26751 0.0
C3138 C 0.40611 0.18406 0.29061 0.0
C3139 C 0.41768 0.17117 0.2954 0.0
C3140 C 0.38642 0.19265 0.26354 0.0
C3141 C 0.37629 0.18715 0.28046 0.0
C3142 C 0.3837 0.20765 0.24247 0.0
C3143 C 0.39425 0.21498 0.22484 0.0
C3144 C 0.40557 0.2266 0.23403 0.0
C3145 C 0.41596 0.23174 0.21772 0.0
C3146 C 0.4151 0.22554 0.19214 0.0
C3147 C 0.4038 0.21439 0.18278 0.0
C3148 C 0.39337 0.20919 0.19902 0.0
C3149 C 0.32889 0.24576 0.26639 0.0
C3150 C 0.3242 0.24927 0.24161 0.0
C3151 C 0.34042 0.23266 0.27086 0.0
C3152 C 0.34728 0.22152 0.25086 0.0
C3153 C 0.34186 0.22299 0.22638 0.0
C3154 C 0.3305 0.23683 0.22179 0.0
C3155 C 0.36056 0.21033 0.25514 0.0
C3156 C 0.37086 0.21624 0.23847 0.0
C3157 C 0.36341 0.19532 0.27636 0.0
C3158 C 0.35313 0.18688 0.29407 0.0
C3159 C 0.34191 0.17496 0.28496 0.0
C3160 C 0.33214 0.16745 0.3017 0.0
C3161 C 0.33355 0.17154 0.32765 0.0
C3162 C 0.34476 0.18305 0.33692 0.0
C3163 C 0.35454 0.19065 0.32025 0.0
H3164 H 0.32596 0.16574 0.34058 0.0
H3165 H 0.42319 0.22939 0.17958 0.0
H3166 H 0.33349 0.57949 0.30343 0.0
H3167 H 0.35366 0.55648 0.29483 0.0
H3168 H 0.36439 0.60979 0.23841 0.0
H3169 H 0.34397 0.6316 0.24595 0.0
H3170 H 0.37124 0.56857 0.22256 0.0
H3171 H 0.3767 0.60765 0.30774 0.0
H3172 H 0.37151 0.6128 0.35312 0.0
H3173 H 0.37507 0.53547 0.36439 0.0
H3174 H 0.38037 0.52993 0.31922 0.0
H3175 H 0.43491 0.5252 0.20399 0.0
H3176 H 0.41774 0.55487 0.21432 0.0
H3177 H 0.41052 0.51647 0.28443 0.0
H3178 H 0.42918 0.49106 0.27659 0.0
H3179 H 0.40159 0.55271 0.29361 0.0
H3180 H 0.39345 0.50915 0.21267 0.0
H3181 H 0.39745 0.49894 0.1678 0.0
H3182 H 0.3964 0.57505 0.14853 0.0
H3183 H 0.39243 0.58565 0.19325 0.0
C3184 C 0.33991 0.58546 0.28836 0.0
C3185 C 0.33705 0.60681 0.27476 0.0
C3186 C 0.3516 0.57276 0.28395 0.0
C3187 C 0.36078 0.58176 0.26646 0.0
C3188 C 0.35753 0.60241 0.25202 0.0
C3189 C 0.34577 0.6147 0.25603 0.0
C3190 C 0.37383 0.57015 0.2629 0.0
C3191 C 0.37791 0.56507 0.23812 0.0
C3192 C 0.38244 0.56488 0.28315 0.0
C3193 C 0.37881 0.56839 0.31008 0.0
C3194 C 0.37628 0.59177 0.31988 0.0
C3195 C 0.37337 0.59475 0.34558 0.0
C3196 C 0.37291 0.57447 0.36159 0.0
C3197 C 0.37541 0.55117 0.35198 0.0
C3198 C 0.3784 0.54811 0.32637 0.0
C3199 C 0.43008 0.52416 0.22218 0.0
C3200 C 0.4331 0.50528 0.23912 0.0
C3201 C 0.41986 0.54054 0.22774 0.0
C3202 C 0.41193 0.53712 0.24937 0.0
C3203 C 0.41607 0.51987 0.26737 0.0
C3204 C 0.42681 0.50499 0.26277 0.0
C3205 C 0.39902 0.54986 0.25305 0.0
C3206 C 0.39496 0.55557 0.27788 0.0
C3207 C 0.39014 0.55461 0.23293 0.0
C3208 C 0.39283 0.54817 0.20626 0.0
C3209 C 0.39416 0.52366 0.19884 0.0
C3210 C 0.3964 0.51783 0.17345 0.0
C3211 C 0.39723 0.53634 0.15535 0.0
C3212 C 0.39579 0.56073 0.16257 0.0
C3213 C 0.39354 0.56666 0.1879 0.0
H3214 H 0.39895 0.53178 0.13571 0.0
H3215 H 0.37066 0.57681 0.38144 0.0
H3216 H 0.68647 0.98834 0.0258 0.0
H3217 H 0.66686 0.96283 0.03167 0.0
H3218 H 0.65371 0.98192 0.95675 0.0
H3219 H 0.67342 0.00658 0.95061 0.0
H3220 H 0.63508 0.99059 0.00011 0.0
H3221 H 0.66387 0.92758 0.96288 0.0
H3222 H 0.68446 0.90402 0.96365 0.0
H3223 H 0.67592 0.87958 0.03901 0.0
H3224 H 0.65534 0.90319 0.03873 0.0
H3225 H 0.57675 0.91634 0.00708 0.0
H3226 H 0.59596 0.93967 0.99271 0.0
H3227 H 0.62085 0.89369 0.03841 0.0
H3228 H 0.6027 0.8692 0.04944 0.0
H3229 H 0.63395 0.90042 0.00511 0.0
H3230 H 0.60877 0.96136 0.05056 0.0
H3231 H 0.5901 0.98847 0.06011 0.0
H3232 H 0.59293 0.02022 0.98609 0.0
H3233 H 0.61153 0.99314 0.97605 0.0
C3234 C 0.67966 0.98609 0.01026 0.0
C3235 C 0.68161 0.99864 0.98746 0.0
C3236 C 0.66839 0.97194 0.01374 0.0
C3237 C 0.65881 0.97073 0.99469 0.0
C3238 C 0.66098 0.98265 0.97165 0.0
C3239 C 0.67234 0.9963 0.96798 0.0
C3240 C 0.64636 0.9575 -0.00116 0.0
C3241 C 0.6347 0.97083 0.00119 0.0
C3242 C 0.64601 0.93194 0.00108 0.0
C3243 C 0.65813 0.91715 0.00078 0.0
C3244 C 0.66641 0.9172 0.97961 0.0
C3245 C 0.67808 0.90385 0.97997 0.0
C3246 C 0.6815 0.89032 0.00137 0.0
C3247 C 0.67325 0.89004 0.02243 0.0
C3248 C 0.66158 0.90335 0.02216 0.0
C3249 C 0.58637 0.91123 0.01383 0.0
C3250 C 0.58787 0.89137 0.03049 0.0
C3251 C 0.59739 0.92487 0.00595 0.0
C3252 C 0.61008 0.91927 0.01508 0.0
C3253 C 0.61141 0.89905 0.03105 0.0
C3254 C 0.6007 0.8851 0.03795 0.0
C3255 C 0.62222 0.93333 0.00813 0.0
C3256 C 0.63399 0.92019 0.00466 0.0
C3257 C 0.62274 0.95922 0.00665 0.0
C3258 C 0.61136 0.97495 0.01241 0.0
C3259 C 0.60531 0.97395 0.03625 0.0
C3260 C 0.59477 0.98935 0.04177 0.0
C3261 C 0.59029 0.00597 0.02367 0.0
C3262 C 0.59637 0.00728 5e-05 0.0
C3263 C 0.6069 0.99191 0.99443 0.0
H3264 H 0.58213 0.01788 0.02798 0.0
H3265 H 0.69055 0.88004 0.00162 0.0
H3266 H 0.56897 0.27351 0.01275 0.0
H3267 H 0.5886 0.29848 0.0205 0.0
H3268 H 0.60825 0.26238 0.95887 0.0
H3269 H 0.58854 0.23858 0.95022 0.0
H3270 H 0.6187 0.26448 0.02123 0.0
H3271 H 0.60726 0.30625 0.94019 0.0
H3272 H 0.59138 0.32919 0.91433 0.0
H3273 H 0.58771 0.38289 0.97315 0.0
H3274 H 0.60337 0.35988 -0.00042 0.0
H3275 H 0.68178 0.32412 0.02454 0.0
H3276 H 0.66234 0.3005 0.0116 0.0
H3277 H 0.63798 0.3635 0.02565 0.0
H3278 H 0.65697 0.38715 0.03595 0.0
H3279 H 0.62986 0.34587 0.98659 0.0
H3280 H 0.64063 0.31098 0.06705 0.0
H3281 H 0.65466 0.29054 0.09855 0.0
H3282 H 0.65783 0.22779 0.05021 0.0
H3283 H 0.64392 0.24799 0.01828 0.0
C3284 C 0.57718 0.2721 -0.00012 0.0
C3285 C 0.57707 0.25459 0.98043 0.0
C3286 C 0.58851 0.28585 0.00474 0.0
C3287 C 0.59992 0.2819 0.99051 0.0
C3288 C 0.59955 0.26566 0.97007 0.0
C3289 C 0.58817 0.25253 0.96475 0.0
C3290 C 0.61241 0.29405 0.99731 0.0
C3291 C 0.62126 0.2822 0.01357 0.0
C3292 C 0.61555 0.31734 0.9879 0.0
C3293 C 0.60629 0.33119 0.97194 0.0
C3294 C 0.60293 0.32277 0.94771 0.0
C3295 C 0.594 0.33581 0.93294 0.0
C3296 C 0.58849 0.35744 0.94213 0.0
C3297 C 0.59194 0.3661 0.96609 0.0
C3298 C 0.60083 0.35306 0.98097 0.0
C3299 C 0.67227 0.33285 0.02458 0.0
C3300 C 0.67099 0.35738 0.03207 0.0
C3301 C 0.66113 0.3193 0.01749 0.0
C3302 C 0.64856 0.33003 0.01803 0.0
C3303 C 0.64745 0.35459 0.02501 0.0
C3304 C 0.65843 0.36808 0.03137 0.0
C3305 C 0.63641 0.31653 0.01081 0.0
C3306 C 0.62751 0.3281 0.9944 0.0
C3307 C 0.63309 0.29337 0.0209 0.0
C3308 C 0.64136 0.2811 0.04014 0.0
C3309 C 0.64439 0.29289 0.06306 0.0
C3310 C 0.65231 0.28134 0.08101 0.0
C3311 C 0.65717 0.25792 0.07634 0.0
C3312 C 0.65408 0.24596 0.05377 0.0
C3313 C 0.64617 0.25743 0.03575 0.0
H3314 H 0.66331 0.24901 0.09025 0.0
H3315 H 0.58159 0.36753 0.93065 0.0
H3316 H 0.68997 0.27124 0.22464 0.0
H3317 H 0.66909 0.29338 0.22005 0.0
H3318 H 0.65584 0.2634 0.29082 0.0
H3319 H 0.67677 0.24233 0.29601 0.0
H3320 H 0.64063 0.26161 0.22838 0.0
H3321 H 0.6558 0.30739 0.30899 0.0
H3322 H 0.67366 0.33144 0.32819 0.0
H3323 H 0.67517 0.37706 0.26222 0.0
H3324 H 0.65747 0.35297 0.24257 0.0
H3325 H 0.57803 0.32143 0.22567 0.0
H3326 H 0.59687 0.29692 0.23996 0.0
H3327 H 0.6209 0.36173 0.23779 0.0
H3328 H 0.60232 0.38573 0.22623 0.0
H3329 H 0.63065 0.34106 0.26881 0.0
H3330 H 0.61738 0.30635 0.18678 0.0
H3331 H 0.60239 0.2852 0.1574 0.0
H3332 H 0.5998 0.22463 0.20864 0.0
H3333 H 0.61476 0.24543 0.23826 0.0
C3334 C 0.68287 0.27057 0.23982 0.0
C3335 C 0.68517 0.25586 0.26112 0.0
C3336 C 0.67085 0.2826 0.23688 0.0
C3337 C 0.66092 0.2796 0.25493 0.0
C3338 C 0.66341 0.2659 0.27673 0.0
C3339 C 0.67549 0.25442 0.27998 0.0
C3340 C 0.64793 0.29099 0.25137 0.0
C3341 C 0.63833 0.27906 0.23702 0.0
C3342 C 0.6451 0.31377 0.26219 0.0
C3343 C 0.65541 0.32845 0.2744 0.0
C3344 C 0.65999 0.32251 0.29862 0.0
C3345 C 0.67008 0.33612 0.30955 0.0
C3346 C 0.67555 0.35577 0.29643 0.0
C3347 C 0.67093 0.36186 0.27237 0.0
C3348 C 0.66088 0.34825 0.26134 0.0
C3349 C 0.58737 0.33023 0.22882 0.0
C3350 C 0.58883 0.35532 0.22428 0.0
C3351 C 0.59824 0.31618 0.23643 0.0
C3352 C 0.61074 0.32699 0.23879 0.0
C3353 C 0.6117 0.35237 0.23571 0.0
C3354 C 0.60096 0.36629 0.229 0.0
C3355 C 0.62302 0.3128 0.2441 0.0
C3356 C 0.63264 0.32386 0.25942 0.0
C3357 C 0.62604 0.28997 0.2326 0.0
C3358 C 0.61704 0.27755 0.21482 0.0
C3359 C 0.61356 0.28857 0.19178 0.0
C3360 C 0.60509 0.27662 0.17508 0.0
C3361 C 0.60012 0.25361 0.18117 0.0
C3362 C 0.60365 0.24245 0.20393 0.0
C3363 C 0.61213 0.25428 0.22066 0.0
H3364 H 0.59356 0.24441 0.16825 0.0
H3365 H 0.68336 0.36628 0.30492 0.0
H3366 H 0.67727 0.92204 0.19727 0.0
H3367 H 0.65699 0.94522 0.20378 0.0
H3368 H 0.6459 0.89578 0.26343 0.0
H3369 H 0.66619 0.87261 0.2568 0.0
H3370 H 0.62606 0.90227 0.22907 0.0
H3371 H 0.65554 0.95321 0.27624 0.0
H3372 H 0.67582 0.97698 0.28132 0.0
H3373 H 0.66365 0.02553 0.22208 0.0
H3374 H 0.64343 0.00166 0.21619 0.0
H3375 H 0.57517 0.98399 0.28163 0.0
H3376 H 0.59473 0.95839 0.27723 0.0
H3377 H 0.60108 0.98692 0.2024 0.0
H3378 H 0.58094 0.0107 0.20555 0.0
H3379 H 0.62314 0.99125 0.24584 0.0
H3380 H 0.59539 0.94009 0.19551 0.0
H3381 H 0.57512 0.91702 0.18788 0.0
H3382 H 0.5843 0.86938 0.24986 0.0
H3383 H 0.60443 0.89285 0.25849 0.0
C3384 C 0.67078 0.91687 0.21254 0.0
C3385 C 0.67354 0.89615 0.22723 0.0
C3386 C 0.65909 0.92987 0.21602 0.0
C3387 C 0.64989 0.92231 0.23417 0.0
C3388 C 0.65284 0.90203 0.24938 0.0
C3389 C 0.66455 0.88911 0.24597 0.0
C3390 C 0.63704 0.93506 0.23669 0.0
C3391 C 0.62545 0.92165 0.23313 0.0
C3392 C 0.63617 0.96049 0.24131 0.0
C3393 C 0.64802 0.97551 0.24562 0.0
C3394 C 0.65721 0.96889 0.26421 0.0
C3395 C 0.66871 0.98235 0.26721 0.0
C3396 C 0.67104 0.00271 0.25199 0.0
C3397 C 0.66184 0.00972 0.23383 0.0
C3398 C 0.65036 0.99623 0.23065 0.0
C3399 C 0.58031 0.98394 0.26374 0.0
C3400 C 0.57646 0.99974 0.24407 0.0
C3401 C 0.59167 0.96967 0.26147 0.0
C3402 C 0.5995 0.97125 0.23972 0.0
C3403 C 0.59527 0.9857 0.21948 0.0
C3404 C 0.58368 0.99917 0.22132 0.0
C3405 C 0.61229 0.95842 0.23828 0.0
C3406 C 0.62382 0.97183 0.24202 0.0
C3407 C 0.61312 0.93312 0.23349 0.0
C3408 C 0.60126 0.91854 0.22799 0.0
C3409 C 0.59298 0.92497 0.20781 0.0
C3410 C 0.58153 0.91179 0.20326 0.0
C3411 C 0.57838 0.89183 0.21848 0.0
C3412 C 0.58672 0.88494 0.23819 0.0
C3413 C 0.59813 0.89822 0.24296 0.0
H3414 H 0.56952 0.88161 0.21491 0.0
H3415 H 0.67997 0.01308 0.2543 0.0
H3416 H 0.42974 0.07764 0.95715 0.0
H3417 H 0.41013 0.05335 0.96708 0.0
H3418 H 0.39129 0.11811 0.99634 0.0
H3419 H 0.411 0.14156 0.98803 0.0
H3420 H 0.38461 0.0851 0.02432 0.0
H3421 H 0.38503 0.09073 0.93329 0.0
H3422 H 0.39322 0.08562 0.88971 0.0
H3423 H 0.39597 0.00816 0.90075 0.0
H3424 H 0.38783 0.01281 0.94447 0.0
H3425 H 0.3177 0.03187 0.99025 0.0
H3426 H 0.33733 0.05763 0.98414 0.0
H3427 H 0.3608 0.00369 0.02242 0.0
H3428 H 0.34131 0.9794 0.03051 0.0
H3429 H 0.36432 0.03113 0.96004 0.0
H3430 H 0.36586 0.03132 0.05609 0.0
H3431 H 0.35499 0.04027 0.09664 0.0
H3432 H 0.34686 0.11331 0.0717 0.0
H3433 H 0.35726 0.10439 0.03056 0.0
C3434 C 0.42156 0.08628 0.96663 0.0
C3435 C 0.42198 0.11126 0.97251 0.0
C3436 C 0.41023 0.07259 0.97174 0.0
C3437 C 0.39903 0.08389 0.98208 0.0
C3438 C 0.39972 0.10874 0.98855 0.0
C3439 C 0.41105 0.12215 0.98401 0.0
C3440 C 0.38657 0.07027 0.98662 0.0
C3441 C 0.38023 0.07348 0.01002 0.0
C3442 C 0.38064 0.05496 0.96819 0.0
C3443 C 0.38599 0.05217 0.94226 0.0
C3444 C 0.38752 0.07264 0.92652 0.0
C3445 C 0.3921 0.06982 0.90178 0.0
C3446 C 0.39515 0.04661 0.89252 0.0
C3447 C 0.39362 0.02614 0.90798 0.0
C3448 C 0.38901 0.02886 0.93273 0.0
C3449 C 0.32696 0.02623 0.99831 0.0
C3450 C 0.32798 0.00394 0.01122 0.0
C3451 C 0.33817 0.04065 0.99448 0.0
C3452 C 0.35049 0.03257 0.003 0.0
C3453 C 0.35139 0.01054 0.01622 0.0
C3454 C 0.34022 0.99675 0.02088 0.0
C3455 C 0.36263 0.04631 0.99743 0.0
C3456 C 0.36884 0.04293 0.97402 0.0
C3457 C 0.36837 0.06185 0.01553 0.0
C3458 C 0.362 0.06698 0.04006 0.0
C3459 C 0.36148 0.04907 0.05902 0.0
C3460 C 0.35545 0.05418 0.08215 0.0
C3461 C 0.35015 0.07729 0.08669 0.0
C3462 C 0.35087 0.09535 0.06809 0.0
C3463 C 0.35678 0.09024 0.04483 0.0
H3464 H 0.34556 0.08126 0.10467 0.0
H3465 H 0.39865 0.04453 0.87334 0.0
H3466 H 0.33223 0.68186 0.95186 0.0
H3467 H 0.35206 0.70521 0.96123 0.0
H3468 H 0.36708 0.64402 0.00398 0.0
H3469 H 0.34691 0.62205 0.99638 0.0
H3470 H 0.37677 0.67646 0.02392 0.0
H3471 H 0.38088 0.66766 0.92822 0.0
H3472 H 0.3723 0.67219 0.88476 0.0
H3473 H 0.36192 0.74663 0.90063 0.0
H3474 H 0.37017 0.74213 0.94432 0.0
H3475 H 0.4441 0.72721 0.01019 0.0
H3476 H 0.42549 0.69859 0.00517 0.0
H3477 H 0.39948 0.75934 0.99312 0.0
H3478 H 0.41699 0.78713 -0.00092 0.0
H3479 H 0.3977 0.7236 0.95521 0.0
H3480 H 0.3989 0.73267 0.04753 0.0
H3481 H 0.40778 0.72708 0.09053 0.0
H3482 H 0.40982 0.64963 0.07858 0.0
H3483 H 0.40107 0.65482 0.03542 0.0
C3484 C 0.33965 0.67394 0.96398 0.0
C3485 C 0.33799 0.65039 0.97379 0.0
C3486 C 0.35126 0.68691 0.96861 0.0
C3487 C 0.36169 0.6761 0.9821 0.0
C3488 C 0.3595 0.65307 0.99317 0.0
C3489 C 0.34785 0.64044 0.98907 0.0
C3490 C 0.37479 0.68835 0.98512 0.0
C3491 C 0.38139 0.68611 0.00844 0.0
C3492 C 0.38106 0.70171 0.9655 0.0
C3493 C 0.37559 0.70416 0.93972 0.0
C3494 C 0.37636 0.68465 0.9226 0.0
C3495 C 0.37169 0.68732 0.89789 0.0
C3496 C 0.36642 0.70961 0.89001 0.0
C3497 C 0.36589 0.7293 0.9068 0.0
C3498 C 0.37055 0.72669 0.93153 0.0
C3499 C 0.43442 0.73442 0.00654 0.0
C3500 C 0.43247 0.75982 0.00409 0.0
C3501 C 0.42379 0.71804 0.00364 0.0
C3502 C 0.41111 0.72688 0.99823 0.0
C3503 C 0.40916 0.75198 0.99672 0.0
C3504 C 0.41949 0.76802 -6e-05 0.0
C3505 C 0.39955 0.71095 0.99356 0.0
C3506 C 0.39319 0.71289 0.9701 0.0
C3507 C 0.39363 0.697 0.01281 0.0
C3508 C 0.39959 0.69418 0.03813 0.0
C3509 C 0.40147 0.71451 0.05393 0.0
C3510 C 0.4064 0.71139 0.07838 0.0
C3511 C 0.40943 0.68803 0.08724 0.0
C3512 C 0.40753 0.66772 0.07167 0.0
C3513 C 0.4026 0.67074 0.04722 0.0
H3514 H 0.41319 0.68565 0.10622 0.0
H3515 H 0.36287 0.71169 0.87085 0.0
H3516 H 0.43267 0.67446 0.77328 0.0
H3517 H 0.41342 0.69934 0.76123 0.0
H3518 H 0.38829 0.63771 0.77609 0.0
H3519 H 0.40705 0.61295 0.78537 0.0
H3520 H 0.37972 0.65541 0.73803 0.0
H3521 H 0.39221 0.69276 0.8178 0.0
H3522 H 0.40638 0.71477 0.84795 0.0
H3523 H 0.40974 0.77447 0.79579 0.0
H3524 H 0.39561 0.75276 0.76534 0.0
H3525 H 0.32003 0.72869 0.77071 0.0
H3526 H 0.3401 0.70431 0.77682 0.0
H3527 H 0.35737 0.7387 0.71167 0.0
H3528 H 0.33717 0.76164 0.70458 0.0
H3529 H 0.37001 0.73753 0.77268 0.0
H3530 H 0.3564 0.69546 0.6934 0.0
H3531 H 0.33964 0.67313 0.66912 0.0
H3532 H 0.33683 0.61988 0.72841 0.0
H3533 H 0.35335 0.64233 0.75332 0.0
C3534 C 0.42303 0.66627 0.77343 0.0
C3535 C 0.42147 0.64175 0.78069 0.0
C3536 C 0.41199 0.68058 0.76699 0.0
C3537 C 0.39923 0.67064 0.76805 0.0
C3538 C 0.39787 0.64608 0.77487 0.0
C3539 C 0.40874 0.63185 0.78047 0.0
C3540 C 0.38712 0.68476 0.7614 0.0
C3541 C 0.37772 0.67332 0.74589 0.0
C3542 C 0.38425 0.70829 0.77122 0.0
C3543 C 0.39304 0.72098 0.78916 0.0
C3544 C 0.39609 0.71046 0.81267 0.0
C3545 C 0.40407 0.72292 0.82985 0.0
C3546 C 0.40901 0.74595 0.82373 0.0
C3547 C 0.40594 0.7566 0.80047 0.0
C3548 C 0.39794 0.74425 0.78327 0.0
C3549 C 0.32783 0.72989 0.75692 0.0
C3550 C 0.32688 0.74635 0.73666 0.0
C3551 C 0.33938 0.71646 0.76074 0.0
C3552 C 0.35022 0.71995 0.7448 0.0
C3553 C 0.34909 0.73565 0.72406 0.0
C3554 C 0.33745 0.74833 0.71973 0.0
C3555 C 0.3629 0.70775 0.75003 0.0
C3556 C 0.37226 0.71962 0.76504 0.0
C3557 C 0.36567 0.68436 0.74042 0.0
C3558 C 0.35594 0.67073 0.72532 0.0
C3559 C 0.35208 0.67917 0.70138 0.0
C3560 C 0.34265 0.66648 0.68749 0.0
C3561 C 0.33714 0.64514 0.69725 0.0
C3562 C 0.34108 0.63644 0.72091 0.0
C3563 C 0.35046 0.64916 0.73492 0.0
H3564 H 0.32985 0.63531 0.68645 0.0
H3565 H 0.41518 0.75557 0.83705 0.0
H3566 H 0.34837 0.13585 0.75733 0.0
H3567 H 0.3688 0.11432 0.7494 0.0
H3568 H 0.35307 0.04993 0.7852 0.0
H3569 H 0.33274 0.07236 0.79462 0.0
H3570 H 0.3765 0.05666 0.8015 0.0
H3571 H 0.35814 0.05555 0.71843 0.0
H3572 H 0.34723 0.07458 0.68181 0.0
H3573 H 0.3804 0.1213 0.67052 0.0
H3574 H 0.39144 0.10278 0.70734 0.0
H3575 H 0.41724 0.96859 0.7535 0.0
H3576 H 0.39966 0.99675 0.75732 0.0
H3577 H 0.42613 0.05696 0.74721 0.0
H3578 H 0.44471 0.02815 0.74412 0.0
H3579 H 0.39904 0.05605 0.71833 0.0
H3580 H 0.41774 0.05145 0.80235 0.0
H3581 H 0.42744 0.02797 0.83743 0.0
H3582 H 0.39194 0.98685 0.84502 0.0
H3583 H 0.3821 0.0098 0.80967 0.0
C3584 C 0.34914 0.11683 0.76277 0.0
C3585 C 0.3389 0.1055 0.776 0.0
C3586 C 0.36085 0.10453 0.75831 0.0
C3587 C 0.36249 0.08028 0.76626 0.0
C3588 C 0.35205 0.06859 0.77874 0.0
C3589 C 0.34035 0.08117 0.78372 0.0
C3590 C 0.3753 0.06771 0.76245 0.0
C3591 C 0.38135 0.05647 0.78326 0.0
C3592 C 0.38185 0.06773 0.73877 0.0
C3593 C 0.37559 0.07787 0.71572 0.0
C3594 C 0.36311 0.06988 0.70812 0.0
C3595 C 0.35689 0.0806 0.68737 0.0
C3596 C 0.36311 0.09917 0.67387 0.0
C3597 C 0.3756 0.10692 0.681 0.0
C3598 C 0.38186 0.09628 0.70178 0.0
C3599 C 0.41981 0.98764 0.75261 0.0
C3600 C 0.43289 0.99569 0.74959 0.0
C3601 C 0.40944 0.00387 0.75444 0.0
C3602 C 0.41156 0.02891 0.75299 0.0
C3603 C 0.42434 0.03754 0.74863 0.0
C3604 C 0.43495 0.02104 0.74697 0.0
C3605 C 0.40017 0.04526 0.75738 0.0
C3606 C 0.39429 0.05686 0.73664 0.0
C3607 C 0.39362 0.04513 0.78099 0.0
C3608 C 0.39922 0.03228 0.80324 0.0
C3609 C 0.41202 0.03736 0.81145 0.0
C3610 C 0.41755 0.0241 0.83135 0.0
C3611 C 0.41034 0.00582 0.84334 0.0
C3612 C 0.39753 1.00095 0.83564 0.0
C3613 C 0.39196 0.01413 0.81571 0.0
H3614 H 0.41465 0.99555 0.85872 0.0
H3615 H 0.35825 0.10754 0.65788 0.0
H3616 H 1.00385 0.14113 0.80387 0.0
H3617 H 1.00443 0.17515 0.83336 0.0
H3618 H 0.99666 0.12607 0.89524 0.0
H3619 H 0.99609 0.09145 0.86557 0.0
H3620 H 0.9818 0.1708 0.89613 0.0
H3621 H 0.0268 0.1443 0.88618 0.0
H3622 H 0.04669 0.13428 0.86191 0.0
H3623 H 0.04717 0.20664 0.83076 0.0
H3624 H 0.02714 0.21695 0.85453 0.0
H3625 H 0.99922 0.24727 -0.00111 0.0
H3626 H 0.9962 0.21433 0.96805 0.0
H3627 H 0.01411 0.25902 0.91043 0.0
H3628 H 0.01785 0.29123 0.94171 0.0
H3629 H 0.02317 0.21717 0.90546 0.0
H3630 H 0.98007 0.24631 0.914 0.0
H3631 H 0.95909 0.25874 0.93303 0.0
H3632 H 0.95331 0.18608 0.96114 0.0
H3633 H 0.97443 0.17328 0.94278 0.0
C3634 C 1.00219 0.13741 0.82372 0.0
C3635 C 1.00001 0.11344 0.8324 0.0
C3636 C 1.00257 0.15697 0.84057 0.0
C3637 C 1.00071 0.15311 0.86649 0.0
C3638 C 0.99816 0.12937 0.87526 0.0
C3639 C 0.99791 0.10962 0.85835 0.0
C3640 C 1.00185 0.17384 0.88441 0.0
C3641 C 0.99089 0.18075 0.89861 0.0
C3642 C 0.0135 0.18757 0.8865 0.0
C3643 C 0.02543 0.1813 0.87196 0.0
C3644 C 0.03108 0.15798 0.87396 0.0
C3645 C 0.04239 0.15227 0.86033 0.0
C3646 C 0.04818 0.1698 0.84477 0.0
C3647 C 0.04267 0.19307 0.84279 0.0
C3648 C 0.03134 0.19886 0.85634 0.0
C3649 C 1.00261 0.24985 0.97966 0.0
C3650 C 0.00898 0.27149 0.9727 0.0
C3651 C 1.00072 0.23118 0.96195 0.0
C3652 C 1.00476 0.2342 0.93671 0.0
C3653 C 0.01098 0.25608 0.92976 0.0
C3654 C 0.01318 0.27445 0.94764 0.0
C3655 C 1.00314 0.21414 0.91788 0.0
C3656 C 0.01402 0.20737 0.90326 0.0
C3657 C 0.99127 0.20102 0.91495 0.0
C3658 C 0.97892 0.2089 0.92722 0.0
C3659 C 0.97445 0.23306 0.92459 0.0
C3660 C 0.96251 0.24016 0.9352 0.0
C3661 C 0.95489 0.22321 0.94824 0.0
C3662 C 0.95925 0.19919 0.95103 0.0
C3663 C 0.97121 0.192 0.94055 0.0
H3664 H 0.94555 0.22867 0.95593 0.0
H3665 H 0.05696 0.16535 0.83429 0.0
H3666 H 0.23431 0.9808 0.96038 0.0
H3667 H 0.23641 0.01303 0.92865 0.0
H3668 H 0.27438 0.03184 0.95838 0.0
H3669 H 0.27231 0.99999 0.99036 0.0
H3670 H 0.25911 0.07201 0.94833 0.0
H3671 H 0.27206 0.99783 0.90561 0.0
H3672 H 0.26684 0.9547 0.89698 0.0
H3673 H 0.23245 0.97642 0.85612 0.0
H3674 H 0.23727 0.01969 0.86507 0.0
H3675 H 0.27562 0.15361 0.85029 0.0
H3676 H 0.27658 0.11941 0.88017 0.0
H3677 H 0.24352 0.0861 0.84279 0.0
H3678 H 0.24331 0.11922 0.8119 0.0
H3679 H 0.25747 0.0517 0.85692 0.0
H3680 H 0.24243 0.12347 0.90114 0.0
H3681 H 0.24296 0.16521 0.91866 0.0
H3682 H 0.27786 0.14781 0.96021 0.0
H3683 H 0.27764 0.1061 0.94263 0.0
C3684 C 0.24308 0.99188 0.96029 0.0
C3685 C 0.25321 0.98762 0.97775 0.0
C3686 C 0.24429 0.01021 0.94205 0.0
C3687 C 0.25566 0.02456 0.94089 0.0
C3688 C 0.26558 0.02088 0.95882 0.0
C3689 C 0.26438 0.00258 0.97703 0.0
C3690 C 0.2573 0.04333 0.92091 0.0
C3691 C 0.25898 0.06761 0.92831 0.0
C3692 C 0.25679 0.03752 0.89485 0.0
C3693 C 0.25494 0.01197 0.88629 0.0
C3694 C 0.26341 0.99341 0.89468 0.0
C3695 C 0.26046 0.96894 0.88994 0.0
C3696 C 0.24918 0.96284 0.87646 0.0
C3697 C 0.24108 0.9812 0.86688 0.0
C3698 C 0.24393 0.00571 0.87175 0.0
C3699 C 0.26872 0.13874 0.84835 0.0
C3700 C 0.2594 0.13897 0.82889 0.0
C3701 C 0.26916 0.1193 0.86557 0.0
C3702 C 0.25987 0.10031 0.86435 0.0
C3703 C 0.2508 0.10036 0.84434 0.0
C3704 C 0.25065 0.11935 0.82669 0.0
C3705 C 0.25923 0.08092 0.88424 0.0
C3706 C 0.25777 0.05633 0.87686 0.0
C3707 C 0.25972 0.0865 0.91048 0.0
C3708 C 0.26013 0.11182 0.92026 0.0
C3709 C 0.2503 0.12866 0.91376 0.0
C3710 C 0.25053 0.15228 0.92376 0.0
C3711 C 0.26046 0.15918 0.94046 0.0
C3712 C 0.2702 0.14248 0.9472 0.0
C3713 C 0.27003 0.11887 0.9372 0.0
H3714 H 0.26059 0.17745 0.94825 0.0
H3715 H 0.24678 0.94387 0.87319 0.0
H3716 H 0.99854 0.16182 0.38146 0.0
H3717 H 0.9978 0.12763 0.35162 0.0
H3718 H 0.99919 0.07677 0.41376 0.0
H3719 H 0.99979 0.11062 0.44369 0.0
H3720 H 0.01818 0.06828 0.37681 0.0
H3721 H 0.97172 0.0821 0.38209 0.0
H3722 H 0.95127 0.10595 0.37976 0.0
H3723 H 0.95904 0.12279 0.3019 0.0
H3724 H 0.97963 0.09934 0.30388 0.0
H3725 H 0.00946 0.9601 0.30645 0.0
H3726 H 0.00616 0.99284 0.33715 0.0
H3727 H 1.00091 0.04439 0.27629 0.0
H3728 H 1.00393 0.01172 0.24546 0.0
H3729 H 0.98359 0.05203 0.31313 0.0
H3730 H 0.02951 0.04035 0.30628 0.0
H3731 H 0.05023 0.01731 0.30623 0.0
H3732 H 0.04464 0.99883 0.38428 0.0
H3733 H 0.02362 0.02109 0.38467 0.0
C3734 C 0.99851 0.14337 0.38878 0.0
C3735 C 0.99935 0.13896 0.41492 0.0
C3736 C 0.99805 0.12389 0.37173 0.0
C3737 C 0.99847 0.09976 0.38057 0.0
C3738 C 0.99889 0.0953 0.40663 0.0
C3739 C 0.99921 0.11471 0.42368 0.0
C3740 C 0.99929 0.07916 0.36263 0.0
C3741 C 0.01052 0.06444 0.36315 0.0
C3742 C 0.9895 0.07477 0.3443 0.0
C3743 C 0.97728 0.08925 0.34324 0.0
C3744 C 0.96914 0.09114 0.36457 0.0
C3745 C 0.9575 0.10451 0.36329 0.0
C3746 C 0.95388 0.11595 0.34073 0.0
C3747 C 0.96187 0.11398 0.31938 0.0
C3748 C 0.97352 0.10065 0.32057 0.0
C3749 C 0.00755 0.97839 0.29959 0.0
C3750 C 0.00719 0.98347 0.27356 0.0
C3751 C 0.0057 0.99705 0.31715 0.0
C3752 C 1.00352 0.02104 0.30892 0.0
C3753 C 1.00265 0.02597 0.28297 0.0
C3754 C 1.00445 0.00732 0.2654 0.0
C3755 C 1.00244 0.04114 0.32736 0.0
C3756 C 0.9912 0.05578 0.32689 0.0
C3757 C 0.01233 0.04571 0.34546 0.0
C3758 C 0.02491 0.03217 0.3454 0.0
C3759 C 0.03261 0.03112 0.32337 0.0
C3760 C 0.04439 0.01818 0.32329 0.0
C3761 C 0.04869 0.00648 0.34523 0.0
C3762 C 0.04122 0.00774 0.3673 0.0
C3763 C 0.02936 0.02049 0.36746 0.0
H3764 H 0.05785 0.99653 0.34517 0.0
H3765 H 0.94488 0.12633 0.33978 0.0
H3766 H 0.27127 0.13498 0.43826 0.0
H3767 H 0.27137 0.1686 0.40806 0.0
H3768 H 0.25162 0.12319 0.35336 0.0
H3769 H 0.25177 0.08922 0.38336 0.0
H3770 H 0.26853 0.14934 0.3296 0.0
H3771 H 0.23466 0.1687 0.38871 0.0
H3772 H 0.22176 0.18114 0.42595 0.0
H3773 H 0.2488 0.23931 0.44085 0.0
H3774 H 0.26189 0.22719 0.40366 0.0
H3775 H 0.23989 0.23868 0.25184 0.0
H3776 H 0.24405 0.20589 0.28222 0.0
H3777 H 0.26501 0.25651 0.33002 0.0
H3778 H 0.26013 0.28958 0.30023 0.0
H3779 H 0.2503 0.22899 0.35701 0.0
H3780 H 0.28111 0.21258 0.29069 0.0
H3781 H 0.2874 0.20666 0.24606 0.0
H3782 H 0.26211 0.14435 0.24106 0.0
H3783 H 0.25558 0.15 0.28562 0.0
C3784 C 0.26704 0.13207 0.41972 0.0
C3785 C 0.26142 0.10945 0.4133 0.0
C3786 C 0.26703 0.15139 0.4025 0.0
C3787 C 0.26128 0.14865 0.37855 0.0
C3788 C 0.25611 0.1258 0.37173 0.0
C3789 C 0.25621 0.10635 0.38891 0.0
C3790 C 0.26041 0.16971 0.36086 0.0
C3791 C 0.26448 0.16671 0.33561 0.0
C3792 C 0.25546 0.19268 0.36865 0.0
C3793 C 0.2493 0.19688 0.39358 0.0
C3794 C 0.23805 0.18372 0.40032 0.0
C3795 C 0.23062 0.1909 0.42121 0.0
C3796 C 0.23435 0.21122 0.43542 0.0
C3797 C 0.24585 0.22374 0.42959 0.0
C3798 C 0.2533 0.21669 0.40866 0.0
C3799 C 0.24508 0.24278 0.2692 0.0
C3800 C 0.24948 0.26651 0.27416 0.0
C3801 C 0.2477 0.22402 0.28625 0.0
C3802 C 0.2552 0.22857 0.30802 0.0
C3803 C 0.25929 0.25254 0.31326 0.0
C3804 C 0.25638 0.27144 0.29647 0.0
C3805 C 0.25822 0.20855 0.32591 0.0
C3806 C 0.25466 0.21179 0.3512 0.0
C3807 C 0.26346 0.18586 0.318 0.0
C3808 C 0.26784 0.18173 0.29153 0.0
C3809 C 0.2769 0.1976 0.28009 0.0
C3810 C 0.28049 0.19431 0.25479 0.0
C3811 C 0.27515 0.17515 0.24073 0.0
C3812 C 0.26626 0.15915 0.25199 0.0
C3813 C 0.26264 0.16234 0.2773 0.0
H3814 H 0.27789 0.1727 0.22111 0.0
H3815 H 0.22826 0.21727 0.45091 0.0
H3816 H 0.0211 0.86805 0.18399 0.0
H3817 H 0.02026 0.83332 0.1548 0.0
H3818 H 0.99474 0.87411 0.10544 0.0
H3819 H 0.99563 0.90904 0.1345 0.0
H3820 H 0.98615 0.82447 0.11876 0.0
H3821 H 0.02474 0.86764 0.08634 0.0
H3822 H 0.04611 0.88701 0.09448 0.0
H3823 H 0.06094 0.81944 0.12409 0.0
H3824 H 0.03961 0.79974 0.11621 0.0
H3825 H 0.98302 0.75382 0.00813 0.0
H3826 H 0.98549 0.78633 0.03966 0.0
H3827 H 0.0196 0.75003 0.06992 0.0
H3828 H 0.01761 0.71854 0.03743 0.0
H3829 H 0.02459 0.79505 0.07012 0.0
H3830 H 0.98881 0.74961 0.10107 0.0
H3831 H 0.96772 0.72786 0.09947 0.0
H3832 H 0.948 0.79474 0.08081 0.0
H3833 H 0.96901 0.81683 0.08201 0.0
C3834 C 0.01537 0.86964 0.16682 0.0
C3835 C 0.00842 0.8912 0.1615 0.0
C3836 C 0.01492 0.84983 0.15019 0.0
C3837 C 0.0074 0.85116 0.12804 0.0
C3838 C 1.00057 0.87276 0.1225 0.0
C3839 C 1.00117 0.89274 0.13897 0.0
C3840 C 0.00655 0.82995 0.11069 0.0
C3841 C 0.99448 0.81819 0.10782 0.0
C3842 C 0.01759 0.82098 0.09757 0.0
C3843 C 0.03061 0.8323 0.10079 0.0
C3844 C 0.03258 0.85694 0.09454 0.0
C3845 C 0.04467 0.86797 0.09915 0.0
C3846 C 0.05485 0.8545 0.10994 0.0
C3847 C 0.05302 0.82987 0.11582 0.0
C3848 C 0.04096 0.81874 0.11119 0.0
C3849 C 0.99101 0.75287 0.02157 0.0
C3850 C 1.00012 0.73379 0.02036 0.0
C3851 C 0.99239 0.77133 0.03969 0.0
C3852 C 1.00263 0.77053 0.05756 0.0
C3853 C 0.01166 0.75124 0.05639 0.0
C3854 C 0.01048 0.73319 0.03785 0.0
C3855 C 1.00396 0.78991 0.07724 0.0
C3856 C 0.01618 0.80119 0.08089 0.0
C3857 C 0.99313 0.79792 0.09179 0.0
C3858 C 0.98047 0.78482 0.09144 0.0
C3859 C 0.97997 0.75964 0.09651 0.0
C3860 C 0.96804 0.74726 0.09569 0.0
C3861 C 0.95653 0.7599 0.08999 0.0
C3862 C 0.95693 0.78497 0.08521 0.0
C3863 C 0.96884 0.79744 0.086 0.0
H3864 H 0.9473 0.75028 0.08932 0.0
H3865 H 0.06418 0.86313 0.11364 0.0
H3866 H 0.77954 0.01208 0.01948 0.0
H3867 H 0.77683 0.97855 0.04961 0.0
H3868 H 0.73497 0.98217 0.03997 0.0
H3869 H 0.73757 0.0155 0.00978 0.0
H3870 H 0.74234 0.98334 0.08965 0.0
H3871 H 0.74985 0.93033 0.0184 0.0
H3872 H 0.76138 0.91589 0.98035 0.0
H3873 H 0.79708 0.90965 0.02275 0.0
H3874 H 0.78554 0.92306 0.06141 0.0
H3875 H 0.73083 0.86789 0.15824 0.0
H3876 H 0.73045 0.90191 0.12771 0.0
H3877 H 0.77237 0.9085 0.13421 0.0
H3878 H 0.77272 0.87459 0.1644 0.0
H3879 H 0.76332 0.90188 0.08481 0.0
H3880 H 0.75557 0.97912 0.14473 0.0
H3881 H 0.74284 0.00557 0.17335 0.0
H3882 H 0.70738 0.97007 0.15018 0.0
H3883 H 0.71993 0.94388 0.12086 0.0
C3884 C 0.76977 0.00551 0.02352 0.0
C3885 C 0.75878 0.01654 0.01232 0.0
C3886 C 0.76824 0.98627 0.04064 0.0
C3887 C 0.7557 0.97779 0.04692 0.0
C3888 C 0.74474 0.98839 0.03533 0.0
C3889 C 0.74626 0.00743 0.01803 0.0
C3890 C 0.75396 0.95911 0.06694 0.0
C3891 C 0.74676 0.96534 0.08848 0.0
C3892 C 0.7599 0.93591 0.0656 0.0
C3893 C 0.76689 0.92782 0.04263 0.0
C3894 C 0.76017 0.92591 0.01956 0.0
C3895 C 0.7667 0.91787 0.99791 0.0
C3896 C 0.78003 0.91222 -0.00102 0.0
C3897 C 0.78678 0.91414 0.02189 0.0
C3898 C 0.78022 0.92171 0.04374 0.0
C3899 C 0.73992 0.87669 0.15301 0.0
C3900 C 0.75185 0.86846 0.16313 0.0
C3901 C 0.73968 0.89636 0.13596 0.0
C3902 C 0.75137 0.90808 0.12897 0.0
C3903 C 0.76322 0.89998 0.13954 0.0
C3904 C 0.76345 0.88047 0.15653 0.0
C3905 C 0.75169 0.92608 0.10794 0.0
C3906 C 0.75876 0.91974 0.08606 0.0
C3907 C 0.7456 0.94928 0.10901 0.0
C3908 C 0.73873 0.95893 0.13137 0.0
C3909 C 0.74511 0.9764 0.14642 0.0
C3910 C 0.7379 0.99173 0.1623 0.0
C3911 C 0.72431 0.98955 0.16353 0.0
C3912 C 0.71792 0.97171 0.14922 0.0
C3913 C 0.72509 0.95651 0.13306 0.0
H3914 H 0.71873 0.00158 0.17568 0.0
H3915 H 0.78509 0.90622 0.98211 0.0
H3916 H 1.00403 0.88735 0.5462 0.0
H3917 H 1.00374 0.92176 0.57542 0.0
H3918 H 0.01747 0.87481 0.63541 0.0
H3919 H 0.01698 0.83998 0.60649 0.0
H3920 H 0.99867 0.89847 0.65278 0.0
H3921 H 0.03617 0.92369 0.60535 0.0
H3922 H 0.04958 0.93501 0.56843 0.0
H3923 H 0.02309 0.99356 0.55125 0.0
H3924 H 0.00927 0.98214 0.58755 0.0
H3925 H 0.01236 0.98846 0.74197 0.0
H3926 H 0.0147 0.9582 0.7089 0.0
H3927 H 0.99228 0.00333 0.65796 0.0
H3928 H 0.99009 0.03448 0.69113 0.0
H3929 H 0.01476 0.98226 0.63593 0.0
H3930 H 0.97764 0.95646 0.68487 0.0
H3931 H 0.96676 0.94863 0.72566 0.0
H3932 H 0.99508 0.89314 0.74287 0.0
H3933 H 0.00626 0.90087 0.70229 0.0
C3934 C 0.00722 0.88441 0.5655 0.0
C3935 C 0.01045 0.86087 0.57408 0.0
C3936 C 0.00711 0.90422 0.58224 0.0
C3937 C 0.01063 0.90107 0.60775 0.0
C3938 C 0.01459 0.87778 0.61593 0.0
C3939 C 0.01439 0.85787 0.59934 0.0
C3940 C 0.00911 0.9214 0.62634 0.0
C3941 C 1.00238 0.91664 0.64907 0.0
C3942 C 0.01358 0.94548 0.62149 0.0
C3943 C 0.02158 0.95179 0.599 0.0
C3944 C 0.03307 0.93871 0.59345 0.0
C3945 C 0.04075 0.94517 0.57263 0.0
C3946 C 0.03711 0.96484 0.55737 0.0
C3947 C 0.0258 0.97815 0.56292 0.0
C3948 C 0.01803 0.97167 0.58359 0.0
C3949 C 0.00794 0.99219 0.72376 0.0
C3950 C 1.00099 0.01393 0.71924 0.0
C3951 C 0.00927 0.97475 0.70488 0.0
C3952 C 1.00354 0.97843 0.68115 0.0
C3953 C 0.99673 1.00019 0.67627 0.0
C3954 C 0.9954 0.01783 0.69526 0.0
C3955 C 1.00448 0.95902 0.66185 0.0
C3956 C 0.01104 0.964 0.63921 0.0
C3957 C 1.0 0.93513 0.66683 0.0
C3958 C 0.99279 0.92924 0.69049 0.0
C3959 C 0.98153 0.94253 0.69731 0.0
C3960 C 0.97533 0.93816 0.72043 0.0
C3961 C 0.98022 0.9204 0.73685 0.0
C3962 C 0.99129 0.90686 0.7301 0.0
C3963 C 0.99754 0.91119 0.707 0.0
H3964 H 0.97545 0.91711 0.7548 0.0
H3965 H 0.04309 0.96987 0.54132 0.0
H3966 H 0.77624 0.7526 0.73806 0.0
H3967 H 0.7738 0.78643 0.7078 0.0
H3968 H 0.73842 0.75371 0.67906 0.0
H3969 H 0.74063 0.72045 0.70959 0.0
H3970 H 0.75369 0.77031 0.64092 0.0
H3971 H 0.7352 0.79879 0.71608 0.0
H3972 H 0.73273 0.8091 0.76119 0.0
H3973 H 0.76425 0.86046 0.75557 0.0
H3974 H 0.76712 0.8501 0.71045 0.0
H3975 H 0.73391 0.87444 0.56917 0.0
H3976 H 0.73325 0.84147 0.60044 0.0
H3977 H 0.76655 0.87302 0.6386 0.0
H3978 H 0.76652 0.9069 0.60858 0.0
H3979 H 0.75087 0.85557 0.67197 0.0
H3980 H 0.76492 0.82419 0.5883 0.0
H3981 H 0.7596 0.81585 0.54369 0.0
H3982 H 0.72901 0.76698 0.56649 0.0
H3983 H 0.73351 0.77634 0.61119 0.0
C3984 C 0.76803 0.7526 0.72508 0.0
C3985 C 0.7586 0.73402 0.72616 0.0
C3986 C 0.7666 0.77193 0.70793 0.0
C3987 C 0.75588 0.77265 0.69125 0.0
C3988 C 0.74675 0.75357 0.69174 0.0
C3989 C 0.748 0.73463 0.70924 0.0
C3990 C 0.75396 0.79355 0.67369 0.0
C3991 C 0.75306 0.78899 0.64765 0.0
C3992 C 0.75276 0.81779 0.68256 0.0
C3993 C 0.7515 0.82342 0.70992 0.0
C3994 C 0.74175 0.81201 0.72452 0.0
C3995 C 0.74023 0.81795 0.75005 0.0
C3996 C 0.74829 0.83548 0.76115 0.0
C3997 C 0.75799 0.84694 0.74685 0.0
C3998 C 0.75959 0.84101 0.72131 0.0
C3999 C 0.74091 0.8745 0.58457 0.0
C4000 C 0.75026 0.89319 0.58647 0.0
C4001 C 0.74064 0.8555 0.60229 0.0
C4002 C 0.75016 0.85412 0.62149 0.0
C4003 C 0.75917 0.87339 0.6239 0.0
C4004 C 0.75914 0.89283 0.60673 0.0
C4005 C 0.75107 0.83262 0.63886 0.0
C4006 C 0.75173 0.837 0.66505 0.0
C4007 C 0.75138 0.80804 0.63012 0.0
C4008 C 0.74942 0.80134 0.60316 0.0
C4009 C 0.75701 0.81179 0.58383 0.0
C4010 C 0.75406 0.807 0.55849 0.0
C4011 C 0.74392 0.79097 0.55228 0.0
C4012 C 0.73678 0.77954 0.57134 0.0
C4013 C 0.73945 0.78477 0.59667 0.0
H4014 H 0.74153 0.78736 0.53273 0.0
H4015 H 0.74708 0.84007 0.78087 0.0
H4016 H 0.98966 0.77999 0.46851 0.0
H4017 H 0.98572 0.74629 0.43884 0.0
H4018 H 0.02539 0.72141 0.44965 0.0
H4019 H 0.02917 0.75467 0.47986 0.0
H4020 H 0.01868 0.72587 0.39905 0.0
H4021 H 1.00023 0.69081 0.47521 0.0
H4022 H 0.98524 0.68962 0.5117 0.0
H4023 H 0.9522 0.69168 0.46152 0.0
H4024 H 0.967 0.69356 0.42479 0.0
H4025 H 0.01932 0.60403 0.35108 0.0
H4026 H 0.02007 0.64017 0.37869 0.0
H4027 H 0.9811 0.66003 0.35504 0.0
H4028 H 0.98053 0.62443 0.32676 0.0
H4029 H 0.98541 0.66078 0.40899 0.0
H4030 H 1.00245 0.6949 0.33335 0.0
H4031 H 0.01633 0.7007 0.29568 0.0
H4032 H 0.0506 0.70242 0.34244 0.0
H4033 H 0.03698 0.69675 0.38047 0.0
C4034 C 0.99736 0.76679 0.46526 0.0
C4035 C 0.00958 0.76933 0.47716 0.0
C4036 C 0.99516 0.7477 0.44806 0.0
C4037 C 0.00525 0.73122 0.44206 0.0
C4038 C 0.01744 0.73381 0.45404 0.0
C4039 C 0.01956 0.75261 0.4715 0.0
C4040 C 1.00335 0.71172 0.42275 0.0
C4041 C 0.01152 0.71145 0.40139 0.0
C4042 C 0.9936 0.69355 0.42516 0.0
C4043 C 0.98472 0.69263 0.44727 0.0
C4044 C 0.98977 0.69132 0.47198 0.0
C4045 C 0.9813 0.69052 0.49272 0.0
C4046 C 0.96777 0.69074 0.48896 0.0
C4047 C 0.96268 0.69169 0.46445 0.0
C4048 C 0.9711 0.69265 0.44366 0.0
C4049 C 0.01085 0.6159 0.35217 0.0
C4050 C 0.99975 0.61123 0.3373 0.0
C4051 C 0.01135 0.63669 0.36762 0.0
C4052 C 1.00066 0.65285 0.3688 0.0
C4053 C 0.98946 0.64785 0.35438 0.0
C4054 C 0.9891 0.62745 0.33844 0.0
C4055 C 1.00108 0.67444 0.38582 0.0
C4056 C 0.99257 0.67521 0.40663 0.0
C4057 C 0.0104 0.69326 0.38272 0.0
C4058 C 0.0187 0.69506 0.35977 0.0
C4059 C 0.01297 0.69612 0.33559 0.0
C4060 C 0.02077 0.69952 0.31417 0.0
C4061 C 0.03432 0.70176 0.31663 0.0
C4062 C 0.04011 0.70061 0.34054 0.0
C4063 C 0.03235 0.69737 0.36204 0.0
H4064 H 0.04033 0.70449 0.30002 0.0
H4065 H 0.96123 0.69008 0.50503 0.0
H4066 H 0.25987 0.61033 0.30222 0.0
H4067 H 0.26044 0.57713 0.33316 0.0
H4068 H 0.25861 0.62928 0.39401 0.0
H4069 H 0.2579 0.66275 0.36342 0.0
H4070 H 0.27853 0.58505 0.3942 0.0
H4071 H 0.23405 0.61107 0.38619 0.0
H4072 H 0.21211 0.61955 0.36937 0.0
H4073 H 0.20797 0.5444 0.34784 0.0
H4074 H 0.23035 0.53588 0.36252 0.0
H4075 H 0.259 0.51656 0.50088 0.0
H4076 H 0.2628 0.5464 0.46763 0.0
H4077 H 0.25008 0.4942 0.41163 0.0
H4078 H 0.24615 0.46406 0.44507 0.0
H4079 H 0.23799 0.53721 0.40758 0.0
H4080 H 0.28214 0.5108 0.4134 0.0
H4081 H 0.30391 0.50104 0.43077 0.0
H4082 H 0.30747 0.57413 0.45928 0.0
H4083 H 0.28564 0.58429 0.44227 0.0
C4084 C 0.25962 0.61481 0.32218 0.0
C4085 C 0.25849 0.63914 0.33038 0.0
C4086 C 0.25987 0.59582 0.33973 0.0
C4087 C 0.25905 0.6009 0.36559 0.0
C4088 C 0.25894 0.62515 0.37398 0.0
C4089 C 0.25855 0.64418 0.35648 0.0
C4090 C 0.25832 0.58078 0.38387 0.0
C4091 C 0.26965 0.57467 0.39733 0.0
C4092 C 0.24677 0.56693 0.3872 0.0
C4093 C 0.23412 0.573 0.37489 0.0
C4094 C 0.22876 0.59658 0.37682 0.0
C4095 C 0.21617 0.60136 0.36779 0.0
C4096 C 0.20866 0.58256 0.35744 0.0
C4097 C 0.2138 0.559 0.35579 0.0
C4098 C 0.22652 0.55428 0.36407 0.0
C4099 C 0.25705 0.51138 0.48146 0.0
C4100 C 0.25222 0.48807 0.47548 0.0
C4101 C 0.25938 0.52835 0.4625 0.0
C4102 C 0.257 0.52228 0.43721 0.0
C4103 C 0.25209 0.49906 0.43111 0.0
C4104 C 0.24969 0.48203 0.45017 0.0
C4105 C 0.25821 0.54121 0.41761 0.0
C4106 C 0.24694 0.54728 0.40405 0.0
C4107 C 0.26977 0.5549 0.41413 0.0
C4108 C 0.28226 0.54828 0.42657 0.0
C4109 C 0.28746 0.52467 0.42374 0.0
C4110 C 0.29984 0.51911 0.43339 0.0
C4111 C 0.3071 0.53702 0.44584 0.0
C4112 C 0.30186 0.56034 0.44941 0.0
C4113 C 0.28949 0.56601 0.43976 0.0
H4114 H 0.31686 0.53285 0.45245 0.0
H4115 H 0.19884 0.58623 0.3508 0.0
H4116 H 0.00661 0.46114 0.80696 0.0
H4117 H 1.00361 0.49282 0.83954 0.0
H4118 H 0.00791 0.54861 0.78256 0.0
H4119 H 0.01065 0.5173 0.75018 0.0
H4120 H 0.02327 0.55483 0.82608 0.0
H4121 H 0.97998 0.53565 0.79986 0.0
H4122 H 0.96129 0.50844 0.79208 0.0
H4123 H 0.95788 0.49486 0.87176 0.0
H4124 H 0.97685 0.52146 0.87998 0.0
H4125 H 1.00475 0.66267 0.8849 0.0
H4126 H 1.00307 0.62872 0.85527 0.0
H4127 H 0.99654 0.57907 0.91724 0.0
H4128 H 0.99806 0.61305 0.94718 0.0
H4129 H 0.98179 0.56776 0.87306 0.0
H4130 H 0.02662 0.58589 0.89711 0.0
H4131 H 0.04636 0.61124 0.90229 0.0
H4132 H 0.04607 0.62773 0.8229 0.0
H4133 H 0.02621 0.60278 0.81735 0.0
C4134 C 0.00707 0.48021 0.80163 0.0
C4135 C 0.00887 0.48701 0.77629 0.0
C4136 C 0.00523 0.49814 0.82006 0.0
C4137 C 0.00541 0.52285 0.81319 0.0
C4138 C 0.00766 0.52956 0.78803 0.0
C4139 C 0.00925 0.51175 0.76965 0.0
C4140 C 1.00364 0.5421 0.83213 0.0
C4141 C 0.01417 0.55778 0.83625 0.0
C4142 C 0.99177 0.54554 0.84537 0.0
C4143 C 0.98011 0.53005 0.8405 0.0
C4144 C 0.97541 0.52655 0.81572 0.0
C4145 C 0.96471 0.51131 0.81122 0.0
C4146 C 0.95843 0.49983 0.8314 0.0
C4147 C 0.9628 0.50366 0.85613 0.0
C4148 C 0.97356 0.51878 0.86071 0.0
C4149 C 1.00274 0.64463 0.89227 0.0
C4150 C 1.00185 0.64042 0.91842 0.0
C4151 C 1.00176 0.62527 0.87529 0.0
C4152 C 0.99993 0.60144 0.8842 0.0
C4153 C 0.99804 0.59738 0.91011 0.0
C4154 C 0.99901 0.61677 0.92715 0.0
C4155 C 1.00143 0.58064 0.86678 0.0
C4156 C 0.99088 0.56467 0.86298 0.0
C4157 C 0.01323 0.57703 0.85335 0.0
C4158 C 0.02486 0.59274 0.8569 0.0
C4159 C 0.03067 0.59519 0.88084 0.0
C4160 C 0.04191 0.60942 0.88382 0.0
C4161 C 0.04745 0.62115 0.86296 0.0
C4162 C 0.04175 0.6187 0.83906 0.0
C4163 C 0.03051 0.60454 0.83599 0.0
H4164 H 0.05618 0.63207 0.86529 0.0
H4165 H 0.95013 0.48805 0.82788 0.0
H4166 H 0.27374 0.63329 0.9265 0.0
H4167 H 0.27345 0.66439 0.89344 0.0
H4168 H 0.24674 0.62045 0.84961 0.0
H4169 H 0.24748 0.58874 0.88222 0.0
H4170 H 0.2626 0.64326 0.81844 0.0
H4171 H 0.2356 0.67086 0.88892 0.0
H4172 H 0.22985 0.68414 0.9322 0.0
H4173 H 0.26185 0.73501 0.93119 0.0
H4174 H 0.26766 0.7221 0.88854 0.0
H4175 H 0.23545 0.74704 0.75057 0.0
H4176 H 0.23811 0.71089 0.77783 0.0
H4177 H 0.27079 0.74541 0.81502 0.0
H4178 H 0.26841 0.781 0.78743 0.0
H4179 H 0.25152 0.72678 0.84784 0.0
H4180 H 0.27761 0.70235 0.77757 0.0
H4181 H 0.28255 0.69348 0.73289 0.0
H4182 H 0.25263 0.63858 0.73169 0.0
H4183 H 0.24735 0.6474 0.77634 0.0
C4184 C 0.26794 0.63012 0.90964 0.0
C4185 C 0.26054 0.60868 0.9071 0.0
C4186 C 0.2677 0.648 0.8908 0.0
C4187 C 0.25975 0.64518 0.86928 0.0
C4188 C 0.25288 0.62319 0.86607 0.0
C4189 C 0.25331 0.60504 0.88475 0.0
C4190 C 0.25812 0.66564 0.8509 0.0
C4191 C 0.26 0.66142 0.82488 0.0
C4192 C 0.25495 0.68955 0.85904 0.0
C4193 C 0.25207 0.69552 0.88566 0.0
C4194 C 0.24147 0.68466 0.89823 0.0
C4195 C 0.23814 0.69221 0.92265 0.0
C4196 C 0.24536 0.71057 0.93453 0.0
C4197 C 0.25611 0.72096 0.92225 0.0
C4198 C 0.25944 0.71355 0.89794 0.0
C4199 C 0.24317 0.74676 0.76459 0.0
C4200 C 0.25172 0.76665 0.76703 0.0
C4201 C 0.24475 0.72614 0.77996 0.0
C4202 C 0.25471 0.72546 0.79827 0.0
C4203 C 0.26311 0.74552 0.80088 0.0
C4204 C 0.26175 0.7658 0.78516 0.0
C4205 C 0.25605 0.70441 0.81567 0.0
C4206 C 0.25407 0.70854 0.84144 0.0
C4207 C 0.25911 0.68061 0.8072 0.0
C4208 C 0.26204 0.67561 0.78025 0.0
C4209 C 0.27198 0.68858 0.76771 0.0
C4210 C 0.27486 0.68353 0.74242 0.0
C4211 C 0.26795 0.6654 0.72955 0.0
C4212 C 0.258 0.65254 0.74177 0.0
C4213 C 0.25506 0.65755 0.76707 0.0
H4214 H 0.27042 0.66112 0.7102 0.0
H4215 H 0.24251 0.71685 0.95311 0.0
H4216 H 0.98136 0.23552 0.52877 0.0
H4217 H 0.98382 0.26701 0.5612 0.0
H4218 H 0.02545 0.26876 0.54787 0.0
H4219 H 0.02314 0.23719 0.51566 0.0
H4220 H 0.02037 0.27087 0.5975 0.0
H4221 H 0.00683 0.31133 0.52326 0.0
H4222 H 0.99335 0.31915 0.48548 0.0
H4223 H 0.96004 0.33372 0.53263 0.0
H4224 H 0.97326 0.32544 0.57072 0.0
H4225 H 0.02899 0.38888 0.65781 0.0
H4226 H 0.02926 0.35389 0.62853 0.0
H4227 H 0.98761 0.34524 0.63875 0.0
H4228 H 0.98739 0.38019 0.66769 0.0
H4229 H 0.99426 0.34685 0.58969 0.0
H4230 H 0.01055 0.30087 0.66464 0.0
H4231 H 0.02614 0.28953 0.69829 0.0
H4232 H 0.05765 0.2894 0.64486 0.0
H4233 H 0.04221 0.29983 0.61064 0.0
C4234 C 0.99104 0.24259 0.53273 0.0
C4235 C 1.00204 0.23393 0.51953 0.0
C4236 C 0.99243 0.26056 0.55127 0.0
C4237 C 1.00481 0.27029 0.55678 0.0
C4238 C 0.01582 0.26144 0.54392 0.0
C4239 C 0.01444 0.24353 0.52537 0.0
C4240 C 0.0062 0.29045 0.5752 0.0
C4241 C 0.01476 0.28761 0.59571 0.0
C4242 C 0.99899 0.31232 0.57266 0.0
C4243 C 0.991 0.31751 0.54984 0.0
C4244 C 0.9966 0.31598 0.52558 0.0
C4245 C 0.98901 0.3205 0.5041 0.0
C4246 C 0.97584 0.32686 0.50665 0.0
C4247 C 0.97024 0.32874 0.53069 0.0
C4248 C 0.97777 0.32412 0.55223 0.0
C4249 C 0.01993 0.3795 0.65351 0.0
C4250 C 0.00811 0.38729 0.6643 0.0
C4251 C 0.02011 0.35936 0.63718 0.0
C4252 C 0.00847 0.34684 0.63164 0.0
C4253 C 0.99671 0.35461 0.6428 0.0
C4254 C 0.99654 0.37461 0.6591 0.0
C4255 C 0.00815 0.32707 0.61254 0.0
C4256 C 0.99983 0.33009 0.59163 0.0
C4257 C 0.01595 0.30578 0.61428 0.0
C4258 C 0.02528 0.30153 0.63521 0.0
C4259 C 0.02084 0.29888 0.66017 0.0
C4260 C 0.02964 0.29257 0.67934 0.0
C4261 C 0.04289 0.28924 0.67388 0.0
C4262 C 0.04739 0.29211 0.64914 0.0
C4263 C 0.03862 0.29808 0.62983 0.0
H4264 H 0.04964 0.2842 0.68877 0.0
H4265 H 0.96998 0.33038 0.48999 0.0
H4266 H 0.74601 0.39097 0.6947 0.0
H4267 H 0.74586 0.42548 0.66571 0.0
H4268 H 0.74889 0.3762 0.60229 0.0
H4269 H 0.74917 0.34149 0.63114 0.0
H4270 H 0.76783 0.4084 0.60095 0.0
H4271 H 0.72151 0.41144 0.61413 0.0
H4272 H 0.70116 0.41318 0.63907 0.0
H4273 H 0.7128 0.48215 0.67041 0.0
H4274 H 0.73337 0.48057 0.64607 0.0
H4275 H 0.75781 0.48636 0.49874 0.0
H4276 H 0.75507 0.4562 0.53201 0.0
H4277 H 0.76004 0.51217 0.58864 0.0
H4278 H 0.76274 0.54286 0.5551 0.0
H4279 H 0.73789 0.47964 0.59626 0.0
H4280 H 0.78416 0.47611 0.58123 0.0
H4281 H 0.80337 0.47485 0.55309 0.0
H4282 H 0.79053 0.40617 0.52279 0.0
H4283 H 0.77112 0.40723 0.55049 0.0
C4284 C 0.74642 0.38742 0.67455 0.0
C4285 C 0.74793 0.36355 0.6652 0.0
C4286 C 0.74629 0.4072 0.65801 0.0
C4287 C 0.74759 0.40341 0.63191 0.0
C4288 C 0.74807 0.37949 0.62244 0.0
C4289 C 0.74819 0.35969 0.63894 0.0
C4290 C 0.74984 0.42424 0.61474 0.0
C4291 C 0.76117 0.42381 0.59977 0.0
C4292 C 0.74142 0.44475 0.61386 0.0
C4293 C 0.72904 0.44577 0.62846 0.0
C4294 C 0.71979 0.42687 0.62652 0.0
C4295 C 0.70821 0.42784 0.64053 0.0
C4296 C 0.7057 0.44774 0.65635 0.0
C4297 C 0.71476 0.46672 0.65817 0.0
C4298 C 0.72639 0.4658 0.64428 0.0
C4299 C 0.75845 0.49228 0.51826 0.0
C4300 C 0.76054 0.51689 0.52441 0.0
C4301 C 0.75684 0.47504 0.53721 0.0
C4302 C 0.75734 0.48207 0.56266 0.0
C4303 C 0.7596 0.50656 0.56901 0.0
C4304 C 0.76131 0.52391 0.54993 0.0
C4305 C 0.75566 0.46336 0.58234 0.0
C4306 C 0.74453 0.46425 0.59778 0.0
C4307 C 0.76419 0.44313 0.5836 0.0
C4308 C 0.77619 0.44177 0.5679 0.0
C4309 C 0.78544 0.46074 0.56856 0.0
C4310 C 0.79635 0.46009 0.55266 0.0
C4311 C 0.79817 0.44044 0.53616 0.0
C4312 C 0.78912 0.42136 0.53561 0.0
C4313 C 0.77817 0.42195 0.55145 0.0
H4314 H 0.80661 0.44001 0.5238 0.0
H4315 H 0.69671 0.44846 0.66716 0.0
H4316 H 0.01118 0.48819 0.24385 0.0
H4317 H 0.0144 0.4587 0.21025 0.0
H4318 H 0.99749 0.50885 0.15645 0.0
H4319 H 0.99399 0.53876 0.1905 0.0
H4320 H 0.98761 0.46338 0.15254 0.0
H4321 H 0.03036 0.4979 0.1558 0.0
H4322 H 0.04992 0.51297 0.17818 0.0
H4323 H 0.0574 0.44101 0.20685 0.0
H4324 H 0.03776 0.42554 0.18491 0.0
H4325 H 1.00463 0.39044 0.04825 0.0
H4326 H 0.00577 0.42458 0.07773 0.0
H4327 H 0.01548 0.37521 0.13836 0.0
H4328 H 0.01405 0.34054 0.10895 0.0
H4329 H 0.03023 0.4225 0.13668 0.0
H4330 H 0.9869 0.38924 0.13803 0.0
H4331 H 0.96569 0.37479 0.12172 0.0
H4332 H 0.95849 0.44504 0.08851 0.0
H4333 H 0.9798 0.45974 0.10418 0.0
C4334 C 0.0082 0.49312 0.22486 0.0
C4335 C 1.00239 0.51584 0.21973 0.0
C4336 C 0.01015 0.47626 0.20565 0.0
C4337 C 0.00649 0.48185 0.18082 0.0
C4338 C 1.0005 0.50439 0.17554 0.0
C4339 C 0.99843 0.52133 0.19494 0.0
C4340 C 0.00819 0.46325 0.16092 0.0
C4341 C 0.99699 0.45488 0.14853 0.0
C4342 C 0.02038 0.45166 0.15655 0.0
C4343 C 0.03257 0.46056 0.16872 0.0
C4344 C 0.03617 0.48528 0.16688 0.0
C4345 C 0.04726 0.4939 0.17952 0.0
C4346 C 0.05489 0.47796 0.19394 0.0
C4347 C 0.05149 0.45332 0.19564 0.0
C4348 C 0.04039 0.4446 0.18305 0.0
C4349 C 0.00718 0.38676 0.06777 0.0
C4350 C 0.00908 0.36273 0.07636 0.0
C4351 C 0.00783 0.40633 0.08456 0.0
C4352 C 0.01061 0.40233 0.11015 0.0
C4353 C 0.01331 0.37857 0.11861 0.0
C4354 C 0.01243 0.35883 0.10184 0.0
C4355 C 0.00961 0.4228 0.12822 0.0
C4356 C 0.02092 0.43138 0.1403 0.0
C4357 C 0.9975 0.43463 0.1325 0.0
C4358 C 0.98505 0.42542 0.12184 0.0
C4359 C 0.98092 0.40145 0.12681 0.0
C4360 C 0.96884 0.39325 0.11779 0.0
C4361 C 0.96077 0.40895 0.10398 0.0
C4362 C 0.96477 0.43286 0.0991 0.0
C4363 C 0.97686 0.44112 0.108 0.0
H4364 H 0.95139 0.40261 0.09714 0.0
H4365 H 0.06345 0.48469 0.20378 0.0
H4366 H 0.76062 0.36608 0.05683 0.0
H4367 H 0.76128 0.33204 0.08611 0.0
H4368 H 0.73889 0.3739 0.14023 0.0
H4369 H 0.73913 0.40894 0.11135 0.0
H4370 H 0.7559 0.35344 0.16493 0.0
H4371 H 0.72687 0.32051 0.10373 0.0
H4372 H 0.7176 0.30635 0.06327 0.0
H4373 H 0.75011 0.25763 0.05311 0.0
H4374 H 0.75969 0.27171 0.09341 0.0
H4375 H 0.74162 0.25005 0.24166 0.0
H4376 H 0.73957 0.28294 0.21065 0.0
H4377 H 0.7728 0.25452 0.16988 0.0
H4378 H 0.77499 0.22156 0.20103 0.0
H4379 H 0.75 0.26707 0.13915 0.0
H4380 H 0.77767 0.30203 0.20461 0.0
H4381 H 0.78131 0.30857 0.25025 0.0
H4382 H 0.74605 0.35099 0.2547 0.0
H4383 H 0.74207 0.34438 0.20915 0.0
C4384 C 0.75567 0.36798 0.07483 0.0
C4385 C 0.74975 0.3902 0.08177 0.0
C4386 C 0.75597 0.34831 0.0916 0.0
C4387 C 0.74994 0.34997 0.11543 0.0
C4388 C 0.74368 0.37201 0.12207 0.0
C4389 C 0.74373 0.39202 0.10553 0.0
C4390 C 0.75095 0.32938 0.13391 0.0
C4391 C 0.7544 0.33466 0.15914 0.0
C4392 C 0.74922 0.30457 0.1267 0.0
C4393 C 0.74404 0.29733 0.10154 0.0
C4394 C 0.73215 0.30706 0.0927 0.0
C4395 C 0.72682 0.29898 0.06985 0.0
C4396 C 0.73324 0.28108 0.0557 0.0
C4397 C 0.74514 0.27148 0.06413 0.0
C4398 C 0.75052 0.2795 0.08699 0.0
C4399 C 0.7485 0.25081 0.22609 0.0
C4400 C 0.75847 0.23327 0.22376 0.0
C4401 C 0.74732 0.2696 0.20841 0.0
C4402 C 0.75603 0.27114 0.18798 0.0
C4403 C 0.76597 0.25359 0.1855 0.0
C4404 C 0.76727 0.23492 0.2034 0.0
C4405 C 0.75488 0.29141 0.16953 0.0
C4406 C 0.7515 0.28599 0.1445 0.0
C4407 C 0.75629 0.31603 0.177 0.0
C4408 C 0.7595 0.32251 0.20354 0.0
C4409 C 0.77072 0.31284 0.21531 0.0
C4410 C 0.7728 0.31643 0.24116 0.0
C4411 C 0.76379 0.32982 0.25538 0.0
C4412 C 0.75292 0.34037 0.24366 0.0
C4413 C 0.75077 0.33678 0.21781 0.0
H4414 H 0.76528 0.33217 0.27547 0.0
H4415 H 0.72891 0.27454 0.03834 0.0
H4416 H 0.50353 0.28871 0.44141 0.0
H4417 H 0.49994 0.25296 0.41415 0.0
H4418 H 0.51054 0.20552 0.47599 0.0
H4419 H 0.51434 0.24134 0.50304 0.0
H4420 H 0.52232 0.1928 0.43059 0.0
H4421 H 0.47852 0.21525 0.4589 0.0
H4422 H 0.46121 0.24627 0.46342 0.0
H4423 H 0.45927 0.2541 0.3827 0.0
H4424 H 0.47689 0.22374 0.37779 0.0
H4425 H 0.50714 0.08352 0.36824 0.0
H4426 H 0.50635 0.11545 0.4006 0.0
H4427 H 0.48846 0.16446 0.34707 0.0
H4428 H 0.48922 0.13283 0.31473 0.0
H4429 H 0.47939 0.17595 0.39037 0.0
H4430 H 0.5223 0.16464 0.35857 0.0
H4431 H 0.54276 0.14345 0.34707 0.0
H4432 H 0.54888 0.12386 0.42483 0.0
H4433 H 0.52835 0.14469 0.43671 0.0
C4434 C 0.5052 0.2706 0.44899 0.0
C4435 C 0.50933 0.26761 0.4741 0.0
C4436 C 0.50304 0.25022 0.43354 0.0
C4437 C 0.50478 0.22649 0.44311 0.0
C4438 C 0.50909 0.2236 0.4682 0.0
C4439 C 0.5113 0.244 0.48361 0.0
C4440 C 0.50238 0.20466 0.42691 0.0
C4441 C 0.51285 0.18879 0.42228 0.0
C4442 C 0.4902 0.20011 0.41499 0.0
C4443 C 0.47902 0.21716 0.41796 0.0
C4444 C 0.47439 0.22356 0.44211 0.0
C4445 C 0.46454 0.2411 0.44475 0.0
C4446 C 0.45908 0.25207 0.42336 0.0
C4447 C 0.46347 0.24553 0.39927 0.0
C4448 C 0.4734 0.22816 0.39654 0.0
C4449 C 0.50287 0.10101 0.36342 0.0
C4450 C 0.49849 0.10575 0.33866 0.0
C4451 C 0.50249 0.11936 0.38196 0.0
C4452 C 0.49776 0.14286 0.37616 0.0
C4453 C 0.49244 0.14687 0.35202 0.0
C4454 C 0.49289 0.12866 0.33346 0.0
C4455 C 0.49937 0.16369 0.39431 0.0
C4456 C 0.48877 0.17947 0.39924 0.0
C4457 C 0.51164 0.16899 0.40558 0.0
C4458 C 0.52372 0.15583 0.39845 0.0
C4459 C 0.52794 0.15555 0.37315 0.0
C4460 C 0.53956 0.14367 0.36658 0.0
C4461 C 0.54708 0.13223 0.38519 0.0
C4462 C 0.54301 0.13265 0.41042 0.0
C4463 C 0.53139 0.14446 0.41708 0.0
H4464 H 0.5561 0.1231 0.38008 0.0
H4465 H 0.45146 0.26566 0.42546 0.0
H4466 H 0.7724 0.98763 0.48211 0.0
H4467 H 0.77405 0.02149 0.45233 0.0
H4468 H 0.7322 0.02009 0.44165 0.0
H4469 H 0.73051 0.98577 0.47092 0.0
H4470 H 0.74437 0.02119 0.39763 0.0
H4471 H 0.74765 0.06861 0.47497 0.0
H4472 H 0.75707 0.07767 0.51685 0.0
H4473 H 0.79523 0.08454 0.48375 0.0
H4474 H 0.78598 0.07582 0.44153 0.0
H4475 H 0.73721 0.13559 0.33195 0.0
H4476 H 0.73586 0.10218 0.3625 0.0
H4477 H 0.77787 0.10221 0.36984 0.0
H4478 H 0.77916 0.13652 0.33998 0.0
H4479 H 0.76617 0.10028 0.41463 0.0
H4480 H 0.76204 0.02557 0.34957 0.0
H4481 H 0.75247 0.00543 0.31228 0.0
H4482 H 0.71714 0.04675 0.32147 0.0
H4483 H 0.72597 0.06512 0.36045 0.0
C4484 C 0.76352 0.99466 0.47361 0.0
C4485 C 0.75132 0.98387 0.47877 0.0
C4486 C 0.76448 0.01416 0.45668 0.0
C4487 C 0.75323 0.02351 0.44485 0.0
C4488 C 0.74101 0.01317 0.45051 0.0
C4489 C 0.74006 0.99358 0.46731 0.0
C4490 C 0.75423 0.04308 0.42547 0.0
C4491 C 0.74895 0.03868 0.40147 0.0
C4492 C 0.76064 0.06548 0.4301 0.0
C4493 C 0.76615 0.07142 0.45521 0.0
C4494 C 0.75805 0.07204 0.47666 0.0
C4495 C 0.76335 0.07712 0.50043 0.0
C4496 C 0.77675 0.08144 0.50299 0.0
C4497 C 0.78485 0.08111 0.48172 0.0
C4498 C 0.77958 0.07625 0.45785 0.0
C4499 C 0.74613 0.12847 0.34025 0.0
C4500 C 0.75827 0.1387 0.33399 0.0
C4501 C 0.74539 0.10887 0.35713 0.0
C4502 C 0.75679 0.09867 0.36758 0.0
C4503 C 0.76893 0.10937 0.36169 0.0
C4504 C 0.76968 0.12908 0.34485 0.0
C4505 C 0.75598 0.07874 0.3867 0.0
C4506 C 0.76147 0.08294 0.41072 0.0
C4507 C 0.74979 0.05599 0.38202 0.0
C4508 C 0.74504 0.04815 0.35688 0.0
C4509 C 0.75235 0.03084 0.34325 0.0
C4510 C 0.74696 0.01932 0.3221 0.0
C4511 C 0.73441 0.02548 0.31386 0.0
C4512 C 0.72702 0.04253 0.32739 0.0
C4513 C 0.73219 0.05341 0.34916 0.0
H4514 H 0.73031 0.01665 0.29734 0.0
H4515 H 0.78084 0.08501 0.52144 0.0
H4516 H 0.47812 0.13886 0.91099 0.0
H4517 H 0.47825 0.10451 0.88095 0.0
H4518 H 0.52048 0.10693 0.87906 0.0
H4519 H 0.52024 0.14181 0.908 0.0
H4520 H 0.51143 0.10188 0.83361 0.0
H4521 H 0.50032 0.06836 0.91515 0.0
H4522 H 0.48662 0.06271 0.9529 0.0
H4523 H 0.45632 0.03099 0.90738 0.0
H4524 H 0.4692 0.03881 0.86896 0.0
H4525 H 0.52769 0.98664 0.78332 0.0
H4526 H 0.52459 0.02081 0.81271 0.0
H4527 H 0.48287 0.01766 0.80034 0.0
H4528 H 0.48603 0.98354 0.77057 0.0
H4529 H 0.49018 0.02251 0.85182 0.0
H4530 H 0.49769 0.06289 0.77256 0.0
H4531 H 0.50898 0.07189 0.73247 0.0
H4532 H 0.54436 0.08777 0.77312 0.0
H4533 H 0.5332 0.07908 0.81352 0.0
C4534 C 0.48736 0.13221 0.90368 0.0
C4535 C 0.49915 0.14306 0.91121 0.0
C4536 C 0.48746 0.11248 0.88682 0.0
C4537 C 0.49939 0.10292 0.87798 0.0
C4538 C 0.51115 0.114 0.88554 0.0
C4539 C 0.51103 0.13394 0.90195 0.0
C4540 C 0.49981 0.08173 0.86047 0.0
C4541 C 0.50686 0.0845 0.83786 0.0
C4542 C 0.49346 0.05917 0.86554 0.0
C4543 C 0.48571 0.05465 0.88893 0.0
C4544 C 0.49063 0.0607 0.913 0.0
C4545 C 0.48299 0.0571 0.93459 0.0
C4546 C 0.47068 0.04624 0.9326 0.0
C4547 C 0.46585 0.03945 0.90893 0.0
C4548 C 0.47325 0.04379 0.88718 0.0
C4549 C 0.51788 0.99323 0.78708 0.0
C4550 C 0.50707 0.98269 0.77502 0.0
C4551 C 0.51612 0.0127 0.80371 0.0
C4552 C 0.50351 0.02177 0.80853 0.0
C4553 C 0.49266 0.01085 0.79682 0.0
C4554 C 0.49445 0.99152 0.7799 0.0
C4555 C 0.50179 0.04295 0.82549 0.0
C4556 C 0.49461 0.04008 0.84785 0.0
C4557 C 0.50779 0.06554 0.82022 0.0
C4558 C 0.51465 0.07017 0.796 0.0
C4559 C 0.50791 0.06811 0.77291 0.0
C4560 C 0.51427 0.07323 0.75014 0.0
C4561 C 0.52741 0.08028 0.75021 0.0
C4562 C 0.53419 0.08229 0.77308 0.0
C4563 C 0.52784 0.07737 0.79593 0.0
H4564 H 0.53232 0.08426 0.73256 0.0
H4565 H 0.46487 0.04312 0.9494 0.0
H4566 H 0.73221 0.27223 0.78767 0.0
H4567 H 0.73452 0.24034 0.82003 0.0
H4568 H 0.77568 0.23435 0.80299 0.0
H4569 H 0.77347 0.26571 0.77086 0.0
H4570 H 0.76462 0.19076 0.80329 0.0
H4571 H 0.7656 0.2605 0.85714 0.0
H4572 H 0.7577 0.29958 0.87456 0.0
H4573 H 0.72263 0.26463 0.90057 0.0
H4574 H 0.73023 0.22539 0.8829 0.0
H4575 H 0.77971 0.10896 0.90543 0.0
H4576 H 0.77979 0.1447 0.87712 0.0
H4577 H 0.73851 0.15506 0.89084 0.0
H4578 H 0.73853 0.11984 0.91922 0.0
H4579 H 0.75102 0.19758 0.89303 0.0
H4580 H 0.75042 0.1278 0.83628 0.0
H4581 H 0.75878 0.08975 0.8172 0.0
H4582 H 0.7943 0.12619 0.79612 0.0
H4583 H 0.78623 0.16436 0.81541 0.0
C4584 C 0.74176 0.26432 0.79112 0.0
C4585 C 0.75261 0.27127 0.77653 0.0
C4586 C 0.74308 0.24613 0.80957 0.0
C4587 C 0.75528 0.23495 0.81384 0.0
C4588 C 0.76616 0.24255 0.79986 0.0
C4589 C 0.76485 0.2605 0.78147 0.0
C4590 C 0.75673 0.21452 0.83196 0.0
C4591 C 0.76182 0.19235 0.82302 0.0
C4592 C 0.75297 0.21657 0.85758 0.0
C4593 C 0.74843 0.24005 0.86849 0.0
C4594 C 0.75616 0.26118 0.8664 0.0
C4595 C 0.75174 0.28336 0.87634 0.0
C4596 C 0.73966 0.2846 0.88862 0.0
C4597 C 0.73198 0.26365 0.89103 0.0
C4598 C 0.73634 0.24143 0.88107 0.0
C4599 C 0.77071 0.11897 0.90226 0.0
C4600 C 0.75911 0.11183 0.91425 0.0
C4601 C 0.77074 0.13928 0.88613 0.0
C4602 C 0.75912 0.15245 0.88172 0.0
C4603 C 0.74758 0.14526 0.89398 0.0
C4604 C 0.74758 0.12513 0.91008 0.0
C4605 C 0.75877 0.17366 0.86427 0.0
C4606 C 0.7539 0.19603 0.87334 0.0
C4607 C 0.76287 0.17189 0.83878 0.0
C4608 C 0.7678 0.14881 0.82762 0.0
C4609 C 0.76007 0.12761 0.82784 0.0
C4610 C 0.76475 0.10605 0.81693 0.0
C4611 C 0.77708 0.10553 0.80555 0.0
C4612 C 0.78477 0.12659 0.80501 0.0
C4613 C 0.78015 0.14818 0.81594 0.0
H4614 H 0.78067 0.08882 0.79707 0.0
H4615 H 0.73625 0.30179 0.89631 0.0
H4616 H 0.51122 0.86309 0.69176 0.0
H4617 H 0.51052 0.82984 0.6612 0.0
H4618 H 0.51378 0.88132 0.60008 0.0
H4619 H 0.51391 0.91517 0.6305 0.0
H4620 H 0.4922 0.84871 0.59785 0.0
H4621 H 0.53769 0.8488 0.61258 0.0
H4622 H 0.55909 0.84596 0.63357 0.0
H4623 H 0.55189 0.77081 0.65153 0.0
H4624 H 0.53013 0.77342 0.63192 0.0
H4625 H 0.50066 0.76823 0.49504 0.0
H4626 H 0.50306 0.79967 0.52721 0.0
H4627 H 0.50023 0.74505 0.58568 0.0
H4628 H 0.49774 0.71313 0.55312 0.0
H4629 H 0.52236 0.77822 0.58916 0.0
H4630 H 0.47548 0.78137 0.57927 0.0
H4631 H 0.45581 0.78244 0.55227 0.0
H4632 H 0.46833 0.85057 0.52037 0.0
H4633 H 0.48817 0.84971 0.54695 0.0
C4634 C 0.51201 0.8675 0.67186 0.0
C4635 C 0.51248 0.89194 0.66357 0.0
C4636 C 0.51182 0.84832 0.65447 0.0
C4637 C 0.51246 0.85306 0.62852 0.0
C4638 C 0.51341 0.87732 0.62013 0.0
C4639 C 0.51345 0.89662 0.63751 0.0
C4640 C 0.51046 0.83296 0.61022 0.0
C4641 C 0.49888 0.83341 0.59594 0.0
C4642 C 0.5191 0.81272 0.60805 0.0
C4643 C 0.53199 0.81155 0.62118 0.0
C4644 C 0.54043 0.83184 0.62163 0.0
C4645 C 0.5527 0.83023 0.63321 0.0
C4646 C 0.55682 0.80827 0.64399 0.0
C4647 C 0.54868 0.78785 0.64321 0.0
C4648 C 0.53634 0.78942 0.63193 0.0
C4649 C 0.50029 0.76293 0.51474 0.0
C4650 C 0.49893 0.73834 0.52168 0.0
C4651 C 0.5017 0.7809 0.53308 0.0
C4652 C 0.50183 0.77463 0.55874 0.0
C4653 C 0.50015 0.75014 0.56589 0.0
C4654 C 0.49857 0.73205 0.5474 0.0
C4655 C 0.50407 0.79391 0.57778 0.0
C4656 C 0.51566 0.79338 0.59184 0.0
C4657 C 0.49558 0.81412 0.57982 0.0
C4658 C 0.48329 0.81546 0.56505 0.0
C4659 C 0.47402 0.79659 0.56651 0.0
C4660 C 0.46286 0.79713 0.55126 0.0
C4661 C 0.46082 0.81656 0.5346 0.0
C4662 C 0.46991 0.83556 0.5333 0.0
C4663 C 0.48109 0.83509 0.5485 0.0
H4664 H 0.45221 0.81689 0.52271 0.0
H4665 H 0.56635 0.80705 0.65285 0.0
H4666 H 0.26915 0.03723 0.55638 0.0
H4667 H 0.26558 0.00331 0.58547 0.0
H4668 H 0.24231 0.96649 0.52912 0.0
H4669 H 0.24602 1.00037 0.49956 0.0
H4670 H 0.23196 0.96629 0.58141 0.0
H4671 H 0.27072 0.94701 0.53374 0.0
H4672 H 0.29249 0.95524 0.51566 0.0
H4673 H 0.30809 0.96639 0.5902 0.0
H4674 H 0.28634 0.95862 0.6087 0.0
H4675 H 0.24093 0.8443 0.6374 0.0
H4676 H 0.23947 0.87856 0.60731 0.0
H4677 H 0.26049 0.92443 0.65964 0.0
H4678 H 0.26159 0.89087 0.6899 0.0
H4679 H 0.27109 0.91876 0.60731 0.0
H4680 H 0.2331 0.94004 0.65527 0.0
H4681 H 0.21135 0.93529 0.67473 0.0
H4682 H 0.19436 0.92299 0.60152 0.0
H4683 H 0.21608 0.92718 0.58168 0.0
C4684 C 0.26316 0.02205 0.55023 0.0
C4685 C 0.25795 0.02125 0.52565 0.0
C4686 C 0.26116 0.00269 0.56685 0.0
C4687 C 0.25378 0.98241 0.55929 0.0
C4688 C 0.24806 0.98202 0.53518 0.0
C4689 C 0.25024 1.00124 0.51834 0.0
C4690 C 0.25265 0.96118 0.5763 0.0
C4691 C 0.24044 0.95553 0.58674 0.0
C4692 C 0.26382 0.9477 0.58365 0.0
C4693 C 0.27689 0.95243 0.57258 0.0
C4694 C 0.27876 0.95144 0.54625 0.0
C4695 C 0.2911 0.95599 0.53593 0.0
C4696 C 0.30166 0.96138 0.55176 0.0
C4697 C 0.2999 0.96223 0.57796 0.0
C4698 C 0.28757 0.95774 0.58837 0.0
C4699 C 0.24513 0.86178 0.64245 0.0
C4700 C 0.25143 0.86492 0.66585 0.0
C4701 C 0.24422 0.8813 0.62541 0.0
C4702 C 0.24984 0.90394 0.6314 0.0
C4703 C 0.25603 0.90711 0.65481 0.0
C4704 C 0.25665 0.8879 0.67202 0.0
C4705 C 0.25038 0.92376 0.61251 0.0
C4706 C 0.26254 0.92921 0.60173 0.0
C4707 C 0.23918 0.93713 0.60506 0.0
C4708 C 0.22625 0.93339 0.61705 0.0
C4709 C 0.22477 0.93581 0.64338 0.0
C4710 C 0.21244 0.93337 0.65446 0.0
C4711 C 0.20149 0.9287 0.63939 0.0
C4712 C 0.20286 0.92647 0.61319 0.0
C4713 C 0.21518 0.92884 0.60202 0.0
H4714 H 0.19193 0.92692 0.648 0.0
H4715 H 0.31122 0.96485 0.54374 0.0
H4716 H 0.51705 0.84247 0.11698 0.0
H4717 H 0.51722 0.87657 0.14706 0.0
H4718 H 0.50334 0.92505 0.08857 0.0
H4719 H 0.50386 0.8916 0.05837 0.0
H4720 H 0.51884 0.94986 0.11592 0.0
H4721 H 0.48266 0.89797 0.13457 0.0
H4722 H 0.4717 0.85895 0.14395 0.0
H4723 H 0.49392 0.85217 0.21254 0.0
H4724 H 0.50517 0.89098 0.20334 0.0
H4725 H 0.48719 0.03561 0.19927 0.0
H4726 H 0.49015 0.00188 0.16934 0.0
H4727 H 0.51777 0.96808 0.2201 0.0
H4728 H 0.5151 0.00219 0.24992 0.0
H4729 H 0.49568 0.93687 0.19733 0.0
H4730 H 0.53479 0.98619 0.16948 0.0
H4731 H 0.54358 0.0273 0.16071 0.0
H4732 H 0.51139 0.04167 0.11061 0.0
H4733 H 0.50255 1.00046 0.11888 0.0
C4734 C 0.51406 0.86041 0.1106 0.0
C4735 C 0.51027 0.86417 0.0854 0.0
C4736 C 0.51414 0.87994 0.12778 0.0
C4737 C 0.51 0.90342 0.12032 0.0
C4738 C 0.50656 0.90724 0.09495 0.0
C4739 C 0.50676 0.88793 0.0777 0.0
C4740 C 0.50853 0.92364 0.1391 0.0
C4741 C 0.51371 0.94687 0.1336 0.0
C4742 C 0.50177 0.92022 0.16226 0.0
C4743 C 0.49483 0.89721 0.16816 0.0
C4744 C 0.48524 0.88808 0.1516 0.0
C4745 C 0.47899 0.86601 0.15687 0.0
C4746 C 0.48214 0.85305 0.1788 0.0
C4747 C 0.49151 0.8622 0.19555 0.0
C4748 C 0.49782 0.88424 0.19032 0.0
C4749 C 0.49379 0.02088 0.20416 0.0
C4750 C 0.50086 0.02139 0.22695 0.0
C4751 C 0.49554 0.00174 0.18699 0.0
C4752 C 0.50421 0.98261 0.19252 0.0
C4753 C 0.51106 0.98276 0.21551 0.0
C4754 C 0.50952 0.00218 0.23248 0.0
C4755 C 0.50611 0.96247 0.17417 0.0
C4756 C 0.50091 0.93949 0.1797 0.0
C4757 C 0.51248 0.96626 0.15085 0.0
C4758 C 0.51811 0.99033 0.14462 0.0
C4759 C 0.52968 0.9981 0.15643 0.0
C4760 C 0.53465 0.02139 0.15159 0.0
C4761 C 0.52804 0.0371 0.13513 0.0
C4762 C 0.51648 0.0295 0.12338 0.0
C4763 C 0.51154 0.00612 0.12799 0.0
H4764 H 0.53188 0.05514 0.13145 0.0
H4765 H 0.4773 0.83595 0.18283 0.0
H4766 H 0.27819 0.7299 0.21201 0.0
H4767 H 0.27598 0.76152 0.17972 0.0
H4768 H 0.23555 0.77194 0.20045 0.0
H4769 H 0.23759 0.74012 0.23254 0.0
H4770 H 0.23835 0.77264 0.14955 0.0
H4771 H 0.25849 0.81249 0.2206 0.0
H4772 H 0.27475 0.8196 0.25419 0.0
H4773 H 0.30545 0.8219 0.19894 0.0
H4774 H 0.28933 0.81521 0.16489 0.0
H4775 H 0.23324 0.89507 0.09478 0.0
H4776 H 0.23259 0.85964 0.1236 0.0
H4777 H 0.27159 0.83961 0.10018 0.0
H4778 H 0.27214 0.8745 0.07135 0.0
H4779 H 0.26848 0.84346 0.15218 0.0
H4780 H 0.24676 0.80908 0.08045 0.0
H4781 H 0.2298 0.80374 0.04778 0.0
H4782 H 0.20087 0.79223 0.10537 0.0
H4783 H 0.21762 0.79788 0.1384 0.0
C4784 C 0.26882 0.73892 0.20976 0.0
C4785 C 0.25808 0.73248 0.22496 0.0
C4786 C 0.26758 0.757 0.19127 0.0
C4787 C 0.25561 0.76923 0.18777 0.0
C4788 C 0.24485 0.76271 0.20275 0.0
C4789 C 0.24608 0.74461 0.22122 0.0
C4790 C 0.25447 0.78944 0.16917 0.0
C4791 C 0.2448 0.78833 0.15029 0.0
C4792 C 0.26301 0.80969 0.16987 0.0
C4793 C 0.27275 0.81304 0.19028 0.0
C4794 C 0.26873 0.81426 0.21565 0.0
C4795 C 0.27791 0.81823 0.23477 0.0
C4796 C 0.29115 0.82085 0.22878 0.0
C4797 C 0.29521 0.81973 0.20359 0.0
C4798 C 0.28605 0.81596 0.18435 0.0
C4799 C 0.24163 0.88303 0.09598 0.0
C4800 C 0.25281 0.88744 0.08127 0.0
C4801 C 0.24121 0.86276 0.11215 0.0
C4802 C 0.25203 0.84698 0.1139 0.0
C4803 C 0.26314 0.85151 0.09905 0.0
C4804 C 0.26347 0.87143 0.08272 0.0
C4805 C 0.25239 0.82676 0.13248 0.0
C4806 C 0.26196 0.82786 0.15142 0.0
C4807 C 0.24362 0.80677 0.13186 0.0
C4808 C 0.23346 0.80417 0.11194 0.0
C4809 C 0.23676 0.80571 0.08617 0.0
C4810 C 0.22718 0.80255 0.06757 0.0
C4811 C 0.21426 0.79769 0.07449 0.0
C4812 C 0.21088 0.79602 0.10002 0.0
C4813 C 0.22042 0.7992 0.11869 0.0
H4814 H 0.20686 0.79518 0.06006 0.0
H4815 H 0.29823 0.82393 0.24366 0.0
H4816 H 0.49626 0.58989 0.86447 0.0
H4817 H 0.49663 0.6255 0.89236 0.0
H4818 H 0.49881 0.67292 0.82744 0.0
H4819 H 0.49787 0.63776 0.79949 0.0
H4820 H 0.51695 0.68428 0.86175 0.0
H4821 H 0.47097 0.66807 0.86213 0.0
H4822 H 0.45072 0.64435 0.86733 0.0
H4823 H 0.46014 0.63186 0.94542 0.0
H4824 H 0.48054 0.65533 0.94055 0.0
H4825 H 0.51113 0.7905 0.94049 0.0
H4826 H 0.50779 0.76002 0.90713 0.0
H4827 H 0.50356 0.70391 0.96381 0.0
H4828 H 0.50649 0.73415 0.997 0.0
H4829 H 0.48477 0.70069 0.92988 0.0
H4830 H 0.53162 0.71017 0.92927 0.0
H4831 H 0.5517 0.73493 0.92687 0.0
H4832 H 0.54115 0.75852 0.85215 0.0
H4833 H 0.52087 0.73416 0.85429 0.0
C4834 C 0.49651 0.60794 0.85615 0.0
C4835 C 0.49713 0.611 0.82981 0.0
C4836 C 0.49671 0.62825 0.87208 0.0
C4837 C 0.49754 0.65185 0.86189 0.0
C4838 C 0.4979 0.65492 0.83563 0.0
C4839 C 0.49744 0.63473 0.8197 0.0
C4840 C 0.4987 0.67323 0.87869 0.0
C4841 C 0.5098 0.68812 0.8764 0.0
C4842 C 0.48949 0.67791 0.89804 0.0
C4843 C 0.47732 0.66342 0.9009 0.0
C4844 C 0.46877 0.66018 0.88035 0.0
C4845 C 0.45725 0.64678 0.88325 0.0
C4846 C 0.45414 0.63659 0.90669 0.0
C4847 C 0.46255 0.63977 0.92727 0.0
C4848 C 0.47409 0.65315 0.92444 0.0
C4849 C 0.50961 0.7716 0.94572 0.0
C4850 C 0.509 0.76463 0.97125 0.0
C4851 C 0.50768 0.75427 0.92672 0.0
C4852 C 0.50542 0.72977 0.93309 0.0
C4853 C 0.50515 0.72278 0.95855 0.0
C4854 C 0.50688 0.74006 0.97746 0.0
C4855 C 0.50318 0.71114 0.91344 0.0
C4856 C 0.49184 0.69691 0.91509 0.0
C4857 C 0.51227 0.70679 0.89383 0.0
C4858 C 0.5247 0.72055 0.89203 0.0
C4859 C 0.53357 0.7207 0.91235 0.0
C4860 C 0.54498 0.73467 0.91106 0.0
C4861 C 0.54768 0.74834 0.8894 0.0
C4862 C 0.53902 0.74794 0.86893 0.0
C4863 C 0.52758 0.73404 0.87016 0.0
H4864 H 0.5565 0.75921 0.88846 0.0
H4865 H 0.44521 0.62624 0.90892 0.0
H4866 H 0.77254 0.48746 0.98633 0.0
H4867 H 0.77496 0.52026 0.95559 0.0
H4868 H 0.73299 0.52511 0.94848 0.0
H4869 H 0.73047 0.49165 0.97868 0.0
H4870 H 0.74488 0.52035 0.9037 0.0
H4871 H 0.75212 0.57017 0.9786 0.0
H4872 H 0.7638 0.57749 0.01872 0.0
H4873 H 0.80027 0.58169 0.97864 0.0
H4874 H 0.78881 0.57409 0.93832 0.0
H4875 H 0.73565 0.62734 0.8317 0.0
H4876 H 0.73636 0.59394 0.86258 0.0
H4877 H 0.77837 0.60074 0.86695 0.0
H4878 H 0.77759 0.63406 0.83581 0.0
H4879 H 0.76895 0.59831 0.91283 0.0
H4880 H 0.76608 0.53869 0.84549 0.0
H4881 H 0.75939 0.50964 0.81217 0.0
H4882 H 0.71959 0.51377 0.83771 0.0
H4883 H 0.72607 0.54269 0.87121 0.0
C4884 C 0.76379 0.49573 0.97855 0.0
C4885 C 0.75128 0.4868 0.98483 0.0
C4886 C 0.76521 0.51462 0.96104 0.0
C4887 C 0.75416 0.52533 0.94987 0.0
C4888 C 0.74166 0.51712 0.9569 0.0
C4889 C 0.74022 0.49802 0.97419 0.0
C4890 C 0.75555 0.54344 0.92913 0.0
C4891 C 0.74985 0.53774 0.90587 0.0
C4892 C 0.76288 0.5652 0.93148 0.0
C4893 C 0.76961 0.57154 0.95545 0.0
C4894 C 0.76262 0.57273 0.97834 0.0
C4895 C 0.76921 0.57686 0.00112 0.0
C4896 C 0.78277 0.58004 0.00123 0.0
C4897 C 0.78976 0.57927 0.97853 0.0
C4898 C 0.78322 0.57511 0.95569 0.0
C4899 C 0.74501 0.62158 0.83926 0.0
C4900 C 0.75654 0.63328 0.83169 0.0
C4901 C 0.74545 0.60233 0.85668 0.0
C4902 C 0.75744 0.59453 0.86699 0.0
C4903 C 0.769 0.60628 0.85926 0.0
C4904 C 0.76856 0.62537 0.84161 0.0
C4905 C 0.75766 0.57571 0.88738 0.0
C4906 C 0.76377 0.58117 0.91064 0.0
C4907 C 0.75101 0.5532 0.88493 0.0
C4908 C 0.74651 0.54313 0.86054 0.0
C4909 C 0.75583 0.5341 0.84338 0.0
C4910 C 0.75213 0.51723 0.82485 0.0
C4911 C 0.73912 0.50952 0.82323 0.0
C4912 C 0.72968 0.51954 0.83923 0.0
C4913 C 0.73334 0.53628 0.85785 0.0
H4914 H 0.73632 0.49593 0.80946 0.0
H4915 H 0.78786 0.58311 0.01889 0.0
H4916 H 0.52983 0.48644 0.27375 0.0
H4917 H 0.52867 0.52243 0.30075 0.0
H4918 H 0.48656 0.52263 0.29439 0.0
H4919 H 0.48765 0.48673 0.26695 0.0
H4920 H 0.49528 0.56752 0.29039 0.0
H4921 H 0.49877 0.50725 0.35057 0.0
H4922 H 0.50538 0.47006 0.37342 0.0
H4923 H 0.54441 0.49796 0.38096 0.0
H4924 H 0.53804 0.53534 0.35789 0.0
H4925 H 0.48275 0.63529 0.40254 0.0
H4926 H 0.48493 0.606 0.36765 0.0
H4927 H 0.52679 0.61623 0.36811 0.0
H4928 H 0.52455 0.64576 0.40288 0.0
H4929 H 0.5201 0.56922 0.37082 0.0
H4930 H 0.5089 0.63561 0.31752 0.0
H4931 H 0.49619 0.67122 0.30303 0.0
H4932 H 0.46216 0.62616 0.29405 0.0
H4933 H 0.47462 0.59032 0.3088 0.0
C4934 C 0.52032 0.49415 0.27803 0.0
C4935 C 0.50884 0.48377 0.26825 0.0
C4936 C 0.51967 0.51464 0.29357 0.0
C4937 C 0.50752 0.52506 0.29972 0.0
C4938 C 0.49603 0.51488 0.28981 0.0
C4939 C 0.49668 0.49433 0.27424 0.0
C4940 C 0.507 0.54665 0.31646 0.0
C4941 C 0.50034 0.56765 0.30843 0.0
C4942 C 0.5137 0.54688 0.33978 0.0
C4943 C 0.51799 0.52392 0.35215 0.0
C4944 C 0.50883 0.50529 0.35671 0.0
C4945 C 0.5125 0.48424 0.36984 0.0
C4946 C 0.52532 0.48161 0.37855 0.0
C4947 C 0.5345 0.5 0.37409 0.0
C4948 C 0.53087 0.52112 0.36096 0.0
C4949 C 0.49236 0.6315 0.39482 0.0
C4950 C 0.50349 0.64265 0.40507 0.0
C4951 C 0.4936 0.61501 0.37479 0.0
C4952 C 0.50601 0.60931 0.36493 0.0
C4953 C 0.51713 0.62066 0.37516 0.0
C4954 C 0.51586 0.63741 0.39498 0.0
C4955 C 0.50741 0.58935 0.34616 0.0
C4956 C 0.51467 0.56878 0.35327 0.0
C4957 C 0.50019 0.58886 0.32334 0.0
C4958 C 0.49268 0.61034 0.31443 0.0
C4959 C 0.49868 0.63333 0.31264 0.0
C4960 C 0.49153 0.65355 0.30434 0.0
C4961 C 0.47837 0.65097 0.29767 0.0
C4962 C 0.47235 0.62814 0.29923 0.0
C4963 C 0.47946 0.60786 0.30752 0.0
H4964 H 0.47285 0.66665 0.29126 0.0
H4965 H 0.52814 0.46536 0.38884 0.0
H4966 H 0.74797 0.79243 0.30345 0.0
H4967 H 0.75051 0.76128 0.33652 0.0
H4968 H 0.75773 0.70676 0.27923 0.0
H4969 H 0.75513 0.73744 0.24636 0.0
H4970 H 0.74007 0.69211 0.31412 0.0
H4971 H 0.78282 0.7291 0.31218 0.0
H4972 H 0.79855 0.76307 0.31501 0.0
H4973 H 0.7861 0.77783 0.39109 0.0
H4974 H 0.77018 0.74408 0.38859 0.0
H4975 H 0.76256 0.59128 0.38151 0.0
H4976 H 0.7628 0.62593 0.35245 0.0
H4977 H 0.75948 0.67561 0.41551 0.0
H4978 H 0.75971 0.64122 0.44471 0.0
H4979 H 0.77458 0.69495 0.38008 0.0
H4980 H 0.73212 0.65699 0.38192 0.0
H4981 H 0.71595 0.62382 0.37811 0.0
H4982 H 0.72752 0.61178 0.30102 0.0
H4983 H 0.74387 0.64468 0.3045 0.0
C4984 C 0.74991 0.77371 0.29799 0.0
C4985 C 0.75134 0.7673 0.27238 0.0
C4986 C 0.75152 0.75607 0.31685 0.0
C4987 C 0.75447 0.73186 0.31023 0.0
C4988 C 0.75553 0.72539 0.28468 0.0
C4989 C 0.75402 0.74293 0.26594 0.0
C4990 C 0.75605 0.71276 0.32963 0.0
C4991 C 0.7477 0.6926 0.3284 0.0
C4992 C 0.76578 0.71384 0.34861 0.0
C4993 C 0.77523 0.73425 0.3501 0.0
C4994 C 0.78336 0.73974 0.32943 0.0
C4995 C 0.79233 0.75891 0.33099 0.0
C4996 C 0.7933 0.77264 0.3532 0.0
C4997 C 0.78532 0.7672 0.3739 0.0
C4998 C 0.77634 0.74804 0.37242 0.0
C4999 C 0.76209 0.60958 0.38922 0.0
C5000 C 0.76081 0.61346 0.41536 0.0
C5001 C 0.76216 0.62936 0.37259 0.0
C5002 C 0.76077 0.6533 0.3818 0.0
C5003 C 0.76043 0.65729 0.40798 0.0
C5004 C 0.76049 0.63756 0.42463 0.0
C5005 C 0.75877 0.67393 0.36415 0.0
C5006 C 0.76694 0.69446 0.36584 0.0
C5007 C 0.74886 0.67327 0.34545 0.0
C5008 C 0.73929 0.65309 0.34357 0.0
C5009 C 0.7313 0.64709 0.36426 0.0
C5010 C 0.72209 0.62838 0.36213 0.0
C5011 C 0.72073 0.61566 0.33935 0.0
C5012 C 0.72859 0.62161 0.31866 0.0
C5013 C 0.73783 0.64028 0.32069 0.0
H5014 H 0.71356 0.60123 0.33772 0.0
H5015 H 0.80027 0.78746 0.35439 0.0
H5016 H 0.52806 0.37911 0.16142 0.0
H5017 H 0.52661 0.3477 0.12877 0.0
H5018 H 0.48795 0.37301 0.10887 0.0
H5019 H 0.48953 0.40507 0.14139 0.0
H5020 H 0.48984 0.32204 0.11865 0.0
H5021 H 0.51243 0.38291 0.06914 0.0
H5022 H 0.53002 0.41282 0.06173 0.0
H5023 H 0.55882 0.35602 0.06822 0.0
H5024 H 0.54142 0.32585 0.07609 0.0
H5025 H 0.4816 0.24531 0.01443 0.0
H5026 H 0.48386 0.28124 0.04163 0.0
H5027 H 0.52411 0.26191 0.05652 0.0
H5028 H 0.52179 0.22576 0.0291 0.0
H5029 H 0.52128 0.31063 0.0481 0.0
H5030 H 0.50336 0.2511 0.09965 0.0
H5031 H 0.48924 0.21782 0.11471 0.0
H5032 H 0.45605 0.26592 0.11378 0.0
H5033 H 0.46995 0.29948 0.09819 0.0
C5034 C 0.51937 0.37829 0.14968 0.0
C5035 C 0.50897 0.39458 0.15359 0.0
C5036 C 0.51854 0.36034 0.1311 0.0
C5037 C 0.50718 0.35811 0.11638 0.0
C5038 C 0.49682 0.3746 0.11998 0.0
C5039 C 0.49777 0.39296 0.13832 0.0
C5040 C 0.506 0.33767 0.09824 0.0
C5041 C 0.49648 0.31979 0.10282 0.0
C5042 C 0.5152 0.33414 0.07861 0.0
C5043 C 0.52563 0.35217 0.07332 0.0
C5044 C 0.52252 0.37684 0.06911 0.0
C5045 C 0.53246 0.39383 0.06483 0.0
C5046 C 0.54553 0.38633 0.06454 0.0
C5047 C 0.54869 0.36181 0.06845 0.0
C5048 C 0.5388 0.34475 0.07279 0.0
C5049 C 0.4909 0.24887 0.02354 0.0
C5050 C 0.50151 0.23303 0.0201 0.0
C5051 C 0.49219 0.26926 0.03901 0.0
C5052 C 0.50411 0.27404 0.05119 0.0
C5053 C 0.51484 0.25844 0.04725 0.0
C5054 C 0.51351 0.23786 0.03183 0.0
C5055 C 0.5051 0.29508 0.06849 0.0
C5056 C 0.51452 0.31301 0.06373 0.0
C5057 C 0.49627 0.29803 0.08882 0.0
C5058 C 0.48766 0.27774 0.09722 0.0
C5059 C 0.493 0.2545 0.10213 0.0
C5060 C 0.48505 0.2356 0.11092 0.0
C5061 C 0.47174 0.23972 0.11507 0.0
C5062 C 0.46636 0.26275 0.11045 0.0
C5063 C 0.47427 0.28173 0.10162 0.0
H5064 H 0.4656 0.22508 0.12196 0.0
H5065 H 0.55321 0.39953 0.06125 0.0
H5066 H 0.27685 0.50909 0.01783 0.0
H5067 H 0.27351 0.47507 0.04741 0.0
H5068 H 0.23319 0.49657 0.05687 0.0
H5069 H 0.23639 0.53012 0.02723 0.0
H5070 H 0.24432 0.48772 0.10147 0.0
H5071 H 0.23891 0.44797 0.02426 0.0
H5072 H 0.24329 0.43462 0.9806 0.0
H5073 H 0.27821 0.39802 0.00518 0.0
H5074 H 0.27409 0.41131 0.04908 0.0
H5075 H 0.23053 0.37867 0.17496 0.0
H5076 H 0.22944 0.41232 0.14435 0.0
H5077 H 0.26827 0.39374 0.11828 0.0
H5078 H 0.26877 0.35905 0.14724 0.0
H5079 H 0.25471 0.40183 0.08025 0.0
H5080 H 0.25456 0.44493 0.16364 0.0
H5081 H 0.24503 0.46159 0.20336 0.0
H5082 H 0.21325 0.49257 0.16187 0.0
H5083 H 0.22221 0.47592 0.12225 0.0
C5084 C 0.26729 0.50647 0.02622 0.0
C5085 C 0.25689 0.52221 0.02023 0.0
C5086 C 0.26537 0.48702 0.043 0.0
C5087 C 0.25308 0.48327 0.05429 0.0
C5088 C 0.24274 0.49911 0.04839 0.0
C5089 C 0.24458 0.51821 0.03135 0.0
C5090 C 0.25102 0.46314 0.07264 0.0
C5091 C 0.24649 0.46882 0.09693 0.0
C5092 C 0.25353 0.43856 0.06635 0.0
C5093 C 0.25629 0.43095 0.03993 0.0
C5094 C 0.24763 0.43735 0.02033 0.0
C5095 C 0.25005 0.42974 0.99553 0.0
C5096 C 0.26108 0.41564 0.99007 0.0
C5097 C 0.2697 0.40904 0.00943 0.0
C5098 C 0.26731 0.41657 0.03429 0.0
C5099 C 0.23871 0.38172 0.16231 0.0
C5100 C 0.24962 0.36611 0.16294 0.0
C5101 C 0.23819 0.40121 0.14513 0.0
C5102 C 0.24887 0.40608 0.1291 0.0
C5103 C 0.25984 0.39048 0.1302 0.0
C5104 C 0.26014 0.37056 0.14668 0.0
C5105 C 0.24866 0.42632 0.11009 0.0
C5106 C 0.25264 0.42065 0.08522 0.0
C5107 C 0.24486 0.45079 0.11559 0.0
C5108 C 0.23904 0.45883 0.14001 0.0
C5109 C 0.24545 0.45493 0.16312 0.0
C5110 C 0.24018 0.46439 0.18555 0.0
C5111 C 0.22862 0.47794 0.18513 0.0
C5112 C 0.22218 0.48196 0.16226 0.0
C5113 C 0.22732 0.47244 0.13984 0.0
H5114 H 0.22469 0.48538 0.20252 0.0
H5115 H 0.26293 0.40972 0.97086 0.0
H5116 H 0.53171 0.34883 0.59601 0.0
H5117 H 0.53182 0.38128 0.62858 0.0
H5118 H 0.49155 0.39762 0.61076 0.0
H5119 H 0.49155 0.36611 0.57843 0.0
H5120 H 0.52508 0.43431 0.61874 0.0
H5121 H 0.47904 0.39514 0.6483 0.0
H5122 H 0.46837 0.3574 0.6631 0.0
H5123 H 0.50147 0.34177 0.71053 0.0
H5124 H 0.51253 0.37897 0.69511 0.0
H5125 H 0.49198 0.53248 0.68878 0.0
H5126 H 0.49516 0.49821 0.65912 0.0
H5127 H 0.516 0.45832 0.71674 0.0
H5128 H 0.51303 0.49152 0.74598 0.0
H5129 H 0.49497 0.43248 0.69231 0.0
H5130 H 0.53662 0.47702 0.67307 0.0
H5131 H 0.54647 0.51713 0.6635 0.0
H5132 H 0.52046 0.52567 0.6003 0.0
H5133 H 0.51048 0.48581 0.60965 0.0
C5134 C 0.52291 0.35934 0.59943 0.0
C5135 C 0.51158 0.35512 0.58502 0.0
C5136 C 0.52298 0.37781 0.61787 0.0
C5137 C 0.51167 0.3918 0.62219 0.0
C5138 C 0.50035 0.38698 0.60805 0.0
C5139 C 0.50033 0.36897 0.58955 0.0
C5140 C 0.51153 0.41234 0.64037 0.0
C5141 C 0.51841 0.43391 0.63465 0.0
C5142 C 0.50317 0.41188 0.66158 0.0
C5143 C 0.49672 0.38929 0.67005 0.0
C5144 C 0.48413 0.38335 0.66147 0.0
C5145 C 0.47801 0.3621 0.66999 0.0
C5146 C 0.48428 0.34708 0.6876 0.0
C5147 C 0.49669 0.35326 0.69668 0.0
C5148 C 0.50293 0.37429 0.68789 0.0
C5149 C 0.49723 0.51638 0.69502 0.0
C5150 C 0.5022 0.51481 0.71976 0.0
C5151 C 0.49907 0.49697 0.67812 0.0
C5152 C 0.5058 0.47592 0.68598 0.0
C5153 C 0.51076 0.47444 0.71047 0.0
C5154 C 0.50903 0.49361 0.72714 0.0
C5155 C 0.50755 0.45477 0.66927 0.0
C5156 C 0.50132 0.433 0.67586 0.0
C5157 C 0.51626 0.45532 0.64867 0.0
C5158 C 0.52301 0.47822 0.6417 0.0
C5159 C 0.53316 0.48733 0.65691 0.0
C5160 C 0.53871 0.51009 0.65163 0.0
C5161 C 0.53415 0.52388 0.63121 0.0
C5162 C 0.52407 0.51489 0.61598 0.0
C5163 C 0.51851 0.49215 0.62117 0.0
H5164 H 0.53838 0.54156 0.62726 0.0
H5165 H 0.47948 0.33074 0.69433 0.0
H5166 H 0.27952 0.23928 0.72477 0.0
H5167 H 0.27661 0.27202 0.69375 0.0
H5168 H 0.23473 0.26407 0.69886 0.0
H5169 H 0.23753 0.23152 0.73007 0.0
H5170 H 0.24387 0.26711 0.64865 0.0
H5171 H 0.24786 0.31052 0.72674 0.0
H5172 H 0.25799 0.32148 0.76746 0.0
H5173 H 0.29289 0.3442 0.72892 0.0
H5174 H 0.28298 0.33313 0.68793 0.0
H5175 H 0.23095 0.37803 0.57962 0.0
H5176 H 0.23123 0.34334 0.60907 0.0
H5177 H 0.27247 0.35518 0.62213 0.0
H5178 H 0.27192 0.39051 0.5939 0.0
H5179 H 0.26168 0.34985 0.66438 0.0
H5180 H 0.25914 0.30086 0.58709 0.0
H5181 H 0.25027 0.28411 0.54734 0.0
H5182 H 0.21336 0.27089 0.58355 0.0
H5183 H 0.22211 0.2872 0.62365 0.0
C5184 C 0.26969 0.24465 0.71946 0.0
C5185 C 0.25877 0.23288 0.72999 0.0
C5186 C 0.26804 0.26331 0.7017 0.0
C5187 C 0.25545 0.27046 0.69401 0.0
C5188 C 0.24453 0.25879 0.70449 0.0
C5189 C 0.24616 0.24034 0.72251 0.0
C5190 C 0.25374 0.29039 0.67528 0.0
C5191 C 0.24761 0.28533 0.65212 0.0
C5192 C 0.25877 0.31399 0.67972 0.0
C5193 C 0.26472 0.3208 0.7043 0.0
C5194 C 0.25773 0.31767 0.72696 0.0
C5195 C 0.26343 0.32393 0.75009 0.0
C5196 C 0.2761 0.33344 0.7508 0.0
C5197 C 0.28308 0.33679 0.72835 0.0
C5198 C 0.27742 0.33057 0.70516 0.0
C5199 C 0.24001 0.37318 0.58903 0.0
C5200 C 0.25135 0.38711 0.58517 0.0
C5201 C 0.24023 0.35316 0.60553 0.0
C5202 C 0.25191 0.3464 0.6178 0.0
C5203 C 0.26331 0.36007 0.61316 0.0
C5204 C 0.263 0.38032 0.59716 0.0
C5205 C 0.2522 0.32653 0.63706 0.0
C5206 C 0.25795 0.33167 0.66063 0.0
C5207 C 0.24686 0.303 0.63286 0.0
C5208 C 0.24123 0.29546 0.60825 0.0
C5209 C 0.24908 0.2947 0.58646 0.0
C5210 C 0.2441 0.2851 0.56392 0.0
C5211 C 0.23125 0.27644 0.5629 0.0
C5212 C 0.22331 0.27757 0.58436 0.0
C5213 C 0.22829 0.28689 0.60702 0.0
H5214 H 0.22744 0.26876 0.54554 0.0
H5215 H 0.2805 0.33829 0.76872 0.0
H5216 H 0.16702 0.30785 0.20795 0.0
H5217 H 0.14787 0.29341 0.18536 0.0
H5218 H 0.1668 0.30961 0.11434 0.0
H5219 H 0.1856 0.32614 0.13737 0.0
H5220 H 0.14604 0.33446 0.11781 0.0
H5221 H 0.15441 0.24864 0.13609 0.0
H5222 H 0.15901 0.2137 0.16415 0.0
H5223 H 0.12393 0.22862 0.20612 0.0
H5224 H 0.11922 0.2638 0.17856 0.0
H5225 H 0.09575 0.30905 0.03772 0.0
H5226 H 0.11425 0.29417 0.0624 0.0
H5227 H 0.09375 0.31154 0.13133 0.0
H5228 H 0.0753 0.32747 0.10646 0.0
H5229 H 0.11434 0.26692 0.12963 0.0
H5230 H 0.10742 0.35293 0.12082 0.0
H5231 H 0.10144 0.39059 0.09833 0.0
H5232 H 0.13241 0.37845 0.045 0.0
H5233 H 0.13868 0.34056 0.06737 0.0
C5234 C 0.16739 0.30694 0.18748 0.0
C5235 C 0.17777 0.31795 0.17433 0.0
C5236 C 0.15637 0.2987 0.17449 0.0
C5237 C 0.15579 0.3004 0.14803 0.0
C5238 C 0.16698 0.30823 0.13478 0.0
C5239 C 0.17784 0.31728 0.14786 0.0
C5240 C 0.14294 0.29909 0.13484 0.0
C5241 C 0.13935 0.31923 0.11993 0.0
C5242 C 0.13368 0.2802 0.13893 0.0
C5243 C 0.13651 0.2589 0.15531 0.0
C5244 C 0.14772 0.24453 0.15138 0.0
C5245 C 0.15034 0.22468 0.1672 0.0
C5246 C 0.14177 0.21896 0.18691 0.0
C5247 C 0.13056 0.23305 0.19084 0.0
C5248 C 0.1279 0.25292 0.17511 0.0
C5249 C 0.09487 0.30832 0.05813 0.0
C5250 C 0.08415 0.3193 0.07027 0.0
C5251 C 0.10546 0.29994 0.0722 0.0
C5252 C 0.10536 0.30199 0.0986 0.0
C5253 C 0.09391 0.30972 0.11093 0.0
C5254 C 0.08335 0.31864 0.09676 0.0
C5255 C 0.11796 0.30162 0.11218 0.0
C5256 C 0.12133 0.28161 0.12724 0.0
C5257 C 0.12694 0.32092 0.10901 0.0
C5258 C 0.12335 0.34367 0.09549 0.0
C5259 C 0.11292 0.35814 0.10421 0.0
C5260 C 0.10953 0.37958 0.09163 0.0
C5261 C 0.11645 0.38665 0.07015 0.0
C5262 C 0.127 0.3727 0.06154 0.0
C5263 C 0.13051 0.35129 0.07424 0.0
H5264 H 0.11358 0.40296 0.06026 0.0
H5265 H 0.14382 0.20358 0.19913 0.0
H5266 H 0.08708 0.96941 0.19089 0.0
H5267 H 0.10623 0.98087 0.16557 0.0
H5268 H 0.10204 0.91456 0.12237 0.0
H5269 H 0.0824 0.90449 0.14569 0.0
H5270 H 0.12697 0.94302 0.16901 0.0
H5271 H 0.10606 0.92332 0.08047 0.0
H5272 H 0.08661 0.93353 0.0549 0.0
H5273 H 0.09425 0.00996 0.06541 0.0
H5274 H 0.11329 1.00005 0.09234 0.0
H5275 H 0.17851 0.89438 0.09937 0.0
H5276 H 0.15961 0.90774 0.1229 0.0
H5277 H 0.1586 0.97476 0.07984 0.0
H5278 H 0.17678 0.95956 0.05395 0.0
H5279 H 0.1363 0.95633 0.07799 0.0
H5280 H 0.16467 0.9697 0.15051 0.0
H5281 H 0.18289 0.95651 0.17794 0.0
H5282 H 0.16138 0.89244 0.19902 0.0
H5283 H 0.14307 0.90516 0.17166 0.0
C5284 C 0.08963 0.95853 0.17449 0.0
C5285 C 0.08326 0.93632 0.16984 0.0
C5286 C 0.10068 0.96478 0.16041 0.0
C5287 C 0.10539 0.94876 0.14182 0.0
C5288 C 0.09823 0.92781 0.13564 0.0
C5289 C 0.08696 0.92207 0.14899 0.0
C5290 C 0.11885 0.95108 0.13237 0.0
C5291 C 0.12913 0.94639 0.14923 0.0
C5292 C 0.12151 0.95521 0.10665 0.0
C5293 C 0.11088 0.96099 0.08872 0.0
C5294 C 0.10349 0.94228 0.07753 0.0
C5295 C 0.09252 0.948 0.0629 0.0
C5296 C 0.08915 0.97239 0.05864 0.0
C5297 C 0.0968 0.99108 0.0689 0.0
C5298 C 0.10761 0.98543 0.08401 0.0
C5299 C 0.17468 0.91253 0.09587 0.0
C5300 C 0.17907 0.92609 0.07515 0.0
C5301 C 0.16383 0.92029 0.10942 0.0
C5302 C 0.15773 0.94259 0.10362 0.0
C5303 C 0.16315 0.95753 0.08473 0.0
C5304 C 0.17371 0.94917 0.07033 0.0
C5305 C 0.14474 0.9483 0.11465 0.0
C5306 C 0.13442 0.95403 0.09803 0.0
C5307 C 0.14207 0.94489 0.14072 0.0
C5308 C 0.15249 0.93848 0.15912 0.0
C5309 C 0.16379 0.95293 0.16121 0.0
C5310 C 0.17415 0.94547 0.17666 0.0
C5311 C 0.17329 0.92365 0.19021 0.0
C5312 C 0.16201 0.90937 0.18858 0.0
C5313 C 0.1516 0.91677 0.17323 0.0
H5314 H 0.18138 0.91779 0.20196 0.0
H5315 H 0.08065 0.9768 0.04731 0.0
H5316 H 0.92694 0.64608 0.91783 0.0
H5317 H 0.90749 0.65273 0.89418 0.0
H5318 H 0.90725 0.72865 0.91659 0.0
H5319 H 0.92444 0.71909 0.9477 0.0
H5320 H 0.88503 0.71826 0.91537 0.0
H5321 H 0.91589 0.69616 0.84601 0.0
H5322 H 0.93335 0.6681 0.83179 0.0
H5323 H 0.90729 0.60716 0.83973 0.0
H5324 H 0.88962 0.63488 0.85335 0.0
H5325 H 0.84084 0.70955 0.79649 0.0
H5326 H 0.85946 0.72251 0.82264 0.0
H5327 H 0.85004 0.66665 0.87697 0.0
H5328 H 0.83115 0.65478 0.85183 0.0
H5329 H 0.87736 0.67513 0.8342 0.0
H5330 H 0.85019 0.69302 0.91209 0.0
H5331 H 0.83213 0.71709 0.93039 0.0
H5332 H 0.85113 0.78342 0.90773 0.0
H5333 H 0.86906 0.75956 0.88839 0.0
C5334 C 0.92294 0.66443 0.91728 0.0
C5335 C 0.92714 0.68204 0.93465 0.0
C5336 C 0.91189 0.6685 0.90285 0.0
C5337 C 0.90612 0.69173 0.90156 0.0
C5338 C 0.91144 0.71049 0.9168 0.0
C5339 C 0.92154 0.70539 0.93405 0.0
C5340 C 0.89387 0.69545 0.88651 0.0
C5341 C 0.88365 0.70931 0.89728 0.0
C5342 C 0.89157 0.68343 0.86298 0.0
C5343 C 0.90147 0.66762 0.85062 0.0
C5344 C 0.91383 0.67685 0.84417 0.0
C5345 C 0.92377 0.66098 0.83636 0.0
C5346 C 0.92145 0.63586 0.83497 0.0
C5347 C 0.90909 0.6266 0.84083 0.0
C5348 C 0.89905 0.64242 0.84822 0.0
C5349 C 0.8422 0.70144 0.81498 0.0
C5350 C 0.83447 0.68164 0.8226 0.0
C5351 C 0.8529 0.70858 0.82969 0.0
C5352 C 0.85592 0.69582 0.85192 0.0
C5353 C 0.84755 0.67738 0.86047 0.0
C5354 C 0.83672 0.67068 0.84615 0.0
C5355 C 0.86902 0.69782 0.86322 0.0
C5356 C 0.87921 0.6849 0.85172 0.0
C5357 C 0.87126 0.71035 0.88601 0.0
C5358 C 0.86077 0.72456 0.89835 0.0
C5359 C 0.85039 0.71271 0.91063 0.0
C5360 C 0.84019 0.7263 0.92123 0.0
C5361 C 0.84044 0.75178 0.92009 0.0
C5362 C 0.85091 0.76369 0.90845 0.0
C5363 C 0.86106 0.75014 0.89759 0.0
H5364 H 0.83254 0.76229 0.92833 0.0
H5365 H 0.92921 0.62359 0.82926 0.0
H5366 H 0.93227 0.08206 0.86695 0.0
H5367 H 0.91273 0.06553 0.88786 0.0
H5368 H 0.8975 0.04298 0.8155 0.0
H5369 H 0.91716 0.05847 0.79482 0.0
H5370 H 0.88574 0.08724 0.84978 0.0
H5371 H 0.89612 0.99972 0.8442 0.0
H5372 H 0.91213 0.96677 0.85179 0.0
H5373 H 0.91273 0.98438 0.93096 0.0
H5374 H 0.89675 0.01752 0.92373 0.0
H5375 H 0.82276 0.07903 0.88722 0.0
H5376 H 0.84167 0.06252 0.86455 0.0
H5377 H 0.85978 0.04376 0.93564 0.0
H5378 H 0.84045 0.05831 0.95801 0.0
H5379 H 0.87062 0.01685 0.90103 0.0
H5380 H 0.8655 0.10427 0.91058 0.0
H5381 H 0.85366 0.14356 0.90843 0.0
H5382 H 0.84652 0.13212 0.82922 0.0
H5383 H 0.85868 0.09333 0.83081 0.0
C5384 C 0.92514 0.0721 0.85586 0.0
C5385 C 0.92619 0.07117 0.82947 0.0
C5386 C 0.91397 0.06287 0.8677 0.0
C5387 C 0.90376 0.05312 0.8531 0.0
C5388 C 0.9054 0.05009 0.82702 0.0
C5389 C 0.91666 0.05876 0.8153 0.0
C5390 C 0.89052 0.05154 0.86388 0.0
C5391 C 0.88228 0.07162 0.86047 0.0
C5392 C 0.88639 0.03174 0.87879 0.0
C5393 C 0.89524 0.01091 0.88347 0.0
C5394 C 0.89964 0.99644 0.86323 0.0
C5395 C 0.90871 0.97779 0.86745 0.0
C5396 C 0.91343 0.97346 0.89185 0.0
C5397 C 0.90902 0.9877 0.91209 0.0
C5398 C 0.89992 0.00634 0.90797 0.0
C5399 C 0.83032 0.06966 0.8978 0.0
C5400 C 0.83014 0.06985 0.9243 0.0
C5401 C 0.8413 0.06077 0.88493 0.0
C5402 C 0.8524 0.05295 0.89847 0.0
C5403 C 0.85142 0.04989 0.92472 0.0
C5404 C 0.84027 0.05796 0.93751 0.0
C5405 C 0.86546 0.0523 0.88611 0.0
C5406 C 0.87384 0.03217 0.8897 0.0
C5407 C 0.87002 0.07255 0.87198 0.0
C5408 C 0.86281 0.09589 0.87087 0.0
C5409 C 0.8614 0.11025 0.89273 0.0
C5410 C 0.85471 0.13249 0.89158 0.0
C5411 C 0.84931 0.14037 0.86873 0.0
C5412 C 0.85075 0.12617 0.8469 0.0
C5413 C 0.8576 0.10414 0.84786 0.0
H5414 H 0.84404 0.15747 0.86802 0.0
H5415 H 0.92052 0.9591 0.89506 0.0
H5416 H 0.17936 0.85101 0.63982 0.0
H5417 H 0.16122 0.83587 0.61403 0.0
H5418 H 0.15102 0.78493 0.67287 0.0
H5419 H 0.16914 0.80033 0.69887 0.0
H5420 H 0.14631 0.77046 0.61529 0.0
H5421 H 0.13884 0.83326 0.68077 0.0
H5422 H 0.14228 0.87308 0.7014 0.0
H5423 H 0.13398 0.90986 0.63168 0.0
H5424 H 0.131 0.8703 0.61024 0.0
H5425 H 0.07378 0.81887 0.60223 0.0
H5426 H 0.09281 0.80102 0.62371 0.0
H5427 H 0.11458 0.80443 0.55403 0.0
H5428 H 0.09545 0.81998 0.53238 0.0
H5429 H 0.11314 0.83655 0.61962 0.0
H5430 H 0.13135 0.77635 0.55287 0.0
H5431 H 0.12798 0.739 0.52764 0.0
H5432 H 0.11651 0.70025 0.59461 0.0
H5433 H 0.11923 0.73783 0.61998 0.0
C5434 C 0.1737 0.83563 0.64658 0.0
C5435 C 0.17568 0.82654 0.67106 0.0
C5436 C 0.1633 0.82712 0.63195 0.0
C5437 C 0.15477 0.80944 0.64168 0.0
C5438 C 0.15759 0.79843 0.665 0.0
C5439 C 0.16797 0.8071 0.67976 0.0
C5440 C 0.14178 0.80619 0.62994 0.0
C5441 C 0.13899 0.78479 0.6164 0.0
C5442 C 0.13234 0.82506 0.63106 0.0
C5443 C 0.13483 0.84873 0.64383 0.0
C5444 C 0.13802 0.84977 0.66966 0.0
C5445 C 0.13984 0.87233 0.6815 0.0
C5446 C 0.13821 0.89393 0.66787 0.0
C5447 C 0.13513 0.89308 0.64221 0.0
C5448 C 0.13345 0.87061 0.63018 0.0
C5449 C 0.08229 0.81385 0.59118 0.0
C5450 C 0.08313 0.82049 0.56565 0.0
C5451 C 0.09321 0.80381 0.60344 0.0
C5452 C 0.10512 0.80081 0.59042 0.0
C5453 C 0.10545 0.80518 0.56432 0.0
C5454 C 0.09446 0.81437 0.55194 0.0
C5455 C 0.11757 0.8009 0.6048 0.0
C5456 C 0.12032 0.82195 0.61885 0.0
C5457 C 0.1271 0.78221 0.60328 0.0
C5458 C 0.125 0.76001 0.58806 0.0
C5459 C 0.12774 0.76004 0.56205 0.0
C5460 C 0.126 0.73883 0.54775 0.0
C5461 C 0.1219 0.71731 0.55947 0.0
C5462 C 0.11952 0.717 0.58551 0.0
C5463 C 0.12105 0.7383 0.5998 0.0
H5464 H 0.12067 0.70084 0.54842 0.0
H5465 H 0.13917 0.91136 0.67716 0.0
H5466 H 0.17546 0.40252 0.60614 0.0
H5467 H 0.15782 0.42137 0.63041 0.0
H5468 H 0.15683 0.48156 0.57794 0.0
H5469 H 0.17442 0.46243 0.55329 0.0
H5470 H 0.14973 0.47377 0.64913 0.0
H5471 H 0.13793 0.46216 0.55223 0.0
H5472 H 0.14382 0.43418 0.51735 0.0
H5473 H 0.13572 0.37247 0.56475 0.0
H5474 H 0.13008 0.40008 0.60003 0.0
H5475 H 0.08702 0.47725 0.69888 0.0
H5476 H 0.10441 0.49052 0.66999 0.0
H5477 H 0.10122 0.42162 0.63026 0.0
H5478 H 0.08275 0.41081 0.65601 0.0
H5479 H 0.11113 0.44515 0.60062 0.0
H5480 H 0.12278 0.43724 0.68882 0.0
H5481 H 0.1235 0.44617 0.73458 0.0
H5482 H 0.13582 0.51953 0.71896 0.0
H5483 H 0.13508 0.51106 0.67312 0.0
C5484 C 0.17196 0.42043 0.60067 0.0
C5485 C 0.17614 0.43115 0.57802 0.0
C5486 C 0.16192 0.43116 0.61448 0.0
C5487 C 0.15605 0.45264 0.60568 0.0
C5488 C 0.16136 0.46499 0.58489 0.0
C5489 C 0.1714 0.45417 0.57095 0.0
C5490 C 0.14279 0.45836 0.61439 0.0
C5491 C 0.14115 0.46827 0.63847 0.0
C5492 C 0.13189 0.44937 0.60095 0.0
C5493 C 0.13365 0.43317 0.57871 0.0
C5494 C 0.13732 0.44264 0.55511 0.0
C5495 C 0.14071 0.42685 0.53536 0.0
C5496 C 0.14028 0.40161 0.53895 0.0
C5497 C 0.13615 0.39204 0.56208 0.0
C5498 C 0.13285 0.40774 0.58193 0.0
C5499 C 0.08954 0.46596 0.68277 0.0
C5500 C 0.0836 0.4432 0.67937 0.0
C5501 C 0.09973 0.4731 0.66673 0.0
C5502 C 0.10468 0.45668 0.64853 0.0
C5503 C 0.09778 0.43495 0.64384 0.0
C5504 C 0.08711 0.42868 0.65862 0.0
C5505 C 0.1177 0.4602 0.63638 0.0
C5506 C 0.11942 0.4518 0.6114 0.0
C5507 C 0.12886 0.46825 0.65017 0.0
C5508 C 0.12863 0.47368 0.6776 0.0
C5509 C 0.12548 0.45536 0.69517 0.0
C5510 C 0.12594 0.46031 0.72111 0.0
C5511 C 0.12964 0.48344 0.72966 0.0
C5512 C 0.13289 0.50167 0.71231 0.0
C5513 C 0.13244 0.49682 0.68637 0.0
H5514 H 0.13004 0.48721 0.74974 0.0
H5515 H 0.14315 0.38945 0.52381 0.0
H5516 H 0.82617 0.16453 0.3633 0.0
H5517 H 0.84577 0.18088 0.38411 0.0
H5518 H 0.85985 0.20704 0.31227 0.0
H5519 H 0.84011 0.19154 0.29169 0.0
H5520 H 0.87462 0.16704 0.33879 0.0
H5521 H 0.85778 0.24983 0.35252 0.0
H5522 H 0.84071 0.27801 0.36804 0.0
H5523 H 0.84358 0.24654 0.44221 0.0
H5524 H 0.86067 0.21818 0.42706 0.0
H5525 H 0.93627 0.17672 0.38797 0.0
H5526 H 0.91775 0.1939 0.36435 0.0
H5527 H 0.89591 0.20025 0.43399 0.0
H5528 H 0.91478 0.18594 0.45746 0.0
H5529 H 0.88517 0.22829 0.4048 0.0
H5530 H 0.90022 0.14611 0.39633 0.0
H5531 H 0.91481 0.11207 0.38505 0.0
H5532 H 0.91316 0.13319 0.30693 0.0
H5533 H 0.89851 0.16746 0.31778 0.0
C5534 C 0.83302 0.17526 0.35235 0.0
C5535 C 0.83157 0.17717 0.32604 0.0
C5536 C 0.84428 0.18431 0.36413 0.0
C5537 C 0.85425 0.19497 0.34962 0.0
C5538 C 0.85221 0.19902 0.32377 0.0
C5539 C 0.84085 0.19048 0.31211 0.0
C5540 C 0.86754 0.19761 0.36033 0.0
C5541 C 0.8771 0.18078 0.35279 0.0
C5542 C 0.87044 0.21467 0.37943 0.0
C5543 C 0.86045 0.23198 0.38869 0.0
C5544 C 0.85474 0.24896 0.37213 0.0
C5545 C 0.84509 0.26495 0.38086 0.0
C5546 C 0.84106 0.26406 0.4061 0.0
C5547 C 0.84673 0.24724 0.42269 0.0
C5548 C 0.85643 0.23128 0.41407 0.0
C5549 C 0.92783 0.18345 0.39823 0.0
C5550 C 0.92682 0.17986 0.42438 0.0
C5551 C 0.91714 0.19279 0.38476 0.0
C5552 C 0.90516 0.19713 0.39721 0.0
C5553 C 0.9049 0.19678 0.42374 0.0
C5554 C 0.91574 0.18863 0.43723 0.0
C5555 C 0.89256 0.19782 0.3831 0.0
C5556 C 0.88296 0.2149 0.39029 0.0
C5557 C 0.88943 0.1801 0.36441 0.0
C5558 C 0.89827 0.15945 0.3579 0.0
C5559 C 0.90288 0.14345 0.37672 0.0
C5560 C 0.9112 0.12414 0.37042 0.0
C5561 C 0.9149 0.12045 0.34528 0.0
C5562 C 0.91028 0.13607 0.3264 0.0
C5563 C 0.90196 0.15544 0.33262 0.0
H5564 H 0.92136 0.10549 0.34042 0.0
H5565 H 0.83355 0.27641 0.4128 0.0
H5566 H 0.93242 0.58112 0.36901 0.0
H5567 H 0.91221 0.56497 0.38779 0.0
H5568 H 0.89789 0.54677 0.31346 0.0
H5569 H 0.91821 0.56167 0.29488 0.0
H5570 H 0.88634 0.5902 0.34932 0.0
H5571 H 0.89437 0.50281 0.33825 0.0
H5572 H 0.90906 0.46739 0.34346 0.0
H5573 H 0.90972 0.47901 0.4238 0.0
H5574 H 0.89505 0.51459 0.41897 0.0
H5575 H 0.82256 0.58355 0.38482 0.0
H5576 H 0.84142 0.56765 0.36151 0.0
H5577 H 0.85898 0.54444 0.43174 0.0
H5578 H 0.83974 0.55864 0.45463 0.0
H5579 H 0.86916 0.51838 0.39578 0.0
H5580 H 0.86311 0.60502 0.40931 0.0
H5581 H 0.85151 0.64455 0.40709 0.0
H5582 H 0.85005 0.63919 0.32612 0.0
H5583 H 0.86167 0.5997 0.32787 0.0
C5584 C 0.92532 0.57214 0.35699 0.0
C5585 C 0.92685 0.57224 0.33068 0.0
C5586 C 0.91377 0.56314 0.36762 0.0
C5587 C 0.90366 0.55476 0.3519 0.0
C5588 C 0.90571 0.55278 0.32584 0.0
C5589 C 0.91735 0.5611 0.31531 0.0
C5590 C 0.89022 0.55356 0.36175 0.0
C5591 C 0.88242 0.57435 0.35902 0.0
C5592 C 0.88547 0.53323 0.37508 0.0
C5593 C 0.89364 0.51122 0.37826 0.0
C5594 C 0.89764 0.49773 0.35702 0.0
C5595 C 0.90596 0.47767 0.35989 0.0
C5596 C 0.91032 0.47094 0.38395 0.0
C5597 C 0.9063 0.4842 0.40519 0.0
C5598 C 0.89795 0.50425 0.40241 0.0
C5599 C 0.83001 0.57344 0.39496 0.0
C5600 C 0.82971 0.57218 0.42141 0.0
C5601 C 0.84093 0.56483 0.38176 0.0
C5602 C 0.85185 0.55581 0.39502 0.0
C5603 C 0.85075 0.5515 0.42107 0.0
C5604 C 0.83967 0.5594 0.43414 0.0
C5605 C 0.86494 0.55497 0.38285 0.0
C5606 C 0.87284 0.53407 0.38555 0.0
C5607 C 0.86999 0.57556 0.36984 0.0
C5608 C 0.86301 0.59925 0.36876 0.0
C5609 C 0.86021 0.61221 0.39107 0.0
C5610 C 0.85365 0.63458 0.38989 0.0
C5611 C 0.84987 0.64416 0.36651 0.0
C5612 C 0.85286 0.63162 0.34422 0.0
C5613 C 0.85946 0.60928 0.34529 0.0
H5614 H 0.84474 0.66144 0.36565 0.0
H5615 H 0.91681 0.45547 0.38613 0.0
H5616 H 0.57311 0.31804 0.61016 0.0
H5617 H 0.59237 0.29963 0.63032 0.0
H5618 H 0.61394 0.30854 0.56062 0.0
H5619 H 0.59427 0.32243 0.53988 0.0
H5620 H 0.62675 0.28032 0.58206 0.0
H5621 H 0.60907 0.35636 0.61532 0.0
H5622 H 0.59207 0.38184 0.63544 0.0
H5623 H 0.59264 0.33554 0.70095 0.0
H5624 H 0.60957 0.30967 0.68107 0.0
H5625 H 0.68326 0.3424 0.62996 0.0
H5626 H 0.6635 0.32667 0.6097 0.0
H5627 H 0.65295 0.28989 0.67879 0.0
H5628 H 0.67278 0.30557 0.69899 0.0
H5629 H 0.63467 0.32456 0.66245 0.0
H5630 H 0.6577 0.25477 0.62441 0.0
H5631 H 0.67695 0.23936 0.60113 0.0
H5632 H 0.66843 0.28804 0.53965 0.0
H5633 H 0.64912 0.30366 0.56258 0.0
C5634 C 0.58174 0.31439 0.5989 0.0
C5635 C 0.58229 0.32182 0.5736 0.0
C5636 C 0.59292 0.30462 0.61057 0.0
C5637 C 0.60501 0.30425 0.59766 0.0
C5638 C 0.60497 0.30883 0.5715 0.0
C5639 C 0.59362 0.31678 0.55949 0.0
C5640 C 0.61784 0.30239 0.61134 0.0
C5641 C 0.62834 0.29009 0.59963 0.0
C5642 C 0.62028 0.31503 0.63439 0.0
C5643 C 0.61043 0.33095 0.64662 0.0
C5644 C 0.60555 0.35164 0.63401 0.0
C5645 C 0.59592 0.36612 0.64535 0.0
C5646 C 0.59124 0.36025 0.66943 0.0
C5647 C 0.59625 0.34001 0.68228 0.0
C5648 C 0.60586 0.32545 0.671 0.0
C5649 C 0.6772 0.32957 0.64021 0.0
C5650 C 0.67968 0.32477 0.66582 0.0
C5651 C 0.66579 0.32085 0.62877 0.0
C5652 C 0.65672 0.30714 0.64278 0.0
C5653 C 0.65984 0.30033 0.66762 0.0
C5654 C 0.67131 0.30887 0.67898 0.0
C5655 C 0.64332 0.3031 0.63275 0.0
C5656 C 0.63283 0.31442 0.64516 0.0
C5657 C 0.64105 0.29094 0.60966 0.0
C5658 C 0.65197 0.2802 0.59509 0.0
C5659 C 0.65989 0.26199 0.60583 0.0
C5660 C 0.67081 0.25328 0.59273 0.0
C5661 C 0.6739 0.26269 0.56891 0.0
C5662 C 0.66599 0.28068 0.55803 0.0
C5663 C 0.65502 0.28936 0.571 0.0
H5664 H 0.68243 0.25607 0.5589 0.0
H5665 H 0.58376 0.37143 0.67815 0.0
H5666 H 0.57335 0.9284 0.63007 0.0
H5667 H 0.59297 0.9431 0.60831 0.0
H5668 H 0.61171 0.95494 0.68051 0.0
H5669 H 0.5917 0.94292 0.70191 0.0
H5670 H 0.62369 0.98111 0.65066 0.0
H5671 H 0.61277 0.89694 0.64794 0.0
H5672 H 0.59963 0.85995 0.64017 0.0
H5673 H 0.59804 0.87683 0.56095 0.0
H5674 H 0.61117 0.91396 0.56827 0.0
H5675 H 0.68355 0.91701 0.61107 0.0
H5676 H 0.66437 0.93488 0.63201 0.0
H5677 H 0.64931 0.95764 0.55962 0.0
H5678 H 0.66859 0.94046 0.53884 0.0
H5679 H 0.63591 0.91748 0.58818 0.0
H5680 H 0.64955 0.00357 0.59834 0.0
H5681 H 0.66592 0.03387 0.61224 0.0
H5682 H 0.66615 0.0023 0.68658 0.0
H5683 H 0.6497 0.97197 0.67308 0.0
C5684 C 0.58134 0.93584 0.6411 0.0
C5685 C 0.58106 0.9347 0.66753 0.0
C5686 C 0.59268 0.94364 0.62877 0.0
C5687 C 0.60405 0.94895 0.64277 0.0
C5688 C 0.60317 0.95075 0.66918 0.0
C5689 C 0.59165 0.94409 0.68144 0.0
C5690 C 0.61712 0.94909 0.63041 0.0
C5691 C 0.6263 0.96711 0.63705 0.0
C5692 C 0.62084 0.93049 0.61316 0.0
C5693 C 0.61277 0.9084 0.60869 0.0
C5694 C 0.60952 0.89287 0.6289 0.0
C5695 C 0.60209 0.87186 0.62457 0.0
C5696 C 0.59792 0.86615 0.60011 0.0
C5697 C 0.60122 0.88136 0.5799 0.0
C5698 C 0.60867 0.90236 0.58411 0.0
C5699 C 0.67658 0.92732 0.59992 0.0
C5700 C 0.67756 0.92767 0.57348 0.0
C5701 C 0.66559 0.93735 0.61182 0.0
C5702 C 0.65545 0.94746 0.59727 0.0
C5703 C 0.65712 0.95016 0.57113 0.0
C5704 C 0.66818 0.94053 0.55932 0.0
C5705 C 0.6422 0.94957 0.60812 0.0
C5706 C 0.6331 0.93161 0.6015 0.0
C5707 C 0.63889 0.96719 0.62642 0.0
C5708 C 0.64845 0.98565 0.63474 0.0
C5709 C 0.65311 0.00318 0.61765 0.0
C5710 C 0.66237 0.02035 0.62546 0.0
C5711 C 0.66707 0.02001 0.65028 0.0
C5712 C 0.66247 0.00259 0.66739 0.0
C5713 C 0.65313 0.9855 0.65971 0.0
H5714 H 0.67429 0.03325 0.65626 0.0
H5715 H 0.59218 0.84986 0.59679 0.0
H5716 H 0.41831 0.68425 0.4556 0.0
H5717 H 0.39841 0.6978 0.4343 0.0
H5718 H 0.4167 0.68557 0.36197 0.0
H5719 H 0.4364 0.67004 0.3834 0.0
H5720 H 0.39569 0.73092 0.37325 0.0
H5721 H 0.40473 0.64407 0.37041 0.0
H5722 H 0.41013 0.60299 0.386 0.0
H5723 H 0.37691 0.60504 0.43556 0.0
H5724 H 0.37183 0.64688 0.42152 0.0
H5725 H 0.34368 0.69465 0.29109 0.0
H5726 H 0.36252 0.70882 0.31511 0.0
H5727 H 0.34411 0.68482 0.38419 0.0
H5728 H 0.32547 0.66961 0.35979 0.0
H5729 H 0.36537 0.66037 0.37533 0.0
H5730 H 0.35465 0.74564 0.373 0.0
H5731 H 0.34824 0.78419 0.35243 0.0
H5732 H 0.38311 0.78228 0.30722 0.0
H5733 H 0.38962 0.74346 0.32716 0.0
C5734 C 0.41835 0.68568 0.43515 0.0
C5735 C 0.42886 0.67616 0.42105 0.0
C5736 C 0.40692 0.69317 0.42304 0.0
C5737 C 0.40608 0.69219 0.39666 0.0
C5738 C 0.41723 0.68621 0.38242 0.0
C5739 C 0.42852 0.67768 0.39459 0.0
C5740 C 0.3931 0.69355 0.38457 0.0
C5741 C 0.38903 0.71553 0.37351 0.0
C5742 C 0.38443 0.67345 0.38541 0.0
C5743 C 0.38821 0.64913 0.39558 0.0
C5744 C 0.3989 0.63627 0.3854 0.0
C5745 C 0.40184 0.61271 0.39383 0.0
C5746 C 0.39398 0.60153 0.41203 0.0
C5747 C 0.38313 0.61388 0.42178 0.0
C5748 C 0.3803 0.63761 0.41377 0.0
C5749 C 0.34333 0.69381 0.31156 0.0
C5750 C 0.3332 0.68116 0.32373 0.0
C5751 C 0.35414 0.70184 0.32531 0.0
C5752 C 0.35479 0.69772 0.35147 0.0
C5753 C 0.34381 0.68812 0.364 0.0
C5754 C 0.33308 0.67971 0.35015 0.0
C5755 C 0.36767 0.69799 0.36439 0.0
C5756 C 0.37183 0.67608 0.37548 0.0
C5757 C 0.3764 0.718 0.36323 0.0
C5758 C 0.37259 0.74155 0.35151 0.0
C5759 C 0.36092 0.75334 0.35856 0.0
C5760 C 0.35726 0.77526 0.34701 0.0
C5761 C 0.36526 0.78566 0.32851 0.0
C5762 C 0.37693 0.7742 0.32155 0.0
C5763 C 0.38061 0.75225 0.333 0.0
H5764 H 0.36241 0.80263 0.31959 0.0
H5765 H 0.39621 0.58322 0.41839 0.0
H5766 H 0.4177 0.06473 0.28662 0.0
H5767 H 0.39915 0.04615 0.30855 0.0
H5768 H 0.41497 0.06998 0.38005 0.0
H5769 H 0.4335 0.08877 0.35801 0.0
H5770 H 0.40064 0.02551 0.3833 0.0
H5771 H 0.39623 0.10799 0.34938 0.0
H5772 H 0.39607 0.13945 0.31605 0.0
H5773 H 0.36721 0.09896 0.27469 0.0
H5774 H 0.36707 0.06737 0.30793 0.0
H5775 H 0.34967 0.06446 0.46099 0.0
H5776 H 0.36799 0.05062 0.43616 0.0
H5777 H 0.34333 0.04781 0.36972 0.0
H5778 H 0.32528 0.06498 0.39452 0.0
H5779 H 0.3616 0.07411 0.35934 0.0
H5780 H 0.36286 0.99526 0.39874 0.0
H5781 H 0.36175 0.96734 0.43523 0.0
H5782 H 0.3956 1.00146 0.46779 0.0
H5783 H 0.39685 0.02973 0.43163 0.0
C5784 C 0.41758 0.06472 0.30711 0.0
C5785 C 0.42704 0.07784 0.32076 0.0
C5786 C 0.40692 0.05437 0.31959 0.0
C5787 C 0.40562 0.05706 0.34584 0.0
C5788 C 0.41583 0.06771 0.35977 0.0
C5789 C 0.42646 0.07825 0.34724 0.0
C5790 C 0.39285 0.05269 0.35812 0.0
C5791 C 0.39202 0.0359 0.37804 0.0
C5792 C 0.38161 0.06612 0.35095 0.0
C5793 C 0.38187 0.08502 0.33085 0.0
C5794 C 0.38996 0.10565 0.33304 0.0
C5795 C 0.38989 0.12355 0.31421 0.0
C5796 C 0.38183 0.12097 0.29304 0.0
C5797 C 0.37357 0.10078 0.29095 0.0
C5798 C 0.37353 0.08292 0.30981 0.0
C5799 C 0.34802 0.05973 0.44133 0.0
C5800 C 0.33619 0.06591 0.42951 0.0
C5801 C 0.35854 0.05156 0.42702 0.0
C5802 C 0.35719 0.04794 0.40084 0.0
C5803 C 0.34471 0.05066 0.38982 0.0
C5804 C 0.3343 0.06004 0.404 0.0
C5805 C 0.36909 0.04646 0.38464 0.0
C5806 C 0.36991 0.06267 0.36412 0.0
C5807 C 0.38025 0.03244 0.39132 0.0
C5808 C 0.37997 0.01455 0.41238 0.0
C5809 C 0.3701 0.99675 0.41363 0.0
C5810 C 0.36943 0.9809 0.43429 0.0
C5811 C 0.37861 0.98261 0.4538 0.0
C5812 C 0.38852 1.00009 0.45262 0.0
C5813 C 0.38925 0.01596 0.43199 0.0
H5814 H 0.37803 0.9704 0.46984 0.0
H5815 H 0.38192 0.13461 0.27827 0.0
H5816 H 0.66948 0.80613 0.20823 0.0
H5817 H 0.65087 0.79148 0.18363 0.0
H5818 H 0.66767 0.82287 0.11629 0.0
H5819 H 0.68609 0.83818 0.14119 0.0
H5820 H 0.64562 0.84467 0.12971 0.0
H5821 H 0.65939 0.76109 0.12113 0.0
H5822 H 0.66674 0.7205 0.13538 0.0
H5823 H 0.63193 0.7128 0.18008 0.0
H5824 H 0.62448 0.75353 0.1665 0.0
H5825 H 0.59451 0.82296 0.04518 0.0
H5826 H 0.61479 0.81063 0.06591 0.0
H5827 H 0.59505 0.8102 0.13794 0.0
H5828 H 0.57485 0.82469 0.11733 0.0
H5829 H 0.61809 0.77056 0.1224 0.0
H5830 H 0.60495 0.85411 0.13444 0.0
H5831 H 0.59754 0.89539 0.12325 0.0
H5832 H 0.63201 0.9058 0.07826 0.0
H5833 H 0.63904 0.86367 0.08725 0.0
C5834 C 0.66958 0.8085 0.18789 0.0
C5835 C 0.67921 0.8231 0.17649 0.0
C5836 C 0.6589 0.80021 0.17383 0.0
C5837 C 0.65781 0.80624 0.14814 0.0
C5838 C 0.66832 0.81802 0.13611 0.0
C5839 C 0.67893 0.82654 0.15024 0.0
C5840 C 0.64479 0.80582 0.13573 0.0
C5841 C 0.63975 0.82831 0.12756 0.0
C5842 C 0.63681 0.78476 0.1344 0.0
C5843 C 0.64145 0.76049 0.14298 0.0
C5844 C 0.65338 0.75089 0.13425 0.0
C5845 C 0.65755 0.72781 0.14216 0.0
C5846 C 0.64983 0.71411 0.15867 0.0
C5847 C 0.63792 0.72345 0.16732 0.0
C5848 C 0.63372 0.74652 0.15952 0.0
C5849 C 0.59436 0.81922 0.06531 0.0
C5850 C 0.58322 0.82484 0.07982 0.0
C5851 C 0.60595 0.81234 0.07709 0.0
C5852 C 0.60639 0.81004 0.1034 0.0
C5853 C 0.59481 0.81216 0.11756 0.0
C5854 C 0.58328 0.82018 0.10586 0.0
C5855 C 0.61922 0.80922 0.11601 0.0
C5856 C 0.62412 0.78673 0.1243 0.0
C5857 C 0.62706 0.83042 0.11792 0.0
C5858 C 0.62227 0.85517 0.11078 0.0
C5859 C 0.61066 0.86466 0.12119 0.0
C5860 C 0.60655 0.88834 0.11533 0.0
C5861 C 0.61421 0.90311 0.09976 0.0
C5862 C 0.62597 0.8942 0.08999 0.0
C5863 C 0.62993 0.87028 0.09518 0.0
H5864 H 0.61109 0.92153 0.09545 0.0
H5865 H 0.65306 0.69622 0.16472 0.0
H5866 H 0.66572 0.43066 0.03529 0.0
H5867 H 0.64628 0.44497 0.05603 0.0
H5868 H 0.66858 0.45797 0.12428 0.0
H5869 H 0.68759 0.43871 0.10438 0.0
H5870 H 0.65137 0.43343 0.13756 0.0
H5871 H 0.64635 0.50337 0.08264 0.0
H5872 H 0.64556 0.52511 0.04181 0.0
H5873 H 0.61422 0.47881 0.01696 0.0
H5874 H 0.61492 0.45663 0.05742 0.0
H5875 H 0.5922 0.44038 0.20353 0.0
H5876 H 0.61131 0.45735 0.1819 0.0
H5877 H 0.59803 0.42571 0.11172 0.0
H5878 H 0.57899 0.40849 0.13353 0.0
H5879 H 0.61043 0.46858 0.1032 0.0
H5880 H 0.61997 0.39341 0.14884 0.0
H5881 H 0.62445 0.36388 0.18302 0.0
H5882 H 0.64812 0.41701 0.22134 0.0
H5883 H 0.64378 0.4468 0.18739 0.0
C5884 C 0.66661 0.43755 0.05444 0.0
C5885 C 0.67811 0.43319 0.06835 0.0
C5886 C 0.65536 0.44613 0.06642 0.0
C5887 C 0.65562 0.45274 0.09212 0.0
C5888 C 0.66786 0.45248 0.10466 0.0
C5889 C 0.67891 0.44201 0.09316 0.0
C5890 C 0.64311 0.45456 0.10699 0.0
C5891 C 0.64263 0.44222 0.13027 0.0
C5892 C 0.63126 0.46464 0.09731 0.0
C5893 C 0.63069 0.47837 0.07315 0.0
C5894 C 0.63931 0.49782 0.06846 0.0
C5895 C 0.63888 0.5102 0.04536 0.0
C5896 C 0.62984 0.50336 0.02682 0.0
C5897 C 0.62119 0.48414 0.03135 0.0
C5898 C 0.62158 0.47171 0.0544 0.0
C5899 C 0.59303 0.43817 0.18322 0.0
C5900 C 0.58402 0.42355 0.17002 0.0
C5901 C 0.60407 0.4475 0.17097 0.0
C5902 C 0.60623 0.44243 0.14528 0.0
C5903 C 0.59658 0.42982 0.13156 0.0
C5904 C 0.58562 0.42022 0.14391 0.0
C5905 C 0.61908 0.44781 0.13332 0.0
C5906 C 0.61947 0.46112 0.11068 0.0
C5907 C 0.63089 0.43852 0.14333 0.0
C5908 C 0.63143 0.42239 0.16576 0.0
C5909 C 0.62584 0.39898 0.16488 0.0
C5910 C 0.62848 0.38212 0.18408 0.0
C5911 C 0.63667 0.38855 0.2042 0.0
C5912 C 0.64184 0.41207 0.20568 0.0
C5913 C 0.63928 0.42893 0.18651 0.0
H5914 H 0.63918 0.37526 0.21849 0.0
H5915 H 0.62954 0.51294 0.00894 0.0
H5916 H 0.43195 0.16788 0.88326 0.0
H5917 H 0.41242 0.18411 0.86203 0.0
H5918 H 0.39821 0.21156 0.93337 0.0
H5919 H 0.41788 0.19618 0.95434 0.0
H5920 H 0.38426 0.16971 0.90664 0.0
H5921 H 0.40006 0.2533 0.89382 0.0
H5922 H 0.4174 0.28099 0.87869 0.0
H5923 H 0.41458 0.24983 0.80433 0.0
H5924 H 0.39724 0.22194 0.81908 0.0
H5925 H 0.3227 0.17496 0.85843 0.0
H5926 H 0.34088 0.19339 0.88186 0.0
H5927 H 0.36201 0.20287 0.81184 0.0
H5928 H 0.34339 0.18707 0.78857 0.0
H5929 H 0.37255 0.23094 0.84135 0.0
H5930 H 0.36136 0.1466 0.84803 0.0
H5931 H 0.3478 0.11054 0.85749 0.0
H5932 H 0.346 0.13161 0.93567 0.0
H5933 H 0.35938 0.16803 0.92655 0.0
C5934 C 0.42506 0.17879 0.89397 0.0
C5935 C 0.42641 0.18118 0.92022 0.0
C5936 C 0.41388 0.18784 0.88196 0.0
C5937 C 0.40394 0.1989 0.89627 0.0
C5938 C 0.40588 0.20332 0.92207 0.0
C5939 C 0.41715 0.19476 0.93394 0.0
C5940 C 0.39067 0.20103 0.88562 0.0
C5941 C 0.3815 0.18349 0.89287 0.0
C5942 C 0.38751 0.21807 0.86669 0.0
C5943 C 0.39735 0.23569 0.8575 0.0
C5944 C 0.40312 0.25246 0.87422 0.0
C5945 C 0.41295 0.26815 0.86573 0.0
C5946 C 0.41707 0.26719 0.84055 0.0
C5947 C 0.41133 0.25062 0.82379 0.0
C5948 C 0.40147 0.23495 0.83217 0.0
C5949 C 0.33085 0.18262 0.84805 0.0
C5950 C 0.33176 0.17949 0.82183 0.0
C5951 C 0.34138 0.19265 0.86142 0.0
C5952 C 0.35313 0.19827 0.84876 0.0
C5953 C 0.35321 0.1984 0.82222 0.0
C5954 C 0.34249 0.18945 0.80885 0.0
C5955 C 0.36576 0.19976 0.86267 0.0
C5956 C 0.375 0.2176 0.85574 0.0
C5957 C 0.36929 0.18201 0.88104 0.0
C5958 C 0.36116 0.16024 0.88654 0.0
C5959 C 0.35797 0.14364 0.86719 0.0
C5960 C 0.35033 0.12313 0.87249 0.0
C5961 C 0.34599 0.11885 0.89715 0.0
C5962 C 0.34932 0.13502 0.91656 0.0
C5963 C 0.35691 0.15561 0.91134 0.0
H5964 H 0.34009 0.10295 0.90123 0.0
H5965 H 0.4247 0.27926 0.834 0.0
H5966 H 0.34108 0.56235 0.95794 0.0
H5967 H 0.35987 0.54439 0.93614 0.0
H5968 H 0.34551 0.57261 0.86523 0.0
H5969 H 0.32678 0.59089 0.88719 0.0
H5970 H 0.35944 0.5296 0.85891 0.0
H5971 H 0.3629 0.60618 0.90223 0.0
H5972 H 0.36422 0.63715 0.93582 0.0
H5973 H 0.39578 0.59797 0.97076 0.0
H5974 H 0.39415 0.56589 0.93825 0.0
H5975 H 0.41411 0.57075 0.79076 0.0
H5976 H 0.39466 0.556 0.81134 0.0
H5977 H 0.41655 0.54626 0.88068 0.0
H5978 H 0.43559 0.56533 0.86064 0.0
H5979 H 0.39871 0.57282 0.89051 0.0
H5980 H 0.39661 0.49811 0.84126 0.0
H5981 H 0.39722 0.47444 0.80154 0.0
H5982 H 0.36476 0.51576 0.77274 0.0
H5983 H 0.36403 0.53983 0.81209 0.0
C5984 C 0.34156 0.56345 0.9375 0.0
C5985 C 0.33247 0.57771 0.92409 0.0
C5986 C 0.35237 0.55345 0.92512 0.0
C5987 C 0.35418 0.55757 0.89919 0.0
C5988 C 0.34427 0.56926 0.88528 0.0
C5989 C 0.33352 0.57952 0.89773 0.0
C5990 C 0.36716 0.55353 0.88748 0.0
C5991 C 0.36813 0.53874 0.86591 0.0
C5992 C 0.37845 0.56554 0.89669 0.0
C5993 C 0.37822 0.58329 0.91798 0.0
C5994 C 0.36983 0.60366 0.9175 0.0
C5995 C 0.37068 0.6215 0.93633 0.0
C5996 C 0.38015 0.61959 0.95529 0.0
C5997 C 0.38845 0.5994 0.95605 0.0
C5998 C 0.38747 0.58126 0.93759 0.0
C5999 C 0.41485 0.56471 0.81022 0.0
C6000 C 0.42616 0.56964 0.82439 0.0
C6001 C 0.40369 0.55577 0.82199 0.0
C6002 C 0.40393 0.54981 0.84781 0.0
C6003 C 0.41599 0.55106 0.86085 0.0
C6004 C 0.42696 0.56161 0.84941 0.0
C6005 C 0.39141 0.54797 0.86221 0.0
C6006 C 0.39035 0.56233 0.88411 0.0
C6007 C 0.38009 0.53583 0.85303 0.0
C6008 C 0.38025 0.52072 0.82971 0.0
C6009 C 0.38959 0.50212 0.82647 0.0
C6010 C 0.38997 0.48866 0.80399 0.0
C6011 C 0.38102 0.49358 0.78465 0.0
C6012 C 0.37165 0.51192 0.78776 0.0
C6013 C 0.37123 0.52541 0.81018 0.0
H6014 H 0.38136 0.48319 0.76724 0.0
H6015 H 0.38124 0.63391 0.96918 0.0
H6016 H 0.98906 0.40438 0.96004 0.0
H6017 H 0.98654 0.44696 0.97314 0.0
H6018 H 0.02423 0.4442 0.00959 0.0
H6019 H 0.02706 0.40222 0.99511 0.0
H6020 H 0.00548 0.47375 0.03555 0.0
H6021 H 0.02362 0.4626 0.95321 0.0
H6022 H 0.02474 0.44687 0.9096 0.0
H6023 H 0.98918 0.48451 0.89116 0.0
H6024 H 0.98771 0.50029 0.93484 0.0
H6025 H 0.02238 0.59752 0.03598 0.0
H6026 H 0.0234 0.55446 0.02451 0.0
H6027 H 0.98648 0.56099 0.98572 0.0
H6028 H 0.98529 0.60396 0.99778 0.0
H6029 H 1.00401 0.52923 0.96139 0.0
H6030 H 0.98714 0.54247 0.04486 0.0
H6031 H 0.98662 0.55684 0.08902 0.0
H6032 H 0.02082 0.51427 0.10588 0.0
H6033 H 0.02177 0.50015 0.06162 0.0
C6034 C 0.99658 0.41253 0.97177 0.0
C6035 C 0.00814 0.39957 0.97722 0.0
C6036 C 0.99517 0.43695 0.97904 0.0
C6037 C 0.00528 0.44888 0.99202 0.0
C6038 C 0.01627 0.43533 -0.00033 0.0
C6039 C 0.01777 0.41098 0.99198 0.0
C6040 C 1.00508 0.47589 0.995 0.0
C6041 C 0.0053 0.48592 0.01938 0.0
C6042 C 1.00465 0.49173 0.9738 0.0
C6043 C 0.00545 0.48232 0.94747 0.0
C6044 C 0.01595 0.46733 0.93997 0.0
C6045 C 0.01667 0.45849 0.9152 0.0
C6046 C 0.00702 0.46471 0.89763 0.0
C6047 C 0.99664 0.47981 0.9048 0.0
C6048 C 0.99585 0.48868 0.92958 0.0
C6049 C 0.01464 0.59004 0.02431 0.0
C6050 C 1.00372 0.60444 0.01782 0.0
C6051 C 0.01519 0.5653 0.01799 0.0
C6052 C 1.00484 0.55428 0.0049 0.0
C6053 C 0.99453 0.56904 0.99611 0.0
C6054 C 0.99393 0.59388 0.00269 0.0
C6055 C 1.00443 0.52721 0.00202 0.0
C6056 C 1.00413 0.51713 0.97762 0.0
C6057 C 1.00492 0.51133 0.02325 0.0
C6058 C 1.00464 0.52053 0.04972 0.0
C6059 C 0.99469 0.53648 0.05783 0.0
C6060 C 0.99429 0.54453 0.08293 0.0
C6061 C 1.00371 0.53655 0.10021 0.0
C6062 C 0.01356 0.52053 0.09243 0.0
C6063 C 0.01405 0.51253 0.06732 0.0
H6064 H 1.00335 0.54272 0.11966 0.0
H6065 H 0.00759 0.45788 0.87845 0.0
H6066 H 0.27926 0.65906 0.04213 0.0
H6067 H 0.27816 0.70353 0.03672 0.0
H6068 H 0.24289 0.69535 0.9929 0.0
H6069 H 0.244 0.65093 0.99833 0.0
H6070 H 0.26205 0.72993 0.97336 0.0
H6071 H 0.23883 0.71105 0.0503 0.0
H6072 H 0.23572 0.69506 0.09346 0.0
H6073 H 0.26712 0.74011 0.12043 0.0
H6074 H 0.27052 0.75615 0.07733 0.0
H6075 H 0.23178 0.84528 0.97433 0.0
H6076 H 0.23348 0.80366 0.99096 0.0
H6077 H 0.27277 0.81842 0.01619 0.0
H6078 H 0.27105 0.8602 -0.00043 0.0
H6079 H 0.25361 0.78182 0.04822 0.0
H6080 H 0.27847 0.78691 0.96222 0.0
H6081 H 0.27885 0.80318 0.91862 0.0
H6082 H 0.23824 0.78511 0.90959 0.0
H6083 H 0.23768 0.76875 0.95311 0.0
C6084 C 0.27164 0.6667 0.03028 0.0
C6085 C 0.262 0.65139 0.01982 0.0
C6086 C 0.27085 0.69216 0.02771 0.0
C6087 C 0.26035 0.70288 0.01468 0.0
C6088 C 0.25114 0.68755 0.0029 0.0
C6089 C 0.2519 0.66209 0.00559 0.0
C6090 C 0.25891 0.73 0.01329 0.0
C6091 C 0.25976 0.74113 0.98954 0.0
C6092 C 0.25668 0.74492 0.03484 0.0
C6093 C 0.25508 0.73446 0.06049 0.0
C6094 C 0.24522 0.71723 0.06534 0.0
C6095 C 0.24336 0.70826 0.08982 0.0
C6096 C 0.25126 0.71646 0.10965 0.0
C6097 C 0.26104 0.73368 0.10504 0.0
C6098 C 0.26294 0.74272 0.08059 0.0
C6099 C 0.2405 0.84007 0.98468 0.0
C6100 C 0.25118 0.85609 0.98615 0.0
C6101 C 0.24152 0.81621 0.99397 0.0
C6102 C 0.25327 0.80789 0.00471 0.0
C6103 C 0.26357 0.8245 0.00817 0.0
C6104 C 0.26255 0.84842 -0.00117 0.0
C6105 C 0.25555 0.78121 0.0078 0.0
C6106 C 0.25532 0.77042 0.03184 0.0
C6107 C 0.2578 0.7663 0.98648 0.0
C6108 C 0.25805 0.77666 0.96073 0.0
C6109 C 0.26964 0.7865 0.95089 0.0
C6110 C 0.26989 0.79571 0.92623 0.0
C6111 C 0.25858 0.79517 0.91135 0.0
C6112 C 0.24698 0.78554 0.92113 0.0
C6113 C 0.24669 0.77632 0.94577 0.0
H6114 H 0.2588 0.80221 0.89223 0.0
H6115 H 0.24978 0.70955 0.1286 0.0
H6116 H 0.99352 0.64516 0.27042 0.0
H6117 H 0.99365 0.68934 0.27487 0.0
H6118 H 0.01807 0.69534 0.20852 0.0
H6119 H 0.01817 0.65042 0.20439 0.0
H6120 H 0.02615 0.72522 0.2464 0.0
H6121 H 0.98547 0.70857 0.20488 0.0
H6122 H 0.96423 0.68829 0.19804 0.0
H6123 H 0.95077 0.7138 0.27032 0.0
H6124 H 0.97199 0.73398 0.27772 0.0
H6125 H 0.01469 0.84927 0.22593 0.0
H6126 H 0.01479 0.80499 0.22212 0.0
H6127 H 0.99302 0.79928 0.29185 0.0
H6128 H 0.99276 0.84424 0.29549 0.0
H6129 H 0.98386 0.76959 0.25262 0.0
H6130 H 0.02473 0.78721 0.29331 0.0
H6131 H 0.04558 0.80923 0.29845 0.0
H6132 H 0.05846 0.7833 0.22595 0.0
H6133 H 0.0376 0.76137 0.22023 0.0
C6134 C 0.99891 0.65594 0.25679 0.0
C6135 C 0.00574 0.64474 0.23693 0.0
C6136 C 0.99892 0.68111 0.25925 0.0
C6137 C 0.00563 0.69554 0.24171 0.0
C6138 C 0.01277 0.68437 0.22212 0.0
C6139 C 0.01283 0.65893 0.21974 0.0
C6140 C 1.00515 0.72227 0.24433 0.0
C6141 C 0.01692 0.735 0.24734 0.0
C6142 C 0.99308 0.73482 0.24627 0.0
C6143 C 0.98034 0.7226 0.24192 0.0
C6144 C 0.97801 0.70968 0.21939 0.0
C6145 C 0.96598 0.69824 0.2154 0.0
C6146 C 0.95617 0.69971 0.23376 0.0
C6147 C 0.95838 0.71266 0.25613 0.0
C6148 C 0.9704 0.72412 0.26021 0.0
C6149 C 0.00987 0.8385 0.24036 0.0
C6150 C 1.00377 0.84973 0.26107 0.0
C6151 C 0.01001 0.81334 0.23826 0.0
C6152 C 1.00418 0.79906 0.25701 0.0
C6153 C 0.99767 0.81023 0.27739 0.0
C6154 C 0.99747 0.83566 0.27944 0.0
C6155 C 1.00481 0.77242 0.25474 0.0
C6156 C 0.99307 0.75974 0.25175 0.0
C6157 C 0.0169 0.76002 0.25266 0.0
C6158 C 0.02958 0.77273 0.2563 0.0
C6159 C 0.03199 0.78629 0.27841 0.0
C6160 C 0.04381 0.79875 0.28143 0.0
C6161 C 0.05334 0.79768 0.26253 0.0
C6162 C 0.05108 0.78409 0.24059 0.0
C6163 C 0.03926 0.7716 0.23747 0.0
H6164 H 0.06249 0.80736 0.26489 0.0
H6165 H 0.94685 0.69086 0.23062 0.0
H6166 H 0.2401 0.59772 0.22049 0.0
H6167 H 0.23946 0.55451 0.2315 0.0
H6168 H 0.28081 0.55609 0.2477 0.0
H6169 H 0.28155 0.59912 0.23503 0.0
H6170 H 0.27469 0.51873 0.21717 0.0
H6171 H 0.25531 0.5525 0.29364 0.0
H6172 H 0.23848 0.58003 0.31154 0.0
H6173 H 0.20814 0.5344 0.28186 0.0
H6174 H 0.22461 0.50718 0.26284 0.0
H6175 H 0.27557 0.3981 0.27518 0.0
H6176 H 0.27824 0.44086 0.26287 0.0
H6177 H 0.23713 0.4447 0.24473 0.0
H6178 H 0.2345 0.40197 0.25717 0.0
H6179 H 0.24384 0.47958 0.27671 0.0
H6180 H 0.26356 0.44064 0.20587 0.0
H6181 H 0.27796 0.42037 0.176 0.0
H6182 H 0.30761 0.47419 0.18912 0.0
H6183 H 0.2935 0.49486 0.21993 0.0
C6184 C 0.24895 0.58911 0.22746 0.0
C6185 C 0.26077 0.60219 0.22799 0.0
C6186 C 0.2486 0.56427 0.23356 0.0
C6187 C 0.26006 0.55188 0.24079 0.0
C6188 C 0.2718 0.56519 0.24243 0.0
C6189 C 0.27217 0.59005 0.23593 0.0
C6190 C 0.2599 0.52484 0.24514 0.0
C6191 C 0.2683 0.50996 0.23074 0.0
C6192 C 0.25094 0.51358 0.26185 0.0
C6193 C 0.24122 0.528 0.27644 0.0
C6194 C 0.24505 0.54827 0.29102 0.0
C6195 C 0.2356 0.56392 0.30117 0.0
C6196 C 0.22233 0.55915 0.29742 0.0
C6197 C 0.21844 0.53823 0.2844 0.0
C6198 C 0.22783 0.52271 0.27389 0.0
C6199 C 0.26724 0.4078 0.26744 0.0
C6200 C 0.25489 0.39652 0.26648 0.0
C6201 C 0.26875 0.43233 0.26068 0.0
C6202 C 0.2579 0.44613 0.25291 0.0
C6203 C 0.24568 0.43444 0.25056 0.0
C6204 C 0.24421 0.40982 0.25714 0.0
C6205 C 0.25899 0.47305 0.24918 0.0
C6206 C 0.25065 0.48801 0.26364 0.0
C6207 C 0.26809 0.48416 0.23237 0.0
C6208 C 0.27712 0.46991 0.21544 0.0
C6209 C 0.27308 0.44844 0.20291 0.0
C6210 C 0.28129 0.43667 0.18563 0.0
C6211 C 0.29367 0.44604 0.18052 0.0
C6212 C 0.29796 0.46699 0.193 0.0
C6213 C 0.28983 0.47875 0.21044 0.0
H6214 H 0.29997 0.43703 0.16695 0.0
H6215 H 0.21505 0.57169 0.30459 0.0
H6216 H 0.76441 0.3597 0.00644 0.0
H6217 H 0.76603 0.31613 0.01759 0.0
H6218 H 0.7381 0.29905 0.9589 0.0
H6219 H 0.73602 0.34216 0.94902 0.0
H6220 H 0.73351 0.27091 0.99353 0.0
H6221 H 0.77443 0.29437 0.95453 0.0
H6222 H 0.79588 0.31432 0.94915 0.0
H6223 H 0.80864 0.28569 0.02061 0.0
H6224 H 0.78722 0.26594 0.0266 0.0
H6225 H 0.74561 0.14262 0.9888 0.0
H6226 H 0.74423 0.18577 0.97595 0.0
H6227 H 0.77244 0.2044 0.03363 0.0
H6228 H 0.77412 0.16165 0.04546 0.0
H6229 H 0.77703 0.23144 0.99751 0.0
H6230 H 0.73669 0.21025 0.03926 0.0
H6231 H 0.71525 0.19104 0.04708 0.0
H6232 H 0.7014 0.2163 0.97501 0.0
H6233 H 0.72282 0.23527 0.96659 0.0
C6234 C 0.75817 0.34665 0.99688 0.0
C6235 C 0.74979 0.35434 0.97734 0.0
C6236 C 0.75937 0.32165 0.00273 0.0
C6237 C 0.75245 0.30396 0.98866 0.0
C6238 C 0.74358 0.31203 0.97014 0.0
C6239 C 0.74226 0.33681 0.96464 0.0
C6240 C 0.75428 0.27705 0.99261 0.0
C6241 C 0.74308 0.26233 0.99423 0.0
C6242 C 0.7667 0.26555 0.99397 0.0
C6243 C 0.77916 0.27903 0.99118 0.0
C6244 C 0.78173 0.29271 0.96929 0.0
C6245 C 0.79391 0.30388 0.96609 0.0
C6246 C 0.8036 0.30135 0.98457 0.0
C6247 C 0.80112 0.28774 0.00636 0.0
C6248 C 0.78896 0.27661 0.00969 0.0
C6249 C 0.75192 0.15588 0.99783 0.0
C6250 C 0.76023 0.14877 0.01771 0.0
C6251 C 0.75091 0.18065 0.99094 0.0
C6252 C 0.75801 0.19868 0.00417 0.0
C6253 C 0.76683 0.19112 0.023 0.0
C6254 C 0.76791 0.16656 0.02964 0.0
C6255 C 0.75626 0.22545 -0.00072 0.0
C6256 C 0.76748 0.24008 0.99709 0.0
C6257 C 0.74385 0.23696 0.99797 0.0
C6258 C 0.73143 0.22373 0.0021 0.0
C6259 C 0.72916 0.21126 0.02488 0.0
C6260 C 0.71699 0.20053 0.02947 0.0
C6261 C 0.70699 0.20234 0.01151 0.0
C6262 C 0.70917 0.21478 0.98885 0.0
C6263 C 0.72132 0.22546 0.98413 0.0
H6264 H 0.69754 0.1942 0.01519 0.0
H6265 H 0.81305 0.30987 0.98196 0.0
H6266 H 0.98744 0.3466 0.79004 0.0
H6267 H 0.98764 0.30173 0.78489 0.0
H6268 H 0.02051 0.30775 0.73427 0.0
H6269 H 0.02029 0.35172 0.73888 0.0
H6270 H 0.99922 0.27895 0.71551 0.0
H6271 H 0.02681 0.2913 0.78769 0.0
H6272 H 0.03268 0.30524 0.83049 0.0
H6273 H 1.00327 0.25862 0.86237 0.0
H6274 H 0.99693 0.24493 0.81963 0.0
H6275 H 0.02037 0.15318 0.70818 0.0
H6276 H 0.02086 0.19793 0.7139 0.0
H6277 H 0.98928 0.19274 0.76781 0.0
H6278 H 0.98857 0.14872 0.76177 0.0
H6279 H 0.01039 0.22111 0.7844 0.0
H6280 H 0.98132 0.21215 0.71245 0.0
H6281 H 0.97527 0.19804 0.6697 0.0
H6282 H 0.00777 0.23721 0.63821 0.0
H6283 H 0.0142 0.25083 0.68093 0.0
C6284 C 0.99467 0.33811 0.77789 0.0
C6285 C 1.00396 0.35231 0.76517 0.0
C6286 C 0.99478 0.31271 0.77494 0.0
C6287 C 1.00402 0.30168 0.7589 0.0
C6288 C 0.01319 0.31601 0.74624 0.0
C6289 C 0.01318 0.34107 0.74931 0.0
C6290 C 1.00432 0.27517 0.75492 0.0
C6291 C 1.00172 0.26628 0.73052 0.0
C6292 C 0.00758 0.25887 0.77461 0.0
C6293 C 0.01121 0.26745 0.80035 0.0
C6294 C 0.02141 0.28435 0.80375 0.0
C6295 C 0.02486 0.29216 0.82803 0.0
C6296 C 0.0183 0.28294 0.84913 0.0
C6297 C 0.00829 0.26586 0.84599 0.0
C6298 C 1.00475 0.25811 0.82173 0.0
C6299 C 0.01351 0.16181 0.721 0.0
C6300 C 1.00428 0.14786 0.73417 0.0
C6301 C 0.0138 0.18715 0.7243 0.0
C6302 C 1.00506 0.1984 0.74121 0.0
C6303 C 0.99605 0.18431 0.75464 0.0
C6304 C 0.99558 0.15927 0.75099 0.0
C6305 C 1.0051 0.22492 0.74514 0.0
C6306 C 0.00783 0.23383 0.76946 0.0
C6307 C 1.00194 0.24124 0.72544 0.0
C6308 C 0.99824 0.23257 0.69984 0.0
C6309 C 0.98723 0.21757 0.69643 0.0
C6310 C 0.98374 0.20963 0.67221 0.0
C6311 C 0.99112 0.21672 0.65124 0.0
C6312 C 1.00205 0.23172 0.65445 0.0
C6313 C 0.00561 0.23958 0.67866 0.0
H6314 H 0.98838 0.2106 0.6325 0.0
H6315 H 0.02102 0.28894 0.86792 0.0
H6316 H 0.73821 0.60661 0.71423 0.0
H6317 H 0.73588 0.56323 0.72358 0.0
H6318 H 0.77606 0.56061 0.74835 0.0
H6319 H 0.77853 0.60393 0.73784 0.0
H6320 H 0.77101 0.525 0.71487 0.0
H6321 H 0.74889 0.55875 0.7863 0.0
H6322 H 0.73243 0.58225 0.80981 0.0
H6323 H 0.70193 0.53695 0.77982 0.0
H6324 H 0.71811 0.51374 0.75509 0.0
H6325 H 0.77203 0.40651 0.76796 0.0
H6326 H 0.77314 0.44888 0.75438 0.0
H6327 H 0.73156 0.44854 0.74022 0.0
H6328 H 0.7304 0.40644 0.75558 0.0
H6329 H 0.73639 0.48579 0.76615 0.0
H6330 H 0.75626 0.45654 0.6916 0.0
H6331 H 0.77134 0.43327 0.66415 0.0
H6332 H 0.80415 0.47023 0.69727 0.0
H6333 H 0.78931 0.49347 0.7251 0.0
C6334 C 0.74641 0.59702 0.72263 0.0
C6335 C 0.75844 0.60901 0.72614 0.0
C6336 C 0.74509 0.57209 0.72778 0.0
C6337 C 0.75577 0.55847 0.73679 0.0
C6338 C 0.76765 0.57067 0.7415 0.0
C6339 C 0.76898 0.59568 0.73616 0.0
C6340 C 0.75473 0.53136 0.73979 0.0
C6341 C 0.76359 0.51646 0.72655 0.0
C6342 C 0.7446 0.5201 0.75389 0.0
C6343 C 0.73478 0.53463 0.76836 0.0
C6344 C 0.73866 0.55412 0.78408 0.0
C6345 C 0.72936 0.56739 0.79775 0.0
C6346 C 0.71614 0.56121 0.79622 0.0
C6347 C 0.71218 0.54179 0.78092 0.0
C6348 C 0.72142 0.5286 0.767 0.0
C6349 C 0.76321 0.4151 0.76079 0.0
C6350 C 0.7512 0.40266 0.76191 0.0
C6351 C 0.76384 0.43952 0.75309 0.0
C6352 C 0.75246 0.45223 0.74595 0.0
C6353 C 0.74053 0.43932 0.7455 0.0
C6354 C 0.7399 0.41488 0.7536 0.0
C6355 C 0.75287 0.4794 0.74178 0.0
C6356 C 0.74386 0.49435 0.75467 0.0
C6357 C 0.76268 0.4908 0.72697 0.0
C6358 C 0.77167 0.47653 0.71062 0.0
C6359 C 0.7667 0.45948 0.69321 0.0
C6360 C 0.7752 0.44634 0.67755 0.0
C6361 C 0.78868 0.45019 0.67905 0.0
C6362 C 0.7937 0.46722 0.69617 0.0
C6363 C 0.78525 0.48039 0.71187 0.0
H6364 H 0.79524 0.44004 0.66689 0.0
H6365 H 0.70897 0.57137 0.80702 0.0
H6366 H 0.98012 0.10055 0.51873 0.0
H6367 H 0.98152 0.05722 0.5074 0.0
H6368 H 0.02347 0.0632 0.50167 0.0
H6369 H 0.02204 0.10653 0.51288 0.0
H6370 H 0.01357 0.03047 0.46669 0.0
H6371 H 0.01112 0.04394 0.55654 0.0
H6372 H 1.00211 0.0595 0.59674 0.0
H6373 H 0.9659 0.02236 0.58225 0.0
H6374 H 0.97469 0.00672 0.54188 0.0
H6375 H 0.02935 0.90789 0.48197 0.0
H6376 H 0.02808 0.95006 0.49718 0.0
H6377 H 0.98596 0.94605 0.49634 0.0
H6378 H 0.98725 0.9038 0.48144 0.0
H6379 H 0.99628 0.97734 0.53501 0.0
H6380 H 0.99848 0.96696 0.44324 0.0
H6381 H 0.0083 0.94819 0.40524 0.0
H6382 H 0.04588 0.97687 0.426 0.0
H6383 H 0.03621 0.99612 0.46388 0.0
C6384 C 0.98954 0.09294 0.51366 0.0
C6385 C 1.00093 0.10704 0.51604 0.0
C6386 C 0.99038 0.06804 0.5077 0.0
C6387 C 1.00263 0.05681 0.5042 0.0
C6388 C 0.01391 0.07139 0.50436 0.0
C6389 C 0.01308 0.09622 0.5105 0.0
C6390 C 1.00379 0.02972 0.50281 0.0
C6391 C 0.0099 0.01896 0.48178 0.0
C6392 C 0.99894 0.01445 0.52233 0.0
C6393 C 0.99348 0.02448 0.54609 0.0
C6394 C 1.00118 0.03935 0.56181 0.0
C6395 C 0.99614 0.04809 0.58466 0.0
C6396 C 0.98342 0.04199 0.59201 0.0
C6397 C 0.97573 0.02712 0.57652 0.0
C6398 C 0.98074 0.0183 0.55367 0.0
C6399 C 0.01986 0.91548 0.48662 0.0
C6400 C 0.0084 0.90253 0.48098 0.0
C6401 C 0.01913 0.93974 0.49482 0.0
C6402 C 0.00692 0.95132 0.4973 0.0
C6403 C 0.99548 0.9375 0.49445 0.0
C6404 C 0.99621 0.91331 0.48614 0.0
C6405 C 0.00603 0.97831 0.49904 0.0
C6406 C 0.99992 0.98897 0.51998 0.0
C6407 C 0.01093 0.99347 0.47957 0.0
C6408 C 0.01664 0.98296 0.45628 0.0
C6409 C 0.00882 0.96936 0.43956 0.0
C6410 C 0.01435 0.95867 0.41805 0.0
C6411 C 0.0277 0.9614 0.41316 0.0
C6412 C 0.03553 0.97491 0.42971 0.0
C6413 C 0.03002 0.98584 0.45111 0.0
H6414 H 0.03198 0.95303 0.39655 0.0
H6415 H 0.97955 0.04873 0.60973 0.0
H6416 H 0.24795 0.35131 0.44984 0.0
H6417 H 0.24752 0.30663 0.45305 0.0
H6418 H 0.26992 0.31088 0.52224 0.0
H6419 H 0.27119 0.35493 0.51796 0.0
H6420 H 0.2769 0.27305 0.49872 0.0
H6421 H 0.23408 0.30875 0.51823 0.0
H6422 H 0.2136 0.3308 0.50897 0.0
H6423 H 0.20596 0.28242 0.44675 0.0
H6424 H 0.22636 0.26007 0.4558 0.0
H6425 H 0.26478 0.15859 0.54973 0.0
H6426 H 0.26386 0.20321 0.54695 0.0
H6427 H 0.23772 0.1971 0.48327 0.0
H6428 H 0.23785 0.15318 0.48709 0.0
H6429 H 0.2327 0.23605 0.50154 0.0
H6430 H 0.27562 0.20128 0.48033 0.0
H6431 H 0.2963 0.17927 0.48868 0.0
H6432 H 0.30435 0.22703 0.55123 0.0
H6433 H 0.28372 0.24919 0.54329 0.0
C6434 C 0.25321 0.34246 0.46509 0.0
C6435 C 0.25975 0.35637 0.48345 0.0
C6436 C 0.25277 0.31706 0.46718 0.0
C6437 C 0.25837 0.30548 0.48828 0.0
C6438 C 0.26554 0.31937 0.50577 0.0
C6439 C 0.26635 0.34456 0.50321 0.0
C6440 C 0.2563 0.27922 0.49328 0.0
C6441 C 0.26722 0.26498 0.49947 0.0
C6442 C 0.24371 0.26853 0.49369 0.0
C6443 C 0.23167 0.28253 0.48788 0.0
C6444 C 0.22801 0.30275 0.50265 0.0
C6445 C 0.21641 0.31533 0.49743 0.0
C6446 C 0.20845 0.30796 0.47735 0.0
C6447 C 0.21209 0.28804 0.4624 0.0
C6448 C 0.22363 0.27533 0.46765 0.0
C6449 C 0.25848 0.16702 0.53573 0.0
C6450 C 0.25144 0.15264 0.51852 0.0
C6451 C 0.25816 0.19244 0.53379 0.0
C6452 C 0.25137 0.2036 0.51374 0.0
C6453 C 0.24335 0.18913 0.49831 0.0
C6454 C 0.2433 0.16389 0.50074 0.0
C6455 C 0.25334 0.22976 0.5073 0.0
C6456 C 0.24241 0.24398 0.5007 0.0
C6457 C 0.26595 0.24046 0.50626 0.0
C6458 C 0.27812 0.22669 0.51136 0.0
C6459 C 0.28178 0.20693 0.49595 0.0
C6460 C 0.29349 0.19449 0.50058 0.0
C6461 C 0.30162 0.20173 0.52049 0.0
C6462 C 0.29805 0.22142 0.53584 0.0
C6463 C 0.28637 0.23394 0.53127 0.0
H6464 H 0.3107 0.19211 0.524 0.0
H6465 H 0.19947 0.31772 0.47334 0.0
H6466 H 0.27307 0.89893 0.76673 0.0
H6467 H 0.27495 0.94166 0.75377 0.0
H6468 H 0.23313 0.94527 0.74392 0.0
H6469 H 0.23127 0.90258 0.75697 0.0
H6470 H 0.24636 0.97453 0.70972 0.0
H6471 H 0.24883 0.95489 0.79848 0.0
H6472 H 0.25917 0.93454 0.83473 0.0
H6473 H 0.29292 0.98045 0.8273 0.0
H6474 H 0.28347 0.99917 0.78912 0.0
H6475 H 0.23694 0.10058 0.7219 0.0
H6476 H 0.23542 0.05745 0.73345 0.0
H6477 H 0.27706 0.05556 0.74641 0.0
H6478 H 0.27859 0.09863 0.73428 0.0
H6479 H 0.26409 0.02563 0.77927 0.0
H6480 H 0.26496 0.0408 0.69082 0.0
H6481 H 0.25828 0.05737 0.64948 0.0
H6482 H 0.2213 0.02076 0.65543 0.0
H6483 H 0.2276 0.0045 0.69716 0.0
C6484 C 0.26435 0.90848 0.76053 0.0
C6485 C 0.25204 0.89714 0.76231 0.0
C6486 C 0.26542 0.93304 0.75346 0.0
C6487 C 0.25415 0.94694 0.74852 0.0
C6488 C 0.24197 0.93501 0.74778 0.0
C6489 C 0.24091 0.91036 0.7548 0.0
C6490 C 0.25482 0.97418 0.74693 0.0
C6491 C 0.2501 0.9857 0.72506 0.0
C6492 C 0.26008 0.98882 0.76674 0.0
C6493 C 0.26551 0.9781 0.7904 0.0
C6494 C 0.25858 0.96034 0.80414 0.0
C6495 C 0.26432 0.94898 0.82501 0.0
C6496 C 0.27666 0.95629 0.83344 0.0
C6497 C 0.28338 0.97473 0.82071 0.0
C6498 C 0.27791 0.98544 0.79917 0.0
C6499 C 0.24568 0.09123 0.72832 0.0
C6500 C 0.25784 0.10318 0.72788 0.0
C6501 C 0.24483 0.06648 0.73459 0.0
C6502 C 0.25616 0.05306 0.7403 0.0
C6503 C 0.26817 0.06549 0.74206 0.0
C6504 C 0.26902 0.0903 0.73565 0.0
C6505 C 0.25568 0.02586 0.74205 0.0
C6506 C 0.26035 0.01441 0.76398 0.0
C6507 C 0.25069 0.01121 0.7221 0.0
C6508 C 0.24668 0.02174 0.69739 0.0
C6509 C 0.25531 0.03661 0.68355 0.0
C6510 C 0.25161 0.0459 0.65999 0.0
C6511 C 0.23936 0.0402 0.64988 0.0
C6512 C 0.23077 0.02525 0.66333 0.0
C6513 C 0.23439 0.01604 0.68698 0.0
H6514 H 0.23654 0.04729 0.63156 0.0
H6515 H 0.281 0.9477 0.84984 0.0
H6516 H 0.77944 0.65425 0.51657 0.0
H6517 H 0.77988 0.69673 0.50216 0.0
H6518 H 0.7379 0.69574 0.49401 0.0
H6519 H 0.73753 0.65317 0.5081 0.0
H6520 H 0.74902 0.72491 0.45822 0.0
H6521 H 0.74958 0.71727 0.54734 0.0
H6522 H 0.75649 0.7031 0.58953 0.0
H6523 H 0.79473 0.73328 0.57754 0.0
H6524 H 0.78806 0.74748 0.53512 0.0
H6525 H 0.73249 0.84811 0.47764 0.0
H6526 H 0.73499 0.8042 0.48541 0.0
H6527 H 0.77688 0.81278 0.48837 0.0
H6528 H 0.77436 0.85661 0.48047 0.0
H6529 H 0.76832 0.77945 0.52314 0.0
H6530 H 0.76403 0.79114 0.43384 0.0
H6531 H 0.7543 0.80638 0.39416 0.0
H6532 H 0.71821 0.77012 0.41174 0.0
H6533 H 0.72775 0.75467 0.45152 0.0
C6534 C 0.77042 0.66265 0.51024 0.0
C6535 C 0.7585 0.65023 0.51267 0.0
C6536 C 0.77063 0.6871 0.50252 0.0
C6537 C 0.75889 0.69957 0.49738 0.0
C6538 C 0.74708 0.68654 0.49781 0.0
C6539 C 0.74688 0.66215 0.50564 0.0
C6540 C 0.75877 0.72659 0.49426 0.0
C6541 C 0.75301 0.73686 0.47266 0.0
C6542 C 0.76412 0.74228 0.51289 0.0
C6543 C 0.7684 0.73305 0.53791 0.0
C6544 C 0.75952 0.72058 0.55356 0.0
C6545 C 0.76337 0.71265 0.57755 0.0
C6546 C 0.77606 0.71719 0.58616 0.0
C6547 C 0.78492 0.72971 0.5708 0.0
C6548 C 0.78111 0.73772 0.54678 0.0
C6549 C 0.74217 0.84082 0.4812 0.0
C6550 C 0.7532 0.85589 0.47913 0.0
C6551 C 0.74363 0.81562 0.48499 0.0
C6552 C 0.75616 0.80504 0.48678 0.0
C6553 C 0.76713 0.82041 0.4868 0.0
C6554 C 0.76567 0.84553 0.48272 0.0
C6555 C 0.75779 0.77798 0.48795 0.0
C6556 C 0.76412 0.76762 0.50889 0.0
C6557 C 0.7524 0.76231 0.46932 0.0
C6558 C 0.74656 0.77196 0.44572 0.0
C6559 C 0.75399 0.7866 0.42932 0.0
C6560 C 0.74852 0.7952 0.40678 0.0
C6561 C 0.73563 0.78928 0.40046 0.0
C6562 C 0.72819 0.7747 0.41665 0.0
C6563 C 0.73363 0.76596 0.43916 0.0
H6564 H 0.73142 0.79595 0.383 0.0
H6565 H 0.77901 0.71108 0.60477 0.0
H6566 H 0.73407 0.90545 0.27735 0.0
H6567 H 0.73539 0.94927 0.26892 0.0
H6568 H 0.77666 0.94226 0.2534 0.0
H6569 H 0.77542 0.89853 0.26339 0.0
H6570 H 0.7716 0.98236 0.283 0.0
H6571 H 0.75555 0.95055 0.20406 0.0
H6572 H 0.741 0.92013 0.18467 0.0
H6573 H 0.7075 0.95689 0.21562 0.0
H6574 H 0.72196 0.98748 0.23561 0.0
H6575 H 0.77967 0.0988 0.2248 0.0
H6576 H 0.77906 0.05543 0.23591 0.0
H6577 H 0.73717 0.05972 0.24502 0.0
H6578 H 0.73781 0.10292 0.233 0.0
H6579 H 0.7426 0.02042 0.21885 0.0
H6580 H 0.75925 0.05714 0.29266 0.0
H6581 H 0.77359 0.08192 0.3193 0.0
H6582 H 0.8057 0.03354 0.30431 0.0
H6583 H 0.79163 0.00873 0.2765 0.0
C6584 C 0.74329 0.91311 0.27112 0.0
C6585 C 0.75453 0.89846 0.26993 0.0
C6586 C 0.74411 0.93824 0.2667 0.0
C6587 C 0.75612 0.94918 0.26027 0.0
C6588 C 0.76729 0.93436 0.25833 0.0
C6589 C 0.76652 0.90928 0.26337 0.0
C6590 C 0.75686 0.97593 0.25482 0.0
C6591 C 0.7655 0.99072 0.26862 0.0
C6592 C 0.74861 0.98685 0.23661 0.0
C6593 C 0.73981 0.9714 0.22113 0.0
C6594 C 0.74506 0.95236 0.2064 0.0
C6595 C 0.73684 0.93495 0.1955 0.0
C6596 C 0.72332 0.93649 0.19895 0.0
C6597 C 0.71799 0.95569 0.21304 0.0
C6598 C 0.72618 0.97319 0.22403 0.0
C6599 C 0.77043 0.09074 0.23031 0.0
C6600 C 0.75886 0.1045 0.22905 0.0
C6601 C 0.77003 0.06579 0.23622 0.0
C6602 C 0.75805 0.05408 0.24136 0.0
C6603 C 0.74653 0.06812 0.24103 0.0
C6604 C 0.74693 0.09298 0.23476 0.0
C6605 C 0.75754 0.02726 0.24693 0.0
C6606 C 0.74891 0.0123 0.23303 0.0
C6607 C 0.76582 0.01626 0.26527 0.0
C6608 C 0.77435 0.03108 0.28216 0.0
C6609 C 0.7694 0.05182 0.2947 0.0
C6610 C 0.77749 0.0659 0.31013 0.0
C6611 C 0.79055 0.05932 0.31364 0.0
C6612 C 0.79556 0.03861 0.3016 0.0
C6613 C 0.78752 0.02453 0.28592 0.0
H6614 H 0.79679 0.07028 0.32566 0.0
H6615 H 0.71698 0.9229 0.19057 0.0
H6616 H 0.51875 0.6043 0.49344 0.0
H6617 H 0.5185 0.56032 0.48504 0.0
H6618 H 0.48126 0.55447 0.52283 0.0
H6619 H 0.48156 0.59851 0.53121 0.0
H6620 H 0.49811 0.52222 0.54201 0.0
H6621 H 0.48152 0.53851 0.46152 0.0
H6622 H 0.47954 0.56168 0.42173 0.0
H6623 H 0.51933 0.54343 0.40329 0.0
H6624 H 0.52138 0.51996 0.4424 0.0
H6625 H 0.48931 0.39534 0.49843 0.0
H6626 H 0.48719 0.4384 0.51073 0.0
H6627 H 0.5266 0.45156 0.48528 0.0
H6628 H 0.52874 0.40852 0.47334 0.0
H6629 H 0.50715 0.48019 0.4608 0.0
H6630 H 0.51651 0.45171 0.54603 0.0
H6631 H 0.51151 0.42857 0.58412 0.0
H6632 H 0.47687 0.47152 0.59624 0.0
H6633 H 0.48084 0.49314 0.55626 0.0
C6634 C 0.51019 0.59382 0.49869 0.0
C6635 C 0.49997 0.60492 0.51224 0.0
C6636 C 0.51013 0.56859 0.49424 0.0
C6637 C 0.4999 0.55394 0.50348 0.0
C6638 C 0.48929 0.5653 0.51564 0.0
C6639 C 0.48933 0.59055 0.51995 0.0
C6640 C 0.50078 0.52674 0.50202 0.0
C6641 C 0.49988 0.5129 0.52422 0.0
C6642 C 0.50293 0.51452 0.47894 0.0
C6643 C 0.50162 0.5276 0.45477 0.0
C6644 C 0.4898 0.53941 0.44877 0.0
C6645 C 0.48864 0.55254 0.4263 0.0
C6646 C 0.49923 0.55395 0.40979 0.0
C6647 C 0.51101 0.5422 0.4157 0.0
C6648 C 0.51218 0.52884 0.43799 0.0
C6649 C 0.49776 0.40715 0.49684 0.0
C6650 C 0.50933 0.39839 0.4856 0.0
C6651 C 0.49648 0.43186 0.50353 0.0
C6652 C 0.5067 0.44836 0.49878 0.0
C6653 C 0.51858 0.43924 0.48918 0.0
C6654 C 0.51989 0.4145 0.48279 0.0
C6655 C 0.50464 0.47532 0.50097 0.0
C6656 C 0.50535 0.48927 0.47871 0.0
C6657 C 0.50131 0.48729 0.52394 0.0
C6658 C 0.49891 0.47386 0.5478 0.0
C6659 C 0.50763 0.45585 0.55634 0.0
C6660 C 0.50494 0.44293 0.5784 0.0
C6661 C 0.49393 0.44875 0.59295 0.0
C6662 C 0.48538 0.46701 0.58498 0.0
C6663 C 0.48776 0.47935 0.56239 0.0
H6664 H 0.49206 0.43945 0.61057 0.0
H6665 H 0.49822 0.56417 0.39251 0.0
H6666 H 0.51892 0.64779 0.77159 0.0
H6667 H 0.51781 0.69185 0.77861 0.0
H6668 H 0.49753 0.70078 0.70767 0.0
H6669 H 0.498 0.65635 0.70112 0.0
H6670 H 0.52114 0.73556 0.72364 0.0
H6671 H 0.47936 0.69985 0.74817 0.0
H6672 H 0.46388 0.67419 0.77192 0.0
H6673 H 0.47713 0.70591 0.84167 0.0
H6674 H 0.49318 0.73067 0.8185 0.0
H6675 H 0.48974 0.84965 0.73109 0.0
H6676 H 0.4902 0.80511 0.72937 0.0
H6677 H 0.5124 0.80309 0.79871 0.0
H6678 H 0.51238 0.84794 0.8001 0.0
H6679 H 0.48824 0.7652 0.7857 0.0
H6680 H 0.533 0.79023 0.76625 0.0
H6681 H 0.54842 0.81988 0.74765 0.0
H6682 H 0.5297 0.81209 0.67568 0.0
H6683 H 0.51426 0.78203 0.69358 0.0
C6684 C 0.51458 0.65921 0.75711 0.0
C6685 C 0.50866 0.64887 0.73565 0.0
C6686 C 0.51382 0.68426 0.76132 0.0
C6687 C 0.50747 0.69924 0.74378 0.0
C6688 C 0.50241 0.68925 0.72141 0.0
C6689 C 0.50277 0.66406 0.71758 0.0
C6690 C 0.5057 0.72525 0.74931 0.0
C6691 C 0.51387 0.74199 0.73705 0.0
C6692 C 0.49654 0.73346 0.76757 0.0
C6693 C 0.48771 0.71676 0.78156 0.0
C6694 C 0.4793 0.70077 0.76861 0.0
C6695 C 0.47036 0.68644 0.78199 0.0
C6696 C 0.46956 0.68827 0.8083 0.0
C6697 C 0.47776 0.70435 0.82131 0.0
C6698 C 0.48687 0.71837 0.80807 0.0
C6699 C 0.49423 0.83969 0.74653 0.0
C6700 C 0.5009 0.85197 0.76591 0.0
C6701 C 0.49458 0.81436 0.74538 0.0
C6702 C 0.50136 0.80117 0.76387 0.0
C6703 C 0.50712 0.81324 0.78438 0.0
C6704 C 0.50703 0.83866 0.78523 0.0
C6705 C 0.50358 0.77508 0.76003 0.0
C6706 C 0.49553 0.75849 0.77248 0.0
C6707 C 0.51306 0.76686 0.74266 0.0
C6708 C 0.52253 0.78396 0.73123 0.0
C6709 C 0.53223 0.79477 0.74637 0.0
C6710 C 0.54097 0.81157 0.73592 0.0
C6711 C 0.54006 0.81773 0.71037 0.0
C6712 C 0.53044 0.80703 0.69528 0.0
C6713 C 0.52173 0.79005 0.70552 0.0
H6714 H 0.54678 0.83083 0.70228 0.0
H6715 H 0.46253 0.67736 0.81855 0.0
H6716 H 0.51919 0.14821 0.25557 0.0
H6717 H 0.52088 0.19145 0.26731 0.0
H6718 H 0.484 0.20564 0.23053 0.0
H6719 H 0.48228 0.16246 0.21911 0.0
H6720 H 0.50467 0.23173 0.20998 0.0
H6721 H 0.48638 0.2205 0.29534 0.0
H6722 H 0.4847 0.20582 0.3392 0.0
H6723 H 0.52541 0.22132 0.35129 0.0
H6724 H 0.5272 0.23682 0.3076 0.0
H6725 H 0.49327 0.35757 0.23979 0.0
H6726 H 0.49361 0.31367 0.23064 0.0
H6727 H 0.52981 0.30666 0.2719 0.0
H6728 H 0.5295 0.35057 0.2808 0.0
H6729 H 0.51132 0.27652 0.2904 0.0
H6730 H 0.5302 0.29215 0.21137 0.0
H6731 H 0.53402 0.30998 0.16923 0.0
H6732 H 0.49614 0.28554 0.14513 0.0
H6733 H 0.49213 0.26751 0.18678 0.0
C6734 C 0.51109 0.16032 0.25137 0.0
C6735 C 0.50045 0.15191 0.23696 0.0
C6736 C 0.51212 0.18512 0.25784 0.0
C6737 C 0.5026 0.20192 0.24967 0.0
C6738 C 0.49146 0.19308 0.23709 0.0
C6739 C 0.49038 0.16832 0.23087 0.0
C6740 C 0.50516 0.22872 0.25058 0.0
C6741 C 0.50589 0.24159 0.22763 0.0
C6742 C 0.50761 0.24146 0.27334 0.0
C6743 C 0.50695 0.22952 0.29825 0.0
C6744 C 0.49501 0.22038 0.30724 0.0
C6745 C 0.49402 0.21214 0.33214 0.0
C6746 C 0.50497 0.21258 0.34798 0.0
C6747 C 0.51696 0.22102 0.33895 0.0
C6748 C 0.51795 0.22964 0.3142 0.0
C6749 C 0.50166 0.34687 0.24564 0.0
C6750 C 0.51157 0.35757 0.26034 0.0
C6751 C 0.50178 0.32171 0.24068 0.0
C6752 C 0.51172 0.30677 0.25068 0.0
C6753 C 0.52205 0.31776 0.26398 0.0
C6754 C 0.52198 0.34292 0.26871 0.0
C6755 C 0.51048 0.27964 0.24986 0.0
C6756 C 0.51009 0.2667 0.27273 0.0
C6757 C 0.50877 0.2667 0.22699 0.0
C6758 C 0.51084 0.27858 0.20222 0.0
C6759 C 0.52264 0.2908 0.19709 0.0
C6760 C 0.52488 0.30081 0.17319 0.0
C6761 C 0.51541 0.29863 0.15431 0.0
C6762 C 0.50357 0.28692 0.15947 0.0
C6763 C 0.5013 0.27678 0.18323 0.0
H6764 H 0.5173 0.30585 0.13568 0.0
H6765 H 0.5042 0.20671 0.36734 0.0
H6766 H 0.49862 0.09222 0.04444 0.0
H6767 H 0.50033 0.04758 0.04108 0.0
H6768 H 0.52219 0.05533 0.97178 0.0
H6769 H 0.52103 0.09972 0.97567 0.0
H6770 H 0.49786 0.02938 0.96875 0.0
H6771 H 0.53666 0.03526 0.01402 0.0
H6772 H 0.55257 0.04482 0.0473 0.0
H6773 H 0.53406 0.99352 0.09687 0.0
H6774 H 0.51708 0.98553 0.06495 0.0
H6775 H 0.51402 0.90098 0.951 0.0
H6776 H 0.51461 0.94565 0.95438 0.0
H6777 H 0.48933 0.9424 0.01954 0.0
H6778 H 0.48829 0.898 0.01576 0.0
H6779 H 0.51686 0.96542 0.02374 0.0
H6780 H 0.47614 0.96559 0.976 0.0
H6781 H 0.46254 0.95473 0.93917 0.0
H6782 H 0.48918 0.99229 0.89 0.0
H6783 H 0.50303 0.0031 0.92652 0.0
C6784 C 0.50425 0.08426 0.02915 0.0
C6785 C 0.50986 0.09912 0.01051 0.0
C6786 C 0.50518 0.05893 0.0272 0.0
C6787 C 0.51139 0.04841 0.00621 0.0
C6788 C 0.51749 0.06329 0.98821 0.0
C6789 C 0.51691 0.08854 0.99057 0.0
C6790 C 0.50997 0.02221 0.00118 0.0
C6791 C 0.50205 0.01543 0.98072 0.0
C6792 C 0.5156 0.00419 0.01688 0.0
C6793 C 0.52526 0.01027 0.03707 0.0
C6794 C 0.53555 0.02675 0.03234 0.0
C6795 C 0.54479 0.03195 0.05106 0.0
C6796 C 0.54418 0.02012 0.07439 0.0
C6797 C 0.53431 0.00312 0.07903 0.0
C6798 C 0.52477 0.99847 0.0607 0.0
C6799 C 0.50817 0.90994 0.96536 0.0
C6800 C 0.50102 0.89622 0.98296 0.0
C6801 C 0.50861 0.9353 0.9674 0.0
C6802 C 0.50211 0.94699 0.98735 0.0
C6803 C 0.49438 0.93348 0.00406 0.0
C6804 C 0.49367 0.90822 0.00166 0.0
C6805 C 0.50431 0.97302 0.99205 0.0
C6806 C 0.5125 0.97965 0.01222 0.0
C6807 C 0.49916 0.991 0.97588 0.0
C6808 C 0.49073 0.9848 0.95396 0.0
C6809 C 0.47917 0.9713 0.95731 0.0
C6810 C 0.4714 0.96523 0.93649 0.0
C6811 C 0.47502 0.97273 0.91224 0.0
C6812 C 0.4864 0.98642 0.90878 0.0
C6813 C 0.49421 0.99254 0.92954 0.0
H6814 H 0.46899 0.968 0.89614 0.0
H6815 H 0.55144 0.02391 0.08876 0.0
H6816 H 0.02638 0.04922 0.19325 0.0
H6817 H 0.02796 0.08928 0.17345 0.0
H6818 H 0.99945 0.06776 0.11761 0.0
H6819 H 0.99778 0.02738 0.13743 0.0
H6820 H 0.02053 0.0923 0.09681 0.0
H6821 H 0.99076 0.10273 0.16619 0.0
H6822 H 0.9835 0.10093 0.21059 0.0
H6823 H 0.01468 0.14903 0.23228 0.0
H6824 H 0.0223 0.15073 0.18806 0.0
H6825 H 0.99998 0.20919 0.05251 0.0
H6826 H 1.0024 0.16781 0.069 0.0
H6827 H 0.02955 0.19397 0.12523 0.0
H6828 H 0.02715 0.23554 0.1089 0.0
H6829 H 0.01051 0.16696 0.14627 0.0
H6830 H 0.04003 0.15805 0.07769 0.0
H6831 H 0.04865 0.15823 0.03418 0.0
H6832 H 0.01915 0.10698 0.0115 0.0
H6833 H 0.01019 0.1068 0.05479 0.0
C6834 C 0.02048 0.05288 0.17666 0.0
C6835 C 0.01193 0.03507 0.16692 0.0
C6836 C 0.02136 0.07588 0.16544 0.0
C6837 C 0.01373 0.08162 0.14421 0.0
C6838 C 0.00541 0.06372 0.13403 0.0
C6839 C 1.00444 0.04069 0.14539 0.0
C6840 C 0.01435 0.10639 0.13284 0.0
C6841 C 0.01815 0.10864 0.10746 0.0
C6842 C 0.01172 0.12773 0.14712 0.0
C6843 C 0.0072 0.12662 0.1738 0.0
C6844 C 0.99616 0.11271 0.18045 0.0
C6845 C 0.99197 0.11174 0.20559 0.0
C6846 C 0.99865 0.1248 0.22426 0.0
C6847 C 0.00953 0.13888 0.21781 0.0
C6848 C 0.0138 0.13984 0.1927 0.0
C6849 C 0.00662 0.20616 0.06817 0.0
C6850 C 0.01332 0.2258 0.07948 0.0
C6851 C 0.00804 0.1824 0.07751 0.0
C6852 C 0.01619 0.1777 0.09833 0.0
C6853 C 0.02318 0.19714 0.10918 0.0
C6854 C 0.02181 0.22092 0.09979 0.0
C6855 C 0.01653 0.15297 0.11 0.0
C6856 C 0.01292 0.15069 0.13553 0.0
C6857 C 0.0194 0.13163 0.09588 0.0
C6858 C 0.02432 0.13267 0.06948 0.0
C6859 C 0.03523 0.14712 0.06336 0.0
C6860 C 0.04022 0.14714 0.03873 0.0
C6861 C 0.03442 0.13269 0.02007 0.0
C6862 C 0.02361 0.11823 0.02596 0.0
C6863 C 0.01857 0.11817 0.05054 0.0
H6864 H 0.03834 0.13264 0.00105 0.0
H6865 H 0.99537 0.12407 0.24371 0.0
H6866 H 0.25961 0.20975 0.19179 0.0
H6867 H 0.2572 0.16726 0.17843 0.0
H6868 H 0.23526 0.19074 0.11303 0.0
H6869 H 0.23681 0.2331 0.12752 0.0
H6870 H 0.22558 0.15042 0.12674 0.0
H6871 H 0.27052 0.17544 0.11411 0.0
H6872 H 0.29172 0.19191 0.12846 0.0
H6873 H 0.29542 0.13327 0.18185 0.0
H6874 H 0.27415 0.11668 0.16804 0.0
H6875 H 0.23839 0.04898 0.04509 0.0
H6876 H 0.23577 0.08802 0.0668 0.0
H6877 H 0.25675 0.05962 0.13121 0.0
H6878 H 0.25977 0.02076 0.10918 0.0
H6879 H 0.26618 0.10116 0.12092 0.0
H6880 H 0.22189 0.07389 0.13023 0.0
H6881 H 0.20024 0.05871 0.11697 0.0
H6882 H 0.19502 0.12159 0.06959 0.0
H6883 H 0.21671 0.13698 0.08229 0.0
C6884 C 0.25425 0.20583 0.17458 0.0
C6885 C 0.2486 0.22485 0.16044 0.0
C6886 C 0.25292 0.18146 0.16684 0.0
C6887 C 0.24641 0.17555 0.14413 0.0
C6888 C 0.24041 0.19457 0.13048 0.0
C6889 C 0.24138 0.21888 0.13868 0.0
C6890 C 0.2463 0.14988 0.134 0.0
C6891 C 0.2345 0.13977 0.12523 0.0
C6892 C 0.2578 0.13543 0.1325 0.0
C6893 C 0.27074 0.14494 0.14018 0.0
C6894 C 0.27587 0.1661 0.12892 0.0
C6895 C 0.28787 0.17547 0.13699 0.0
C6896 C 0.2949 0.16366 0.15608 0.0
C6897 C 0.28996 0.1424 0.16708 0.0
C6898 C 0.27794 0.133 0.15913 0.0
C6899 C 0.24234 0.05091 0.06399 0.0
C6900 C 0.24939 0.03165 0.07524 0.0
C6901 C 0.24073 0.07331 0.07655 0.0
C6902 C 0.24595 0.07699 0.10089 0.0
C6903 C 0.25263 0.05747 0.11246 0.0
C6904 C 0.25434 0.03514 0.09982 0.0
C6905 C 0.24547 0.10165 0.11337 0.0
C6906 C 0.25721 0.11164 0.12254 0.0
C6907 C 0.2339 0.11595 0.11506 0.0
C6908 C 0.22098 0.10646 0.10704 0.0
C6909 C 0.21618 0.08435 0.11679 0.0
C6910 C 0.20389 0.07574 0.10941 0.0
C6911 C 0.19627 0.08915 0.0924 0.0
C6912 C 0.20093 0.1112 0.08274 0.0
C6913 C 0.21322 0.11988 0.09003 0.0
H6914 H 0.18675 0.08247 0.08676 0.0
H6915 H 0.30419 0.17097 0.16233 0.0
H6916 H 0.01392 0.77498 0.89424 0.0
H6917 H 0.0117 0.81408 0.8725 0.0
H6918 H 0.98067 0.83474 0.92344 0.0
H6919 H 0.98273 0.79544 0.94518 0.0
H6920 H 0.97547 0.85079 0.87567 0.0
H6921 H 0.01167 0.85535 0.93328 0.0
H6922 H 0.03257 0.84269 0.95261 0.0
H6923 H 0.05183 0.84994 0.88083 0.0
H6924 H 0.031 0.86234 0.86104 0.0
H6925 H 0.9807 0.98026 0.85505 0.0
H6926 H 0.97885 0.93853 0.87112 0.0
H6927 H 0.01274 0.91762 0.82749 0.0
H6928 H 0.01493 0.9595 0.81234 0.0
H6929 H 0.01563 0.90128 0.87179 0.0
H6930 H 0.97905 0.89821 0.81411 0.0
H6931 H 0.95799 0.91108 0.7956 0.0
H6932 H 0.93921 0.90206 0.86761 0.0
H6933 H 0.96018 0.88931 0.88659 0.0
C6934 C 0.00651 0.78768 0.90071 0.0
C6935 C 0.9986 0.78207 0.9217 0.0
C6936 C 0.00528 0.81014 0.88827 0.0
C6937 C 0.99616 0.82766 0.89654 0.0
C6938 C 0.98782 0.82166 0.91672 0.0
C6939 C 0.98906 0.79916 0.92922 0.0
C6940 C 0.99592 0.85265 0.88513 0.0
C6941 C 0.98422 0.86194 0.87498 0.0
C6942 C 0.00732 0.86723 0.88388 0.0
C6943 C 0.01978 0.85952 0.89567 0.0
C6944 C 0.02035 0.85403 0.9216 0.0
C6945 C 0.03218 0.84695 0.93264 0.0
C6946 C 0.04352 0.84546 0.91795 0.0
C6947 C 0.04304 0.85106 0.89219 0.0
C6948 C 0.03124 0.85813 0.88106 0.0
C6949 C 0.98772 0.96673 0.8488 0.0
C6950 C 0.99806 0.97334 0.83264 0.0
C6951 C 0.98657 0.94272 0.85782 0.0
C6952 C 0.99557 0.9246 0.85043 0.0
C6953 C 0.00568 0.93113 0.83368 0.0
C6954 C 0.00696 0.95517 0.82503 0.0
C6955 C 0.99525 0.89946 0.86165 0.0
C6956 C 0.00686 0.89016 0.87208 0.0
C6957 C 0.98375 0.88503 0.86314 0.0
C6958 C 0.9712 0.89303 0.8518 0.0
C6959 C 0.97045 0.89917 0.82603 0.0
C6960 C 0.95852 0.90638 0.81545 0.0
C6961 C 0.94727 0.90744 0.83043 0.0
C6962 C 0.94793 0.90125 0.85603 0.0
C6963 C 0.95982 0.89399 0.8667 0.0
H6964 H 0.93805 0.91301 0.8222 0.0
H6965 H 0.05268 0.84001 0.92654 0.0
H6966 H 0.76838 0.94923 0.95498 0.0
H6967 H 0.77019 0.90964 0.9343 0.0
H6968 H 0.75911 0.94264 0.86329 0.0
H6969 H 0.75601 0.98176 0.88476 0.0
H6970 H 0.7471 0.90468 0.86471 0.0
H6971 H 0.7925 0.91768 0.88151 0.0
H6972 H 0.81169 0.92786 0.90774 0.0
H6973 H 0.80384 0.8664 0.95569 0.0
H6974 H 0.78452 0.85598 0.92987 0.0
H6975 H 0.76442 0.80268 0.78883 0.0
H6976 H 0.76727 0.8413 0.81129 0.0
H6977 H 0.75977 0.80521 0.8821 0.0
H6978 H 0.75644 0.76634 0.85952 0.0
H6979 H 0.7819 0.84351 0.88093 0.0
H6980 H 0.73616 0.83191 0.86079 0.0
H6981 H 0.71746 0.82373 0.83263 0.0
H6982 H 0.72745 0.88613 0.78755 0.0
H6983 H 0.74646 0.89426 0.81505 0.0
C6984 C 0.76628 0.94799 0.93498 0.0
C6985 C 0.76177 0.96858 0.92175 0.0
C6986 C 0.76755 0.92529 0.92293 0.0
C6987 C 0.76495 0.92271 0.89691 0.0
C6988 C 0.76109 0.94372 0.88338 0.0
C6989 C 0.75939 0.96626 0.89566 0.0
C6990 C 0.76528 0.89802 0.88422 0.0
C6991 C 0.75492 0.89167 0.86799 0.0
C6992 C 0.77522 0.88032 0.88868 0.0
C6993 C 0.78703 0.88612 0.90382 0.0
C6994 C 0.79486 0.90636 0.89767 0.0
C6995 C 0.80575 0.91218 0.91247 0.0
C6996 C 0.80897 0.8978 0.93338 0.0
C6997 C 0.80134 0.8775 0.93947 0.0
C6998 C 0.79043 0.8716 0.92473 0.0
C6999 C 0.76336 0.80281 0.80919 0.0
C7000 C 0.75989 0.78134 0.82218 0.0
C7001 C 0.76509 0.82498 0.82205 0.0
C7002 C 0.76363 0.82635 0.8484 0.0
C7003 C 0.76094 0.8047 0.86175 0.0
C7004 C 0.75899 0.78246 0.84878 0.0
C7005 C 0.76385 0.85071 0.8614 0.0
C7006 C 0.77424 0.85684 0.87763 0.0
C7007 C 0.75413 0.86855 0.8565 0.0
C7008 C 0.74284 0.86346 0.83976 0.0
C7009 C 0.73449 0.84366 0.84465 0.0
C7010 C 0.72381 0.83907 0.82884 0.0
C7011 C 0.72128 0.85436 0.80827 0.0
C7012 C 0.72942 0.8743 0.80349 0.0
C7013 C 0.74017 0.87886 0.81913 0.0
H7014 H 0.71301 0.85078 0.79606 0.0
H7015 H 0.8174 0.90237 0.94485 0.0
H7016 H 1.00065 0.5201 0.63562 0.0
H7017 H 1.00325 0.56023 0.61568 0.0
H7018 H 0.02608 0.5847 0.67941 0.0
H7019 H 0.02371 0.54468 0.69923 0.0
H7020 H 0.00599 0.61664 0.66666 0.0
H7021 H 0.04159 0.57592 0.62694 0.0
H7022 H 0.05307 0.54371 0.6031 0.0
H7023 H 0.02841 0.55693 0.53877 0.0
H7024 H 0.01666 0.58905 0.56238 0.0
H7025 H 0.02513 0.72996 0.6137 0.0
H7026 H 0.0274 0.68851 0.63042 0.0
H7027 H 1.0027 0.66116 0.57067 0.0
H7028 H 1.00029 0.70252 0.55392 0.0
H7029 H 0.02516 0.63107 0.58174 0.0
H7030 H 0.98891 0.67072 0.62339 0.0
H7031 H 0.97873 0.70468 0.64686 0.0
H7032 H 0.00581 0.69404 0.708 0.0
H7033 H 0.0163 0.66024 0.68465 0.0
C7034 C 0.00632 0.53397 0.64525 0.0
C7035 C 0.012 0.5292 0.66897 0.0
C7036 C 0.00784 0.55683 0.63381 0.0
C7037 C 0.01491 0.57539 0.64604 0.0
C7038 C 0.02062 0.57062 0.66963 0.0
C7039 C 0.01929 0.5477 0.68088 0.0
C7040 C 0.01578 0.60014 0.63483 0.0
C7041 C 0.01036 0.61981 0.64826 0.0
C7042 C 0.0213 0.60425 0.61067 0.0
C7043 C 0.02813 0.58464 0.59655 0.0
C7044 C 0.0385 0.57175 0.60782 0.0
C7045 C 0.04509 0.55357 0.59432 0.0
C7046 C 0.04144 0.54821 0.56946 0.0
C7047 C 0.03121 0.56106 0.55804 0.0
C7048 C 0.02458 0.57927 0.57147 0.0
C7049 C 0.02029 0.71509 0.60398 0.0
C7050 C 0.01242 0.71951 0.58266 0.0
C7051 C 0.02161 0.69145 0.61354 0.0
C7052 C 0.01516 0.67186 0.60183 0.0
C7053 C 0.00777 0.67606 0.57992 0.0
C7054 C 0.00633 0.69972 0.57051 0.0
C7055 C 0.01529 0.64733 0.6135 0.0
C7056 C 0.02085 0.62778 0.60018 0.0
C7057 C 0.00996 0.6433 0.6378 0.0
C7058 C 1.00346 0.66314 0.65218 0.0
C7059 C 0.99274 0.67573 0.64177 0.0
C7060 C 0.98692 0.69494 0.65505 0.0
C7061 C 0.99164 0.70156 0.67888 0.0
C7062 C 1.00217 0.68891 0.68952 0.0
C7063 C 0.00806 0.66972 0.67628 0.0
H7064 H 0.98712 0.71646 0.68913 0.0
H7065 H 0.04657 0.53414 0.55903 0.0
H7066 H 0.23182 0.73325 0.64244 0.0
H7067 H 0.22982 0.69179 0.6256 0.0
H7068 H 0.263 0.66937 0.67015 0.0
H7069 H 0.26512 0.71069 0.68701 0.0
H7070 H 0.26643 0.65321 0.62647 0.0
H7071 H 0.22837 0.65115 0.68143 0.0
H7072 H 0.20678 0.66378 0.69781 0.0
H7073 H 0.18998 0.65454 0.62397 0.0
H7074 H 0.21147 0.64204 0.60714 0.0
H7075 H 0.26478 0.52595 0.60879 0.0
H7076 H 0.26259 0.56635 0.62814 0.0
H7077 H 0.23199 0.58449 0.57523 0.0
H7078 H 0.23393 0.54396 0.55614 0.0
H7079 H 0.22619 0.60307 0.62095 0.0
H7080 H 0.26334 0.60578 0.56589 0.0
H7081 H 0.28434 0.59114 0.54855 0.0
H7082 H 0.3023 0.59919 0.62154 0.0
H7083 H 0.28137 0.61368 0.63932 0.0
C7084 C 0.2386 0.71942 0.64898 0.0
C7085 C 0.24868 0.7255 0.6661 0.0
C7086 C 0.23737 0.69554 0.63942 0.0
C7087 C 0.24615 0.67704 0.64684 0.0
C7088 C 0.25601 0.68308 0.66431 0.0
C7089 C 0.25723 0.70684 0.67391 0.0
C7090 C 0.24585 0.65194 0.63524 0.0
C7091 C 0.25761 0.64223 0.62577 0.0
C7092 C 0.23432 0.63761 0.63304 0.0
C7093 C 0.22154 0.64595 0.64299 0.0
C7094 C 0.22009 0.65208 0.66865 0.0
C7095 C 0.20787 0.65913 0.67803 0.0
C7096 C 0.19703 0.66003 0.66193 0.0
C7097 C 0.19838 0.65389 0.63641 0.0
C7098 C 0.21058 0.6468 0.62696 0.0
C7099 C 0.25752 0.53844 0.60136 0.0
C7100 C 0.24962 0.53165 0.58074 0.0
C7101 C 0.25629 0.56164 0.6124 0.0
C7102 C 0.24726 0.57879 0.60294 0.0
C7103 C 0.23905 0.57174 0.58292 0.0
C7104 C 0.24023 0.5485 0.57193 0.0
C7105 C 0.24683 0.60434 0.61317 0.0
C7106 C 0.23497 0.61415 0.62197 0.0
C7107 C 0.25821 0.61894 0.61465 0.0
C7108 C 0.27082 0.61066 0.60393 0.0
C7109 C 0.27178 0.60434 0.57823 0.0
C7110 C 0.28366 0.59608 0.56833 0.0
C7111 C 0.29465 0.5942 0.58394 0.0
C7112 C 0.29379 0.60066 0.60947 0.0
C7113 C 0.28193 0.60894 0.61945 0.0
H7114 H 0.30384 0.58777 0.57625 0.0
H7115 H 0.18757 0.66543 0.66924 0.0
H7116 H 0.01472 0.27549 0.39547 0.0
H7117 H 0.01263 0.31505 0.37459 0.0
H7118 H 0.98026 0.33346 0.42328 0.0
H7119 H 0.98221 0.29368 0.44419 0.0
H7120 H 0.9759 0.34991 0.37493 0.0
H7121 H 0.0105 0.35568 0.4359 0.0
H7122 H 0.03107 0.34402 0.45711 0.0
H7123 H 0.05204 0.35303 0.38736 0.0
H7124 H 0.03155 0.36444 0.36568 0.0
H7125 H 0.98005 0.47977 0.35311 0.0
H7126 H 0.97815 0.43815 0.36961 0.0
H7127 H 0.01369 0.41816 0.33069 0.0
H7128 H 0.01592 0.4599 0.31525 0.0
H7129 H 0.0154 0.40231 0.37504 0.0
H7130 H 0.98041 0.39743 0.31379 0.0
H7131 H 0.95966 0.40907 0.29318 0.0
H7132 H 0.93917 0.39923 0.36331 0.0
H7133 H 0.95981 0.38772 0.38436 0.0
C7134 C 0.00707 0.28781 0.40168 0.0
C7135 C 0.99871 0.28135 0.42174 0.0
C7136 C 0.0059 0.31054 0.38971 0.0
C7137 C 0.99639 0.32753 0.39752 0.0
C7138 C 0.9877 0.32078 0.41688 0.0
C7139 C 0.98887 0.29802 0.42892 0.0
C7140 C 0.99604 0.35269 0.38637 0.0
C7141 C 0.9845 0.36149 0.37513 0.0
C7142 C 0.00725 0.36784 0.38625 0.0
C7143 C 0.01951 0.36067 0.39915 0.0
C7144 C 0.01949 0.35495 0.42506 0.0
C7145 C 0.03113 0.34844 0.43717 0.0
C7146 C 0.04285 0.34773 0.42358 0.0
C7147 C 0.04295 0.35355 0.39785 0.0
C7148 C 0.03134 0.36005 0.38565 0.0
C7149 C 0.98743 0.46645 0.34801 0.0
C7150 C 0.99823 0.4733 0.33311 0.0
C7151 C 0.98626 0.44249 0.35727 0.0
C7152 C 0.99571 0.42465 0.35134 0.0
C7153 C 0.00628 0.43143 0.33579 0.0
C7154 C 0.00757 0.45541 0.32697 0.0
C7155 C 0.99535 0.39957 0.36284 0.0
C7156 C 0.00678 0.39079 0.37447 0.0
C7157 C 0.98401 0.38458 0.36325 0.0
C7158 C 0.97167 0.39196 0.35069 0.0
C7159 C 0.9715 0.39797 0.32485 0.0
C7160 C 0.95975 0.40448 0.31308 0.0
C7161 C 0.94811 0.40495 0.32694 0.0
C7162 C 0.94819 0.39889 0.3526 0.0
C7163 C 0.95991 0.39234 0.36445 0.0
H7164 H 0.93902 0.40997 0.31779 0.0
H7165 H 0.05186 0.34273 0.433 0.0
H7166 H 0.74799 0.29315 0.30305 0.0
H7167 H 0.75029 0.33496 0.3191 0.0
H7168 H 0.77941 0.31044 0.37231 0.0
H7169 H 0.77719 0.26876 0.35646 0.0
H7170 H 0.76134 0.33633 0.39602 0.0
H7171 H 0.78857 0.34928 0.32514 0.0
H7172 H 0.79727 0.35296 0.28181 0.0
H7173 H 0.76533 0.40008 0.26171 0.0
H7174 H 0.75639 0.39657 0.30487 0.0
H7175 H 0.77583 0.45565 0.44283 0.0
H7176 H 0.77774 0.41557 0.42289 0.0
H7177 H 0.74777 0.43536 0.36924 0.0
H7178 H 0.7459 0.4757 0.38897 0.0
H7179 H 0.76783 0.41199 0.34632 0.0
H7180 H 0.74175 0.39866 0.42139 0.0
H7181 H 0.73737 0.3999 0.46723 0.0
H7182 H 0.77094 0.35462 0.48095 0.0
H7183 H 0.77565 0.35345 0.4352 0.0
C7184 C 0.75501 0.29667 0.31796 0.0
C7185 C 0.76231 0.27737 0.32856 0.0
C7186 C 0.75637 0.32069 0.32706 0.0
C7187 C 0.76505 0.32604 0.34698 0.0
C7188 C 0.77262 0.30692 0.357 0.0
C7189 C 0.77133 0.28299 0.34787 0.0
C7190 C 0.76533 0.35088 0.35895 0.0
C7191 C 0.76293 0.35281 0.38511 0.0
C7192 C 0.7673 0.3726 0.34491 0.0
C7193 C 0.77171 0.37237 0.31818 0.0
C7194 C 0.78326 0.36005 0.31136 0.0
C7195 C 0.78832 0.36233 0.2869 0.0
C7196 C 0.7819 0.37687 0.26907 0.0
C7197 C 0.77033 0.38893 0.27557 0.0
C7198 C 0.76525 0.38675 0.30001 0.0
C7199 C 0.76967 0.45158 0.42671 0.0
C7200 C 0.76068 0.46897 0.41756 0.0
C7201 C 0.77072 0.42852 0.41539 0.0
C7202 C 0.76276 0.42218 0.39473 0.0
C7203 C 0.75399 0.43971 0.38521 0.0
C7204 C 0.75291 0.4628 0.39654 0.0
C7205 C 0.76353 0.39733 0.38304 0.0
C7206 C 0.76616 0.39542 0.35706 0.0
C7207 C 0.76203 0.37563 0.39732 0.0
C7208 C 0.75912 0.37616 0.42485 0.0
C7209 C 0.74825 0.38912 0.43418 0.0
C7210 C 0.74571 0.38979 0.46016 0.0
C7211 C 0.75389 0.3774 0.477 0.0
C7212 C 0.76462 0.36425 0.46789 0.0
C7213 C 0.76723 0.36356 0.44193 0.0
H7214 H 0.7519 0.37794 0.49709 0.0
H7215 H 0.78584 0.37863 0.25016 0.0
H7216 H 0.52265 0.05312 0.69816 0.0
H7217 H 0.52397 0.09258 0.67706 0.0
H7218 H 0.5043 0.06269 0.61189 0.0
H7219 H 0.50255 0.02304 0.63337 0.0
H7220 H 0.52719 0.09401 0.60144 0.0
H7221 H 0.48686 0.0935 0.64848 0.0
H7222 H 0.47345 0.08768 0.68671 0.0
H7223 H 0.49524 0.14352 0.72505 0.0
H7224 H 0.50897 0.14934 0.68717 0.0
H7225 H 0.50522 0.20743 0.54566 0.0
H7226 H 0.50792 0.16581 0.56202 0.0
H7227 H 0.52311 0.19474 0.63193 0.0
H7228 H 0.52059 0.23617 0.61577 0.0
H7229 H 0.50285 0.16322 0.63964 0.0
H7230 H 0.54285 0.16515 0.59486 0.0
H7231 H 0.55856 0.16936 0.55983 0.0
H7232 H 0.53965 0.111 0.51985 0.0
H7233 H 0.52364 0.10673 0.55444 0.0
C7234 C 0.5186 0.05485 0.67933 0.0
C7235 C 0.51232 0.03503 0.66759 0.0
C7236 C 0.51941 0.07743 0.66727 0.0
C7237 C 0.51416 0.08059 0.643 0.0
C7238 C 0.50839 0.06059 0.63067 0.0
C7239 C 0.50736 0.03801 0.64298 0.0
C7240 C 0.51416 0.10514 0.63119 0.0
C7241 C 0.52169 0.1091 0.60942 0.0
C7242 C 0.50737 0.12493 0.64231 0.0
C7243 C 0.49904 0.12168 0.66505 0.0
C7244 C 0.48888 0.10438 0.66513 0.0
C7245 C 0.48121 0.1011 0.68673 0.0
C7246 C 0.48351 0.11517 0.70832 0.0
C7247 C 0.49348 0.1326 0.70833 0.0
C7248 C 0.50121 0.1359 0.68679 0.0
C7249 C 0.50931 0.20491 0.56438 0.0
C7250 C 0.51257 0.22519 0.57947 0.0
C7251 C 0.51089 0.1811 0.57366 0.0
C7252 C 0.51568 0.17715 0.59825 0.0
C7253 C 0.51935 0.19733 0.61296 0.0
C7254 C 0.51791 0.22105 0.60363 0.0
C7255 C 0.5158 0.15225 0.60952 0.0
C7256 C 0.5083 0.14819 0.63137 0.0
C7257 C 0.52275 0.13249 0.5986 0.0
C7258 C 0.53189 0.13591 0.57709 0.0
C7259 C 0.54187 0.15352 0.5784 0.0
C7260 C 0.55088 0.15584 0.55867 0.0
C7261 C 0.55007 0.14053 0.53758 0.0
C7262 C 0.54023 0.12291 0.53615 0.0
C7263 C 0.53118 0.12055 0.55581 0.0
H7264 H 0.5571 0.14226 0.52239 0.0
H7265 H 0.47755 0.11262 0.72502 0.0
H7266 H 0.75509 0.04379 0.5477 0.0
H7267 H 0.75188 0.08595 0.56217 0.0
H7268 H 0.74138 0.05954 0.63622 0.0
H7269 H 0.74395 0.01762 0.62155 0.0
H7270 H 0.72731 0.09683 0.62788 0.0
H7271 H 0.77353 0.0817 0.61679 0.0
H7272 H 0.79386 0.07191 0.59378 0.0
H7273 H 0.78734 0.13257 0.54394 0.0
H7274 H 0.7668 0.14232 0.56625 0.0
H7275 H 0.74336 0.19918 0.70469 0.0
H7276 H 0.74055 0.16036 0.68291 0.0
H7277 H 0.75183 0.19413 0.61254 0.0
H7278 H 0.7553 0.23287 0.63465 0.0
H7279 H 0.76392 0.15474 0.61536 0.0
H7280 H 0.71853 0.17212 0.62864 0.0
H7281 H 0.69862 0.18274 0.65263 0.0
H7282 H 0.70368 0.1192 0.69911 0.0
H7283 H 0.72369 0.10835 0.6756 0.0
C7284 C 0.75197 0.04699 0.56698 0.0
C7285 C 0.74994 0.02721 0.58348 0.0
C7286 C 0.75022 0.07117 0.57534 0.0
C7287 C 0.74671 0.07625 0.60059 0.0
C7288 C 0.74416 0.05641 0.61672 0.0
C7289 C 0.7457 0.03229 0.60828 0.0
C7290 C 0.7462 0.10194 0.61071 0.0
C7291 C 0.73537 0.10941 0.62525 0.0
C7292 C 0.75648 0.11893 0.60688 0.0
C7293 C 0.76858 0.11255 0.593 0.0
C7294 C 0.77637 0.09276 0.60074 0.0
C7295 C 0.78793 0.08725 0.58785 0.0
C7296 C 0.7919 0.10165 0.56746 0.0
C7297 C 0.78427 0.12148 0.55979 0.0
C7298 C 0.77264 0.12693 0.57246 0.0
C7299 C 0.74515 0.19846 0.68452 0.0
C7300 C 0.74965 0.21924 0.67151 0.0
C7301 C 0.74339 0.17616 0.67194 0.0
C7302 C 0.74577 0.17404 0.64581 0.0
C7303 C 0.74992 0.19503 0.63266 0.0
C7304 C 0.75189 0.21728 0.64534 0.0
C7305 C 0.74508 0.14966 0.63272 0.0
C7306 C 0.75572 0.14238 0.6177 0.0
C7307 C 0.73463 0.13293 0.63615 0.0
C7308 C 0.72266 0.13953 0.65046 0.0
C7309 C 0.71545 0.16052 0.6441 0.0
C7310 C 0.70413 0.16655 0.65759 0.0
C7311 C 0.6999 0.15168 0.67741 0.0
C7312 C 0.70697 0.13071 0.68377 0.0
C7313 C 0.71829 0.1246 0.67034 0.0
H7314 H 0.69114 0.15637 0.68782 0.0
H7315 H 0.80088 0.09738 0.55754 0.0
H7316 H 0.48843 0.98374 0.36744 0.0
H7317 H 0.48597 0.94194 0.38268 0.0
H7318 H 0.50499 0.9148 0.31557 0.0
H7319 H 0.50748 0.95673 0.30003 0.0
H7320 H 0.48355 0.88479 0.33227 0.0
H7321 H 0.52285 0.92123 0.36598 0.0
H7322 H 0.53534 0.95353 0.38768 0.0
H7323 H 0.51185 0.94414 0.45428 0.0
H7324 H 0.4991 0.91199 0.4328 0.0
H7325 H 0.50872 0.77141 0.38305 0.0
H7326 H 0.50608 0.81152 0.36287 0.0
H7327 H 0.48624 0.8383 0.42927 0.0
H7328 H 0.48852 0.79823 0.44922 0.0
H7329 H 0.50714 0.86822 0.41254 0.0
H7330 H 0.46843 0.83153 0.38142 0.0
H7331 H 0.45482 0.80012 0.36096 0.0
H7332 H 0.47574 0.81012 0.29134 0.0
H7333 H 0.48962 0.84141 0.31153 0.0
C7334 C 0.49196 0.96893 0.3557 0.0
C7335 C 0.4983 0.97372 0.3326 0.0
C7336 C 0.49053 0.94498 0.36447 0.0
C7337 C 0.49543 0.92519 0.35044 0.0
C7338 C 0.50113 0.92975 0.32674 0.0
C7339 C 0.50259 0.95377 0.31793 0.0
C7340 C 0.49562 0.90017 0.36161 0.0
C7341 C 0.48886 0.88107 0.34962 0.0
C7342 C 0.50221 0.89537 0.38465 0.0
C7343 C 0.50996 0.9144 0.39773 0.0
C7344 C 0.5203 0.92617 0.3852 0.0
C7345 C 0.52743 0.94443 0.39746 0.0
C7346 C 0.52437 0.95092 0.42232 0.0
C7347 C 0.5142 0.93911 0.43501 0.0
C7348 C 0.50702 0.92086 0.42281 0.0
C7349 C 0.50371 0.78581 0.39324 0.0
C7350 C 0.49882 0.78163 0.41772 0.0
C7351 C 0.50215 0.80867 0.38165 0.0
C7352 C 0.49592 0.82791 0.39453 0.0
C7353 C 0.49104 0.82373 0.41894 0.0
C7354 C 0.49233 0.80078 0.43029 0.0
C7355 C 0.49516 0.85275 0.38316 0.0
C7356 C 0.50184 0.87186 0.39516 0.0
C7357 C 0.48839 0.8575 0.36031 0.0
C7358 C 0.48019 0.83857 0.34808 0.0
C7359 C 0.47024 0.82683 0.36183 0.0
C7360 C 0.46245 0.80911 0.35026 0.0
C7361 C 0.46445 0.80306 0.32489 0.0
C7362 C 0.47422 0.81479 0.31101 0.0
C7363 C 0.48206 0.83254 0.32251 0.0
H7364 H 0.45839 0.78934 0.31595 0.0
H7365 H 0.5299 0.96507 0.43178 0.0
H7366 H 0.27099 0.9812 0.3789 0.0
H7367 H 0.27342 0.9395 0.36304 0.0
H7368 H 0.2545 0.91177 0.42991 0.0
H7369 H 0.25181 0.95365 0.4458 0.0
H7370 H 0.27758 0.88313 0.41132 0.0
H7371 H 0.23632 0.91645 0.38376 0.0
H7372 H 0.22257 0.94858 0.3648 0.0
H7373 H 0.24376 0.94216 0.29498 0.0
H7374 H 0.25783 0.9103 0.31375 0.0
H7375 H 0.25349 0.76848 0.35864 0.0
H7376 H 0.25655 0.80737 0.38106 0.0
H7377 H 0.27293 0.83905 0.3136 0.0
H7378 H 0.27025 0.80019 0.29145 0.0
H7379 H 0.25177 0.86551 0.33393 0.0
H7380 H 0.29238 0.83149 0.35955 0.0
H7381 H 0.30789 0.80218 0.37828 0.0
H7382 H 0.28946 0.81079 0.4507 0.0
H7383 H 0.27367 0.8399 0.4323 0.0
C7384 C 0.26743 0.96625 0.39037 0.0
C7385 C 0.26104 0.97077 0.41346 0.0
C7386 C 0.26888 0.9424 0.38131 0.0
C7387 C 0.26412 0.92252 0.39526 0.0
C7388 C 0.25827 0.92684 0.41887 0.0
C7389 C 0.25663 0.95078 0.42779 0.0
C7390 C 0.2641 0.89763 0.38393 0.0
C7391 C 0.27179 0.87908 0.39465 0.0
C7392 C 0.25683 0.89257 0.36179 0.0
C7393 C 0.24819 0.91119 0.35021 0.0
C7394 C 0.2381 0.92202 0.36442 0.0
C7395 C 0.23026 0.94017 0.35371 0.0
C7396 C 0.23231 0.94745 0.32871 0.0
C7397 C 0.24219 0.93652 0.31435 0.0
C7398 C 0.25011 0.91841 0.32501 0.0
C7399 C 0.25794 0.78361 0.34869 0.0
C7400 C 0.26149 0.78129 0.32304 0.0
C7401 C 0.25971 0.80582 0.36158 0.0
C7402 C 0.26494 0.82619 0.349 0.0
C7403 C 0.26886 0.82364 0.3237 0.0
C7404 C 0.26728 0.80141 0.311 0.0
C7405 C 0.26521 0.8507 0.3613 0.0
C7406 C 0.25753 0.86932 0.3507 0.0
C7407 C 0.27255 0.85572 0.38346 0.0
C7408 C 0.28168 0.83755 0.39443 0.0
C7409 C 0.29148 0.82683 0.37937 0.0
C7410 C 0.30036 0.81034 0.38996 0.0
C7411 C 0.29962 0.80453 0.41564 0.0
C7412 C 0.28999 0.81523 0.43079 0.0
C7413 C 0.28107 0.83173 0.42029 0.0
H7414 H 0.30653 0.79181 0.42382 0.0
H7415 H 0.22623 0.96152 0.32045 0.0
H7416 H 0.50027 0.72933 0.11323 0.0
H7417 H 0.50228 0.68919 0.13352 0.0
H7418 H 0.52577 0.66366 0.07116 0.0
H7419 H 0.52393 0.70355 0.05097 0.0
H7420 H 0.50639 0.63168 0.08243 0.0
H7421 H 0.54029 0.67265 0.12571 0.0
H7422 H 0.55053 0.7061 0.14977 0.0
H7423 H 0.52409 0.69358 0.21148 0.0
H7424 H 0.51356 0.6602 0.18761 0.0
H7425 H 0.52416 0.51782 0.13378 0.0
H7426 H 0.52646 0.55971 0.11871 0.0
H7427 H 0.50215 0.58526 0.17985 0.0
H7428 H 0.49991 0.54325 0.19532 0.0
H7429 H 0.5229 0.61746 0.16946 0.0
H7430 H 0.48892 0.5757 0.12238 0.0
H7431 H 0.48008 0.54224 0.09628 0.0
H7432 H 0.50898 0.55642 0.03926 0.0
H7433 H 0.51811 0.58977 0.06521 0.0
C7434 C 0.50596 0.71523 0.10396 0.0
C7435 C 0.51194 0.71974 0.08046 0.0
C7436 C 0.50713 0.6923 0.11562 0.0
C7437 C 0.51421 0.67334 0.10392 0.0
C7438 C 0.52025 0.67791 0.08058 0.0
C7439 C 0.51922 0.70084 0.06909 0.0
C7440 C 0.51485 0.64845 0.1154 0.0
C7441 C 0.51016 0.62858 0.10134 0.0
C7442 C 0.51968 0.6443 0.14014 0.0
C7443 C 0.52604 0.66411 0.15477 0.0
C7444 C 0.53658 0.67715 0.14434 0.0
C7445 C 0.54246 0.69607 0.15795 0.0
C7446 C 0.53794 0.70201 0.18211 0.0
C7447 C 0.52757 0.68897 0.19274 0.0
C7448 C 0.52165 0.67002 0.1792 0.0
C7449 C 0.5194 0.53232 0.14425 0.0
C7450 C 0.51172 0.52701 0.16565 0.0
C7451 C 0.52072 0.55634 0.13556 0.0
C7452 C 0.51431 0.57571 0.14785 0.0
C7453 C 0.50717 0.57068 0.16996 0.0
C7454 C 0.50587 0.54659 0.17876 0.0
C7455 C 0.51429 0.60075 0.13654 0.0
C7456 C 0.51912 0.62062 0.15058 0.0
C7457 C 0.5098 0.60492 0.11154 0.0
C7458 C 0.50426 0.58505 0.09583 0.0
C7459 C 0.49344 0.57157 0.10435 0.0
C7460 C 0.48837 0.55264 0.08958 0.0
C7461 C 0.49398 0.54717 0.06615 0.0
C7462 C 0.50465 0.56066 0.05742 0.0
C7463 C 0.50977 0.57958 0.07214 0.0
H7464 H 0.49004 0.53251 0.05474 0.0
H7465 H 0.54249 0.71669 0.19261 0.0
H7466 H 0.7279 0.53338 0.07572 0.0
H7467 H 0.72622 0.57422 0.09457 0.0
H7468 H 0.76828 0.57868 0.09805 0.0
H7469 H 0.77005 0.53805 0.07943 0.0
H7470 H 0.75745 0.59207 0.14243 0.0
H7471 H 0.74963 0.61036 0.05372 0.0
H7472 H 0.73793 0.60785 0.01301 0.0
H7473 H 0.70259 0.63248 0.04883 0.0
H7474 H 0.71404 0.63478 0.08984 0.0
H7475 H 0.77115 0.71737 0.16273 0.0
H7476 H 0.76899 0.67591 0.14578 0.0
H7477 H 0.72698 0.68273 0.14752 0.0
H7478 H 0.72907 0.72409 0.16478 0.0
H7479 H 0.73501 0.66275 0.10305 0.0
H7480 H 0.74119 0.64596 0.18985 0.0
H7481 H 0.75095 0.64702 0.2325 0.0
H7482 H 0.78692 0.6182 0.20297 0.0
H7483 H 0.77742 0.61717 0.16009 0.0
C7484 C 0.7368 0.54311 0.08036 0.0
C7485 C 0.74912 0.53225 0.07607 0.0
C7486 C 0.73582 0.56656 0.09108 0.0
C7487 C 0.74713 0.57973 0.09776 0.0
C7488 C 0.7594 0.56898 0.09321 0.0
C7489 C 0.76039 0.54567 0.08245 0.0
C7490 C 0.74636 0.60429 0.11023 0.0
C7491 C 0.75269 0.60758 0.13359 0.0
C7492 C 0.73958 0.62438 0.09949 0.0
C7493 C 0.73266 0.62249 0.07491 0.0
C7494 C 0.73933 0.61498 0.05298 0.0
C7495 C 0.73275 0.61366 0.02983 0.0
C7496 C 0.71952 0.61995 0.02834 0.0
C7497 C 0.71284 0.62757 0.05001 0.0
C7498 C 0.71937 0.62889 0.0732 0.0
C7499 C 0.76144 0.71011 0.15945 0.0
C7500 C 0.75029 0.72421 0.16506 0.0
C7501 C 0.76021 0.68627 0.14991 0.0
C7502 C 0.74781 0.67597 0.14546 0.0
C7503 C 0.73666 0.69013 0.15076 0.0
C7504 C 0.73788 0.71383 0.16067 0.0
C7505 C 0.74657 0.6507 0.13474 0.0
C7506 C 0.73977 0.64724 0.11187 0.0
C7507 C 0.7527 0.63029 0.14614 0.0
C7508 C 0.75864 0.63176 0.17169 0.0
C7509 C 0.75124 0.64014 0.19239 0.0
C7510 C 0.75671 0.64064 0.21663 0.0
C7511 C 0.76956 0.63275 0.22042 0.0
C7512 C 0.77698 0.62434 0.19999 0.0
C7513 C 0.77155 0.62378 0.17572 0.0
H7514 H 0.77377 0.63309 0.23921 0.0
H7515 H 0.71445 0.61899 0.01039 0.0
H7516 H 0.50193 0.48501 0.8625 0.0
H7517 H 0.49894 0.4463 0.88483 0.0
H7518 H 0.49184 0.40998 0.81364 0.0
H7519 H 0.49406 0.44879 0.79153 0.0
H7520 H 0.47678 0.39101 0.84673 0.0
H7521 H 0.52292 0.41061 0.84592 0.0
H7522 H 0.54206 0.43669 0.85461 0.0
H7523 H 0.53336 0.43508 0.93405 0.0
H7524 H 0.51407 0.40925 0.92576 0.0
H7525 H 0.494 0.2694 0.87559 0.0
H7526 H 0.49172 0.31097 0.85964 0.0
H7527 H 0.49968 0.33925 0.93436 0.0
H7528 H 0.50294 0.29748 0.94985 0.0
H7529 H 0.51275 0.36384 0.90308 0.0
H7530 H 0.46728 0.3408 0.90343 0.0
H7531 H 0.44833 0.31455 0.89369 0.0
H7532 H 0.45614 0.32155 0.81424 0.0
H7533 H 0.47517 0.34772 0.82352 0.0
C7534 C 0.49961 0.46878 0.8517 0.0
C7535 C 0.49833 0.46986 0.82528 0.0
C7536 C 0.49797 0.44663 0.86444 0.0
C7537 C 0.49548 0.42502 0.8509 0.0
C7538 C 0.49379 0.42631 0.82457 0.0
C7539 C 0.4951 0.44852 0.81192 0.0
C7540 C 0.49517 0.40087 0.86378 0.0
C7541 C 0.48469 0.38502 0.85894 0.0
C7542 C 0.50531 0.39312 0.8802 0.0
C7543 C 0.51701 0.40824 0.8852 0.0
C7544 C 0.52508 0.41592 0.86522 0.0
C7545 C 0.53594 0.43065 0.87007 0.0
C7546 C 0.53891 0.43759 0.89486 0.0
C7547 C 0.53104 0.42973 0.91486 0.0
C7548 C 0.52015 0.41504 0.9101 0.0
C7549 C 0.49519 0.28454 0.88858 0.0
C7550 C 0.49871 0.28038 0.91384 0.0
C7551 C 0.49374 0.30832 0.87954 0.0
C7552 C 0.49524 0.32841 0.89586 0.0
C7553 C 0.49847 0.32414 0.92135 0.0
C7554 C 0.50034 0.30032 0.9302 0.0
C7555 C 0.4944 0.35379 0.88591 0.0
C7556 C 0.50471 0.36988 0.89122 0.0
C7557 C 0.48415 0.36166 0.8698 0.0
C7558 C 0.47266 0.34612 0.86419 0.0
C7559 C 0.46497 0.33666 0.8839 0.0
C7560 C 0.45422 0.32182 0.87845 0.0
C7561 C 0.45105 0.31638 0.85337 0.0
C7562 C 0.4586 0.32581 0.83366 0.0
C7563 C 0.46934 0.3407 0.83899 0.0
H7564 H 0.44273 0.30487 0.84922 0.0
H7565 H 0.54732 0.44902 0.89858 0.0
H7566 H 0.24868 0.27411 0.85603 0.0
H7567 H 0.25092 0.31309 0.87815 0.0
H7568 H 0.27688 0.33888 0.8198 0.0
H7569 H 0.27494 0.29959 0.7979 0.0
H7570 H 0.28495 0.35534 0.86531 0.0
H7571 H 0.2445 0.3549 0.81995 0.0
H7572 H 0.2231 0.33841 0.80695 0.0
H7573 H 0.2096 0.34213 0.88378 0.0
H7574 H 0.23101 0.35832 0.89728 0.0
H7575 H 0.27597 0.48363 0.88752 0.0
H7576 H 0.27813 0.44196 0.87162 0.0
H7577 H 0.24996 0.41737 0.92665 0.0
H7578 H 0.24752 0.45925 0.94218 0.0
H7579 H 0.24365 0.39967 0.88332 0.0
H7580 H 0.28464 0.40217 0.92808 0.0
H7581 H 0.3065 0.41743 0.93994 0.0
H7582 H 0.3193 0.41045 0.86292 0.0
H7583 H 0.29749 0.39537 0.85057 0.0
C7584 C 0.25501 0.28792 0.84801 0.0
C7585 C 0.26147 0.28375 0.82489 0.0
C7586 C 0.25623 0.31034 0.86066 0.0
C7587 C 0.26387 0.32931 0.85048 0.0
C7588 C 0.27085 0.32474 0.82806 0.0
C7589 C 0.26966 0.30226 0.81542 0.0
C7590 C 0.26397 0.35419 0.86249 0.0
C7591 C 0.27592 0.36514 0.86904 0.0
C7592 C 0.25225 0.36705 0.86774 0.0
C7593 C 0.23936 0.35761 0.85964 0.0
C7594 C 0.23698 0.35206 0.83408 0.0
C7595 C 0.22486 0.34278 0.82663 0.0
C7596 C 0.215 0.33918 0.84454 0.0
C7597 C 0.21724 0.34491 0.86993 0.0
C7598 C 0.22937 0.35415 0.8775 0.0
C7599 C 0.27032 0.46934 0.89648 0.0
C7600 C 0.26152 0.47497 0.91617 0.0
C7601 C 0.27166 0.44533 0.88745 0.0
C7602 C 0.26431 0.42615 0.89795 0.0
C7603 C 0.25578 0.43166 0.9181 0.0
C7604 C 0.25442 0.45568 0.92711 0.0
C7605 C 0.26464 0.40091 0.88663 0.0
C7606 C 0.25272 0.3899 0.87992 0.0
C7607 C 0.27642 0.38818 0.88108 0.0
C7608 C 0.2894 0.39788 0.88837 0.0
C7609 C 0.29208 0.40414 0.91364 0.0
C7610 C 0.30447 0.41268 0.92046 0.0
C7611 C 0.31427 0.41497 0.90219 0.0
C7612 C 0.3117 0.4087 0.87705 0.0
C7613 C 0.29934 0.40014 0.87014 0.0
H7614 H 0.32386 0.42154 0.90752 0.0
H7615 H 0.20561 0.33199 0.83873 0.0
loop_
_geom_bond_atom_site_label_1
_geom_bond_atom_site_label_2
_geom_bond_distance
_geom_bond_site_symmetry_2
_ccdc_geom_bond_type
Eu0 O2 2.323 1_655 S
Eu0 O10 2.328 1_655 S
Eu0 O21 2.316 1_655 S
Eu0 C22 2.837 . S
Eu0 O23 2.488 . S
Eu0 O31 2.461 . S
C1 O12 1.251 . S
C1 O21 1.237 1_556 S
O2 Eu0 2.323 1_455 S
O2 C18 1.279 . S
C3 C5 1.383 . S
C3 C7 1.388 . S
C3 C17 1.491 . S
C4 C6 1.403 . S
C4 C8 1.385 . S
C4 H32 0.931 . S
C5 C3 1.383 . S
C5 C6 1.393 . S
C5 H33 0.930 . S
C6 C4 1.403 . S
C6 C5 1.393 . S
C7 C3 1.388 . S
C7 C8 1.394 . S
C7 H34 0.930 . S
C8 C4 1.385 . S
C8 C7 1.394 . S
Eu9 O11 2.323 . S
Eu9 O12 2.328 . S
Eu9 O13 2.316 1_556 S
Eu9 O16 2.488 1_556 S
Eu9 C17 2.837 1_556 S
Eu9 O20 2.461 1_556 S
O10 Eu0 2.328 1_455 S
O10 C30 1.251 . S
O11 Eu9 2.323 . S
O11 C14 1.279 1_455 S
O12 C1 1.251 . S
O12 Eu9 2.328 . S
O13 Eu9 2.316 1_554 S
O13 C30 1.237 . S
C14 O11 1.279 1_655 S
C14 O15 1.244 . S
O15 C14 1.244 . S
O16 Eu9 2.488 1_554 S
O16 C17 1.271 . S
C17 C3 1.491 . S
C17 Eu9 2.837 1_554 S
C17 O16 1.271 . S
C17 O20 1.261 . S
C18 O2 1.279 . S
C18 O19 1.244 . S
O19 C18 1.244 . S
O20 Eu9 2.461 1_554 S
O20 C17 1.261 . S
O21 Eu0 2.316 1_455 S
O21 C1 1.237 1_554 S
C22 Eu0 2.837 . S
C22 O23 1.271 . S
C22 C24 1.491 . S
C22 O31 1.261 . S
O23 Eu0 2.488 . S
O23 C22 1.271 . S
C24 C22 1.491 . S
C24 C26 1.383 . S
C24 C28 1.388 . S
C25 C27 1.403 . S
C25 C29 1.385 . S
C25 H35 0.931 . S
C26 C24 1.383 . S
C26 C27 1.393 . S
C26 H36 0.930 . S
C27 C25 1.403 . S
C27 C26 1.393 . S
C28 C24 1.388 . S
C28 C29 1.394 . S
C28 H37 0.930 . S
C29 C25 1.385 . S
C29 C28 1.394 . S
C30 O10 1.251 . S
C30 O13 1.237 . S
O31 Eu0 2.461 . S
O31 C22 1.261 . S
H32 C4 0.931 . S
H33 C5 0.930 . S
H34 C7 0.930 . S
H35 C25 0.931 . S
H36 C26 0.930 . S
H37 C28 0.930 . S
Eu38 O40 2.361 . S
Eu38 O48 2.328 . S
Eu38 O59 2.316 . S
Eu38 C60 2.837 . S
Eu38 O61 2.488 . S
Eu38 O69 2.461 . S
C39 O50 1.251 . S
C39 O59 1.237 1_556 S
O40 Eu38 2.361 . S
O40 C56 1.255 1_565 S
C41 C43 1.383 . S
C41 C45 1.388 . S
C41 C55 1.491 . S
C42 C44 1.403 . S
C42 C46 1.385 . S
C42 H70 0.931 . S
C43 C41 1.383 . S
C43 C44 1.393 . S
C43 H71 0.930 . S
C44 C42 1.403 . S
C44 C43 1.393 . S
C45 C41 1.388 . S
C45 C46 1.394 . S
C45 H72 0.930 . S
C46 C42 1.385 . S
C46 C45 1.394 . S
Eu47 O49 2.323 . S
Eu47 O50 2.328 . S
Eu47 O51 2.316 1_556 S
Eu47 O54 2.488 1_556 S
Eu47 C55 2.837 1_556 S
Eu47 O58 2.461 1_556 S
O48 Eu38 2.328 . S
O48 C68 1.251 . S
O49 Eu47 2.323 . S
O49 C52 1.279 . S
O50 C39 1.251 . S
O50 Eu47 2.328 . S
O51 Eu47 2.316 1_554 S
O51 C68 1.237 . S
C52 O49 1.279 . S
C52 O53 1.244 . S
O53 C52 1.244 . S
O54 Eu47 2.488 1_554 S
O54 C55 1.271 . S
C55 C41 1.491 . S
C55 Eu47 2.837 1_554 S
C55 O54 1.271 . S
C55 O58 1.261 . S
C56 O40 1.255 1_545 S
C56 O57 1.244 . S
O57 C56 1.244 . S
O58 Eu47 2.461 1_554 S
O58 C55 1.261 . S
O59 Eu38 2.316 . S
O59 C39 1.237 1_554 S
C60 Eu38 2.837 . S
C60 O61 1.271 . S
C60 C62 1.491 . S
C60 O69 1.261 . S
O61 Eu38 2.488 . S
O61 C60 1.271 . S
C62 C60 1.491 . S
C62 C64 1.383 . S
C62 C66 1.388 . S
C63 C65 1.403 . S
C63 C67 1.385 . S
C63 H73 0.931 . S
C64 C62 1.383 . S
C64 C65 1.393 . S
C64 H74 0.930 . S
C65 C63 1.403 . S
C65 C64 1.393 . S
C66 C62 1.388 . S
C66 C67 1.394 . S
C66 H75 0.930 . S
C67 C63 1.385 . S
C67 C66 1.394 . S
C68 O48 1.251 . S
C68 O51 1.237 . S
O69 Eu38 2.461 . S
O69 C60 1.261 . S
H70 C42 0.931 . S
H71 C43 0.930 . S
H72 C45 0.930 . S
H73 C63 0.931 . S
H74 C64 0.930 . S
H75 C66 0.930 . S
Eu76 O78 2.361 1_655 S
Eu76 O86 2.328 1_655 S
Eu76 O97 2.316 1_655 S
Eu76 C98 2.837 . S
Eu76 O99 2.488 . S
Eu76 O107 2.461 . S
C77 O88 1.251 . S
C77 O97 1.237 . S
O78 Eu76 2.361 1_455 S
O78 C94 1.256 1_565 S
C79 C81 1.383 . S
C79 C83 1.388 . S
C79 C93 1.491 . S
C80 C82 1.403 . S
C80 C84 1.385 . S
C80 H108 0.931 . S
C81 C79 1.383 . S
C81 C82 1.393 . S
C81 H109 0.930 . S
C82 C80 1.403 . S
C82 C81 1.393 . S
C83 C79 1.388 . S
C83 C84 1.394 . S
C83 H110 0.930 . S
C84 C80 1.385 . S
C84 C83 1.394 . S
Eu85 O87 2.323 . S
Eu85 O88 2.328 . S
Eu85 O89 2.316 . S
Eu85 O92 2.488 . S
Eu85 C93 2.837 . S
Eu85 O96 2.461 . S
O86 Eu76 2.328 1_455 S
O86 C106 1.251 . S
O87 Eu85 2.323 . S
O87 C90 1.279 1_455 S
O88 C77 1.251 . S
O88 Eu85 2.328 . S
O89 Eu85 2.316 . S
O89 C106 1.237 . S
C90 O87 1.279 1_655 S
C90 O91 1.244 . S
O91 C90 1.244 . S
O92 Eu85 2.488 . S
O92 C93 1.271 . S
C93 C79 1.491 . S
C93 Eu85 2.837 . S
C93 O92 1.271 . S
C93 O96 1.261 . S
C94 O78 1.256 1_545 S
C94 O95 1.244 . S
O95 C94 1.244 . S
O96 Eu85 2.461 . S
O96 C93 1.261 . S
O97 Eu76 2.316 1_455 S
O97 C77 1.237 . S
C98 Eu76 2.837 . S
C98 O99 1.271 . S
C98 C100 1.491 . S
C98 O107 1.261 . S
O99 Eu76 2.488 . S
O99 C98 1.271 . S
C100 C98 1.491 . S
C100 C102 1.383 . S
C100 C104 1.388 . S
C101 C103 1.403 . S
C101 C105 1.385 . S
C101 H111 0.931 . S
C102 C100 1.383 . S
C102 C103 1.393 . S
C102 H112 0.930 . S
C103 C101 1.403 . S
C103 C102 1.393 . S
C104 C100 1.388 . S
C104 C105 1.394 . S
C104 H113 0.930 . S
C105 C101 1.385 . S
C105 C104 1.394 . S
C106 O86 1.251 . S
C106 O89 1.237 . S
O107 Eu76 2.461 . S
O107 C98 1.261 . S
H108 C80 0.931 . S
H109 C81 0.930 . S
H110 C83 0.930 . S
H111 C101 0.931 . S
H112 C102 0.930 . S
H113 C104 0.930 . S
Eu114 O116 2.323 . S
Eu114 O124 2.328 . S
Eu114 O135 2.316 . S
Eu114 C136 2.837 . S
Eu114 O137 2.488 . S
Eu114 O145 2.461 . S
C115 O126 1.251 . S
C115 O135 1.237 . S
O116 Eu114 2.323 . S
O116 C132 1.279 . S
C117 C119 1.383 . S
C117 C121 1.388 . S
C117 C131 1.491 . S
C118 C120 1.403 . S
C118 C122 1.385 . S
C118 H146 0.931 . S
C119 C117 1.383 . S
C119 C120 1.393 . S
C119 H147 0.930 . S
C120 C118 1.403 . S
C120 C119 1.393 . S
C121 C117 1.388 . S
C121 C122 1.394 . S
C121 H148 0.930 . S
C122 C118 1.385 . S
C122 C121 1.394 . S
Eu123 O125 2.323 . S
Eu123 O126 2.328 . S
Eu123 O127 2.316 . S
Eu123 O130 2.488 . S
Eu123 C131 2.837 . S
Eu123 O134 2.461 . S
O124 Eu114 2.328 . S
O124 C144 1.251 . S
O125 Eu123 2.323 . S
O125 C128 1.279 . S
O126 C115 1.251 . S
O126 Eu123 2.328 . S
O127 Eu123 2.316 . S
O127 C144 1.237 . S
C128 O125 1.279 . S
C128 O129 1.244 . S
O129 C128 1.244 . S
O130 Eu123 2.488 . S
O130 C131 1.271 . S
C131 C117 1.491 . S
C131 Eu123 2.837 . S
C131 O130 1.271 . S
C131 O134 1.261 . S
C132 O116 1.279 . S
C132 O133 1.244 . S
O133 C132 1.244 . S
O134 Eu123 2.461 . S
O134 C131 1.261 . S
O135 Eu114 2.316 . S
O135 C115 1.237 . S
C136 Eu114 2.837 . S
C136 O137 1.271 . S
C136 C138 1.491 . S
C136 O145 1.261 . S
O137 Eu114 2.488 . S
O137 C136 1.271 . S
C138 C136 1.491 . S
C138 C140 1.383 . S
C138 C142 1.388 . S
C139 C141 1.403 . S
C139 C143 1.385 . S
C139 H149 0.931 . S
C140 C138 1.383 . S
C140 C141 1.393 . S
C140 H150 0.930 . S
C141 C139 1.403 . S
C141 C140 1.393 . S
C142 C138 1.388 . S
C142 C143 1.394 . S
C142 H151 0.930 . S
C143 C139 1.385 . S
C143 C142 1.394 . S
C144 O124 1.251 . S
C144 O127 1.237 . S
O145 Eu114 2.461 . S
O145 C136 1.261 . S
H146 C118 0.931 . S
H147 C119 0.930 . S
H148 C121 0.930 . S
H149 C139 0.931 . S
H150 C140 0.930 . S
H151 C142 0.930 . S
Eu152 O154 2.323 . S
Eu152 O162 2.328 . S
Eu152 O173 2.316 1_554 S
Eu152 C174 2.837 1_554 S
Eu152 O175 2.488 1_554 S
Eu152 O183 2.461 1_554 S
C153 O164 1.251 . S
C153 O173 1.237 . S
O154 Eu152 2.323 . S
O154 C170 1.279 1_655 S
C155 C157 1.383 . S
C155 C159 1.388 . S
C155 C169 1.491 . S
C156 C158 1.403 . S
C156 C160 1.385 . S
C156 H184 0.931 . S
C157 C155 1.383 . S
C157 C158 1.393 . S
C157 H185 0.930 . S
C158 C156 1.403 . S
C158 C157 1.393 . S
C159 C155 1.388 . S
C159 C160 1.394 . S
C159 H186 0.930 . S
C160 C156 1.385 . S
C160 C159 1.394 . S
Eu161 O163 2.323 1_455 S
Eu161 O164 2.328 1_455 S
Eu161 O165 2.316 1_455 S
Eu161 O168 2.488 . S
Eu161 C169 2.837 . S
Eu161 O172 2.461 . S
O162 Eu152 2.328 . S
O162 C182 1.251 . S
O163 Eu161 2.323 1_655 S
O163 C166 1.279 . S
O164 C153 1.251 . S
O164 Eu161 2.328 1_655 S
O165 Eu161 2.316 1_655 S
O165 C182 1.237 1_556 S
C166 O163 1.279 . S
C166 O167 1.244 . S
O167 C166 1.244 . S
O168 Eu161 2.488 . S
O168 C169 1.271 . S
C169 C155 1.491 . S
C169 Eu161 2.837 . S
C169 O168 1.271 . S
C169 O172 1.261 . S
C170 O154 1.279 1_455 S
C170 O171 1.244 . S
O171 C170 1.244 . S
O172 Eu161 2.461 . S
O172 C169 1.261 . S
O173 Eu152 2.316 1_556 S
O173 C153 1.237 . S
C174 Eu152 2.837 1_556 S
C174 O175 1.271 . S
C174 C176 1.491 . S
C174 O183 1.261 . S
O175 Eu152 2.488 1_556 S
O175 C174 1.271 . S
C176 C174 1.491 . S
C176 C178 1.383 . S
C176 C180 1.388 . S
C177 C179 1.403 . S
C177 C181 1.385 . S
C177 H187 0.931 . S
C178 C176 1.383 . S
C178 C179 1.393 . S
C178 H188 0.930 . S
C179 C177 1.403 . S
C179 C178 1.393 . S
C180 C176 1.388 . S
C180 C181 1.394 . S
C180 H189 0.930 . S
C181 C177 1.385 . S
C181 C180 1.394 . S
C182 O162 1.251 . S
C182 O165 1.237 1_554 S
O183 Eu152 2.461 1_556 S
O183 C174 1.261 . S
H184 C156 0.931 . S
H185 C157 0.930 . S
H186 C159 0.930 . S
H187 C177 0.931 . S
H188 C178 0.930 . S
H189 C180 0.930 . S
Eu190 O192 2.323 . S
Eu190 O200 2.328 . S
Eu190 O211 2.316 1_554 S
Eu190 C212 2.837 1_554 S
Eu190 O213 2.488 1_554 S
Eu190 O221 2.461 1_554 S
C191 O202 1.251 . S
C191 O211 1.237 . S
O192 Eu190 2.323 . S
O192 C208 1.279 . S
C193 C195 1.383 . S
C193 C197 1.388 . S
C193 C207 1.491 . S
C194 C196 1.403 . S
C194 C198 1.385 . S
C194 H222 0.931 . S
C195 C193 1.383 . S
C195 C196 1.393 . S
C195 H223 0.930 . S
C196 C194 1.403 . S
C196 C195 1.393 . S
C197 C193 1.388 . S
C197 C198 1.394 . S
C197 H224 0.930 . S
C198 C194 1.385 . S
C198 C197 1.394 . S
Eu199 O201 2.361 . S
Eu199 O202 2.328 . S
Eu199 O203 2.316 . S
Eu199 O206 2.488 . S
Eu199 C207 2.837 . S
Eu199 O210 2.461 . S
O200 Eu190 2.328 . S
O200 C220 1.251 . S
O201 Eu199 2.361 . S
O201 C204 1.255 1_545 S
O202 C191 1.251 . S
O202 Eu199 2.328 . S
O203 Eu199 2.316 . S
O203 C220 1.237 1_556 S
C204 O201 1.255 1_565 S
C204 O205 1.244 . S
O205 C204 1.244 . S
O206 Eu199 2.488 . S
O206 C207 1.271 . S
C207 C193 1.491 . S
C207 Eu199 2.837 . S
C207 O206 1.271 . S
C207 O210 1.261 . S
C208 O192 1.279 . S
C208 O209 1.244 . S
O209 C208 1.244 . S
O210 Eu199 2.461 . S
O210 C207 1.261 . S
O211 Eu190 2.316 1_556 S
O211 C191 1.237 . S
C212 Eu190 2.837 1_556 S
C212 O213 1.271 . S
C212 C214 1.491 . S
C212 O221 1.261 . S
O213 Eu190 2.488 1_556 S
O213 C212 1.271 . S
C214 C212 1.491 . S
C214 C216 1.383 . S
C214 C218 1.388 . S
C215 C217 1.403 . S
C215 C219 1.385 . S
C215 H225 0.931 . S
C216 C214 1.383 . S
C216 C217 1.393 . S
C216 H226 0.930 . S
C217 C215 1.403 . S
C217 C216 1.393 . S
C218 C214 1.388 . S
C218 C219 1.394 . S
C218 H227 0.930 . S
C219 C215 1.385 . S
C219 C218 1.394 . S
C220 O200 1.251 . S
C220 O203 1.237 1_554 S
O221 Eu190 2.461 1_556 S
O221 C212 1.261 . S
H222 C194 0.931 . S
H223 C195 0.930 . S
H224 C197 0.930 . S
H225 C215 0.931 . S
H226 C216 0.930 . S
H227 C218 0.930 . S
Eu228 O230 2.323 . S
Eu228 O238 2.328 . S
Eu228 O249 2.316 . S
Eu228 C250 2.837 . S
Eu228 O251 2.488 . S
Eu228 O259 2.461 . S
C229 O240 1.251 . S
C229 O249 1.237 . S
O230 Eu228 2.323 . S
O230 C246 1.279 1_655 S
C231 C233 1.383 . S
C231 C235 1.388 . S
C231 C245 1.491 . S
C232 C234 1.403 . S
C232 C236 1.385 . S
C232 H260 0.931 . S
C233 C231 1.383 . S
C233 C234 1.393 . S
C233 H261 0.930 . S
C234 C232 1.403 . S
C234 C233 1.393 . S
C235 C231 1.388 . S
C235 C236 1.394 . S
C235 H262 0.930 . S
C236 C232 1.385 . S
C236 C235 1.394 . S
Eu237 O239 2.361 1_455 S
Eu237 O240 2.328 1_455 S
Eu237 O241 2.316 1_455 S
Eu237 O244 2.488 . S
Eu237 C245 2.837 . S
Eu237 O248 2.461 . S
O238 Eu228 2.328 . S
O238 C258 1.251 . S
O239 Eu237 2.361 1_655 S
O239 C242 1.256 1_545 S
O240 C229 1.251 . S
O240 Eu237 2.328 1_655 S
O241 Eu237 2.316 1_655 S
O241 C258 1.237 . S
C242 O239 1.256 1_565 S
C242 O243 1.244 . S
O243 C242 1.244 . S
O244 Eu237 2.488 . S
O244 C245 1.271 . S
C245 C231 1.491 . S
C245 Eu237 2.837 . S
C245 O244 1.271 . S
C245 O248 1.261 . S
C246 O230 1.279 1_455 S
C246 O247 1.244 . S
O247 C246 1.244 . S
O248 Eu237 2.461 . S
O248 C245 1.261 . S
O249 Eu228 2.316 . S
O249 C229 1.237 . S
C250 Eu228 2.837 . S
C250 O251 1.271 . S
C250 C252 1.491 . S
C250 O259 1.261 . S
O251 Eu228 2.488 . S
O251 C250 1.271 . S
C252 C250 1.491 . S
C252 C254 1.383 . S
C252 C256 1.388 . S
C253 C255 1.403 . S
C253 C257 1.385 . S
C253 H263 0.931 . S
C254 C252 1.383 . S
C254 C255 1.393 . S
C254 H264 0.930 . S
C255 C253 1.403 . S
C255 C254 1.393 . S
C256 C252 1.388 . S
C256 C257 1.394 . S
C256 H265 0.930 . S
C257 C253 1.385 . S
C257 C256 1.394 . S
C258 O238 1.251 . S
C258 O241 1.237 . S
O259 Eu228 2.461 . S
O259 C250 1.261 . S
H260 C232 0.931 . S
H261 C233 0.930 . S
H262 C235 0.930 . S
H263 C253 0.931 . S
H264 C254 0.930 . S
H265 C256 0.930 . S
Eu266 O268 2.323 . S
Eu266 O276 2.328 . S
Eu266 O287 2.316 . S
Eu266 C288 2.837 . S
Eu266 O289 2.488 . S
Eu266 O297 2.461 . S
C267 O278 1.251 . S
C267 O287 1.237 . S
O268 Eu266 2.323 . S
O268 C284 1.279 . S
C269 C271 1.383 . S
C269 C273 1.388 . S
C269 C283 1.491 . S
C270 C272 1.403 . S
C270 C274 1.385 . S
C270 H298 0.931 . S
C271 C269 1.383 . S
C271 C272 1.393 . S
C271 H299 0.930 . S
C272 C270 1.403 . S
C272 C271 1.393 . S
C273 C269 1.388 . S
C273 C274 1.394 . S
C273 H300 0.930 . S
C274 C270 1.385 . S
C274 C273 1.394 . S
Eu275 O277 2.323 . S
Eu275 O278 2.328 . S
Eu275 O279 2.316 . S
Eu275 O282 2.488 . S
Eu275 C283 2.837 . S
Eu275 O286 2.461 . S
O276 Eu266 2.328 . S
O276 C296 1.251 . S
O277 Eu275 2.323 . S
O277 C280 1.279 . S
O278 C267 1.251 . S
O278 Eu275 2.328 . S
O279 Eu275 2.316 . S
O279 C296 1.237 . S
C280 O277 1.279 . S
C280 O281 1.244 . S
O281 C280 1.244 . S
O282 Eu275 2.488 . S
O282 C283 1.271 . S
C283 C269 1.491 . S
C283 Eu275 2.837 . S
C283 O282 1.271 . S
C283 O286 1.261 . S
C284 O268 1.279 . S
C284 O285 1.244 . S
O285 C284 1.244 . S
O286 Eu275 2.461 . S
O286 C283 1.261 . S
O287 Eu266 2.316 . S
O287 C267 1.237 . S
C288 Eu266 2.837 . S
C288 O289 1.271 . S
C288 C290 1.491 . S
C288 O297 1.261 . S
O289 Eu266 2.488 . S
O289 C288 1.271 . S
C290 C288 1.491 . S
C290 C292 1.383 . S
C290 C294 1.388 . S
C291 C293 1.403 . S
C291 C295 1.385 . S
C291 H301 0.931 . S
C292 C290 1.383 . S
C292 C293 1.393 . S
C292 H302 0.930 . S
C293 C291 1.403 . S
C293 C292 1.393 . S
C294 C290 1.388 . S
C294 C295 1.394 . S
C294 H303 0.930 . S
C295 C291 1.385 . S
C295 C294 1.394 . S
C296 O276 1.251 . S
C296 O279 1.237 . S
O297 Eu266 2.461 . S
O297 C288 1.261 . S
H298 C270 0.931 . S
H299 C271 0.930 . S
H300 C273 0.930 . S
H301 C291 0.931 . S
H302 C292 0.930 . S
H303 C294 0.930 . S
Eu304 O306 2.323 1_655 S
Eu304 O314 2.328 1_655 S
Eu304 O325 2.316 1_655 S
Eu304 C326 2.837 . S
Eu304 O327 2.488 . S
Eu304 O335 2.461 . S
C305 O316 1.251 . S
C305 O325 1.237 . S
O306 Eu304 2.323 1_455 S
O306 C322 1.279 . S
C307 C309 1.383 . S
C307 C311 1.388 . S
C307 C321 1.491 . S
C308 C310 1.403 . S
C308 C312 1.385 . S
C308 H336 0.931 . S
C309 C307 1.383 . S
C309 C310 1.393 . S
C309 H337 0.930 . S
C310 C308 1.403 . S
C310 C309 1.393 . S
C311 C307 1.388 . S
C311 C312 1.394 . S
C311 H338 0.930 . S
C312 C308 1.385 . S
C312 C311 1.394 . S
Eu313 O315 2.323 . S
Eu313 O316 2.328 . S
Eu313 O317 2.316 . S
Eu313 O320 2.488 . S
Eu313 C321 2.837 . S
Eu313 O324 2.461 . S
O314 Eu304 2.328 1_455 S
O314 C334 1.251 . S
O315 Eu313 2.323 . S
O315 C318 1.279 1_455 S
O316 C305 1.251 . S
O316 Eu313 2.328 . S
O317 Eu313 2.316 . S
O317 C334 1.237 . S
C318 O315 1.279 1_655 S
C318 O319 1.244 . S
O319 C318 1.244 . S
O320 Eu313 2.488 . S
O320 C321 1.271 . S
C321 C307 1.491 . S
C321 Eu313 2.837 . S
C321 O320 1.271 . S
C321 O324 1.261 . S
C322 O306 1.279 . S
C322 O323 1.244 . S
O323 C322 1.244 . S
O324 Eu313 2.461 . S
O324 C321 1.261 . S
O325 Eu304 2.316 1_455 S
O325 C305 1.237 . S
C326 Eu304 2.837 . S
C326 O327 1.271 . S
C326 C328 1.491 . S
C326 O335 1.261 . S
O327 Eu304 2.488 . S
O327 C326 1.271 . S
C328 C326 1.491 . S
C328 C330 1.383 . S
C328 C332 1.388 . S
C329 C331 1.403 . S
C329 C333 1.385 . S
C329 H339 0.931 . S
C330 C328 1.383 . S
C330 C331 1.393 . S
C330 H340 0.930 . S
C331 C329 1.403 . S
C331 C330 1.393 . S
C332 C328 1.388 . S
C332 C333 1.394 . S
C332 H341 0.930 . S
C333 C329 1.385 . S
C333 C332 1.394 . S
C334 O314 1.251 . S
C334 O317 1.237 . S
O335 Eu304 2.461 . S
O335 C326 1.261 . S
H336 C308 0.931 . S
H337 C309 0.930 . S
H338 C311 0.930 . S
H339 C329 0.931 . S
H340 C330 0.930 . S
H341 C332 0.930 . S
Eu342 O344 2.323 . S
Eu342 O352 2.328 . S
Eu342 O363 2.316 . S
Eu342 C364 2.837 . S
Eu342 O365 2.488 . S
Eu342 O373 2.461 . S
C343 O354 1.251 . S
C343 O363 1.237 . S
O344 Eu342 2.323 . S
O344 C360 1.279 . S
C345 C347 1.383 . S
C345 C349 1.388 . S
C345 C359 1.491 . S
C346 C348 1.403 . S
C346 C350 1.385 . S
C346 H374 0.931 . S
C347 C345 1.383 . S
C347 C348 1.393 . S
C347 H375 0.930 . S
C348 C346 1.403 . S
C348 C347 1.393 . S
C349 C345 1.388 . S
C349 C350 1.394 . S
C349 H376 0.930 . S
C350 C346 1.385 . S
C350 C349 1.394 . S
Eu351 O353 2.323 . S
Eu351 O354 2.328 . S
Eu351 O355 2.316 . S
Eu351 O358 2.488 . S
Eu351 C359 2.837 . S
Eu351 O362 2.461 . S
O352 Eu342 2.328 . S
O352 C372 1.251 . S
O353 Eu351 2.323 . S
O353 C356 1.279 . S
O354 C343 1.251 . S
O354 Eu351 2.328 . S
O355 Eu351 2.316 . S
O355 C372 1.237 . S
C356 O353 1.279 . S
C356 O357 1.244 . S
O357 C356 1.244 . S
O358 Eu351 2.488 . S
O358 C359 1.271 . S
C359 C345 1.491 . S
C359 Eu351 2.837 . S
C359 O358 1.271 . S
C359 O362 1.261 . S
C360 O344 1.279 . S
C360 O361 1.244 . S
O361 C360 1.244 . S
O362 Eu351 2.461 . S
O362 C359 1.261 . S
O363 Eu342 2.316 . S
O363 C343 1.237 . S
C364 Eu342 2.837 . S
C364 O365 1.271 . S
C364 C366 1.491 . S
C364 O373 1.261 . S
O365 Eu342 2.488 . S
O365 C364 1.271 . S
C366 C364 1.491 . S
C366 C368 1.383 . S
C366 C370 1.388 . S
C367 C369 1.403 . S
C367 C371 1.385 . S
C367 H377 0.931 . S
C368 C366 1.383 . S
C368 C369 1.393 . S
C368 H378 0.930 . S
C369 C367 1.403 . S
C369 C368 1.393 . S
C370 C366 1.388 . S
C370 C371 1.394 . S
C370 H379 0.930 . S
C371 C367 1.385 . S
C371 C370 1.394 . S
C372 O352 1.251 . S
C372 O355 1.237 . S
O373 Eu342 2.461 . S
O373 C364 1.261 . S
H374 C346 0.931 . S
H375 C347 0.930 . S
H376 C349 0.930 . S
H377 C367 0.931 . S
H378 C368 0.930 . S
H379 C370 0.930 . S
Eu380 O382 2.323 1_655 S
Eu380 O390 2.328 1_655 S
Eu380 O401 2.316 1_655 S
Eu380 C402 2.837 . S
Eu380 O403 2.488 . S
Eu380 O411 2.461 . S
C381 O392 1.251 . S
C381 O401 1.237 . S
O382 Eu380 2.323 1_455 S
O382 C398 1.279 . S
C383 C385 1.383 . S
C383 C387 1.388 . S
C383 C397 1.491 . S
C384 C386 1.403 . S
C384 C388 1.385 . S
C384 H412 0.931 . S
C385 C383 1.383 . S
C385 C386 1.393 . S
C385 H413 0.930 . S
C386 C384 1.403 . S
C386 C385 1.393 . S
C387 C383 1.388 . S
C387 C388 1.394 . S
C387 H414 0.930 . S
C388 C384 1.385 . S
C388 C387 1.394 . S
Eu389 O391 2.323 . S
Eu389 O392 2.328 . S
Eu389 O393 2.316 . S
Eu389 O396 2.488 . S
Eu389 C397 2.837 . S
Eu389 O400 2.461 . S
O390 Eu380 2.328 1_455 S
O390 C410 1.251 . S
O391 Eu389 2.323 . S
O391 C394 1.279 1_455 S
O392 C381 1.251 . S
O392 Eu389 2.328 . S
O393 Eu389 2.316 . S
O393 C410 1.237 . S
C394 O391 1.279 1_655 S
C394 O395 1.244 . S
O395 C394 1.244 . S
O396 Eu389 2.488 . S
O396 C397 1.271 . S
C397 C383 1.491 . S
C397 Eu389 2.837 . S
C397 O396 1.271 . S
C397 O400 1.261 . S
C398 O382 1.279 . S
C398 O399 1.244 . S
O399 C398 1.244 . S
O400 Eu389 2.461 . S
O400 C397 1.261 . S
O401 Eu380 2.316 1_455 S
O401 C381 1.237 . S
C402 Eu380 2.837 . S
C402 O403 1.271 . S
C402 C404 1.491 . S
C402 O411 1.261 . S
O403 Eu380 2.488 . S
O403 C402 1.271 . S
C404 C402 1.491 . S
C404 C406 1.383 . S
C404 C408 1.388 . S
C405 C407 1.403 . S
C405 C409 1.385 . S
C405 H415 0.931 . S
C406 C404 1.383 . S
C406 C407 1.393 . S
C406 H416 0.930 . S
C407 C405 1.403 . S
C407 C406 1.393 . S
C408 C404 1.388 . S
C408 C409 1.394 . S
C408 H417 0.930 . S
C409 C405 1.385 . S
C409 C408 1.394 . S
C410 O390 1.251 . S
C410 O393 1.237 . S
O411 Eu380 2.461 . S
O411 C402 1.261 . S
H412 C384 0.931 . S
H413 C385 0.930 . S
H414 C387 0.930 . S
H415 C405 0.931 . S
H416 C406 0.930 . S
H417 C408 0.930 . S
Eu418 O420 2.323 . S
Eu418 O428 2.328 . S
Eu418 O439 2.316 . S
Eu418 C440 2.837 . S
Eu418 O441 2.488 . S
Eu418 O449 2.461 . S
C419 O430 1.251 . S
C419 O439 1.237 . S
O420 Eu418 2.323 . S
O420 C436 1.279 . S
C421 C423 1.383 . S
C421 C425 1.388 . S
C421 C435 1.491 . S
C422 C424 1.403 . S
C422 C426 1.385 . S
C422 H450 0.931 . S
C423 C421 1.383 . S
C423 C424 1.393 . S
C423 H451 0.930 . S
C424 C422 1.403 . S
C424 C423 1.393 . S
C425 C421 1.388 . S
C425 C426 1.394 . S
C425 H452 0.930 . S
C426 C422 1.385 . S
C426 C425 1.394 . S
Eu427 O429 2.323 . S
Eu427 O430 2.328 . S
Eu427 O431 2.316 . S
Eu427 O434 2.488 . S
Eu427 C435 2.837 . S
Eu427 O438 2.461 . S
O428 Eu418 2.328 . S
O428 C448 1.251 . S
O429 Eu427 2.323 . S
O429 C432 1.279 . S
O430 C419 1.251 . S
O430 Eu427 2.328 . S
O431 Eu427 2.316 . S
O431 C448 1.237 . S
C432 O429 1.279 . S
C432 O433 1.244 . S
O433 C432 1.244 . S
O434 Eu427 2.488 . S
O434 C435 1.271 . S
C435 C421 1.491 . S
C435 Eu427 2.837 . S
C435 O434 1.271 . S
C435 O438 1.261 . S
C436 O420 1.279 . S
C436 O437 1.244 . S
O437 C436 1.244 . S
O438 Eu427 2.461 . S
O438 C435 1.261 . S
O439 Eu418 2.316 . S
O439 C419 1.237 . S
C440 Eu418 2.837 . S
C440 O441 1.271 . S
C440 C442 1.491 . S
C440 O449 1.261 . S
O441 Eu418 2.488 . S
O441 C440 1.271 . S
C442 C440 1.491 . S
C442 C444 1.383 . S
C442 C446 1.388 . S
C443 C445 1.403 . S
C443 C447 1.385 . S
C443 H453 0.931 . S
C444 C442 1.383 . S
C444 C445 1.393 . S
C444 H454 0.930 . S
C445 C443 1.403 . S
C445 C444 1.393 . S
C446 C442 1.388 . S
C446 C447 1.394 . S
C446 H455 0.930 . S
C447 C443 1.385 . S
C447 C446 1.394 . S
C448 O428 1.251 . S
C448 O431 1.237 . S
O449 Eu418 2.461 . S
O449 C440 1.261 . S
H450 C422 0.931 . S
H451 C423 0.930 . S
H452 C425 0.930 . S
H453 C443 0.931 . S
H454 C444 0.930 . S
H455 C446 0.930 . S
Eu456 O458 2.323 . S
Eu456 O466 2.328 . S
Eu456 O477 2.316 . S
Eu456 C478 2.837 . S
Eu456 O479 2.488 . S
Eu456 O487 2.461 . S
C457 O468 1.251 . S
C457 O477 1.237 . S
O458 Eu456 2.323 . S
O458 C474 1.279 1_655 S
C459 C461 1.383 . S
C459 C463 1.388 . S
C459 C473 1.491 . S
C460 C462 1.403 . S
C460 C464 1.385 . S
C460 H488 0.931 . S
C461 C459 1.383 . S
C461 C462 1.393 . S
C461 H489 0.930 . S
C462 C460 1.403 . S
C462 C461 1.393 . S
C463 C459 1.388 . S
C463 C464 1.394 . S
C463 H490 0.930 . S
C464 C460 1.385 . S
C464 C463 1.394 . S
Eu465 O467 2.323 1_455 S
Eu465 O468 2.328 1_455 S
Eu465 O469 2.316 1_455 S
Eu465 O472 2.488 . S
Eu465 C473 2.837 . S
Eu465 O476 2.461 . S
O466 Eu456 2.328 . S
O466 C486 1.251 . S
O467 Eu465 2.323 1_655 S
O467 C470 1.279 . S
O468 C457 1.251 . S
O468 Eu465 2.328 1_655 S
O469 Eu465 2.316 1_655 S
O469 C486 1.237 . S
C470 O467 1.279 . S
C470 O471 1.244 . S
O471 C470 1.244 . S
O472 Eu465 2.488 . S
O472 C473 1.271 . S
C473 C459 1.491 . S
C473 Eu465 2.837 . S
C473 O472 1.271 . S
C473 O476 1.261 . S
C474 O458 1.279 1_455 S
C474 O475 1.244 . S
O475 C474 1.244 . S
O476 Eu465 2.461 . S
O476 C473 1.261 . S
O477 Eu456 2.316 . S
O477 C457 1.237 . S
C478 Eu456 2.837 . S
C478 O479 1.271 . S
C478 C480 1.491 . S
C478 O487 1.261 . S
O479 Eu456 2.488 . S
O479 C478 1.271 . S
C480 C478 1.491 . S
C480 C482 1.383 . S
C480 C484 1.388 . S
C481 C483 1.403 . S
C481 C485 1.385 . S
C481 H491 0.931 . S
C482 C480 1.383 . S
C482 C483 1.393 . S
C482 H492 0.930 . S
C483 C481 1.403 . S
C483 C482 1.393 . S
C484 C480 1.388 . S
C484 C485 1.394 . S
C484 H493 0.930 . S
C485 C481 1.385 . S
C485 C484 1.394 . S
C486 O466 1.251 . S
C486 O469 1.237 . S
O487 Eu456 2.461 . S
O487 C478 1.261 . S
H488 C460 0.931 . S
H489 C461 0.930 . S
H490 C463 0.930 . S
H491 C481 0.931 . S
H492 C482 0.930 . S
H493 C484 0.930 . S
Eu494 O496 2.323 . S
Eu494 O504 2.328 . S
Eu494 O515 2.316 . S
Eu494 C516 2.837 . S
Eu494 O517 2.488 . S
Eu494 O525 2.461 . S
C495 O506 1.251 . S
C495 O515 1.237 . S
O496 Eu494 2.323 . S
O496 C512 1.279 . S
C497 C499 1.383 . S
C497 C501 1.388 . S
C497 C511 1.491 . S
C498 C500 1.403 . S
C498 C502 1.385 . S
C498 H526 0.931 . S
C499 C497 1.383 . S
C499 C500 1.393 . S
C499 H527 0.930 . S
C500 C498 1.403 . S
C500 C499 1.393 . S
C501 C497 1.388 . S
C501 C502 1.394 . S
C501 H528 0.930 . S
C502 C498 1.385 . S
C502 C501 1.394 . S
Eu503 O505 2.323 . S
Eu503 O506 2.328 . S
Eu503 O507 2.316 . S
Eu503 O510 2.488 . S
Eu503 C511 2.837 . S
Eu503 O514 2.461 . S
O504 Eu494 2.328 . S
O504 C524 1.251 . S
O505 Eu503 2.323 . S
O505 C508 1.279 . S
O506 C495 1.251 . S
O506 Eu503 2.328 . S
O507 Eu503 2.316 . S
O507 C524 1.237 . S
C508 O505 1.279 . S
C508 O509 1.244 . S
O509 C508 1.244 . S
O510 Eu503 2.488 . S
O510 C511 1.271 . S
C511 C497 1.491 . S
C511 Eu503 2.837 . S
C511 O510 1.271 . S
C511 O514 1.261 . S
C512 O496 1.279 . S
C512 O513 1.244 . S
O513 C512 1.244 . S
O514 Eu503 2.461 . S
O514 C511 1.261 . S
O515 Eu494 2.316 . S
O515 C495 1.237 . S
C516 Eu494 2.837 . S
C516 O517 1.271 . S
C516 C518 1.491 . S
C516 O525 1.261 . S
O517 Eu494 2.488 . S
O517 C516 1.271 . S
C518 C516 1.491 . S
C518 C520 1.383 . S
C518 C522 1.388 . S
C519 C521 1.403 . S
C519 C523 1.385 . S
C519 H529 0.931 . S
C520 C518 1.383 . S
C520 C521 1.393 . S
C520 H530 0.930 . S
C521 C519 1.403 . S
C521 C520 1.393 . S
C522 C518 1.388 . S
C522 C523 1.394 . S
C522 H531 0.930 . S
C523 C519 1.385 . S
C523 C522 1.394 . S
C524 O504 1.251 . S
C524 O507 1.237 . S
O525 Eu494 2.461 . S
O525 C516 1.261 . S
H526 C498 0.931 . S
H527 C499 0.930 . S
H528 C501 0.930 . S
H529 C519 0.931 . S
H530 C520 0.930 . S
H531 C522 0.930 . S
Eu532 O534 2.323 . S
Eu532 O542 2.328 . S
Eu532 O553 2.316 . S
Eu532 C554 2.837 . S
Eu532 O555 2.488 . S
Eu532 O563 2.461 . S
C533 O544 1.251 . S
C533 O553 1.237 . S
O534 Eu532 2.323 . S
O534 C550 1.279 1_655 S
C535 C537 1.383 . S
C535 C539 1.388 . S
C535 C549 1.491 . S
C536 C538 1.403 . S
C536 C540 1.385 . S
C536 H564 0.931 . S
C537 C535 1.383 . S
C537 C538 1.393 . S
C537 H565 0.930 . S
C538 C536 1.403 . S
C538 C537 1.393 . S
C539 C535 1.388 . S
C539 C540 1.394 . S
C539 H566 0.930 . S
C540 C536 1.385 . S
C540 C539 1.394 . S
Eu541 O543 2.323 1_455 S
Eu541 O544 2.328 1_455 S
Eu541 O545 2.316 1_455 S
Eu541 O548 2.488 . S
Eu541 C549 2.837 . S
Eu541 O552 2.461 . S
O542 Eu532 2.328 . S
O542 C562 1.251 . S
O543 Eu541 2.323 1_655 S
O543 C546 1.279 . S
O544 C533 1.251 . S
O544 Eu541 2.328 1_655 S
O545 Eu541 2.316 1_655 S
O545 C562 1.237 . S
C546 O543 1.279 . S
C546 O547 1.244 . S
O547 C546 1.244 . S
O548 Eu541 2.488 . S
O548 C549 1.271 . S
C549 C535 1.491 . S
C549 Eu541 2.837 . S
C549 O548 1.271 . S
C549 O552 1.261 . S
C550 O534 1.279 1_455 S
C550 O551 1.244 . S
O551 C550 1.244 . S
O552 Eu541 2.461 . S
O552 C549 1.261 . S
O553 Eu532 2.316 . S
O553 C533 1.237 . S
C554 Eu532 2.837 . S
C554 O555 1.271 . S
C554 C556 1.491 . S
C554 O563 1.261 . S
O555 Eu532 2.488 . S
O555 C554 1.271 . S
C556 C554 1.491 . S
C556 C558 1.383 . S
C556 C560 1.388 . S
C557 C559 1.403 . S
C557 C561 1.385 . S
C557 H567 0.931 . S
C558 C556 1.383 . S
C558 C559 1.393 . S
C558 H568 0.930 . S
C559 C557 1.403 . S
C559 C558 1.393 . S
C560 C556 1.388 . S
C560 C561 1.394 . S
C560 H569 0.930 . S
C561 C557 1.385 . S
C561 C560 1.394 . S
C562 O542 1.251 . S
C562 O545 1.237 . S
O563 Eu532 2.461 . S
O563 C554 1.261 . S
H564 C536 0.931 . S
H565 C537 0.930 . S
H566 C539 0.930 . S
H567 C557 0.931 . S
H568 C558 0.930 . S
H569 C560 0.930 . S
Eu570 O572 2.323 . S
Eu570 O580 2.328 . S
Eu570 O591 2.316 . S
Eu570 C592 2.837 . S
Eu570 O593 2.488 . S
Eu570 O601 2.461 . S
C571 O582 1.251 . S
C571 O591 1.237 . S
O572 Eu570 2.323 . S
O572 C588 1.279 . S
C573 C575 1.383 . S
C573 C577 1.388 . S
C573 C587 1.491 . S
C574 C576 1.403 . S
C574 C578 1.385 . S
C574 H602 0.931 . S
C575 C573 1.383 . S
C575 C576 1.393 . S
C575 H603 0.930 . S
C576 C574 1.403 . S
C576 C575 1.393 . S
C577 C573 1.388 . S
C577 C578 1.394 . S
C577 H604 0.930 . S
C578 C574 1.385 . S
C578 C577 1.394 . S
Eu579 O581 2.323 . S
Eu579 O582 2.328 . S
Eu579 O583 2.316 . S
Eu579 O586 2.488 . S
Eu579 C587 2.837 . S
Eu579 O590 2.461 . S
O580 Eu570 2.328 . S
O580 C600 1.251 . S
O581 Eu579 2.323 . S
O581 C584 1.279 . S
O582 C571 1.251 . S
O582 Eu579 2.328 . S
O583 Eu579 2.316 . S
O583 C600 1.237 . S
C584 O581 1.279 . S
C584 O585 1.244 . S
O585 C584 1.244 . S
O586 Eu579 2.488 . S
O586 C587 1.271 . S
C587 C573 1.491 . S
C587 Eu579 2.837 . S
C587 O586 1.271 . S
C587 O590 1.261 . S
C588 O572 1.279 . S
C588 O589 1.244 . S
O589 C588 1.244 . S
O590 Eu579 2.461 . S
O590 C587 1.261 . S
O591 Eu570 2.316 . S
O591 C571 1.237 . S
C592 Eu570 2.837 . S
C592 O593 1.271 . S
C592 C594 1.491 . S
C592 O601 1.261 . S
O593 Eu570 2.488 . S
O593 C592 1.271 . S
C594 C592 1.491 . S
C594 C596 1.383 . S
C594 C598 1.388 . S
C595 C597 1.403 . S
C595 C599 1.385 . S
C595 H605 0.931 . S
C596 C594 1.383 . S
C596 C597 1.393 . S
C596 H606 0.930 . S
C597 C595 1.403 . S
C597 C596 1.393 . S
C598 C594 1.388 . S
C598 C599 1.394 . S
C598 H607 0.930 . S
C599 C595 1.385 . S
C599 C598 1.394 . S
C600 O580 1.251 . S
C600 O583 1.237 . S
O601 Eu570 2.461 . S
O601 C592 1.261 . S
H602 C574 0.931 . S
H603 C575 0.930 . S
H604 C577 0.930 . S
H605 C595 0.931 . S
H606 C596 0.930 . S
H607 C598 0.930 . S
Eu608 O610 2.323 . S
Eu608 O618 2.328 . S
Eu608 O629 2.316 . S
Eu608 C630 2.837 . S
Eu608 O631 2.488 . S
Eu608 O639 2.461 . S
C609 O620 1.251 . S
C609 O629 1.237 . S
O610 Eu608 2.323 . S
O610 C626 1.279 . S
C611 C613 1.383 . S
C611 C615 1.388 . S
C611 C625 1.491 . S
C612 C614 1.403 . S
C612 C616 1.385 . S
C612 H640 0.931 . S
C613 C611 1.383 . S
C613 C614 1.393 . S
C613 H641 0.930 . S
C614 C612 1.403 . S
C614 C613 1.393 . S
C615 C611 1.388 . S
C615 C616 1.394 . S
C615 H642 0.930 . S
C616 C612 1.385 . S
C616 C615 1.394 . S
Eu617 O619 2.323 . S
Eu617 O620 2.328 . S
Eu617 O621 2.316 . S
Eu617 O624 2.488 . S
Eu617 C625 2.837 . S
Eu617 O628 2.461 . S
O618 Eu608 2.328 . S
O618 C638 1.251 . S
O619 Eu617 2.323 . S
O619 C622 1.279 . S
O620 C609 1.251 . S
O620 Eu617 2.328 . S
O621 Eu617 2.316 . S
O621 C638 1.237 . S
C622 O619 1.279 . S
C622 O623 1.244 . S
O623 C622 1.244 . S
O624 Eu617 2.488 . S
O624 C625 1.271 . S
C625 C611 1.491 . S
C625 Eu617 2.837 . S
C625 O624 1.271 . S
C625 O628 1.261 . S
C626 O610 1.279 . S
C626 O627 1.244 . S
O627 C626 1.244 . S
O628 Eu617 2.461 . S
O628 C625 1.261 . S
O629 Eu608 2.316 . S
O629 C609 1.237 . S
C630 Eu608 2.837 . S
C630 O631 1.271 . S
C630 C632 1.491 . S
C630 O639 1.261 . S
O631 Eu608 2.488 . S
O631 C630 1.271 . S
C632 C630 1.491 . S
C632 C634 1.383 . S
C632 C636 1.388 . S
C633 C635 1.403 . S
C633 C637 1.385 . S
C633 H643 0.931 . S
C634 C632 1.383 . S
C634 C635 1.393 . S
C634 H644 0.930 . S
C635 C633 1.403 . S
C635 C634 1.393 . S
C636 C632 1.388 . S
C636 C637 1.394 . S
C636 H645 0.930 . S
C637 C633 1.385 . S
C637 C636 1.394 . S
C638 O618 1.251 . S
C638 O621 1.237 . S
O639 Eu608 2.461 . S
O639 C630 1.261 . S
H640 C612 0.931 . S
H641 C613 0.930 . S
H642 C615 0.930 . S
H643 C633 0.931 . S
H644 C634 0.930 . S
H645 C636 0.930 . S
Eu646 O648 2.361 . S
Eu646 O656 2.328 . S
Eu646 O667 2.316 . S
Eu646 C668 2.837 . S
Eu646 O669 2.488 . S
Eu646 O677 2.461 . S
C647 O658 1.251 . S
C647 O667 1.237 . S
O648 Eu646 2.361 . S
O648 C664 1.255 1_565 S
C649 C651 1.383 . S
C649 C653 1.388 . S
C649 C663 1.491 . S
C650 C652 1.403 . S
C650 C654 1.385 . S
C650 H678 0.931 . S
C651 C649 1.383 . S
C651 C652 1.393 . S
C651 H679 0.930 . S
C652 C650 1.403 . S
C652 C651 1.393 . S
C653 C649 1.388 . S
C653 C654 1.394 . S
C653 H680 0.930 . S
C654 C650 1.385 . S
C654 C653 1.394 . S
Eu655 O657 2.323 . S
Eu655 O658 2.328 . S
Eu655 O659 2.316 . S
Eu655 O662 2.488 . S
Eu655 C663 2.837 . S
Eu655 O666 2.461 . S
O656 Eu646 2.328 . S
O656 C676 1.251 . S
O657 Eu655 2.323 . S
O657 C660 1.279 . S
O658 C647 1.251 . S
O658 Eu655 2.328 . S
O659 Eu655 2.316 . S
O659 C676 1.237 . S
C660 O657 1.279 . S
C660 O661 1.244 . S
O661 C660 1.244 . S
O662 Eu655 2.488 . S
O662 C663 1.271 . S
C663 C649 1.491 . S
C663 Eu655 2.837 . S
C663 O662 1.271 . S
C663 O666 1.261 . S
C664 O648 1.255 1_545 S
C664 O665 1.244 . S
O665 C664 1.244 . S
O666 Eu655 2.461 . S
O666 C663 1.261 . S
O667 Eu646 2.316 . S
O667 C647 1.237 . S
C668 Eu646 2.837 . S
C668 O669 1.271 . S
C668 C670 1.491 . S
C668 O677 1.261 . S
O669 Eu646 2.488 . S
O669 C668 1.271 . S
C670 C668 1.491 . S
C670 C672 1.383 . S
C670 C674 1.388 . S
C671 C673 1.403 . S
C671 C675 1.385 . S
C671 H681 0.931 . S
C672 C670 1.383 . S
C672 C673 1.393 . S
C672 H682 0.930 . S
C673 C671 1.403 . S
C673 C672 1.393 . S
C674 C670 1.388 . S
C674 C675 1.394 . S
C674 H683 0.930 . S
C675 C671 1.385 . S
C675 C674 1.394 . S
C676 O656 1.251 . S
C676 O659 1.237 . S
O677 Eu646 2.461 . S
O677 C668 1.261 . S
H678 C650 0.931 . S
H679 C651 0.930 . S
H680 C653 0.930 . S
H681 C671 0.931 . S
H682 C672 0.930 . S
H683 C674 0.930 . S
Eu684 O686 2.361 . S
Eu684 O694 2.328 . S
Eu684 O705 2.316 . S
Eu684 C706 2.837 . S
Eu684 O707 2.488 . S
Eu684 O715 2.461 . S
C685 O696 1.251 . S
C685 O705 1.237 . S
O686 Eu684 2.361 . S
O686 C702 1.255 1_565 S
C687 C689 1.383 . S
C687 C691 1.388 . S
C687 C701 1.491 . S
C688 C690 1.403 . S
C688 C692 1.385 . S
C688 H716 0.931 . S
C689 C687 1.383 . S
C689 C690 1.393 . S
C689 H717 0.930 . S
C690 C688 1.403 . S
C690 C689 1.393 . S
C691 C687 1.388 . S
C691 C692 1.394 . S
C691 H718 0.930 . S
C692 C688 1.385 . S
C692 C691 1.394 . S
Eu693 O695 2.323 . S
Eu693 O696 2.328 . S
Eu693 O697 2.316 . S
Eu693 O700 2.488 . S
Eu693 C701 2.837 . S
Eu693 O704 2.461 . S
O694 Eu684 2.328 . S
O694 C714 1.251 . S
O695 Eu693 2.323 . S
O695 C698 1.279 . S
O696 C685 1.251 . S
O696 Eu693 2.328 . S
O697 Eu693 2.316 . S
O697 C714 1.237 . S
C698 O695 1.279 . S
C698 O699 1.244 . S
O699 C698 1.244 . S
O700 Eu693 2.488 . S
O700 C701 1.271 . S
C701 C687 1.491 . S
C701 Eu693 2.837 . S
C701 O700 1.271 . S
C701 O704 1.261 . S
C702 O686 1.255 1_545 S
C702 O703 1.244 . S
O703 C702 1.244 . S
O704 Eu693 2.461 . S
O704 C701 1.261 . S
O705 Eu684 2.316 . S
O705 C685 1.237 . S
C706 Eu684 2.837 . S
C706 O707 1.271 . S
C706 C708 1.491 . S
C706 O715 1.261 . S
O707 Eu684 2.488 . S
O707 C706 1.271 . S
C708 C706 1.491 . S
C708 C710 1.383 . S
C708 C712 1.388 . S
C709 C711 1.403 . S
C709 C713 1.385 . S
C709 H719 0.931 . S
C710 C708 1.383 . S
C710 C711 1.393 . S
C710 H720 0.930 . S
C711 C709 1.403 . S
C711 C710 1.393 . S
C712 C708 1.388 . S
C712 C713 1.394 . S
C712 H721 0.930 . S
C713 C709 1.385 . S
C713 C712 1.394 . S
C714 O694 1.251 . S
C714 O697 1.237 . S
O715 Eu684 2.461 . S
O715 C706 1.261 . S
H716 C688 0.931 . S
H717 C689 0.930 . S
H718 C691 0.930 . S
H719 C709 0.931 . S
H720 C710 0.930 . S
H721 C712 0.930 . S
Eu722 O724 2.323 . S
Eu722 O732 2.328 . S
Eu722 O743 2.316 . S
Eu722 C744 2.837 . S
Eu722 O745 2.488 . S
Eu722 O753 2.461 . S
C723 O734 1.251 . S
C723 O743 1.237 . S
O724 Eu722 2.323 . S
O724 C740 1.279 . S
C725 C727 1.383 . S
C725 C729 1.388 . S
C725 C739 1.491 . S
C726 C728 1.403 . S
C726 C730 1.385 . S
C726 H754 0.931 . S
C727 C725 1.383 . S
C727 C728 1.393 . S
C727 H755 0.930 . S
C728 C726 1.403 . S
C728 C727 1.393 . S
C729 C725 1.388 . S
C729 C730 1.394 . S
C729 H756 0.930 . S
C730 C726 1.385 . S
C730 C729 1.394 . S
Eu731 O733 2.323 . S
Eu731 O734 2.328 . S
Eu731 O735 2.316 . S
Eu731 O738 2.488 . S
Eu731 C739 2.837 . S
Eu731 O742 2.461 . S
O732 Eu722 2.328 . S
O732 C752 1.251 . S
O733 Eu731 2.323 . S
O733 C736 1.279 . S
O734 C723 1.251 . S
O734 Eu731 2.328 . S
O735 Eu731 2.316 . S
O735 C752 1.237 . S
C736 O733 1.279 . S
C736 O737 1.244 . S
O737 C736 1.244 . S
O738 Eu731 2.488 . S
O738 C739 1.271 . S
C739 C725 1.491 . S
C739 Eu731 2.837 . S
C739 O738 1.271 . S
C739 O742 1.261 . S
C740 O724 1.279 . S
C740 O741 1.244 . S
O741 C740 1.244 . S
O742 Eu731 2.461 . S
O742 C739 1.261 . S
O743 Eu722 2.316 . S
O743 C723 1.237 . S
C744 Eu722 2.837 . S
C744 O745 1.271 . S
C744 C746 1.491 . S
C744 O753 1.261 . S
O745 Eu722 2.488 . S
O745 C744 1.271 . S
C746 C744 1.491 . S
C746 C748 1.383 . S
C746 C750 1.388 . S
C747 C749 1.403 . S
C747 C751 1.385 . S
C747 H757 0.931 . S
C748 C746 1.383 . S
C748 C749 1.393 . S
C748 H758 0.930 . S
C749 C747 1.403 . S
C749 C748 1.393 . S
C750 C746 1.388 . S
C750 C751 1.394 . S
C750 H759 0.930 . S
C751 C747 1.385 . S
C751 C750 1.394 . S
C752 O732 1.251 . S
C752 O735 1.237 . S
O753 Eu722 2.461 . S
O753 C744 1.261 . S
H754 C726 0.931 . S
H755 C727 0.930 . S
H756 C729 0.930 . S
H757 C747 0.931 . S
H758 C748 0.930 . S
H759 C750 0.930 . S
Eu760 O762 2.323 . S
Eu760 O770 2.328 . S
Eu760 O781 2.316 . S
Eu760 C782 2.837 . S
Eu760 O783 2.488 . S
Eu760 O791 2.461 . S
C761 O772 1.251 . S
C761 O781 1.237 . S
O762 Eu760 2.323 . S
O762 C778 1.279 . S
C763 C765 1.383 . S
C763 C767 1.388 . S
C763 C777 1.491 . S
C764 C766 1.403 . S
C764 C768 1.385 . S
C764 H792 0.931 . S
C765 C763 1.383 . S
C765 C766 1.393 . S
C765 H793 0.930 . S
C766 C764 1.403 . S
C766 C765 1.393 . S
C767 C763 1.388 . S
C767 C768 1.394 . S
C767 H794 0.930 . S
C768 C764 1.385 . S
C768 C767 1.394 . S
Eu769 O771 2.323 . S
Eu769 O772 2.328 . S
Eu769 O773 2.316 . S
Eu769 O776 2.488 . S
Eu769 C777 2.837 . S
Eu769 O780 2.461 . S
O770 Eu760 2.328 . S
O770 C790 1.251 . S
O771 Eu769 2.323 . S
O771 C774 1.279 . S
O772 C761 1.251 . S
O772 Eu769 2.328 . S
O773 Eu769 2.316 . S
O773 C790 1.237 . S
C774 O771 1.279 . S
C774 O775 1.244 . S
O775 C774 1.244 . S
O776 Eu769 2.488 . S
O776 C777 1.271 . S
C777 C763 1.491 . S
C777 Eu769 2.837 . S
C777 O776 1.271 . S
C777 O780 1.261 . S
C778 O762 1.279 . S
C778 O779 1.244 . S
O779 C778 1.244 . S
O780 Eu769 2.461 . S
O780 C777 1.261 . S
O781 Eu760 2.316 . S
O781 C761 1.237 . S
C782 Eu760 2.837 . S
C782 O783 1.271 . S
C782 C784 1.491 . S
C782 O791 1.261 . S
O783 Eu760 2.488 . S
O783 C782 1.271 . S
C784 C782 1.491 . S
C784 C786 1.383 . S
C784 C788 1.388 . S
C785 C787 1.403 . S
C785 C789 1.385 . S
C785 H795 0.931 . S
C786 C784 1.383 . S
C786 C787 1.393 . S
C786 H796 0.930 . S
C787 C785 1.403 . S
C787 C786 1.393 . S
C788 C784 1.388 . S
C788 C789 1.394 . S
C788 H797 0.930 . S
C789 C785 1.385 . S
C789 C788 1.394 . S
C790 O770 1.251 . S
C790 O773 1.237 . S
O791 Eu760 2.461 . S
O791 C782 1.261 . S
H792 C764 0.931 . S
H793 C765 0.930 . S
H794 C767 0.930 . S
H795 C785 0.931 . S
H796 C786 0.930 . S
H797 C788 0.930 . S
Eu798 O800 2.323 . S
Eu798 O808 2.328 . S
Eu798 O819 2.316 . S
Eu798 C820 2.837 . S
Eu798 O821 2.488 . S
Eu798 O829 2.461 . S
C799 O810 1.251 . S
C799 O819 1.237 . S
O800 Eu798 2.323 . S
O800 C816 1.279 . S
C801 C803 1.383 . S
C801 C805 1.388 . S
C801 C815 1.491 . S
C802 C804 1.403 . S
C802 C806 1.385 . S
C802 H830 0.931 . S
C803 C801 1.383 . S
C803 C804 1.393 . S
C803 H831 0.930 . S
C804 C802 1.403 . S
C804 C803 1.393 . S
C805 C801 1.388 . S
C805 C806 1.394 . S
C805 H832 0.930 . S
C806 C802 1.385 . S
C806 C805 1.394 . S
Eu807 O809 2.361 . S
Eu807 O810 2.328 . S
Eu807 O811 2.316 . S
Eu807 O814 2.488 . S
Eu807 C815 2.837 . S
Eu807 O818 2.461 . S
O808 Eu798 2.328 . S
O808 C828 1.251 . S
O809 Eu807 2.361 . S
O809 C812 1.255 1_545 S
O810 C799 1.251 . S
O810 Eu807 2.328 . S
O811 Eu807 2.316 . S
O811 C828 1.237 . S
C812 O809 1.255 1_565 S
C812 O813 1.244 . S
O813 C812 1.244 . S
O814 Eu807 2.488 . S
O814 C815 1.271 . S
C815 C801 1.491 . S
C815 Eu807 2.837 . S
C815 O814 1.271 . S
C815 O818 1.261 . S
C816 O800 1.279 . S
C816 O817 1.244 . S
O817 C816 1.244 . S
O818 Eu807 2.461 . S
O818 C815 1.261 . S
O819 Eu798 2.316 . S
O819 C799 1.237 . S
C820 Eu798 2.837 . S
C820 O821 1.271 . S
C820 C822 1.491 . S
C820 O829 1.261 . S
O821 Eu798 2.488 . S
O821 C820 1.271 . S
C822 C820 1.491 . S
C822 C824 1.383 . S
C822 C826 1.388 . S
C823 C825 1.403 . S
C823 C827 1.385 . S
C823 H833 0.931 . S
C824 C822 1.383 . S
C824 C825 1.393 . S
C824 H834 0.930 . S
C825 C823 1.403 . S
C825 C824 1.393 . S
C826 C822 1.388 . S
C826 C827 1.394 . S
C826 H835 0.930 . S
C827 C823 1.385 . S
C827 C826 1.394 . S
C828 O808 1.251 . S
C828 O811 1.237 . S
O829 Eu798 2.461 . S
O829 C820 1.261 . S
H830 C802 0.931 . S
H831 C803 0.930 . S
H832 C805 0.930 . S
H833 C823 0.931 . S
H834 C824 0.930 . S
H835 C826 0.930 . S
Eu836 O838 2.323 . S
Eu836 O846 2.328 . S
Eu836 O857 2.316 . S
Eu836 C858 2.837 . S
Eu836 O859 2.488 . S
Eu836 O867 2.461 . S
C837 O848 1.251 . S
C837 O857 1.237 . S
O838 Eu836 2.323 . S
O838 C854 1.279 . S
C839 C841 1.383 . S
C839 C843 1.388 . S
C839 C853 1.491 . S
C840 C842 1.403 . S
C840 C844 1.385 . S
C840 H868 0.931 . S
C841 C839 1.383 . S
C841 C842 1.393 . S
C841 H869 0.930 . S
C842 C840 1.403 . S
C842 C841 1.393 . S
C843 C839 1.388 . S
C843 C844 1.394 . S
C843 H870 0.930 . S
C844 C840 1.385 . S
C844 C843 1.394 . S
Eu845 O847 2.361 . S
Eu845 O848 2.328 . S
Eu845 O849 2.316 . S
Eu845 O852 2.488 . S
Eu845 C853 2.837 . S
Eu845 O856 2.461 . S
O846 Eu836 2.328 . S
O846 C866 1.251 . S
O847 Eu845 2.361 . S
O847 C850 1.255 1_545 S
O848 C837 1.251 . S
O848 Eu845 2.328 . S
O849 Eu845 2.316 . S
O849 C866 1.237 . S
C850 O847 1.255 1_565 S
C850 O851 1.244 . S
O851 C850 1.244 . S
O852 Eu845 2.488 . S
O852 C853 1.271 . S
C853 C839 1.491 . S
C853 Eu845 2.837 . S
C853 O852 1.271 . S
C853 O856 1.261 . S
C854 O838 1.279 . S
C854 O855 1.244 . S
O855 C854 1.244 . S
O856 Eu845 2.461 . S
O856 C853 1.261 . S
O857 Eu836 2.316 . S
O857 C837 1.237 . S
C858 Eu836 2.837 . S
C858 O859 1.271 . S
C858 C860 1.491 . S
C858 O867 1.261 . S
O859 Eu836 2.488 . S
O859 C858 1.271 . S
C860 C858 1.491 . S
C860 C862 1.383 . S
C860 C864 1.388 . S
C861 C863 1.403 . S
C861 C865 1.385 . S
C861 H871 0.931 . S
C862 C860 1.383 . S
C862 C863 1.393 . S
C862 H872 0.930 . S
C863 C861 1.403 . S
C863 C862 1.393 . S
C864 C860 1.388 . S
C864 C865 1.394 . S
C864 H873 0.930 . S
C865 C861 1.385 . S
C865 C864 1.394 . S
C866 O846 1.251 . S
C866 O849 1.237 . S
O867 Eu836 2.461 . S
O867 C858 1.261 . S
H868 C840 0.931 . S
H869 C841 0.930 . S
H870 C843 0.930 . S
H871 C861 0.931 . S
H872 C862 0.930 . S
H873 C864 0.930 . S
Eu874 O876 2.323 . S
Eu874 O884 2.328 . S
Eu874 O895 2.316 . S
Eu874 C896 2.837 . S
Eu874 O897 2.488 . S
Eu874 O905 2.461 . S
C875 O886 1.251 . S
C875 O895 1.237 . S
O876 Eu874 2.323 . S
O876 C892 1.279 . S
C877 C879 1.383 . S
C877 C881 1.388 . S
C877 C891 1.491 . S
C878 C880 1.403 . S
C878 C882 1.385 . S
C878 H906 0.931 . S
C879 C877 1.383 . S
C879 C880 1.393 . S
C879 H907 0.930 . S
C880 C878 1.403 . S
C880 C879 1.393 . S
C881 C877 1.388 . S
C881 C882 1.394 . S
C881 H908 0.930 . S
C882 C878 1.385 . S
C882 C881 1.394 . S
Eu883 O885 2.323 . S
Eu883 O886 2.328 . S
Eu883 O887 2.316 . S
Eu883 O890 2.488 . S
Eu883 C891 2.837 . S
Eu883 O894 2.461 . S
O884 Eu874 2.328 . S
O884 C904 1.251 . S
O885 Eu883 2.323 . S
O885 C888 1.279 . S
O886 C875 1.251 . S
O886 Eu883 2.328 . S
O887 Eu883 2.316 . S
O887 C904 1.237 . S
C888 O885 1.279 . S
C888 O889 1.244 . S
O889 C888 1.244 . S
O890 Eu883 2.488 . S
O890 C891 1.271 . S
C891 C877 1.491 . S
C891 Eu883 2.837 . S
C891 O890 1.271 . S
C891 O894 1.261 . S
C892 O876 1.279 . S
C892 O893 1.244 . S
O893 C892 1.244 . S
O894 Eu883 2.461 . S
O894 C891 1.261 . S
O895 Eu874 2.316 . S
O895 C875 1.237 . S
C896 Eu874 2.837 . S
C896 O897 1.271 . S
C896 C898 1.491 . S
C896 O905 1.261 . S
O897 Eu874 2.488 . S
O897 C896 1.271 . S
C898 C896 1.491 . S
C898 C900 1.383 . S
C898 C902 1.388 . S
C899 C901 1.403 . S
C899 C903 1.385 . S
C899 H909 0.931 . S
C900 C898 1.383 . S
C900 C901 1.393 . S
C900 H910 0.930 . S
C901 C899 1.403 . S
C901 C900 1.393 . S
C902 C898 1.388 . S
C902 C903 1.394 . S
C902 H911 0.930 . S
C903 C899 1.385 . S
C903 C902 1.394 . S
C904 O884 1.251 . S
C904 O887 1.237 . S
O905 Eu874 2.461 . S
O905 C896 1.261 . S
H906 C878 0.931 . S
H907 C879 0.930 . S
H908 C881 0.930 . S
H909 C899 0.931 . S
H910 C900 0.930 . S
H911 C902 0.930 . S
Eu912 O914 2.323 . S
Eu912 O922 2.328 . S
Eu912 O933 2.316 . S
Eu912 C934 2.837 . S
Eu912 O935 2.488 . S
Eu912 O943 2.461 . S
C913 O924 1.251 . S
C913 O933 1.237 1_556 S
O914 Eu912 2.323 . S
O914 C930 1.279 . S
C915 C917 1.383 . S
C915 C919 1.388 . S
C915 C929 1.491 . S
C916 C918 1.403 . S
C916 C920 1.385 . S
C916 H944 0.931 . S
C917 C915 1.383 . S
C917 C918 1.393 . S
C917 H945 0.930 . S
C918 C916 1.403 . S
C918 C917 1.393 . S
C919 C915 1.388 . S
C919 C920 1.394 . S
C919 H946 0.930 . S
C920 C916 1.385 . S
C920 C919 1.394 . S
Eu921 O923 2.323 . S
Eu921 O924 2.328 . S
Eu921 O925 2.316 1_556 S
Eu921 O928 2.488 1_556 S
Eu921 C929 2.837 1_556 S
Eu921 O932 2.461 1_556 S
O922 Eu912 2.328 . S
O922 C942 1.251 . S
O923 Eu921 2.323 . S
O923 C926 1.279 . S
O924 C913 1.251 . S
O924 Eu921 2.328 . S
O925 Eu921 2.316 1_554 S
O925 C942 1.237 . S
C926 O923 1.279 . S
C926 O927 1.244 . S
O927 C926 1.244 . S
O928 Eu921 2.488 1_554 S
O928 C929 1.271 . S
C929 C915 1.491 . S
C929 Eu921 2.837 1_554 S
C929 O928 1.271 . S
C929 O932 1.261 . S
C930 O914 1.279 . S
C930 O931 1.244 . S
O931 C930 1.244 . S
O932 Eu921 2.461 1_554 S
O932 C929 1.261 . S
O933 Eu912 2.316 . S
O933 C913 1.237 1_554 S
C934 Eu912 2.837 . S
C934 O935 1.271 . S
C934 C936 1.491 . S
C934 O943 1.261 . S
O935 Eu912 2.488 . S
O935 C934 1.271 . S
C936 C934 1.491 . S
C936 C938 1.383 . S
C936 C940 1.388 . S
C937 C939 1.403 . S
C937 C941 1.385 . S
C937 H947 0.931 . S
C938 C936 1.383 . S
C938 C939 1.393 . S
C938 H948 0.930 . S
C939 C937 1.403 . S
C939 C938 1.393 . S
C940 C936 1.388 . S
C940 C941 1.394 . S
C940 H949 0.930 . S
C941 C937 1.385 . S
C941 C940 1.394 . S
C942 O922 1.251 . S
C942 O925 1.237 . S
O943 Eu912 2.461 . S
O943 C934 1.261 . S
H944 C916 0.931 . S
H945 C917 0.930 . S
H946 C919 0.930 . S
H947 C937 0.931 . S
H948 C938 0.930 . S
H949 C940 0.930 . S
Eu950 O952 2.323 . S
Eu950 O960 2.328 . S
Eu950 O971 2.316 . S
Eu950 C972 2.837 . S
Eu950 O973 2.488 . S
Eu950 O981 2.461 . S
C951 O962 1.251 . S
C951 O971 1.237 1_556 S
O952 Eu950 2.323 . S
O952 C968 1.279 . S
C953 C955 1.383 . S
C953 C957 1.388 . S
C953 C967 1.491 . S
C954 C956 1.403 . S
C954 C958 1.385 . S
C954 H982 0.931 . S
C955 C953 1.383 . S
C955 C956 1.393 . S
C955 H983 0.930 . S
C956 C954 1.403 . S
C956 C955 1.393 . S
C957 C953 1.388 . S
C957 C958 1.394 . S
C957 H984 0.930 . S
C958 C954 1.385 . S
C958 C957 1.394 . S
Eu959 O961 2.323 . S
Eu959 O962 2.328 . S
Eu959 O963 2.316 1_556 S
Eu959 O966 2.488 1_556 S
Eu959 C967 2.837 1_556 S
Eu959 O970 2.461 1_556 S
O960 Eu950 2.328 . S
O960 C980 1.251 . S
O961 Eu959 2.323 . S
O961 C964 1.279 . S
O962 C951 1.251 . S
O962 Eu959 2.328 . S
O963 Eu959 2.316 1_554 S
O963 C980 1.237 . S
C964 O961 1.279 . S
C964 O965 1.244 . S
O965 C964 1.244 . S
O966 Eu959 2.488 1_554 S
O966 C967 1.271 . S
C967 C953 1.491 . S
C967 Eu959 2.837 1_554 S
C967 O966 1.271 . S
C967 O970 1.261 . S
C968 O952 1.279 . S
C968 O969 1.244 . S
O969 C968 1.244 . S
O970 Eu959 2.461 1_554 S
O970 C967 1.261 . S
O971 Eu950 2.316 . S
O971 C951 1.237 1_554 S
C972 Eu950 2.837 . S
C972 O973 1.271 . S
C972 C974 1.491 . S
C972 O981 1.261 . S
O973 Eu950 2.488 . S
O973 C972 1.271 . S
C974 C972 1.491 . S
C974 C976 1.383 . S
C974 C978 1.388 . S
C975 C977 1.403 . S
C975 C979 1.385 . S
C975 H985 0.931 . S
C976 C974 1.383 . S
C976 C977 1.393 . S
C976 H986 0.930 . S
C977 C975 1.403 . S
C977 C976 1.393 . S
C978 C974 1.388 . S
C978 C979 1.394 . S
C978 H987 0.930 . S
C979 C975 1.385 . S
C979 C978 1.394 . S
C980 O960 1.251 . S
C980 O963 1.237 . S
O981 Eu950 2.461 . S
O981 C972 1.261 . S
H982 C954 0.931 . S
H983 C955 0.930 . S
H984 C957 0.930 . S
H985 C975 0.931 . S
H986 C976 0.930 . S
H987 C978 0.930 . S
Eu988 O990 2.323 . S
Eu988 O998 2.328 . S
Eu988 O1009 2.316 . S
Eu988 C1010 2.837 . S
Eu988 O1011 2.488 . S
Eu988 O1019 2.461 . S
C989 O1000 1.251 . S
C989 O1009 1.237 . S
O990 Eu988 2.323 . S
O990 C1006 1.279 . S
C991 C993 1.383 . S
C991 C995 1.388 . S
C991 C1005 1.491 . S
C992 C994 1.403 . S
C992 C996 1.385 . S
C992 H1020 0.931 . S
C993 C991 1.383 . S
C993 C994 1.393 . S
C993 H1021 0.930 . S
C994 C992 1.403 . S
C994 C993 1.393 . S
C995 C991 1.388 . S
C995 C996 1.394 . S
C995 H1022 0.930 . S
C996 C992 1.385 . S
C996 C995 1.394 . S
Eu997 O999 2.323 . S
Eu997 O1000 2.328 . S
Eu997 O1001 2.316 . S
Eu997 O1004 2.488 . S
Eu997 C1005 2.837 . S
Eu997 O1008 2.461 . S
O998 Eu988 2.328 . S
O998 C1018 1.251 . S
O999 Eu997 2.323 . S
O999 C1002 1.279 . S
O1000 C989 1.251 . S
O1000 Eu997 2.328 . S
O1001 Eu997 2.316 . S
O1001 C1018 1.237 . S
C1002 O999 1.279 . S
C1002 O1003 1.244 . S
O1003 C1002 1.244 . S
O1004 Eu997 2.488 . S
O1004 C1005 1.271 . S
C1005 C991 1.491 . S
C1005 Eu997 2.837 . S
C1005 O1004 1.271 . S
C1005 O1008 1.261 . S
C1006 O990 1.279 . S
C1006 O1007 1.244 . S
O1007 C1006 1.244 . S
O1008 Eu997 2.461 . S
O1008 C1005 1.261 . S
O1009 Eu988 2.316 . S
O1009 C989 1.237 . S
C1010 Eu988 2.837 . S
C1010 O1011 1.271 . S
C1010 C1012 1.491 . S
C1010 O1019 1.261 . S
O1011 Eu988 2.488 . S
O1011 C1010 1.271 . S
C1012 C1010 1.491 . S
C1012 C1014 1.383 . S
C1012 C1016 1.388 . S
C1013 C1015 1.403 . S
C1013 C1017 1.385 . S
C1013 H1023 0.931 . S
C1014 C1012 1.383 . S
C1014 C1015 1.393 . S
C1014 H1024 0.930 . S
C1015 C1013 1.403 . S
C1015 C1014 1.393 . S
C1016 C1012 1.388 . S
C1016 C1017 1.394 . S
C1016 H1025 0.930 . S
C1017 C1013 1.385 . S
C1017 C1016 1.394 . S
C1018 O998 1.251 . S
C1018 O1001 1.237 . S
O1019 Eu988 2.461 . S
O1019 C1010 1.261 . S
H1020 C992 0.931 . S
H1021 C993 0.930 . S
H1022 C995 0.930 . S
H1023 C1013 0.931 . S
H1024 C1014 0.930 . S
H1025 C1016 0.930 . S
Eu1026 O1028 2.323 . S
Eu1026 O1036 2.328 . S
Eu1026 O1047 2.316 . S
Eu1026 C1048 2.837 . S
Eu1026 O1049 2.488 . S
Eu1026 O1057 2.461 . S
C1027 O1038 1.251 . S
C1027 O1047 1.237 . S
O1028 Eu1026 2.323 . S
O1028 C1044 1.279 . S
C1029 C1031 1.383 . S
C1029 C1033 1.388 . S
C1029 C1043 1.491 . S
C1030 C1032 1.403 . S
C1030 C1034 1.385 . S
C1030 H1058 0.931 . S
C1031 C1029 1.383 . S
C1031 C1032 1.393 . S
C1031 H1059 0.930 . S
C1032 C1030 1.403 . S
C1032 C1031 1.393 . S
C1033 C1029 1.388 . S
C1033 C1034 1.394 . S
C1033 H1060 0.930 . S
C1034 C1030 1.385 . S
C1034 C1033 1.394 . S
Eu1035 O1037 2.323 . S
Eu1035 O1038 2.328 . S
Eu1035 O1039 2.316 . S
Eu1035 O1042 2.488 . S
Eu1035 C1043 2.837 . S
Eu1035 O1046 2.461 . S
O1036 Eu1026 2.328 . S
O1036 C1056 1.251 . S
O1037 Eu1035 2.323 . S
O1037 C1040 1.279 . S
O1038 C1027 1.251 . S
O1038 Eu1035 2.328 . S
O1039 Eu1035 2.316 . S
O1039 C1056 1.237 . S
C1040 O1037 1.279 . S
C1040 O1041 1.244 . S
O1041 C1040 1.244 . S
O1042 Eu1035 2.488 . S
O1042 C1043 1.271 . S
C1043 C1029 1.491 . S
C1043 Eu1035 2.837 . S
C1043 O1042 1.271 . S
C1043 O1046 1.261 . S
C1044 O1028 1.279 . S
C1044 O1045 1.244 . S
O1045 C1044 1.244 . S
O1046 Eu1035 2.461 . S
O1046 C1043 1.261 . S
O1047 Eu1026 2.316 . S
O1047 C1027 1.237 . S
C1048 Eu1026 2.837 . S
C1048 O1049 1.271 . S
C1048 C1050 1.491 . S
C1048 O1057 1.261 . S
O1049 Eu1026 2.488 . S
O1049 C1048 1.271 . S
C1050 C1048 1.491 . S
C1050 C1052 1.383 . S
C1050 C1054 1.388 . S
C1051 C1053 1.403 . S
C1051 C1055 1.385 . S
C1051 H1061 0.931 . S
C1052 C1050 1.383 . S
C1052 C1053 1.393 . S
C1052 H1062 0.930 . S
C1053 C1051 1.403 . S
C1053 C1052 1.393 . S
C1054 C1050 1.388 . S
C1054 C1055 1.394 . S
C1054 H1063 0.930 . S
C1055 C1051 1.385 . S
C1055 C1054 1.394 . S
C1056 O1036 1.251 . S
C1056 O1039 1.237 . S
O1057 Eu1026 2.461 . S
O1057 C1048 1.261 . S
H1058 C1030 0.931 . S
H1059 C1031 0.930 . S
H1060 C1033 0.930 . S
H1061 C1051 0.931 . S
H1062 C1052 0.930 . S
H1063 C1054 0.930 . S
Eu1064 O1066 2.323 . S
Eu1064 O1074 2.328 . S
Eu1064 O1085 2.316 1_554 S
Eu1064 C1086 2.837 1_554 S
Eu1064 O1087 2.488 1_554 S
Eu1064 O1095 2.461 1_554 S
C1065 O1076 1.251 . S
C1065 O1085 1.237 . S
O1066 Eu1064 2.323 . S
O1066 C1082 1.279 . S
C1067 C1069 1.383 . S
C1067 C1071 1.388 . S
C1067 C1081 1.491 . S
C1068 C1070 1.403 . S
C1068 C1072 1.385 . S
C1068 H1096 0.931 . S
C1069 C1067 1.383 . S
C1069 C1070 1.393 . S
C1069 H1097 0.930 . S
C1070 C1068 1.403 . S
C1070 C1069 1.393 . S
C1071 C1067 1.388 . S
C1071 C1072 1.394 . S
C1071 H1098 0.930 . S
C1072 C1068 1.385 . S
C1072 C1071 1.394 . S
Eu1073 O1075 2.323 . S
Eu1073 O1076 2.328 . S
Eu1073 O1077 2.316 . S
Eu1073 O1080 2.488 . S
Eu1073 C1081 2.837 . S
Eu1073 O1084 2.461 . S
O1074 Eu1064 2.328 . S
O1074 C1094 1.251 . S
O1075 Eu1073 2.323 . S
O1075 C1078 1.279 . S
O1076 C1065 1.251 . S
O1076 Eu1073 2.328 . S
O1077 Eu1073 2.316 . S
O1077 C1094 1.237 1_556 S
C1078 O1075 1.279 . S
C1078 O1079 1.244 . S
O1079 C1078 1.244 . S
O1080 Eu1073 2.488 . S
O1080 C1081 1.271 . S
C1081 C1067 1.491 . S
C1081 Eu1073 2.837 . S
C1081 O1080 1.271 . S
C1081 O1084 1.261 . S
C1082 O1066 1.279 . S
C1082 O1083 1.244 . S
O1083 C1082 1.244 . S
O1084 Eu1073 2.461 . S
O1084 C1081 1.261 . S
O1085 Eu1064 2.316 1_556 S
O1085 C1065 1.237 . S
C1086 Eu1064 2.837 1_556 S
C1086 O1087 1.271 . S
C1086 C1088 1.491 . S
C1086 O1095 1.261 . S
O1087 Eu1064 2.488 1_556 S
O1087 C1086 1.271 . S
C1088 C1086 1.491 . S
C1088 C1090 1.383 . S
C1088 C1092 1.388 . S
C1089 C1091 1.403 . S
C1089 C1093 1.385 . S
C1089 H1099 0.931 . S
C1090 C1088 1.383 . S
C1090 C1091 1.393 . S
C1090 H1100 0.930 . S
C1091 C1089 1.403 . S
C1091 C1090 1.393 . S
C1092 C1088 1.388 . S
C1092 C1093 1.394 . S
C1092 H1101 0.930 . S
C1093 C1089 1.385 . S
C1093 C1092 1.394 . S
C1094 O1074 1.251 . S
C1094 O1077 1.237 1_554 S
O1095 Eu1064 2.461 1_556 S
O1095 C1086 1.261 . S
H1096 C1068 0.931 . S
H1097 C1069 0.930 . S
H1098 C1071 0.930 . S
H1099 C1089 0.931 . S
H1100 C1090 0.930 . S
H1101 C1092 0.930 . S
Eu1102 O1104 2.323 . S
Eu1102 O1112 2.328 . S
Eu1102 O1123 2.316 1_554 S
Eu1102 C1124 2.837 1_554 S
Eu1102 O1125 2.488 1_554 S
Eu1102 O1133 2.461 1_554 S
C1103 O1114 1.251 . S
C1103 O1123 1.237 . S
O1104 Eu1102 2.323 . S
O1104 C1120 1.279 . S
C1105 C1107 1.383 . S
C1105 C1109 1.388 . S
C1105 C1119 1.491 . S
C1106 C1108 1.403 . S
C1106 C1110 1.385 . S
C1106 H1134 0.931 . S
C1107 C1105 1.383 . S
C1107 C1108 1.393 . S
C1107 H1135 0.930 . S
C1108 C1106 1.403 . S
C1108 C1107 1.393 . S
C1109 C1105 1.388 . S
C1109 C1110 1.394 . S
C1109 H1136 0.930 . S
C1110 C1106 1.385 . S
C1110 C1109 1.394 . S
Eu1111 O1113 2.323 . S
Eu1111 O1114 2.328 . S
Eu1111 O1115 2.316 . S
Eu1111 O1118 2.488 . S
Eu1111 C1119 2.837 . S
Eu1111 O1122 2.461 . S
O1112 Eu1102 2.328 . S
O1112 C1132 1.251 . S
O1113 Eu1111 2.323 . S
O1113 C1116 1.279 . S
O1114 C1103 1.251 . S
O1114 Eu1111 2.328 . S
O1115 Eu1111 2.316 . S
O1115 C1132 1.237 1_556 S
C1116 O1113 1.279 . S
C1116 O1117 1.244 . S
O1117 C1116 1.244 . S
O1118 Eu1111 2.488 . S
O1118 C1119 1.271 . S
C1119 C1105 1.491 . S
C1119 Eu1111 2.837 . S
C1119 O1118 1.271 . S
C1119 O1122 1.261 . S
C1120 O1104 1.279 . S
C1120 O1121 1.244 . S
O1121 C1120 1.244 . S
O1122 Eu1111 2.461 . S
O1122 C1119 1.261 . S
O1123 Eu1102 2.316 1_556 S
O1123 C1103 1.237 . S
C1124 Eu1102 2.837 1_556 S
C1124 O1125 1.271 . S
C1124 C1126 1.491 . S
C1124 O1133 1.261 . S
O1125 Eu1102 2.488 1_556 S
O1125 C1124 1.271 . S
C1126 C1124 1.491 . S
C1126 C1128 1.383 . S
C1126 C1130 1.388 . S
C1127 C1129 1.403 . S
C1127 C1131 1.385 . S
C1127 H1137 0.931 . S
C1128 C1126 1.383 . S
C1128 C1129 1.393 . S
C1128 H1138 0.930 . S
C1129 C1127 1.403 . S
C1129 C1128 1.393 . S
C1130 C1126 1.388 . S
C1130 C1131 1.394 . S
C1130 H1139 0.930 . S
C1131 C1127 1.385 . S
C1131 C1130 1.394 . S
C1132 O1112 1.251 . S
C1132 O1115 1.237 1_554 S
O1133 Eu1102 2.461 1_556 S
O1133 C1124 1.261 . S
H1134 C1106 0.931 . S
H1135 C1107 0.930 . S
H1136 C1109 0.930 . S
H1137 C1127 0.931 . S
H1138 C1128 0.930 . S
H1139 C1130 0.930 . S
Eu1140 O1142 2.323 . S
Eu1140 O1150 2.328 . S
Eu1140 O1161 2.316 . S
Eu1140 C1162 2.837 . S
Eu1140 O1163 2.488 . S
Eu1140 O1171 2.461 . S
C1141 O1152 1.251 . S
C1141 O1161 1.237 . S
O1142 Eu1140 2.323 . S
O1142 C1158 1.279 . S
C1143 C1145 1.383 . S
C1143 C1147 1.388 . S
C1143 C1157 1.491 . S
C1144 C1146 1.403 . S
C1144 C1148 1.385 . S
C1144 H1172 0.931 . S
C1145 C1143 1.383 . S
C1145 C1146 1.393 . S
C1145 H1173 0.930 . S
C1146 C1144 1.403 . S
C1146 C1145 1.393 . S
C1147 C1143 1.388 . S
C1147 C1148 1.394 . S
C1147 H1174 0.930 . S
C1148 C1144 1.385 . S
C1148 C1147 1.394 . S
Eu1149 O1151 2.323 . S
Eu1149 O1152 2.328 . S
Eu1149 O1153 2.316 . S
Eu1149 O1156 2.488 . S
Eu1149 C1157 2.837 . S
Eu1149 O1160 2.461 . S
O1150 Eu1140 2.328 . S
O1150 C1170 1.251 . S
O1151 Eu1149 2.323 . S
O1151 C1154 1.279 . S
O1152 C1141 1.251 . S
O1152 Eu1149 2.328 . S
O1153 Eu1149 2.316 . S
O1153 C1170 1.237 . S
C1154 O1151 1.279 . S
C1154 O1155 1.244 . S
O1155 C1154 1.244 . S
O1156 Eu1149 2.488 . S
O1156 C1157 1.271 . S
C1157 C1143 1.491 . S
C1157 Eu1149 2.837 . S
C1157 O1156 1.271 . S
C1157 O1160 1.261 . S
C1158 O1142 1.279 . S
C1158 O1159 1.244 . S
O1159 C1158 1.244 . S
O1160 Eu1149 2.461 . S
O1160 C1157 1.261 . S
O1161 Eu1140 2.316 . S
O1161 C1141 1.237 . S
C1162 Eu1140 2.837 . S
C1162 O1163 1.271 . S
C1162 C1164 1.491 . S
C1162 O1171 1.261 . S
O1163 Eu1140 2.488 . S
O1163 C1162 1.271 . S
C1164 C1162 1.491 . S
C1164 C1166 1.383 . S
C1164 C1168 1.388 . S
C1165 C1167 1.403 . S
C1165 C1169 1.385 . S
C1165 H1175 0.931 . S
C1166 C1164 1.383 . S
C1166 C1167 1.393 . S
C1166 H1176 0.930 . S
C1167 C1165 1.403 . S
C1167 C1166 1.393 . S
C1168 C1164 1.388 . S
C1168 C1169 1.394 . S
C1168 H1177 0.930 . S
C1169 C1165 1.385 . S
C1169 C1168 1.394 . S
C1170 O1150 1.251 . S
C1170 O1153 1.237 . S
O1171 Eu1140 2.461 . S
O1171 C1162 1.261 . S
H1172 C1144 0.931 . S
H1173 C1145 0.930 . S
H1174 C1147 0.930 . S
H1175 C1165 0.931 . S
H1176 C1166 0.930 . S
H1177 C1168 0.930 . S
Eu1178 O1180 2.323 . S
Eu1178 O1188 2.328 . S
Eu1178 O1199 2.316 . S
Eu1178 C1200 2.837 . S
Eu1178 O1201 2.488 . S
Eu1178 O1209 2.461 . S
C1179 O1190 1.251 . S
C1179 O1199 1.237 . S
O1180 Eu1178 2.323 . S
O1180 C1196 1.279 . S
C1181 C1183 1.383 . S
C1181 C1185 1.388 . S
C1181 C1195 1.491 . S
C1182 C1184 1.403 . S
C1182 C1186 1.385 . S
C1182 H1210 0.931 . S
C1183 C1181 1.383 . S
C1183 C1184 1.393 . S
C1183 H1211 0.930 . S
C1184 C1182 1.403 . S
C1184 C1183 1.393 . S
C1185 C1181 1.388 . S
C1185 C1186 1.394 . S
C1185 H1212 0.930 . S
C1186 C1182 1.385 . S
C1186 C1185 1.394 . S
Eu1187 O1189 2.323 . S
Eu1187 O1190 2.328 . S
Eu1187 O1191 2.316 . S
Eu1187 O1194 2.488 . S
Eu1187 C1195 2.837 . S
Eu1187 O1198 2.461 . S
O1188 Eu1178 2.328 . S
O1188 C1208 1.251 . S
O1189 Eu1187 2.323 . S
O1189 C1192 1.279 . S
O1190 C1179 1.251 . S
O1190 Eu1187 2.328 . S
O1191 Eu1187 2.316 . S
O1191 C1208 1.237 . S
C1192 O1189 1.279 . S
C1192 O1193 1.244 . S
O1193 C1192 1.244 . S
O1194 Eu1187 2.488 . S
O1194 C1195 1.271 . S
C1195 C1181 1.491 . S
C1195 Eu1187 2.837 . S
C1195 O1194 1.271 . S
C1195 O1198 1.261 . S
C1196 O1180 1.279 . S
C1196 O1197 1.244 . S
O1197 C1196 1.244 . S
O1198 Eu1187 2.461 . S
O1198 C1195 1.261 . S
O1199 Eu1178 2.316 . S
O1199 C1179 1.237 . S
C1200 Eu1178 2.837 . S
C1200 O1201 1.271 . S
C1200 C1202 1.491 . S
C1200 O1209 1.261 . S
O1201 Eu1178 2.488 . S
O1201 C1200 1.271 . S
C1202 C1200 1.491 . S
C1202 C1204 1.383 . S
C1202 C1206 1.388 . S
C1203 C1205 1.403 . S
C1203 C1207 1.385 . S
C1203 H1213 0.931 . S
C1204 C1202 1.383 . S
C1204 C1205 1.393 . S
C1204 H1214 0.930 . S
C1205 C1203 1.403 . S
C1205 C1204 1.393 . S
C1206 C1202 1.388 . S
C1206 C1207 1.394 . S
C1206 H1215 0.930 . S
C1207 C1203 1.385 . S
C1207 C1206 1.394 . S
C1208 O1188 1.251 . S
C1208 O1191 1.237 . S
O1209 Eu1178 2.461 . S
O1209 C1200 1.261 . S
H1210 C1182 0.931 . S
H1211 C1183 0.930 . S
H1212 C1185 0.930 . S
H1213 C1203 0.931 . S
H1214 C1204 0.930 . S
H1215 C1206 0.930 . S
H1216 C1234 0.951 . S
H1217 C1236 0.951 . S
H1218 C1238 0.950 . S
H1219 C1239 0.950 . S
H1220 C1241 0.950 . S
H1221 C1244 0.950 . S
H1222 C1245 0.950 . S
H1223 C1247 0.950 . S
H1224 C1248 0.950 . S
H1225 C1249 0.951 . S
H1226 C1251 0.951 . S
H1227 C1253 0.950 . S
H1228 C1254 0.950 . S
H1229 C1256 0.950 . S
H1230 C1259 0.950 . S
H1231 C1260 0.950 . S
H1232 C1262 0.950 . S
H1233 C1263 0.950 . S
C1234 H1216 0.951 . S
C1234 C1235 1.366 . S
C1234 C1236 1.388 . S
C1235 C1234 1.366 . S
C1235 C1239 1.385 1_554 S
C1236 H1217 0.951 . S
C1236 C1234 1.388 . S
C1236 C1237 1.366 . S
C1237 C1236 1.366 . S
C1237 C1238 1.414 1_554 S
C1237 C1240 1.499 . S
C1238 H1218 0.950 . S
C1238 C1237 1.414 1_556 S
C1238 C1239 1.374 . S
C1239 H1219 0.950 . S
C1239 C1235 1.385 1_556 S
C1239 C1238 1.374 . S
C1240 C1237 1.499 . S
C1240 C1241 1.373 1_554 S
C1240 C1242 1.389 . S
C1241 H1220 0.950 . S
C1241 C1240 1.373 1_556 S
C1241 C1257 1.377 . S
C1242 C1240 1.389 . S
C1242 C1243 1.524 . S
C1242 C1256 1.377 . S
C1243 C1242 1.524 . S
C1243 C1244 1.397 . S
C1243 C1248 1.363 . S
C1244 H1221 0.950 . S
C1244 C1243 1.397 . S
C1244 C1245 1.334 . S
C1245 H1222 0.950 . S
C1245 C1244 1.334 . S
C1245 C1246 1.287 . S
C1246 C1245 1.287 . S
C1246 C1247 1.524 . S
C1246 H1265 0.913 . S
C1247 H1223 0.950 . S
C1247 C1246 1.524 . S
C1247 C1248 1.415 . S
C1248 H1224 0.950 . S
C1248 C1243 1.363 . S
C1248 C1247 1.415 . S
C1249 H1225 0.951 . S
C1249 C1250 1.366 1_556 S
C1249 C1251 1.388 . S
C1250 C1249 1.366 1_554 S
C1250 C1254 1.385 . S
C1251 H1226 0.951 . S
C1251 C1249 1.388 . S
C1251 C1252 1.366 1_556 S
C1252 C1251 1.366 1_554 S
C1252 C1253 1.414 . S
C1252 C1255 1.499 . S
C1253 H1227 0.950 . S
C1253 C1252 1.414 . S
C1253 C1254 1.374 . S
C1254 H1228 0.950 . S
C1254 C1250 1.385 . S
C1254 C1253 1.374 . S
C1255 C1252 1.499 . S
C1255 C1256 1.373 . S
C1255 C1257 1.389 1_554 S
C1256 H1229 0.950 . S
C1256 C1242 1.377 . S
C1256 C1255 1.373 . S
C1257 C1241 1.377 . S
C1257 C1255 1.389 1_556 S
C1257 C1258 1.524 . S
C1258 C1257 1.524 . S
C1258 C1259 1.397 . S
C1258 C1263 1.363 . S
C1259 H1230 0.950 . S
C1259 C1258 1.397 . S
C1259 C1260 1.334 . S
C1260 H1231 0.950 . S
C1260 C1259 1.334 . S
C1260 C1261 1.287 . S
C1261 C1260 1.287 . S
C1261 C1262 1.524 . S
C1261 H1264 0.999 . S
C1262 H1232 0.950 . S
C1262 C1261 1.524 . S
C1262 C1263 1.415 . S
C1263 H1233 0.950 . S
C1263 C1258 1.363 . S
C1263 C1262 1.415 . S
H1264 C1261 0.999 . S
H1265 C1246 0.913 . S
H1266 C1284 0.951 . S
H1267 C1286 0.951 . S
H1268 C1288 0.952 . S
H1269 C1289 0.951 . S
H1270 C1291 0.950 . S
H1271 C1294 0.950 . S
H1272 C1295 0.950 . S
H1273 C1297 0.950 . S
H1274 C1298 0.950 . S
H1275 C1299 0.951 . S
H1276 C1301 0.946 1_556 S
H1277 C1303 0.950 . S
H1278 C1304 0.950 . S
H1279 C1306 0.950 . S
H1280 C1309 0.950 . S
H1281 C1310 0.950 . S
H1282 C1312 0.950 . S
H1283 C1313 0.950 . S
C1284 H1266 0.951 . S
C1284 C1285 1.366 . S
C1284 C1286 1.388 . S
C1285 C1284 1.366 . S
C1285 C1289 1.385 . S
C1286 H1267 0.951 . S
C1286 C1284 1.388 . S
C1286 C1287 1.366 . S
C1287 C1286 1.366 . S
C1287 C1288 1.414 . S
C1287 C1290 1.499 . S
C1288 H1268 0.952 . S
C1288 C1287 1.414 . S
C1288 C1289 1.374 . S
C1289 H1269 0.951 . S
C1289 C1285 1.385 . S
C1289 C1288 1.374 . S
C1290 C1287 1.499 . S
C1290 C1291 1.373 1_554 S
C1290 C1292 1.389 . S
C1291 H1270 0.950 . S
C1291 C1290 1.373 1_556 S
C1291 C1307 1.377 . S
C1292 C1290 1.389 . S
C1292 C1293 1.524 . S
C1292 C1306 1.377 . S
C1293 C1292 1.524 . S
C1293 C1294 1.397 . S
C1293 C1298 1.363 . S
C1294 H1271 0.950 . S
C1294 C1293 1.397 . S
C1294 C1295 1.334 . S
C1295 H1272 0.950 . S
C1295 C1294 1.334 . S
C1295 C1296 1.287 . S
C1296 C1295 1.287 . S
C1296 C1297 1.524 . S
C1296 H1315 0.913 . S
C1297 H1273 0.950 . S
C1297 C1296 1.524 . S
C1297 C1298 1.415 . S
C1298 H1274 0.950 . S
C1298 C1293 1.363 . S
C1298 C1297 1.415 . S
C1299 H1275 0.951 . S
C1299 C1300 1.366 . S
C1299 C1301 1.390 . S
C1300 C1299 1.366 . S
C1300 C1304 1.385 . S
C1301 H1276 0.946 1_554 S
C1301 C1299 1.390 . S
C1301 C1302 1.370 . S
C1302 C1301 1.370 . S
C1302 C1303 1.414 . S
C1302 C1305 1.499 . S
C1303 H1277 0.950 . S
C1303 C1302 1.414 . S
C1303 C1304 1.374 . S
C1304 H1278 0.950 . S
C1304 C1300 1.385 . S
C1304 C1303 1.374 . S
C1305 C1302 1.499 . S
C1305 C1306 1.373 . S
C1305 C1307 1.389 1_554 S
C1306 H1279 0.950 . S
C1306 C1292 1.377 . S
C1306 C1305 1.373 . S
C1307 C1291 1.377 . S
C1307 C1305 1.389 1_556 S
C1307 C1308 1.524 . S
C1308 C1307 1.524 . S
C1308 C1309 1.397 . S
C1308 C1313 1.363 . S
C1309 H1280 0.950 . S
C1309 C1308 1.397 . S
C1309 C1310 1.334 . S
C1310 H1281 0.950 . S
C1310 C1309 1.334 . S
C1310 C1311 1.287 . S
C1311 C1310 1.287 . S
C1311 C1312 1.524 . S
C1311 H1314 0.999 . S
C1312 H1282 0.950 . S
C1312 C1311 1.524 . S
C1312 C1313 1.415 . S
C1313 H1283 0.950 . S
C1313 C1308 1.363 . S
C1313 C1312 1.415 . S
H1314 C1311 0.999 . S
H1315 C1296 0.913 . S
H1316 C1334 0.951 . S
H1317 C1336 0.951 . S
H1318 C1338 0.950 . S
H1319 C1339 0.950 . S
H1320 C1341 0.950 . S
H1321 C1344 0.950 . S
H1322 C1345 0.950 . S
H1323 C1347 0.950 . S
H1324 C1348 0.950 . S
H1325 C1349 0.951 . S
H1326 C1351 0.951 . S
H1327 C1353 0.950 . S
H1328 C1354 0.950 . S
H1329 C1356 0.950 . S
H1330 C1359 0.950 . S
H1331 C1360 0.950 . S
H1332 C1362 0.950 . S
H1333 C1363 0.950 . S
C1334 H1316 0.951 . S
C1334 C1335 1.366 . S
C1334 C1336 1.388 . S
C1335 C1334 1.366 . S
C1335 C1339 1.385 . S
C1336 H1317 0.951 . S
C1336 C1334 1.388 . S
C1336 C1337 1.366 . S
C1337 C1336 1.366 . S
C1337 C1338 1.414 . S
C1337 C1340 1.499 . S
C1338 H1318 0.950 . S
C1338 C1337 1.414 . S
C1338 C1339 1.374 . S
C1339 H1319 0.950 . S
C1339 C1335 1.385 . S
C1339 C1338 1.374 . S
C1340 C1337 1.499 . S
C1340 C1341 1.373 . S
C1340 C1342 1.389 . S
C1341 H1320 0.950 . S
C1341 C1340 1.373 . S
C1341 C1357 1.377 . S
C1342 C1340 1.389 . S
C1342 C1343 1.524 . S
C1342 C1356 1.377 . S
C1343 C1342 1.524 . S
C1343 C1344 1.397 . S
C1343 C1348 1.363 . S
C1344 H1321 0.950 . S
C1344 C1343 1.397 . S
C1344 C1345 1.334 . S
C1345 H1322 0.950 . S
C1345 C1344 1.334 . S
C1345 C1346 1.287 . S
C1346 C1345 1.287 . S
C1346 C1347 1.524 . S
C1346 H1365 0.913 . S
C1347 H1323 0.950 . S
C1347 C1346 1.524 . S
C1347 C1348 1.415 . S
C1348 H1324 0.950 . S
C1348 C1343 1.363 . S
C1348 C1347 1.415 . S
C1349 H1325 0.951 . S
C1349 C1350 1.366 . S
C1349 C1351 1.388 . S
C1350 C1349 1.366 . S
C1350 C1354 1.385 . S
C1351 H1326 0.951 . S
C1351 C1349 1.388 . S
C1351 C1352 1.366 . S
C1352 C1351 1.366 . S
C1352 C1353 1.414 . S
C1352 C1355 1.499 . S
C1353 H1327 0.950 . S
C1353 C1352 1.414 . S
C1353 C1354 1.374 . S
C1354 H1328 0.950 . S
C1354 C1350 1.385 . S
C1354 C1353 1.374 . S
C1355 C1352 1.499 . S
C1355 C1356 1.373 . S
C1355 C1357 1.389 . S
C1356 H1329 0.950 . S
C1356 C1342 1.377 . S
C1356 C1355 1.373 . S
C1357 C1341 1.377 . S
C1357 C1355 1.389 . S
C1357 C1358 1.524 . S
C1358 C1357 1.524 . S
C1358 C1359 1.397 . S
C1358 C1363 1.363 . S
C1359 H1330 0.950 . S
C1359 C1358 1.397 . S
C1359 C1360 1.334 . S
C1360 H1331 0.950 . S
C1360 C1359 1.334 . S
C1360 C1361 1.287 . S
C1361 C1360 1.287 . S
C1361 C1362 1.524 . S
C1361 H1364 0.999 . S
C1362 H1332 0.950 . S
C1362 C1361 1.524 . S
C1362 C1363 1.415 . S
C1363 H1333 0.950 . S
C1363 C1358 1.363 . S
C1363 C1362 1.415 . S
H1364 C1361 0.999 . S
H1365 C1346 0.913 . S
H1366 C1384 0.951 . S
H1367 C1386 0.951 . S
H1368 C1388 0.950 . S
H1369 C1389 0.950 . S
H1370 C1391 0.950 . S
H1371 C1394 0.950 . S
H1372 C1395 0.950 . S
H1373 C1397 0.950 . S
H1374 C1398 0.950 . S
H1375 C1399 0.951 . S
H1376 C1401 0.951 . S
H1377 C1403 0.950 . S
H1378 C1404 0.950 . S
H1379 C1406 0.950 . S
H1380 C1409 0.950 . S
H1381 C1410 0.950 . S
H1382 C1412 0.950 . S
H1383 C1413 0.950 . S
C1384 H1366 0.951 . S
C1384 C1385 1.366 . S
C1384 C1386 1.388 . S
C1385 C1384 1.366 . S
C1385 C1389 1.385 . S
C1386 H1367 0.951 . S
C1386 C1384 1.388 . S
C1386 C1387 1.366 . S
C1387 C1386 1.366 . S
C1387 C1388 1.414 . S
C1387 C1390 1.499 . S
C1388 H1368 0.950 . S
C1388 C1387 1.414 . S
C1388 C1389 1.374 . S
C1389 H1369 0.950 . S
C1389 C1385 1.385 . S
C1389 C1388 1.374 . S
C1390 C1387 1.499 . S
C1390 C1391 1.373 . S
C1390 C1392 1.389 . S
C1391 H1370 0.950 . S
C1391 C1390 1.373 . S
C1391 C1407 1.377 . S
C1392 C1390 1.389 . S
C1392 C1393 1.524 . S
C1392 C1406 1.377 . S
C1393 C1392 1.524 . S
C1393 C1394 1.397 . S
C1393 C1398 1.363 . S
C1394 H1371 0.950 . S
C1394 C1393 1.397 . S
C1394 C1395 1.334 . S
C1395 H1372 0.950 . S
C1395 C1394 1.334 . S
C1395 C1396 1.287 . S
C1396 C1395 1.287 . S
C1396 C1397 1.524 . S
C1396 H1415 0.913 . S
C1397 H1373 0.950 . S
C1397 C1396 1.524 . S
C1397 C1398 1.415 . S
C1398 H1374 0.950 . S
C1398 C1393 1.363 . S
C1398 C1397 1.415 . S
C1399 H1375 0.951 . S
C1399 C1400 1.366 . S
C1399 C1401 1.388 . S
C1400 C1399 1.366 . S
C1400 C1404 1.385 . S
C1401 H1376 0.951 . S
C1401 C1399 1.388 . S
C1401 C1402 1.366 . S
C1402 C1401 1.366 . S
C1402 C1403 1.414 . S
C1402 C1405 1.499 . S
C1403 H1377 0.950 . S
C1403 C1402 1.414 . S
C1403 C1404 1.374 . S
C1404 H1378 0.950 . S
C1404 C1400 1.385 . S
C1404 C1403 1.374 . S
C1405 C1402 1.499 . S
C1405 C1406 1.373 . S
C1405 C1407 1.389 . S
C1406 H1379 0.950 . S
C1406 C1392 1.377 . S
C1406 C1405 1.373 . S
C1407 C1391 1.377 . S
C1407 C1405 1.389 . S
C1407 C1408 1.524 . S
C1408 C1407 1.524 . S
C1408 C1409 1.397 . S
C1408 C1413 1.363 . S
C1409 H1380 0.950 . S
C1409 C1408 1.397 . S
C1409 C1410 1.334 . S
C1410 H1381 0.950 . S
C1410 C1409 1.334 . S
C1410 C1411 1.287 . S
C1411 C1410 1.287 . S
C1411 C1412 1.524 . S
C1411 H1414 0.999 . S
C1412 H1382 0.950 . S
C1412 C1411 1.524 . S
C1412 C1413 1.415 . S
C1413 H1383 0.950 . S
C1413 C1408 1.363 . S
C1413 C1412 1.415 . S
H1414 C1411 0.999 . S
H1415 C1396 0.913 . S
H1416 C1434 0.951 . S
H1417 C1436 0.951 . S
H1418 C1438 0.950 . S
H1419 C1439 0.950 . S
H1420 C1441 0.950 . S
H1421 C1444 0.950 . S
H1422 C1445 0.950 . S
H1423 C1447 0.950 . S
H1424 C1448 0.950 . S
H1425 C1449 0.951 . S
H1426 C1451 0.951 . S
H1427 C1453 0.950 . S
H1428 C1454 0.950 . S
H1429 C1456 0.950 . S
H1430 C1459 0.950 . S
H1431 C1460 0.950 . S
H1432 C1462 0.950 . S
H1433 C1463 0.952 1_556 S
C1434 H1416 0.951 . S
C1434 C1435 1.366 1_554 S
C1434 C1436 1.388 . S
C1435 C1434 1.366 1_556 S
C1435 C1439 1.385 . S
C1436 H1417 0.951 . S
C1436 C1434 1.388 . S
C1436 C1437 1.366 1_554 S
C1437 C1436 1.366 1_556 S
C1437 C1438 1.414 . S
C1437 C1440 1.499 . S
C1438 H1418 0.950 . S
C1438 C1437 1.414 . S
C1438 C1439 1.374 . S
C1439 H1419 0.950 . S
C1439 C1435 1.385 . S
C1439 C1438 1.374 . S
C1440 C1437 1.499 . S
C1440 C1441 1.373 1_556 S
C1440 C1442 1.389 . S
C1441 H1420 0.950 . S
C1441 C1440 1.373 1_554 S
C1441 C1457 1.377 . S
C1442 C1440 1.389 . S
C1442 C1443 1.524 . S
C1442 C1456 1.377 . S
C1443 C1442 1.524 . S
C1443 C1444 1.397 . S
C1443 C1448 1.363 . S
C1444 H1421 0.950 . S
C1444 C1443 1.397 . S
C1444 C1445 1.334 . S
C1445 H1422 0.950 . S
C1445 C1444 1.334 . S
C1445 C1446 1.287 . S
C1446 C1445 1.287 . S
C1446 C1447 1.524 . S
C1446 H1465 0.913 . S
C1447 H1423 0.950 . S
C1447 C1446 1.524 . S
C1447 C1448 1.415 . S
C1448 H1424 0.950 . S
C1448 C1443 1.363 . S
C1448 C1447 1.415 . S
C1449 H1425 0.951 . S
C1449 C1450 1.366 . S
C1449 C1451 1.388 . S
C1450 C1449 1.366 . S
C1450 C1454 1.385 1_556 S
C1451 H1426 0.951 . S
C1451 C1449 1.388 . S
C1451 C1452 1.366 . S
C1452 C1451 1.366 . S
C1452 C1453 1.414 1_556 S
C1452 C1455 1.499 . S
C1453 H1427 0.950 . S
C1453 C1452 1.414 1_554 S
C1453 C1454 1.374 . S
C1454 H1428 0.950 . S
C1454 C1450 1.385 1_554 S
C1454 C1453 1.374 . S
C1455 C1452 1.499 . S
C1455 C1456 1.373 . S
C1455 C1457 1.389 1_556 S
C1456 H1429 0.950 . S
C1456 C1442 1.377 . S
C1456 C1455 1.373 . S
C1457 C1441 1.377 . S
C1457 C1455 1.389 1_554 S
C1457 C1458 1.524 . S
C1458 C1457 1.524 . S
C1458 C1459 1.397 . S
C1458 C1463 1.363 . S
C1459 H1430 0.950 . S
C1459 C1458 1.397 . S
C1459 C1460 1.334 . S
C1460 H1431 0.950 . S
C1460 C1459 1.334 . S
C1460 C1461 1.287 . S
C1461 C1460 1.287 . S
C1461 C1462 1.524 . S
C1461 H1464 0.999 . S
C1462 H1432 0.950 . S
C1462 C1461 1.524 . S
C1462 C1463 1.415 . S
C1463 H1433 0.952 1_554 S
C1463 C1458 1.363 . S
C1463 C1462 1.415 . S
H1464 C1461 0.999 . S
H1465 C1446 0.913 . S
H1466 C1484 0.951 . S
H1467 C1486 0.951 . S
H1468 C1488 0.950 . S
H1469 C1489 0.950 . S
H1470 C1491 0.950 . S
H1471 C1494 0.950 . S
H1472 C1495 0.950 . S
H1473 C1497 0.950 . S
H1474 C1498 0.950 . S
H1475 C1499 0.951 . S
H1476 C1501 0.951 . S
H1477 C1503 0.950 . S
H1478 C1504 0.950 . S
H1479 C1506 0.950 . S
H1480 C1509 0.950 . S
H1481 C1510 0.950 . S
H1482 C1512 0.950 . S
H1483 C1513 0.950 . S
C1484 H1466 0.951 . S
C1484 C1485 1.366 . S
C1484 C1486 1.388 . S
C1485 C1484 1.366 . S
C1485 C1489 1.385 1_556 S
C1486 H1467 0.951 . S
C1486 C1484 1.388 . S
C1486 C1487 1.366 . S
C1487 C1486 1.366 . S
C1487 C1488 1.414 1_556 S
C1487 C1490 1.499 . S
C1488 H1468 0.950 . S
C1488 C1487 1.414 1_554 S
C1488 C1489 1.374 . S
C1489 H1469 0.950 . S
C1489 C1485 1.385 1_554 S
C1489 C1488 1.374 . S
C1490 C1487 1.499 . S
C1490 C1491 1.373 1_556 S
C1490 C1492 1.389 . S
C1491 H1470 0.950 . S
C1491 C1490 1.373 1_554 S
C1491 C1507 1.377 . S
C1492 C1490 1.389 . S
C1492 C1493 1.524 . S
C1492 C1506 1.377 . S
C1493 C1492 1.524 . S
C1493 C1494 1.397 . S
C1493 C1498 1.363 . S
C1494 H1471 0.950 . S
C1494 C1493 1.397 . S
C1494 C1495 1.334 . S
C1495 H1472 0.950 . S
C1495 C1494 1.334 . S
C1495 C1496 1.287 . S
C1496 C1495 1.287 . S
C1496 C1497 1.524 . S
C1496 H1515 0.913 . S
C1497 H1473 0.950 . S
C1497 C1496 1.524 . S
C1497 C1498 1.415 . S
C1498 H1474 0.950 . S
C1498 C1493 1.363 . S
C1498 C1497 1.415 . S
C1499 H1475 0.951 . S
C1499 C1500 1.366 1_554 S
C1499 C1501 1.388 . S
C1500 C1499 1.366 1_556 S
C1500 C1504 1.385 . S
C1501 H1476 0.951 . S
C1501 C1499 1.388 . S
C1501 C1502 1.366 1_554 S
C1502 C1501 1.366 1_556 S
C1502 C1503 1.414 . S
C1502 C1505 1.499 . S
C1503 H1477 0.950 . S
C1503 C1502 1.414 . S
C1503 C1504 1.374 . S
C1504 H1478 0.950 . S
C1504 C1500 1.385 . S
C1504 C1503 1.374 . S
C1505 C1502 1.499 . S
C1505 C1506 1.373 . S
C1505 C1507 1.389 1_556 S
C1506 H1479 0.950 . S
C1506 C1492 1.377 . S
C1506 C1505 1.373 . S
C1507 C1491 1.377 . S
C1507 C1505 1.389 1_554 S
C1507 C1508 1.524 . S
C1508 C1507 1.524 . S
C1508 C1509 1.397 . S
C1508 C1513 1.363 . S
C1509 H1480 0.950 . S
C1509 C1508 1.397 . S
C1509 C1510 1.334 . S
C1510 H1481 0.950 . S
C1510 C1509 1.334 . S
C1510 C1511 1.287 . S
C1511 C1510 1.287 . S
C1511 C1512 1.524 . S
C1511 H1514 0.999 . S
C1512 H1482 0.950 . S
C1512 C1511 1.524 . S
C1512 C1513 1.415 . S
C1513 H1483 0.950 . S
C1513 C1508 1.363 . S
C1513 C1512 1.415 . S
H1514 C1511 0.999 . S
H1515 C1496 0.913 . S
H1516 C1534 0.951 . S
H1517 C1536 0.951 . S
H1518 C1538 0.950 . S
H1519 C1539 0.950 . S
H1520 C1541 0.950 . S
H1521 C1544 0.950 . S
H1522 C1545 0.950 . S
H1523 C1547 0.950 . S
H1524 C1548 0.950 . S
H1525 C1549 0.951 . S
H1526 C1551 0.951 . S
H1527 C1553 0.950 . S
H1528 C1554 0.950 . S
H1529 C1556 0.950 . S
H1530 C1559 0.950 . S
H1531 C1560 0.950 . S
H1532 C1562 0.950 . S
H1533 C1563 0.950 . S
C1534 H1516 0.951 . S
C1534 C1535 1.366 . S
C1534 C1536 1.388 . S
C1535 C1534 1.366 . S
C1535 C1539 1.385 . S
C1536 H1517 0.951 . S
C1536 C1534 1.388 . S
C1536 C1537 1.366 . S
C1537 C1536 1.366 . S
C1537 C1538 1.414 . S
C1537 C1540 1.499 . S
C1538 H1518 0.950 . S
C1538 C1537 1.414 . S
C1538 C1539 1.374 . S
C1539 H1519 0.950 . S
C1539 C1535 1.385 . S
C1539 C1538 1.374 . S
C1540 C1537 1.499 . S
C1540 C1541 1.373 . S
C1540 C1542 1.389 . S
C1541 H1520 0.950 . S
C1541 C1540 1.373 . S
C1541 C1557 1.377 . S
C1542 C1540 1.389 . S
C1542 C1543 1.524 . S
C1542 C1556 1.377 . S
C1543 C1542 1.524 . S
C1543 C1544 1.397 . S
C1543 C1548 1.363 . S
C1544 H1521 0.950 . S
C1544 C1543 1.397 . S
C1544 C1545 1.334 . S
C1545 H1522 0.950 . S
C1545 C1544 1.334 . S
C1545 C1546 1.287 . S
C1546 C1545 1.287 . S
C1546 C1547 1.524 . S
C1546 H1565 0.913 . S
C1547 H1523 0.950 . S
C1547 C1546 1.524 . S
C1547 C1548 1.415 . S
C1548 H1524 0.950 . S
C1548 C1543 1.363 . S
C1548 C1547 1.415 . S
C1549 H1525 0.951 . S
C1549 C1550 1.366 . S
C1549 C1551 1.388 . S
C1550 C1549 1.366 . S
C1550 C1554 1.385 . S
C1551 H1526 0.951 . S
C1551 C1549 1.388 . S
C1551 C1552 1.366 . S
C1552 C1551 1.366 . S
C1552 C1553 1.414 . S
C1552 C1555 1.499 . S
C1553 H1527 0.950 . S
C1553 C1552 1.414 . S
C1553 C1554 1.374 . S
C1554 H1528 0.950 . S
C1554 C1550 1.385 . S
C1554 C1553 1.374 . S
C1555 C1552 1.499 . S
C1555 C1556 1.373 . S
C1555 C1557 1.389 . S
C1556 H1529 0.950 . S
C1556 C1542 1.377 . S
C1556 C1555 1.373 . S
C1557 C1541 1.377 . S
C1557 C1555 1.389 . S
C1557 C1558 1.524 . S
C1558 C1557 1.524 . S
C1558 C1559 1.397 . S
C1558 C1563 1.363 . S
C1559 H1530 0.950 . S
C1559 C1558 1.397 . S
C1559 C1560 1.334 . S
C1560 H1531 0.950 . S
C1560 C1559 1.334 . S
C1560 C1561 1.287 . S
C1561 C1560 1.287 . S
C1561 C1562 1.524 . S
C1561 H1564 0.999 . S
C1562 H1532 0.950 . S
C1562 C1561 1.524 . S
C1562 C1563 1.415 . S
C1563 H1533 0.950 . S
C1563 C1558 1.363 . S
C1563 C1562 1.415 . S
H1564 C1561 0.999 . S
H1565 C1546 0.913 . S
H1566 C1584 0.951 . S
H1567 C1586 0.951 . S
H1568 C1588 0.950 . S
H1569 C1589 0.950 . S
H1570 C1591 0.950 . S
H1571 C1594 0.950 . S
H1572 C1595 0.950 . S
H1573 C1597 0.950 . S
H1574 C1598 0.950 . S
H1575 C1599 0.951 . S
H1576 C1601 0.951 . S
H1577 C1603 0.950 . S
H1578 C1604 0.950 . S
H1579 C1606 0.950 . S
H1580 C1609 0.950 . S
H1581 C1610 0.950 . S
H1582 C1612 0.950 . S
H1583 C1613 0.950 . S
C1584 H1566 0.951 . S
C1584 C1585 1.366 . S
C1584 C1586 1.388 . S
C1585 C1584 1.366 . S
C1585 C1589 1.385 . S
C1586 H1567 0.951 . S
C1586 C1584 1.388 . S
C1586 C1587 1.366 . S
C1587 C1586 1.366 . S
C1587 C1588 1.414 . S
C1587 C1590 1.499 . S
C1588 H1568 0.950 . S
C1588 C1587 1.414 . S
C1588 C1589 1.374 . S
C1589 H1569 0.950 . S
C1589 C1585 1.385 . S
C1589 C1588 1.374 . S
C1590 C1587 1.499 . S
C1590 C1591 1.373 . S
C1590 C1592 1.389 . S
C1591 H1570 0.950 . S
C1591 C1590 1.373 . S
C1591 C1607 1.377 . S
C1592 C1590 1.389 . S
C1592 C1593 1.524 . S
C1592 C1606 1.377 . S
C1593 C1592 1.524 . S
C1593 C1594 1.397 . S
C1593 C1598 1.363 . S
C1594 H1571 0.950 . S
C1594 C1593 1.397 . S
C1594 C1595 1.334 . S
C1595 H1572 0.950 . S
C1595 C1594 1.334 . S
C1595 C1596 1.287 . S
C1596 C1595 1.287 . S
C1596 C1597 1.524 . S
C1596 H1615 0.913 . S
C1597 H1573 0.950 . S
C1597 C1596 1.524 . S
C1597 C1598 1.415 . S
C1598 H1574 0.950 . S
C1598 C1593 1.363 . S
C1598 C1597 1.415 . S
C1599 H1575 0.951 . S
C1599 C1600 1.366 . S
C1599 C1601 1.388 . S
C1600 C1599 1.366 . S
C1600 C1604 1.385 . S
C1601 H1576 0.951 . S
C1601 C1599 1.388 . S
C1601 C1602 1.366 . S
C1602 C1601 1.366 . S
C1602 C1603 1.414 . S
C1602 C1605 1.499 . S
C1603 H1577 0.950 . S
C1603 C1602 1.414 . S
C1603 C1604 1.374 . S
C1604 H1578 0.950 . S
C1604 C1600 1.385 . S
C1604 C1603 1.374 . S
C1605 C1602 1.499 . S
C1605 C1606 1.373 . S
C1605 C1607 1.389 . S
C1606 H1579 0.950 . S
C1606 C1592 1.377 . S
C1606 C1605 1.373 . S
C1607 C1591 1.377 . S
C1607 C1605 1.389 . S
C1607 C1608 1.524 . S
C1608 C1607 1.524 . S
C1608 C1609 1.397 . S
C1608 C1613 1.363 . S
C1609 H1580 0.950 . S
C1609 C1608 1.397 . S
C1609 C1610 1.334 . S
C1610 H1581 0.950 . S
C1610 C1609 1.334 . S
C1610 C1611 1.287 . S
C1611 C1610 1.287 . S
C1611 C1612 1.524 . S
C1611 H1614 0.999 . S
C1612 H1582 0.950 . S
C1612 C1611 1.524 . S
C1612 C1613 1.415 . S
C1613 H1583 0.950 . S
C1613 C1608 1.363 . S
C1613 C1612 1.415 . S
H1614 C1611 0.999 . S
H1615 C1596 0.913 . S
H1616 C1634 0.951 . S
H1617 C1636 0.951 . S
H1618 C1638 0.950 . S
H1619 C1639 0.950 . S
H1620 C1641 0.950 . S
H1621 C1644 0.950 . S
H1622 C1645 0.950 . S
H1623 C1647 0.950 . S
H1624 C1648 0.950 . S
H1625 C1649 0.951 . S
H1626 C1651 0.951 . S
H1627 C1653 0.950 . S
H1628 C1654 0.950 . S
H1629 C1656 0.950 . S
H1630 C1659 0.950 . S
H1631 C1660 0.950 . S
H1632 C1662 0.950 . S
H1633 C1663 0.950 . S
C1634 H1616 0.951 . S
C1634 C1635 1.366 . S
C1634 C1636 1.388 . S
C1635 C1634 1.366 . S
C1635 C1639 1.385 . S
C1636 H1617 0.951 . S
C1636 C1634 1.388 . S
C1636 C1637 1.366 . S
C1637 C1636 1.366 . S
C1637 C1638 1.414 . S
C1637 C1640 1.499 . S
C1638 H1618 0.950 . S
C1638 C1637 1.414 . S
C1638 C1639 1.374 . S
C1639 H1619 0.950 . S
C1639 C1635 1.385 . S
C1639 C1638 1.374 . S
C1640 C1637 1.499 . S
C1640 C1641 1.373 . S
C1640 C1642 1.389 . S
C1641 H1620 0.950 . S
C1641 C1640 1.373 . S
C1641 C1657 1.377 . S
C1642 C1640 1.389 . S
C1642 C1643 1.524 . S
C1642 C1656 1.377 . S
C1643 C1642 1.524 . S
C1643 C1644 1.397 . S
C1643 C1648 1.363 . S
C1644 H1621 0.950 . S
C1644 C1643 1.397 . S
C1644 C1645 1.334 . S
C1645 H1622 0.950 . S
C1645 C1644 1.334 . S
C1645 C1646 1.287 . S
C1646 C1645 1.287 . S
C1646 C1647 1.524 . S
C1646 H1665 0.913 . S
C1647 H1623 0.950 . S
C1647 C1646 1.524 . S
C1647 C1648 1.415 . S
C1648 H1624 0.950 . S
C1648 C1643 1.363 . S
C1648 C1647 1.415 . S
C1649 H1625 0.951 . S
C1649 C1650 1.366 . S
C1649 C1651 1.388 . S
C1650 C1649 1.366 . S
C1650 C1654 1.385 . S
C1651 H1626 0.951 . S
C1651 C1649 1.388 . S
C1651 C1652 1.366 . S
C1652 C1651 1.366 . S
C1652 C1653 1.414 . S
C1652 C1655 1.499 . S
C1653 H1627 0.950 . S
C1653 C1652 1.414 . S
C1653 C1654 1.374 . S
C1654 H1628 0.950 . S
C1654 C1650 1.385 . S
C1654 C1653 1.374 . S
C1655 C1652 1.499 . S
C1655 C1656 1.373 . S
C1655 C1657 1.389 . S
C1656 H1629 0.950 . S
C1656 C1642 1.377 . S
C1656 C1655 1.373 . S
C1657 C1641 1.377 . S
C1657 C1655 1.389 . S
C1657 C1658 1.524 . S
C1658 C1657 1.524 . S
C1658 C1659 1.397 . S
C1658 C1663 1.363 . S
C1659 H1630 0.950 . S
C1659 C1658 1.397 . S
C1659 C1660 1.334 . S
C1660 H1631 0.950 . S
C1660 C1659 1.334 . S
C1660 C1661 1.287 . S
C1661 C1660 1.287 . S
C1661 C1662 1.524 . S
C1661 H1664 0.999 . S
C1662 H1632 0.950 . S
C1662 C1661 1.524 . S
C1662 C1663 1.415 . S
C1663 H1633 0.950 . S
C1663 C1658 1.363 . S
C1663 C1662 1.415 . S
H1664 C1661 0.999 . S
H1665 C1646 0.913 . S
H1666 C1684 0.951 . S
H1667 C1686 0.951 . S
H1668 C1688 0.950 . S
H1669 C1689 0.950 . S
H1670 C1691 0.950 . S
H1671 C1694 0.950 . S
H1672 C1695 0.950 . S
H1673 C1697 0.950 . S
H1674 C1698 0.950 . S
H1675 C1699 0.951 . S
H1676 C1701 0.951 . S
H1677 C1703 0.950 . S
H1678 C1704 0.950 . S
H1679 C1706 0.950 . S
H1680 C1709 0.950 . S
H1681 C1710 0.950 . S
H1682 C1712 0.950 . S
H1683 C1713 0.950 . S
C1684 H1666 0.951 . S
C1684 C1685 1.366 . S
C1684 C1686 1.388 . S
C1685 C1684 1.366 . S
C1685 C1689 1.385 . S
C1686 H1667 0.951 . S
C1686 C1684 1.388 . S
C1686 C1687 1.366 . S
C1687 C1686 1.366 . S
C1687 C1688 1.414 . S
C1687 C1690 1.499 . S
C1688 H1668 0.950 . S
C1688 C1687 1.414 . S
C1688 C1689 1.374 . S
C1689 H1669 0.950 . S
C1689 C1685 1.385 . S
C1689 C1688 1.374 . S
C1690 C1687 1.499 . S
C1690 C1691 1.373 . S
C1690 C1692 1.389 . S
C1691 H1670 0.950 . S
C1691 C1690 1.373 . S
C1691 C1707 1.377 . S
C1692 C1690 1.389 . S
C1692 C1693 1.524 . S
C1692 C1706 1.377 . S
C1693 C1692 1.524 . S
C1693 C1694 1.397 . S
C1693 C1698 1.363 . S
C1694 H1671 0.950 . S
C1694 C1693 1.397 . S
C1694 C1695 1.334 . S
C1695 H1672 0.950 . S
C1695 C1694 1.334 . S
C1695 C1696 1.287 . S
C1696 C1695 1.287 . S
C1696 C1697 1.524 . S
C1696 H1715 0.913 . S
C1697 H1673 0.950 . S
C1697 C1696 1.524 . S
C1697 C1698 1.415 . S
C1698 H1674 0.950 . S
C1698 C1693 1.363 . S
C1698 C1697 1.415 . S
C1699 H1675 0.951 . S
C1699 C1700 1.366 . S
C1699 C1701 1.388 . S
C1700 C1699 1.366 . S
C1700 C1704 1.385 . S
C1701 H1676 0.951 . S
C1701 C1699 1.388 . S
C1701 C1702 1.366 . S
C1702 C1701 1.366 . S
C1702 C1703 1.414 . S
C1702 C1705 1.499 . S
C1703 H1677 0.950 . S
C1703 C1702 1.414 . S
C1703 C1704 1.374 . S
C1704 H1678 0.950 . S
C1704 C1700 1.385 . S
C1704 C1703 1.374 . S
C1705 C1702 1.499 . S
C1705 C1706 1.373 . S
C1705 C1707 1.389 . S
C1706 H1679 0.950 . S
C1706 C1692 1.377 . S
C1706 C1705 1.373 . S
C1707 C1691 1.377 . S
C1707 C1705 1.389 . S
C1707 C1708 1.524 . S
C1708 C1707 1.524 . S
C1708 C1709 1.397 . S
C1708 C1713 1.363 . S
C1709 H1680 0.950 . S
C1709 C1708 1.397 . S
C1709 C1710 1.334 . S
C1710 H1681 0.950 . S
C1710 C1709 1.334 . S
C1710 C1711 1.287 . S
C1711 C1710 1.287 . S
C1711 C1712 1.524 . S
C1711 H1714 0.999 . S
C1712 H1682 0.950 . S
C1712 C1711 1.524 . S
C1712 C1713 1.415 . S
C1713 H1683 0.950 . S
C1713 C1708 1.363 . S
C1713 C1712 1.415 . S
H1714 C1711 0.999 . S
H1715 C1696 0.913 . S
H1716 C1734 0.951 . S
H1717 C1736 0.951 . S
H1718 C1738 0.950 . S
H1719 C1739 0.950 . S
H1720 C1741 0.950 . S
H1721 C1744 0.950 . S
H1722 C1745 0.950 . S
H1723 C1747 0.950 . S
H1724 C1748 0.950 . S
H1725 C1749 0.951 . S
H1726 C1751 0.951 . S
H1727 C1753 0.950 . S
H1728 C1754 0.950 . S
H1729 C1756 0.950 . S
H1730 C1759 0.950 . S
H1731 C1760 0.950 . S
H1732 C1762 0.950 . S
H1733 C1763 0.950 . S
C1734 H1716 0.951 . S
C1734 C1735 1.366 . S
C1734 C1736 1.388 . S
C1735 C1734 1.366 . S
C1735 C1739 1.385 . S
C1736 H1717 0.951 . S
C1736 C1734 1.388 . S
C1736 C1737 1.366 . S
C1737 C1736 1.366 . S
C1737 C1738 1.414 . S
C1737 C1740 1.499 . S
C1738 H1718 0.950 . S
C1738 C1737 1.414 . S
C1738 C1739 1.374 . S
C1739 H1719 0.950 . S
C1739 C1735 1.385 . S
C1739 C1738 1.374 . S
C1740 C1737 1.499 . S
C1740 C1741 1.373 . S
C1740 C1742 1.389 . S
C1741 H1720 0.950 . S
C1741 C1740 1.373 . S
C1741 C1757 1.377 . S
C1742 C1740 1.389 . S
C1742 C1743 1.524 . S
C1742 C1756 1.377 . S
C1743 C1742 1.524 . S
C1743 C1744 1.397 . S
C1743 C1748 1.363 . S
C1744 H1721 0.950 . S
C1744 C1743 1.397 . S
C1744 C1745 1.334 . S
C1745 H1722 0.950 . S
C1745 C1744 1.334 . S
C1745 C1746 1.287 . S
C1746 C1745 1.287 . S
C1746 C1747 1.524 . S
C1746 H1765 0.913 . S
C1747 H1723 0.950 . S
C1747 C1746 1.524 . S
C1747 C1748 1.415 . S
C1748 H1724 0.950 . S
C1748 C1743 1.363 . S
C1748 C1747 1.415 . S
C1749 H1725 0.951 . S
C1749 C1750 1.366 . S
C1749 C1751 1.388 . S
C1750 C1749 1.366 . S
C1750 C1754 1.385 . S
C1751 H1726 0.951 . S
C1751 C1749 1.388 . S
C1751 C1752 1.366 . S
C1752 C1751 1.366 . S
C1752 C1753 1.414 . S
C1752 C1755 1.499 . S
C1753 H1727 0.950 . S
C1753 C1752 1.414 . S
C1753 C1754 1.374 . S
C1754 H1728 0.950 . S
C1754 C1750 1.385 . S
C1754 C1753 1.374 . S
C1755 C1752 1.499 . S
C1755 C1756 1.373 . S
C1755 C1757 1.389 . S
C1756 H1729 0.950 . S
C1756 C1742 1.377 . S
C1756 C1755 1.373 . S
C1757 C1741 1.377 . S
C1757 C1755 1.389 . S
C1757 C1758 1.524 . S
C1758 C1757 1.524 . S
C1758 C1759 1.397 . S
C1758 C1763 1.363 . S
C1759 H1730 0.950 . S
C1759 C1758 1.397 . S
C1759 C1760 1.334 . S
C1760 H1731 0.950 . S
C1760 C1759 1.334 . S
C1760 C1761 1.287 . S
C1761 C1760 1.287 . S
C1761 C1762 1.524 . S
C1761 H1764 0.999 . S
C1762 H1732 0.950 . S
C1762 C1761 1.524 . S
C1762 C1763 1.415 . S
C1763 H1733 0.950 . S
C1763 C1758 1.363 . S
C1763 C1762 1.415 . S
H1764 C1761 0.999 . S
H1765 C1746 0.913 . S
H1766 C1784 0.951 . S
H1767 C1786 0.951 . S
H1768 C1788 0.950 . S
H1769 C1789 0.950 . S
H1770 C1791 0.950 . S
H1771 C1794 0.950 . S
H1772 C1795 0.950 . S
H1773 C1797 0.950 . S
H1774 C1798 0.950 . S
H1775 C1799 0.951 . S
H1776 C1801 0.951 . S
H1777 C1803 0.950 . S
H1778 C1804 0.950 . S
H1779 C1806 0.950 . S
H1780 C1809 0.950 . S
H1781 C1810 0.950 . S
H1782 C1812 0.950 . S
H1783 C1813 0.950 . S
C1784 H1766 0.951 . S
C1784 C1785 1.366 . S
C1784 C1786 1.388 . S
C1785 C1784 1.366 . S
C1785 C1789 1.385 . S
C1786 H1767 0.951 . S
C1786 C1784 1.388 . S
C1786 C1787 1.366 . S
C1787 C1786 1.366 . S
C1787 C1788 1.414 . S
C1787 C1790 1.499 . S
C1788 H1768 0.950 . S
C1788 C1787 1.414 . S
C1788 C1789 1.374 . S
C1789 H1769 0.950 . S
C1789 C1785 1.385 . S
C1789 C1788 1.374 . S
C1790 C1787 1.499 . S
C1790 C1791 1.373 . S
C1790 C1792 1.389 . S
C1791 H1770 0.950 . S
C1791 C1790 1.373 . S
C1791 C1807 1.377 . S
C1792 C1790 1.389 . S
C1792 C1793 1.524 . S
C1792 C1806 1.377 . S
C1793 C1792 1.524 . S
C1793 C1794 1.397 . S
C1793 C1798 1.363 . S
C1794 H1771 0.950 . S
C1794 C1793 1.397 . S
C1794 C1795 1.334 . S
C1795 H1772 0.950 . S
C1795 C1794 1.334 . S
C1795 C1796 1.287 . S
C1796 C1795 1.287 . S
C1796 C1797 1.524 . S
C1796 H1815 0.913 . S
C1797 H1773 0.950 . S
C1797 C1796 1.524 . S
C1797 C1798 1.415 . S
C1798 H1774 0.950 . S
C1798 C1793 1.363 . S
C1798 C1797 1.415 . S
C1799 H1775 0.951 . S
C1799 C1800 1.366 . S
C1799 C1801 1.388 . S
C1800 C1799 1.366 . S
C1800 C1804 1.385 . S
C1801 H1776 0.951 . S
C1801 C1799 1.388 . S
C1801 C1802 1.366 . S
C1802 C1801 1.366 . S
C1802 C1803 1.414 . S
C1802 C1805 1.499 . S
C1803 H1777 0.950 . S
C1803 C1802 1.414 . S
C1803 C1804 1.374 . S
C1804 H1778 0.950 . S
C1804 C1800 1.385 . S
C1804 C1803 1.374 . S
C1805 C1802 1.499 . S
C1805 C1806 1.373 . S
C1805 C1807 1.389 . S
C1806 H1779 0.950 . S
C1806 C1792 1.377 . S
C1806 C1805 1.373 . S
C1807 C1791 1.377 . S
C1807 C1805 1.389 . S
C1807 C1808 1.524 . S
C1808 C1807 1.524 . S
C1808 C1809 1.397 . S
C1808 C1813 1.363 . S
C1809 H1780 0.950 . S
C1809 C1808 1.397 . S
C1809 C1810 1.334 . S
C1810 H1781 0.950 . S
C1810 C1809 1.334 . S
C1810 C1811 1.287 . S
C1811 C1810 1.287 . S
C1811 C1812 1.524 . S
C1811 H1814 0.999 . S
C1812 H1782 0.950 . S
C1812 C1811 1.524 . S
C1812 C1813 1.415 . S
C1813 H1783 0.950 . S
C1813 C1808 1.363 . S
C1813 C1812 1.415 . S
H1814 C1811 0.999 . S
H1815 C1796 0.913 . S
H1816 C1834 0.951 . S
H1817 C1836 0.951 . S
H1818 C1838 0.950 . S
H1819 C1839 0.950 . S
H1820 C1841 0.950 . S
H1821 C1844 0.950 . S
H1822 C1845 0.950 . S
H1823 C1847 0.950 . S
H1824 C1848 0.950 . S
H1825 C1849 0.951 . S
H1826 C1851 0.951 . S
H1827 C1853 0.950 . S
H1828 C1854 0.950 . S
H1829 C1856 0.950 . S
H1830 C1859 0.950 . S
H1831 C1860 0.950 . S
H1832 C1862 0.950 . S
H1833 C1863 0.950 . S
C1834 H1816 0.951 . S
C1834 C1835 1.366 . S
C1834 C1836 1.388 . S
C1835 C1834 1.366 . S
C1835 C1839 1.385 . S
C1836 H1817 0.951 . S
C1836 C1834 1.388 . S
C1836 C1837 1.366 . S
C1837 C1836 1.366 . S
C1837 C1838 1.414 . S
C1837 C1840 1.499 . S
C1838 H1818 0.950 . S
C1838 C1837 1.414 . S
C1838 C1839 1.374 . S
C1839 H1819 0.950 . S
C1839 C1835 1.385 . S
C1839 C1838 1.374 . S
C1840 C1837 1.499 . S
C1840 C1841 1.373 . S
C1840 C1842 1.389 . S
C1841 H1820 0.950 . S
C1841 C1840 1.373 . S
C1841 C1857 1.377 . S
C1842 C1840 1.389 . S
C1842 C1843 1.524 . S
C1842 C1856 1.377 . S
C1843 C1842 1.524 . S
C1843 C1844 1.397 . S
C1843 C1848 1.363 . S
C1844 H1821 0.950 . S
C1844 C1843 1.397 . S
C1844 C1845 1.334 . S
C1845 H1822 0.950 . S
C1845 C1844 1.334 . S
C1845 C1846 1.287 . S
C1846 C1845 1.287 . S
C1846 C1847 1.524 . S
C1846 H1865 0.913 . S
C1847 H1823 0.950 . S
C1847 C1846 1.524 . S
C1847 C1848 1.415 . S
C1848 H1824 0.950 . S
C1848 C1843 1.363 . S
C1848 C1847 1.415 . S
C1849 H1825 0.951 . S
C1849 C1850 1.366 . S
C1849 C1851 1.388 . S
C1850 C1849 1.366 . S
C1850 C1854 1.385 . S
C1851 H1826 0.951 . S
C1851 C1849 1.388 . S
C1851 C1852 1.366 . S
C1852 C1851 1.366 . S
C1852 C1853 1.414 . S
C1852 C1855 1.499 . S
C1853 H1827 0.950 . S
C1853 C1852 1.414 . S
C1853 C1854 1.374 . S
C1854 H1828 0.950 . S
C1854 C1850 1.385 . S
C1854 C1853 1.374 . S
C1855 C1852 1.499 . S
C1855 C1856 1.373 . S
C1855 C1857 1.389 . S
C1856 H1829 0.950 . S
C1856 C1842 1.377 . S
C1856 C1855 1.373 . S
C1857 C1841 1.377 . S
C1857 C1855 1.389 . S
C1857 C1858 1.524 . S
C1858 C1857 1.524 . S
C1858 C1859 1.397 . S
C1858 C1863 1.363 . S
C1859 H1830 0.950 . S
C1859 C1858 1.397 . S
C1859 C1860 1.334 . S
C1860 H1831 0.950 . S
C1860 C1859 1.334 . S
C1860 C1861 1.287 . S
C1861 C1860 1.287 . S
C1861 C1862 1.524 . S
C1861 H1864 0.999 . S
C1862 H1832 0.950 . S
C1862 C1861 1.524 . S
C1862 C1863 1.415 . S
C1863 H1833 0.950 . S
C1863 C1858 1.363 . S
C1863 C1862 1.415 . S
H1864 C1861 0.999 . S
H1865 C1846 0.913 . S
H1866 C1884 0.951 . S
H1867 C1886 0.951 . S
H1868 C1888 0.950 . S
H1869 C1889 0.950 . S
H1870 C1891 0.950 . S
H1871 C1894 0.950 . S
H1872 C1895 0.950 . S
H1873 C1897 0.950 . S
H1874 C1898 0.950 . S
H1875 C1899 0.951 . S
H1876 C1901 0.951 . S
H1877 C1903 0.950 . S
H1878 C1904 0.950 . S
H1879 C1906 0.950 . S
H1880 C1909 0.950 . S
H1881 C1910 0.950 . S
H1882 C1912 0.950 . S
H1883 C1913 0.950 . S
C1884 H1866 0.951 . S
C1884 C1885 1.366 . S
C1884 C1886 1.388 . S
C1885 C1884 1.366 . S
C1885 C1889 1.385 . S
C1886 H1867 0.951 . S
C1886 C1884 1.388 . S
C1886 C1887 1.366 . S
C1887 C1886 1.366 . S
C1887 C1888 1.414 . S
C1887 C1890 1.499 . S
C1888 H1868 0.950 . S
C1888 C1887 1.414 . S
C1888 C1889 1.374 . S
C1889 H1869 0.950 . S
C1889 C1885 1.385 . S
C1889 C1888 1.374 . S
C1890 C1887 1.499 . S
C1890 C1891 1.373 . S
C1890 C1892 1.389 . S
C1891 H1870 0.950 . S
C1891 C1890 1.373 . S
C1891 C1907 1.377 . S
C1892 C1890 1.389 . S
C1892 C1893 1.524 . S
C1892 C1906 1.377 . S
C1893 C1892 1.524 . S
C1893 C1894 1.397 . S
C1893 C1898 1.363 . S
C1894 H1871 0.950 . S
C1894 C1893 1.397 . S
C1894 C1895 1.334 . S
C1895 H1872 0.950 . S
C1895 C1894 1.334 . S
C1895 C1896 1.287 . S
C1896 C1895 1.287 . S
C1896 C1897 1.524 . S
C1896 H1915 0.913 . S
C1897 H1873 0.950 . S
C1897 C1896 1.524 . S
C1897 C1898 1.415 . S
C1898 H1874 0.950 . S
C1898 C1893 1.363 . S
C1898 C1897 1.415 . S
C1899 H1875 0.951 . S
C1899 C1900 1.366 . S
C1899 C1901 1.388 . S
C1900 C1899 1.366 . S
C1900 C1904 1.385 . S
C1901 H1876 0.951 . S
C1901 C1899 1.388 . S
C1901 C1902 1.366 . S
C1902 C1901 1.366 . S
C1902 C1903 1.414 . S
C1902 C1905 1.499 . S
C1903 H1877 0.950 . S
C1903 C1902 1.414 . S
C1903 C1904 1.374 . S
C1904 H1878 0.950 . S
C1904 C1900 1.385 . S
C1904 C1903 1.374 . S
C1905 C1902 1.499 . S
C1905 C1906 1.373 . S
C1905 C1907 1.389 . S
C1906 H1879 0.950 . S
C1906 C1892 1.377 . S
C1906 C1905 1.373 . S
C1907 C1891 1.377 . S
C1907 C1905 1.389 . S
C1907 C1908 1.524 . S
C1908 C1907 1.524 . S
C1908 C1909 1.397 . S
C1908 C1913 1.363 . S
C1909 H1880 0.950 . S
C1909 C1908 1.397 . S
C1909 C1910 1.334 . S
C1910 H1881 0.950 . S
C1910 C1909 1.334 . S
C1910 C1911 1.287 . S
C1911 C1910 1.287 . S
C1911 C1912 1.524 . S
C1911 H1914 0.999 . S
C1912 H1882 0.950 . S
C1912 C1911 1.524 . S
C1912 C1913 1.415 . S
C1913 H1883 0.950 . S
C1913 C1908 1.363 . S
C1913 C1912 1.415 . S
H1914 C1911 0.999 . S
H1915 C1896 0.913 . S
H1916 C1934 0.951 . S
H1917 C1936 0.951 . S
H1918 C1938 0.950 . S
H1919 C1939 0.950 . S
H1920 C1941 0.950 . S
H1921 C1944 0.950 . S
H1922 C1945 0.950 . S
H1923 C1947 0.950 . S
H1924 C1948 0.950 . S
H1925 C1949 0.951 . S
H1926 C1951 0.951 . S
H1927 C1953 0.950 . S
H1928 C1954 0.950 . S
H1929 C1956 0.950 . S
H1930 C1959 0.950 . S
H1931 C1960 0.950 . S
H1932 C1962 0.950 . S
H1933 C1963 0.950 . S
C1934 H1916 0.951 . S
C1934 C1935 1.366 . S
C1934 C1936 1.388 . S
C1935 C1934 1.366 . S
C1935 C1939 1.385 . S
C1936 H1917 0.951 . S
C1936 C1934 1.388 . S
C1936 C1937 1.366 . S
C1937 C1936 1.366 . S
C1937 C1938 1.414 . S
C1937 C1940 1.499 . S
C1938 H1918 0.950 . S
C1938 C1937 1.414 . S
C1938 C1939 1.374 . S
C1939 H1919 0.950 . S
C1939 C1935 1.385 . S
C1939 C1938 1.374 . S
C1940 C1937 1.499 . S
C1940 C1941 1.373 . S
C1940 C1942 1.389 . S
C1941 H1920 0.950 . S
C1941 C1940 1.373 . S
C1941 C1957 1.377 . S
C1942 C1940 1.389 . S
C1942 C1943 1.524 . S
C1942 C1956 1.377 . S
C1943 C1942 1.524 . S
C1943 C1944 1.397 . S
C1943 C1948 1.363 . S
C1944 H1921 0.950 . S
C1944 C1943 1.397 . S
C1944 C1945 1.334 . S
C1945 H1922 0.950 . S
C1945 C1944 1.334 . S
C1945 C1946 1.287 . S
C1946 C1945 1.287 . S
C1946 C1947 1.524 . S
C1946 H1965 0.913 . S
C1947 H1923 0.950 . S
C1947 C1946 1.524 . S
C1947 C1948 1.415 . S
C1948 H1924 0.950 . S
C1948 C1943 1.363 . S
C1948 C1947 1.415 . S
C1949 H1925 0.951 . S
C1949 C1950 1.366 . S
C1949 C1951 1.388 . S
C1950 C1949 1.366 . S
C1950 C1954 1.385 . S
C1951 H1926 0.951 . S
C1951 C1949 1.388 . S
C1951 C1952 1.366 . S
C1952 C1951 1.366 . S
C1952 C1953 1.414 . S
C1952 C1955 1.499 . S
C1953 H1927 0.950 . S
C1953 C1952 1.414 . S
C1953 C1954 1.374 . S
C1954 H1928 0.950 . S
C1954 C1950 1.385 . S
C1954 C1953 1.374 . S
C1955 C1952 1.499 . S
C1955 C1956 1.373 . S
C1955 C1957 1.389 . S
C1956 H1929 0.950 . S
C1956 C1942 1.377 . S
C1956 C1955 1.373 . S
C1957 C1941 1.377 . S
C1957 C1955 1.389 . S
C1957 C1958 1.524 . S
C1958 C1957 1.524 . S
C1958 C1959 1.397 . S
C1958 C1963 1.363 . S
C1959 H1930 0.950 . S
C1959 C1958 1.397 . S
C1959 C1960 1.334 . S
C1960 H1931 0.950 . S
C1960 C1959 1.334 . S
C1960 C1961 1.287 . S
C1961 C1960 1.287 . S
C1961 C1962 1.524 . S
C1961 H1964 0.999 . S
C1962 H1932 0.950 . S
C1962 C1961 1.524 . S
C1962 C1963 1.415 . S
C1963 H1933 0.950 . S
C1963 C1958 1.363 . S
C1963 C1962 1.415 . S
H1964 C1961 0.999 . S
H1965 C1946 0.913 . S
H1966 C1984 0.951 . S
H1967 C1986 0.951 . S
H1968 C1988 0.950 . S
H1969 C1989 0.950 . S
H1970 C1991 0.950 . S
H1971 C1994 0.950 . S
H1972 C1995 0.950 . S
H1973 C1997 0.950 . S
H1974 C1998 0.950 . S
H1975 C1999 0.951 . S
H1976 C2001 0.951 . S
H1977 C2003 0.950 . S
H1978 C2004 0.950 . S
H1979 C2006 0.950 . S
H1980 C2009 0.950 . S
H1981 C2010 0.950 . S
H1982 C2012 0.950 . S
H1983 C2013 0.950 . S
C1984 H1966 0.951 . S
C1984 C1985 1.366 . S
C1984 C1986 1.388 . S
C1985 C1984 1.366 . S
C1985 C1989 1.385 . S
C1986 H1967 0.951 . S
C1986 C1984 1.388 . S
C1986 C1987 1.366 . S
C1987 C1986 1.366 . S
C1987 C1988 1.414 . S
C1987 C1990 1.499 . S
C1988 H1968 0.950 . S
C1988 C1987 1.414 . S
C1988 C1989 1.374 . S
C1989 H1969 0.950 . S
C1989 C1985 1.385 . S
C1989 C1988 1.374 . S
C1990 C1987 1.499 . S
C1990 C1991 1.373 . S
C1990 C1992 1.389 . S
C1991 H1970 0.950 . S
C1991 C1990 1.373 . S
C1991 C2007 1.377 . S
C1992 C1990 1.389 . S
C1992 C1993 1.524 . S
C1992 C2006 1.377 . S
C1993 C1992 1.524 . S
C1993 C1994 1.397 . S
C1993 C1998 1.363 . S
C1994 H1971 0.950 . S
C1994 C1993 1.397 . S
C1994 C1995 1.334 . S
C1995 H1972 0.950 . S
C1995 C1994 1.334 . S
C1995 C1996 1.287 . S
C1996 C1995 1.287 . S
C1996 C1997 1.524 . S
C1996 H2015 0.913 . S
C1997 H1973 0.950 . S
C1997 C1996 1.524 . S
C1997 C1998 1.415 . S
C1998 H1974 0.950 . S
C1998 C1993 1.363 . S
C1998 C1997 1.415 . S
C1999 H1975 0.951 . S
C1999 C2000 1.366 . S
C1999 C2001 1.388 . S
C2000 C1999 1.366 . S
C2000 C2004 1.385 . S
C2001 H1976 0.951 . S
C2001 C1999 1.388 . S
C2001 C2002 1.366 . S
C2002 C2001 1.366 . S
C2002 C2003 1.414 . S
C2002 C2005 1.499 . S
C2003 H1977 0.950 . S
C2003 C2002 1.414 . S
C2003 C2004 1.374 . S
C2004 H1978 0.950 . S
C2004 C2000 1.385 . S
C2004 C2003 1.374 . S
C2005 C2002 1.499 . S
C2005 C2006 1.373 . S
C2005 C2007 1.389 . S
C2006 H1979 0.950 . S
C2006 C1992 1.377 . S
C2006 C2005 1.373 . S
C2007 C1991 1.377 . S
C2007 C2005 1.389 . S
C2007 C2008 1.524 . S
C2008 C2007 1.524 . S
C2008 C2009 1.397 . S
C2008 C2013 1.363 . S
C2009 H1980 0.950 . S
C2009 C2008 1.397 . S
C2009 C2010 1.334 . S
C2010 H1981 0.950 . S
C2010 C2009 1.334 . S
C2010 C2011 1.287 . S
C2011 C2010 1.287 . S
C2011 C2012 1.524 . S
C2011 H2014 0.999 . S
C2012 H1982 0.950 . S
C2012 C2011 1.524 . S
C2012 C2013 1.415 . S
C2013 H1983 0.950 . S
C2013 C2008 1.363 . S
C2013 C2012 1.415 . S
H2014 C2011 0.999 . S
H2015 C1996 0.913 . S
H2016 C2034 0.951 . S
H2017 C2036 0.951 . S
H2018 C2038 0.950 . S
H2019 C2039 0.956 . S
H2020 C2041 0.950 . S
H2021 C2044 0.950 . S
H2022 C2045 0.950 . S
H2023 C2047 0.950 . S
H2024 C2048 0.950 . S
H2025 C2049 0.951 . S
H2026 C2051 0.951 . S
H2027 C2053 0.950 . S
H2028 C2054 0.950 . S
H2029 C2056 0.950 . S
H2030 C2059 0.950 . S
H2031 C2060 0.950 . S
H2032 C2062 0.950 . S
H2033 C2063 0.950 . S
C2034 H2016 0.951 . S
C2034 C2035 1.366 . S
C2034 C2036 1.388 . S
C2035 C2034 1.366 . S
C2035 C2039 1.371 1_556 S
C2036 H2017 0.951 . S
C2036 C2034 1.388 . S
C2036 C2037 1.366 1_556 S
C2037 C2036 1.366 1_554 S
C2037 C2038 1.414 . S
C2037 C2040 1.499 . S
C2038 H2018 0.950 . S
C2038 C2037 1.414 . S
C2038 C2039 1.382 . S
C2039 H2019 0.956 . S
C2039 C2035 1.371 1_554 S
C2039 C2038 1.382 . S
C2040 C2037 1.499 . S
C2040 C2041 1.373 . S
C2040 C2042 1.389 1_554 S
C2041 H2020 0.950 . S
C2041 C2040 1.373 . S
C2041 C2057 1.377 . S
C2042 C2040 1.389 1_556 S
C2042 C2043 1.524 . S
C2042 C2056 1.377 . S
C2043 C2042 1.524 . S
C2043 C2044 1.397 . S
C2043 C2048 1.363 . S
C2044 H2021 0.950 . S
C2044 C2043 1.397 . S
C2044 C2045 1.334 . S
C2045 H2022 0.950 . S
C2045 C2044 1.334 . S
C2045 C2046 1.287 . S
C2046 C2045 1.287 . S
C2046 C2047 1.524 . S
C2046 H2065 0.913 . S
C2047 H2023 0.950 . S
C2047 C2046 1.524 . S
C2047 C2048 1.415 . S
C2048 H2024 0.950 . S
C2048 C2043 1.363 . S
C2048 C2047 1.415 . S
C2049 H2025 0.951 . S
C2049 C2050 1.366 . S
C2049 C2051 1.388 . S
C2050 C2049 1.366 . S
C2050 C2054 1.385 . S
C2051 H2026 0.951 . S
C2051 C2049 1.388 . S
C2051 C2052 1.366 . S
C2052 C2051 1.366 . S
C2052 C2053 1.414 . S
C2052 C2055 1.499 . S
C2053 H2027 0.950 . S
C2053 C2052 1.414 . S
C2053 C2054 1.374 . S
C2054 H2028 0.950 . S
C2054 C2050 1.385 . S
C2054 C2053 1.374 . S
C2055 C2052 1.499 . S
C2055 C2056 1.373 1_554 S
C2055 C2057 1.389 . S
C2056 H2029 0.950 . S
C2056 C2042 1.377 . S
C2056 C2055 1.373 1_556 S
C2057 C2041 1.377 . S
C2057 C2055 1.389 . S
C2057 C2058 1.524 . S
C2058 C2057 1.524 . S
C2058 C2059 1.397 . S
C2058 C2063 1.363 . S
C2059 H2030 0.950 . S
C2059 C2058 1.397 . S
C2059 C2060 1.334 . S
C2060 H2031 0.950 . S
C2060 C2059 1.334 . S
C2060 C2061 1.287 . S
C2061 C2060 1.287 . S
C2061 C2062 1.524 . S
C2061 H2064 0.999 . S
C2062 H2032 0.950 . S
C2062 C2061 1.524 . S
C2062 C2063 1.415 . S
C2063 H2033 0.950 . S
C2063 C2058 1.363 . S
C2063 C2062 1.415 . S
H2064 C2061 0.999 . S
H2065 C2046 0.913 . S
H2066 C2084 0.951 . S
H2067 C2086 0.951 . S
H2068 C2088 0.950 . S
H2069 C2089 0.950 . S
H2070 C2091 0.950 . S
H2071 C2094 0.950 . S
H2072 C2095 0.950 . S
H2073 C2097 0.950 . S
H2074 C2098 0.950 . S
H2075 C2099 0.951 . S
H2076 C2101 0.951 . S
H2077 C2103 0.950 . S
H2078 C2104 0.950 . S
H2079 C2106 0.979 . S
H2080 C2109 0.950 . S
H2081 C2110 0.950 . S
H2082 C2112 0.950 . S
H2083 C2113 0.950 . S
C2084 H2066 0.951 . S
C2084 C2085 1.366 . S
C2084 C2086 1.388 . S
C2085 C2084 1.366 . S
C2085 C2089 1.385 . S
C2086 H2067 0.951 . S
C2086 C2084 1.388 . S
C2086 C2087 1.366 . S
C2087 C2086 1.366 . S
C2087 C2088 1.414 . S
C2087 C2090 1.499 . S
C2088 H2068 0.950 . S
C2088 C2087 1.414 . S
C2088 C2089 1.374 . S
C2089 H2069 0.950 . S
C2089 C2085 1.385 . S
C2089 C2088 1.374 . S
C2090 C2087 1.499 . S
C2090 C2091 1.373 . S
C2090 C2092 1.389 . S
C2091 H2070 0.950 . S
C2091 C2090 1.373 . S
C2091 C2107 1.377 . S
C2092 C2090 1.389 . S
C2092 C2093 1.524 1_554 S
C2092 C2106 1.370 1_554 S
C2093 C2092 1.524 1_556 S
C2093 C2094 1.397 . S
C2093 C2098 1.363 . S
C2094 H2071 0.950 . S
C2094 C2093 1.397 . S
C2094 C2095 1.334 . S
C2095 H2072 0.950 . S
C2095 C2094 1.334 . S
C2095 C2096 1.287 . S
C2096 C2095 1.287 . S
C2096 C2097 1.524 . S
C2096 H2115 0.913 . S
C2097 H2073 0.950 . S
C2097 C2096 1.524 . S
C2097 C2098 1.415 . S
C2098 H2074 0.950 . S
C2098 C2093 1.363 . S
C2098 C2097 1.415 . S
C2099 H2075 0.951 . S
C2099 C2100 1.366 . S
C2099 C2101 1.388 . S
C2100 C2099 1.366 . S
C2100 C2104 1.385 . S
C2101 H2076 0.951 . S
C2101 C2099 1.388 . S
C2101 C2102 1.366 1_556 S
C2102 C2101 1.366 1_554 S
C2102 C2103 1.414 . S
C2102 C2105 1.499 . S
C2103 H2077 0.950 . S
C2103 C2102 1.414 . S
C2103 C2104 1.374 1_554 S
C2104 H2078 0.950 . S
C2104 C2100 1.385 . S
C2104 C2103 1.374 1_556 S
C2105 C2102 1.499 . S
C2105 C2106 1.353 1_554 S
C2105 C2107 1.389 . S
C2106 H2079 0.979 . S
C2106 C2092 1.370 1_556 S
C2106 C2105 1.353 1_556 S
C2107 C2091 1.377 . S
C2107 C2105 1.389 . S
C2107 C2108 1.524 . S
C2108 C2107 1.524 . S
C2108 C2109 1.397 . S
C2108 C2113 1.363 . S
C2109 H2080 0.950 . S
C2109 C2108 1.397 . S
C2109 C2110 1.334 . S
C2110 H2081 0.950 . S
C2110 C2109 1.334 . S
C2110 C2111 1.287 . S
C2111 C2110 1.287 . S
C2111 C2112 1.524 . S
C2111 H2114 0.999 . S
C2112 H2082 0.950 . S
C2112 C2111 1.524 . S
C2112 C2113 1.415 . S
C2113 H2083 0.950 . S
C2113 C2108 1.363 . S
C2113 C2112 1.415 . S
H2114 C2111 0.999 . S
H2115 C2096 0.913 . S
H2116 C2134 0.951 . S
H2117 C2136 0.951 . S
H2118 C2138 0.950 . S
H2119 C2139 0.950 . S
H2120 C2141 0.950 . S
H2121 C2144 0.950 . S
H2122 C2145 0.950 . S
H2123 C2147 0.950 . S
H2124 C2148 0.950 . S
H2125 C2149 0.951 . S
H2126 C2151 0.951 . S
H2127 C2153 0.950 . S
H2128 C2154 0.950 . S
H2129 C2156 0.950 . S
H2130 C2159 0.950 . S
H2131 C2160 0.950 . S
H2132 C2162 0.950 . S
H2133 C2163 0.950 . S
C2134 H2116 0.951 . S
C2134 C2135 1.366 . S
C2134 C2136 1.388 . S
C2135 C2134 1.366 . S
C2135 C2139 1.385 . S
C2136 H2117 0.951 . S
C2136 C2134 1.388 . S
C2136 C2137 1.366 . S
C2137 C2136 1.366 . S
C2137 C2138 1.414 . S
C2137 C2140 1.499 . S
C2138 H2118 0.950 . S
C2138 C2137 1.414 . S
C2138 C2139 1.374 . S
C2139 H2119 0.950 . S
C2139 C2135 1.385 . S
C2139 C2138 1.374 . S
C2140 C2137 1.499 . S
C2140 C2141 1.373 . S
C2140 C2142 1.389 . S
C2141 H2120 0.950 . S
C2141 C2140 1.373 . S
C2141 C2157 1.377 . S
C2142 C2140 1.389 . S
C2142 C2143 1.524 . S
C2142 C2156 1.377 . S
C2143 C2142 1.524 . S
C2143 C2144 1.397 . S
C2143 C2148 1.363 . S
C2144 H2121 0.950 . S
C2144 C2143 1.397 . S
C2144 C2145 1.334 . S
C2145 H2122 0.950 . S
C2145 C2144 1.334 . S
C2145 C2146 1.287 . S
C2146 C2145 1.287 . S
C2146 C2147 1.524 . S
C2146 H2165 0.913 . S
C2147 H2123 0.950 . S
C2147 C2146 1.524 . S
C2147 C2148 1.415 . S
C2148 H2124 0.950 . S
C2148 C2143 1.363 . S
C2148 C2147 1.415 . S
C2149 H2125 0.951 . S
C2149 C2150 1.366 . S
C2149 C2151 1.388 . S
C2150 C2149 1.366 . S
C2150 C2154 1.385 . S
C2151 H2126 0.951 . S
C2151 C2149 1.388 . S
C2151 C2152 1.366 . S
C2152 C2151 1.366 . S
C2152 C2153 1.414 . S
C2152 C2155 1.499 . S
C2153 H2127 0.950 . S
C2153 C2152 1.414 . S
C2153 C2154 1.374 . S
C2154 H2128 0.950 . S
C2154 C2150 1.385 . S
C2154 C2153 1.374 . S
C2155 C2152 1.499 . S
C2155 C2156 1.373 . S
C2155 C2157 1.389 . S
C2156 H2129 0.950 . S
C2156 C2142 1.377 . S
C2156 C2155 1.373 . S
C2157 C2141 1.377 . S
C2157 C2155 1.389 . S
C2157 C2158 1.524 . S
C2158 C2157 1.524 . S
C2158 C2159 1.397 . S
C2158 C2163 1.363 . S
C2159 H2130 0.950 . S
C2159 C2158 1.397 . S
C2159 C2160 1.334 . S
C2160 H2131 0.950 . S
C2160 C2159 1.334 . S
C2160 C2161 1.287 . S
C2161 C2160 1.287 . S
C2161 C2162 1.524 . S
C2161 H2164 0.999 . S
C2162 H2132 0.950 . S
C2162 C2161 1.524 . S
C2162 C2163 1.415 . S
C2163 H2133 0.950 . S
C2163 C2158 1.363 . S
C2163 C2162 1.415 . S
H2164 C2161 0.999 . S
H2165 C2146 0.913 . S
H2166 C2184 0.951 . S
H2167 C2186 0.951 . S
H2168 C2188 0.950 . S
H2169 C2189 0.950 . S
H2170 C2191 0.950 . S
H2171 C2194 0.950 . S
H2172 C2195 0.950 . S
H2173 C2197 0.950 . S
H2174 C2198 0.950 . S
H2175 C2199 0.951 . S
H2176 C2201 0.951 . S
H2177 C2203 0.950 . S
H2178 C2204 0.950 . S
H2179 C2206 0.950 . S
H2180 C2209 0.950 . S
H2181 C2210 0.950 . S
H2182 C2212 0.950 . S
H2183 C2213 0.950 . S
C2184 H2166 0.951 . S
C2184 C2185 1.366 . S
C2184 C2186 1.388 . S
C2185 C2184 1.366 . S
C2185 C2189 1.385 . S
C2186 H2167 0.951 . S
C2186 C2184 1.388 . S
C2186 C2187 1.366 . S
C2187 C2186 1.366 . S
C2187 C2188 1.414 . S
C2187 C2190 1.499 . S
C2188 H2168 0.950 . S
C2188 C2187 1.414 . S
C2188 C2189 1.374 . S
C2189 H2169 0.950 . S
C2189 C2185 1.385 . S
C2189 C2188 1.374 . S
C2190 C2187 1.499 . S
C2190 C2191 1.373 . S
C2190 C2192 1.389 . S
C2191 H2170 0.950 . S
C2191 C2190 1.373 . S
C2191 C2207 1.377 . S
C2192 C2190 1.389 . S
C2192 C2193 1.524 . S
C2192 C2206 1.377 . S
C2193 C2192 1.524 . S
C2193 C2194 1.397 . S
C2193 C2198 1.363 . S
C2194 H2171 0.950 . S
C2194 C2193 1.397 . S
C2194 C2195 1.334 . S
C2195 H2172 0.950 . S
C2195 C2194 1.334 . S
C2195 C2196 1.287 . S
C2196 C2195 1.287 . S
C2196 C2197 1.524 . S
C2196 H2215 0.913 . S
C2197 H2173 0.950 . S
C2197 C2196 1.524 . S
C2197 C2198 1.415 . S
C2198 H2174 0.950 . S
C2198 C2193 1.363 . S
C2198 C2197 1.415 . S
C2199 H2175 0.951 . S
C2199 C2200 1.366 . S
C2199 C2201 1.388 . S
C2200 C2199 1.366 . S
C2200 C2204 1.385 . S
C2201 H2176 0.951 . S
C2201 C2199 1.388 . S
C2201 C2202 1.366 . S
C2202 C2201 1.366 . S
C2202 C2203 1.414 . S
C2202 C2205 1.499 . S
C2203 H2177 0.950 . S
C2203 C2202 1.414 . S
C2203 C2204 1.374 . S
C2204 H2178 0.950 . S
C2204 C2200 1.385 . S
C2204 C2203 1.374 . S
C2205 C2202 1.499 . S
C2205 C2206 1.373 . S
C2205 C2207 1.389 . S
C2206 H2179 0.950 . S
C2206 C2192 1.377 . S
C2206 C2205 1.373 . S
C2207 C2191 1.377 . S
C2207 C2205 1.389 . S
C2207 C2208 1.524 . S
C2208 C2207 1.524 . S
C2208 C2209 1.397 . S
C2208 C2213 1.363 . S
C2209 H2180 0.950 . S
C2209 C2208 1.397 . S
C2209 C2210 1.334 . S
C2210 H2181 0.950 . S
C2210 C2209 1.334 . S
C2210 C2211 1.287 . S
C2211 C2210 1.287 . S
C2211 C2212 1.524 . S
C2211 H2214 0.999 . S
C2212 H2182 0.950 . S
C2212 C2211 1.524 . S
C2212 C2213 1.415 . S
C2213 H2183 0.950 . S
C2213 C2208 1.363 . S
C2213 C2212 1.415 . S
H2214 C2211 0.999 . S
H2215 C2196 0.913 . S
H2216 C2234 0.951 . S
H2217 C2236 0.951 . S
H2218 C2238 0.950 . S
H2219 C2239 0.950 . S
H2220 C2241 0.950 . S
H2221 C2244 0.950 . S
H2222 C2245 0.950 . S
H2223 C2247 0.950 . S
H2224 C2248 0.950 . S
H2225 C2249 0.951 . S
H2226 C2251 0.951 . S
H2227 C2253 0.950 1_554 S
H2228 C2254 0.950 . S
H2229 C2256 0.950 . S
H2230 C2259 0.950 . S
H2231 C2260 0.950 . S
H2232 C2262 0.950 . S
H2233 C2263 0.950 . S
C2234 H2216 0.951 . S
C2234 C2235 1.366 . S
C2234 C2236 1.388 . S
C2235 C2234 1.366 . S
C2235 C2239 1.385 1_554 S
C2236 H2217 0.951 . S
C2236 C2234 1.388 . S
C2236 C2237 1.366 1_554 S
C2237 C2236 1.366 1_556 S
C2237 C2238 1.414 . S
C2237 C2240 1.499 . S
C2238 H2218 0.950 . S
C2238 C2237 1.414 . S
C2238 C2239 1.374 . S
C2239 H2219 0.950 . S
C2239 C2235 1.385 1_556 S
C2239 C2238 1.374 . S
C2240 C2237 1.499 . S
C2240 C2241 1.373 . S
C2240 C2242 1.389 1_556 S
C2241 H2220 0.950 . S
C2241 C2240 1.373 . S
C2241 C2257 1.377 . S
C2242 C2240 1.389 1_554 S
C2242 C2243 1.524 . S
C2242 C2256 1.377 . S
C2243 C2242 1.524 . S
C2243 C2244 1.397 . S
C2243 C2248 1.363 . S
C2244 H2221 0.950 . S
C2244 C2243 1.397 . S
C2244 C2245 1.334 . S
C2245 H2222 0.950 . S
C2245 C2244 1.334 . S
C2245 C2246 1.287 . S
C2246 C2245 1.287 . S
C2246 C2247 1.524 . S
C2246 H2265 0.913 . S
C2247 H2223 0.950 . S
C2247 C2246 1.524 . S
C2247 C2248 1.415 . S
C2248 H2224 0.950 . S
C2248 C2243 1.363 . S
C2248 C2247 1.415 . S
C2249 H2225 0.951 . S
C2249 C2250 1.366 . S
C2249 C2251 1.388 . S
C2250 C2249 1.366 . S
C2250 C2254 1.385 . S
C2251 H2226 0.951 . S
C2251 C2249 1.388 . S
C2251 C2252 1.366 . S
C2252 C2251 1.366 . S
C2252 C2253 1.414 . S
C2252 C2255 1.499 . S
C2253 H2227 0.950 1_556 S
C2253 C2252 1.414 . S
C2253 C2254 1.374 . S
C2254 H2228 0.950 . S
C2254 C2250 1.385 . S
C2254 C2253 1.374 . S
C2255 C2252 1.499 . S
C2255 C2256 1.373 1_556 S
C2255 C2257 1.389 . S
C2256 H2229 0.950 . S
C2256 C2242 1.377 . S
C2256 C2255 1.373 1_554 S
C2257 C2241 1.377 . S
C2257 C2255 1.389 . S
C2257 C2258 1.524 . S
C2258 C2257 1.524 . S
C2258 C2259 1.397 . S
C2258 C2263 1.363 . S
C2259 H2230 0.950 . S
C2259 C2258 1.397 . S
C2259 C2260 1.334 . S
C2260 H2231 0.950 . S
C2260 C2259 1.334 . S
C2260 C2261 1.287 . S
C2261 C2260 1.287 . S
C2261 C2262 1.524 . S
C2261 H2264 0.999 . S
C2262 H2232 0.950 . S
C2262 C2261 1.524 . S
C2262 C2263 1.415 . S
C2263 H2233 0.950 . S
C2263 C2258 1.363 . S
C2263 C2262 1.415 . S
H2264 C2261 0.999 . S
H2265 C2246 0.913 . S
H2266 C2284 0.951 . S
H2267 C2286 0.948 1_556 S
H2268 C2288 0.950 . S
H2269 C2289 0.950 . S
H2270 C2291 0.950 . S
H2271 C2294 0.950 . S
H2272 C2295 0.950 . S
H2273 C2297 0.950 . S
H2274 C2298 0.950 . S
H2275 C2299 0.951 . S
H2276 C2301 0.951 . S
H2277 C2303 0.950 . S
H2278 C2304 0.950 . S
H2279 C2306 0.950 . S
H2280 C2309 0.950 . S
H2281 C2310 0.950 . S
H2282 C2312 0.950 . S
H2283 C2313 0.950 . S
C2284 H2266 0.951 . S
C2284 C2285 1.366 . S
C2284 C2286 1.395 . S
C2285 C2284 1.366 . S
C2285 C2289 1.385 . S
C2286 H2267 0.948 1_554 S
C2286 C2284 1.395 . S
C2286 C2287 1.361 1_554 S
C2287 C2286 1.361 1_556 S
C2287 C2288 1.414 . S
C2287 C2290 1.499 . S
C2288 H2268 0.950 . S
C2288 C2287 1.414 . S
C2288 C2289 1.374 1_556 S
C2289 H2269 0.950 . S
C2289 C2285 1.385 . S
C2289 C2288 1.374 1_554 S
C2290 C2287 1.499 . S
C2290 C2291 1.373 1_556 S
C2290 C2292 1.389 . S
C2291 H2270 0.950 . S
C2291 C2290 1.373 1_554 S
C2291 C2307 1.377 1_554 S
C2292 C2290 1.389 . S
C2292 C2293 1.524 . S
C2292 C2306 1.377 . S
C2293 C2292 1.524 . S
C2293 C2294 1.397 . S
C2293 C2298 1.363 . S
C2294 H2271 0.950 . S
C2294 C2293 1.397 . S
C2294 C2295 1.334 . S
C2295 H2272 0.950 . S
C2295 C2294 1.334 . S
C2295 C2296 1.287 . S
C2296 C2295 1.287 . S
C2296 C2297 1.524 . S
C2296 H2315 0.913 . S
C2297 H2273 0.950 . S
C2297 C2296 1.524 . S
C2297 C2298 1.415 . S
C2298 H2274 0.950 . S
C2298 C2293 1.363 . S
C2298 C2297 1.415 . S
C2299 H2275 0.951 . S
C2299 C2300 1.366 . S
C2299 C2301 1.388 . S
C2300 C2299 1.366 . S
C2300 C2304 1.385 . S
C2301 H2276 0.951 . S
C2301 C2299 1.388 . S
C2301 C2302 1.366 . S
C2302 C2301 1.366 . S
C2302 C2303 1.414 . S
C2302 C2305 1.499 . S
C2303 H2277 0.950 . S
C2303 C2302 1.414 . S
C2303 C2304 1.374 . S
C2304 H2278 0.950 . S
C2304 C2300 1.385 . S
C2304 C2303 1.374 . S
C2305 C2302 1.499 . S
C2305 C2306 1.373 . S
C2305 C2307 1.389 . S
C2306 H2279 0.950 . S
C2306 C2292 1.377 . S
C2306 C2305 1.373 . S
C2307 C2291 1.377 1_556 S
C2307 C2305 1.389 . S
C2307 C2308 1.524 1_556 S
C2308 C2307 1.524 1_554 S
C2308 C2309 1.397 . S
C2308 C2313 1.363 . S
C2309 H2280 0.950 . S
C2309 C2308 1.397 . S
C2309 C2310 1.334 . S
C2310 H2281 0.950 . S
C2310 C2309 1.334 . S
C2310 C2311 1.287 . S
C2311 C2310 1.287 . S
C2311 C2312 1.524 . S
C2311 H2314 0.999 . S
C2312 H2282 0.950 . S
C2312 C2311 1.524 . S
C2312 C2313 1.415 . S
C2313 H2283 0.950 . S
C2313 C2308 1.363 . S
C2313 C2312 1.415 . S
H2314 C2311 0.999 . S
H2315 C2296 0.913 . S
H2316 C2334 0.951 . S
H2317 C2336 0.951 . S
H2318 C2338 0.950 . S
H2319 C2339 0.950 . S
H2320 C2341 0.950 . S
H2321 C2344 0.950 . S
H2322 C2345 0.950 . S
H2323 C2347 0.950 . S
H2324 C2348 0.950 . S
H2325 C2349 0.951 . S
H2326 C2351 0.951 . S
H2327 C2353 0.950 . S
H2328 C2354 0.950 . S
H2329 C2356 0.950 . S
H2330 C2359 0.950 . S
H2331 C2360 0.950 . S
H2332 C2362 0.950 . S
H2333 C2363 0.950 . S
C2334 H2316 0.951 . S
C2334 C2335 1.366 . S
C2334 C2336 1.388 . S
C2335 C2334 1.366 . S
C2335 C2339 1.385 . S
C2336 H2317 0.951 . S
C2336 C2334 1.388 . S
C2336 C2337 1.366 . S
C2337 C2336 1.366 . S
C2337 C2338 1.414 . S
C2337 C2340 1.499 . S
C2338 H2318 0.950 . S
C2338 C2337 1.414 . S
C2338 C2339 1.374 . S
C2339 H2319 0.950 . S
C2339 C2335 1.385 . S
C2339 C2338 1.374 . S
C2340 C2337 1.499 . S
C2340 C2341 1.373 . S
C2340 C2342 1.389 . S
C2341 H2320 0.950 . S
C2341 C2340 1.373 . S
C2341 C2357 1.377 . S
C2342 C2340 1.389 . S
C2342 C2343 1.524 . S
C2342 C2356 1.377 . S
C2343 C2342 1.524 . S
C2343 C2344 1.397 . S
C2343 C2348 1.363 . S
C2344 H2321 0.950 . S
C2344 C2343 1.397 . S
C2344 C2345 1.334 . S
C2345 H2322 0.950 . S
C2345 C2344 1.334 . S
C2345 C2346 1.287 . S
C2346 C2345 1.287 . S
C2346 C2347 1.524 . S
C2346 H2365 0.913 . S
C2347 H2323 0.950 . S
C2347 C2346 1.524 . S
C2347 C2348 1.415 . S
C2348 H2324 0.950 . S
C2348 C2343 1.363 . S
C2348 C2347 1.415 . S
C2349 H2325 0.951 . S
C2349 C2350 1.366 . S
C2349 C2351 1.388 . S
C2350 C2349 1.366 . S
C2350 C2354 1.385 . S
C2351 H2326 0.951 . S
C2351 C2349 1.388 . S
C2351 C2352 1.366 . S
C2352 C2351 1.366 . S
C2352 C2353 1.414 . S
C2352 C2355 1.499 . S
C2353 H2327 0.950 . S
C2353 C2352 1.414 . S
C2353 C2354 1.374 . S
C2354 H2328 0.950 . S
C2354 C2350 1.385 . S
C2354 C2353 1.374 . S
C2355 C2352 1.499 . S
C2355 C2356 1.373 . S
C2355 C2357 1.389 . S
C2356 H2329 0.950 . S
C2356 C2342 1.377 . S
C2356 C2355 1.373 . S
C2357 C2341 1.377 . S
C2357 C2355 1.389 . S
C2357 C2358 1.524 . S
C2358 C2357 1.524 . S
C2358 C2359 1.397 . S
C2358 C2363 1.363 . S
C2359 H2330 0.950 . S
C2359 C2358 1.397 . S
C2359 C2360 1.334 . S
C2360 H2331 0.950 . S
C2360 C2359 1.334 . S
C2360 C2361 1.287 . S
C2361 C2360 1.287 . S
C2361 C2362 1.524 . S
C2361 H2364 0.999 . S
C2362 H2332 0.950 . S
C2362 C2361 1.524 . S
C2362 C2363 1.415 . S
C2363 H2333 0.950 . S
C2363 C2358 1.363 . S
C2363 C2362 1.415 . S
H2364 C2361 0.999 . S
H2365 C2346 0.913 . S
H2366 C2384 0.951 . S
H2367 C2386 0.951 . S
H2368 C2388 0.950 . S
H2369 C2389 0.950 . S
H2370 C2391 0.950 . S
H2371 C2394 0.950 . S
H2372 C2395 0.950 . S
H2373 C2397 0.950 . S
H2374 C2398 0.950 . S
H2375 C2399 0.951 . S
H2376 C2401 0.951 . S
H2377 C2403 0.950 . S
H2378 C2404 0.950 . S
H2379 C2406 0.950 . S
H2380 C2409 0.950 . S
H2381 C2410 0.950 . S
H2382 C2412 0.950 . S
H2383 C2413 0.950 . S
C2384 H2366 0.951 . S
C2384 C2385 1.366 . S
C2384 C2386 1.388 . S
C2385 C2384 1.366 . S
C2385 C2389 1.385 . S
C2386 H2367 0.951 . S
C2386 C2384 1.388 . S
C2386 C2387 1.366 . S
C2387 C2386 1.366 . S
C2387 C2388 1.414 . S
C2387 C2390 1.499 . S
C2388 H2368 0.950 . S
C2388 C2387 1.414 . S
C2388 C2389 1.374 . S
C2389 H2369 0.950 . S
C2389 C2385 1.385 . S
C2389 C2388 1.374 . S
C2390 C2387 1.499 . S
C2390 C2391 1.373 . S
C2390 C2392 1.389 . S
C2391 H2370 0.950 . S
C2391 C2390 1.373 . S
C2391 C2407 1.377 . S
C2392 C2390 1.389 . S
C2392 C2393 1.524 . S
C2392 C2406 1.377 . S
C2393 C2392 1.524 . S
C2393 C2394 1.397 . S
C2393 C2398 1.363 . S
C2394 H2371 0.950 . S
C2394 C2393 1.397 . S
C2394 C2395 1.334 . S
C2395 H2372 0.950 . S
C2395 C2394 1.334 . S
C2395 C2396 1.287 . S
C2396 C2395 1.287 . S
C2396 C2397 1.524 . S
C2396 H2415 0.913 . S
C2397 H2373 0.950 . S
C2397 C2396 1.524 . S
C2397 C2398 1.415 . S
C2398 H2374 0.950 . S
C2398 C2393 1.363 . S
C2398 C2397 1.415 . S
C2399 H2375 0.951 . S
C2399 C2400 1.366 . S
C2399 C2401 1.388 . S
C2400 C2399 1.366 . S
C2400 C2404 1.385 . S
C2401 H2376 0.951 . S
C2401 C2399 1.388 . S
C2401 C2402 1.366 . S
C2402 C2401 1.366 . S
C2402 C2403 1.414 . S
C2402 C2405 1.499 . S
C2403 H2377 0.950 . S
C2403 C2402 1.414 . S
C2403 C2404 1.374 . S
C2404 H2378 0.950 . S
C2404 C2400 1.385 . S
C2404 C2403 1.374 . S
C2405 C2402 1.499 . S
C2405 C2406 1.373 . S
C2405 C2407 1.389 . S
C2406 H2379 0.950 . S
C2406 C2392 1.377 . S
C2406 C2405 1.373 . S
C2407 C2391 1.377 . S
C2407 C2405 1.389 . S
C2407 C2408 1.524 . S
C2408 C2407 1.524 . S
C2408 C2409 1.397 . S
C2408 C2413 1.363 . S
C2409 H2380 0.950 . S
C2409 C2408 1.397 . S
C2409 C2410 1.334 . S
C2410 H2381 0.950 . S
C2410 C2409 1.334 . S
C2410 C2411 1.287 . S
C2411 C2410 1.287 . S
C2411 C2412 1.524 . S
C2411 H2414 0.999 . S
C2412 H2382 0.950 . S
C2412 C2411 1.524 . S
C2412 C2413 1.415 . S
C2413 H2383 0.950 . S
C2413 C2408 1.363 . S
C2413 C2412 1.415 . S
H2414 C2411 0.999 . S
H2415 C2396 0.913 . S
H2416 C2434 0.951 . S
H2417 C2436 0.951 . S
H2418 C2438 0.950 1_545 S
H2419 C2439 0.950 . S
H2420 C2441 0.950 . S
H2421 C2444 0.950 . S
H2422 C2445 0.950 . S
H2423 C2447 0.950 . S
H2424 C2448 0.950 . S
H2425 C2449 0.951 . S
H2426 C2451 0.951 . S
H2427 C2453 0.950 . S
H2428 C2454 0.950 . S
H2429 C2456 0.950 . S
H2430 C2459 0.950 . S
H2431 C2460 0.950 . S
H2432 C2462 0.950 . S
H2433 C2463 0.950 . S
C2434 H2416 0.951 . S
C2434 C2435 1.366 . S
C2434 C2436 1.388 . S
C2435 C2434 1.366 . S
C2435 C2439 1.385 1_565 S
C2436 H2417 0.951 . S
C2436 C2434 1.388 . S
C2436 C2437 1.366 . S
C2437 C2436 1.366 . S
C2437 C2438 1.414 . S
C2437 C2440 1.499 . S
C2438 H2418 0.950 1_565 S
C2438 C2437 1.414 . S
C2438 C2439 1.374 1_565 S
C2439 H2419 0.950 . S
C2439 C2435 1.385 1_545 S
C2439 C2438 1.374 1_545 S
C2440 C2437 1.499 . S
C2440 C2441 1.373 . S
C2440 C2442 1.389 . S
C2441 H2420 0.950 . S
C2441 C2440 1.373 . S
C2441 C2457 1.377 . S
C2442 C2440 1.389 . S
C2442 C2443 1.524 . S
C2442 C2456 1.377 . S
C2443 C2442 1.524 . S
C2443 C2444 1.397 . S
C2443 C2448 1.363 . S
C2444 H2421 0.950 . S
C2444 C2443 1.397 . S
C2444 C2445 1.334 . S
C2445 H2422 0.950 . S
C2445 C2444 1.334 . S
C2445 C2446 1.287 . S
C2446 C2445 1.287 . S
C2446 C2447 1.524 . S
C2446 H2465 0.913 . S
C2447 H2423 0.950 . S
C2447 C2446 1.524 . S
C2447 C2448 1.415 . S
C2448 H2424 0.950 . S
C2448 C2443 1.363 . S
C2448 C2447 1.415 . S
C2449 H2425 0.951 . S
C2449 C2450 1.366 . S
C2449 C2451 1.388 . S
C2450 C2449 1.366 . S
C2450 C2454 1.385 . S
C2451 H2426 0.951 . S
C2451 C2449 1.388 . S
C2451 C2452 1.366 . S
C2452 C2451 1.366 . S
C2452 C2453 1.414 . S
C2452 C2455 1.499 . S
C2453 H2427 0.950 . S
C2453 C2452 1.414 . S
C2453 C2454 1.374 . S
C2454 H2428 0.950 . S
C2454 C2450 1.385 . S
C2454 C2453 1.374 . S
C2455 C2452 1.499 . S
C2455 C2456 1.373 . S
C2455 C2457 1.389 . S
C2456 H2429 0.950 . S
C2456 C2442 1.377 . S
C2456 C2455 1.373 . S
C2457 C2441 1.377 . S
C2457 C2455 1.389 . S
C2457 C2458 1.524 . S
C2458 C2457 1.524 . S
C2458 C2459 1.397 . S
C2458 C2463 1.363 . S
C2459 H2430 0.950 . S
C2459 C2458 1.397 . S
C2459 C2460 1.334 . S
C2460 H2431 0.950 . S
C2460 C2459 1.334 . S
C2460 C2461 1.287 . S
C2461 C2460 1.287 . S
C2461 C2462 1.524 . S
C2461 H2464 0.999 . S
C2462 H2432 0.950 . S
C2462 C2461 1.524 . S
C2462 C2463 1.415 . S
C2463 H2433 0.950 . S
C2463 C2458 1.363 . S
C2463 C2462 1.415 . S
H2464 C2461 0.999 . S
H2465 C2446 0.913 . S
H2466 C2484 0.951 . S
H2467 C2486 0.951 . S
H2468 C2488 0.950 . S
H2469 C2489 0.950 . S
H2470 C2491 0.950 . S
H2471 C2494 0.950 . S
H2472 C2495 0.950 . S
H2473 C2497 0.950 . S
H2474 C2498 0.950 . S
H2475 C2499 0.951 . S
H2476 C2501 0.951 . S
H2477 C2503 0.950 . S
H2478 C2504 0.950 . S
H2479 C2506 0.950 . S
H2480 C2509 0.950 . S
H2481 C2510 0.950 . S
H2482 C2512 0.950 . S
H2483 C2513 0.950 . S
C2484 H2466 0.951 . S
C2484 C2485 1.366 . S
C2484 C2486 1.388 . S
C2485 C2484 1.366 . S
C2485 C2489 1.385 . S
C2486 H2467 0.951 . S
C2486 C2484 1.388 . S
C2486 C2487 1.366 . S
C2487 C2486 1.366 . S
C2487 C2488 1.414 . S
C2487 C2490 1.499 . S
C2488 H2468 0.950 . S
C2488 C2487 1.414 . S
C2488 C2489 1.374 . S
C2489 H2469 0.950 . S
C2489 C2485 1.385 . S
C2489 C2488 1.374 . S
C2490 C2487 1.499 . S
C2490 C2491 1.373 . S
C2490 C2492 1.389 . S
C2491 H2470 0.950 . S
C2491 C2490 1.373 . S
C2491 C2507 1.377 . S
C2492 C2490 1.389 . S
C2492 C2493 1.524 . S
C2492 C2506 1.377 . S
C2493 C2492 1.524 . S
C2493 C2494 1.397 . S
C2493 C2498 1.363 . S
C2494 H2471 0.950 . S
C2494 C2493 1.397 . S
C2494 C2495 1.334 . S
C2495 H2472 0.950 . S
C2495 C2494 1.334 . S
C2495 C2496 1.287 . S
C2496 C2495 1.287 . S
C2496 C2497 1.524 . S
C2496 H2515 0.913 . S
C2497 H2473 0.950 . S
C2497 C2496 1.524 . S
C2497 C2498 1.415 . S
C2498 H2474 0.950 . S
C2498 C2493 1.363 . S
C2498 C2497 1.415 . S
C2499 H2475 0.951 . S
C2499 C2500 1.366 . S
C2499 C2501 1.388 . S
C2500 C2499 1.366 . S
C2500 C2504 1.385 . S
C2501 H2476 0.951 . S
C2501 C2499 1.388 . S
C2501 C2502 1.366 . S
C2502 C2501 1.366 . S
C2502 C2503 1.414 . S
C2502 C2505 1.499 . S
C2503 H2477 0.950 . S
C2503 C2502 1.414 . S
C2503 C2504 1.374 . S
C2504 H2478 0.950 . S
C2504 C2500 1.385 . S
C2504 C2503 1.374 . S
C2505 C2502 1.499 . S
C2505 C2506 1.373 . S
C2505 C2507 1.389 . S
C2506 H2479 0.950 . S
C2506 C2492 1.377 . S
C2506 C2505 1.373 . S
C2507 C2491 1.377 . S
C2507 C2505 1.389 . S
C2507 C2508 1.524 . S
C2508 C2507 1.524 . S
C2508 C2509 1.397 . S
C2508 C2513 1.363 . S
C2509 H2480 0.950 . S
C2509 C2508 1.397 . S
C2509 C2510 1.334 . S
C2510 H2481 0.950 . S
C2510 C2509 1.334 . S
C2510 C2511 1.287 . S
C2511 C2510 1.287 . S
C2511 C2512 1.524 . S
C2511 H2514 0.999 . S
C2512 H2482 0.950 . S
C2512 C2511 1.524 . S
C2512 C2513 1.415 . S
C2513 H2483 0.950 . S
C2513 C2508 1.363 . S
C2513 C2512 1.415 . S
H2514 C2511 0.999 . S
H2515 C2496 0.913 . S
H2516 C2534 0.951 . S
H2517 C2536 0.951 . S
H2518 C2538 0.950 . S
H2519 C2539 0.950 . S
H2520 C2541 0.950 . S
H2521 C2544 0.950 . S
H2522 C2545 0.950 . S
H2523 C2547 0.950 . S
H2524 C2548 0.950 . S
H2525 C2549 0.951 . S
H2526 C2551 0.951 . S
H2527 C2553 0.950 . S
H2528 C2554 0.950 . S
H2529 C2556 0.950 . S
H2530 C2559 0.950 . S
H2531 C2560 0.950 . S
H2532 C2562 0.950 . S
H2533 C2563 0.950 . S
C2534 H2516 0.951 . S
C2534 C2535 1.366 . S
C2534 C2536 1.388 . S
C2535 C2534 1.366 . S
C2535 C2539 1.385 . S
C2536 H2517 0.951 . S
C2536 C2534 1.388 . S
C2536 C2537 1.366 . S
C2537 C2536 1.366 . S
C2537 C2538 1.414 . S
C2537 C2540 1.499 . S
C2538 H2518 0.950 . S
C2538 C2537 1.414 . S
C2538 C2539 1.374 . S
C2539 H2519 0.950 . S
C2539 C2535 1.385 . S
C2539 C2538 1.374 . S
C2540 C2537 1.499 . S
C2540 C2541 1.373 . S
C2540 C2542 1.389 . S
C2541 H2520 0.950 . S
C2541 C2540 1.373 . S
C2541 C2557 1.377 . S
C2542 C2540 1.389 . S
C2542 C2543 1.524 . S
C2542 C2556 1.377 . S
C2543 C2542 1.524 . S
C2543 C2544 1.397 . S
C2543 C2548 1.363 . S
C2544 H2521 0.950 . S
C2544 C2543 1.397 . S
C2544 C2545 1.334 . S
C2545 H2522 0.950 . S
C2545 C2544 1.334 . S
C2545 C2546 1.287 . S
C2546 C2545 1.287 . S
C2546 C2547 1.524 . S
C2546 H2565 0.913 . S
C2547 H2523 0.950 . S
C2547 C2546 1.524 . S
C2547 C2548 1.415 . S
C2548 H2524 0.950 . S
C2548 C2543 1.363 . S
C2548 C2547 1.415 . S
C2549 H2525 0.951 . S
C2549 C2550 1.366 . S
C2549 C2551 1.388 . S
C2550 C2549 1.366 . S
C2550 C2554 1.385 . S
C2551 H2526 0.951 . S
C2551 C2549 1.388 . S
C2551 C2552 1.366 . S
C2552 C2551 1.366 . S
C2552 C2553 1.414 . S
C2552 C2555 1.499 . S
C2553 H2527 0.950 . S
C2553 C2552 1.414 . S
C2553 C2554 1.374 . S
C2554 H2528 0.950 . S
C2554 C2550 1.385 . S
C2554 C2553 1.374 . S
C2555 C2552 1.499 . S
C2555 C2556 1.373 . S
C2555 C2557 1.389 . S
C2556 H2529 0.950 . S
C2556 C2542 1.377 . S
C2556 C2555 1.373 . S
C2557 C2541 1.377 . S
C2557 C2555 1.389 . S
C2557 C2558 1.524 . S
C2558 C2557 1.524 . S
C2558 C2559 1.397 . S
C2558 C2563 1.363 . S
C2559 H2530 0.950 . S
C2559 C2558 1.397 . S
C2559 C2560 1.334 . S
C2560 H2531 0.950 . S
C2560 C2559 1.334 . S
C2560 C2561 1.287 . S
C2561 C2560 1.287 . S
C2561 C2562 1.524 . S
C2561 H2564 0.999 . S
C2562 H2532 0.950 . S
C2562 C2561 1.524 . S
C2562 C2563 1.415 . S
C2563 H2533 0.950 . S
C2563 C2558 1.363 . S
C2563 C2562 1.415 . S
H2564 C2561 0.999 . S
H2565 C2546 0.913 . S
H2566 C2584 0.954 1_545 S
H2567 C2586 0.951 . S
H2568 C2588 0.950 . S
H2569 C2589 0.950 . S
H2570 C2591 0.950 . S
H2571 C2594 0.950 . S
H2572 C2595 0.950 . S
H2573 C2597 0.950 . S
H2574 C2598 0.950 1_565 S
H2575 C2599 0.951 . S
H2576 C2601 0.951 . S
H2577 C2603 0.950 . S
H2578 C2604 0.950 . S
H2579 C2606 0.950 . S
H2580 C2609 0.950 . S
H2581 C2610 0.950 . S
H2582 C2612 0.950 . S
H2583 C2613 0.950 . S
C2584 H2566 0.954 1_565 S
C2584 C2585 1.366 . S
C2584 C2586 1.385 . S
C2585 C2584 1.366 . S
C2585 C2589 1.385 . S
C2586 H2567 0.951 . S
C2586 C2584 1.385 . S
C2586 C2587 1.366 . S
C2587 C2586 1.366 . S
C2587 C2588 1.414 . S
C2587 C2590 1.499 . S
C2588 H2568 0.950 . S
C2588 C2587 1.414 . S
C2588 C2589 1.374 . S
C2589 H2569 0.950 . S
C2589 C2585 1.385 . S
C2589 C2588 1.374 . S
C2590 C2587 1.499 . S
C2590 C2591 1.373 . S
C2590 C2592 1.389 . S
C2591 H2570 0.950 . S
C2591 C2590 1.373 . S
C2591 C2607 1.377 . S
C2592 C2590 1.389 . S
C2592 C2593 1.524 . S
C2592 C2606 1.377 . S
C2593 C2592 1.524 . S
C2593 C2594 1.397 1_565 S
C2593 C2598 1.363 1_565 S
C2594 H2571 0.950 . S
C2594 C2593 1.397 1_545 S
C2594 C2595 1.334 . S
C2595 H2572 0.950 . S
C2595 C2594 1.334 . S
C2595 C2596 1.287 . S
C2596 C2595 1.287 . S
C2596 C2597 1.524 . S
C2596 H2615 0.913 . S
C2597 H2573 0.950 . S
C2597 C2596 1.524 . S
C2597 C2598 1.415 . S
C2598 H2574 0.950 1_545 S
C2598 C2593 1.363 1_545 S
C2598 C2597 1.415 . S
C2599 H2575 0.951 . S
C2599 C2600 1.366 . S
C2599 C2601 1.388 . S
C2600 C2599 1.366 . S
C2600 C2604 1.385 . S
C2601 H2576 0.951 . S
C2601 C2599 1.388 . S
C2601 C2602 1.366 . S
C2602 C2601 1.366 . S
C2602 C2603 1.414 . S
C2602 C2605 1.499 . S
C2603 H2577 0.950 . S
C2603 C2602 1.414 . S
C2603 C2604 1.374 . S
C2604 H2578 0.950 . S
C2604 C2600 1.385 . S
C2604 C2603 1.374 . S
C2605 C2602 1.499 . S
C2605 C2606 1.373 . S
C2605 C2607 1.389 . S
C2606 H2579 0.950 . S
C2606 C2592 1.377 . S
C2606 C2605 1.373 . S
C2607 C2591 1.377 . S
C2607 C2605 1.389 . S
C2607 C2608 1.524 . S
C2608 C2607 1.524 . S
C2608 C2609 1.397 . S
C2608 C2613 1.363 . S
C2609 H2580 0.950 . S
C2609 C2608 1.397 . S
C2609 C2610 1.334 . S
C2610 H2581 0.950 . S
C2610 C2609 1.334 . S
C2610 C2611 1.287 . S
C2611 C2610 1.287 . S
C2611 C2612 1.524 . S
C2611 H2614 0.999 . S
C2612 H2582 0.950 . S
C2612 C2611 1.524 . S
C2612 C2613 1.415 . S
C2613 H2583 0.950 . S
C2613 C2608 1.363 . S
C2613 C2612 1.415 . S
H2614 C2611 0.999 . S
H2615 C2596 0.913 . S
H2616 C2634 0.951 . S
H2617 C2636 0.951 1_565 S
H2618 C2638 0.950 . S
H2619 C2639 0.950 . S
H2620 C2641 0.950 . S
H2621 C2644 0.950 . S
H2622 C2645 0.950 . S
H2623 C2647 0.950 . S
H2624 C2648 0.950 . S
H2625 C2649 0.951 . S
H2626 C2651 0.951 . S
H2627 C2653 0.950 . S
H2628 C2654 0.950 . S
H2629 C2656 0.950 . S
H2630 C2659 0.950 . S
H2631 C2660 0.950 . S
H2632 C2662 0.950 . S
H2633 C2663 0.950 . S
C2634 H2616 0.951 . S
C2634 C2635 1.366 1_565 S
C2634 C2636 1.388 1_565 S
C2635 C2634 1.366 1_545 S
C2635 C2639 1.385 . S
C2636 H2617 0.951 1_545 S
C2636 C2634 1.388 1_545 S
C2636 C2637 1.366 . S
C2637 C2636 1.366 . S
C2637 C2638 1.414 . S
C2637 C2640 1.499 . S
C2638 H2618 0.950 . S
C2638 C2637 1.414 . S
C2638 C2639 1.374 . S
C2639 H2619 0.950 . S
C2639 C2635 1.385 . S
C2639 C2638 1.374 . S
C2640 C2637 1.499 . S
C2640 C2641 1.373 . S
C2640 C2642 1.389 . S
C2641 H2620 0.950 . S
C2641 C2640 1.373 . S
C2641 C2657 1.377 . S
C2642 C2640 1.389 . S
C2642 C2643 1.524 . S
C2642 C2656 1.377 . S
C2643 C2642 1.524 . S
C2643 C2644 1.397 . S
C2643 C2648 1.363 1_545 S
C2644 H2621 0.950 . S
C2644 C2643 1.397 . S
C2644 C2645 1.334 1_545 S
C2645 H2622 0.950 . S
C2645 C2644 1.334 1_565 S
C2645 C2646 1.287 . S
C2646 C2645 1.287 . S
C2646 C2647 1.524 . S
C2646 H2665 0.913 . S
C2647 H2623 0.950 . S
C2647 C2646 1.524 . S
C2647 C2648 1.415 . S
C2648 H2624 0.950 . S
C2648 C2643 1.363 1_565 S
C2648 C2647 1.415 . S
C2649 H2625 0.951 . S
C2649 C2650 1.366 . S
C2649 C2651 1.388 . S
C2650 C2649 1.366 . S
C2650 C2654 1.385 . S
C2651 H2626 0.951 . S
C2651 C2649 1.388 . S
C2651 C2652 1.366 . S
C2652 C2651 1.366 . S
C2652 C2653 1.414 . S
C2652 C2655 1.499 . S
C2653 H2627 0.950 . S
C2653 C2652 1.414 . S
C2653 C2654 1.374 . S
C2654 H2628 0.950 . S
C2654 C2650 1.385 . S
C2654 C2653 1.374 . S
C2655 C2652 1.499 . S
C2655 C2656 1.373 . S
C2655 C2657 1.389 . S
C2656 H2629 0.950 . S
C2656 C2642 1.377 . S
C2656 C2655 1.373 . S
C2657 C2641 1.377 . S
C2657 C2655 1.389 . S
C2657 C2658 1.524 . S
C2658 C2657 1.524 . S
C2658 C2659 1.397 . S
C2658 C2663 1.363 . S
C2659 H2630 0.950 . S
C2659 C2658 1.397 . S
C2659 C2660 1.334 . S
C2660 H2631 0.950 . S
C2660 C2659 1.334 . S
C2660 C2661 1.287 . S
C2661 C2660 1.287 . S
C2661 C2662 1.524 . S
C2661 H2664 0.999 . S
C2662 H2632 0.950 . S
C2662 C2661 1.524 . S
C2662 C2663 1.415 . S
C2663 H2633 0.950 . S
C2663 C2658 1.363 . S
C2663 C2662 1.415 . S
H2664 C2661 0.999 . S
H2665 C2646 0.913 . S
H2666 C2684 0.951 . S
H2667 C2686 0.951 . S
H2668 C2688 0.950 . S
H2669 C2689 0.950 . S
H2670 C2691 0.950 . S
H2671 C2694 0.950 . S
H2672 C2695 0.950 . S
H2673 C2697 0.950 . S
H2674 C2698 0.950 . S
H2675 C2699 0.951 . S
H2676 C2701 0.951 . S
H2677 C2703 0.950 . S
H2678 C2704 0.950 . S
H2679 C2706 0.950 . S
H2680 C2709 0.950 . S
H2681 C2710 0.950 . S
H2682 C2712 0.950 . S
H2683 C2713 0.950 . S
C2684 H2666 0.951 . S
C2684 C2685 1.366 . S
C2684 C2686 1.388 . S
C2685 C2684 1.366 . S
C2685 C2689 1.385 . S
C2686 H2667 0.951 . S
C2686 C2684 1.388 . S
C2686 C2687 1.366 . S
C2687 C2686 1.366 . S
C2687 C2688 1.414 . S
C2687 C2690 1.499 . S
C2688 H2668 0.950 . S
C2688 C2687 1.414 . S
C2688 C2689 1.374 . S
C2689 H2669 0.950 . S
C2689 C2685 1.385 . S
C2689 C2688 1.374 . S
C2690 C2687 1.499 . S
C2690 C2691 1.373 . S
C2690 C2692 1.389 . S
C2691 H2670 0.950 . S
C2691 C2690 1.373 . S
C2691 C2707 1.377 . S
C2692 C2690 1.389 . S
C2692 C2693 1.524 . S
C2692 C2706 1.377 . S
C2693 C2692 1.524 . S
C2693 C2694 1.397 . S
C2693 C2698 1.363 . S
C2694 H2671 0.950 . S
C2694 C2693 1.397 . S
C2694 C2695 1.334 . S
C2695 H2672 0.950 . S
C2695 C2694 1.334 . S
C2695 C2696 1.287 . S
C2696 C2695 1.287 . S
C2696 C2697 1.524 . S
C2696 H2715 0.913 . S
C2697 H2673 0.950 . S
C2697 C2696 1.524 . S
C2697 C2698 1.415 . S
C2698 H2674 0.950 . S
C2698 C2693 1.363 . S
C2698 C2697 1.415 . S
C2699 H2675 0.951 . S
C2699 C2700 1.366 . S
C2699 C2701 1.388 . S
C2700 C2699 1.366 . S
C2700 C2704 1.385 . S
C2701 H2676 0.951 . S
C2701 C2699 1.388 . S
C2701 C2702 1.366 . S
C2702 C2701 1.366 . S
C2702 C2703 1.414 . S
C2702 C2705 1.499 . S
C2703 H2677 0.950 . S
C2703 C2702 1.414 . S
C2703 C2704 1.374 . S
C2704 H2678 0.950 . S
C2704 C2700 1.385 . S
C2704 C2703 1.374 . S
C2705 C2702 1.499 . S
C2705 C2706 1.373 . S
C2705 C2707 1.389 . S
C2706 H2679 0.950 . S
C2706 C2692 1.377 . S
C2706 C2705 1.373 . S
C2707 C2691 1.377 . S
C2707 C2705 1.389 . S
C2707 C2708 1.524 . S
C2708 C2707 1.524 . S
C2708 C2709 1.397 . S
C2708 C2713 1.363 . S
C2709 H2680 0.950 . S
C2709 C2708 1.397 . S
C2709 C2710 1.334 . S
C2710 H2681 0.950 . S
C2710 C2709 1.334 . S
C2710 C2711 1.287 . S
C2711 C2710 1.287 . S
C2711 C2712 1.524 . S
C2711 H2714 0.999 . S
C2712 H2682 0.950 . S
C2712 C2711 1.524 . S
C2712 C2713 1.415 . S
C2713 H2683 0.950 . S
C2713 C2708 1.363 . S
C2713 C2712 1.415 . S
H2714 C2711 0.999 . S
H2715 C2696 0.913 . S
H2716 C2734 0.951 . S
H2717 C2736 0.951 . S
H2718 C2738 0.950 . S
H2719 C2739 0.950 . S
H2720 C2741 0.950 . S
H2721 C2744 0.950 . S
H2722 C2745 0.950 . S
H2723 C2747 0.950 . S
H2724 C2748 0.950 . S
H2725 C2749 0.951 . S
H2726 C2751 0.951 . S
H2727 C2753 0.950 . S
H2728 C2754 0.950 . S
H2729 C2756 0.950 . S
H2730 C2759 0.950 . S
H2731 C2760 0.950 . S
H2732 C2762 0.950 . S
H2733 C2763 0.950 . S
C2734 H2716 0.951 . S
C2734 C2735 1.366 . S
C2734 C2736 1.388 . S
C2735 C2734 1.366 . S
C2735 C2739 1.385 . S
C2736 H2717 0.951 . S
C2736 C2734 1.388 . S
C2736 C2737 1.366 . S
C2737 C2736 1.366 . S
C2737 C2738 1.414 . S
C2737 C2740 1.499 . S
C2738 H2718 0.950 . S
C2738 C2737 1.414 . S
C2738 C2739 1.374 . S
C2739 H2719 0.950 . S
C2739 C2735 1.385 . S
C2739 C2738 1.374 . S
C2740 C2737 1.499 . S
C2740 C2741 1.373 . S
C2740 C2742 1.389 . S
C2741 H2720 0.950 . S
C2741 C2740 1.373 . S
C2741 C2757 1.377 . S
C2742 C2740 1.389 . S
C2742 C2743 1.524 . S
C2742 C2756 1.377 . S
C2743 C2742 1.524 . S
C2743 C2744 1.397 . S
C2743 C2748 1.363 . S
C2744 H2721 0.950 . S
C2744 C2743 1.397 . S
C2744 C2745 1.334 . S
C2745 H2722 0.950 . S
C2745 C2744 1.334 . S
C2745 C2746 1.287 . S
C2746 C2745 1.287 . S
C2746 C2747 1.524 . S
C2746 H2765 0.913 . S
C2747 H2723 0.950 . S
C2747 C2746 1.524 . S
C2747 C2748 1.415 . S
C2748 H2724 0.950 . S
C2748 C2743 1.363 . S
C2748 C2747 1.415 . S
C2749 H2725 0.951 . S
C2749 C2750 1.366 . S
C2749 C2751 1.388 . S
C2750 C2749 1.366 . S
C2750 C2754 1.385 . S
C2751 H2726 0.951 . S
C2751 C2749 1.388 . S
C2751 C2752 1.366 . S
C2752 C2751 1.366 . S
C2752 C2753 1.414 . S
C2752 C2755 1.499 . S
C2753 H2727 0.950 . S
C2753 C2752 1.414 . S
C2753 C2754 1.374 . S
C2754 H2728 0.950 . S
C2754 C2750 1.385 . S
C2754 C2753 1.374 . S
C2755 C2752 1.499 . S
C2755 C2756 1.373 . S
C2755 C2757 1.389 . S
C2756 H2729 0.950 . S
C2756 C2742 1.377 . S
C2756 C2755 1.373 . S
C2757 C2741 1.377 . S
C2757 C2755 1.389 . S
C2757 C2758 1.524 . S
C2758 C2757 1.524 . S
C2758 C2759 1.397 . S
C2758 C2763 1.363 . S
C2759 H2730 0.950 . S
C2759 C2758 1.397 . S
C2759 C2760 1.334 . S
C2760 H2731 0.950 . S
C2760 C2759 1.334 . S
C2760 C2761 1.287 . S
C2761 C2760 1.287 . S
C2761 C2762 1.524 . S
C2761 H2764 0.999 . S
C2762 H2732 0.950 . S
C2762 C2761 1.524 . S
C2762 C2763 1.415 . S
C2763 H2733 0.950 . S
C2763 C2758 1.363 . S
C2763 C2762 1.415 . S
H2764 C2761 0.999 . S
H2765 C2746 0.913 . S
H2766 C2784 0.951 . S
H2767 C2786 0.951 . S
H2768 C2788 0.950 . S
H2769 C2789 0.950 . S
H2770 C2791 0.950 . S
H2771 C2794 0.950 . S
H2772 C2795 0.950 . S
H2773 C2797 0.950 1_565 S
H2774 C2798 0.950 . S
H2775 C2799 0.951 . S
H2776 C2801 0.951 . S
H2777 C2803 0.950 1_565 S
H2778 C2804 0.950 . S
H2779 C2806 0.950 . S
H2780 C2809 0.950 . S
H2781 C2810 0.950 . S
H2782 C2812 0.950 . S
H2783 C2813 0.950 . S
C2784 H2766 0.951 . S
C2784 C2785 1.366 . S
C2784 C2786 1.388 . S
C2785 C2784 1.366 . S
C2785 C2789 1.385 . S
C2786 H2767 0.951 . S
C2786 C2784 1.388 . S
C2786 C2787 1.366 . S
C2787 C2786 1.366 . S
C2787 C2788 1.414 . S
C2787 C2790 1.499 . S
C2788 H2768 0.950 . S
C2788 C2787 1.414 . S
C2788 C2789 1.374 . S
C2789 H2769 0.950 . S
C2789 C2785 1.385 . S
C2789 C2788 1.374 . S
C2790 C2787 1.499 . S
C2790 C2791 1.373 . S
C2790 C2792 1.389 . S
C2791 H2770 0.950 . S
C2791 C2790 1.373 . S
C2791 C2807 1.377 . S
C2792 C2790 1.389 . S
C2792 C2793 1.524 . S
C2792 C2806 1.377 . S
C2793 C2792 1.524 . S
C2793 C2794 1.397 . S
C2793 C2798 1.363 . S
C2794 H2771 0.950 . S
C2794 C2793 1.397 . S
C2794 C2795 1.334 . S
C2795 H2772 0.950 . S
C2795 C2794 1.334 . S
C2795 C2796 1.287 . S
C2796 C2795 1.287 . S
C2796 C2797 1.524 . S
C2796 H2815 0.913 . S
C2797 H2773 0.950 1_545 S
C2797 C2796 1.524 . S
C2797 C2798 1.415 . S
C2798 H2774 0.950 . S
C2798 C2793 1.363 . S
C2798 C2797 1.415 . S
C2799 H2775 0.951 . S
C2799 C2800 1.366 . S
C2799 C2801 1.388 . S
C2800 C2799 1.366 . S
C2800 C2804 1.385 1_545 S
C2801 H2776 0.951 . S
C2801 C2799 1.388 . S
C2801 C2802 1.366 . S
C2802 C2801 1.366 . S
C2802 C2803 1.414 . S
C2802 C2805 1.499 . S
C2803 H2777 0.950 1_545 S
C2803 C2802 1.414 . S
C2803 C2804 1.374 1_545 S
C2804 H2778 0.950 . S
C2804 C2800 1.385 1_565 S
C2804 C2803 1.374 1_565 S
C2805 C2802 1.499 . S
C2805 C2806 1.373 . S
C2805 C2807 1.389 . S
C2806 H2779 0.950 . S
C2806 C2792 1.377 . S
C2806 C2805 1.373 . S
C2807 C2791 1.377 . S
C2807 C2805 1.389 . S
C2807 C2808 1.524 . S
C2808 C2807 1.524 . S
C2808 C2809 1.397 . S
C2808 C2813 1.363 . S
C2809 H2780 0.950 . S
C2809 C2808 1.397 . S
C2809 C2810 1.334 . S
C2810 H2781 0.950 . S
C2810 C2809 1.334 . S
C2810 C2811 1.287 . S
C2811 C2810 1.287 . S
C2811 C2812 1.524 . S
C2811 H2814 0.999 . S
C2812 H2782 0.950 . S
C2812 C2811 1.524 . S
C2812 C2813 1.415 . S
C2813 H2783 0.950 . S
C2813 C2808 1.363 . S
C2813 C2812 1.415 . S
H2814 C2811 0.999 . S
H2815 C2796 0.913 . S
H2816 C2834 0.951 . S
H2817 C2836 0.951 . S
H2818 C2838 0.950 . S
H2819 C2839 0.950 . S
H2820 C2841 0.950 . S
H2821 C2844 0.950 . S
H2822 C2845 0.950 . S
H2823 C2847 0.950 . S
H2824 C2848 0.950 . S
H2825 C2849 0.951 . S
H2826 C2851 0.951 . S
H2827 C2853 0.950 . S
H2828 C2854 0.950 . S
H2829 C2856 0.950 . S
H2830 C2859 0.950 . S
H2831 C2860 0.950 . S
H2832 C2862 0.950 . S
H2833 C2863 0.950 . S
C2834 H2816 0.951 . S
C2834 C2835 1.366 . S
C2834 C2836 1.388 . S
C2835 C2834 1.366 . S
C2835 C2839 1.385 . S
C2836 H2817 0.951 . S
C2836 C2834 1.388 . S
C2836 C2837 1.366 . S
C2837 C2836 1.366 . S
C2837 C2838 1.414 . S
C2837 C2840 1.499 . S
C2838 H2818 0.950 . S
C2838 C2837 1.414 . S
C2838 C2839 1.374 . S
C2839 H2819 0.950 . S
C2839 C2835 1.385 . S
C2839 C2838 1.374 . S
C2840 C2837 1.499 . S
C2840 C2841 1.373 . S
C2840 C2842 1.389 . S
C2841 H2820 0.950 . S
C2841 C2840 1.373 . S
C2841 C2857 1.377 . S
C2842 C2840 1.389 . S
C2842 C2843 1.524 . S
C2842 C2856 1.377 . S
C2843 C2842 1.524 . S
C2843 C2844 1.397 . S
C2843 C2848 1.363 . S
C2844 H2821 0.950 . S
C2844 C2843 1.397 . S
C2844 C2845 1.334 . S
C2845 H2822 0.950 . S
C2845 C2844 1.334 . S
C2845 C2846 1.287 . S
C2846 C2845 1.287 . S
C2846 C2847 1.524 . S
C2846 H2865 0.913 . S
C2847 H2823 0.950 . S
C2847 C2846 1.524 . S
C2847 C2848 1.415 . S
C2848 H2824 0.950 . S
C2848 C2843 1.363 . S
C2848 C2847 1.415 . S
C2849 H2825 0.951 . S
C2849 C2850 1.366 . S
C2849 C2851 1.388 . S
C2850 C2849 1.366 . S
C2850 C2854 1.385 . S
C2851 H2826 0.951 . S
C2851 C2849 1.388 . S
C2851 C2852 1.366 . S
C2852 C2851 1.366 . S
C2852 C2853 1.414 . S
C2852 C2855 1.499 . S
C2853 H2827 0.950 . S
C2853 C2852 1.414 . S
C2853 C2854 1.374 . S
C2854 H2828 0.950 . S
C2854 C2850 1.385 . S
C2854 C2853 1.374 . S
C2855 C2852 1.499 . S
C2855 C2856 1.373 . S
C2855 C2857 1.389 . S
C2856 H2829 0.950 . S
C2856 C2842 1.377 . S
C2856 C2855 1.373 . S
C2857 C2841 1.377 . S
C2857 C2855 1.389 . S
C2857 C2858 1.524 . S
C2858 C2857 1.524 . S
C2858 C2859 1.397 . S
C2858 C2863 1.363 . S
C2859 H2830 0.950 . S
C2859 C2858 1.397 . S
C2859 C2860 1.334 . S
C2860 H2831 0.950 . S
C2860 C2859 1.334 . S
C2860 C2861 1.287 . S
C2861 C2860 1.287 . S
C2861 C2862 1.524 . S
C2861 H2864 0.999 . S
C2862 H2832 0.950 . S
C2862 C2861 1.524 . S
C2862 C2863 1.415 . S
C2863 H2833 0.950 . S
C2863 C2858 1.363 . S
C2863 C2862 1.415 . S
H2864 C2861 0.999 . S
H2865 C2846 0.913 . S
H2866 C2884 0.951 . S
H2867 C2886 0.951 . S
H2868 C2888 0.950 . S
H2869 C2889 0.950 . S
H2870 C2891 0.950 . S
H2871 C2894 0.950 . S
H2872 C2895 0.950 . S
H2873 C2897 0.950 . S
H2874 C2898 0.950 . S
H2875 C2899 0.951 . S
H2876 C2901 0.951 . S
H2877 C2903 0.950 . S
H2878 C2904 0.950 . S
H2879 C2906 0.950 . S
H2880 C2909 0.950 . S
H2881 C2910 0.950 . S
H2882 C2912 0.950 . S
H2883 C2913 0.950 . S
C2884 H2866 0.951 . S
C2884 C2885 1.366 . S
C2884 C2886 1.388 . S
C2885 C2884 1.366 . S
C2885 C2889 1.385 . S
C2886 H2867 0.951 . S
C2886 C2884 1.388 . S
C2886 C2887 1.366 . S
C2887 C2886 1.366 . S
C2887 C2888 1.414 . S
C2887 C2890 1.499 . S
C2888 H2868 0.950 . S
C2888 C2887 1.414 . S
C2888 C2889 1.374 . S
C2889 H2869 0.950 . S
C2889 C2885 1.385 . S
C2889 C2888 1.374 . S
C2890 C2887 1.499 . S
C2890 C2891 1.373 . S
C2890 C2892 1.389 . S
C2891 H2870 0.950 . S
C2891 C2890 1.373 . S
C2891 C2907 1.377 . S
C2892 C2890 1.389 . S
C2892 C2893 1.524 . S
C2892 C2906 1.377 . S
C2893 C2892 1.524 . S
C2893 C2894 1.397 . S
C2893 C2898 1.363 . S
C2894 H2871 0.950 . S
C2894 C2893 1.397 . S
C2894 C2895 1.334 . S
C2895 H2872 0.950 . S
C2895 C2894 1.334 . S
C2895 C2896 1.287 . S
C2896 C2895 1.287 . S
C2896 C2897 1.524 . S
C2896 H2915 0.913 . S
C2897 H2873 0.950 . S
C2897 C2896 1.524 . S
C2897 C2898 1.415 . S
C2898 H2874 0.950 . S
C2898 C2893 1.363 . S
C2898 C2897 1.415 . S
C2899 H2875 0.951 . S
C2899 C2900 1.366 . S
C2899 C2901 1.388 . S
C2900 C2899 1.366 . S
C2900 C2904 1.385 . S
C2901 H2876 0.951 . S
C2901 C2899 1.388 . S
C2901 C2902 1.366 . S
C2902 C2901 1.366 . S
C2902 C2903 1.414 . S
C2902 C2905 1.499 . S
C2903 H2877 0.950 . S
C2903 C2902 1.414 . S
C2903 C2904 1.374 . S
C2904 H2878 0.950 . S
C2904 C2900 1.385 . S
C2904 C2903 1.374 . S
C2905 C2902 1.499 . S
C2905 C2906 1.373 . S
C2905 C2907 1.389 . S
C2906 H2879 0.950 . S
C2906 C2892 1.377 . S
C2906 C2905 1.373 . S
C2907 C2891 1.377 . S
C2907 C2905 1.389 . S
C2907 C2908 1.524 . S
C2908 C2907 1.524 . S
C2908 C2909 1.397 . S
C2908 C2913 1.363 . S
C2909 H2880 0.950 . S
C2909 C2908 1.397 . S
C2909 C2910 1.334 . S
C2910 H2881 0.950 . S
C2910 C2909 1.334 . S
C2910 C2911 1.287 . S
C2911 C2910 1.287 . S
C2911 C2912 1.524 . S
C2911 H2914 0.999 . S
C2912 H2882 0.950 . S
C2912 C2911 1.524 . S
C2912 C2913 1.415 . S
C2913 H2883 0.950 . S
C2913 C2908 1.363 . S
C2913 C2912 1.415 . S
H2914 C2911 0.999 . S
H2915 C2896 0.913 . S
H2916 C2934 0.951 . S
H2917 C2936 0.951 . S
H2918 C2938 0.950 . S
H2919 C2939 0.950 . S
H2920 C2941 0.950 . S
H2921 C2944 0.950 . S
H2922 C2945 0.950 . S
H2923 C2947 0.950 . S
H2924 C2948 0.950 . S
H2925 C2949 0.951 . S
H2926 C2951 0.951 . S
H2927 C2953 0.950 . S
H2928 C2954 0.950 . S
H2929 C2956 0.950 . S
H2930 C2959 0.950 . S
H2931 C2960 0.950 . S
H2932 C2962 0.950 . S
H2933 C2963 0.950 . S
C2934 H2916 0.951 . S
C2934 C2935 1.366 . S
C2934 C2936 1.388 . S
C2935 C2934 1.366 . S
C2935 C2939 1.385 . S
C2936 H2917 0.951 . S
C2936 C2934 1.388 . S
C2936 C2937 1.366 . S
C2937 C2936 1.366 . S
C2937 C2938 1.414 . S
C2937 C2940 1.499 . S
C2938 H2918 0.950 . S
C2938 C2937 1.414 . S
C2938 C2939 1.374 . S
C2939 H2919 0.950 . S
C2939 C2935 1.385 . S
C2939 C2938 1.374 . S
C2940 C2937 1.499 . S
C2940 C2941 1.373 . S
C2940 C2942 1.389 . S
C2941 H2920 0.950 . S
C2941 C2940 1.373 . S
C2941 C2957 1.377 . S
C2942 C2940 1.389 . S
C2942 C2943 1.524 . S
C2942 C2956 1.377 . S
C2943 C2942 1.524 . S
C2943 C2944 1.397 . S
C2943 C2948 1.363 . S
C2944 H2921 0.950 . S
C2944 C2943 1.397 . S
C2944 C2945 1.334 . S
C2945 H2922 0.950 . S
C2945 C2944 1.334 . S
C2945 C2946 1.287 . S
C2946 C2945 1.287 . S
C2946 C2947 1.524 . S
C2946 H2965 0.913 . S
C2947 H2923 0.950 . S
C2947 C2946 1.524 . S
C2947 C2948 1.415 . S
C2948 H2924 0.950 . S
C2948 C2943 1.363 . S
C2948 C2947 1.415 . S
C2949 H2925 0.951 . S
C2949 C2950 1.366 . S
C2949 C2951 1.388 . S
C2950 C2949 1.366 . S
C2950 C2954 1.385 . S
C2951 H2926 0.951 . S
C2951 C2949 1.388 . S
C2951 C2952 1.366 . S
C2952 C2951 1.366 . S
C2952 C2953 1.414 . S
C2952 C2955 1.499 . S
C2953 H2927 0.950 . S
C2953 C2952 1.414 . S
C2953 C2954 1.374 . S
C2954 H2928 0.950 . S
C2954 C2950 1.385 . S
C2954 C2953 1.374 . S
C2955 C2952 1.499 . S
C2955 C2956 1.373 . S
C2955 C2957 1.389 . S
C2956 H2929 0.950 . S
C2956 C2942 1.377 . S
C2956 C2955 1.373 . S
C2957 C2941 1.377 . S
C2957 C2955 1.389 . S
C2957 C2958 1.524 . S
C2958 C2957 1.524 . S
C2958 C2959 1.397 . S
C2958 C2963 1.363 . S
C2959 H2930 0.950 . S
C2959 C2958 1.397 . S
C2959 C2960 1.334 . S
C2960 H2931 0.950 . S
C2960 C2959 1.334 . S
C2960 C2961 1.287 . S
C2961 C2960 1.287 . S
C2961 C2962 1.524 . S
C2961 H2964 0.999 . S
C2962 H2932 0.950 . S
C2962 C2961 1.524 . S
C2962 C2963 1.415 . S
C2963 H2933 0.950 . S
C2963 C2958 1.363 . S
C2963 C2962 1.415 . S
H2964 C2961 0.999 . S
H2965 C2946 0.913 . S
H2966 C2984 0.951 . S
H2967 C2986 0.951 . S
H2968 C2988 0.950 . S
H2969 C2989 0.950 . S
H2970 C2991 0.950 . S
H2971 C2994 0.950 . S
H2972 C2995 0.950 . S
H2973 C2997 0.950 . S
H2974 C2998 0.950 . S
H2975 C2999 0.951 . S
H2976 C3001 0.951 . S
H2977 C3003 0.950 . S
H2978 C3004 0.950 . S
H2979 C3006 0.950 . S
H2980 C3009 0.950 . S
H2981 C3010 0.950 . S
H2982 C3012 0.950 . S
H2983 C3013 0.950 . S
C2984 H2966 0.951 . S
C2984 C2985 1.366 . S
C2984 C2986 1.388 . S
C2985 C2984 1.366 . S
C2985 C2989 1.385 . S
C2986 H2967 0.951 . S
C2986 C2984 1.388 . S
C2986 C2987 1.366 . S
C2987 C2986 1.366 . S
C2987 C2988 1.414 . S
C2987 C2990 1.499 . S
C2988 H2968 0.950 . S
C2988 C2987 1.414 . S
C2988 C2989 1.374 . S
C2989 H2969 0.950 . S
C2989 C2985 1.385 . S
C2989 C2988 1.374 . S
C2990 C2987 1.499 . S
C2990 C2991 1.373 . S
C2990 C2992 1.389 . S
C2991 H2970 0.950 . S
C2991 C2990 1.373 . S
C2991 C3007 1.377 . S
C2992 C2990 1.389 . S
C2992 C2993 1.524 . S
C2992 C3006 1.377 . S
C2993 C2992 1.524 . S
C2993 C2994 1.397 . S
C2993 C2998 1.363 . S
C2994 H2971 0.950 . S
C2994 C2993 1.397 . S
C2994 C2995 1.334 . S
C2995 H2972 0.950 . S
C2995 C2994 1.334 . S
C2995 C2996 1.287 . S
C2996 C2995 1.287 . S
C2996 C2997 1.524 . S
C2996 H3015 0.913 . S
C2997 H2973 0.950 . S
C2997 C2996 1.524 . S
C2997 C2998 1.415 . S
C2998 H2974 0.950 . S
C2998 C2993 1.363 . S
C2998 C2997 1.415 . S
C2999 H2975 0.951 . S
C2999 C3000 1.366 . S
C2999 C3001 1.388 . S
C3000 C2999 1.366 . S
C3000 C3004 1.385 . S
C3001 H2976 0.951 . S
C3001 C2999 1.388 . S
C3001 C3002 1.366 . S
C3002 C3001 1.366 . S
C3002 C3003 1.414 . S
C3002 C3005 1.499 . S
C3003 H2977 0.950 . S
C3003 C3002 1.414 . S
C3003 C3004 1.374 . S
C3004 H2978 0.950 . S
C3004 C3000 1.385 . S
C3004 C3003 1.374 . S
C3005 C3002 1.499 . S
C3005 C3006 1.373 . S
C3005 C3007 1.389 . S
C3006 H2979 0.950 . S
C3006 C2992 1.377 . S
C3006 C3005 1.373 . S
C3007 C2991 1.377 . S
C3007 C3005 1.389 . S
C3007 C3008 1.524 . S
C3008 C3007 1.524 . S
C3008 C3009 1.397 . S
C3008 C3013 1.363 . S
C3009 H2980 0.950 . S
C3009 C3008 1.397 . S
C3009 C3010 1.334 . S
C3010 H2981 0.950 . S
C3010 C3009 1.334 . S
C3010 C3011 1.287 . S
C3011 C3010 1.287 . S
C3011 C3012 1.524 . S
C3011 H3014 0.999 . S
C3012 H2982 0.950 . S
C3012 C3011 1.524 . S
C3012 C3013 1.415 . S
C3013 H2983 0.950 . S
C3013 C3008 1.363 . S
C3013 C3012 1.415 . S
H3014 C3011 0.999 . S
H3015 C2996 0.913 . S
H3016 C3034 0.951 . S
H3017 C3036 0.951 . S
H3018 C3038 0.950 . S
H3019 C3039 0.950 . S
H3020 C3041 0.950 . S
H3021 C3044 0.950 . S
H3022 C3045 0.950 . S
H3023 C3047 0.950 . S
H3024 C3048 0.950 . S
H3025 C3049 0.951 . S
H3026 C3051 0.951 . S
H3027 C3053 0.950 . S
H3028 C3054 0.950 . S
H3029 C3056 0.950 . S
H3030 C3059 0.950 . S
H3031 C3060 0.950 . S
H3032 C3062 0.950 . S
H3033 C3063 0.950 . S
C3034 H3016 0.951 . S
C3034 C3035 1.366 . S
C3034 C3036 1.388 . S
C3035 C3034 1.366 . S
C3035 C3039 1.385 . S
C3036 H3017 0.951 . S
C3036 C3034 1.388 . S
C3036 C3037 1.366 . S
C3037 C3036 1.366 . S
C3037 C3038 1.414 . S
C3037 C3040 1.499 . S
C3038 H3018 0.950 . S
C3038 C3037 1.414 . S
C3038 C3039 1.374 . S
C3039 H3019 0.950 . S
C3039 C3035 1.385 . S
C3039 C3038 1.374 . S
C3040 C3037 1.499 . S
C3040 C3041 1.373 . S
C3040 C3042 1.389 . S
C3041 H3020 0.950 . S
C3041 C3040 1.373 . S
C3041 C3057 1.377 . S
C3042 C3040 1.389 . S
C3042 C3043 1.524 . S
C3042 C3056 1.377 . S
C3043 C3042 1.524 . S
C3043 C3044 1.397 . S
C3043 C3048 1.363 . S
C3044 H3021 0.950 . S
C3044 C3043 1.397 . S
C3044 C3045 1.334 . S
C3045 H3022 0.950 . S
C3045 C3044 1.334 . S
C3045 C3046 1.287 . S
C3046 C3045 1.287 . S
C3046 C3047 1.524 . S
C3046 H3065 0.913 . S
C3047 H3023 0.950 . S
C3047 C3046 1.524 . S
C3047 C3048 1.415 . S
C3048 H3024 0.950 . S
C3048 C3043 1.363 . S
C3048 C3047 1.415 . S
C3049 H3025 0.951 . S
C3049 C3050 1.366 . S
C3049 C3051 1.388 . S
C3050 C3049 1.366 . S
C3050 C3054 1.385 . S
C3051 H3026 0.951 . S
C3051 C3049 1.388 . S
C3051 C3052 1.366 . S
C3052 C3051 1.366 . S
C3052 C3053 1.414 . S
C3052 C3055 1.499 . S
C3053 H3027 0.950 . S
C3053 C3052 1.414 . S
C3053 C3054 1.374 . S
C3054 H3028 0.950 . S
C3054 C3050 1.385 . S
C3054 C3053 1.374 . S
C3055 C3052 1.499 . S
C3055 C3056 1.373 . S
C3055 C3057 1.389 . S
C3056 H3029 0.950 . S
C3056 C3042 1.377 . S
C3056 C3055 1.373 . S
C3057 C3041 1.377 . S
C3057 C3055 1.389 . S
C3057 C3058 1.524 . S
C3058 C3057 1.524 . S
C3058 C3059 1.397 . S
C3058 C3063 1.363 . S
C3059 H3030 0.950 . S
C3059 C3058 1.397 . S
C3059 C3060 1.334 . S
C3060 H3031 0.950 . S
C3060 C3059 1.334 . S
C3060 C3061 1.287 . S
C3061 C3060 1.287 . S
C3061 C3062 1.524 . S
C3061 H3064 0.999 . S
C3062 H3032 0.950 . S
C3062 C3061 1.524 . S
C3062 C3063 1.415 . S
C3063 H3033 0.950 . S
C3063 C3058 1.363 . S
C3063 C3062 1.415 . S
H3064 C3061 0.999 . S
H3065 C3046 0.913 . S
H3066 C3084 0.951 . S
H3067 C3086 0.951 . S
H3068 C3088 0.950 . S
H3069 C3089 0.950 . S
H3070 C3091 0.950 . S
H3071 C3094 0.950 . S
H3072 C3095 0.950 . S
H3073 C3097 0.950 . S
H3074 C3098 0.950 . S
H3075 C3099 0.951 . S
H3076 C3101 0.951 . S
H3077 C3103 0.950 . S
H3078 C3104 0.950 . S
H3079 C3106 0.950 . S
H3080 C3109 0.950 . S
H3081 C3110 0.950 . S
H3082 C3112 0.950 . S
H3083 C3113 0.950 . S
C3084 H3066 0.951 . S
C3084 C3085 1.366 . S
C3084 C3086 1.388 . S
C3085 C3084 1.366 . S
C3085 C3089 1.385 . S
C3086 H3067 0.951 . S
C3086 C3084 1.388 . S
C3086 C3087 1.366 . S
C3087 C3086 1.366 . S
C3087 C3088 1.414 . S
C3087 C3090 1.499 . S
C3088 H3068 0.950 . S
C3088 C3087 1.414 . S
C3088 C3089 1.374 . S
C3089 H3069 0.950 . S
C3089 C3085 1.385 . S
C3089 C3088 1.374 . S
C3090 C3087 1.499 . S
C3090 C3091 1.373 . S
C3090 C3092 1.389 . S
C3091 H3070 0.950 . S
C3091 C3090 1.373 . S
C3091 C3107 1.377 . S
C3092 C3090 1.389 . S
C3092 C3093 1.524 . S
C3092 C3106 1.377 . S
C3093 C3092 1.524 . S
C3093 C3094 1.397 . S
C3093 C3098 1.363 . S
C3094 H3071 0.950 . S
C3094 C3093 1.397 . S
C3094 C3095 1.334 . S
C3095 H3072 0.950 . S
C3095 C3094 1.334 . S
C3095 C3096 1.287 . S
C3096 C3095 1.287 . S
C3096 C3097 1.524 . S
C3096 H3115 0.913 . S
C3097 H3073 0.950 . S
C3097 C3096 1.524 . S
C3097 C3098 1.415 . S
C3098 H3074 0.950 . S
C3098 C3093 1.363 . S
C3098 C3097 1.415 . S
C3099 H3075 0.951 . S
C3099 C3100 1.366 . S
C3099 C3101 1.388 . S
C3100 C3099 1.366 . S
C3100 C3104 1.385 . S
C3101 H3076 0.951 . S
C3101 C3099 1.388 . S
C3101 C3102 1.366 . S
C3102 C3101 1.366 . S
C3102 C3103 1.414 . S
C3102 C3105 1.499 . S
C3103 H3077 0.950 . S
C3103 C3102 1.414 . S
C3103 C3104 1.374 . S
C3104 H3078 0.950 . S
C3104 C3100 1.385 . S
C3104 C3103 1.374 . S
C3105 C3102 1.499 . S
C3105 C3106 1.373 . S
C3105 C3107 1.389 . S
C3106 H3079 0.950 . S
C3106 C3092 1.377 . S
C3106 C3105 1.373 . S
C3107 C3091 1.377 . S
C3107 C3105 1.389 . S
C3107 C3108 1.524 . S
C3108 C3107 1.524 . S
C3108 C3109 1.397 . S
C3108 C3113 1.363 . S
C3109 H3080 0.950 . S
C3109 C3108 1.397 . S
C3109 C3110 1.334 . S
C3110 H3081 0.950 . S
C3110 C3109 1.334 . S
C3110 C3111 1.287 . S
C3111 C3110 1.287 . S
C3111 C3112 1.524 . S
C3111 H3114 0.999 . S
C3112 H3082 0.950 . S
C3112 C3111 1.524 . S
C3112 C3113 1.415 . S
C3113 H3083 0.950 . S
C3113 C3108 1.363 . S
C3113 C3112 1.415 . S
H3114 C3111 0.999 . S
H3115 C3096 0.913 . S
H3116 C3134 0.951 . S
H3117 C3136 0.951 . S
H3118 C3138 0.950 . S
H3119 C3139 0.950 . S
H3120 C3141 0.950 . S
H3121 C3144 0.950 . S
H3122 C3145 0.950 . S
H3123 C3147 0.950 . S
H3124 C3148 0.950 . S
H3125 C3149 0.951 . S
H3126 C3151 0.951 . S
H3127 C3153 0.950 . S
H3128 C3154 0.950 . S
H3129 C3156 0.950 . S
H3130 C3159 0.950 . S
H3131 C3160 0.950 . S
H3132 C3162 0.950 . S
H3133 C3163 0.950 . S
C3134 H3116 0.951 . S
C3134 C3135 1.366 . S
C3134 C3136 1.388 . S
C3135 C3134 1.366 . S
C3135 C3139 1.385 . S
C3136 H3117 0.951 . S
C3136 C3134 1.388 . S
C3136 C3137 1.366 . S
C3137 C3136 1.366 . S
C3137 C3138 1.414 . S
C3137 C3140 1.499 . S
C3138 H3118 0.950 . S
C3138 C3137 1.414 . S
C3138 C3139 1.374 . S
C3139 H3119 0.950 . S
C3139 C3135 1.385 . S
C3139 C3138 1.374 . S
C3140 C3137 1.499 . S
C3140 C3141 1.373 . S
C3140 C3142 1.389 . S
C3141 H3120 0.950 . S
C3141 C3140 1.373 . S
C3141 C3157 1.377 . S
C3142 C3140 1.389 . S
C3142 C3143 1.524 . S
C3142 C3156 1.377 . S
C3143 C3142 1.524 . S
C3143 C3144 1.397 . S
C3143 C3148 1.363 . S
C3144 H3121 0.950 . S
C3144 C3143 1.397 . S
C3144 C3145 1.334 . S
C3145 H3122 0.950 . S
C3145 C3144 1.334 . S
C3145 C3146 1.287 . S
C3146 C3145 1.287 . S
C3146 C3147 1.524 . S
C3146 H3165 0.913 . S
C3147 H3123 0.950 . S
C3147 C3146 1.524 . S
C3147 C3148 1.415 . S
C3148 H3124 0.950 . S
C3148 C3143 1.363 . S
C3148 C3147 1.415 . S
C3149 H3125 0.951 . S
C3149 C3150 1.366 . S
C3149 C3151 1.388 . S
C3150 C3149 1.366 . S
C3150 C3154 1.385 . S
C3151 H3126 0.951 . S
C3151 C3149 1.388 . S
C3151 C3152 1.366 . S
C3152 C3151 1.366 . S
C3152 C3153 1.414 . S
C3152 C3155 1.499 . S
C3153 H3127 0.950 . S
C3153 C3152 1.414 . S
C3153 C3154 1.374 . S
C3154 H3128 0.950 . S
C3154 C3150 1.385 . S
C3154 C3153 1.374 . S
C3155 C3152 1.499 . S
C3155 C3156 1.373 . S
C3155 C3157 1.389 . S
C3156 H3129 0.950 . S
C3156 C3142 1.377 . S
C3156 C3155 1.373 . S
C3157 C3141 1.377 . S
C3157 C3155 1.389 . S
C3157 C3158 1.524 . S
C3158 C3157 1.524 . S
C3158 C3159 1.397 . S
C3158 C3163 1.363 . S
C3159 H3130 0.950 . S
C3159 C3158 1.397 . S
C3159 C3160 1.334 . S
C3160 H3131 0.950 . S
C3160 C3159 1.334 . S
C3160 C3161 1.287 . S
C3161 C3160 1.287 . S
C3161 C3162 1.524 . S
C3161 H3164 0.999 . S
C3162 H3132 0.950 . S
C3162 C3161 1.524 . S
C3162 C3163 1.415 . S
C3163 H3133 0.950 . S
C3163 C3158 1.363 . S
C3163 C3162 1.415 . S
H3164 C3161 0.999 . S
H3165 C3146 0.913 . S
H3166 C3184 0.951 . S
H3167 C3186 0.951 . S
H3168 C3188 0.950 . S
H3169 C3189 0.950 . S
H3170 C3191 0.950 . S
H3171 C3194 0.950 . S
H3172 C3195 0.950 . S
H3173 C3197 0.950 . S
H3174 C3198 0.950 . S
H3175 C3199 0.951 . S
H3176 C3201 0.951 . S
H3177 C3203 0.950 . S
H3178 C3204 0.950 . S
H3179 C3206 0.950 . S
H3180 C3209 0.950 . S
H3181 C3210 0.950 . S
H3182 C3212 0.950 . S
H3183 C3213 0.950 . S
C3184 H3166 0.951 . S
C3184 C3185 1.366 . S
C3184 C3186 1.388 . S
C3185 C3184 1.366 . S
C3185 C3189 1.385 . S
C3186 H3167 0.951 . S
C3186 C3184 1.388 . S
C3186 C3187 1.366 . S
C3187 C3186 1.366 . S
C3187 C3188 1.414 . S
C3187 C3190 1.499 . S
C3188 H3168 0.950 . S
C3188 C3187 1.414 . S
C3188 C3189 1.374 . S
C3189 H3169 0.950 . S
C3189 C3185 1.385 . S
C3189 C3188 1.374 . S
C3190 C3187 1.499 . S
C3190 C3191 1.373 . S
C3190 C3192 1.389 . S
C3191 H3170 0.950 . S
C3191 C3190 1.373 . S
C3191 C3207 1.377 . S
C3192 C3190 1.389 . S
C3192 C3193 1.524 . S
C3192 C3206 1.377 . S
C3193 C3192 1.524 . S
C3193 C3194 1.397 . S
C3193 C3198 1.363 . S
C3194 H3171 0.950 . S
C3194 C3193 1.397 . S
C3194 C3195 1.334 . S
C3195 H3172 0.950 . S
C3195 C3194 1.334 . S
C3195 C3196 1.287 . S
C3196 C3195 1.287 . S
C3196 C3197 1.524 . S
C3196 H3215 0.913 . S
C3197 H3173 0.950 . S
C3197 C3196 1.524 . S
C3197 C3198 1.415 . S
C3198 H3174 0.950 . S
C3198 C3193 1.363 . S
C3198 C3197 1.415 . S
C3199 H3175 0.951 . S
C3199 C3200 1.366 . S
C3199 C3201 1.388 . S
C3200 C3199 1.366 . S
C3200 C3204 1.385 . S
C3201 H3176 0.951 . S
C3201 C3199 1.388 . S
C3201 C3202 1.366 . S
C3202 C3201 1.366 . S
C3202 C3203 1.414 . S
C3202 C3205 1.499 . S
C3203 H3177 0.950 . S
C3203 C3202 1.414 . S
C3203 C3204 1.374 . S
C3204 H3178 0.950 . S
C3204 C3200 1.385 . S
C3204 C3203 1.374 . S
C3205 C3202 1.499 . S
C3205 C3206 1.373 . S
C3205 C3207 1.389 . S
C3206 H3179 0.950 . S
C3206 C3192 1.377 . S
C3206 C3205 1.373 . S
C3207 C3191 1.377 . S
C3207 C3205 1.389 . S
C3207 C3208 1.524 . S
C3208 C3207 1.524 . S
C3208 C3209 1.397 . S
C3208 C3213 1.363 . S
C3209 H3180 0.950 . S
C3209 C3208 1.397 . S
C3209 C3210 1.334 . S
C3210 H3181 0.950 . S
C3210 C3209 1.334 . S
C3210 C3211 1.287 . S
C3211 C3210 1.287 . S
C3211 C3212 1.524 . S
C3211 H3214 0.999 . S
C3212 H3182 0.950 . S
C3212 C3211 1.524 . S
C3212 C3213 1.415 . S
C3213 H3183 0.950 . S
C3213 C3208 1.363 . S
C3213 C3212 1.415 . S
H3214 C3211 0.999 . S
H3215 C3196 0.913 . S
H3216 C3234 0.951 . S
H3217 C3236 0.951 . S
H3218 C3238 0.950 . S
H3219 C3239 0.957 . S
H3220 C3241 0.950 . S
H3221 C3244 0.950 . S
H3222 C3245 0.950 . S
H3223 C3247 0.950 . S
H3224 C3248 0.950 . S
H3225 C3249 0.951 . S
H3226 C3251 0.951 1_556 S
H3227 C3253 0.950 . S
H3228 C3254 0.950 . S
H3229 C3256 0.950 . S
H3230 C3259 0.950 . S
H3231 C3260 0.950 . S
H3232 C3262 0.938 1_556 S
H3233 C3263 0.950 . S
C3234 H3216 0.951 . S
C3234 C3235 1.366 1_554 S
C3234 C3236 1.388 . S
C3235 C3234 1.366 1_556 S
C3235 C3239 1.384 1_565 S
C3236 H3217 0.951 . S
C3236 C3234 1.388 . S
C3236 C3237 1.366 . S
C3237 C3236 1.366 . S
C3237 C3238 1.414 1_554 S
C3237 C3240 1.499 . S
C3238 H3218 0.950 . S
C3238 C3237 1.414 1_556 S
C3238 C3239 1.367 1_565 S
C3239 H3219 0.957 . S
C3239 C3235 1.384 1_545 S
C3239 C3238 1.367 1_545 S
C3240 C3237 1.499 . S
C3240 C3241 1.373 . S
C3240 C3242 1.389 . S
C3241 H3220 0.950 . S
C3241 C3240 1.373 . S
C3241 C3257 1.377 . S
C3242 C3240 1.389 . S
C3242 C3243 1.524 . S
C3242 C3256 1.377 . S
C3243 C3242 1.524 . S
C3243 C3244 1.397 1_554 S
C3243 C3248 1.363 . S
C3244 H3221 0.950 . S
C3244 C3243 1.397 1_556 S
C3244 C3245 1.334 . S
C3245 H3222 0.950 . S
C3245 C3244 1.334 . S
C3245 C3246 1.287 1_556 S
C3246 C3245 1.287 1_554 S
C3246 C3247 1.524 . S
C3246 H3265 0.917 . S
C3247 H3223 0.950 . S
C3247 C3246 1.524 . S
C3247 C3248 1.415 . S
C3248 H3224 0.950 . S
C3248 C3243 1.363 . S
C3248 C3247 1.415 . S
C3249 H3225 0.951 . S
C3249 C3250 1.366 . S
C3249 C3251 1.388 . S
C3250 C3249 1.366 . S
C3250 C3254 1.385 . S
C3251 H3226 0.951 1_554 S
C3251 C3249 1.388 . S
C3251 C3252 1.366 . S
C3252 C3251 1.366 . S
C3252 C3253 1.414 . S
C3252 C3255 1.499 . S
C3253 H3227 0.950 . S
C3253 C3252 1.414 . S
C3253 C3254 1.374 . S
C3254 H3228 0.950 . S
C3254 C3250 1.385 . S
C3254 C3253 1.374 . S
C3255 C3252 1.499 . S
C3255 C3256 1.373 . S
C3255 C3257 1.389 . S
C3256 H3229 0.950 . S
C3256 C3242 1.377 . S
C3256 C3255 1.373 . S
C3257 C3241 1.377 . S
C3257 C3255 1.389 . S
C3257 C3258 1.524 . S
C3258 C3257 1.524 . S
C3258 C3259 1.397 . S
C3258 C3263 1.363 1_554 S
C3259 H3230 0.950 . S
C3259 C3258 1.397 . S
C3259 C3260 1.334 . S
C3260 H3231 0.950 . S
C3260 C3259 1.334 . S
C3260 C3261 1.287 1_565 S
C3261 C3260 1.287 1_545 S
C3261 C3262 1.539 . S
C3261 H3264 0.999 . S
C3262 H3232 0.938 1_554 S
C3262 C3261 1.539 . S
C3262 C3263 1.414 1_544 S
C3263 H3233 0.950 . S
C3263 C3258 1.363 1_556 S
C3263 C3262 1.414 1_566 S
H3264 C3261 0.999 . S
H3265 C3246 0.917 . S
H3266 C3284 0.957 . S
H3267 C3286 0.951 . S
H3268 C3288 0.950 . S
H3269 C3289 0.950 . S
H3270 C3291 0.950 . S
H3271 C3294 0.950 . S
H3272 C3295 0.950 . S
H3273 C3297 0.950 . S
H3274 C3298 0.950 1_554 S
H3275 C3299 0.951 . S
H3276 C3301 0.951 . S
H3277 C3303 0.950 . S
H3278 C3304 0.950 . S
H3279 C3306 0.950 . S
H3280 C3309 0.950 . S
H3281 C3310 0.950 . S
H3282 C3312 0.950 . S
H3283 C3313 0.950 . S
C3284 H3266 0.957 . S
C3284 C3285 1.354 1_554 S
C3284 C3286 1.394 . S
C3285 C3284 1.354 1_556 S
C3285 C3289 1.385 . S
C3286 H3267 0.951 . S
C3286 C3284 1.394 . S
C3286 C3287 1.366 . S
C3287 C3286 1.366 . S
C3287 C3288 1.414 1_554 S
C3287 C3290 1.499 . S
C3288 H3268 0.950 . S
C3288 C3287 1.414 1_556 S
C3288 C3289 1.374 . S
C3289 H3269 0.950 . S
C3289 C3285 1.385 . S
C3289 C3288 1.374 . S
C3290 C3287 1.499 . S
C3290 C3291 1.373 . S
C3290 C3292 1.395 . S
C3291 H3270 0.950 . S
C3291 C3290 1.373 . S
C3291 C3307 1.377 . S
C3292 C3290 1.395 . S
C3292 C3293 1.513 1_554 S
C3292 C3306 1.382 . S
C3293 C3292 1.513 1_556 S
C3293 C3294 1.397 . S
C3293 C3298 1.363 . S
C3294 H3271 0.950 . S
C3294 C3293 1.397 . S
C3294 C3295 1.334 . S
C3295 H3272 0.950 . S
C3295 C3294 1.334 . S
C3295 C3296 1.287 . S
C3296 C3295 1.287 . S
C3296 C3297 1.524 . S
C3296 H3315 0.913 . S
C3297 H3273 0.950 . S
C3297 C3296 1.524 . S
C3297 C3298 1.415 . S
C3298 H3274 0.950 1_556 S
C3298 C3293 1.363 . S
C3298 C3297 1.415 . S
C3299 H3275 0.951 . S
C3299 C3300 1.366 . S
C3299 C3301 1.388 . S
C3300 C3299 1.366 . S
C3300 C3304 1.385 . S
C3301 H3276 0.951 . S
C3301 C3299 1.388 . S
C3301 C3302 1.366 . S
C3302 C3301 1.366 . S
C3302 C3303 1.414 . S
C3302 C3305 1.499 . S
C3303 H3277 0.950 . S
C3303 C3302 1.414 . S
C3303 C3304 1.374 . S
C3304 H3278 0.950 . S
C3304 C3300 1.385 . S
C3304 C3303 1.374 . S
C3305 C3302 1.499 . S
C3305 C3306 1.373 . S
C3305 C3307 1.389 . S
C3306 H3279 0.950 . S
C3306 C3292 1.382 . S
C3306 C3305 1.373 . S
C3307 C3291 1.377 . S
C3307 C3305 1.389 . S
C3307 C3308 1.524 . S
C3308 C3307 1.524 . S
C3308 C3309 1.397 . S
C3308 C3313 1.363 . S
C3309 H3280 0.950 . S
C3309 C3308 1.397 . S
C3309 C3310 1.334 . S
C3310 H3281 0.950 . S
C3310 C3309 1.334 . S
C3310 C3311 1.287 . S
C3311 C3310 1.287 . S
C3311 C3312 1.524 . S
C3311 H3314 0.999 . S
C3312 H3282 0.950 . S
C3312 C3311 1.524 . S
C3312 C3313 1.415 . S
C3313 H3283 0.950 . S
C3313 C3308 1.363 . S
C3313 C3312 1.415 . S
H3314 C3311 0.999 . S
H3315 C3296 0.913 . S
H3316 C3334 0.951 . S
H3317 C3336 0.951 . S
H3318 C3338 0.950 . S
H3319 C3339 0.950 . S
H3320 C3341 0.950 . S
H3321 C3344 0.950 . S
H3322 C3345 0.950 . S
H3323 C3347 0.950 . S
H3324 C3348 0.950 . S
H3325 C3349 0.951 . S
H3326 C3351 0.951 . S
H3327 C3353 0.950 . S
H3328 C3354 0.950 . S
H3329 C3356 0.950 . S
H3330 C3359 0.950 . S
H3331 C3360 0.950 . S
H3332 C3362 0.950 . S
H3333 C3363 0.950 . S
C3334 H3316 0.951 . S
C3334 C3335 1.366 . S
C3334 C3336 1.388 . S
C3335 C3334 1.366 . S
C3335 C3339 1.385 . S
C3336 H3317 0.951 . S
C3336 C3334 1.388 . S
C3336 C3337 1.366 . S
C3337 C3336 1.366 . S
C3337 C3338 1.414 . S
C3337 C3340 1.499 . S
C3338 H3318 0.950 . S
C3338 C3337 1.414 . S
C3338 C3339 1.374 . S
C3339 H3319 0.950 . S
C3339 C3335 1.385 . S
C3339 C3338 1.374 . S
C3340 C3337 1.499 . S
C3340 C3341 1.373 . S
C3340 C3342 1.389 . S
C3341 H3320 0.950 . S
C3341 C3340 1.373 . S
C3341 C3357 1.377 . S
C3342 C3340 1.389 . S
C3342 C3343 1.524 . S
C3342 C3356 1.377 . S
C3343 C3342 1.524 . S
C3343 C3344 1.397 . S
C3343 C3348 1.363 . S
C3344 H3321 0.950 . S
C3344 C3343 1.397 . S
C3344 C3345 1.334 . S
C3345 H3322 0.950 . S
C3345 C3344 1.334 . S
C3345 C3346 1.287 . S
C3346 C3345 1.287 . S
C3346 C3347 1.524 . S
C3346 H3365 0.913 . S
C3347 H3323 0.950 . S
C3347 C3346 1.524 . S
C3347 C3348 1.415 . S
C3348 H3324 0.950 . S
C3348 C3343 1.363 . S
C3348 C3347 1.415 . S
C3349 H3325 0.951 . S
C3349 C3350 1.366 . S
C3349 C3351 1.388 . S
C3350 C3349 1.366 . S
C3350 C3354 1.385 . S
C3351 H3326 0.951 . S
C3351 C3349 1.388 . S
C3351 C3352 1.366 . S
C3352 C3351 1.366 . S
C3352 C3353 1.414 . S
C3352 C3355 1.499 . S
C3353 H3327 0.950 . S
C3353 C3352 1.414 . S
C3353 C3354 1.374 . S
C3354 H3328 0.950 . S
C3354 C3350 1.385 . S
C3354 C3353 1.374 . S
C3355 C3352 1.499 . S
C3355 C3356 1.373 . S
C3355 C3357 1.389 . S
C3356 H3329 0.950 . S
C3356 C3342 1.377 . S
C3356 C3355 1.373 . S
C3357 C3341 1.377 . S
C3357 C3355 1.389 . S
C3357 C3358 1.524 . S
C3358 C3357 1.524 . S
C3358 C3359 1.397 . S
C3358 C3363 1.363 . S
C3359 H3330 0.950 . S
C3359 C3358 1.397 . S
C3359 C3360 1.334 . S
C3360 H3331 0.950 . S
C3360 C3359 1.334 . S
C3360 C3361 1.287 . S
C3361 C3360 1.287 . S
C3361 C3362 1.524 . S
C3361 H3364 0.999 . S
C3362 H3332 0.950 . S
C3362 C3361 1.524 . S
C3362 C3363 1.415 . S
C3363 H3333 0.950 . S
C3363 C3358 1.363 . S
C3363 C3362 1.415 . S
H3364 C3361 0.999 . S
H3365 C3346 0.913 . S
H3366 C3384 0.951 . S
H3367 C3386 0.951 . S
H3368 C3388 0.950 . S
H3369 C3389 0.950 . S
H3370 C3391 0.950 . S
H3371 C3394 0.950 . S
H3372 C3395 0.950 . S
H3373 C3397 0.950 . S
H3374 C3398 0.951 1_545 S
H3375 C3399 0.951 . S
H3376 C3401 0.951 . S
H3377 C3403 0.950 1_545 S
H3378 C3404 0.950 . S
H3379 C3406 0.950 . S
H3380 C3409 0.950 . S
H3381 C3410 0.950 . S
H3382 C3412 0.950 . S
H3383 C3413 0.950 . S
C3384 H3366 0.951 . S
C3384 C3385 1.366 . S
C3384 C3386 1.388 . S
C3385 C3384 1.366 . S
C3385 C3389 1.385 . S
C3386 H3367 0.951 . S
C3386 C3384 1.388 . S
C3386 C3387 1.366 . S
C3387 C3386 1.366 . S
C3387 C3388 1.414 . S
C3387 C3390 1.499 . S
C3388 H3368 0.950 . S
C3388 C3387 1.414 . S
C3388 C3389 1.374 . S
C3389 H3369 0.950 . S
C3389 C3385 1.385 . S
C3389 C3388 1.374 . S
C3390 C3387 1.499 . S
C3390 C3391 1.373 . S
C3390 C3392 1.389 . S
C3391 H3370 0.950 . S
C3391 C3390 1.373 . S
C3391 C3407 1.377 . S
C3392 C3390 1.389 . S
C3392 C3393 1.524 . S
C3392 C3406 1.377 . S
C3393 C3392 1.524 . S
C3393 C3394 1.397 . S
C3393 C3398 1.363 . S
C3394 H3371 0.950 . S
C3394 C3393 1.397 . S
C3394 C3395 1.334 . S
C3395 H3372 0.950 . S
C3395 C3394 1.334 . S
C3395 C3396 1.287 . S
C3396 C3395 1.287 . S
C3396 C3397 1.524 1_565 S
C3396 H3415 0.913 1_565 S
C3397 H3373 0.950 . S
C3397 C3396 1.524 1_545 S
C3397 C3398 1.415 1_545 S
C3398 H3374 0.951 1_565 S
C3398 C3393 1.363 . S
C3398 C3397 1.415 1_565 S
C3399 H3375 0.951 . S
C3399 C3400 1.366 . S
C3399 C3401 1.388 . S
C3400 C3399 1.366 . S
C3400 C3404 1.385 1_565 S
C3401 H3376 0.951 . S
C3401 C3399 1.388 . S
C3401 C3402 1.366 . S
C3402 C3401 1.366 . S
C3402 C3403 1.414 . S
C3402 C3405 1.499 . S
C3403 H3377 0.950 1_565 S
C3403 C3402 1.414 . S
C3403 C3404 1.374 1_565 S
C3404 H3378 0.950 . S
C3404 C3400 1.385 1_545 S
C3404 C3403 1.374 1_545 S
C3405 C3402 1.499 . S
C3405 C3406 1.373 . S
C3405 C3407 1.389 . S
C3406 H3379 0.950 . S
C3406 C3392 1.377 . S
C3406 C3405 1.373 . S
C3407 C3391 1.377 . S
C3407 C3405 1.389 . S
C3407 C3408 1.524 . S
C3408 C3407 1.524 . S
C3408 C3409 1.397 . S
C3408 C3413 1.363 . S
C3409 H3380 0.950 . S
C3409 C3408 1.397 . S
C3409 C3410 1.334 . S
C3410 H3381 0.950 . S
C3410 C3409 1.334 . S
C3410 C3411 1.287 . S
C3411 C3410 1.287 . S
C3411 C3412 1.524 . S
C3411 H3414 0.999 . S
C3412 H3382 0.950 . S
C3412 C3411 1.524 . S
C3412 C3413 1.415 . S
C3413 H3383 0.950 . S
C3413 C3408 1.363 . S
C3413 C3412 1.415 . S
H3414 C3411 0.999 . S
H3415 C3396 0.913 1_545 S
H3416 C3434 0.951 . S
H3417 C3436 0.951 . S
H3418 C3438 0.950 . S
H3419 C3439 0.950 . S
H3420 C3441 0.949 1_554 S
H3421 C3444 0.950 . S
H3422 C3445 0.950 . S
H3423 C3447 0.950 1_565 S
H3424 C3448 0.950 . S
H3425 C3449 0.951 . S
H3426 C3451 0.951 . S
H3427 C3453 0.950 1_565 S
H3428 C3454 0.950 . S
H3429 C3456 0.950 . S
H3430 C3459 0.950 . S
H3431 C3460 0.950 . S
H3432 C3462 0.950 . S
H3433 C3463 0.950 . S
C3434 H3416 0.951 . S
C3434 C3435 1.366 . S
C3434 C3436 1.388 . S
C3435 C3434 1.366 . S
C3435 C3439 1.385 . S
C3436 H3417 0.951 . S
C3436 C3434 1.388 . S
C3436 C3437 1.366 . S
C3437 C3436 1.366 . S
C3437 C3438 1.414 . S
C3437 C3440 1.499 . S
C3438 H3418 0.950 . S
C3438 C3437 1.414 . S
C3438 C3439 1.374 . S
C3439 H3419 0.950 . S
C3439 C3435 1.385 . S
C3439 C3438 1.374 . S
C3440 C3437 1.499 . S
C3440 C3441 1.375 . S
C3440 C3442 1.389 . S
C3441 H3420 0.949 1_556 S
C3441 C3440 1.375 . S
C3441 C3457 1.376 1_556 S
C3442 C3440 1.389 . S
C3442 C3443 1.524 . S
C3442 C3456 1.377 . S
C3443 C3442 1.524 . S
C3443 C3444 1.397 . S
C3443 C3448 1.363 . S
C3444 H3421 0.950 . S
C3444 C3443 1.397 . S
C3444 C3445 1.334 . S
C3445 H3422 0.950 . S
C3445 C3444 1.334 . S
C3445 C3446 1.287 . S
C3446 C3445 1.287 . S
C3446 C3447 1.524 . S
C3446 H3465 0.913 . S
C3447 H3423 0.950 1_545 S
C3447 C3446 1.524 . S
C3447 C3448 1.415 . S
C3448 H3424 0.950 . S
C3448 C3443 1.363 . S
C3448 C3447 1.415 . S
C3449 H3425 0.951 . S
C3449 C3450 1.366 . S
C3449 C3451 1.388 . S
C3450 C3449 1.366 . S
C3450 C3454 1.385 1_545 S
C3451 H3426 0.951 . S
C3451 C3449 1.388 . S
C3451 C3452 1.366 1_554 S
C3452 C3451 1.366 1_556 S
C3452 C3453 1.414 . S
C3452 C3455 1.499 . S
C3453 H3427 0.950 1_545 S
C3453 C3452 1.414 . S
C3453 C3454 1.374 1_546 S
C3454 H3428 0.950 . S
C3454 C3450 1.385 1_565 S
C3454 C3453 1.374 1_564 S
C3455 C3452 1.499 . S
C3455 C3456 1.373 . S
C3455 C3457 1.389 1_556 S
C3456 H3429 0.950 . S
C3456 C3442 1.377 . S
C3456 C3455 1.373 . S
C3457 C3441 1.376 1_554 S
C3457 C3455 1.389 1_554 S
C3457 C3458 1.524 . S
C3458 C3457 1.524 . S
C3458 C3459 1.397 . S
C3458 C3463 1.363 . S
C3459 H3430 0.950 . S
C3459 C3458 1.397 . S
C3459 C3460 1.334 . S
C3460 H3431 0.950 . S
C3460 C3459 1.334 . S
C3460 C3461 1.287 . S
C3461 C3460 1.287 . S
C3461 C3462 1.524 . S
C3461 H3464 0.999 . S
C3462 H3432 0.950 . S
C3462 C3461 1.524 . S
C3462 C3463 1.415 . S
C3463 H3433 0.950 . S
C3463 C3458 1.363 . S
C3463 C3462 1.415 . S
H3464 C3461 0.999 . S
H3465 C3446 0.913 . S
H3466 C3484 0.951 . S
H3467 C3486 0.951 . S
H3468 C3488 0.950 . S
H3469 C3489 0.950 . S
H3470 C3491 0.974 . S
H3471 C3494 0.950 . S
H3472 C3495 0.950 . S
H3473 C3497 0.950 . S
H3474 C3498 0.950 . S
H3475 C3499 0.951 . S
H3476 C3501 0.951 . S
H3477 C3503 0.950 . S
H3478 C3504 0.948 1_556 S
H3479 C3506 0.950 . S
H3480 C3509 0.950 . S
H3481 C3510 0.950 . S
H3482 C3512 0.950 . S
H3483 C3513 0.950 . S
C3484 H3466 0.951 . S
C3484 C3485 1.366 . S
C3484 C3486 1.388 . S
C3485 C3484 1.366 . S
C3485 C3489 1.385 . S
C3486 H3467 0.951 . S
C3486 C3484 1.388 . S
C3486 C3487 1.366 . S
C3487 C3486 1.366 . S
C3487 C3488 1.414 . S
C3487 C3490 1.499 . S
C3488 H3468 0.950 . S
C3488 C3487 1.414 . S
C3488 C3489 1.374 . S
C3489 H3469 0.950 . S
C3489 C3485 1.385 . S
C3489 C3488 1.374 . S
C3490 C3487 1.499 . S
C3490 C3491 1.340 1_556 S
C3490 C3492 1.389 . S
C3491 H3470 0.974 . S
C3491 C3490 1.340 1_554 S
C3491 C3507 1.387 . S
C3492 C3490 1.389 . S
C3492 C3493 1.524 . S
C3492 C3506 1.377 . S
C3493 C3492 1.524 . S
C3493 C3494 1.397 . S
C3493 C3498 1.363 . S
C3494 H3471 0.950 . S
C3494 C3493 1.397 . S
C3494 C3495 1.334 . S
C3495 H3472 0.950 . S
C3495 C3494 1.334 . S
C3495 C3496 1.287 . S
C3496 C3495 1.287 . S
C3496 C3497 1.524 . S
C3496 H3515 0.913 . S
C3497 H3473 0.950 . S
C3497 C3496 1.524 . S
C3497 C3498 1.415 . S
C3498 H3474 0.950 . S
C3498 C3493 1.363 . S
C3498 C3497 1.415 . S
C3499 H3475 0.951 . S
C3499 C3500 1.366 . S
C3499 C3501 1.388 . S
C3500 C3499 1.366 . S
C3500 C3504 1.385 . S
C3501 H3476 0.951 . S
C3501 C3499 1.388 . S
C3501 C3502 1.366 1_554 S
C3502 C3501 1.366 1_556 S
C3502 C3503 1.414 . S
C3502 C3505 1.499 . S
C3503 H3477 0.950 . S
C3503 C3502 1.414 . S
C3503 C3504 1.374 1_556 S
C3504 H3478 0.948 1_554 S
C3504 C3500 1.385 . S
C3504 C3503 1.374 1_554 S
C3505 C3502 1.499 . S
C3505 C3506 1.373 . S
C3505 C3507 1.389 1_556 S
C3506 H3479 0.950 . S
C3506 C3492 1.377 . S
C3506 C3505 1.373 . S
C3507 C3491 1.387 . S
C3507 C3505 1.389 1_554 S
C3507 C3508 1.524 . S
C3508 C3507 1.524 . S
C3508 C3509 1.397 . S
C3508 C3513 1.363 . S
C3509 H3480 0.950 . S
C3509 C3508 1.397 . S
C3509 C3510 1.334 . S
C3510 H3481 0.950 . S
C3510 C3509 1.334 . S
C3510 C3511 1.287 . S
C3511 C3510 1.287 . S
C3511 C3512 1.524 . S
C3511 H3514 0.999 . S
C3512 H3482 0.950 . S
C3512 C3511 1.524 . S
C3512 C3513 1.415 . S
C3513 H3483 0.950 . S
C3513 C3508 1.363 . S
C3513 C3512 1.415 . S
H3514 C3511 0.999 . S
H3515 C3496 0.913 . S
H3516 C3534 0.951 . S
H3517 C3536 0.951 . S
H3518 C3538 0.950 . S
H3519 C3539 0.950 . S
H3520 C3541 0.950 . S
H3521 C3544 0.950 . S
H3522 C3545 0.950 . S
H3523 C3547 0.950 . S
H3524 C3548 0.950 . S
H3525 C3549 0.951 . S
H3526 C3551 0.951 . S
H3527 C3553 0.950 . S
H3528 C3554 0.950 . S
H3529 C3556 0.950 . S
H3530 C3559 0.950 . S
H3531 C3560 0.950 . S
H3532 C3562 0.950 . S
H3533 C3563 0.950 . S
C3534 H3516 0.951 . S
C3534 C3535 1.366 . S
C3534 C3536 1.388 . S
C3535 C3534 1.366 . S
C3535 C3539 1.385 . S
C3536 H3517 0.951 . S
C3536 C3534 1.388 . S
C3536 C3537 1.366 . S
C3537 C3536 1.366 . S
C3537 C3538 1.414 . S
C3537 C3540 1.499 . S
C3538 H3518 0.950 . S
C3538 C3537 1.414 . S
C3538 C3539 1.374 . S
C3539 H3519 0.950 . S
C3539 C3535 1.385 . S
C3539 C3538 1.374 . S
C3540 C3537 1.499 . S
C3540 C3541 1.373 . S
C3540 C3542 1.389 . S
C3541 H3520 0.950 . S
C3541 C3540 1.373 . S
C3541 C3557 1.377 . S
C3542 C3540 1.389 . S
C3542 C3543 1.524 . S
C3542 C3556 1.377 . S
C3543 C3542 1.524 . S
C3543 C3544 1.397 . S
C3543 C3548 1.363 . S
C3544 H3521 0.950 . S
C3544 C3543 1.397 . S
C3544 C3545 1.334 . S
C3545 H3522 0.950 . S
C3545 C3544 1.334 . S
C3545 C3546 1.287 . S
C3546 C3545 1.287 . S
C3546 C3547 1.524 . S
C3546 H3565 0.913 . S
C3547 H3523 0.950 . S
C3547 C3546 1.524 . S
C3547 C3548 1.415 . S
C3548 H3524 0.950 . S
C3548 C3543 1.363 . S
C3548 C3547 1.415 . S
C3549 H3525 0.951 . S
C3549 C3550 1.366 . S
C3549 C3551 1.388 . S
C3550 C3549 1.366 . S
C3550 C3554 1.385 . S
C3551 H3526 0.951 . S
C3551 C3549 1.388 . S
C3551 C3552 1.366 . S
C3552 C3551 1.366 . S
C3552 C3553 1.414 . S
C3552 C3555 1.499 . S
C3553 H3527 0.950 . S
C3553 C3552 1.414 . S
C3553 C3554 1.374 . S
C3554 H3528 0.950 . S
C3554 C3550 1.385 . S
C3554 C3553 1.374 . S
C3555 C3552 1.499 . S
C3555 C3556 1.373 . S
C3555 C3557 1.389 . S
C3556 H3529 0.950 . S
C3556 C3542 1.377 . S
C3556 C3555 1.373 . S
C3557 C3541 1.377 . S
C3557 C3555 1.389 . S
C3557 C3558 1.524 . S
C3558 C3557 1.524 . S
C3558 C3559 1.397 . S
C3558 C3563 1.363 . S
C3559 H3530 0.950 . S
C3559 C3558 1.397 . S
C3559 C3560 1.334 . S
C3560 H3531 0.950 . S
C3560 C3559 1.334 . S
C3560 C3561 1.287 . S
C3561 C3560 1.287 . S
C3561 C3562 1.524 . S
C3561 H3564 0.999 . S
C3562 H3532 0.950 . S
C3562 C3561 1.524 . S
C3562 C3563 1.415 . S
C3563 H3533 0.950 . S
C3563 C3558 1.363 . S
C3563 C3562 1.415 . S
H3564 C3561 0.999 . S
H3565 C3546 0.913 . S
H3566 C3584 0.951 . S
H3567 C3586 0.951 . S
H3568 C3588 0.950 . S
H3569 C3589 0.950 . S
H3570 C3591 0.950 . S
H3571 C3594 0.950 . S
H3572 C3595 0.950 . S
H3573 C3597 0.950 . S
H3574 C3598 0.950 . S
H3575 C3599 0.951 . S
H3576 C3601 0.951 1_565 S
H3577 C3603 0.950 . S
H3578 C3604 0.950 . S
H3579 C3606 0.950 . S
H3580 C3609 0.950 . S
H3581 C3610 0.950 . S
H3582 C3612 0.950 1_565 S
H3583 C3613 0.950 . S
C3584 H3566 0.951 . S
C3584 C3585 1.366 . S
C3584 C3586 1.388 . S
C3585 C3584 1.366 . S
C3585 C3589 1.385 . S
C3586 H3567 0.951 . S
C3586 C3584 1.388 . S
C3586 C3587 1.366 . S
C3587 C3586 1.366 . S
C3587 C3588 1.414 . S
C3587 C3590 1.499 . S
C3588 H3568 0.950 . S
C3588 C3587 1.414 . S
C3588 C3589 1.374 . S
C3589 H3569 0.950 . S
C3589 C3585 1.385 . S
C3589 C3588 1.374 . S
C3590 C3587 1.499 . S
C3590 C3591 1.373 . S
C3590 C3592 1.389 . S
C3591 H3570 0.950 . S
C3591 C3590 1.373 . S
C3591 C3607 1.377 . S
C3592 C3590 1.389 . S
C3592 C3593 1.524 . S
C3592 C3606 1.377 . S
C3593 C3592 1.524 . S
C3593 C3594 1.397 . S
C3593 C3598 1.363 . S
C3594 H3571 0.950 . S
C3594 C3593 1.397 . S
C3594 C3595 1.334 . S
C3595 H3572 0.950 . S
C3595 C3594 1.334 . S
C3595 C3596 1.287 . S
C3596 C3595 1.287 . S
C3596 C3597 1.524 . S
C3596 H3615 0.913 . S
C3597 H3573 0.950 . S
C3597 C3596 1.524 . S
C3597 C3598 1.415 . S
C3598 H3574 0.950 . S
C3598 C3593 1.363 . S
C3598 C3597 1.415 . S
C3599 H3575 0.951 . S
C3599 C3600 1.366 1_565 S
C3599 C3601 1.388 1_565 S
C3600 C3599 1.366 1_545 S
C3600 C3604 1.385 . S
C3601 H3576 0.951 1_545 S
C3601 C3599 1.388 1_545 S
C3601 C3602 1.366 . S
C3602 C3601 1.366 . S
C3602 C3603 1.414 . S
C3602 C3605 1.499 . S
C3603 H3577 0.950 . S
C3603 C3602 1.414 . S
C3603 C3604 1.374 . S
C3604 H3578 0.950 . S
C3604 C3600 1.385 . S
C3604 C3603 1.374 . S
C3605 C3602 1.499 . S
C3605 C3606 1.373 . S
C3605 C3607 1.389 . S
C3606 H3579 0.950 . S
C3606 C3592 1.377 . S
C3606 C3605 1.373 . S
C3607 C3591 1.377 . S
C3607 C3605 1.389 . S
C3607 C3608 1.524 . S
C3608 C3607 1.524 . S
C3608 C3609 1.397 . S
C3608 C3613 1.363 . S
C3609 H3580 0.950 . S
C3609 C3608 1.397 . S
C3609 C3610 1.334 . S
C3610 H3581 0.950 . S
C3610 C3609 1.334 . S
C3610 C3611 1.287 . S
C3611 C3610 1.287 . S
C3611 C3612 1.524 . S
C3611 H3614 0.999 . S
C3612 H3582 0.950 1_545 S
C3612 C3611 1.524 . S
C3612 C3613 1.415 . S
C3613 H3583 0.950 . S
C3613 C3608 1.363 . S
C3613 C3612 1.415 . S
H3614 C3611 0.999 . S
H3615 C3596 0.913 . S
H3616 C3634 0.967 . S
H3617 C3636 0.951 1_455 S
H3618 C3638 0.950 . S
H3619 C3639 0.950 . S
H3620 C3641 0.950 . S
H3621 C3644 0.950 . S
H3622 C3645 0.950 . S
H3623 C3647 0.950 . S
H3624 C3648 0.950 . S
H3625 C3649 0.951 1_554 S
H3626 C3651 0.951 . S
H3627 C3653 0.950 . S
H3628 C3654 0.950 . S
H3629 C3656 0.950 . S
H3630 C3659 0.950 . S
H3631 C3660 0.950 . S
H3632 C3662 0.950 . S
H3633 C3663 0.950 . S
C3634 H3616 0.967 . S
C3634 C3635 1.366 . S
C3634 C3636 1.388 . S
C3635 C3634 1.366 . S
C3635 C3639 1.385 . S
C3636 H3617 0.951 1_655 S
C3636 C3634 1.388 . S
C3636 C3637 1.366 . S
C3637 C3636 1.366 . S
C3637 C3638 1.414 . S
C3637 C3640 1.499 . S
C3638 H3618 0.950 . S
C3638 C3637 1.414 . S
C3638 C3639 1.374 . S
C3639 H3619 0.950 . S
C3639 C3635 1.385 . S
C3639 C3638 1.374 . S
C3640 C3637 1.499 . S
C3640 C3641 1.373 . S
C3640 C3642 1.389 1_655 S
C3641 H3620 0.950 . S
C3641 C3640 1.373 . S
C3641 C3657 1.377 . S
C3642 C3640 1.389 1_455 S
C3642 C3643 1.524 . S
C3642 C3656 1.377 . S
C3643 C3642 1.524 . S
C3643 C3644 1.397 . S
C3643 C3648 1.363 . S
C3644 H3621 0.950 . S
C3644 C3643 1.397 . S
C3644 C3645 1.334 . S
C3645 H3622 0.950 . S
C3645 C3644 1.334 . S
C3645 C3646 1.287 . S
C3646 C3645 1.287 . S
C3646 C3647 1.524 . S
C3646 H3665 0.913 . S
C3647 H3623 0.950 . S
C3647 C3646 1.524 . S
C3647 C3648 1.415 . S
C3648 H3624 0.950 . S
C3648 C3643 1.363 . S
C3648 C3647 1.415 . S
C3649 H3625 0.951 1_556 S
C3649 C3650 1.366 1_655 S
C3649 C3651 1.388 . S
C3650 C3649 1.366 1_455 S
C3650 C3654 1.385 . S
C3651 H3626 0.951 . S
C3651 C3649 1.388 . S
C3651 C3652 1.366 . S
C3652 C3651 1.366 . S
C3652 C3653 1.414 1_655 S
C3652 C3655 1.499 . S
C3653 H3627 0.950 . S
C3653 C3652 1.414 1_455 S
C3653 C3654 1.374 . S
C3654 H3628 0.950 . S
C3654 C3650 1.385 . S
C3654 C3653 1.374 . S
C3655 C3652 1.499 . S
C3655 C3656 1.373 1_655 S
C3655 C3657 1.389 . S
C3656 H3629 0.950 . S
C3656 C3642 1.377 . S
C3656 C3655 1.373 1_455 S
C3657 C3641 1.377 . S
C3657 C3655 1.389 . S
C3657 C3658 1.524 . S
C3658 C3657 1.524 . S
C3658 C3659 1.397 . S
C3658 C3663 1.363 . S
C3659 H3630 0.950 . S
C3659 C3658 1.397 . S
C3659 C3660 1.334 . S
C3660 H3631 0.950 . S
C3660 C3659 1.334 . S
C3660 C3661 1.287 . S
C3661 C3660 1.287 . S
C3661 C3662 1.524 . S
C3661 H3664 0.999 . S
C3662 H3632 0.950 . S
C3662 C3661 1.524 . S
C3662 C3663 1.415 . S
C3663 H3633 0.950 . S
C3663 C3658 1.363 . S
C3663 C3662 1.415 . S
H3664 C3661 0.999 . S
H3665 C3646 0.913 . S
H3666 C3684 0.951 . S
H3667 C3686 0.947 1_545 S
H3668 C3688 0.950 . S
H3669 C3689 0.950 . S
H3670 C3691 0.950 . S
H3671 C3694 0.950 . S
H3672 C3695 0.950 . S
H3673 C3697 0.950 . S
H3674 C3698 0.953 1_545 S
H3675 C3699 0.951 . S
H3676 C3701 0.951 . S
H3677 C3703 0.950 . S
H3678 C3704 0.950 . S
H3679 C3706 0.950 . S
H3680 C3709 0.950 . S
H3681 C3710 0.950 . S
H3682 C3712 0.950 . S
H3683 C3713 0.950 . S
C3684 H3666 0.951 . S
C3684 C3685 1.366 . S
C3684 C3686 1.414 . S
C3685 C3684 1.366 . S
C3685 C3689 1.385 . S
C3686 H3667 0.947 1_565 S
C3686 C3684 1.414 . S
C3686 C3687 1.343 1_565 S
C3687 C3686 1.343 1_545 S
C3687 C3688 1.414 . S
C3687 C3690 1.499 . S
C3688 H3668 0.950 . S
C3688 C3687 1.414 . S
C3688 C3689 1.374 1_545 S
C3689 H3669 0.950 . S
C3689 C3685 1.385 . S
C3689 C3688 1.374 1_565 S
C3690 C3687 1.499 . S
C3690 C3691 1.373 . S
C3690 C3692 1.389 . S
C3691 H3670 0.950 . S
C3691 C3690 1.373 . S
C3691 C3707 1.377 . S
C3692 C3690 1.389 . S
C3692 C3693 1.524 . S
C3692 C3706 1.377 . S
C3693 C3692 1.524 . S
C3693 C3694 1.397 1_545 S
C3693 C3698 1.364 1_545 S
C3694 H3671 0.950 . S
C3694 C3693 1.397 1_565 S
C3694 C3695 1.334 . S
C3695 H3672 0.950 . S
C3695 C3694 1.334 . S
C3695 C3696 1.287 . S
C3696 C3695 1.287 . S
C3696 C3697 1.524 . S
C3696 H3715 0.913 . S
C3697 H3673 0.950 . S
C3697 C3696 1.524 . S
C3697 C3698 1.411 . S
C3698 H3674 0.953 1_565 S
C3698 C3693 1.364 1_565 S
C3698 C3697 1.411 . S
C3699 H3675 0.951 . S
C3699 C3700 1.366 . S
C3699 C3701 1.388 . S
C3700 C3699 1.366 . S
C3700 C3704 1.385 . S
C3701 H3676 0.951 . S
C3701 C3699 1.388 . S
C3701 C3702 1.366 . S
C3702 C3701 1.366 . S
C3702 C3703 1.414 . S
C3702 C3705 1.499 . S
C3703 H3677 0.950 . S
C3703 C3702 1.414 . S
C3703 C3704 1.374 . S
C3704 H3678 0.950 . S
C3704 C3700 1.385 . S
C3704 C3703 1.374 . S
C3705 C3702 1.499 . S
C3705 C3706 1.373 . S
C3705 C3707 1.389 . S
C3706 H3679 0.950 . S
C3706 C3692 1.377 . S
C3706 C3705 1.373 . S
C3707 C3691 1.377 . S
C3707 C3705 1.389 . S
C3707 C3708 1.524 . S
C3708 C3707 1.524 . S
C3708 C3709 1.397 . S
C3708 C3713 1.363 . S
C3709 H3680 0.950 . S
C3709 C3708 1.397 . S
C3709 C3710 1.334 . S
C3710 H3681 0.950 . S
C3710 C3709 1.334 . S
C3710 C3711 1.287 . S
C3711 C3710 1.287 . S
C3711 C3712 1.524 . S
C3711 H3714 0.999 . S
C3712 H3682 0.950 . S
C3712 C3711 1.524 . S
C3712 C3713 1.415 . S
C3713 H3683 0.950 . S
C3713 C3708 1.363 . S
C3713 C3712 1.415 . S
H3714 C3711 0.999 . S
H3715 C3696 0.913 . S
H3716 C3734 0.951 . S
H3717 C3736 0.951 . S
H3718 C3738 0.950 . S
H3719 C3739 0.950 . S
H3720 C3741 0.950 . S
H3721 C3744 0.950 . S
H3722 C3745 0.950 . S
H3723 C3747 0.950 . S
H3724 C3748 0.950 . S
H3725 C3749 0.951 . S
H3726 C3751 0.951 . S
H3727 C3753 0.950 . S
H3728 C3754 0.948 . S
H3729 C3756 0.950 . S
H3730 C3759 0.950 . S
H3731 C3760 0.950 . S
H3732 C3762 0.947 . S
H3733 C3763 0.950 . S
C3734 H3716 0.951 . S
C3734 C3735 1.366 . S
C3734 C3736 1.388 . S
C3735 C3734 1.366 . S
C3735 C3739 1.385 . S
C3736 H3717 0.951 . S
C3736 C3734 1.388 . S
C3736 C3737 1.366 . S
C3737 C3736 1.366 . S
C3737 C3738 1.414 . S
C3737 C3740 1.499 . S
C3738 H3718 0.950 . S
C3738 C3737 1.414 . S
C3738 C3739 1.374 . S
C3739 H3719 0.950 . S
C3739 C3735 1.385 . S
C3739 C3738 1.374 . S
C3740 C3737 1.499 . S
C3740 C3741 1.373 1_655 S
C3740 C3742 1.389 . S
C3741 H3720 0.950 . S
C3741 C3740 1.373 1_455 S
C3741 C3757 1.377 . S
C3742 C3740 1.389 . S
C3742 C3743 1.524 . S
C3742 C3756 1.377 . S
C3743 C3742 1.524 . S
C3743 C3744 1.397 . S
C3743 C3748 1.363 . S
C3744 H3721 0.950 . S
C3744 C3743 1.397 . S
C3744 C3745 1.334 . S
C3745 H3722 0.950 . S
C3745 C3744 1.334 . S
C3745 C3746 1.287 . S
C3746 C3745 1.287 . S
C3746 C3747 1.524 . S
C3746 H3765 0.913 . S
C3747 H3723 0.950 . S
C3747 C3746 1.524 . S
C3747 C3748 1.415 . S
C3748 H3724 0.950 . S
C3748 C3743 1.363 . S
C3748 C3747 1.415 . S
C3749 H3725 0.951 . S
C3749 C3750 1.366 . S
C3749 C3751 1.388 . S
C3750 C3749 1.366 . S
C3750 C3754 1.381 1_465 S
C3751 H3726 0.951 . S
C3751 C3749 1.388 . S
C3751 C3752 1.365 1_465 S
C3752 C3751 1.365 1_645 S
C3752 C3753 1.414 . S
C3752 C3755 1.499 . S
C3753 H3727 0.950 . S
C3753 C3752 1.414 . S
C3753 C3754 1.376 . S
C3754 H3728 0.948 . S
C3754 C3750 1.381 1_645 S
C3754 C3753 1.376 . S
C3755 C3752 1.499 . S
C3755 C3756 1.373 . S
C3755 C3757 1.389 1_655 S
C3756 H3729 0.950 . S
C3756 C3742 1.377 . S
C3756 C3755 1.373 . S
C3757 C3741 1.377 . S
C3757 C3755 1.389 1_455 S
C3757 C3758 1.524 . S
C3758 C3757 1.524 . S
C3758 C3759 1.397 . S
C3758 C3763 1.363 . S
C3759 H3730 0.950 . S
C3759 C3758 1.397 . S
C3759 C3760 1.334 . S
C3760 H3731 0.950 . S
C3760 C3759 1.334 . S
C3760 C3761 1.287 . S
C3761 C3760 1.287 . S
C3761 C3762 1.524 1_545 S
C3761 H3764 0.999 1_545 S
C3762 H3732 0.947 . S
C3762 C3761 1.524 1_565 S
C3762 C3763 1.417 1_565 S
C3763 H3733 0.950 . S
C3763 C3758 1.363 . S
C3763 C3762 1.417 1_545 S
H3764 C3761 0.999 1_565 S
H3765 C3746 0.913 . S
H3766 C3784 0.951 . S
H3767 C3786 0.951 . S
H3768 C3788 0.950 . S
H3769 C3789 0.950 . S
H3770 C3791 0.950 . S
H3771 C3794 0.950 . S
H3772 C3795 0.950 . S
H3773 C3797 0.950 . S
H3774 C3798 0.950 . S
H3775 C3799 0.951 . S
H3776 C3801 0.951 . S
H3777 C3803 0.950 . S
H3778 C3804 0.950 . S
H3779 C3806 0.950 . S
H3780 C3809 0.950 . S
H3781 C3810 0.950 . S
H3782 C3812 0.950 . S
H3783 C3813 0.950 . S
C3784 H3766 0.951 . S
C3784 C3785 1.366 . S
C3784 C3786 1.388 . S
C3785 C3784 1.366 . S
C3785 C3789 1.385 . S
C3786 H3767 0.951 . S
C3786 C3784 1.388 . S
C3786 C3787 1.366 . S
C3787 C3786 1.366 . S
C3787 C3788 1.414 . S
C3787 C3790 1.499 . S
C3788 H3768 0.950 . S
C3788 C3787 1.414 . S
C3788 C3789 1.374 . S
C3789 H3769 0.950 . S
C3789 C3785 1.385 . S
C3789 C3788 1.374 . S
C3790 C3787 1.499 . S
C3790 C3791 1.373 . S
C3790 C3792 1.389 . S
C3791 H3770 0.950 . S
C3791 C3790 1.373 . S
C3791 C3807 1.377 . S
C3792 C3790 1.389 . S
C3792 C3793 1.524 . S
C3792 C3806 1.377 . S
C3793 C3792 1.524 . S
C3793 C3794 1.397 . S
C3793 C3798 1.363 . S
C3794 H3771 0.950 . S
C3794 C3793 1.397 . S
C3794 C3795 1.334 . S
C3795 H3772 0.950 . S
C3795 C3794 1.334 . S
C3795 C3796 1.287 . S
C3796 C3795 1.287 . S
C3796 C3797 1.524 . S
C3796 H3815 0.913 . S
C3797 H3773 0.950 . S
C3797 C3796 1.524 . S
C3797 C3798 1.415 . S
C3798 H3774 0.950 . S
C3798 C3793 1.363 . S
C3798 C3797 1.415 . S
C3799 H3775 0.951 . S
C3799 C3800 1.366 . S
C3799 C3801 1.388 . S
C3800 C3799 1.366 . S
C3800 C3804 1.385 . S
C3801 H3776 0.951 . S
C3801 C3799 1.388 . S
C3801 C3802 1.366 . S
C3802 C3801 1.366 . S
C3802 C3803 1.414 . S
C3802 C3805 1.499 . S
C3803 H3777 0.950 . S
C3803 C3802 1.414 . S
C3803 C3804 1.374 . S
C3804 H3778 0.950 . S
C3804 C3800 1.385 . S
C3804 C3803 1.374 . S
C3805 C3802 1.499 . S
C3805 C3806 1.373 . S
C3805 C3807 1.389 . S
C3806 H3779 0.950 . S
C3806 C3792 1.377 . S
C3806 C3805 1.373 . S
C3807 C3791 1.377 . S
C3807 C3805 1.389 . S
C3807 C3808 1.524 . S
C3808 C3807 1.524 . S
C3808 C3809 1.397 . S
C3808 C3813 1.363 . S
C3809 H3780 0.950 . S
C3809 C3808 1.397 . S
C3809 C3810 1.334 . S
C3810 H3781 0.950 . S
C3810 C3809 1.334 . S
C3810 C3811 1.287 . S
C3811 C3810 1.287 . S
C3811 C3812 1.524 . S
C3811 H3814 0.999 . S
C3812 H3782 0.950 . S
C3812 C3811 1.524 . S
C3812 C3813 1.415 . S
C3813 H3783 0.950 . S
C3813 C3808 1.363 . S
C3813 C3812 1.415 . S
H3814 C3811 0.999 . S
H3815 C3796 0.913 . S
H3816 C3834 0.951 . S
H3817 C3836 0.951 . S
H3818 C3838 0.950 . S
H3819 C3839 0.950 . S
H3820 C3841 0.950 . S
H3821 C3844 0.950 . S
H3822 C3845 0.950 . S
H3823 C3847 0.950 . S
H3824 C3848 0.950 . S
H3825 C3849 0.951 . S
H3826 C3851 0.951 . S
H3827 C3853 0.950 . S
H3828 C3854 0.950 . S
H3829 C3856 0.950 . S
H3830 C3859 0.950 . S
H3831 C3860 0.950 . S
H3832 C3862 0.950 . S
H3833 C3863 0.950 . S
C3834 H3816 0.951 . S
C3834 C3835 1.366 . S
C3834 C3836 1.388 . S
C3835 C3834 1.366 . S
C3835 C3839 1.385 1_455 S
C3836 H3817 0.951 . S
C3836 C3834 1.388 . S
C3836 C3837 1.366 . S
C3837 C3836 1.366 . S
C3837 C3838 1.414 1_455 S
C3837 C3840 1.499 . S
C3838 H3818 0.950 . S
C3838 C3837 1.414 1_655 S
C3838 C3839 1.374 . S
C3839 H3819 0.950 . S
C3839 C3835 1.385 1_655 S
C3839 C3838 1.374 . S
C3840 C3837 1.499 . S
C3840 C3841 1.373 1_455 S
C3840 C3842 1.389 . S
C3841 H3820 0.950 . S
C3841 C3840 1.373 1_655 S
C3841 C3857 1.377 . S
C3842 C3840 1.389 . S
C3842 C3843 1.524 . S
C3842 C3856 1.377 . S
C3843 C3842 1.524 . S
C3843 C3844 1.397 . S
C3843 C3848 1.363 . S
C3844 H3821 0.950 . S
C3844 C3843 1.397 . S
C3844 C3845 1.334 . S
C3845 H3822 0.950 . S
C3845 C3844 1.334 . S
C3845 C3846 1.287 . S
C3846 C3845 1.287 . S
C3846 C3847 1.524 . S
C3846 H3865 0.913 . S
C3847 H3823 0.950 . S
C3847 C3846 1.524 . S
C3847 C3848 1.415 . S
C3848 H3824 0.950 . S
C3848 C3843 1.363 . S
C3848 C3847 1.415 . S
C3849 H3825 0.951 . S
C3849 C3850 1.366 . S
C3849 C3851 1.388 . S
C3850 C3849 1.366 . S
C3850 C3854 1.385 1_655 S
C3851 H3826 0.951 . S
C3851 C3849 1.388 . S
C3851 C3852 1.347 1_655 S
C3852 C3851 1.347 1_455 S
C3852 C3853 1.432 . S
C3852 C3855 1.502 . S
C3853 H3827 0.950 . S
C3853 C3852 1.432 . S
C3853 C3854 1.374 . S
C3854 H3828 0.950 . S
C3854 C3850 1.385 1_455 S
C3854 C3853 1.374 . S
C3855 C3852 1.502 . S
C3855 C3856 1.373 . S
C3855 C3857 1.389 1_455 S
C3856 H3829 0.950 . S
C3856 C3842 1.377 . S
C3856 C3855 1.373 . S
C3857 C3841 1.377 . S
C3857 C3855 1.389 1_655 S
C3857 C3858 1.524 . S
C3858 C3857 1.524 . S
C3858 C3859 1.397 . S
C3858 C3863 1.363 . S
C3859 H3830 0.950 . S
C3859 C3858 1.397 . S
C3859 C3860 1.334 . S
C3860 H3831 0.950 . S
C3860 C3859 1.334 . S
C3860 C3861 1.287 . S
C3861 C3860 1.287 . S
C3861 C3862 1.524 . S
C3861 H3864 0.999 . S
C3862 H3832 0.950 . S
C3862 C3861 1.524 . S
C3862 C3863 1.415 . S
C3863 H3833 0.950 . S
C3863 C3858 1.363 . S
C3863 C3862 1.415 . S
H3864 C3861 0.999 . S
H3865 C3846 0.913 . S
H3866 C3884 0.951 . S
H3867 C3886 0.951 . S
H3868 C3888 0.950 . S
H3869 C3889 0.950 . S
H3870 C3891 0.950 . S
H3871 C3894 0.950 . S
H3872 C3895 0.950 1_556 S
H3873 C3897 0.950 . S
H3874 C3898 0.950 . S
H3875 C3899 0.951 . S
H3876 C3901 0.951 . S
H3877 C3903 0.950 . S
H3878 C3904 0.950 . S
H3879 C3906 0.950 . S
H3880 C3909 0.950 . S
H3881 C3910 0.950 . S
H3882 C3912 0.950 . S
H3883 C3913 0.950 . S
C3884 H3866 0.951 . S
C3884 C3885 1.366 . S
C3884 C3886 1.388 1_545 S
C3885 C3884 1.366 . S
C3885 C3889 1.385 . S
C3886 H3867 0.951 . S
C3886 C3884 1.388 1_565 S
C3886 C3887 1.366 . S
C3887 C3886 1.366 . S
C3887 C3888 1.414 . S
C3887 C3890 1.499 . S
C3888 H3868 0.950 . S
C3888 C3887 1.414 . S
C3888 C3889 1.374 1_565 S
C3889 H3869 0.950 . S
C3889 C3885 1.385 . S
C3889 C3888 1.374 1_545 S
C3890 C3887 1.499 . S
C3890 C3891 1.373 . S
C3890 C3892 1.389 . S
C3891 H3870 0.950 . S
C3891 C3890 1.373 . S
C3891 C3907 1.377 . S
C3892 C3890 1.389 . S
C3892 C3893 1.524 . S
C3892 C3906 1.377 . S
C3893 C3892 1.524 . S
C3893 C3894 1.397 . S
C3893 C3898 1.363 . S
C3894 H3871 0.950 . S
C3894 C3893 1.397 . S
C3894 C3895 1.334 . S
C3895 H3872 0.950 1_554 S
C3895 C3894 1.334 . S
C3895 C3896 1.287 . S
C3896 C3895 1.287 . S
C3896 C3897 1.524 . S
C3896 H3915 0.913 1_554 S
C3897 H3873 0.950 . S
C3897 C3896 1.524 . S
C3897 C3898 1.415 . S
C3898 H3874 0.950 . S
C3898 C3893 1.363 . S
C3898 C3897 1.415 . S
C3899 H3875 0.951 . S
C3899 C3900 1.366 . S
C3899 C3901 1.388 . S
C3900 C3899 1.366 . S
C3900 C3904 1.385 . S
C3901 H3876 0.951 . S
C3901 C3899 1.388 . S
C3901 C3902 1.366 . S
C3902 C3901 1.366 . S
C3902 C3903 1.414 . S
C3902 C3905 1.499 . S
C3903 H3877 0.950 . S
C3903 C3902 1.414 . S
C3903 C3904 1.374 . S
C3904 H3878 0.950 . S
C3904 C3900 1.385 . S
C3904 C3903 1.374 . S
C3905 C3902 1.499 . S
C3905 C3906 1.373 . S
C3905 C3907 1.389 . S
C3906 H3879 0.950 . S
C3906 C3892 1.377 . S
C3906 C3905 1.373 . S
C3907 C3891 1.377 . S
C3907 C3905 1.389 . S
C3907 C3908 1.524 . S
C3908 C3907 1.524 . S
C3908 C3909 1.397 . S
C3908 C3913 1.363 . S
C3909 H3880 0.950 . S
C3909 C3908 1.397 . S
C3909 C3910 1.334 . S
C3910 H3881 0.950 . S
C3910 C3909 1.334 . S
C3910 C3911 1.287 . S
C3911 C3910 1.287 . S
C3911 C3912 1.524 . S
C3911 H3914 0.999 . S
C3912 H3882 0.950 . S
C3912 C3911 1.524 . S
C3912 C3913 1.415 . S
C3913 H3883 0.950 . S
C3913 C3908 1.363 . S
C3913 C3912 1.415 . S
H3914 C3911 0.999 . S
H3915 C3896 0.913 1_556 S
H3916 C3934 0.944 1_655 S
H3917 C3936 0.951 1_655 S
H3918 C3938 0.950 . S
H3919 C3939 0.950 . S
H3920 C3941 0.974 . S
H3921 C3944 0.950 . S
H3922 C3945 0.950 . S
H3923 C3947 0.950 . S
H3924 C3948 0.950 . S
H3925 C3949 0.959 . S
H3926 C3951 0.951 . S
H3927 C3953 0.950 . S
H3928 C3954 0.950 . S
H3929 C3956 0.950 . S
H3930 C3959 0.950 . S
H3931 C3960 0.950 . S
H3932 C3962 0.950 . S
H3933 C3963 0.917 1_455 S
C3934 H3916 0.944 1_455 S
C3934 C3935 1.366 . S
C3934 C3936 1.388 . S
C3935 C3934 1.366 . S
C3935 C3939 1.385 . S
C3936 H3917 0.951 1_455 S
C3936 C3934 1.388 . S
C3936 C3937 1.366 . S
C3937 C3936 1.366 . S
C3937 C3938 1.414 . S
C3937 C3940 1.499 . S
C3938 H3918 0.950 . S
C3938 C3937 1.414 . S
C3938 C3939 1.374 . S
C3939 H3919 0.950 . S
C3939 C3935 1.385 . S
C3939 C3938 1.374 . S
C3940 C3937 1.499 . S
C3940 C3941 1.343 1_455 S
C3940 C3942 1.389 . S
C3941 H3920 0.974 . S
C3941 C3940 1.343 1_655 S
C3941 C3957 1.389 . S
C3942 C3940 1.389 . S
C3942 C3943 1.524 . S
C3942 C3956 1.377 . S
C3943 C3942 1.524 . S
C3943 C3944 1.397 . S
C3943 C3948 1.363 . S
C3944 H3921 0.950 . S
C3944 C3943 1.397 . S
C3944 C3945 1.334 . S
C3945 H3922 0.950 . S
C3945 C3944 1.334 . S
C3945 C3946 1.287 . S
C3946 C3945 1.287 . S
C3946 C3947 1.524 . S
C3946 H3965 0.913 . S
C3947 H3923 0.950 . S
C3947 C3946 1.524 . S
C3947 C3948 1.415 . S
C3948 H3924 0.950 . S
C3948 C3943 1.363 . S
C3948 C3947 1.415 . S
C3949 H3925 0.959 . S
C3949 C3950 1.326 1_465 S
C3949 C3951 1.421 . S
C3950 C3949 1.326 1_645 S
C3950 C3954 1.385 . S
C3951 H3926 0.951 . S
C3951 C3949 1.421 . S
C3951 C3952 1.367 . S
C3952 C3951 1.367 . S
C3952 C3953 1.412 1_465 S
C3952 C3955 1.499 . S
C3953 H3927 0.950 . S
C3953 C3952 1.412 1_645 S
C3953 C3954 1.374 . S
C3954 H3928 0.950 . S
C3954 C3950 1.385 . S
C3954 C3953 1.374 . S
C3955 C3952 1.499 . S
C3955 C3956 1.373 . S
C3955 C3957 1.389 1_455 S
C3956 H3929 0.950 . S
C3956 C3942 1.377 . S
C3956 C3955 1.373 . S
C3957 C3941 1.389 . S
C3957 C3955 1.389 1_655 S
C3957 C3958 1.524 . S
C3958 C3957 1.524 . S
C3958 C3959 1.397 . S
C3958 C3963 1.363 . S
C3959 H3930 0.950 . S
C3959 C3958 1.397 . S
C3959 C3960 1.334 . S
C3960 H3931 0.950 . S
C3960 C3959 1.334 . S
C3960 C3961 1.287 . S
C3961 C3960 1.287 . S
C3961 C3962 1.524 . S
C3961 H3964 0.999 . S
C3962 H3932 0.950 . S
C3962 C3961 1.524 . S
C3962 C3963 1.415 . S
C3963 H3933 0.917 1_655 S
C3963 C3958 1.363 . S
C3963 C3962 1.415 . S
H3964 C3961 0.999 . S
H3965 C3946 0.913 . S
H3966 C3984 0.951 . S
H3967 C3986 0.951 . S
H3968 C3988 0.950 . S
H3969 C3989 0.950 . S
H3970 C3991 0.950 . S
H3971 C3994 0.950 . S
H3972 C3995 0.950 . S
H3973 C3997 0.950 . S
H3974 C3998 0.950 . S
H3975 C3999 0.951 . S
H3976 C4001 0.951 . S
H3977 C4003 0.950 . S
H3978 C4004 0.950 . S
H3979 C4006 0.950 . S
H3980 C4009 0.950 . S
H3981 C4010 0.950 . S
H3982 C4012 0.950 . S
H3983 C4013 0.950 . S
C3984 H3966 0.951 . S
C3984 C3985 1.366 . S
C3984 C3986 1.388 . S
C3985 C3984 1.366 . S
C3985 C3989 1.385 . S
C3986 H3967 0.951 . S
C3986 C3984 1.388 . S
C3986 C3987 1.366 . S
C3987 C3986 1.366 . S
C3987 C3988 1.414 . S
C3987 C3990 1.499 . S
C3988 H3968 0.950 . S
C3988 C3987 1.414 . S
C3988 C3989 1.374 . S
C3989 H3969 0.950 . S
C3989 C3985 1.385 . S
C3989 C3988 1.374 . S
C3990 C3987 1.499 . S
C3990 C3991 1.373 . S
C3990 C3992 1.389 . S
C3991 H3970 0.950 . S
C3991 C3990 1.373 . S
C3991 C4007 1.377 . S
C3992 C3990 1.389 . S
C3992 C3993 1.524 . S
C3992 C4006 1.377 . S
C3993 C3992 1.524 . S
C3993 C3994 1.397 . S
C3993 C3998 1.363 . S
C3994 H3971 0.950 . S
C3994 C3993 1.397 . S
C3994 C3995 1.334 . S
C3995 H3972 0.950 . S
C3995 C3994 1.334 . S
C3995 C3996 1.287 . S
C3996 C3995 1.287 . S
C3996 C3997 1.524 . S
C3996 H4015 0.913 . S
C3997 H3973 0.950 . S
C3997 C3996 1.524 . S
C3997 C3998 1.415 . S
C3998 H3974 0.950 . S
C3998 C3993 1.363 . S
C3998 C3997 1.415 . S
C3999 H3975 0.951 . S
C3999 C4000 1.366 . S
C3999 C4001 1.388 . S
C4000 C3999 1.366 . S
C4000 C4004 1.385 . S
C4001 H3976 0.951 . S
C4001 C3999 1.388 . S
C4001 C4002 1.366 . S
C4002 C4001 1.366 . S
C4002 C4003 1.414 . S
C4002 C4005 1.499 . S
C4003 H3977 0.950 . S
C4003 C4002 1.414 . S
C4003 C4004 1.374 . S
C4004 H3978 0.950 . S
C4004 C4000 1.385 . S
C4004 C4003 1.374 . S
C4005 C4002 1.499 . S
C4005 C4006 1.373 . S
C4005 C4007 1.389 . S
C4006 H3979 0.950 . S
C4006 C3992 1.377 . S
C4006 C4005 1.373 . S
C4007 C3991 1.377 . S
C4007 C4005 1.389 . S
C4007 C4008 1.524 . S
C4008 C4007 1.524 . S
C4008 C4009 1.397 . S
C4008 C4013 1.363 . S
C4009 H3980 0.950 . S
C4009 C4008 1.397 . S
C4009 C4010 1.334 . S
C4010 H3981 0.950 . S
C4010 C4009 1.334 . S
C4010 C4011 1.287 . S
C4011 C4010 1.287 . S
C4011 C4012 1.524 . S
C4011 H4014 0.999 . S
C4012 H3982 0.950 . S
C4012 C4011 1.524 . S
C4012 C4013 1.415 . S
C4013 H3983 0.950 . S
C4013 C4008 1.363 . S
C4013 C4012 1.415 . S
H4014 C4011 0.999 . S
H4015 C3996 0.913 . S
H4016 C4034 0.951 . S
H4017 C4036 0.951 . S
H4018 C4038 0.950 . S
H4019 C4039 0.950 . S
H4020 C4041 0.950 . S
H4021 C4044 0.950 . S
H4022 C4045 0.950 . S
H4023 C4047 0.950 . S
H4024 C4048 0.950 . S
H4025 C4049 0.951 . S
H4026 C4051 0.951 . S
H4027 C4053 0.950 . S
H4028 C4054 0.950 . S
H4029 C4056 0.950 . S
H4030 C4059 0.960 1_655 S
H4031 C4060 0.950 . S
H4032 C4062 0.950 . S
H4033 C4063 0.950 . S
C4034 H4016 0.951 . S
C4034 C4035 1.366 1_655 S
C4034 C4036 1.388 . S
C4035 C4034 1.366 1_455 S
C4035 C4039 1.385 . S
C4036 H4017 0.951 . S
C4036 C4034 1.388 . S
C4036 C4037 1.431 . S
C4037 C4036 1.431 . S
C4037 C4038 1.342 1_655 S
C4037 C4040 1.506 . S
C4038 H4018 0.950 . S
C4038 C4037 1.342 1_455 S
C4038 C4039 1.374 . S
C4039 H4019 0.950 . S
C4039 C4035 1.385 . S
C4039 C4038 1.374 . S
C4040 C4037 1.506 . S
C4040 C4041 1.373 1_655 S
C4040 C4042 1.389 . S
C4041 H4020 0.950 . S
C4041 C4040 1.373 1_455 S
C4041 C4057 1.377 . S
C4042 C4040 1.389 . S
C4042 C4043 1.524 . S
C4042 C4056 1.377 . S
C4043 C4042 1.524 . S
C4043 C4044 1.397 . S
C4043 C4048 1.363 . S
C4044 H4021 0.950 . S
C4044 C4043 1.397 . S
C4044 C4045 1.334 . S
C4045 H4022 0.950 . S
C4045 C4044 1.334 . S
C4045 C4046 1.287 . S
C4046 C4045 1.287 . S
C4046 C4047 1.524 . S
C4046 H4065 0.913 . S
C4047 H4023 0.950 . S
C4047 C4046 1.524 . S
C4047 C4048 1.415 . S
C4048 H4024 0.950 . S
C4048 C4043 1.363 . S
C4048 C4047 1.415 . S
C4049 H4025 0.951 . S
C4049 C4050 1.366 1_455 S
C4049 C4051 1.388 . S
C4050 C4049 1.366 1_655 S
C4050 C4054 1.385 . S
C4051 H4026 0.951 . S
C4051 C4049 1.388 . S
C4051 C4052 1.366 1_455 S
C4052 C4051 1.366 1_655 S
C4052 C4053 1.414 . S
C4052 C4055 1.499 . S
C4053 H4027 0.950 . S
C4053 C4052 1.414 . S
C4053 C4054 1.374 . S
C4054 H4028 0.950 . S
C4054 C4050 1.385 . S
C4054 C4053 1.374 . S
C4055 C4052 1.499 . S
C4055 C4056 1.373 . S
C4055 C4057 1.389 1_655 S
C4056 H4029 0.950 . S
C4056 C4042 1.377 . S
C4056 C4055 1.373 . S
C4057 C4041 1.377 . S
C4057 C4055 1.389 1_455 S
C4057 C4058 1.524 . S
C4058 C4057 1.524 . S
C4058 C4059 1.397 . S
C4058 C4063 1.363 . S
C4059 H4030 0.960 1_455 S
C4059 C4058 1.397 . S
C4059 C4060 1.334 . S
C4060 H4031 0.950 . S
C4060 C4059 1.334 . S
C4060 C4061 1.287 . S
C4061 C4060 1.287 . S
C4061 C4062 1.524 . S
C4061 H4064 0.999 . S
C4062 H4032 0.950 . S
C4062 C4061 1.524 . S
C4062 C4063 1.415 . S
C4063 H4033 0.950 . S
C4063 C4058 1.363 . S
C4063 C4062 1.415 . S
H4064 C4061 0.999 . S
H4065 C4046 0.913 . S
H4066 C4084 0.951 . S
H4067 C4086 0.951 . S
H4068 C4088 0.950 . S
H4069 C4089 0.950 . S
H4070 C4091 0.950 . S
H4071 C4094 0.950 . S
H4072 C4095 0.950 . S
H4073 C4097 0.950 . S
H4074 C4098 0.950 . S
H4075 C4099 0.951 . S
H4076 C4101 0.951 . S
H4077 C4103 0.950 . S
H4078 C4104 0.950 . S
H4079 C4106 0.950 . S
H4080 C4109 0.950 . S
H4081 C4110 0.950 . S
H4082 C4112 0.950 . S
H4083 C4113 0.950 . S
C4084 H4066 0.951 . S
C4084 C4085 1.366 . S
C4084 C4086 1.388 . S
C4085 C4084 1.366 . S
C4085 C4089 1.385 . S
C4086 H4067 0.951 . S
C4086 C4084 1.388 . S
C4086 C4087 1.366 . S
C4087 C4086 1.366 . S
C4087 C4088 1.414 . S
C4087 C4090 1.499 . S
C4088 H4068 0.950 . S
C4088 C4087 1.414 . S
C4088 C4089 1.374 . S
C4089 H4069 0.950 . S
C4089 C4085 1.385 . S
C4089 C4088 1.374 . S
C4090 C4087 1.499 . S
C4090 C4091 1.373 . S
C4090 C4092 1.389 . S
C4091 H4070 0.950 . S
C4091 C4090 1.373 . S
C4091 C4107 1.377 . S
C4092 C4090 1.389 . S
C4092 C4093 1.524 . S
C4092 C4106 1.377 . S
C4093 C4092 1.524 . S
C4093 C4094 1.397 . S
C4093 C4098 1.363 . S
C4094 H4071 0.950 . S
C4094 C4093 1.397 . S
C4094 C4095 1.334 . S
C4095 H4072 0.950 . S
C4095 C4094 1.334 . S
C4095 C4096 1.287 . S
C4096 C4095 1.287 . S
C4096 C4097 1.524 . S
C4096 H4115 0.913 . S
C4097 H4073 0.950 . S
C4097 C4096 1.524 . S
C4097 C4098 1.415 . S
C4098 H4074 0.950 . S
C4098 C4093 1.363 . S
C4098 C4097 1.415 . S
C4099 H4075 0.951 . S
C4099 C4100 1.366 . S
C4099 C4101 1.388 . S
C4100 C4099 1.366 . S
C4100 C4104 1.385 . S
C4101 H4076 0.951 . S
C4101 C4099 1.388 . S
C4101 C4102 1.366 . S
C4102 C4101 1.366 . S
C4102 C4103 1.414 . S
C4102 C4105 1.499 . S
C4103 H4077 0.950 . S
C4103 C4102 1.414 . S
C4103 C4104 1.374 . S
C4104 H4078 0.950 . S
C4104 C4100 1.385 . S
C4104 C4103 1.374 . S
C4105 C4102 1.499 . S
C4105 C4106 1.373 . S
C4105 C4107 1.389 . S
C4106 H4079 0.950 . S
C4106 C4092 1.377 . S
C4106 C4105 1.373 . S
C4107 C4091 1.377 . S
C4107 C4105 1.389 . S
C4107 C4108 1.524 . S
C4108 C4107 1.524 . S
C4108 C4109 1.397 . S
C4108 C4113 1.363 . S
C4109 H4080 0.950 . S
C4109 C4108 1.397 . S
C4109 C4110 1.334 . S
C4110 H4081 0.950 . S
C4110 C4109 1.334 . S
C4110 C4111 1.287 . S
C4111 C4110 1.287 . S
C4111 C4112 1.524 . S
C4111 H4114 0.999 . S
C4112 H4082 0.950 . S
C4112 C4111 1.524 . S
C4112 C4113 1.415 . S
C4113 H4083 0.950 . S
C4113 C4108 1.363 . S
C4113 C4112 1.415 . S
H4114 C4111 0.999 . S
H4115 C4096 0.913 . S
H4116 C4134 0.951 . S
H4117 C4136 0.951 . S
H4118 C4138 0.950 . S
H4119 C4139 0.950 . S
H4120 C4141 0.950 . S
H4121 C4144 0.950 . S
H4122 C4145 0.950 . S
H4123 C4147 0.950 . S
H4124 C4148 0.950 . S
H4125 C4149 0.951 . S
H4126 C4151 0.963 . S
H4127 C4153 0.950 . S
H4128 C4154 0.950 . S
H4129 C4156 0.950 . S
H4130 C4159 0.950 . S
H4131 C4160 0.950 . S
H4132 C4162 0.950 . S
H4133 C4163 0.950 . S
C4134 H4116 0.951 . S
C4134 C4135 1.366 1_655 S
C4134 C4136 1.388 . S
C4135 C4134 1.366 1_455 S
C4135 C4139 1.385 . S
C4136 H4117 0.951 . S
C4136 C4134 1.388 . S
C4136 C4137 1.366 . S
C4137 C4136 1.366 . S
C4137 C4138 1.414 1_655 S
C4137 C4140 1.499 . S
C4138 H4118 0.950 . S
C4138 C4137 1.414 1_455 S
C4138 C4139 1.374 . S
C4139 H4119 0.950 . S
C4139 C4135 1.385 . S
C4139 C4138 1.374 . S
C4140 C4137 1.499 . S
C4140 C4141 1.373 1_655 S
C4140 C4142 1.389 . S
C4141 H4120 0.950 . S
C4141 C4140 1.373 1_455 S
C4141 C4157 1.377 . S
C4142 C4140 1.389 . S
C4142 C4143 1.524 . S
C4142 C4156 1.377 . S
C4143 C4142 1.524 . S
C4143 C4144 1.397 . S
C4143 C4148 1.363 . S
C4144 H4121 0.950 . S
C4144 C4143 1.397 . S
C4144 C4145 1.334 . S
C4145 H4122 0.950 . S
C4145 C4144 1.334 . S
C4145 C4146 1.287 . S
C4146 C4145 1.287 . S
C4146 C4147 1.524 . S
C4146 H4165 0.913 . S
C4147 H4123 0.950 . S
C4147 C4146 1.524 . S
C4147 C4148 1.415 . S
C4148 H4124 0.950 . S
C4148 C4143 1.363 . S
C4148 C4147 1.415 . S
C4149 H4125 0.951 . S
C4149 C4150 1.366 . S
C4149 C4151 1.388 . S
C4150 C4149 1.366 . S
C4150 C4154 1.385 . S
C4151 H4126 0.963 . S
C4151 C4149 1.388 . S
C4151 C4152 1.366 . S
C4152 C4151 1.366 . S
C4152 C4153 1.414 . S
C4152 C4155 1.499 . S
C4153 H4127 0.950 . S
C4153 C4152 1.414 . S
C4153 C4154 1.374 . S
C4154 H4128 0.950 . S
C4154 C4150 1.385 . S
C4154 C4153 1.374 . S
C4155 C4152 1.499 . S
C4155 C4156 1.373 . S
C4155 C4157 1.389 1_655 S
C4156 H4129 0.950 . S
C4156 C4142 1.377 . S
C4156 C4155 1.373 . S
C4157 C4141 1.377 . S
C4157 C4155 1.389 1_455 S
C4157 C4158 1.524 . S
C4158 C4157 1.524 . S
C4158 C4159 1.397 . S
C4158 C4163 1.363 . S
C4159 H4130 0.950 . S
C4159 C4158 1.397 . S
C4159 C4160 1.334 . S
C4160 H4131 0.950 . S
C4160 C4159 1.334 . S
C4160 C4161 1.287 . S
C4161 C4160 1.287 . S
C4161 C4162 1.524 . S
C4161 H4164 0.999 . S
C4162 H4132 0.950 . S
C4162 C4161 1.524 . S
C4162 C4163 1.415 . S
C4163 H4133 0.950 . S
C4163 C4158 1.363 . S
C4163 C4162 1.415 . S
H4164 C4161 0.999 . S
H4165 C4146 0.913 . S
H4166 C4184 0.951 . S
H4167 C4186 0.951 . S
H4168 C4188 0.950 . S
H4169 C4189 0.950 . S
H4170 C4191 0.950 . S
H4171 C4194 0.950 . S
H4172 C4195 0.950 . S
H4173 C4197 0.950 . S
H4174 C4198 0.950 . S
H4175 C4199 0.951 . S
H4176 C4201 0.951 . S
H4177 C4203 0.950 . S
H4178 C4204 0.950 . S
H4179 C4206 0.950 . S
H4180 C4209 0.950 . S
H4181 C4210 0.950 . S
H4182 C4212 0.950 . S
H4183 C4213 0.950 . S
C4184 H4166 0.951 . S
C4184 C4185 1.366 . S
C4184 C4186 1.388 . S
C4185 C4184 1.366 . S
C4185 C4189 1.385 . S
C4186 H4167 0.951 . S
C4186 C4184 1.388 . S
C4186 C4187 1.366 . S
C4187 C4186 1.366 . S
C4187 C4188 1.414 . S
C4187 C4190 1.499 . S
C4188 H4168 0.950 . S
C4188 C4187 1.414 . S
C4188 C4189 1.374 . S
C4189 H4169 0.950 . S
C4189 C4185 1.385 . S
C4189 C4188 1.374 . S
C4190 C4187 1.499 . S
C4190 C4191 1.373 . S
C4190 C4192 1.389 . S
C4191 H4170 0.950 . S
C4191 C4190 1.373 . S
C4191 C4207 1.377 . S
C4192 C4190 1.389 . S
C4192 C4193 1.524 . S
C4192 C4206 1.377 . S
C4193 C4192 1.524 . S
C4193 C4194 1.397 . S
C4193 C4198 1.363 . S
C4194 H4171 0.950 . S
C4194 C4193 1.397 . S
C4194 C4195 1.334 . S
C4195 H4172 0.950 . S
C4195 C4194 1.334 . S
C4195 C4196 1.287 . S
C4196 C4195 1.287 . S
C4196 C4197 1.524 . S
C4196 H4215 0.913 . S
C4197 H4173 0.950 . S
C4197 C4196 1.524 . S
C4197 C4198 1.415 . S
C4198 H4174 0.950 . S
C4198 C4193 1.363 . S
C4198 C4197 1.415 . S
C4199 H4175 0.951 . S
C4199 C4200 1.366 . S
C4199 C4201 1.388 . S
C4200 C4199 1.366 . S
C4200 C4204 1.385 . S
C4201 H4176 0.951 . S
C4201 C4199 1.388 . S
C4201 C4202 1.366 . S
C4202 C4201 1.366 . S
C4202 C4203 1.414 . S
C4202 C4205 1.499 . S
C4203 H4177 0.950 . S
C4203 C4202 1.414 . S
C4203 C4204 1.374 . S
C4204 H4178 0.950 . S
C4204 C4200 1.385 . S
C4204 C4203 1.374 . S
C4205 C4202 1.499 . S
C4205 C4206 1.373 . S
C4205 C4207 1.389 . S
C4206 H4179 0.950 . S
C4206 C4192 1.377 . S
C4206 C4205 1.373 . S
C4207 C4191 1.377 . S
C4207 C4205 1.389 . S
C4207 C4208 1.524 . S
C4208 C4207 1.524 . S
C4208 C4209 1.397 . S
C4208 C4213 1.363 . S
C4209 H4180 0.950 . S
C4209 C4208 1.397 . S
C4209 C4210 1.334 . S
C4210 H4181 0.950 . S
C4210 C4209 1.334 . S
C4210 C4211 1.287 . S
C4211 C4210 1.287 . S
C4211 C4212 1.524 . S
C4211 H4214 0.999 . S
C4212 H4182 0.950 . S
C4212 C4211 1.524 . S
C4212 C4213 1.415 . S
C4213 H4183 0.950 . S
C4213 C4208 1.363 . S
C4213 C4212 1.415 . S
H4214 C4211 0.999 . S
H4215 C4196 0.913 . S
H4216 C4234 0.951 . S
H4217 C4236 0.951 . S
H4218 C4238 0.950 . S
H4219 C4239 0.950 . S
H4220 C4241 0.950 . S
H4221 C4244 0.907 1_455 S
H4222 C4245 0.950 . S
H4223 C4247 0.950 . S
H4224 C4248 0.950 . S
H4225 C4249 0.951 . S
H4226 C4251 0.951 . S
H4227 C4253 0.950 . S
H4228 C4254 0.950 . S
H4229 C4256 0.950 . S
H4230 C4259 0.950 . S
H4231 C4260 0.950 . S
H4232 C4262 0.950 . S
H4233 C4263 0.950 . S
C4234 H4216 0.951 . S
C4234 C4235 1.366 . S
C4234 C4236 1.388 . S
C4235 C4234 1.366 . S
C4235 C4239 1.385 1_655 S
C4236 H4217 0.951 . S
C4236 C4234 1.388 . S
C4236 C4237 1.303 1_655 S
C4237 C4236 1.303 1_455 S
C4237 C4238 1.471 . S
C4237 C4240 1.508 . S
C4238 H4218 0.950 . S
C4238 C4237 1.471 . S
C4238 C4239 1.374 . S
C4239 H4219 0.950 . S
C4239 C4235 1.385 1_455 S
C4239 C4238 1.374 . S
C4240 C4237 1.508 . S
C4240 C4241 1.373 . S
C4240 C4242 1.389 1_455 S
C4241 H4220 0.950 . S
C4241 C4240 1.373 . S
C4241 C4257 1.377 . S
C4242 C4240 1.389 1_655 S
C4242 C4243 1.524 . S
C4242 C4256 1.377 . S
C4243 C4242 1.524 . S
C4243 C4244 1.397 . S
C4243 C4248 1.363 . S
C4244 H4221 0.907 1_655 S
C4244 C4243 1.397 . S
C4244 C4245 1.334 . S
C4245 H4222 0.950 . S
C4245 C4244 1.334 . S
C4245 C4246 1.287 . S
C4246 C4245 1.287 . S
C4246 C4247 1.524 . S
C4246 H4265 0.913 . S
C4247 H4223 0.950 . S
C4247 C4246 1.524 . S
C4247 C4248 1.415 . S
C4248 H4224 0.950 . S
C4248 C4243 1.363 . S
C4248 C4247 1.415 . S
C4249 H4225 0.951 . S
C4249 C4250 1.366 . S
C4249 C4251 1.388 . S
C4250 C4249 1.366 . S
C4250 C4254 1.385 1_455 S
C4251 H4226 0.951 . S
C4251 C4249 1.388 . S
C4251 C4252 1.366 . S
C4252 C4251 1.366 . S
C4252 C4253 1.414 1_455 S
C4252 C4255 1.499 . S
C4253 H4227 0.950 . S
C4253 C4252 1.414 1_655 S
C4253 C4254 1.374 . S
C4254 H4228 0.950 . S
C4254 C4250 1.385 1_655 S
C4254 C4253 1.374 . S
C4255 C4252 1.499 . S
C4255 C4256 1.373 1_455 S
C4255 C4257 1.389 . S
C4256 H4229 0.950 . S
C4256 C4242 1.377 . S
C4256 C4255 1.373 1_655 S
C4257 C4241 1.377 . S
C4257 C4255 1.389 . S
C4257 C4258 1.524 . S
C4258 C4257 1.524 . S
C4258 C4259 1.397 . S
C4258 C4263 1.363 . S
C4259 H4230 0.950 . S
C4259 C4258 1.397 . S
C4259 C4260 1.334 . S
C4260 H4231 0.950 . S
C4260 C4259 1.334 . S
C4260 C4261 1.287 . S
C4261 C4260 1.287 . S
C4261 C4262 1.524 . S
C4261 H4264 0.999 . S
C4262 H4232 0.950 . S
C4262 C4261 1.524 . S
C4262 C4263 1.415 . S
C4263 H4233 0.950 . S
C4263 C4258 1.363 . S
C4263 C4262 1.415 . S
H4264 C4261 0.999 . S
H4265 C4246 0.913 . S
H4266 C4284 0.951 . S
H4267 C4286 0.951 . S
H4268 C4288 0.950 . S
H4269 C4289 0.950 . S
H4270 C4291 0.950 . S
H4271 C4294 0.950 . S
H4272 C4295 0.950 . S
H4273 C4297 0.950 . S
H4274 C4298 0.950 . S
H4275 C4299 0.951 . S
H4276 C4301 0.951 . S
H4277 C4303 0.950 . S
H4278 C4304 0.950 . S
H4279 C4306 0.950 . S
H4280 C4309 0.950 . S
H4281 C4310 0.950 . S
H4282 C4312 0.950 . S
H4283 C4313 0.950 . S
C4284 H4266 0.951 . S
C4284 C4285 1.366 . S
C4284 C4286 1.388 . S
C4285 C4284 1.366 . S
C4285 C4289 1.385 . S
C4286 H4267 0.951 . S
C4286 C4284 1.388 . S
C4286 C4287 1.366 . S
C4287 C4286 1.366 . S
C4287 C4288 1.414 . S
C4287 C4290 1.499 . S
C4288 H4268 0.950 . S
C4288 C4287 1.414 . S
C4288 C4289 1.374 . S
C4289 H4269 0.950 . S
C4289 C4285 1.385 . S
C4289 C4288 1.374 . S
C4290 C4287 1.499 . S
C4290 C4291 1.373 . S
C4290 C4292 1.389 . S
C4291 H4270 0.950 . S
C4291 C4290 1.373 . S
C4291 C4307 1.377 . S
C4292 C4290 1.389 . S
C4292 C4293 1.524 . S
C4292 C4306 1.377 . S
C4293 C4292 1.524 . S
C4293 C4294 1.397 . S
C4293 C4298 1.363 . S
C4294 H4271 0.950 . S
C4294 C4293 1.397 . S
C4294 C4295 1.334 . S
C4295 H4272 0.950 . S
C4295 C4294 1.334 . S
C4295 C4296 1.287 . S
C4296 C4295 1.287 . S
C4296 C4297 1.524 . S
C4296 H4315 0.913 . S
C4297 H4273 0.950 . S
C4297 C4296 1.524 . S
C4297 C4298 1.415 . S
C4298 H4274 0.950 . S
C4298 C4293 1.363 . S
C4298 C4297 1.415 . S
C4299 H4275 0.951 . S
C4299 C4300 1.366 . S
C4299 C4301 1.388 . S
C4300 C4299 1.366 . S
C4300 C4304 1.385 . S
C4301 H4276 0.951 . S
C4301 C4299 1.388 . S
C4301 C4302 1.366 . S
C4302 C4301 1.366 . S
C4302 C4303 1.414 . S
C4302 C4305 1.499 . S
C4303 H4277 0.950 . S
C4303 C4302 1.414 . S
C4303 C4304 1.374 . S
C4304 H4278 0.950 . S
C4304 C4300 1.385 . S
C4304 C4303 1.374 . S
C4305 C4302 1.499 . S
C4305 C4306 1.373 . S
C4305 C4307 1.389 . S
C4306 H4279 0.950 . S
C4306 C4292 1.377 . S
C4306 C4305 1.373 . S
C4307 C4291 1.377 . S
C4307 C4305 1.389 . S
C4307 C4308 1.524 . S
C4308 C4307 1.524 . S
C4308 C4309 1.397 . S
C4308 C4313 1.363 . S
C4309 H4280 0.950 . S
C4309 C4308 1.397 . S
C4309 C4310 1.334 . S
C4310 H4281 0.950 . S
C4310 C4309 1.334 . S
C4310 C4311 1.287 . S
C4311 C4310 1.287 . S
C4311 C4312 1.524 . S
C4311 H4314 0.999 . S
C4312 H4282 0.950 . S
C4312 C4311 1.524 . S
C4312 C4313 1.415 . S
C4313 H4283 0.950 . S
C4313 C4308 1.363 . S
C4313 C4312 1.415 . S
H4314 C4311 0.999 . S
H4315 C4296 0.913 . S
H4316 C4334 0.951 . S
H4317 C4336 0.951 . S
H4318 C4338 0.950 . S
H4319 C4339 0.950 . S
H4320 C4341 0.950 . S
H4321 C4344 0.950 . S
H4322 C4345 0.950 . S
H4323 C4347 0.950 . S
H4324 C4348 0.950 . S
H4325 C4349 0.951 1_655 S
H4326 C4351 0.946 1_655 S
H4327 C4353 0.950 . S
H4328 C4354 0.950 . S
H4329 C4356 0.950 . S
H4330 C4359 0.950 . S
H4331 C4360 0.950 . S
H4332 C4362 0.950 . S
H4333 C4363 0.950 . S
C4334 H4316 0.951 . S
C4334 C4335 1.366 1_455 S
C4334 C4336 1.388 . S
C4335 C4334 1.366 1_655 S
C4335 C4339 1.385 . S
C4336 H4317 0.951 . S
C4336 C4334 1.388 . S
C4336 C4337 1.366 . S
C4337 C4336 1.366 . S
C4337 C4338 1.414 1_455 S
C4337 C4340 1.499 . S
C4338 H4318 0.950 . S
C4338 C4337 1.414 1_655 S
C4338 C4339 1.374 . S
C4339 H4319 0.950 . S
C4339 C4335 1.385 . S
C4339 C4338 1.374 . S
C4340 C4337 1.499 . S
C4340 C4341 1.373 1_455 S
C4340 C4342 1.389 . S
C4341 H4320 0.950 . S
C4341 C4340 1.373 1_655 S
C4341 C4357 1.377 . S
C4342 C4340 1.389 . S
C4342 C4343 1.524 . S
C4342 C4356 1.377 . S
C4343 C4342 1.524 . S
C4343 C4344 1.397 . S
C4343 C4348 1.363 . S
C4344 H4321 0.950 . S
C4344 C4343 1.397 . S
C4344 C4345 1.334 . S
C4345 H4322 0.950 . S
C4345 C4344 1.334 . S
C4345 C4346 1.287 . S
C4346 C4345 1.287 . S
C4346 C4347 1.524 . S
C4346 H4365 0.913 . S
C4347 H4323 0.950 . S
C4347 C4346 1.524 . S
C4347 C4348 1.415 . S
C4348 H4324 0.950 . S
C4348 C4343 1.363 . S
C4348 C4347 1.415 . S
C4349 H4325 0.951 1_455 S
C4349 C4350 1.366 . S
C4349 C4351 1.389 . S
C4350 C4349 1.366 . S
C4350 C4354 1.385 . S
C4351 H4326 0.946 1_455 S
C4351 C4349 1.389 . S
C4351 C4352 1.369 . S
C4352 C4351 1.369 . S
C4352 C4353 1.414 . S
C4352 C4355 1.499 . S
C4353 H4327 0.950 . S
C4353 C4352 1.414 . S
C4353 C4354 1.374 . S
C4354 H4328 0.950 . S
C4354 C4350 1.385 . S
C4354 C4353 1.374 . S
C4355 C4352 1.499 . S
C4355 C4356 1.373 . S
C4355 C4357 1.389 1_455 S
C4356 H4329 0.950 . S
C4356 C4342 1.377 . S
C4356 C4355 1.373 . S
C4357 C4341 1.377 . S
C4357 C4355 1.389 1_655 S
C4357 C4358 1.524 . S
C4358 C4357 1.524 . S
C4358 C4359 1.397 . S
C4358 C4363 1.363 . S
C4359 H4330 0.950 . S
C4359 C4358 1.397 . S
C4359 C4360 1.334 . S
C4360 H4331 0.950 . S
C4360 C4359 1.334 . S
C4360 C4361 1.287 . S
C4361 C4360 1.287 . S
C4361 C4362 1.524 . S
C4361 H4364 0.999 . S
C4362 H4332 0.950 . S
C4362 C4361 1.524 . S
C4362 C4363 1.415 . S
C4363 H4333 0.950 . S
C4363 C4358 1.363 . S
C4363 C4362 1.415 . S
H4364 C4361 0.999 . S
H4365 C4346 0.913 . S
H4366 C4384 0.951 . S
H4367 C4386 0.951 . S
H4368 C4388 0.950 . S
H4369 C4389 0.950 . S
H4370 C4391 0.950 . S
H4371 C4394 0.950 . S
H4372 C4395 0.950 . S
H4373 C4397 0.950 . S
H4374 C4398 0.950 . S
H4375 C4399 0.951 . S
H4376 C4401 0.951 . S
H4377 C4403 0.950 . S
H4378 C4404 0.950 . S
H4379 C4406 0.950 . S
H4380 C4409 0.950 . S
H4381 C4410 0.950 . S
H4382 C4412 0.950 . S
H4383 C4413 0.950 . S
C4384 H4366 0.951 . S
C4384 C4385 1.366 . S
C4384 C4386 1.388 . S
C4385 C4384 1.366 . S
C4385 C4389 1.385 . S
C4386 H4367 0.951 . S
C4386 C4384 1.388 . S
C4386 C4387 1.366 . S
C4387 C4386 1.366 . S
C4387 C4388 1.414 . S
C4387 C4390 1.499 . S
C4388 H4368 0.950 . S
C4388 C4387 1.414 . S
C4388 C4389 1.374 . S
C4389 H4369 0.950 . S
C4389 C4385 1.385 . S
C4389 C4388 1.374 . S
C4390 C4387 1.499 . S
C4390 C4391 1.373 . S
C4390 C4392 1.389 . S
C4391 H4370 0.950 . S
C4391 C4390 1.373 . S
C4391 C4407 1.377 . S
C4392 C4390 1.389 . S
C4392 C4393 1.524 . S
C4392 C4406 1.377 . S
C4393 C4392 1.524 . S
C4393 C4394 1.397 . S
C4393 C4398 1.363 . S
C4394 H4371 0.950 . S
C4394 C4393 1.397 . S
C4394 C4395 1.334 . S
C4395 H4372 0.950 . S
C4395 C4394 1.334 . S
C4395 C4396 1.287 . S
C4396 C4395 1.287 . S
C4396 C4397 1.524 . S
C4396 H4415 0.913 . S
C4397 H4373 0.950 . S
C4397 C4396 1.524 . S
C4397 C4398 1.415 . S
C4398 H4374 0.950 . S
C4398 C4393 1.363 . S
C4398 C4397 1.415 . S
C4399 H4375 0.951 . S
C4399 C4400 1.366 . S
C4399 C4401 1.388 . S
C4400 C4399 1.366 . S
C4400 C4404 1.385 . S
C4401 H4376 0.951 . S
C4401 C4399 1.388 . S
C4401 C4402 1.366 . S
C4402 C4401 1.366 . S
C4402 C4403 1.414 . S
C4402 C4405 1.499 . S
C4403 H4377 0.950 . S
C4403 C4402 1.414 . S
C4403 C4404 1.374 . S
C4404 H4378 0.950 . S
C4404 C4400 1.385 . S
C4404 C4403 1.374 . S
C4405 C4402 1.499 . S
C4405 C4406 1.373 . S
C4405 C4407 1.389 . S
C4406 H4379 0.950 . S
C4406 C4392 1.377 . S
C4406 C4405 1.373 . S
C4407 C4391 1.377 . S
C4407 C4405 1.389 . S
C4407 C4408 1.524 . S
C4408 C4407 1.524 . S
C4408 C4409 1.397 . S
C4408 C4413 1.363 . S
C4409 H4380 0.950 . S
C4409 C4408 1.397 . S
C4409 C4410 1.334 . S
C4410 H4381 0.950 . S
C4410 C4409 1.334 . S
C4410 C4411 1.287 . S
C4411 C4410 1.287 . S
C4411 C4412 1.524 . S
C4411 H4414 0.999 . S
C4412 H4382 0.950 . S
C4412 C4411 1.524 . S
C4412 C4413 1.415 . S
C4413 H4383 0.950 . S
C4413 C4408 1.363 . S
C4413 C4412 1.415 . S
H4414 C4411 0.999 . S
H4415 C4396 0.913 . S
H4416 C4434 0.951 . S
H4417 C4436 0.951 . S
H4418 C4438 0.950 . S
H4419 C4439 0.950 . S
H4420 C4441 0.950 . S
H4421 C4444 0.950 . S
H4422 C4445 0.950 . S
H4423 C4447 0.950 . S
H4424 C4448 0.950 . S
H4425 C4449 0.951 . S
H4426 C4451 0.951 . S
H4427 C4453 0.950 . S
H4428 C4454 0.950 . S
H4429 C4456 0.950 . S
H4430 C4459 0.950 . S
H4431 C4460 0.950 . S
H4432 C4462 0.950 . S
H4433 C4463 0.950 . S
C4434 H4416 0.951 . S
C4434 C4435 1.366 . S
C4434 C4436 1.388 . S
C4435 C4434 1.366 . S
C4435 C4439 1.385 . S
C4436 H4417 0.951 . S
C4436 C4434 1.388 . S
C4436 C4437 1.366 . S
C4437 C4436 1.366 . S
C4437 C4438 1.414 . S
C4437 C4440 1.499 . S
C4438 H4418 0.950 . S
C4438 C4437 1.414 . S
C4438 C4439 1.374 . S
C4439 H4419 0.950 . S
C4439 C4435 1.385 . S
C4439 C4438 1.374 . S
C4440 C4437 1.499 . S
C4440 C4441 1.373 . S
C4440 C4442 1.389 . S
C4441 H4420 0.950 . S
C4441 C4440 1.373 . S
C4441 C4457 1.377 . S
C4442 C4440 1.389 . S
C4442 C4443 1.524 . S
C4442 C4456 1.377 . S
C4443 C4442 1.524 . S
C4443 C4444 1.397 . S
C4443 C4448 1.363 . S
C4444 H4421 0.950 . S
C4444 C4443 1.397 . S
C4444 C4445 1.334 . S
C4445 H4422 0.950 . S
C4445 C4444 1.334 . S
C4445 C4446 1.287 . S
C4446 C4445 1.287 . S
C4446 C4447 1.524 . S
C4446 H4465 0.913 . S
C4447 H4423 0.950 . S
C4447 C4446 1.524 . S
C4447 C4448 1.415 . S
C4448 H4424 0.950 . S
C4448 C4443 1.363 . S
C4448 C4447 1.415 . S
C4449 H4425 0.951 . S
C4449 C4450 1.366 . S
C4449 C4451 1.388 . S
C4450 C4449 1.366 . S
C4450 C4454 1.385 . S
C4451 H4426 0.951 . S
C4451 C4449 1.388 . S
C4451 C4452 1.366 . S
C4452 C4451 1.366 . S
C4452 C4453 1.414 . S
C4452 C4455 1.499 . S
C4453 H4427 0.950 . S
C4453 C4452 1.414 . S
C4453 C4454 1.374 . S
C4454 H4428 0.950 . S
C4454 C4450 1.385 . S
C4454 C4453 1.374 . S
C4455 C4452 1.499 . S
C4455 C4456 1.373 . S
C4455 C4457 1.389 . S
C4456 H4429 0.950 . S
C4456 C4442 1.377 . S
C4456 C4455 1.373 . S
C4457 C4441 1.377 . S
C4457 C4455 1.389 . S
C4457 C4458 1.524 . S
C4458 C4457 1.524 . S
C4458 C4459 1.397 . S
C4458 C4463 1.363 . S
C4459 H4430 0.950 . S
C4459 C4458 1.397 . S
C4459 C4460 1.334 . S
C4460 H4431 0.950 . S
C4460 C4459 1.334 . S
C4460 C4461 1.287 . S
C4461 C4460 1.287 . S
C4461 C4462 1.524 . S
C4461 H4464 0.999 . S
C4462 H4432 0.950 . S
C4462 C4461 1.524 . S
C4462 C4463 1.415 . S
C4463 H4433 0.950 . S
C4463 C4458 1.363 . S
C4463 C4462 1.415 . S
H4464 C4461 0.999 . S
H4465 C4446 0.913 . S
H4466 C4484 0.951 . S
H4467 C4486 0.951 . S
H4468 C4488 0.950 . S
H4469 C4489 0.950 . S
H4470 C4491 0.950 . S
H4471 C4494 0.950 . S
H4472 C4495 0.950 . S
H4473 C4497 0.950 . S
H4474 C4498 0.950 . S
H4475 C4499 0.951 . S
H4476 C4501 0.951 . S
H4477 C4503 0.950 . S
H4478 C4504 0.950 . S
H4479 C4506 0.950 . S
H4480 C4509 0.950 . S
H4481 C4510 0.950 . S
H4482 C4512 0.950 . S
H4483 C4513 0.950 . S
C4484 H4466 0.951 . S
C4484 C4485 1.366 . S
C4484 C4486 1.388 1_565 S
C4485 C4484 1.366 . S
C4485 C4489 1.385 . S
C4486 H4467 0.951 . S
C4486 C4484 1.388 1_545 S
C4486 C4487 1.366 . S
C4487 C4486 1.366 . S
C4487 C4488 1.414 . S
C4487 C4490 1.499 . S
C4488 H4468 0.950 . S
C4488 C4487 1.414 . S
C4488 C4489 1.374 1_545 S
C4489 H4469 0.950 . S
C4489 C4485 1.385 . S
C4489 C4488 1.374 1_565 S
C4490 C4487 1.499 . S
C4490 C4491 1.373 . S
C4490 C4492 1.389 . S
C4491 H4470 0.950 . S
C4491 C4490 1.373 . S
C4491 C4507 1.377 . S
C4492 C4490 1.389 . S
C4492 C4493 1.524 . S
C4492 C4506 1.377 . S
C4493 C4492 1.524 . S
C4493 C4494 1.397 . S
C4493 C4498 1.363 . S
C4494 H4471 0.950 . S
C4494 C4493 1.397 . S
C4494 C4495 1.334 . S
C4495 H4472 0.950 . S
C4495 C4494 1.334 . S
C4495 C4496 1.287 . S
C4496 C4495 1.287 . S
C4496 C4497 1.524 . S
C4496 H4515 0.913 . S
C4497 H4473 0.950 . S
C4497 C4496 1.524 . S
C4497 C4498 1.415 . S
C4498 H4474 0.950 . S
C4498 C4493 1.363 . S
C4498 C4497 1.415 . S
C4499 H4475 0.951 . S
C4499 C4500 1.366 . S
C4499 C4501 1.388 . S
C4500 C4499 1.366 . S
C4500 C4504 1.385 . S
C4501 H4476 0.951 . S
C4501 C4499 1.388 . S
C4501 C4502 1.366 . S
C4502 C4501 1.366 . S
C4502 C4503 1.414 . S
C4502 C4505 1.499 . S
C4503 H4477 0.950 . S
C4503 C4502 1.414 . S
C4503 C4504 1.374 . S
C4504 H4478 0.950 . S
C4504 C4500 1.385 . S
C4504 C4503 1.374 . S
C4505 C4502 1.499 . S
C4505 C4506 1.373 . S
C4505 C4507 1.389 . S
C4506 H4479 0.950 . S
C4506 C4492 1.377 . S
C4506 C4505 1.373 . S
C4507 C4491 1.377 . S
C4507 C4505 1.389 . S
C4507 C4508 1.524 . S
C4508 C4507 1.524 . S
C4508 C4509 1.397 . S
C4508 C4513 1.363 . S
C4509 H4480 0.950 . S
C4509 C4508 1.397 . S
C4509 C4510 1.334 . S
C4510 H4481 0.950 . S
C4510 C4509 1.334 . S
C4510 C4511 1.287 . S
C4511 C4510 1.287 . S
C4511 C4512 1.524 . S
C4511 H4514 0.999 . S
C4512 H4482 0.950 . S
C4512 C4511 1.524 . S
C4512 C4513 1.415 . S
C4513 H4483 0.950 . S
C4513 C4508 1.363 . S
C4513 C4512 1.415 . S
H4514 C4511 0.999 . S
H4515 C4496 0.913 . S
H4516 C4534 0.951 . S
H4517 C4536 0.951 . S
H4518 C4538 0.950 . S
H4519 C4539 0.950 . S
H4520 C4541 0.950 . S
H4521 C4544 0.950 . S
H4522 C4545 0.950 . S
H4523 C4547 0.950 . S
H4524 C4548 0.950 . S
H4525 C4549 0.951 . S
H4526 C4551 0.951 . S
H4527 C4553 0.950 . S
H4528 C4554 0.950 . S
H4529 C4556 0.950 . S
H4530 C4559 0.950 . S
H4531 C4560 0.950 . S
H4532 C4562 0.950 . S
H4533 C4563 0.950 . S
C4534 H4516 0.951 . S
C4534 C4535 1.366 . S
C4534 C4536 1.388 . S
C4535 C4534 1.366 . S
C4535 C4539 1.385 . S
C4536 H4517 0.951 . S
C4536 C4534 1.388 . S
C4536 C4537 1.366 . S
C4537 C4536 1.366 . S
C4537 C4538 1.414 . S
C4537 C4540 1.499 . S
C4538 H4518 0.950 . S
C4538 C4537 1.414 . S
C4538 C4539 1.374 . S
C4539 H4519 0.950 . S
C4539 C4535 1.385 . S
C4539 C4538 1.374 . S
C4540 C4537 1.499 . S
C4540 C4541 1.373 . S
C4540 C4542 1.389 . S
C4541 H4520 0.950 . S
C4541 C4540 1.373 . S
C4541 C4557 1.377 . S
C4542 C4540 1.389 . S
C4542 C4543 1.524 . S
C4542 C4556 1.377 . S
C4543 C4542 1.524 . S
C4543 C4544 1.397 . S
C4543 C4548 1.363 . S
C4544 H4521 0.950 . S
C4544 C4543 1.397 . S
C4544 C4545 1.334 . S
C4545 H4522 0.950 . S
C4545 C4544 1.334 . S
C4545 C4546 1.287 . S
C4546 C4545 1.287 . S
C4546 C4547 1.524 . S
C4546 H4565 0.913 . S
C4547 H4523 0.950 . S
C4547 C4546 1.524 . S
C4547 C4548 1.415 . S
C4548 H4524 0.950 . S
C4548 C4543 1.363 . S
C4548 C4547 1.415 . S
C4549 H4525 0.951 . S
C4549 C4550 1.366 . S
C4549 C4551 1.388 1_565 S
C4550 C4549 1.366 . S
C4550 C4554 1.385 . S
C4551 H4526 0.951 . S
C4551 C4549 1.388 1_545 S
C4551 C4552 1.366 . S
C4552 C4551 1.366 . S
C4552 C4553 1.414 . S
C4552 C4555 1.499 . S
C4553 H4527 0.950 . S
C4553 C4552 1.414 . S
C4553 C4554 1.374 1_545 S
C4554 H4528 0.950 . S
C4554 C4550 1.385 . S
C4554 C4553 1.374 1_565 S
C4555 C4552 1.499 . S
C4555 C4556 1.373 . S
C4555 C4557 1.389 . S
C4556 H4529 0.950 . S
C4556 C4542 1.377 . S
C4556 C4555 1.373 . S
C4557 C4541 1.377 . S
C4557 C4555 1.389 . S
C4557 C4558 1.524 . S
C4558 C4557 1.524 . S
C4558 C4559 1.397 . S
C4558 C4563 1.363 . S
C4559 H4530 0.950 . S
C4559 C4558 1.397 . S
C4559 C4560 1.334 . S
C4560 H4531 0.950 . S
C4560 C4559 1.334 . S
C4560 C4561 1.287 . S
C4561 C4560 1.287 . S
C4561 C4562 1.524 . S
C4561 H4564 0.999 . S
C4562 H4532 0.950 . S
C4562 C4561 1.524 . S
C4562 C4563 1.415 . S
C4563 H4533 0.950 . S
C4563 C4558 1.363 . S
C4563 C4562 1.415 . S
H4564 C4561 0.999 . S
H4565 C4546 0.913 . S
H4566 C4584 0.951 . S
H4567 C4586 0.951 . S
H4568 C4588 0.950 . S
H4569 C4589 0.950 . S
H4570 C4591 0.950 . S
H4571 C4594 0.950 . S
H4572 C4595 0.950 . S
H4573 C4597 0.950 . S
H4574 C4598 0.950 . S
H4575 C4599 0.951 . S
H4576 C4601 0.951 . S
H4577 C4603 0.950 . S
H4578 C4604 0.950 . S
H4579 C4606 0.950 . S
H4580 C4609 0.950 . S
H4581 C4610 0.950 . S
H4582 C4612 0.950 . S
H4583 C4613 0.950 . S
C4584 H4566 0.951 . S
C4584 C4585 1.366 . S
C4584 C4586 1.388 . S
C4585 C4584 1.366 . S
C4585 C4589 1.385 . S
C4586 H4567 0.951 . S
C4586 C4584 1.388 . S
C4586 C4587 1.366 . S
C4587 C4586 1.366 . S
C4587 C4588 1.414 . S
C4587 C4590 1.499 . S
C4588 H4568 0.950 . S
C4588 C4587 1.414 . S
C4588 C4589 1.374 . S
C4589 H4569 0.950 . S
C4589 C4585 1.385 . S
C4589 C4588 1.374 . S
C4590 C4587 1.499 . S
C4590 C4591 1.373 . S
C4590 C4592 1.389 . S
C4591 H4570 0.950 . S
C4591 C4590 1.373 . S
C4591 C4607 1.377 . S
C4592 C4590 1.389 . S
C4592 C4593 1.524 . S
C4592 C4606 1.377 . S
C4593 C4592 1.524 . S
C4593 C4594 1.397 . S
C4593 C4598 1.363 . S
C4594 H4571 0.950 . S
C4594 C4593 1.397 . S
C4594 C4595 1.334 . S
C4595 H4572 0.950 . S
C4595 C4594 1.334 . S
C4595 C4596 1.287 . S
C4596 C4595 1.287 . S
C4596 C4597 1.524 . S
C4596 H4615 0.913 . S
C4597 H4573 0.950 . S
C4597 C4596 1.524 . S
C4597 C4598 1.415 . S
C4598 H4574 0.950 . S
C4598 C4593 1.363 . S
C4598 C4597 1.415 . S
C4599 H4575 0.951 . S
C4599 C4600 1.366 . S
C4599 C4601 1.388 . S
C4600 C4599 1.366 . S
C4600 C4604 1.385 . S
C4601 H4576 0.951 . S
C4601 C4599 1.388 . S
C4601 C4602 1.366 . S
C4602 C4601 1.366 . S
C4602 C4603 1.414 . S
C4602 C4605 1.499 . S
C4603 H4577 0.950 . S
C4603 C4602 1.414 . S
C4603 C4604 1.374 . S
C4604 H4578 0.950 . S
C4604 C4600 1.385 . S
C4604 C4603 1.374 . S
C4605 C4602 1.499 . S
C4605 C4606 1.373 . S
C4605 C4607 1.389 . S
C4606 H4579 0.950 . S
C4606 C4592 1.377 . S
C4606 C4605 1.373 . S
C4607 C4591 1.377 . S
C4607 C4605 1.389 . S
C4607 C4608 1.524 . S
C4608 C4607 1.524 . S
C4608 C4609 1.397 . S
C4608 C4613 1.363 . S
C4609 H4580 0.950 . S
C4609 C4608 1.397 . S
C4609 C4610 1.334 . S
C4610 H4581 0.950 . S
C4610 C4609 1.334 . S
C4610 C4611 1.287 . S
C4611 C4610 1.287 . S
C4611 C4612 1.524 . S
C4611 H4614 0.999 . S
C4612 H4582 0.950 . S
C4612 C4611 1.524 . S
C4612 C4613 1.415 . S
C4613 H4583 0.950 . S
C4613 C4608 1.363 . S
C4613 C4612 1.415 . S
H4614 C4611 0.999 . S
H4615 C4596 0.913 . S
H4616 C4634 0.951 . S
H4617 C4636 0.951 . S
H4618 C4638 0.950 . S
H4619 C4639 0.950 . S
H4620 C4641 0.950 . S
H4621 C4644 0.950 . S
H4622 C4645 0.950 . S
H4623 C4647 0.950 . S
H4624 C4648 0.950 . S
H4625 C4649 0.951 . S
H4626 C4651 0.951 . S
H4627 C4653 0.950 . S
H4628 C4654 0.950 . S
H4629 C4656 0.950 . S
H4630 C4659 0.950 . S
H4631 C4660 0.950 . S
H4632 C4662 0.950 . S
H4633 C4663 0.950 . S
C4634 H4616 0.951 . S
C4634 C4635 1.366 . S
C4634 C4636 1.388 . S
C4635 C4634 1.366 . S
C4635 C4639 1.385 . S
C4636 H4617 0.951 . S
C4636 C4634 1.388 . S
C4636 C4637 1.366 . S
C4637 C4636 1.366 . S
C4637 C4638 1.414 . S
C4637 C4640 1.499 . S
C4638 H4618 0.950 . S
C4638 C4637 1.414 . S
C4638 C4639 1.374 . S
C4639 H4619 0.950 . S
C4639 C4635 1.385 . S
C4639 C4638 1.374 . S
C4640 C4637 1.499 . S
C4640 C4641 1.373 . S
C4640 C4642 1.389 . S
C4641 H4620 0.950 . S
C4641 C4640 1.373 . S
C4641 C4657 1.377 . S
C4642 C4640 1.389 . S
C4642 C4643 1.524 . S
C4642 C4656 1.377 . S
C4643 C4642 1.524 . S
C4643 C4644 1.397 . S
C4643 C4648 1.363 . S
C4644 H4621 0.950 . S
C4644 C4643 1.397 . S
C4644 C4645 1.334 . S
C4645 H4622 0.950 . S
C4645 C4644 1.334 . S
C4645 C4646 1.287 . S
C4646 C4645 1.287 . S
C4646 C4647 1.524 . S
C4646 H4665 0.913 . S
C4647 H4623 0.950 . S
C4647 C4646 1.524 . S
C4647 C4648 1.415 . S
C4648 H4624 0.950 . S
C4648 C4643 1.363 . S
C4648 C4647 1.415 . S
C4649 H4625 0.951 . S
C4649 C4650 1.366 . S
C4649 C4651 1.388 . S
C4650 C4649 1.366 . S
C4650 C4654 1.385 . S
C4651 H4626 0.951 . S
C4651 C4649 1.388 . S
C4651 C4652 1.366 . S
C4652 C4651 1.366 . S
C4652 C4653 1.414 . S
C4652 C4655 1.499 . S
C4653 H4627 0.950 . S
C4653 C4652 1.414 . S
C4653 C4654 1.374 . S
C4654 H4628 0.950 . S
C4654 C4650 1.385 . S
C4654 C4653 1.374 . S
C4655 C4652 1.499 . S
C4655 C4656 1.373 . S
C4655 C4657 1.389 . S
C4656 H4629 0.950 . S
C4656 C4642 1.377 . S
C4656 C4655 1.373 . S
C4657 C4641 1.377 . S
C4657 C4655 1.389 . S
C4657 C4658 1.524 . S
C4658 C4657 1.524 . S
C4658 C4659 1.397 . S
C4658 C4663 1.363 . S
C4659 H4630 0.950 . S
C4659 C4658 1.397 . S
C4659 C4660 1.334 . S
C4660 H4631 0.950 . S
C4660 C4659 1.334 . S
C4660 C4661 1.287 . S
C4661 C4660 1.287 . S
C4661 C4662 1.524 . S
C4661 H4664 0.999 . S
C4662 H4632 0.950 . S
C4662 C4661 1.524 . S
C4662 C4663 1.415 . S
C4663 H4633 0.950 . S
C4663 C4658 1.363 . S
C4663 C4662 1.415 . S
H4664 C4661 0.999 . S
H4665 C4646 0.913 . S
H4666 C4684 0.951 . S
H4667 C4686 0.951 . S
H4668 C4688 0.950 . S
H4669 C4689 0.950 . S
H4670 C4691 0.950 . S
H4671 C4694 0.950 . S
H4672 C4695 0.950 . S
H4673 C4697 0.950 . S
H4674 C4698 0.950 . S
H4675 C4699 0.951 . S
H4676 C4701 0.951 . S
H4677 C4703 0.950 . S
H4678 C4704 0.950 . S
H4679 C4706 0.950 . S
H4680 C4709 0.950 . S
H4681 C4710 0.950 . S
H4682 C4712 0.950 . S
H4683 C4713 0.950 . S
C4684 H4666 0.951 . S
C4684 C4685 1.366 . S
C4684 C4686 1.388 . S
C4685 C4684 1.366 . S
C4685 C4689 1.385 . S
C4686 H4667 0.951 . S
C4686 C4684 1.388 . S
C4686 C4687 1.366 1_545 S
C4687 C4686 1.366 1_565 S
C4687 C4688 1.414 . S
C4687 C4690 1.499 . S
C4688 H4668 0.950 . S
C4688 C4687 1.414 . S
C4688 C4689 1.374 1_565 S
C4689 H4669 0.950 . S
C4689 C4685 1.385 . S
C4689 C4688 1.374 1_545 S
C4690 C4687 1.499 . S
C4690 C4691 1.373 . S
C4690 C4692 1.389 . S
C4691 H4670 0.950 . S
C4691 C4690 1.373 . S
C4691 C4707 1.377 . S
C4692 C4690 1.389 . S
C4692 C4693 1.524 . S
C4692 C4706 1.377 . S
C4693 C4692 1.524 . S
C4693 C4694 1.397 . S
C4693 C4698 1.363 . S
C4694 H4671 0.950 . S
C4694 C4693 1.397 . S
C4694 C4695 1.334 . S
C4695 H4672 0.950 . S
C4695 C4694 1.334 . S
C4695 C4696 1.287 . S
C4696 C4695 1.287 . S
C4696 C4697 1.524 . S
C4696 H4715 0.913 . S
C4697 H4673 0.950 . S
C4697 C4696 1.524 . S
C4697 C4698 1.415 . S
C4698 H4674 0.950 . S
C4698 C4693 1.363 . S
C4698 C4697 1.415 . S
C4699 H4675 0.951 . S
C4699 C4700 1.366 . S
C4699 C4701 1.388 . S
C4700 C4699 1.366 . S
C4700 C4704 1.385 . S
C4701 H4676 0.951 . S
C4701 C4699 1.388 . S
C4701 C4702 1.366 . S
C4702 C4701 1.366 . S
C4702 C4703 1.414 . S
C4702 C4705 1.499 . S
C4703 H4677 0.950 . S
C4703 C4702 1.414 . S
C4703 C4704 1.374 . S
C4704 H4678 0.950 . S
C4704 C4700 1.385 . S
C4704 C4703 1.374 . S
C4705 C4702 1.499 . S
C4705 C4706 1.373 . S
C4705 C4707 1.389 . S
C4706 H4679 0.950 . S
C4706 C4692 1.377 . S
C4706 C4705 1.373 . S
C4707 C4691 1.377 . S
C4707 C4705 1.389 . S
C4707 C4708 1.524 . S
C4708 C4707 1.524 . S
C4708 C4709 1.397 . S
C4708 C4713 1.363 . S
C4709 H4680 0.950 . S
C4709 C4708 1.397 . S
C4709 C4710 1.334 . S
C4710 H4681 0.950 . S
C4710 C4709 1.334 . S
C4710 C4711 1.287 . S
C4711 C4710 1.287 . S
C4711 C4712 1.524 . S
C4711 H4714 0.999 . S
C4712 H4682 0.950 . S
C4712 C4711 1.524 . S
C4712 C4713 1.415 . S
C4713 H4683 0.950 . S
C4713 C4708 1.363 . S
C4713 C4712 1.415 . S
H4714 C4711 0.999 . S
H4715 C4696 0.913 . S
H4716 C4734 0.951 . S
H4717 C4736 0.951 . S
H4718 C4738 0.950 . S
H4719 C4739 0.950 . S
H4720 C4741 0.950 . S
H4721 C4744 0.950 . S
H4722 C4745 0.950 . S
H4723 C4747 0.950 . S
H4724 C4748 0.950 . S
H4725 C4749 0.951 . S
H4726 C4751 0.951 . S
H4727 C4753 0.950 . S
H4728 C4754 0.957 . S
H4729 C4756 0.950 . S
H4730 C4759 0.941 1_565 S
H4731 C4760 0.950 . S
H4732 C4762 0.950 . S
H4733 C4763 0.950 1_565 S
C4734 H4716 0.951 . S
C4734 C4735 1.366 . S
C4734 C4736 1.388 . S
C4735 C4734 1.366 . S
C4735 C4739 1.385 . S
C4736 H4717 0.951 . S
C4736 C4734 1.388 . S
C4736 C4737 1.366 . S
C4737 C4736 1.366 . S
C4737 C4738 1.414 . S
C4737 C4740 1.499 . S
C4738 H4718 0.950 . S
C4738 C4737 1.414 . S
C4738 C4739 1.374 . S
C4739 H4719 0.950 . S
C4739 C4735 1.385 . S
C4739 C4738 1.374 . S
C4740 C4737 1.499 . S
C4740 C4741 1.373 . S
C4740 C4742 1.389 . S
C4741 H4720 0.950 . S
C4741 C4740 1.373 . S
C4741 C4757 1.377 . S
C4742 C4740 1.389 . S
C4742 C4743 1.524 . S
C4742 C4756 1.377 . S
C4743 C4742 1.524 . S
C4743 C4744 1.397 . S
C4743 C4748 1.363 . S
C4744 H4721 0.950 . S
C4744 C4743 1.397 . S
C4744 C4745 1.334 . S
C4745 H4722 0.950 . S
C4745 C4744 1.334 . S
C4745 C4746 1.287 . S
C4746 C4745 1.287 . S
C4746 C4747 1.524 . S
C4746 H4765 0.913 . S
C4747 H4723 0.950 . S
C4747 C4746 1.524 . S
C4747 C4748 1.415 . S
C4748 H4724 0.950 . S
C4748 C4743 1.363 . S
C4748 C4747 1.415 . S
C4749 H4725 0.951 . S
C4749 C4750 1.366 . S
C4749 C4751 1.388 . S
C4750 C4749 1.366 . S
C4750 C4754 1.348 1_545 S
C4751 H4726 0.951 . S
C4751 C4749 1.388 . S
C4751 C4752 1.366 1_545 S
C4752 C4751 1.366 1_565 S
C4752 C4753 1.414 . S
C4752 C4755 1.499 . S
C4753 H4727 0.950 . S
C4753 C4752 1.414 . S
C4753 C4754 1.405 . S
C4754 H4728 0.957 . S
C4754 C4750 1.348 1_565 S
C4754 C4753 1.405 . S
C4755 C4752 1.499 . S
C4755 C4756 1.373 . S
C4755 C4757 1.389 . S
C4756 H4729 0.950 . S
C4756 C4742 1.377 . S
C4756 C4755 1.373 . S
C4757 C4741 1.377 . S
C4757 C4755 1.389 . S
C4757 C4758 1.524 . S
C4758 C4757 1.524 . S
C4758 C4759 1.392 1_565 S
C4758 C4763 1.363 1_565 S
C4759 H4730 0.941 1_545 S
C4759 C4758 1.392 1_545 S
C4759 C4760 1.348 . S
C4760 H4731 0.950 . S
C4760 C4759 1.348 . S
C4760 C4761 1.287 . S
C4761 C4760 1.287 . S
C4761 C4762 1.524 . S
C4761 H4764 0.999 . S
C4762 H4732 0.950 . S
C4762 C4761 1.524 . S
C4762 C4763 1.415 . S
C4763 H4733 0.950 1_545 S
C4763 C4758 1.363 1_545 S
C4763 C4762 1.415 . S
H4764 C4761 0.999 . S
H4765 C4746 0.913 . S
H4766 C4784 0.951 . S
H4767 C4786 0.951 . S
H4768 C4788 0.950 . S
H4769 C4789 0.950 . S
H4770 C4791 0.950 . S
H4771 C4794 0.950 . S
H4772 C4795 0.950 . S
H4773 C4797 0.950 . S
H4774 C4798 0.950 . S
H4775 C4799 0.951 . S
H4776 C4801 0.951 . S
H4777 C4803 0.950 . S
H4778 C4804 0.950 . S
H4779 C4806 0.950 . S
H4780 C4809 0.950 . S
H4781 C4810 0.950 . S
H4782 C4812 0.950 . S
H4783 C4813 0.950 . S
C4784 H4766 0.951 . S
C4784 C4785 1.366 . S
C4784 C4786 1.388 . S
C4785 C4784 1.366 . S
C4785 C4789 1.385 . S
C4786 H4767 0.951 . S
C4786 C4784 1.388 . S
C4786 C4787 1.366 . S
C4787 C4786 1.366 . S
C4787 C4788 1.414 . S
C4787 C4790 1.499 . S
C4788 H4768 0.950 . S
C4788 C4787 1.414 . S
C4788 C4789 1.374 . S
C4789 H4769 0.950 . S
C4789 C4785 1.385 . S
C4789 C4788 1.374 . S
C4790 C4787 1.499 . S
C4790 C4791 1.373 . S
C4790 C4792 1.389 . S
C4791 H4770 0.950 . S
C4791 C4790 1.373 . S
C4791 C4807 1.377 . S
C4792 C4790 1.389 . S
C4792 C4793 1.524 . S
C4792 C4806 1.377 . S
C4793 C4792 1.524 . S
C4793 C4794 1.397 . S
C4793 C4798 1.363 . S
C4794 H4771 0.950 . S
C4794 C4793 1.397 . S
C4794 C4795 1.334 . S
C4795 H4772 0.950 . S
C4795 C4794 1.334 . S
C4795 C4796 1.287 . S
C4796 C4795 1.287 . S
C4796 C4797 1.524 . S
C4796 H4815 0.913 . S
C4797 H4773 0.950 . S
C4797 C4796 1.524 . S
C4797 C4798 1.415 . S
C4798 H4774 0.950 . S
C4798 C4793 1.363 . S
C4798 C4797 1.415 . S
C4799 H4775 0.951 . S
C4799 C4800 1.366 . S
C4799 C4801 1.388 . S
C4800 C4799 1.366 . S
C4800 C4804 1.385 . S
C4801 H4776 0.951 . S
C4801 C4799 1.388 . S
C4801 C4802 1.366 . S
C4802 C4801 1.366 . S
C4802 C4803 1.414 . S
C4802 C4805 1.499 . S
C4803 H4777 0.950 . S
C4803 C4802 1.414 . S
C4803 C4804 1.374 . S
C4804 H4778 0.950 . S
C4804 C4800 1.385 . S
C4804 C4803 1.374 . S
C4805 C4802 1.499 . S
C4805 C4806 1.373 . S
C4805 C4807 1.389 . S
C4806 H4779 0.950 . S
C4806 C4792 1.377 . S
C4806 C4805 1.373 . S
C4807 C4791 1.377 . S
C4807 C4805 1.389 . S
C4807 C4808 1.524 . S
C4808 C4807 1.524 . S
C4808 C4809 1.397 . S
C4808 C4813 1.363 . S
C4809 H4780 0.950 . S
C4809 C4808 1.397 . S
C4809 C4810 1.334 . S
C4810 H4781 0.950 . S
C4810 C4809 1.334 . S
C4810 C4811 1.287 . S
C4811 C4810 1.287 . S
C4811 C4812 1.524 . S
C4811 H4814 0.999 . S
C4812 H4782 0.950 . S
C4812 C4811 1.524 . S
C4812 C4813 1.415 . S
C4813 H4783 0.950 . S
C4813 C4808 1.363 . S
C4813 C4812 1.415 . S
H4814 C4811 0.999 . S
H4815 C4796 0.913 . S
H4816 C4834 0.951 . S
H4817 C4836 0.951 . S
H4818 C4838 0.950 . S
H4819 C4839 0.950 . S
H4820 C4841 0.950 . S
H4821 C4844 0.950 . S
H4822 C4845 0.950 . S
H4823 C4847 0.950 . S
H4824 C4848 0.950 . S
H4825 C4849 0.951 . S
H4826 C4851 0.951 . S
H4827 C4853 0.950 . S
H4828 C4854 0.950 1_554 S
H4829 C4856 0.950 . S
H4830 C4859 0.950 . S
H4831 C4860 0.950 . S
H4832 C4862 0.950 . S
H4833 C4863 0.950 . S
C4834 H4816 0.951 . S
C4834 C4835 1.366 . S
C4834 C4836 1.388 . S
C4835 C4834 1.366 . S
C4835 C4839 1.385 . S
C4836 H4817 0.951 . S
C4836 C4834 1.388 . S
C4836 C4837 1.366 . S
C4837 C4836 1.366 . S
C4837 C4838 1.414 . S
C4837 C4840 1.499 . S
C4838 H4818 0.950 . S
C4838 C4837 1.414 . S
C4838 C4839 1.374 . S
C4839 H4819 0.950 . S
C4839 C4835 1.385 . S
C4839 C4838 1.374 . S
C4840 C4837 1.499 . S
C4840 C4841 1.373 . S
C4840 C4842 1.389 . S
C4841 H4820 0.950 . S
C4841 C4840 1.373 . S
C4841 C4857 1.377 . S
C4842 C4840 1.389 . S
C4842 C4843 1.524 . S
C4842 C4856 1.377 . S
C4843 C4842 1.524 . S
C4843 C4844 1.397 . S
C4843 C4848 1.363 . S
C4844 H4821 0.950 . S
C4844 C4843 1.397 . S
C4844 C4845 1.334 . S
C4845 H4822 0.950 . S
C4845 C4844 1.334 . S
C4845 C4846 1.287 . S
C4846 C4845 1.287 . S
C4846 C4847 1.524 . S
C4846 H4865 0.913 . S
C4847 H4823 0.950 . S
C4847 C4846 1.524 . S
C4847 C4848 1.415 . S
C4848 H4824 0.950 . S
C4848 C4843 1.363 . S
C4848 C4847 1.415 . S
C4849 H4825 0.951 . S
C4849 C4850 1.366 . S
C4849 C4851 1.388 . S
C4850 C4849 1.366 . S
C4850 C4854 1.385 . S
C4851 H4826 0.951 . S
C4851 C4849 1.388 . S
C4851 C4852 1.366 . S
C4852 C4851 1.366 . S
C4852 C4853 1.414 . S
C4852 C4855 1.499 . S
C4853 H4827 0.950 . S
C4853 C4852 1.414 . S
C4853 C4854 1.374 . S
C4854 H4828 0.950 1_556 S
C4854 C4850 1.385 . S
C4854 C4853 1.374 . S
C4855 C4852 1.499 . S
C4855 C4856 1.373 . S
C4855 C4857 1.389 . S
C4856 H4829 0.950 . S
C4856 C4842 1.377 . S
C4856 C4855 1.373 . S
C4857 C4841 1.377 . S
C4857 C4855 1.389 . S
C4857 C4858 1.524 . S
C4858 C4857 1.524 . S
C4858 C4859 1.397 . S
C4858 C4863 1.363 . S
C4859 H4830 0.950 . S
C4859 C4858 1.397 . S
C4859 C4860 1.334 . S
C4860 H4831 0.950 . S
C4860 C4859 1.334 . S
C4860 C4861 1.287 . S
C4861 C4860 1.287 . S
C4861 C4862 1.524 . S
C4861 H4864 0.999 . S
C4862 H4832 0.950 . S
C4862 C4861 1.524 . S
C4862 C4863 1.415 . S
C4863 H4833 0.950 . S
C4863 C4858 1.363 . S
C4863 C4862 1.415 . S
H4864 C4861 0.999 . S
H4865 C4846 0.913 . S
H4866 C4884 0.951 . S
H4867 C4886 0.951 . S
H4868 C4888 0.950 . S
H4869 C4889 0.950 . S
H4870 C4891 0.950 . S
H4871 C4894 0.950 . S
H4872 C4895 0.950 1_554 S
H4873 C4897 0.950 . S
H4874 C4898 0.950 . S
H4875 C4899 0.951 . S
H4876 C4901 0.951 . S
H4877 C4903 0.950 . S
H4878 C4904 0.950 . S
H4879 C4906 0.950 . S
H4880 C4909 0.950 . S
H4881 C4910 0.950 . S
H4882 C4912 0.950 . S
H4883 C4913 0.950 . S
C4884 H4866 0.951 . S
C4884 C4885 1.366 . S
C4884 C4886 1.388 . S
C4885 C4884 1.366 . S
C4885 C4889 1.385 . S
C4886 H4867 0.951 . S
C4886 C4884 1.388 . S
C4886 C4887 1.366 . S
C4887 C4886 1.366 . S
C4887 C4888 1.414 . S
C4887 C4890 1.499 . S
C4888 H4868 0.950 . S
C4888 C4887 1.414 . S
C4888 C4889 1.374 . S
C4889 H4869 0.950 . S
C4889 C4885 1.385 . S
C4889 C4888 1.374 . S
C4890 C4887 1.499 . S
C4890 C4891 1.373 . S
C4890 C4892 1.389 . S
C4891 H4870 0.950 . S
C4891 C4890 1.373 . S
C4891 C4907 1.377 . S
C4892 C4890 1.389 . S
C4892 C4893 1.524 . S
C4892 C4906 1.377 . S
C4893 C4892 1.524 . S
C4893 C4894 1.397 . S
C4893 C4898 1.363 . S
C4894 H4871 0.950 . S
C4894 C4893 1.397 . S
C4894 C4895 1.334 . S
C4895 H4872 0.950 1_556 S
C4895 C4894 1.334 . S
C4895 C4896 1.287 . S
C4896 C4895 1.287 . S
C4896 C4897 1.524 . S
C4896 H4915 0.913 1_556 S
C4897 H4873 0.950 . S
C4897 C4896 1.524 . S
C4897 C4898 1.415 . S
C4898 H4874 0.950 . S
C4898 C4893 1.363 . S
C4898 C4897 1.415 . S
C4899 H4875 0.951 . S
C4899 C4900 1.366 . S
C4899 C4901 1.388 . S
C4900 C4899 1.366 . S
C4900 C4904 1.385 . S
C4901 H4876 0.951 . S
C4901 C4899 1.388 . S
C4901 C4902 1.366 . S
C4902 C4901 1.366 . S
C4902 C4903 1.414 . S
C4902 C4905 1.499 . S
C4903 H4877 0.950 . S
C4903 C4902 1.414 . S
C4903 C4904 1.374 . S
C4904 H4878 0.950 . S
C4904 C4900 1.385 . S
C4904 C4903 1.374 . S
C4905 C4902 1.499 . S
C4905 C4906 1.373 . S
C4905 C4907 1.389 . S
C4906 H4879 0.950 . S
C4906 C4892 1.377 . S
C4906 C4905 1.373 . S
C4907 C4891 1.377 . S
C4907 C4905 1.389 . S
C4907 C4908 1.524 . S
C4908 C4907 1.524 . S
C4908 C4909 1.397 . S
C4908 C4913 1.363 . S
C4909 H4880 0.950 . S
C4909 C4908 1.397 . S
C4909 C4910 1.334 . S
C4910 H4881 0.950 . S
C4910 C4909 1.334 . S
C4910 C4911 1.287 . S
C4911 C4910 1.287 . S
C4911 C4912 1.524 . S
C4911 H4914 0.999 . S
C4912 H4882 0.950 . S
C4912 C4911 1.524 . S
C4912 C4913 1.415 . S
C4913 H4883 0.950 . S
C4913 C4908 1.363 . S
C4913 C4912 1.415 . S
H4914 C4911 0.999 . S
H4915 C4896 0.913 1_554 S
H4916 C4934 0.951 . S
H4917 C4936 0.951 . S
H4918 C4938 0.950 . S
H4919 C4939 0.950 . S
H4920 C4941 0.950 . S
H4921 C4944 0.950 . S
H4922 C4945 0.950 . S
H4923 C4947 0.950 . S
H4924 C4948 0.950 . S
H4925 C4949 0.951 . S
H4926 C4951 0.951 . S
H4927 C4953 0.950 . S
H4928 C4954 0.950 . S
H4929 C4956 0.950 . S
H4930 C4959 0.950 . S
H4931 C4960 0.950 . S
H4932 C4962 0.950 . S
H4933 C4963 0.950 . S
C4934 H4916 0.951 . S
C4934 C4935 1.366 . S
C4934 C4936 1.388 . S
C4935 C4934 1.366 . S
C4935 C4939 1.385 . S
C4936 H4917 0.951 . S
C4936 C4934 1.388 . S
C4936 C4937 1.366 . S
C4937 C4936 1.366 . S
C4937 C4938 1.414 . S
C4937 C4940 1.499 . S
C4938 H4918 0.950 . S
C4938 C4937 1.414 . S
C4938 C4939 1.374 . S
C4939 H4919 0.950 . S
C4939 C4935 1.385 . S
C4939 C4938 1.374 . S
C4940 C4937 1.499 . S
C4940 C4941 1.373 . S
C4940 C4942 1.389 . S
C4941 H4920 0.950 . S
C4941 C4940 1.373 . S
C4941 C4957 1.377 . S
C4942 C4940 1.389 . S
C4942 C4943 1.524 . S
C4942 C4956 1.377 . S
C4943 C4942 1.524 . S
C4943 C4944 1.397 . S
C4943 C4948 1.363 . S
C4944 H4921 0.950 . S
C4944 C4943 1.397 . S
C4944 C4945 1.334 . S
C4945 H4922 0.950 . S
C4945 C4944 1.334 . S
C4945 C4946 1.287 . S
C4946 C4945 1.287 . S
C4946 C4947 1.524 . S
C4946 H4965 0.913 . S
C4947 H4923 0.950 . S
C4947 C4946 1.524 . S
C4947 C4948 1.415 . S
C4948 H4924 0.950 . S
C4948 C4943 1.363 . S
C4948 C4947 1.415 . S
C4949 H4925 0.951 . S
C4949 C4950 1.366 . S
C4949 C4951 1.388 . S
C4950 C4949 1.366 . S
C4950 C4954 1.385 . S
C4951 H4926 0.951 . S
C4951 C4949 1.388 . S
C4951 C4952 1.366 . S
C4952 C4951 1.366 . S
C4952 C4953 1.414 . S
C4952 C4955 1.499 . S
C4953 H4927 0.950 . S
C4953 C4952 1.414 . S
C4953 C4954 1.374 . S
C4954 H4928 0.950 . S
C4954 C4950 1.385 . S
C4954 C4953 1.374 . S
C4955 C4952 1.499 . S
C4955 C4956 1.373 . S
C4955 C4957 1.389 . S
C4956 H4929 0.950 . S
C4956 C4942 1.377 . S
C4956 C4955 1.373 . S
C4957 C4941 1.377 . S
C4957 C4955 1.389 . S
C4957 C4958 1.524 . S
C4958 C4957 1.524 . S
C4958 C4959 1.397 . S
C4958 C4963 1.363 . S
C4959 H4930 0.950 . S
C4959 C4958 1.397 . S
C4959 C4960 1.334 . S
C4960 H4931 0.950 . S
C4960 C4959 1.334 . S
C4960 C4961 1.287 . S
C4961 C4960 1.287 . S
C4961 C4962 1.524 . S
C4961 H4964 0.999 . S
C4962 H4932 0.950 . S
C4962 C4961 1.524 . S
C4962 C4963 1.415 . S
C4963 H4933 0.950 . S
C4963 C4958 1.363 . S
C4963 C4962 1.415 . S
H4964 C4961 0.999 . S
H4965 C4946 0.913 . S
H4966 C4984 0.951 . S
H4967 C4986 0.951 . S
H4968 C4988 0.950 . S
H4969 C4989 0.950 . S
H4970 C4991 0.950 . S
H4971 C4994 0.950 . S
H4972 C4995 0.950 . S
H4973 C4997 0.950 . S
H4974 C4998 0.950 . S
H4975 C4999 0.951 . S
H4976 C5001 0.951 . S
H4977 C5003 0.950 . S
H4978 C5004 0.950 . S
H4979 C5006 0.950 . S
H4980 C5009 0.950 . S
H4981 C5010 0.950 . S
H4982 C5012 0.950 . S
H4983 C5013 0.950 . S
C4984 H4966 0.951 . S
C4984 C4985 1.366 . S
C4984 C4986 1.388 . S
C4985 C4984 1.366 . S
C4985 C4989 1.385 . S
C4986 H4967 0.951 . S
C4986 C4984 1.388 . S
C4986 C4987 1.366 . S
C4987 C4986 1.366 . S
C4987 C4988 1.414 . S
C4987 C4990 1.499 . S
C4988 H4968 0.950 . S
C4988 C4987 1.414 . S
C4988 C4989 1.374 . S
C4989 H4969 0.950 . S
C4989 C4985 1.385 . S
C4989 C4988 1.374 . S
C4990 C4987 1.499 . S
C4990 C4991 1.373 . S
C4990 C4992 1.389 . S
C4991 H4970 0.950 . S
C4991 C4990 1.373 . S
C4991 C5007 1.377 . S
C4992 C4990 1.389 . S
C4992 C4993 1.524 . S
C4992 C5006 1.377 . S
C4993 C4992 1.524 . S
C4993 C4994 1.397 . S
C4993 C4998 1.363 . S
C4994 H4971 0.950 . S
C4994 C4993 1.397 . S
C4994 C4995 1.334 . S
C4995 H4972 0.950 . S
C4995 C4994 1.334 . S
C4995 C4996 1.287 . S
C4996 C4995 1.287 . S
C4996 C4997 1.524 . S
C4996 H5015 0.913 . S
C4997 H4973 0.950 . S
C4997 C4996 1.524 . S
C4997 C4998 1.415 . S
C4998 H4974 0.950 . S
C4998 C4993 1.363 . S
C4998 C4997 1.415 . S
C4999 H4975 0.951 . S
C4999 C5000 1.366 . S
C4999 C5001 1.388 . S
C5000 C4999 1.366 . S
C5000 C5004 1.385 . S
C5001 H4976 0.951 . S
C5001 C4999 1.388 . S
C5001 C5002 1.366 . S
C5002 C5001 1.366 . S
C5002 C5003 1.414 . S
C5002 C5005 1.499 . S
C5003 H4977 0.950 . S
C5003 C5002 1.414 . S
C5003 C5004 1.374 . S
C5004 H4978 0.950 . S
C5004 C5000 1.385 . S
C5004 C5003 1.374 . S
C5005 C5002 1.499 . S
C5005 C5006 1.373 . S
C5005 C5007 1.389 . S
C5006 H4979 0.950 . S
C5006 C4992 1.377 . S
C5006 C5005 1.373 . S
C5007 C4991 1.377 . S
C5007 C5005 1.389 . S
C5007 C5008 1.524 . S
C5008 C5007 1.524 . S
C5008 C5009 1.397 . S
C5008 C5013 1.363 . S
C5009 H4980 0.950 . S
C5009 C5008 1.397 . S
C5009 C5010 1.334 . S
C5010 H4981 0.950 . S
C5010 C5009 1.334 . S
C5010 C5011 1.287 . S
C5011 C5010 1.287 . S
C5011 C5012 1.524 . S
C5011 H5014 0.999 . S
C5012 H4982 0.950 . S
C5012 C5011 1.524 . S
C5012 C5013 1.415 . S
C5013 H4983 0.950 . S
C5013 C5008 1.363 . S
C5013 C5012 1.415 . S
H5014 C5011 0.999 . S
H5015 C4996 0.913 . S
H5016 C5034 0.951 . S
H5017 C5036 0.951 . S
H5018 C5038 0.950 . S
H5019 C5039 0.950 . S
H5020 C5041 0.950 . S
H5021 C5044 0.950 . S
H5022 C5045 0.950 . S
H5023 C5047 0.950 . S
H5024 C5048 0.950 . S
H5025 C5049 0.951 . S
H5026 C5051 0.951 . S
H5027 C5053 0.950 . S
H5028 C5054 0.950 . S
H5029 C5056 0.950 . S
H5030 C5059 0.950 . S
H5031 C5060 0.950 . S
H5032 C5062 0.950 . S
H5033 C5063 0.950 . S
C5034 H5016 0.951 . S
C5034 C5035 1.366 . S
C5034 C5036 1.388 . S
C5035 C5034 1.366 . S
C5035 C5039 1.385 . S
C5036 H5017 0.951 . S
C5036 C5034 1.388 . S
C5036 C5037 1.366 . S
C5037 C5036 1.366 . S
C5037 C5038 1.414 . S
C5037 C5040 1.499 . S
C5038 H5018 0.950 . S
C5038 C5037 1.414 . S
C5038 C5039 1.374 . S
C5039 H5019 0.950 . S
C5039 C5035 1.385 . S
C5039 C5038 1.374 . S
C5040 C5037 1.499 . S
C5040 C5041 1.373 . S
C5040 C5042 1.389 . S
C5041 H5020 0.950 . S
C5041 C5040 1.373 . S
C5041 C5057 1.377 . S
C5042 C5040 1.389 . S
C5042 C5043 1.524 . S
C5042 C5056 1.377 . S
C5043 C5042 1.524 . S
C5043 C5044 1.397 . S
C5043 C5048 1.363 . S
C5044 H5021 0.950 . S
C5044 C5043 1.397 . S
C5044 C5045 1.334 . S
C5045 H5022 0.950 . S
C5045 C5044 1.334 . S
C5045 C5046 1.287 . S
C5046 C5045 1.287 . S
C5046 C5047 1.524 . S
C5046 H5065 0.913 . S
C5047 H5023 0.950 . S
C5047 C5046 1.524 . S
C5047 C5048 1.415 . S
C5048 H5024 0.950 . S
C5048 C5043 1.363 . S
C5048 C5047 1.415 . S
C5049 H5025 0.951 . S
C5049 C5050 1.366 . S
C5049 C5051 1.388 . S
C5050 C5049 1.366 . S
C5050 C5054 1.385 . S
C5051 H5026 0.951 . S
C5051 C5049 1.388 . S
C5051 C5052 1.366 . S
C5052 C5051 1.366 . S
C5052 C5053 1.414 . S
C5052 C5055 1.499 . S
C5053 H5027 0.950 . S
C5053 C5052 1.414 . S
C5053 C5054 1.374 . S
C5054 H5028 0.950 . S
C5054 C5050 1.385 . S
C5054 C5053 1.374 . S
C5055 C5052 1.499 . S
C5055 C5056 1.373 . S
C5055 C5057 1.389 . S
C5056 H5029 0.950 . S
C5056 C5042 1.377 . S
C5056 C5055 1.373 . S
C5057 C5041 1.377 . S
C5057 C5055 1.389 . S
C5057 C5058 1.524 . S
C5058 C5057 1.524 . S
C5058 C5059 1.397 . S
C5058 C5063 1.363 . S
C5059 H5030 0.950 . S
C5059 C5058 1.397 . S
C5059 C5060 1.334 . S
C5060 H5031 0.950 . S
C5060 C5059 1.334 . S
C5060 C5061 1.287 . S
C5061 C5060 1.287 . S
C5061 C5062 1.524 . S
C5061 H5064 0.999 . S
C5062 H5032 0.950 . S
C5062 C5061 1.524 . S
C5062 C5063 1.415 . S
C5063 H5033 0.950 . S
C5063 C5058 1.363 . S
C5063 C5062 1.415 . S
H5064 C5061 0.999 . S
H5065 C5046 0.913 . S
H5066 C5084 0.951 . S
H5067 C5086 0.951 . S
H5068 C5088 0.950 . S
H5069 C5089 0.950 . S
H5070 C5091 0.950 . S
H5071 C5094 0.950 . S
H5072 C5095 0.950 1_556 S
H5073 C5097 0.950 . S
H5074 C5098 0.950 . S
H5075 C5099 0.951 . S
H5076 C5101 0.951 . S
H5077 C5103 0.950 . S
H5078 C5104 0.950 . S
H5079 C5106 0.950 . S
H5080 C5109 0.950 . S
H5081 C5110 0.950 . S
H5082 C5112 0.950 . S
H5083 C5113 0.950 . S
C5084 H5066 0.951 . S
C5084 C5085 1.366 . S
C5084 C5086 1.388 . S
C5085 C5084 1.366 . S
C5085 C5089 1.385 . S
C5086 H5067 0.951 . S
C5086 C5084 1.388 . S
C5086 C5087 1.366 . S
C5087 C5086 1.366 . S
C5087 C5088 1.414 . S
C5087 C5090 1.499 . S
C5088 H5068 0.950 . S
C5088 C5087 1.414 . S
C5088 C5089 1.374 . S
C5089 H5069 0.950 . S
C5089 C5085 1.385 . S
C5089 C5088 1.374 . S
C5090 C5087 1.499 . S
C5090 C5091 1.373 . S
C5090 C5092 1.389 . S
C5091 H5070 0.950 . S
C5091 C5090 1.373 . S
C5091 C5107 1.377 . S
C5092 C5090 1.389 . S
C5092 C5093 1.524 . S
C5092 C5106 1.377 . S
C5093 C5092 1.524 . S
C5093 C5094 1.397 . S
C5093 C5098 1.363 . S
C5094 H5071 0.950 . S
C5094 C5093 1.397 . S
C5094 C5095 1.334 . S
C5095 H5072 0.950 1_554 S
C5095 C5094 1.334 . S
C5095 C5096 1.287 1_554 S
C5096 C5095 1.287 1_556 S
C5096 C5097 1.524 1_556 S
C5096 H5115 0.913 . S
C5097 H5073 0.950 . S
C5097 C5096 1.524 1_554 S
C5097 C5098 1.415 . S
C5098 H5074 0.950 . S
C5098 C5093 1.363 . S
C5098 C5097 1.415 . S
C5099 H5075 0.951 . S
C5099 C5100 1.366 . S
C5099 C5101 1.388 . S
C5100 C5099 1.366 . S
C5100 C5104 1.385 . S
C5101 H5076 0.951 . S
C5101 C5099 1.388 . S
C5101 C5102 1.366 . S
C5102 C5101 1.366 . S
C5102 C5103 1.414 . S
C5102 C5105 1.499 . S
C5103 H5077 0.950 . S
C5103 C5102 1.414 . S
C5103 C5104 1.374 . S
C5104 H5078 0.950 . S
C5104 C5100 1.385 . S
C5104 C5103 1.374 . S
C5105 C5102 1.499 . S
C5105 C5106 1.373 . S
C5105 C5107 1.389 . S
C5106 H5079 0.950 . S
C5106 C5092 1.377 . S
C5106 C5105 1.373 . S
C5107 C5091 1.377 . S
C5107 C5105 1.389 . S
C5107 C5108 1.524 . S
C5108 C5107 1.524 . S
C5108 C5109 1.397 . S
C5108 C5113 1.363 . S
C5109 H5080 0.950 . S
C5109 C5108 1.397 . S
C5109 C5110 1.334 . S
C5110 H5081 0.950 . S
C5110 C5109 1.334 . S
C5110 C5111 1.287 . S
C5111 C5110 1.287 . S
C5111 C5112 1.524 . S
C5111 H5114 0.999 . S
C5112 H5082 0.950 . S
C5112 C5111 1.524 . S
C5112 C5113 1.415 . S
C5113 H5083 0.950 . S
C5113 C5108 1.363 . S
C5113 C5112 1.415 . S
H5114 C5111 0.999 . S
H5115 C5096 0.913 . S
H5116 C5134 0.951 . S
H5117 C5136 0.951 . S
H5118 C5138 0.950 . S
H5119 C5139 0.950 . S
H5120 C5141 0.950 . S
H5121 C5144 0.950 . S
H5122 C5145 0.950 . S
H5123 C5147 0.950 . S
H5124 C5148 0.950 . S
H5125 C5149 0.951 . S
H5126 C5151 0.951 . S
H5127 C5153 0.950 . S
H5128 C5154 0.950 . S
H5129 C5156 0.950 . S
H5130 C5159 0.950 . S
H5131 C5160 0.950 . S
H5132 C5162 0.950 . S
H5133 C5163 0.950 . S
C5134 H5116 0.951 . S
C5134 C5135 1.366 . S
C5134 C5136 1.388 . S
C5135 C5134 1.366 . S
C5135 C5139 1.385 . S
C5136 H5117 0.951 . S
C5136 C5134 1.388 . S
C5136 C5137 1.366 . S
C5137 C5136 1.366 . S
C5137 C5138 1.414 . S
C5137 C5140 1.499 . S
C5138 H5118 0.950 . S
C5138 C5137 1.414 . S
C5138 C5139 1.374 . S
C5139 H5119 0.950 . S
C5139 C5135 1.385 . S
C5139 C5138 1.374 . S
C5140 C5137 1.499 . S
C5140 C5141 1.373 . S
C5140 C5142 1.389 . S
C5141 H5120 0.950 . S
C5141 C5140 1.373 . S
C5141 C5157 1.377 . S
C5142 C5140 1.389 . S
C5142 C5143 1.524 . S
C5142 C5156 1.377 . S
C5143 C5142 1.524 . S
C5143 C5144 1.397 . S
C5143 C5148 1.363 . S
C5144 H5121 0.950 . S
C5144 C5143 1.397 . S
C5144 C5145 1.334 . S
C5145 H5122 0.950 . S
C5145 C5144 1.334 . S
C5145 C5146 1.287 . S
C5146 C5145 1.287 . S
C5146 C5147 1.524 . S
C5146 H5165 0.913 . S
C5147 H5123 0.950 . S
C5147 C5146 1.524 . S
C5147 C5148 1.415 . S
C5148 H5124 0.950 . S
C5148 C5143 1.363 . S
C5148 C5147 1.415 . S
C5149 H5125 0.951 . S
C5149 C5150 1.366 . S
C5149 C5151 1.388 . S
C5150 C5149 1.366 . S
C5150 C5154 1.385 . S
C5151 H5126 0.951 . S
C5151 C5149 1.388 . S
C5151 C5152 1.366 . S
C5152 C5151 1.366 . S
C5152 C5153 1.414 . S
C5152 C5155 1.499 . S
C5153 H5127 0.950 . S
C5153 C5152 1.414 . S
C5153 C5154 1.374 . S
C5154 H5128 0.950 . S
C5154 C5150 1.385 . S
C5154 C5153 1.374 . S
C5155 C5152 1.499 . S
C5155 C5156 1.373 . S
C5155 C5157 1.389 . S
C5156 H5129 0.950 . S
C5156 C5142 1.377 . S
C5156 C5155 1.373 . S
C5157 C5141 1.377 . S
C5157 C5155 1.389 . S
C5157 C5158 1.524 . S
C5158 C5157 1.524 . S
C5158 C5159 1.397 . S
C5158 C5163 1.363 . S
C5159 H5130 0.950 . S
C5159 C5158 1.397 . S
C5159 C5160 1.334 . S
C5160 H5131 0.950 . S
C5160 C5159 1.334 . S
C5160 C5161 1.287 . S
C5161 C5160 1.287 . S
C5161 C5162 1.524 . S
C5161 H5164 0.999 . S
C5162 H5132 0.950 . S
C5162 C5161 1.524 . S
C5162 C5163 1.415 . S
C5163 H5133 0.950 . S
C5163 C5158 1.363 . S
C5163 C5162 1.415 . S
H5164 C5161 0.999 . S
H5165 C5146 0.913 . S
H5166 C5184 0.951 . S
H5167 C5186 0.951 . S
H5168 C5188 0.950 . S
H5169 C5189 0.950 . S
H5170 C5191 0.950 . S
H5171 C5194 0.950 . S
H5172 C5195 0.950 . S
H5173 C5197 0.950 . S
H5174 C5198 0.950 . S
H5175 C5199 0.951 . S
H5176 C5201 0.951 . S
H5177 C5203 0.950 . S
H5178 C5204 0.950 . S
H5179 C5206 0.950 . S
H5180 C5209 0.950 . S
H5181 C5210 0.950 . S
H5182 C5212 0.950 . S
H5183 C5213 0.950 . S
C5184 H5166 0.951 . S
C5184 C5185 1.366 . S
C5184 C5186 1.388 . S
C5185 C5184 1.366 . S
C5185 C5189 1.385 . S
C5186 H5167 0.951 . S
C5186 C5184 1.388 . S
C5186 C5187 1.366 . S
C5187 C5186 1.366 . S
C5187 C5188 1.414 . S
C5187 C5190 1.499 . S
C5188 H5168 0.950 . S
C5188 C5187 1.414 . S
C5188 C5189 1.374 . S
C5189 H5169 0.950 . S
C5189 C5185 1.385 . S
C5189 C5188 1.374 . S
C5190 C5187 1.499 . S
C5190 C5191 1.373 . S
C5190 C5192 1.389 . S
C5191 H5170 0.950 . S
C5191 C5190 1.373 . S
C5191 C5207 1.377 . S
C5192 C5190 1.389 . S
C5192 C5193 1.524 . S
C5192 C5206 1.377 . S
C5193 C5192 1.524 . S
C5193 C5194 1.397 . S
C5193 C5198 1.363 . S
C5194 H5171 0.950 . S
C5194 C5193 1.397 . S
C5194 C5195 1.334 . S
C5195 H5172 0.950 . S
C5195 C5194 1.334 . S
C5195 C5196 1.287 . S
C5196 C5195 1.287 . S
C5196 C5197 1.524 . S
C5196 H5215 0.913 . S
C5197 H5173 0.950 . S
C5197 C5196 1.524 . S
C5197 C5198 1.415 . S
C5198 H5174 0.950 . S
C5198 C5193 1.363 . S
C5198 C5197 1.415 . S
C5199 H5175 0.951 . S
C5199 C5200 1.366 . S
C5199 C5201 1.388 . S
C5200 C5199 1.366 . S
C5200 C5204 1.385 . S
C5201 H5176 0.951 . S
C5201 C5199 1.388 . S
C5201 C5202 1.366 . S
C5202 C5201 1.366 . S
C5202 C5203 1.414 . S
C5202 C5205 1.499 . S
C5203 H5177 0.950 . S
C5203 C5202 1.414 . S
C5203 C5204 1.374 . S
C5204 H5178 0.950 . S
C5204 C5200 1.385 . S
C5204 C5203 1.374 . S
C5205 C5202 1.499 . S
C5205 C5206 1.373 . S
C5205 C5207 1.389 . S
C5206 H5179 0.950 . S
C5206 C5192 1.377 . S
C5206 C5205 1.373 . S
C5207 C5191 1.377 . S
C5207 C5205 1.389 . S
C5207 C5208 1.524 . S
C5208 C5207 1.524 . S
C5208 C5209 1.397 . S
C5208 C5213 1.363 . S
C5209 H5180 0.950 . S
C5209 C5208 1.397 . S
C5209 C5210 1.334 . S
C5210 H5181 0.950 . S
C5210 C5209 1.334 . S
C5210 C5211 1.287 . S
C5211 C5210 1.287 . S
C5211 C5212 1.524 . S
C5211 H5214 0.999 . S
C5212 H5182 0.950 . S
C5212 C5211 1.524 . S
C5212 C5213 1.415 . S
C5213 H5183 0.950 . S
C5213 C5208 1.363 . S
C5213 C5212 1.415 . S
H5214 C5211 0.999 . S
H5215 C5196 0.913 . S
H5216 C5234 0.951 . S
H5217 C5236 0.951 . S
H5218 C5238 0.950 . S
H5219 C5239 0.950 . S
H5220 C5241 0.950 . S
H5221 C5244 0.950 . S
H5222 C5245 0.950 . S
H5223 C5247 0.950 . S
H5224 C5248 0.950 . S
H5225 C5249 0.951 . S
H5226 C5251 0.951 . S
H5227 C5253 0.950 . S
H5228 C5254 0.950 . S
H5229 C5256 0.950 . S
H5230 C5259 0.950 . S
H5231 C5260 0.950 . S
H5232 C5262 0.950 . S
H5233 C5263 0.950 . S
C5234 H5216 0.951 . S
C5234 C5235 1.366 . S
C5234 C5236 1.388 . S
C5235 C5234 1.366 . S
C5235 C5239 1.385 . S
C5236 H5217 0.951 . S
C5236 C5234 1.388 . S
C5236 C5237 1.366 . S
C5237 C5236 1.366 . S
C5237 C5238 1.414 . S
C5237 C5240 1.499 . S
C5238 H5218 0.950 . S
C5238 C5237 1.414 . S
C5238 C5239 1.374 . S
C5239 H5219 0.950 . S
C5239 C5235 1.385 . S
C5239 C5238 1.374 . S
C5240 C5237 1.499 . S
C5240 C5241 1.373 . S
C5240 C5242 1.389 . S
C5241 H5220 0.950 . S
C5241 C5240 1.373 . S
C5241 C5257 1.377 . S
C5242 C5240 1.389 . S
C5242 C5243 1.524 . S
C5242 C5256 1.377 . S
C5243 C5242 1.524 . S
C5243 C5244 1.397 . S
C5243 C5248 1.363 . S
C5244 H5221 0.950 . S
C5244 C5243 1.397 . S
C5244 C5245 1.334 . S
C5245 H5222 0.950 . S
C5245 C5244 1.334 . S
C5245 C5246 1.287 . S
C5246 C5245 1.287 . S
C5246 C5247 1.524 . S
C5246 H5265 0.913 . S
C5247 H5223 0.950 . S
C5247 C5246 1.524 . S
C5247 C5248 1.415 . S
C5248 H5224 0.950 . S
C5248 C5243 1.363 . S
C5248 C5247 1.415 . S
C5249 H5225 0.951 . S
C5249 C5250 1.366 . S
C5249 C5251 1.388 . S
C5250 C5249 1.366 . S
C5250 C5254 1.385 . S
C5251 H5226 0.951 . S
C5251 C5249 1.388 . S
C5251 C5252 1.366 . S
C5252 C5251 1.366 . S
C5252 C5253 1.414 . S
C5252 C5255 1.499 . S
C5253 H5227 0.950 . S
C5253 C5252 1.414 . S
C5253 C5254 1.374 . S
C5254 H5228 0.950 . S
C5254 C5250 1.385 . S
C5254 C5253 1.374 . S
C5255 C5252 1.499 . S
C5255 C5256 1.373 . S
C5255 C5257 1.389 . S
C5256 H5229 0.950 . S
C5256 C5242 1.377 . S
C5256 C5255 1.373 . S
C5257 C5241 1.377 . S
C5257 C5255 1.389 . S
C5257 C5258 1.524 . S
C5258 C5257 1.524 . S
C5258 C5259 1.397 . S
C5258 C5263 1.363 . S
C5259 H5230 0.950 . S
C5259 C5258 1.397 . S
C5259 C5260 1.334 . S
C5260 H5231 0.950 . S
C5260 C5259 1.334 . S
C5260 C5261 1.287 . S
C5261 C5260 1.287 . S
C5261 C5262 1.524 . S
C5261 H5264 0.999 . S
C5262 H5232 0.950 . S
C5262 C5261 1.524 . S
C5262 C5263 1.415 . S
C5263 H5233 0.950 . S
C5263 C5258 1.363 . S
C5263 C5262 1.415 . S
H5264 C5261 0.999 . S
H5265 C5246 0.913 . S
H5266 C5284 0.951 . S
H5267 C5286 0.951 . S
H5268 C5288 0.950 . S
H5269 C5289 0.950 . S
H5270 C5291 0.950 . S
H5271 C5294 0.950 . S
H5272 C5295 0.950 . S
H5273 C5297 0.957 . S
H5274 C5298 0.950 . S
H5275 C5299 0.951 . S
H5276 C5301 0.951 . S
H5277 C5303 0.950 . S
H5278 C5304 0.950 . S
H5279 C5306 0.950 . S
H5280 C5309 0.950 . S
H5281 C5310 0.950 . S
H5282 C5312 0.950 . S
H5283 C5313 0.950 . S
C5284 H5266 0.951 . S
C5284 C5285 1.366 . S
C5284 C5286 1.388 . S
C5285 C5284 1.366 . S
C5285 C5289 1.385 . S
C5286 H5267 0.951 . S
C5286 C5284 1.388 . S
C5286 C5287 1.366 . S
C5287 C5286 1.366 . S
C5287 C5288 1.414 . S
C5287 C5290 1.499 . S
C5288 H5268 0.950 . S
C5288 C5287 1.414 . S
C5288 C5289 1.374 . S
C5289 H5269 0.950 . S
C5289 C5285 1.385 . S
C5289 C5288 1.374 . S
C5290 C5287 1.499 . S
C5290 C5291 1.373 . S
C5290 C5292 1.389 . S
C5291 H5270 0.950 . S
C5291 C5290 1.373 . S
C5291 C5307 1.377 . S
C5292 C5290 1.389 . S
C5292 C5293 1.524 . S
C5292 C5306 1.377 . S
C5293 C5292 1.524 . S
C5293 C5294 1.397 . S
C5293 C5298 1.363 . S
C5294 H5271 0.950 . S
C5294 C5293 1.397 . S
C5294 C5295 1.334 . S
C5295 H5272 0.950 . S
C5295 C5294 1.334 . S
C5295 C5296 1.287 . S
C5296 C5295 1.287 . S
C5296 C5297 1.524 . S
C5296 H5315 0.913 . S
C5297 H5273 0.957 . S
C5297 C5296 1.524 . S
C5297 C5298 1.415 . S
C5298 H5274 0.950 . S
C5298 C5293 1.363 . S
C5298 C5297 1.415 . S
C5299 H5275 0.951 . S
C5299 C5300 1.366 . S
C5299 C5301 1.388 . S
C5300 C5299 1.366 . S
C5300 C5304 1.385 . S
C5301 H5276 0.951 . S
C5301 C5299 1.388 . S
C5301 C5302 1.366 . S
C5302 C5301 1.366 . S
C5302 C5303 1.414 . S
C5302 C5305 1.499 . S
C5303 H5277 0.950 . S
C5303 C5302 1.414 . S
C5303 C5304 1.374 . S
C5304 H5278 0.950 . S
C5304 C5300 1.385 . S
C5304 C5303 1.374 . S
C5305 C5302 1.499 . S
C5305 C5306 1.373 . S
C5305 C5307 1.389 . S
C5306 H5279 0.950 . S
C5306 C5292 1.377 . S
C5306 C5305 1.373 . S
C5307 C5291 1.377 . S
C5307 C5305 1.389 . S
C5307 C5308 1.524 . S
C5308 C5307 1.524 . S
C5308 C5309 1.397 . S
C5308 C5313 1.363 . S
C5309 H5280 0.950 . S
C5309 C5308 1.397 . S
C5309 C5310 1.334 . S
C5310 H5281 0.950 . S
C5310 C5309 1.334 . S
C5310 C5311 1.287 . S
C5311 C5310 1.287 . S
C5311 C5312 1.524 . S
C5311 H5314 0.999 . S
C5312 H5282 0.950 . S
C5312 C5311 1.524 . S
C5312 C5313 1.415 . S
C5313 H5283 0.950 . S
C5313 C5308 1.363 . S
C5313 C5312 1.415 . S
H5314 C5311 0.999 . S
H5315 C5296 0.913 . S
H5316 C5334 0.951 . S
H5317 C5336 0.951 . S
H5318 C5338 0.950 . S
H5319 C5339 0.950 . S
H5320 C5341 0.950 . S
H5321 C5344 0.950 . S
H5322 C5345 0.950 . S
H5323 C5347 0.950 . S
H5324 C5348 0.950 . S
H5325 C5349 0.951 . S
H5326 C5351 0.951 . S
H5327 C5353 0.950 . S
H5328 C5354 0.950 . S
H5329 C5356 0.950 . S
H5330 C5359 0.950 . S
H5331 C5360 0.950 . S
H5332 C5362 0.950 . S
H5333 C5363 0.950 . S
C5334 H5316 0.951 . S
C5334 C5335 1.366 . S
C5334 C5336 1.388 . S
C5335 C5334 1.366 . S
C5335 C5339 1.385 . S
C5336 H5317 0.951 . S
C5336 C5334 1.388 . S
C5336 C5337 1.366 . S
C5337 C5336 1.366 . S
C5337 C5338 1.414 . S
C5337 C5340 1.499 . S
C5338 H5318 0.950 . S
C5338 C5337 1.414 . S
C5338 C5339 1.374 . S
C5339 H5319 0.950 . S
C5339 C5335 1.385 . S
C5339 C5338 1.374 . S
C5340 C5337 1.499 . S
C5340 C5341 1.373 . S
C5340 C5342 1.389 . S
C5341 H5320 0.950 . S
C5341 C5340 1.373 . S
C5341 C5357 1.377 . S
C5342 C5340 1.389 . S
C5342 C5343 1.524 . S
C5342 C5356 1.377 . S
C5343 C5342 1.524 . S
C5343 C5344 1.397 . S
C5343 C5348 1.363 . S
C5344 H5321 0.950 . S
C5344 C5343 1.397 . S
C5344 C5345 1.334 . S
C5345 H5322 0.950 . S
C5345 C5344 1.334 . S
C5345 C5346 1.287 . S
C5346 C5345 1.287 . S
C5346 C5347 1.524 . S
C5346 H5365 0.913 . S
C5347 H5323 0.950 . S
C5347 C5346 1.524 . S
C5347 C5348 1.415 . S
C5348 H5324 0.950 . S
C5348 C5343 1.363 . S
C5348 C5347 1.415 . S
C5349 H5325 0.951 . S
C5349 C5350 1.366 . S
C5349 C5351 1.388 . S
C5350 C5349 1.366 . S
C5350 C5354 1.385 . S
C5351 H5326 0.951 . S
C5351 C5349 1.388 . S
C5351 C5352 1.366 . S
C5352 C5351 1.366 . S
C5352 C5353 1.414 . S
C5352 C5355 1.499 . S
C5353 H5327 0.950 . S
C5353 C5352 1.414 . S
C5353 C5354 1.374 . S
C5354 H5328 0.950 . S
C5354 C5350 1.385 . S
C5354 C5353 1.374 . S
C5355 C5352 1.499 . S
C5355 C5356 1.373 . S
C5355 C5357 1.389 . S
C5356 H5329 0.950 . S
C5356 C5342 1.377 . S
C5356 C5355 1.373 . S
C5357 C5341 1.377 . S
C5357 C5355 1.389 . S
C5357 C5358 1.524 . S
C5358 C5357 1.524 . S
C5358 C5359 1.397 . S
C5358 C5363 1.363 . S
C5359 H5330 0.950 . S
C5359 C5358 1.397 . S
C5359 C5360 1.334 . S
C5360 H5331 0.950 . S
C5360 C5359 1.334 . S
C5360 C5361 1.287 . S
C5361 C5360 1.287 . S
C5361 C5362 1.524 . S
C5361 H5364 0.999 . S
C5362 H5332 0.950 . S
C5362 C5361 1.524 . S
C5362 C5363 1.415 . S
C5363 H5333 0.950 . S
C5363 C5358 1.363 . S
C5363 C5362 1.415 . S
H5364 C5361 0.999 . S
H5365 C5346 0.913 . S
H5366 C5384 0.951 . S
H5367 C5386 0.951 . S
H5368 C5388 0.950 . S
H5369 C5389 0.950 . S
H5370 C5391 0.950 . S
H5371 C5394 0.950 . S
H5372 C5395 0.950 . S
H5373 C5397 0.950 . S
H5374 C5398 0.950 . S
H5375 C5399 0.951 . S
H5376 C5401 0.951 . S
H5377 C5403 0.950 . S
H5378 C5404 0.950 . S
H5379 C5406 0.950 . S
H5380 C5409 0.950 . S
H5381 C5410 0.950 . S
H5382 C5412 0.950 . S
H5383 C5413 0.950 . S
C5384 H5366 0.951 . S
C5384 C5385 1.366 . S
C5384 C5386 1.388 . S
C5385 C5384 1.366 . S
C5385 C5389 1.385 . S
C5386 H5367 0.951 . S
C5386 C5384 1.388 . S
C5386 C5387 1.366 . S
C5387 C5386 1.366 . S
C5387 C5388 1.414 . S
C5387 C5390 1.499 . S
C5388 H5368 0.950 . S
C5388 C5387 1.414 . S
C5388 C5389 1.374 . S
C5389 H5369 0.950 . S
C5389 C5385 1.385 . S
C5389 C5388 1.374 . S
C5390 C5387 1.499 . S
C5390 C5391 1.373 . S
C5390 C5392 1.389 . S
C5391 H5370 0.950 . S
C5391 C5390 1.373 . S
C5391 C5407 1.377 . S
C5392 C5390 1.389 . S
C5392 C5393 1.524 . S
C5392 C5406 1.377 . S
C5393 C5392 1.524 . S
C5393 C5394 1.397 . S
C5393 C5398 1.363 . S
C5394 H5371 0.950 . S
C5394 C5393 1.397 . S
C5394 C5395 1.334 1_545 S
C5395 H5372 0.950 . S
C5395 C5394 1.334 1_565 S
C5395 C5396 1.287 . S
C5396 C5395 1.287 . S
C5396 C5397 1.524 . S
C5396 H5415 0.913 . S
C5397 H5373 0.950 . S
C5397 C5396 1.524 . S
C5397 C5398 1.415 1_565 S
C5398 H5374 0.950 . S
C5398 C5393 1.363 . S
C5398 C5397 1.415 1_545 S
C5399 H5375 0.951 . S
C5399 C5400 1.366 . S
C5399 C5401 1.388 . S
C5400 C5399 1.366 . S
C5400 C5404 1.385 . S
C5401 H5376 0.951 . S
C5401 C5399 1.388 . S
C5401 C5402 1.366 . S
C5402 C5401 1.366 . S
C5402 C5403 1.414 . S
C5402 C5405 1.499 . S
C5403 H5377 0.950 . S
C5403 C5402 1.414 . S
C5403 C5404 1.374 . S
C5404 H5378 0.950 . S
C5404 C5400 1.385 . S
C5404 C5403 1.374 . S
C5405 C5402 1.499 . S
C5405 C5406 1.373 . S
C5405 C5407 1.389 . S
C5406 H5379 0.950 . S
C5406 C5392 1.377 . S
C5406 C5405 1.373 . S
C5407 C5391 1.377 . S
C5407 C5405 1.389 . S
C5407 C5408 1.524 . S
C5408 C5407 1.524 . S
C5408 C5409 1.397 . S
C5408 C5413 1.363 . S
C5409 H5380 0.950 . S
C5409 C5408 1.397 . S
C5409 C5410 1.334 . S
C5410 H5381 0.950 . S
C5410 C5409 1.334 . S
C5410 C5411 1.287 . S
C5411 C5410 1.287 . S
C5411 C5412 1.524 . S
C5411 H5414 0.999 . S
C5412 H5382 0.950 . S
C5412 C5411 1.524 . S
C5412 C5413 1.415 . S
C5413 H5383 0.950 . S
C5413 C5408 1.363 . S
C5413 C5412 1.415 . S
H5414 C5411 0.999 . S
H5415 C5396 0.913 . S
H5416 C5434 0.951 . S
H5417 C5436 0.951 . S
H5418 C5438 0.950 . S
H5419 C5439 0.950 . S
H5420 C5441 0.950 . S
H5421 C5444 0.950 . S
H5422 C5445 0.950 . S
H5423 C5447 0.950 . S
H5424 C5448 0.950 . S
H5425 C5449 0.951 . S
H5426 C5451 0.951 . S
H5427 C5453 0.950 . S
H5428 C5454 0.950 . S
H5429 C5456 0.950 . S
H5430 C5459 0.950 . S
H5431 C5460 0.950 . S
H5432 C5462 0.950 . S
H5433 C5463 0.950 . S
C5434 H5416 0.951 . S
C5434 C5435 1.366 . S
C5434 C5436 1.388 . S
C5435 C5434 1.366 . S
C5435 C5439 1.385 . S
C5436 H5417 0.951 . S
C5436 C5434 1.388 . S
C5436 C5437 1.366 . S
C5437 C5436 1.366 . S
C5437 C5438 1.414 . S
C5437 C5440 1.499 . S
C5438 H5418 0.950 . S
C5438 C5437 1.414 . S
C5438 C5439 1.374 . S
C5439 H5419 0.950 . S
C5439 C5435 1.385 . S
C5439 C5438 1.374 . S
C5440 C5437 1.499 . S
C5440 C5441 1.373 . S
C5440 C5442 1.389 . S
C5441 H5420 0.950 . S
C5441 C5440 1.373 . S
C5441 C5457 1.377 . S
C5442 C5440 1.389 . S
C5442 C5443 1.524 . S
C5442 C5456 1.377 . S
C5443 C5442 1.524 . S
C5443 C5444 1.397 . S
C5443 C5448 1.363 . S
C5444 H5421 0.950 . S
C5444 C5443 1.397 . S
C5444 C5445 1.334 . S
C5445 H5422 0.950 . S
C5445 C5444 1.334 . S
C5445 C5446 1.287 . S
C5446 C5445 1.287 . S
C5446 C5447 1.524 . S
C5446 H5465 0.913 . S
C5447 H5423 0.950 . S
C5447 C5446 1.524 . S
C5447 C5448 1.415 . S
C5448 H5424 0.950 . S
C5448 C5443 1.363 . S
C5448 C5447 1.415 . S
C5449 H5425 0.951 . S
C5449 C5450 1.366 . S
C5449 C5451 1.388 . S
C5450 C5449 1.366 . S
C5450 C5454 1.385 . S
C5451 H5426 0.951 . S
C5451 C5449 1.388 . S
C5451 C5452 1.366 . S
C5452 C5451 1.366 . S
C5452 C5453 1.414 . S
C5452 C5455 1.499 . S
C5453 H5427 0.950 . S
C5453 C5452 1.414 . S
C5453 C5454 1.374 . S
C5454 H5428 0.950 . S
C5454 C5450 1.385 . S
C5454 C5453 1.374 . S
C5455 C5452 1.499 . S
C5455 C5456 1.373 . S
C5455 C5457 1.389 . S
C5456 H5429 0.950 . S
C5456 C5442 1.377 . S
C5456 C5455 1.373 . S
C5457 C5441 1.377 . S
C5457 C5455 1.389 . S
C5457 C5458 1.524 . S
C5458 C5457 1.524 . S
C5458 C5459 1.397 . S
C5458 C5463 1.363 . S
C5459 H5430 0.950 . S
C5459 C5458 1.397 . S
C5459 C5460 1.334 . S
C5460 H5431 0.950 . S
C5460 C5459 1.334 . S
C5460 C5461 1.287 . S
C5461 C5460 1.287 . S
C5461 C5462 1.524 . S
C5461 H5464 0.999 . S
C5462 H5432 0.950 . S
C5462 C5461 1.524 . S
C5462 C5463 1.415 . S
C5463 H5433 0.950 . S
C5463 C5458 1.363 . S
C5463 C5462 1.415 . S
H5464 C5461 0.999 . S
H5465 C5446 0.913 . S
H5466 C5484 0.951 . S
H5467 C5486 0.951 . S
H5468 C5488 0.950 . S
H5469 C5489 0.950 . S
H5470 C5491 0.950 . S
H5471 C5494 0.950 . S
H5472 C5495 0.950 . S
H5473 C5497 0.950 . S
H5474 C5498 0.950 . S
H5475 C5499 0.951 . S
H5476 C5501 0.951 . S
H5477 C5503 0.950 . S
H5478 C5504 0.950 . S
H5479 C5506 0.950 . S
H5480 C5509 0.950 . S
H5481 C5510 0.950 . S
H5482 C5512 0.950 . S
H5483 C5513 0.950 . S
C5484 H5466 0.951 . S
C5484 C5485 1.366 . S
C5484 C5486 1.388 . S
C5485 C5484 1.366 . S
C5485 C5489 1.385 . S
C5486 H5467 0.951 . S
C5486 C5484 1.388 . S
C5486 C5487 1.366 . S
C5487 C5486 1.366 . S
C5487 C5488 1.414 . S
C5487 C5490 1.499 . S
C5488 H5468 0.950 . S
C5488 C5487 1.414 . S
C5488 C5489 1.374 . S
C5489 H5469 0.950 . S
C5489 C5485 1.385 . S
C5489 C5488 1.374 . S
C5490 C5487 1.499 . S
C5490 C5491 1.373 . S
C5490 C5492 1.389 . S
C5491 H5470 0.950 . S
C5491 C5490 1.373 . S
C5491 C5507 1.377 . S
C5492 C5490 1.389 . S
C5492 C5493 1.524 . S
C5492 C5506 1.377 . S
C5493 C5492 1.524 . S
C5493 C5494 1.397 . S
C5493 C5498 1.363 . S
C5494 H5471 0.950 . S
C5494 C5493 1.397 . S
C5494 C5495 1.334 . S
C5495 H5472 0.950 . S
C5495 C5494 1.334 . S
C5495 C5496 1.287 . S
C5496 C5495 1.287 . S
C5496 C5497 1.524 . S
C5496 H5515 0.913 . S
C5497 H5473 0.950 . S
C5497 C5496 1.524 . S
C5497 C5498 1.415 . S
C5498 H5474 0.950 . S
C5498 C5493 1.363 . S
C5498 C5497 1.415 . S
C5499 H5475 0.951 . S
C5499 C5500 1.366 . S
C5499 C5501 1.388 . S
C5500 C5499 1.366 . S
C5500 C5504 1.385 . S
C5501 H5476 0.951 . S
C5501 C5499 1.388 . S
C5501 C5502 1.366 . S
C5502 C5501 1.366 . S
C5502 C5503 1.414 . S
C5502 C5505 1.499 . S
C5503 H5477 0.950 . S
C5503 C5502 1.414 . S
C5503 C5504 1.374 . S
C5504 H5478 0.950 . S
C5504 C5500 1.385 . S
C5504 C5503 1.374 . S
C5505 C5502 1.499 . S
C5505 C5506 1.373 . S
C5505 C5507 1.389 . S
C5506 H5479 0.950 . S
C5506 C5492 1.377 . S
C5506 C5505 1.373 . S
C5507 C5491 1.377 . S
C5507 C5505 1.389 . S
C5507 C5508 1.524 . S
C5508 C5507 1.524 . S
C5508 C5509 1.397 . S
C5508 C5513 1.363 . S
C5509 H5480 0.950 . S
C5509 C5508 1.397 . S
C5509 C5510 1.334 . S
C5510 H5481 0.950 . S
C5510 C5509 1.334 . S
C5510 C5511 1.287 . S
C5511 C5510 1.287 . S
C5511 C5512 1.524 . S
C5511 H5514 0.999 . S
C5512 H5482 0.950 . S
C5512 C5511 1.524 . S
C5512 C5513 1.415 . S
C5513 H5483 0.950 . S
C5513 C5508 1.363 . S
C5513 C5512 1.415 . S
H5514 C5511 0.999 . S
H5515 C5496 0.913 . S
H5516 C5534 0.951 . S
H5517 C5536 0.951 . S
H5518 C5538 0.950 . S
H5519 C5539 0.950 . S
H5520 C5541 0.950 . S
H5521 C5544 0.950 . S
H5522 C5545 0.950 . S
H5523 C5547 0.950 . S
H5524 C5548 0.950 . S
H5525 C5549 0.951 . S
H5526 C5551 0.951 . S
H5527 C5553 0.950 . S
H5528 C5554 0.950 . S
H5529 C5556 0.950 . S
H5530 C5559 0.950 . S
H5531 C5560 0.950 . S
H5532 C5562 0.950 . S
H5533 C5563 0.950 . S
C5534 H5516 0.951 . S
C5534 C5535 1.366 . S
C5534 C5536 1.388 . S
C5535 C5534 1.366 . S
C5535 C5539 1.385 . S
C5536 H5517 0.951 . S
C5536 C5534 1.388 . S
C5536 C5537 1.366 . S
C5537 C5536 1.366 . S
C5537 C5538 1.414 . S
C5537 C5540 1.499 . S
C5538 H5518 0.950 . S
C5538 C5537 1.414 . S
C5538 C5539 1.374 . S
C5539 H5519 0.950 . S
C5539 C5535 1.385 . S
C5539 C5538 1.374 . S
C5540 C5537 1.499 . S
C5540 C5541 1.373 . S
C5540 C5542 1.389 . S
C5541 H5520 0.950 . S
C5541 C5540 1.373 . S
C5541 C5557 1.377 . S
C5542 C5540 1.389 . S
C5542 C5543 1.524 . S
C5542 C5556 1.377 . S
C5543 C5542 1.524 . S
C5543 C5544 1.397 . S
C5543 C5548 1.363 . S
C5544 H5521 0.950 . S
C5544 C5543 1.397 . S
C5544 C5545 1.334 . S
C5545 H5522 0.950 . S
C5545 C5544 1.334 . S
C5545 C5546 1.287 . S
C5546 C5545 1.287 . S
C5546 C5547 1.524 . S
C5546 H5565 0.913 . S
C5547 H5523 0.950 . S
C5547 C5546 1.524 . S
C5547 C5548 1.415 . S
C5548 H5524 0.950 . S
C5548 C5543 1.363 . S
C5548 C5547 1.415 . S
C5549 H5525 0.951 . S
C5549 C5550 1.366 . S
C5549 C5551 1.388 . S
C5550 C5549 1.366 . S
C5550 C5554 1.385 . S
C5551 H5526 0.951 . S
C5551 C5549 1.388 . S
C5551 C5552 1.366 . S
C5552 C5551 1.366 . S
C5552 C5553 1.414 . S
C5552 C5555 1.499 . S
C5553 H5527 0.950 . S
C5553 C5552 1.414 . S
C5553 C5554 1.374 . S
C5554 H5528 0.950 . S
C5554 C5550 1.385 . S
C5554 C5553 1.374 . S
C5555 C5552 1.499 . S
C5555 C5556 1.373 . S
C5555 C5557 1.389 . S
C5556 H5529 0.950 . S
C5556 C5542 1.377 . S
C5556 C5555 1.373 . S
C5557 C5541 1.377 . S
C5557 C5555 1.389 . S
C5557 C5558 1.524 . S
C5558 C5557 1.524 . S
C5558 C5559 1.397 . S
C5558 C5563 1.363 . S
C5559 H5530 0.950 . S
C5559 C5558 1.397 . S
C5559 C5560 1.334 . S
C5560 H5531 0.950 . S
C5560 C5559 1.334 . S
C5560 C5561 1.287 . S
C5561 C5560 1.287 . S
C5561 C5562 1.524 . S
C5561 H5564 0.999 . S
C5562 H5532 0.950 . S
C5562 C5561 1.524 . S
C5562 C5563 1.415 . S
C5563 H5533 0.950 . S
C5563 C5558 1.363 . S
C5563 C5562 1.415 . S
H5564 C5561 0.999 . S
H5565 C5546 0.913 . S
H5566 C5584 0.951 . S
H5567 C5586 0.951 . S
H5568 C5588 0.950 . S
H5569 C5589 0.950 . S
H5570 C5591 0.950 . S
H5571 C5594 0.950 . S
H5572 C5595 0.950 . S
H5573 C5597 0.950 . S
H5574 C5598 0.950 . S
H5575 C5599 0.951 . S
H5576 C5601 0.951 . S
H5577 C5603 0.950 . S
H5578 C5604 0.950 . S
H5579 C5606 0.950 . S
H5580 C5609 0.950 . S
H5581 C5610 0.950 . S
H5582 C5612 0.950 . S
H5583 C5613 0.950 . S
C5584 H5566 0.951 . S
C5584 C5585 1.366 . S
C5584 C5586 1.388 . S
C5585 C5584 1.366 . S
C5585 C5589 1.385 . S
C5586 H5567 0.951 . S
C5586 C5584 1.388 . S
C5586 C5587 1.366 . S
C5587 C5586 1.366 . S
C5587 C5588 1.414 . S
C5587 C5590 1.499 . S
C5588 H5568 0.950 . S
C5588 C5587 1.414 . S
C5588 C5589 1.374 . S
C5589 H5569 0.950 . S
C5589 C5585 1.385 . S
C5589 C5588 1.374 . S
C5590 C5587 1.499 . S
C5590 C5591 1.373 . S
C5590 C5592 1.389 . S
C5591 H5570 0.950 . S
C5591 C5590 1.373 . S
C5591 C5607 1.377 . S
C5592 C5590 1.389 . S
C5592 C5593 1.524 . S
C5592 C5606 1.377 . S
C5593 C5592 1.524 . S
C5593 C5594 1.397 . S
C5593 C5598 1.363 . S
C5594 H5571 0.950 . S
C5594 C5593 1.397 . S
C5594 C5595 1.334 . S
C5595 H5572 0.950 . S
C5595 C5594 1.334 . S
C5595 C5596 1.287 . S
C5596 C5595 1.287 . S
C5596 C5597 1.524 . S
C5596 H5615 0.913 . S
C5597 H5573 0.950 . S
C5597 C5596 1.524 . S
C5597 C5598 1.415 . S
C5598 H5574 0.950 . S
C5598 C5593 1.363 . S
C5598 C5597 1.415 . S
C5599 H5575 0.951 . S
C5599 C5600 1.366 . S
C5599 C5601 1.388 . S
C5600 C5599 1.366 . S
C5600 C5604 1.385 . S
C5601 H5576 0.951 . S
C5601 C5599 1.388 . S
C5601 C5602 1.366 . S
C5602 C5601 1.366 . S
C5602 C5603 1.414 . S
C5602 C5605 1.499 . S
C5603 H5577 0.950 . S
C5603 C5602 1.414 . S
C5603 C5604 1.374 . S
C5604 H5578 0.950 . S
C5604 C5600 1.385 . S
C5604 C5603 1.374 . S
C5605 C5602 1.499 . S
C5605 C5606 1.373 . S
C5605 C5607 1.389 . S
C5606 H5579 0.950 . S
C5606 C5592 1.377 . S
C5606 C5605 1.373 . S
C5607 C5591 1.377 . S
C5607 C5605 1.389 . S
C5607 C5608 1.524 . S
C5608 C5607 1.524 . S
C5608 C5609 1.397 . S
C5608 C5613 1.363 . S
C5609 H5580 0.950 . S
C5609 C5608 1.397 . S
C5609 C5610 1.334 . S
C5610 H5581 0.950 . S
C5610 C5609 1.334 . S
C5610 C5611 1.287 . S
C5611 C5610 1.287 . S
C5611 C5612 1.524 . S
C5611 H5614 0.999 . S
C5612 H5582 0.950 . S
C5612 C5611 1.524 . S
C5612 C5613 1.415 . S
C5613 H5583 0.950 . S
C5613 C5608 1.363 . S
C5613 C5612 1.415 . S
H5614 C5611 0.999 . S
H5615 C5596 0.913 . S
H5616 C5634 0.951 . S
H5617 C5636 0.951 . S
H5618 C5638 0.950 . S
H5619 C5639 0.950 . S
H5620 C5641 0.950 . S
H5621 C5644 0.950 . S
H5622 C5645 0.950 . S
H5623 C5647 0.950 . S
H5624 C5648 0.950 . S
H5625 C5649 0.951 . S
H5626 C5651 0.951 . S
H5627 C5653 0.950 . S
H5628 C5654 0.950 . S
H5629 C5656 0.950 . S
H5630 C5659 0.950 . S
H5631 C5660 0.950 . S
H5632 C5662 0.950 . S
H5633 C5663 0.950 . S
C5634 H5616 0.951 . S
C5634 C5635 1.366 . S
C5634 C5636 1.388 . S
C5635 C5634 1.366 . S
C5635 C5639 1.385 . S
C5636 H5617 0.951 . S
C5636 C5634 1.388 . S
C5636 C5637 1.366 . S
C5637 C5636 1.366 . S
C5637 C5638 1.414 . S
C5637 C5640 1.499 . S
C5638 H5618 0.950 . S
C5638 C5637 1.414 . S
C5638 C5639 1.374 . S
C5639 H5619 0.950 . S
C5639 C5635 1.385 . S
C5639 C5638 1.374 . S
C5640 C5637 1.499 . S
C5640 C5641 1.373 . S
C5640 C5642 1.389 . S
C5641 H5620 0.950 . S
C5641 C5640 1.373 . S
C5641 C5657 1.377 . S
C5642 C5640 1.389 . S
C5642 C5643 1.524 . S
C5642 C5656 1.377 . S
C5643 C5642 1.524 . S
C5643 C5644 1.397 . S
C5643 C5648 1.363 . S
C5644 H5621 0.950 . S
C5644 C5643 1.397 . S
C5644 C5645 1.334 . S
C5645 H5622 0.950 . S
C5645 C5644 1.334 . S
C5645 C5646 1.287 . S
C5646 C5645 1.287 . S
C5646 C5647 1.524 . S
C5646 H5665 0.913 . S
C5647 H5623 0.950 . S
C5647 C5646 1.524 . S
C5647 C5648 1.415 . S
C5648 H5624 0.950 . S
C5648 C5643 1.363 . S
C5648 C5647 1.415 . S
C5649 H5625 0.951 . S
C5649 C5650 1.366 . S
C5649 C5651 1.388 . S
C5650 C5649 1.366 . S
C5650 C5654 1.385 . S
C5651 H5626 0.951 . S
C5651 C5649 1.388 . S
C5651 C5652 1.366 . S
C5652 C5651 1.366 . S
C5652 C5653 1.414 . S
C5652 C5655 1.499 . S
C5653 H5627 0.950 . S
C5653 C5652 1.414 . S
C5653 C5654 1.374 . S
C5654 H5628 0.950 . S
C5654 C5650 1.385 . S
C5654 C5653 1.374 . S
C5655 C5652 1.499 . S
C5655 C5656 1.373 . S
C5655 C5657 1.389 . S
C5656 H5629 0.950 . S
C5656 C5642 1.377 . S
C5656 C5655 1.373 . S
C5657 C5641 1.377 . S
C5657 C5655 1.389 . S
C5657 C5658 1.524 . S
C5658 C5657 1.524 . S
C5658 C5659 1.397 . S
C5658 C5663 1.363 . S
C5659 H5630 0.950 . S
C5659 C5658 1.397 . S
C5659 C5660 1.334 . S
C5660 H5631 0.950 . S
C5660 C5659 1.334 . S
C5660 C5661 1.287 . S
C5661 C5660 1.287 . S
C5661 C5662 1.524 . S
C5661 H5664 0.999 . S
C5662 H5632 0.950 . S
C5662 C5661 1.524 . S
C5662 C5663 1.415 . S
C5663 H5633 0.950 . S
C5663 C5658 1.363 . S
C5663 C5662 1.415 . S
H5664 C5661 0.999 . S
H5665 C5646 0.913 . S
H5666 C5684 0.951 . S
H5667 C5686 0.951 . S
H5668 C5688 0.950 . S
H5669 C5689 0.950 . S
H5670 C5691 0.950 . S
H5671 C5694 0.950 . S
H5672 C5695 0.950 . S
H5673 C5697 0.950 . S
H5674 C5698 0.950 . S
H5675 C5699 0.951 . S
H5676 C5701 0.951 . S
H5677 C5703 0.950 . S
H5678 C5704 0.950 . S
H5679 C5706 0.950 . S
H5680 C5709 0.950 . S
H5681 C5710 0.950 . S
H5682 C5712 0.950 . S
H5683 C5713 0.950 . S
C5684 H5666 0.951 . S
C5684 C5685 1.366 . S
C5684 C5686 1.388 . S
C5685 C5684 1.366 . S
C5685 C5689 1.385 . S
C5686 H5667 0.951 . S
C5686 C5684 1.388 . S
C5686 C5687 1.366 . S
C5687 C5686 1.366 . S
C5687 C5688 1.414 . S
C5687 C5690 1.499 . S
C5688 H5668 0.950 . S
C5688 C5687 1.414 . S
C5688 C5689 1.374 . S
C5689 H5669 0.950 . S
C5689 C5685 1.385 . S
C5689 C5688 1.374 . S
C5690 C5687 1.499 . S
C5690 C5691 1.373 . S
C5690 C5692 1.389 . S
C5691 H5670 0.950 . S
C5691 C5690 1.373 . S
C5691 C5707 1.377 . S
C5692 C5690 1.389 . S
C5692 C5693 1.524 . S
C5692 C5706 1.377 . S
C5693 C5692 1.524 . S
C5693 C5694 1.397 . S
C5693 C5698 1.363 . S
C5694 H5671 0.950 . S
C5694 C5693 1.397 . S
C5694 C5695 1.334 . S
C5695 H5672 0.950 . S
C5695 C5694 1.334 . S
C5695 C5696 1.287 . S
C5696 C5695 1.287 . S
C5696 C5697 1.524 . S
C5696 H5715 0.913 . S
C5697 H5673 0.950 . S
C5697 C5696 1.524 . S
C5697 C5698 1.415 . S
C5698 H5674 0.950 . S
C5698 C5693 1.363 . S
C5698 C5697 1.415 . S
C5699 H5675 0.951 . S
C5699 C5700 1.366 . S
C5699 C5701 1.388 . S
C5700 C5699 1.366 . S
C5700 C5704 1.385 . S
C5701 H5676 0.951 . S
C5701 C5699 1.388 . S
C5701 C5702 1.366 . S
C5702 C5701 1.366 . S
C5702 C5703 1.414 . S
C5702 C5705 1.499 . S
C5703 H5677 0.950 . S
C5703 C5702 1.414 . S
C5703 C5704 1.374 . S
C5704 H5678 0.950 . S
C5704 C5700 1.385 . S
C5704 C5703 1.374 . S
C5705 C5702 1.499 . S
C5705 C5706 1.373 . S
C5705 C5707 1.389 . S
C5706 H5679 0.950 . S
C5706 C5692 1.377 . S
C5706 C5705 1.373 . S
C5707 C5691 1.377 . S
C5707 C5705 1.389 . S
C5707 C5708 1.524 . S
C5708 C5707 1.524 . S
C5708 C5709 1.397 . S
C5708 C5713 1.363 . S
C5709 H5680 0.950 . S
C5709 C5708 1.397 . S
C5709 C5710 1.334 1_565 S
C5710 H5681 0.950 . S
C5710 C5709 1.334 1_545 S
C5710 C5711 1.287 . S
C5711 C5710 1.287 . S
C5711 C5712 1.524 1_545 S
C5711 H5714 0.999 . S
C5712 H5682 0.950 . S
C5712 C5711 1.524 1_565 S
C5712 C5713 1.415 . S
C5713 H5683 0.950 . S
C5713 C5708 1.363 . S
C5713 C5712 1.415 . S
H5714 C5711 0.999 . S
H5715 C5696 0.913 . S
H5716 C5734 0.951 . S
H5717 C5736 0.951 . S
H5718 C5738 0.950 . S
H5719 C5739 0.950 . S
H5720 C5741 0.950 . S
H5721 C5744 0.950 . S
H5722 C5745 0.950 . S
H5723 C5747 0.950 . S
H5724 C5748 0.950 . S
H5725 C5749 0.951 . S
H5726 C5751 0.951 . S
H5727 C5753 0.950 . S
H5728 C5754 0.950 . S
H5729 C5756 0.950 . S
H5730 C5759 0.950 . S
H5731 C5760 0.950 . S
H5732 C5762 0.950 . S
H5733 C5763 0.950 . S
C5734 H5716 0.951 . S
C5734 C5735 1.366 . S
C5734 C5736 1.388 . S
C5735 C5734 1.366 . S
C5735 C5739 1.385 . S
C5736 H5717 0.951 . S
C5736 C5734 1.388 . S
C5736 C5737 1.366 . S
C5737 C5736 1.366 . S
C5737 C5738 1.414 . S
C5737 C5740 1.499 . S
C5738 H5718 0.950 . S
C5738 C5737 1.414 . S
C5738 C5739 1.374 . S
C5739 H5719 0.950 . S
C5739 C5735 1.385 . S
C5739 C5738 1.374 . S
C5740 C5737 1.499 . S
C5740 C5741 1.373 . S
C5740 C5742 1.389 . S
C5741 H5720 0.950 . S
C5741 C5740 1.373 . S
C5741 C5757 1.377 . S
C5742 C5740 1.389 . S
C5742 C5743 1.524 . S
C5742 C5756 1.377 . S
C5743 C5742 1.524 . S
C5743 C5744 1.397 . S
C5743 C5748 1.363 . S
C5744 H5721 0.950 . S
C5744 C5743 1.397 . S
C5744 C5745 1.334 . S
C5745 H5722 0.950 . S
C5745 C5744 1.334 . S
C5745 C5746 1.287 . S
C5746 C5745 1.287 . S
C5746 C5747 1.524 . S
C5746 H5765 0.913 . S
C5747 H5723 0.950 . S
C5747 C5746 1.524 . S
C5747 C5748 1.415 . S
C5748 H5724 0.950 . S
C5748 C5743 1.363 . S
C5748 C5747 1.415 . S
C5749 H5725 0.951 . S
C5749 C5750 1.366 . S
C5749 C5751 1.388 . S
C5750 C5749 1.366 . S
C5750 C5754 1.385 . S
C5751 H5726 0.951 . S
C5751 C5749 1.388 . S
C5751 C5752 1.366 . S
C5752 C5751 1.366 . S
C5752 C5753 1.414 . S
C5752 C5755 1.499 . S
C5753 H5727 0.950 . S
C5753 C5752 1.414 . S
C5753 C5754 1.374 . S
C5754 H5728 0.950 . S
C5754 C5750 1.385 . S
C5754 C5753 1.374 . S
C5755 C5752 1.499 . S
C5755 C5756 1.373 . S
C5755 C5757 1.389 . S
C5756 H5729 0.950 . S
C5756 C5742 1.377 . S
C5756 C5755 1.373 . S
C5757 C5741 1.377 . S
C5757 C5755 1.389 . S
C5757 C5758 1.524 . S
C5758 C5757 1.524 . S
C5758 C5759 1.397 . S
C5758 C5763 1.363 . S
C5759 H5730 0.950 . S
C5759 C5758 1.397 . S
C5759 C5760 1.334 . S
C5760 H5731 0.950 . S
C5760 C5759 1.334 . S
C5760 C5761 1.287 . S
C5761 C5760 1.287 . S
C5761 C5762 1.524 . S
C5761 H5764 0.999 . S
C5762 H5732 0.950 . S
C5762 C5761 1.524 . S
C5762 C5763 1.415 . S
C5763 H5733 0.950 . S
C5763 C5758 1.363 . S
C5763 C5762 1.415 . S
H5764 C5761 0.999 . S
H5765 C5746 0.913 . S
H5766 C5784 0.951 . S
H5767 C5786 0.951 . S
H5768 C5788 0.950 . S
H5769 C5789 0.950 . S
H5770 C5791 0.950 . S
H5771 C5794 0.950 . S
H5772 C5795 0.950 . S
H5773 C5797 0.950 . S
H5774 C5798 0.950 . S
H5775 C5799 0.951 . S
H5776 C5801 0.951 . S
H5777 C5803 0.950 . S
H5778 C5804 0.950 . S
H5779 C5806 0.950 . S
H5780 C5809 0.950 . S
H5781 C5810 0.950 . S
H5782 C5812 0.950 . S
H5783 C5813 0.950 . S
C5784 H5766 0.951 . S
C5784 C5785 1.366 . S
C5784 C5786 1.388 . S
C5785 C5784 1.366 . S
C5785 C5789 1.385 . S
C5786 H5767 0.951 . S
C5786 C5784 1.388 . S
C5786 C5787 1.366 . S
C5787 C5786 1.366 . S
C5787 C5788 1.414 . S
C5787 C5790 1.499 . S
C5788 H5768 0.950 . S
C5788 C5787 1.414 . S
C5788 C5789 1.374 . S
C5789 H5769 0.950 . S
C5789 C5785 1.385 . S
C5789 C5788 1.374 . S
C5790 C5787 1.499 . S
C5790 C5791 1.373 . S
C5790 C5792 1.389 . S
C5791 H5770 0.950 . S
C5791 C5790 1.373 . S
C5791 C5807 1.377 . S
C5792 C5790 1.389 . S
C5792 C5793 1.524 . S
C5792 C5806 1.377 . S
C5793 C5792 1.524 . S
C5793 C5794 1.397 . S
C5793 C5798 1.363 . S
C5794 H5771 0.950 . S
C5794 C5793 1.397 . S
C5794 C5795 1.334 . S
C5795 H5772 0.950 . S
C5795 C5794 1.334 . S
C5795 C5796 1.287 . S
C5796 C5795 1.287 . S
C5796 C5797 1.524 . S
C5796 H5815 0.913 . S
C5797 H5773 0.950 . S
C5797 C5796 1.524 . S
C5797 C5798 1.415 . S
C5798 H5774 0.950 . S
C5798 C5793 1.363 . S
C5798 C5797 1.415 . S
C5799 H5775 0.951 . S
C5799 C5800 1.366 . S
C5799 C5801 1.388 . S
C5800 C5799 1.366 . S
C5800 C5804 1.385 . S
C5801 H5776 0.951 . S
C5801 C5799 1.388 . S
C5801 C5802 1.366 . S
C5802 C5801 1.366 . S
C5802 C5803 1.414 . S
C5802 C5805 1.499 . S
C5803 H5777 0.950 . S
C5803 C5802 1.414 . S
C5803 C5804 1.374 . S
C5804 H5778 0.950 . S
C5804 C5800 1.385 . S
C5804 C5803 1.374 . S
C5805 C5802 1.499 . S
C5805 C5806 1.373 . S
C5805 C5807 1.389 . S
C5806 H5779 0.950 . S
C5806 C5792 1.377 . S
C5806 C5805 1.373 . S
C5807 C5791 1.377 . S
C5807 C5805 1.389 . S
C5807 C5808 1.524 . S
C5808 C5807 1.524 . S
C5808 C5809 1.397 . S
C5808 C5813 1.363 . S
C5809 H5780 0.950 . S
C5809 C5808 1.397 . S
C5809 C5810 1.334 1_545 S
C5810 H5781 0.950 . S
C5810 C5809 1.334 1_565 S
C5810 C5811 1.287 . S
C5811 C5810 1.287 . S
C5811 C5812 1.524 1_565 S
C5811 H5814 0.999 . S
C5812 H5782 0.950 . S
C5812 C5811 1.524 1_545 S
C5812 C5813 1.415 . S
C5813 H5783 0.950 . S
C5813 C5808 1.363 . S
C5813 C5812 1.415 . S
H5814 C5811 0.999 . S
H5815 C5796 0.913 . S
H5816 C5834 0.951 . S
H5817 C5836 0.951 . S
H5818 C5838 0.950 . S
H5819 C5839 0.950 . S
H5820 C5841 0.950 . S
H5821 C5844 0.950 . S
H5822 C5845 0.950 . S
H5823 C5847 0.950 . S
H5824 C5848 0.950 . S
H5825 C5849 0.951 . S
H5826 C5851 0.951 . S
H5827 C5853 0.950 . S
H5828 C5854 0.950 . S
H5829 C5856 0.950 . S
H5830 C5859 0.950 . S
H5831 C5860 0.950 . S
H5832 C5862 0.950 . S
H5833 C5863 0.950 . S
C5834 H5816 0.951 . S
C5834 C5835 1.366 . S
C5834 C5836 1.388 . S
C5835 C5834 1.366 . S
C5835 C5839 1.385 . S
C5836 H5817 0.951 . S
C5836 C5834 1.388 . S
C5836 C5837 1.366 . S
C5837 C5836 1.366 . S
C5837 C5838 1.414 . S
C5837 C5840 1.499 . S
C5838 H5818 0.950 . S
C5838 C5837 1.414 . S
C5838 C5839 1.374 . S
C5839 H5819 0.950 . S
C5839 C5835 1.385 . S
C5839 C5838 1.374 . S
C5840 C5837 1.499 . S
C5840 C5841 1.373 . S
C5840 C5842 1.389 . S
C5841 H5820 0.950 . S
C5841 C5840 1.373 . S
C5841 C5857 1.377 . S
C5842 C5840 1.389 . S
C5842 C5843 1.524 . S
C5842 C5856 1.377 . S
C5843 C5842 1.524 . S
C5843 C5844 1.397 . S
C5843 C5848 1.363 . S
C5844 H5821 0.950 . S
C5844 C5843 1.397 . S
C5844 C5845 1.334 . S
C5845 H5822 0.950 . S
C5845 C5844 1.334 . S
C5845 C5846 1.287 . S
C5846 C5845 1.287 . S
C5846 C5847 1.524 . S
C5846 H5865 0.913 . S
C5847 H5823 0.950 . S
C5847 C5846 1.524 . S
C5847 C5848 1.415 . S
C5848 H5824 0.950 . S
C5848 C5843 1.363 . S
C5848 C5847 1.415 . S
C5849 H5825 0.951 . S
C5849 C5850 1.366 . S
C5849 C5851 1.388 . S
C5850 C5849 1.366 . S
C5850 C5854 1.385 . S
C5851 H5826 0.951 . S
C5851 C5849 1.388 . S
C5851 C5852 1.366 . S
C5852 C5851 1.366 . S
C5852 C5853 1.414 . S
C5852 C5855 1.499 . S
C5853 H5827 0.950 . S
C5853 C5852 1.414 . S
C5853 C5854 1.374 . S
C5854 H5828 0.950 . S
C5854 C5850 1.385 . S
C5854 C5853 1.374 . S
C5855 C5852 1.499 . S
C5855 C5856 1.373 . S
C5855 C5857 1.389 . S
C5856 H5829 0.950 . S
C5856 C5842 1.377 . S
C5856 C5855 1.373 . S
C5857 C5841 1.377 . S
C5857 C5855 1.389 . S
C5857 C5858 1.524 . S
C5858 C5857 1.524 . S
C5858 C5859 1.397 . S
C5858 C5863 1.363 . S
C5859 H5830 0.950 . S
C5859 C5858 1.397 . S
C5859 C5860 1.334 . S
C5860 H5831 0.950 . S
C5860 C5859 1.334 . S
C5860 C5861 1.287 . S
C5861 C5860 1.287 . S
C5861 C5862 1.524 . S
C5861 H5864 0.999 . S
C5862 H5832 0.950 . S
C5862 C5861 1.524 . S
C5862 C5863 1.415 . S
C5863 H5833 0.950 . S
C5863 C5858 1.363 . S
C5863 C5862 1.415 . S
H5864 C5861 0.999 . S
H5865 C5846 0.913 . S
H5866 C5884 0.951 . S
H5867 C5886 0.951 . S
H5868 C5888 0.950 . S
H5869 C5889 0.950 . S
H5870 C5891 0.950 . S
H5871 C5894 0.950 . S
H5872 C5895 0.950 . S
H5873 C5897 0.950 . S
H5874 C5898 0.950 . S
H5875 C5899 0.951 . S
H5876 C5901 0.951 . S
H5877 C5903 0.950 . S
H5878 C5904 0.950 . S
H5879 C5906 0.950 . S
H5880 C5909 0.950 . S
H5881 C5910 0.950 . S
H5882 C5912 0.950 . S
H5883 C5913 0.950 . S
C5884 H5866 0.951 . S
C5884 C5885 1.366 . S
C5884 C5886 1.388 . S
C5885 C5884 1.366 . S
C5885 C5889 1.385 . S
C5886 H5867 0.951 . S
C5886 C5884 1.388 . S
C5886 C5887 1.366 . S
C5887 C5886 1.366 . S
C5887 C5888 1.414 . S
C5887 C5890 1.499 . S
C5888 H5868 0.950 . S
C5888 C5887 1.414 . S
C5888 C5889 1.374 . S
C5889 H5869 0.950 . S
C5889 C5885 1.385 . S
C5889 C5888 1.374 . S
C5890 C5887 1.499 . S
C5890 C5891 1.373 . S
C5890 C5892 1.389 . S
C5891 H5870 0.950 . S
C5891 C5890 1.373 . S
C5891 C5907 1.377 . S
C5892 C5890 1.389 . S
C5892 C5893 1.524 . S
C5892 C5906 1.377 . S
C5893 C5892 1.524 . S
C5893 C5894 1.397 . S
C5893 C5898 1.363 . S
C5894 H5871 0.950 . S
C5894 C5893 1.397 . S
C5894 C5895 1.334 . S
C5895 H5872 0.950 . S
C5895 C5894 1.334 . S
C5895 C5896 1.287 . S
C5896 C5895 1.287 . S
C5896 C5897 1.524 . S
C5896 H5915 0.913 . S
C5897 H5873 0.950 . S
C5897 C5896 1.524 . S
C5897 C5898 1.415 . S
C5898 H5874 0.950 . S
C5898 C5893 1.363 . S
C5898 C5897 1.415 . S
C5899 H5875 0.951 . S
C5899 C5900 1.366 . S
C5899 C5901 1.388 . S
C5900 C5899 1.366 . S
C5900 C5904 1.385 . S
C5901 H5876 0.951 . S
C5901 C5899 1.388 . S
C5901 C5902 1.366 . S
C5902 C5901 1.366 . S
C5902 C5903 1.414 . S
C5902 C5905 1.499 . S
C5903 H5877 0.950 . S
C5903 C5902 1.414 . S
C5903 C5904 1.374 . S
C5904 H5878 0.950 . S
C5904 C5900 1.385 . S
C5904 C5903 1.374 . S
C5905 C5902 1.499 . S
C5905 C5906 1.373 . S
C5905 C5907 1.389 . S
C5906 H5879 0.950 . S
C5906 C5892 1.377 . S
C5906 C5905 1.373 . S
C5907 C5891 1.377 . S
C5907 C5905 1.389 . S
C5907 C5908 1.524 . S
C5908 C5907 1.524 . S
C5908 C5909 1.397 . S
C5908 C5913 1.363 . S
C5909 H5880 0.950 . S
C5909 C5908 1.397 . S
C5909 C5910 1.334 . S
C5910 H5881 0.950 . S
C5910 C5909 1.334 . S
C5910 C5911 1.287 . S
C5911 C5910 1.287 . S
C5911 C5912 1.524 . S
C5911 H5914 0.999 . S
C5912 H5882 0.950 . S
C5912 C5911 1.524 . S
C5912 C5913 1.415 . S
C5913 H5883 0.950 . S
C5913 C5908 1.363 . S
C5913 C5912 1.415 . S
H5914 C5911 0.999 . S
H5915 C5896 0.913 . S
H5916 C5934 0.951 . S
H5917 C5936 0.951 . S
H5918 C5938 0.950 . S
H5919 C5939 0.950 . S
H5920 C5941 0.950 . S
H5921 C5944 0.950 . S
H5922 C5945 0.950 . S
H5923 C5947 0.950 . S
H5924 C5948 0.950 . S
H5925 C5949 0.951 . S
H5926 C5951 0.951 . S
H5927 C5953 0.950 . S
H5928 C5954 0.950 . S
H5929 C5956 0.950 . S
H5930 C5959 0.950 . S
H5931 C5960 0.950 . S
H5932 C5962 0.950 . S
H5933 C5963 0.950 . S
C5934 H5916 0.951 . S
C5934 C5935 1.366 . S
C5934 C5936 1.388 . S
C5935 C5934 1.366 . S
C5935 C5939 1.385 . S
C5936 H5917 0.951 . S
C5936 C5934 1.388 . S
C5936 C5937 1.366 . S
C5937 C5936 1.366 . S
C5937 C5938 1.414 . S
C5937 C5940 1.499 . S
C5938 H5918 0.950 . S
C5938 C5937 1.414 . S
C5938 C5939 1.374 . S
C5939 H5919 0.950 . S
C5939 C5935 1.385 . S
C5939 C5938 1.374 . S
C5940 C5937 1.499 . S
C5940 C5941 1.373 . S
C5940 C5942 1.389 . S
C5941 H5920 0.950 . S
C5941 C5940 1.373 . S
C5941 C5957 1.377 . S
C5942 C5940 1.389 . S
C5942 C5943 1.524 . S
C5942 C5956 1.377 . S
C5943 C5942 1.524 . S
C5943 C5944 1.397 . S
C5943 C5948 1.363 . S
C5944 H5921 0.950 . S
C5944 C5943 1.397 . S
C5944 C5945 1.334 . S
C5945 H5922 0.950 . S
C5945 C5944 1.334 . S
C5945 C5946 1.287 . S
C5946 C5945 1.287 . S
C5946 C5947 1.524 . S
C5946 H5965 0.913 . S
C5947 H5923 0.950 . S
C5947 C5946 1.524 . S
C5947 C5948 1.415 . S
C5948 H5924 0.950 . S
C5948 C5943 1.363 . S
C5948 C5947 1.415 . S
C5949 H5925 0.951 . S
C5949 C5950 1.366 . S
C5949 C5951 1.388 . S
C5950 C5949 1.366 . S
C5950 C5954 1.385 . S
C5951 H5926 0.951 . S
C5951 C5949 1.388 . S
C5951 C5952 1.366 . S
C5952 C5951 1.366 . S
C5952 C5953 1.414 . S
C5952 C5955 1.499 . S
C5953 H5927 0.950 . S
C5953 C5952 1.414 . S
C5953 C5954 1.374 . S
C5954 H5928 0.950 . S
C5954 C5950 1.385 . S
C5954 C5953 1.374 . S
C5955 C5952 1.499 . S
C5955 C5956 1.373 . S
C5955 C5957 1.389 . S
C5956 H5929 0.950 . S
C5956 C5942 1.377 . S
C5956 C5955 1.373 . S
C5957 C5941 1.377 . S
C5957 C5955 1.389 . S
C5957 C5958 1.524 . S
C5958 C5957 1.524 . S
C5958 C5959 1.397 . S
C5958 C5963 1.363 . S
C5959 H5930 0.950 . S
C5959 C5958 1.397 . S
C5959 C5960 1.334 . S
C5960 H5931 0.950 . S
C5960 C5959 1.334 . S
C5960 C5961 1.287 . S
C5961 C5960 1.287 . S
C5961 C5962 1.524 . S
C5961 H5964 0.999 . S
C5962 H5932 0.950 . S
C5962 C5961 1.524 . S
C5962 C5963 1.415 . S
C5963 H5933 0.950 . S
C5963 C5958 1.363 . S
C5963 C5962 1.415 . S
H5964 C5961 0.999 . S
H5965 C5946 0.913 . S
H5966 C5984 0.951 . S
H5967 C5986 0.951 . S
H5968 C5988 0.950 . S
H5969 C5989 0.950 . S
H5970 C5991 0.950 . S
H5971 C5994 0.950 . S
H5972 C5995 0.950 . S
H5973 C5997 0.950 . S
H5974 C5998 0.950 . S
H5975 C5999 0.951 . S
H5976 C6001 0.951 . S
H5977 C6003 0.950 . S
H5978 C6004 0.950 . S
H5979 C6006 0.950 . S
H5980 C6009 0.950 . S
H5981 C6010 0.950 . S
H5982 C6012 0.950 . S
H5983 C6013 0.950 . S
C5984 H5966 0.951 . S
C5984 C5985 1.366 . S
C5984 C5986 1.388 . S
C5985 C5984 1.366 . S
C5985 C5989 1.385 . S
C5986 H5967 0.951 . S
C5986 C5984 1.388 . S
C5986 C5987 1.366 . S
C5987 C5986 1.366 . S
C5987 C5988 1.414 . S
C5987 C5990 1.499 . S
C5988 H5968 0.950 . S
C5988 C5987 1.414 . S
C5988 C5989 1.374 . S
C5989 H5969 0.950 . S
C5989 C5985 1.385 . S
C5989 C5988 1.374 . S
C5990 C5987 1.499 . S
C5990 C5991 1.373 . S
C5990 C5992 1.389 . S
C5991 H5970 0.950 . S
C5991 C5990 1.373 . S
C5991 C6007 1.377 . S
C5992 C5990 1.389 . S
C5992 C5993 1.524 . S
C5992 C6006 1.377 . S
C5993 C5992 1.524 . S
C5993 C5994 1.397 . S
C5993 C5998 1.363 . S
C5994 H5971 0.950 . S
C5994 C5993 1.397 . S
C5994 C5995 1.334 . S
C5995 H5972 0.950 . S
C5995 C5994 1.334 . S
C5995 C5996 1.287 . S
C5996 C5995 1.287 . S
C5996 C5997 1.524 . S
C5996 H6015 0.913 . S
C5997 H5973 0.950 . S
C5997 C5996 1.524 . S
C5997 C5998 1.415 . S
C5998 H5974 0.950 . S
C5998 C5993 1.363 . S
C5998 C5997 1.415 . S
C5999 H5975 0.951 . S
C5999 C6000 1.366 . S
C5999 C6001 1.388 . S
C6000 C5999 1.366 . S
C6000 C6004 1.385 . S
C6001 H5976 0.951 . S
C6001 C5999 1.388 . S
C6001 C6002 1.366 . S
C6002 C6001 1.366 . S
C6002 C6003 1.414 . S
C6002 C6005 1.499 . S
C6003 H5977 0.950 . S
C6003 C6002 1.414 . S
C6003 C6004 1.374 . S
C6004 H5978 0.950 . S
C6004 C6000 1.385 . S
C6004 C6003 1.374 . S
C6005 C6002 1.499 . S
C6005 C6006 1.373 . S
C6005 C6007 1.389 . S
C6006 H5979 0.950 . S
C6006 C5992 1.377 . S
C6006 C6005 1.373 . S
C6007 C5991 1.377 . S
C6007 C6005 1.389 . S
C6007 C6008 1.524 . S
C6008 C6007 1.524 . S
C6008 C6009 1.397 . S
C6008 C6013 1.363 . S
C6009 H5980 0.950 . S
C6009 C6008 1.397 . S
C6009 C6010 1.334 . S
C6010 H5981 0.950 . S
C6010 C6009 1.334 . S
C6010 C6011 1.287 . S
C6011 C6010 1.287 . S
C6011 C6012 1.524 . S
C6011 H6014 0.999 . S
C6012 H5982 0.950 . S
C6012 C6011 1.524 . S
C6012 C6013 1.415 . S
C6013 H5983 0.950 . S
C6013 C6008 1.363 . S
C6013 C6012 1.415 . S
H6014 C6011 0.999 . S
H6015 C5996 0.913 . S
H6016 C6034 0.951 . S
H6017 C6036 0.951 . S
H6018 C6038 0.950 . S
H6019 C6039 0.950 . S
H6020 C6041 0.950 . S
H6021 C6044 0.950 . S
H6022 C6045 0.950 . S
H6023 C6047 0.950 . S
H6024 C6048 0.950 . S
H6025 C6049 0.951 . S
H6026 C6051 0.951 . S
H6027 C6053 0.950 . S
H6028 C6054 0.950 . S
H6029 C6056 0.950 . S
H6030 C6059 0.950 . S
H6031 C6060 0.950 . S
H6032 C6062 0.950 . S
H6033 C6063 0.950 . S
C6034 H6016 0.951 . S
C6034 C6035 1.366 . S
C6034 C6036 1.388 . S
C6035 C6034 1.366 . S
C6035 C6039 1.385 1_656 S
C6036 H6017 0.951 . S
C6036 C6034 1.388 . S
C6036 C6037 1.384 . S
C6037 C6036 1.384 . S
C6037 C6038 1.397 1_656 S
C6037 C6040 1.497 1_655 S
C6038 H6018 0.950 . S
C6038 C6037 1.397 1_454 S
C6038 C6039 1.374 . S
C6039 H6019 0.950 . S
C6039 C6035 1.385 1_454 S
C6039 C6038 1.374 . S
C6040 C6037 1.497 1_455 S
C6040 C6041 1.376 1_556 S
C6040 C6042 1.384 1_455 S
C6041 H6020 0.950 . S
C6041 C6040 1.376 1_554 S
C6041 C6057 1.381 . S
C6042 C6040 1.384 1_655 S
C6042 C6043 1.524 . S
C6042 C6056 1.381 . S
C6043 C6042 1.524 . S
C6043 C6044 1.346 1_655 S
C6043 C6048 1.409 . S
C6044 H6021 0.950 . S
C6044 C6043 1.346 1_455 S
C6044 C6045 1.334 . S
C6045 H6022 0.950 . S
C6045 C6044 1.334 . S
C6045 C6046 1.287 . S
C6046 C6045 1.287 . S
C6046 C6047 1.524 1_455 S
C6046 H6065 0.913 . S
C6047 H6023 0.950 . S
C6047 C6046 1.524 1_655 S
C6047 C6048 1.415 . S
C6048 H6024 0.950 . S
C6048 C6043 1.409 . S
C6048 C6047 1.415 . S
C6049 H6025 0.951 . S
C6049 C6050 1.366 . S
C6049 C6051 1.388 . S
C6050 C6049 1.366 . S
C6050 C6054 1.385 1_454 S
C6051 H6026 0.951 . S
C6051 C6049 1.388 . S
C6051 C6052 1.384 . S
C6052 C6051 1.384 . S
C6052 C6053 1.397 1_454 S
C6052 C6055 1.497 1_455 S
C6053 H6027 0.950 . S
C6053 C6052 1.397 1_656 S
C6053 C6054 1.374 . S
C6054 H6028 0.950 . S
C6054 C6050 1.385 1_656 S
C6054 C6053 1.374 . S
C6055 C6052 1.497 1_655 S
C6055 C6056 1.376 1_554 S
C6055 C6057 1.384 1_655 S
C6056 H6029 0.950 . S
C6056 C6042 1.381 . S
C6056 C6055 1.376 1_556 S
C6057 C6041 1.381 . S
C6057 C6055 1.384 1_455 S
C6057 C6058 1.524 . S
C6058 C6057 1.524 . S
C6058 C6059 1.346 1_455 S
C6058 C6063 1.409 . S
C6059 H6030 0.950 . S
C6059 C6058 1.346 1_655 S
C6059 C6060 1.334 . S
C6060 H6031 0.950 . S
C6060 C6059 1.334 . S
C6060 C6061 1.287 . S
C6061 C6060 1.287 . S
C6061 C6062 1.524 1_655 S
C6061 H6064 0.999 . S
C6062 H6032 0.950 . S
C6062 C6061 1.524 1_455 S
C6062 C6063 1.415 . S
C6063 H6033 0.950 . S
C6063 C6058 1.409 . S
C6063 C6062 1.415 . S
H6064 C6061 0.999 . S
H6065 C6046 0.913 . S
H6066 C6084 0.951 . S
H6067 C6086 0.951 . S
H6068 C6088 0.950 . S
H6069 C6089 0.950 . S
H6070 C6091 0.950 . S
H6071 C6094 0.950 . S
H6072 C6095 0.950 . S
H6073 C6097 0.950 . S
H6074 C6098 0.950 . S
H6075 C6099 0.951 . S
H6076 C6101 0.951 . S
H6077 C6103 0.950 . S
H6078 C6104 0.950 . S
H6079 C6106 0.950 . S
H6080 C6109 0.950 . S
H6081 C6110 0.950 . S
H6082 C6112 0.950 . S
H6083 C6113 0.950 . S
C6084 H6066 0.951 . S
C6084 C6085 1.366 . S
C6084 C6086 1.388 . S
C6085 C6084 1.366 . S
C6085 C6089 1.385 1_554 S
C6086 H6067 0.951 . S
C6086 C6084 1.388 . S
C6086 C6087 1.366 . S
C6087 C6086 1.366 . S
C6087 C6088 1.414 1_554 S
C6087 C6090 1.499 . S
C6088 H6068 0.950 . S
C6088 C6087 1.414 1_556 S
C6088 C6089 1.374 . S
C6089 H6069 0.950 . S
C6089 C6085 1.385 1_556 S
C6089 C6088 1.374 . S
C6090 C6087 1.499 . S
C6090 C6091 1.373 1_554 S
C6090 C6092 1.389 . S
C6091 H6070 0.950 . S
C6091 C6090 1.373 1_556 S
C6091 C6107 1.377 . S
C6092 C6090 1.389 . S
C6092 C6093 1.524 . S
C6092 C6106 1.377 . S
C6093 C6092 1.524 . S
C6093 C6094 1.397 . S
C6093 C6098 1.363 . S
C6094 H6071 0.950 . S
C6094 C6093 1.397 . S
C6094 C6095 1.334 . S
C6095 H6072 0.950 . S
C6095 C6094 1.334 . S
C6095 C6096 1.287 . S
C6096 C6095 1.287 . S
C6096 C6097 1.524 . S
C6096 H6115 0.913 . S
C6097 H6073 0.950 . S
C6097 C6096 1.524 . S
C6097 C6098 1.415 . S
C6098 H6074 0.950 . S
C6098 C6093 1.363 . S
C6098 C6097 1.415 . S
C6099 H6075 0.951 . S
C6099 C6100 1.366 . S
C6099 C6101 1.388 . S
C6100 C6099 1.366 . S
C6100 C6104 1.385 1_556 S
C6101 H6076 0.951 . S
C6101 C6099 1.388 . S
C6101 C6102 1.366 . S
C6102 C6101 1.366 . S
C6102 C6103 1.414 1_556 S
C6102 C6105 1.499 . S
C6103 H6077 0.950 . S
C6103 C6102 1.414 1_554 S
C6103 C6104 1.374 . S
C6104 H6078 0.950 . S
C6104 C6100 1.385 1_554 S
C6104 C6103 1.374 . S
C6105 C6102 1.499 . S
C6105 C6106 1.373 1_556 S
C6105 C6107 1.389 . S
C6106 H6079 0.950 . S
C6106 C6092 1.377 . S
C6106 C6105 1.373 1_554 S
C6107 C6091 1.377 . S
C6107 C6105 1.389 . S
C6107 C6108 1.524 . S
C6108 C6107 1.524 . S
C6108 C6109 1.397 . S
C6108 C6113 1.363 . S
C6109 H6080 0.950 . S
C6109 C6108 1.397 . S
C6109 C6110 1.334 . S
C6110 H6081 0.950 . S
C6110 C6109 1.334 . S
C6110 C6111 1.287 . S
C6111 C6110 1.287 . S
C6111 C6112 1.524 . S
C6111 H6114 0.999 . S
C6112 H6082 0.950 . S
C6112 C6111 1.524 . S
C6112 C6113 1.415 . S
C6113 H6083 0.950 . S
C6113 C6108 1.363 . S
C6113 C6112 1.415 . S
H6114 C6111 0.999 . S
H6115 C6096 0.913 . S
H6116 C6134 0.951 . S
H6117 C6136 0.951 . S
H6118 C6138 0.950 . S
H6119 C6139 0.950 . S
H6120 C6141 0.950 . S
H6121 C6144 0.950 . S
H6122 C6145 0.950 . S
H6123 C6147 0.950 . S
H6124 C6148 0.950 . S
H6125 C6149 0.951 . S
H6126 C6151 0.951 . S
H6127 C6153 0.950 . S
H6128 C6154 0.950 . S
H6129 C6156 0.950 . S
H6130 C6159 0.950 . S
H6131 C6160 0.950 . S
H6132 C6162 0.950 . S
H6133 C6163 0.950 . S
C6134 H6116 0.951 . S
C6134 C6135 1.366 1_655 S
C6134 C6136 1.388 . S
C6135 C6134 1.366 1_455 S
C6135 C6139 1.385 . S
C6136 H6117 0.951 . S
C6136 C6134 1.388 . S
C6136 C6137 1.357 1_655 S
C6137 C6136 1.357 1_455 S
C6137 C6138 1.423 . S
C6137 C6140 1.498 . S
C6138 H6118 0.950 . S
C6138 C6137 1.423 . S
C6138 C6139 1.374 . S
C6139 H6119 0.950 . S
C6139 C6135 1.385 . S
C6139 C6138 1.374 . S
C6140 C6137 1.498 . S
C6140 C6141 1.369 . S
C6140 C6142 1.393 1_455 S
C6141 H6120 0.950 . S
C6141 C6140 1.369 . S
C6141 C6157 1.377 . S
C6142 C6140 1.393 1_655 S
C6142 C6143 1.524 . S
C6142 C6156 1.377 . S
C6143 C6142 1.524 . S
C6143 C6144 1.397 . S
C6143 C6148 1.363 . S
C6144 H6121 0.950 . S
C6144 C6143 1.397 . S
C6144 C6145 1.334 . S
C6145 H6122 0.950 . S
C6145 C6144 1.334 . S
C6145 C6146 1.287 . S
C6146 C6145 1.287 . S
C6146 C6147 1.524 . S
C6146 H6165 0.913 . S
C6147 H6123 0.950 . S
C6147 C6146 1.524 . S
C6147 C6148 1.415 . S
C6148 H6124 0.950 . S
C6148 C6143 1.363 . S
C6148 C6147 1.415 . S
C6149 H6125 0.951 . S
C6149 C6150 1.366 1_455 S
C6149 C6151 1.388 . S
C6150 C6149 1.366 1_655 S
C6150 C6154 1.385 . S
C6151 H6126 0.951 . S
C6151 C6149 1.388 . S
C6151 C6152 1.357 1_455 S
C6152 C6151 1.357 1_655 S
C6152 C6153 1.423 . S
C6152 C6155 1.498 . S
C6153 H6127 0.950 . S
C6153 C6152 1.423 . S
C6153 C6154 1.374 . S
C6154 H6128 0.950 . S
C6154 C6150 1.385 . S
C6154 C6153 1.374 . S
C6155 C6152 1.498 . S
C6155 C6156 1.369 . S
C6155 C6157 1.393 1_655 S
C6156 H6129 0.950 . S
C6156 C6142 1.377 . S
C6156 C6155 1.369 . S
C6157 C6141 1.377 . S
C6157 C6155 1.393 1_455 S
C6157 C6158 1.524 . S
C6158 C6157 1.524 . S
C6158 C6159 1.397 . S
C6158 C6163 1.363 . S
C6159 H6130 0.950 . S
C6159 C6158 1.397 . S
C6159 C6160 1.334 . S
C6160 H6131 0.950 . S
C6160 C6159 1.334 . S
C6160 C6161 1.287 . S
C6161 C6160 1.287 . S
C6161 C6162 1.524 . S
C6161 H6164 0.999 . S
C6162 H6132 0.950 . S
C6162 C6161 1.524 . S
C6162 C6163 1.415 . S
C6163 H6133 0.950 . S
C6163 C6158 1.363 . S
C6163 C6162 1.415 . S
H6164 C6161 0.999 . S
H6165 C6146 0.913 . S
H6166 C6184 0.951 . S
H6167 C6186 0.951 . S
H6168 C6188 0.950 . S
H6169 C6189 0.950 . S
H6170 C6191 0.950 . S
H6171 C6194 0.950 . S
H6172 C6195 0.950 . S
H6173 C6197 0.950 . S
H6174 C6198 0.950 . S
H6175 C6199 0.951 . S
H6176 C6201 0.951 . S
H6177 C6203 0.950 . S
H6178 C6204 0.950 . S
H6179 C6206 0.950 . S
H6180 C6209 0.950 . S
H6181 C6210 0.950 . S
H6182 C6212 0.950 . S
H6183 C6213 0.950 . S
C6184 H6166 0.951 . S
C6184 C6185 1.366 . S
C6184 C6186 1.388 . S
C6185 C6184 1.366 . S
C6185 C6189 1.385 . S
C6186 H6167 0.951 . S
C6186 C6184 1.388 . S
C6186 C6187 1.366 . S
C6187 C6186 1.366 . S
C6187 C6188 1.414 . S
C6187 C6190 1.499 . S
C6188 H6168 0.950 . S
C6188 C6187 1.414 . S
C6188 C6189 1.374 . S
C6189 H6169 0.950 . S
C6189 C6185 1.385 . S
C6189 C6188 1.374 . S
C6190 C6187 1.499 . S
C6190 C6191 1.373 . S
C6190 C6192 1.389 . S
C6191 H6170 0.950 . S
C6191 C6190 1.373 . S
C6191 C6207 1.377 . S
C6192 C6190 1.389 . S
C6192 C6193 1.524 . S
C6192 C6206 1.377 . S
C6193 C6192 1.524 . S
C6193 C6194 1.397 . S
C6193 C6198 1.363 . S
C6194 H6171 0.950 . S
C6194 C6193 1.397 . S
C6194 C6195 1.334 . S
C6195 H6172 0.950 . S
C6195 C6194 1.334 . S
C6195 C6196 1.287 . S
C6196 C6195 1.287 . S
C6196 C6197 1.524 . S
C6196 H6215 0.913 . S
C6197 H6173 0.950 . S
C6197 C6196 1.524 . S
C6197 C6198 1.415 . S
C6198 H6174 0.950 . S
C6198 C6193 1.363 . S
C6198 C6197 1.415 . S
C6199 H6175 0.951 . S
C6199 C6200 1.366 . S
C6199 C6201 1.388 . S
C6200 C6199 1.366 . S
C6200 C6204 1.385 . S
C6201 H6176 0.951 . S
C6201 C6199 1.388 . S
C6201 C6202 1.366 . S
C6202 C6201 1.366 . S
C6202 C6203 1.414 . S
C6202 C6205 1.499 . S
C6203 H6177 0.950 . S
C6203 C6202 1.414 . S
C6203 C6204 1.374 . S
C6204 H6178 0.950 . S
C6204 C6200 1.385 . S
C6204 C6203 1.374 . S
C6205 C6202 1.499 . S
C6205 C6206 1.373 . S
C6205 C6207 1.389 . S
C6206 H6179 0.950 . S
C6206 C6192 1.377 . S
C6206 C6205 1.373 . S
C6207 C6191 1.377 . S
C6207 C6205 1.389 . S
C6207 C6208 1.524 . S
C6208 C6207 1.524 . S
C6208 C6209 1.397 . S
C6208 C6213 1.363 . S
C6209 H6180 0.950 . S
C6209 C6208 1.397 . S
C6209 C6210 1.334 . S
C6210 H6181 0.950 . S
C6210 C6209 1.334 . S
C6210 C6211 1.287 . S
C6211 C6210 1.287 . S
C6211 C6212 1.524 . S
C6211 H6214 0.999 . S
C6212 H6182 0.950 . S
C6212 C6211 1.524 . S
C6212 C6213 1.415 . S
C6213 H6183 0.950 . S
C6213 C6208 1.363 . S
C6213 C6212 1.415 . S
H6214 C6211 0.999 . S
H6215 C6196 0.913 . S
H6216 C6234 0.951 . S
H6217 C6236 0.951 . S
H6218 C6238 0.950 . S
H6219 C6239 0.950 . S
H6220 C6241 0.950 . S
H6221 C6244 0.950 . S
H6222 C6245 0.950 . S
H6223 C6247 0.950 . S
H6224 C6248 0.950 . S
H6225 C6249 0.951 . S
H6226 C6251 0.951 . S
H6227 C6253 0.950 . S
H6228 C6254 0.950 . S
H6229 C6256 0.950 . S
H6230 C6259 0.950 . S
H6231 C6260 0.950 . S
H6232 C6262 0.950 . S
H6233 C6263 0.950 . S
C6234 H6216 0.951 . S
C6234 C6235 1.366 1_554 S
C6234 C6236 1.388 . S
C6235 C6234 1.366 1_556 S
C6235 C6239 1.385 . S
C6236 H6217 0.951 . S
C6236 C6234 1.388 . S
C6236 C6237 1.366 1_554 S
C6237 C6236 1.366 1_556 S
C6237 C6238 1.414 . S
C6237 C6240 1.499 . S
C6238 H6218 0.950 . S
C6238 C6237 1.414 . S
C6238 C6239 1.374 . S
C6239 H6219 0.950 . S
C6239 C6235 1.385 . S
C6239 C6238 1.374 . S
C6240 C6237 1.499 . S
C6240 C6241 1.373 . S
C6240 C6242 1.389 . S
C6241 H6220 0.950 . S
C6241 C6240 1.373 . S
C6241 C6257 1.377 1_556 S
C6242 C6240 1.389 . S
C6242 C6243 1.524 . S
C6242 C6256 1.377 1_556 S
C6243 C6242 1.524 . S
C6243 C6244 1.397 . S
C6243 C6248 1.363 1_556 S
C6244 H6221 0.950 . S
C6244 C6243 1.397 . S
C6244 C6245 1.334 . S
C6245 H6222 0.950 . S
C6245 C6244 1.334 . S
C6245 C6246 1.287 . S
C6246 C6245 1.287 . S
C6246 C6247 1.524 1_556 S
C6246 H6265 0.913 . S
C6247 H6223 0.950 . S
C6247 C6246 1.524 1_554 S
C6247 C6248 1.415 . S
C6248 H6224 0.950 . S
C6248 C6243 1.363 1_554 S
C6248 C6247 1.415 . S
C6249 H6225 0.951 . S
C6249 C6250 1.366 1_556 S
C6249 C6251 1.388 . S
C6250 C6249 1.366 1_554 S
C6250 C6254 1.385 . S
C6251 H6226 0.951 . S
C6251 C6249 1.388 . S
C6251 C6252 1.366 1_556 S
C6252 C6251 1.366 1_554 S
C6252 C6253 1.414 . S
C6252 C6255 1.499 . S
C6253 H6227 0.950 . S
C6253 C6252 1.414 . S
C6253 C6254 1.374 . S
C6254 H6228 0.950 . S
C6254 C6250 1.385 . S
C6254 C6253 1.374 . S
C6255 C6252 1.499 . S
C6255 C6256 1.373 . S
C6255 C6257 1.389 . S
C6256 H6229 0.950 . S
C6256 C6242 1.377 1_554 S
C6256 C6255 1.373 . S
C6257 C6241 1.377 1_554 S
C6257 C6255 1.389 . S
C6257 C6258 1.524 . S
C6258 C6257 1.524 . S
C6258 C6259 1.397 . S
C6258 C6263 1.363 1_554 S
C6259 H6230 0.950 . S
C6259 C6258 1.397 . S
C6259 C6260 1.334 . S
C6260 H6231 0.950 . S
C6260 C6259 1.334 . S
C6260 C6261 1.287 . S
C6261 C6260 1.287 . S
C6261 C6262 1.524 1_554 S
C6261 H6264 0.999 . S
C6262 H6232 0.950 . S
C6262 C6261 1.524 1_556 S
C6262 C6263 1.415 . S
C6263 H6233 0.950 . S
C6263 C6258 1.363 1_556 S
C6263 C6262 1.415 . S
H6264 C6261 0.999 . S
H6265 C6246 0.913 . S
H6266 C6284 0.951 . S
H6267 C6286 0.951 . S
H6268 C6288 0.950 . S
H6269 C6289 0.950 . S
H6270 C6291 0.950 . S
H6271 C6294 0.950 . S
H6272 C6295 0.950 . S
H6273 C6297 0.950 1_655 S
H6274 C6298 0.950 . S
H6275 C6299 0.951 . S
H6276 C6301 0.951 . S
H6277 C6303 0.950 . S
H6278 C6304 0.950 . S
H6279 C6306 0.950 . S
H6280 C6309 0.950 . S
H6281 C6310 0.950 . S
H6282 C6312 0.950 1_455 S
H6283 C6313 0.950 . S
C6284 H6266 0.951 . S
C6284 C6285 1.366 . S
C6284 C6286 1.388 . S
C6285 C6284 1.366 . S
C6285 C6289 1.385 1_655 S
C6286 H6267 0.951 . S
C6286 C6284 1.388 . S
C6286 C6287 1.373 . S
C6287 C6286 1.373 . S
C6287 C6288 1.407 1_655 S
C6287 C6290 1.497 1_655 S
C6288 H6268 0.950 . S
C6288 C6287 1.407 1_455 S
C6288 C6289 1.374 . S
C6289 H6269 0.950 . S
C6289 C6285 1.385 1_455 S
C6289 C6288 1.374 . S
C6290 C6287 1.497 1_455 S
C6290 C6291 1.368 1_455 S
C6290 C6292 1.394 . S
C6291 H6270 0.950 . S
C6291 C6290 1.368 1_655 S
C6291 C6307 1.377 . S
C6292 C6290 1.394 . S
C6292 C6293 1.524 . S
C6292 C6306 1.377 . S
C6293 C6292 1.524 . S
C6293 C6294 1.397 . S
C6293 C6298 1.363 1_455 S
C6294 H6271 0.950 . S
C6294 C6293 1.397 . S
C6294 C6295 1.334 . S
C6295 H6272 0.950 . S
C6295 C6294 1.334 . S
C6295 C6296 1.287 . S
C6296 C6295 1.287 . S
C6296 C6297 1.524 . S
C6296 H6315 0.913 . S
C6297 H6273 0.950 1_455 S
C6297 C6296 1.524 . S
C6297 C6298 1.415 1_455 S
C6298 H6274 0.950 . S
C6298 C6293 1.363 1_655 S
C6298 C6297 1.415 1_655 S
C6299 H6275 0.951 . S
C6299 C6300 1.366 . S
C6299 C6301 1.388 . S
C6300 C6299 1.366 . S
C6300 C6304 1.385 1_455 S
C6301 H6276 0.951 . S
C6301 C6299 1.388 . S
C6301 C6302 1.373 . S
C6302 C6301 1.373 . S
C6302 C6303 1.407 1_455 S
C6302 C6305 1.497 1_455 S
C6303 H6277 0.950 . S
C6303 C6302 1.407 1_655 S
C6303 C6304 1.374 . S
C6304 H6278 0.950 . S
C6304 C6300 1.385 1_655 S
C6304 C6303 1.374 . S
C6305 C6302 1.497 1_655 S
C6305 C6306 1.368 1_655 S
C6305 C6307 1.394 . S
C6306 H6279 0.950 . S
C6306 C6292 1.377 . S
C6306 C6305 1.368 1_455 S
C6307 C6291 1.377 . S
C6307 C6305 1.394 . S
C6307 C6308 1.524 . S
C6308 C6307 1.524 . S
C6308 C6309 1.397 . S
C6308 C6313 1.363 1_655 S
C6309 H6280 0.950 . S
C6309 C6308 1.397 . S
C6309 C6310 1.334 . S
C6310 H6281 0.950 . S
C6310 C6309 1.334 . S
C6310 C6311 1.287 . S
C6311 C6310 1.287 . S
C6311 C6312 1.524 . S
C6311 H6314 0.999 . S
C6312 H6282 0.950 1_655 S
C6312 C6311 1.524 . S
C6312 C6313 1.415 1_655 S
C6313 H6283 0.950 . S
C6313 C6308 1.363 1_455 S
C6313 C6312 1.415 1_455 S
H6314 C6311 0.999 . S
H6315 C6296 0.913 . S
H6316 C6334 0.951 . S
H6317 C6336 0.951 . S
H6318 C6338 0.950 . S
H6319 C6339 0.950 . S
H6320 C6341 0.950 . S
H6321 C6344 0.950 . S
H6322 C6345 0.950 . S
H6323 C6347 0.950 . S
H6324 C6348 0.950 . S
H6325 C6349 0.951 . S
H6326 C6351 0.951 . S
H6327 C6353 0.950 . S
H6328 C6354 0.950 . S
H6329 C6356 0.950 . S
H6330 C6359 0.950 . S
H6331 C6360 0.950 . S
H6332 C6362 0.950 . S
H6333 C6363 0.950 . S
C6334 H6316 0.951 . S
C6334 C6335 1.366 . S
C6334 C6336 1.388 . S
C6335 C6334 1.366 . S
C6335 C6339 1.385 . S
C6336 H6317 0.951 . S
C6336 C6334 1.388 . S
C6336 C6337 1.366 . S
C6337 C6336 1.366 . S
C6337 C6338 1.414 . S
C6337 C6340 1.499 . S
C6338 H6318 0.950 . S
C6338 C6337 1.414 . S
C6338 C6339 1.374 . S
C6339 H6319 0.950 . S
C6339 C6335 1.385 . S
C6339 C6338 1.374 . S
C6340 C6337 1.499 . S
C6340 C6341 1.373 . S
C6340 C6342 1.389 . S
C6341 H6320 0.950 . S
C6341 C6340 1.373 . S
C6341 C6357 1.377 . S
C6342 C6340 1.389 . S
C6342 C6343 1.524 . S
C6342 C6356 1.377 . S
C6343 C6342 1.524 . S
C6343 C6344 1.397 . S
C6343 C6348 1.363 . S
C6344 H6321 0.950 . S
C6344 C6343 1.397 . S
C6344 C6345 1.334 . S
C6345 H6322 0.950 . S
C6345 C6344 1.334 . S
C6345 C6346 1.287 . S
C6346 C6345 1.287 . S
C6346 C6347 1.524 . S
C6346 H6365 0.913 . S
C6347 H6323 0.950 . S
C6347 C6346 1.524 . S
C6347 C6348 1.415 . S
C6348 H6324 0.950 . S
C6348 C6343 1.363 . S
C6348 C6347 1.415 . S
C6349 H6325 0.951 . S
C6349 C6350 1.366 . S
C6349 C6351 1.388 . S
C6350 C6349 1.366 . S
C6350 C6354 1.385 . S
C6351 H6326 0.951 . S
C6351 C6349 1.388 . S
C6351 C6352 1.366 . S
C6352 C6351 1.366 . S
C6352 C6353 1.414 . S
C6352 C6355 1.499 . S
C6353 H6327 0.950 . S
C6353 C6352 1.414 . S
C6353 C6354 1.374 . S
C6354 H6328 0.950 . S
C6354 C6350 1.385 . S
C6354 C6353 1.374 . S
C6355 C6352 1.499 . S
C6355 C6356 1.373 . S
C6355 C6357 1.389 . S
C6356 H6329 0.950 . S
C6356 C6342 1.377 . S
C6356 C6355 1.373 . S
C6357 C6341 1.377 . S
C6357 C6355 1.389 . S
C6357 C6358 1.524 . S
C6358 C6357 1.524 . S
C6358 C6359 1.397 . S
C6358 C6363 1.363 . S
C6359 H6330 0.950 . S
C6359 C6358 1.397 . S
C6359 C6360 1.334 . S
C6360 H6331 0.950 . S
C6360 C6359 1.334 . S
C6360 C6361 1.287 . S
C6361 C6360 1.287 . S
C6361 C6362 1.524 . S
C6361 H6364 0.999 . S
C6362 H6332 0.950 . S
C6362 C6361 1.524 . S
C6362 C6363 1.415 . S
C6363 H6333 0.950 . S
C6363 C6358 1.363 . S
C6363 C6362 1.415 . S
H6364 C6361 0.999 . S
H6365 C6346 0.913 . S
H6366 C6384 0.951 . S
H6367 C6386 0.951 . S
H6368 C6388 0.950 . S
H6369 C6389 0.950 . S
H6370 C6391 0.950 . S
H6371 C6394 0.950 1_455 S
H6372 C6395 0.950 . S
H6373 C6397 0.950 . S
H6374 C6398 0.950 . S
H6375 C6399 0.951 . S
H6376 C6401 0.951 . S
H6377 C6403 0.950 . S
H6378 C6404 0.950 . S
H6379 C6406 0.950 . S
H6380 C6409 0.950 1_655 S
H6381 C6410 0.950 . S
H6382 C6412 0.950 . S
H6383 C6413 0.950 . S
C6384 H6366 0.951 . S
C6384 C6385 1.366 1_655 S
C6384 C6386 1.388 . S
C6385 C6384 1.366 1_455 S
C6385 C6389 1.385 . S
C6386 H6367 0.951 . S
C6386 C6384 1.388 . S
C6386 C6387 1.298 1_655 S
C6387 C6386 1.298 1_455 S
C6387 C6388 1.485 . S
C6387 C6390 1.499 . S
C6388 H6368 0.950 . S
C6388 C6387 1.485 . S
C6388 C6389 1.374 . S
C6389 H6369 0.950 . S
C6389 C6385 1.385 . S
C6389 C6388 1.374 . S
C6390 C6387 1.499 . S
C6390 C6391 1.412 . S
C6390 C6392 1.349 1_455 S
C6391 H6370 0.950 . S
C6391 C6390 1.412 . S
C6391 C6407 1.377 1_545 S
C6392 C6390 1.349 1_655 S
C6392 C6393 1.524 . S
C6392 C6406 1.377 1_545 S
C6393 C6392 1.524 . S
C6393 C6394 1.397 . S
C6393 C6398 1.363 . S
C6394 H6371 0.950 1_655 S
C6394 C6393 1.397 . S
C6394 C6395 1.334 . S
C6395 H6372 0.950 . S
C6395 C6394 1.334 . S
C6395 C6396 1.287 . S
C6396 C6395 1.287 . S
C6396 C6397 1.524 . S
C6396 H6415 0.913 . S
C6397 H6373 0.950 . S
C6397 C6396 1.524 . S
C6397 C6398 1.415 . S
C6398 H6374 0.950 . S
C6398 C6393 1.363 . S
C6398 C6397 1.415 . S
C6399 H6375 0.951 . S
C6399 C6400 1.366 1_455 S
C6399 C6401 1.388 . S
C6400 C6399 1.366 1_655 S
C6400 C6404 1.385 . S
C6401 H6376 0.951 . S
C6401 C6399 1.388 . S
C6401 C6402 1.298 1_455 S
C6402 C6401 1.298 1_655 S
C6402 C6403 1.485 . S
C6402 C6405 1.499 . S
C6403 H6377 0.950 . S
C6403 C6402 1.485 . S
C6403 C6404 1.374 . S
C6404 H6378 0.950 . S
C6404 C6400 1.385 . S
C6404 C6403 1.374 . S
C6405 C6402 1.499 . S
C6405 C6406 1.412 . S
C6405 C6407 1.349 1_655 S
C6406 H6379 0.950 . S
C6406 C6392 1.377 1_565 S
C6406 C6405 1.412 . S
C6407 C6391 1.377 1_565 S
C6407 C6405 1.349 1_455 S
C6407 C6408 1.524 . S
C6408 C6407 1.524 . S
C6408 C6409 1.397 . S
C6408 C6413 1.363 . S
C6409 H6380 0.950 1_455 S
C6409 C6408 1.397 . S
C6409 C6410 1.334 . S
C6410 H6381 0.950 . S
C6410 C6409 1.334 . S
C6410 C6411 1.287 . S
C6411 C6410 1.287 . S
C6411 C6412 1.524 . S
C6411 H6414 0.999 . S
C6412 H6382 0.950 . S
C6412 C6411 1.524 . S
C6412 C6413 1.415 . S
C6413 H6383 0.950 . S
C6413 C6408 1.363 . S
C6413 C6412 1.415 . S
H6414 C6411 0.999 . S
H6415 C6396 0.913 . S
H6416 C6434 0.951 . S
H6417 C6436 0.951 . S
H6418 C6438 0.950 . S
H6419 C6439 0.950 . S
H6420 C6441 0.950 . S
H6421 C6444 0.950 . S
H6422 C6445 0.950 . S
H6423 C6447 0.950 . S
H6424 C6448 0.950 . S
H6425 C6449 0.951 . S
H6426 C6451 0.951 . S
H6427 C6453 0.950 . S
H6428 C6454 0.950 . S
H6429 C6456 0.950 . S
H6430 C6459 0.950 . S
H6431 C6460 0.950 . S
H6432 C6462 0.950 . S
H6433 C6463 0.950 . S
C6434 H6416 0.951 . S
C6434 C6435 1.366 . S
C6434 C6436 1.388 . S
C6435 C6434 1.366 . S
C6435 C6439 1.385 . S
C6436 H6417 0.951 . S
C6436 C6434 1.388 . S
C6436 C6437 1.366 . S
C6437 C6436 1.366 . S
C6437 C6438 1.414 . S
C6437 C6440 1.499 . S
C6438 H6418 0.950 . S
C6438 C6437 1.414 . S
C6438 C6439 1.374 . S
C6439 H6419 0.950 . S
C6439 C6435 1.385 . S
C6439 C6438 1.374 . S
C6440 C6437 1.499 . S
C6440 C6441 1.373 . S
C6440 C6442 1.389 . S
C6441 H6420 0.950 . S
C6441 C6440 1.373 . S
C6441 C6457 1.377 . S
C6442 C6440 1.389 . S
C6442 C6443 1.524 . S
C6442 C6456 1.377 . S
C6443 C6442 1.524 . S
C6443 C6444 1.397 . S
C6443 C6448 1.363 . S
C6444 H6421 0.950 . S
C6444 C6443 1.397 . S
C6444 C6445 1.334 . S
C6445 H6422 0.950 . S
C6445 C6444 1.334 . S
C6445 C6446 1.287 . S
C6446 C6445 1.287 . S
C6446 C6447 1.524 . S
C6446 H6465 0.913 . S
C6447 H6423 0.950 . S
C6447 C6446 1.524 . S
C6447 C6448 1.415 . S
C6448 H6424 0.950 . S
C6448 C6443 1.363 . S
C6448 C6447 1.415 . S
C6449 H6425 0.951 . S
C6449 C6450 1.366 . S
C6449 C6451 1.388 . S
C6450 C6449 1.366 . S
C6450 C6454 1.385 . S
C6451 H6426 0.951 . S
C6451 C6449 1.388 . S
C6451 C6452 1.366 . S
C6452 C6451 1.366 . S
C6452 C6453 1.414 . S
C6452 C6455 1.499 . S
C6453 H6427 0.950 . S
C6453 C6452 1.414 . S
C6453 C6454 1.374 . S
C6454 H6428 0.950 . S
C6454 C6450 1.385 . S
C6454 C6453 1.374 . S
C6455 C6452 1.499 . S
C6455 C6456 1.373 . S
C6455 C6457 1.389 . S
C6456 H6429 0.950 . S
C6456 C6442 1.377 . S
C6456 C6455 1.373 . S
C6457 C6441 1.377 . S
C6457 C6455 1.389 . S
C6457 C6458 1.524 . S
C6458 C6457 1.524 . S
C6458 C6459 1.397 . S
C6458 C6463 1.363 . S
C6459 H6430 0.950 . S
C6459 C6458 1.397 . S
C6459 C6460 1.334 . S
C6460 H6431 0.950 . S
C6460 C6459 1.334 . S
C6460 C6461 1.287 . S
C6461 C6460 1.287 . S
C6461 C6462 1.524 . S
C6461 H6464 0.999 . S
C6462 H6432 0.950 . S
C6462 C6461 1.524 . S
C6462 C6463 1.415 . S
C6463 H6433 0.950 . S
C6463 C6458 1.363 . S
C6463 C6462 1.415 . S
H6464 C6461 0.999 . S
H6465 C6446 0.913 . S
H6466 C6484 0.951 . S
H6467 C6486 0.951 . S
H6468 C6488 0.950 . S
H6469 C6489 0.950 . S
H6470 C6491 0.950 . S
H6471 C6494 0.950 . S
H6472 C6495 0.950 . S
H6473 C6497 0.950 . S
H6474 C6498 0.946 1_545 S
H6475 C6499 0.951 . S
H6476 C6501 0.951 . S
H6477 C6503 0.950 . S
H6478 C6504 0.950 . S
H6479 C6506 0.950 . S
H6480 C6509 0.950 . S
H6481 C6510 0.950 . S
H6482 C6512 0.950 . S
H6483 C6513 0.946 1_565 S
C6484 H6466 0.951 . S
C6484 C6485 1.366 . S
C6484 C6486 1.388 . S
C6485 C6484 1.366 . S
C6485 C6489 1.385 . S
C6486 H6467 0.951 . S
C6486 C6484 1.388 . S
C6486 C6487 1.366 . S
C6487 C6486 1.366 . S
C6487 C6488 1.414 . S
C6487 C6490 1.499 . S
C6488 H6468 0.950 . S
C6488 C6487 1.414 . S
C6488 C6489 1.374 . S
C6489 H6469 0.950 . S
C6489 C6485 1.385 . S
C6489 C6488 1.374 . S
C6490 C6487 1.499 . S
C6490 C6491 1.373 . S
C6490 C6492 1.389 . S
C6491 H6470 0.950 . S
C6491 C6490 1.373 . S
C6491 C6507 1.377 1_565 S
C6492 C6490 1.389 . S
C6492 C6493 1.524 . S
C6492 C6506 1.377 1_565 S
C6493 C6492 1.524 . S
C6493 C6494 1.397 . S
C6493 C6498 1.363 . S
C6494 H6471 0.950 . S
C6494 C6493 1.397 . S
C6494 C6495 1.334 . S
C6495 H6472 0.950 . S
C6495 C6494 1.334 . S
C6495 C6496 1.287 . S
C6496 C6495 1.287 . S
C6496 C6497 1.524 . S
C6496 H6515 0.913 . S
C6497 H6473 0.950 . S
C6497 C6496 1.524 . S
C6497 C6498 1.415 . S
C6498 H6474 0.946 1_565 S
C6498 C6493 1.363 . S
C6498 C6497 1.415 . S
C6499 H6475 0.951 . S
C6499 C6500 1.366 . S
C6499 C6501 1.388 . S
C6500 C6499 1.366 . S
C6500 C6504 1.385 . S
C6501 H6476 0.951 . S
C6501 C6499 1.388 . S
C6501 C6502 1.366 . S
C6502 C6501 1.366 . S
C6502 C6503 1.414 . S
C6502 C6505 1.499 . S
C6503 H6477 0.950 . S
C6503 C6502 1.414 . S
C6503 C6504 1.374 . S
C6504 H6478 0.950 . S
C6504 C6500 1.385 . S
C6504 C6503 1.374 . S
C6505 C6502 1.499 . S
C6505 C6506 1.373 . S
C6505 C6507 1.389 . S
C6506 H6479 0.950 . S
C6506 C6492 1.377 1_545 S
C6506 C6505 1.373 . S
C6507 C6491 1.377 1_545 S
C6507 C6505 1.389 . S
C6507 C6508 1.524 . S
C6508 C6507 1.524 . S
C6508 C6509 1.397 . S
C6508 C6513 1.363 . S
C6509 H6480 0.950 . S
C6509 C6508 1.397 . S
C6509 C6510 1.334 . S
C6510 H6481 0.950 . S
C6510 C6509 1.334 . S
C6510 C6511 1.287 . S
C6511 C6510 1.287 . S
C6511 C6512 1.524 . S
C6511 H6514 0.999 . S
C6512 H6482 0.950 . S
C6512 C6511 1.524 . S
C6512 C6513 1.415 . S
C6513 H6483 0.946 1_545 S
C6513 C6508 1.363 . S
C6513 C6512 1.415 . S
H6514 C6511 0.999 . S
H6515 C6496 0.913 . S
H6516 C6534 0.951 . S
H6517 C6536 0.951 . S
H6518 C6538 0.950 . S
H6519 C6539 0.950 . S
H6520 C6541 0.950 . S
H6521 C6544 0.950 . S
H6522 C6545 0.950 . S
H6523 C6547 0.950 . S
H6524 C6548 0.950 . S
H6525 C6549 0.951 . S
H6526 C6551 0.951 . S
H6527 C6553 0.950 . S
H6528 C6554 0.950 . S
H6529 C6556 0.950 . S
H6530 C6559 0.950 . S
H6531 C6560 0.950 . S
H6532 C6562 0.950 . S
H6533 C6563 0.950 . S
C6534 H6516 0.951 . S
C6534 C6535 1.366 . S
C6534 C6536 1.388 . S
C6535 C6534 1.366 . S
C6535 C6539 1.385 . S
C6536 H6517 0.951 . S
C6536 C6534 1.388 . S
C6536 C6537 1.366 . S
C6537 C6536 1.366 . S
C6537 C6538 1.414 . S
C6537 C6540 1.499 . S
C6538 H6518 0.950 . S
C6538 C6537 1.414 . S
C6538 C6539 1.374 . S
C6539 H6519 0.950 . S
C6539 C6535 1.385 . S
C6539 C6538 1.374 . S
C6540 C6537 1.499 . S
C6540 C6541 1.373 . S
C6540 C6542 1.389 . S
C6541 H6520 0.950 . S
C6541 C6540 1.373 . S
C6541 C6557 1.377 . S
C6542 C6540 1.389 . S
C6542 C6543 1.524 . S
C6542 C6556 1.377 . S
C6543 C6542 1.524 . S
C6543 C6544 1.397 . S
C6543 C6548 1.363 . S
C6544 H6521 0.950 . S
C6544 C6543 1.397 . S
C6544 C6545 1.334 . S
C6545 H6522 0.950 . S
C6545 C6544 1.334 . S
C6545 C6546 1.287 . S
C6546 C6545 1.287 . S
C6546 C6547 1.524 . S
C6546 H6565 0.913 . S
C6547 H6523 0.950 . S
C6547 C6546 1.524 . S
C6547 C6548 1.415 . S
C6548 H6524 0.950 . S
C6548 C6543 1.363 . S
C6548 C6547 1.415 . S
C6549 H6525 0.951 . S
C6549 C6550 1.366 . S
C6549 C6551 1.388 . S
C6550 C6549 1.366 . S
C6550 C6554 1.385 . S
C6551 H6526 0.951 . S
C6551 C6549 1.388 . S
C6551 C6552 1.366 . S
C6552 C6551 1.366 . S
C6552 C6553 1.414 . S
C6552 C6555 1.499 . S
C6553 H6527 0.950 . S
C6553 C6552 1.414 . S
C6553 C6554 1.374 . S
C6554 H6528 0.950 . S
C6554 C6550 1.385 . S
C6554 C6553 1.374 . S
C6555 C6552 1.499 . S
C6555 C6556 1.373 . S
C6555 C6557 1.389 . S
C6556 H6529 0.950 . S
C6556 C6542 1.377 . S
C6556 C6555 1.373 . S
C6557 C6541 1.377 . S
C6557 C6555 1.389 . S
C6557 C6558 1.524 . S
C6558 C6557 1.524 . S
C6558 C6559 1.397 . S
C6558 C6563 1.363 . S
C6559 H6530 0.950 . S
C6559 C6558 1.397 . S
C6559 C6560 1.334 . S
C6560 H6531 0.950 . S
C6560 C6559 1.334 . S
C6560 C6561 1.287 . S
C6561 C6560 1.287 . S
C6561 C6562 1.524 . S
C6561 H6564 0.999 . S
C6562 H6532 0.950 . S
C6562 C6561 1.524 . S
C6562 C6563 1.415 . S
C6563 H6533 0.950 . S
C6563 C6558 1.363 . S
C6563 C6562 1.415 . S
H6564 C6561 0.999 . S
H6565 C6546 0.913 . S
H6566 C6584 0.951 . S
H6567 C6586 0.951 . S
H6568 C6588 0.950 . S
H6569 C6589 0.950 . S
H6570 C6591 0.950 . S
H6571 C6594 0.950 . S
H6572 C6595 0.950 . S
H6573 C6597 0.950 . S
H6574 C6598 0.950 . S
H6575 C6599 0.951 . S
H6576 C6601 0.951 . S
H6577 C6603 0.950 . S
H6578 C6604 0.950 . S
H6579 C6606 0.950 . S
H6580 C6609 0.950 . S
H6581 C6610 0.950 . S
H6582 C6612 0.950 . S
H6583 C6613 0.950 . S
C6584 H6566 0.951 . S
C6584 C6585 1.366 . S
C6584 C6586 1.388 . S
C6585 C6584 1.366 . S
C6585 C6589 1.385 . S
C6586 H6567 0.951 . S
C6586 C6584 1.388 . S
C6586 C6587 1.366 . S
C6587 C6586 1.366 . S
C6587 C6588 1.414 . S
C6587 C6590 1.499 . S
C6588 H6568 0.950 . S
C6588 C6587 1.414 . S
C6588 C6589 1.374 . S
C6589 H6569 0.950 . S
C6589 C6585 1.385 . S
C6589 C6588 1.374 . S
C6590 C6587 1.499 . S
C6590 C6591 1.373 . S
C6590 C6592 1.389 . S
C6591 H6570 0.950 . S
C6591 C6590 1.373 . S
C6591 C6607 1.377 1_565 S
C6592 C6590 1.389 . S
C6592 C6593 1.524 . S
C6592 C6606 1.377 1_565 S
C6593 C6592 1.524 . S
C6593 C6594 1.397 . S
C6593 C6598 1.363 . S
C6594 H6571 0.950 . S
C6594 C6593 1.397 . S
C6594 C6595 1.334 . S
C6595 H6572 0.950 . S
C6595 C6594 1.334 . S
C6595 C6596 1.287 . S
C6596 C6595 1.287 . S
C6596 C6597 1.524 . S
C6596 H6615 0.913 . S
C6597 H6573 0.950 . S
C6597 C6596 1.524 . S
C6597 C6598 1.415 . S
C6598 H6574 0.950 . S
C6598 C6593 1.363 . S
C6598 C6597 1.415 . S
C6599 H6575 0.951 . S
C6599 C6600 1.366 . S
C6599 C6601 1.388 . S
C6600 C6599 1.366 . S
C6600 C6604 1.385 . S
C6601 H6576 0.951 . S
C6601 C6599 1.388 . S
C6601 C6602 1.366 . S
C6602 C6601 1.366 . S
C6602 C6603 1.414 . S
C6602 C6605 1.499 . S
C6603 H6577 0.950 . S
C6603 C6602 1.414 . S
C6603 C6604 1.374 . S
C6604 H6578 0.950 . S
C6604 C6600 1.385 . S
C6604 C6603 1.374 . S
C6605 C6602 1.499 . S
C6605 C6606 1.373 . S
C6605 C6607 1.389 . S
C6606 H6579 0.950 . S
C6606 C6592 1.377 1_545 S
C6606 C6605 1.373 . S
C6607 C6591 1.377 1_545 S
C6607 C6605 1.389 . S
C6607 C6608 1.524 . S
C6608 C6607 1.524 . S
C6608 C6609 1.397 . S
C6608 C6613 1.363 . S
C6609 H6580 0.950 . S
C6609 C6608 1.397 . S
C6609 C6610 1.334 . S
C6610 H6581 0.950 . S
C6610 C6609 1.334 . S
C6610 C6611 1.287 . S
C6611 C6610 1.287 . S
C6611 C6612 1.524 . S
C6611 H6614 0.999 . S
C6612 H6582 0.950 . S
C6612 C6611 1.524 . S
C6612 C6613 1.415 . S
C6613 H6583 0.950 . S
C6613 C6608 1.363 . S
C6613 C6612 1.415 . S
H6614 C6611 0.999 . S
H6615 C6596 0.913 . S
H6616 C6634 0.951 . S
H6617 C6636 0.951 . S
H6618 C6638 0.950 . S
H6619 C6639 0.950 . S
H6620 C6641 0.950 . S
H6621 C6644 0.950 . S
H6622 C6645 0.950 . S
H6623 C6647 0.950 . S
H6624 C6648 0.950 . S
H6625 C6649 0.951 . S
H6626 C6651 0.951 . S
H6627 C6653 0.950 . S
H6628 C6654 0.950 . S
H6629 C6656 0.950 . S
H6630 C6659 0.950 . S
H6631 C6660 0.950 . S
H6632 C6662 0.950 . S
H6633 C6663 0.950 . S
C6634 H6616 0.951 . S
C6634 C6635 1.366 . S
C6634 C6636 1.388 . S
C6635 C6634 1.366 . S
C6635 C6639 1.385 . S
C6636 H6617 0.951 . S
C6636 C6634 1.388 . S
C6636 C6637 1.366 . S
C6637 C6636 1.366 . S
C6637 C6638 1.414 . S
C6637 C6640 1.499 . S
C6638 H6618 0.950 . S
C6638 C6637 1.414 . S
C6638 C6639 1.374 . S
C6639 H6619 0.950 . S
C6639 C6635 1.385 . S
C6639 C6638 1.374 . S
C6640 C6637 1.499 . S
C6640 C6641 1.373 . S
C6640 C6642 1.389 . S
C6641 H6620 0.950 . S
C6641 C6640 1.373 . S
C6641 C6657 1.377 . S
C6642 C6640 1.389 . S
C6642 C6643 1.524 . S
C6642 C6656 1.377 . S
C6643 C6642 1.524 . S
C6643 C6644 1.397 . S
C6643 C6648 1.363 . S
C6644 H6621 0.950 . S
C6644 C6643 1.397 . S
C6644 C6645 1.334 . S
C6645 H6622 0.950 . S
C6645 C6644 1.334 . S
C6645 C6646 1.287 . S
C6646 C6645 1.287 . S
C6646 C6647 1.524 . S
C6646 H6665 0.913 . S
C6647 H6623 0.950 . S
C6647 C6646 1.524 . S
C6647 C6648 1.415 . S
C6648 H6624 0.950 . S
C6648 C6643 1.363 . S
C6648 C6647 1.415 . S
C6649 H6625 0.951 . S
C6649 C6650 1.366 . S
C6649 C6651 1.388 . S
C6650 C6649 1.366 . S
C6650 C6654 1.385 . S
C6651 H6626 0.951 . S
C6651 C6649 1.388 . S
C6651 C6652 1.366 . S
C6652 C6651 1.366 . S
C6652 C6653 1.414 . S
C6652 C6655 1.499 . S
C6653 H6627 0.950 . S
C6653 C6652 1.414 . S
C6653 C6654 1.374 . S
C6654 H6628 0.950 . S
C6654 C6650 1.385 . S
C6654 C6653 1.374 . S
C6655 C6652 1.499 . S
C6655 C6656 1.373 . S
C6655 C6657 1.389 . S
C6656 H6629 0.950 . S
C6656 C6642 1.377 . S
C6656 C6655 1.373 . S
C6657 C6641 1.377 . S
C6657 C6655 1.389 . S
C6657 C6658 1.524 . S
C6658 C6657 1.524 . S
C6658 C6659 1.397 . S
C6658 C6663 1.363 . S
C6659 H6630 0.950 . S
C6659 C6658 1.397 . S
C6659 C6660 1.334 . S
C6660 H6631 0.950 . S
C6660 C6659 1.334 . S
C6660 C6661 1.287 . S
C6661 C6660 1.287 . S
C6661 C6662 1.524 . S
C6661 H6664 0.999 . S
C6662 H6632 0.950 . S
C6662 C6661 1.524 . S
C6662 C6663 1.415 . S
C6663 H6633 0.950 . S
C6663 C6658 1.363 . S
C6663 C6662 1.415 . S
H6664 C6661 0.999 . S
H6665 C6646 0.913 . S
H6666 C6684 0.951 . S
H6667 C6686 0.951 . S
H6668 C6688 0.950 . S
H6669 C6689 0.950 . S
H6670 C6691 0.950 . S
H6671 C6694 0.950 . S
H6672 C6695 0.950 . S
H6673 C6697 0.950 . S
H6674 C6698 0.950 . S
H6675 C6699 0.951 . S
H6676 C6701 0.951 . S
H6677 C6703 0.950 . S
H6678 C6704 0.950 . S
H6679 C6706 0.950 . S
H6680 C6709 0.950 . S
H6681 C6710 0.950 . S
H6682 C6712 0.950 . S
H6683 C6713 0.950 . S
C6684 H6666 0.951 . S
C6684 C6685 1.366 . S
C6684 C6686 1.388 . S
C6685 C6684 1.366 . S
C6685 C6689 1.385 . S
C6686 H6667 0.951 . S
C6686 C6684 1.388 . S
C6686 C6687 1.366 . S
C6687 C6686 1.366 . S
C6687 C6688 1.414 . S
C6687 C6690 1.499 . S
C6688 H6668 0.950 . S
C6688 C6687 1.414 . S
C6688 C6689 1.374 . S
C6689 H6669 0.950 . S
C6689 C6685 1.385 . S
C6689 C6688 1.374 . S
C6690 C6687 1.499 . S
C6690 C6691 1.373 . S
C6690 C6692 1.389 . S
C6691 H6670 0.950 . S
C6691 C6690 1.373 . S
C6691 C6707 1.377 . S
C6692 C6690 1.389 . S
C6692 C6693 1.524 . S
C6692 C6706 1.377 . S
C6693 C6692 1.524 . S
C6693 C6694 1.397 . S
C6693 C6698 1.363 . S
C6694 H6671 0.950 . S
C6694 C6693 1.397 . S
C6694 C6695 1.334 . S
C6695 H6672 0.950 . S
C6695 C6694 1.334 . S
C6695 C6696 1.287 . S
C6696 C6695 1.287 . S
C6696 C6697 1.524 . S
C6696 H6715 0.913 . S
C6697 H6673 0.950 . S
C6697 C6696 1.524 . S
C6697 C6698 1.415 . S
C6698 H6674 0.950 . S
C6698 C6693 1.363 . S
C6698 C6697 1.415 . S
C6699 H6675 0.951 . S
C6699 C6700 1.366 . S
C6699 C6701 1.388 . S
C6700 C6699 1.366 . S
C6700 C6704 1.385 . S
C6701 H6676 0.951 . S
C6701 C6699 1.388 . S
C6701 C6702 1.366 . S
C6702 C6701 1.366 . S
C6702 C6703 1.414 . S
C6702 C6705 1.499 . S
C6703 H6677 0.950 . S
C6703 C6702 1.414 . S
C6703 C6704 1.374 . S
C6704 H6678 0.950 . S
C6704 C6700 1.385 . S
C6704 C6703 1.374 . S
C6705 C6702 1.499 . S
C6705 C6706 1.373 . S
C6705 C6707 1.389 . S
C6706 H6679 0.950 . S
C6706 C6692 1.377 . S
C6706 C6705 1.373 . S
C6707 C6691 1.377 . S
C6707 C6705 1.389 . S
C6707 C6708 1.524 . S
C6708 C6707 1.524 . S
C6708 C6709 1.397 . S
C6708 C6713 1.363 . S
C6709 H6680 0.950 . S
C6709 C6708 1.397 . S
C6709 C6710 1.334 . S
C6710 H6681 0.950 . S
C6710 C6709 1.334 . S
C6710 C6711 1.287 . S
C6711 C6710 1.287 . S
C6711 C6712 1.524 . S
C6711 H6714 0.999 . S
C6712 H6682 0.950 . S
C6712 C6711 1.524 . S
C6712 C6713 1.415 . S
C6713 H6683 0.950 . S
C6713 C6708 1.363 . S
C6713 C6712 1.415 . S
H6714 C6711 0.999 . S
H6715 C6696 0.913 . S
H6716 C6734 0.951 . S
H6717 C6736 0.951 . S
H6718 C6738 0.950 . S
H6719 C6739 0.950 . S
H6720 C6741 0.950 . S
H6721 C6744 0.950 . S
H6722 C6745 0.950 . S
H6723 C6747 0.950 . S
H6724 C6748 0.950 . S
H6725 C6749 0.951 . S
H6726 C6751 0.951 . S
H6727 C6753 0.950 . S
H6728 C6754 0.950 . S
H6729 C6756 0.950 . S
H6730 C6759 0.950 . S
H6731 C6760 0.950 . S
H6732 C6762 0.950 . S
H6733 C6763 0.950 . S
C6734 H6716 0.951 . S
C6734 C6735 1.366 . S
C6734 C6736 1.388 . S
C6735 C6734 1.366 . S
C6735 C6739 1.385 . S
C6736 H6717 0.951 . S
C6736 C6734 1.388 . S
C6736 C6737 1.366 . S
C6737 C6736 1.366 . S
C6737 C6738 1.414 . S
C6737 C6740 1.499 . S
C6738 H6718 0.950 . S
C6738 C6737 1.414 . S
C6738 C6739 1.374 . S
C6739 H6719 0.950 . S
C6739 C6735 1.385 . S
C6739 C6738 1.374 . S
C6740 C6737 1.499 . S
C6740 C6741 1.373 . S
C6740 C6742 1.389 . S
C6741 H6720 0.950 . S
C6741 C6740 1.373 . S
C6741 C6757 1.377 . S
C6742 C6740 1.389 . S
C6742 C6743 1.524 . S
C6742 C6756 1.377 . S
C6743 C6742 1.524 . S
C6743 C6744 1.397 . S
C6743 C6748 1.363 . S
C6744 H6721 0.950 . S
C6744 C6743 1.397 . S
C6744 C6745 1.334 . S
C6745 H6722 0.950 . S
C6745 C6744 1.334 . S
C6745 C6746 1.287 . S
C6746 C6745 1.287 . S
C6746 C6747 1.524 . S
C6746 H6765 0.913 . S
C6747 H6723 0.950 . S
C6747 C6746 1.524 . S
C6747 C6748 1.415 . S
C6748 H6724 0.950 . S
C6748 C6743 1.363 . S
C6748 C6747 1.415 . S
C6749 H6725 0.951 . S
C6749 C6750 1.366 . S
C6749 C6751 1.388 . S
C6750 C6749 1.366 . S
C6750 C6754 1.385 . S
C6751 H6726 0.951 . S
C6751 C6749 1.388 . S
C6751 C6752 1.366 . S
C6752 C6751 1.366 . S
C6752 C6753 1.414 . S
C6752 C6755 1.499 . S
C6753 H6727 0.950 . S
C6753 C6752 1.414 . S
C6753 C6754 1.374 . S
C6754 H6728 0.950 . S
C6754 C6750 1.385 . S
C6754 C6753 1.374 . S
C6755 C6752 1.499 . S
C6755 C6756 1.373 . S
C6755 C6757 1.389 . S
C6756 H6729 0.950 . S
C6756 C6742 1.377 . S
C6756 C6755 1.373 . S
C6757 C6741 1.377 . S
C6757 C6755 1.389 . S
C6757 C6758 1.524 . S
C6758 C6757 1.524 . S
C6758 C6759 1.397 . S
C6758 C6763 1.363 . S
C6759 H6730 0.950 . S
C6759 C6758 1.397 . S
C6759 C6760 1.334 . S
C6760 H6731 0.950 . S
C6760 C6759 1.334 . S
C6760 C6761 1.287 . S
C6761 C6760 1.287 . S
C6761 C6762 1.524 . S
C6761 H6764 0.999 . S
C6762 H6732 0.950 . S
C6762 C6761 1.524 . S
C6762 C6763 1.415 . S
C6763 H6733 0.950 . S
C6763 C6758 1.363 . S
C6763 C6762 1.415 . S
H6764 C6761 0.999 . S
H6765 C6746 0.913 . S
H6766 C6784 0.951 . S
H6767 C6786 0.951 . S
H6768 C6788 0.950 . S
H6769 C6789 0.950 . S
H6770 C6791 0.950 . S
H6771 C6794 0.950 . S
H6772 C6795 0.950 . S
H6773 C6797 0.950 . S
H6774 C6798 0.950 1_565 S
H6775 C6799 0.951 . S
H6776 C6801 0.951 . S
H6777 C6803 0.950 . S
H6778 C6804 0.950 . S
H6779 C6806 0.950 . S
H6780 C6809 0.950 . S
H6781 C6810 0.950 . S
H6782 C6812 0.950 . S
H6783 C6813 0.950 1_545 S
C6784 H6766 0.951 . S
C6784 C6785 1.366 . S
C6784 C6786 1.388 . S
C6785 C6784 1.366 . S
C6785 C6789 1.385 1_554 S
C6786 H6767 0.951 . S
C6786 C6784 1.388 . S
C6786 C6787 1.366 . S
C6787 C6786 1.366 . S
C6787 C6788 1.414 1_554 S
C6787 C6790 1.499 . S
C6788 H6768 0.950 . S
C6788 C6787 1.414 1_556 S
C6788 C6789 1.374 . S
C6789 H6769 0.950 . S
C6789 C6785 1.385 1_556 S
C6789 C6788 1.374 . S
C6790 C6787 1.499 . S
C6790 C6791 1.373 1_554 S
C6790 C6792 1.389 . S
C6791 H6770 0.950 . S
C6791 C6790 1.373 1_556 S
C6791 C6807 1.377 1_545 S
C6792 C6790 1.389 . S
C6792 C6793 1.524 . S
C6792 C6806 1.377 1_545 S
C6793 C6792 1.524 . S
C6793 C6794 1.397 . S
C6793 C6798 1.363 . S
C6794 H6771 0.950 . S
C6794 C6793 1.397 . S
C6794 C6795 1.334 . S
C6795 H6772 0.950 . S
C6795 C6794 1.334 . S
C6795 C6796 1.287 . S
C6796 C6795 1.287 . S
C6796 C6797 1.524 . S
C6796 H6815 0.913 . S
C6797 H6773 0.950 . S
C6797 C6796 1.524 . S
C6797 C6798 1.415 . S
C6798 H6774 0.950 1_545 S
C6798 C6793 1.363 . S
C6798 C6797 1.415 . S
C6799 H6775 0.951 . S
C6799 C6800 1.366 . S
C6799 C6801 1.388 . S
C6800 C6799 1.366 . S
C6800 C6804 1.385 1_556 S
C6801 H6776 0.951 . S
C6801 C6799 1.388 . S
C6801 C6802 1.366 . S
C6802 C6801 1.366 . S
C6802 C6803 1.414 1_556 S
C6802 C6805 1.499 . S
C6803 H6777 0.950 . S
C6803 C6802 1.414 1_554 S
C6803 C6804 1.374 . S
C6804 H6778 0.950 . S
C6804 C6800 1.385 1_554 S
C6804 C6803 1.374 . S
C6805 C6802 1.499 . S
C6805 C6806 1.373 1_556 S
C6805 C6807 1.389 . S
C6806 H6779 0.950 . S
C6806 C6792 1.377 1_565 S
C6806 C6805 1.373 1_554 S
C6807 C6791 1.377 1_565 S
C6807 C6805 1.389 . S
C6807 C6808 1.524 . S
C6808 C6807 1.524 . S
C6808 C6809 1.397 . S
C6808 C6813 1.363 . S
C6809 H6780 0.950 . S
C6809 C6808 1.397 . S
C6809 C6810 1.334 . S
C6810 H6781 0.950 . S
C6810 C6809 1.334 . S
C6810 C6811 1.287 . S
C6811 C6810 1.287 . S
C6811 C6812 1.524 . S
C6811 H6814 0.999 . S
C6812 H6782 0.950 . S
C6812 C6811 1.524 . S
C6812 C6813 1.415 . S
C6813 H6783 0.950 1_565 S
C6813 C6808 1.363 . S
C6813 C6812 1.415 . S
H6814 C6811 0.999 . S
H6815 C6796 0.913 . S
H6816 C6834 0.951 . S
H6817 C6836 0.951 . S
H6818 C6838 0.952 . S
H6819 C6839 0.962 . S
H6820 C6841 0.950 . S
H6821 C6844 0.950 . S
H6822 C6845 0.950 . S
H6823 C6847 0.950 . S
H6824 C6848 0.950 . S
H6825 C6849 0.973 . S
H6826 C6851 0.995 . S
H6827 C6853 0.950 . S
H6828 C6854 0.950 . S
H6829 C6856 0.950 . S
H6830 C6859 0.950 . S
H6831 C6860 0.950 . S
H6832 C6862 0.950 . S
H6833 C6863 0.950 . S
C6834 H6816 0.951 . S
C6834 C6835 1.366 . S
C6834 C6836 1.388 . S
C6835 C6834 1.366 . S
C6835 C6839 1.385 . S
C6836 H6817 0.951 . S
C6836 C6834 1.388 . S
C6836 C6837 1.366 . S
C6837 C6836 1.366 . S
C6837 C6838 1.414 . S
C6837 C6840 1.499 . S
C6838 H6818 0.952 . S
C6838 C6837 1.414 . S
C6838 C6839 1.374 . S
C6839 H6819 0.962 . S
C6839 C6835 1.385 . S
C6839 C6838 1.374 . S
C6840 C6837 1.499 . S
C6840 C6841 1.373 . S
C6840 C6842 1.389 . S
C6841 H6820 0.950 . S
C6841 C6840 1.373 . S
C6841 C6857 1.377 . S
C6842 C6840 1.389 . S
C6842 C6843 1.524 . S
C6842 C6856 1.377 . S
C6843 C6842 1.524 . S
C6843 C6844 1.397 1_455 S
C6843 C6848 1.363 . S
C6844 H6821 0.950 . S
C6844 C6843 1.397 1_655 S
C6844 C6845 1.334 . S
C6845 H6822 0.950 . S
C6845 C6844 1.334 . S
C6845 C6846 1.287 . S
C6846 C6845 1.287 . S
C6846 C6847 1.524 1_655 S
C6846 H6865 0.913 . S
C6847 H6823 0.950 . S
C6847 C6846 1.524 1_455 S
C6847 C6848 1.415 . S
C6848 H6824 0.950 . S
C6848 C6843 1.363 . S
C6848 C6847 1.415 . S
C6849 H6825 0.973 . S
C6849 C6850 1.366 . S
C6849 C6851 1.388 . S
C6850 C6849 1.366 . S
C6850 C6854 1.385 . S
C6851 H6826 0.995 . S
C6851 C6849 1.388 . S
C6851 C6852 1.366 . S
C6852 C6851 1.366 . S
C6852 C6853 1.414 . S
C6852 C6855 1.499 . S
C6853 H6827 0.950 . S
C6853 C6852 1.414 . S
C6853 C6854 1.374 . S
C6854 H6828 0.950 . S
C6854 C6850 1.385 . S
C6854 C6853 1.374 . S
C6855 C6852 1.499 . S
C6855 C6856 1.373 . S
C6855 C6857 1.389 . S
C6856 H6829 0.950 . S
C6856 C6842 1.377 . S
C6856 C6855 1.373 . S
C6857 C6841 1.377 . S
C6857 C6855 1.389 . S
C6857 C6858 1.524 . S
C6858 C6857 1.524 . S
C6858 C6859 1.397 . S
C6858 C6863 1.363 . S
C6859 H6830 0.950 . S
C6859 C6858 1.397 . S
C6859 C6860 1.334 . S
C6860 H6831 0.950 . S
C6860 C6859 1.334 . S
C6860 C6861 1.287 . S
C6861 C6860 1.287 . S
C6861 C6862 1.524 . S
C6861 H6864 0.999 . S
C6862 H6832 0.950 . S
C6862 C6861 1.524 . S
C6862 C6863 1.415 . S
C6863 H6833 0.950 . S
C6863 C6858 1.363 . S
C6863 C6862 1.415 . S
H6864 C6861 0.999 . S
H6865 C6846 0.913 . S
H6866 C6884 0.951 . S
H6867 C6886 0.951 . S
H6868 C6888 0.950 . S
H6869 C6889 0.950 . S
H6870 C6891 0.950 . S
H6871 C6894 0.950 . S
H6872 C6895 0.950 . S
H6873 C6897 0.950 . S
H6874 C6898 0.950 . S
H6875 C6899 0.951 . S
H6876 C6901 0.951 . S
H6877 C6903 0.950 . S
H6878 C6904 0.950 . S
H6879 C6906 0.950 . S
H6880 C6909 0.950 . S
H6881 C6910 0.950 . S
H6882 C6912 0.950 . S
H6883 C6913 0.950 . S
C6884 H6866 0.951 . S
C6884 C6885 1.366 . S
C6884 C6886 1.388 . S
C6885 C6884 1.366 . S
C6885 C6889 1.385 . S
C6886 H6867 0.951 . S
C6886 C6884 1.388 . S
C6886 C6887 1.366 . S
C6887 C6886 1.366 . S
C6887 C6888 1.414 . S
C6887 C6890 1.499 . S
C6888 H6868 0.950 . S
C6888 C6887 1.414 . S
C6888 C6889 1.374 . S
C6889 H6869 0.950 . S
C6889 C6885 1.385 . S
C6889 C6888 1.374 . S
C6890 C6887 1.499 . S
C6890 C6891 1.373 . S
C6890 C6892 1.389 . S
C6891 H6870 0.950 . S
C6891 C6890 1.373 . S
C6891 C6907 1.377 . S
C6892 C6890 1.389 . S
C6892 C6893 1.524 . S
C6892 C6906 1.377 . S
C6893 C6892 1.524 . S
C6893 C6894 1.397 . S
C6893 C6898 1.363 . S
C6894 H6871 0.950 . S
C6894 C6893 1.397 . S
C6894 C6895 1.334 . S
C6895 H6872 0.950 . S
C6895 C6894 1.334 . S
C6895 C6896 1.287 . S
C6896 C6895 1.287 . S
C6896 C6897 1.524 . S
C6896 H6915 0.913 . S
C6897 H6873 0.950 . S
C6897 C6896 1.524 . S
C6897 C6898 1.415 . S
C6898 H6874 0.950 . S
C6898 C6893 1.363 . S
C6898 C6897 1.415 . S
C6899 H6875 0.951 . S
C6899 C6900 1.366 . S
C6899 C6901 1.388 . S
C6900 C6899 1.366 . S
C6900 C6904 1.385 . S
C6901 H6876 0.951 . S
C6901 C6899 1.388 . S
C6901 C6902 1.366 . S
C6902 C6901 1.366 . S
C6902 C6903 1.414 . S
C6902 C6905 1.499 . S
C6903 H6877 0.950 . S
C6903 C6902 1.414 . S
C6903 C6904 1.374 . S
C6904 H6878 0.950 . S
C6904 C6900 1.385 . S
C6904 C6903 1.374 . S
C6905 C6902 1.499 . S
C6905 C6906 1.373 . S
C6905 C6907 1.389 . S
C6906 H6879 0.950 . S
C6906 C6892 1.377 . S
C6906 C6905 1.373 . S
C6907 C6891 1.377 . S
C6907 C6905 1.389 . S
C6907 C6908 1.524 . S
C6908 C6907 1.524 . S
C6908 C6909 1.397 . S
C6908 C6913 1.363 . S
C6909 H6880 0.950 . S
C6909 C6908 1.397 . S
C6909 C6910 1.334 . S
C6910 H6881 0.950 . S
C6910 C6909 1.334 . S
C6910 C6911 1.287 . S
C6911 C6910 1.287 . S
C6911 C6912 1.524 . S
C6911 H6914 0.999 . S
C6912 H6882 0.950 . S
C6912 C6911 1.524 . S
C6912 C6913 1.415 . S
C6913 H6883 0.950 . S
C6913 C6908 1.363 . S
C6913 C6912 1.415 . S
H6914 C6911 0.999 . S
H6915 C6896 0.913 . S
H6916 C6934 0.951 1_455 S
H6917 C6936 0.951 1_455 S
H6918 C6938 0.950 . S
H6919 C6939 0.950 . S
H6920 C6941 0.950 . S
H6921 C6944 0.950 . S
H6922 C6945 0.950 . S
H6923 C6947 0.950 . S
H6924 C6948 0.950 . S
H6925 C6949 0.951 . S
H6926 C6951 0.951 . S
H6927 C6953 0.950 1_455 S
H6928 C6954 0.950 1_455 S
H6929 C6956 0.945 1_455 S
H6930 C6959 0.950 . S
H6931 C6960 0.950 . S
H6932 C6962 0.950 . S
H6933 C6963 0.950 . S
C6934 H6916 0.951 1_655 S
C6934 C6935 1.366 . S
C6934 C6936 1.388 . S
C6935 C6934 1.366 . S
C6935 C6939 1.385 . S
C6936 H6917 0.951 1_655 S
C6936 C6934 1.388 . S
C6936 C6937 1.366 . S
C6937 C6936 1.366 . S
C6937 C6938 1.414 . S
C6937 C6940 1.499 . S
C6938 H6918 0.950 . S
C6938 C6937 1.414 . S
C6938 C6939 1.374 . S
C6939 H6919 0.950 . S
C6939 C6935 1.385 . S
C6939 C6938 1.374 . S
C6940 C6937 1.499 . S
C6940 C6941 1.373 . S
C6940 C6942 1.396 1_655 S
C6941 H6920 0.950 . S
C6941 C6940 1.373 . S
C6941 C6957 1.377 . S
C6942 C6940 1.396 1_455 S
C6942 C6943 1.517 . S
C6942 C6956 1.377 1_455 S
C6943 C6942 1.517 . S
C6943 C6944 1.397 . S
C6943 C6948 1.363 . S
C6944 H6921 0.950 . S
C6944 C6943 1.397 . S
C6944 C6945 1.334 . S
C6945 H6922 0.950 . S
C6945 C6944 1.334 . S
C6945 C6946 1.287 . S
C6946 C6945 1.287 . S
C6946 C6947 1.524 . S
C6946 H6965 0.913 . S
C6947 H6923 0.950 . S
C6947 C6946 1.524 . S
C6947 C6948 1.415 . S
C6948 H6924 0.950 . S
C6948 C6943 1.363 . S
C6948 C6947 1.415 . S
C6949 H6925 0.951 . S
C6949 C6950 1.366 . S
C6949 C6951 1.388 . S
C6950 C6949 1.366 . S
C6950 C6954 1.385 . S
C6951 H6926 0.951 . S
C6951 C6949 1.388 . S
C6951 C6952 1.366 . S
C6952 C6951 1.366 . S
C6952 C6953 1.414 . S
C6952 C6955 1.499 . S
C6953 H6927 0.950 1_655 S
C6953 C6952 1.414 . S
C6953 C6954 1.374 . S
C6954 H6928 0.950 1_655 S
C6954 C6950 1.385 . S
C6954 C6953 1.374 . S
C6955 C6952 1.499 . S
C6955 C6956 1.379 . S
C6955 C6957 1.389 . S
C6956 H6929 0.945 1_655 S
C6956 C6942 1.377 1_655 S
C6956 C6955 1.379 . S
C6957 C6941 1.377 . S
C6957 C6955 1.389 . S
C6957 C6958 1.524 . S
C6958 C6957 1.524 . S
C6958 C6959 1.397 . S
C6958 C6963 1.363 . S
C6959 H6930 0.950 . S
C6959 C6958 1.397 . S
C6959 C6960 1.334 . S
C6960 H6931 0.950 . S
C6960 C6959 1.334 . S
C6960 C6961 1.287 . S
C6961 C6960 1.287 . S
C6961 C6962 1.524 . S
C6961 H6964 0.999 . S
C6962 H6932 0.950 . S
C6962 C6961 1.524 . S
C6962 C6963 1.415 . S
C6963 H6933 0.950 . S
C6963 C6958 1.363 . S
C6963 C6962 1.415 . S
H6964 C6961 0.999 . S
H6965 C6946 0.913 . S
H6966 C6984 0.951 . S
H6967 C6986 0.951 . S
H6968 C6988 0.950 . S
H6969 C6989 0.950 . S
H6970 C6991 0.950 . S
H6971 C6994 0.950 . S
H6972 C6995 0.950 . S
H6973 C6997 0.950 . S
H6974 C6998 0.950 . S
H6975 C6999 0.951 . S
H6976 C7001 0.951 . S
H6977 C7003 0.950 . S
H6978 C7004 0.950 . S
H6979 C7006 0.950 . S
H6980 C7009 0.950 . S
H6981 C7010 0.950 . S
H6982 C7012 0.950 . S
H6983 C7013 0.950 . S
C6984 H6966 0.951 . S
C6984 C6985 1.366 . S
C6984 C6986 1.388 . S
C6985 C6984 1.366 . S
C6985 C6989 1.385 . S
C6986 H6967 0.951 . S
C6986 C6984 1.388 . S
C6986 C6987 1.366 . S
C6987 C6986 1.366 . S
C6987 C6988 1.414 . S
C6987 C6990 1.499 . S
C6988 H6968 0.950 . S
C6988 C6987 1.414 . S
C6988 C6989 1.374 . S
C6989 H6969 0.950 . S
C6989 C6985 1.385 . S
C6989 C6988 1.374 . S
C6990 C6987 1.499 . S
C6990 C6991 1.373 . S
C6990 C6992 1.389 . S
C6991 H6970 0.950 . S
C6991 C6990 1.373 . S
C6991 C7007 1.377 . S
C6992 C6990 1.389 . S
C6992 C6993 1.524 . S
C6992 C7006 1.377 . S
C6993 C6992 1.524 . S
C6993 C6994 1.397 . S
C6993 C6998 1.363 . S
C6994 H6971 0.950 . S
C6994 C6993 1.397 . S
C6994 C6995 1.334 . S
C6995 H6972 0.950 . S
C6995 C6994 1.334 . S
C6995 C6996 1.287 . S
C6996 C6995 1.287 . S
C6996 C6997 1.524 . S
C6996 H7015 0.913 . S
C6997 H6973 0.950 . S
C6997 C6996 1.524 . S
C6997 C6998 1.415 . S
C6998 H6974 0.950 . S
C6998 C6993 1.363 . S
C6998 C6997 1.415 . S
C6999 H6975 0.951 . S
C6999 C7000 1.366 . S
C6999 C7001 1.388 . S
C7000 C6999 1.366 . S
C7000 C7004 1.385 . S
C7001 H6976 0.951 . S
C7001 C6999 1.388 . S
C7001 C7002 1.366 . S
C7002 C7001 1.366 . S
C7002 C7003 1.414 . S
C7002 C7005 1.499 . S
C7003 H6977 0.950 . S
C7003 C7002 1.414 . S
C7003 C7004 1.374 . S
C7004 H6978 0.950 . S
C7004 C7000 1.385 . S
C7004 C7003 1.374 . S
C7005 C7002 1.499 . S
C7005 C7006 1.373 . S
C7005 C7007 1.389 . S
C7006 H6979 0.950 . S
C7006 C6992 1.377 . S
C7006 C7005 1.373 . S
C7007 C6991 1.377 . S
C7007 C7005 1.389 . S
C7007 C7008 1.524 . S
C7008 C7007 1.524 . S
C7008 C7009 1.397 . S
C7008 C7013 1.363 . S
C7009 H6980 0.950 . S
C7009 C7008 1.397 . S
C7009 C7010 1.334 . S
C7010 H6981 0.950 . S
C7010 C7009 1.334 . S
C7010 C7011 1.287 . S
C7011 C7010 1.287 . S
C7011 C7012 1.524 . S
C7011 H7014 0.999 . S
C7012 H6982 0.950 . S
C7012 C7011 1.524 . S
C7012 C7013 1.415 . S
C7013 H6983 0.950 . S
C7013 C7008 1.363 . S
C7013 C7012 1.415 . S
H7014 C7011 0.999 . S
H7015 C6996 0.913 . S
H7016 C7034 0.951 . S
H7017 C7036 0.951 . S
H7018 C7038 0.950 . S
H7019 C7039 0.950 . S
H7020 C7041 0.950 . S
H7021 C7044 0.950 . S
H7022 C7045 0.950 . S
H7023 C7047 0.950 . S
H7024 C7048 0.950 . S
H7025 C7049 0.951 . S
H7026 C7051 0.951 . S
H7027 C7053 0.950 . S
H7028 C7054 0.950 . S
H7029 C7056 0.950 . S
H7030 C7059 0.950 . S
H7031 C7060 0.950 . S
H7032 C7062 0.955 . S
H7033 C7063 0.950 . S
C7034 H7016 0.951 . S
C7034 C7035 1.366 . S
C7034 C7036 1.388 . S
C7035 C7034 1.366 . S
C7035 C7039 1.385 . S
C7036 H7017 0.951 . S
C7036 C7034 1.388 . S
C7036 C7037 1.366 . S
C7037 C7036 1.366 . S
C7037 C7038 1.414 . S
C7037 C7040 1.499 . S
C7038 H7018 0.950 . S
C7038 C7037 1.414 . S
C7038 C7039 1.374 . S
C7039 H7019 0.950 . S
C7039 C7035 1.385 . S
C7039 C7038 1.374 . S
C7040 C7037 1.499 . S
C7040 C7041 1.373 . S
C7040 C7042 1.389 . S
C7041 H7020 0.950 . S
C7041 C7040 1.373 . S
C7041 C7057 1.377 . S
C7042 C7040 1.389 . S
C7042 C7043 1.524 . S
C7042 C7056 1.377 . S
C7043 C7042 1.524 . S
C7043 C7044 1.397 . S
C7043 C7048 1.363 . S
C7044 H7021 0.950 . S
C7044 C7043 1.397 . S
C7044 C7045 1.334 . S
C7045 H7022 0.950 . S
C7045 C7044 1.334 . S
C7045 C7046 1.287 . S
C7046 C7045 1.287 . S
C7046 C7047 1.524 . S
C7046 H7065 0.913 . S
C7047 H7023 0.950 . S
C7047 C7046 1.524 . S
C7047 C7048 1.415 . S
C7048 H7024 0.950 . S
C7048 C7043 1.363 . S
C7048 C7047 1.415 . S
C7049 H7025 0.951 . S
C7049 C7050 1.366 . S
C7049 C7051 1.388 . S
C7050 C7049 1.366 . S
C7050 C7054 1.385 . S
C7051 H7026 0.951 . S
C7051 C7049 1.388 . S
C7051 C7052 1.366 . S
C7052 C7051 1.366 . S
C7052 C7053 1.414 . S
C7052 C7055 1.499 . S
C7053 H7027 0.950 . S
C7053 C7052 1.414 . S
C7053 C7054 1.374 . S
C7054 H7028 0.950 . S
C7054 C7050 1.385 . S
C7054 C7053 1.374 . S
C7055 C7052 1.499 . S
C7055 C7056 1.373 . S
C7055 C7057 1.389 . S
C7056 H7029 0.950 . S
C7056 C7042 1.377 . S
C7056 C7055 1.373 . S
C7057 C7041 1.377 . S
C7057 C7055 1.389 . S
C7057 C7058 1.529 1_455 S
C7058 C7057 1.529 1_655 S
C7058 C7059 1.390 . S
C7058 C7063 1.365 1_655 S
C7059 H7030 0.950 . S
C7059 C7058 1.390 . S
C7059 C7060 1.334 . S
C7060 H7031 0.950 . S
C7060 C7059 1.334 . S
C7060 C7061 1.287 . S
C7061 C7060 1.287 . S
C7061 C7062 1.524 . S
C7061 H7064 0.999 . S
C7062 H7032 0.955 . S
C7062 C7061 1.524 . S
C7062 C7063 1.415 1_655 S
C7063 H7033 0.950 . S
C7063 C7058 1.365 1_455 S
C7063 C7062 1.415 1_455 S
H7064 C7061 0.999 . S
H7065 C7046 0.913 . S
H7066 C7084 0.951 . S
H7067 C7086 0.951 . S
H7068 C7088 0.950 . S
H7069 C7089 0.950 . S
H7070 C7091 0.950 . S
H7071 C7094 0.950 . S
H7072 C7095 0.950 . S
H7073 C7097 0.950 . S
H7074 C7098 0.950 . S
H7075 C7099 0.951 . S
H7076 C7101 0.951 . S
H7077 C7103 0.950 . S
H7078 C7104 0.950 . S
H7079 C7106 0.950 . S
H7080 C7109 0.950 . S
H7081 C7110 0.950 . S
H7082 C7112 0.950 . S
H7083 C7113 0.950 . S
C7084 H7066 0.951 . S
C7084 C7085 1.366 . S
C7084 C7086 1.388 . S
C7085 C7084 1.366 . S
C7085 C7089 1.385 . S
C7086 H7067 0.951 . S
C7086 C7084 1.388 . S
C7086 C7087 1.366 . S
C7087 C7086 1.366 . S
C7087 C7088 1.414 . S
C7087 C7090 1.499 . S
C7088 H7068 0.950 . S
C7088 C7087 1.414 . S
C7088 C7089 1.374 . S
C7089 H7069 0.950 . S
C7089 C7085 1.385 . S
C7089 C7088 1.374 . S
C7090 C7087 1.499 . S
C7090 C7091 1.373 . S
C7090 C7092 1.389 . S
C7091 H7070 0.950 . S
C7091 C7090 1.373 . S
C7091 C7107 1.377 . S
C7092 C7090 1.389 . S
C7092 C7093 1.524 . S
C7092 C7106 1.377 . S
C7093 C7092 1.524 . S
C7093 C7094 1.397 . S
C7093 C7098 1.363 . S
C7094 H7071 0.950 . S
C7094 C7093 1.397 . S
C7094 C7095 1.334 . S
C7095 H7072 0.950 . S
C7095 C7094 1.334 . S
C7095 C7096 1.287 . S
C7096 C7095 1.287 . S
C7096 C7097 1.524 . S
C7096 H7115 0.913 . S
C7097 H7073 0.950 . S
C7097 C7096 1.524 . S
C7097 C7098 1.415 . S
C7098 H7074 0.950 . S
C7098 C7093 1.363 . S
C7098 C7097 1.415 . S
C7099 H7075 0.951 . S
C7099 C7100 1.366 . S
C7099 C7101 1.388 . S
C7100 C7099 1.366 . S
C7100 C7104 1.385 . S
C7101 H7076 0.951 . S
C7101 C7099 1.388 . S
C7101 C7102 1.366 . S
C7102 C7101 1.366 . S
C7102 C7103 1.414 . S
C7102 C7105 1.499 . S
C7103 H7077 0.950 . S
C7103 C7102 1.414 . S
C7103 C7104 1.374 . S
C7104 H7078 0.950 . S
C7104 C7100 1.385 . S
C7104 C7103 1.374 . S
C7105 C7102 1.499 . S
C7105 C7106 1.373 . S
C7105 C7107 1.389 . S
C7106 H7079 0.950 . S
C7106 C7092 1.377 . S
C7106 C7105 1.373 . S
C7107 C7091 1.377 . S
C7107 C7105 1.389 . S
C7107 C7108 1.524 . S
C7108 C7107 1.524 . S
C7108 C7109 1.397 . S
C7108 C7113 1.363 . S
C7109 H7080 0.950 . S
C7109 C7108 1.397 . S
C7109 C7110 1.334 . S
C7110 H7081 0.950 . S
C7110 C7109 1.334 . S
C7110 C7111 1.287 . S
C7111 C7110 1.287 . S
C7111 C7112 1.524 . S
C7111 H7114 0.999 . S
C7112 H7082 0.950 . S
C7112 C7111 1.524 . S
C7112 C7113 1.415 . S
C7113 H7083 0.950 . S
C7113 C7108 1.363 . S
C7113 C7112 1.415 . S
H7114 C7111 0.999 . S
H7115 C7096 0.913 . S
H7116 C7134 0.951 1_455 S
H7117 C7136 0.951 1_455 S
H7118 C7138 0.950 . S
H7119 C7139 0.950 . S
H7120 C7141 0.950 . S
H7121 C7144 0.950 . S
H7122 C7145 0.950 . S
H7123 C7147 0.950 . S
H7124 C7148 0.950 . S
H7125 C7149 0.951 . S
H7126 C7151 0.951 . S
H7127 C7153 0.950 1_455 S
H7128 C7154 0.950 1_455 S
H7129 C7156 0.939 1_455 S
H7130 C7159 0.950 . S
H7131 C7160 0.950 . S
H7132 C7162 0.950 . S
H7133 C7163 0.950 . S
C7134 H7116 0.951 1_655 S
C7134 C7135 1.366 . S
C7134 C7136 1.388 . S
C7135 C7134 1.366 . S
C7135 C7139 1.385 . S
C7136 H7117 0.951 1_655 S
C7136 C7134 1.388 . S
C7136 C7137 1.366 . S
C7137 C7136 1.366 . S
C7137 C7138 1.414 . S
C7137 C7140 1.499 . S
C7138 H7118 0.950 . S
C7138 C7137 1.414 . S
C7138 C7139 1.374 . S
C7139 H7119 0.950 . S
C7139 C7135 1.385 . S
C7139 C7138 1.374 . S
C7140 C7137 1.499 . S
C7140 C7141 1.373 . S
C7140 C7142 1.390 . S
C7141 H7120 0.950 . S
C7141 C7140 1.373 . S
C7141 C7157 1.377 . S
C7142 C7140 1.390 . S
C7142 C7143 1.524 1_655 S
C7142 C7156 1.376 . S
C7143 C7142 1.524 1_455 S
C7143 C7144 1.397 . S
C7143 C7148 1.363 . S
C7144 H7121 0.950 . S
C7144 C7143 1.397 . S
C7144 C7145 1.334 . S
C7145 H7122 0.950 . S
C7145 C7144 1.334 . S
C7145 C7146 1.287 . S
C7146 C7145 1.287 . S
C7146 C7147 1.524 . S
C7146 H7165 0.913 . S
C7147 H7123 0.950 . S
C7147 C7146 1.524 . S
C7147 C7148 1.415 . S
C7148 H7124 0.950 . S
C7148 C7143 1.363 . S
C7148 C7147 1.415 . S
C7149 H7125 0.951 . S
C7149 C7150 1.366 . S
C7149 C7151 1.388 . S
C7150 C7149 1.366 . S
C7150 C7154 1.385 . S
C7151 H7126 0.951 . S
C7151 C7149 1.388 . S
C7151 C7152 1.366 . S
C7152 C7151 1.366 . S
C7152 C7153 1.414 . S
C7152 C7155 1.499 . S
C7153 H7127 0.950 1_655 S
C7153 C7152 1.414 . S
C7153 C7154 1.374 . S
C7154 H7128 0.950 1_655 S
C7154 C7150 1.385 . S
C7154 C7153 1.374 . S
C7155 C7152 1.499 . S
C7155 C7156 1.385 . S
C7155 C7157 1.389 . S
C7156 H7129 0.939 1_655 S
C7156 C7142 1.376 . S
C7156 C7155 1.385 . S
C7157 C7141 1.377 . S
C7157 C7155 1.389 . S
C7157 C7158 1.524 . S
C7158 C7157 1.524 . S
C7158 C7159 1.397 . S
C7158 C7163 1.363 . S
C7159 H7130 0.950 . S
C7159 C7158 1.397 . S
C7159 C7160 1.334 . S
C7160 H7131 0.950 . S
C7160 C7159 1.334 . S
C7160 C7161 1.287 . S
C7161 C7160 1.287 . S
C7161 C7162 1.524 . S
C7161 H7164 0.999 . S
C7162 H7132 0.950 . S
C7162 C7161 1.524 . S
C7162 C7163 1.415 . S
C7163 H7133 0.950 . S
C7163 C7158 1.363 . S
C7163 C7162 1.415 . S
H7164 C7161 0.999 . S
H7165 C7146 0.913 . S
H7166 C7184 0.951 . S
H7167 C7186 0.951 . S
H7168 C7188 0.950 . S
H7169 C7189 0.950 . S
H7170 C7191 0.950 . S
H7171 C7194 0.950 . S
H7172 C7195 0.950 . S
H7173 C7197 0.950 . S
H7174 C7198 0.950 . S
H7175 C7199 0.951 . S
H7176 C7201 0.951 . S
H7177 C7203 0.950 . S
H7178 C7204 0.950 . S
H7179 C7206 0.950 . S
H7180 C7209 0.950 . S
H7181 C7210 0.950 . S
H7182 C7212 0.950 . S
H7183 C7213 0.950 . S
C7184 H7166 0.951 . S
C7184 C7185 1.366 . S
C7184 C7186 1.388 . S
C7185 C7184 1.366 . S
C7185 C7189 1.385 . S
C7186 H7167 0.951 . S
C7186 C7184 1.388 . S
C7186 C7187 1.366 . S
C7187 C7186 1.366 . S
C7187 C7188 1.414 . S
C7187 C7190 1.499 . S
C7188 H7168 0.950 . S
C7188 C7187 1.414 . S
C7188 C7189 1.374 . S
C7189 H7169 0.950 . S
C7189 C7185 1.385 . S
C7189 C7188 1.374 . S
C7190 C7187 1.499 . S
C7190 C7191 1.373 . S
C7190 C7192 1.389 . S
C7191 H7170 0.950 . S
C7191 C7190 1.373 . S
C7191 C7207 1.377 . S
C7192 C7190 1.389 . S
C7192 C7193 1.524 . S
C7192 C7206 1.377 . S
C7193 C7192 1.524 . S
C7193 C7194 1.397 . S
C7193 C7198 1.363 . S
C7194 H7171 0.950 . S
C7194 C7193 1.397 . S
C7194 C7195 1.334 . S
C7195 H7172 0.950 . S
C7195 C7194 1.334 . S
C7195 C7196 1.287 . S
C7196 C7195 1.287 . S
C7196 C7197 1.524 . S
C7196 H7215 0.913 . S
C7197 H7173 0.950 . S
C7197 C7196 1.524 . S
C7197 C7198 1.415 . S
C7198 H7174 0.950 . S
C7198 C7193 1.363 . S
C7198 C7197 1.415 . S
C7199 H7175 0.951 . S
C7199 C7200 1.366 . S
C7199 C7201 1.388 . S
C7200 C7199 1.366 . S
C7200 C7204 1.385 . S
C7201 H7176 0.951 . S
C7201 C7199 1.388 . S
C7201 C7202 1.366 . S
C7202 C7201 1.366 . S
C7202 C7203 1.414 . S
C7202 C7205 1.499 . S
C7203 H7177 0.950 . S
C7203 C7202 1.414 . S
C7203 C7204 1.374 . S
C7204 H7178 0.950 . S
C7204 C7200 1.385 . S
C7204 C7203 1.374 . S
C7205 C7202 1.499 . S
C7205 C7206 1.373 . S
C7205 C7207 1.389 . S
C7206 H7179 0.950 . S
C7206 C7192 1.377 . S
C7206 C7205 1.373 . S
C7207 C7191 1.377 . S
C7207 C7205 1.389 . S
C7207 C7208 1.524 . S
C7208 C7207 1.524 . S
C7208 C7209 1.397 . S
C7208 C7213 1.363 . S
C7209 H7180 0.950 . S
C7209 C7208 1.397 . S
C7209 C7210 1.334 . S
C7210 H7181 0.950 . S
C7210 C7209 1.334 . S
C7210 C7211 1.287 . S
C7211 C7210 1.287 . S
C7211 C7212 1.524 . S
C7211 H7214 0.999 . S
C7212 H7182 0.950 . S
C7212 C7211 1.524 . S
C7212 C7213 1.415 . S
C7213 H7183 0.950 . S
C7213 C7208 1.363 . S
C7213 C7212 1.415 . S
H7214 C7211 0.999 . S
H7215 C7196 0.913 . S
H7216 C7234 0.951 . S
H7217 C7236 0.951 . S
H7218 C7238 0.950 . S
H7219 C7239 0.950 . S
H7220 C7241 0.950 . S
H7221 C7244 0.950 . S
H7222 C7245 0.950 . S
H7223 C7247 0.950 . S
H7224 C7248 0.950 . S
H7225 C7249 0.951 . S
H7226 C7251 0.951 . S
H7227 C7253 0.950 . S
H7228 C7254 0.950 . S
H7229 C7256 0.950 . S
H7230 C7259 0.950 . S
H7231 C7260 0.950 . S
H7232 C7262 0.950 . S
H7233 C7263 0.950 . S
C7234 H7216 0.951 . S
C7234 C7235 1.366 . S
C7234 C7236 1.388 . S
C7235 C7234 1.366 . S
C7235 C7239 1.385 . S
C7236 H7217 0.951 . S
C7236 C7234 1.388 . S
C7236 C7237 1.366 . S
C7237 C7236 1.366 . S
C7237 C7238 1.414 . S
C7237 C7240 1.499 . S
C7238 H7218 0.950 . S
C7238 C7237 1.414 . S
C7238 C7239 1.374 . S
C7239 H7219 0.950 . S
C7239 C7235 1.385 . S
C7239 C7238 1.374 . S
C7240 C7237 1.499 . S
C7240 C7241 1.373 . S
C7240 C7242 1.389 . S
C7241 H7220 0.950 . S
C7241 C7240 1.373 . S
C7241 C7257 1.377 . S
C7242 C7240 1.389 . S
C7242 C7243 1.524 . S
C7242 C7256 1.377 . S
C7243 C7242 1.524 . S
C7243 C7244 1.397 . S
C7243 C7248 1.363 . S
C7244 H7221 0.950 . S
C7244 C7243 1.397 . S
C7244 C7245 1.334 . S
C7245 H7222 0.950 . S
C7245 C7244 1.334 . S
C7245 C7246 1.287 . S
C7246 C7245 1.287 . S
C7246 C7247 1.524 . S
C7246 H7265 0.913 . S
C7247 H7223 0.950 . S
C7247 C7246 1.524 . S
C7247 C7248 1.415 . S
C7248 H7224 0.950 . S
C7248 C7243 1.363 . S
C7248 C7247 1.415 . S
C7249 H7225 0.951 . S
C7249 C7250 1.366 . S
C7249 C7251 1.388 . S
C7250 C7249 1.366 . S
C7250 C7254 1.385 . S
C7251 H7226 0.951 . S
C7251 C7249 1.388 . S
C7251 C7252 1.366 . S
C7252 C7251 1.366 . S
C7252 C7253 1.414 . S
C7252 C7255 1.499 . S
C7253 H7227 0.950 . S
C7253 C7252 1.414 . S
C7253 C7254 1.374 . S
C7254 H7228 0.950 . S
C7254 C7250 1.385 . S
C7254 C7253 1.374 . S
C7255 C7252 1.499 . S
C7255 C7256 1.373 . S
C7255 C7257 1.389 . S
C7256 H7229 0.950 . S
C7256 C7242 1.377 . S
C7256 C7255 1.373 . S
C7257 C7241 1.377 . S
C7257 C7255 1.389 . S
C7257 C7258 1.524 . S
C7258 C7257 1.524 . S
C7258 C7259 1.397 . S
C7258 C7263 1.363 . S
C7259 H7230 0.950 . S
C7259 C7258 1.397 . S
C7259 C7260 1.334 . S
C7260 H7231 0.950 . S
C7260 C7259 1.334 . S
C7260 C7261 1.287 . S
C7261 C7260 1.287 . S
C7261 C7262 1.524 . S
C7261 H7264 0.999 . S
C7262 H7232 0.950 . S
C7262 C7261 1.524 . S
C7262 C7263 1.415 . S
C7263 H7233 0.950 . S
C7263 C7258 1.363 . S
C7263 C7262 1.415 . S
H7264 C7261 0.999 . S
H7265 C7246 0.913 . S
H7266 C7284 0.951 . S
H7267 C7286 0.951 . S
H7268 C7288 0.950 . S
H7269 C7289 0.950 . S
H7270 C7291 0.950 . S
H7271 C7294 0.950 . S
H7272 C7295 0.950 . S
H7273 C7297 0.950 . S
H7274 C7298 0.950 . S
H7275 C7299 0.951 . S
H7276 C7301 0.951 . S
H7277 C7303 0.950 . S
H7278 C7304 0.950 . S
H7279 C7306 0.950 . S
H7280 C7309 0.950 . S
H7281 C7310 0.950 . S
H7282 C7312 0.950 . S
H7283 C7313 0.950 . S
C7284 H7266 0.951 . S
C7284 C7285 1.366 . S
C7284 C7286 1.388 . S
C7285 C7284 1.366 . S
C7285 C7289 1.385 . S
C7286 H7267 0.951 . S
C7286 C7284 1.388 . S
C7286 C7287 1.366 . S
C7287 C7286 1.366 . S
C7287 C7288 1.414 . S
C7287 C7290 1.499 . S
C7288 H7268 0.950 . S
C7288 C7287 1.414 . S
C7288 C7289 1.374 . S
C7289 H7269 0.950 . S
C7289 C7285 1.385 . S
C7289 C7288 1.374 . S
C7290 C7287 1.499 . S
C7290 C7291 1.373 . S
C7290 C7292 1.389 . S
C7291 H7270 0.950 . S
C7291 C7290 1.373 . S
C7291 C7307 1.377 . S
C7292 C7290 1.389 . S
C7292 C7293 1.524 . S
C7292 C7306 1.377 . S
C7293 C7292 1.524 . S
C7293 C7294 1.397 . S
C7293 C7298 1.363 . S
C7294 H7271 0.950 . S
C7294 C7293 1.397 . S
C7294 C7295 1.334 . S
C7295 H7272 0.950 . S
C7295 C7294 1.334 . S
C7295 C7296 1.287 . S
C7296 C7295 1.287 . S
C7296 C7297 1.524 . S
C7296 H7315 0.913 . S
C7297 H7273 0.950 . S
C7297 C7296 1.524 . S
C7297 C7298 1.415 . S
C7298 H7274 0.950 . S
C7298 C7293 1.363 . S
C7298 C7297 1.415 . S
C7299 H7275 0.951 . S
C7299 C7300 1.366 . S
C7299 C7301 1.388 . S
C7300 C7299 1.366 . S
C7300 C7304 1.385 . S
C7301 H7276 0.951 . S
C7301 C7299 1.388 . S
C7301 C7302 1.366 . S
C7302 C7301 1.366 . S
C7302 C7303 1.414 . S
C7302 C7305 1.499 . S
C7303 H7277 0.950 . S
C7303 C7302 1.414 . S
C7303 C7304 1.374 . S
C7304 H7278 0.950 . S
C7304 C7300 1.385 . S
C7304 C7303 1.374 . S
C7305 C7302 1.499 . S
C7305 C7306 1.373 . S
C7305 C7307 1.389 . S
C7306 H7279 0.950 . S
C7306 C7292 1.377 . S
C7306 C7305 1.373 . S
C7307 C7291 1.377 . S
C7307 C7305 1.389 . S
C7307 C7308 1.524 . S
C7308 C7307 1.524 . S
C7308 C7309 1.397 . S
C7308 C7313 1.363 . S
C7309 H7280 0.950 . S
C7309 C7308 1.397 . S
C7309 C7310 1.334 . S
C7310 H7281 0.950 . S
C7310 C7309 1.334 . S
C7310 C7311 1.287 . S
C7311 C7310 1.287 . S
C7311 C7312 1.524 . S
C7311 H7314 0.999 . S
C7312 H7282 0.950 . S
C7312 C7311 1.524 . S
C7312 C7313 1.415 . S
C7313 H7283 0.950 . S
C7313 C7308 1.363 . S
C7313 C7312 1.415 . S
H7314 C7311 0.999 . S
H7315 C7296 0.913 . S
H7316 C7334 0.951 . S
H7317 C7336 0.951 . S
H7318 C7338 0.950 . S
H7319 C7339 0.950 . S
H7320 C7341 0.950 . S
H7321 C7344 0.950 . S
H7322 C7345 0.950 . S
H7323 C7347 0.950 . S
H7324 C7348 0.950 . S
H7325 C7349 0.951 . S
H7326 C7351 0.951 . S
H7327 C7353 0.950 . S
H7328 C7354 0.950 . S
H7329 C7356 0.950 . S
H7330 C7359 0.950 . S
H7331 C7360 0.950 . S
H7332 C7362 0.950 . S
H7333 C7363 0.950 . S
C7334 H7316 0.951 . S
C7334 C7335 1.366 . S
C7334 C7336 1.388 . S
C7335 C7334 1.366 . S
C7335 C7339 1.385 . S
C7336 H7317 0.951 . S
C7336 C7334 1.388 . S
C7336 C7337 1.366 . S
C7337 C7336 1.366 . S
C7337 C7338 1.414 . S
C7337 C7340 1.499 . S
C7338 H7318 0.950 . S
C7338 C7337 1.414 . S
C7338 C7339 1.374 . S
C7339 H7319 0.950 . S
C7339 C7335 1.385 . S
C7339 C7338 1.374 . S
C7340 C7337 1.499 . S
C7340 C7341 1.373 . S
C7340 C7342 1.389 . S
C7341 H7320 0.950 . S
C7341 C7340 1.373 . S
C7341 C7357 1.377 . S
C7342 C7340 1.389 . S
C7342 C7343 1.524 . S
C7342 C7356 1.377 . S
C7343 C7342 1.524 . S
C7343 C7344 1.397 . S
C7343 C7348 1.363 . S
C7344 H7321 0.950 . S
C7344 C7343 1.397 . S
C7344 C7345 1.334 . S
C7345 H7322 0.950 . S
C7345 C7344 1.334 . S
C7345 C7346 1.287 . S
C7346 C7345 1.287 . S
C7346 C7347 1.524 . S
C7346 H7365 0.913 . S
C7347 H7323 0.950 . S
C7347 C7346 1.524 . S
C7347 C7348 1.415 . S
C7348 H7324 0.950 . S
C7348 C7343 1.363 . S
C7348 C7347 1.415 . S
C7349 H7325 0.951 . S
C7349 C7350 1.366 . S
C7349 C7351 1.388 . S
C7350 C7349 1.366 . S
C7350 C7354 1.385 . S
C7351 H7326 0.951 . S
C7351 C7349 1.388 . S
C7351 C7352 1.366 . S
C7352 C7351 1.366 . S
C7352 C7353 1.414 . S
C7352 C7355 1.499 . S
C7353 H7327 0.950 . S
C7353 C7352 1.414 . S
C7353 C7354 1.374 . S
C7354 H7328 0.950 . S
C7354 C7350 1.385 . S
C7354 C7353 1.374 . S
C7355 C7352 1.499 . S
C7355 C7356 1.373 . S
C7355 C7357 1.389 . S
C7356 H7329 0.950 . S
C7356 C7342 1.377 . S
C7356 C7355 1.373 . S
C7357 C7341 1.377 . S
C7357 C7355 1.389 . S
C7357 C7358 1.524 . S
C7358 C7357 1.524 . S
C7358 C7359 1.397 . S
C7358 C7363 1.363 . S
C7359 H7330 0.950 . S
C7359 C7358 1.397 . S
C7359 C7360 1.334 . S
C7360 H7331 0.950 . S
C7360 C7359 1.334 . S
C7360 C7361 1.287 . S
C7361 C7360 1.287 . S
C7361 C7362 1.524 . S
C7361 H7364 0.999 . S
C7362 H7332 0.950 . S
C7362 C7361 1.524 . S
C7362 C7363 1.415 . S
C7363 H7333 0.950 . S
C7363 C7358 1.363 . S
C7363 C7362 1.415 . S
H7364 C7361 0.999 . S
H7365 C7346 0.913 . S
H7366 C7384 0.951 . S
H7367 C7386 0.951 . S
H7368 C7388 0.950 . S
H7369 C7389 0.950 . S
H7370 C7391 0.950 . S
H7371 C7394 0.950 . S
H7372 C7395 0.950 . S
H7373 C7397 0.950 . S
H7374 C7398 0.950 . S
H7375 C7399 0.951 . S
H7376 C7401 0.951 . S
H7377 C7403 0.950 . S
H7378 C7404 0.950 . S
H7379 C7406 0.950 . S
H7380 C7409 0.950 . S
H7381 C7410 0.950 . S
H7382 C7412 0.950 . S
H7383 C7413 0.950 . S
C7384 H7366 0.951 . S
C7384 C7385 1.366 . S
C7384 C7386 1.388 . S
C7385 C7384 1.366 . S
C7385 C7389 1.385 . S
C7386 H7367 0.951 . S
C7386 C7384 1.388 . S
C7386 C7387 1.366 . S
C7387 C7386 1.366 . S
C7387 C7388 1.414 . S
C7387 C7390 1.499 . S
C7388 H7368 0.950 . S
C7388 C7387 1.414 . S
C7388 C7389 1.374 . S
C7389 H7369 0.950 . S
C7389 C7385 1.385 . S
C7389 C7388 1.374 . S
C7390 C7387 1.499 . S
C7390 C7391 1.373 . S
C7390 C7392 1.389 . S
C7391 H7370 0.950 . S
C7391 C7390 1.373 . S
C7391 C7407 1.377 . S
C7392 C7390 1.389 . S
C7392 C7393 1.524 . S
C7392 C7406 1.377 . S
C7393 C7392 1.524 . S
C7393 C7394 1.397 . S
C7393 C7398 1.363 . S
C7394 H7371 0.950 . S
C7394 C7393 1.397 . S
C7394 C7395 1.334 . S
C7395 H7372 0.950 . S
C7395 C7394 1.334 . S
C7395 C7396 1.287 . S
C7396 C7395 1.287 . S
C7396 C7397 1.524 . S
C7396 H7415 0.913 . S
C7397 H7373 0.950 . S
C7397 C7396 1.524 . S
C7397 C7398 1.415 . S
C7398 H7374 0.950 . S
C7398 C7393 1.363 . S
C7398 C7397 1.415 . S
C7399 H7375 0.951 . S
C7399 C7400 1.366 . S
C7399 C7401 1.388 . S
C7400 C7399 1.366 . S
C7400 C7404 1.385 . S
C7401 H7376 0.951 . S
C7401 C7399 1.388 . S
C7401 C7402 1.366 . S
C7402 C7401 1.366 . S
C7402 C7403 1.414 . S
C7402 C7405 1.499 . S
C7403 H7377 0.950 . S
C7403 C7402 1.414 . S
C7403 C7404 1.374 . S
C7404 H7378 0.950 . S
C7404 C7400 1.385 . S
C7404 C7403 1.374 . S
C7405 C7402 1.499 . S
C7405 C7406 1.373 . S
C7405 C7407 1.389 . S
C7406 H7379 0.950 . S
C7406 C7392 1.377 . S
C7406 C7405 1.373 . S
C7407 C7391 1.377 . S
C7407 C7405 1.389 . S
C7407 C7408 1.524 . S
C7408 C7407 1.524 . S
C7408 C7409 1.397 . S
C7408 C7413 1.363 . S
C7409 H7380 0.950 . S
C7409 C7408 1.397 . S
C7409 C7410 1.334 . S
C7410 H7381 0.950 . S
C7410 C7409 1.334 . S
C7410 C7411 1.287 . S
C7411 C7410 1.287 . S
C7411 C7412 1.524 . S
C7411 H7414 0.999 . S
C7412 H7382 0.950 . S
C7412 C7411 1.524 . S
C7412 C7413 1.415 . S
C7413 H7383 0.950 . S
C7413 C7408 1.363 . S
C7413 C7412 1.415 . S
H7414 C7411 0.999 . S
H7415 C7396 0.913 . S
H7416 C7434 0.951 . S
H7417 C7436 0.951 . S
H7418 C7438 0.950 . S
H7419 C7439 0.950 . S
H7420 C7441 0.950 . S
H7421 C7444 0.950 . S
H7422 C7445 0.950 . S
H7423 C7447 0.950 . S
H7424 C7448 0.950 . S
H7425 C7449 0.951 . S
H7426 C7451 0.951 . S
H7427 C7453 0.950 . S
H7428 C7454 0.950 . S
H7429 C7456 0.950 . S
H7430 C7459 0.950 . S
H7431 C7460 0.950 . S
H7432 C7462 0.950 . S
H7433 C7463 0.950 . S
C7434 H7416 0.951 . S
C7434 C7435 1.366 . S
C7434 C7436 1.388 . S
C7435 C7434 1.366 . S
C7435 C7439 1.385 . S
C7436 H7417 0.951 . S
C7436 C7434 1.388 . S
C7436 C7437 1.366 . S
C7437 C7436 1.366 . S
C7437 C7438 1.414 . S
C7437 C7440 1.499 . S
C7438 H7418 0.950 . S
C7438 C7437 1.414 . S
C7438 C7439 1.374 . S
C7439 H7419 0.950 . S
C7439 C7435 1.385 . S
C7439 C7438 1.374 . S
C7440 C7437 1.499 . S
C7440 C7441 1.373 . S
C7440 C7442 1.389 . S
C7441 H7420 0.950 . S
C7441 C7440 1.373 . S
C7441 C7457 1.377 . S
C7442 C7440 1.389 . S
C7442 C7443 1.524 . S
C7442 C7456 1.377 . S
C7443 C7442 1.524 . S
C7443 C7444 1.397 . S
C7443 C7448 1.363 . S
C7444 H7421 0.950 . S
C7444 C7443 1.397 . S
C7444 C7445 1.334 . S
C7445 H7422 0.950 . S
C7445 C7444 1.334 . S
C7445 C7446 1.287 . S
C7446 C7445 1.287 . S
C7446 C7447 1.524 . S
C7446 H7465 0.913 . S
C7447 H7423 0.950 . S
C7447 C7446 1.524 . S
C7447 C7448 1.415 . S
C7448 H7424 0.950 . S
C7448 C7443 1.363 . S
C7448 C7447 1.415 . S
C7449 H7425 0.951 . S
C7449 C7450 1.366 . S
C7449 C7451 1.388 . S
C7450 C7449 1.366 . S
C7450 C7454 1.385 . S
C7451 H7426 0.951 . S
C7451 C7449 1.388 . S
C7451 C7452 1.366 . S
C7452 C7451 1.366 . S
C7452 C7453 1.414 . S
C7452 C7455 1.499 . S
C7453 H7427 0.950 . S
C7453 C7452 1.414 . S
C7453 C7454 1.374 . S
C7454 H7428 0.950 . S
C7454 C7450 1.385 . S
C7454 C7453 1.374 . S
C7455 C7452 1.499 . S
C7455 C7456 1.373 . S
C7455 C7457 1.389 . S
C7456 H7429 0.950 . S
C7456 C7442 1.377 . S
C7456 C7455 1.373 . S
C7457 C7441 1.377 . S
C7457 C7455 1.389 . S
C7457 C7458 1.524 . S
C7458 C7457 1.524 . S
C7458 C7459 1.397 . S
C7458 C7463 1.363 . S
C7459 H7430 0.950 . S
C7459 C7458 1.397 . S
C7459 C7460 1.334 . S
C7460 H7431 0.950 . S
C7460 C7459 1.334 . S
C7460 C7461 1.287 . S
C7461 C7460 1.287 . S
C7461 C7462 1.524 . S
C7461 H7464 0.999 . S
C7462 H7432 0.950 . S
C7462 C7461 1.524 . S
C7462 C7463 1.415 . S
C7463 H7433 0.950 . S
C7463 C7458 1.363 . S
C7463 C7462 1.415 . S
H7464 C7461 0.999 . S
H7465 C7446 0.913 . S
H7466 C7484 0.951 . S
H7467 C7486 0.951 . S
H7468 C7488 0.950 . S
H7469 C7489 0.950 . S
H7470 C7491 0.950 . S
H7471 C7494 0.950 . S
H7472 C7495 0.950 . S
H7473 C7497 0.950 . S
H7474 C7498 0.950 . S
H7475 C7499 0.951 . S
H7476 C7501 0.951 . S
H7477 C7503 0.950 . S
H7478 C7504 0.950 . S
H7479 C7506 0.950 . S
H7480 C7509 0.950 . S
H7481 C7510 0.950 . S
H7482 C7512 0.950 . S
H7483 C7513 0.950 . S
C7484 H7466 0.951 . S
C7484 C7485 1.366 . S
C7484 C7486 1.388 . S
C7485 C7484 1.366 . S
C7485 C7489 1.385 . S
C7486 H7467 0.951 . S
C7486 C7484 1.388 . S
C7486 C7487 1.366 . S
C7487 C7486 1.366 . S
C7487 C7488 1.414 . S
C7487 C7490 1.499 . S
C7488 H7468 0.950 . S
C7488 C7487 1.414 . S
C7488 C7489 1.374 . S
C7489 H7469 0.950 . S
C7489 C7485 1.385 . S
C7489 C7488 1.374 . S
C7490 C7487 1.499 . S
C7490 C7491 1.373 . S
C7490 C7492 1.389 . S
C7491 H7470 0.950 . S
C7491 C7490 1.373 . S
C7491 C7507 1.377 . S
C7492 C7490 1.389 . S
C7492 C7493 1.524 . S
C7492 C7506 1.377 . S
C7493 C7492 1.524 . S
C7493 C7494 1.397 . S
C7493 C7498 1.363 . S
C7494 H7471 0.950 . S
C7494 C7493 1.397 . S
C7494 C7495 1.334 . S
C7495 H7472 0.950 . S
C7495 C7494 1.334 . S
C7495 C7496 1.287 . S
C7496 C7495 1.287 . S
C7496 C7497 1.524 . S
C7496 H7515 0.913 . S
C7497 H7473 0.950 . S
C7497 C7496 1.524 . S
C7497 C7498 1.415 . S
C7498 H7474 0.950 . S
C7498 C7493 1.363 . S
C7498 C7497 1.415 . S
C7499 H7475 0.951 . S
C7499 C7500 1.366 . S
C7499 C7501 1.388 . S
C7500 C7499 1.366 . S
C7500 C7504 1.385 . S
C7501 H7476 0.951 . S
C7501 C7499 1.388 . S
C7501 C7502 1.366 . S
C7502 C7501 1.366 . S
C7502 C7503 1.414 . S
C7502 C7505 1.499 . S
C7503 H7477 0.950 . S
C7503 C7502 1.414 . S
C7503 C7504 1.374 . S
C7504 H7478 0.950 . S
C7504 C7500 1.385 . S
C7504 C7503 1.374 . S
C7505 C7502 1.499 . S
C7505 C7506 1.373 . S
C7505 C7507 1.389 . S
C7506 H7479 0.950 . S
C7506 C7492 1.377 . S
C7506 C7505 1.373 . S
C7507 C7491 1.377 . S
C7507 C7505 1.389 . S
C7507 C7508 1.524 . S
C7508 C7507 1.524 . S
C7508 C7509 1.397 . S
C7508 C7513 1.363 . S
C7509 H7480 0.950 . S
C7509 C7508 1.397 . S
C7509 C7510 1.334 . S
C7510 H7481 0.950 . S
C7510 C7509 1.334 . S
C7510 C7511 1.287 . S
C7511 C7510 1.287 . S
C7511 C7512 1.524 . S
C7511 H7514 0.999 . S
C7512 H7482 0.950 . S
C7512 C7511 1.524 . S
C7512 C7513 1.415 . S
C7513 H7483 0.950 . S
C7513 C7508 1.363 . S
C7513 C7512 1.415 . S
H7514 C7511 0.999 . S
H7515 C7496 0.913 . S
H7516 C7534 0.951 . S
H7517 C7536 0.951 . S
H7518 C7538 0.950 . S
H7519 C7539 0.950 . S
H7520 C7541 0.950 . S
H7521 C7544 0.950 . S
H7522 C7545 0.950 . S
H7523 C7547 0.950 . S
H7524 C7548 0.950 . S
H7525 C7549 0.951 . S
H7526 C7551 0.951 . S
H7527 C7553 0.950 . S
H7528 C7554 0.950 . S
H7529 C7556 0.950 . S
H7530 C7559 0.950 . S
H7531 C7560 0.950 . S
H7532 C7562 0.950 . S
H7533 C7563 0.950 . S
C7534 H7516 0.951 . S
C7534 C7535 1.366 . S
C7534 C7536 1.388 . S
C7535 C7534 1.366 . S
C7535 C7539 1.385 . S
C7536 H7517 0.951 . S
C7536 C7534 1.388 . S
C7536 C7537 1.366 . S
C7537 C7536 1.366 . S
C7537 C7538 1.414 . S
C7537 C7540 1.499 . S
C7538 H7518 0.950 . S
C7538 C7537 1.414 . S
C7538 C7539 1.374 . S
C7539 H7519 0.950 . S
C7539 C7535 1.385 . S
C7539 C7538 1.374 . S
C7540 C7537 1.499 . S
C7540 C7541 1.373 . S
C7540 C7542 1.389 . S
C7541 H7520 0.950 . S
C7541 C7540 1.373 . S
C7541 C7557 1.377 . S
C7542 C7540 1.389 . S
C7542 C7543 1.524 . S
C7542 C7556 1.377 . S
C7543 C7542 1.524 . S
C7543 C7544 1.397 . S
C7543 C7548 1.363 . S
C7544 H7521 0.950 . S
C7544 C7543 1.397 . S
C7544 C7545 1.334 . S
C7545 H7522 0.950 . S
C7545 C7544 1.334 . S
C7545 C7546 1.287 . S
C7546 C7545 1.287 . S
C7546 C7547 1.524 . S
C7546 H7565 0.913 . S
C7547 H7523 0.950 . S
C7547 C7546 1.524 . S
C7547 C7548 1.415 . S
C7548 H7524 0.950 . S
C7548 C7543 1.363 . S
C7548 C7547 1.415 . S
C7549 H7525 0.951 . S
C7549 C7550 1.366 . S
C7549 C7551 1.388 . S
C7550 C7549 1.366 . S
C7550 C7554 1.385 . S
C7551 H7526 0.951 . S
C7551 C7549 1.388 . S
C7551 C7552 1.366 . S
C7552 C7551 1.366 . S
C7552 C7553 1.414 . S
C7552 C7555 1.499 . S
C7553 H7527 0.950 . S
C7553 C7552 1.414 . S
C7553 C7554 1.374 . S
C7554 H7528 0.950 . S
C7554 C7550 1.385 . S
C7554 C7553 1.374 . S
C7555 C7552 1.499 . S
C7555 C7556 1.373 . S
C7555 C7557 1.389 . S
C7556 H7529 0.950 . S
C7556 C7542 1.377 . S
C7556 C7555 1.373 . S
C7557 C7541 1.377 . S
C7557 C7555 1.389 . S
C7557 C7558 1.524 . S
C7558 C7557 1.524 . S
C7558 C7559 1.397 . S
C7558 C7563 1.363 . S
C7559 H7530 0.950 . S
C7559 C7558 1.397 . S
C7559 C7560 1.334 . S
C7560 H7531 0.950 . S
C7560 C7559 1.334 . S
C7560 C7561 1.287 . S
C7561 C7560 1.287 . S
C7561 C7562 1.524 . S
C7561 H7564 0.999 . S
C7562 H7532 0.950 . S
C7562 C7561 1.524 . S
C7562 C7563 1.415 . S
C7563 H7533 0.950 . S
C7563 C7558 1.363 . S
C7563 C7562 1.415 . S
H7564 C7561 0.999 . S
H7565 C7546 0.913 . S
H7566 C7584 0.951 . S
H7567 C7586 0.951 . S
H7568 C7588 0.950 . S
H7569 C7589 0.950 . S
H7570 C7591 0.950 . S
H7571 C7594 0.950 . S
H7572 C7595 0.950 . S
H7573 C7597 0.950 . S
H7574 C7598 0.950 . S
H7575 C7599 0.951 . S
H7576 C7601 0.951 . S
H7577 C7603 0.950 . S
H7578 C7604 0.950 . S
H7579 C7606 0.950 . S
H7580 C7609 0.950 . S
H7581 C7610 0.950 . S
H7582 C7612 0.950 . S
H7583 C7613 0.950 . S
C7584 H7566 0.951 . S
C7584 C7585 1.366 . S
C7584 C7586 1.388 . S
C7585 C7584 1.366 . S
C7585 C7589 1.385 . S
C7586 H7567 0.951 . S
C7586 C7584 1.388 . S
C7586 C7587 1.366 . S
C7587 C7586 1.366 . S
C7587 C7588 1.414 . S
C7587 C7590 1.499 . S
C7588 H7568 0.950 . S
C7588 C7587 1.414 . S
C7588 C7589 1.374 . S
C7589 H7569 0.950 . S
C7589 C7585 1.385 . S
C7589 C7588 1.374 . S
C7590 C7587 1.499 . S
C7590 C7591 1.373 . S
C7590 C7592 1.389 . S
C7591 H7570 0.950 . S
C7591 C7590 1.373 . S
C7591 C7607 1.377 . S
C7592 C7590 1.389 . S
C7592 C7593 1.524 . S
C7592 C7606 1.377 . S
C7593 C7592 1.524 . S
C7593 C7594 1.397 . S
C7593 C7598 1.363 . S
C7594 H7571 0.950 . S
C7594 C7593 1.397 . S
C7594 C7595 1.334 . S
C7595 H7572 0.950 . S
C7595 C7594 1.334 . S
C7595 C7596 1.287 . S
C7596 C7595 1.287 . S
C7596 C7597 1.524 . S
C7596 H7615 0.913 . S
C7597 H7573 0.950 . S
C7597 C7596 1.524 . S
C7597 C7598 1.415 . S
C7598 H7574 0.950 . S
C7598 C7593 1.363 . S
C7598 C7597 1.415 . S
C7599 H7575 0.951 . S
C7599 C7600 1.366 . S
C7599 C7601 1.388 . S
C7600 C7599 1.366 . S
C7600 C7604 1.385 . S
C7601 H7576 0.951 . S
C7601 C7599 1.388 . S
C7601 C7602 1.366 . S
C7602 C7601 1.366 . S
C7602 C7603 1.414 . S
C7602 C7605 1.499 . S
C7603 H7577 0.950 . S
C7603 C7602 1.414 . S
C7603 C7604 1.374 . S
C7604 H7578 0.950 . S
C7604 C7600 1.385 . S
C7604 C7603 1.374 . S
C7605 C7602 1.499 . S
C7605 C7606 1.373 . S
C7605 C7607 1.389 . S
C7606 H7579 0.950 . S
C7606 C7592 1.377 . S
C7606 C7605 1.373 . S
C7607 C7591 1.377 . S
C7607 C7605 1.389 . S
C7607 C7608 1.524 . S
C7608 C7607 1.524 . S
C7608 C7609 1.397 . S
C7608 C7613 1.363 . S
C7609 H7580 0.950 . S
C7609 C7608 1.397 . S
C7609 C7610 1.334 . S
C7610 H7581 0.950 . S
C7610 C7609 1.334 . S
C7610 C7611 1.287 . S
C7611 C7610 1.287 . S
C7611 C7612 1.524 . S
C7611 H7614 0.999 . S
C7612 H7582 0.950 . S
C7612 C7611 1.524 . S
C7612 C7613 1.415 . S
C7613 H7583 0.950 . S
C7613 C7608 1.363 . S
C7613 C7612 1.415 . S
H7614 C7611 0.999 . S
H7615 C7596 0.913 . S
C1235 C979 2.067 . S
C1250 C29 2.066 . S
C1285 C67 2.067 . S
C1300 C941 2.066 . S
C1335 C1055 2.067 . S
C1350 C105 2.066 . S
C1385 C143 2.066 . S
C1400 C1017 2.066 . S
C1435 C1110 2.067 . S
C1450 C160 2.067 . S
C1485 C198 2.067 . S
C1500 C1072 2.066 . S
C1535 C1186 2.066 . S
C1550 C236 2.066 . S
C1585 C274 2.067 . S
C1600 C1148 2.067 . S
C1635 C333 2.067 . S
C1650 C675 2.066 . S
C1685 C371 2.067 . S
C1700 C637 2.066 . S
C1735 C751 2.066 . S
C1750 C409 2.067 . S
C1785 C447 2.067 . S
C1800 C713 2.066 . S
C1835 C464 2.067 . S
C1850 C806 2.066 . S
C1885 C768 2.067 . S
C1900 C502 2.066 . S
C1935 C882 2.067 . S
C1950 C540 2.067 . S
C1985 C844 2.066 . S
C2000 C578 2.067 . S
C2035 C1108 2.082 . S
C2050 C6 2.058 . S
C2085 C44 2.058 . S
C2100 C158 2.082 . S
C2135 C82 2.059 . S
C2150 C880 2.082 . S
C2185 C120 2.058 . S
C2200 C538 2.082 . S
C2235 C977 2.082 . S
C2250 C179 2.058 . S
C2285 C27 2.082 . S
C2300 C217 2.058 . S
C2335 C749 2.083 . S
C2350 C255 2.059 . S
C2385 C293 2.058 . S
C2400 C407 2.083 . S
C2435 C804 2.082 1_565 S
C2450 C310 2.058 . S
C2485 C462 2.083 . S
C2500 C348 2.059 . S
C2535 C386 2.058 . S
C2550 C1184 2.082 . S
C2585 C234 2.082 1_565 S
C2600 C424 2.058 . S
C2635 C673 2.082 1_545 S
C2650 C483 2.058 . S
C2685 C521 2.058 . S
C2700 C331 2.082 . S
C2735 C559 2.059 . S
C2750 C1053 2.082 . S
C2785 C597 2.058 . S
C2800 C103 2.082 1_545 S
C2835 C614 2.058 . S
C2850 C500 2.082 . S
C2885 C766 2.083 . S
C2900 C652 2.058 . S
C2935 C272 2.083 . S
C2950 C690 2.059 . S
C2985 C1146 2.082 . S
C3000 C728 2.058 . S
C3035 C787 2.059 . S
C3050 C369 2.083 . S
C3085 C825 2.058 . S
C3100 C635 2.082 . S
C3135 C863 2.058 . S
C3150 C141 2.082 . S
C3185 C901 2.058 . S
C3200 C1015 2.082 . S
C3235 C196 2.082 1_565 S
C3250 C918 2.058 . S
C3285 C1070 2.082 . S
C3300 C956 2.058 . S
C3335 C576 2.082 . S
C3350 C994 2.058 . S
C3385 C1032 2.058 . S
C3400 C842 2.082 1_565 S
C3435 C1091 2.058 . S
C3450 C65 2.082 1_545 S
C3485 C1129 2.058 . S
C3500 C939 2.082 . S
C3535 C1167 2.058 . S
C3550 C445 2.082 . S
C3585 C1205 2.058 . S
C3600 C711 2.082 1_545 S
C3635 C229 1.491 . S
C3650 C1 1.508 . S
C3685 C39 1.509 . S
C3700 C1179 1.491 . S
C3735 C457 1.491 . S
C3750 C77 1.510 . S
C3785 C799 1.492 . S
C3800 C115 1.509 . S
C3835 C106 1.491 . S
C3850 C182 1.509 . S
C3885 C220 1.509 . S
C3900 C1056 1.491 . S
C3935 C334 1.491 . S
C3950 C258 1.510 . S
C3985 C296 1.509 . S
C4000 C676 1.492 . S
C4035 C305 1.509 . S
C4050 C533 1.492 . S
C4085 C875 1.492 . S
C4100 C343 1.509 . S
C4135 C381 1.509 . S
C4150 C153 1.491 . S
C4185 C1103 1.491 . S
C4200 C419 1.509 . S
C4235 C486 1.509 . S
C4250 C410 1.491 . S
C4285 C752 1.491 . S
C4300 C524 1.510 . S
C4335 C562 1.509 . S
C4350 C30 1.491 . S
C4385 C980 1.491 . S
C4400 C600 1.509 . S
C4435 C609 1.509 . S
C4450 C837 1.491 . S
C4485 C647 1.509 . S
C4500 C571 1.491 . S
C4535 C1065 1.491 . S
C4550 C685 1.509 . S
C4585 C723 1.509 . S
C4600 C191 1.491 . S
C4635 C714 1.491 . S
C4650 C790 1.509 . S
C4685 C828 1.509 . S
C4700 C448 1.491 . S
C4735 C942 1.492 . S
C4750 C866 1.509 . S
C4785 C904 1.509 . S
C4800 C68 1.491 . S
C4835 C1141 1.491 . S
C4850 C913 1.509 . S
C4885 C951 1.509 . S
C4900 C267 1.491 . S
C4935 C989 1.509 . S
C4950 C761 1.491 . S
C4985 C1027 1.509 . S
C5000 C495 1.491 . S
C5035 C1018 1.491 . S
C5050 C1094 1.509 . S
C5085 C1132 1.509 . S
C5100 C144 1.491 . S
C5135 C638 1.491 . S
C5150 C1170 1.509 . S
C5185 C1208 1.509 . S
C5200 C372 1.491 . S
C5235 C122 1.557 . S
C5250 C8 1.559 . S
C5285 C84 1.558 . S
C5300 C46 1.558 . S
C5335 C181 1.558 . S
C5350 C295 1.558 . S
C5385 C257 1.557 . S
C5400 C219 1.559 . S
C5435 C426 1.559 . S
C5450 C312 1.558 . S
C5485 C350 1.558 . S
C5500 C388 1.558 . S
C5535 C599 1.557 . S
C5550 C485 1.559 . S
C5585 C561 1.557 . S
C5600 C523 1.559 . S
C5635 C616 1.559 . S
C5650 C730 1.557 . S
C5685 C692 1.559 . S
C5700 C654 1.557 . S
C5735 C789 1.559 . S
C5750 C903 1.557 . S
C5785 C865 1.559 . S
C5800 C827 1.557 . S
C5835 C1034 1.557 . S
C5850 C920 1.559 . S
C5885 C958 1.558 . S
C5900 C996 1.559 . S
C5935 C1093 1.557 . S
C5950 C1207 1.559 . S
C5985 C1131 1.559 . S
C6000 C1169 1.558 . S
C6035 C14 0.441 . S
C6050 C170 0.441 . S
C6085 C1120 0.441 . S
C6100 C52 0.441 . S
C6135 C550 0.440 . S
C6150 C90 0.440 . S
C6185 C892 0.440 . S
C6200 C128 0.440 . S
C6235 C964 0.441 . S
C6250 C208 0.441 . S
C6285 C394 0.441 . S
C6300 C246 0.441 . S
C6335 C284 0.440 . S
C6350 C736 0.440 . S
C6385 C474 0.441 . S
C6400 C318 0.441 . S
C6435 C356 0.440 . S
C6450 C816 0.440 . S
C6485 C432 0.441 . S
C6500 C1196 0.441 . S
C6535 C512 0.441 . S
C6550 C660 0.441 . S
C6585 C1040 0.440 . S
C6600 C588 0.440 . S
C6635 C778 0.440 . S
C6650 C622 0.440 . S
C6685 C1158 0.440 . S
C6700 C698 0.440 . S
C6735 C854 0.440 . S
C6750 C1002 0.440 . S
C6785 C1082 0.441 . S
C6800 C926 0.441 . S
C6835 C94 1.127 . S
C6850 C18 1.127 . S
C6885 C132 1.128 . S
C6900 C56 1.129 . S
C6935 C166 1.128 . S
C6950 C242 1.128 . S
C6985 C204 1.128 . S
C7000 C280 1.128 . S
C7035 C398 1.129 . S
C7050 C322 1.129 . S
C7085 C436 1.128 . S
C7100 C360 1.127 . S
C7135 C470 1.128 . S
C7150 C546 1.128 . S
C7185 C584 1.127 . S
C7200 C508 1.127 . S
C7235 C702 1.128 . S
C7250 C626 1.128 . S
C7285 C664 1.128 . S
C7300 C740 1.128 . S
C7335 C850 1.129 . S
C7350 C774 1.129 . S
C7385 C812 1.129 . S
C7400 C888 1.129 . S
C7435 C930 1.129 . S
C7450 C1006 1.129 . S
C7485 C968 1.127 . S
C7500 C1044 1.127 . S
C7535 C1154 1.129 . S
C7550 C1078 1.129 . S
C7585 C1192 1.128 . S
C7600 C1116 1.128 . S
