# Generated by pormake.
# Topology whw, (6)-cn, num edge types: 1
# Building blocks:
#     Node 0, Type 0, BuildingBlock: BETDEL_clean_sbu_0, # of connection points: 6
#     Node 1, Type 0, BuildingBlock: BETDEL_clean_sbu_0, # of connection points: 6
#     Node 2, Type 0, BuildingBlock: BETDEL_clean_sbu_0, # of connection points: 6
#     Node 3, Type 0, BuildingBlock: BETDEL_clean_sbu_0, # of connection points: 6
#     Node 4, Type 0, BuildingBlock: BETDEL_clean_sbu_0, # of connection points: 6
#     Node 5, Type 0, BuildingBlock: BETDEL_clean_sbu_0, # of connection points: 6
#     Node 6, Type 0, BuildingBlock: BETDEL_clean_sbu_0, # of connection points: 6
#     Node 7, Type 0, BuildingBlock: BETDEL_clean_sbu_0, # of connection points: 6
#     Node 8, Type 0, BuildingBlock: BETDEL_clean_sbu_0, # of connection points: 6
#     Node 9, Type 0, BuildingBlock: BETDEL_clean_sbu_0, # of connection points: 6
#     Node 10, Type 0, BuildingBlock: BETDEL_clean_sbu_0, # of connection points: 6
#     Node 11, Type 0, BuildingBlock: BETDEL_clean_sbu_0, # of connection points: 6
#     Node 12, Type 0, BuildingBlock: BETDEL_clean_sbu_0, # of connection points: 6
#     Node 13, Type 0, BuildingBlock: BETDEL_clean_sbu_0, # of connection points: 6
#     Node 14, Type 0, BuildingBlock: BETDEL_clean_sbu_0, # of connection points: 6
#     Node 15, Type 0, BuildingBlock: BETDEL_clean_sbu_0, # of connection points: 6
#     Edge 16, Type (0, 0), None
#     Edge 17, Type (0, 0), None
#     Edge 18, Type (0, 0), None
#     Edge 19, Type (0, 0), None
#     Edge 20, Type (0, 0), None
#     Edge 21, Type (0, 0), None
#     Edge 22, Type (0, 0), None
#     Edge 23, Type (0, 0), None
#     Edge 24, Type (0, 0), None
#     Edge 25, Type (0, 0), None
#     Edge 26, Type (0, 0), None
#     Edge 27, Type (0, 0), None
#     Edge 28, Type (0, 0), None
#     Edge 29, Type (0, 0), None
#     Edge 30, Type (0, 0), None
#     Edge 31, Type (0, 0), None
#     Edge 32, Type (0, 0), None
#     Edge 33, Type (0, 0), None
#     Edge 34, Type (0, 0), None
#     Edge 35, Type (0, 0), None
#     Edge 36, Type (0, 0), None
#     Edge 37, Type (0, 0), None
#     Edge 38, Type (0, 0), None
#     Edge 39, Type (0, 0), None
#     Edge 40, Type (0, 0), None
#     Edge 41, Type (0, 0), None
#     Edge 42, Type (0, 0), None
#     Edge 43, Type (0, 0), None
#     Edge 44, Type (0, 0), None
#     Edge 45, Type (0, 0), None
#     Edge 46, Type (0, 0), None
#     Edge 47, Type (0, 0), None
#     Edge 48, Type (0, 0), None
#     Edge 49, Type (0, 0), None
#     Edge 50, Type (0, 0), None
#     Edge 51, Type (0, 0), None
#     Edge 52, Type (0, 0), None
#     Edge 53, Type (0, 0), None
#     Edge 54, Type (0, 0), None
#     Edge 55, Type (0, 0), None
#     Edge 56, Type (0, 0), None
#     Edge 57, Type (0, 0), None
#     Edge 58, Type (0, 0), None
#     Edge 59, Type (0, 0), None
#     Edge 60, Type (0, 0), None
#     Edge 61, Type (0, 0), None
#     Edge 62, Type (0, 0), None
#     Edge 63, Type (0, 0), None
# Relax obj value: 0.554
# Max RMSD: 0.232
# Mean RMSD: 0.210
data_MOF--net-whw--node1-BETDEL_clean_sbu_0--edge1-none
_symmetry_space_group_name_H-M    P1
_symmetry_Int_Tables_number       1
_symmetry_cell_setting            triclinic
loop_
_symmetry_equiv_pos_as_xyz
'x, y, z'
_cell_length_a     21.92264
_cell_length_b     22.402984
_cell_length_c     12.01436
_cell_angle_alpha  86.213242
_cell_angle_beta   89.045572
_cell_angle_gamma 88.777254
loop_
_atom_site_label
_atom_site_type_symbol
_atom_site_fract_x
_atom_site_fract_y
_atom_site_fract_z
_atom_type_partial_charge
Dy0 Dy 0.05837 0.05195 0.25505 0.0
C1 C 0.86077 0.04688 0.99267 0.0
C2 C 0.14534 0.0584 0.41216 0.0
Dy3 Dy 0.9486 0.06028 0.14184 0.0
O4 O 0.10086 0.0211 0.4174 0.0
O5 O 0.14481 0.08791 0.31586 0.0
O6 O 0.09775 -0.01751 0.14893 0.0
O7 O 0.00381 -0.01867 0.18598 0.0
C8 C 0.04591 -0.03948 0.12499 0.0
C9 C -0.03009 0.16544 0.23195 0.0
O10 O 0.90504 0.02748 0.30242 0.0
O11 O -0.01356 0.06135 0.39306 0.0
O12 O 0.85233 0.06697 1.09021 0.0
O13 O 0.91643 0.02764 0.98315 0.0
O14 O 0.91602 0.14556 0.21539 0.0
O15 O 0.00887 0.13126 0.19014 0.0
O16 O 0.09453 0.10769 1.10587 0.0
O17 O 0.0117 0.0904 0.99861 0.0
C18 C 0.92874 0.04462 0.39423 0.0
C19 C 0.06788 0.11007 1.00748 0.0
Dy20 Dy 0.10969 0.70593 0.52812 0.0
C21 C 0.09685 0.49768 0.32487 0.0
C22 C 0.14715 0.78773 0.66529 0.0
Dy23 Dy 0.0737 0.59818 0.4328 0.0
O24 O 0.16992 0.73389 0.66143 0.0
O25 O 0.10718 0.79752 0.58707 0.0
O26 O 0.1809 0.71775 0.39415 0.0
O27 O 0.16233 0.63146 0.45778 0.0
C28 C 0.19083 0.66171 0.38185 0.0
C29 C -0.01995 0.66971 0.45852 0.0
O30 O 0.05236 0.56155 0.61137 0.0
O31 O 0.07397 0.65023 0.68729 0.0
O32 O 0.04684 0.50942 0.38038 0.0
O33 O 0.13711 0.53548 0.35033 0.0
O34 O -0.01375 0.63582 0.37523 0.0
O35 O 0.02305 0.66221 0.5265 0.0
O36 O 0.0655 0.75581 0.37875 0.0
O37 O 0.07254 0.67063 0.28117 0.0
C38 C 0.05355 0.59393 0.70017 0.0
C39 C 0.06168 0.73027 0.28247 0.0
Dy40 Dy 0.39225 0.83124 0.82249 0.0
C41 C 0.57555 0.8889 0.51276 0.0
C42 C 0.30493 0.79954 0.97466 0.0
Dy43 Dy 0.50016 0.8466 0.68044 0.0
O44 O 0.34554 0.8399 0.98682 0.0
O45 O 0.31085 0.77951 0.87626 0.0
O46 O 0.34686 0.91559 0.7578 0.0
O47 O 0.44234 0.91027 0.76002 0.0
C48 C 0.3966 0.93959 0.71983 0.0
C49 C 0.48124 0.72954 0.73898 0.0
O50 O 0.54778 0.85181 0.84355 0.0
O51 O 0.47072 0.80065 0.93654 0.0
O52 O 0.59227 0.85557 0.59964 0.0
O53 O 0.51873 0.9032 0.52524 0.0
O54 O 0.53426 0.75179 0.71451 0.0
O55 O 0.44103 0.76942 0.7181 0.0
O56 O 0.34833 0.80837 0.66498 0.0
O57 O 0.42772 0.84232 0.55067 0.0
C58 C 0.52815 0.81854 0.93117 0.0
C59 C 0.37098 0.82379 0.56485 0.0
Dy60 Dy 0.3142 0.18267 1.04606 0.0
C61 C 0.327 0.39307 0.77232 0.0
C62 C 0.2828 0.10015 0.20733 0.0
Dy63 Dy 0.3475 0.2929 0.90811 0.0
O64 O 0.25921 0.15386 0.19525 0.0
O65 O 0.32217 0.09139 0.12733 0.0
O66 O 0.23059 0.16945 0.94773 0.0
O67 O 0.26182 0.25382 0.95335 0.0
C68 C 0.22647 0.22242 0.89902 0.0
C69 C 0.4417 0.22236 0.95114 0.0
O70 O 0.36984 0.33003 1.07803 0.0
O71 O 0.35266 0.24139 0.18263 0.0
O72 O 0.37404 0.38281 0.83623 0.0
O73 O 0.28748 0.35209 0.79864 0.0
O74 O 0.43667 0.25565 0.85864 0.0
O75 O 0.39756 0.23076 1.01663 0.0
O76 O 0.35651 0.13444 0.90129 0.0
O77 O 0.35147 0.21916 0.77959 0.0
C78 C 0.3722 0.29818 0.17633 0.0
C79 C 0.36144 0.15977 0.79801 0.0
Dy80 Dy 0.03989 0.81634 0.92321 0.0
C81 C 0.84163 0.90272 0.1553 0.0
C82 C 0.13144 0.80907 0.77199 0.0
Dy83 Dy 0.92599 0.84077 1.03718 0.0
O84 O 0.0931 0.85383 0.77688 0.0
O85 O 0.12067 0.76952 0.85383 0.0
O86 O 0.08729 0.87403 1.03786 0.0
O87 O -0.0007 0.89923 0.98614 0.0
C88 C 0.0421 0.9106 1.05079 0.0
C89 C 0.94492 0.72596 1.02165 0.0
O90 O 0.88118 0.83873 0.86514 0.0
O91 O -0.03002 0.80849 0.77839 0.0
O92 O 0.8306 0.85768 1.09602 0.0
O93 O 0.89694 0.91895 0.13201 0.0
O94 O 0.91819 0.7481 0.10737 0.0
O95 O 0.95785 0.76592 0.94767 0.0
O96 O 0.06442 0.7577 1.07832 0.0
O97 O -0.00897 0.80546 0.18234 0.0
C98 C 0.90941 0.82013 0.77402 0.0
C99 C 0.03957 0.76739 0.17743 0.0
Dy100 Dy 0.33149 0.71935 0.31669 0.0
C101 C 0.38862 0.55978 0.99061 0.0
C102 C 0.34136 0.80317 0.4673 0.0
Dy103 Dy 0.32399 0.62123 0.14764 0.0
O104 O 0.37024 0.80337 0.37214 0.0
O105 O 0.30218 0.76022 0.47498 0.0
O106 O 0.42604 0.68355 0.3416 0.0
O107 O 0.3909 0.68998 0.18331 0.0
C108 C 0.43944 0.68058 0.23702 0.0
C109 C 0.22485 0.64243 0.28122 0.0
O110 O 0.35427 0.56918 0.29947 0.0
O111 O 0.31747 0.63641 0.42414 0.0
O112 O 0.32914 0.56964 0.98935 0.0
O113 O 0.41052 0.58134 1.07894 0.0
O114 O 0.23838 0.58873 0.24881 0.0
O115 O 0.26087 0.67817 0.2336 0.0
O116 O 0.30025 0.77578 0.1682 0.0
O117 O 0.29556 0.70083 1.04064 0.0
C118 C 0.33721 0.58258 0.40047 0.0
C119 C 0.29218 0.75755 1.06661 0.0
Dy120 Dy 0.38874 0.0722 0.46305 0.0
C121 C 0.58746 -0.00493 0.70755 0.0
C122 C 0.29738 0.07657 0.31705 0.0
Dy123 Dy 0.50427 0.05698 0.57706 0.0
O124 O 0.33755 0.03326 0.32853 0.0
O125 O 0.30549 0.11519 0.3913 0.0
O126 O 0.34521 0.0125 0.59626 0.0
O127 O 0.43511 -0.0055 0.54788 0.0
C128 C 0.39359 -0.01922 0.6186 0.0
C129 C 0.47635 0.16941 0.53071 0.0
O130 O 0.54882 0.06032 0.40244 0.0
O131 O 0.45769 0.07931 0.31194 0.0
O132 O 0.59773 0.04442 0.64679 0.0
O133 O 0.53452 -0.02303 0.68163 0.0
O134 O 0.50383 0.15005 0.62124 0.0
O135 O 0.46693 0.12828 0.46769 0.0
O136 O 0.36101 0.13133 0.60224 0.0
O137 O 0.43583 0.08771 0.71535 0.0
C138 C 0.5189 0.07325 0.30785 0.0
C139 C 0.38544 0.123 0.70265 0.0
Dy140 Dy 0.13234 0.17445 0.65464 0.0
C141 C 0.09359 0.37011 0.90583 0.0
C142 C 0.15958 0.0899 0.50909 0.0
Dy143 Dy 0.0882 0.27746 0.77292 0.0
O144 O 0.17593 0.14532 0.4977 0.0
O145 O 0.12907 0.08067 0.60199 0.0
O146 O 0.22365 0.1714 0.73487 0.0
O147 O 0.17738 0.25098 0.71954 0.0
C148 C 0.21978 0.22375 0.77456 0.0
C149 C -0.0057 0.21295 0.70187 0.0
O150 O 0.08678 0.32264 0.60076 0.0
O151 O 0.08075 0.23265 0.52211 0.0
O152 O 0.05095 0.36207 0.83508 0.0
O153 O 0.13429 0.32783 0.9001 0.0
O154 O -0.0073 0.27047 0.71202 0.0
O155 O 0.04534 0.19362 0.73625 0.0
O156 O 0.10442 0.12356 0.81666 0.0
O157 O 0.08642 0.20701 0.91835 0.0
C158 C 0.07174 0.29162 0.51621 0.0
C159 C 0.09275 0.14791 0.91331 0.0
Dy160 Dy 0.8315 0.21926 0.81674 0.0
C161 C 0.88867 0.05982 0.49061 0.0
C162 C 0.84125 0.30324 0.96725 0.0
Dy163 Dy 0.82402 0.12114 0.6477 0.0
O164 O 0.87017 0.30333 0.87212 0.0
O165 O 0.80215 0.26021 0.97493 0.0
O166 O 0.92608 0.18352 0.84181 0.0
O167 O 0.89091 0.1899 0.68334 0.0
C168 C 0.9394 0.18057 0.7372 0.0
C169 C 0.72476 0.14241 0.78107 0.0
O170 O 0.85426 0.06909 0.79954 0.0
O171 O 0.81739 0.13633 0.92418 0.0
O172 O 0.82918 0.06956 0.48941 0.0
O173 O 0.91058 0.08133 0.57898 0.0
O174 O 0.73839 0.08871 0.74882 0.0
O175 O 0.76088 0.17813 0.73353 0.0
O176 O 0.80034 0.27569 0.66818 0.0
O177 O 0.79562 0.20074 0.54066 0.0
C178 C 0.8371 0.08249 0.9005 0.0
C179 C 0.79235 0.25747 0.56655 0.0
Dy180 Dy 0.63236 0.67446 0.15458 0.0
C181 C 0.59358 0.86996 0.40582 0.0
C182 C 0.65969 0.58985 1.00902 0.0
Dy183 Dy 0.58819 0.77742 0.27292 0.0
O184 O 0.67594 0.6453 0.99766 0.0
O185 O 0.62918 0.58068 1.10194 0.0
O186 O 0.7237 0.67157 0.23466 0.0
O187 O 0.67737 0.751 0.21948 0.0
C188 C 0.71988 0.72391 0.27445 0.0
C189 C 0.49434 0.713 0.20186 0.0
O190 O 0.58679 0.82264 1.10081 0.0
O191 O 0.58079 0.73267 1.02207 0.0
O192 O 0.55088 0.86199 0.33516 0.0
O193 O 0.63434 0.82775 0.40012 0.0
O194 O 0.49269 0.77052 0.21192 0.0
O195 O 0.54535 0.69357 0.23618 0.0
O196 O 0.60447 0.62354 0.3166 0.0
O197 O 0.5864 0.70696 0.41831 0.0
C198 C 0.57178 0.79164 1.01623 0.0
C199 C 0.59275 0.64787 0.41326 0.0
Dy200 Dy 0.60975 0.20596 1.02811 0.0
C201 C 0.59685 -0.00227 0.82507 0.0
C202 C 0.64719 0.28778 0.16528 0.0
Dy203 Dy 0.57368 0.09819 0.93274 0.0
O204 O 0.66997 0.23394 0.16143 0.0
O205 O 0.60723 0.29755 1.08703 0.0
O206 O 0.681 0.21775 0.8942 0.0
O207 O 0.66232 0.13146 0.95772 0.0
C208 C 0.69085 0.16173 0.88177 0.0
C209 C 0.48013 0.1698 0.95844 0.0
O210 O 0.55235 0.06158 0.11133 0.0
O211 O 0.57405 0.15024 0.18728 0.0
O212 O 0.54676 0.00943 0.88038 0.0
O213 O 0.63716 0.03549 0.8504 0.0
O214 O 0.48624 0.13586 0.8752 0.0
O215 O 0.52311 0.16226 1.02645 0.0
O216 O 0.56557 0.25584 0.87872 0.0
O217 O 0.57255 0.17065 0.78113 0.0
C218 C 0.55359 0.09396 0.20013 0.0
C219 C 0.56173 0.2303 0.78243 0.0
Dy220 Dy 0.81412 0.68269 0.54606 0.0
C221 C 0.82706 0.89303 0.27251 0.0
C222 C 0.78271 0.60018 0.70734 0.0
Dy223 Dy 0.84754 0.79291 0.40812 0.0
O224 O 0.75911 0.65389 0.69525 0.0
O225 O 0.82208 0.59141 0.62734 0.0
O226 O 0.73057 0.66942 0.44757 0.0
O227 O 0.76182 0.75389 0.4533 0.0
C228 C 0.72658 0.72242 0.39891 0.0
C229 C 0.94162 0.72227 0.45114 0.0
O230 O 0.86988 0.83003 0.57803 0.0
O231 O 0.85259 0.7414 0.68264 0.0
O232 O 0.87416 0.88282 0.33627 0.0
O233 O 0.78748 0.8521 0.29869 0.0
O234 O 0.9367 0.75562 0.35868 0.0
O235 O 0.89751 0.73071 0.51666 0.0
O236 O 0.85644 0.63444 0.40131 0.0
O237 O 0.85151 0.71917 0.2796 0.0
C238 C 0.87219 0.79819 0.67633 0.0
C239 C 0.86142 0.65976 0.29802 0.0
Dy240 Dy 0.55833 0.55199 0.75505 0.0
C241 C 0.36082 0.54692 0.49264 0.0
C242 C 0.64523 0.55848 0.91205 0.0
Dy243 Dy 0.44855 0.5603 0.64176 0.0
O244 O 0.6008 0.52113 0.91743 0.0
O245 O 0.64474 0.58802 0.81579 0.0
O246 O 0.59771 0.48249 0.64902 0.0
O247 O 0.50376 0.48136 0.68598 0.0
C248 C 0.54588 0.46054 0.62504 0.0
C249 C 0.46983 0.66546 0.7317 0.0
O250 O 0.40499 0.52752 0.80236 0.0
O251 O 0.48638 0.56142 0.89302 0.0
O252 O 0.35228 0.567 0.59015 0.0
O253 O 0.41645 0.52762 0.48304 0.0
O254 O 0.41594 0.64558 0.7153 0.0
O255 O 0.50885 0.63128 0.69 0.0
O256 O 0.59453 0.60765 0.6058 0.0
O257 O 0.51167 0.5904 0.49855 0.0
C258 C 0.42868 0.54467 0.89417 0.0
C259 C 0.56787 0.61002 0.50741 0.0
Dy260 Dy 0.89222 0.3312 0.32242 0.0
C261 C 0.07544 0.38891 1.0128 0.0
C262 C 0.80503 0.29946 0.47457 0.0
Dy263 Dy 0.00013 0.34659 0.18035 0.0
O264 O 0.84554 0.33989 0.48677 0.0
O265 O 0.81087 0.27939 0.37619 0.0
O266 O 0.84682 0.41556 0.25778 0.0
O267 O 0.9423 0.41024 0.25998 0.0
C268 C 0.89657 0.43956 0.21982 0.0
C269 C -0.01875 0.22957 0.23874 0.0
O270 O 0.04774 0.35179 0.3435 0.0
O271 O -0.02931 0.30059 0.43646 0.0
O272 O 0.09226 0.35558 1.09961 0.0
O273 O 0.01862 0.4032 1.02513 0.0
O274 O 0.03431 0.25181 0.21444 0.0
O275 O 0.94101 0.2694 0.21796 0.0
O276 O 0.84825 0.3084 0.16491 0.0
O277 O 0.92769 0.34227 1.05058 0.0
C278 C 0.02811 0.3185 0.43111 0.0
C279 C 0.87093 0.32381 1.06479 0.0
Dy280 Dy 0.53991 0.31639 0.42317 0.0
C281 C 0.34165 0.40268 0.65512 0.0
C282 C 0.63147 0.30912 0.27196 0.0
Dy283 Dy 0.42597 0.34076 0.5372 0.0
O284 O 0.59312 0.35388 0.27684 0.0
O285 O 0.6207 0.26957 0.35381 0.0
O286 O 0.58729 0.3741 0.53781 0.0
O287 O 0.49927 0.39924 0.48616 0.0
C288 C 0.54207 0.41063 0.5508 0.0
C289 C 0.44501 0.22599 0.52168 0.0
O290 O 0.38118 0.33872 0.36514 0.0
O291 O 0.46999 0.30854 0.27836 0.0
O292 O 0.33055 0.35761 0.59596 0.0
O293 O 0.39696 0.41896 0.63201 0.0
O294 O 0.4182 0.24808 0.60739 0.0
O295 O 0.4579 0.26595 0.44766 0.0
O296 O 0.56446 0.25775 0.57829 0.0
O297 O 0.49104 0.30546 0.68233 0.0
C298 C 0.40942 0.32014 0.27402 0.0
C299 C 0.5396 0.26743 0.67741 0.0
Dy300 Dy 0.88867 0.57218 0.96305 0.0
C301 C 0.08739 0.49507 0.20736 0.0
C302 C 0.7973 0.5766 0.81706 0.0
Dy303 Dy 0.00425 0.55697 1.07709 0.0
O304 O 0.83745 0.53327 0.82853 0.0
O305 O 0.80545 0.61523 0.89129 0.0
O306 O 0.84515 0.51246 1.09623 0.0
O307 O 0.93508 0.49451 1.04788 0.0
C308 C 0.89356 0.48077 0.11859 0.0
C309 C -0.02374 0.66937 1.03076 0.0
O310 O 0.04878 0.5603 0.90246 0.0
O311 O 0.95764 0.57929 0.81195 0.0
O312 O 0.09775 0.54442 0.1467 0.0
O313 O 0.03444 0.47692 0.18165 0.0
O314 O 0.00381 0.65006 0.12124 0.0
O315 O -0.03313 0.62825 0.96771 0.0
O316 O 0.86096 0.63129 1.10228 0.0
O317 O 0.93581 0.58771 0.21538 0.0
C318 C 0.01885 0.57322 0.80788 0.0
C319 C 0.8854 0.62298 0.20268 0.0
loop_
_geom_bond_atom_site_label_1
_geom_bond_atom_site_label_2
_geom_bond_distance
_geom_bond_site_symmetry_2
_ccdc_geom_bond_type
Dy0 O4 2.398 . S
Dy0 O5 2.491 . S
Dy0 O6 2.403 1_545 S
Dy0 O7 2.664 1_455 S
Dy0 O11 2.326 1_455 S
Dy0 O15 2.310 . S
Dy0 O16 2.351 1_554 S
C1 O12 1.185 . S
C1 O13 1.355 . S
C2 O4 1.185 . S
C2 O5 1.355 . S
Dy3 O7 2.310 . S
Dy3 O10 2.351 . S
Dy3 O12 2.398 1_554 S
Dy3 O13 2.491 1_554 S
Dy3 O14 2.403 . S
Dy3 O15 2.664 1_655 S
Dy3 O17 2.326 1_654 S
O4 Dy0 2.398 . S
O4 C2 1.185 . S
O5 Dy0 2.491 . S
O5 C2 1.355 . S
O6 Dy0 2.403 1_565 S
O6 C8 1.254 . S
O7 Dy0 2.664 1_655 S
O7 Dy3 2.310 . S
O7 C8 1.268 1_645 S
C8 O6 1.254 . S
C8 O7 1.268 1_465 S
C9 O14 1.254 . S
C9 O15 1.268 1_655 S
O10 Dy3 2.351 . S
O10 C18 1.249 . S
O11 Dy0 2.326 1_655 S
O11 C18 1.267 . S
O12 C1 1.185 . S
O12 Dy3 2.398 1_556 S
O13 C1 1.355 . S
O13 Dy3 2.491 1_556 S
O14 Dy3 2.403 . S
O14 C9 1.254 . S
O15 Dy0 2.310 . S
O15 Dy3 2.664 1_455 S
O15 C9 1.268 1_455 S
O16 Dy0 2.351 1_556 S
O16 C19 1.249 . S
O17 Dy3 2.326 1_456 S
O17 C19 1.267 . S
C18 O10 1.249 . S
C18 O11 1.267 . S
C19 O16 1.249 . S
C19 O17 1.267 . S
Dy20 O24 2.398 . S
Dy20 O25 2.491 . S
Dy20 O26 2.403 . S
Dy20 O27 2.664 . S
Dy20 O31 2.326 . S
Dy20 O35 2.310 . S
Dy20 O36 2.351 . S
C21 O32 1.185 . S
C21 O33 1.355 . S
C22 O24 1.185 . S
C22 O25 1.355 . S
Dy23 O27 2.310 . S
Dy23 O30 2.351 . S
Dy23 O32 2.398 . S
Dy23 O33 2.491 . S
Dy23 O34 2.403 . S
Dy23 O35 2.664 . S
Dy23 O37 2.326 . S
O24 Dy20 2.398 . S
O24 C22 1.185 . S
O25 Dy20 2.491 . S
O25 C22 1.355 . S
O26 Dy20 2.403 . S
O26 C28 1.254 . S
O27 Dy20 2.664 . S
O27 Dy23 2.310 . S
O27 C28 1.268 . S
C28 O26 1.254 . S
C28 O27 1.268 . S
C29 O34 1.254 . S
C29 O35 1.268 . S
O30 Dy23 2.351 . S
O30 C38 1.249 . S
O31 Dy20 2.326 . S
O31 C38 1.267 . S
O32 C21 1.185 . S
O32 Dy23 2.398 . S
O33 C21 1.355 . S
O33 Dy23 2.491 . S
O34 Dy23 2.403 . S
O34 C29 1.254 . S
O35 Dy20 2.310 . S
O35 Dy23 2.664 . S
O35 C29 1.268 . S
O36 Dy20 2.351 . S
O36 C39 1.249 . S
O37 Dy23 2.326 . S
O37 C39 1.267 . S
C38 O30 1.249 . S
C38 O31 1.267 . S
C39 O36 1.249 . S
C39 O37 1.267 . S
Dy40 O44 2.398 . S
Dy40 O45 2.491 . S
Dy40 O46 2.403 1_565 S
Dy40 O47 2.664 . S
Dy40 O51 2.326 . S
Dy40 O55 2.310 . S
Dy40 O56 2.351 . S
C41 O52 1.185 . S
C41 O53 1.355 . S
C42 O44 1.185 . S
C42 O45 1.355 . S
Dy43 O47 2.310 . S
Dy43 O50 2.351 . S
Dy43 O52 2.398 . S
Dy43 O53 2.491 . S
Dy43 O54 2.403 . S
Dy43 O55 2.664 . S
Dy43 O57 2.326 . S
O44 Dy40 2.398 . S
O44 C42 1.185 . S
O45 Dy40 2.491 . S
O45 C42 1.355 . S
O46 Dy40 2.403 1_545 S
O46 C48 1.254 . S
O47 Dy40 2.664 . S
O47 Dy43 2.310 . S
O47 C48 1.268 1_565 S
C48 O46 1.254 . S
C48 O47 1.268 1_545 S
C49 O54 1.254 . S
C49 O55 1.268 . S
O50 Dy43 2.351 . S
O50 C58 1.249 . S
O51 Dy40 2.326 . S
O51 C58 1.267 . S
O52 C41 1.185 . S
O52 Dy43 2.398 . S
O53 C41 1.355 . S
O53 Dy43 2.491 . S
O54 Dy43 2.403 . S
O54 C49 1.254 . S
O55 Dy40 2.310 . S
O55 Dy43 2.664 . S
O55 C49 1.268 . S
O56 Dy40 2.351 . S
O56 C59 1.249 . S
O57 Dy43 2.326 . S
O57 C59 1.267 . S
C58 O50 1.249 . S
C58 O51 1.267 . S
C59 O56 1.249 . S
C59 O57 1.267 . S
Dy60 O64 2.398 1_556 S
Dy60 O65 2.491 1_556 S
Dy60 O66 2.403 . S
Dy60 O67 2.664 . S
Dy60 O71 2.326 1_556 S
Dy60 O75 2.310 . S
Dy60 O76 2.351 . S
C61 O72 1.185 . S
C61 O73 1.355 . S
C62 O64 1.185 . S
C62 O65 1.355 . S
Dy63 O67 2.310 . S
Dy63 O70 2.351 . S
Dy63 O72 2.398 . S
Dy63 O73 2.491 . S
Dy63 O74 2.403 . S
Dy63 O75 2.664 . S
Dy63 O77 2.326 . S
O64 Dy60 2.398 1_554 S
O64 C62 1.185 . S
O65 Dy60 2.491 1_554 S
O65 C62 1.355 . S
O66 Dy60 2.403 . S
O66 C68 1.254 . S
O67 Dy60 2.664 . S
O67 Dy63 2.310 . S
O67 C68 1.268 . S
C68 O66 1.254 . S
C68 O67 1.268 . S
C69 O74 1.254 . S
C69 O75 1.268 . S
O70 Dy63 2.351 . S
O70 C78 1.249 1_556 S
O71 Dy60 2.326 1_554 S
O71 C78 1.267 . S
O72 C61 1.185 . S
O72 Dy63 2.398 . S
O73 C61 1.355 . S
O73 Dy63 2.491 . S
O74 Dy63 2.403 . S
O74 C69 1.254 . S
O75 Dy60 2.310 . S
O75 Dy63 2.664 . S
O75 C69 1.268 . S
O76 Dy60 2.351 . S
O76 C79 1.249 . S
O77 Dy63 2.326 . S
O77 C79 1.267 . S
C78 O70 1.249 1_554 S
C78 O71 1.267 . S
C79 O76 1.249 . S
C79 O77 1.267 . S
Dy80 O84 2.398 . S
Dy80 O85 2.491 . S
Dy80 O86 2.403 1_565 S
Dy80 O87 2.664 . S
Dy80 O91 2.330 . S
Dy80 O95 2.310 . S
Dy80 O96 2.351 . S
C81 O92 1.185 . S
C81 O93 1.355 . S
C82 O84 1.185 . S
C82 O85 1.355 . S
Dy83 O87 2.310 1_655 S
Dy83 O90 2.351 . S
Dy83 O92 2.398 1_556 S
Dy83 O93 2.491 1_556 S
Dy83 O94 2.403 . S
Dy83 O95 2.664 1_655 S
Dy83 O97 2.326 1_656 S
O84 Dy80 2.398 . S
O84 C82 1.185 . S
O85 Dy80 2.491 . S
O85 C82 1.355 . S
O86 Dy80 2.403 1_545 S
O86 C88 1.254 . S
O87 Dy80 2.664 . S
O87 Dy83 2.310 1_455 S
O87 C88 1.268 1_565 S
C88 O86 1.254 . S
C88 O87 1.268 1_545 S
C89 O94 1.254 . S
C89 O95 1.268 1_655 S
O90 Dy83 2.351 . S
O90 C98 1.249 . S
O91 Dy80 2.330 . S
O91 C98 1.263 1_455 S
O92 C81 1.185 . S
O92 Dy83 2.398 1_554 S
O93 C81 1.355 . S
O93 Dy83 2.491 1_554 S
O94 Dy83 2.403 . S
O94 C89 1.254 . S
O95 Dy80 2.310 . S
O95 Dy83 2.664 1_455 S
O95 C89 1.268 1_455 S
O96 Dy80 2.351 . S
O96 C99 1.249 1_556 S
O97 Dy83 2.326 1_454 S
O97 C99 1.267 . S
C98 O90 1.249 . S
C98 O91 1.263 1_655 S
C99 O96 1.249 1_554 S
C99 O97 1.267 . S
Dy100 O104 2.398 . S
Dy100 O105 2.491 . S
Dy100 O106 2.403 . S
Dy100 O107 2.664 . S
Dy100 O111 2.326 . S
Dy100 O115 2.310 . S
Dy100 O116 2.351 . S
C101 O112 1.185 . S
C101 O113 1.355 . S
C102 O104 1.185 . S
C102 O105 1.355 . S
Dy103 O107 2.310 . S
Dy103 O110 2.351 . S
Dy103 O112 2.398 1_554 S
Dy103 O113 2.491 1_554 S
Dy103 O114 2.403 . S
Dy103 O115 2.664 . S
Dy103 O117 2.326 1_554 S
O104 Dy100 2.398 . S
O104 C102 1.185 . S
O105 Dy100 2.491 . S
O105 C102 1.355 . S
O106 Dy100 2.403 . S
O106 C108 1.254 . S
O107 Dy100 2.664 . S
O107 Dy103 2.310 . S
O107 C108 1.268 . S
C108 O106 1.254 . S
C108 O107 1.268 . S
C109 O114 1.254 . S
C109 O115 1.268 . S
O110 Dy103 2.351 . S
O110 C118 1.249 . S
O111 Dy100 2.326 . S
O111 C118 1.267 . S
O112 C101 1.185 . S
O112 Dy103 2.398 1_556 S
O113 C101 1.355 . S
O113 Dy103 2.491 1_556 S
O114 Dy103 2.403 . S
O114 C109 1.254 . S
O115 Dy100 2.310 . S
O115 Dy103 2.664 . S
O115 C109 1.268 . S
O116 Dy100 2.351 . S
O116 C119 1.249 1_554 S
O117 Dy103 2.326 1_556 S
O117 C119 1.267 . S
C118 O110 1.249 . S
C118 O111 1.267 . S
C119 O116 1.249 1_556 S
C119 O117 1.267 . S
Dy120 O124 2.398 . S
Dy120 O125 2.491 . S
Dy120 O126 2.403 1_545 S
Dy120 O127 2.664 . S
Dy120 O131 2.326 . S
Dy120 O135 2.310 . S
Dy120 O136 2.351 . S
C121 O132 1.185 . S
C121 O133 1.355 . S
C122 O124 1.185 . S
C122 O125 1.355 . S
Dy123 O127 2.310 . S
Dy123 O130 2.351 . S
Dy123 O132 2.398 . S
Dy123 O133 2.491 . S
Dy123 O134 2.403 . S
Dy123 O135 2.664 . S
Dy123 O137 2.326 . S
O124 Dy120 2.398 . S
O124 C122 1.185 . S
O125 Dy120 2.491 . S
O125 C122 1.355 . S
O126 Dy120 2.403 1_565 S
O126 C128 1.254 . S
O127 Dy120 2.664 . S
O127 Dy123 2.310 . S
O127 C128 1.268 1_545 S
C128 O126 1.254 . S
C128 O127 1.268 1_565 S
C129 O134 1.254 . S
C129 O135 1.268 . S
O130 Dy123 2.351 . S
O130 C138 1.249 . S
O131 Dy120 2.326 . S
O131 C138 1.267 . S
O132 C121 1.185 . S
O132 Dy123 2.398 . S
O133 C121 1.355 . S
O133 Dy123 2.491 . S
O134 Dy123 2.403 . S
O134 C129 1.254 . S
O135 Dy120 2.310 . S
O135 Dy123 2.664 . S
O135 C129 1.268 . S
O136 Dy120 2.351 . S
O136 C139 1.249 . S
O137 Dy123 2.326 . S
O137 C139 1.267 . S
C138 O130 1.249 . S
C138 O131 1.267 . S
C139 O136 1.249 . S
C139 O137 1.267 . S
Dy140 O144 2.398 . S
Dy140 O145 2.491 . S
Dy140 O146 2.403 . S
Dy140 O147 2.664 . S
Dy140 O151 2.326 . S
Dy140 O155 2.310 . S
Dy140 O156 2.351 . S
C141 O152 1.185 . S
C141 O153 1.355 . S
C142 O144 1.185 . S
C142 O145 1.355 . S
Dy143 O147 2.310 . S
Dy143 O150 2.351 . S
Dy143 O152 2.398 . S
Dy143 O153 2.491 . S
Dy143 O154 2.403 . S
Dy143 O155 2.664 . S
Dy143 O157 2.326 . S
O144 Dy140 2.398 . S
O144 C142 1.185 . S
O145 Dy140 2.491 . S
O145 C142 1.355 . S
O146 Dy140 2.403 . S
O146 C148 1.254 . S
O147 Dy140 2.664 . S
O147 Dy143 2.310 . S
O147 C148 1.268 . S
C148 O146 1.254 . S
C148 O147 1.268 . S
C149 O154 1.254 . S
C149 O155 1.268 . S
O150 Dy143 2.351 . S
O150 C158 1.249 . S
O151 Dy140 2.326 . S
O151 C158 1.267 . S
O152 C141 1.185 . S
O152 Dy143 2.398 . S
O153 C141 1.355 . S
O153 Dy143 2.491 . S
O154 Dy143 2.403 . S
O154 C149 1.254 . S
O155 Dy140 2.310 . S
O155 Dy143 2.664 . S
O155 C149 1.268 . S
O156 Dy140 2.351 . S
O156 C159 1.249 . S
O157 Dy143 2.326 . S
O157 C159 1.267 . S
C158 O150 1.249 . S
C158 O151 1.267 . S
C159 O156 1.249 . S
C159 O157 1.267 . S
Dy160 O164 2.398 . S
Dy160 O165 2.491 . S
Dy160 O166 2.403 1_655 S
Dy160 O167 2.664 . S
Dy160 O171 2.326 . S
Dy160 O175 2.310 . S
Dy160 O176 2.351 . S
C161 O172 1.185 . S
C161 O173 1.355 . S
C162 O164 1.185 . S
C162 O165 1.355 . S
Dy163 O167 2.310 . S
Dy163 O170 2.351 . S
Dy163 O172 2.398 . S
Dy163 O173 2.491 . S
Dy163 O174 2.403 . S
Dy163 O175 2.664 . S
Dy163 O177 2.326 . S
O164 Dy160 2.398 . S
O164 C162 1.185 . S
O165 Dy160 2.491 . S
O165 C162 1.355 . S
O166 Dy160 2.403 1_455 S
O166 C168 1.254 . S
O167 Dy160 2.664 . S
O167 Dy163 2.310 . S
O167 C168 1.268 1_655 S
C168 O166 1.254 . S
C168 O167 1.268 1_455 S
C169 O174 1.254 . S
C169 O175 1.268 . S
O170 Dy163 2.351 . S
O170 C178 1.249 . S
O171 Dy160 2.326 . S
O171 C178 1.267 . S
O172 C161 1.185 . S
O172 Dy163 2.398 . S
O173 C161 1.355 . S
O173 Dy163 2.491 . S
O174 Dy163 2.403 . S
O174 C169 1.254 . S
O175 Dy160 2.310 . S
O175 Dy163 2.664 . S
O175 C169 1.268 . S
O176 Dy160 2.351 . S
O176 C179 1.249 . S
O177 Dy163 2.326 . S
O177 C179 1.267 . S
C178 O170 1.249 . S
C178 O171 1.267 . S
C179 O176 1.249 . S
C179 O177 1.267 . S
Dy180 O184 2.398 1_554 S
Dy180 O185 2.491 1_554 S
Dy180 O186 2.403 . S
Dy180 O187 2.664 . S
Dy180 O191 2.326 1_554 S
Dy180 O195 2.310 . S
Dy180 O196 2.351 . S
C181 O192 1.185 . S
C181 O193 1.355 . S
C182 O184 1.185 . S
C182 O185 1.355 . S
Dy183 O187 2.310 . S
Dy183 O190 2.351 . S
Dy183 O192 2.398 . S
Dy183 O193 2.491 . S
Dy183 O194 2.403 . S
Dy183 O195 2.664 . S
Dy183 O197 2.326 . S
O184 Dy180 2.398 1_556 S
O184 C182 1.185 . S
O185 Dy180 2.491 1_556 S
O185 C182 1.355 . S
O186 Dy180 2.403 . S
O186 C188 1.254 . S
O187 Dy180 2.664 . S
O187 Dy183 2.310 . S
O187 C188 1.268 . S
C188 O186 1.254 . S
C188 O187 1.268 . S
C189 O194 1.254 . S
C189 O195 1.268 . S
O190 Dy183 2.351 . S
O190 C198 1.249 1_554 S
O191 Dy180 2.326 1_556 S
O191 C198 1.267 . S
O192 C181 1.185 . S
O192 Dy183 2.398 . S
O193 C181 1.355 . S
O193 Dy183 2.491 . S
O194 Dy183 2.403 . S
O194 C189 1.254 . S
O195 Dy180 2.310 . S
O195 Dy183 2.664 . S
O195 C189 1.268 . S
O196 Dy180 2.351 . S
O196 C199 1.249 . S
O197 Dy183 2.326 . S
O197 C199 1.267 . S
C198 O190 1.249 1_556 S
C198 O191 1.267 . S
C199 O196 1.249 . S
C199 O197 1.267 . S
Dy200 O204 2.398 1_556 S
Dy200 O205 2.491 1_556 S
Dy200 O206 2.403 . S
Dy200 O207 2.664 . S
Dy200 O211 2.326 1_556 S
Dy200 O215 2.310 . S
Dy200 O216 2.351 . S
C201 O212 1.185 . S
C201 O213 1.355 . S
C202 O204 1.185 . S
C202 O205 1.355 . S
Dy203 O207 2.310 . S
Dy203 O210 2.351 . S
Dy203 O212 2.398 . S
Dy203 O213 2.491 . S
Dy203 O214 2.403 . S
Dy203 O215 2.664 . S
Dy203 O217 2.326 . S
O204 Dy200 2.398 1_554 S
O204 C202 1.185 . S
O205 Dy200 2.491 1_554 S
O205 C202 1.355 . S
O206 Dy200 2.403 . S
O206 C208 1.254 . S
O207 Dy200 2.664 . S
O207 Dy203 2.310 . S
O207 C208 1.268 . S
C208 O206 1.254 . S
C208 O207 1.268 . S
C209 O214 1.254 . S
C209 O215 1.268 . S
O210 Dy203 2.351 . S
O210 C218 1.249 1_556 S
O211 Dy200 2.326 1_554 S
O211 C218 1.267 . S
O212 C201 1.185 . S
O212 Dy203 2.398 . S
O213 C201 1.355 . S
O213 Dy203 2.491 . S
O214 Dy203 2.403 . S
O214 C209 1.254 . S
O215 Dy200 2.310 . S
O215 Dy203 2.664 . S
O215 C209 1.268 . S
O216 Dy200 2.351 . S
O216 C219 1.249 . S
O217 Dy203 2.326 . S
O217 C219 1.267 . S
C218 O210 1.249 1_554 S
C218 O211 1.267 . S
C219 O216 1.249 . S
C219 O217 1.267 . S
Dy220 O224 2.398 . S
Dy220 O225 2.491 . S
Dy220 O226 2.403 . S
Dy220 O227 2.664 . S
Dy220 O231 2.326 . S
Dy220 O235 2.310 . S
Dy220 O236 2.351 . S
C221 O232 1.185 . S
C221 O233 1.355 . S
C222 O224 1.185 . S
C222 O225 1.355 . S
Dy223 O227 2.310 . S
Dy223 O230 2.351 . S
Dy223 O232 2.398 . S
Dy223 O233 2.491 . S
Dy223 O234 2.403 1_655 S
Dy223 O235 2.664 . S
Dy223 O237 2.326 . S
O224 Dy220 2.398 . S
O224 C222 1.185 . S
O225 Dy220 2.491 . S
O225 C222 1.355 . S
O226 Dy220 2.403 . S
O226 C228 1.254 . S
O227 Dy220 2.664 . S
O227 Dy223 2.310 . S
O227 C228 1.268 . S
C228 O226 1.254 . S
C228 O227 1.268 . S
C229 O234 1.255 . S
C229 O235 1.264 1_455 S
O230 Dy223 2.351 . S
O230 C238 1.249 . S
O231 Dy220 2.326 . S
O231 C238 1.267 . S
O232 C221 1.185 . S
O232 Dy223 2.398 . S
O233 C221 1.355 . S
O233 Dy223 2.491 . S
O234 Dy223 2.403 1_455 S
O234 C229 1.255 . S
O235 Dy220 2.310 . S
O235 Dy223 2.664 . S
O235 C229 1.264 1_655 S
O236 Dy220 2.351 . S
O236 C239 1.249 . S
O237 Dy223 2.326 . S
O237 C239 1.267 . S
C238 O230 1.249 . S
C238 O231 1.267 . S
C239 O236 1.249 . S
C239 O237 1.267 . S
Dy240 O244 2.398 . S
Dy240 O245 2.491 . S
Dy240 O246 2.403 . S
Dy240 O247 2.664 . S
Dy240 O251 2.326 . S
Dy240 O255 2.310 . S
Dy240 O256 2.351 . S
C241 O252 1.185 . S
C241 O253 1.355 . S
C242 O244 1.185 . S
C242 O245 1.355 . S
Dy243 O247 2.310 . S
Dy243 O250 2.351 . S
Dy243 O252 2.398 . S
Dy243 O253 2.491 . S
Dy243 O254 2.403 . S
Dy243 O255 2.664 . S
Dy243 O257 2.326 . S
O244 Dy240 2.398 . S
O244 C242 1.185 . S
O245 Dy240 2.491 . S
O245 C242 1.355 . S
O246 Dy240 2.403 . S
O246 C248 1.254 . S
O247 Dy240 2.664 . S
O247 Dy243 2.310 . S
O247 C248 1.268 . S
C248 O246 1.254 . S
C248 O247 1.268 . S
C249 O254 1.254 . S
C249 O255 1.268 . S
O250 Dy243 2.351 . S
O250 C258 1.249 . S
O251 Dy240 2.326 . S
O251 C258 1.267 . S
O252 C241 1.185 . S
O252 Dy243 2.398 . S
O253 C241 1.355 . S
O253 Dy243 2.491 . S
O254 Dy243 2.403 . S
O254 C249 1.254 . S
O255 Dy240 2.310 . S
O255 Dy243 2.664 . S
O255 C249 1.268 . S
O256 Dy240 2.351 . S
O256 C259 1.249 . S
O257 Dy243 2.326 . S
O257 C259 1.267 . S
C258 O250 1.249 . S
C258 O251 1.267 . S
C259 O256 1.249 . S
C259 O257 1.267 . S
Dy260 O264 2.398 . S
Dy260 O265 2.491 . S
Dy260 O266 2.403 . S
Dy260 O267 2.664 1_655 S
Dy260 O271 2.326 1_655 S
Dy260 O275 2.310 . S
Dy260 O276 2.351 . S
C261 O272 1.185 . S
C261 O273 1.355 . S
C262 O264 1.185 . S
C262 O265 1.355 . S
Dy263 O267 2.310 . S
Dy263 O270 2.351 . S
Dy263 O272 2.398 1_554 S
Dy263 O273 2.491 1_554 S
Dy263 O274 2.403 . S
Dy263 O275 2.664 1_455 S
Dy263 O277 2.326 1_454 S
O264 Dy260 2.398 . S
O264 C262 1.185 . S
O265 Dy260 2.491 . S
O265 C262 1.355 . S
O266 Dy260 2.403 . S
O266 C268 1.254 . S
O267 Dy260 2.664 1_455 S
O267 Dy263 2.310 . S
O267 C268 1.268 1_455 S
C268 O266 1.254 . S
C268 O267 1.268 1_655 S
C269 O274 1.254 . S
C269 O275 1.268 1_455 S
O270 Dy263 2.351 . S
O270 C278 1.249 . S
O271 Dy260 2.326 1_455 S
O271 C278 1.267 . S
O272 C261 1.185 . S
O272 Dy263 2.398 1_556 S
O273 C261 1.355 . S
O273 Dy263 2.491 1_556 S
O274 Dy263 2.403 . S
O274 C269 1.254 . S
O275 Dy260 2.310 . S
O275 Dy263 2.664 1_655 S
O275 C269 1.268 1_655 S
O276 Dy260 2.351 . S
O276 C279 1.249 1_554 S
O277 Dy263 2.326 1_656 S
O277 C279 1.267 . S
C278 O270 1.249 . S
C278 O271 1.267 . S
C279 O276 1.249 1_556 S
C279 O277 1.267 . S
Dy280 O284 2.398 . S
Dy280 O285 2.491 . S
Dy280 O286 2.403 . S
Dy280 O287 2.664 . S
Dy280 O291 2.326 . S
Dy280 O295 2.310 . S
Dy280 O296 2.351 . S
C281 O292 1.185 . S
C281 O293 1.355 . S
C282 O284 1.185 . S
C282 O285 1.355 . S
Dy283 O287 2.310 . S
Dy283 O290 2.351 . S
Dy283 O292 2.398 . S
Dy283 O293 2.491 . S
Dy283 O294 2.403 . S
Dy283 O295 2.664 . S
Dy283 O297 2.326 . S
O284 Dy280 2.398 . S
O284 C282 1.185 . S
O285 Dy280 2.491 . S
O285 C282 1.355 . S
O286 Dy280 2.403 . S
O286 C288 1.254 . S
O287 Dy280 2.664 . S
O287 Dy283 2.310 . S
O287 C288 1.268 . S
C288 O286 1.254 . S
C288 O287 1.268 . S
C289 O294 1.254 . S
C289 O295 1.268 . S
O290 Dy283 2.351 . S
O290 C298 1.249 . S
O291 Dy280 2.326 . S
O291 C298 1.267 . S
O292 C281 1.185 . S
O292 Dy283 2.398 . S
O293 C281 1.355 . S
O293 Dy283 2.491 . S
O294 Dy283 2.403 . S
O294 C289 1.254 . S
O295 Dy280 2.310 . S
O295 Dy283 2.664 . S
O295 C289 1.268 . S
O296 Dy280 2.351 . S
O296 C299 1.249 . S
O297 Dy283 2.326 . S
O297 C299 1.267 . S
C298 O290 1.249 . S
C298 O291 1.267 . S
C299 O296 1.249 . S
C299 O297 1.267 . S
Dy300 O304 2.398 . S
Dy300 O305 2.491 . S
Dy300 O306 2.403 . S
Dy300 O307 2.664 1_655 S
Dy300 O311 2.326 1_655 S
Dy300 O315 2.310 . S
Dy300 O316 2.351 . S
C301 O312 1.185 . S
C301 O313 1.355 . S
C302 O304 1.185 . S
C302 O305 1.355 . S
Dy303 O307 2.310 . S
Dy303 O310 2.351 . S
Dy303 O312 2.398 1_556 S
Dy303 O313 2.491 1_556 S
Dy303 O314 2.403 . S
Dy303 O315 2.664 1_455 S
Dy303 O317 2.326 1_456 S
O304 Dy300 2.398 . S
O304 C302 1.185 . S
O305 Dy300 2.491 . S
O305 C302 1.355 . S
O306 Dy300 2.403 . S
O306 C308 1.254 . S
O307 Dy300 2.664 1_455 S
O307 Dy303 2.310 . S
O307 C308 1.268 1_455 S
C308 O306 1.254 . S
C308 O307 1.268 1_655 S
C309 O314 1.254 . S
C309 O315 1.268 1_455 S
O310 Dy303 2.351 . S
O310 C318 1.249 . S
O311 Dy300 2.326 1_455 S
O311 C318 1.267 . S
O312 C301 1.185 . S
O312 Dy303 2.398 1_554 S
O313 C301 1.355 . S
O313 Dy303 2.491 1_554 S
O314 Dy303 2.403 . S
O314 C309 1.254 . S
O315 Dy300 2.310 . S
O315 Dy303 2.664 1_655 S
O315 C309 1.268 1_655 S
O316 Dy300 2.351 . S
O316 C319 1.249 1_556 S
O317 Dy303 2.326 1_654 S
O317 C319 1.267 . S
C318 O310 1.249 . S
C318 O311 1.267 . S
C319 O316 1.249 1_554 S
C319 O317 1.267 . S
C19 C159 2.166 . S
C39 C99 2.869 . S
C102 C59 1.784 . S
C79 C139 2.851 . S
C221 C81 0.543 . S
C178 C1 0.613 . S
C201 C121 0.563 . S
C41 C181 0.201 . S
C199 C259 2.166 . S
C219 C299 2.869 . S
C279 C162 1.784 . S
C239 C319 2.851 . S
C281 C61 0.543 . S
C241 C118 0.614 . S
C21 C301 0.563 . S
C141 C261 0.201 . S
C269 C9 1.333 1_455 S
C229 C29 0.667 . S
C249 C49 1.333 . S
C209 C69 0.666 . S
C89 C309 0.662 1_655 S
C189 C108 0.288 . S
C129 C289 0.661 . S
C149 C168 0.288 . S
C8 C88 2.744 1_564 S
C28 C109 3.039 . S
C128 C48 3.043 1_565 S
C68 C148 2.942 . S
C208 C169 3.039 . S
C228 C188 2.943 . S
C248 C288 2.744 . S
C308 C268 3.043 1_556 S
C2 C142 1.205 . S
C22 C82 0.970 . S
C119 C42 1.662 . S
C122 C62 0.915 . S
C238 C98 3.784 . S
C161 C18 2.762 . S
C218 C138 3.747 . S
C58 C198 3.177 . S
C242 C182 1.204 . S
C282 C202 0.971 . S
C262 C179 1.661 . S
C302 C222 0.916 . S
C298 C78 3.784 . S
C101 C258 2.762 . S
C38 C318 3.747 . S
C278 C158 3.177 . S
