# Generated by pormake.
# Topology smm, (6)-cn, num edge types: 1
# Building blocks:
#     Node 0, Type 0, BuildingBlock: KUMBOL_clean_sbu_1, # of connection points: 6
#     Node 1, Type 0, BuildingBlock: KUMBOL_clean_sbu_1, # of connection points: 6
#     Node 2, Type 0, BuildingBlock: KUMBOL_clean_sbu_1, # of connection points: 6
#     Node 3, Type 0, BuildingBlock: KUMBOL_clean_sbu_1, # of connection points: 6
#     Node 4, Type 0, BuildingBlock: KUMBOL_clean_sbu_1, # of connection points: 6
#     Node 5, Type 0, BuildingBlock: KUMBOL_clean_sbu_1, # of connection points: 6
#     Node 6, Type 0, BuildingBlock: KUMBOL_clean_sbu_1, # of connection points: 6
#     Node 7, Type 0, BuildingBlock: KUMBOL_clean_sbu_1, # of connection points: 6
#     Node 8, Type 0, BuildingBlock: KUMBOL_clean_sbu_1, # of connection points: 6
#     Edge 9, Type (0, 0), BuildingBlock: UVAHIK_clean_linker_0, # of connection points: 2
#     Edge 10, Type (0, 0), BuildingBlock: UVAHIK_clean_linker_0, # of connection points: 2
#     Edge 11, Type (0, 0), BuildingBlock: UVAHIK_clean_linker_0, # of connection points: 2
#     Edge 12, Type (0, 0), BuildingBlock: UVAHIK_clean_linker_0, # of connection points: 2
#     Edge 13, Type (0, 0), BuildingBlock: UVAHIK_clean_linker_0, # of connection points: 2
#     Edge 14, Type (0, 0), BuildingBlock: UVAHIK_clean_linker_0, # of connection points: 2
#     Edge 15, Type (0, 0), BuildingBlock: UVAHIK_clean_linker_0, # of connection points: 2
#     Edge 16, Type (0, 0), BuildingBlock: UVAHIK_clean_linker_0, # of connection points: 2
#     Edge 17, Type (0, 0), BuildingBlock: UVAHIK_clean_linker_0, # of connection points: 2
#     Edge 18, Type (0, 0), BuildingBlock: UVAHIK_clean_linker_0, # of connection points: 2
#     Edge 19, Type (0, 0), BuildingBlock: UVAHIK_clean_linker_0, # of connection points: 2
#     Edge 20, Type (0, 0), BuildingBlock: UVAHIK_clean_linker_0, # of connection points: 2
#     Edge 21, Type (0, 0), BuildingBlock: UVAHIK_clean_linker_0, # of connection points: 2
#     Edge 22, Type (0, 0), BuildingBlock: UVAHIK_clean_linker_0, # of connection points: 2
#     Edge 23, Type (0, 0), BuildingBlock: UVAHIK_clean_linker_0, # of connection points: 2
#     Edge 24, Type (0, 0), BuildingBlock: UVAHIK_clean_linker_0, # of connection points: 2
#     Edge 25, Type (0, 0), BuildingBlock: UVAHIK_clean_linker_0, # of connection points: 2
#     Edge 26, Type (0, 0), BuildingBlock: UVAHIK_clean_linker_0, # of connection points: 2
#     Edge 27, Type (0, 0), BuildingBlock: UVAHIK_clean_linker_0, # of connection points: 2
#     Edge 28, Type (0, 0), BuildingBlock: UVAHIK_clean_linker_0, # of connection points: 2
#     Edge 29, Type (0, 0), BuildingBlock: UVAHIK_clean_linker_0, # of connection points: 2
#     Edge 30, Type (0, 0), BuildingBlock: UVAHIK_clean_linker_0, # of connection points: 2
#     Edge 31, Type (0, 0), BuildingBlock: UVAHIK_clean_linker_0, # of connection points: 2
#     Edge 32, Type (0, 0), BuildingBlock: UVAHIK_clean_linker_0, # of connection points: 2
#     Edge 33, Type (0, 0), BuildingBlock: UVAHIK_clean_linker_0, # of connection points: 2
#     Edge 34, Type (0, 0), BuildingBlock: UVAHIK_clean_linker_0, # of connection points: 2
#     Edge 35, Type (0, 0), BuildingBlock: UVAHIK_clean_linker_0, # of connection points: 2
# Relax obj value: 0.093
# Max RMSD: 0.212
# Mean RMSD: 0.164
data_MOF--net-smm--node1-KUMBOL_clean_sbu_1--edge1-UVAHIK_clean_linker_0
_symmetry_space_group_name_H-M    P1
_symmetry_Int_Tables_number       1
_symmetry_cell_setting            triclinic
loop_
_symmetry_equiv_pos_as_xyz
'x, y, z'
_cell_length_a     74.749262
_cell_length_b     89.94662
_cell_length_c     19.382081
_cell_angle_alpha  96.20827
_cell_angle_beta   96.566462
_cell_angle_gamma 120.928
loop_
_atom_site_label
_atom_site_type_symbol
_atom_site_fract_x
_atom_site_fract_y
_atom_site_fract_z
_atom_type_partial_charge
C0 C 0.11135 0.21728 0.12611 0.0
C1 C 0.11832 0.21421 0.00796 0.0
C2 C 0.10625 0.2165 0.05405 0.0
C3 C 0.13483 0.21191 0.03483 0.0
C4 C 0.1283 0.21553 0.15369 0.0
C5 C 0.13982 0.21258 0.10751 0.0
N6 N 0.09946 0.21954 0.16926 0.0
C7 C 0.10461 0.22154 0.24091 0.0
C8 C 0.13318 0.21684 0.22693 0.0
C9 C 0.12142 0.22005 0.27078 0.0
Gd10 Gd 1.01587 0.17467 0.08401 0.0
Gd11 Gd 0.07155 0.22178 0.1149 0.0
N12 N 0.09017 0.21877 0.02961 0.0
C13 C 0.11387 0.21485 0.93661 0.0
C14 C 0.08723 0.2211 0.96178 0.0
C15 C 0.09855 0.21868 0.91377 0.0
H16 H 0.07672 0.22542 0.94492 0.0
H17 H 0.09576 0.22013 0.85958 0.0
H18 H 1.00089 0.17403 0.23908 0.0
H19 H 0.09551 0.22403 0.2747 0.0
H20 H 0.97217 0.17456 0.28948 0.0
H21 H 0.12278 0.21316 0.89949 0.0
H22 H 0.14413 0.20998 6e-05 0.0
H23 H 0.99821 0.16334 0.90612 0.0
H24 H 0.14611 0.21558 0.25019 0.0
H25 H 0.12528 0.22132 0.3275 0.0
H26 H 0.9279 0.17488 0.0899 0.0
H27 H 0.15278 0.21104 0.12757 0.0
H28 H 0.94374 0.16741 0.86075 0.0
H29 H 0.97058 0.16227 0.81943 0.0
N30 N 0.98903 0.17143 -0.00428 0.0
C31 C 0.97352 0.17297 0.01948 0.0
C32 C 0.98744 0.16668 0.92491 0.0
C33 C 0.95629 0.16848 0.8991 0.0
C34 C 0.97144 0.16562 0.87556 0.0
C35 C 0.95682 0.17169 0.97182 0.0
H36 H 0.92792 0.17214 0.9622 0.0
N37 N 0.98932 0.17506 0.13563 0.0
C38 C 0.97343 0.1745 0.09142 0.0
C39 C 0.95655 0.17511 0.18994 0.0
C40 C 0.95678 0.17482 0.11761 0.0
C41 C 0.9887 0.17448 0.20542 0.0
C42 C 0.97244 0.1747 0.23384 0.0
O43 O 0.06999 0.19645 0.13332 0.0
O44 O 0.04369 0.17646 0.04191 0.0
O45 O 1.01579 0.154 0.13362 0.0
O46 O 0.99101 0.14712 0.04493 0.0
O47 O 0.0483 0.2136 0.01179 0.0
O48 O 0.03116 0.18323 0.98969 0.0
O49 O 1.01706 0.1995 0.13411 0.0
O50 O 0.0411 0.22144 0.08308 0.0
O51 O 0.09479 0.2473 0.09331 0.0
O52 O 0.08432 0.24588 0.19284 0.0
O53 O 0.03696 0.18486 0.193 0.0
O54 O 0.05712 0.21563 0.21211 0.0
C55 C 0.06162 0.18198 0.08506 0.0
C56 C 0.0375 0.1982 0.9679 0.0
C57 C 1.00317 0.12779 0.05098 0.0
C58 C 1.00022 0.09921 0.04069 0.0
C59 C 1.01619 0.11834 0.95731 0.0
C60 C 1.01266 0.13078 0.9914 0.0
C61 C 1.01007 0.1027 0.98164 0.0
C62 C 0.99686 0.11195 0.07541 0.0
C63 C 0.99977 0.14123 0.08656 0.0
C64 C 0.94071 0.17444 0.07071 0.0
C65 C 0.94075 0.17291 -0.00201 0.0
H66 H 0.944 0.17532 0.2121 0.0
C67 C 0.02437 0.21473 0.11318 0.0
C68 C 0.04722 0.2006 0.2348 0.0
C69 C 0.09268 0.27131 0.14333 0.0
C70 C 0.10556 0.29976 0.10572 0.0
C71 C 0.07329 0.28605 0.15446 0.0
C72 C 0.07543 0.2718 0.16277 0.0
C73 C 0.08821 0.29994 0.12651 0.0
C74 C 0.10766 0.28531 0.11474 0.0
C75 C 0.09507 0.25619 0.15127 0.0
H76 H 0.02357 0.12079 0.91146 0.0
H77 H 1.01727 0.14273 0.97104 0.0
H78 H 1.01261 0.09313 0.95304 0.0
H79 H 0.98946 0.10961 0.1213 0.0
H80 H 0.05999 0.28636 0.16988 0.0
H81 H 0.06358 0.26118 0.18433 0.0
H82 H 0.08623 0.31093 0.12195 0.0
H83 H 0.12072 0.28473 0.09843 0.0
C84 C 0.94278 0.80461 0.93342 0.0
C85 C 0.97241 0.81301 0.02813 0.0
C86 C 0.95167 0.80922 0.00509 0.0
C87 C 0.98445 0.81282 0.97785 0.0
C88 C 0.95453 0.80378 0.88281 0.0
C89 C 0.97555 0.80827 0.90535 0.0
N90 N 0.92227 0.80001 0.91341 0.0
C91 C 0.91205 0.79303 0.84434 0.0
C92 C 0.94459 0.79793 0.8112 0.0
C93 C 0.92315 0.79228 0.79202 0.0
Gd94 Gd 0.90207 0.84669 0.03835 0.0
Gd95 Gd 0.9055 0.80269 0.00521 0.0
N96 N 0.93981 0.8097 0.05246 0.0
C97 C 0.98026 0.81657 0.10105 0.0
C98 C 0.94687 0.8122 0.12342 0.0
C99 C 0.96733 0.81594 0.14884 0.0
H100 H 0.93678 0.81158 0.16019 0.0
H101 H 0.97309 0.81831 0.20518 0.0
H102 H 0.89165 0.85229 0.87127 0.0
H103 H 0.89522 0.78769 0.82961 0.0
H104 H 0.86142 0.84856 0.78915 0.0
H105 H 0.99611 0.81949 0.12089 0.0
H106 H 1.0005 0.81586 0.99447 0.0
H107 H 0.88826 0.8436 0.1959 0.0
H108 H 0.95308 0.79714 0.77066 0.0
H109 H 0.91506 0.78707 0.7371 0.0
H110 H 0.80812 0.83553 0.92928 0.0
H111 H 0.98488 0.80783 0.8672 0.0
H112 H 0.82603 0.83549 0.17476 0.0
H113 H 0.85778 0.83923 0.24939 0.0
N114 N 0.87361 0.8419 0.09254 0.0
C115 C 0.85673 0.84059 0.05117 0.0
C116 C 0.87436 0.8418 0.16314 0.0
C117 C 0.83936 0.83743 0.15124 0.0
C118 C 0.85721 0.83946 0.19349 0.0
C119 C 0.83897 0.83803 0.0792 0.0
H120 H 0.80747 0.83381 0.05485 0.0
N121 N 0.87494 0.84484 0.95587 0.0
C122 C 0.8572 0.84167 0.98044 0.0
C123 C 0.84112 0.84206 0.8657 0.0
C124 C 0.83975 0.84006 0.93584 0.0
C125 C 0.87689 0.84803 0.88895 0.0
C126 C 0.85989 0.84632 0.8425 0.0
O127 O 0.93708 0.83072 0.04035 0.0
O128 O 0.92943 0.84929 0.99021 0.0
O129 O 0.90863 0.87283 0.02781 0.0
O130 O 0.92443 0.86966 0.12024 0.0
O131 O 0.89955 0.8106 0.10965 0.0
O132 O 0.9176 0.841 0.13037 0.0
O133 O 0.87501 0.81994 0.05154 0.0
O134 O 0.87309 0.79919 0.96635 0.0
O135 O 0.89397 0.78299 0.07256 0.0
O136 O 0.89436 0.77497 0.96508 0.0
O137 O 0.90719 0.8386 0.93119 0.0
O138 O 0.89086 0.80809 0.9093 0.0
C139 C 0.94342 0.84561 0.01609 0.0
C140 C 0.90976 0.826 0.15296 0.0
C141 C 0.91806 0.89303 0.13432 0.0
C142 C 0.92182 0.92191 0.15973 0.0
C143 C 0.90609 0.90065 0.23602 0.0
C144 C 0.90905 0.88873 0.19443 0.0
C145 C 0.91238 0.9171 0.21891 0.0
C146 C 0.92452 0.90969 0.11739 0.0
C147 C 0.92121 0.88051 0.08954 0.0
C148 C 0.82173 0.83694 0.96295 0.0
C149 C 0.82138 0.83602 0.03452 0.0
H150 H 0.82805 0.8409 0.82975 0.0
C151 C 0.86369 0.80583 0.00084 0.0
C152 C 0.89817 0.82322 0.88752 0.0
C153 C 0.86813 0.75307 0.0184 0.0
C154 C 0.84595 0.72233 0.03703 0.0
C155 C 0.82959 0.73789 0.99287 0.0
C156 C 0.84953 0.75286 -0.00461 0.0
C157 C 0.82779 0.72287 0.01368 0.0
C158 C 0.8663 0.7376 0.03863 0.0
C159 C 0.8892 0.7697 0.0237 0.0
H160 H 0.89912 0.8972 0.28227 0.0
H161 H 0.90453 0.87628 0.20989 0.0
H162 H 0.91031 0.92622 0.25309 0.0
H163 H 0.93159 0.9131 0.07121 0.0
H164 H 0.81537 0.73796 0.97506 0.0
H165 H 0.85043 0.7644 0.97983 0.0
H166 H 0.81202 0.7115 0.01111 0.0
H167 H 0.88055 0.73761 0.05703 0.0
C168 C 0.18001 0.95375 0.01681 0.0
C169 C 0.16934 0.93944 0.89327 0.0
C170 C 0.18154 0.95479 0.94668 0.0
C171 C 0.15492 0.9233 0.91121 0.0
C172 C 0.16635 0.93746 0.03558 0.0
C173 C 0.15347 0.92231 0.98224 0.0
N174 N 0.19244 0.96867 0.06708 0.0
C175 C 0.19335 0.96808 0.13734 0.0
C176 C 0.16645 0.93684 0.10756 0.0
C177 C 0.18023 0.95218 0.1587 0.0
Gd178 Gd 0.19771 0.03124 0.02705 0.0
Gd179 Gd 0.21467 0.99456 0.02788 0.0
N180 N 0.19602 0.97051 0.9314 0.0
C181 C 0.17262 0.94062 0.8239 0.0
C182 C 0.20056 0.97131 0.86517 0.0
C183 C 0.18858 0.95657 0.81008 0.0
H184 H 0.21378 0.98316 0.8549 0.0
H185 H 0.19197 0.95741 0.75732 0.0
H186 H 0.21771 0.05348 0.19335 0.0
H187 H 0.20413 0.97992 0.17667 0.0
H188 H 0.24769 0.08282 0.25917 0.0
H189 H 0.16357 0.92915 0.78135 0.0
H190 H 0.14529 0.91141 0.87079 0.0
H191 H 0.19568 0.03456 0.8544 0.0
H192 H 0.15625 0.92455 0.12419 0.0
H193 H 0.18071 0.95176 0.21444 0.0
H194 H 0.28422 0.11121 0.07903 0.0
H195 H 0.1427 0.90968 -0.00452 0.0
H196 H 0.2531 0.08117 0.83747 0.0
H197 H 0.21905 0.05362 0.78058 0.0
N198 N 0.2179 0.04919 0.95106 0.0
C199 C 0.2356 0.06507 0.98361 0.0
C200 C 0.21125 0.04565 0.87943 0.0
C201 C 0.24331 0.07239 0.86993 0.0
C202 C 0.22416 0.05681 0.8376 0.0
C203 C 0.24887 0.07701 0.94388 0.0
H204 H 0.27718 0.10271 0.94929 0.0
N205 N 0.2264 0.05822 0.09382 0.0
C206 C 0.23966 0.06995 0.05696 0.0
C207 C 0.25987 0.09132 0.16579 0.0
C208 C 0.25693 0.08674 0.09215 0.0
C209 C 0.22879 0.06275 0.16525 0.0
C210 C 0.24566 0.07931 0.20239 0.0
O211 O 0.18079 0.98503 0.04536 0.0
O212 O 0.1692 1.00232 0.0002 0.0
O213 O 0.18118 0.04099 0.08612 0.0
O214 O 0.17891 0.04048 0.97482 0.0
O215 O 0.21516 1.00701 0.93268 0.0
O216 O 0.1875 1.01153 0.92502 0.0
O217 O 0.23199 0.03841 0.07199 0.0
O218 O 0.23709 0.02043 -0.00378 0.0
O219 O 0.23343 0.98287 0.00352 0.0
O220 O 0.24116 0.99956 0.10669 0.0
O221 O 0.19331 0.01877 0.12339 0.0
O222 O 0.21884 1.01118 0.13248 0.0
C223 C 0.1654 0.98752 0.02107 0.0
C224 C 0.19929 1.00688 0.89516 0.0
C225 C 0.17805 0.06362 0.04238 0.0
C226 C 0.16614 0.08442 0.06267 0.0
C227 C 0.20227 0.09504 0.04694 0.0
C228 C 0.19793 0.07787 0.03734 0.0
C229 C 0.18659 0.09833 0.05998 0.0
C230 C 0.16184 0.06691 0.05387 0.0
C231 C 0.17436 0.04547 0.03218 0.0
C232 C 0.27066 0.09834 0.05287 0.0
C233 C 0.2667 0.09345 0.97898 0.0
H234 H 0.27297 0.1041 0.19478 0.0
C235 C 0.2447 0.03584 0.03714 0.0
C236 C 0.20516 0.0141 0.15906 0.0
C237 C 0.26349 0.98755 0.09049 0.0
C238 C 0.28902 0.97884 0.06921 0.0
C239 C 0.28878 0.99012 0.18901 0.0
C240 C 0.27222 0.99222 0.16328 0.0
C241 C 0.29709 0.9835 0.1427 0.0
C242 C 0.27184 0.98066 0.04329 0.0
C243 C 0.2457 0.98995 0.06598 0.0
H244 H 0.2178 0.10584 0.04319 0.0
H245 H 0.21007 0.07574 0.02442 0.0
H246 H 0.19029 0.1118 0.06616 0.0
H247 H 0.14614 0.05605 0.05587 0.0
H248 H 0.29523 0.99364 0.24533 0.0
H249 H 0.26613 0.9974 0.20078 0.0
H250 H 0.30984 0.9819 0.16478 0.0
H251 H 0.26537 0.97713 0.98695 0.0
C252 C 0.67225 0.48088 0.15081 0.0
C253 C 0.66513 0.47721 0.26862 0.0
C254 C 0.67879 0.48652 0.22357 0.0
C255 C 0.64531 0.4617 0.23938 0.0
C256 C 0.65194 0.46586 0.12096 0.0
C257 C 0.6387 0.45607 0.16568 0.0
N258 N 0.68563 0.49039 0.10904 0.0
C259 C 0.6792 0.48648 0.03716 0.0
C260 C 0.64551 0.46129 0.04706 0.0
C261 C 0.65912 0.47178 0.00503 0.0
Gd262 Gd 0.76792 0.50721 0.16602 0.0
Gd263 Gd 0.71874 0.51503 0.16668 0.0
N264 N 0.69786 0.50178 0.24996 0.0
C265 C 0.67144 0.48418 0.34143 0.0
C266 C 0.70298 0.50949 0.31968 0.0
C267 C 0.69026 0.50059 0.36688 0.0
H268 H 0.7166 0.52269 0.33874 0.0
H269 H 0.69475 0.50657 0.42253 0.0
H270 H 0.78002 0.51491 0.00871 0.0
H271 H 0.68974 0.49462 0.00483 0.0
H272 H 0.80919 0.53752 0.95953 0.0
H273 H 0.66144 0.47743 0.37788 0.0
H274 H 0.63471 0.45426 0.27321 0.0
H275 H 0.7866 0.51656 0.34353 0.0
H276 H 0.63001 0.44986 0.02204 0.0
H277 H 0.65416 0.46851 0.94796 0.0
H278 H 0.86019 0.57918 0.16532 0.0
H279 H 0.62315 0.44433 0.1438 0.0
H280 H 0.84576 0.56619 0.39317 0.0
H281 H 0.81683 0.54078 0.43168 0.0
N282 N 0.79659 0.52904 0.2559 0.0
C283 C 0.81305 0.54228 0.23327 0.0
C284 C 0.7983 0.52801 0.32592 0.0
C285 C 0.83213 0.55581 0.35416 0.0
C286 C 0.81579 0.54154 0.37614 0.0
C287 C 0.83115 0.55612 0.28187 0.0
H288 H 0.86189 0.58031 0.29344 0.0
N289 N 0.79468 0.5281 0.11543 0.0
C290 C 0.81226 0.54164 0.16099 0.0
C291 C 0.82799 0.55335 0.06215 0.0
C292 C 0.82927 0.5548 0.13551 0.0
C293 C 0.79361 0.52623 0.04398 0.0
C294 C 0.81016 0.53891 0.01623 0.0
O295 O 0.71141 0.4871 0.12805 0.0
O296 O 0.73768 0.4857 0.1952 0.0
O297 O 0.77041 0.48765 0.09754 0.0
O298 O 0.78673 0.49679 0.20644 0.0
O299 O 0.7426 0.52397 0.26927 0.0
O300 O 0.75321 0.50399 0.26313 0.0
O301 O 0.7713 0.5327 0.13722 0.0
O302 O 0.75254 0.53785 0.21029 0.0
O303 O 0.70309 0.52866 0.19918 0.0
O304 O 0.71311 0.53045 0.09882 0.0
O305 O 0.74432 0.49758 0.0627 0.0
O306 O 0.73132 0.51617 0.06554 0.0
C307 C 0.71779 0.47814 0.16168 0.0
C308 C 0.74845 0.51428 0.29924 0.0
C309 C 0.80143 0.48636 0.12728 0.0
C310 C 0.8219 0.47201 0.12151 0.0
C311 C 0.83426 0.50006 0.08293 0.0
C312 C 0.81671 0.50022 0.09979 0.0
C313 C 0.83686 0.48612 0.09357 0.0
C314 C 0.80415 0.47231 0.13863 0.0
C315 C 0.78303 0.48669 0.14666 0.0
C316 C 0.847 0.56887 0.18383 0.0
C317 C 0.84793 0.56953 0.25681 0.0
H318 H 0.84076 0.56318 0.0405 0.0
C319 C 0.76697 0.54369 0.17075 0.0
C320 C 0.73723 0.50642 0.03147 0.0
C321 C 0.7142 0.55557 0.15861 0.0
C322 C 0.71617 0.58136 0.22518 0.0
C323 C 0.73497 0.58444 0.1279 0.0
C324 C 0.7274 0.56644 0.11607 0.0
C325 C 0.72948 0.59188 0.18198 0.0
C326 C 0.70853 0.56314 0.21285 0.0
C327 C 0.70564 0.53631 0.14477 0.0
H328 H 0.846 0.51087 0.06193 0.0
H329 H 0.81524 0.51125 0.09185 0.0
H330 H 0.85085 0.48657 0.08096 0.0
H331 H 0.79241 0.46159 0.16015 0.0
H332 H 0.74516 0.59269 0.09489 0.0
H333 H 0.73194 0.56108 0.07355 0.0
H334 H 0.73536 0.60586 0.18902 0.0
H335 H 0.69828 0.55485 0.24568 0.0
C336 C 0.55443 0.16848 0.07678 0.0
C337 C 0.58059 0.17638 0.183 0.0
C338 C 0.56047 0.17253 0.15002 0.0
C339 C 0.59501 0.177 0.14116 0.0
C340 C 0.56853 0.16828 0.03465 0.0
C341 C 0.58902 0.17302 0.06714 0.0
N342 N 0.53441 0.16378 0.04698 0.0
C343 C 0.52676 0.15676 0.97625 0.0
C344 C 0.56135 0.16273 0.96125 0.0
C345 C 0.54024 0.15659 0.93212 0.0
Gd346 Gd 0.51438 0.21183 0.12875 0.0
Gd347 Gd 0.51383 0.16608 0.12629 0.0
N348 N 0.54651 0.17251 0.18917 0.0
C349 C 0.58551 0.17937 0.25708 0.0
C350 C 0.55066 0.17437 0.26116 0.0
C351 C 0.57036 0.1781 0.29625 0.0
H352 H 0.53891 0.17344 0.29123 0.0
H353 H 0.57386 0.18005 0.35341 0.0
H354 H 0.50788 0.21303 0.95451 0.0
H355 H 0.5102 0.15104 0.95346 0.0
H356 H 0.48031 0.2097 0.86032 0.0
H357 H 0.60081 0.18238 0.28441 0.0
H358 H 0.6107 0.18025 0.16551 0.0
H359 H 0.49907 0.21565 0.28095 0.0
H360 H 0.57169 0.16241 0.92702 0.0
H361 H 0.53422 0.15147 0.87581 0.0
H362 H 0.42628 0.20618 0.9823 0.0
H363 H 0.60014 0.17316 0.03555 0.0
H364 H 0.43909 0.21156 0.23466 0.0
H365 H 0.46864 0.21516 0.32176 0.0
N366 N 0.48644 0.21182 0.17214 0.0
C367 C 0.47079 0.21048 0.12362 0.0
C368 C 0.48612 0.21388 0.24262 0.0
C369 C 0.45236 0.21172 0.21651 0.0
C370 C 0.46899 0.21371 0.26586 0.0
C371 C 0.45317 0.21017 0.14441 0.0
H372 H 0.42332 0.20808 0.1077 0.0
N373 N 0.48985 0.2099 0.03506 0.0
C374 C 0.47242 0.20925 0.05291 0.0
C375 C 0.45919 0.20762 0.93083 0.0
C376 C 0.45652 0.20792 0.00116 0.0
C377 C 0.49315 0.21074 0.9674 0.0
C378 C 0.47773 0.20927 0.91409 0.0
O379 O 0.54332 0.19321 0.1759 0.0
O380 O 0.54253 0.21079 0.10175 0.0
O381 O 0.52668 0.23704 0.09497 0.0
O382 O 0.53569 0.23686 0.20417 0.0
O383 O 0.50313 0.17593 0.21402 0.0
O384 O 0.52329 0.20642 0.23515 0.0
O385 O 0.48244 0.18628 0.13335 0.0
O386 O 0.483 0.16288 0.07301 0.0
O387 O 0.49969 0.14784 0.19715 0.0
O388 O 0.50353 0.13842 0.09607 0.0
O389 O 0.52187 0.20058 0.03447 0.0
O390 O 0.50232 0.17014 0.02028 0.0
C391 C 0.55321 0.20573 0.14042 0.0
C392 C 0.51369 0.19131 0.25747 0.0
C393 C 0.53884 0.26347 0.17657 0.0
C394 C 0.55682 0.29571 0.18272 0.0
C395 C 0.52152 0.27887 0.21103 0.0
C396 C 0.52137 0.26324 0.19737 0.0
C397 C 0.53894 0.29489 0.2034 0.0
C398 C 0.55672 0.27982 0.17001 0.0
C399 C 0.53795 0.24664 0.15675 0.0
C400 C 0.43871 0.2073 0.02139 0.0
C401 C 0.43705 0.20842 0.09283 0.0
H402 H 0.44735 0.20662 0.88951 0.0
C403 C 0.47248 0.16959 0.09889 0.0
C404 C 0.51142 0.1847 0.99428 0.0
C405 C 0.47759 0.11713 0.15108 0.0
C406 C 0.45988 0.08957 0.19574 0.0
C407 C 0.44104 0.0943 0.09791 0.0
C408 C 0.45903 0.11102 0.10097 0.0
C409 C 0.44146 0.08358 0.14459 0.0
C410 C 0.47788 0.10645 0.19857 0.0
C411 C 0.49708 0.13437 0.15473 0.0
H412 H 0.50792 0.27854 0.22695 0.0
H413 H 0.50751 0.25093 0.20213 0.0
H414 H 0.53847 0.30675 0.21405 0.0
H415 H 0.57017 0.28008 0.15301 0.0
H416 H 0.42673 0.08961 0.0591 0.0
H417 H 0.45851 0.11909 0.06416 0.0
H418 H 0.4273 0.07072 0.14134 0.0
H419 H 0.49233 0.11119 0.23695 0.0
C420 C 0.93411 0.38894 0.259 0.0
C421 C 0.93052 0.39847 0.37568 0.0
C422 C 0.93247 0.38658 0.32824 0.0
C423 C 0.92915 0.41211 0.35161 0.0
C424 C 0.93342 0.40293 0.2352 0.0
C425 C 0.93061 0.41434 0.28158 0.0
N426 N 0.93586 0.37723 0.21428 0.0
C427 C 0.93867 0.37945 0.14699 0.0
C428 C 0.93547 0.40494 0.1653 0.0
C429 C 0.93833 0.39327 0.12127 0.0
Gd430 Gd 0.87424 0.31038 0.21721 0.0
Gd431 Gd 0.93563 0.35423 0.26087 0.0
N432 N 0.93359 0.37309 0.34982 0.0
C433 C 0.93059 0.3966 0.44642 0.0
C434 C 0.93589 0.37243 0.42011 0.0
C435 C 0.93378 0.38377 0.46903 0.0
H436 H 0.93998 0.36355 0.43933 0.0
H437 H 0.93504 0.38284 0.52438 0.0
H438 H 0.87009 0.29002 0.05618 0.0
H439 H 0.94076 0.37033 0.113 0.0
H440 H 0.8679 0.26277 0.00156 0.0
H441 H 0.92913 0.40546 0.48454 0.0
H442 H 0.92738 0.42123 0.38713 0.0
H443 H 0.86162 0.30396 0.37693 0.0
H444 H 0.935 0.41552 0.14499 0.0
H445 H 0.94016 0.39485 0.06746 0.0
H446 H 0.86589 0.23322 0.19553 0.0
H447 H 0.92977 0.42504 0.26404 0.0
H448 H 0.86126 0.2581 0.41937 0.0
H449 H 0.85856 0.28387 0.45874 0.0
N450 N 0.86897 0.29119 0.29666 0.0
C451 C 0.86871 0.27635 0.27181 0.0
C452 C 0.86411 0.2934 0.36116 0.0
C453 C 0.86329 0.26721 0.38427 0.0
C454 C 0.86182 0.28177 0.40679 0.0
C455 C 0.86614 0.26405 0.31527 0.0
H456 H 0.86395 0.23923 0.32052 0.0
N457 N 0.8712 0.28461 0.1601 0.0
C458 C 0.86953 0.27281 0.20117 0.0
C459 C 0.86802 0.25369 0.10001 0.0
C460 C 0.8682 0.25712 0.17242 0.0
C461 C 0.86975 0.28089 0.08873 0.0
C462 C 0.8685 0.26551 0.05783 0.0
O463 O 0.90683 0.35387 0.20573 0.0
O464 O 0.88143 0.33739 0.26591 0.0
O465 O 0.84884 0.30869 0.14189 0.0
O466 O 0.84085 0.29309 0.22245 0.0
O467 O 0.92465 0.33776 0.34492 0.0
O468 O 0.88903 0.32799 0.32566 0.0
O469 O 0.90136 0.30659 0.19596 0.0
O470 O 0.93236 0.32827 0.27448 0.0
O471 O 0.96718 0.37349 0.32419 0.0
O472 O 0.96415 0.36126 0.21832 0.0
O473 O 0.88708 0.3226 0.12376 0.0
O474 O 0.92456 0.33824 0.14937 0.0
C475 C 0.89031 0.35073 0.23341 0.0
C476 C 0.90643 0.3312 0.36631 0.0
C477 C 0.81829 0.30321 0.18843 0.0
C478 C 0.78178 0.29647 0.18689 0.0
C479 C 0.81254 0.32544 0.24472 0.0
C480 C 0.82625 0.32021 0.22667 0.0
C481 C 0.79059 0.31374 0.22525 0.0
C482 C 0.7959 0.2912 0.16901 0.0
C483 C 0.83359 0.2981 0.1719 0.0
C484 C 0.86672 0.24527 0.21644 0.0
C485 C 0.86568 0.24873 0.2877 0.0
H486 H 0.86703 0.24178 0.07591 0.0
C487 C 0.92069 0.31267 0.23185 0.0
C488 C 0.9059 0.32967 0.10496 0.0
C489 C 0.99509 0.36962 0.30282 0.0
C490 C 0.03215 0.38242 0.36348 0.0
C491 C 1.00851 0.35058 0.32114 0.0
C492 C 0.9919 0.35271 0.29609 0.0
C493 C 0.02842 0.36523 0.35433 0.0
C494 C 1.01529 0.3845 0.3366 0.0
C495 C 0.97725 0.37174 0.27683 0.0
H496 H 0.81899 0.33862 0.27453 0.0
H497 H 0.84315 0.32941 0.24327 0.0
H498 H 0.78045 0.3182 0.24146 0.0
H499 H 0.78958 0.27798 0.13979 0.0
H500 H 1.00591 0.33746 0.31503 0.0
H501 H 0.97651 0.34114 0.27163 0.0
H502 H 0.041 0.36307 0.3725 0.0
H503 H 1.01768 0.39755 0.34319 0.0
C504 C 0.49317 0.91731 0.82421 0.0
C505 C 0.5092 0.91629 0.72285 0.0
C506 C 0.49246 0.91581 0.75165 0.0
C507 C 0.5264 0.91778 0.76773 0.0
C508 C 0.5107 0.9192 0.86952 0.0
C509 C 0.5271 0.91916 0.84081 0.0
N510 N 0.47716 0.91752 0.85064 0.0
C511 C 0.47866 0.92098 0.92221 0.0
C512 C 0.51149 0.92151 0.94258 0.0
C513 C 0.49555 0.92264 0.96902 0.0
Gd514 Gd 0.39627 0.86584 0.73372 0.0
Gd515 Gd 0.44963 0.91436 0.76548 0.0
N516 N 0.47524 0.9137 0.70898 0.0
C517 C 0.50807 0.91517 0.64964 0.0
C518 C 0.4744 0.91332 0.63811 0.0
C519 C 0.49067 0.91383 0.60719 0.0
H520 H 0.46118 0.91265 0.60566 0.0
H521 H 0.48983 0.91326 0.55077 0.0
H522 H 0.39083 0.85142 0.88714 0.0
H523 H 0.46728 0.92299 0.94414 0.0
H524 H 0.3668 0.84488 0.97226 0.0
H525 H 0.52061 0.9155 0.6255 0.0
H526 H 0.5393 0.91798 0.74651 0.0
H527 H 0.37104 0.86713 0.58419 0.0
H528 H 0.52467 0.923 0.9791 0.0
H529 H 0.49645 0.92511 0.02561 0.0
H530 H 0.30967 0.84878 0.85428 0.0
H531 H 0.54061 0.9205 0.87485 0.0
H532 H 0.31104 0.85898 0.61636 0.0
H533 H 0.3369 0.86437 0.53817 0.0
N534 N 0.36459 0.86384 0.68721 0.0
C535 C 0.35022 0.86003 0.7298 0.0
C536 C 0.3598 0.86485 0.61841 0.0
C537 C 0.32594 0.86019 0.63663 0.0
C538 C 0.34052 0.86325 0.59233 0.0
C539 C 0.33061 0.85837 0.70615 0.0
H540 H 0.3012 0.85357 0.73529 0.0
N541 N 0.3733 0.85768 0.81482 0.0
C542 C 0.35492 0.8572 0.7963 0.0
C543 C 0.34494 0.84889 0.90673 0.0
C544 C 0.34023 0.85283 0.84174 0.0
C545 C 0.37722 0.85263 0.87575 0.0
C546 C 0.36339 0.84855 0.92335 0.0
O547 O 0.45017 0.88966 0.72299 0.0
O548 O 0.42759 0.86986 0.78282 0.0
O549 O 0.38151 0.83768 0.7343 0.0
O550 O 0.38892 0.84743 0.63782 0.0
O551 O 0.42589 0.90519 0.66408 0.0
O552 O 0.41246 0.87547 0.64272 0.0
O553 O 0.39221 0.8893 0.72919 0.0
O554 O 0.42162 0.913 0.80562 0.0
O555 O 0.45367 0.93521 0.7073 0.0
O556 O 0.47232 0.94183 0.81389 0.0
O557 O 0.41787 0.87642 0.84238 0.0
O558 O 0.43471 0.90689 0.86165 0.0
C559 C 0.44384 0.87548 0.75121 0.0
C560 C 0.41755 0.89011 0.62022 0.0
C561 C 0.39523 0.82504 0.65933 0.0
C562 C 0.40065 0.80107 0.67831 0.0
C563 C 0.42298 0.82303 0.61307 0.0
C564 C 0.41206 0.83159 0.62221 0.0
C565 C 0.4173 0.80785 0.64051 0.0
C566 C 0.38967 0.8098 0.68741 0.0
C567 C 0.38378 0.83423 0.67 0.0
C568 C 0.32109 0.85198 0.8199 0.0
C569 C 0.31625 0.85468 0.75211 0.0
H570 H 0.3341 0.84551 0.94325 0.0
C571 C 0.40133 0.90437 0.77493 0.0
C572 C 0.42608 0.89185 0.88453 0.0
C573 C 0.47946 0.9667 0.75761 0.0
C574 C 0.48383 0.99162 0.70411 0.0
C575 C 0.50859 0.99661 0.81029 0.0
C576 C 0.49744 0.97859 0.81054 0.0
C577 C 0.50193 1.00309 0.75764 0.0
C578 C 0.47273 0.97327 0.70401 0.0
C579 C 0.46827 0.94757 0.75908 0.0
H580 H 0.43589 0.82818 0.58448 0.0
H581 H 0.41695 0.84341 0.60052 0.0
H582 H 0.4258 0.8013 0.63112 0.0
H583 H 0.37698 0.80494 0.7171 0.0
H584 H 0.52254 1.00562 0.85101 0.0
H585 H 0.50307 0.97395 0.85204 0.0
H586 H 0.51119 0.01716 0.75849 0.0
H587 H 0.45877 0.96422 0.66328 0.0
C588 C 0.34258 0.52205 0.69396 0.0
C589 C 0.36535 0.52834 0.80705 0.0
C590 C 0.3458 0.52419 0.76732 0.0
C591 C 0.38185 0.53079 0.77218 0.0
C592 C 0.359 0.52413 0.65873 0.0
C593 C 0.37871 0.52875 0.69826 0.0
N594 N 0.32321 0.51731 0.65702 0.0
C595 C 0.31883 0.51325 0.58471 0.0
C596 C 0.35496 0.5211 0.58467 0.0
C597 C 0.33471 0.51543 0.54754 0.0
Gd598 Gd 0.28618 0.55354 0.74233 0.0
Gd599 Gd 0.298 0.51429 0.72599 0.0
N600 N 0.3298 0.52233 0.79996 0.0
C601 C 0.36772 0.52997 0.88074 0.0
C602 C 0.33167 0.52318 0.87133 0.0
C603 C 0.35075 0.52724 0.91292 0.0
H604 H 0.31842 0.52072 0.89604 0.0
H605 H 0.35231 0.52817 0.96967 0.0
H606 H 0.28699 0.56593 0.58392 0.0
H607 H 0.30298 0.50785 0.55516 0.0
H608 H 0.26133 0.56268 0.48241 0.0
H609 H 0.3825 0.53315 0.91312 0.0
H610 H 0.39706 0.53415 0.80184 0.0
H611 H 0.26126 0.54486 0.87773 0.0
H612 H 0.36716 0.52258 0.55567 0.0
H613 H 0.33121 0.51243 0.49022 0.0
H614 H 0.19527 0.53751 0.56356 0.0
H615 H 0.39152 0.53049 0.67205 0.0
H616 H 0.19691 0.53028 0.80543 0.0
H617 H 0.22544 0.5355 0.90188 0.0
N618 N 0.25267 0.54443 0.76893 0.0
C619 C 0.23762 0.54259 0.71636 0.0
C620 C 0.2488 0.54256 0.83562 0.0
C621 C 0.21255 0.5344 0.79476 0.0
C622 C 0.22861 0.53731 0.84934 0.0
C623 C 0.217 0.5372 0.72739 0.0
H624 H 0.18563 0.53065 0.67841 0.0
N625 N 0.26357 0.55285 0.64524 0.0
C626 C 0.24313 0.54657 0.65203 0.0
C627 C 0.23457 0.55043 0.53392 0.0
C628 C 0.22803 0.54509 0.59645 0.0
C629 C 0.27036 0.55933 0.58653 0.0
C630 C 0.25592 0.55785 0.52941 0.0
O631 O 0.32581 0.54277 0.77544 0.0
O632 O 0.31768 0.55989 0.71579 0.0
O633 O 0.29484 0.58057 0.73873 0.0
O634 O 0.29768 0.57284 0.83915 0.0
O635 O 0.28478 0.51843 0.81954 0.0
O636 O 0.30005 0.5484 0.8389 0.0
O637 O 0.2596 0.52511 0.73965 0.0
O638 O 0.26641 0.50797 0.66465 0.0
O639 O 0.28148 0.49158 0.77779 0.0
O640 O 0.2942 0.48932 0.68364 0.0
O641 O 0.29823 0.54908 0.64489 0.0
O642 O 0.28648 0.5193 0.62297 0.0
C643 C 0.33176 0.55753 0.75147 0.0
C644 C 0.2914 0.53347 0.86139 0.0
C645 C 0.32416 0.60148 0.82952 0.0
C646 C 0.34923 0.63325 0.84219 0.0
C647 C 0.36122 0.61473 0.88498 0.0
C648 C 0.3407 0.59988 0.86237 0.0
C649 C 0.36548 0.63132 0.8755 0.0
C650 C 0.32855 0.61812 0.81902 0.0
C651 C 0.30231 0.58592 0.80664 0.0
C652 C 0.20714 0.53889 0.60589 0.0
C653 C 0.20165 0.53502 0.67133 0.0
H654 H 0.22345 0.54949 0.48993 0.0
C655 C 0.25294 0.51153 0.68832 0.0
C656 C 0.29211 0.53425 0.60155 0.0
C657 C 0.27698 0.46288 0.73397 0.0
C658 C 0.25712 0.43581 0.78067 0.0
C659 C 0.2788 0.4372 0.69412 0.0
C660 C 0.28467 0.45454 0.69195 0.0
C661 C 0.26522 0.42792 0.73823 0.0
C662 C 0.26297 0.45336 0.77805 0.0
C663 C 0.2843 0.48158 0.73227 0.0
H664 H 0.37386 0.61339 0.91034 0.0
H665 H 0.3378 0.58717 0.87072 0.0
H666 H 0.38147 0.64263 0.89521 0.0
H667 H 0.31582 0.61917 0.79221 0.0
H668 H 0.28486 0.43094 0.66158 0.0
H669 H 0.29546 0.46148 0.65775 0.0
H670 H 0.26082 0.41442 0.73859 0.0
H671 H 0.25692 0.45962 0.81084 0.0
C672 C 0.55121 0.65665 0.82638 0.0
C673 C 0.5282 0.64058 0.71119 0.0
C674 C 0.54701 0.65525 0.75359 0.0
C675 C 0.5132 0.6277 0.74345 0.0
C676 C 0.53643 0.64347 0.85871 0.0
C677 C 0.51723 0.62922 0.81708 0.0
N678 N 0.57014 0.67039 0.86499 0.0
C679 C 0.57603 0.67078 0.93482 0.0
C680 C 0.5417 0.6447 0.9316 0.0
C681 C 0.56174 0.65826 0.96957 0.0
Gd682 Gd 0.59225 0.73654 0.83006 0.0
Gd683 Gd 0.59241 0.69103 0.80098 0.0
N684 N 0.56144 0.66821 0.72406 0.0
C685 C 0.52504 0.63933 0.63762 0.0
C686 C 0.55896 0.66674 0.6523 0.0
C687 C 0.54059 0.65239 0.60802 0.0
H688 H 0.57114 0.67674 0.62957 0.0
H689 H 0.53846 0.65139 0.55117 0.0
H690 H 0.59023 0.74523 0.0019 0.0
H691 H 0.5919 0.68044 0.9638 0.0
H692 H 0.61427 0.76643 0.11095 0.0
H693 H 0.51079 0.62827 0.60324 0.0
H694 H 0.49852 0.61645 0.71188 0.0
H695 H 0.61563 0.75269 0.69557 0.0
H696 H 0.53077 0.63487 0.95846 0.0
H697 H 0.56635 0.65887 0.02532 0.0
H698 H 0.67656 0.80798 0.03159 0.0
H699 H 0.50562 0.61906 0.84112 0.0
H700 H 0.67535 0.80088 0.78209 0.0
H701 H 0.6489 0.77856 0.67827 0.0
N702 N 0.62345 0.76027 0.80777 0.0
C703 C 0.63732 0.77276 0.86536 0.0
C704 C 0.62712 0.7624 0.74102 0.0
C705 C 0.66078 0.7896 0.78991 0.0
C706 C 0.64589 0.77702 0.73114 0.0
C707 C 0.65655 0.78763 0.85802 0.0
H708 H 0.68572 0.81157 0.91405 0.0
N709 N 0.61298 0.75661 0.93663 0.0
C710 C 0.6321 0.77069 0.93172 0.0
C711 C 0.63977 0.78163 0.05775 0.0
C712 C 0.64607 0.78352 0.99233 0.0
C713 C 0.60618 0.7554 -0.00062 0.0
C714 C 0.61961 0.76764 0.06108 0.0
O715 O 0.5631 0.69188 0.76104 0.0
O716 O 0.56311 0.71141 0.84645 0.0
O717 O 0.58333 0.75581 0.8587 0.0
O718 O 0.56951 0.73843 0.75699 0.0
O719 O 0.60361 0.70859 0.72133 0.0
O720 O 0.58439 0.72211 0.718 0.0
O721 O 0.6237 0.73786 0.81939 0.0
O722 O 0.6219 0.71515 0.8692 0.0
O723 O 0.61002 0.68603 0.72985 0.0
O724 O 0.60201 0.67241 0.81726 0.0
O725 O 0.5835 0.72034 0.91594 0.0
O726 O 0.60217 0.70621 0.91375 0.0
C727 C 0.55293 0.696 0.80255 0.0
C728 C 0.59391 0.71514 0.68729 0.0
C729 C 0.57262 0.76623 0.76366 0.0
C730 C 0.56209 0.78761 0.74333 0.0
C731 C 0.58615 0.78455 0.67627 0.0
C732 C 0.58506 0.77156 0.7118 0.0
C733 C 0.57477 0.79242 0.69141 0.0
C734 C 0.56103 0.77427 0.77929 0.0
C735 C 0.57087 0.7516 0.7979 0.0
C736 C 0.66558 0.79806 0.98553 0.0
C737 C 0.67078 0.80012 0.91856 0.0
H738 H 0.65006 0.7912 0.10554 0.0
C739 C 0.63313 0.73075 0.85229 0.0
C740 C 0.59313 0.71331 0.94724 0.0
C741 C 0.63302 0.67743 0.77699 0.0
C742 C 0.65828 0.67053 0.73674 0.0
C743 C 0.66813 0.69042 0.8494 0.0
C744 C 0.6481 0.68831 0.83866 0.0
C745 C 0.67321 0.6816 0.79904 0.0
C746 C 0.63815 0.6686 0.72621 0.0
C747 C 0.61189 0.67514 0.76445 0.0
H748 H 0.59565 0.78838 0.63583 0.0
H749 H 0.59358 0.76538 0.6974 0.0
H750 H 0.57561 0.80208 0.66094 0.0
H751 H 0.5513 0.77017 0.81908 0.0
H752 H 0.67971 0.69884 0.89719 0.0
H753 H 0.6443 0.69505 0.87848 0.0
H754 H 0.68873 0.68324 0.80951 0.0
H755 H 0.6265 0.66038 0.6782 0.0
C756 C 0.1145 0.32291 0.03015 0.0
C757 C 0.12125 0.31461 0.0747 0.0
C758 C 0.12914 0.33713 0.00264 0.0
C759 C 0.18718 0.37111 0.02832 0.0
H760 H 0.17131 0.37575 0.83797 0.0
C761 C 0.24805 0.41615 0.86988 0.0
C762 C 0.24253 0.42532 0.82654 0.0
C763 C 0.2334 0.40426 0.90568 0.0
C764 C 0.1759 0.37481 0.8916 0.0
H765 H 0.149 0.31496 0.12465 0.0
H766 H 0.17436 0.33926 0.0746 0.0
H767 H 0.14568 0.35135 0.88697 0.0
H768 H 0.21752 0.42965 0.78855 0.0
H769 H 0.1917 0.40872 0.8511 0.0
H770 H 0.21765 0.39433 0.0318 0.0
C771 C 0.15774 0.33502 0.06213 0.0
C772 C 0.16118 0.36078 0.91987 0.0
C773 C 0.1431 0.32085 0.09008 0.0
C774 C 0.22225 0.42284 0.82192 0.0
C775 C 0.20743 0.41074 0.85714 0.0
C776 C 0.20195 0.38505 -0.00022 0.0
C777 C 0.151 0.34344 0.01821 0.0
C778 C 0.16662 0.35864 0.98853 0.0
C779 C 0.21273 0.40108 0.89851 0.0
C780 C 0.19655 0.38702 0.9309 0.0
H781 H 0.09781 0.31837 0.016 0.0
H782 H 0.12326 0.34332 0.96978 0.0
H783 H 0.19189 0.37018 0.08184 0.0
H784 H 0.2636 0.41784 0.87456 0.0
H785 H 0.23799 0.39699 0.9366 0.0
C786 C 0.8278 0.78851 0.91589 0.0
C787 C 0.83989 0.79698 0.98489 0.0
C788 C 0.80568 0.78161 0.90087 0.0
C789 C 0.75871 0.76937 0.9907 0.0
H790 H 0.73127 0.76851 0.80702 0.0
C791 C 0.66666 0.73405 0.91692 0.0
C792 C 0.65703 0.73975 0.86863 0.0
C793 C 0.68871 0.74125 0.92994 0.0
C794 C 0.73858 0.76879 0.85905 0.0
H795 H 0.83776 0.80394 0.0926 0.0
H796 H 0.79994 0.79275 0.06687 0.0
H797 H 0.76939 0.78036 0.83138 0.0
H798 H 0.66376 0.758 0.79705 0.0
H799 H 0.70237 0.77127 0.82213 0.0
H800 H 0.72829 0.75857 0.01972 0.0
C801 C 0.80714 0.79109 0.02372 0.0
C802 C 0.76062 0.77539 0.87279 0.0
C803 C 0.8291 0.79781 0.03861 0.0
C804 C 0.67046 0.75333 0.83504 0.0
C805 C 0.69271 0.76076 0.84878 0.0
C806 C 0.73681 0.76296 0.97726 0.0
C807 C 0.7949 0.7829 0.95445 0.0
C808 C 0.77117 0.77577 0.93892 0.0
C809 C 0.70231 0.75478 0.89631 0.0
C810 C 0.72616 0.76238 0.91099 0.0
H811 H 0.83552 0.78757 0.87308 0.0
H812 H 0.79707 0.77517 0.84705 0.0
H813 H 0.76577 0.76905 0.04204 0.0
H814 H 0.65707 0.72382 0.94486 0.0
H815 H 0.69496 0.73584 0.96579 0.0
C816 C 0.32134 0.98039 0.03543 0.0
C817 C 0.29908 0.9723 0.02183 0.0
C818 C 0.33105 0.9732 -0.00129 0.0
C819 C 0.3198 0.93102 0.89298 0.0
H820 H 0.3775 0.9614 0.86632 0.0
C821 C 0.36777 0.90529 0.75719 0.0
C822 C 0.38849 0.91198 0.79476 0.0
C823 C 0.35571 0.91228 0.77793 0.0
C824 C 0.36141 0.95271 0.87356 0.0
H825 H 0.26968 0.95059 0.95572 0.0
H826 H 0.28671 0.93822 0.88956 0.0
H827 H 0.35842 0.97447 0.9101 0.0
H828 H 0.41288 0.93175 0.88316 0.0
H829 H 0.39224 0.94419 0.91762 0.0
H830 H 0.32295 0.90926 0.85513 0.0
C831 C 0.29665 0.94998 0.93029 0.0
C832 C 0.35042 0.96021 0.89907 0.0
C833 C 0.28686 0.9572 0.96756 0.0
C834 C 0.39701 0.92618 0.85262 0.0
C835 C 0.38517 0.93336 0.87249 0.0
C836 C 0.33074 0.92351 0.86642 0.0
C837 C 0.31892 0.95772 0.94617 0.0
C838 C 0.32961 0.94953 0.91097 0.0
C839 C 0.36432 0.92648 0.8357 0.0
C840 C 0.35187 0.93428 0.8579 0.0
H841 H 0.33135 0.99217 0.07611 0.0
H842 H 0.34814 0.97953 0.01369 0.0
H843 H 0.30394 0.92228 0.90185 0.0
H844 H 0.36095 0.89485 0.7111 0.0
H845 H 0.33981 0.9068 0.74784 0.0
C846 C 0.4375 0.14117 0.04177 0.0
C847 C 0.44866 0.15727 0.09143 0.0
C848 C 0.41558 0.12897 0.0364 0.0
C849 C 0.37122 0.11468 0.13634 0.0
H850 H 0.3351 0.08977 0.95137 0.0
C851 C 0.2791 0.06389 0.10507 0.0
C852 C 0.268 0.05007 0.0453 0.0
C853 C 0.30069 0.07737 0.11114 0.0
C854 C 0.3448 0.09623 0.00389 0.0
H855 H 0.44475 0.17286 0.17464 0.0
H856 H 0.40656 0.15154 0.16578 0.0
H857 H 0.37255 0.11195 0.96104 0.0
H858 H 0.27178 0.03944 0.94629 0.0
H859 H 0.30918 0.06208 0.9578 0.0
H860 H 0.34375 0.09867 0.17957 0.0
C861 C 0.41491 0.14836 0.13067 0.0
C862 C 0.36653 0.1092 0.00935 0.0
C863 C 0.43689 0.16074 0.13539 0.0
C864 C 0.27954 0.04989 0.99293 0.0
C865 C 0.30118 0.06319 -0.00069 0.0
C866 C 0.34951 0.10151 0.13097 0.0
C867 C 0.4038 0.1322 0.08102 0.0
C868 C 0.38024 0.11867 0.07564 0.0
C869 C 0.31231 0.07739 0.05829 0.0
C870 C 0.33574 0.09188 0.06454 0.0
H871 H 0.44577 0.13787 0.00672 0.0
H872 H 0.40793 0.11673 -0.00204 0.0
H873 H 0.3811 0.12143 0.18851 0.0
H874 H 0.27107 0.06431 0.1476 0.0
H875 H 0.30811 0.0879 0.15735 0.0
C876 C 0.9469 0.30796 0.17896 0.0
C877 C 0.93068 0.30228 0.21833 0.0
C878 C 0.95671 0.2984 0.16682 0.0
C879 C 0.96619 0.26536 0.2358 0.0
H880 H 0.98111 0.2598 0.0539 0.0
C881 C 0.99884 0.22018 0.16969 0.0
C882 C 1.01372 0.22482 0.12509 0.0
C883 C 0.98862 0.22944 0.18034 0.0
C884 C 0.97739 0.26139 0.10549 0.0
H885 H 0.91205 0.28218 0.2761 0.0
H886 H 0.92884 0.26527 0.25428 0.0
H887 H 0.96356 0.27599 0.07327 0.0
H888 H 0.02992 0.2435 0.05833 0.0
H889 H 1.01279 0.26002 0.07863 0.0
H890 H 0.98024 0.25102 0.26857 0.0
C891 C 0.93421 0.27721 0.23313 0.0
C892 C 0.9672 0.2707 0.11656 0.0
C893 C 0.92438 0.28677 0.24505 0.0
C894 C 1.01842 0.23935 0.09259 0.0
C895 C 1.00838 0.24877 0.10381 0.0
C896 C 0.97649 0.25615 0.22492 0.0
C897 C 0.9506 0.28289 0.19392 0.0
C898 C 0.9614 0.27283 0.18188 0.0
C899 C 0.99319 0.24394 0.14766 0.0
C900 C 0.98226 0.25396 0.15949 0.0
H901 H 0.95202 0.31985 0.15756 0.0
H902 H 0.96938 0.30337 0.13712 0.0
H903 H 0.96234 0.26692 0.28723 0.0
H904 H 0.99519 0.20944 0.1972 0.0
H905 H 0.97695 0.22505 0.21389 0.0
C906 C 0.85043 0.6959 0.02844 0.0
C907 C 0.84268 0.70572 0.06016 0.0
C908 C 0.84418 0.67893 0.04243 0.0
C909 C 0.81947 0.64871 0.16993 0.0
H910 H 0.80431 0.61112 0.01328 0.0
C911 C 0.77449 0.57483 0.20127 0.0
C912 C 0.77734 0.56256 0.16026 0.0
C913 C 0.78362 0.59234 0.1905 0.0
C914 C 0.80874 0.6214 0.05829 0.0
H915 H 0.82274 0.70538 0.13346 0.0
H916 H 0.8123 0.67633 0.15874 0.0
H917 H 0.81883 0.64123 0.99373 0.0
H918 H 0.79228 0.55955 0.07507 0.0
H919 H 0.80861 0.58994 0.0575 0.0
H920 H 0.80969 0.62911 0.23484 0.0
C921 C 0.82318 0.68156 0.12288 0.0
C922 C 0.81712 0.63883 0.04684 0.0
C923 C 0.82917 0.69832 0.10823 0.0
C924 C 0.7898 0.56851 0.10831 0.0
C925 C 0.79899 0.58606 0.09758 0.0
C926 C 0.81128 0.63135 0.18154 0.0
C927 C 0.83022 0.67136 0.08941 0.0
C928 C 0.82246 0.65281 0.1023 0.0
C929 C 0.79602 0.59837 0.13819 0.0
C930 C 0.80552 0.61723 0.12589 0.0
H931 H 0.86063 0.70101 0.99054 0.0
H932 H 0.8502 0.67169 0.01594 0.0
H933 H 0.82363 0.65902 0.21456 0.0
H934 H 0.76493 0.57087 0.24154 0.0
H935 H 0.7804 0.60101 0.22243 0.0
C936 C 0.22306 0.48974 0.58741 0.0
C937 C 0.22981 0.49972 0.65658 0.0
C938 C 0.20134 0.47861 0.55702 0.0
C939 C 0.14775 0.4551 0.60485 0.0
H940 H 0.12793 0.44766 0.40308 0.0
C941 C 0.0636 0.4139 0.37756 0.0
C942 C 0.05359 0.3978 0.40147 0.0
C943 C 0.08445 0.42762 0.41034 0.0
C944 C 0.13305 0.4497 0.45968 0.0
H945 H 0.21885 0.50533 0.74865 0.0
H946 H 0.18105 0.48655 0.69522 0.0
H947 H 0.16518 0.46929 0.45599 0.0
H948 H 0.05755 0.38405 0.48145 0.0
H949 H 0.09365 0.40749 0.53683 0.0
H950 H 0.11559 0.43578 0.60888 0.0
C951 C 0.19249 0.48714 0.66427 0.0
C952 C 0.1546 0.46198 0.49003 0.0
C953 C 0.21424 0.49818 0.69473 0.0
C954 C 0.06477 0.39609 0.46054 0.0
C955 C 0.08551 0.40972 0.49312 0.0
C956 C 0.12622 0.44289 0.57458 0.0
C957 C 0.18565 0.4771 0.59492 0.0
C958 C 0.16238 0.46472 0.563 0.0
C959 C 0.09584 0.42565 0.4682 0.0
C960 C 0.11855 0.43977 0.5013 0.0
H961 H 0.23461 0.49055 0.55646 0.0
H962 H 0.19687 0.47093 0.50411 0.0
H963 H 0.15299 0.45664 0.66101 0.0
H964 H 0.05558 0.41573 0.33218 0.0
H965 H 0.09167 0.43975 0.39006 0.0
C966 C 0.6842 0.66926 0.66754 0.0
C967 C 0.6637 0.661 0.68332 0.0
C968 C 0.68943 0.66027 0.61844 0.0
C969 C 0.67243 0.61516 0.52759 0.0
H970 H 0.70912 0.64063 0.40151 0.0
C971 C 0.68913 0.58078 0.29379 0.0
C972 C 0.71007 0.58949 0.28177 0.0
C973 C 0.6832 0.58901 0.34383 0.0
C974 C 0.69904 0.63335 0.43683 0.0
H975 H 0.63266 0.63664 0.65953 0.0
H976 H 0.64162 0.62113 0.57257 0.0
H977 H 0.69908 0.65593 0.48491 0.0
H978 H 0.7414 0.6134 0.31569 0.0
H979 H 0.73105 0.62772 0.4023 0.0
H980 H 0.6723 0.59253 0.47878 0.0
C981 C 0.65377 0.63452 0.59897 0.0
C982 C 0.69328 0.64214 0.4848 0.0
C983 C 0.64854 0.64351 0.64823 0.0
C984 C 0.72503 0.60644 0.32238 0.0
C985 C 0.71909 0.61466 0.3721 0.0
C986 C 0.67812 0.60634 0.47933 0.0
C987 C 0.67431 0.64276 0.58345 0.0
C988 C 0.68 0.63321 0.53119 0.0
C989 C 0.69805 0.60616 0.3829 0.0
C990 C 0.69162 0.61536 0.43366 0.0
H991 H 0.69623 0.68277 0.6928 0.0
H992 H 0.70548 0.667 0.60861 0.0
H993 H 0.66241 0.60789 0.56307 0.0
H994 H 0.67712 0.56782 0.26299 0.0
H995 H 0.66681 0.58214 0.3504 0.0
C996 C 0.45258 0.06031 0.22205 0.0
C997 C 0.46044 0.07831 0.24598 0.0
C998 C 0.45379 0.04993 0.26917 0.0
C999 C 0.48218 0.05413 0.44884 0.0
H1000 H 0.43823 1.00461 0.42704 0.0
C1001 C 0.47869 0.01542 0.66856 0.0
C1002 C 0.4771 0.99918 0.64916 0.0
C1003 C 0.47517 0.0239 0.61725 0.0
C1004 C 0.45069 0.01839 0.43342 0.0
H1005 H 0.47502 0.09932 0.33868 0.0
H1006 H 0.47661 0.08125 0.42104 0.0
H1007 H 0.43504 0.02186 0.34249 0.0
H1008 H 0.46927 0.97866 0.56003 0.0
H1009 H 0.46264 0.99341 0.47 0.0
H1010 H 0.49754 0.05075 0.54059 0.0
C1011 C 0.47014 0.07518 0.36554 0.0
C1012 C 0.44893 0.0283 0.38484 0.0
C1013 C 0.46914 0.08558 0.31833 0.0
C1014 C 0.47059 0.99112 0.57695 0.0
C1015 C 0.46686 0.99959 0.52535 0.0
C1016 C 0.48378 0.0443 0.49764 0.0
C1017 C 0.46271 0.05723 0.34165 0.0
C1018 C 0.4646 0.04638 0.39216 0.0
C1019 C 0.4697 0.01631 0.54497 0.0
C1020 C 0.468 0.02636 0.49093 0.0
H1021 H 0.44594 0.05435 0.16647 0.0
H1022 H 0.44815 0.03627 0.24834 0.0
H1023 H 0.4949 0.06782 0.45546 0.0
H1024 H 0.48307 0.02181 0.72369 0.0
H1025 H 0.47701 0.03657 0.63421 0.0
C1026 C 0.1538 0.10134 0.13247 0.0
C1027 C 0.14989 0.08901 0.07244 0.0
C1028 C 0.14194 0.10935 0.13513 0.0
C1029 C 0.11142 0.12164 0.01582 0.0
H1030 H 0.09666 0.13437 0.1883 0.0
C1031 C 0.06644 0.15867 0.0218 0.0
C1032 C 0.07124 0.17095 0.0832 0.0
C1033 C 0.07482 0.14782 0.0204 0.0
C1034 C 0.1009 0.13117 0.13975 0.0
H1035 H 0.13005 0.07512 0.9687 0.0
H1036 H 0.10904 0.08894 0.97334 0.0
H1037 H 0.11207 0.11617 0.18695 0.0
H1038 H 0.08907 0.18165 0.19109 0.0
H1039 H 0.10438 0.16334 0.18814 0.0
H1040 H 0.10074 0.13693 0.96893 0.0
C1041 C 0.12137 0.09246 0.01853 0.0
C1042 C 0.10968 0.1206 0.13892 0.0
C1043 C 0.13316 0.0843 0.01622 0.0
C1044 C 0.08505 0.17237 0.1428 0.0
C1045 C 0.09361 0.16164 0.14131 0.0
C1046 C 0.10276 0.13229 0.01674 0.0
C1047 C 0.12595 0.10545 0.07735 0.0
C1048 C 0.11521 0.11574 0.07707 0.0
C1049 C 0.08852 0.14905 0.08022 0.0
C1050 C 0.09745 0.13735 0.07885 0.0
H1051 H 0.16686 0.10548 0.17603 0.0
H1052 H 0.14614 0.11935 0.18104 0.0
H1053 H 0.11578 0.11848 0.96747 0.0
H1054 H 0.05618 0.15743 0.97446 0.0
H1055 H 0.07025 0.13826 0.97247 0.0
C1056 C 0.94928 0.94995 0.12591 0.0
C1057 C 0.92928 0.93983 0.14403 0.0
C1058 C 0.9569 0.96728 0.11632 0.0
C1059 C 0.93973 0.99822 0.08082 0.0
H1060 H 0.99868 0.03431 0.16183 0.0
C1061 C 0.97284 0.07225 0.08111 0.0
C1062 C 0.99298 0.08201 0.06353 0.0
C1063 C 0.96521 0.05525 0.09512 0.0
C1064 C 0.98223 0.02438 0.13826 0.0
H1065 H 0.90131 0.93984 0.16377 0.0
H1066 H 0.91463 0.97004 0.1475 0.0
H1067 H 0.98497 1.00379 0.174 0.0
H1068 H 0.02133 0.08185 0.0506 0.0
H1069 H 1.00796 0.05223 0.07361 0.0
H1070 H 0.93701 0.01875 0.04446 0.0
C1071 C 0.92444 0.9646 0.1406 0.0
C1072 C 0.97437 1.00686 0.14517 0.0
C1073 C 0.91687 0.94732 0.15054 0.0
C1074 C 1.00562 0.07461 0.063 0.0
C1075 C 0.99802 0.05766 0.07696 0.0
C1076 C 0.9476 0.01574 0.07371 0.0
C1077 C 0.94465 0.97488 0.12414 0.0
C1078 C 0.95303 0.99354 0.11639 0.0
C1079 C 0.97757 0.04762 0.0921 0.0
C1080 C 0.96898 0.02907 0.10216 0.0
H1081 H 0.95931 0.94464 0.12101 0.0
H1082 H 0.97243 0.97474 0.10279 0.0
H1083 H 0.92328 0.98828 0.05724 0.0
H1084 H 0.96264 0.07749 0.08163 0.0
H1085 H 0.94953 0.04803 0.10769 0.0
C1086 C 0.97187 0.87264 0.97713 0.0
C1087 C 0.96669 0.85898 0.01587 0.0
C1088 C 0.99313 0.88581 0.97749 0.0
C1089 C 0.04988 0.90742 0.07746 0.0
H1090 H 0.06352 0.92796 0.91067 0.0
C1091 C 0.13818 0.95989 0.06175 0.0
C1092 C 0.14255 0.97299 0.0208 0.0
C1093 C 0.11719 0.94601 0.06099 0.0
C1094 C 0.06017 0.92268 0.95842 0.0
H1095 H 0.98084 0.84909 0.08631 0.0
H1096 H 1.01795 0.87183 0.08618 0.0
H1097 H 0.02744 0.90399 0.90924 0.0
H1098 H 0.12721 0.98158 0.94788 0.0
H1099 H 0.09074 0.9578 0.94742 0.0
H1100 H 0.08262 0.92617 0.12672 0.0
C1101 C 1.00535 0.8724 0.05549 0.0
C1102 C 0.03917 0.90871 0.9576 0.0
C1103 C 0.9839 0.85909 0.05497 0.0
C1104 C 0.12481 0.97181 0.97997 0.0
C1105 C 0.1037 0.95792 0.97928 0.0
C1106 C 0.0709 0.92143 0.07832 0.0
C1107 C 1.01046 0.88611 0.01669 0.0
C1108 C 0.03344 0.90077 0.01719 0.0
C1109 C 0.09935 0.94461 0.01965 0.0
C1110 C 0.07659 0.92947 0.01886 0.0
H1111 H 0.95938 0.87331 0.94625 0.0
H1112 H 0.99588 0.89606 0.94777 0.0
H1113 H 0.04646 0.90209 0.12509 0.0
H1114 H 0.15107 0.96042 0.09557 0.0
H1115 H 0.11508 0.93623 0.09258 0.0
C1116 C 0.83289 0.45076 0.08226 0.0
C1117 C 0.82529 0.45734 0.13283 0.0
C1118 C 0.83788 0.43813 0.09456 0.0
C1119 C 0.85218 0.41987 0.23924 0.0
H1120 H 0.84234 0.38398 0.08336 0.0
C1121 C 0.87176 0.36574 0.27589 0.0
C1122 C 0.88111 0.3618 0.22373 0.0
C1123 C 0.86377 0.37668 0.26685 0.0
C1124 C 0.8454 0.39401 0.12748 0.0
H1125 H 0.81655 0.45532 0.23576 0.0
H1126 H 0.82497 0.43302 0.25694 0.0
H1127 H 0.82989 0.40372 0.0637 0.0
H1128 H 0.88955 0.36634 0.1215 0.0
H1129 H 0.87585 0.38544 0.10582 0.0
H1130 H 0.86781 0.41011 0.30285 0.0
C1131 C 0.82734 0.43786 0.20792 0.0
C1132 C 0.83823 0.40537 0.11618 0.0
C1133 C 0.82225 0.45051 0.19543 0.0
C1134 C 0.88235 0.36906 0.16254 0.0
C1135 C 0.87433 0.37992 0.15335 0.0
C1136 C 0.85933 0.40844 0.2506 0.0
C1137 C 0.83541 0.43159 0.15786 0.0
C1138 C 0.84176 0.41865 0.17159 0.0
C1139 C 0.86486 0.38388 0.20523 0.0
C1140 C 0.85629 0.39549 0.1946 0.0
H1141 H 0.83522 0.45552 0.03305 0.0
H1142 H 0.84425 0.43385 0.05493 0.0
H1143 H 0.85544 0.43002 0.28311 0.0
H1144 H 0.87081 0.36048 0.324 0.0
H1145 H 0.8565 0.37934 0.30778 0.0
C1146 C 0.7064 0.45036 0.21188 0.0
C1147 C 0.7023 0.45894 0.16144 0.0
C1148 C 0.6917 0.43245 0.21244 0.0
C1149 C 0.64229 0.39118 0.10106 0.0
H1150 H 0.63824 0.37444 0.27808 0.0
C1151 C 0.57085 0.32366 0.13314 0.0
C1152 C 0.57493 0.31321 0.17346 0.0
C1153 C 0.58714 0.34077 0.12939 0.0
C1154 C 0.63928 0.37881 0.22796 0.0
H1155 H 0.67973 0.45482 0.06984 0.0
H1156 H 0.65361 0.42432 0.07321 0.0
H1157 H 0.66433 0.40524 0.27708 0.0
H1158 H 0.5997 0.31278 0.24115 0.0
H1159 H 0.62821 0.34286 0.23565 0.0
H1160 H 0.61664 0.3648 0.05269 0.0
C1161 C 0.66832 0.43114 0.11208 0.0
C1162 C 0.65439 0.39661 0.22719 0.0
C1163 C 0.68319 0.44893 0.11094 0.0
C1164 C 0.59599 0.32036 0.20915 0.0
C1165 C 0.61229 0.33769 0.2065 0.0
C1166 C 0.62699 0.37349 0.10209 0.0
C1167 C 0.67223 0.42246 0.16281 0.0
C1168 C 0.6562 0.40322 0.16371 0.0
C1169 C 0.60809 0.34822 0.16685 0.0
C1170 C 0.62515 0.36699 0.16554 0.0
H1171 H 0.721 0.4575 0.25145 0.0
H1172 H 0.69583 0.42645 0.25164 0.0
H1173 H 0.64325 0.39531 0.05051 0.0
H1174 H 0.55485 0.31863 0.10497 0.0
H1175 H 0.58315 0.34841 0.09871 0.0
C1176 C 0.59069 0.21722 0.20265 0.0
C1177 C 0.57627 0.21348 0.1404 0.0
C1178 C 0.61241 0.22444 0.20231 0.0
C1179 C 0.65357 0.24798 0.09338 0.0
H1180 H 0.68824 0.23914 0.22618 0.0
C1181 C 0.74544 0.29134 0.14586 0.0
C1182 C 0.75792 0.28448 0.16747 0.0
C1183 C 0.72323 0.28127 0.13699 0.0
C1184 C 0.67884 0.24162 0.1879 0.0
H1185 H 0.57324 0.21399 0.02854 0.0
H1186 H 0.61077 0.22601 0.02692 0.0
H1187 H 0.65004 0.22402 0.22134 0.0
H1188 H 0.75631 0.26105 0.19331 0.0
H1189 H 0.71737 0.24314 0.17544 0.0
H1190 H 0.6821 0.26504 0.05806 0.0
C1191 C 0.60566 0.22395 0.07693 0.0
C1192 C 0.65681 0.23311 0.18593 0.0
C1193 C 0.58402 0.21698 0.07762 0.0
C1194 C 0.7473 0.26681 0.17649 0.0
C1195 C 0.72491 0.25661 0.16721 0.0
C1196 C 0.67549 0.2563 0.0948 0.0
C1197 C 0.62035 0.228 0.13942 0.0
C1198 C 0.64379 0.23633 0.13931 0.0
C1199 C 0.71249 0.26379 0.14842 0.0
C1200 C 0.68865 0.25355 0.14293 0.0
H1201 H 0.5852 0.21474 0.25195 0.0
H1202 H 0.62301 0.22753 0.25191 0.0
H1203 H 0.64442 0.2511 0.05708 0.0
H1204 H 0.75292 0.30479 0.13732 0.0
H1205 H 0.7146 0.28754 0.12345 0.0
C1206 C 0.55904 0.81445 0.75248 0.0
C1207 C 0.55003 0.79653 0.75698 0.0
C1208 C 0.54724 0.82249 0.75533 0.0
C1209 C 0.4909 0.81191 0.7391 0.0
H1210 H 0.51997 0.86277 0.79822 0.0
C1211 C 0.44892 0.85127 0.78422 0.0
C1212 C 0.45517 0.86572 0.74961 0.0
C1213 C 0.45965 0.84224 0.78463 0.0
C1214 C 0.51163 0.84856 0.78113 0.0
H1215 H 0.52144 0.77339 0.77226 0.0
H1216 H 0.50114 0.78764 0.78122 0.0
H1217 H 0.54012 0.84851 0.80745 0.0
H1218 H 0.4768 0.88091 0.68399 0.0
H1219 H 0.49661 0.8661 0.68937 0.0
H1220 H 0.46226 0.81222 0.7157 0.0
C1221 C 0.51723 0.79536 0.77249 0.0
C1222 C 0.52321 0.84028 0.78593 0.0
C1223 C 0.52903 0.78719 0.76856 0.0
C1224 C 0.47217 0.87051 0.714 0.0
C1225 C 0.48334 0.86183 0.71626 0.0
C1226 C 0.47926 0.82021 0.73577 0.0
C1227 C 0.526 0.81311 0.76459 0.0
C1228 C 0.51317 0.8218 0.764 0.0
C1229 C 0.47727 0.84761 0.75184 0.0
C1230 C 0.48951 0.83866 0.75598 0.0
H1231 H 0.57528 0.82233 0.74519 0.0
H1232 H 0.55479 0.83602 0.74797 0.0
H1233 H 0.4824 0.79776 0.72046 0.0
H1234 H 0.43568 0.84689 0.81132 0.0
H1235 H 0.45447 0.83128 0.81211 0.0
C1236 C 0.37363 0.66351 0.81757 0.0
C1237 C 0.35384 0.65098 0.83188 0.0
C1238 C 0.37804 0.68018 0.80847 0.0
C1239 C 0.35346 0.70318 0.74824 0.0
H1240 H 0.40462 0.74573 0.85598 0.0
C1241 C 0.37317 0.77202 0.70526 0.0
C1242 C 0.39463 0.78475 0.70683 0.0
C1243 C 0.36752 0.75622 0.72806 0.0
C1244 C 0.3904 0.73401 0.82471 0.0
H1245 H 0.3233 0.64646 0.84867 0.0
H1246 H 0.33077 0.67531 0.8293 0.0
H1247 H 0.39626 0.71696 0.87932 0.0
H1248 H 0.427 0.7911 0.73705 0.0
H1249 H 0.41716 0.76329 0.77243 0.0
H1250 H 0.34801 0.71991 0.69088 0.0
C1251 C 0.34283 0.67213 0.8258 0.0
C1252 C 0.38559 0.71756 0.83851 0.0
C1253 C 0.33854 0.65557 0.8363 0.0
C1254 C 0.41029 0.78146 0.73348 0.0
C1255 C 0.40463 0.76557 0.75513 0.0
C1256 C 0.35846 0.7196 0.73342 0.0
C1257 C 0.36264 0.68458 0.81211 0.0
C1258 C 0.36716 0.70202 0.80005 0.0
C1259 C 0.38314 0.75263 0.75208 0.0
C1260 C 0.37711 0.73524 0.77104 0.0
H1261 H 0.38566 0.6604 0.81223 0.0
H1262 H 0.39334 0.68952 0.79704 0.0
H1263 H 0.33924 0.69133 0.71751 0.0
H1264 H 0.36063 0.77401 0.68467 0.0
H1265 H 0.35084 0.74677 0.72618 0.0
C1266 C 0.52095 0.68235 0.86106 0.0
C1267 C 0.52989 0.68301 0.80046 0.0
C1268 C 0.49964 0.66921 0.85989 0.0
C1269 C 0.45748 0.62399 0.7733 0.0
H1270 H 0.41715 0.63548 0.82932 0.0
C1271 C 0.37106 0.5711 0.80294 0.0
C1272 C 0.35481 0.57204 0.76316 0.0
C1273 C 0.3926 0.58464 0.81118 0.0
C1274 C 0.42826 0.63205 0.81385 0.0
H1275 H 0.52285 0.67108 0.68997 0.0
H1276 H 0.48612 0.64776 0.68877 0.0
H1277 H 0.45433 0.6592 0.83691 0.0
H1278 H 0.34888 0.58878 0.70395 0.0
H1279 H 0.38611 0.61253 0.72111 0.0
H1280 H 0.43151 0.59683 0.75124 0.0
C1281 C 0.49562 0.65729 0.73737 0.0
C1282 C 0.44957 0.64564 0.81845 0.0
C1283 C 0.51672 0.67062 0.73816 0.0
C1284 C 0.36079 0.58732 0.73432 0.0
C1285 C 0.38221 0.60105 0.7443 0.0
C1286 C 0.43632 0.61038 0.77042 0.0
C1287 C 0.48682 0.6563 0.79834 0.0
C1288 C 0.46439 0.64181 0.79727 0.0
C1289 C 0.39845 0.59982 0.78204 0.0
C1290 C 0.42134 0.61424 0.78973 0.0
H1291 H 0.53059 0.69171 0.90993 0.0
H1292 H 0.49334 0.66886 0.90771 0.0
H1293 H 0.4685 0.62057 0.7569 0.0
H1294 H 0.36718 0.56002 0.8283 0.0
H1295 H 0.4047 0.58337 0.84139 0.0
C1296 C 0.03333 0.18399 0.84421 0.0
C1297 C 0.03538 0.19806 0.89117 0.0
C1298 C 0.03311 0.18451 0.77249 0.0
C1299 C 0.05254 0.21554 0.65338 0.0
H1300 H 1.01269 0.1746 0.50674 0.0
C1301 C 0.05091 0.2166 0.35466 0.0
C1302 C 0.04693 0.20127 0.31102 0.0
C1303 C 0.049 0.21668 0.42558 0.0
C1304 C 0.0241 0.18608 0.54709 0.0
H1305 H 0.03825 0.22346 0.89984 0.0
H1306 H 0.03815 0.22446 0.77416 0.0
H1307 H 1.00938 0.17359 0.63008 0.0
H1308 H 0.03865 0.17425 0.30796 0.0
H1309 H 0.0359 0.17454 0.43174 0.0
H1310 H 0.06765 0.22789 0.57086 0.0
C1311 C 0.03676 0.21308 0.7931 0.0
C1312 C 0.02211 0.18552 0.61759 0.0
C1313 C 0.03674 0.21248 0.86478 0.0
C1314 C 0.04161 0.18621 0.34007 0.0
C1315 C 0.03986 0.18634 0.41093 0.0
C1316 C 0.05464 0.21606 0.58286 0.0
C1317 C 0.03514 0.19917 0.74648 0.0
C1318 C 0.03642 0.20018 0.67142 0.0
C1319 C 0.04324 0.20148 0.45429 0.0
C1320 C 0.04057 0.20127 0.52898 0.0
H1321 H 0.03255 0.17281 0.86317 0.0
H1322 H 0.03208 0.1737 0.73779 0.0
H1323 H 0.06393 0.22695 0.69406 0.0
H1324 H 0.05489 0.22837 0.33361 0.0
H1325 H 0.05152 0.22851 0.45736 0.0
C1326 C 0.91338 0.839 0.79098 0.0
C1327 C 0.89841 0.82347 0.81154 0.0
C1328 C 0.91441 0.83937 0.71981 0.0
C1329 C 0.9029 0.81104 0.55097 0.0
H1330 H 0.9071 0.85001 0.4696 0.0
C1331 C 0.89751 0.81018 0.25231 0.0
C1332 C 0.91006 0.8261 0.22946 0.0
C1333 C 0.8966 0.81009 0.32366 0.0
C1334 C 0.90629 0.83918 0.49174 0.0
H1335 H 0.87226 0.79636 0.77339 0.0
H1336 H 0.87446 0.79687 0.64839 0.0
H1337 H 0.90368 0.84919 0.59304 0.0
H1338 H 0.93191 0.85439 0.26409 0.0
H1339 H 0.93076 0.85419 0.38949 0.0
H1340 H 0.90593 0.80116 0.45054 0.0
C1341 C 0.88546 0.8087 0.68783 0.0
C1342 C 0.90419 0.83867 0.56228 0.0
C1343 C 0.88424 0.80839 0.7592 0.0
C1344 C 0.92204 0.84192 0.27998 0.0
C1345 C 0.92125 0.84181 0.35173 0.0
C1346 C 0.90521 0.81163 0.48067 0.0
C1347 C 0.90061 0.8242 0.6676 0.0
C1348 C 0.90239 0.82456 0.59244 0.0
C1349 C 0.90839 0.82589 0.37432 0.0
C1350 C 0.90681 0.82566 0.45003 0.0
H1351 H 0.92462 0.85085 0.83001 0.0
H1352 H 0.92637 0.85144 0.70577 0.0
H1353 H 0.9019 0.80017 0.57333 0.0
H1354 H 0.88792 0.79774 0.21492 0.0
H1355 H 0.88623 0.79764 0.33879 0.0
C1356 C 0.21639 1.00996 0.78982 0.0
C1357 C 0.1982 1.00581 0.81782 0.0
C1358 C 0.21615 1.01024 0.71801 0.0
C1359 C 0.18045 0.99586 0.54268 0.0
H1360 H 0.23185 0.03242 0.49289 0.0
C1361 C 0.18604 1.01116 0.25961 0.0
C1362 C 0.20383 0.01306 0.2341 0.0
C1363 C 0.18459 1.00991 0.33026 0.0
C1364 C 0.21744 0.02206 0.50597 0.0
H1365 H 0.16538 0.99851 0.7922 0.0
H1366 H 0.16507 0.99945 0.66633 0.0
H1367 H 0.23037 0.03097 0.61692 0.0
H1368 H 0.23405 0.0151 0.26272 0.0
H1369 H 0.23164 0.01319 0.38634 0.0
H1370 H 0.16747 0.98726 0.43109 0.0
C1371 C 0.17944 1.00215 0.69991 0.0
C1372 C 0.21659 0.02117 0.57705 0.0
C1373 C 0.17962 1.0017 0.772 0.0
C1374 C 0.22015 0.01369 0.28074 0.0
C1375 C 0.21883 0.01266 0.35156 0.0
C1376 C 0.18124 0.99689 0.47143 0.0
C1377 C 0.19781 1.00663 0.67222 0.0
C1378 C 0.19819 1.00792 0.59638 0.0
C1379 C 0.20104 1.01076 0.37702 0.0
C1380 C 0.19984 1.00989 0.45243 0.0
H1381 H 0.23106 0.01336 0.82368 0.0
H1382 H 0.23046 0.01336 0.69849 0.0
H1383 H 0.16611 0.98538 0.55549 0.0
H1384 H 0.1731 1.01048 0.22484 0.0
H1385 H 0.17076 1.00854 0.34862 0.0
C1386 C 0.74646 0.49962 0.40274 0.0
C1387 C 0.74917 0.51439 0.37579 0.0
C1388 C 0.74601 0.49916 0.47427 0.0
C1389 C 0.7334 0.51694 0.62604 0.0
H1390 H 0.76465 0.50103 0.73649 0.0
C1391 C 0.73739 0.52021 0.9263 0.0
C1392 C 0.73742 0.50658 0.95538 0.0
C1393 C 0.73892 0.52116 0.85565 0.0
C1394 C 0.75556 0.50525 0.70617 0.0
H1395 H 0.75461 0.54059 0.40309 0.0
H1396 H 0.75336 0.53961 0.52832 0.0
H1397 H 0.76788 0.50312 0.61355 0.0
H1398 H 0.73866 0.48303 0.9328 0.0
H1399 H 0.7407 0.48435 0.80865 0.0
H1400 H 0.72064 0.5187 0.71763 0.0
C1401 C 0.75137 0.52835 0.49372 0.0
C1402 C 0.75752 0.50653 0.63589 0.0
C1403 C 0.75209 0.52891 0.42224 0.0
C1404 C 0.73866 0.49372 0.91193 0.0
C1405 C 0.74 0.49458 0.84094 0.0
C1406 C 0.73125 0.51549 0.69605 0.0
C1407 C 0.74816 0.5134 0.52025 0.0
C1408 C 0.74649 0.51242 0.59523 0.0
C1409 C 0.74031 0.50839 0.81206 0.0
C1410 C 0.74234 0.50966 0.7371 0.0
H1411 H 0.74418 0.48823 0.3682 0.0
H1412 H 0.74338 0.48743 0.49322 0.0
H1413 H 0.72445 0.52125 0.59548 0.0
H1414 H 0.73674 0.53048 0.95858 0.0
H1415 H 0.73951 0.53216 0.83574 0.0
C1416 C 0.52803 0.20601 0.38604 0.0
C1417 C 0.51323 0.19121 0.33344 0.0
C1418 C 0.52803 0.20512 0.45779 0.0
C1419 C 0.50894 0.17245 0.57623 0.0
H1420 H 0.51992 0.21234 0.71323 0.0
C1421 C 0.49622 0.16929 0.86662 0.0
C1422 C 0.51232 0.18369 0.91829 0.0
C1423 C 0.49652 0.16956 0.79456 0.0
C1424 C 0.51697 0.20113 0.67558 0.0
H1425 H 0.4863 0.16411 0.31476 0.0
H1426 H 0.48601 0.16277 0.43868 0.0
H1427 H 0.5202 0.21466 0.58916 0.0
H1428 H 0.54194 0.20917 0.93539 0.0
H1429 H 0.54237 0.20961 0.81062 0.0
H1430 H 0.50543 0.15888 0.66294 0.0
C1431 C 0.49804 0.17488 0.42516 0.0
C1432 C 0.51722 0.20249 0.60455 0.0
C1433 C 0.49814 0.17571 0.35389 0.0
C1434 C 0.5291 0.19798 0.89682 0.0
C1435 C 0.52934 0.19829 0.82532 0.0
C1436 C 0.50854 0.17106 0.64723 0.0
C1437 C 0.51313 0.18946 0.4781 0.0
C1438 C 0.51322 0.18817 0.55397 0.0
C1439 C 0.51287 0.18427 0.77339 0.0
C1440 C 0.51265 0.18542 0.69763 0.0
H1441 H 0.53989 0.21809 0.37186 0.0
H1442 H 0.54 0.21657 0.49727 0.0
H1443 H 0.50615 0.16126 0.53891 0.0
H1444 H 0.4831 0.15814 0.8818 0.0
H1445 H 0.48361 0.15857 0.75546 0.0
C1446 C 0.92195 0.32865 0.48213 0.0
C1447 C 0.90673 0.33067 0.4421 0.0
C1448 C 0.92252 0.32853 0.55429 0.0
C1449 C 0.904 0.34141 0.70603 0.0
H1450 H 0.91607 0.30965 0.79152 0.0
C1451 C 0.88883 0.32665 0.98173 0.0
C1452 C 0.90613 0.32887 0.02884 0.0
C1453 C 0.88943 0.32675 0.91018 0.0
C1454 C 0.91282 0.31864 0.76821 0.0
H1455 H 0.88055 0.33459 0.44606 0.0
H1456 H 0.88083 0.33354 0.57088 0.0
H1457 H 0.91598 0.31003 0.66562 0.0
H1458 H 0.93735 0.33239 0.03793 0.0
H1459 H 0.93817 0.33225 0.91201 0.0
H1460 H 0.90022 0.34958 0.80836 0.0
C1461 C 0.8926 0.33236 0.54725 0.0
C1462 C 0.91286 0.31894 0.69634 0.0
C1463 C 0.89222 0.3327 0.47545 0.0
C1464 C 0.92384 0.33077 0.0028 0.0
C1465 C 0.92429 0.33059 0.93092 0.0
C1466 C 0.90367 0.34091 0.77749 0.0
C1467 C 0.90782 0.33036 0.58767 0.0
C1468 C 0.90834 0.33028 0.66435 0.0
C1469 C 0.90719 0.32881 0.88432 0.0
C1470 C 0.90799 0.32948 0.80903 0.0
H1471 H 0.93343 0.32719 0.45766 0.0
H1472 H 0.93467 0.32726 0.58405 0.0
H1473 H 0.90096 0.3506 0.68361 0.0
H1474 H 0.875 0.32522 0.00031 0.0
H1475 H 0.87599 0.32522 0.87494 0.0
C1476 C 0.41961 0.90498 0.5169 0.0
C1477 C 0.41635 0.89005 0.5436 0.0
C1478 C 0.41969 0.90529 0.44505 0.0
C1479 C 0.40413 0.87625 0.26962 0.0
H1480 H 0.44673 0.91946 0.21869 0.0
C1481 C 0.42491 0.87874 0.99242 0.0
C1482 C 0.42594 0.8924 0.96074 0.0
C1483 C 0.4234 0.87869 0.06348 0.0
C1484 C 0.43464 0.90737 0.23215 0.0
H1485 H 0.4103 0.86362 0.51568 0.0
H1486 H 0.41089 0.86429 0.39091 0.0
H1487 H 0.44407 0.91871 0.34265 0.0
H1488 H 0.42704 0.9171 0.979 0.0
H1489 H 0.42481 0.91719 0.10388 0.0
H1490 H 0.39508 0.86484 0.15901 0.0
C1491 C 0.413 0.87566 0.42506 0.0
C1492 C 0.43304 0.90693 0.30307 0.0
C1493 C 0.41276 0.87531 0.49677 0.0
C1494 C 0.42626 0.90639 0.00211 0.0
C1495 C 0.42497 0.90644 0.07345 0.0
C1496 C 0.40587 0.87665 0.1988 0.0
C1497 C 0.41664 0.89071 0.39842 0.0
C1498 C 0.41782 0.89134 0.32271 0.0
C1499 C 0.42325 0.89247 0.10452 0.0
C1500 C 0.42119 0.89219 0.17946 0.0
H1501 H 0.42227 0.91651 0.55155 0.0
H1502 H 0.42217 0.91697 0.42609 0.0
H1503 H 0.39198 0.86412 0.28268 0.0
H1504 H 0.42525 0.86805 0.96229 0.0
H1505 H 0.4225 0.86793 0.08653 0.0
C1506 C 0.30158 0.54992 0.98575 0.0
C1507 C 0.29067 0.53377 0.9371 0.0
C1508 C 0.30128 0.5502 0.05763 0.0
C1509 C 0.27104 0.52442 0.18195 0.0
H1510 H 0.32459 0.55287 0.31696 0.0
C1511 C 0.27848 0.51873 0.47523 0.0
C1512 C 0.2917 0.53441 0.52561 0.0
C1513 C 0.27806 0.51886 0.40322 0.0
C1514 C 0.30947 0.54506 0.28005 0.0
H1515 H 0.2706 0.50528 0.92528 0.0
H1516 H 0.27006 0.50583 0.05113 0.0
H1517 H 0.32416 0.55285 0.19101 0.0
H1518 H 0.315 0.5625 0.54065 0.0
H1519 H 0.31377 0.56286 0.41476 0.0
H1520 H 0.25629 0.51674 0.27085 0.0
C1521 C 0.27879 0.51823 0.03342 0.0
C1522 C 0.30925 0.54503 0.20802 0.0
C1523 C 0.27921 0.51793 0.96155 0.0
C1524 C 0.30449 0.55024 0.50283 0.0
C1525 C 0.30396 0.5504 0.43081 0.0
C1526 C 0.27124 0.52455 0.25406 0.0
C1527 C 0.28994 0.53436 0.08207 0.0
C1528 C 0.29005 0.53465 0.15838 0.0
C1529 C 0.29078 0.5347 0.38025 0.0
C1530 C 0.29047 0.53481 0.30383 0.0
H1531 H 0.31054 0.56236 0.96853 0.0
H1532 H 0.30984 0.56282 0.09411 0.0
H1533 H 0.256 0.51647 0.14466 0.0
H1534 H 0.26841 0.50634 0.4914 0.0
H1535 H 0.26796 0.5065 0.36563 0.0
C1536 C 0.6078 0.71128 0.58014 0.0
C1537 C 0.59417 0.71505 0.61147 0.0
C1538 C 0.60787 0.71095 0.50815 0.0
C1539 C 0.57468 0.70394 0.34073 0.0
H1540 H 0.62799 0.72976 0.27678 0.0
C1541 C 0.5775 0.71366 0.05363 0.0
C1542 C 0.59319 0.71291 0.02285 0.0
C1543 C 0.57767 0.71358 0.12547 0.0
C1544 C 0.613 0.72226 0.2937 0.0
H1545 H 0.56993 0.72144 0.59219 0.0
H1546 H 0.56997 0.7207 0.46599 0.0
H1547 H 0.62827 0.73033 0.40304 0.0
H1548 H 0.62121 0.71128 0.04239 0.0
H1549 H 0.62112 0.71053 0.16777 0.0
H1550 H 0.55936 0.6956 0.23168 0.0
C1551 C 0.58055 0.718 0.49736 0.0
C1552 C 0.61318 0.72266 0.36588 0.0
C1553 C 0.58063 0.71851 0.56953 0.0
C1554 C 0.6089 0.71184 0.0649 0.0
C1555 C 0.60896 0.71158 0.13673 0.0
C1556 C 0.5745 0.70339 0.26852 0.0
C1557 C 0.59417 0.71421 0.4662 0.0
C1558 C 0.59401 0.71359 0.38989 0.0
C1559 C 0.5934 0.71253 0.16781 0.0
C1560 C 0.59365 0.71265 0.24428 0.0
H1561 H 0.61846 0.70859 0.61114 0.0
H1562 H 0.61841 0.70789 0.48503 0.0
H1563 H 0.55972 0.69665 0.35812 0.0
H1564 H 0.56507 0.71433 0.02222 0.0
H1565 H 0.56563 0.71457 0.14799 0.0
loop_
_geom_bond_atom_site_label_1
_geom_bond_atom_site_label_2
_geom_bond_distance
_geom_bond_site_symmetry_2
_ccdc_geom_bond_type
C0 C2 1.422 . S
C0 C4 1.415 . S
C0 N6 1.369 . S
C1 C2 1.421 . S
C1 C3 1.417 . S
C1 C13 1.422 . S
C2 C0 1.422 . S
C2 C1 1.421 . S
C2 N12 1.359 . S
C3 C1 1.417 . S
C3 C5 1.329 . S
C3 H22 0.930 . S
C4 C0 1.415 . S
C4 C5 1.437 . S
C4 C8 1.413 . S
C5 C3 1.329 . S
C5 C4 1.437 . S
C5 H27 0.929 . S
N6 C0 1.369 . S
N6 C7 1.338 . S
N6 Gd11 2.622 . S
C7 N6 1.338 . S
C7 C9 1.378 . S
C7 H19 0.929 . S
C8 C4 1.413 . S
C8 C9 1.348 . S
C8 H24 0.931 . S
C9 C7 1.378 . S
C9 C8 1.348 . S
C9 H25 0.930 . S
Gd10 N30 2.622 1_454 S
Gd10 N37 2.570 1_455 S
Gd10 O44 2.353 . S
Gd10 O45 2.473 1_455 S
Gd10 O46 2.427 1_455 S
Gd10 O48 2.388 1_554 S
Gd10 O49 2.386 . S
Gd10 O53 2.307 . S
Gd10 C63 2.805 1_455 S
Gd11 N6 2.622 . S
Gd11 N12 2.570 . S
Gd11 O43 2.386 . S
Gd11 O47 2.307 . S
Gd11 O50 2.353 . S
Gd11 O51 2.468 . S
Gd11 O52 2.427 . S
Gd11 O54 2.388 . S
Gd11 C75 2.805 . S
N12 C2 1.359 . S
N12 Gd11 2.570 . S
N12 C14 1.343 . S
C13 C1 1.422 . S
C13 C15 1.321 . S
C13 H21 0.931 . S
C14 N12 1.343 . S
C14 C15 1.390 . S
C14 H16 0.931 . S
C15 C13 1.321 . S
C15 C14 1.390 . S
C15 H17 0.930 1_554 S
H16 C14 0.931 . S
H17 C15 0.930 1_556 S
H18 C41 0.931 . S
H19 C7 0.929 . S
H20 C42 0.930 . S
H21 C13 0.931 . S
H22 C3 0.930 . S
H23 C32 0.929 . S
H24 C8 0.931 . S
H25 C9 0.930 . S
H26 C64 0.930 . S
H27 C5 0.929 . S
H28 C33 0.931 . S
H29 C34 0.930 . S
N30 Gd10 2.622 1_656 S
N30 C31 1.369 1_556 S
N30 C32 1.338 . S
C31 N30 1.369 1_554 S
C31 C35 1.415 1_554 S
C31 C38 1.422 . S
C32 H23 0.929 . S
C32 N30 1.338 . S
C32 C34 1.378 . S
C33 H28 0.931 . S
C33 C34 1.348 . S
C33 C35 1.413 . S
C34 H29 0.930 . S
C34 C32 1.378 . S
C34 C33 1.348 . S
C35 C31 1.415 1_556 S
C35 C33 1.413 . S
C35 C65 1.437 . S
H36 C65 0.929 . S
N37 Gd10 2.570 1_655 S
N37 C38 1.359 . S
N37 C41 1.343 . S
C38 C31 1.422 . S
C38 N37 1.359 . S
C38 C40 1.421 . S
C39 C40 1.422 . S
C39 C42 1.321 . S
C39 H66 0.931 . S
C40 C38 1.421 . S
C40 C39 1.422 . S
C40 C64 1.417 . S
C41 H18 0.931 . S
C41 N37 1.343 . S
C41 C42 1.390 . S
C42 H20 0.930 . S
C42 C39 1.321 . S
C42 C41 1.390 . S
O43 Gd11 2.386 . S
O43 C55 1.265 . S
O44 Gd10 2.353 . S
O44 C55 1.242 . S
O45 Gd10 2.473 1_655 S
O45 C63 1.259 . S
O46 Gd10 2.427 1_655 S
O46 C63 1.252 . S
O47 Gd11 2.307 . S
O47 C56 1.261 1_554 S
O48 Gd10 2.388 1_556 S
O48 C56 1.252 . S
O49 Gd10 2.386 . S
O49 C67 1.265 . S
O50 Gd11 2.353 . S
O50 C67 1.242 . S
O51 Gd11 2.468 . S
O51 C75 1.263 . S
O52 Gd11 2.427 . S
O52 C75 1.252 . S
O53 Gd10 2.307 . S
O53 C68 1.261 . S
O54 Gd11 2.388 . S
O54 C68 1.252 . S
C55 O43 1.265 . S
C55 O44 1.242 . S
C56 O47 1.261 1_556 S
C56 O48 1.252 . S
C57 C60 1.394 . S
C57 C62 1.370 . S
C57 C63 1.500 . S
C58 C61 1.383 . S
C58 C62 1.395 . S
C59 C60 1.396 . S
C59 C61 1.365 . S
C59 H76 0.929 1_554 S
C60 C57 1.394 . S
C60 C59 1.396 . S
C60 H77 0.930 1_554 S
C61 C58 1.383 . S
C61 C59 1.365 . S
C61 H78 0.931 . S
C62 C57 1.370 . S
C62 C58 1.395 . S
C62 H79 0.930 . S
C63 Gd10 2.805 1_655 S
C63 O45 1.259 . S
C63 O46 1.252 . S
C63 C57 1.500 . S
C64 H26 0.930 . S
C64 C40 1.417 . S
C64 C65 1.329 1_554 S
C65 C35 1.437 . S
C65 H36 0.929 . S
C65 C64 1.329 1_556 S
H66 C39 0.931 . S
C67 O49 1.265 . S
C67 O50 1.242 . S
C68 O53 1.261 . S
C68 O54 1.252 . S
C69 C72 1.394 . S
C69 C74 1.370 . S
C69 C75 1.500 . S
C70 C73 1.383 . S
C70 C74 1.395 . S
C71 C72 1.396 . S
C71 C73 1.365 . S
C71 H80 0.929 . S
C72 C69 1.394 . S
C72 C71 1.396 . S
C72 H81 0.930 . S
C73 C70 1.383 . S
C73 C71 1.365 . S
C73 H82 0.931 . S
C74 C69 1.370 . S
C74 C70 1.395 . S
C74 H83 0.930 . S
C75 Gd11 2.805 . S
C75 O51 1.263 . S
C75 O52 1.252 . S
C75 C69 1.500 . S
H76 C59 0.929 1_556 S
H77 C60 0.930 1_556 S
H78 C61 0.931 . S
H79 C62 0.930 . S
H80 C71 0.929 . S
H81 C72 0.930 . S
H82 C73 0.931 . S
H83 C74 0.930 . S
C84 C86 1.422 . S
C84 C88 1.415 1_554 S
C84 N90 1.369 1_554 S
C85 C86 1.421 . S
C85 C87 1.417 . S
C85 C97 1.422 . S
C86 C84 1.422 . S
C86 C85 1.421 . S
C86 N96 1.359 . S
C87 C85 1.417 . S
C87 C89 1.329 . S
C87 H106 0.930 . S
C88 C84 1.415 1_556 S
C88 C89 1.437 1_556 S
C88 C92 1.413 . S
C89 C87 1.329 . S
C89 C88 1.437 1_554 S
C89 H111 0.929 1_554 S
N90 C84 1.369 1_556 S
N90 C91 1.338 . S
N90 Gd95 2.622 1_556 S
C91 N90 1.338 . S
C91 C93 1.378 . S
C91 H103 0.929 . S
C92 C88 1.413 . S
C92 C93 1.348 . S
C92 H108 0.931 . S
C93 C91 1.378 . S
C93 C92 1.348 . S
C93 H109 0.930 . S
Gd94 N114 2.622 . S
Gd94 N121 2.570 . S
Gd94 O128 2.353 . S
Gd94 O129 2.468 . S
Gd94 O130 2.427 . S
Gd94 O132 2.388 . S
Gd94 O133 2.386 . S
Gd94 O137 2.307 . S
Gd94 C147 2.805 . S
Gd95 N90 2.622 1_554 S
Gd95 N96 2.570 . S
Gd95 O127 2.386 . S
Gd95 O131 2.307 . S
Gd95 O134 2.353 . S
Gd95 O135 2.468 . S
Gd95 O136 2.427 . S
Gd95 O138 2.388 1_554 S
Gd95 C159 2.805 . S
N96 C86 1.359 . S
N96 Gd95 2.570 . S
N96 C98 1.343 . S
C97 C85 1.422 . S
C97 C99 1.321 . S
C97 H105 0.931 . S
C98 N96 1.343 . S
C98 C99 1.390 . S
C98 H100 0.931 . S
C99 C97 1.321 . S
C99 C98 1.390 . S
C99 H101 0.930 . S
H100 C98 0.931 . S
H101 C99 0.930 . S
H102 C125 0.931 . S
H103 C91 0.929 . S
H104 C126 0.930 . S
H105 C97 0.931 . S
H106 C87 0.930 . S
H107 C116 0.929 . S
H108 C92 0.931 . S
H109 C93 0.930 . S
H110 C148 0.930 . S
H111 C89 0.929 1_556 S
H112 C117 0.931 . S
H113 C118 0.930 . S
N114 Gd94 2.622 . S
N114 C115 1.369 . S
N114 C116 1.338 . S
C115 N114 1.369 . S
C115 C119 1.415 . S
C115 C122 1.422 . S
C116 H107 0.929 . S
C116 N114 1.338 . S
C116 C118 1.378 . S
C117 H112 0.931 . S
C117 C118 1.348 . S
C117 C119 1.413 . S
C118 H113 0.930 . S
C118 C116 1.378 . S
C118 C117 1.348 . S
C119 C115 1.415 . S
C119 C117 1.413 . S
C119 C149 1.437 . S
H120 C149 0.929 . S
N121 Gd94 2.570 . S
N121 C122 1.359 . S
N121 C125 1.343 1_554 S
C122 C115 1.422 . S
C122 N121 1.359 . S
C122 C124 1.421 . S
C123 C124 1.423 . S
C123 C126 1.321 1_554 S
C123 H150 0.930 1_554 S
C124 C122 1.421 . S
C124 C123 1.423 . S
C124 C148 1.417 . S
C125 H102 0.931 . S
C125 N121 1.343 1_556 S
C125 C126 1.390 . S
C126 H104 0.930 . S
C126 C123 1.321 1_556 S
C126 C125 1.390 . S
O127 Gd95 2.386 . S
O127 C139 1.265 . S
O128 Gd94 2.353 . S
O128 C139 1.242 . S
O129 Gd94 2.468 . S
O129 C147 1.263 . S
O130 Gd94 2.427 . S
O130 C147 1.252 . S
O131 Gd95 2.307 . S
O131 C140 1.261 . S
O132 Gd94 2.388 . S
O132 C140 1.252 . S
O133 Gd94 2.386 . S
O133 C151 1.265 . S
O134 Gd95 2.353 . S
O134 C151 1.242 . S
O135 Gd95 2.468 . S
O135 C159 1.263 . S
O136 Gd95 2.427 . S
O136 C159 1.252 . S
O137 Gd94 2.307 . S
O137 C152 1.261 1_554 S
O138 Gd95 2.388 1_556 S
O138 C152 1.252 . S
C139 O127 1.265 . S
C139 O128 1.242 . S
C140 O131 1.261 . S
C140 O132 1.252 . S
C141 C144 1.394 . S
C141 C146 1.370 . S
C141 C147 1.500 . S
C142 C145 1.383 . S
C142 C146 1.395 . S
C143 C144 1.396 . S
C143 C145 1.365 . S
C143 H160 0.929 . S
C144 C141 1.394 . S
C144 C143 1.396 . S
C144 H161 0.930 . S
C145 C142 1.383 . S
C145 C143 1.365 . S
C145 H162 0.931 . S
C146 C141 1.370 . S
C146 C142 1.395 . S
C146 H163 0.930 . S
C147 Gd94 2.805 . S
C147 O129 1.263 . S
C147 O130 1.252 . S
C147 C141 1.500 . S
C148 H110 0.930 . S
C148 C124 1.417 . S
C148 C149 1.329 . S
C149 C119 1.437 . S
C149 H120 0.929 . S
C149 C148 1.329 . S
H150 C123 0.930 1_556 S
C151 O133 1.265 . S
C151 O134 1.242 . S
C152 O137 1.261 1_556 S
C152 O138 1.252 . S
C153 C156 1.394 . S
C153 C158 1.370 . S
C153 C159 1.500 . S
C154 C157 1.383 . S
C154 C158 1.395 . S
C155 C156 1.396 . S
C155 C157 1.365 . S
C155 H164 0.929 1_554 S
C156 C153 1.394 . S
C156 C155 1.396 . S
C156 H165 0.930 1_554 S
C157 C154 1.383 . S
C157 C155 1.365 . S
C157 H166 0.931 . S
C158 C153 1.370 . S
C158 C154 1.395 . S
C158 H167 0.930 . S
C159 Gd95 2.805 . S
C159 O135 1.263 . S
C159 O136 1.252 . S
C159 C153 1.500 . S
H160 C143 0.929 . S
H161 C144 0.930 . S
H162 C145 0.931 . S
H163 C146 0.930 . S
H164 C155 0.929 1_556 S
H165 C156 0.930 1_556 S
H166 C157 0.931 . S
H167 C158 0.930 . S
C168 C170 1.422 1_554 S
C168 C172 1.415 . S
C168 N174 1.369 . S
C169 C170 1.421 . S
C169 C171 1.417 . S
C169 C181 1.422 . S
C170 C168 1.422 1_556 S
C170 C169 1.421 . S
C170 N180 1.359 . S
C171 C169 1.417 . S
C171 C173 1.329 1_556 S
C171 H190 0.930 . S
C172 C168 1.415 . S
C172 C173 1.437 . S
C172 C176 1.413 . S
C173 C171 1.329 1_554 S
C173 C172 1.437 . S
C173 H195 0.929 . S
N174 C168 1.369 . S
N174 C175 1.338 . S
N174 Gd179 2.622 . S
C175 N174 1.338 . S
C175 C177 1.378 . S
C175 H187 0.929 . S
C176 C172 1.413 . S
C176 C177 1.348 . S
C176 H192 0.931 . S
C177 C175 1.378 . S
C177 C176 1.348 . S
C177 H193 0.930 . S
Gd178 N198 2.622 . S
Gd178 N205 2.570 1_556 S
Gd178 O212 2.353 . S
Gd178 O213 2.468 1_556 S
Gd178 O214 2.427 . S
Gd178 O216 2.388 . S
Gd178 O217 2.386 . S
Gd178 O221 2.307 1_556 S
Gd178 C231 2.805 1_556 S
Gd179 N174 2.622 . S
Gd179 N180 2.570 1_554 S
Gd179 O211 2.386 . S
Gd179 O215 2.307 1_554 S
Gd179 O218 2.353 1_565 S
Gd179 O219 2.468 1_554 S
Gd179 O220 2.427 . S
Gd179 O222 2.388 1_565 S
Gd179 C243 2.805 1_554 S
N180 C170 1.359 . S
N180 Gd179 2.570 1_556 S
N180 C182 1.343 . S
C181 C169 1.422 . S
C181 C183 1.321 . S
C181 H189 0.931 . S
C182 N180 1.343 . S
C182 C183 1.390 . S
C182 H184 0.931 . S
C183 C181 1.321 . S
C183 C182 1.390 . S
C183 H185 0.930 . S
H184 C182 0.931 . S
H185 C183 0.930 . S
H186 C209 0.931 . S
H187 C175 0.929 . S
H188 C210 0.930 . S
H189 C181 0.931 . S
H190 C171 0.930 . S
H191 C200 0.929 . S
H192 C176 0.931 . S
H193 C177 0.930 . S
H194 C232 0.930 . S
H195 C173 0.929 . S
H196 C201 0.931 . S
H197 C202 0.930 . S
N198 Gd178 2.622 . S
N198 C199 1.369 . S
N198 C200 1.338 . S
C199 N198 1.369 . S
C199 C203 1.415 . S
C199 C206 1.422 1_556 S
C200 H191 0.929 . S
C200 N198 1.338 . S
C200 C202 1.378 . S
C201 H196 0.931 . S
C201 C202 1.348 . S
C201 C203 1.413 . S
C202 H197 0.930 . S
C202 C200 1.378 . S
C202 C201 1.348 . S
C203 C199 1.415 . S
C203 C201 1.413 . S
C203 C233 1.437 . S
H204 C233 0.929 . S
N205 Gd178 2.570 1_554 S
N205 C206 1.359 . S
N205 C209 1.343 . S
C206 C199 1.422 1_554 S
C206 N205 1.359 . S
C206 C208 1.421 . S
C207 C208 1.422 . S
C207 C210 1.321 . S
C207 H234 0.931 . S
C208 C206 1.421 . S
C208 C207 1.422 . S
C208 C232 1.417 . S
C209 H186 0.931 . S
C209 N205 1.343 . S
C209 C210 1.390 . S
C210 H188 0.930 . S
C210 C207 1.321 . S
C210 C209 1.390 . S
O211 Gd179 2.386 . S
O211 C223 1.265 1_554 S
O212 Gd178 2.353 . S
O212 C223 1.242 1_545 S
O213 Gd178 2.468 1_554 S
O213 C231 1.263 . S
O214 Gd178 2.427 . S
O214 C231 1.252 1_556 S
O215 Gd179 2.307 1_556 S
O215 C224 1.261 1_565 S
O216 Gd178 2.388 . S
O216 C224 1.252 . S
O217 Gd178 2.386 . S
O217 C235 1.265 1_556 S
O218 Gd179 2.353 1_545 S
O218 C235 1.242 . S
O219 Gd179 2.468 1_556 S
O219 C243 1.263 . S
O220 Gd179 2.427 . S
O220 C243 1.252 1_554 S
O221 Gd178 2.307 1_554 S
O221 C236 1.261 . S
O222 Gd179 2.388 1_545 S
O222 C236 1.252 . S
C223 O211 1.265 1_556 S
C223 O212 1.242 1_565 S
C224 O215 1.261 1_545 S
C224 O216 1.252 . S
C225 C228 1.394 1_554 S
C225 C230 1.370 . S
C225 C231 1.500 . S
C226 C229 1.383 . S
C226 C230 1.395 . S
C227 C228 1.396 . S
C227 C229 1.365 1_556 S
C227 H244 0.929 . S
C228 C225 1.394 1_556 S
C228 C227 1.396 . S
C228 H245 0.930 . S
C229 C226 1.383 . S
C229 C227 1.365 1_554 S
C229 H246 0.931 . S
C230 C225 1.370 . S
C230 C226 1.395 . S
C230 H247 0.930 . S
C231 Gd178 2.805 1_554 S
C231 O213 1.263 . S
C231 O214 1.252 1_554 S
C231 C225 1.500 . S
C232 H194 0.930 . S
C232 C208 1.417 . S
C232 C233 1.329 1_554 S
C233 C203 1.437 . S
C233 H204 0.929 . S
C233 C232 1.329 1_556 S
H234 C207 0.931 . S
C235 O217 1.265 1_554 S
C235 O218 1.242 . S
C236 O221 1.261 . S
C236 O222 1.252 . S
C237 C240 1.394 1_556 S
C237 C242 1.370 . S
C237 C243 1.500 . S
C238 C241 1.383 . S
C238 C242 1.395 . S
C239 C240 1.396 . S
C239 C241 1.365 1_554 S
C239 H248 0.929 . S
C240 C237 1.394 1_554 S
C240 C239 1.396 . S
C240 H249 0.930 . S
C241 C238 1.383 . S
C241 C239 1.365 1_556 S
C241 H250 0.931 . S
C242 C237 1.370 . S
C242 C238 1.395 . S
C242 H251 0.930 . S
C243 Gd179 2.805 1_556 S
C243 O219 1.263 . S
C243 O220 1.252 1_556 S
C243 C237 1.500 . S
H244 C227 0.929 . S
H245 C228 0.930 . S
H246 C229 0.931 . S
H247 C230 0.930 . S
H248 C239 0.929 . S
H249 C240 0.930 . S
H250 C241 0.931 . S
H251 C242 0.930 . S
C252 C254 1.422 . S
C252 C256 1.415 . S
C252 N258 1.369 . S
C253 C254 1.421 . S
C253 C255 1.417 . S
C253 C265 1.422 . S
C254 C252 1.422 . S
C254 C253 1.421 . S
C254 N264 1.359 . S
C255 C253 1.417 . S
C255 C257 1.329 . S
C255 H274 0.930 . S
C256 C252 1.415 . S
C256 C257 1.437 . S
C256 C260 1.413 1_554 S
C257 C255 1.329 . S
C257 C256 1.437 . S
C257 H279 0.929 . S
N258 C252 1.369 . S
N258 C259 1.338 1_554 S
N258 Gd263 2.622 . S
C259 N258 1.338 1_556 S
C259 C261 1.378 . S
C259 H271 0.929 . S
C260 C256 1.413 1_556 S
C260 C261 1.348 . S
C260 H276 0.931 . S
C261 C259 1.378 . S
C261 C260 1.348 . S
C261 H277 0.930 . S
Gd262 N282 2.622 . S
Gd262 N289 2.570 . S
Gd262 O296 2.353 . S
Gd262 O297 2.468 . S
Gd262 O298 2.427 . S
Gd262 O300 2.388 . S
Gd262 O301 2.386 . S
Gd262 O305 2.307 . S
Gd262 C315 2.805 . S
Gd263 N258 2.622 . S
Gd263 N264 2.570 . S
Gd263 O295 2.386 . S
Gd263 O299 2.307 . S
Gd263 O302 2.353 . S
Gd263 O303 2.468 . S
Gd263 O304 2.427 . S
Gd263 O306 2.388 . S
Gd263 C327 2.805 . S
N264 C254 1.359 . S
N264 Gd263 2.570 . S
N264 C266 1.343 . S
C265 C253 1.422 . S
C265 C267 1.321 . S
C265 H273 0.931 . S
C266 N264 1.343 . S
C266 C267 1.390 . S
C266 H268 0.931 . S
C267 C265 1.321 . S
C267 C266 1.390 . S
C267 H269 0.930 . S
H268 C266 0.931 . S
H269 C267 0.930 . S
H270 C293 0.931 . S
H271 C259 0.929 . S
H272 C294 0.930 . S
H273 C265 0.931 . S
H274 C255 0.930 . S
H275 C284 0.929 . S
H276 C260 0.931 . S
H277 C261 0.930 . S
H278 C316 0.930 . S
H279 C257 0.929 . S
H280 C285 0.931 . S
H281 C286 0.930 . S
N282 Gd262 2.622 . S
N282 C283 1.369 . S
N282 C284 1.338 . S
C283 N282 1.369 . S
C283 C287 1.415 . S
C283 C290 1.422 . S
C284 H275 0.929 . S
C284 N282 1.338 . S
C284 C286 1.378 . S
C285 H280 0.931 . S
C285 C286 1.348 . S
C285 C287 1.413 . S
C286 H281 0.930 . S
C286 C284 1.378 . S
C286 C285 1.348 . S
C287 C283 1.415 . S
C287 C285 1.413 . S
C287 C317 1.437 . S
H288 C317 0.929 . S
N289 Gd262 2.570 . S
N289 C290 1.359 . S
N289 C293 1.343 . S
C290 C283 1.422 . S
C290 N289 1.359 . S
C290 C292 1.421 . S
C291 C292 1.422 . S
C291 C294 1.321 . S
C291 H318 0.931 . S
C292 C290 1.421 . S
C292 C291 1.422 . S
C292 C316 1.417 . S
C293 H270 0.931 . S
C293 N289 1.343 . S
C293 C294 1.390 . S
C294 H272 0.930 . S
C294 C291 1.321 . S
C294 C293 1.390 . S
O295 Gd263 2.386 . S
O295 C307 1.265 . S
O296 Gd262 2.353 . S
O296 C307 1.242 . S
O297 Gd262 2.468 . S
O297 C315 1.263 . S
O298 Gd262 2.427 . S
O298 C315 1.252 . S
O299 Gd263 2.307 . S
O299 C308 1.261 . S
O300 Gd262 2.388 . S
O300 C308 1.252 . S
O301 Gd262 2.386 . S
O301 C319 1.265 . S
O302 Gd263 2.353 . S
O302 C319 1.242 . S
O303 Gd263 2.468 . S
O303 C327 1.263 . S
O304 Gd263 2.427 . S
O304 C327 1.252 . S
O305 Gd262 2.307 . S
O305 C320 1.261 . S
O306 Gd263 2.388 . S
O306 C320 1.252 . S
C307 O295 1.265 . S
C307 O296 1.242 . S
C308 O299 1.261 . S
C308 O300 1.252 . S
C309 C312 1.394 . S
C309 C314 1.370 . S
C309 C315 1.500 . S
C310 C313 1.383 . S
C310 C314 1.395 . S
C311 C312 1.396 . S
C311 C313 1.365 . S
C311 H328 0.929 . S
C312 C309 1.394 . S
C312 C311 1.396 . S
C312 H329 0.930 . S
C313 C310 1.383 . S
C313 C311 1.365 . S
C313 H330 0.931 . S
C314 C309 1.370 . S
C314 C310 1.395 . S
C314 H331 0.930 . S
C315 Gd262 2.805 . S
C315 O297 1.263 . S
C315 O298 1.252 . S
C315 C309 1.500 . S
C316 H278 0.930 . S
C316 C292 1.417 . S
C316 C317 1.329 . S
C317 C287 1.437 . S
C317 H288 0.929 . S
C317 C316 1.329 . S
H318 C291 0.931 . S
C319 O301 1.265 . S
C319 O302 1.242 . S
C320 O305 1.261 . S
C320 O306 1.252 . S
C321 C324 1.394 . S
C321 C326 1.370 . S
C321 C327 1.500 . S
C322 C325 1.383 . S
C322 C326 1.395 . S
C323 C324 1.396 . S
C323 C325 1.365 . S
C323 H332 0.929 . S
C324 C321 1.394 . S
C324 C323 1.396 . S
C324 H333 0.930 . S
C325 C322 1.383 . S
C325 C323 1.365 . S
C325 H334 0.931 . S
C326 C321 1.370 . S
C326 C322 1.395 . S
C326 H335 0.930 . S
C327 Gd263 2.805 . S
C327 O303 1.263 . S
C327 O304 1.252 . S
C327 C321 1.500 . S
H328 C311 0.929 . S
H329 C312 0.930 . S
H330 C313 0.931 . S
H331 C314 0.930 . S
H332 C323 0.929 . S
H333 C324 0.930 . S
H334 C325 0.931 . S
H335 C326 0.930 . S
C336 C338 1.422 . S
C336 C340 1.415 1_554 S
C336 N342 1.369 1_554 S
C337 C338 1.421 . S
C337 C339 1.417 . S
C337 C349 1.422 . S
C338 C336 1.422 . S
C338 C337 1.421 . S
C338 N348 1.359 . S
C339 C337 1.417 . S
C339 C341 1.329 . S
C339 H358 0.930 . S
C340 C336 1.415 1_556 S
C340 C341 1.437 1_556 S
C340 C344 1.413 . S
C341 C339 1.329 . S
C341 C340 1.437 1_554 S
C341 H363 0.929 1_554 S
N342 C336 1.369 1_556 S
N342 C343 1.338 . S
N342 Gd347 2.622 1_556 S
C343 N342 1.338 . S
C343 C345 1.378 . S
C343 H355 0.929 . S
C344 C340 1.413 . S
C344 C345 1.348 . S
C344 H360 0.931 . S
C345 C343 1.378 . S
C345 C344 1.348 . S
C345 H361 0.930 . S
Gd346 N366 2.622 . S
Gd346 N373 2.570 . S
Gd346 O380 2.353 . S
Gd346 O381 2.468 . S
Gd346 O382 2.427 . S
Gd346 O384 2.388 . S
Gd346 O385 2.386 . S
Gd346 O389 2.307 . S
Gd346 C399 2.805 . S
Gd347 N342 2.622 1_554 S
Gd347 N348 2.570 . S
Gd347 O379 2.386 . S
Gd347 O383 2.307 . S
Gd347 O386 2.353 . S
Gd347 O387 2.468 . S
Gd347 O388 2.427 . S
Gd347 O390 2.388 1_554 S
Gd347 C411 2.805 . S
N348 C338 1.359 . S
N348 Gd347 2.570 . S
N348 C350 1.343 . S
C349 C337 1.422 . S
C349 C351 1.321 . S
C349 H357 0.931 . S
C350 N348 1.343 . S
C350 C351 1.390 . S
C350 H352 0.931 . S
C351 C349 1.321 . S
C351 C350 1.390 . S
C351 H353 0.930 . S
H352 C350 0.931 . S
H353 C351 0.930 . S
H354 C377 0.931 . S
H355 C343 0.929 . S
H356 C378 0.930 . S
H357 C349 0.931 . S
H358 C339 0.930 . S
H359 C368 0.929 . S
H360 C344 0.931 . S
H361 C345 0.930 . S
H362 C400 0.930 . S
H363 C341 0.929 1_556 S
H364 C369 0.931 . S
H365 C370 0.930 . S
N366 Gd346 2.622 . S
N366 C367 1.369 . S
N366 C368 1.338 . S
C367 N366 1.369 . S
C367 C371 1.415 . S
C367 C374 1.422 . S
C368 H359 0.929 . S
C368 N366 1.338 . S
C368 C370 1.378 . S
C369 H364 0.931 . S
C369 C370 1.348 . S
C369 C371 1.413 . S
C370 H365 0.930 . S
C370 C368 1.378 . S
C370 C369 1.348 . S
C371 C367 1.415 . S
C371 C369 1.413 . S
C371 C401 1.437 . S
H372 C401 0.929 . S
N373 Gd346 2.570 . S
N373 C374 1.359 . S
N373 C377 1.343 1_554 S
C374 C367 1.422 . S
C374 N373 1.359 . S
C374 C376 1.421 . S
C375 C376 1.422 1_556 S
C375 C378 1.321 . S
C375 H402 0.931 . S
C376 C374 1.421 . S
C376 C375 1.422 1_554 S
C376 C400 1.417 . S
C377 H354 0.931 . S
C377 N373 1.343 1_556 S
C377 C378 1.390 . S
C378 H356 0.930 . S
C378 C375 1.321 . S
C378 C377 1.390 . S
O379 Gd347 2.386 . S
O379 C391 1.265 . S
O380 Gd346 2.353 . S
O380 C391 1.242 . S
O381 Gd346 2.468 . S
O381 C399 1.263 . S
O382 Gd346 2.427 . S
O382 C399 1.252 . S
O383 Gd347 2.307 . S
O383 C392 1.261 . S
O384 Gd346 2.388 . S
O384 C392 1.252 . S
O385 Gd346 2.386 . S
O385 C403 1.265 . S
O386 Gd347 2.353 . S
O386 C403 1.242 . S
O387 Gd347 2.468 . S
O387 C411 1.263 . S
O388 Gd347 2.427 . S
O388 C411 1.252 . S
O389 Gd346 2.307 . S
O389 C404 1.261 1_554 S
O390 Gd347 2.388 1_556 S
O390 C404 1.252 . S
C391 O379 1.265 . S
C391 O380 1.242 . S
C392 O383 1.261 . S
C392 O384 1.252 . S
C393 C396 1.394 . S
C393 C398 1.370 . S
C393 C399 1.500 . S
C394 C397 1.383 . S
C394 C398 1.395 . S
C395 C396 1.396 . S
C395 C397 1.365 . S
C395 H412 0.929 . S
C396 C393 1.394 . S
C396 C395 1.396 . S
C396 H413 0.930 . S
C397 C394 1.383 . S
C397 C395 1.365 . S
C397 H414 0.931 . S
C398 C393 1.370 . S
C398 C394 1.395 . S
C398 H415 0.930 1_554 S
C399 Gd346 2.805 . S
C399 O381 1.263 . S
C399 O382 1.252 . S
C399 C393 1.500 . S
C400 H362 0.930 . S
C400 C376 1.417 . S
C400 C401 1.329 . S
C401 C371 1.437 . S
C401 H372 0.929 . S
C401 C400 1.329 . S
H402 C375 0.931 . S
C403 O385 1.265 . S
C403 O386 1.242 . S
C404 O389 1.261 1_556 S
C404 O390 1.252 . S
C405 C408 1.394 . S
C405 C410 1.370 . S
C405 C411 1.500 . S
C406 C409 1.383 . S
C406 C410 1.395 . S
C407 C408 1.396 . S
C407 C409 1.365 . S
C407 H416 0.929 1_554 S
C408 C405 1.394 . S
C408 C407 1.396 . S
C408 H417 0.930 1_554 S
C409 C406 1.383 . S
C409 C407 1.365 . S
C409 H418 0.931 . S
C410 C405 1.370 . S
C410 C406 1.395 . S
C410 H419 0.930 . S
C411 Gd347 2.805 . S
C411 O387 1.263 . S
C411 O388 1.252 . S
C411 C405 1.500 . S
H412 C395 0.929 . S
H413 C396 0.930 . S
H414 C397 0.931 . S
H415 C398 0.930 1_556 S
H416 C407 0.929 1_556 S
H417 C408 0.930 1_556 S
H418 C409 0.931 . S
H419 C410 0.930 . S
C420 C422 1.422 . S
C420 C424 1.415 . S
C420 N426 1.369 . S
C421 C422 1.421 . S
C421 C423 1.417 . S
C421 C433 1.422 . S
C422 C420 1.422 . S
C422 C421 1.421 . S
C422 N432 1.359 . S
C423 C421 1.417 . S
C423 C425 1.329 . S
C423 H442 0.930 . S
C424 C420 1.415 . S
C424 C425 1.437 . S
C424 C428 1.413 . S
C425 C423 1.329 . S
C425 C424 1.437 . S
C425 H447 0.929 . S
N426 C420 1.369 . S
N426 C427 1.338 . S
N426 Gd431 2.622 . S
C427 N426 1.338 . S
C427 C429 1.378 . S
C427 H439 0.929 . S
C428 C424 1.413 . S
C428 C429 1.348 . S
C428 H444 0.931 . S
C429 C427 1.378 . S
C429 C428 1.348 . S
C429 H445 0.930 1_554 S
Gd430 N450 2.622 . S
Gd430 N457 2.570 . S
Gd430 O464 2.353 . S
Gd430 O465 2.468 . S
Gd430 O466 2.427 . S
Gd430 O468 2.388 . S
Gd430 O469 2.386 . S
Gd430 O473 2.307 . S
Gd430 C483 2.805 . S
Gd431 N426 2.622 . S
Gd431 N432 2.570 . S
Gd431 O463 2.386 . S
Gd431 O467 2.307 . S
Gd431 O470 2.353 . S
Gd431 O471 2.468 . S
Gd431 O472 2.427 . S
Gd431 O474 2.388 . S
Gd431 C495 2.805 . S
N432 C422 1.359 . S
N432 Gd431 2.570 . S
N432 C434 1.343 . S
C433 C421 1.422 . S
C433 C435 1.321 . S
C433 H441 0.931 . S
C434 N432 1.343 . S
C434 C435 1.390 . S
C434 H436 0.931 . S
C435 C433 1.321 . S
C435 C434 1.390 . S
C435 H437 0.930 . S
H436 C434 0.931 . S
H437 C435 0.930 . S
H438 C461 0.931 . S
H439 C427 0.929 . S
H440 C462 0.930 1_556 S
H441 C433 0.931 . S
H442 C423 0.930 . S
H443 C452 0.929 . S
H444 C428 0.931 . S
H445 C429 0.930 1_556 S
H446 C484 0.930 . S
H447 C425 0.929 . S
H448 C453 0.931 . S
H449 C454 0.930 . S
N450 Gd430 2.622 . S
N450 C451 1.369 . S
N450 C452 1.338 . S
C451 N450 1.369 . S
C451 C455 1.415 . S
C451 C458 1.422 . S
C452 H443 0.929 . S
C452 N450 1.338 . S
C452 C454 1.378 . S
C453 H448 0.931 . S
C453 C454 1.348 . S
C453 C455 1.413 . S
C454 H449 0.930 . S
C454 C452 1.378 . S
C454 C453 1.348 . S
C455 C451 1.415 . S
C455 C453 1.413 . S
C455 C485 1.437 . S
H456 C485 0.929 . S
N457 Gd430 2.570 . S
N457 C458 1.359 . S
N457 C461 1.343 . S
C458 C451 1.422 . S
C458 N457 1.359 . S
C458 C460 1.421 . S
C459 C460 1.422 . S
C459 C462 1.321 . S
C459 H486 0.931 . S
C460 C458 1.421 . S
C460 C459 1.422 . S
C460 C484 1.417 . S
C461 H438 0.931 . S
C461 N457 1.343 . S
C461 C462 1.390 . S
C462 H440 0.930 1_554 S
C462 C459 1.321 . S
C462 C461 1.390 . S
O463 Gd431 2.386 . S
O463 C475 1.265 . S
O464 Gd430 2.353 . S
O464 C475 1.242 . S
O465 Gd430 2.468 . S
O465 C483 1.263 . S
O466 Gd430 2.427 . S
O466 C483 1.252 . S
O467 Gd431 2.307 . S
O467 C476 1.261 . S
O468 Gd430 2.388 . S
O468 C476 1.252 . S
O469 Gd430 2.386 . S
O469 C487 1.265 . S
O470 Gd431 2.353 . S
O470 C487 1.242 . S
O471 Gd431 2.468 . S
O471 C495 1.263 . S
O472 Gd431 2.427 . S
O472 C495 1.252 . S
O473 Gd430 2.307 . S
O473 C488 1.261 . S
O474 Gd431 2.388 . S
O474 C488 1.252 . S
C475 O463 1.265 . S
C475 O464 1.242 . S
C476 O467 1.261 . S
C476 O468 1.252 . S
C477 C480 1.394 . S
C477 C482 1.370 . S
C477 C483 1.500 . S
C478 C481 1.383 . S
C478 C482 1.395 . S
C479 C480 1.396 . S
C479 C481 1.365 . S
C479 H496 0.929 . S
C480 C477 1.394 . S
C480 C479 1.396 . S
C480 H497 0.930 . S
C481 C478 1.383 . S
C481 C479 1.365 . S
C481 H498 0.931 . S
C482 C477 1.370 . S
C482 C478 1.395 . S
C482 H499 0.930 . S
C483 Gd430 2.805 . S
C483 O465 1.263 . S
C483 O466 1.252 . S
C483 C477 1.500 . S
C484 H446 0.930 . S
C484 C460 1.417 . S
C484 C485 1.329 . S
C485 C455 1.437 . S
C485 H456 0.929 . S
C485 C484 1.329 . S
H486 C459 0.931 . S
C487 O469 1.265 . S
C487 O470 1.242 . S
C488 O473 1.261 . S
C488 O474 1.252 . S
C489 C492 1.394 1_655 S
C489 C494 1.370 . S
C489 C495 1.500 . S
C490 C493 1.383 . S
C490 C494 1.395 1_455 S
C491 C492 1.396 . S
C491 C493 1.365 . S
C491 H500 0.929 . S
C492 C489 1.394 1_455 S
C492 C491 1.396 . S
C492 H501 0.930 1_455 S
C493 C490 1.383 . S
C493 C491 1.365 . S
C493 H502 0.931 . S
C494 C489 1.370 . S
C494 C490 1.395 1_655 S
C494 H503 0.930 . S
C495 Gd431 2.805 . S
C495 O471 1.263 . S
C495 O472 1.252 . S
C495 C489 1.500 . S
H496 C479 0.929 . S
H497 C480 0.930 . S
H498 C481 0.931 . S
H499 C482 0.930 . S
H500 C491 0.929 . S
H501 C492 0.930 1_655 S
H502 C493 0.931 . S
H503 C494 0.930 . S
C504 C506 1.422 . S
C504 C508 1.415 . S
C504 N510 1.369 . S
C505 C506 1.421 . S
C505 C507 1.417 . S
C505 C517 1.422 . S
C506 C504 1.422 . S
C506 C505 1.421 . S
C506 N516 1.359 . S
C507 C505 1.417 . S
C507 C509 1.329 . S
C507 H526 0.930 . S
C508 C504 1.415 . S
C508 C509 1.437 . S
C508 C512 1.413 . S
C509 C507 1.329 . S
C509 C508 1.437 . S
C509 H531 0.929 . S
N510 C504 1.369 . S
N510 C511 1.338 . S
N510 Gd515 2.622 . S
C511 N510 1.338 . S
C511 C513 1.378 . S
C511 H523 0.929 . S
C512 C508 1.413 . S
C512 C513 1.348 . S
C512 H528 0.931 . S
C513 C511 1.378 . S
C513 C512 1.348 . S
C513 H529 0.930 1_556 S
Gd514 N534 2.622 . S
Gd514 N541 2.570 . S
Gd514 O548 2.353 . S
Gd514 O549 2.468 . S
Gd514 O550 2.427 . S
Gd514 O552 2.388 . S
Gd514 O553 2.386 . S
Gd514 O557 2.307 . S
Gd514 C567 2.805 . S
Gd515 N510 2.622 . S
Gd515 N516 2.570 . S
Gd515 O547 2.386 . S
Gd515 O551 2.307 . S
Gd515 O554 2.353 . S
Gd515 O555 2.468 . S
Gd515 O556 2.427 . S
Gd515 O558 2.388 . S
Gd515 C579 2.805 . S
N516 C506 1.359 . S
N516 Gd515 2.570 . S
N516 C518 1.343 . S
C517 C505 1.422 . S
C517 C519 1.321 . S
C517 H525 0.931 . S
C518 N516 1.343 . S
C518 C519 1.390 . S
C518 H520 0.931 . S
C519 C517 1.321 . S
C519 C518 1.390 . S
C519 H521 0.930 . S
H520 C518 0.931 . S
H521 C519 0.930 . S
H522 C545 0.931 . S
H523 C511 0.929 . S
H524 C546 0.930 . S
H525 C517 0.931 . S
H526 C507 0.930 . S
H527 C536 0.929 . S
H528 C512 0.931 . S
H529 C513 0.930 1_554 S
H530 C568 0.930 . S
H531 C509 0.929 . S
H532 C537 0.931 . S
H533 C538 0.930 . S
N534 Gd514 2.622 . S
N534 C535 1.369 . S
N534 C536 1.338 . S
C535 N534 1.369 . S
C535 C539 1.415 . S
C535 C542 1.422 . S
C536 H527 0.929 . S
C536 N534 1.338 . S
C536 C538 1.378 . S
C537 H532 0.931 . S
C537 C538 1.348 . S
C537 C539 1.413 . S
C538 H533 0.930 . S
C538 C536 1.378 . S
C538 C537 1.348 . S
C539 C535 1.415 . S
C539 C537 1.413 . S
C539 C569 1.437 . S
H540 C569 0.929 . S
N541 Gd514 2.570 . S
N541 C542 1.359 . S
N541 C545 1.343 . S
C542 C535 1.422 . S
C542 N541 1.359 . S
C542 C544 1.421 . S
C543 C544 1.422 . S
C543 C546 1.321 . S
C543 H570 0.931 . S
C544 C542 1.421 . S
C544 C543 1.422 . S
C544 C568 1.417 . S
C545 H522 0.931 . S
C545 N541 1.343 . S
C545 C546 1.390 . S
C546 H524 0.930 . S
C546 C543 1.321 . S
C546 C545 1.390 . S
O547 Gd515 2.386 . S
O547 C559 1.265 . S
O548 Gd514 2.353 . S
O548 C559 1.242 . S
O549 Gd514 2.468 . S
O549 C567 1.263 . S
O550 Gd514 2.427 . S
O550 C567 1.252 . S
O551 Gd515 2.307 . S
O551 C560 1.261 . S
O552 Gd514 2.388 . S
O552 C560 1.252 . S
O553 Gd514 2.386 . S
O553 C571 1.265 . S
O554 Gd515 2.353 . S
O554 C571 1.242 . S
O555 Gd515 2.468 . S
O555 C579 1.263 . S
O556 Gd515 2.427 . S
O556 C579 1.252 . S
O557 Gd514 2.307 . S
O557 C572 1.261 . S
O558 Gd515 2.388 . S
O558 C572 1.252 . S
C559 O547 1.265 . S
C559 O548 1.242 . S
C560 O551 1.261 . S
C560 O552 1.252 . S
C561 C564 1.394 . S
C561 C566 1.370 . S
C561 C567 1.500 . S
C562 C565 1.383 . S
C562 C566 1.395 . S
C563 C564 1.396 . S
C563 C565 1.365 . S
C563 H580 0.929 . S
C564 C561 1.394 . S
C564 C563 1.396 . S
C564 H581 0.930 . S
C565 C562 1.383 . S
C565 C563 1.365 . S
C565 H582 0.931 . S
C566 C561 1.370 . S
C566 C562 1.395 . S
C566 H583 0.930 . S
C567 Gd514 2.805 . S
C567 O549 1.263 . S
C567 O550 1.252 . S
C567 C561 1.500 . S
C568 H530 0.930 . S
C568 C544 1.417 . S
C568 C569 1.329 . S
C569 C539 1.437 . S
C569 H540 0.929 . S
C569 C568 1.329 . S
H570 C543 0.931 . S
C571 O553 1.265 . S
C571 O554 1.242 . S
C572 O557 1.261 . S
C572 O558 1.252 . S
C573 C576 1.394 . S
C573 C578 1.370 . S
C573 C579 1.500 . S
C574 C577 1.383 . S
C574 C578 1.395 . S
C575 C576 1.396 . S
C575 C577 1.365 . S
C575 H584 0.929 . S
C576 C573 1.394 . S
C576 C575 1.396 . S
C576 H585 0.930 . S
C577 C574 1.383 . S
C577 C575 1.365 . S
C577 H586 0.931 . S
C578 C573 1.370 . S
C578 C574 1.395 . S
C578 H587 0.930 . S
C579 Gd515 2.805 . S
C579 O555 1.263 . S
C579 O556 1.252 . S
C579 C573 1.500 . S
H580 C563 0.929 . S
H581 C564 0.930 . S
H582 C565 0.931 . S
H583 C566 0.930 . S
H584 C575 0.929 . S
H585 C576 0.930 . S
H586 C577 0.931 . S
H587 C578 0.930 . S
C588 C590 1.422 . S
C588 C592 1.415 . S
C588 N594 1.369 . S
C589 C590 1.421 . S
C589 C591 1.417 . S
C589 C601 1.422 . S
C590 C588 1.422 . S
C590 C589 1.421 . S
C590 N600 1.359 . S
C591 C589 1.417 . S
C591 C593 1.329 . S
C591 H610 0.930 . S
C592 C588 1.415 . S
C592 C593 1.437 . S
C592 C596 1.413 . S
C593 C591 1.329 . S
C593 C592 1.437 . S
C593 H615 0.929 . S
N594 C588 1.369 . S
N594 C595 1.338 . S
N594 Gd599 2.622 . S
C595 N594 1.338 . S
C595 C597 1.378 . S
C595 H607 0.929 . S
C596 C592 1.413 . S
C596 C597 1.348 . S
C596 H612 0.931 . S
C597 C595 1.378 . S
C597 C596 1.348 . S
C597 H613 0.930 . S
Gd598 N618 2.622 . S
Gd598 N625 2.570 . S
Gd598 O632 2.353 . S
Gd598 O633 2.468 . S
Gd598 O634 2.427 . S
Gd598 O636 2.388 . S
Gd598 O637 2.386 . S
Gd598 O641 2.307 . S
Gd598 C651 2.805 . S
Gd599 N594 2.622 . S
Gd599 N600 2.570 . S
Gd599 O631 2.386 . S
Gd599 O635 2.307 . S
Gd599 O638 2.353 . S
Gd599 O639 2.468 . S
Gd599 O640 2.427 . S
Gd599 O642 2.388 . S
Gd599 C663 2.805 . S
N600 C590 1.359 . S
N600 Gd599 2.570 . S
N600 C602 1.343 . S
C601 C589 1.422 . S
C601 C603 1.321 . S
C601 H609 0.931 . S
C602 N600 1.343 . S
C602 C603 1.390 . S
C602 H604 0.931 . S
C603 C601 1.321 . S
C603 C602 1.390 . S
C603 H605 0.930 1_556 S
H604 C602 0.931 . S
H605 C603 0.930 1_554 S
H606 C629 0.931 . S
H607 C595 0.929 . S
H608 C630 0.930 . S
H609 C601 0.931 . S
H610 C591 0.930 . S
H611 C620 0.930 1_554 S
H612 C596 0.931 . S
H613 C597 0.930 . S
H614 C652 0.930 . S
H615 C593 0.929 . S
H616 C621 0.931 . S
H617 C622 0.930 . S
N618 Gd598 2.622 . S
N618 C619 1.369 . S
N618 C620 1.338 . S
C619 N618 1.369 . S
C619 C623 1.415 . S
C619 C626 1.422 . S
C620 H611 0.930 1_556 S
C620 N618 1.338 . S
C620 C622 1.378 1_556 S
C621 H616 0.931 . S
C621 C622 1.348 1_556 S
C621 C623 1.413 . S
C622 H617 0.930 . S
C622 C620 1.378 1_554 S
C622 C621 1.348 1_554 S
C623 C619 1.415 . S
C623 C621 1.413 . S
C623 C653 1.437 . S
H624 C653 0.929 . S
N625 Gd598 2.570 . S
N625 C626 1.359 . S
N625 C629 1.343 . S
C626 C619 1.422 . S
C626 N625 1.359 . S
C626 C628 1.421 . S
C627 C628 1.422 . S
C627 C630 1.321 . S
C627 H654 0.931 . S
C628 C626 1.421 . S
C628 C627 1.422 . S
C628 C652 1.417 . S
C629 H606 0.931 . S
C629 N625 1.343 . S
C629 C630 1.390 . S
C630 H608 0.930 . S
C630 C627 1.321 . S
C630 C629 1.390 . S
O631 Gd599 2.386 . S
O631 C643 1.265 . S
O632 Gd598 2.353 . S
O632 C643 1.242 . S
O633 Gd598 2.468 . S
O633 C651 1.263 . S
O634 Gd598 2.427 . S
O634 C651 1.252 . S
O635 Gd599 2.307 . S
O635 C644 1.261 . S
O636 Gd598 2.388 . S
O636 C644 1.252 . S
O637 Gd598 2.386 . S
O637 C655 1.265 . S
O638 Gd599 2.353 . S
O638 C655 1.242 . S
O639 Gd599 2.468 . S
O639 C663 1.263 . S
O640 Gd599 2.427 . S
O640 C663 1.252 . S
O641 Gd598 2.307 . S
O641 C656 1.261 . S
O642 Gd599 2.388 . S
O642 C656 1.252 . S
C643 O631 1.265 . S
C643 O632 1.242 . S
C644 O635 1.261 . S
C644 O636 1.252 . S
C645 C648 1.394 . S
C645 C650 1.370 . S
C645 C651 1.500 . S
C646 C649 1.383 . S
C646 C650 1.395 . S
C647 C648 1.396 . S
C647 C649 1.365 . S
C647 H664 0.929 . S
C648 C645 1.394 . S
C648 C647 1.396 . S
C648 H665 0.930 . S
C649 C646 1.383 . S
C649 C647 1.365 . S
C649 H666 0.931 . S
C650 C645 1.370 . S
C650 C646 1.395 . S
C650 H667 0.930 . S
C651 Gd598 2.805 . S
C651 O633 1.263 . S
C651 O634 1.252 . S
C651 C645 1.500 . S
C652 H614 0.930 . S
C652 C628 1.417 . S
C652 C653 1.329 . S
C653 C623 1.437 . S
C653 H624 0.929 . S
C653 C652 1.329 . S
H654 C627 0.931 . S
C655 O637 1.265 . S
C655 O638 1.242 . S
C656 O641 1.261 . S
C656 O642 1.252 . S
C657 C660 1.394 . S
C657 C662 1.370 . S
C657 C663 1.500 . S
C658 C661 1.383 . S
C658 C662 1.395 . S
C659 C660 1.396 . S
C659 C661 1.365 . S
C659 H668 0.929 . S
C660 C657 1.394 . S
C660 C659 1.396 . S
C660 H669 0.930 . S
C661 C658 1.383 . S
C661 C659 1.365 . S
C661 H670 0.931 . S
C662 C657 1.370 . S
C662 C658 1.395 . S
C662 H671 0.930 . S
C663 Gd599 2.805 . S
C663 O639 1.263 . S
C663 O640 1.252 . S
C663 C657 1.500 . S
H664 C647 0.929 . S
H665 C648 0.930 . S
H666 C649 0.931 . S
H667 C650 0.930 . S
H668 C659 0.929 . S
H669 C660 0.930 . S
H670 C661 0.931 . S
H671 C662 0.930 . S
C672 C674 1.422 . S
C672 C676 1.415 . S
C672 N678 1.369 . S
C673 C674 1.421 . S
C673 C675 1.417 . S
C673 C685 1.422 . S
C674 C672 1.422 . S
C674 C673 1.421 . S
C674 N684 1.359 . S
C675 C673 1.417 . S
C675 C677 1.329 . S
C675 H694 0.930 . S
C676 C672 1.415 . S
C676 C677 1.437 . S
C676 C680 1.413 . S
C677 C675 1.329 . S
C677 C676 1.437 . S
C677 H699 0.929 . S
N678 C672 1.369 . S
N678 C679 1.338 . S
N678 Gd683 2.622 . S
C679 N678 1.338 . S
C679 C681 1.378 . S
C679 H691 0.929 . S
C680 C676 1.413 . S
C680 C681 1.348 . S
C680 H696 0.931 . S
C681 C679 1.378 . S
C681 C680 1.348 . S
C681 H697 0.930 1_556 S
Gd682 N702 2.622 . S
Gd682 N709 2.570 . S
Gd682 O716 2.353 . S
Gd682 O717 2.468 . S
Gd682 O718 2.427 . S
Gd682 O720 2.388 . S
Gd682 O721 2.386 . S
Gd682 O725 2.307 . S
Gd682 C735 2.805 . S
Gd683 N678 2.622 . S
Gd683 N684 2.570 . S
Gd683 O715 2.386 . S
Gd683 O719 2.307 . S
Gd683 O722 2.353 . S
Gd683 O723 2.468 . S
Gd683 O724 2.427 . S
Gd683 O726 2.388 . S
Gd683 C747 2.805 . S
N684 C674 1.359 . S
N684 Gd683 2.570 . S
N684 C686 1.343 . S
C685 C673 1.422 . S
C685 C687 1.321 . S
C685 H693 0.931 . S
C686 N684 1.343 . S
C686 C687 1.390 . S
C686 H688 0.931 . S
C687 C685 1.321 . S
C687 C686 1.390 . S
C687 H689 0.930 . S
H688 C686 0.931 . S
H689 C687 0.930 . S
H690 C713 0.931 . S
H691 C679 0.929 . S
H692 C714 0.930 1_554 S
H693 C685 0.931 . S
H694 C675 0.930 . S
H695 C704 0.929 . S
H696 C680 0.931 . S
H697 C681 0.930 1_554 S
H698 C736 0.930 . S
H699 C677 0.929 . S
H700 C705 0.931 . S
H701 C706 0.930 . S
N702 Gd682 2.622 . S
N702 C703 1.369 . S
N702 C704 1.338 . S
C703 N702 1.369 . S
C703 C707 1.415 . S
C703 C710 1.422 . S
C704 H695 0.929 . S
C704 N702 1.338 . S
C704 C706 1.378 . S
C705 H700 0.931 . S
C705 C706 1.348 . S
C705 C707 1.413 . S
C706 H701 0.930 . S
C706 C704 1.378 . S
C706 C705 1.348 . S
C707 C703 1.415 . S
C707 C705 1.413 . S
C707 C737 1.437 . S
H708 C737 0.929 . S
N709 Gd682 2.570 . S
N709 C710 1.359 . S
N709 C713 1.343 . S
C710 C703 1.422 . S
C710 N709 1.359 . S
C710 C712 1.421 . S
C711 C712 1.422 . S
C711 C714 1.321 . S
C711 H738 0.931 . S
C712 C710 1.421 . S
C712 C711 1.422 . S
C712 C736 1.417 . S
C713 H690 0.931 . S
C713 N709 1.343 . S
C713 C714 1.390 . S
C714 H692 0.930 1_556 S
C714 C711 1.321 . S
C714 C713 1.390 . S
O715 Gd683 2.386 . S
O715 C727 1.265 . S
O716 Gd682 2.353 . S
O716 C727 1.242 . S
O717 Gd682 2.468 . S
O717 C735 1.263 . S
O718 Gd682 2.427 . S
O718 C735 1.252 . S
O719 Gd683 2.307 . S
O719 C728 1.261 . S
O720 Gd682 2.388 . S
O720 C728 1.252 . S
O721 Gd682 2.386 . S
O721 C739 1.265 . S
O722 Gd683 2.353 . S
O722 C739 1.242 . S
O723 Gd683 2.468 . S
O723 C747 1.263 . S
O724 Gd683 2.427 . S
O724 C747 1.252 . S
O725 Gd682 2.307 . S
O725 C740 1.261 . S
O726 Gd683 2.388 . S
O726 C740 1.252 . S
C727 O715 1.265 . S
C727 O716 1.242 . S
C728 O719 1.261 . S
C728 O720 1.252 . S
C729 C732 1.394 . S
C729 C734 1.370 . S
C729 C735 1.500 . S
C730 C733 1.383 . S
C730 C734 1.395 . S
C731 C732 1.396 . S
C731 C733 1.365 . S
C731 H748 0.929 . S
C732 C729 1.394 . S
C732 C731 1.396 . S
C732 H749 0.930 . S
C733 C730 1.383 . S
C733 C731 1.365 . S
C733 H750 0.931 . S
C734 C729 1.370 . S
C734 C730 1.395 . S
C734 H751 0.930 . S
C735 Gd682 2.805 . S
C735 O717 1.263 . S
C735 O718 1.252 . S
C735 C729 1.500 . S
C736 H698 0.930 . S
C736 C712 1.417 . S
C736 C737 1.329 . S
C737 C707 1.437 . S
C737 H708 0.929 . S
C737 C736 1.329 . S
H738 C711 0.931 . S
C739 O721 1.265 . S
C739 O722 1.242 . S
C740 O725 1.261 . S
C740 O726 1.252 . S
C741 C744 1.394 . S
C741 C746 1.370 . S
C741 C747 1.500 . S
C742 C745 1.383 . S
C742 C746 1.395 . S
C743 C744 1.396 . S
C743 C745 1.365 . S
C743 H752 0.929 . S
C744 C741 1.394 . S
C744 C743 1.396 . S
C744 H753 0.930 . S
C745 C742 1.383 . S
C745 C743 1.365 . S
C745 H754 0.931 . S
C746 C741 1.370 . S
C746 C742 1.395 . S
C746 H755 0.930 . S
C747 Gd683 2.805 . S
C747 O723 1.263 . S
C747 O724 1.252 . S
C747 C741 1.500 . S
H748 C731 0.929 . S
H749 C732 0.930 . S
H750 C733 0.931 . S
H751 C734 0.930 . S
H752 C743 0.929 . S
H753 C744 0.930 . S
H754 C745 0.931 . S
H755 C746 0.930 . S
C756 C757 1.349 1_556 S
C756 C758 1.327 . S
C756 H781 0.950 . S
C757 C756 1.349 1_554 S
C757 C773 1.349 . S
C758 C756 1.327 . S
C758 C777 1.429 1_556 S
C758 H782 0.950 . S
C759 C776 1.574 . S
C759 C778 1.368 1_554 S
C759 H783 0.949 . S
H760 C764 0.949 . S
C761 C762 1.349 . S
C761 C763 1.327 . S
C761 H784 0.950 1_556 S
C762 C761 1.349 . S
C762 C774 1.349 . S
C763 C761 1.327 . S
C763 C779 1.429 . S
C763 H785 0.950 1_556 S
C764 H760 0.949 . S
C764 C772 1.574 . S
C764 C780 1.368 . S
H765 C773 0.950 . S
H766 C771 0.950 . S
H767 C772 0.949 . S
H768 C774 0.950 . S
H769 C775 0.950 . S
H770 C776 0.949 . S
C771 H766 0.950 . S
C771 C773 1.327 . S
C771 C777 1.429 . S
C772 C764 1.574 . S
C772 H767 0.949 . S
C772 C778 1.368 . S
C773 C757 1.349 . S
C773 H765 0.950 . S
C773 C771 1.327 . S
C774 C762 1.349 . S
C774 H768 0.950 . S
C774 C775 1.327 . S
C775 H769 0.950 . S
C775 C774 1.327 . S
C775 C779 1.429 . S
C776 C759 1.574 . S
C776 H770 0.949 . S
C776 C780 1.368 1_554 S
C777 C758 1.429 1_554 S
C777 C771 1.429 . S
C777 C778 1.523 1_554 S
C778 C759 1.368 1_556 S
C778 C772 1.368 . S
C778 C777 1.523 1_556 S
C779 C763 1.429 . S
C779 C775 1.429 . S
C779 C780 1.523 . S
C780 C764 1.368 . S
C780 C776 1.368 1_556 S
C780 C779 1.523 . S
H781 C756 0.950 . S
H782 C758 0.950 . S
H783 C759 0.949 . S
H784 C761 0.950 1_554 S
H785 C763 0.950 1_554 S
C786 C787 1.349 1_556 S
C786 C788 1.327 . S
C786 H811 0.950 . S
C787 C786 1.349 1_554 S
C787 C803 1.349 . S
C788 C786 1.327 . S
C788 C807 1.429 1_556 S
C788 H812 0.950 . S
C789 C806 1.574 . S
C789 C808 1.368 1_554 S
C789 H813 0.949 . S
H790 C794 0.949 . S
C791 C792 1.349 . S
C791 C793 1.327 . S
C791 H814 0.950 . S
C792 C791 1.349 . S
C792 C804 1.349 . S
C793 C791 1.327 . S
C793 C809 1.429 . S
C793 H815 0.950 1_556 S
C794 H790 0.949 . S
C794 C802 1.574 . S
C794 C810 1.368 . S
H795 C803 0.950 . S
H796 C801 0.950 . S
H797 C802 0.949 . S
H798 C804 0.950 . S
H799 C805 0.950 . S
H800 C806 0.949 . S
C801 H796 0.950 . S
C801 C803 1.327 . S
C801 C807 1.429 . S
C802 C794 1.574 . S
C802 H797 0.949 . S
C802 C808 1.368 . S
C803 C787 1.349 . S
C803 H795 0.950 . S
C803 C801 1.327 . S
C804 C792 1.349 . S
C804 H798 0.950 . S
C804 C805 1.327 . S
C805 H799 0.950 . S
C805 C804 1.327 . S
C805 C809 1.429 . S
C806 C789 1.574 . S
C806 H800 0.949 . S
C806 C810 1.368 1_554 S
C807 C788 1.429 1_554 S
C807 C801 1.429 . S
C807 C808 1.523 1_554 S
C808 C789 1.368 1_556 S
C808 C802 1.368 . S
C808 C807 1.523 1_556 S
C809 C793 1.429 . S
C809 C805 1.429 . S
C809 C810 1.523 . S
C810 C794 1.368 . S
C810 C806 1.368 1_556 S
C810 C809 1.523 . S
H811 C786 0.950 . S
H812 C788 0.950 . S
H813 C789 0.949 . S
H814 C791 0.950 . S
H815 C793 0.950 1_554 S
C816 C817 1.349 . S
C816 C818 1.327 . S
C816 H841 0.950 . S
C817 C816 1.349 . S
C817 C833 1.349 . S
C818 C816 1.327 . S
C818 C837 1.429 . S
C818 H842 0.950 . S
C819 C836 1.574 . S
C819 C838 1.368 . S
C819 H843 0.949 . S
H820 C824 0.949 . S
C821 C822 1.349 . S
C821 C823 1.327 . S
C821 H844 0.950 . S
C822 C821 1.349 . S
C822 C834 1.349 . S
C823 C821 1.327 . S
C823 C839 1.429 . S
C823 H845 0.950 . S
C824 H820 0.949 . S
C824 C832 1.574 . S
C824 C840 1.368 . S
H825 C833 0.950 . S
H826 C831 0.950 . S
H827 C832 0.949 . S
H828 C834 0.950 . S
H829 C835 0.950 . S
H830 C836 0.949 . S
C831 H826 0.950 . S
C831 C833 1.327 . S
C831 C837 1.429 . S
C832 C824 1.574 . S
C832 H827 0.949 . S
C832 C838 1.368 . S
C833 C817 1.349 . S
C833 H825 0.950 . S
C833 C831 1.327 . S
C834 C822 1.349 . S
C834 H828 0.950 . S
C834 C835 1.327 . S
C835 H829 0.950 . S
C835 C834 1.327 . S
C835 C839 1.429 . S
C836 C819 1.574 . S
C836 H830 0.949 . S
C836 C840 1.368 . S
C837 C818 1.429 . S
C837 C831 1.429 . S
C837 C838 1.523 . S
C838 C819 1.368 . S
C838 C832 1.368 . S
C838 C837 1.523 . S
C839 C823 1.429 . S
C839 C835 1.429 . S
C839 C840 1.523 . S
C840 C824 1.368 . S
C840 C836 1.368 . S
C840 C839 1.523 . S
H841 C816 0.950 . S
H842 C818 0.950 . S
H843 C819 0.949 . S
H844 C821 0.950 . S
H845 C823 0.950 . S
C846 C847 1.349 . S
C846 C848 1.327 . S
C846 H871 0.950 1_554 S
C847 C846 1.349 . S
C847 C863 1.349 . S
C848 C846 1.327 . S
C848 C867 1.429 . S
C848 H872 0.950 1_554 S
C849 C866 1.574 . S
C849 C868 1.368 . S
C849 H873 0.949 . S
H850 C854 0.949 . S
C851 C852 1.349 . S
C851 C853 1.327 . S
C851 H874 0.950 . S
C852 C851 1.349 . S
C852 C864 1.349 1_554 S
C853 C851 1.327 . S
C853 C869 1.429 . S
C853 H875 0.950 . S
C854 H850 0.949 . S
C854 C862 1.574 . S
C854 C870 1.368 1_556 S
H855 C863 0.950 . S
H856 C861 0.950 . S
H857 C862 0.949 . S
H858 C864 0.950 . S
H859 C865 0.950 . S
H860 C866 0.949 . S
C861 H856 0.950 . S
C861 C863 1.327 . S
C861 C867 1.429 . S
C862 C854 1.574 . S
C862 H857 0.949 . S
C862 C868 1.368 1_556 S
C863 C847 1.349 . S
C863 H855 0.950 . S
C863 C861 1.327 . S
C864 C852 1.349 1_556 S
C864 H858 0.950 . S
C864 C865 1.327 . S
C865 H859 0.950 . S
C865 C864 1.327 . S
C865 C869 1.429 1_556 S
C866 C849 1.574 . S
C866 H860 0.949 . S
C866 C870 1.368 . S
C867 C848 1.429 . S
C867 C861 1.429 . S
C867 C868 1.523 . S
C868 C849 1.368 . S
C868 C862 1.368 1_554 S
C868 C867 1.523 . S
C869 C853 1.429 . S
C869 C865 1.429 1_554 S
C869 C870 1.523 . S
C870 C854 1.368 1_554 S
C870 C866 1.368 . S
C870 C869 1.523 . S
H871 C846 0.950 1_556 S
H872 C848 0.950 1_556 S
H873 C849 0.949 . S
H874 C851 0.950 . S
H875 C853 0.950 . S
C876 C877 1.349 . S
C876 C878 1.327 . S
C876 H901 0.950 . S
C877 C876 1.349 . S
C877 C893 1.349 . S
C878 C876 1.327 . S
C878 C897 1.429 . S
C878 H902 0.950 . S
C879 C896 1.574 . S
C879 C898 1.368 . S
C879 H903 0.949 . S
H880 C884 0.949 . S
C881 C882 1.349 1_655 S
C881 C883 1.327 . S
C881 H904 0.950 . S
C882 C881 1.349 1_455 S
C882 C894 1.336 1_455 S
C883 C881 1.327 . S
C883 C899 1.429 . S
C883 H905 0.950 . S
C884 H880 0.949 . S
C884 C892 1.574 . S
C884 C900 1.368 . S
H885 C893 0.950 . S
H886 C891 0.950 . S
H887 C892 0.949 . S
H888 C894 0.927 1_455 S
H889 C895 0.950 . S
H890 C896 0.949 . S
C891 H886 0.950 . S
C891 C893 1.327 . S
C891 C897 1.429 . S
C892 C884 1.574 . S
C892 H887 0.949 . S
C892 C898 1.368 . S
C893 C877 1.349 . S
C893 H885 0.950 . S
C893 C891 1.327 . S
C894 C882 1.336 1_655 S
C894 H888 0.927 1_655 S
C894 C895 1.365 . S
C895 H889 0.950 . S
C895 C894 1.365 . S
C895 C899 1.429 . S
C896 C879 1.574 . S
C896 H890 0.949 . S
C896 C900 1.368 . S
C897 C878 1.429 . S
C897 C891 1.429 . S
C897 C898 1.523 . S
C898 C879 1.368 . S
C898 C892 1.368 . S
C898 C897 1.523 . S
C899 C883 1.429 . S
C899 C895 1.429 . S
C899 C900 1.523 . S
C900 C884 1.368 . S
C900 C896 1.368 . S
C900 C899 1.523 . S
H901 C876 0.950 . S
H902 C878 0.950 . S
H903 C879 0.949 . S
H904 C881 0.950 . S
H905 C883 0.950 . S
C906 C907 1.349 . S
C906 C908 1.327 . S
C906 H931 0.950 . S
C907 C906 1.349 . S
C907 C923 1.349 . S
C908 C906 1.327 . S
C908 C927 1.429 . S
C908 H932 0.950 . S
C909 C926 1.574 . S
C909 C928 1.368 . S
C909 H933 0.949 . S
H910 C914 0.949 . S
C911 C912 1.349 . S
C911 C913 1.327 . S
C911 H934 0.950 . S
C912 C911 1.349 . S
C912 C924 1.349 . S
C913 C911 1.327 . S
C913 C929 1.429 . S
C913 H935 0.950 . S
C914 H910 0.949 . S
C914 C922 1.574 . S
C914 C930 1.368 . S
H915 C923 0.950 . S
H916 C921 0.950 . S
H917 C922 0.949 . S
H918 C924 0.950 . S
H919 C925 0.950 . S
H920 C926 0.949 . S
C921 H916 0.950 . S
C921 C923 1.327 . S
C921 C927 1.429 . S
C922 C914 1.574 . S
C922 H917 0.949 . S
C922 C928 1.368 . S
C923 C907 1.349 . S
C923 H915 0.950 . S
C923 C921 1.327 . S
C924 C912 1.349 . S
C924 H918 0.950 . S
C924 C925 1.327 . S
C925 H919 0.950 . S
C925 C924 1.327 . S
C925 C929 1.429 . S
C926 C909 1.574 . S
C926 H920 0.949 . S
C926 C930 1.368 . S
C927 C908 1.429 . S
C927 C921 1.429 . S
C927 C928 1.523 . S
C928 C909 1.368 . S
C928 C922 1.368 . S
C928 C927 1.523 . S
C929 C913 1.429 . S
C929 C925 1.429 . S
C929 C930 1.523 . S
C930 C914 1.368 . S
C930 C926 1.368 . S
C930 C929 1.523 . S
H931 C906 0.950 . S
H932 C908 0.950 . S
H933 C909 0.949 . S
H934 C911 0.950 . S
H935 C913 0.950 . S
C936 C937 1.349 . S
C936 C938 1.327 . S
C936 H961 0.950 . S
C937 C936 1.349 . S
C937 C953 1.349 . S
C938 C936 1.327 . S
C938 C957 1.429 . S
C938 H962 0.950 . S
C939 C956 1.574 . S
C939 C958 1.368 . S
C939 H963 0.949 . S
H940 C944 0.949 . S
C941 C942 1.349 . S
C941 C943 1.327 . S
C941 H964 0.950 . S
C942 C941 1.349 . S
C942 C954 1.349 . S
C943 C941 1.327 . S
C943 C959 1.429 . S
C943 H965 0.950 . S
C944 H940 0.949 . S
C944 C952 1.574 . S
C944 C960 1.368 . S
H945 C953 0.950 . S
H946 C951 0.950 . S
H947 C952 0.949 . S
H948 C954 0.950 . S
H949 C955 0.950 . S
H950 C956 0.949 . S
C951 H946 0.950 . S
C951 C953 1.327 . S
C951 C957 1.429 . S
C952 C944 1.574 . S
C952 H947 0.949 . S
C952 C958 1.368 . S
C953 C937 1.349 . S
C953 H945 0.950 . S
C953 C951 1.327 . S
C954 C942 1.349 . S
C954 H948 0.950 . S
C954 C955 1.327 . S
C955 H949 0.950 . S
C955 C954 1.327 . S
C955 C959 1.429 . S
C956 C939 1.574 . S
C956 H950 0.949 . S
C956 C960 1.368 . S
C957 C938 1.429 . S
C957 C951 1.429 . S
C957 C958 1.523 . S
C958 C939 1.368 . S
C958 C952 1.368 . S
C958 C957 1.523 . S
C959 C943 1.429 . S
C959 C955 1.429 . S
C959 C960 1.523 . S
C960 C944 1.368 . S
C960 C956 1.368 . S
C960 C959 1.523 . S
H961 C936 0.950 . S
H962 C938 0.950 . S
H963 C939 0.949 . S
H964 C941 0.950 . S
H965 C943 0.950 . S
C966 C967 1.349 . S
C966 C968 1.327 . S
C966 H991 0.950 . S
C967 C966 1.349 . S
C967 C983 1.349 . S
C968 C966 1.327 . S
C968 C987 1.429 . S
C968 H992 0.950 . S
C969 C986 1.574 . S
C969 C988 1.368 . S
C969 H993 0.949 . S
H970 C974 0.949 . S
C971 C972 1.349 . S
C971 C973 1.327 . S
C971 H994 0.950 . S
C972 C971 1.349 . S
C972 C984 1.349 . S
C973 C971 1.327 . S
C973 C989 1.429 . S
C973 H995 0.950 . S
C974 H970 0.949 . S
C974 C982 1.574 . S
C974 C990 1.368 . S
H975 C983 0.950 . S
H976 C981 0.950 . S
H977 C982 0.949 . S
H978 C984 0.950 . S
H979 C985 0.950 . S
H980 C986 0.949 . S
C981 H976 0.950 . S
C981 C983 1.327 . S
C981 C987 1.429 . S
C982 C974 1.574 . S
C982 H977 0.949 . S
C982 C988 1.368 . S
C983 C967 1.349 . S
C983 H975 0.950 . S
C983 C981 1.327 . S
C984 C972 1.349 . S
C984 H978 0.950 . S
C984 C985 1.327 . S
C985 H979 0.950 . S
C985 C984 1.327 . S
C985 C989 1.429 . S
C986 C969 1.574 . S
C986 H980 0.949 . S
C986 C990 1.368 . S
C987 C968 1.429 . S
C987 C981 1.429 . S
C987 C988 1.523 . S
C988 C969 1.368 . S
C988 C982 1.368 . S
C988 C987 1.523 . S
C989 C973 1.429 . S
C989 C985 1.429 . S
C989 C990 1.523 . S
C990 C974 1.368 . S
C990 C986 1.368 . S
C990 C989 1.523 . S
H991 C966 0.950 . S
H992 C968 0.950 . S
H993 C969 0.949 . S
H994 C971 0.950 . S
H995 C973 0.950 . S
C996 C997 1.349 . S
C996 C998 1.327 . S
C996 H1021 0.950 . S
C997 C996 1.349 . S
C997 C1013 1.349 . S
C998 C996 1.327 . S
C998 C1017 1.429 . S
C998 H1022 0.950 . S
C999 C1016 1.574 . S
C999 C1018 1.368 . S
C999 H1023 0.949 . S
H1000 C1004 0.949 1_565 S
C1001 C1002 1.349 . S
C1001 C1003 1.327 1_565 S
C1001 H1024 0.950 . S
C1002 C1001 1.349 . S
C1002 C1014 1.349 . S
C1003 C1001 1.327 1_545 S
C1003 C1019 1.429 . S
C1003 H1025 0.950 . S
C1004 H1000 0.949 1_545 S
C1004 C1012 1.574 . S
C1004 C1020 1.368 . S
H1005 C1013 0.950 . S
H1006 C1011 0.950 . S
H1007 C1012 0.949 . S
H1008 C1014 0.950 . S
H1009 C1015 0.950 . S
H1010 C1016 0.949 . S
C1011 H1006 0.950 . S
C1011 C1013 1.327 . S
C1011 C1017 1.429 . S
C1012 C1004 1.574 . S
C1012 H1007 0.949 . S
C1012 C1018 1.368 . S
C1013 C997 1.349 . S
C1013 H1005 0.950 . S
C1013 C1011 1.327 . S
C1014 C1002 1.349 . S
C1014 H1008 0.950 . S
C1014 C1015 1.327 . S
C1015 H1009 0.950 . S
C1015 C1014 1.327 . S
C1015 C1019 1.423 1_565 S
C1016 C999 1.574 . S
C1016 H1010 0.949 . S
C1016 C1020 1.368 . S
C1017 C998 1.429 . S
C1017 C1011 1.429 . S
C1017 C1018 1.523 . S
C1018 C999 1.368 . S
C1018 C1012 1.368 . S
C1018 C1017 1.523 . S
C1019 C1003 1.429 . S
C1019 C1015 1.423 1_545 S
C1019 C1020 1.527 . S
C1020 C1004 1.368 . S
C1020 C1016 1.368 . S
C1020 C1019 1.527 . S
H1021 C996 0.950 . S
H1022 C998 0.950 . S
H1023 C999 0.949 . S
H1024 C1001 0.950 . S
H1025 C1003 0.950 . S
C1026 C1027 1.349 . S
C1026 C1028 1.327 . S
C1026 H1051 0.950 . S
C1027 C1026 1.349 . S
C1027 C1043 1.349 . S
C1028 C1026 1.327 . S
C1028 C1047 1.429 . S
C1028 H1052 0.950 . S
C1029 C1046 1.574 . S
C1029 C1048 1.368 . S
C1029 H1053 0.949 . S
H1030 C1034 0.949 . S
C1031 C1032 1.349 . S
C1031 C1033 1.327 . S
C1031 H1054 0.950 . S
C1032 C1031 1.349 . S
C1032 C1044 1.349 . S
C1033 C1031 1.327 . S
C1033 C1049 1.429 . S
C1033 H1055 0.950 . S
C1034 H1030 0.949 . S
C1034 C1042 1.574 . S
C1034 C1050 1.368 . S
H1035 C1043 0.950 . S
H1036 C1041 0.950 . S
H1037 C1042 0.949 . S
H1038 C1044 0.950 . S
H1039 C1045 0.950 . S
H1040 C1046 0.949 . S
C1041 H1036 0.950 . S
C1041 C1043 1.327 . S
C1041 C1047 1.429 . S
C1042 C1034 1.574 . S
C1042 H1037 0.949 . S
C1042 C1048 1.368 . S
C1043 C1027 1.349 . S
C1043 H1035 0.950 . S
C1043 C1041 1.327 . S
C1044 C1032 1.349 . S
C1044 H1038 0.950 . S
C1044 C1045 1.327 . S
C1045 H1039 0.950 . S
C1045 C1044 1.327 . S
C1045 C1049 1.429 . S
C1046 C1029 1.574 . S
C1046 H1040 0.949 . S
C1046 C1050 1.368 . S
C1047 C1028 1.429 . S
C1047 C1041 1.429 . S
C1047 C1048 1.523 . S
C1048 C1029 1.368 . S
C1048 C1042 1.368 . S
C1048 C1047 1.523 . S
C1049 C1033 1.429 . S
C1049 C1045 1.429 . S
C1049 C1050 1.523 . S
C1050 C1034 1.368 . S
C1050 C1046 1.368 . S
C1050 C1049 1.523 . S
H1051 C1026 0.950 . S
H1052 C1028 0.950 . S
H1053 C1029 0.949 . S
H1054 C1031 0.950 . S
H1055 C1033 0.950 . S
C1056 C1057 1.349 . S
C1056 C1058 1.327 . S
C1056 H1081 0.950 . S
C1057 C1056 1.349 . S
C1057 C1073 1.349 . S
C1058 C1056 1.327 . S
C1058 C1077 1.429 . S
C1058 H1082 0.950 . S
C1059 C1076 1.574 1_565 S
C1059 C1078 1.368 . S
C1059 H1083 0.949 . S
H1060 C1064 0.949 . S
C1061 C1062 1.349 . S
C1061 C1063 1.327 . S
C1061 H1084 0.950 . S
C1062 C1061 1.349 . S
C1062 C1074 1.349 . S
C1063 C1061 1.327 . S
C1063 C1079 1.429 . S
C1063 H1085 0.950 . S
C1064 H1060 0.949 . S
C1064 C1072 1.574 1_545 S
C1064 C1080 1.368 . S
H1065 C1073 0.950 1_556 S
H1066 C1071 0.950 1_556 S
H1067 C1072 0.949 . S
H1068 C1074 0.950 . S
H1069 C1075 0.950 . S
H1070 C1076 0.949 . S
C1071 H1066 0.950 1_554 S
C1071 C1073 1.327 . S
C1071 C1077 1.429 . S
C1072 C1064 1.574 1_565 S
C1072 H1067 0.949 . S
C1072 C1078 1.368 . S
C1073 C1057 1.349 . S
C1073 H1065 0.950 1_554 S
C1073 C1071 1.327 . S
C1074 C1062 1.349 . S
C1074 H1068 0.950 . S
C1074 C1075 1.327 . S
C1075 H1069 0.950 . S
C1075 C1074 1.327 . S
C1075 C1079 1.429 . S
C1076 C1059 1.574 1_545 S
C1076 H1070 0.949 . S
C1076 C1080 1.368 . S
C1077 C1058 1.429 . S
C1077 C1071 1.429 . S
C1077 C1078 1.523 . S
C1078 C1059 1.368 . S
C1078 C1072 1.368 . S
C1078 C1077 1.523 . S
C1079 C1063 1.429 . S
C1079 C1075 1.429 . S
C1079 C1080 1.523 . S
C1080 C1064 1.368 . S
C1080 C1076 1.368 . S
C1080 C1079 1.523 . S
H1081 C1056 0.950 . S
H1082 C1058 0.950 . S
H1083 C1059 0.949 . S
H1084 C1061 0.950 . S
H1085 C1063 0.950 . S
C1086 C1087 1.349 . S
C1086 C1088 1.327 . S
C1086 H1111 0.950 . S
C1087 C1086 1.349 . S
C1087 C1103 1.349 . S
C1088 C1086 1.327 . S
C1088 C1107 1.386 1_655 S
C1088 H1112 0.950 . S
C1089 C1106 1.574 . S
C1089 C1108 1.368 . S
C1089 H1113 0.949 . S
H1090 C1094 0.949 1_556 S
C1091 C1092 1.349 . S
C1091 C1093 1.327 . S
C1091 H1114 0.950 . S
C1092 C1091 1.349 . S
C1092 C1104 1.349 1_554 S
C1093 C1091 1.327 . S
C1093 C1109 1.429 . S
C1093 H1115 0.950 . S
C1094 H1090 0.949 1_554 S
C1094 C1102 1.574 . S
C1094 C1110 1.368 . S
H1095 C1103 0.950 . S
H1096 C1101 0.950 1_455 S
H1097 C1102 0.949 . S
H1098 C1104 0.950 . S
H1099 C1105 0.950 . S
H1100 C1106 0.949 . S
C1101 H1096 0.950 1_655 S
C1101 C1103 1.327 . S
C1101 C1107 1.438 1_655 S
C1102 C1094 1.574 . S
C1102 H1097 0.949 . S
C1102 C1108 1.368 . S
C1103 C1087 1.349 . S
C1103 H1095 0.950 . S
C1103 C1101 1.327 . S
C1104 C1092 1.349 1_556 S
C1104 H1098 0.950 . S
C1104 C1105 1.327 . S
C1105 H1099 0.950 . S
C1105 C1104 1.327 . S
C1105 C1109 1.429 1_556 S
C1106 C1089 1.574 . S
C1106 H1100 0.949 . S
C1106 C1110 1.368 . S
C1107 C1088 1.386 1_455 S
C1107 C1101 1.438 1_455 S
C1107 C1108 1.554 . S
C1108 C1089 1.368 . S
C1108 C1102 1.368 . S
C1108 C1107 1.554 . S
C1109 C1093 1.429 . S
C1109 C1105 1.429 1_554 S
C1109 C1110 1.523 . S
C1110 C1094 1.368 . S
C1110 C1106 1.368 . S
C1110 C1109 1.523 . S
H1111 C1086 0.950 . S
H1112 C1088 0.950 . S
H1113 C1089 0.949 . S
H1114 C1091 0.950 . S
H1115 C1093 0.950 . S
C1116 C1117 1.349 . S
C1116 C1118 1.327 . S
C1116 H1141 0.950 1_554 S
C1117 C1116 1.349 . S
C1117 C1133 1.349 . S
C1118 C1116 1.327 . S
C1118 C1137 1.429 . S
C1118 H1142 0.950 1_554 S
C1119 C1136 1.574 . S
C1119 C1138 1.368 . S
C1119 H1143 0.949 . S
H1120 C1124 0.949 . S
C1121 C1122 1.349 . S
C1121 C1123 1.327 . S
C1121 H1144 0.950 . S
C1122 C1121 1.349 . S
C1122 C1134 1.349 . S
C1123 C1121 1.327 . S
C1123 C1139 1.429 . S
C1123 H1145 0.950 . S
C1124 H1120 0.949 . S
C1124 C1132 1.574 . S
C1124 C1140 1.368 . S
H1125 C1133 0.950 . S
H1126 C1131 0.950 . S
H1127 C1132 0.949 . S
H1128 C1134 0.950 . S
H1129 C1135 0.950 . S
H1130 C1136 0.949 . S
C1131 H1126 0.950 . S
C1131 C1133 1.327 . S
C1131 C1137 1.429 . S
C1132 C1124 1.574 . S
C1132 H1127 0.949 . S
C1132 C1138 1.368 . S
C1133 C1117 1.349 . S
C1133 H1125 0.950 . S
C1133 C1131 1.327 . S
C1134 C1122 1.349 . S
C1134 H1128 0.950 . S
C1134 C1135 1.327 . S
C1135 H1129 0.950 . S
C1135 C1134 1.327 . S
C1135 C1139 1.429 . S
C1136 C1119 1.574 . S
C1136 H1130 0.949 . S
C1136 C1140 1.368 . S
C1137 C1118 1.429 . S
C1137 C1131 1.429 . S
C1137 C1138 1.523 . S
C1138 C1119 1.368 . S
C1138 C1132 1.368 . S
C1138 C1137 1.523 . S
C1139 C1123 1.429 . S
C1139 C1135 1.429 . S
C1139 C1140 1.523 . S
C1140 C1124 1.368 . S
C1140 C1136 1.368 . S
C1140 C1139 1.523 . S
H1141 C1116 0.950 1_556 S
H1142 C1118 0.950 1_556 S
H1143 C1119 0.949 . S
H1144 C1121 0.950 . S
H1145 C1123 0.950 . S
C1146 C1147 1.349 . S
C1146 C1148 1.327 . S
C1146 H1171 0.950 . S
C1147 C1146 1.349 . S
C1147 C1163 1.349 . S
C1148 C1146 1.327 . S
C1148 C1167 1.429 . S
C1148 H1172 0.950 . S
C1149 C1166 1.574 . S
C1149 C1168 1.368 . S
C1149 H1173 0.949 1_554 S
H1150 C1154 0.949 . S
C1151 C1152 1.349 1_556 S
C1151 C1153 1.327 . S
C1151 H1174 0.950 . S
C1152 C1151 1.349 1_554 S
C1152 C1164 1.349 . S
C1153 C1151 1.327 . S
C1153 C1169 1.429 1_556 S
C1153 H1175 0.950 . S
C1154 H1150 0.949 . S
C1154 C1162 1.574 . S
C1154 C1170 1.368 . S
H1155 C1163 0.950 . S
H1156 C1161 0.950 . S
H1157 C1162 0.949 . S
H1158 C1164 0.950 . S
H1159 C1165 0.950 . S
H1160 C1166 0.949 1_556 S
C1161 H1156 0.950 . S
C1161 C1163 1.327 . S
C1161 C1167 1.429 . S
C1162 C1154 1.574 . S
C1162 H1157 0.949 . S
C1162 C1168 1.368 . S
C1163 C1147 1.349 . S
C1163 H1155 0.950 . S
C1163 C1161 1.327 . S
C1164 C1152 1.349 . S
C1164 H1158 0.950 . S
C1164 C1165 1.327 . S
C1165 H1159 0.950 . S
C1165 C1164 1.327 . S
C1165 C1169 1.429 . S
C1166 C1149 1.574 . S
C1166 H1160 0.949 1_554 S
C1166 C1170 1.368 . S
C1167 C1148 1.429 . S
C1167 C1161 1.429 . S
C1167 C1168 1.523 . S
C1168 C1149 1.368 . S
C1168 C1162 1.368 . S
C1168 C1167 1.523 . S
C1169 C1153 1.429 1_554 S
C1169 C1165 1.429 . S
C1169 C1170 1.523 . S
C1170 C1154 1.368 . S
C1170 C1166 1.368 . S
C1170 C1169 1.523 . S
H1171 C1146 0.950 . S
H1172 C1148 0.950 . S
H1173 C1149 0.949 1_556 S
H1174 C1151 0.950 . S
H1175 C1153 0.950 . S
C1176 C1177 1.349 . S
C1176 C1178 1.327 . S
C1176 H1201 0.950 . S
C1177 C1176 1.349 . S
C1177 C1193 1.349 . S
C1178 C1176 1.327 . S
C1178 C1197 1.429 . S
C1178 H1202 0.950 . S
C1179 C1196 1.574 . S
C1179 C1198 1.368 . S
C1179 H1203 0.949 . S
H1180 C1184 0.949 . S
C1181 C1182 1.349 1_556 S
C1181 C1183 1.327 . S
C1181 H1204 0.950 . S
C1182 C1181 1.349 1_554 S
C1182 C1194 1.349 . S
C1183 C1181 1.327 . S
C1183 C1199 1.429 1_556 S
C1183 H1205 0.950 . S
C1184 H1180 0.949 . S
C1184 C1192 1.574 . S
C1184 C1200 1.368 . S
H1185 C1193 0.950 . S
H1186 C1191 0.950 . S
H1187 C1192 0.949 . S
H1188 C1194 0.950 . S
H1189 C1195 0.950 . S
H1190 C1196 0.949 1_556 S
C1191 H1186 0.950 . S
C1191 C1193 1.327 . S
C1191 C1197 1.429 . S
C1192 C1184 1.574 . S
C1192 H1187 0.949 . S
C1192 C1198 1.368 . S
C1193 C1177 1.349 . S
C1193 H1185 0.950 . S
C1193 C1191 1.327 . S
C1194 C1182 1.349 . S
C1194 H1188 0.950 . S
C1194 C1195 1.327 . S
C1195 H1189 0.950 . S
C1195 C1194 1.327 . S
C1195 C1199 1.429 . S
C1196 C1179 1.574 . S
C1196 H1190 0.949 1_554 S
C1196 C1200 1.368 . S
C1197 C1178 1.429 . S
C1197 C1191 1.429 . S
C1197 C1198 1.523 . S
C1198 C1179 1.368 . S
C1198 C1192 1.368 . S
C1198 C1197 1.523 . S
C1199 C1183 1.429 1_554 S
C1199 C1195 1.429 . S
C1199 C1200 1.523 . S
C1200 C1184 1.368 . S
C1200 C1196 1.368 . S
C1200 C1199 1.523 . S
H1201 C1176 0.950 . S
H1202 C1178 0.950 . S
H1203 C1179 0.949 . S
H1204 C1181 0.950 . S
H1205 C1183 0.950 . S
C1206 C1207 1.349 . S
C1206 C1208 1.327 . S
C1206 H1231 0.950 . S
C1207 C1206 1.349 . S
C1207 C1223 1.349 . S
C1208 C1206 1.327 . S
C1208 C1227 1.429 . S
C1208 H1232 0.950 . S
C1209 C1226 1.574 . S
C1209 C1228 1.368 . S
C1209 H1233 0.949 . S
H1210 C1214 0.949 . S
C1211 C1212 1.349 . S
C1211 C1213 1.327 . S
C1211 H1234 0.950 . S
C1212 C1211 1.349 . S
C1212 C1224 1.349 . S
C1213 C1211 1.327 . S
C1213 C1229 1.429 . S
C1213 H1235 0.950 . S
C1214 H1210 0.949 . S
C1214 C1222 1.574 . S
C1214 C1230 1.368 . S
H1215 C1223 0.950 . S
H1216 C1221 0.950 . S
H1217 C1222 0.949 . S
H1218 C1224 0.950 . S
H1219 C1225 0.950 . S
H1220 C1226 0.949 . S
C1221 H1216 0.950 . S
C1221 C1223 1.327 . S
C1221 C1227 1.429 . S
C1222 C1214 1.574 . S
C1222 H1217 0.949 . S
C1222 C1228 1.368 . S
C1223 C1207 1.349 . S
C1223 H1215 0.950 . S
C1223 C1221 1.327 . S
C1224 C1212 1.349 . S
C1224 H1218 0.950 . S
C1224 C1225 1.327 . S
C1225 H1219 0.950 . S
C1225 C1224 1.327 . S
C1225 C1229 1.429 . S
C1226 C1209 1.574 . S
C1226 H1220 0.949 . S
C1226 C1230 1.368 . S
C1227 C1208 1.429 . S
C1227 C1221 1.429 . S
C1227 C1228 1.523 . S
C1228 C1209 1.368 . S
C1228 C1222 1.368 . S
C1228 C1227 1.523 . S
C1229 C1213 1.429 . S
C1229 C1225 1.429 . S
C1229 C1230 1.523 . S
C1230 C1214 1.368 . S
C1230 C1226 1.368 . S
C1230 C1229 1.523 . S
H1231 C1206 0.950 . S
H1232 C1208 0.950 . S
H1233 C1209 0.949 . S
H1234 C1211 0.950 . S
H1235 C1213 0.950 . S
C1236 C1237 1.349 . S
C1236 C1238 1.327 . S
C1236 H1261 0.950 . S
C1237 C1236 1.349 . S
C1237 C1253 1.349 . S
C1238 C1236 1.327 . S
C1238 C1257 1.429 . S
C1238 H1262 0.950 . S
C1239 C1256 1.574 . S
C1239 C1258 1.368 . S
C1239 H1263 0.949 . S
H1240 C1244 0.949 . S
C1241 C1242 1.349 . S
C1241 C1243 1.327 . S
C1241 H1264 0.950 . S
C1242 C1241 1.349 . S
C1242 C1254 1.349 . S
C1243 C1241 1.327 . S
C1243 C1259 1.429 . S
C1243 H1265 0.950 . S
C1244 H1240 0.949 . S
C1244 C1252 1.574 . S
C1244 C1260 1.368 . S
H1245 C1253 0.950 . S
H1246 C1251 0.950 . S
H1247 C1252 0.949 . S
H1248 C1254 0.950 . S
H1249 C1255 0.950 . S
H1250 C1256 0.949 . S
C1251 H1246 0.950 . S
C1251 C1253 1.327 . S
C1251 C1257 1.429 . S
C1252 C1244 1.574 . S
C1252 H1247 0.949 . S
C1252 C1258 1.368 . S
C1253 C1237 1.349 . S
C1253 H1245 0.950 . S
C1253 C1251 1.327 . S
C1254 C1242 1.349 . S
C1254 H1248 0.950 . S
C1254 C1255 1.327 . S
C1255 H1249 0.950 . S
C1255 C1254 1.327 . S
C1255 C1259 1.429 . S
C1256 C1239 1.574 . S
C1256 H1250 0.949 . S
C1256 C1260 1.368 . S
C1257 C1238 1.429 . S
C1257 C1251 1.429 . S
C1257 C1258 1.523 . S
C1258 C1239 1.368 . S
C1258 C1252 1.368 . S
C1258 C1257 1.523 . S
C1259 C1243 1.429 . S
C1259 C1255 1.429 . S
C1259 C1260 1.523 . S
C1260 C1244 1.368 . S
C1260 C1256 1.368 . S
C1260 C1259 1.523 . S
H1261 C1236 0.950 . S
H1262 C1238 0.950 . S
H1263 C1239 0.949 . S
H1264 C1241 0.950 . S
H1265 C1243 0.950 . S
C1266 C1267 1.349 . S
C1266 C1268 1.327 . S
C1266 H1291 0.950 . S
C1267 C1266 1.349 . S
C1267 C1283 1.349 . S
C1268 C1266 1.327 . S
C1268 C1287 1.429 . S
C1268 H1292 0.950 . S
C1269 C1286 1.574 . S
C1269 C1288 1.368 . S
C1269 H1293 0.949 . S
H1270 C1274 0.949 . S
C1271 C1272 1.349 . S
C1271 C1273 1.327 . S
C1271 H1294 0.950 . S
C1272 C1271 1.349 . S
C1272 C1284 1.349 . S
C1273 C1271 1.327 . S
C1273 C1289 1.429 . S
C1273 H1295 0.950 . S
C1274 H1270 0.949 . S
C1274 C1282 1.574 . S
C1274 C1290 1.368 . S
H1275 C1283 0.950 . S
H1276 C1281 0.950 . S
H1277 C1282 0.949 . S
H1278 C1284 0.950 . S
H1279 C1285 0.950 . S
H1280 C1286 0.949 . S
C1281 H1276 0.950 . S
C1281 C1283 1.327 . S
C1281 C1287 1.429 . S
C1282 C1274 1.574 . S
C1282 H1277 0.949 . S
C1282 C1288 1.368 . S
C1283 C1267 1.349 . S
C1283 H1275 0.950 . S
C1283 C1281 1.327 . S
C1284 C1272 1.349 . S
C1284 H1278 0.950 . S
C1284 C1285 1.327 . S
C1285 H1279 0.950 . S
C1285 C1284 1.327 . S
C1285 C1289 1.429 . S
C1286 C1269 1.574 . S
C1286 H1280 0.949 . S
C1286 C1290 1.368 . S
C1287 C1268 1.429 . S
C1287 C1281 1.429 . S
C1287 C1288 1.523 . S
C1288 C1269 1.368 . S
C1288 C1282 1.368 . S
C1288 C1287 1.523 . S
C1289 C1273 1.429 . S
C1289 C1285 1.429 . S
C1289 C1290 1.523 . S
C1290 C1274 1.368 . S
C1290 C1286 1.368 . S
C1290 C1289 1.523 . S
H1291 C1266 0.950 . S
H1292 C1268 0.950 . S
H1293 C1269 0.949 . S
H1294 C1271 0.950 . S
H1295 C1273 0.950 . S
C1296 C1297 1.349 . S
C1296 C1298 1.327 . S
C1296 H1321 0.950 . S
C1297 C1296 1.349 . S
C1297 C1313 1.349 . S
C1298 C1296 1.327 . S
C1298 C1317 1.429 . S
C1298 H1322 0.950 . S
C1299 C1316 1.574 . S
C1299 C1318 1.368 . S
C1299 H1323 0.949 . S
H1300 C1304 0.949 . S
C1301 C1302 1.349 . S
C1301 C1303 1.327 . S
C1301 H1324 0.950 . S
C1302 C1301 1.349 . S
C1302 C1314 1.349 . S
C1303 C1301 1.327 . S
C1303 C1319 1.429 . S
C1303 H1325 0.950 . S
C1304 H1300 0.949 . S
C1304 C1312 1.574 . S
C1304 C1320 1.368 . S
H1305 C1313 0.950 . S
H1306 C1311 0.950 . S
H1307 C1312 0.949 . S
H1308 C1314 0.950 . S
H1309 C1315 0.950 . S
H1310 C1316 0.949 . S
C1311 H1306 0.950 . S
C1311 C1313 1.327 . S
C1311 C1317 1.429 . S
C1312 C1304 1.574 . S
C1312 H1307 0.949 . S
C1312 C1318 1.368 . S
C1313 C1297 1.349 . S
C1313 H1305 0.950 . S
C1313 C1311 1.327 . S
C1314 C1302 1.349 . S
C1314 H1308 0.950 . S
C1314 C1315 1.327 . S
C1315 H1309 0.950 . S
C1315 C1314 1.327 . S
C1315 C1319 1.429 . S
C1316 C1299 1.574 . S
C1316 H1310 0.949 . S
C1316 C1320 1.368 . S
C1317 C1298 1.429 . S
C1317 C1311 1.429 . S
C1317 C1318 1.523 . S
C1318 C1299 1.368 . S
C1318 C1312 1.368 . S
C1318 C1317 1.523 . S
C1319 C1303 1.429 . S
C1319 C1315 1.429 . S
C1319 C1320 1.523 . S
C1320 C1304 1.368 . S
C1320 C1316 1.368 . S
C1320 C1319 1.523 . S
H1321 C1296 0.950 . S
H1322 C1298 0.950 . S
H1323 C1299 0.949 . S
H1324 C1301 0.950 . S
H1325 C1303 0.950 . S
C1326 C1327 1.349 . S
C1326 C1328 1.327 . S
C1326 H1351 0.950 . S
C1327 C1326 1.349 . S
C1327 C1343 1.349 . S
C1328 C1326 1.327 . S
C1328 C1347 1.429 . S
C1328 H1352 0.950 . S
C1329 C1346 1.574 . S
C1329 C1348 1.368 . S
C1329 H1353 0.949 . S
H1330 C1334 0.949 . S
C1331 C1332 1.349 . S
C1331 C1333 1.327 . S
C1331 H1354 0.950 . S
C1332 C1331 1.349 . S
C1332 C1344 1.349 . S
C1333 C1331 1.327 . S
C1333 C1349 1.429 . S
C1333 H1355 0.950 . S
C1334 H1330 0.949 . S
C1334 C1342 1.574 . S
C1334 C1350 1.368 . S
H1335 C1343 0.950 . S
H1336 C1341 0.950 . S
H1337 C1342 0.949 . S
H1338 C1344 0.950 . S
H1339 C1345 0.950 . S
H1340 C1346 0.949 . S
C1341 H1336 0.950 . S
C1341 C1343 1.327 . S
C1341 C1347 1.429 . S
C1342 C1334 1.574 . S
C1342 H1337 0.949 . S
C1342 C1348 1.368 . S
C1343 C1327 1.349 . S
C1343 H1335 0.950 . S
C1343 C1341 1.327 . S
C1344 C1332 1.349 . S
C1344 H1338 0.950 . S
C1344 C1345 1.327 . S
C1345 H1339 0.950 . S
C1345 C1344 1.327 . S
C1345 C1349 1.429 . S
C1346 C1329 1.574 . S
C1346 H1340 0.949 . S
C1346 C1350 1.368 . S
C1347 C1328 1.429 . S
C1347 C1341 1.429 . S
C1347 C1348 1.523 . S
C1348 C1329 1.368 . S
C1348 C1342 1.368 . S
C1348 C1347 1.523 . S
C1349 C1333 1.429 . S
C1349 C1345 1.429 . S
C1349 C1350 1.523 . S
C1350 C1334 1.368 . S
C1350 C1346 1.368 . S
C1350 C1349 1.523 . S
H1351 C1326 0.950 . S
H1352 C1328 0.950 . S
H1353 C1329 0.949 . S
H1354 C1331 0.950 . S
H1355 C1333 0.950 . S
C1356 C1357 1.349 . S
C1356 C1358 1.327 . S
C1356 H1381 0.950 . S
C1357 C1356 1.349 . S
C1357 C1373 1.349 1_545 S
C1358 C1356 1.327 . S
C1358 C1377 1.429 . S
C1358 H1382 0.950 . S
C1359 C1376 1.574 . S
C1359 C1378 1.368 1_565 S
C1359 H1383 0.949 . S
H1360 C1364 0.949 . S
C1361 C1362 1.349 . S
C1361 C1363 1.327 . S
C1361 H1384 0.950 1_545 S
C1362 C1361 1.349 . S
C1362 C1374 1.349 . S
C1363 C1361 1.327 . S
C1363 C1379 1.429 . S
C1363 H1385 0.950 1_545 S
C1364 H1360 0.949 . S
C1364 C1372 1.574 . S
C1364 C1380 1.368 . S
H1365 C1373 0.950 . S
H1366 C1371 0.950 . S
H1367 C1372 0.949 . S
H1368 C1374 0.950 . S
H1369 C1375 0.950 . S
H1370 C1376 0.949 . S
C1371 H1366 0.950 . S
C1371 C1373 1.327 . S
C1371 C1377 1.429 1_565 S
C1372 C1364 1.574 . S
C1372 H1367 0.949 . S
C1372 C1378 1.368 . S
C1373 C1357 1.349 1_565 S
C1373 H1365 0.950 . S
C1373 C1371 1.327 . S
C1374 C1362 1.349 . S
C1374 H1368 0.950 . S
C1374 C1375 1.327 . S
C1375 H1369 0.950 . S
C1375 C1374 1.327 . S
C1375 C1379 1.429 . S
C1376 C1359 1.574 . S
C1376 H1370 0.949 . S
C1376 C1380 1.368 1_565 S
C1377 C1358 1.429 . S
C1377 C1371 1.429 1_545 S
C1377 C1378 1.523 . S
C1378 C1359 1.368 1_545 S
C1378 C1372 1.368 . S
C1378 C1377 1.523 . S
C1379 C1363 1.429 . S
C1379 C1375 1.429 . S
C1379 C1380 1.523 . S
C1380 C1364 1.368 . S
C1380 C1376 1.368 1_545 S
C1380 C1379 1.523 . S
H1381 C1356 0.950 . S
H1382 C1358 0.950 . S
H1383 C1359 0.949 . S
H1384 C1361 0.950 1_565 S
H1385 C1363 0.950 1_565 S
C1386 C1387 1.349 . S
C1386 C1388 1.327 . S
C1386 H1411 0.950 . S
C1387 C1386 1.349 . S
C1387 C1403 1.349 . S
C1388 C1386 1.327 . S
C1388 C1407 1.429 . S
C1388 H1412 0.950 . S
C1389 C1406 1.574 . S
C1389 C1408 1.368 . S
C1389 H1413 0.949 . S
H1390 C1394 0.949 . S
C1391 C1392 1.349 . S
C1391 C1393 1.327 . S
C1391 H1414 0.950 . S
C1392 C1391 1.349 . S
C1392 C1404 1.349 . S
C1393 C1391 1.327 . S
C1393 C1409 1.429 . S
C1393 H1415 0.950 . S
C1394 H1390 0.949 . S
C1394 C1402 1.574 . S
C1394 C1410 1.368 . S
H1395 C1403 0.950 . S
H1396 C1401 0.950 . S
H1397 C1402 0.949 . S
H1398 C1404 0.950 . S
H1399 C1405 0.950 . S
H1400 C1406 0.949 . S
C1401 H1396 0.950 . S
C1401 C1403 1.327 . S
C1401 C1407 1.429 . S
C1402 C1394 1.574 . S
C1402 H1397 0.949 . S
C1402 C1408 1.368 . S
C1403 C1387 1.349 . S
C1403 H1395 0.950 . S
C1403 C1401 1.327 . S
C1404 C1392 1.349 . S
C1404 H1398 0.950 . S
C1404 C1405 1.327 . S
C1405 H1399 0.950 . S
C1405 C1404 1.327 . S
C1405 C1409 1.429 . S
C1406 C1389 1.574 . S
C1406 H1400 0.949 . S
C1406 C1410 1.368 . S
C1407 C1388 1.429 . S
C1407 C1401 1.429 . S
C1407 C1408 1.523 . S
C1408 C1389 1.368 . S
C1408 C1402 1.368 . S
C1408 C1407 1.523 . S
C1409 C1393 1.429 . S
C1409 C1405 1.429 . S
C1409 C1410 1.523 . S
C1410 C1394 1.368 . S
C1410 C1406 1.368 . S
C1410 C1409 1.523 . S
H1411 C1386 0.950 . S
H1412 C1388 0.950 . S
H1413 C1389 0.949 . S
H1414 C1391 0.950 . S
H1415 C1393 0.950 . S
C1416 C1417 1.349 . S
C1416 C1418 1.327 . S
C1416 H1441 0.950 . S
C1417 C1416 1.349 . S
C1417 C1433 1.349 . S
C1418 C1416 1.327 . S
C1418 C1437 1.429 . S
C1418 H1442 0.950 . S
C1419 C1436 1.574 . S
C1419 C1438 1.368 . S
C1419 H1443 0.949 . S
H1420 C1424 0.949 . S
C1421 C1422 1.349 . S
C1421 C1423 1.327 . S
C1421 H1444 0.950 . S
C1422 C1421 1.349 . S
C1422 C1434 1.349 . S
C1423 C1421 1.327 . S
C1423 C1439 1.429 . S
C1423 H1445 0.950 . S
C1424 H1420 0.949 . S
C1424 C1432 1.574 . S
C1424 C1440 1.368 . S
H1425 C1433 0.950 . S
H1426 C1431 0.950 . S
H1427 C1432 0.949 . S
H1428 C1434 0.950 . S
H1429 C1435 0.950 . S
H1430 C1436 0.949 . S
C1431 H1426 0.950 . S
C1431 C1433 1.327 . S
C1431 C1437 1.429 . S
C1432 C1424 1.574 . S
C1432 H1427 0.949 . S
C1432 C1438 1.368 . S
C1433 C1417 1.349 . S
C1433 H1425 0.950 . S
C1433 C1431 1.327 . S
C1434 C1422 1.349 . S
C1434 H1428 0.950 . S
C1434 C1435 1.327 . S
C1435 H1429 0.950 . S
C1435 C1434 1.327 . S
C1435 C1439 1.429 . S
C1436 C1419 1.574 . S
C1436 H1430 0.949 . S
C1436 C1440 1.368 . S
C1437 C1418 1.429 . S
C1437 C1431 1.429 . S
C1437 C1438 1.523 . S
C1438 C1419 1.368 . S
C1438 C1432 1.368 . S
C1438 C1437 1.523 . S
C1439 C1423 1.429 . S
C1439 C1435 1.429 . S
C1439 C1440 1.523 . S
C1440 C1424 1.368 . S
C1440 C1436 1.368 . S
C1440 C1439 1.523 . S
H1441 C1416 0.950 . S
H1442 C1418 0.950 . S
H1443 C1419 0.949 . S
H1444 C1421 0.950 . S
H1445 C1423 0.950 . S
C1446 C1447 1.349 . S
C1446 C1448 1.327 . S
C1446 H1471 0.950 . S
C1447 C1446 1.349 . S
C1447 C1463 1.349 . S
C1448 C1446 1.327 . S
C1448 C1467 1.429 . S
C1448 H1472 0.950 . S
C1449 C1466 1.574 . S
C1449 C1468 1.368 . S
C1449 H1473 0.949 . S
H1450 C1454 0.949 . S
C1451 C1452 1.349 . S
C1451 C1453 1.327 . S
C1451 H1474 0.950 . S
C1452 C1451 1.349 . S
C1452 C1464 1.349 . S
C1453 C1451 1.327 . S
C1453 C1469 1.429 . S
C1453 H1475 0.950 . S
C1454 H1450 0.949 . S
C1454 C1462 1.574 . S
C1454 C1470 1.368 . S
H1455 C1463 0.950 . S
H1456 C1461 0.950 . S
H1457 C1462 0.949 . S
H1458 C1464 0.950 . S
H1459 C1465 0.950 . S
H1460 C1466 0.949 . S
C1461 H1456 0.950 . S
C1461 C1463 1.327 . S
C1461 C1467 1.429 . S
C1462 C1454 1.574 . S
C1462 H1457 0.949 . S
C1462 C1468 1.368 . S
C1463 C1447 1.349 . S
C1463 H1455 0.950 . S
C1463 C1461 1.327 . S
C1464 C1452 1.349 . S
C1464 H1458 0.950 . S
C1464 C1465 1.327 . S
C1465 H1459 0.950 . S
C1465 C1464 1.327 . S
C1465 C1469 1.429 . S
C1466 C1449 1.574 . S
C1466 H1460 0.949 . S
C1466 C1470 1.368 . S
C1467 C1448 1.429 . S
C1467 C1461 1.429 . S
C1467 C1468 1.523 . S
C1468 C1449 1.368 . S
C1468 C1462 1.368 . S
C1468 C1467 1.523 . S
C1469 C1453 1.429 . S
C1469 C1465 1.429 . S
C1469 C1470 1.523 . S
C1470 C1454 1.368 . S
C1470 C1466 1.368 . S
C1470 C1469 1.523 . S
H1471 C1446 0.950 . S
H1472 C1448 0.950 . S
H1473 C1449 0.949 . S
H1474 C1451 0.950 . S
H1475 C1453 0.950 . S
C1476 C1477 1.349 . S
C1476 C1478 1.327 . S
C1476 H1501 0.950 . S
C1477 C1476 1.349 . S
C1477 C1493 1.349 . S
C1478 C1476 1.327 . S
C1478 C1497 1.429 . S
C1478 H1502 0.950 . S
C1479 C1496 1.574 . S
C1479 C1498 1.368 . S
C1479 H1503 0.949 . S
H1480 C1484 0.949 . S
C1481 C1482 1.349 . S
C1481 C1483 1.327 1_556 S
C1481 H1504 0.950 . S
C1482 C1481 1.349 . S
C1482 C1494 1.349 . S
C1483 C1481 1.327 1_554 S
C1483 C1499 1.429 . S
C1483 H1505 0.950 . S
C1484 H1480 0.949 . S
C1484 C1492 1.574 . S
C1484 C1500 1.368 . S
H1485 C1493 0.950 . S
H1486 C1491 0.950 . S
H1487 C1492 0.949 . S
H1488 C1494 0.950 . S
H1489 C1495 0.950 . S
H1490 C1496 0.949 . S
C1491 H1486 0.950 . S
C1491 C1493 1.327 . S
C1491 C1497 1.429 . S
C1492 C1484 1.574 . S
C1492 H1487 0.949 . S
C1492 C1498 1.368 . S
C1493 C1477 1.349 . S
C1493 H1485 0.950 . S
C1493 C1491 1.327 . S
C1494 C1482 1.349 . S
C1494 H1488 0.950 . S
C1494 C1495 1.327 1_556 S
C1495 H1489 0.950 . S
C1495 C1494 1.327 1_554 S
C1495 C1499 1.429 . S
C1496 C1479 1.574 . S
C1496 H1490 0.949 . S
C1496 C1500 1.368 . S
C1497 C1478 1.429 . S
C1497 C1491 1.429 . S
C1497 C1498 1.523 . S
C1498 C1479 1.368 . S
C1498 C1492 1.368 . S
C1498 C1497 1.523 . S
C1499 C1483 1.429 . S
C1499 C1495 1.429 . S
C1499 C1500 1.523 . S
C1500 C1484 1.368 . S
C1500 C1496 1.368 . S
C1500 C1499 1.523 . S
H1501 C1476 0.950 . S
H1502 C1478 0.950 . S
H1503 C1479 0.949 . S
H1504 C1481 0.950 . S
H1505 C1483 0.950 . S
C1506 C1507 1.349 . S
C1506 C1508 1.327 . S
C1506 H1531 0.950 . S
C1507 C1506 1.349 . S
C1507 C1523 1.349 . S
C1508 C1506 1.327 . S
C1508 C1527 1.429 . S
C1508 H1532 0.950 . S
C1509 C1526 1.574 . S
C1509 C1528 1.368 . S
C1509 H1533 0.949 . S
H1510 C1514 0.949 . S
C1511 C1512 1.349 . S
C1511 C1513 1.327 . S
C1511 H1534 0.950 . S
C1512 C1511 1.349 . S
C1512 C1524 1.349 . S
C1513 C1511 1.327 . S
C1513 C1529 1.429 . S
C1513 H1535 0.950 . S
C1514 H1510 0.949 . S
C1514 C1522 1.574 . S
C1514 C1530 1.368 . S
H1515 C1523 0.950 . S
H1516 C1521 0.950 . S
H1517 C1522 0.949 . S
H1518 C1524 0.950 . S
H1519 C1525 0.950 . S
H1520 C1526 0.949 . S
C1521 H1516 0.950 . S
C1521 C1523 1.327 . S
C1521 C1527 1.429 . S
C1522 C1514 1.574 . S
C1522 H1517 0.949 . S
C1522 C1528 1.368 . S
C1523 C1507 1.349 . S
C1523 H1515 0.950 . S
C1523 C1521 1.327 . S
C1524 C1512 1.349 . S
C1524 H1518 0.950 . S
C1524 C1525 1.327 . S
C1525 H1519 0.950 . S
C1525 C1524 1.327 . S
C1525 C1529 1.429 . S
C1526 C1509 1.574 . S
C1526 H1520 0.949 . S
C1526 C1530 1.368 . S
C1527 C1508 1.429 . S
C1527 C1521 1.429 . S
C1527 C1528 1.523 . S
C1528 C1509 1.368 . S
C1528 C1522 1.368 . S
C1528 C1527 1.523 . S
C1529 C1513 1.429 . S
C1529 C1525 1.429 . S
C1529 C1530 1.523 . S
C1530 C1514 1.368 . S
C1530 C1526 1.368 . S
C1530 C1529 1.523 . S
H1531 C1506 0.950 . S
H1532 C1508 0.950 . S
H1533 C1509 0.949 . S
H1534 C1511 0.950 . S
H1535 C1513 0.950 . S
C1536 C1537 1.349 . S
C1536 C1538 1.327 . S
C1536 H1561 0.950 . S
C1537 C1536 1.349 . S
C1537 C1553 1.349 . S
C1538 C1536 1.327 . S
C1538 C1557 1.429 . S
C1538 H1562 0.950 . S
C1539 C1556 1.574 . S
C1539 C1558 1.368 . S
C1539 H1563 0.949 . S
H1540 C1544 0.949 . S
C1541 C1542 1.349 . S
C1541 C1543 1.327 . S
C1541 H1564 0.950 . S
C1542 C1541 1.349 . S
C1542 C1554 1.349 . S
C1543 C1541 1.327 . S
C1543 C1559 1.429 . S
C1543 H1565 0.950 . S
C1544 H1540 0.949 . S
C1544 C1552 1.574 . S
C1544 C1560 1.368 . S
H1545 C1553 0.950 . S
H1546 C1551 0.950 . S
H1547 C1552 0.949 . S
H1548 C1554 0.950 . S
H1549 C1555 0.950 . S
H1550 C1556 0.949 . S
C1551 H1546 0.950 . S
C1551 C1553 1.327 . S
C1551 C1557 1.429 . S
C1552 C1544 1.574 . S
C1552 H1547 0.949 . S
C1552 C1558 1.368 . S
C1553 C1537 1.349 . S
C1553 H1545 0.950 . S
C1553 C1551 1.327 . S
C1554 C1542 1.349 . S
C1554 H1548 0.950 . S
C1554 C1555 1.327 . S
C1555 H1549 0.950 . S
C1555 C1554 1.327 . S
C1555 C1559 1.429 . S
C1556 C1539 1.574 . S
C1556 H1550 0.949 . S
C1556 C1560 1.368 . S
C1557 C1538 1.429 . S
C1557 C1551 1.429 . S
C1557 C1558 1.523 . S
C1558 C1539 1.368 . S
C1558 C1552 1.368 . S
C1558 C1557 1.523 . S
C1559 C1543 1.429 . S
C1559 C1555 1.429 . S
C1559 C1560 1.523 . S
C1560 C1544 1.368 . S
C1560 C1556 1.368 . S
C1560 C1559 1.523 . S
H1561 C1536 0.950 . S
H1562 C1538 0.950 . S
H1563 C1539 0.949 . S
H1564 C1541 0.950 . S
H1565 C1543 0.950 . S
C757 C70 1.112 . S
C762 C658 1.124 . S
C787 C151 2.197 . S
C792 C739 2.199 . S
C817 C238 1.349 . S
C822 C571 1.530 . S
C847 C403 2.245 . S
C852 C235 2.255 . S
C877 C487 2.197 . S
C882 C67 2.194 . S
C907 C154 1.919 . S
C912 C319 2.155 . S
C937 C655 1.514 . S
C942 C490 1.381 . S
C967 C742 1.263 . S
C972 C322 1.279 . S
C997 C406 1.525 . S
C1002 C574 1.546 . S
C1027 C226 1.347 . S
C1032 C55 1.663 . S
C1057 C142 1.121 . S
C1062 C58 1.137 . S
C1087 C139 2.896 . S
C1092 C223 2.917 1_554 S
C1117 C310 1.562 . S
C1122 C475 1.961 . S
C1147 C307 2.001 . S
C1152 C394 1.633 . S
C1177 C391 1.880 . S
C1182 C478 1.452 . S
C1207 C730 1.714 . S
C1212 C559 2.197 . S
C1237 C646 0.767 . S
C1242 C562 0.769 . S
C1267 C727 2.016 . S
C1272 C643 2.008 . S
C1297 C56 1.392 . S
C1302 C68 1.392 . S
C1327 C152 1.408 . S
C1332 C140 1.408 . S
C1357 C224 1.439 . S
C1362 C236 1.439 . S
C1387 C308 1.413 . S
C1392 C320 1.413 1_556 S
C1417 C392 1.395 . S
C1422 C404 1.395 . S
C1447 C476 1.425 . S
C1452 C488 1.425 1_556 S
C1477 C560 1.395 . S
C1482 C572 1.395 . S
C1507 C644 1.388 1_554 S
C1512 C656 1.388 . S
C1537 C728 1.408 . S
C1542 C740 1.408 1_554 S
