# Generated by pormake.
# Topology zfe, (5)-cn, num edge types: 1
# Building blocks:
#     Node 0, Type 0, BuildingBlock: XOMCOT_clean_sbu_1, # of connection points: 5
#     Node 1, Type 0, BuildingBlock: XOMCOT_clean_sbu_1, # of connection points: 5
#     Node 2, Type 0, BuildingBlock: XOMCOT_clean_sbu_1, # of connection points: 5
#     Node 3, Type 0, BuildingBlock: XOMCOT_clean_sbu_1, # of connection points: 5
#     Node 4, Type 0, BuildingBlock: XOMCOT_clean_sbu_1, # of connection points: 5
#     Node 5, Type 0, BuildingBlock: XOMCOT_clean_sbu_1, # of connection points: 5
#     Node 6, Type 0, BuildingBlock: XOMCOT_clean_sbu_1, # of connection points: 5
#     Node 7, Type 0, BuildingBlock: XOMCOT_clean_sbu_1, # of connection points: 5
#     Node 8, Type 0, BuildingBlock: XOMCOT_clean_sbu_1, # of connection points: 5
#     Node 9, Type 0, BuildingBlock: XOMCOT_clean_sbu_1, # of connection points: 5
#     Node 10, Type 0, BuildingBlock: XOMCOT_clean_sbu_1, # of connection points: 5
#     Node 11, Type 0, BuildingBlock: XOMCOT_clean_sbu_1, # of connection points: 5
#     Node 12, Type 0, BuildingBlock: XOMCOT_clean_sbu_1, # of connection points: 5
#     Node 13, Type 0, BuildingBlock: XOMCOT_clean_sbu_1, # of connection points: 5
#     Node 14, Type 0, BuildingBlock: XOMCOT_clean_sbu_1, # of connection points: 5
#     Node 15, Type 0, BuildingBlock: XOMCOT_clean_sbu_1, # of connection points: 5
#     Edge 16, Type (0, 0), BuildingBlock: XUDNAN_clean_linker_2, # of connection points: 2
#     Edge 17, Type (0, 0), BuildingBlock: XUDNAN_clean_linker_2, # of connection points: 2
#     Edge 18, Type (0, 0), BuildingBlock: XUDNAN_clean_linker_2, # of connection points: 2
#     Edge 19, Type (0, 0), BuildingBlock: XUDNAN_clean_linker_2, # of connection points: 2
#     Edge 20, Type (0, 0), BuildingBlock: XUDNAN_clean_linker_2, # of connection points: 2
#     Edge 21, Type (0, 0), BuildingBlock: XUDNAN_clean_linker_2, # of connection points: 2
#     Edge 22, Type (0, 0), BuildingBlock: XUDNAN_clean_linker_2, # of connection points: 2
#     Edge 23, Type (0, 0), BuildingBlock: XUDNAN_clean_linker_2, # of connection points: 2
#     Edge 24, Type (0, 0), BuildingBlock: XUDNAN_clean_linker_2, # of connection points: 2
#     Edge 25, Type (0, 0), BuildingBlock: XUDNAN_clean_linker_2, # of connection points: 2
#     Edge 26, Type (0, 0), BuildingBlock: XUDNAN_clean_linker_2, # of connection points: 2
#     Edge 27, Type (0, 0), BuildingBlock: XUDNAN_clean_linker_2, # of connection points: 2
#     Edge 28, Type (0, 0), BuildingBlock: XUDNAN_clean_linker_2, # of connection points: 2
#     Edge 29, Type (0, 0), BuildingBlock: XUDNAN_clean_linker_2, # of connection points: 2
#     Edge 30, Type (0, 0), BuildingBlock: XUDNAN_clean_linker_2, # of connection points: 2
#     Edge 31, Type (0, 0), BuildingBlock: XUDNAN_clean_linker_2, # of connection points: 2
#     Edge 32, Type (0, 0), BuildingBlock: XUDNAN_clean_linker_2, # of connection points: 2
#     Edge 33, Type (0, 0), BuildingBlock: XUDNAN_clean_linker_2, # of connection points: 2
#     Edge 34, Type (0, 0), BuildingBlock: XUDNAN_clean_linker_2, # of connection points: 2
#     Edge 35, Type (0, 0), BuildingBlock: XUDNAN_clean_linker_2, # of connection points: 2
#     Edge 36, Type (0, 0), BuildingBlock: XUDNAN_clean_linker_2, # of connection points: 2
#     Edge 37, Type (0, 0), BuildingBlock: XUDNAN_clean_linker_2, # of connection points: 2
#     Edge 38, Type (0, 0), BuildingBlock: XUDNAN_clean_linker_2, # of connection points: 2
#     Edge 39, Type (0, 0), BuildingBlock: XUDNAN_clean_linker_2, # of connection points: 2
#     Edge 40, Type (0, 0), BuildingBlock: XUDNAN_clean_linker_2, # of connection points: 2
#     Edge 41, Type (0, 0), BuildingBlock: XUDNAN_clean_linker_2, # of connection points: 2
#     Edge 42, Type (0, 0), BuildingBlock: XUDNAN_clean_linker_2, # of connection points: 2
#     Edge 43, Type (0, 0), BuildingBlock: XUDNAN_clean_linker_2, # of connection points: 2
#     Edge 44, Type (0, 0), BuildingBlock: XUDNAN_clean_linker_2, # of connection points: 2
#     Edge 45, Type (0, 0), BuildingBlock: XUDNAN_clean_linker_2, # of connection points: 2
#     Edge 46, Type (0, 0), BuildingBlock: XUDNAN_clean_linker_2, # of connection points: 2
#     Edge 47, Type (0, 0), BuildingBlock: XUDNAN_clean_linker_2, # of connection points: 2
#     Edge 48, Type (0, 0), BuildingBlock: XUDNAN_clean_linker_2, # of connection points: 2
#     Edge 49, Type (0, 0), BuildingBlock: XUDNAN_clean_linker_2, # of connection points: 2
#     Edge 50, Type (0, 0), BuildingBlock: XUDNAN_clean_linker_2, # of connection points: 2
#     Edge 51, Type (0, 0), BuildingBlock: XUDNAN_clean_linker_2, # of connection points: 2
#     Edge 52, Type (0, 0), BuildingBlock: XUDNAN_clean_linker_2, # of connection points: 2
#     Edge 53, Type (0, 0), BuildingBlock: XUDNAN_clean_linker_2, # of connection points: 2
#     Edge 54, Type (0, 0), BuildingBlock: XUDNAN_clean_linker_2, # of connection points: 2
#     Edge 55, Type (0, 0), BuildingBlock: XUDNAN_clean_linker_2, # of connection points: 2
# Relax obj value: 0.182
# Max RMSD: 0.152
# Mean RMSD: 0.152
data_MOF--net-zfe--node1-XOMCOT_clean_sbu_1--edge1-XUDNAN_clean_linker_2
_symmetry_space_group_name_H-M    P1
_symmetry_Int_Tables_number       1
_symmetry_cell_setting            triclinic
loop_
_symmetry_equiv_pos_as_xyz
'x, y, z'
_cell_length_a     54.579744
_cell_length_b     54.561842
_cell_length_c     27.893101
_cell_angle_alpha  90.052585
_cell_angle_beta   90.1645
_cell_angle_gamma 89.82881
loop_
_atom_site_label
_atom_site_type_symbol
_atom_site_fract_x
_atom_site_fract_y
_atom_site_fract_z
_atom_type_partial_charge
C0 C 0.08528 0.23766 0.95866 0.0
C1 C 0.10239 0.25576 0.95194 0.0
N2 N 0.09533 0.27578 0.97674 0.0
N3 N 0.06757 0.24601 0.98811 0.0
C4 C 0.07393 0.26948 0.99774 0.0
H5 H 0.08593 0.21933 0.9439 0.0
Co6 Co 0.04067 0.22735 1.00842 0.0
C7 C 0.04294 0.25792 0.10231 0.0
O8 O 0.0666 0.25603 0.1092 0.0
N9 N 0.01285 0.20939 0.02904 0.0
C10 C 0.98563 0.19321 0.07923 0.0
C11 C 0.00659 0.20674 0.07571 0.0
C12 C 0.99548 0.19659 1.00486 0.0
N13 N 0.97869 0.18679 0.03482 0.0
O14 O 0.0204 0.24605 0.96356 0.0
H15 H 0.01707 0.21345 0.10586 0.0
H16 H 0.99523 0.19421 0.96636 0.0
O17 O 0.03319 0.24972 0.06355 0.0
C18 C 0.02384 0.23443 0.92407 0.0
O19 O 0.036 0.21362 0.92642 0.0
N20 N 0.06222 0.20605 0.04507 0.0
C21 C 0.09832 0.17052 0.06536 0.0
C22 C 0.10321 0.19549 0.07129 0.0
C23 C 0.08503 0.21289 0.06091 0.0
C24 C 0.05726 0.18151 0.04065 0.0
C25 C 0.0747 0.16361 0.0517 0.0
H26 H 0.09076 0.23171 0.06028 0.0
H27 H 0.04061 0.17521 0.02399 0.0
H28 H 0.06342 0.28152 0.02068 0.0
H29 H 0.11883 0.25423 0.93054 0.0
H30 H 0.97669 0.18758 0.11202 0.0
H31 H 0.12144 0.20163 0.08086 0.0
H32 H 0.07035 0.14453 0.04519 0.0
C33 C 0.73729 0.08369 0.94366 0.0
C34 C 0.71986 0.10143 0.9501 0.0
N35 N 0.71018 0.09858 0.99384 0.0
N36 N 0.73945 0.06977 0.98358 0.0
C37 C 0.72192 0.07901 1.01329 0.0
H38 H 0.74854 0.08191 0.91211 0.0
Co39 Co 0.76364 0.04425 0.98549 0.0
C40 C 0.74847 0.0379 0.08854 0.0
O41 O 0.75434 0.06082 0.09727 0.0
N42 N 0.78726 0.01906 0.98486 0.0
C43 C 0.82236 0.99967 0.97083 0.0
C44 C 0.80862 0.02019 0.9608 0.0
C45 C 0.78837 0.99758 1.00913 0.0
N46 N 0.80967 0.9855 1.00149 0.0
O47 O 0.74305 0.02473 0.94233 0.0
H48 H 0.81427 0.03551 0.93891 0.0
H49 H 0.77414 0.99113 0.03282 0.0
O50 O 0.74952 0.02973 0.04531 0.0
C51 C 0.75158 0.02927 0.90038 0.0
O52 O 0.77092 0.04348 0.89759 0.0
N53 N 0.7861 0.06435 0.02061 0.0
C54 C 0.82991 0.08858 0.04176 0.0
C55 C 0.82411 0.06653 0.0647 0.0
C56 C 0.80188 0.05486 0.0542 0.0
C57 C 0.79116 0.08655 1.00029 0.0
C58 C 0.81261 0.09917 1.01119 0.0
H59 H 0.79855 0.03706 0.06976 0.0
H60 H 0.78008 0.09371 0.97172 0.0
H61 H 0.71782 0.07196 0.04846 0.0
H62 H 0.71479 0.11558 0.9247 0.0
H63 H 0.84076 0.99604 0.95828 0.0
H64 H 0.83723 0.05771 0.0883 0.0
H65 H 0.81672 0.11594 0.99204 0.0
C66 C 0.9213 0.77473 0.03118 0.0
C67 C 0.90324 0.75758 0.02406 0.0
N68 N 0.90766 0.73852 0.05341 0.0
N69 N 0.93713 0.76656 0.06486 0.0
C70 C 0.92844 0.74425 0.07737 0.0
H71 H 0.92269 0.79226 1.01336 0.0
Co72 Co 0.96466 0.78453 0.08482 0.0
C73 C 0.95849 0.75666 0.18428 0.0
O74 O 0.935 0.75158 0.18508 0.0
N75 N 0.9924 0.80221 0.1064 0.0
C76 C 0.01567 0.82117 0.16052 0.0
C77 C 0.99265 0.81303 0.1501 0.0
C78 C 0.01584 0.80422 0.09078 0.0
N79 N 0.03029 0.81555 0.12349 0.0
O80 O 0.98545 0.76144 0.04978 0.0
H81 H 0.97723 0.81389 0.1743 0.0
H82 H 0.02251 0.79642 0.0576 0.0
O83 O 0.96771 0.7675 0.14776 0.0
C84 C 0.98423 0.77069 1.00737 0.0
O85 O 0.97338 0.79211 1.00269 0.0
N86 N 0.94363 0.80916 0.10913 0.0
C87 C 0.90859 0.84674 0.11024 0.0
C88 C 0.90453 0.82473 0.13519 0.0
C89 C 0.92233 0.80602 0.13399 0.0
C90 C 0.94816 0.83091 0.0868 0.0
C91 C 0.93129 0.85 0.0879 0.0
H92 H 0.9179 0.78845 0.14905 0.0
H93 H 0.96436 0.83301 0.06501 0.0
H94 H 0.93732 0.73218 0.10279 0.0
H95 H 0.88765 0.75928 1.00018 0.0
H96 H 0.02144 0.83001 0.19342 0.0
H97 H 0.88713 0.8213 0.15244 0.0
H98 H 0.93552 0.86676 0.0689 0.0
C99 C 0.24512 0.91449 1.00439 0.0
C100 C 0.26176 0.89681 0.99133 0.0
N101 N 0.28382 0.90311 1.009 0.0
N102 N 0.25648 0.93194 0.03047 0.0
C103 C 0.28023 0.92462 0.03224 0.0
H104 H 0.22585 0.91472 0.99525 0.0
Co105 Co 0.23975 0.96017 0.0513 0.0
C106 C 0.27538 0.95633 0.13977 0.0
O107 O 0.28232 0.93331 0.13754 0.0
N108 N 0.22289 0.98861 0.07254 0.0
C109 C 0.20322 0.01333 0.12316 0.0
C110 C 0.2161 0.99188 0.11872 0.0
C111 C 0.21412 0.00875 0.04964 0.0
N112 N 0.20195 0.02395 0.07978 0.0
O113 O 0.26004 0.97952 1.00873 0.0
H114 H 0.21991 0.97914 0.14752 0.0
H115 H 0.21603 0.012 1.01159 0.0
O116 O 0.26089 0.9652 0.10809 0.0
C117 C 0.24756 0.97753 0.96985 0.0
O118 O 0.22625 0.96641 0.97245 0.0
N119 N 0.2176 0.94034 0.08535 0.0
C120 C 0.18161 0.90586 0.10801 0.0
C121 C 0.20565 0.90339 0.12573 0.0
C122 C 0.22341 0.92086 0.1139 0.0
C123 C 0.19417 0.94336 0.06922 0.0
C124 C 0.17588 0.92674 0.08092 0.0
H125 H 0.24205 0.91746 0.12431 0.0
H126 H 0.18981 0.95812 0.0448 0.0
H127 H 0.29473 0.9351 0.04891 0.0
H128 H 0.25789 0.88035 0.97101 0.0
H129 H 0.19547 0.02066 0.15588 0.0
H130 H 0.21111 0.88741 0.14612 0.0
H131 H 0.15755 0.92989 0.06727 0.0
C132 C 0.09586 0.77719 0.6271 0.0
C133 C 0.11398 0.75983 0.63146 0.0
N134 N 0.10612 0.73894 0.61091 0.0
N135 N 0.07647 0.76741 0.60398 0.0
C136 C 0.08331 0.744 0.59424 0.0
H137 H 0.09636 0.7956 0.64148 0.0
Co138 Co 0.0463 0.78395 0.59825 0.0
C139 C 0.02027 0.75781 0.5188 0.0
O140 O 1.00167 0.75379 0.54753 0.0
N141 N 0.01605 0.80059 0.59359 0.0
C142 C 0.98082 0.81792 0.61474 0.0
C143 C 1.00114 0.80551 0.63085 0.0
C144 C 0.00462 0.8108 0.5552 0.0
N145 N 0.98292 0.82119 0.56707 0.0
O146 O 0.03099 0.75855 0.6379 0.0
H147 H 0.00494 0.80089 0.66771 0.0
H148 H 0.012 0.81047 0.51923 0.0
O149 O 0.03963 0.76788 0.53577 0.0
C150 C 0.03709 0.76318 0.68155 0.0
O151 O 0.05105 0.78228 0.68994 0.0
N152 N 0.06206 0.81001 0.56664 0.0
C153 C 0.09264 0.84935 0.54239 0.0
C154 C 0.09449 0.82662 0.51847 0.0
C155 C 0.07881 0.80723 0.53077 0.0
C156 C 0.05939 0.83209 0.58887 0.0
C157 C 0.07382 0.85206 0.57632 0.0
H158 H 0.08141 0.7895 0.51415 0.0
H159 H 0.04671 0.83405 0.61834 0.0
H160 H 0.07139 0.73062 0.57762 0.0
H161 H 0.13148 0.7622 0.64923 0.0
H162 H 0.96591 0.82458 0.63675 0.0
H163 H 0.10871 0.82325 0.49233 0.0
H164 H 0.07065 0.86923 0.5947 0.0
C165 C 0.28642 0.0748 0.60303 0.0
C166 C 0.30478 0.0914 0.5955 0.0
N167 N 0.30549 0.09694 0.54844 0.0
N168 N 0.27539 0.06944 0.56104 0.0
C169 C 0.28735 0.08331 0.52829 0.0
H170 H 0.28081 0.06803 0.63763 0.0
Co171 Co 0.24713 0.04985 0.55659 0.0
C172 C 0.2476 0.02628 0.45787 0.0
O173 O 0.22364 0.02434 0.45821 0.0
N174 N 0.2185 0.03023 0.55451 0.0
C175 C 0.18002 0.01773 0.56438 0.0
C176 C 0.1955 0.03756 0.56542 0.0
C177 C 0.21654 0.00564 0.54814 0.0
N178 N 0.19326 0.99776 0.55308 0.0
O179 O 0.26346 0.02436 0.59371 0.0
H180 H 0.19021 0.05607 0.57448 0.0
H181 H 0.23187 0.99377 0.53975 0.0
O182 O 0.25887 0.0364 0.49332 0.0
C183 C 0.25442 0.0266 0.6359 0.0
O184 O 0.23765 0.04354 0.64302 0.0
N185 N 0.23023 0.07628 0.52856 0.0
C186 C 0.19763 0.11514 0.51316 0.0
C187 C 0.20547 0.10029 0.47478 0.0
C188 C 0.22207 0.08098 0.48314 0.0
C189 C 0.22414 0.09159 0.56524 0.0
C190 C 0.20787 0.11093 0.55852 0.0
H191 H 0.22765 0.0698 0.45335 0.0
H192 H 0.23086 0.08778 0.60097 0.0
H193 H 0.2823 0.08391 0.49078 0.0
H194 H 0.31581 0.09972 0.62334 0.0
H195 H 0.16046 0.01798 0.57079 0.0
H196 H 0.19848 0.10324 0.43886 0.0
H197 H 0.20234 0.12154 0.58949 0.0
C198 C 0.92304 0.22102 0.54114 0.0
C199 C 0.90167 0.23347 0.55016 0.0
N200 N 0.90456 0.25705 0.53697 0.0
N201 N 0.93948 0.2364 0.52151 0.0
C202 C 0.92803 0.25849 0.52136 0.0
H203 H 0.92628 0.20176 0.54776 0.0
Co204 Co 0.97087 0.22597 0.50202 0.0
C205 C 0.95817 0.25944 0.41394 0.0
O206 O 0.93473 0.26271 0.42229 0.0
N207 N 1.00232 0.2153 0.48243 0.0
C208 C 0.03083 0.20023 0.43354 0.0
C209 C 0.00744 0.20922 0.43651 0.0
C210 C 0.0232 0.20995 0.50677 0.0
N211 N 0.04074 0.20062 0.47767 0.0
O212 O 0.98514 0.25068 0.54383 0.0
H213 H 0.99463 0.21047 0.40695 0.0
H214 H 0.02528 0.21192 0.54515 0.0
O215 O 0.97126 0.24704 0.44353 0.0
C216 C 0.98621 0.23962 0.58439 0.0
O217 O 0.97949 0.21652 0.58603 0.0
N218 N 0.95675 0.19958 0.46825 0.0
C219 C 0.93236 0.15667 0.44218 0.0
C220 C 0.92554 0.1793 0.4222 0.0
C221 C 0.93807 0.20063 0.43561 0.0
C222 C 0.9639 0.17761 0.48697 0.0
C223 C 0.95225 0.15594 0.47393 0.0
H224 H 0.93155 0.21793 0.42232 0.0
H225 H 0.97795 0.17701 0.51437 0.0
H226 H 0.93653 0.27515 0.50875 0.0
H227 H 0.88521 0.22557 0.56502 0.0
H228 H 0.03982 0.1937 0.40141 0.0
H229 H 0.91009 0.18062 0.39788 0.0
H230 H 0.95775 0.13898 0.49108 0.0
C231 C 0.77305 0.9122 0.53252 0.0
C232 C 0.75676 0.89333 0.53838 0.0
N233 N 0.73524 0.89993 0.51856 0.0
N234 N 0.76214 0.9307 0.5083 0.0
C235 C 0.73888 0.92276 0.50114 0.0
H236 H 0.79141 0.91243 0.54683 0.0
Co237 Co 0.77514 0.96213 0.4963 0.0
C238 C 0.75248 0.95011 0.39856 0.0
O239 O 0.75519 0.92636 0.40429 0.0
N240 N 0.78732 0.99375 0.48463 0.0
C241 C 0.78706 0.03276 0.46158 0.0
C242 C 0.77286 0.01266 0.47118 0.0
C243 C 0.81032 1.00294 0.48317 0.0
N244 N 0.81068 0.02665 0.46897 0.0
O245 O 0.74753 0.9761 0.53106 0.0
H246 H 0.75318 0.01166 0.46707 0.0
H247 H 0.82656 0.99247 0.49177 0.0
O248 O 0.75888 0.96465 0.43242 0.0
C249 C 0.75553 0.97912 0.57393 0.0
O250 O 0.77865 0.97418 0.58284 0.0
N251 N 0.80399 0.94807 0.47057 0.0
C252 C 0.84729 0.92134 0.45906 0.0
C253 C 0.8324 0.92676 0.41924 0.0
C254 C 0.81068 0.94041 0.42572 0.0
C255 C 0.81961 0.94483 0.50822 0.0
C256 C 0.8411 0.93144 0.50345 0.0
H257 H 0.79938 0.94423 0.39494 0.0
H258 H 0.81464 0.95171 0.54319 0.0
H259 H 0.7247 0.93381 0.48457 0.0
H260 H 0.76049 0.87609 0.55618 0.0
H261 H 0.78048 0.05024 0.44842 0.0
H262 H 0.83697 0.91974 0.38405 0.0
H263 H 0.85245 0.92831 0.53483 0.0
C264 C 0.58319 0.7551 0.60789 0.0
C265 C 0.60035 0.77342 0.60777 0.0
N266 N 0.60424 0.78035 0.56211 0.0
N267 N 0.57595 0.75035 0.56251 0.0
C268 C 0.58922 0.76605 0.53536 0.0
H269 H 0.57665 0.74574 0.63946 0.0
Co270 Co 0.55299 0.72613 0.54484 0.0
C271 C 0.52729 0.71485 0.63787 0.0
O272 O 0.52691 0.69155 0.62586 0.0
N273 N 0.52958 0.70211 0.52717 0.0
C274 C 0.51051 0.66844 0.50208 0.0
C275 C 0.5326 0.68048 0.50438 0.0
C276 C 0.50521 0.70318 0.53625 0.0
N277 N 0.49324 0.6826 0.52278 0.0
O278 O 0.53235 0.75041 0.51413 0.0
H279 H 0.54972 0.67338 0.49095 0.0
H280 H 0.4966 0.71855 0.55407 0.0
O281 O 0.53663 0.73046 0.60878 0.0
C282 C 0.53969 0.75063 0.47051 0.0
O283 O 0.55852 0.73688 0.4589 0.0
N284 N 0.5751 0.70177 0.56671 0.0
C285 C 0.60791 0.66244 0.57278 0.0
C286 C 0.59656 0.67174 0.61425 0.0
C287 C 0.58035 0.69179 0.61056 0.0
C288 C 0.58814 0.69459 0.52757 0.0
C289 C 0.60422 0.67483 0.52951 0.0
H290 H 0.57217 0.69894 0.64279 0.0
H291 H 0.58507 0.70352 0.49358 0.0
H292 H 0.58831 0.76673 0.4967 0.0
H293 H 0.60909 0.78116 0.63917 0.0
H294 H 0.50773 0.65017 0.48802 0.0
H295 H 0.59964 0.66321 0.6488 0.0
H296 H 0.61337 0.66901 0.497 0.0
C297 C 0.24203 0.59048 0.48027 0.0
C298 C 0.22413 0.60755 0.48879 0.0
N299 N 0.21566 0.60433 0.53361 0.0
N300 N 0.24507 0.57619 0.51924 0.0
C301 C 0.22883 0.58522 0.55161 0.0
H302 H 0.25251 0.58889 0.44762 0.0
Co303 Co 0.26837 0.55077 0.51829 0.0
C304 C 0.27226 0.53136 0.61857 0.0
O305 O 0.29607 0.5311 0.61166 0.0
N306 N 0.29204 0.52501 0.51431 0.0
C307 C 0.32543 0.50388 0.49396 0.0
C308 C 0.31349 0.52595 0.49029 0.0
C309 C 0.29104 0.50155 0.53061 0.0
N310 N 0.31145 0.48856 0.51974 0.0
O311 O 0.24486 0.52979 0.48464 0.0
H312 H 0.3202 0.54147 0.47048 0.0
H313 H 0.27576 0.49418 0.55051 0.0
O314 O 0.25816 0.53925 0.58468 0.0
C315 C 0.25011 0.53293 0.44017 0.0
O316 O 0.26936 0.54633 0.4301 0.0
N317 N 0.2921 0.5731 0.54224 0.0
C318 C 0.33177 0.60502 0.55477 0.0
C319 C 0.31775 0.59729 0.5943 0.0
C320 C 0.29744 0.5818 0.58708 0.0
C321 C 0.3037 0.58289 0.5036 0.0
C322 C 0.32361 0.59848 0.50891 0.0
H323 H 0.28638 0.57687 0.61753 0.0
H324 H 0.29786 0.57797 0.46789 0.0
H325 H 0.22666 0.57797 0.58744 0.0
H326 H 0.21833 0.62178 0.4642 0.0
H327 H 0.34336 0.49964 0.47961 0.0
H328 H 0.32264 0.60271 0.63042 0.0
H329 H 0.33267 0.60516 0.47701 0.0
C330 C 0.41955 0.2778 0.49011 0.0
C331 C 0.40229 0.26112 0.47541 0.0
N332 N 0.40911 0.23872 0.49087 0.0
N333 N 0.43716 0.26621 0.51546 0.0
C334 C 0.43057 0.24228 0.51442 0.0
H335 H 0.41915 0.29731 0.48325 0.0
Co336 Co 0.46444 0.28253 0.54155 0.0
C337 C 0.45566 0.2463 0.62772 0.0
O338 O 0.43311 0.23948 0.61825 0.0
N339 N 0.49182 0.2989 0.56877 0.0
C340 C 0.51286 0.31697 0.62731 0.0
C341 C 0.49266 0.30344 0.61645 0.0
C342 C 0.5121 0.31015 0.55131 0.0
N343 N 0.52505 0.32143 0.58653 0.0
O344 O 0.48557 0.26222 0.50101 0.0
H345 H 0.47877 0.29819 0.64197 0.0
H346 H 0.51663 0.31113 0.51362 0.0
O347 O 0.46675 0.26072 0.59884 0.0
C348 C 0.48565 0.27489 0.46214 0.0
O349 O 0.47489 0.29648 0.46333 0.0
N350 N 0.44322 0.30503 0.57258 0.0
C351 C 0.40802 0.34195 0.58517 0.0
C352 C 0.40464 0.31855 0.60525 0.0
C353 C 0.42252 0.30021 0.59835 0.0
C354 C 0.44724 0.32807 0.55544 0.0
C355 C 0.43022 0.34676 0.56202 0.0
H356 H 0.41863 0.28187 0.61011 0.0
H357 H 0.46305 0.33168 0.53335 0.0
H358 H 0.44139 0.22772 0.53021 0.0
H359 H 0.38562 0.26535 0.45596 0.0
H360 H 0.51787 0.32369 0.66254 0.0
H361 H 0.38768 0.31398 0.62315 0.0
H362 H 0.43393 0.3646 0.5467 0.0
C363 C 0.79319 0.44254 0.54141 0.0
C364 C 0.80992 0.42379 0.54496 0.0
N365 N 0.79948 0.40308 0.52839 0.0
N366 N 0.77205 0.43389 0.52299 0.0
C367 C 0.77644 0.40977 0.51519 0.0
H368 H 0.79632 0.46141 0.55155 0.0
Co369 Co 0.74449 0.45361 0.51096 0.0
C370 C 0.73617 0.48006 0.60472 0.0
O371 O 0.71238 0.47868 0.59791 0.0
N372 N 0.71725 0.47452 0.49841 0.0
C373 C 0.68066 0.491 0.48297 0.0
C374 C 0.69455 0.4699 0.48119 0.0
C375 C 0.71697 0.49894 0.50742 0.0
N376 N 0.69469 0.50921 0.50043 0.0
O377 O 0.76438 0.47554 0.47284 0.0
H378 H 0.68793 0.45234 0.46916 0.0
H379 H 0.7326 0.50876 0.52158 0.0
O380 O 0.75092 0.47113 0.57325 0.0
C381 C 0.76251 0.46632 0.43066 0.0
O382 O 0.75089 0.44537 0.42633 0.0
N383 N 0.72431 0.43019 0.5408 0.0
C384 C 0.68581 0.39975 0.56723 0.0
C385 C 0.70079 0.41071 0.6023 0.0
C386 C 0.72052 0.42541 0.58825 0.0
C387 C 0.71247 0.41661 0.50695 0.0
C388 C 0.69287 0.40161 0.51917 0.0
H389 H 0.73198 0.43347 0.61553 0.0
H390 H 0.71695 0.41904 0.46955 0.0
H391 H 0.7631 0.39749 0.49956 0.0
H392 H 0.82826 0.42535 0.5594 0.0
H393 H 0.66133 0.49243 0.4746 0.0
H394 H 0.69674 0.40868 0.64008 0.0
H395 H 0.68226 0.39316 0.49079 0.0
C396 C 0.59201 0.27508 0.06401 0.0
C397 C 0.60972 0.25717 0.06778 0.0
N398 N 0.59986 0.23562 0.05429 0.0
N399 N 0.57112 0.26505 0.04724 0.0
C400 C 0.57633 0.24087 0.04261 0.0
H401 H 0.59427 0.29427 0.07265 0.0
Co402 Co 0.54159 0.28195 0.03552 0.0
C403 C 0.54319 0.25125 0.93999 0.0
O404 O 0.56696 0.24836 0.93575 0.0
N405 N 0.51161 0.29828 0.02242 0.0
C406 C 0.48138 0.31467 0.9792 0.0
C407 C 0.50304 0.30208 0.97744 0.0
C408 C 0.49491 0.30946 0.051 0.0
N409 N 0.47629 0.31938 0.02533 0.0
O410 O 0.52484 0.25979 0.08002 0.0
H411 H 0.5124 0.29703 0.9448 0.0
H412 H 0.49666 0.31093 0.08955 0.0
O413 O 0.53428 0.26208 0.97692 0.0
C414 C 0.52876 0.27116 0.11978 0.0
O415 O 0.5417 0.29143 0.11783 0.0
N416 N 0.55879 0.30688 1.00161 0.0
C417 C 0.58959 0.34733 0.98591 0.0
C418 C 0.5934 0.32505 0.96143 0.0
C419 C 0.57778 0.30495 0.96991 0.0
C420 C 0.55448 0.3288 0.0238 0.0
C421 C 0.56905 0.34918 1.01557 0.0
H422 H 0.58258 0.28755 0.9546 0.0
H423 H 0.54069 0.33026 0.0513 0.0
H424 H 0.56324 0.22744 0.03004 0.0
H425 H 0.62839 0.25977 0.07993 0.0
H426 H 0.47087 0.32116 0.94873 0.0
H427 H 0.60921 0.32259 0.93856 0.0
H428 H 0.56488 0.36598 0.03461 0.0
C429 C 0.78546 0.56472 1.00097 0.0
C430 C 0.80279 0.58283 1.00162 0.0
N431 N 0.7945 0.6011 0.02937 0.0
N432 N 0.76554 0.57167 0.02655 0.0
C433 C 0.77221 0.59382 0.04492 0.0
H434 H 0.78795 0.54696 0.98449 0.0
Co435 Co 0.73858 0.54983 0.03811 0.0
C436 C 0.74553 0.54492 0.93288 0.0
O437 O 0.74399 0.56893 0.93034 0.0
N438 N 0.71312 0.52765 0.04958 0.0
C439 C 0.67994 0.50991 0.07962 0.0
C440 C 0.69555 0.52968 0.08318 0.0
C441 C 0.70797 0.50646 0.02636 0.0
N442 N 0.68773 0.49534 0.04361 0.0
O443 O 0.76075 0.52816 0.07199 0.0
H444 H 0.69404 0.54477 0.10819 0.0
H445 H 0.71893 0.49914 0.99745 0.0
O446 O 0.74432 0.5343 0.97392 0.0
C447 C 0.76196 0.53776 0.11392 0.0
O448 O 0.75013 0.55839 0.12162 0.0
N449 N 0.71517 0.57216 1.0131 0.0
C450 C 0.67456 0.6032 1.00124 0.0
C451 C 0.67735 0.5822 0.97257 0.0
C452 C 0.69767 0.56673 0.97945 0.0
C453 C 0.71207 0.59201 0.04212 0.0
C454 C 0.69243 0.60808 0.03599 0.0
H455 H 0.69847 0.54968 0.95976 0.0
H456 H 0.72354 0.59429 0.0732 0.0
H457 H 0.76172 0.60409 0.0708 0.0
H458 H 0.82075 0.58206 0.98525 0.0
H459 H 0.66378 0.50685 0.10116 0.0
H460 H 0.66354 0.57733 0.94631 0.0
H461 H 0.69034 0.62324 0.06076 0.0
C462 C 0.42045 0.7522 0.11864 0.0
C463 C 0.40567 0.7723 0.11273 0.0
N464 N 0.40882 0.78101 0.06802 0.0
N465 N 0.43318 0.74807 0.07811 0.0
C466 C 0.42557 0.76586 0.04752 0.0
H467 H 0.42143 0.74091 0.1504 0.0
Co468 Co 0.45474 0.72143 0.07408 0.0
C469 C 0.47074 0.7167 0.9738 0.0
O470 O 0.46557 0.69345 0.98047 0.0
N471 N 0.47714 0.69433 0.07222 0.0
C472 C 0.49596 0.65808 0.07626 0.0
C473 C 0.47433 0.67044 0.08379 0.0
C474 C 0.50102 0.69596 0.05921 0.0
N475 N 0.5128 0.67409 0.06036 0.0
O476 O 0.47898 0.74007 0.1103 0.0
H477 H 0.45788 0.6621 0.09724 0.0
H478 H 0.50933 0.71292 0.04768 0.0
O479 O 0.46705 0.73195 1.00853 0.0
C480 C 0.47538 0.7322 0.15311 0.0
O481 O 0.46013 0.71384 0.15846 0.0
N482 N 0.42892 0.70294 0.04761 0.0
C483 C 0.38707 0.67514 0.02847 0.0
C484 C 0.39608 0.69169 0.99423 0.0
C485 C 0.4167 0.70604 1.00511 0.0
C486 C 0.41911 0.68846 0.08222 0.0
C487 C 0.39881 0.67392 0.07311 0.0
H488 H 0.42245 0.71981 0.97977 0.0
H489 H 0.42712 0.6882 0.11763 0.0
H490 H 0.43199 0.76755 1.011 0.0
H491 H 0.39286 0.77939 0.13888 0.0
H492 H 0.49901 0.63876 0.08273 0.0
H493 H 0.38699 0.69393 0.95994 0.0
H494 H 0.39259 0.66166 0.10101 0.0
C495 C 0.25222 0.41271 0.06486 0.0
C496 C 0.23653 0.39393 0.0541 0.0
N497 N 0.21685 0.40331 0.03133 0.0
N498 N 0.24284 0.43402 0.04837 0.0
C499 C 0.22105 0.42775 0.02851 0.0
H500 H 0.26912 0.41099 0.08491 0.0
Co501 Co 0.25727 0.46491 0.0591 0.0
C502 C 0.26461 0.48117 0.957 0.0
O503 O 0.28781 0.48427 0.96821 0.0
N504 N 0.27119 0.49615 0.0719 0.0
C505 C 0.288 0.52676 0.11356 0.0
C506 C 0.27953 0.5031 0.11552 0.0
C507 C 0.27328 0.51674 0.04509 0.0
N508 N 0.28426 0.53523 0.0689 0.0
O509 O 0.227 0.47753 0.08582 0.0
H510 H 0.27926 0.49177 0.1473 0.0
H511 H 0.26617 0.51889 1.00932 0.0
O512 O 0.24943 0.47462 0.99 0.0
C513 C 0.22663 0.46881 0.12863 0.0
O514 O 0.2429 0.45201 0.14006 0.0
N515 N 0.28823 0.45137 0.04278 0.0
C516 C 0.33382 0.42761 0.04005 0.0
C517 C 0.31758 0.42622 1.00082 0.0
C518 C 0.29452 0.43773 1.00342 0.0
C519 C 0.30327 0.45144 0.08182 0.0
C520 C 0.32604 0.44013 0.08107 0.0
H521 H 0.28159 0.43523 0.9744 0.0
H522 H 0.29698 0.45881 0.11532 0.0
H523 H 0.20836 0.44087 1.01319 0.0
H524 H 0.23892 0.37493 0.06428 0.0
H525 H 0.29676 0.53671 0.14246 0.0
H526 H 0.3224 0.41608 0.96883 0.0
H527 H 0.33695 0.44029 0.11356 0.0
H528 H 0.14469 0.28141 0.97242 0.0
H529 H 0.07689 0.32138 0.99467 0.0
H530 H 0.10051 0.35969 1.00586 0.0
H531 H 0.1793 0.31236 0.06029 0.0
H532 H 0.20734 0.3119 0.02631 0.0
H533 H 0.18486 0.28828 1.01733 0.0
H534 H 0.18346 0.2983 0.92653 0.0
H535 H 0.20593 0.32202 0.93525 0.0
H536 H 0.17695 0.32921 0.90742 0.0
H537 H 0.13249 0.39376 1.01668 0.0
H538 H 0.16943 0.41915 0.03118 0.0
H539 H 0.21548 0.35618 1.00121 0.0
C540 C 0.1347 0.29825 0.97875 0.0
C541 C 0.10886 0.29836 0.98223 0.0
C542 C 0.09665 0.32078 0.99201 0.0
C543 C 0.10992 0.34267 0.99809 0.0
C544 C 0.13542 0.34185 0.99439 0.0
C545 C 0.14762 0.32012 0.98511 0.0
C546 C 0.1751 0.32368 0.98522 0.0
C547 C 0.18736 0.30814 0.02464 0.0
C548 C 0.18599 0.31797 0.93565 0.0
C549 C 0.17657 0.35075 0.99653 0.0
C550 C 0.15356 0.36108 1.00124 0.0
C551 C 0.15057 0.38583 1.0128 0.0
C552 C 0.17163 0.40018 0.02068 0.0
C553 C 0.19533 0.38965 1.01744 0.0
C554 C 0.19763 0.36473 1.00433 0.0
H555 H 0.71218 0.14776 0.99672 0.0
H556 H 0.66712 0.08587 0.03556 0.0
H557 H 0.63337 0.1144 0.05827 0.0
H558 H 0.69065 0.1891 0.09297 0.0
H559 H 0.69247 0.21568 0.05484 0.0
H560 H 0.71307 0.19025 0.04569 0.0
H561 H 0.69882 0.18731 0.95717 0.0
H562 H 0.67796 0.21248 0.96616 0.0
H563 H 0.66669 0.18359 0.94397 0.0
H564 H 0.603 0.15056 0.06754 0.0
H565 H 0.58093 0.19037 0.07158 0.0
H566 H 0.64724 0.22798 0.02958 0.0
C567 C 0.69535 0.14031 1.011 0.0
C568 C 0.69215 0.11471 1.01466 0.0
C569 C 0.66993 0.10546 0.03317 0.0
C570 C 0.65069 0.12154 0.04576 0.0
C571 C 0.65421 0.14678 0.04034 0.0
C572 C 0.67627 0.15605 0.02431 0.0
C573 C 0.67555 0.18373 0.02076 0.0
C574 C 0.69403 0.19538 0.05565 0.0
C575 C 0.68001 0.19226 0.96894 0.0
C576 C 0.64945 0.18873 0.03614 0.0
C577 C 0.6373 0.16726 0.04715 0.0
C578 C 0.61253 0.16744 0.05971 0.0
C579 C 0.60007 0.1901 0.06158 0.0
C580 C 0.61242 0.2123 0.05141 0.0
C581 C 0.63743 0.21141 0.03854 0.0
H582 H 0.81879 0.63134 0.9699 0.0
H583 H 0.80214 0.61839 0.11929 0.0
H584 H 0.83042 0.652 0.14272 0.0
H585 H 0.88176 0.64499 0.98304 0.0
H586 H 0.88202 0.66898 0.93865 0.0
H587 H 0.86018 0.64442 0.93399 0.0
H588 H 0.82445 0.67579 0.93231 0.0
H589 H 0.8462 0.70048 0.93628 0.0
H590 H 0.8219 0.69816 0.97966 0.0
H591 H 0.86358 0.68499 0.14912 0.0
H592 H 0.89369 0.71851 0.13774 0.0
H593 H 0.88598 0.71157 0.98384 0.0
C594 C 0.82093 0.63587 1.00747 0.0
C595 C 0.80837 0.62243 0.04291 0.0
C596 C 0.81146 0.62874 0.09175 0.0
C597 C 0.82761 0.64762 0.10526 0.0
C598 C 0.84014 0.66024 0.06937 0.0
C599 C 0.83652 0.65494 0.02139 0.0
C600 C 0.85166 0.67152 0.98963 0.0
C601 C 0.86998 0.65658 0.95956 0.0
C602 C 0.83506 0.68743 0.95759 0.0
C603 C 0.86467 0.68681 0.02712 0.0
C604 C 0.8581 0.67983 0.07296 0.0
C605 C 0.8686 0.69075 0.11336 0.0
C606 C 0.8858 0.70959 0.10665 0.0
C607 C 0.89201 0.71758 0.05999 0.0
C608 C 0.88136 0.70589 0.01987 0.0
H609 H 0.3166 0.89329 0.07977 0.0
H610 H 0.29994 0.87909 0.93054 0.0
H611 H 0.33421 0.84938 0.92653 0.0
H612 H 0.3847 0.88503 0.07186 0.0
H613 H 0.38609 0.86988 0.12921 0.0
H614 H 0.363 0.89288 0.11803 0.0
H615 H 0.32922 0.86183 0.14115 0.0
H616 H 0.35214 0.83875 0.15211 0.0
H617 H 0.32763 0.83283 0.11026 0.0
H618 H 0.36748 0.81791 0.94124 0.0
H619 H 0.39563 0.7865 0.97439 0.0
H620 H 0.39026 0.82075 0.1143 0.0
C621 C 0.3208 0.88452 0.04593 0.0
C622 C 0.30591 0.88869 1.00525 0.0
C623 C 0.31128 0.87622 0.96196 0.0
C624 C 0.33075 0.85939 0.95934 0.0
C625 C 0.3447 0.85512 1.00044 0.0
C626 C 0.34 0.86739 0.04294 0.0
C627 C 0.356 0.85761 0.08316 0.0
C628 C 0.37349 0.87754 0.10164 0.0
C629 C 0.34031 0.84713 0.12406 0.0
C630 C 0.36985 0.83752 0.05704 0.0
C631 C 0.36342 0.83662 1.00917 0.0
C632 C 0.3729 0.81868 0.97856 0.0
C633 C 0.38898 0.80094 0.9976 0.0
C634 C 0.39517 0.80107 0.04693 0.0
C635 C 0.38582 0.82001 0.07651 0.0
H636 H 0.11285 0.70786 0.53568 0.0
H637 H 0.13006 0.71874 0.68574 0.0
H638 H 0.15684 0.68211 0.68466 0.0
H639 H 0.11504 0.63943 0.53624 0.0
H640 H 0.12942 0.63811 0.47819 0.0
H641 H 0.10894 0.66302 0.49254 0.0
H642 H 0.14294 0.6942 0.47147 0.0
H643 H 0.16351 0.66943 0.45725 0.0
H644 H 0.17226 0.69206 0.50114 0.0
H645 H 0.18471 0.64629 0.66544 0.0
H646 H 0.21251 0.6157 0.62852 0.0
H647 H 0.17782 0.62843 0.4907 0.0
C648 C 0.12173 0.70201 0.5685 0.0
C649 C 0.11921 0.71592 0.61096 0.0
C650 C 0.13172 0.70824 0.65295 0.0
C651 C 0.14689 0.68742 0.6527 0.0
C652 C 0.14952 0.67439 0.61002 0.0
C653 C 0.13728 0.68138 0.56865 0.0
C654 C 0.14505 0.66558 0.52654 0.0
C655 C 0.12332 0.65064 0.50725 0.0
C656 C 0.15663 0.68126 0.48678 0.0
C657 C 0.16395 0.64911 0.5504 0.0
C658 C 0.166 0.65418 0.59873 0.0
C659 C 0.18305 0.64198 0.62769 0.0
C660 C 0.19872 0.62453 0.60651 0.0
C661 C 0.19748 0.61964 0.55671 0.0
C662 C 0.17942 0.63182 0.5288 0.0
H663 H 0.40824 0.19982 0.55231 0.0
H664 H 0.37734 0.2272 0.41928 0.0
H665 H 0.34943 0.19177 0.41588 0.0
H666 H 0.40402 0.13364 0.52114 0.0
H667 H 0.39617 0.12519 0.58163 0.0
H668 H 0.41538 0.15142 0.57092 0.0
H669 H 0.38537 0.17866 0.61937 0.0
H670 H 0.36601 0.1526 0.62994 0.0
H671 H 0.35351 0.17975 0.60227 0.0
H672 H 0.32196 0.15528 0.43112 0.0
H673 H 0.29793 0.12081 0.46338 0.0
H674 H 0.34796 0.11617 0.58443 0.0
C675 C 0.39609 0.19803 0.5218 0.0
C676 C 0.39503 0.21641 0.48611 0.0
C677 C 0.37837 0.21357 0.44735 0.0
C678 C 0.36251 0.19339 0.44493 0.0
C679 C 0.36356 0.17595 0.48133 0.0
C680 C 0.38009 0.17794 0.51881 0.0
C681 C 0.37654 0.15745 0.55476 0.0
C682 C 0.39939 0.14095 0.55724 0.0
C683 C 0.36996 0.16774 0.60451 0.0
C684 C 0.35504 0.14405 0.53232 0.0
C685 C 0.34792 0.15486 0.4898 0.0
C686 C 0.32762 0.14645 0.46408 0.0
C687 C 0.31408 0.12672 0.48265 0.0
C688 C 0.32078 0.11557 0.52672 0.0
C689 C 0.34194 0.12423 0.55103 0.0
H690 H 0.84848 0.39226 0.52777 0.0
H691 H 0.77635 0.35886 0.52542 0.0
H692 H 0.79566 0.3179 0.52595 0.0
H693 H 0.87887 0.3477 0.45269 0.0
H694 H 0.90706 0.34854 0.48646 0.0
H695 H 0.88761 0.37525 0.48402 0.0
H696 H 0.88593 0.37629 0.5768 0.0
H697 H 0.90534 0.34957 0.57954 0.0
H698 H 0.87597 0.34947 0.60893 0.0
H699 H 0.82277 0.28059 0.52891 0.0
H700 H 0.85534 0.24955 0.53252 0.0
H701 H 0.9102 0.30704 0.53589 0.0
C702 C 0.83662 0.37643 0.52758 0.0
C703 C 0.81073 0.379 0.52662 0.0
C704 C 0.79613 0.35757 0.52558 0.0
C705 C 0.80696 0.33416 0.52617 0.0
C706 C 0.83246 0.3324 0.52774 0.0
C707 C 0.84711 0.35295 0.52829 0.0
C708 C 0.87407 0.34601 0.53065 0.0
C709 C 0.8877 0.3549 0.48578 0.0
C710 C 0.88602 0.35593 0.57672 0.0
C711 C 0.87231 0.31828 0.53164 0.0
C712 C 0.84812 0.31087 0.52986 0.0
C713 C 0.84175 0.28621 0.53051 0.0
C714 C 0.86052 0.26866 0.53303 0.0
C715 C 0.88556 0.27565 0.53509 0.0
C716 C 0.89138 0.30094 0.53419 0.0
H717 H 0.64534 0.79593 0.60818 0.0
H718 H 0.60174 0.80736 0.4798 0.0
H719 H 0.63015 0.8402 0.45461 0.0
H720 H 0.65888 0.85939 0.63027 0.0
H721 H 0.68944 0.85311 0.65169 0.0
H722 H 0.66572 0.83055 0.65889 0.0
H723 H 0.69242 0.79846 0.61439 0.0
H724 H 0.71623 0.82089 0.60716 0.0
H725 H 0.70388 0.8054 0.5554 0.0
H726 H 0.66367 0.87285 0.4448 0.0
H727 H 0.70004 0.89995 0.44923 0.0
H728 H 0.72049 0.86672 0.58468 0.0
C729 C 0.64152 0.80541 0.57495 0.0
C730 C 0.62111 0.79904 0.54617 0.0
C731 C 0.61729 0.8117 0.50237 0.0
C732 C 0.63325 0.83052 0.48793 0.0
C733 C 0.65301 0.83647 0.51761 0.0
C734 C 0.65718 0.82414 0.56012 0.0
C735 C 0.67974 0.83367 0.58559 0.0
C736 C 0.67304 0.84484 0.6345 0.0
C737 C 0.69922 0.8134 0.59092 0.0
C738 C 0.68783 0.85321 0.55068 0.0
C739 C 0.67214 0.85478 0.51182 0.0
C740 C 0.67604 0.87171 0.47513 0.0
C741 C 0.69663 0.88714 0.47805 0.0
C742 C 0.71318 0.88539 0.51715 0.0
C743 C 0.70842 0.8683 0.55399 0.0
H744 H 0.15882 0.03962 0.11608 0.0
H745 H 0.21766 0.05987 0.02026 0.0
H746 H 0.1984 0.10076 1.00863 0.0
H747 H 0.1104 0.06995 0.04956 0.0
H748 H 0.09392 0.07879 0.10278 0.0
H749 H 0.11254 0.05149 0.10298 0.0
H750 H 0.13642 0.06801 0.17661 0.0
H751 H 0.11808 0.09551 0.17626 0.0
H752 H 0.151 0.09756 0.17321 0.0
H753 H 0.17347 0.14019 1.01145 0.0
H754 H 0.14233 0.17296 0.01941 0.0
H755 H 0.09895 0.12589 0.11091 0.0
C756 C 0.16759 0.05268 0.09258 0.0
C757 C 0.18978 0.04677 0.06924 0.0
C758 C 0.20059 0.0641 0.03816 0.0
C759 C 0.18988 0.08736 0.03173 0.0
C760 C 0.16821 0.09277 0.05616 0.0
C761 C 0.15698 0.07573 0.08527 0.0
C762 C 0.13341 0.0857 0.10631 0.0
C763 C 0.11126 0.07059 0.08938 0.0
C764 C 0.13483 0.08676 0.16136 0.0
C765 C 0.13313 0.11115 0.08479 0.0
C766 C 0.15352 0.11501 0.05646 0.0
C767 C 0.15741 0.13731 0.03339 0.0
C768 C 0.13975 0.15589 0.03849 0.0
C769 C 0.11832 0.15199 0.066 0.0
C770 C 0.11517 0.12937 0.08973 0.0
H771 H 0.93163 0.19298 0.06031 0.0
H772 H 0.98154 0.14337 0.98883 0.0
H773 H 0.94898 0.11165 0.98578 0.0
H774 H 0.90189 0.15008 0.13301 0.0
H775 H 0.87172 0.16327 0.12715 0.0
H776 H 0.89837 0.1824 0.12141 0.0
H777 H 0.88386 0.19683 0.03748 0.0
H778 H 0.85685 0.17822 0.04347 0.0
H779 H 0.87657 0.17435 0.99228 0.0
H780 H 0.91206 0.08426 0.99855 0.0
H781 H 0.87131 0.06563 1.0119 0.0
H782 H 0.8447 0.13434 0.07012 0.0
C783 C 0.93536 0.17561 0.04296 0.0
C784 C 0.95882 0.17049 0.02431 0.0
C785 C 0.96345 0.14759 1.0024 0.0
C786 C 0.94518 0.12948 1.00109 0.0
C787 C 0.92238 0.13485 0.02119 0.0
C788 C 0.91722 0.15761 0.04052 0.0
C789 C 0.8912 0.15892 0.05913 0.0
C790 C 0.89079 0.16396 0.11339 0.0
C791 C 0.87623 0.17822 0.03142 0.0
C792 C 0.88256 0.13321 0.04795 0.0
C793 C 0.90093 0.11947 0.02677 0.0
C794 C 0.89749 0.09493 1.01464 0.0
C795 C 0.87443 0.08442 0.02286 0.0
C796 C 0.85508 0.09854 0.04239 0.0
C797 C 0.85931 0.12315 0.05549 0.0
H798 H 0.89777 0.87125 0.02756 0.0
H799 H 0.8747 0.86439 0.17563 0.0
H800 H 0.84393 0.89736 0.16246 0.0
H801 H 0.89547 0.93544 0.02268 0.0
H802 H 0.88496 0.93656 0.96141 0.0
H803 H 0.90304 0.91098 0.98178 0.0
H804 H 0.86901 0.88107 0.95399 0.0
H805 H 0.85077 0.90659 0.93353 0.0
H806 H 0.83819 0.8851 0.97579 0.0
H807 H 0.81737 0.93356 0.13292 0.0
H808 H 0.79888 0.96927 0.0914 0.0
H809 H 0.8409 0.952 0.96409 0.0
C810 C 0.88634 0.87663 0.05746 0.0
C811 C 0.88889 0.86538 0.10288 0.0
C812 C 0.87305 0.87267 0.1405 0.0
C813 C 0.85557 0.89141 0.13332 0.0
C814 C 0.85405 0.9025 0.08823 0.0
C815 C 0.86905 0.89523 0.051 0.0
C816 C 0.86494 0.91062 1.00663 0.0
C817 C 0.8885 0.92421 0.99232 0.0
C818 C 0.85514 0.8949 0.96504 0.0
C819 C 0.84561 0.92816 0.02476 0.0
C820 C 0.83924 0.9231 0.07168 0.0
C821 C 0.82213 0.93748 0.09609 0.0
C822 C 0.81162 0.95767 0.07214 0.0
C823 C 0.81847 0.96345 0.02447 0.0
C824 C 0.83542 0.94818 1.00058 0.0
H825 H 0.14563 0.89093 0.04506 0.0
H826 H 0.17473 0.87676 0.18756 0.0
H827 H 0.14228 0.84613 0.20056 0.0
H828 H 0.08451 0.89115 0.07911 0.0
H829 H 0.07316 0.87721 0.02483 0.0
H830 H 0.10099 0.89472 0.02364 0.0
H831 H 0.124 0.8574 0.98766 0.0
H832 H 0.09619 0.83967 0.98916 0.0
H833 H 0.12342 0.82842 0.0186 0.0
H834 H 0.1043 0.82097 0.20205 0.0
H835 H 0.06207 0.80534 0.1943 0.0
H836 H 0.05637 0.83694 0.05247 0.0
C837 C 0.14533 0.8814 0.07907 0.0
C838 C 0.16286 0.8864 0.11534 0.0
C839 C 0.16184 0.8731 0.15889 0.0
C840 C 0.14343 0.85564 0.16661 0.0
C841 C 0.12622 0.85159 0.13042 0.0
C842 C 0.12696 0.86416 0.08755 0.0
C843 C 0.10485 0.85838 0.0565 0.0
C844 C 0.09 0.88175 0.04541 0.0
C845 C 0.11259 0.84518 1.01024 0.0
C846 C 0.09098 0.84132 0.08945 0.0
C847 C 0.10395 0.83724 0.13146 0.0
C848 C 0.09417 0.82373 0.16907 0.0
C849 C 0.07022 0.81494 0.1644 0.0
C850 C 0.05623 0.81981 0.12265 0.0
C851 C 0.06701 0.83247 0.08409 0.0
H852 H 0.16432 0.972 0.61259 0.0
H853 H 0.20006 0.96957 0.47448 0.0
H854 H 0.17904 0.9303 0.45593 0.0
H855 H 0.16799 0.90537 0.63491 0.0
H856 H 0.13888 0.90498 0.66526 0.0
H857 H 0.15765 0.93206 0.66729 0.0
H858 H 0.12136 0.95764 0.63378 0.0
H859 H 0.10261 0.9306 0.63096 0.0
H860 H 0.10729 0.94877 0.57786 0.0
H861 H 0.14989 0.89345 0.45011 0.0
H862 H 0.11974 0.8603 0.46072 0.0
H863 H 0.10748 0.88493 0.60709 0.0
C864 C 0.16794 0.9629 0.57883 0.0
C865 C 0.18371 0.97359 0.54487 0.0
C866 C 0.18816 0.96137 0.50098 0.0
C867 C 0.1762 0.93921 0.49015 0.0
C868 C 0.16031 0.92932 0.52415 0.0
C869 C 0.15667 0.94054 0.56807 0.0
C870 C 0.13892 0.92622 0.59866 0.0
C871 C 0.15162 0.91658 0.64422 0.0
C872 C 0.11621 0.94174 0.61102 0.0
C873 C 0.13254 0.90553 0.5647 0.0
C874 C 0.14484 0.90765 0.52175 0.0
C875 C 0.14056 0.89137 0.48404 0.0
C876 C 0.1234 0.87242 0.49057 0.0
C877 C 0.11084 0.86962 0.53477 0.0
C878 C 0.11597 0.88645 0.57226 0.0
H879 H 0.0632 0.1604 0.44186 0.0
H880 H 0.07261 0.22072 0.54122 0.0
H881 H 0.11533 0.20705 0.55705 0.0
H882 H 0.09732 0.11618 0.51101 0.0
H883 H 0.10979 0.10114 0.4589 0.0
H884 H 0.08048 0.11625 0.45531 0.0
H885 H 0.09626 0.1423 0.38419 0.0
H886 H 0.12576 0.12753 0.38808 0.0
H887 H 0.12356 0.16045 0.39161 0.0
H888 H 0.15752 0.18736 0.55902 0.0
H889 H 0.1938 0.16034 0.55646 0.0
H890 H 0.15555 0.11151 0.45887 0.0
C891 C 0.07431 0.17076 0.46685 0.0
C892 C 0.0648 0.19175 0.49006 0.0
C893 C 0.07963 0.20457 0.52328 0.0
C894 C 0.1039 0.19704 0.53209 0.0
C895 C 0.11287 0.1765 0.50777 0.0
C896 C 0.09835 0.1633 0.47648 0.0
C897 C 0.11186 0.14123 0.45664 0.0
C898 C 0.09911 0.11729 0.47137 0.0
C899 C 0.11451 0.143 0.40188 0.0
C900 C 0.13638 0.14405 0.4815 0.0
C901 C 0.1367 0.16468 0.51035 0.0
C902 C 0.15735 0.17105 0.53692 0.0
C903 C 0.17787 0.15551 0.53528 0.0
C904 C 0.17755 0.13358 0.50783 0.0
C905 C 0.15663 0.12821 0.47975 0.0
H906 H 0.81212 0.07649 0.47055 0.0
H907 H 0.85722 0.01185 0.44811 0.0
H908 H 0.89294 0.03833 0.43273 0.0
H909 H 0.8401 0.11394 0.37799 0.0
H910 H 0.83781 0.14172 0.41274 0.0
H911 H 0.81565 0.11766 0.42073 0.0
H912 H 0.82549 0.11629 0.51167 0.0
H913 H 0.84749 0.14046 0.50402 0.0
H914 H 0.85673 0.11188 0.53105 0.0
H915 H 0.92412 0.07204 0.42267 0.0
H916 H 0.94851 0.1102 0.42212 0.0
H917 H 0.88259 0.15256 0.44879 0.0
C918 C 0.82939 0.06782 0.46179 0.0
C919 C 0.83175 0.042 0.46054 0.0
C920 C 0.85491 0.03152 0.44991 0.0
C921 C 0.87528 0.04644 0.44063 0.0
C922 C 0.8722 0.0718 0.44187 0.0
C923 C 0.84983 0.0824 0.45228 0.0
C924 C 0.8515 0.1101 0.45309 0.0
C925 C 0.8353 0.12152 0.41379 0.0
C926 C 0.84492 0.12027 0.50292 0.0
C927 C 0.87842 0.11347 0.44214 0.0
C928 C 0.89003 0.09117 0.4355 0.0
C929 C 0.91517 0.0896 0.42737 0.0
C930 C 0.92886 0.11133 0.42711 0.0
C931 C 0.91739 0.13432 0.43487 0.0
C932 C 0.89176 0.13533 0.44154 0.0
H933 H 0.93384 0.82331 0.57905 0.0
H934 H 0.99242 0.84763 0.48626 0.0
H935 H 0.96258 0.87248 0.43964 0.0
H936 H 0.88499 0.82152 0.48674 0.0
H937 H 0.86225 0.83236 0.52848 0.0
H938 H 0.88768 0.81412 0.54952 0.0
H939 H 0.89912 0.84823 0.61035 0.0
H940 H 0.87378 0.86648 0.58964 0.0
H941 H 0.90432 0.87895 0.589 0.0
H942 H 0.92625 0.89882 0.40966 0.0
H943 H 0.88815 0.9236 0.40105 0.0
H944 H 0.85444 0.8812 0.51406 0.0
C945 C 0.9404 0.83363 0.54861 0.0
C946 C 0.96549 0.83362 0.53646 0.0
C947 C 0.97325 0.84719 0.49598 0.0
C948 C 0.95641 0.86138 0.46937 0.0
C949 C 0.93183 0.86149 0.48328 0.0
C950 C 0.92391 0.8477 0.5218 0.0
C951 C 0.89708 0.85207 0.5321 0.0
C952 C 0.88212 0.82862 0.52369 0.0
C953 C 0.89338 0.86203 0.58328 0.0
C954 C 0.89124 0.87126 0.49472 0.0
C955 C 0.91128 0.87629 0.4662 0.0
C956 C 0.91038 0.89469 0.43132 0.0
C957 C 0.88868 0.90861 0.42647 0.0
C958 C 0.86843 0.90419 0.45678 0.0
C959 C 0.86965 0.88484 0.49024 0.0
H960 H 0.65696 0.53624 0.46438 0.0
H961 H 0.713 0.53584 0.57491 0.0
H962 H 0.69639 0.57449 0.60764 0.0
H963 H 0.65673 0.60175 0.44498 0.0
H964 H 0.6241 0.60316 0.43518 0.0
H965 H 0.64079 0.57566 0.42053 0.0
H966 H 0.61187 0.55056 0.47517 0.0
H967 H 0.59523 0.57804 0.49033 0.0
H968 H 0.6083 0.5593 0.53712 0.0
H969 H 0.67218 0.61302 0.63017 0.0
H970 H 0.64489 0.64943 0.63554 0.0
H971 H 0.60527 0.62424 0.50997 0.0
C972 C 0.66579 0.54431 0.49536 0.0
C973 C 0.68631 0.53291 0.51696 0.0
C974 C 0.69745 0.54427 0.55728 0.0
C975 C 0.68801 0.56618 0.57642 0.0
C976 C 0.6675 0.5767 0.55466 0.0
C977 C 0.65672 0.56624 0.51466 0.0
C978 C 0.63506 0.58127 0.49751 0.0
C979 C 0.63944 0.59104 0.44654 0.0
C980 C 0.61121 0.5664 0.50021 0.0
C981 C 0.63527 0.60178 0.53409 0.0
C982 C 0.65397 0.59882 0.56706 0.0
C983 C 0.65754 0.61555 0.60439 0.0
C984 C 0.64188 0.63607 0.60741 0.0
C985 C 0.6231 0.63974 0.57303 0.0
C986 C 0.61967 0.62209 0.53646 0.0
H987 H 0.37377 0.60064 0.50178 0.0
H988 H 0.34235 0.64217 0.61944 0.0
H989 H 0.38023 0.66703 0.62403 0.0
H990 H 0.43577 0.5998 0.54376 0.0
H991 H 0.44857 0.60311 0.48464 0.0
H992 H 0.41939 0.58833 0.49224 0.0
H993 H 0.39959 0.61903 0.43266 0.0
H994 H 0.42869 0.63396 0.42499 0.0
H995 H 0.40232 0.65148 0.44359 0.0
H996 H 0.42204 0.68781 0.61408 0.0
H997 H 0.46364 0.70149 0.59273 0.0
H998 H 0.46583 0.64747 0.47841 0.0
C999 C 0.37462 0.61509 0.52836 0.0
C1000 C 0.35484 0.61951 0.56002 0.0
C1001 C 0.35722 0.63824 0.59499 0.0
C1002 C 0.37863 0.65257 0.59762 0.0
C1003 C 0.3975 0.64797 0.56506 0.0
C1004 C 0.39564 0.6296 0.53119 0.0
C1005 C 0.41825 0.6283 0.49994 0.0
C1006 C 0.43126 0.60341 0.5055 0.0
C1007 C 0.41182 0.63351 0.44718 0.0
C1008 C 0.43327 0.64884 0.52141 0.0
C1009 C 0.42108 0.65999 0.55895 0.0
C1010 C 0.43164 0.67924 0.58456 0.0
C1011 C 0.45529 0.68704 0.5718 0.0
C1012 C 0.46823 0.6757 0.5336 0.0
C1013 C 0.45674 0.65649 0.508 0.0
H1014 H 0.3385 0.45564 0.47039 0.0
H1015 H 0.3015 0.46718 0.60569 0.0
H1016 H 0.31932 0.42834 0.63664 0.0
H1017 H 0.33351 0.38804 0.46804 0.0
H1018 H 0.36338 0.3847 0.44139 0.0
H1019 H 0.34516 0.41156 0.42898 0.0
H1020 H 0.38089 0.4391 0.458 0.0
H1021 H 0.3991 0.41239 0.47089 0.0
H1022 H 0.39336 0.43467 0.5173 0.0
H1023 H 0.3456 0.38982 0.65497 0.0
H1024 H 0.37623 0.35604 0.65758 0.0
H1025 H 0.39475 0.37059 0.50927 0.0
C1026 C 0.33379 0.44978 0.50624 0.0
C1027 C 0.31858 0.46437 0.53558 0.0
C1028 C 0.31282 0.45607 0.58234 0.0
C1029 C 0.32299 0.43411 0.60026 0.0
C1030 C 0.33859 0.42051 0.5707 0.0
C1031 C 0.34363 0.42798 0.5244 0.0
C1032 C 0.36193 0.41115 0.50042 0.0
C1033 C 0.35029 0.39808 0.45715 0.0
C1034 C 0.38519 0.42517 0.48582 0.0
C1035 C 0.36708 0.3934 0.5408 0.0
C1036 C 0.35338 0.3988 0.58104 0.0
C1037 C 0.35617 0.38533 0.62337 0.0
C1038 C 0.37357 0.36614 0.62457 0.0
C1039 C 0.38811 0.36079 0.58385 0.0
C1040 C 0.38427 0.3744 0.54134 0.0
H1041 H 0.567 0.31431 0.5349 0.0
H1042 H 0.53043 0.36431 0.63228 0.0
H1043 H 0.56814 0.38866 0.63964 0.0
H1044 H 0.62464 0.31419 0.59361 0.0
H1045 H 0.64297 0.31393 0.53997 0.0
H1046 H 0.61271 0.30085 0.5392 0.0
H1047 H 0.60024 0.32919 0.46873 0.0
H1048 H 0.63062 0.34202 0.46867 0.0
H1049 H 0.60431 0.36184 0.4744 0.0
H1050 H 0.60989 0.40578 0.64196 0.0
H1051 H 0.65264 0.41855 0.63005 0.0
H1052 H 0.66329 0.35835 0.53017 0.0
C1053 C 0.5669 0.33072 0.55672 0.0
C1054 C 0.5459 0.3374 0.5833 0.0
C1055 C 0.54645 0.3588 0.61209 0.0
C1056 C 0.56776 0.37272 0.61654 0.0
C1057 C 0.58845 0.36516 0.59165 0.0
C1058 C 0.58821 0.34499 0.56155 0.0
C1059 C 0.61329 0.34101 0.53935 0.0
C1060 C 0.62403 0.31601 0.55392 0.0
C1061 C 0.61203 0.34368 0.48453 0.0
C1062 C 0.62753 0.36193 0.56211 0.0
C1063 C 0.6128 0.37544 0.59242 0.0
C1064 C 0.62165 0.39544 0.61815 0.0
C1065 C 0.64608 0.40236 0.61161 0.0
C1066 C 0.66143 0.38942 0.57942 0.0
C1067 C 0.65202 0.36868 0.55493 0.0
H1068 H 0.65937 0.46349 0.09406 0.0
H1069 H 0.68997 0.47659 0.95308 0.0
H1070 H 0.66979 0.43914 0.92282 0.0
H1071 H 0.66471 0.39733 0.09159 0.0
H1072 H 0.63626 0.3927 0.12291 0.0
H1073 H 0.65384 0.42008 0.13343 0.0
H1074 H 0.61605 0.44668 0.11127 0.0
H1075 H 0.59838 0.4194 0.10065 0.0
H1076 H 0.60114 0.44216 0.05421 0.0
H1077 H 0.64429 0.4004 0.90725 0.0
H1078 H 0.6163 0.36467 0.90867 0.0
H1079 H 0.6039 0.37697 0.06046 0.0
C1080 C 0.66182 0.45856 0.0568 0.0
C1081 C 0.67636 0.47309 0.02609 0.0
C1082 C 0.67924 0.46568 0.97762 0.0
C1083 C 0.66772 0.44445 0.95998 0.0
C1084 C 0.65344 0.43063 0.99123 0.0
C1085 C 0.65058 0.4374 0.0387 0.0
C1086 C 0.63409 0.41967 0.06493 0.0
C1087 C 0.64807 0.40667 0.10561 0.0
C1088 C 0.61105 0.43276 0.08386 0.0
C1089 C 0.62784 0.40204 0.02476 0.0
C1090 C 0.63914 0.40854 0.98245 0.0
C1091 C 0.63546 0.39511 0.94034 0.0
C1092 C 0.6196 0.37475 0.94148 0.0
C1093 C 0.60754 0.36803 0.98443 0.0
C1094 C 0.61226 0.38178 0.02661 0.0
H1095 H 0.5322 0.62948 0.03621 0.0
H1096 H 0.55075 0.70637 0.05323 0.0
H1097 H 0.59344 0.69704 0.03111 0.0
H1098 H 0.58622 0.60601 0.089 0.0
H1099 H 0.58857 0.5801 0.04912 0.0
H1100 H 0.55905 0.59326 0.06198 0.0
H1101 H 0.55133 0.59938 0.97105 0.0
H1102 H 0.58097 0.58641 0.95792 0.0
H1103 H 0.57307 0.61649 0.93601 0.0
H1104 H 0.63484 0.67893 1.0126 0.0
H1105 H 0.67183 0.65326 1.00224 0.0
H1106 H 0.62655 0.5881 0.99883 0.0
C1107 C 0.54512 0.64445 0.03539 0.0
C1108 C 0.53782 0.66876 0.04653 0.0
C1109 C 0.55555 0.68768 0.04432 0.0
C1110 C 0.57995 0.68254 0.03183 0.0
C1111 C 0.58645 0.65839 0.02142 0.0
C1112 C 0.56954 0.63965 0.02313 0.0
C1113 C 0.58148 0.61506 1.0129 0.0
C1114 C 0.57867 0.59758 0.05581 0.0
C1115 C 0.57109 0.60367 0.96672 0.0
C1116 C 0.6079 0.62281 1.00631 0.0
C1117 C 0.61032 0.64793 1.01083 0.0
C1118 C 0.63312 0.65928 1.00858 0.0
C1119 C 0.65403 0.64455 1.00274 0.0
C1120 C 0.65208 0.61871 0.99937 0.0
C1121 C 0.6286 0.60783 1.00018 0.0
H1122 H 0.29131 0.57819 0.11606 0.0
H1123 H 0.29849 0.54326 0.97712 0.0
H1124 H 0.3197 0.57978 0.94624 0.0
H1125 H 0.28483 0.64304 0.06985 0.0
H1126 H 0.30255 0.65489 0.11928 0.0
H1127 H 0.2837 0.62814 0.12746 0.0
H1128 H 0.32154 0.6039 0.15808 0.0
H1129 H 0.34044 0.63043 0.1499 0.0
H1130 H 0.34848 0.60198 0.12098 0.0
H1131 H 0.34691 0.61642 0.9353 0.0
H1132 H 0.37686 0.64993 0.94544 0.0
H1133 H 0.35022 0.66219 0.08991 0.0
C1134 C 0.29681 0.57849 0.07882 0.0
C1135 C 0.29315 0.5579 0.04903 0.0
C1136 C 0.3007 0.55895 1.00047 0.0
C1137 C 0.31282 0.57964 0.98259 0.0
C1138 C 0.31689 0.59932 1.01343 0.0
C1139 C 0.30876 0.59906 0.06036 0.0
C1140 C 0.31754 0.62138 0.08757 0.0
C1141 C 0.29586 0.63784 0.10187 0.0
C1142 C 0.33292 0.61396 0.1317 0.0
C1143 C 0.3331 0.63345 0.04955 0.0
C1144 C 0.33221 0.62074 1.00673 0.0
C1145 C 0.34726 0.62691 0.96823 0.0
C1146 C 0.36418 0.64606 0.97422 0.0
C1147 C 0.36599 0.65865 0.0185 0.0
C1148 C 0.34944 0.65283 0.05569 0.0
H1149 H 0.42926 0.31822 0.99614 0.0
H1150 H 0.48027 0.35727 0.08725 0.0
H1151 H 0.44913 0.38978 0.10042 0.0
H1152 H 0.40373 0.36875 0.9384 0.0
H1153 H 0.37273 0.35748 0.93687 0.0
H1154 H 0.39801 0.33622 0.93797 0.0
H1155 H 0.38059 0.31544 1.01403 0.0
H1156 H 0.3549 0.33624 1.0125 0.0
H1157 H 0.37348 0.3339 0.06583 0.0
H1158 H 0.41462 0.42022 0.09422 0.0
H1159 H 0.3764 0.44343 0.08222 0.0
H1160 H 0.34639 0.38291 0.99969 0.0
C1161 C 0.43353 0.33335 0.01984 0.0
C1162 C 0.45698 0.33534 0.041 0.0
C1163 C 0.46223 0.35536 0.07149 0.0
C1164 C 0.44477 0.37395 0.07866 0.0
C1165 C 0.42212 0.3719 0.05567 0.0
C1166 C 0.41621 0.35179 0.02792 0.0
C1167 C 0.39066 0.35409 1.00692 0.0
C1168 C 0.39134 0.35414 0.95177 0.0
C1169 C 0.37392 0.33371 0.02598 0.0
C1170 C 0.38326 0.37894 0.02633 0.0
C1171 C 0.40178 0.38897 0.05393 0.0
C1172 C 0.39976 0.41227 0.07375 0.0
C1173 C 0.37789 0.42528 0.06674 0.0
C1174 C 0.35802 0.41486 0.04087 0.0
C1175 C 0.36108 0.39151 0.01961 0.0
H1176 H 0.00578 0.25483 0.37974 0.0
H1177 H 0.9325 0.2769 0.33653 0.0
H1178 H 0.94664 0.28161 0.25329 0.0
H1179 H 0.03882 0.29601 0.29734 0.0
H1180 H 0.06253 0.27376 0.28559 0.0
H1181 H 0.04709 0.2739 0.34262 0.0
H1182 H 0.03544 0.22837 0.33085 0.0
H1183 H 0.05072 0.22803 0.27377 0.0
H1184 H 0.01897 0.21927 0.27766 0.0
H1185 H 0.96768 0.27941 0.17223 0.0
H1186 H 0.99481 0.27335 0.10205 0.0
H1187 H 0.05475 0.25474 0.19788 0.0
C1188 C 0.99275 0.26099 0.35299 0.0
C1189 C 0.96791 0.26538 0.36517 0.0
C1190 C 0.95161 0.27344 0.32864 0.0
C1191 C 0.95946 0.27614 0.28097 0.0
C1192 C 0.98384 0.27102 0.26998 0.0
C1193 C 1.00034 0.26394 0.3051 0.0
C1194 C 0.02536 0.25885 0.28347 0.0
C1195 C 0.04459 0.2767 0.30345 0.0
C1196 C 0.03306 0.23204 0.29194 0.0
C1197 C 0.02023 0.26374 0.23072 0.0
C1198 C 0.99614 0.27068 0.2236 0.0
C1199 C 0.98672 0.27448 0.17753 0.0
C1200 C 1.00225 0.27102 0.13779 0.0
C1201 C 0.02708 0.26412 0.1442 0.0
C1202 C 0.03608 0.26071 0.19155 0.0
H1203 H 0.75601 0.99788 0.36507 0.0
H1204 H 0.73663 0.92426 0.32017 0.0
H1205 H 0.73135 0.93883 0.23707 0.0
H1206 H 0.71373 0.0304 0.28374 0.0
H1207 H 0.73515 0.05479 0.27248 0.0
H1208 H 0.73575 0.03888 0.32907 0.0
H1209 H 0.78159 0.02851 0.31659 0.0
H1210 H 0.78115 0.04429 0.25993 0.0
H1211 H 0.79096 0.01275 0.2628 0.0
H1212 H 0.73111 0.96101 0.15658 0.0
H1213 H 0.73478 0.98914 0.08732 0.0
H1214 H 0.75359 0.04834 0.1846 0.0
C1215 C 0.75018 0.98489 0.33801 0.0
C1216 C 0.74662 0.95985 0.34963 0.0
C1217 C 0.73941 0.94351 0.3126 0.0
C1218 C 0.73636 0.95163 0.26507 0.0
C1219 C 0.74046 0.97627 0.25467 0.0
C1220 C 0.74704 0.99271 0.29021 0.0
C1221 C 0.75124 0.01802 0.26921 0.0
C1222 C 0.73287 0.03662 0.28986 0.0
C1223 C 0.77781 0.02637 0.27763 0.0
C1224 C 0.74629 0.0132 0.21635 0.0
C1225 C 0.74007 0.98901 0.20862 0.0
C1226 C 0.73569 0.98007 0.16238 0.0
C1227 C 0.73781 0.9962 0.12314 0.0
C1228 C 0.74423 0.0211 0.13013 0.0
C1229 C 0.7483 0.02956 0.17767 0.0
H1230 H 0.94234 0.74495 0.27534 0.0
H1231 H 0.00808 0.76413 0.1969 0.0
H1232 H 0.03159 0.76425 0.27284 0.0
H1233 H 0.95396 0.78307 0.37593 0.0
H1234 H 0.94154 0.76202 0.41923 0.0
H1235 H 0.93038 0.76175 0.35844 0.0
H1236 H 0.94091 0.71555 0.35161 0.0
H1237 H 0.95209 0.71569 0.41246 0.0
H1238 H 0.97164 0.70526 0.36457 0.0
H1239 H 0.04764 0.76442 0.35953 0.0
H1240 H 0.05436 0.7649 0.44732 0.0
H1241 H 0.97813 0.74564 0.46905 0.0
C1242 C 0.96178 0.74875 0.27384 0.0
C1243 C 0.97328 0.75435 0.22959 0.0
C1244 C 0.99873 0.75966 0.22993 0.0
C1245 C 0.01229 0.75977 0.27307 0.0
C1246 C 1.00028 0.75451 0.31603 0.0
C1247 C 0.97557 0.74905 0.31663 0.0
C1248 C 0.96672 0.74513 0.3677 0.0
C1249 C 0.94699 0.76413 0.38109 0.0
C1250 C 0.95728 0.71884 0.37447 0.0
C1251 C 0.99022 0.74934 0.39586 0.0
C1252 C 0.00942 0.75467 0.36546 0.0
C1253 C 0.03272 0.76005 0.38348 0.0
C1254 C 0.03639 0.76024 0.43358 0.0
C1255 C 0.01692 0.75508 0.46559 0.0
C1256 C 0.9936 0.74933 0.44596 0.0
H1257 H 0.24324 0.98229 0.41329 0.0
H1258 H 0.27908 0.05266 0.40125 0.0
H1259 H 0.29261 0.04181 0.31883 0.0
H1260 H 0.29027 0.94696 0.34487 0.0
H1261 H 0.26742 0.92724 0.31868 0.0
H1262 H 0.26269 0.94004 0.37754 0.0
H1263 H 0.2213 0.95839 0.34919 0.0
H1264 H 0.22601 0.94594 0.29018 0.0
H1265 H 0.22065 0.97833 0.29767 0.0
H1266 H 0.29605 0.02519 0.23224 0.0
H1267 H 0.29456 1.00219 0.15526 0.0
H1268 H 0.26017 0.94124 0.22758 0.0
C1269 C 0.25462 0.99509 0.3938 0.0
C1270 C 0.26044 0.01818 0.41376 0.0
C1271 C 0.27491 0.03468 0.38696 0.0
C1272 C 0.28246 0.02871 0.33998 0.0
C1273 C 0.27583 0.00596 0.32078 0.0
C1274 C 0.26278 0.98916 0.34753 0.0
C1275 C 0.25749 0.96615 0.31877 0.0
C1276 C 0.27023 0.94377 0.34131 0.0
C1277 C 0.22972 0.96197 0.31366 0.0
C1278 C 0.26895 0.97278 0.27108 0.0
C1279 C 0.27924 0.99591 0.27259 0.0
C1280 C 0.28871 0.0068 0.23122 0.0
C1281 C 0.28778 0.99366 0.18764 0.0
C1282 C 0.278 0.96969 0.18591 0.0
C1283 C 0.26859 0.95919 0.22831 0.0
H1284 H 0.96403 0.77588 0.91951 0.0
H1285 H 0.02394 0.73911 0.99224 0.0
H1286 H 0.04042 0.72598 0.91298 0.0
H1287 H 0.95737 0.73216 0.81736 0.0
H1288 H 0.95062 0.75673 0.77618 0.0
H1289 H 0.94185 0.75934 0.83826 0.0
H1290 H 0.96574 0.80017 0.84512 0.0
H1291 H 0.97441 0.79774 0.78325 0.0
H1292 H 0.99767 0.80088 0.82884 0.0
H1293 H 0.05357 0.72316 0.82389 0.0
H1294 H 0.06214 0.73146 0.73831 0.0
H1295 H 0.99281 0.76929 0.72503 0.0
C1296 C 0.98034 0.76452 0.91905 0.0
C1297 C 0.99265 0.75843 0.96232 0.0
C1298 C 0.01398 0.7437 0.95982 0.0
C1299 C 0.02346 0.73626 0.91481 0.0
C1300 C 0.01117 0.74334 0.87271 0.0
C1301 C 0.98985 0.75696 0.87482 0.0
C1302 C 0.98105 0.76433 0.82517 0.0
C1303 C 0.95625 0.75242 0.81357 0.0
C1304 C 0.97966 0.79243 0.82034 0.0
C1305 C 1.00124 0.75364 0.79428 0.0
C1306 C 0.01831 0.74125 0.82213 0.0
C1307 C 0.03989 0.73216 0.80187 0.0
C1308 C 0.04451 0.73668 0.75292 0.0
C1309 C 0.02765 0.75002 0.72425 0.0
C1310 C 0.00544 0.75793 0.74518 0.0
H1311 H 0.22453 1.00195 0.69386 0.0
H1312 H 0.3005 0.02208 0.67626 0.0
H1313 H 0.30876 0.01047 0.76114 0.0
H1314 H 0.21728 0.02813 0.80347 0.0
H1315 H 0.1967 0.0054 0.82706 0.0
H1316 H 0.19815 0.01054 0.76351 0.0
H1317 H 0.20822 0.96472 0.74852 0.0
H1318 H 0.206 0.95919 0.812 0.0
H1319 H 0.23341 0.95061 0.78017 0.0
H1320 H 0.30629 1.00114 0.85428 0.0
H1321 H 0.29418 0.99192 0.9386 0.0
H1322 H 0.21941 0.98086 0.89049 0.0
C1323 C 0.24318 1.00275 0.70721 0.0
C1324 C 0.26203 0.01213 0.6782 0.0
C1325 C 0.286 0.01401 0.69741 0.0
C1326 C 0.29071 0.00781 0.74585 0.0
C1327 C 0.27123 0.99979 0.77438 0.0
C1328 C 0.24802 0.9969 0.75506 0.0
C1329 C 0.22951 0.99013 0.79286 0.0
C1330 C 0.20923 0.00972 0.79694 0.0
C1331 C 0.21866 0.96465 0.7828 0.0
C1332 C 0.24566 0.98993 0.83688 0.0
C1333 C 0.26973 0.99539 0.8262 0.0
C1334 C 0.28748 0.99665 0.86261 0.0
C1335 C 0.28045 0.99163 0.91052 0.0
C1336 C 0.25585 0.98562 0.92147 0.0
C1337 C 0.23844 0.98519 0.88382 0.0
H1338 H 0.04068 0.21721 0.83936 0.0
H1339 H 0.9918 0.2725 0.89728 0.0
H1340 H 0.98054 0.28476 0.81385 0.0
H1341 H 0.06174 0.25154 0.73561 0.0
H1342 H 0.06277 0.22445 0.69862 0.0
H1343 H 0.06802 0.22209 0.76227 0.0
H1344 H 0.03314 0.19011 0.76915 0.0
H1345 H 0.02808 0.19211 0.70562 0.0
H1346 H 1.00309 0.19762 0.74639 0.0
H1347 H 0.97231 0.28763 0.72024 0.0
H1348 H 0.96683 0.27926 0.63309 0.0
H1349 H 0.02214 0.22256 0.64123 0.0
C1350 C 0.02768 0.23209 0.83503 0.0
C1351 C 0.01704 0.24378 0.8753 0.0
C1352 C 1.00026 0.26323 0.86722 0.0
C1353 C 0.99383 0.27031 0.81983 0.0
C1354 C 0.00462 0.25802 0.78095 0.0
C1355 C 0.02131 0.23935 0.78862 0.0
C1356 C 0.02959 0.22774 0.74211 0.0
C1357 C 0.05716 0.2317 0.7342 0.0
C1358 C 0.02307 0.20029 0.74075 0.0
C1359 C 0.01455 0.24225 0.70644 0.0
C1360 C 1.00039 0.25991 0.72894 0.0
C1361 C 0.98375 0.27417 0.70256 0.0
C1362 C 0.98095 0.26957 0.65283 0.0
C1363 C 0.99466 0.25081 0.63006 0.0
C1364 C 0.01205 0.23759 0.65728 0.0
H1365 H 0.75725 0.02264 0.61938 0.0
H1366 H 0.72367 0.95115 0.6254 0.0
H1367 H 0.71276 0.95825 0.71061 0.0
H1368 H 0.78614 0.01942 0.72412 0.0
H1369 H 0.78261 0.05099 0.74195 0.0
H1370 H 0.78201 0.043 0.67955 0.0
H1371 H 0.73942 0.06346 0.66965 0.0
H1372 H 0.74006 0.07205 0.73208 0.0
H1373 H 0.71467 0.05467 0.70862 0.0
H1374 H 0.71344 0.97049 0.80097 0.0
H1375 H 0.72391 0.98719 0.88169 0.0
H1376 H 0.75647 0.05055 0.81372 0.0
C1377 C 0.74616 0.00919 0.63781 0.0
C1378 C 0.74035 0.98681 0.6152 0.0
C1379 C 0.72727 0.9689 0.64136 0.0
C1380 C 0.72129 0.97269 0.69007 0.0
C1381 C 0.72838 0.9946 0.71212 0.0
C1382 C 0.74007 0.01278 0.6862 0.0
C1383 C 0.74847 0.0334 0.7186 0.0
C1384 C 0.77645 0.03688 0.71588 0.0
C1385 C 0.73483 0.05731 0.70652 0.0
C1386 C 0.74079 0.02361 0.76704 0.0
C1387 C 0.72893 1.00138 0.76308 0.0
C1388 C 0.72222 0.98817 0.80416 0.0
C1389 C 0.72816 0.99777 0.84999 0.0
C1390 C 0.74095 0.02021 0.85426 0.0
C1391 C 0.74661 0.03337 0.81199 0.0
H1392 H 0.48314 0.68558 0.90211 0.0
H1393 H 0.47979 0.76326 0.93479 0.0
H1394 H 0.49422 0.77237 0.85186 0.0
H1395 H 0.53705 0.68673 0.82999 0.0
H1396 H 0.52577 0.66333 0.79005 0.0
H1397 H 0.51602 0.66388 0.85163 0.0
H1398 H 0.47063 0.66518 0.82389 0.0
H1399 H 0.48023 0.66473 0.76223 0.0
H1400 H 0.46062 0.68902 0.78356 0.0
H1401 H 0.50938 0.77163 0.76119 0.0
H1402 H 0.5225 0.76139 0.67812 0.0
H1403 H 0.51373 0.68416 0.70999 0.0
C1404 C 0.48537 0.70465 0.89241 0.0
C1405 C 0.48021 0.72372 0.9254 0.0
C1406 C 0.48365 0.74829 0.91042 0.0
C1407 C 0.4918 0.75358 0.86328 0.0
C1408 C 0.49643 0.73411 0.83162 0.0
C1409 C 0.49328 0.71014 0.84614 0.0
C1410 C 0.49899 0.69212 0.8065 0.0
C1411 C 0.52075 0.67555 0.82037 0.0
C1412 C 0.47626 0.67688 0.79328 0.0
C1413 C 0.50576 0.7095 0.76665 0.0
C1414 C 0.50443 0.7337 0.78133 0.0
C1415 C 0.51034 0.7527 0.74973 0.0
C1416 C 0.51776 0.74673 0.7025 0.0
C1417 C 0.51903 0.72196 0.68708 0.0
C1418 C 0.51284 0.70332 0.72002 0.0
H1419 H 0.29357 0.47683 0.87901 0.0
H1420 H 0.21991 0.49785 0.91958 0.0
H1421 H 0.21183 0.51117 0.83544 0.0
H1422 H 0.30565 0.52613 0.80407 0.0
H1423 H 0.32323 0.50855 0.76153 0.0
H1424 H 0.32173 0.49889 0.82305 0.0
H1425 H 0.30575 0.45631 0.79628 0.0
H1426 H 0.30732 0.46579 0.73452 0.0
H1427 H 0.27893 0.45444 0.7586 0.0
H1428 H 0.21419 0.52563 0.74411 0.0
H1429 H 0.22623 0.53768 0.66123 0.0
H1430 H 0.29809 0.50594 0.68548 0.0
C1431 C 0.27554 0.48392 0.87031 0.0
C1432 C 0.25738 0.48628 0.90614 0.0
C1433 C 0.23407 0.49562 0.89281 0.0
C1434 C 0.22941 0.50334 0.84504 0.0
C1435 C 0.24813 0.50131 0.81084 0.0
C1436 C 0.27064 0.49146 0.82327 0.0
C1437 C 0.28828 0.49174 0.78155 0.0
C1438 C 0.31105 0.50726 0.79327 0.0
C1439 C 0.29549 0.46551 0.76688 0.0
C1440 C 0.27258 0.50381 0.74352 0.0
C1441 C 0.24938 0.50918 0.76036 0.0
C1442 C 0.23229 0.5212 0.73087 0.0
C1443 C 0.23923 0.52797 0.68368 0.0
C1444 C 0.26314 0.52287 0.66645 0.0
C1445 C 0.27967 0.51031 0.69707 0.0
H1446 H 0.55408 0.25582 0.84384 0.0
H1447 H 0.49511 0.23669 0.94046 0.0
H1448 H 0.46749 0.23051 0.87084 0.0
H1449 H 0.51625 0.29104 0.76375 0.0
H1450 H 0.53273 0.28218 0.71055 0.0
H1451 H 0.54827 0.28299 0.76756 0.0
H1452 H 0.56136 0.23767 0.75606 0.0
H1453 H 0.54563 0.23681 0.69919 0.0
H1454 H 0.5383 0.21475 0.74498 0.0
H1455 H 0.44615 0.2265 0.79011 0.0
H1456 H 0.4314 0.22923 0.70673 0.0
H1457 H 0.5032 0.2541 0.66165 0.0
C1458 C 0.53548 0.24985 0.85029 0.0
C1459 C 0.52694 0.24615 0.89781 0.0
C1460 C 0.50219 0.23927 0.90459 0.0
C1461 C 0.48638 0.23571 0.86515 0.0
C1462 C 0.49534 0.23958 0.81886 0.0
C1463 C 0.51924 0.24684 0.81128 0.0
C1464 C 0.52371 0.25161 0.75816 0.0
C1465 C 0.53065 0.27856 0.74952 0.0
C1466 C 0.54342 0.23417 0.73845 0.0
C1467 C 0.49865 0.24583 0.73699 0.0
C1468 C 0.48267 0.23858 0.77263 0.0
C1469 C 0.45853 0.23222 0.76205 0.0
C1470 C 0.45033 0.23374 0.71426 0.0
C1471 C 0.46599 0.24193 0.67704 0.0
C1472 C 0.49064 0.24778 0.68891 0.0
H1473 H 0.71834 0.51819 0.6569 0.0
H1474 H 0.77235 0.45992 0.66122 0.0
H1475 H 0.78072 0.46944 0.74687 0.0
H1476 H 0.7527 0.56076 0.7346 0.0
H1477 H 0.72508 0.57262 0.76138 0.0
H1478 H 0.72457 0.56149 0.70056 0.0
H1479 H 0.6894 0.5319 0.72276 0.0
H1480 H 0.69009 0.54252 0.78385 0.0
H1481 H 0.69371 0.51034 0.77103 0.0
H1482 H 0.77911 0.48292 0.83608 0.0
H1483 H 0.77314 0.50349 0.91487 0.0
H1484 H 0.72291 0.55489 0.84831 0.0
C1485 C 0.73237 0.50782 0.67555 0.0
C1486 C 0.74485 0.48844 0.65241 0.0
C1487 C 0.76288 0.4751 0.67811 0.0
C1488 C 0.76755 0.48025 0.72688 0.0
C1489 C 0.75438 0.49912 0.74906 0.0
C1490 C 0.73765 0.51312 0.72363 0.0
C1491 C 0.72609 0.5326 0.75504 0.0
C1492 C 0.7325 0.55839 0.73681 0.0
C1493 C 0.69817 0.52911 0.75835 0.0
C1494 C 0.7385 0.52718 0.8025 0.0
C1495 C 0.75451 0.5076 0.79878 0.0
C1496 C 0.76693 0.49853 0.83902 0.0
C1497 C 0.7633 0.51016 0.8837 0.0
C1498 C 0.74777 0.53087 0.88751 0.0
C1499 C 0.73517 0.53927 0.84632 0.0
H1500 H 0.51794 0.30209 0.19167 0.0
H1501 H 0.51878 0.22454 0.15856 0.0
H1502 H 0.50927 0.21539 0.24435 0.0
H1503 H 0.54823 0.29835 0.30237 0.0
H1504 H 0.53067 0.32275 0.32929 0.0
H1505 H 0.53551 0.32238 0.26551 0.0
H1506 H 0.48861 0.32392 0.25052 0.0
H1507 H 0.48363 0.32485 0.31423 0.0
H1508 H 0.4692 0.30143 0.27846 0.0
H1509 H 0.50075 0.21633 0.34002 0.0
H1510 H 0.49184 0.22726 0.42524 0.0
H1511 H 0.49983 0.30404 0.38953 0.0
C1512 C 0.51591 0.28306 0.20198 0.0
C1513 C 0.51908 0.26405 0.16804 0.0
C1514 C 0.51612 0.23949 0.18357 0.0
C1515 C 0.51096 0.23419 0.23247 0.0
C1516 C 0.50882 0.25362 0.26534 0.0
C1517 C 0.51104 0.27759 0.24994 0.0
C1518 C 0.50854 0.29563 0.29074 0.0
C1519 C 0.53214 0.31065 0.29735 0.0
C1520 C 0.48617 0.31244 0.28303 0.0
C1521 C 0.50465 0.27835 0.33224 0.0
C1522 C 0.50473 0.25411 0.31771 0.0
C1523 C 0.50079 0.23533 0.35123 0.0
C1524 C 0.49601 0.24163 0.39983 0.0
C1525 C 0.49528 0.26653 0.41453 0.0
C1526 C 0.50027 0.28479 0.37998 0.0
H1527 H 0.75273 0.45218 0.33902 0.0
H1528 H 0.7893 0.50931 0.42022 0.0
H1529 H 0.7995 0.53034 0.34384 0.0
H1530 H 0.79315 0.45176 0.23361 0.0
H1531 H 0.7679 0.44701 0.19287 0.0
H1532 H 0.76652 0.43505 0.25304 0.0
H1533 H 0.72569 0.45828 0.26734 0.0
H1534 H 0.72683 0.47002 0.20722 0.0
H1535 H 0.72437 0.49088 0.25714 0.0
H1536 H 0.80203 0.54683 0.25863 0.0
H1537 H 0.79335 0.55945 0.17529 0.0
H1538 H 0.75444 0.49162 0.15036 0.0
C1539 C 0.76335 0.46887 0.34108 0.0
C1540 C 0.77048 0.47894 0.38593 0.0
C1541 C 0.78383 0.50112 0.38649 0.0
C1542 C 0.78977 0.51309 0.34319 0.0
C1543 C 0.78224 0.50264 0.29969 0.0
C1544 C 0.76918 0.48105 0.29853 0.0
C1545 C 0.76095 0.47473 0.24795 0.0
C1546 C 0.77285 0.45071 0.23087 0.0
C1547 C 0.7328 0.47342 0.24475 0.0
C1548 C 0.77085 0.49648 0.22049 0.0
C1549 C 0.78348 0.51215 0.25087 0.0
C1550 C 0.79259 0.53445 0.23457 0.0
C1551 C 0.78775 0.54138 0.18699 0.0
C1552 C 0.7739 0.52617 0.15593 0.0
C1553 C 0.76602 0.50308 0.17255 0.0
H1554 H 0.49668 0.73463 0.43412 0.0
H1555 H 0.55446 0.78734 0.41227 0.0
H1556 H 0.54155 0.79248 0.32776 0.0
H1557 H 0.50622 0.70402 0.33251 0.0
H1558 H 0.47481 0.69676 0.3185 0.0
H1559 H 0.48374 0.7022 0.3796 0.0
H1560 H 0.4512 0.73655 0.38766 0.0
H1561 H 0.44154 0.73077 0.32686 0.0
H1562 H 0.45051 0.76122 0.3447 0.0
H1563 H 0.52699 0.78554 0.24071 0.0
H1564 H 0.5104 0.76924 0.16372 0.0
H1565 H 0.46371 0.72011 0.24443 0.0
C1566 C 0.50541 0.74854 0.41242 0.0
C1567 C 0.52581 0.76146 0.43029 0.0
C1568 C 0.53808 0.77812 0.39979 0.0
C1569 C 0.53105 0.78089 0.35148 0.0
C1570 C 0.51175 0.76673 0.33398 0.0
C1571 C 0.49881 0.75119 0.36396 0.0
C1572 C 0.48112 0.73551 0.33559 0.0
C1573 C 0.48684 0.70802 0.34194 0.0
C1574 C 0.45451 0.74137 0.34953 0.0
C1575 C 0.48666 0.74399 0.28508 0.0
C1576 C 0.50412 0.7622 0.28444 0.0
C1577 C 0.51297 0.77157 0.241 0.0
C1578 C 0.50358 0.76215 0.19736 0.0
C1579 C 0.48577 0.74335 0.19761 0.0
C1580 C 0.47728 0.73449 0.24237 0.0
H1581 H 0.23304 0.51531 0.16166 0.0
H1582 H 0.19615 0.44714 0.19191 0.0
H1583 H 0.19181 0.45923 0.27682 0.0
H1584 H 0.26947 0.5136 0.25582 0.0
H1585 H 0.27011 0.54581 0.27025 0.0
H1586 H 0.26352 0.53621 0.21009 0.0
H1587 H 0.22254 0.55982 0.21015 0.0
H1588 H 0.22914 0.57048 0.27001 0.0
H1589 H 0.2008 0.55477 0.25764 0.0
H1590 H 0.20011 0.47468 0.36225 0.0
H1591 H 0.21822 0.49298 0.43607 0.0
H1592 H 0.25043 0.55028 0.34931 0.0
C1593 C 0.22251 0.50378 0.18545 0.0
C1594 C 0.21411 0.48068 0.16966 0.0
C1595 C 0.20185 0.46533 0.20275 0.0
C1596 C 0.19959 0.47195 0.25135 0.0
C1597 C 0.20969 0.49408 0.26666 0.0
C1598 C 0.22048 0.51002 0.23431 0.0
C1599 C 0.23314 0.53086 0.26039 0.0
C1600 C 0.26068 0.53163 0.24845 0.0
C1601 C 0.22065 0.55544 0.24887 0.0
C1602 C 0.22888 0.52354 0.31217 0.0
C1603 C 0.21496 0.50256 0.31546 0.0
C1604 C 0.21056 0.49146 0.35999 0.0
C1605 C 0.22089 0.50193 0.40187 0.0
C1606 C 0.23575 0.52306 0.39877 0.0
C1607 C 0.23914 0.53412 0.35325 0.0
loop_
_geom_bond_atom_site_label_1
_geom_bond_atom_site_label_2
_geom_bond_distance
_geom_bond_site_symmetry_2
_ccdc_geom_bond_type
C0 C1 1.351 . S
C0 N3 1.368 . S
C0 H5 0.931 . S
C1 C0 1.351 . S
C1 N2 1.373 1_556 S
C1 H29 0.930 . S
N2 C1 1.373 1_554 S
N2 C4 1.340 . S
N3 C0 1.368 . S
N3 C4 1.321 1_556 S
N3 Co6 2.135 1_556 S
C4 N2 1.340 . S
C4 N3 1.321 1_554 S
C4 H28 0.930 . S
H5 C0 0.931 . S
Co6 N3 2.135 1_554 S
Co6 N9 2.121 1_455 S
Co6 O14 2.055 1_554 S
Co6 O17 2.039 . S
Co6 N20 2.140 . S
C7 O8 1.227 . S
C7 O17 1.265 . S
O8 C7 1.227 . S
N9 Co6 2.121 1_655 S
N9 C11 1.375 . S
N9 C12 1.313 1_554 S
C10 C11 1.338 . S
C10 N13 1.377 . S
C10 H30 0.930 . S
C11 N9 1.375 . S
C11 C10 1.338 . S
C11 H15 0.931 1_655 S
C12 N9 1.313 1_556 S
C12 N13 1.344 1_556 S
C12 H16 0.930 . S
N13 C10 1.377 . S
N13 C12 1.344 1_554 S
O14 Co6 2.055 1_556 S
O14 C18 1.253 . S
H15 C11 0.931 1_455 S
H16 C12 0.930 . S
O17 Co6 2.039 . S
O17 C7 1.265 . S
C18 O14 1.253 . S
C18 O19 1.227 . S
O19 C18 1.227 . S
N20 Co6 2.140 . S
N20 C23 1.346 . S
N20 C24 1.345 1_554 S
C21 C22 1.387 . S
C21 C25 1.391 1_554 S
C22 C21 1.387 . S
C22 C23 1.369 . S
C22 H31 0.929 . S
C23 N20 1.346 . S
C23 C22 1.369 . S
C23 H26 0.928 . S
C24 N20 1.345 1_556 S
C24 C25 1.371 . S
C24 H27 0.931 . S
C25 C21 1.391 1_556 S
C25 C24 1.371 . S
C25 H32 0.930 . S
H26 C23 0.928 . S
H27 C24 0.931 . S
H28 C4 0.930 . S
H29 C1 0.930 . S
H30 C10 0.930 . S
H31 C22 0.929 . S
H32 C25 0.930 . S
C33 C34 1.351 . S
C33 N36 1.368 . S
C33 H38 0.931 . S
C34 C33 1.351 . S
C34 N35 1.373 1_556 S
C34 H62 0.930 . S
N35 C34 1.373 1_554 S
N35 C37 1.340 . S
N36 C33 1.368 . S
N36 C37 1.321 1_556 S
N36 Co39 2.135 1_556 S
C37 N35 1.340 . S
C37 N36 1.321 1_554 S
C37 H61 0.930 . S
H38 C33 0.931 . S
Co39 N36 2.135 1_554 S
Co39 N42 2.121 1_545 S
Co39 O47 2.055 1_554 S
Co39 O50 2.039 . S
Co39 N53 2.140 . S
C40 O41 1.227 . S
C40 O50 1.265 . S
O41 C40 1.227 . S
N42 Co39 2.121 1_565 S
N42 C44 1.375 . S
N42 C45 1.313 1_554 S
C43 C44 1.338 . S
C43 N46 1.377 . S
C43 H63 0.930 . S
C44 N42 1.375 . S
C44 C43 1.338 . S
C44 H48 0.931 1_565 S
C45 N42 1.313 1_556 S
C45 N46 1.344 1_556 S
C45 H49 0.930 . S
N46 C43 1.377 . S
N46 C45 1.344 1_554 S
O47 Co39 2.055 1_556 S
O47 C51 1.253 . S
H48 C44 0.931 1_545 S
H49 C45 0.930 . S
O50 Co39 2.039 . S
O50 C40 1.265 . S
C51 O47 1.253 . S
C51 O52 1.227 . S
O52 C51 1.227 . S
N53 Co39 2.140 . S
N53 C56 1.346 . S
N53 C57 1.345 1_554 S
C54 C55 1.387 . S
C54 C58 1.391 1_554 S
C55 C54 1.387 . S
C55 C56 1.369 . S
C55 H64 0.929 . S
C56 N53 1.346 . S
C56 C55 1.369 . S
C56 H59 0.928 . S
C57 N53 1.345 1_556 S
C57 C58 1.371 . S
C57 H60 0.931 . S
C58 C54 1.391 1_556 S
C58 C57 1.371 . S
C58 H65 0.930 . S
H59 C56 0.928 . S
H60 C57 0.931 . S
H61 C37 0.930 . S
H62 C34 0.930 . S
H63 C43 0.930 . S
H64 C55 0.929 . S
H65 C58 0.930 . S
C66 C67 1.351 . S
C66 N69 1.368 . S
C66 H71 0.931 . S
C67 C66 1.351 . S
C67 N68 1.373 1_556 S
C67 H95 0.930 . S
N68 C67 1.373 1_554 S
N68 C70 1.340 . S
N69 C66 1.368 . S
N69 C70 1.321 1_556 S
N69 Co72 2.135 1_556 S
C70 N68 1.340 . S
C70 N69 1.321 1_554 S
C70 H94 0.930 . S
H71 C66 0.931 . S
Co72 N69 2.135 1_554 S
Co72 N75 2.121 1_655 S
Co72 O80 2.055 1_554 S
Co72 O83 2.039 . S
Co72 N86 2.140 . S
C73 O74 1.227 . S
C73 O83 1.265 . S
O74 C73 1.227 . S
N75 Co72 2.121 1_455 S
N75 C77 1.375 . S
N75 C78 1.313 1_554 S
C76 C77 1.338 . S
C76 N79 1.377 . S
C76 H96 0.930 . S
C77 N75 1.375 . S
C77 C76 1.338 . S
C77 H81 0.931 1_455 S
C78 N75 1.313 1_556 S
C78 N79 1.344 1_556 S
C78 H82 0.930 . S
N79 C76 1.377 . S
N79 C78 1.344 1_554 S
O80 Co72 2.055 1_556 S
O80 C84 1.253 . S
H81 C77 0.931 1_655 S
H82 C78 0.930 . S
O83 Co72 2.039 . S
O83 C73 1.265 . S
C84 O80 1.253 . S
C84 O85 1.227 . S
O85 C84 1.227 . S
N86 Co72 2.140 . S
N86 C89 1.346 . S
N86 C90 1.345 1_554 S
C87 C88 1.387 . S
C87 C91 1.391 1_554 S
C88 C87 1.387 . S
C88 C89 1.369 . S
C88 H97 0.929 . S
C89 N86 1.346 . S
C89 C88 1.369 . S
C89 H92 0.928 . S
C90 N86 1.345 1_556 S
C90 C91 1.371 . S
C90 H93 0.931 . S
C91 C87 1.391 1_556 S
C91 C90 1.371 . S
C91 H98 0.930 . S
H92 C89 0.928 . S
H93 C90 0.931 . S
H94 C70 0.930 . S
H95 C67 0.930 . S
H96 C76 0.930 . S
H97 C88 0.929 . S
H98 C91 0.930 . S
C99 C100 1.351 . S
C99 N102 1.368 . S
C99 H104 0.931 . S
C100 C99 1.351 . S
C100 N101 1.373 1_556 S
C100 H128 0.930 . S
N101 C100 1.373 1_554 S
N101 C103 1.340 . S
N102 C99 1.368 . S
N102 C103 1.321 1_556 S
N102 Co105 2.135 1_556 S
C103 N101 1.340 . S
C103 N102 1.321 1_554 S
C103 H127 0.930 . S
H104 C99 0.931 . S
Co105 N102 2.135 1_554 S
Co105 N108 2.121 1_565 S
Co105 O113 2.055 1_554 S
Co105 O116 2.039 . S
Co105 N119 2.140 . S
C106 O107 1.227 . S
C106 O116 1.265 . S
O107 C106 1.227 . S
N108 Co105 2.121 1_545 S
N108 C110 1.375 . S
N108 C111 1.313 1_554 S
C109 C110 1.338 . S
C109 N112 1.377 . S
C109 H129 0.930 . S
C110 N108 1.375 . S
C110 C109 1.338 . S
C110 H114 0.931 1_545 S
C111 N108 1.313 1_556 S
C111 N112 1.344 1_556 S
C111 H115 0.930 . S
N112 C109 1.377 . S
N112 C111 1.344 1_554 S
O113 Co105 2.055 1_556 S
O113 C117 1.253 . S
H114 C110 0.931 1_565 S
H115 C111 0.930 . S
O116 Co105 2.039 . S
O116 C106 1.265 . S
C117 O113 1.253 . S
C117 O118 1.227 . S
O118 C117 1.227 . S
N119 Co105 2.140 . S
N119 C122 1.346 . S
N119 C123 1.345 1_554 S
C120 C121 1.387 . S
C120 C124 1.391 1_554 S
C121 C120 1.387 . S
C121 C122 1.369 . S
C121 H130 0.929 . S
C122 N119 1.346 . S
C122 C121 1.369 . S
C122 H125 0.928 . S
C123 N119 1.345 1_556 S
C123 C124 1.371 . S
C123 H126 0.931 . S
C124 C120 1.391 1_556 S
C124 C123 1.371 . S
C124 H131 0.930 . S
H125 C122 0.928 . S
H126 C123 0.931 . S
H127 C103 0.930 . S
H128 C100 0.930 . S
H129 C109 0.930 . S
H130 C121 0.929 . S
H131 C124 0.930 . S
C132 C133 1.351 . S
C132 N135 1.368 . S
C132 H137 0.931 . S
C133 C132 1.351 . S
C133 N134 1.373 . S
C133 H161 0.930 . S
N134 C133 1.373 . S
N134 C136 1.340 . S
N135 C132 1.368 . S
N135 C136 1.321 . S
N135 Co138 2.135 . S
C136 N134 1.340 . S
C136 N135 1.321 . S
C136 H160 0.930 . S
H137 C132 0.931 . S
Co138 N135 2.135 . S
Co138 N141 2.121 1_455 S
Co138 O146 2.055 . S
Co138 O149 2.039 . S
Co138 N152 2.140 . S
C139 O140 1.227 . S
C139 O149 1.265 . S
O140 C139 1.227 . S
N141 Co138 2.121 1_655 S
N141 C143 1.375 . S
N141 C144 1.313 . S
C142 C143 1.338 . S
C142 N145 1.377 . S
C142 H162 0.930 . S
C143 N141 1.375 . S
C143 C142 1.338 . S
C143 H147 0.931 1_655 S
C144 N141 1.313 . S
C144 N145 1.344 . S
C144 H148 0.930 . S
N145 C142 1.377 . S
N145 C144 1.344 . S
O146 Co138 2.055 . S
O146 C150 1.253 . S
H147 C143 0.931 1_455 S
H148 C144 0.930 . S
O149 Co138 2.039 . S
O149 C139 1.265 . S
C150 O146 1.253 . S
C150 O151 1.227 . S
O151 C150 1.227 . S
N152 Co138 2.140 . S
N152 C155 1.346 . S
N152 C156 1.345 . S
C153 C154 1.387 . S
C153 C157 1.391 . S
C154 C153 1.387 . S
C154 C155 1.369 . S
C154 H163 0.929 . S
C155 N152 1.346 . S
C155 C154 1.369 . S
C155 H158 0.928 . S
C156 N152 1.345 . S
C156 C157 1.371 . S
C156 H159 0.931 . S
C157 C153 1.391 . S
C157 C156 1.371 . S
C157 H164 0.930 . S
H158 C155 0.928 . S
H159 C156 0.931 . S
H160 C136 0.930 . S
H161 C133 0.930 . S
H162 C142 0.930 . S
H163 C154 0.929 . S
H164 C157 0.930 . S
C165 C166 1.351 . S
C165 N168 1.368 . S
C165 H170 0.931 . S
C166 C165 1.351 . S
C166 N167 1.373 . S
C166 H194 0.930 . S
N167 C166 1.373 . S
N167 C169 1.340 . S
N168 C165 1.368 . S
N168 C169 1.321 . S
N168 Co171 2.135 . S
C169 N167 1.340 . S
C169 N168 1.321 . S
C169 H193 0.930 . S
H170 C165 0.931 . S
Co171 N168 2.135 . S
Co171 N174 2.121 1_545 S
Co171 O179 2.055 . S
Co171 O182 2.039 . S
Co171 N185 2.140 . S
C172 O173 1.227 . S
C172 O182 1.265 . S
O173 C172 1.227 . S
N174 Co171 2.121 1_565 S
N174 C176 1.375 . S
N174 C177 1.313 . S
C175 C176 1.338 . S
C175 N178 1.377 . S
C175 H195 0.930 . S
C176 N174 1.375 . S
C176 C175 1.338 . S
C176 H180 0.931 1_565 S
C177 N174 1.313 . S
C177 N178 1.344 . S
C177 H181 0.930 . S
N178 C175 1.377 . S
N178 C177 1.344 . S
O179 Co171 2.055 . S
O179 C183 1.253 . S
H180 C176 0.931 1_545 S
H181 C177 0.930 . S
O182 Co171 2.039 . S
O182 C172 1.265 . S
C183 O179 1.253 . S
C183 O184 1.227 . S
O184 C183 1.227 . S
N185 Co171 2.140 . S
N185 C188 1.346 . S
N185 C189 1.345 . S
C186 C187 1.387 . S
C186 C190 1.391 . S
C187 C186 1.387 . S
C187 C188 1.369 . S
C187 H196 0.929 . S
C188 N185 1.346 . S
C188 C187 1.369 . S
C188 H191 0.928 . S
C189 N185 1.345 . S
C189 C190 1.371 . S
C189 H192 0.931 . S
C190 C186 1.391 . S
C190 C189 1.371 . S
C190 H197 0.930 . S
H191 C188 0.928 . S
H192 C189 0.931 . S
H193 C169 0.930 . S
H194 C166 0.930 . S
H195 C175 0.930 . S
H196 C187 0.929 . S
H197 C190 0.930 . S
C198 C199 1.351 . S
C198 N201 1.368 . S
C198 H203 0.931 . S
C199 C198 1.351 . S
C199 N200 1.373 . S
C199 H227 0.930 . S
N200 C199 1.373 . S
N200 C202 1.340 . S
N201 C198 1.368 . S
N201 C202 1.321 . S
N201 Co204 2.135 . S
C202 N200 1.340 . S
C202 N201 1.321 . S
C202 H226 0.930 . S
H203 C198 0.931 . S
Co204 N201 2.135 . S
Co204 N207 2.121 1_655 S
Co204 O212 2.055 . S
Co204 O215 2.039 . S
Co204 N218 2.140 . S
C205 O206 1.227 . S
C205 O215 1.265 . S
O206 C205 1.227 . S
N207 Co204 2.121 1_455 S
N207 C209 1.375 . S
N207 C210 1.313 . S
C208 C209 1.338 . S
C208 N211 1.377 . S
C208 H228 0.930 . S
C209 N207 1.375 . S
C209 C208 1.338 . S
C209 H213 0.931 1_455 S
C210 N207 1.313 . S
C210 N211 1.344 . S
C210 H214 0.930 . S
N211 C208 1.377 . S
N211 C210 1.344 . S
O212 Co204 2.055 . S
O212 C216 1.253 . S
H213 C209 0.931 1_655 S
H214 C210 0.930 . S
O215 Co204 2.039 . S
O215 C205 1.265 . S
C216 O212 1.253 . S
C216 O217 1.227 . S
O217 C216 1.227 . S
N218 Co204 2.140 . S
N218 C221 1.346 . S
N218 C222 1.345 . S
C219 C220 1.387 . S
C219 C223 1.391 . S
C220 C219 1.387 . S
C220 C221 1.369 . S
C220 H229 0.929 . S
C221 N218 1.346 . S
C221 C220 1.369 . S
C221 H224 0.928 . S
C222 N218 1.345 . S
C222 C223 1.371 . S
C222 H225 0.931 . S
C223 C219 1.391 . S
C223 C222 1.371 . S
C223 H230 0.930 . S
H224 C221 0.928 . S
H225 C222 0.931 . S
H226 C202 0.930 . S
H227 C199 0.930 . S
H228 C208 0.930 . S
H229 C220 0.929 . S
H230 C223 0.930 . S
C231 C232 1.351 . S
C231 N234 1.368 . S
C231 H236 0.931 . S
C232 C231 1.351 . S
C232 N233 1.373 . S
C232 H260 0.930 . S
N233 C232 1.373 . S
N233 C235 1.340 . S
N234 C231 1.368 . S
N234 C235 1.321 . S
N234 Co237 2.135 . S
C235 N233 1.340 . S
C235 N234 1.321 . S
C235 H259 0.930 . S
H236 C231 0.931 . S
Co237 N234 2.135 . S
Co237 N240 2.121 1_565 S
Co237 O245 2.055 . S
Co237 O248 2.039 . S
Co237 N251 2.140 . S
C238 O239 1.227 . S
C238 O248 1.265 . S
O239 C238 1.227 . S
N240 Co237 2.121 1_545 S
N240 C242 1.375 . S
N240 C243 1.313 . S
C241 C242 1.338 . S
C241 N244 1.377 . S
C241 H261 0.930 . S
C242 N240 1.375 . S
C242 C241 1.338 . S
C242 H246 0.931 1_545 S
C243 N240 1.313 . S
C243 N244 1.344 . S
C243 H247 0.930 . S
N244 C241 1.377 . S
N244 C243 1.344 . S
O245 Co237 2.055 . S
O245 C249 1.253 . S
H246 C242 0.931 1_565 S
H247 C243 0.930 . S
O248 Co237 2.039 . S
O248 C238 1.265 . S
C249 O245 1.253 . S
C249 O250 1.227 . S
O250 C249 1.227 . S
N251 Co237 2.140 . S
N251 C254 1.346 . S
N251 C255 1.345 . S
C252 C253 1.387 . S
C252 C256 1.391 . S
C253 C252 1.387 . S
C253 C254 1.369 . S
C253 H262 0.929 . S
C254 N251 1.346 . S
C254 C253 1.369 . S
C254 H257 0.928 . S
C255 N251 1.345 . S
C255 C256 1.371 . S
C255 H258 0.931 . S
C256 C252 1.391 . S
C256 C255 1.371 . S
C256 H263 0.930 . S
H257 C254 0.928 . S
H258 C255 0.931 . S
H259 C235 0.930 . S
H260 C232 0.930 . S
H261 C241 0.930 . S
H262 C253 0.929 . S
H263 C256 0.930 . S
C264 C265 1.351 . S
C264 N267 1.368 . S
C264 H269 0.931 . S
C265 C264 1.351 . S
C265 N266 1.373 . S
C265 H293 0.930 . S
N266 C265 1.373 . S
N266 C268 1.340 . S
N267 C264 1.368 . S
N267 C268 1.321 . S
N267 Co270 2.135 . S
C268 N266 1.340 . S
C268 N267 1.321 . S
C268 H292 0.930 . S
H269 C264 0.931 . S
Co270 N267 2.135 . S
Co270 N273 2.121 . S
Co270 O278 2.055 . S
Co270 O281 2.039 . S
Co270 N284 2.140 . S
C271 O272 1.227 . S
C271 O281 1.265 . S
O272 C271 1.227 . S
N273 Co270 2.121 . S
N273 C275 1.375 . S
N273 C276 1.313 . S
C274 C275 1.338 . S
C274 N277 1.377 . S
C274 H294 0.930 . S
C275 N273 1.375 . S
C275 C274 1.338 . S
C275 H279 0.931 . S
C276 N273 1.313 . S
C276 N277 1.344 . S
C276 H280 0.930 . S
N277 C274 1.377 . S
N277 C276 1.344 . S
O278 Co270 2.055 . S
O278 C282 1.253 . S
H279 C275 0.931 . S
H280 C276 0.930 . S
O281 Co270 2.039 . S
O281 C271 1.265 . S
C282 O278 1.253 . S
C282 O283 1.227 . S
O283 C282 1.227 . S
N284 Co270 2.140 . S
N284 C287 1.346 . S
N284 C288 1.345 . S
C285 C286 1.387 . S
C285 C289 1.391 . S
C286 C285 1.387 . S
C286 C287 1.369 . S
C286 H295 0.929 . S
C287 N284 1.346 . S
C287 C286 1.369 . S
C287 H290 0.928 . S
C288 N284 1.345 . S
C288 C289 1.371 . S
C288 H291 0.931 . S
C289 C285 1.391 . S
C289 C288 1.371 . S
C289 H296 0.930 . S
H290 C287 0.928 . S
H291 C288 0.931 . S
H292 C268 0.930 . S
H293 C265 0.930 . S
H294 C274 0.930 . S
H295 C286 0.929 . S
H296 C289 0.930 . S
C297 C298 1.351 . S
C297 N300 1.368 . S
C297 H302 0.931 . S
C298 C297 1.351 . S
C298 N299 1.373 . S
C298 H326 0.930 . S
N299 C298 1.373 . S
N299 C301 1.340 . S
N300 C297 1.368 . S
N300 C301 1.321 . S
N300 Co303 2.135 . S
C301 N299 1.340 . S
C301 N300 1.321 . S
C301 H325 0.930 . S
H302 C297 0.931 . S
Co303 N300 2.135 . S
Co303 N306 2.121 . S
Co303 O311 2.055 . S
Co303 O314 2.039 . S
Co303 N317 2.140 . S
C304 O305 1.227 . S
C304 O314 1.265 . S
O305 C304 1.227 . S
N306 Co303 2.121 . S
N306 C308 1.375 . S
N306 C309 1.313 . S
C307 C308 1.338 . S
C307 N310 1.377 . S
C307 H327 0.930 . S
C308 N306 1.375 . S
C308 C307 1.338 . S
C308 H312 0.931 . S
C309 N306 1.313 . S
C309 N310 1.344 . S
C309 H313 0.930 . S
N310 C307 1.377 . S
N310 C309 1.344 . S
O311 Co303 2.055 . S
O311 C315 1.253 . S
H312 C308 0.931 . S
H313 C309 0.930 . S
O314 Co303 2.039 . S
O314 C304 1.265 . S
C315 O311 1.253 . S
C315 O316 1.227 . S
O316 C315 1.227 . S
N317 Co303 2.140 . S
N317 C320 1.346 . S
N317 C321 1.345 . S
C318 C319 1.387 . S
C318 C322 1.391 . S
C319 C318 1.387 . S
C319 C320 1.369 . S
C319 H328 0.929 . S
C320 N317 1.346 . S
C320 C319 1.369 . S
C320 H323 0.928 . S
C321 N317 1.345 . S
C321 C322 1.371 . S
C321 H324 0.931 . S
C322 C318 1.391 . S
C322 C321 1.371 . S
C322 H329 0.930 . S
H323 C320 0.928 . S
H324 C321 0.931 . S
H325 C301 0.930 . S
H326 C298 0.930 . S
H327 C307 0.930 . S
H328 C319 0.929 . S
H329 C322 0.930 . S
C330 C331 1.351 . S
C330 N333 1.368 . S
C330 H335 0.931 . S
C331 C330 1.351 . S
C331 N332 1.373 . S
C331 H359 0.930 . S
N332 C331 1.373 . S
N332 C334 1.340 . S
N333 C330 1.368 . S
N333 C334 1.321 . S
N333 Co336 2.135 . S
C334 N332 1.340 . S
C334 N333 1.321 . S
C334 H358 0.930 . S
H335 C330 0.931 . S
Co336 N333 2.135 . S
Co336 N339 2.121 . S
Co336 O344 2.055 . S
Co336 O347 2.039 . S
Co336 N350 2.140 . S
C337 O338 1.227 . S
C337 O347 1.265 . S
O338 C337 1.227 . S
N339 Co336 2.121 . S
N339 C341 1.375 . S
N339 C342 1.313 . S
C340 C341 1.338 . S
C340 N343 1.377 . S
C340 H360 0.930 . S
C341 N339 1.375 . S
C341 C340 1.338 . S
C341 H345 0.931 . S
C342 N339 1.313 . S
C342 N343 1.344 . S
C342 H346 0.930 . S
N343 C340 1.377 . S
N343 C342 1.344 . S
O344 Co336 2.055 . S
O344 C348 1.253 . S
H345 C341 0.931 . S
H346 C342 0.930 . S
O347 Co336 2.039 . S
O347 C337 1.265 . S
C348 O344 1.253 . S
C348 O349 1.227 . S
O349 C348 1.227 . S
N350 Co336 2.140 . S
N350 C353 1.346 . S
N350 C354 1.345 . S
C351 C352 1.387 . S
C351 C355 1.391 . S
C352 C351 1.387 . S
C352 C353 1.369 . S
C352 H361 0.929 . S
C353 N350 1.346 . S
C353 C352 1.369 . S
C353 H356 0.928 . S
C354 N350 1.345 . S
C354 C355 1.371 . S
C354 H357 0.931 . S
C355 C351 1.391 . S
C355 C354 1.371 . S
C355 H362 0.930 . S
H356 C353 0.928 . S
H357 C354 0.931 . S
H358 C334 0.930 . S
H359 C331 0.930 . S
H360 C340 0.930 . S
H361 C352 0.929 . S
H362 C355 0.930 . S
C363 C364 1.351 . S
C363 N366 1.368 . S
C363 H368 0.931 . S
C364 C363 1.351 . S
C364 N365 1.373 . S
C364 H392 0.930 . S
N365 C364 1.373 . S
N365 C367 1.340 . S
N366 C363 1.368 . S
N366 C367 1.321 . S
N366 Co369 2.135 . S
C367 N365 1.340 . S
C367 N366 1.321 . S
C367 H391 0.930 . S
H368 C363 0.931 . S
Co369 N366 2.135 . S
Co369 N372 2.121 . S
Co369 O377 2.055 . S
Co369 O380 2.039 . S
Co369 N383 2.140 . S
C370 O371 1.227 . S
C370 O380 1.265 . S
O371 C370 1.227 . S
N372 Co369 2.121 . S
N372 C374 1.375 . S
N372 C375 1.313 . S
C373 C374 1.338 . S
C373 N376 1.377 . S
C373 H393 0.930 . S
C374 N372 1.375 . S
C374 C373 1.338 . S
C374 H378 0.931 . S
C375 N372 1.313 . S
C375 N376 1.344 . S
C375 H379 0.930 . S
N376 C373 1.377 . S
N376 C375 1.344 . S
O377 Co369 2.055 . S
O377 C381 1.253 . S
H378 C374 0.931 . S
H379 C375 0.930 . S
O380 Co369 2.039 . S
O380 C370 1.265 . S
C381 O377 1.253 . S
C381 O382 1.227 . S
O382 C381 1.227 . S
N383 Co369 2.140 . S
N383 C386 1.346 . S
N383 C387 1.345 . S
C384 C385 1.387 . S
C384 C388 1.391 . S
C385 C384 1.387 . S
C385 C386 1.369 . S
C385 H394 0.929 . S
C386 N383 1.346 . S
C386 C385 1.369 . S
C386 H389 0.928 . S
C387 N383 1.345 . S
C387 C388 1.371 . S
C387 H390 0.931 . S
C388 C384 1.391 . S
C388 C387 1.371 . S
C388 H395 0.930 . S
H389 C386 0.928 . S
H390 C387 0.931 . S
H391 C367 0.930 . S
H392 C364 0.930 . S
H393 C373 0.930 . S
H394 C385 0.929 . S
H395 C388 0.930 . S
C396 C397 1.351 . S
C396 N399 1.368 . S
C396 H401 0.931 . S
C397 C396 1.351 . S
C397 N398 1.373 . S
C397 H425 0.930 . S
N398 C397 1.373 . S
N398 C400 1.340 . S
N399 C396 1.368 . S
N399 C400 1.321 . S
N399 Co402 2.135 . S
C400 N398 1.340 . S
C400 N399 1.321 . S
C400 H424 0.930 1_554 S
H401 C396 0.931 . S
Co402 N399 2.135 . S
Co402 N405 2.121 . S
Co402 O410 2.055 . S
Co402 O413 2.039 1_554 S
Co402 N416 2.140 . S
C403 O404 1.227 . S
C403 O413 1.265 . S
O404 C403 1.227 . S
N405 Co402 2.121 . S
N405 C407 1.375 1_554 S
N405 C408 1.313 . S
C406 C407 1.338 . S
C406 N409 1.377 1_556 S
C406 H426 0.930 . S
C407 N405 1.375 1_556 S
C407 C406 1.338 . S
C407 H411 0.931 . S
C408 N405 1.313 . S
C408 N409 1.344 . S
C408 H412 0.930 . S
N409 C406 1.377 1_554 S
N409 C408 1.344 . S
O410 Co402 2.055 . S
O410 C414 1.253 . S
H411 C407 0.931 . S
H412 C408 0.930 . S
O413 Co402 2.039 1_556 S
O413 C403 1.265 . S
C414 O410 1.253 . S
C414 O415 1.227 . S
O415 C414 1.227 . S
N416 Co402 2.140 . S
N416 C419 1.346 . S
N416 C420 1.345 . S
C417 C418 1.387 . S
C417 C421 1.391 . S
C418 C417 1.387 . S
C418 C419 1.369 . S
C418 H427 0.929 1_554 S
C419 N416 1.346 . S
C419 C418 1.369 . S
C419 H422 0.928 1_554 S
C420 N416 1.345 . S
C420 C421 1.371 . S
C420 H423 0.931 . S
C421 C417 1.391 . S
C421 C420 1.371 . S
C421 H428 0.930 . S
H422 C419 0.928 1_556 S
H423 C420 0.931 . S
H424 C400 0.930 1_556 S
H425 C397 0.930 . S
H426 C406 0.930 . S
H427 C418 0.929 1_556 S
H428 C421 0.930 . S
C429 C430 1.351 . S
C429 N432 1.368 . S
C429 H434 0.931 . S
C430 C429 1.351 . S
C430 N431 1.373 . S
C430 H458 0.930 . S
N431 C430 1.373 . S
N431 C433 1.340 . S
N432 C429 1.368 . S
N432 C433 1.321 . S
N432 Co435 2.135 . S
C433 N431 1.340 . S
C433 N432 1.321 . S
C433 H457 0.930 1_554 S
H434 C429 0.931 . S
Co435 N432 2.135 . S
Co435 N438 2.121 . S
Co435 O443 2.055 . S
Co435 O446 2.039 1_554 S
Co435 N449 2.140 . S
C436 O437 1.227 . S
C436 O446 1.265 . S
O437 C436 1.227 . S
N438 Co435 2.121 . S
N438 C440 1.375 1_554 S
N438 C441 1.313 . S
C439 C440 1.338 . S
C439 N442 1.377 1_556 S
C439 H459 0.930 . S
C440 N438 1.375 1_556 S
C440 C439 1.338 . S
C440 H444 0.931 . S
C441 N438 1.313 . S
C441 N442 1.344 . S
C441 H445 0.930 . S
N442 C439 1.377 1_554 S
N442 C441 1.344 . S
O443 Co435 2.055 . S
O443 C447 1.253 . S
H444 C440 0.931 . S
H445 C441 0.930 . S
O446 Co435 2.039 1_556 S
O446 C436 1.265 . S
C447 O443 1.253 . S
C447 O448 1.227 . S
O448 C447 1.227 . S
N449 Co435 2.140 . S
N449 C452 1.346 . S
N449 C453 1.345 . S
C450 C451 1.387 . S
C450 C454 1.391 . S
C451 C450 1.387 . S
C451 C452 1.369 . S
C451 H460 0.929 1_554 S
C452 N449 1.346 . S
C452 C451 1.369 . S
C452 H455 0.928 1_554 S
C453 N449 1.345 . S
C453 C454 1.371 . S
C453 H456 0.931 . S
C454 C450 1.391 . S
C454 C453 1.371 . S
C454 H461 0.930 . S
H455 C452 0.928 1_556 S
H456 C453 0.931 . S
H457 C433 0.930 1_556 S
H458 C430 0.930 . S
H459 C439 0.930 . S
H460 C451 0.929 1_556 S
H461 C454 0.930 . S
C462 C463 1.351 . S
C462 N465 1.368 . S
C462 H467 0.931 . S
C463 C462 1.351 . S
C463 N464 1.373 . S
C463 H491 0.930 . S
N464 C463 1.373 . S
N464 C466 1.340 . S
N465 C462 1.368 . S
N465 C466 1.321 . S
N465 Co468 2.135 . S
C466 N464 1.340 . S
C466 N465 1.321 . S
C466 H490 0.930 1_554 S
H467 C462 0.931 . S
Co468 N465 2.135 . S
Co468 N471 2.121 . S
Co468 O476 2.055 . S
Co468 O479 2.039 1_554 S
Co468 N482 2.140 . S
C469 O470 1.227 . S
C469 O479 1.265 . S
O470 C469 1.227 . S
N471 Co468 2.121 . S
N471 C473 1.375 1_554 S
N471 C474 1.313 . S
C472 C473 1.338 . S
C472 N475 1.377 1_556 S
C472 H492 0.930 . S
C473 N471 1.375 1_556 S
C473 C472 1.338 . S
C473 H477 0.931 . S
C474 N471 1.313 . S
C474 N475 1.344 . S
C474 H478 0.930 . S
N475 C472 1.377 1_554 S
N475 C474 1.344 . S
O476 Co468 2.055 . S
O476 C480 1.253 . S
H477 C473 0.931 . S
H478 C474 0.930 . S
O479 Co468 2.039 1_556 S
O479 C469 1.265 . S
C480 O476 1.253 . S
C480 O481 1.227 . S
O481 C480 1.227 . S
N482 Co468 2.140 . S
N482 C485 1.346 . S
N482 C486 1.345 . S
C483 C484 1.387 . S
C483 C487 1.391 . S
C484 C483 1.387 . S
C484 C485 1.369 . S
C484 H493 0.929 1_554 S
C485 N482 1.346 . S
C485 C484 1.369 . S
C485 H488 0.928 1_554 S
C486 N482 1.345 . S
C486 C487 1.371 . S
C486 H489 0.931 . S
C487 C483 1.391 . S
C487 C486 1.371 . S
C487 H494 0.930 . S
H488 C485 0.928 1_556 S
H489 C486 0.931 . S
H490 C466 0.930 1_556 S
H491 C463 0.930 . S
H492 C472 0.930 . S
H493 C484 0.929 1_556 S
H494 C487 0.930 . S
C495 C496 1.351 . S
C495 N498 1.368 . S
C495 H500 0.931 . S
C496 C495 1.351 . S
C496 N497 1.373 . S
C496 H524 0.930 . S
N497 C496 1.373 . S
N497 C499 1.340 . S
N498 C495 1.368 . S
N498 C499 1.321 . S
N498 Co501 2.135 . S
C499 N497 1.340 . S
C499 N498 1.321 . S
C499 H523 0.930 1_554 S
H500 C495 0.931 . S
Co501 N498 2.135 . S
Co501 N504 2.121 . S
Co501 O509 2.055 . S
Co501 O512 2.039 1_554 S
Co501 N515 2.140 . S
C502 O503 1.227 . S
C502 O512 1.265 . S
O503 C502 1.227 . S
N504 Co501 2.121 . S
N504 C506 1.375 1_554 S
N504 C507 1.313 . S
C505 C506 1.338 . S
C505 N508 1.377 1_556 S
C505 H525 0.930 . S
C506 N504 1.375 1_556 S
C506 C505 1.338 . S
C506 H510 0.931 . S
C507 N504 1.313 . S
C507 N508 1.344 . S
C507 H511 0.930 . S
N508 C505 1.377 1_554 S
N508 C507 1.344 . S
O509 Co501 2.055 . S
O509 C513 1.253 . S
H510 C506 0.931 . S
H511 C507 0.930 . S
O512 Co501 2.039 1_556 S
O512 C502 1.265 . S
C513 O509 1.253 . S
C513 O514 1.227 . S
O514 C513 1.227 . S
N515 Co501 2.140 . S
N515 C518 1.346 . S
N515 C519 1.345 . S
C516 C517 1.387 . S
C516 C520 1.391 . S
C517 C516 1.387 . S
C517 C518 1.369 . S
C517 H526 0.929 1_554 S
C518 N515 1.346 . S
C518 C517 1.369 . S
C518 H521 0.928 1_554 S
C519 N515 1.345 . S
C519 C520 1.371 . S
C519 H522 0.931 . S
C520 C516 1.391 . S
C520 C519 1.371 . S
C520 H527 0.930 . S
H521 C518 0.928 1_556 S
H522 C519 0.931 . S
H523 C499 0.930 1_556 S
H524 C496 0.930 . S
H525 C505 0.930 . S
H526 C517 0.929 1_556 S
H527 C520 0.930 . S
H528 C540 0.930 . S
H529 C542 0.930 . S
H530 C543 0.930 . S
H531 C547 0.959 . S
H532 C547 0.959 . S
H533 C547 0.961 . S
H534 C548 0.960 . S
H535 C548 0.961 . S
H536 C548 0.959 . S
H537 C551 0.929 . S
H538 C552 0.931 . S
H539 C554 0.930 . S
C540 H528 0.930 . S
C540 C541 1.399 1_556 S
C540 C545 1.399 . S
C541 C540 1.399 1_554 S
C541 C542 1.376 . S
C542 H529 0.930 . S
C542 C541 1.376 . S
C542 C543 1.388 . S
C543 H530 0.930 . S
C543 C542 1.388 . S
C543 C544 1.390 . S
C544 C543 1.390 . S
C544 C545 1.394 1_554 S
C544 C550 1.465 . S
C545 C540 1.399 . S
C545 C544 1.394 1_556 S
C545 C546 1.516 . S
C546 C545 1.516 . S
C546 C547 1.502 . S
C546 C548 1.561 . S
C546 C549 1.526 . S
C547 H531 0.959 . S
C547 H532 0.959 . S
C547 H533 0.961 . S
C547 C546 1.502 . S
C548 H534 0.960 . S
C548 H535 0.961 . S
C548 H536 0.959 . S
C548 C546 1.561 . S
C549 C546 1.526 . S
C549 C550 1.396 1_556 S
C549 C554 1.390 . S
C550 C544 1.465 . S
C550 C549 1.396 1_554 S
C550 C551 1.399 . S
C551 H537 0.929 . S
C551 C550 1.399 . S
C551 C552 1.385 . S
C552 H538 0.931 . S
C552 C551 1.385 . S
C552 C553 1.389 . S
C553 C552 1.389 . S
C553 C554 1.387 1_554 S
C554 H539 0.930 . S
C554 C549 1.390 . S
C554 C553 1.387 1_556 S
H555 C567 0.930 . S
H556 C569 0.930 . S
H557 C570 0.930 . S
H558 C574 0.959 . S
H559 C574 0.959 . S
H560 C574 0.961 . S
H561 C575 0.960 . S
H562 C575 0.961 . S
H563 C575 0.959 . S
H564 C578 0.929 . S
H565 C579 0.931 . S
H566 C581 0.930 . S
C567 H555 0.930 . S
C567 C568 1.399 . S
C567 C572 1.399 . S
C568 C567 1.399 . S
C568 C569 1.376 1_554 S
C569 H556 0.930 . S
C569 C568 1.376 1_556 S
C569 C570 1.388 . S
C570 H557 0.930 . S
C570 C569 1.388 . S
C570 C571 1.390 . S
C571 C570 1.390 . S
C571 C572 1.394 1_556 S
C571 C577 1.465 . S
C572 C567 1.399 . S
C572 C571 1.394 1_554 S
C572 C573 1.516 . S
C573 C572 1.516 . S
C573 C574 1.502 . S
C573 C575 1.561 . S
C573 C576 1.526 . S
C574 H558 0.959 . S
C574 H559 0.959 . S
C574 H560 0.961 . S
C574 C573 1.502 . S
C575 H561 0.960 . S
C575 H562 0.961 . S
C575 H563 0.959 . S
C575 C573 1.561 . S
C576 C573 1.526 . S
C576 C577 1.396 1_554 S
C576 C581 1.390 . S
C577 C571 1.465 . S
C577 C576 1.396 1_556 S
C577 C578 1.399 . S
C578 H564 0.929 . S
C578 C577 1.399 . S
C578 C579 1.385 . S
C579 H565 0.931 . S
C579 C578 1.385 . S
C579 C580 1.389 1_556 S
C580 C579 1.389 1_554 S
C580 C581 1.387 . S
C581 H566 0.930 . S
C581 C576 1.390 . S
C581 C580 1.387 . S
H582 C594 0.930 . S
H583 C596 0.930 . S
H584 C597 0.930 . S
H585 C601 0.959 . S
H586 C601 0.959 . S
H587 C601 0.961 . S
H588 C602 0.960 . S
H589 C602 0.961 . S
H590 C602 0.959 . S
H591 C605 0.929 . S
H592 C606 0.931 . S
H593 C608 0.930 . S
C594 H582 0.930 . S
C594 C595 1.399 1_556 S
C594 C599 1.399 . S
C595 C594 1.399 1_554 S
C595 C596 1.376 . S
C596 H583 0.930 . S
C596 C595 1.376 . S
C596 C597 1.388 . S
C597 H584 0.930 . S
C597 C596 1.388 . S
C597 C598 1.390 . S
C598 C597 1.390 . S
C598 C599 1.394 1_554 S
C598 C604 1.465 . S
C599 C594 1.399 . S
C599 C598 1.394 1_556 S
C599 C600 1.516 . S
C600 C599 1.516 . S
C600 C601 1.502 . S
C600 C602 1.561 . S
C600 C603 1.526 . S
C601 H585 0.959 . S
C601 H586 0.959 . S
C601 H587 0.961 . S
C601 C600 1.502 . S
C602 H588 0.960 . S
C602 H589 0.961 . S
C602 H590 0.959 . S
C602 C600 1.561 . S
C603 C600 1.526 . S
C603 C604 1.396 1_556 S
C603 C608 1.390 . S
C604 C598 1.465 . S
C604 C603 1.396 1_554 S
C604 C605 1.399 . S
C605 H591 0.929 . S
C605 C604 1.399 . S
C605 C606 1.385 . S
C606 H592 0.931 . S
C606 C605 1.385 . S
C606 C607 1.389 . S
C607 C606 1.389 . S
C607 C608 1.387 1_554 S
C608 H593 0.930 . S
C608 C603 1.390 . S
C608 C607 1.387 1_556 S
H609 C621 0.930 . S
H610 C623 0.930 . S
H611 C624 0.930 . S
H612 C628 0.959 . S
H613 C628 0.959 . S
H614 C628 0.961 . S
H615 C629 0.960 . S
H616 C629 0.961 . S
H617 C629 0.959 . S
H618 C632 0.929 . S
H619 C633 0.931 . S
H620 C635 0.930 . S
C621 H609 0.930 . S
C621 C622 1.399 . S
C621 C626 1.399 . S
C622 C621 1.399 . S
C622 C623 1.376 1_554 S
C623 H610 0.930 . S
C623 C622 1.376 1_556 S
C623 C624 1.388 . S
C624 H611 0.930 . S
C624 C623 1.388 . S
C624 C625 1.397 . S
C625 C624 1.397 . S
C625 C626 1.385 1_556 S
C625 C631 1.465 . S
C626 C621 1.399 . S
C626 C625 1.385 1_554 S
C626 C627 1.516 . S
C627 C626 1.516 . S
C627 C628 1.502 . S
C627 C629 1.561 . S
C627 C630 1.526 . S
C628 H612 0.959 . S
C628 H613 0.959 . S
C628 H614 0.961 . S
C628 C627 1.502 . S
C629 H615 0.960 . S
C629 H616 0.961 . S
C629 H617 0.959 . S
C629 C627 1.561 . S
C630 C627 1.526 . S
C630 C631 1.396 1_554 S
C630 C635 1.390 . S
C631 C625 1.465 . S
C631 C630 1.396 1_556 S
C631 C632 1.399 . S
C632 H618 0.929 . S
C632 C631 1.399 . S
C632 C633 1.385 . S
C633 H619 0.931 . S
C633 C632 1.385 . S
C633 C634 1.389 1_556 S
C634 C633 1.389 1_554 S
C634 C635 1.387 . S
C635 H620 0.930 . S
C635 C630 1.390 . S
C635 C634 1.387 . S
H636 C648 0.930 . S
H637 C650 0.930 . S
H638 C651 0.930 . S
H639 C655 0.959 . S
H640 C655 0.959 . S
H641 C655 0.961 . S
H642 C656 0.960 . S
H643 C656 0.961 . S
H644 C656 0.959 . S
H645 C659 0.929 . S
H646 C660 0.931 . S
H647 C662 0.930 . S
C648 H636 0.930 . S
C648 C649 1.399 . S
C648 C653 1.399 . S
C649 C648 1.399 . S
C649 C650 1.376 . S
C650 H637 0.930 . S
C650 C649 1.376 . S
C650 C651 1.388 . S
C651 H638 0.930 . S
C651 C650 1.388 . S
C651 C652 1.390 . S
C652 C651 1.390 . S
C652 C653 1.394 . S
C652 C658 1.465 . S
C653 C648 1.399 . S
C653 C652 1.394 . S
C653 C654 1.516 . S
C654 C653 1.516 . S
C654 C655 1.502 . S
C654 C656 1.561 . S
C654 C657 1.526 . S
C655 H639 0.959 . S
C655 H640 0.959 . S
C655 H641 0.961 . S
C655 C654 1.502 . S
C656 H642 0.960 . S
C656 H643 0.961 . S
C656 H644 0.959 . S
C656 C654 1.561 . S
C657 C654 1.526 . S
C657 C658 1.396 . S
C657 C662 1.390 . S
C658 C652 1.465 . S
C658 C657 1.396 . S
C658 C659 1.399 . S
C659 H645 0.929 . S
C659 C658 1.399 . S
C659 C660 1.385 . S
C660 H646 0.931 . S
C660 C659 1.385 . S
C660 C661 1.389 . S
C661 C660 1.389 . S
C661 C662 1.387 . S
C662 H647 0.930 . S
C662 C657 1.390 . S
C662 C661 1.387 . S
H663 C675 0.930 . S
H664 C677 0.930 . S
H665 C678 0.930 . S
H666 C682 0.959 . S
H667 C682 0.959 . S
H668 C682 0.961 . S
H669 C683 0.960 . S
H670 C683 0.961 . S
H671 C683 0.959 . S
H672 C686 0.929 . S
H673 C687 0.931 . S
H674 C689 0.930 . S
C675 H663 0.930 . S
C675 C676 1.399 . S
C675 C680 1.399 . S
C676 C675 1.399 . S
C676 C677 1.376 . S
C677 H664 0.930 . S
C677 C676 1.376 . S
C677 C678 1.388 . S
C678 H665 0.930 . S
C678 C677 1.388 . S
C678 C679 1.390 . S
C679 C678 1.390 . S
C679 C680 1.394 . S
C679 C685 1.465 . S
C680 C675 1.399 . S
C680 C679 1.394 . S
C680 C681 1.516 . S
C681 C680 1.516 . S
C681 C682 1.502 . S
C681 C683 1.561 . S
C681 C684 1.526 . S
C682 H666 0.959 . S
C682 H667 0.959 . S
C682 H668 0.961 . S
C682 C681 1.502 . S
C683 H669 0.960 . S
C683 H670 0.961 . S
C683 H671 0.959 . S
C683 C681 1.561 . S
C684 C681 1.526 . S
C684 C685 1.396 . S
C684 C689 1.390 . S
C685 C679 1.465 . S
C685 C684 1.396 . S
C685 C686 1.399 . S
C686 H672 0.929 . S
C686 C685 1.399 . S
C686 C687 1.385 . S
C687 H673 0.931 . S
C687 C686 1.385 . S
C687 C688 1.389 . S
C688 C687 1.389 . S
C688 C689 1.387 . S
C689 H674 0.930 . S
C689 C684 1.390 . S
C689 C688 1.387 . S
H690 C702 0.930 . S
H691 C704 0.930 . S
H692 C705 0.930 . S
H693 C709 0.959 . S
H694 C709 0.959 . S
H695 C709 0.961 . S
H696 C710 0.960 . S
H697 C710 0.961 . S
H698 C710 0.959 . S
H699 C713 0.929 . S
H700 C714 0.931 . S
H701 C716 0.930 . S
C702 H690 0.930 . S
C702 C703 1.399 . S
C702 C707 1.399 . S
C703 C702 1.399 . S
C703 C704 1.376 . S
C704 H691 0.930 . S
C704 C703 1.376 . S
C704 C705 1.388 . S
C705 H692 0.930 . S
C705 C704 1.388 . S
C705 C706 1.390 . S
C706 C705 1.390 . S
C706 C707 1.394 . S
C706 C712 1.465 . S
C707 C702 1.399 . S
C707 C706 1.394 . S
C707 C708 1.516 . S
C708 C707 1.516 . S
C708 C709 1.502 . S
C708 C710 1.561 . S
C708 C711 1.526 . S
C709 H693 0.959 . S
C709 H694 0.959 . S
C709 H695 0.961 . S
C709 C708 1.502 . S
C710 H696 0.960 . S
C710 H697 0.961 . S
C710 H698 0.959 . S
C710 C708 1.561 . S
C711 C708 1.526 . S
C711 C712 1.396 . S
C711 C716 1.390 . S
C712 C706 1.465 . S
C712 C711 1.396 . S
C712 C713 1.399 . S
C713 H699 0.929 . S
C713 C712 1.399 . S
C713 C714 1.385 . S
C714 H700 0.931 . S
C714 C713 1.385 . S
C714 C715 1.389 . S
C715 C714 1.389 . S
C715 C716 1.387 . S
C716 H701 0.930 . S
C716 C711 1.390 . S
C716 C715 1.387 . S
H717 C729 0.930 . S
H718 C731 0.930 . S
H719 C732 0.930 . S
H720 C736 0.959 . S
H721 C736 0.959 . S
H722 C736 0.961 . S
H723 C737 0.960 . S
H724 C737 0.961 . S
H725 C737 0.959 . S
H726 C740 0.929 . S
H727 C741 0.931 . S
H728 C743 0.930 . S
C729 H717 0.930 . S
C729 C730 1.399 . S
C729 C734 1.399 . S
C730 C729 1.399 . S
C730 C731 1.376 . S
C731 H718 0.930 . S
C731 C730 1.376 . S
C731 C732 1.388 . S
C732 H719 0.930 . S
C732 C731 1.388 . S
C732 C733 1.390 . S
C733 C732 1.390 . S
C733 C734 1.394 . S
C733 C739 1.465 . S
C734 C729 1.399 . S
C734 C733 1.394 . S
C734 C735 1.516 . S
C735 C734 1.516 . S
C735 C736 1.502 . S
C735 C737 1.561 . S
C735 C738 1.526 . S
C736 H720 0.959 . S
C736 H721 0.959 . S
C736 H722 0.961 . S
C736 C735 1.502 . S
C737 H723 0.960 . S
C737 H724 0.961 . S
C737 H725 0.959 . S
C737 C735 1.561 . S
C738 C735 1.526 . S
C738 C739 1.396 . S
C738 C743 1.390 . S
C739 C733 1.465 . S
C739 C738 1.396 . S
C739 C740 1.399 . S
C740 H726 0.929 . S
C740 C739 1.399 . S
C740 C741 1.385 . S
C741 H727 0.931 . S
C741 C740 1.385 . S
C741 C742 1.389 . S
C742 C741 1.389 . S
C742 C743 1.387 . S
C743 H728 0.930 . S
C743 C738 1.390 . S
C743 C742 1.387 . S
H744 C756 0.930 . S
H745 C758 0.930 . S
H746 C759 0.930 . S
H747 C763 0.959 . S
H748 C763 0.959 . S
H749 C763 0.961 . S
H750 C764 0.960 . S
H751 C764 0.961 . S
H752 C764 0.959 . S
H753 C767 0.929 . S
H754 C768 0.931 . S
H755 C770 0.930 . S
C756 H744 0.930 . S
C756 C757 1.399 1_554 S
C756 C761 1.399 . S
C757 C756 1.399 1_556 S
C757 C758 1.376 . S
C758 H745 0.930 . S
C758 C757 1.376 . S
C758 C759 1.388 . S
C759 H746 0.930 . S
C759 C758 1.388 . S
C759 C760 1.390 . S
C760 C759 1.390 . S
C760 C761 1.394 1_556 S
C760 C766 1.465 . S
C761 C756 1.399 . S
C761 C760 1.394 1_554 S
C761 C762 1.516 . S
C762 C761 1.516 . S
C762 C763 1.502 . S
C762 C764 1.561 . S
C762 C765 1.526 . S
C763 H747 0.959 . S
C763 H748 0.959 . S
C763 H749 0.961 . S
C763 C762 1.502 . S
C764 H750 0.960 . S
C764 H751 0.961 . S
C764 H752 0.959 . S
C764 C762 1.561 . S
C765 C762 1.526 . S
C765 C766 1.396 1_554 S
C765 C770 1.390 . S
C766 C760 1.465 . S
C766 C765 1.396 1_556 S
C766 C767 1.399 . S
C767 H753 0.929 . S
C767 C766 1.399 . S
C767 C768 1.385 . S
C768 H754 0.931 . S
C768 C767 1.385 . S
C768 C769 1.389 1_556 S
C769 C768 1.389 1_554 S
C769 C770 1.387 . S
C770 H755 0.930 . S
C770 C765 1.390 . S
C770 C769 1.387 . S
H771 C783 0.930 . S
H772 C785 0.930 . S
H773 C786 0.930 . S
H774 C790 0.959 . S
H775 C790 0.959 . S
H776 C790 0.961 . S
H777 C791 0.960 . S
H778 C791 0.961 . S
H779 C791 0.959 . S
H780 C794 0.929 . S
H781 C795 0.931 . S
H782 C797 0.930 . S
C783 H771 0.930 . S
C783 C784 1.399 . S
C783 C788 1.399 . S
C784 C783 1.399 . S
C784 C785 1.376 1_556 S
C785 H772 0.930 . S
C785 C784 1.376 1_554 S
C785 C786 1.388 . S
C786 H773 0.930 . S
C786 C785 1.388 . S
C786 C787 1.390 . S
C787 C786 1.390 . S
C787 C788 1.394 1_554 S
C787 C793 1.465 . S
C788 C783 1.399 . S
C788 C787 1.394 1_556 S
C788 C789 1.516 . S
C789 C788 1.516 . S
C789 C790 1.502 . S
C789 C791 1.561 . S
C789 C792 1.526 . S
C790 H774 0.959 . S
C790 H775 0.959 . S
C790 H776 0.961 . S
C790 C789 1.502 . S
C791 H777 0.960 . S
C791 H778 0.961 . S
C791 H779 0.959 . S
C791 C789 1.561 . S
C792 C789 1.526 . S
C792 C793 1.396 1_556 S
C792 C797 1.390 . S
C793 C787 1.465 . S
C793 C792 1.396 1_554 S
C793 C794 1.399 . S
C794 H780 0.929 . S
C794 C793 1.399 . S
C794 C795 1.385 . S
C795 H781 0.931 . S
C795 C794 1.385 . S
C795 C796 1.389 . S
C796 C795 1.389 . S
C796 C797 1.387 1_554 S
C797 H782 0.930 . S
C797 C792 1.390 . S
C797 C796 1.387 1_556 S
H798 C810 0.930 . S
H799 C812 0.930 . S
H800 C813 0.930 . S
H801 C817 0.959 . S
H802 C817 0.959 . S
H803 C817 0.961 . S
H804 C818 0.960 . S
H805 C818 0.961 . S
H806 C818 0.959 . S
H807 C821 0.929 . S
H808 C822 0.931 . S
H809 C824 0.930 . S
C810 H798 0.930 . S
C810 C811 1.399 1_556 S
C810 C815 1.399 . S
C811 C810 1.399 1_554 S
C811 C812 1.376 . S
C812 H799 0.930 . S
C812 C811 1.376 . S
C812 C813 1.388 . S
C813 H800 0.930 . S
C813 C812 1.388 . S
C813 C814 1.390 . S
C814 C813 1.390 . S
C814 C815 1.394 1_554 S
C814 C820 1.465 . S
C815 C810 1.399 . S
C815 C814 1.394 1_556 S
C815 C816 1.516 . S
C816 C815 1.516 . S
C816 C817 1.502 . S
C816 C818 1.561 . S
C816 C819 1.526 . S
C817 H801 0.959 . S
C817 H802 0.959 . S
C817 H803 0.961 . S
C817 C816 1.502 . S
C818 H804 0.960 . S
C818 H805 0.961 . S
C818 H806 0.959 . S
C818 C816 1.561 . S
C819 C816 1.526 . S
C819 C820 1.396 1_556 S
C819 C824 1.390 . S
C820 C814 1.465 . S
C820 C819 1.396 1_554 S
C820 C821 1.399 . S
C821 H807 0.929 . S
C821 C820 1.399 . S
C821 C822 1.385 . S
C822 H808 0.931 . S
C822 C821 1.385 . S
C822 C823 1.389 1_554 S
C823 C822 1.389 1_556 S
C823 C824 1.387 . S
C824 H809 0.930 . S
C824 C819 1.390 . S
C824 C823 1.387 . S
H825 C837 0.930 . S
H826 C839 0.930 . S
H827 C840 0.930 . S
H828 C844 0.959 . S
H829 C844 0.959 . S
H830 C844 0.961 . S
H831 C845 0.960 . S
H832 C845 0.961 . S
H833 C845 0.959 . S
H834 C848 0.929 . S
H835 C849 0.931 . S
H836 C851 0.930 . S
C837 H825 0.930 . S
C837 C838 1.399 1_556 S
C837 C842 1.399 . S
C838 C837 1.399 1_554 S
C838 C839 1.376 . S
C839 H826 0.930 . S
C839 C838 1.376 . S
C839 C840 1.388 . S
C840 H827 0.930 . S
C840 C839 1.388 . S
C840 C841 1.390 . S
C841 C840 1.390 . S
C841 C842 1.394 1_554 S
C841 C847 1.465 . S
C842 C837 1.399 . S
C842 C841 1.394 1_556 S
C842 C843 1.516 . S
C843 C842 1.516 . S
C843 C844 1.502 . S
C843 C845 1.561 . S
C843 C846 1.526 . S
C844 H828 0.959 . S
C844 H829 0.959 . S
C844 H830 0.961 . S
C844 C843 1.502 . S
C845 H831 0.960 . S
C845 H832 0.961 . S
C845 H833 0.959 . S
C845 C843 1.561 . S
C846 C843 1.526 . S
C846 C847 1.396 1_556 S
C846 C851 1.390 . S
C847 C841 1.465 . S
C847 C846 1.396 1_554 S
C847 C848 1.399 . S
C848 H834 0.929 . S
C848 C847 1.399 . S
C848 C849 1.385 . S
C849 H835 0.931 . S
C849 C848 1.385 . S
C849 C850 1.389 1_554 S
C850 C849 1.389 1_556 S
C850 C851 1.387 . S
C851 H836 0.930 . S
C851 C846 1.390 . S
C851 C850 1.387 . S
H852 C864 0.930 . S
H853 C866 0.930 . S
H854 C867 0.930 . S
H855 C871 0.959 . S
H856 C871 0.959 . S
H857 C871 0.961 . S
H858 C872 0.960 . S
H859 C872 0.961 . S
H860 C872 0.959 . S
H861 C875 0.929 . S
H862 C876 0.931 . S
H863 C878 0.930 . S
C864 H852 0.930 . S
C864 C865 1.399 . S
C864 C869 1.399 . S
C865 C864 1.399 . S
C865 C866 1.376 . S
C866 H853 0.930 . S
C866 C865 1.376 . S
C866 C867 1.388 . S
C867 H854 0.930 . S
C867 C866 1.388 . S
C867 C868 1.390 . S
C868 C867 1.390 . S
C868 C869 1.394 . S
C868 C874 1.465 . S
C869 C864 1.399 . S
C869 C868 1.394 . S
C869 C870 1.516 . S
C870 C869 1.516 . S
C870 C871 1.502 . S
C870 C872 1.561 . S
C870 C873 1.526 . S
C871 H855 0.959 . S
C871 H856 0.959 . S
C871 H857 0.961 . S
C871 C870 1.502 . S
C872 H858 0.960 . S
C872 H859 0.961 . S
C872 H860 0.959 . S
C872 C870 1.561 . S
C873 C870 1.526 . S
C873 C874 1.396 . S
C873 C878 1.390 . S
C874 C868 1.465 . S
C874 C873 1.396 . S
C874 C875 1.399 . S
C875 H861 0.929 . S
C875 C874 1.399 . S
C875 C876 1.385 . S
C876 H862 0.931 . S
C876 C875 1.385 . S
C876 C877 1.389 . S
C877 C876 1.389 . S
C877 C878 1.387 . S
C878 H863 0.930 . S
C878 C873 1.390 . S
C878 C877 1.387 . S
H879 C891 0.930 . S
H880 C893 0.930 . S
H881 C894 0.930 . S
H882 C898 0.959 . S
H883 C898 0.959 . S
H884 C898 0.961 . S
H885 C899 0.960 . S
H886 C899 0.961 . S
H887 C899 0.959 . S
H888 C902 0.929 . S
H889 C903 0.931 . S
H890 C905 0.930 . S
C891 H879 0.930 . S
C891 C892 1.399 . S
C891 C896 1.399 . S
C892 C891 1.399 . S
C892 C893 1.376 . S
C893 H880 0.930 . S
C893 C892 1.376 . S
C893 C894 1.388 . S
C894 H881 0.930 . S
C894 C893 1.388 . S
C894 C895 1.390 . S
C895 C894 1.390 . S
C895 C896 1.394 . S
C895 C901 1.465 . S
C896 C891 1.399 . S
C896 C895 1.394 . S
C896 C897 1.516 . S
C897 C896 1.516 . S
C897 C898 1.502 . S
C897 C899 1.561 . S
C897 C900 1.526 . S
C898 H882 0.959 . S
C898 H883 0.959 . S
C898 H884 0.961 . S
C898 C897 1.502 . S
C899 H885 0.960 . S
C899 H886 0.961 . S
C899 H887 0.959 . S
C899 C897 1.561 . S
C900 C897 1.526 . S
C900 C901 1.396 . S
C900 C905 1.390 . S
C901 C895 1.465 . S
C901 C900 1.396 . S
C901 C902 1.399 . S
C902 H888 0.929 . S
C902 C901 1.399 . S
C902 C903 1.385 . S
C903 H889 0.931 . S
C903 C902 1.385 . S
C903 C904 1.389 . S
C904 C903 1.389 . S
C904 C905 1.387 . S
C905 H890 0.930 . S
C905 C900 1.390 . S
C905 C904 1.387 . S
H906 C918 0.930 . S
H907 C920 0.930 . S
H908 C921 0.930 . S
H909 C925 0.959 . S
H910 C925 0.959 . S
H911 C925 0.961 . S
H912 C926 0.960 . S
H913 C926 0.961 . S
H914 C926 0.959 . S
H915 C929 0.929 . S
H916 C930 0.931 . S
H917 C932 0.930 . S
C918 H906 0.930 . S
C918 C919 1.399 . S
C918 C923 1.399 . S
C919 C918 1.399 . S
C919 C920 1.376 . S
C920 H907 0.930 . S
C920 C919 1.376 . S
C920 C921 1.388 . S
C921 H908 0.930 . S
C921 C920 1.388 . S
C921 C922 1.390 . S
C922 C921 1.390 . S
C922 C923 1.394 . S
C922 C928 1.465 . S
C923 C918 1.399 . S
C923 C922 1.394 . S
C923 C924 1.516 . S
C924 C923 1.516 . S
C924 C925 1.502 . S
C924 C926 1.561 . S
C924 C927 1.526 . S
C925 H909 0.959 . S
C925 H910 0.959 . S
C925 H911 0.961 . S
C925 C924 1.502 . S
C926 H912 0.960 . S
C926 H913 0.961 . S
C926 H914 0.959 . S
C926 C924 1.561 . S
C927 C924 1.526 . S
C927 C928 1.396 . S
C927 C932 1.390 . S
C928 C922 1.465 . S
C928 C927 1.396 . S
C928 C929 1.399 . S
C929 H915 0.929 . S
C929 C928 1.399 . S
C929 C930 1.385 . S
C930 H916 0.931 . S
C930 C929 1.385 . S
C930 C931 1.389 . S
C931 C930 1.389 . S
C931 C932 1.387 . S
C932 H917 0.930 . S
C932 C927 1.390 . S
C932 C931 1.387 . S
H933 C945 0.930 . S
H934 C947 0.930 . S
H935 C948 0.930 . S
H936 C952 0.959 . S
H937 C952 0.959 . S
H938 C952 0.961 . S
H939 C953 0.960 . S
H940 C953 0.961 . S
H941 C953 0.959 . S
H942 C956 0.929 . S
H943 C957 0.931 . S
H944 C959 0.930 . S
C945 H933 0.930 . S
C945 C946 1.399 . S
C945 C950 1.399 . S
C946 C945 1.399 . S
C946 C947 1.376 . S
C947 H934 0.930 . S
C947 C946 1.376 . S
C947 C948 1.388 . S
C948 H935 0.930 . S
C948 C947 1.388 . S
C948 C949 1.390 . S
C949 C948 1.390 . S
C949 C950 1.394 . S
C949 C955 1.465 . S
C950 C945 1.399 . S
C950 C949 1.394 . S
C950 C951 1.516 . S
C951 C950 1.516 . S
C951 C952 1.502 . S
C951 C953 1.561 . S
C951 C954 1.526 . S
C952 H936 0.959 . S
C952 H937 0.959 . S
C952 H938 0.961 . S
C952 C951 1.502 . S
C953 H939 0.960 . S
C953 H940 0.961 . S
C953 H941 0.959 . S
C953 C951 1.561 . S
C954 C951 1.526 . S
C954 C955 1.396 . S
C954 C959 1.390 . S
C955 C949 1.465 . S
C955 C954 1.396 . S
C955 C956 1.399 . S
C956 H942 0.929 . S
C956 C955 1.399 . S
C956 C957 1.385 . S
C957 H943 0.931 . S
C957 C956 1.385 . S
C957 C958 1.389 . S
C958 C957 1.389 . S
C958 C959 1.387 . S
C959 H944 0.930 . S
C959 C954 1.390 . S
C959 C958 1.387 . S
H960 C972 0.930 . S
H961 C974 0.930 . S
H962 C975 0.930 . S
H963 C979 0.959 . S
H964 C979 0.959 . S
H965 C979 0.961 . S
H966 C980 0.960 . S
H967 C980 0.961 . S
H968 C980 0.959 . S
H969 C983 0.929 . S
H970 C984 0.931 . S
H971 C986 0.930 . S
C972 H960 0.930 . S
C972 C973 1.399 . S
C972 C977 1.399 . S
C973 C972 1.399 . S
C973 C974 1.376 . S
C974 H961 0.930 . S
C974 C973 1.376 . S
C974 C975 1.388 . S
C975 H962 0.930 . S
C975 C974 1.388 . S
C975 C976 1.390 . S
C976 C975 1.390 . S
C976 C977 1.394 . S
C976 C982 1.465 . S
C977 C972 1.399 . S
C977 C976 1.394 . S
C977 C978 1.516 . S
C978 C977 1.516 . S
C978 C979 1.502 . S
C978 C980 1.561 . S
C978 C981 1.526 . S
C979 H963 0.959 . S
C979 H964 0.959 . S
C979 H965 0.961 . S
C979 C978 1.502 . S
C980 H966 0.960 . S
C980 H967 0.961 . S
C980 H968 0.959 . S
C980 C978 1.561 . S
C981 C978 1.526 . S
C981 C982 1.396 . S
C981 C986 1.390 . S
C982 C976 1.465 . S
C982 C981 1.396 . S
C982 C983 1.399 . S
C983 H969 0.929 . S
C983 C982 1.399 . S
C983 C984 1.385 . S
C984 H970 0.931 . S
C984 C983 1.385 . S
C984 C985 1.389 . S
C985 C984 1.389 . S
C985 C986 1.387 . S
C986 H971 0.930 . S
C986 C981 1.390 . S
C986 C985 1.387 . S
H987 C999 0.930 . S
H988 C1001 0.930 . S
H989 C1002 0.930 . S
H990 C1006 0.959 . S
H991 C1006 0.959 . S
H992 C1006 0.961 . S
H993 C1007 0.960 . S
H994 C1007 0.961 . S
H995 C1007 0.959 . S
H996 C1010 0.929 . S
H997 C1011 0.931 . S
H998 C1013 0.930 . S
C999 H987 0.930 . S
C999 C1000 1.399 . S
C999 C1004 1.399 . S
C1000 C999 1.399 . S
C1000 C1001 1.376 . S
C1001 H988 0.930 . S
C1001 C1000 1.376 . S
C1001 C1002 1.388 . S
C1002 H989 0.930 . S
C1002 C1001 1.388 . S
C1002 C1003 1.390 . S
C1003 C1002 1.390 . S
C1003 C1004 1.394 . S
C1003 C1009 1.465 . S
C1004 C999 1.399 . S
C1004 C1003 1.394 . S
C1004 C1005 1.516 . S
C1005 C1004 1.516 . S
C1005 C1006 1.502 . S
C1005 C1007 1.561 . S
C1005 C1008 1.526 . S
C1006 H990 0.959 . S
C1006 H991 0.959 . S
C1006 H992 0.961 . S
C1006 C1005 1.502 . S
C1007 H993 0.960 . S
C1007 H994 0.961 . S
C1007 H995 0.959 . S
C1007 C1005 1.561 . S
C1008 C1005 1.526 . S
C1008 C1009 1.396 . S
C1008 C1013 1.390 . S
C1009 C1003 1.465 . S
C1009 C1008 1.396 . S
C1009 C1010 1.399 . S
C1010 H996 0.929 . S
C1010 C1009 1.399 . S
C1010 C1011 1.385 . S
C1011 H997 0.931 . S
C1011 C1010 1.385 . S
C1011 C1012 1.389 . S
C1012 C1011 1.389 . S
C1012 C1013 1.387 . S
C1013 H998 0.930 . S
C1013 C1008 1.390 . S
C1013 C1012 1.387 . S
H1014 C1026 0.930 . S
H1015 C1028 0.930 . S
H1016 C1029 0.930 . S
H1017 C1033 0.959 . S
H1018 C1033 0.959 . S
H1019 C1033 0.961 . S
H1020 C1034 0.960 . S
H1021 C1034 0.961 . S
H1022 C1034 0.959 . S
H1023 C1037 0.929 . S
H1024 C1038 0.931 . S
H1025 C1040 0.930 . S
C1026 H1014 0.930 . S
C1026 C1027 1.399 . S
C1026 C1031 1.399 . S
C1027 C1026 1.399 . S
C1027 C1028 1.376 . S
C1028 H1015 0.930 . S
C1028 C1027 1.376 . S
C1028 C1029 1.388 . S
C1029 H1016 0.930 . S
C1029 C1028 1.388 . S
C1029 C1030 1.390 . S
C1030 C1029 1.390 . S
C1030 C1031 1.394 . S
C1030 C1036 1.465 . S
C1031 C1026 1.399 . S
C1031 C1030 1.394 . S
C1031 C1032 1.516 . S
C1032 C1031 1.516 . S
C1032 C1033 1.502 . S
C1032 C1034 1.561 . S
C1032 C1035 1.526 . S
C1033 H1017 0.959 . S
C1033 H1018 0.959 . S
C1033 H1019 0.961 . S
C1033 C1032 1.502 . S
C1034 H1020 0.960 . S
C1034 H1021 0.961 . S
C1034 H1022 0.959 . S
C1034 C1032 1.561 . S
C1035 C1032 1.526 . S
C1035 C1036 1.396 . S
C1035 C1040 1.390 . S
C1036 C1030 1.465 . S
C1036 C1035 1.396 . S
C1036 C1037 1.399 . S
C1037 H1023 0.929 . S
C1037 C1036 1.399 . S
C1037 C1038 1.385 . S
C1038 H1024 0.931 . S
C1038 C1037 1.385 . S
C1038 C1039 1.389 . S
C1039 C1038 1.389 . S
C1039 C1040 1.387 . S
C1040 H1025 0.930 . S
C1040 C1035 1.390 . S
C1040 C1039 1.387 . S
H1041 C1053 0.930 . S
H1042 C1055 0.930 . S
H1043 C1056 0.930 . S
H1044 C1060 0.959 . S
H1045 C1060 0.959 . S
H1046 C1060 0.961 . S
H1047 C1061 0.960 . S
H1048 C1061 0.961 . S
H1049 C1061 0.959 . S
H1050 C1064 0.929 . S
H1051 C1065 0.931 . S
H1052 C1067 0.930 . S
C1053 H1041 0.930 . S
C1053 C1054 1.399 . S
C1053 C1058 1.399 . S
C1054 C1053 1.399 . S
C1054 C1055 1.376 . S
C1055 H1042 0.930 . S
C1055 C1054 1.376 . S
C1055 C1056 1.388 . S
C1056 H1043 0.930 . S
C1056 C1055 1.388 . S
C1056 C1057 1.390 . S
C1057 C1056 1.390 . S
C1057 C1058 1.394 . S
C1057 C1063 1.465 . S
C1058 C1053 1.399 . S
C1058 C1057 1.394 . S
C1058 C1059 1.516 . S
C1059 C1058 1.516 . S
C1059 C1060 1.502 . S
C1059 C1061 1.561 . S
C1059 C1062 1.526 . S
C1060 H1044 0.959 . S
C1060 H1045 0.959 . S
C1060 H1046 0.961 . S
C1060 C1059 1.502 . S
C1061 H1047 0.960 . S
C1061 H1048 0.961 . S
C1061 H1049 0.959 . S
C1061 C1059 1.561 . S
C1062 C1059 1.526 . S
C1062 C1063 1.396 . S
C1062 C1067 1.390 . S
C1063 C1057 1.465 . S
C1063 C1062 1.396 . S
C1063 C1064 1.399 . S
C1064 H1050 0.929 . S
C1064 C1063 1.399 . S
C1064 C1065 1.385 . S
C1065 H1051 0.931 . S
C1065 C1064 1.385 . S
C1065 C1066 1.389 . S
C1066 C1065 1.389 . S
C1066 C1067 1.387 . S
C1067 H1052 0.930 . S
C1067 C1062 1.390 . S
C1067 C1066 1.387 . S
H1068 C1080 0.930 . S
H1069 C1082 0.930 . S
H1070 C1083 0.930 . S
H1071 C1087 0.959 . S
H1072 C1087 0.959 . S
H1073 C1087 0.961 . S
H1074 C1088 0.960 . S
H1075 C1088 0.961 . S
H1076 C1088 0.959 . S
H1077 C1091 0.929 . S
H1078 C1092 0.931 . S
H1079 C1094 0.930 . S
C1080 H1068 0.930 . S
C1080 C1081 1.399 . S
C1080 C1085 1.399 . S
C1081 C1080 1.399 . S
C1081 C1082 1.376 1_554 S
C1082 H1069 0.930 . S
C1082 C1081 1.376 1_556 S
C1082 C1083 1.388 . S
C1083 H1070 0.930 . S
C1083 C1082 1.388 . S
C1083 C1084 1.390 1_556 S
C1084 C1083 1.390 1_554 S
C1084 C1085 1.394 . S
C1084 C1090 1.465 . S
C1085 C1080 1.399 . S
C1085 C1084 1.394 . S
C1085 C1086 1.516 . S
C1086 C1085 1.516 . S
C1086 C1087 1.502 . S
C1086 C1088 1.561 . S
C1086 C1089 1.526 . S
C1087 H1071 0.959 . S
C1087 H1072 0.959 . S
C1087 H1073 0.961 . S
C1087 C1086 1.502 . S
C1088 H1074 0.960 . S
C1088 H1075 0.961 . S
C1088 H1076 0.959 . S
C1088 C1086 1.561 . S
C1089 C1086 1.526 . S
C1089 C1090 1.396 . S
C1089 C1094 1.390 . S
C1090 C1084 1.465 . S
C1090 C1089 1.396 . S
C1090 C1091 1.399 1_554 S
C1091 H1077 0.929 . S
C1091 C1090 1.399 1_556 S
C1091 C1092 1.385 . S
C1092 H1078 0.931 . S
C1092 C1091 1.385 . S
C1092 C1093 1.389 1_556 S
C1093 C1092 1.389 1_554 S
C1093 C1094 1.387 . S
C1094 H1079 0.930 . S
C1094 C1089 1.390 . S
C1094 C1093 1.387 . S
H1095 C1107 0.930 1_556 S
H1096 C1109 0.930 . S
H1097 C1110 0.930 . S
H1098 C1114 0.959 . S
H1099 C1114 0.959 . S
H1100 C1114 0.961 . S
H1101 C1115 0.960 . S
H1102 C1115 0.961 . S
H1103 C1115 0.959 . S
H1104 C1118 0.929 . S
H1105 C1119 0.931 . S
H1106 C1121 0.930 . S
C1107 H1095 0.930 1_554 S
C1107 C1108 1.399 . S
C1107 C1112 1.399 . S
C1108 C1107 1.399 . S
C1108 C1109 1.376 . S
C1109 H1096 0.930 . S
C1109 C1108 1.376 . S
C1109 C1110 1.388 . S
C1110 H1097 0.930 . S
C1110 C1109 1.388 . S
C1110 C1111 1.390 . S
C1111 C1110 1.390 . S
C1111 C1112 1.394 . S
C1111 C1117 1.465 . S
C1112 C1107 1.399 . S
C1112 C1111 1.394 . S
C1112 C1113 1.516 1_554 S
C1113 C1112 1.516 1_556 S
C1113 C1114 1.502 . S
C1113 C1115 1.561 . S
C1113 C1116 1.526 1_556 S
C1114 H1098 0.959 . S
C1114 H1099 0.959 . S
C1114 H1100 0.961 . S
C1114 C1113 1.502 . S
C1115 H1101 0.960 . S
C1115 H1102 0.961 . S
C1115 H1103 0.959 . S
C1115 C1113 1.561 . S
C1116 C1113 1.526 1_554 S
C1116 C1117 1.396 . S
C1116 C1121 1.390 1_554 S
C1117 C1111 1.465 . S
C1117 C1116 1.396 . S
C1117 C1118 1.399 . S
C1118 H1104 0.929 . S
C1118 C1117 1.399 . S
C1118 C1119 1.385 . S
C1119 H1105 0.931 . S
C1119 C1118 1.385 . S
C1119 C1120 1.389 . S
C1120 C1119 1.389 . S
C1120 C1121 1.387 1_554 S
C1121 H1106 0.930 . S
C1121 C1116 1.390 1_556 S
C1121 C1120 1.387 1_556 S
H1122 C1134 0.930 . S
H1123 C1136 0.930 . S
H1124 C1137 0.930 . S
H1125 C1141 0.959 . S
H1126 C1141 0.959 . S
H1127 C1141 0.961 . S
H1128 C1142 0.960 . S
H1129 C1142 0.961 . S
H1130 C1142 0.959 . S
H1131 C1145 0.929 . S
H1132 C1146 0.931 . S
H1133 C1148 0.930 . S
C1134 H1122 0.930 . S
C1134 C1135 1.399 . S
C1134 C1139 1.399 . S
C1135 C1134 1.399 . S
C1135 C1136 1.376 1_554 S
C1136 H1123 0.930 . S
C1136 C1135 1.376 1_556 S
C1136 C1137 1.388 . S
C1137 H1124 0.930 . S
C1137 C1136 1.388 . S
C1137 C1138 1.390 1_556 S
C1138 C1137 1.390 1_554 S
C1138 C1139 1.394 . S
C1138 C1144 1.465 . S
C1139 C1134 1.399 . S
C1139 C1138 1.394 . S
C1139 C1140 1.516 . S
C1140 C1139 1.516 . S
C1140 C1141 1.502 . S
C1140 C1142 1.561 . S
C1140 C1143 1.526 . S
C1141 H1125 0.959 . S
C1141 H1126 0.959 . S
C1141 H1127 0.961 . S
C1141 C1140 1.502 . S
C1142 H1128 0.960 . S
C1142 H1129 0.961 . S
C1142 H1130 0.959 . S
C1142 C1140 1.561 . S
C1143 C1140 1.526 . S
C1143 C1144 1.396 . S
C1143 C1148 1.390 . S
C1144 C1138 1.465 . S
C1144 C1143 1.396 . S
C1144 C1145 1.399 1_554 S
C1145 H1131 0.929 . S
C1145 C1144 1.399 1_556 S
C1145 C1146 1.385 . S
C1146 H1132 0.931 . S
C1146 C1145 1.385 . S
C1146 C1147 1.389 1_556 S
C1147 C1146 1.389 1_554 S
C1147 C1148 1.387 . S
C1148 H1133 0.930 . S
C1148 C1143 1.390 . S
C1148 C1147 1.387 . S
H1149 C1161 0.930 . S
H1150 C1163 0.930 1_556 S
H1151 C1164 0.930 . S
H1152 C1168 0.959 . S
H1153 C1168 0.959 . S
H1154 C1168 0.961 . S
H1155 C1169 0.960 . S
H1156 C1169 0.961 . S
H1157 C1169 0.959 . S
H1158 C1172 0.929 . S
H1159 C1173 0.931 . S
H1160 C1175 0.930 . S
C1161 H1149 0.930 . S
C1161 C1162 1.399 . S
C1161 C1166 1.399 . S
C1162 C1161 1.399 . S
C1162 C1163 1.376 . S
C1163 H1150 0.930 1_554 S
C1163 C1162 1.376 . S
C1163 C1164 1.388 1_554 S
C1164 H1151 0.930 . S
C1164 C1163 1.388 1_556 S
C1164 C1165 1.390 1_556 S
C1165 C1164 1.390 1_554 S
C1165 C1166 1.394 . S
C1165 C1171 1.465 . S
C1166 C1161 1.399 . S
C1166 C1165 1.394 . S
C1166 C1167 1.516 . S
C1167 C1166 1.516 . S
C1167 C1168 1.502 . S
C1167 C1169 1.561 . S
C1167 C1170 1.526 . S
C1168 H1152 0.959 . S
C1168 H1153 0.959 . S
C1168 H1154 0.961 . S
C1168 C1167 1.502 . S
C1169 H1155 0.960 . S
C1169 H1156 0.961 . S
C1169 H1157 0.959 . S
C1169 C1167 1.561 . S
C1170 C1167 1.526 . S
C1170 C1171 1.396 . S
C1170 C1175 1.390 . S
C1171 C1165 1.465 . S
C1171 C1170 1.396 . S
C1171 C1172 1.399 1_554 S
C1172 H1158 0.929 . S
C1172 C1171 1.399 1_556 S
C1172 C1173 1.385 . S
C1173 H1159 0.931 . S
C1173 C1172 1.385 . S
C1173 C1174 1.389 1_556 S
C1174 C1173 1.389 1_554 S
C1174 C1175 1.387 . S
C1175 H1160 0.930 . S
C1175 C1170 1.390 . S
C1175 C1174 1.387 . S
H1176 C1188 0.930 . S
H1177 C1190 0.930 . S
H1178 C1191 0.930 . S
H1179 C1195 0.959 . S
H1180 C1195 0.959 . S
H1181 C1195 0.961 . S
H1182 C1196 0.960 . S
H1183 C1196 0.961 . S
H1184 C1196 0.959 . S
H1185 C1199 0.926 1_655 S
H1186 C1200 0.931 . S
H1187 C1202 0.930 . S
C1188 H1176 0.930 . S
C1188 C1189 1.399 . S
C1188 C1193 1.399 . S
C1189 C1188 1.399 . S
C1189 C1190 1.376 . S
C1190 H1177 0.930 . S
C1190 C1189 1.376 . S
C1190 C1191 1.388 . S
C1191 H1178 0.930 . S
C1191 C1190 1.388 . S
C1191 C1192 1.390 . S
C1192 C1191 1.390 . S
C1192 C1193 1.394 . S
C1192 C1198 1.467 . S
C1193 C1188 1.399 . S
C1193 C1192 1.394 . S
C1193 C1194 1.516 . S
C1194 C1193 1.516 . S
C1194 C1195 1.502 1_655 S
C1194 C1196 1.561 . S
C1194 C1197 1.526 1_655 S
C1195 H1179 0.959 . S
C1195 H1180 0.959 . S
C1195 H1181 0.961 . S
C1195 C1194 1.502 1_455 S
C1196 H1182 0.960 . S
C1196 H1183 0.961 . S
C1196 H1184 0.959 . S
C1196 C1194 1.561 . S
C1197 C1194 1.526 1_455 S
C1197 C1198 1.395 1_455 S
C1197 C1202 1.390 . S
C1198 C1192 1.467 . S
C1198 C1197 1.395 1_655 S
C1198 C1199 1.398 1_655 S
C1199 H1185 0.926 1_455 S
C1199 C1198 1.398 1_455 S
C1199 C1200 1.385 . S
C1200 H1186 0.931 . S
C1200 C1199 1.385 . S
C1200 C1201 1.389 . S
C1201 C1200 1.389 . S
C1201 C1202 1.387 . S
C1202 H1187 0.930 . S
C1202 C1197 1.390 . S
C1202 C1201 1.387 . S
H1203 C1215 0.930 . S
H1204 C1217 0.930 . S
H1205 C1218 0.930 . S
H1206 C1222 0.959 . S
H1207 C1222 0.959 . S
H1208 C1222 0.961 . S
H1209 C1223 0.960 . S
H1210 C1223 0.961 . S
H1211 C1223 0.959 . S
H1212 C1226 0.929 . S
H1213 C1227 0.931 . S
H1214 C1229 0.930 . S
C1215 H1203 0.930 . S
C1215 C1216 1.399 1_545 S
C1215 C1220 1.399 . S
C1216 C1215 1.399 1_565 S
C1216 C1217 1.376 . S
C1217 H1204 0.930 . S
C1217 C1216 1.376 . S
C1217 C1218 1.388 . S
C1218 H1205 0.930 . S
C1218 C1217 1.388 . S
C1218 C1219 1.390 . S
C1219 C1218 1.390 . S
C1219 C1220 1.394 1_565 S
C1219 C1225 1.465 . S
C1220 C1215 1.399 . S
C1220 C1219 1.394 1_545 S
C1220 C1221 1.516 . S
C1221 C1220 1.516 . S
C1221 C1222 1.502 . S
C1221 C1223 1.561 . S
C1221 C1224 1.526 . S
C1222 H1206 0.959 . S
C1222 H1207 0.959 . S
C1222 H1208 0.961 . S
C1222 C1221 1.502 . S
C1223 H1209 0.960 . S
C1223 H1210 0.961 . S
C1223 H1211 0.959 . S
C1223 C1221 1.561 . S
C1224 C1221 1.526 . S
C1224 C1225 1.396 1_545 S
C1224 C1229 1.390 . S
C1225 C1219 1.465 . S
C1225 C1224 1.396 1_565 S
C1225 C1226 1.399 . S
C1226 H1212 0.929 . S
C1226 C1225 1.399 . S
C1226 C1227 1.385 . S
C1227 H1213 0.931 . S
C1227 C1226 1.385 . S
C1227 C1228 1.389 1_565 S
C1228 C1227 1.389 1_545 S
C1228 C1229 1.387 . S
C1229 H1214 0.930 . S
C1229 C1224 1.390 . S
C1229 C1228 1.387 . S
H1230 C1242 0.930 . S
H1231 C1244 0.930 . S
H1232 C1245 0.930 . S
H1233 C1249 0.959 . S
H1234 C1249 0.959 . S
H1235 C1249 0.961 . S
H1236 C1250 0.960 . S
H1237 C1250 0.961 . S
H1238 C1250 0.959 . S
H1239 C1253 0.929 . S
H1240 C1254 0.931 . S
H1241 C1256 0.930 1_655 S
C1242 H1230 0.930 . S
C1242 C1243 1.399 . S
C1242 C1247 1.399 . S
C1243 C1242 1.399 . S
C1243 C1244 1.376 1_655 S
C1244 H1231 0.930 . S
C1244 C1243 1.376 1_455 S
C1244 C1245 1.388 . S
C1245 H1232 0.930 . S
C1245 C1244 1.388 . S
C1245 C1246 1.390 . S
C1246 C1245 1.390 . S
C1246 C1247 1.394 1_455 S
C1246 C1252 1.465 . S
C1247 C1242 1.399 . S
C1247 C1246 1.394 1_655 S
C1247 C1248 1.516 . S
C1248 C1247 1.516 . S
C1248 C1249 1.502 . S
C1248 C1250 1.561 1_655 S
C1248 C1251 1.526 1_655 S
C1249 H1233 0.959 . S
C1249 H1234 0.959 . S
C1249 H1235 0.961 . S
C1249 C1248 1.502 . S
C1250 H1236 0.960 . S
C1250 H1237 0.961 . S
C1250 H1238 0.959 . S
C1250 C1248 1.561 1_455 S
C1251 C1248 1.526 1_455 S
C1251 C1252 1.396 . S
C1251 C1256 1.390 . S
C1252 C1246 1.465 . S
C1252 C1251 1.396 . S
C1252 C1253 1.399 . S
C1253 H1239 0.929 . S
C1253 C1252 1.399 . S
C1253 C1254 1.385 . S
C1254 H1240 0.931 . S
C1254 C1253 1.385 . S
C1254 C1255 1.389 . S
C1255 C1254 1.389 . S
C1255 C1256 1.387 . S
C1256 H1241 0.930 1_455 S
C1256 C1251 1.390 . S
C1256 C1255 1.387 . S
H1257 C1269 0.930 . S
H1258 C1271 0.930 . S
H1259 C1272 0.930 . S
H1260 C1276 0.959 . S
H1261 C1276 0.959 . S
H1262 C1276 0.961 . S
H1263 C1277 0.960 . S
H1264 C1277 0.961 . S
H1265 C1277 0.959 . S
H1266 C1280 0.929 . S
H1267 C1281 0.931 . S
H1268 C1283 0.930 . S
C1269 H1257 0.930 . S
C1269 C1270 1.399 1_565 S
C1269 C1274 1.399 . S
C1270 C1269 1.399 1_545 S
C1270 C1271 1.376 . S
C1271 H1258 0.930 . S
C1271 C1270 1.376 . S
C1271 C1272 1.388 . S
C1272 H1259 0.930 . S
C1272 C1271 1.388 . S
C1272 C1273 1.390 . S
C1273 C1272 1.390 . S
C1273 C1274 1.394 1_545 S
C1273 C1279 1.465 . S
C1274 C1269 1.399 . S
C1274 C1273 1.394 1_565 S
C1274 C1275 1.516 . S
C1275 C1274 1.516 . S
C1275 C1276 1.502 . S
C1275 C1277 1.561 . S
C1275 C1278 1.526 . S
C1276 H1260 0.959 . S
C1276 H1261 0.959 . S
C1276 H1262 0.961 . S
C1276 C1275 1.502 . S
C1277 H1263 0.960 . S
C1277 H1264 0.961 . S
C1277 H1265 0.959 . S
C1277 C1275 1.561 . S
C1278 C1275 1.526 . S
C1278 C1279 1.396 1_565 S
C1278 C1283 1.390 . S
C1279 C1273 1.465 . S
C1279 C1278 1.396 1_545 S
C1279 C1280 1.399 . S
C1280 H1266 0.929 . S
C1280 C1279 1.399 . S
C1280 C1281 1.385 . S
C1281 H1267 0.931 . S
C1281 C1280 1.385 . S
C1281 C1282 1.389 1_545 S
C1282 C1281 1.389 1_565 S
C1282 C1283 1.387 . S
C1283 H1268 0.930 . S
C1283 C1278 1.390 . S
C1283 C1282 1.387 . S
H1284 C1296 0.930 . S
H1285 C1298 0.930 . S
H1286 C1299 0.930 . S
H1287 C1303 0.959 . S
H1288 C1303 0.959 . S
H1289 C1303 0.961 . S
H1290 C1304 0.960 . S
H1291 C1304 0.961 . S
H1292 C1304 0.959 . S
H1293 C1307 0.929 . S
H1294 C1308 0.931 . S
H1295 C1310 0.930 . S
C1296 H1284 0.930 . S
C1296 C1297 1.399 . S
C1296 C1301 1.399 . S
C1297 C1296 1.399 . S
C1297 C1298 1.376 1_655 S
C1298 H1285 0.930 . S
C1298 C1297 1.376 1_455 S
C1298 C1299 1.388 . S
C1299 H1286 0.930 . S
C1299 C1298 1.388 . S
C1299 C1300 1.390 . S
C1300 C1299 1.390 . S
C1300 C1301 1.394 1_455 S
C1300 C1306 1.465 . S
C1301 C1296 1.399 . S
C1301 C1300 1.394 1_655 S
C1301 C1302 1.516 . S
C1302 C1301 1.516 . S
C1302 C1303 1.502 . S
C1302 C1304 1.561 1_655 S
C1302 C1305 1.526 . S
C1303 H1287 0.959 . S
C1303 H1288 0.959 . S
C1303 H1289 0.961 . S
C1303 C1302 1.502 . S
C1304 H1290 0.960 . S
C1304 H1291 0.961 . S
C1304 H1292 0.959 . S
C1304 C1302 1.561 1_455 S
C1305 C1302 1.526 . S
C1305 C1306 1.396 1_655 S
C1305 C1310 1.390 . S
C1306 C1300 1.465 . S
C1306 C1305 1.396 1_455 S
C1306 C1307 1.399 . S
C1307 H1293 0.929 . S
C1307 C1306 1.399 . S
C1307 C1308 1.385 . S
C1308 H1294 0.931 . S
C1308 C1307 1.385 . S
C1308 C1309 1.389 . S
C1309 C1308 1.389 . S
C1309 C1310 1.387 1_455 S
C1310 H1295 0.930 . S
C1310 C1305 1.390 . S
C1310 C1309 1.387 1_655 S
H1311 C1323 0.930 . S
H1312 C1325 0.930 . S
H1313 C1326 0.930 . S
H1314 C1330 0.959 . S
H1315 C1330 0.959 . S
H1316 C1330 0.961 . S
H1317 C1331 0.960 . S
H1318 C1331 0.961 . S
H1319 C1331 0.959 . S
H1320 C1334 0.929 . S
H1321 C1335 0.931 . S
H1322 C1337 0.930 . S
C1323 H1311 0.930 . S
C1323 C1324 1.399 . S
C1323 C1328 1.399 . S
C1324 C1323 1.399 . S
C1324 C1325 1.376 1_545 S
C1325 H1312 0.930 . S
C1325 C1324 1.376 1_565 S
C1325 C1326 1.388 . S
C1326 H1313 0.930 . S
C1326 C1325 1.388 . S
C1326 C1327 1.390 . S
C1327 C1326 1.390 . S
C1327 C1328 1.394 1_565 S
C1327 C1333 1.465 . S
C1328 C1323 1.399 . S
C1328 C1327 1.394 1_545 S
C1328 C1329 1.516 . S
C1329 C1328 1.516 . S
C1329 C1330 1.502 . S
C1329 C1331 1.561 . S
C1329 C1332 1.526 . S
C1330 H1314 0.959 . S
C1330 H1315 0.959 . S
C1330 H1316 0.961 . S
C1330 C1329 1.502 . S
C1331 H1317 0.960 . S
C1331 H1318 0.961 . S
C1331 H1319 0.959 . S
C1331 C1329 1.561 . S
C1332 C1329 1.526 . S
C1332 C1333 1.396 1_545 S
C1332 C1337 1.390 . S
C1333 C1327 1.465 . S
C1333 C1332 1.396 1_565 S
C1333 C1334 1.399 . S
C1334 H1320 0.929 . S
C1334 C1333 1.399 . S
C1334 C1335 1.385 . S
C1335 H1321 0.931 . S
C1335 C1334 1.385 . S
C1335 C1336 1.389 . S
C1336 C1335 1.389 . S
C1336 C1337 1.387 1_565 S
C1337 H1322 0.930 . S
C1337 C1332 1.390 . S
C1337 C1336 1.387 1_545 S
H1338 C1350 0.930 . S
H1339 C1352 0.930 . S
H1340 C1353 0.930 . S
H1341 C1357 0.959 . S
H1342 C1357 0.959 . S
H1343 C1357 0.961 . S
H1344 C1358 0.960 . S
H1345 C1358 0.961 . S
H1346 C1358 0.959 . S
H1347 C1361 0.929 . S
H1348 C1362 0.931 . S
H1349 C1364 0.937 . S
C1350 H1338 0.930 . S
C1350 C1351 1.399 . S
C1350 C1355 1.399 . S
C1351 C1350 1.399 . S
C1351 C1352 1.376 1_455 S
C1352 H1339 0.930 . S
C1352 C1351 1.376 1_655 S
C1352 C1353 1.388 . S
C1353 H1340 0.930 . S
C1353 C1352 1.388 . S
C1353 C1354 1.390 . S
C1354 C1353 1.390 . S
C1354 C1355 1.394 1_655 S
C1354 C1360 1.465 . S
C1355 C1350 1.399 . S
C1355 C1354 1.394 1_455 S
C1355 C1356 1.516 . S
C1356 C1355 1.516 . S
C1356 C1357 1.502 . S
C1356 C1358 1.561 1_455 S
C1356 C1359 1.525 . S
C1357 H1341 0.959 . S
C1357 H1342 0.959 . S
C1357 H1343 0.961 . S
C1357 C1356 1.502 . S
C1358 H1344 0.960 . S
C1358 H1345 0.961 . S
C1358 H1346 0.959 . S
C1358 C1356 1.561 1_655 S
C1359 C1356 1.525 . S
C1359 C1360 1.397 1_455 S
C1359 C1364 1.389 . S
C1360 C1354 1.465 . S
C1360 C1359 1.397 1_655 S
C1360 C1361 1.399 . S
C1361 H1347 0.929 . S
C1361 C1360 1.399 . S
C1361 C1362 1.385 . S
C1362 H1348 0.931 . S
C1362 C1361 1.385 . S
C1362 C1363 1.389 . S
C1363 C1362 1.389 . S
C1363 C1364 1.380 1_655 S
C1364 H1349 0.937 . S
C1364 C1359 1.389 . S
C1364 C1363 1.380 1_455 S
H1365 C1377 0.930 . S
H1366 C1379 0.930 . S
H1367 C1380 0.930 . S
H1368 C1384 0.959 . S
H1369 C1384 0.959 . S
H1370 C1384 0.961 . S
H1371 C1385 0.960 . S
H1372 C1385 0.961 . S
H1373 C1385 0.959 . S
H1374 C1388 0.929 . S
H1375 C1389 0.931 . S
H1376 C1391 0.930 . S
C1377 H1365 0.930 . S
C1377 C1378 1.399 1_545 S
C1377 C1382 1.399 . S
C1378 C1377 1.399 1_565 S
C1378 C1379 1.376 . S
C1379 H1366 0.930 . S
C1379 C1378 1.376 . S
C1379 C1380 1.388 . S
C1380 H1367 0.930 . S
C1380 C1379 1.388 . S
C1380 C1381 1.390 . S
C1381 C1380 1.390 . S
C1381 C1382 1.394 1_565 S
C1381 C1387 1.465 . S
C1382 C1377 1.399 . S
C1382 C1381 1.394 1_545 S
C1382 C1383 1.516 . S
C1383 C1382 1.516 . S
C1383 C1384 1.502 . S
C1383 C1385 1.561 . S
C1383 C1386 1.526 . S
C1384 H1368 0.959 . S
C1384 H1369 0.959 . S
C1384 H1370 0.961 . S
C1384 C1383 1.502 . S
C1385 H1371 0.960 . S
C1385 H1372 0.961 . S
C1385 H1373 0.959 . S
C1385 C1383 1.561 . S
C1386 C1383 1.526 . S
C1386 C1387 1.396 1_545 S
C1386 C1391 1.390 . S
C1387 C1381 1.465 . S
C1387 C1386 1.396 1_565 S
C1387 C1388 1.399 . S
C1388 H1374 0.929 . S
C1388 C1387 1.399 . S
C1388 C1389 1.385 . S
C1389 H1375 0.931 . S
C1389 C1388 1.385 . S
C1389 C1390 1.389 1_565 S
C1390 C1389 1.389 1_545 S
C1390 C1391 1.387 . S
C1391 H1376 0.930 . S
C1391 C1386 1.390 . S
C1391 C1390 1.387 . S
H1392 C1404 0.930 . S
H1393 C1406 0.930 . S
H1394 C1407 0.930 . S
H1395 C1411 0.959 . S
H1396 C1411 0.959 . S
H1397 C1411 0.961 . S
H1398 C1412 0.960 . S
H1399 C1412 0.961 . S
H1400 C1412 0.959 . S
H1401 C1415 0.929 . S
H1402 C1416 0.931 . S
H1403 C1418 0.930 . S
C1404 H1392 0.930 . S
C1404 C1405 1.399 . S
C1404 C1409 1.399 . S
C1405 C1404 1.399 . S
C1405 C1406 1.376 . S
C1406 H1393 0.930 . S
C1406 C1405 1.376 . S
C1406 C1407 1.388 . S
C1407 H1394 0.930 . S
C1407 C1406 1.388 . S
C1407 C1408 1.390 . S
C1408 C1407 1.390 . S
C1408 C1409 1.394 . S
C1408 C1414 1.465 . S
C1409 C1404 1.399 . S
C1409 C1408 1.394 . S
C1409 C1410 1.516 . S
C1410 C1409 1.516 . S
C1410 C1411 1.502 . S
C1410 C1412 1.561 . S
C1410 C1413 1.526 . S
C1411 H1395 0.959 . S
C1411 H1396 0.959 . S
C1411 H1397 0.961 . S
C1411 C1410 1.502 . S
C1412 H1398 0.960 . S
C1412 H1399 0.961 . S
C1412 H1400 0.959 . S
C1412 C1410 1.561 . S
C1413 C1410 1.526 . S
C1413 C1414 1.396 . S
C1413 C1418 1.390 . S
C1414 C1408 1.465 . S
C1414 C1413 1.396 . S
C1414 C1415 1.399 . S
C1415 H1401 0.929 . S
C1415 C1414 1.399 . S
C1415 C1416 1.385 . S
C1416 H1402 0.931 . S
C1416 C1415 1.385 . S
C1416 C1417 1.389 . S
C1417 C1416 1.389 . S
C1417 C1418 1.387 . S
C1418 H1403 0.930 . S
C1418 C1413 1.390 . S
C1418 C1417 1.387 . S
H1419 C1431 0.930 . S
H1420 C1433 0.930 . S
H1421 C1434 0.930 . S
H1422 C1438 0.959 . S
H1423 C1438 0.959 . S
H1424 C1438 0.961 . S
H1425 C1439 0.960 . S
H1426 C1439 0.961 . S
H1427 C1439 0.959 . S
H1428 C1442 0.929 . S
H1429 C1443 0.931 . S
H1430 C1445 0.930 . S
C1431 H1419 0.930 . S
C1431 C1432 1.399 . S
C1431 C1436 1.399 . S
C1432 C1431 1.399 . S
C1432 C1433 1.376 . S
C1433 H1420 0.930 . S
C1433 C1432 1.376 . S
C1433 C1434 1.388 . S
C1434 H1421 0.930 . S
C1434 C1433 1.388 . S
C1434 C1435 1.390 . S
C1435 C1434 1.390 . S
C1435 C1436 1.394 . S
C1435 C1441 1.465 . S
C1436 C1431 1.399 . S
C1436 C1435 1.394 . S
C1436 C1437 1.516 . S
C1437 C1436 1.516 . S
C1437 C1438 1.502 . S
C1437 C1439 1.561 . S
C1437 C1440 1.526 . S
C1438 H1422 0.959 . S
C1438 H1423 0.959 . S
C1438 H1424 0.961 . S
C1438 C1437 1.502 . S
C1439 H1425 0.960 . S
C1439 H1426 0.961 . S
C1439 H1427 0.959 . S
C1439 C1437 1.561 . S
C1440 C1437 1.526 . S
C1440 C1441 1.396 . S
C1440 C1445 1.390 . S
C1441 C1435 1.465 . S
C1441 C1440 1.396 . S
C1441 C1442 1.399 . S
C1442 H1428 0.929 . S
C1442 C1441 1.399 . S
C1442 C1443 1.385 . S
C1443 H1429 0.931 . S
C1443 C1442 1.385 . S
C1443 C1444 1.389 . S
C1444 C1443 1.389 . S
C1444 C1445 1.387 . S
C1445 H1430 0.930 . S
C1445 C1440 1.390 . S
C1445 C1444 1.387 . S
H1446 C1458 0.930 . S
H1447 C1460 0.930 . S
H1448 C1461 0.930 . S
H1449 C1465 0.959 . S
H1450 C1465 0.959 . S
H1451 C1465 0.961 . S
H1452 C1466 0.960 . S
H1453 C1466 0.961 . S
H1454 C1466 0.959 . S
H1455 C1469 0.929 . S
H1456 C1470 0.931 . S
H1457 C1472 0.930 . S
C1458 H1446 0.930 . S
C1458 C1459 1.399 . S
C1458 C1463 1.399 . S
C1459 C1458 1.399 . S
C1459 C1460 1.376 . S
C1460 H1447 0.930 . S
C1460 C1459 1.376 . S
C1460 C1461 1.388 . S
C1461 H1448 0.930 . S
C1461 C1460 1.388 . S
C1461 C1462 1.390 . S
C1462 C1461 1.390 . S
C1462 C1463 1.394 . S
C1462 C1468 1.465 . S
C1463 C1458 1.399 . S
C1463 C1462 1.394 . S
C1463 C1464 1.516 . S
C1464 C1463 1.516 . S
C1464 C1465 1.502 . S
C1464 C1466 1.561 . S
C1464 C1467 1.526 . S
C1465 H1449 0.959 . S
C1465 H1450 0.959 . S
C1465 H1451 0.961 . S
C1465 C1464 1.502 . S
C1466 H1452 0.960 . S
C1466 H1453 0.961 . S
C1466 H1454 0.959 . S
C1466 C1464 1.561 . S
C1467 C1464 1.526 . S
C1467 C1468 1.396 . S
C1467 C1472 1.390 . S
C1468 C1462 1.465 . S
C1468 C1467 1.396 . S
C1468 C1469 1.399 . S
C1469 H1455 0.929 . S
C1469 C1468 1.399 . S
C1469 C1470 1.385 . S
C1470 H1456 0.931 . S
C1470 C1469 1.385 . S
C1470 C1471 1.389 . S
C1471 C1470 1.389 . S
C1471 C1472 1.387 . S
C1472 H1457 0.930 . S
C1472 C1467 1.390 . S
C1472 C1471 1.387 . S
H1473 C1485 0.930 . S
H1474 C1487 0.930 . S
H1475 C1488 0.930 . S
H1476 C1492 0.959 . S
H1477 C1492 0.959 . S
H1478 C1492 0.961 . S
H1479 C1493 0.960 . S
H1480 C1493 0.961 . S
H1481 C1493 0.959 . S
H1482 C1496 0.929 . S
H1483 C1497 0.931 . S
H1484 C1499 0.930 . S
C1485 H1473 0.930 . S
C1485 C1486 1.399 . S
C1485 C1490 1.399 . S
C1486 C1485 1.399 . S
C1486 C1487 1.376 . S
C1487 H1474 0.930 . S
C1487 C1486 1.376 . S
C1487 C1488 1.388 . S
C1488 H1475 0.930 . S
C1488 C1487 1.388 . S
C1488 C1489 1.390 . S
C1489 C1488 1.390 . S
C1489 C1490 1.394 . S
C1489 C1495 1.465 . S
C1490 C1485 1.399 . S
C1490 C1489 1.394 . S
C1490 C1491 1.516 . S
C1491 C1490 1.516 . S
C1491 C1492 1.502 . S
C1491 C1493 1.561 . S
C1491 C1494 1.526 . S
C1492 H1476 0.959 . S
C1492 H1477 0.959 . S
C1492 H1478 0.961 . S
C1492 C1491 1.502 . S
C1493 H1479 0.960 . S
C1493 H1480 0.961 . S
C1493 H1481 0.959 . S
C1493 C1491 1.561 . S
C1494 C1491 1.526 . S
C1494 C1495 1.396 . S
C1494 C1499 1.390 . S
C1495 C1489 1.465 . S
C1495 C1494 1.396 . S
C1495 C1496 1.399 . S
C1496 H1482 0.929 . S
C1496 C1495 1.399 . S
C1496 C1497 1.385 . S
C1497 H1483 0.931 . S
C1497 C1496 1.385 . S
C1497 C1498 1.389 . S
C1498 C1497 1.389 . S
C1498 C1499 1.387 . S
C1499 H1484 0.930 . S
C1499 C1494 1.390 . S
C1499 C1498 1.387 . S
H1500 C1512 0.930 . S
H1501 C1514 0.930 . S
H1502 C1515 0.930 . S
H1503 C1519 0.959 . S
H1504 C1519 0.959 . S
H1505 C1519 0.961 . S
H1506 C1520 0.960 . S
H1507 C1520 0.961 . S
H1508 C1520 0.959 . S
H1509 C1523 0.929 . S
H1510 C1524 0.931 . S
H1511 C1526 0.930 . S
C1512 H1500 0.930 . S
C1512 C1513 1.399 . S
C1512 C1517 1.399 . S
C1513 C1512 1.399 . S
C1513 C1514 1.376 . S
C1514 H1501 0.930 . S
C1514 C1513 1.376 . S
C1514 C1515 1.388 . S
C1515 H1502 0.930 . S
C1515 C1514 1.388 . S
C1515 C1516 1.390 . S
C1516 C1515 1.390 . S
C1516 C1517 1.394 . S
C1516 C1522 1.465 . S
C1517 C1512 1.399 . S
C1517 C1516 1.394 . S
C1517 C1518 1.516 . S
C1518 C1517 1.516 . S
C1518 C1519 1.502 . S
C1518 C1520 1.561 . S
C1518 C1521 1.526 . S
C1519 H1503 0.959 . S
C1519 H1504 0.959 . S
C1519 H1505 0.961 . S
C1519 C1518 1.502 . S
C1520 H1506 0.960 . S
C1520 H1507 0.961 . S
C1520 H1508 0.959 . S
C1520 C1518 1.561 . S
C1521 C1518 1.526 . S
C1521 C1522 1.396 . S
C1521 C1526 1.390 . S
C1522 C1516 1.465 . S
C1522 C1521 1.396 . S
C1522 C1523 1.399 . S
C1523 H1509 0.929 . S
C1523 C1522 1.399 . S
C1523 C1524 1.385 . S
C1524 H1510 0.931 . S
C1524 C1523 1.385 . S
C1524 C1525 1.389 . S
C1525 C1524 1.389 . S
C1525 C1526 1.387 . S
C1526 H1511 0.930 . S
C1526 C1521 1.390 . S
C1526 C1525 1.387 . S
H1527 C1539 0.930 . S
H1528 C1541 0.930 . S
H1529 C1542 0.930 . S
H1530 C1546 0.959 . S
H1531 C1546 0.959 . S
H1532 C1546 0.961 . S
H1533 C1547 0.960 . S
H1534 C1547 0.961 . S
H1535 C1547 0.959 . S
H1536 C1550 0.929 . S
H1537 C1551 0.931 . S
H1538 C1553 0.930 . S
C1539 H1527 0.930 . S
C1539 C1540 1.399 . S
C1539 C1544 1.399 . S
C1540 C1539 1.399 . S
C1540 C1541 1.376 . S
C1541 H1528 0.930 . S
C1541 C1540 1.376 . S
C1541 C1542 1.388 . S
C1542 H1529 0.930 . S
C1542 C1541 1.388 . S
C1542 C1543 1.390 . S
C1543 C1542 1.390 . S
C1543 C1544 1.394 . S
C1543 C1549 1.465 . S
C1544 C1539 1.399 . S
C1544 C1543 1.394 . S
C1544 C1545 1.516 . S
C1545 C1544 1.516 . S
C1545 C1546 1.502 . S
C1545 C1547 1.561 . S
C1545 C1548 1.526 . S
C1546 H1530 0.959 . S
C1546 H1531 0.959 . S
C1546 H1532 0.961 . S
C1546 C1545 1.502 . S
C1547 H1533 0.960 . S
C1547 H1534 0.961 . S
C1547 H1535 0.959 . S
C1547 C1545 1.561 . S
C1548 C1545 1.526 . S
C1548 C1549 1.396 . S
C1548 C1553 1.390 . S
C1549 C1543 1.465 . S
C1549 C1548 1.396 . S
C1549 C1550 1.399 . S
C1550 H1536 0.929 . S
C1550 C1549 1.399 . S
C1550 C1551 1.385 . S
C1551 H1537 0.931 . S
C1551 C1550 1.385 . S
C1551 C1552 1.389 . S
C1552 C1551 1.389 . S
C1552 C1553 1.387 . S
C1553 H1538 0.930 . S
C1553 C1548 1.390 . S
C1553 C1552 1.387 . S
H1554 C1566 0.930 . S
H1555 C1568 0.930 . S
H1556 C1569 0.930 . S
H1557 C1573 0.959 . S
H1558 C1573 0.959 . S
H1559 C1573 0.961 . S
H1560 C1574 0.960 . S
H1561 C1574 0.961 . S
H1562 C1574 0.959 . S
H1563 C1577 0.929 . S
H1564 C1578 0.931 . S
H1565 C1580 0.930 . S
C1566 H1554 0.930 . S
C1566 C1567 1.399 . S
C1566 C1571 1.399 . S
C1567 C1566 1.399 . S
C1567 C1568 1.376 . S
C1568 H1555 0.930 . S
C1568 C1567 1.376 . S
C1568 C1569 1.388 . S
C1569 H1556 0.930 . S
C1569 C1568 1.388 . S
C1569 C1570 1.390 . S
C1570 C1569 1.390 . S
C1570 C1571 1.394 . S
C1570 C1576 1.465 . S
C1571 C1566 1.399 . S
C1571 C1570 1.394 . S
C1571 C1572 1.516 . S
C1572 C1571 1.516 . S
C1572 C1573 1.502 . S
C1572 C1574 1.561 . S
C1572 C1575 1.526 . S
C1573 H1557 0.959 . S
C1573 H1558 0.959 . S
C1573 H1559 0.961 . S
C1573 C1572 1.502 . S
C1574 H1560 0.960 . S
C1574 H1561 0.961 . S
C1574 H1562 0.959 . S
C1574 C1572 1.561 . S
C1575 C1572 1.526 . S
C1575 C1576 1.396 . S
C1575 C1580 1.390 . S
C1576 C1570 1.465 . S
C1576 C1575 1.396 . S
C1576 C1577 1.399 . S
C1577 H1563 0.929 . S
C1577 C1576 1.399 . S
C1577 C1578 1.385 . S
C1578 H1564 0.931 . S
C1578 C1577 1.385 . S
C1578 C1579 1.389 . S
C1579 C1578 1.389 . S
C1579 C1580 1.387 . S
C1580 H1565 0.930 . S
C1580 C1575 1.390 . S
C1580 C1579 1.387 . S
H1581 C1593 0.930 . S
H1582 C1595 0.930 . S
H1583 C1596 0.930 . S
H1584 C1600 0.959 . S
H1585 C1600 0.959 . S
H1586 C1600 0.961 . S
H1587 C1601 0.960 . S
H1588 C1601 0.961 . S
H1589 C1601 0.959 . S
H1590 C1604 0.929 . S
H1591 C1605 0.931 . S
H1592 C1607 0.930 . S
C1593 H1581 0.930 . S
C1593 C1594 1.399 . S
C1593 C1598 1.399 . S
C1594 C1593 1.399 . S
C1594 C1595 1.376 . S
C1595 H1582 0.930 . S
C1595 C1594 1.376 . S
C1595 C1596 1.388 . S
C1596 H1583 0.930 . S
C1596 C1595 1.388 . S
C1596 C1597 1.390 . S
C1597 C1596 1.390 . S
C1597 C1598 1.394 . S
C1597 C1603 1.465 . S
C1598 C1593 1.399 . S
C1598 C1597 1.394 . S
C1598 C1599 1.516 . S
C1599 C1598 1.516 . S
C1599 C1600 1.502 . S
C1599 C1601 1.561 . S
C1599 C1602 1.526 . S
C1600 H1584 0.959 . S
C1600 H1585 0.959 . S
C1600 H1586 0.961 . S
C1600 C1599 1.502 . S
C1601 H1587 0.960 . S
C1601 H1588 0.961 . S
C1601 H1589 0.959 . S
C1601 C1599 1.561 . S
C1602 C1599 1.526 . S
C1602 C1603 1.396 . S
C1602 C1607 1.390 . S
C1603 C1597 1.465 . S
C1603 C1602 1.396 . S
C1603 C1604 1.399 . S
C1604 H1590 0.929 . S
C1604 C1603 1.399 . S
C1604 C1605 1.385 . S
C1605 H1591 0.931 . S
C1605 C1604 1.385 . S
C1605 C1606 1.389 . S
C1606 C1605 1.389 . S
C1606 C1607 1.387 . S
C1607 H1592 0.930 . S
C1607 C1602 1.390 . S
C1607 C1606 1.387 . S
C541 N2 1.325 . S
C553 N497 1.262 . S
C568 N35 1.275 . S
C580 N398 1.347 . S
C595 N431 1.281 . S
C607 N68 1.346 . S
C622 N101 1.285 . S
C634 N464 1.345 . S
C649 N134 1.282 . S
C661 N299 1.345 . S
C676 N332 1.331 . S
C688 N167 1.310 . S
C703 N365 1.325 . S
C715 N200 1.317 . S
C730 N266 1.288 . S
C742 N233 1.343 . S
C757 N112 1.555 1_556 S
C769 C21 1.583 . S
C784 N13 1.504 1_556 S
C796 C54 1.585 . S
C811 C87 1.595 . S
C823 N46 1.487 1_556 S
C838 C120 1.596 . S
C850 N79 1.497 1_556 S
C865 N178 1.496 . S
C877 C153 1.588 . S
C892 N211 1.564 . S
C904 C186 1.578 . S
C919 N244 1.511 . S
C931 C219 1.583 . S
C946 N145 1.499 . S
C958 C252 1.586 . S
C973 N376 1.508 . S
C985 C285 1.595 . S
C1000 C318 1.596 . S
C1012 N277 1.493 . S
C1027 N310 1.486 . S
C1039 C351 1.595 . S
C1054 N343 1.507 . S
C1066 C384 1.584 . S
C1081 N442 1.486 . S
C1093 C417 1.594 . S
C1108 N475 1.558 . S
C1120 C450 1.581 . S
C1135 N508 1.495 . S
C1147 C483 1.588 . S
C1162 N409 1.504 . S
C1174 C516 1.585 . S
C1189 C205 1.603 . S
C1201 C7 1.616 . S
C1216 C238 1.563 . S
C1228 C40 1.592 . S
C1243 C73 1.589 . S
C1255 C139 1.564 . S
C1270 C172 1.567 . S
C1282 C106 1.605 . S
C1297 C84 1.012 . S
C1309 C150 0.977 . S
C1324 C183 0.931 . S
C1336 C117 0.907 . S
C1351 C18 1.012 . S
C1363 C216 0.981 . S
C1378 C249 0.951 . S
C1390 C51 1.002 . S
C1405 C469 1.592 . S
C1417 C271 1.618 . S
C1432 C502 1.618 . S
C1444 C304 1.589 . S
C1459 C403 1.604 . S
C1471 C337 1.567 . S
C1486 C370 1.563 . S
C1498 C436 1.594 . S
C1513 C414 0.906 . S
C1525 C348 0.933 . S
C1540 C381 0.955 . S
C1552 C447 0.910 . S
C1567 C282 1.012 . S
C1579 C480 0.974 . S
C1594 C513 0.977 . S
C1606 C315 1.011 . S
