# Generated by pormake.
# Topology fni, (5)-cn, num edge types: 1
# Building blocks:
#     Node 0, Type 0, BuildingBlock: XOMCOT_clean_sbu_1, # of connection points: 5
#     Node 1, Type 0, BuildingBlock: XOMCOT_clean_sbu_1, # of connection points: 5
#     Node 2, Type 0, BuildingBlock: XOMCOT_clean_sbu_1, # of connection points: 5
#     Node 3, Type 0, BuildingBlock: XOMCOT_clean_sbu_1, # of connection points: 5
#     Node 4, Type 0, BuildingBlock: XOMCOT_clean_sbu_1, # of connection points: 5
#     Node 5, Type 0, BuildingBlock: XOMCOT_clean_sbu_1, # of connection points: 5
#     Node 6, Type 0, BuildingBlock: XOMCOT_clean_sbu_1, # of connection points: 5
#     Node 7, Type 0, BuildingBlock: XOMCOT_clean_sbu_1, # of connection points: 5
#     Edge 8, Type (0, 0), BuildingBlock: EYOCIG_clean_linker_4, # of connection points: 2
#     Edge 9, Type (0, 0), BuildingBlock: EYOCIG_clean_linker_4, # of connection points: 2
#     Edge 10, Type (0, 0), BuildingBlock: EYOCIG_clean_linker_4, # of connection points: 2
#     Edge 11, Type (0, 0), BuildingBlock: EYOCIG_clean_linker_4, # of connection points: 2
#     Edge 12, Type (0, 0), BuildingBlock: EYOCIG_clean_linker_4, # of connection points: 2
#     Edge 13, Type (0, 0), BuildingBlock: EYOCIG_clean_linker_4, # of connection points: 2
#     Edge 14, Type (0, 0), BuildingBlock: EYOCIG_clean_linker_4, # of connection points: 2
#     Edge 15, Type (0, 0), BuildingBlock: EYOCIG_clean_linker_4, # of connection points: 2
#     Edge 16, Type (0, 0), BuildingBlock: EYOCIG_clean_linker_4, # of connection points: 2
#     Edge 17, Type (0, 0), BuildingBlock: EYOCIG_clean_linker_4, # of connection points: 2
#     Edge 18, Type (0, 0), BuildingBlock: EYOCIG_clean_linker_4, # of connection points: 2
#     Edge 19, Type (0, 0), BuildingBlock: EYOCIG_clean_linker_4, # of connection points: 2
#     Edge 20, Type (0, 0), BuildingBlock: EYOCIG_clean_linker_4, # of connection points: 2
#     Edge 21, Type (0, 0), BuildingBlock: EYOCIG_clean_linker_4, # of connection points: 2
#     Edge 22, Type (0, 0), BuildingBlock: EYOCIG_clean_linker_4, # of connection points: 2
#     Edge 23, Type (0, 0), BuildingBlock: EYOCIG_clean_linker_4, # of connection points: 2
#     Edge 24, Type (0, 0), BuildingBlock: EYOCIG_clean_linker_4, # of connection points: 2
#     Edge 25, Type (0, 0), BuildingBlock: EYOCIG_clean_linker_4, # of connection points: 2
#     Edge 26, Type (0, 0), BuildingBlock: EYOCIG_clean_linker_4, # of connection points: 2
#     Edge 27, Type (0, 0), BuildingBlock: EYOCIG_clean_linker_4, # of connection points: 2
# Relax obj value: 0.169
# Max RMSD: 0.169
# Mean RMSD: 0.164
data_MOF--net-fni--node1-XOMCOT_clean_sbu_1--edge1-EYOCIG_clean_linker_4
_symmetry_space_group_name_H-M    P1
_symmetry_Int_Tables_number       1
_symmetry_cell_setting            triclinic
loop_
_symmetry_equiv_pos_as_xyz
'x, y, z'
_cell_length_a     44.558697
_cell_length_b     41.89555
_cell_length_c     14.368999
_cell_angle_alpha  93.340262
_cell_angle_beta   93.241603
_cell_angle_gamma 90.827828
loop_
_atom_site_label
_atom_site_type_symbol
_atom_site_fract_x
_atom_site_fract_y
_atom_site_fract_z
_atom_type_partial_charge
C0 C 0.41826 0.4379 0.24384 0.0
C1 C 0.41815 0.44133 0.33979 0.0
N2 N 0.4282 0.41409 0.37399 0.0
N3 N 0.42823 0.40857 0.21868 0.0
C4 C 0.43432 0.39464 0.29997 0.0
H5 H 0.41123 0.45547 0.19526 0.0
Co6 Co 0.4316 0.39288 0.09647 0.0
C7 C 0.42173 0.32269 0.10716 0.0
O8 O 0.40382 0.32205 0.03131 0.0
N9 N 0.43604 0.37786 0.97135 0.0
C10 C 0.45359 0.3515 0.84666 0.0
C11 C 0.45234 0.3525 0.94219 0.0
C12 C 0.42914 0.39283 0.89203 0.0
N13 N 0.43904 0.37693 0.81614 0.0
O14 O 0.47431 0.39926 0.11021 0.0
H15 H 0.46394 0.33646 0.98758 0.0
H16 H 0.4189 0.41595 0.88946 0.0
O17 O 0.43463 0.34889 0.13926 0.0
C18 C 0.48051 0.42694 0.08347 0.0
O19 O 0.45845 0.44519 0.05581 0.0
N20 N 0.38917 0.38986 0.08211 0.0
C21 C 0.32713 0.38994 0.04794 0.0
C22 C 0.34002 0.3704 0.11437 0.0
C23 C 0.37124 0.37136 0.13241 0.0
C24 C 0.37635 0.41166 0.02608 0.0
C25 C 0.3454 0.41149 1.00569 0.0
H26 H 0.38082 0.35732 0.18694 0.0
H27 H 0.39009 0.42986 0.99871 0.0
H28 H 0.44279 0.37069 0.30521 0.0
H29 H 0.41099 0.46197 0.38113 0.0
H30 H 0.4653 0.33429 0.80347 0.0
H31 H 0.32618 0.35463 0.15186 0.0
H32 H 0.33585 0.42818 0.9578 0.0
C33 C 0.61058 0.95868 0.20058 0.0
C34 C 0.61096 0.96095 0.10529 0.0
N35 N 0.59214 0.93836 0.06433 0.0
N36 N 0.59172 0.93462 0.2185 0.0
C37 C 0.5806 0.92283 0.13374 0.0
H38 H 0.62306 0.97368 0.25353 0.0
Co39 Co 0.58211 0.9225 0.33532 0.0
C40 C 0.57557 0.85198 0.30859 0.0
O41 O 0.58963 0.84866 0.39013 0.0
N42 N 0.57121 0.91073 0.4544 0.0
C43 C 0.54415 0.89085 0.56468 0.0
C44 C 0.54687 0.89245 0.47012 0.0
C45 C 0.58207 0.92102 0.54114 0.0
N46 N 0.56629 0.90891 0.60833 0.0
O47 O 0.54255 0.93817 0.3128 0.0
H48 H 0.53157 0.88146 0.41608 0.0
H49 H 0.60026 0.93809 0.55611 0.0
O50 O 0.57054 0.87979 0.27982 0.0
C51 C 0.54301 0.9675 0.34196 0.0
O52 O 0.56797 0.98016 0.38181 0.0
N53 N 0.62238 0.9106 0.35868 0.0
C54 C 0.68266 0.90035 0.40618 0.0
C55 C 0.66736 0.88079 0.33632 0.0
C56 C 0.63723 0.88689 0.3116 0.0
C57 C 0.63816 0.93177 0.41901 0.0
C58 C 0.66813 0.92659 0.44605 0.0
H59 H 0.62625 0.87292 0.25369 0.0
H60 H 0.62754 0.95323 0.44505 0.0
H61 H 0.56418 0.90349 0.12281 0.0
H62 H 0.62391 0.97784 0.06894 0.0
H63 H 0.52691 0.87815 0.59865 0.0
H64 H 0.67861 0.8613 0.30058 0.0
H65 H 0.67989 0.94314 0.49678 0.0
C66 C 0.04769 0.10821 0.38256 0.0
C67 C 0.04483 0.10762 0.28642 0.0
N68 N 0.07165 0.10012 0.25397 0.0
N69 N 0.07623 0.10126 0.40955 0.0
C70 C 0.09028 0.09622 0.3292 0.0
H71 H 0.0302 0.11363 0.42996 0.0
Co72 Co 0.09128 0.09957 0.53214 0.0
C73 C 0.15523 0.12078 0.52325 0.0
O74 O 0.15347 0.13936 0.59945 0.0
N75 N 0.10606 0.09662 0.65744 0.0
C76 C 0.13358 0.08118 0.78124 0.0
C77 C 0.13202 0.08271 0.68576 0.0
C78 C 0.0916 0.10176 0.7373 0.0
N79 N 0.1081 0.0931 0.81266 0.0
O80 O 0.09242 0.05394 0.51704 0.0
H81 H 0.14832 0.07283 0.63973 0.0
H82 H 0.06877 0.10972 0.74073 0.0
O83 O 0.13263 0.10362 0.49066 0.0
C84 C 0.06811 0.04208 0.54378 0.0
O85 O 0.04714 0.06141 0.57228 0.0
N86 N 0.08722 0.14432 0.54795 0.0
C87 C 0.07784 0.2089 0.58856 0.0
C88 C 0.09823 0.19933 0.52234 0.0
C89 C 0.102 0.16666 0.50091 0.0
C90 C 0.06463 0.15362 0.60301 0.0
C91 C 0.06015 0.18585 0.62675 0.0
H92 H 0.11686 0.1595 0.44702 0.0
H93 H 0.04973 0.13595 0.62794 0.0
H94 H 0.11369 0.09 0.32547 0.0
H95 H 0.02482 0.11257 0.24376 0.0
H96 H 0.15138 0.07095 0.82379 0.0
H97 H 0.11131 0.21681 0.48847 0.0
H98 H 0.04318 0.19263 0.67492 0.0
C99 C 0.86866 0.5804 0.68413 0.0
C100 C 0.8687 0.57733 0.58808 0.0
N101 N 0.88682 0.60039 0.56041 0.0
N102 N 0.88654 0.60542 0.7158 0.0
C103 C 0.8975 0.617 0.63842 0.0
H104 H 0.85651 0.56532 0.72821 0.0
Co105 Co 0.89505 0.61887 0.83995 0.0
C106 C 0.89891 0.69006 0.82836 0.0
O107 O 0.88157 0.69485 0.89854 0.0
N108 N 0.90469 0.63191 0.96712 0.0
C109 C 0.92716 0.65573 0.09659 0.0
C110 C 0.92481 0.65494 1.00057 0.0
C111 C 0.89647 0.61795 0.04482 0.0
N112 N 0.90937 0.63238 0.12341 0.0
O113 O 0.93525 0.60474 0.82947 0.0
H114 H 0.93793 0.66969 0.95828 0.0
H115 H 0.88241 0.59679 0.04485 0.0
O116 O 0.90575 0.66171 0.80034 0.0
C117 C 0.93535 0.57527 0.84723 0.0
O118 O 0.9105 0.56178 0.87201 0.0
N119 N 0.85416 0.62871 0.85027 0.0
C120 C 0.79227 0.63096 0.86798 0.0
C121 C 0.80634 0.65208 0.81136 0.0
C122 C 0.83749 0.65012 0.8018 0.0
C123 C 0.84 0.60649 0.89864 0.0
C124 C 0.8093 0.60775 0.91082 0.0
H125 H 0.84782 0.66501 0.75333 0.0
H126 H 0.85235 0.58657 0.92418 0.0
H127 H 0.91313 0.63705 0.63894 0.0
H128 H 0.85643 0.55967 0.5422 0.0
H129 H 0.94132 0.67161 0.14291 0.0
H130 H 0.79342 0.66946 0.77394 0.0
H131 H 0.79885 0.59016 0.95163 0.0
C132 C 0.36859 0.08043 0.1835 0.0
C133 C 0.36862 0.07738 0.08745 0.0
N134 N 0.38674 0.10043 0.0598 0.0
N135 N 0.38648 0.10545 0.21519 0.0
C136 C 0.39743 0.11704 0.13782 0.0
H137 H 0.35644 0.06534 0.22758 0.0
Co138 Co 0.395 0.11886 0.33934 0.0
C139 C 0.39888 0.19006 0.32809 0.0
O140 O 0.3816 0.19481 0.39844 0.0
N141 N 0.40466 0.13188 0.4665 0.0
C142 C 0.42724 0.15562 0.59592 0.0
C143 C 0.42489 0.15481 0.4999 0.0
C144 C 0.39638 0.11798 0.54423 0.0
N145 N 0.40934 0.13237 0.62278 0.0
O146 O 0.43521 0.10475 0.32872 0.0
H147 H 0.43806 0.16949 0.45755 0.0
H148 H 0.38222 0.0969 0.5443 0.0
O149 O 0.40568 0.16173 0.29982 0.0
C150 C 0.43536 0.07529 0.34642 0.0
O151 O 0.41054 0.06175 0.37125 0.0
N152 N 0.35411 0.12868 0.34976 0.0
C153 C 0.29223 0.13094 0.36773 0.0
C154 C 0.3063 0.15213 0.31127 0.0
C155 C 0.33744 0.15016 0.30156 0.0
C156 C 0.33996 0.10641 0.39795 0.0
C157 C 0.30927 0.10766 0.41026 0.0
H158 H 0.34776 0.16511 0.25321 0.0
H159 H 0.35232 0.08646 0.4233 0.0
H160 H 0.41306 0.13708 0.13835 0.0
H161 H 0.35634 0.05972 0.04156 0.0
H162 H 0.44147 0.17144 0.64221 0.0
H163 H 0.29338 0.16956 0.27407 0.0
H164 H 0.29883 0.09003 0.45094 0.0
C165 C 0.91856 0.93776 0.74322 0.0
C166 C 0.91847 0.94121 0.83917 0.0
N167 N 0.92854 0.91397 0.87338 0.0
N168 N 0.92853 0.90842 0.71806 0.0
C169 C 0.93464 0.89451 0.79936 0.0
H170 H 0.91151 0.95532 0.69463 0.0
Co171 Co 0.93185 0.89271 0.59584 0.0
C172 C 0.92183 0.82255 0.60686 0.0
O173 O 0.90385 0.82191 0.53115 0.0
N174 N 0.93625 0.87766 0.47071 0.0
C175 C 0.95362 0.85118 0.34592 0.0
C176 C 0.95237 0.85217 0.44144 0.0
C177 C 0.92949 0.89272 0.39146 0.0
N178 N 0.93927 0.87675 0.3155 0.0
O179 O 0.97457 0.89902 0.60951 0.0
H180 H 0.96384 0.83601 0.48675 0.0
H181 H 0.91944 0.91594 0.389 0.0
O182 O 0.93481 0.84872 0.63873 0.0
C183 C 0.98078 0.92671 0.58285 0.0
O184 O 0.95872 0.94499 0.55531 0.0
N185 N 0.88942 0.88977 0.58155 0.0
C186 C 0.82737 0.88996 0.54755 0.0
C187 C 0.84023 0.87047 0.61415 0.0
C188 C 0.87146 0.87137 0.63209 0.0
C189 C 0.87662 0.91152 0.52529 0.0
C190 C 0.84567 0.9114 0.50499 0.0
H191 H 0.88103 0.85738 0.68673 0.0
H192 H 0.89038 0.92964 0.49769 0.0
H193 H 0.9431 0.87056 0.8046 0.0
H194 H 0.91131 0.96185 0.88051 0.0
H195 H 0.96519 0.83387 0.30266 0.0
H196 H 0.82638 0.85479 0.65186 0.0
H197 H 0.83614 0.92804 0.45694 0.0
C198 C 0.11026 0.45841 0.70183 0.0
C199 C 0.11062 0.46071 0.60654 0.0
N200 N 0.09176 0.43815 0.56556 0.0
N201 N 0.09138 0.43437 0.71972 0.0
C202 C 0.08023 0.42262 0.63495 0.0
H203 H 0.12277 0.47338 0.75479 0.0
Co204 Co 0.08179 0.42221 0.83653 0.0
C205 C 0.07532 0.35168 0.80946 0.0
O206 O 0.08946 0.34833 0.89087 0.0
N207 N 0.07091 0.41039 0.95561 0.0
C208 C 0.04396 0.39038 0.06594 0.0
C209 C 0.04668 0.39196 0.97137 0.0
C210 C 0.08168 0.42081 0.04233 0.0
N211 N 0.06598 0.40862 0.10956 0.0
O212 O 0.04224 0.43788 0.81413 0.0
H213 H 0.03144 0.38085 0.91736 0.0
H214 H 0.09976 0.43803 0.05726 0.0
O215 O 0.07021 0.37951 0.78091 0.0
C216 C 0.04273 0.46721 0.84329 0.0
O217 O 0.06771 0.47983 0.8831 0.0
N218 N 0.12206 0.4103 0.85977 0.0
C219 C 0.18238 0.40005 0.9069 0.0
C220 C 0.16706 0.38057 0.83686 0.0
C221 C 0.13692 0.38667 0.81235 0.0
C222 C 0.13785 0.4314 0.92031 0.0
C223 C 0.16783 0.42621 0.94717 0.0
H224 H 0.12593 0.37278 0.7543 0.0
H225 H 0.12724 0.45283 0.94655 0.0
H226 H 0.06379 0.40329 0.624 0.0
H227 H 0.12359 0.47759 0.57021 0.0
H228 H 0.0268 0.37757 0.09993 0.0
H229 H 0.17832 0.36115 0.80083 0.0
H230 H 0.1796 0.44271 0.99803 0.0
C231 C 0.54772 0.60834 0.88307 0.0
C232 C 0.54485 0.60773 0.78693 0.0
N233 N 0.57165 0.60016 0.75444 0.0
N234 N 0.57625 0.60133 0.91002 0.0
C235 C 0.59027 0.59623 0.82965 0.0
H236 H 0.53025 0.61383 0.93049 0.0
Co237 Co 0.59131 0.59966 0.03262 0.0
C238 C 0.65526 0.62084 0.02336 0.0
O239 O 0.65351 0.63952 0.09939 0.0
N240 N 0.60611 0.59673 0.15793 0.0
C241 C 0.63367 0.58142 0.28183 0.0
C242 C 0.63214 0.58297 0.18635 0.0
C243 C 0.59159 0.60174 0.23773 0.0
N244 N 0.60811 0.59318 0.31314 0.0
O245 O 0.59238 0.55402 0.01765 0.0
H246 H 0.64851 0.57319 0.14041 0.0
H247 H 0.5687 0.60954 0.24104 0.0
O248 O 0.63266 0.60363 0.99102 0.0
C249 C 0.56803 0.54223 0.04432 0.0
O250 O 0.54709 0.56161 0.07268 0.0
N251 N 0.58733 0.64443 0.0483 0.0
C252 C 0.57808 0.70906 0.08851 0.0
C253 C 0.59835 0.69939 0.02202 0.0
C254 C 0.60205 0.66669 1.00081 0.0
C255 C 0.56485 0.65383 0.1037 0.0
C256 C 0.56045 0.68608 0.12724 0.0
H257 H 0.61681 0.65945 0.94672 0.0
H258 H 0.54996 0.63622 0.12899 0.0
H259 H 0.61367 0.58997 0.8259 0.0
H260 H 0.52484 0.61273 0.74428 0.0
H261 H 0.65152 0.57131 0.32444 0.0
H262 H 0.61138 0.7168 0.98774 0.0
H263 H 0.54357 0.69295 0.17564 0.0
C264 C 0.55172 0.48232 0.05662 0.0
C265 C 0.5627 0.50835 0.04675 0.0
C266 C 0.53227 0.45627 0.0712 0.0
C267 C 0.51077 0.43918 0.08126 0.0
C268 C 0.47949 0.03479 0.32883 0.0
C269 C 0.4611 0.05558 0.33435 0.0
C270 C 0.49933 1.00875 0.3266 0.0
C271 C 0.51757 0.98777 0.32964 0.0
C272 C 0.03253 0.95604 0.57054 0.0
C273 C 0.01104 0.93893 0.58062 0.0
C274 C 0.05193 0.98213 0.55597 0.0
C275 C 0.06285 1.00819 0.54613 0.0
C276 C -0.00084 0.50857 0.82774 0.0
C277 C 0.01734 0.48753 0.83086 0.0
C278 C 0.97939 0.53467 0.82985 0.0
C279 C 0.96105 0.55551 0.83527 0.0
C280 C 0.43266 0.40094 0.54928 0.0
C281 C 0.43063 0.40694 0.46817 0.0
C282 C 0.43469 0.39343 0.64385 0.0
C283 C 0.4365 0.38614 0.72385 0.0
C284 C 0.58095 0.92674 0.88531 0.0
C285 C 0.58603 0.932 0.96816 0.0
C286 C 0.57556 0.92052 0.78807 0.0
C287 C 0.57124 0.91512 0.70499 0.0
C288 C 0.09275 0.09512 0.9853 0.0
C289 C 0.09962 0.0943 0.90525 0.0
C290 C 0.08528 0.09639 0.07961 0.0
C291 C 0.07906 0.0981 0.1603 0.0
C292 C 0.90208 0.61797 0.29496 0.0
C293 C 0.90531 0.62446 0.21542 0.0
C294 C 0.89751 0.61146 0.38851 0.0
C295 C 0.89266 0.60648 0.46816 0.0
C296 C 0.39743 0.11151 0.8879 0.0
C297 C 0.39259 0.10652 0.96755 0.0
C298 C 0.40201 0.11801 0.79435 0.0
C299 C 0.40526 0.12448 0.71481 0.0
C300 C 0.93501 0.8933 0.14325 0.0
C301 C 0.93679 0.88599 0.22324 0.0
C302 C 0.933 0.90083 0.04868 0.0
C303 C 0.93097 0.90682 0.96757 0.0
C304 C 0.08056 0.42656 0.38653 0.0
C305 C 0.08565 0.43181 0.46938 0.0
C306 C 0.07518 0.42032 0.28929 0.0
C307 C 0.07089 0.41488 0.20621 0.0
C308 C 0.58526 0.5964 0.58006 0.0
C309 C 0.57904 0.59812 0.66076 0.0
C310 C 0.59273 0.59512 0.48575 0.0
C311 C 0.59961 0.59434 0.40571 0.0
C312 C 0.23886 0.39087 0.96414 0.0
C313 C 0.21315 0.39416 0.93598 0.0
C314 C 0.26913 0.38881 0.99756 0.0
C315 C 0.29537 0.38839 0.02297 0.0
C316 C 0.57081 0.79959 0.19768 0.0
C317 C 0.57221 0.82451 0.24419 0.0
C318 C 0.57266 0.76915 0.15106 0.0
C319 C 0.57592 0.74212 0.12027 0.0
C320 C 0.23465 0.12939 0.40252 0.0
C321 C 0.26048 0.13202 0.3823 0.0
C322 C 0.20578 0.12504 0.43666 0.0
C323 C 0.18217 0.12203 0.47282 0.0
C324 C 0.91602 0.74103 0.74305 0.0
C325 C 0.90877 0.71709 0.77979 0.0
C326 C 0.92144 0.76992 0.69969 0.0
C327 C 0.92275 0.79474 0.66113 0.0
C328 C 0.76936 0.88897 0.4973 0.0
C329 C 0.7956 0.88848 0.5227 0.0
C330 C 0.7391 0.8911 0.46381 0.0
C331 C 0.71341 0.89444 0.43552 0.0
C332 C 0.07235 0.26893 0.65158 0.0
C333 C 0.07563 0.24192 0.62064 0.0
C334 C 0.0705 0.29935 0.69834 0.0
C335 C 0.07192 0.32425 0.74496 0.0
C336 C 0.7058 0.62502 0.93667 0.0
C337 C 0.68218 0.62204 0.97285 0.0
C338 C 0.73467 0.62938 0.90254 0.0
C339 C 0.7605 0.63202 0.88239 0.0
C340 C 0.42136 0.27001 0.19977 0.0
C341 C 0.42265 0.29485 0.16132 0.0
C342 C 0.41595 0.2411 0.24298 0.0
C343 C 0.40871 0.21713 0.27963 0.0
loop_
_geom_bond_atom_site_label_1
_geom_bond_atom_site_label_2
_geom_bond_distance
_geom_bond_site_symmetry_2
_ccdc_geom_bond_type
C0 C1 1.351 . S
C0 N3 1.368 . S
C0 H5 0.931 . S
C1 C0 1.351 . S
C1 N2 1.373 . S
C1 H29 0.930 . S
N2 C1 1.373 . S
N2 C4 1.340 . S
N3 C0 1.368 . S
N3 C4 1.321 . S
N3 Co6 2.135 . S
C4 N2 1.340 . S
C4 N3 1.321 . S
C4 H28 0.930 . S
H5 C0 0.931 . S
Co6 N3 2.135 . S
Co6 N9 2.121 1_554 S
Co6 O14 2.055 . S
Co6 O17 2.039 . S
Co6 N20 2.140 . S
C7 O8 1.227 . S
C7 O17 1.265 . S
O8 C7 1.227 . S
N9 Co6 2.121 1_556 S
N9 C11 1.375 . S
N9 C12 1.313 . S
C10 C11 1.338 . S
C10 N13 1.377 . S
C10 H30 0.930 . S
C11 N9 1.375 . S
C11 C10 1.338 . S
C11 H15 0.931 . S
C12 N9 1.313 . S
C12 N13 1.344 . S
C12 H16 0.930 . S
N13 C10 1.377 . S
N13 C12 1.344 . S
O14 Co6 2.055 . S
O14 C18 1.253 . S
H15 C11 0.931 . S
H16 C12 0.930 . S
O17 Co6 2.039 . S
O17 C7 1.265 . S
C18 O14 1.253 . S
C18 O19 1.227 . S
O19 C18 1.227 . S
N20 Co6 2.140 . S
N20 C23 1.346 . S
N20 C24 1.345 . S
C21 C22 1.387 . S
C21 C25 1.391 1_554 S
C22 C21 1.387 . S
C22 C23 1.369 . S
C22 H31 0.929 . S
C23 N20 1.346 . S
C23 C22 1.369 . S
C23 H26 0.928 . S
C24 N20 1.345 . S
C24 C25 1.371 1_554 S
C24 H27 0.931 1_554 S
C25 C21 1.391 1_556 S
C25 C24 1.371 1_556 S
C25 H32 0.930 . S
H26 C23 0.928 . S
H27 C24 0.931 1_556 S
H28 C4 0.930 . S
H29 C1 0.930 . S
H30 C10 0.930 . S
H31 C22 0.929 . S
H32 C25 0.930 . S
C33 C34 1.351 . S
C33 N36 1.368 . S
C33 H38 0.931 . S
C34 C33 1.351 . S
C34 N35 1.373 . S
C34 H62 0.930 . S
N35 C34 1.373 . S
N35 C37 1.340 . S
N36 C33 1.368 . S
N36 C37 1.321 . S
N36 Co39 2.135 . S
C37 N35 1.340 . S
C37 N36 1.321 . S
C37 H61 0.930 . S
H38 C33 0.931 . S
Co39 N36 2.135 . S
Co39 N42 2.121 . S
Co39 O47 2.055 . S
Co39 O50 2.039 . S
Co39 N53 2.140 . S
C40 O41 1.227 . S
C40 O50 1.265 . S
O41 C40 1.227 . S
N42 Co39 2.121 . S
N42 C44 1.375 . S
N42 C45 1.313 . S
C43 C44 1.338 . S
C43 N46 1.377 . S
C43 H63 0.930 . S
C44 N42 1.375 . S
C44 C43 1.338 . S
C44 H48 0.931 . S
C45 N42 1.313 . S
C45 N46 1.344 . S
C45 H49 0.930 . S
N46 C43 1.377 . S
N46 C45 1.344 . S
O47 Co39 2.055 . S
O47 C51 1.253 . S
H48 C44 0.931 . S
H49 C45 0.930 . S
O50 Co39 2.039 . S
O50 C40 1.265 . S
C51 O47 1.253 . S
C51 O52 1.227 . S
O52 C51 1.227 . S
N53 Co39 2.140 . S
N53 C56 1.346 . S
N53 C57 1.345 . S
C54 C55 1.387 . S
C54 C58 1.391 . S
C55 C54 1.387 . S
C55 C56 1.369 . S
C55 H64 0.929 . S
C56 N53 1.346 . S
C56 C55 1.369 . S
C56 H59 0.928 . S
C57 N53 1.345 . S
C57 C58 1.371 . S
C57 H60 0.931 . S
C58 C54 1.391 . S
C58 C57 1.371 . S
C58 H65 0.930 . S
H59 C56 0.928 . S
H60 C57 0.931 . S
H61 C37 0.930 . S
H62 C34 0.930 . S
H63 C43 0.930 . S
H64 C55 0.929 . S
H65 C58 0.930 . S
C66 C67 1.351 . S
C66 N69 1.368 . S
C66 H71 0.931 . S
C67 C66 1.351 . S
C67 N68 1.373 . S
C67 H95 0.930 . S
N68 C67 1.373 . S
N68 C70 1.340 . S
N69 C66 1.368 . S
N69 C70 1.321 . S
N69 Co72 2.135 . S
C70 N68 1.340 . S
C70 N69 1.321 . S
C70 H94 0.930 . S
H71 C66 0.931 . S
Co72 N69 2.135 . S
Co72 N75 2.121 . S
Co72 O80 2.055 . S
Co72 O83 2.039 . S
Co72 N86 2.140 . S
C73 O74 1.227 . S
C73 O83 1.265 . S
O74 C73 1.227 . S
N75 Co72 2.121 . S
N75 C77 1.375 . S
N75 C78 1.313 . S
C76 C77 1.338 . S
C76 N79 1.377 . S
C76 H96 0.930 . S
C77 N75 1.375 . S
C77 C76 1.338 . S
C77 H81 0.931 . S
C78 N75 1.313 . S
C78 N79 1.344 . S
C78 H82 0.930 . S
N79 C76 1.377 . S
N79 C78 1.344 . S
O80 Co72 2.055 . S
O80 C84 1.253 . S
H81 C77 0.931 . S
H82 C78 0.930 . S
O83 Co72 2.039 . S
O83 C73 1.265 . S
C84 O80 1.253 . S
C84 O85 1.227 . S
O85 C84 1.227 . S
N86 Co72 2.140 . S
N86 C89 1.346 . S
N86 C90 1.345 . S
C87 C88 1.387 . S
C87 C91 1.391 . S
C88 C87 1.387 . S
C88 C89 1.369 . S
C88 H97 0.929 . S
C89 N86 1.346 . S
C89 C88 1.369 . S
C89 H92 0.928 . S
C90 N86 1.345 . S
C90 C91 1.371 . S
C90 H93 0.931 . S
C91 C87 1.391 . S
C91 C90 1.371 . S
C91 H98 0.930 . S
H92 C89 0.928 . S
H93 C90 0.931 . S
H94 C70 0.930 . S
H95 C67 0.930 . S
H96 C76 0.930 . S
H97 C88 0.929 . S
H98 C91 0.930 . S
C99 C100 1.351 . S
C99 N102 1.368 . S
C99 H104 0.931 . S
C100 C99 1.351 . S
C100 N101 1.373 . S
C100 H128 0.930 . S
N101 C100 1.373 . S
N101 C103 1.340 . S
N102 C99 1.368 . S
N102 C103 1.321 . S
N102 Co105 2.135 . S
C103 N101 1.340 . S
C103 N102 1.321 . S
C103 H127 0.930 . S
H104 C99 0.931 . S
Co105 N102 2.135 . S
Co105 N108 2.121 . S
Co105 O113 2.055 . S
Co105 O116 2.039 . S
Co105 N119 2.140 . S
C106 O107 1.227 . S
C106 O116 1.265 . S
O107 C106 1.227 . S
N108 Co105 2.121 . S
N108 C110 1.375 1_556 S
N108 C111 1.313 1_556 S
C109 C110 1.338 . S
C109 N112 1.377 . S
C109 H129 0.930 . S
C110 N108 1.375 1_554 S
C110 C109 1.338 . S
C110 H114 0.931 1_554 S
C111 N108 1.313 1_554 S
C111 N112 1.344 . S
C111 H115 0.930 . S
N112 C109 1.377 . S
N112 C111 1.344 . S
O113 Co105 2.055 . S
O113 C117 1.253 . S
H114 C110 0.931 1_556 S
H115 C111 0.930 . S
O116 Co105 2.039 . S
O116 C106 1.265 . S
C117 O113 1.253 . S
C117 O118 1.227 . S
O118 C117 1.227 . S
N119 Co105 2.140 . S
N119 C122 1.346 . S
N119 C123 1.345 . S
C120 C121 1.387 . S
C120 C124 1.391 . S
C121 C120 1.387 . S
C121 C122 1.369 . S
C121 H130 0.929 . S
C122 N119 1.346 . S
C122 C121 1.369 . S
C122 H125 0.928 . S
C123 N119 1.345 . S
C123 C124 1.371 . S
C123 H126 0.931 . S
C124 C120 1.391 . S
C124 C123 1.371 . S
C124 H131 0.930 . S
H125 C122 0.928 . S
H126 C123 0.931 . S
H127 C103 0.930 . S
H128 C100 0.930 . S
H129 C109 0.930 . S
H130 C121 0.929 . S
H131 C124 0.930 . S
C132 C133 1.351 . S
C132 N135 1.368 . S
C132 H137 0.931 . S
C133 C132 1.351 . S
C133 N134 1.373 . S
C133 H161 0.930 . S
N134 C133 1.373 . S
N134 C136 1.340 . S
N135 C132 1.368 . S
N135 C136 1.321 . S
N135 Co138 2.135 . S
C136 N134 1.340 . S
C136 N135 1.321 . S
C136 H160 0.930 . S
H137 C132 0.931 . S
Co138 N135 2.135 . S
Co138 N141 2.121 . S
Co138 O146 2.055 . S
Co138 O149 2.039 . S
Co138 N152 2.140 . S
C139 O140 1.227 . S
C139 O149 1.265 . S
O140 C139 1.227 . S
N141 Co138 2.121 . S
N141 C143 1.375 . S
N141 C144 1.313 . S
C142 C143 1.338 . S
C142 N145 1.377 . S
C142 H162 0.930 . S
C143 N141 1.375 . S
C143 C142 1.338 . S
C143 H147 0.931 . S
C144 N141 1.313 . S
C144 N145 1.344 . S
C144 H148 0.930 . S
N145 C142 1.377 . S
N145 C144 1.344 . S
O146 Co138 2.055 . S
O146 C150 1.253 . S
H147 C143 0.931 . S
H148 C144 0.930 . S
O149 Co138 2.039 . S
O149 C139 1.265 . S
C150 O146 1.253 . S
C150 O151 1.227 . S
O151 C150 1.227 . S
N152 Co138 2.140 . S
N152 C155 1.346 . S
N152 C156 1.345 . S
C153 C154 1.387 . S
C153 C157 1.391 . S
C154 C153 1.387 . S
C154 C155 1.369 . S
C154 H163 0.929 . S
C155 N152 1.346 . S
C155 C154 1.369 . S
C155 H158 0.928 . S
C156 N152 1.345 . S
C156 C157 1.371 . S
C156 H159 0.931 . S
C157 C153 1.391 . S
C157 C156 1.371 . S
C157 H164 0.930 . S
H158 C155 0.928 . S
H159 C156 0.931 . S
H160 C136 0.930 . S
H161 C133 0.930 . S
H162 C142 0.930 . S
H163 C154 0.929 . S
H164 C157 0.930 . S
C165 C166 1.351 . S
C165 N168 1.368 . S
C165 H170 0.931 . S
C166 C165 1.351 . S
C166 N167 1.373 . S
C166 H194 0.930 . S
N167 C166 1.373 . S
N167 C169 1.340 . S
N168 C165 1.368 . S
N168 C169 1.321 . S
N168 Co171 2.135 . S
C169 N167 1.340 . S
C169 N168 1.321 . S
C169 H193 0.930 . S
H170 C165 0.931 . S
Co171 N168 2.135 . S
Co171 N174 2.121 . S
Co171 O179 2.055 . S
Co171 O182 2.039 . S
Co171 N185 2.140 . S
C172 O173 1.227 . S
C172 O182 1.265 . S
O173 C172 1.227 . S
N174 Co171 2.121 . S
N174 C176 1.375 . S
N174 C177 1.313 . S
C175 C176 1.338 . S
C175 N178 1.377 . S
C175 H195 0.930 . S
C176 N174 1.375 . S
C176 C175 1.338 . S
C176 H180 0.931 . S
C177 N174 1.313 . S
C177 N178 1.344 . S
C177 H181 0.930 . S
N178 C175 1.377 . S
N178 C177 1.344 . S
O179 Co171 2.055 . S
O179 C183 1.253 . S
H180 C176 0.931 . S
H181 C177 0.930 . S
O182 Co171 2.039 . S
O182 C172 1.265 . S
C183 O179 1.253 . S
C183 O184 1.227 . S
O184 C183 1.227 . S
N185 Co171 2.140 . S
N185 C188 1.346 . S
N185 C189 1.345 . S
C186 C187 1.387 . S
C186 C190 1.391 . S
C187 C186 1.387 . S
C187 C188 1.369 . S
C187 H196 0.929 . S
C188 N185 1.346 . S
C188 C187 1.369 . S
C188 H191 0.928 . S
C189 N185 1.345 . S
C189 C190 1.371 . S
C189 H192 0.931 . S
C190 C186 1.391 . S
C190 C189 1.371 . S
C190 H197 0.930 . S
H191 C188 0.928 . S
H192 C189 0.931 . S
H193 C169 0.930 . S
H194 C166 0.930 . S
H195 C175 0.930 . S
H196 C187 0.929 . S
H197 C190 0.930 . S
C198 C199 1.351 . S
C198 N201 1.368 . S
C198 H203 0.931 . S
C199 C198 1.351 . S
C199 N200 1.373 . S
C199 H227 0.930 . S
N200 C199 1.373 . S
N200 C202 1.340 . S
N201 C198 1.368 . S
N201 C202 1.321 . S
N201 Co204 2.135 . S
C202 N200 1.340 . S
C202 N201 1.321 . S
C202 H226 0.930 . S
H203 C198 0.931 . S
Co204 N201 2.135 . S
Co204 N207 2.121 . S
Co204 O212 2.055 . S
Co204 O215 2.039 . S
Co204 N218 2.140 . S
C205 O206 1.227 . S
C205 O215 1.265 . S
O206 C205 1.227 . S
N207 Co204 2.121 . S
N207 C209 1.372 1_556 S
N207 C210 1.313 1_556 S
C208 C209 1.345 . S
C208 N211 1.377 . S
C208 H228 0.930 . S
C209 N207 1.372 1_554 S
C209 C208 1.345 . S
C209 H213 0.927 1_554 S
C210 N207 1.313 1_554 S
C210 N211 1.344 . S
C210 H214 0.930 . S
N211 C208 1.377 . S
N211 C210 1.344 . S
O212 Co204 2.055 . S
O212 C216 1.253 . S
H213 C209 0.927 1_556 S
H214 C210 0.930 . S
O215 Co204 2.039 . S
O215 C205 1.265 . S
C216 O212 1.253 . S
C216 O217 1.227 . S
O217 C216 1.227 . S
N218 Co204 2.140 . S
N218 C221 1.346 . S
N218 C222 1.345 . S
C219 C220 1.387 . S
C219 C223 1.391 . S
C220 C219 1.387 . S
C220 C221 1.369 . S
C220 H229 0.929 . S
C221 N218 1.346 . S
C221 C220 1.369 . S
C221 H224 0.928 . S
C222 N218 1.345 . S
C222 C223 1.371 . S
C222 H225 0.931 . S
C223 C219 1.391 . S
C223 C222 1.371 . S
C223 H230 0.930 . S
H224 C221 0.928 . S
H225 C222 0.931 . S
H226 C202 0.930 . S
H227 C199 0.930 . S
H228 C208 0.930 . S
H229 C220 0.929 . S
H230 C223 0.930 . S
C231 C232 1.351 . S
C231 N234 1.368 . S
C231 H236 0.931 . S
C232 C231 1.351 . S
C232 N233 1.373 . S
C232 H260 0.930 . S
N233 C232 1.373 . S
N233 C235 1.340 . S
N234 C231 1.368 . S
N234 C235 1.321 . S
N234 Co237 2.135 1_556 S
C235 N233 1.340 . S
C235 N234 1.321 . S
C235 H259 0.930 . S
H236 C231 0.931 . S
Co237 N234 2.135 1_554 S
Co237 N240 2.121 . S
Co237 O245 2.055 . S
Co237 O248 2.039 1_554 S
Co237 N251 2.140 . S
C238 O239 1.227 . S
C238 O248 1.265 . S
O239 C238 1.227 . S
N240 Co237 2.121 . S
N240 C242 1.375 . S
N240 C243 1.313 . S
C241 C242 1.338 . S
C241 N244 1.377 . S
C241 H261 0.930 . S
C242 N240 1.375 . S
C242 C241 1.338 . S
C242 H246 0.931 . S
C243 N240 1.313 . S
C243 N244 1.344 . S
C243 H247 0.930 . S
N244 C241 1.377 . S
N244 C243 1.344 . S
O245 Co237 2.055 . S
O245 C249 1.253 . S
H246 C242 0.931 . S
H247 C243 0.930 . S
O248 Co237 2.039 1_556 S
O248 C238 1.265 . S
C249 O245 1.253 . S
C249 O250 1.227 . S
O250 C249 1.227 . S
N251 Co237 2.140 . S
N251 C254 1.346 1_554 S
N251 C255 1.345 . S
C252 C253 1.387 1_554 S
C252 C256 1.391 . S
C253 C252 1.387 1_556 S
C253 C254 1.369 . S
C253 H262 0.929 . S
C254 N251 1.346 1_556 S
C254 C253 1.369 . S
C254 H257 0.928 . S
C255 N251 1.345 . S
C255 C256 1.371 . S
C255 H258 0.931 . S
C256 C252 1.391 . S
C256 C255 1.371 . S
C256 H263 0.930 . S
H257 C254 0.928 . S
H258 C255 0.931 . S
H259 C235 0.930 . S
H260 C232 0.930 . S
H261 C241 0.930 . S
H262 C253 0.929 . S
H263 C256 0.930 . S
C264 C265 1.170 . S
C264 C266 1.380 . S
C265 C264 1.170 . S
C266 C264 1.380 . S
C266 C267 1.170 . S
C267 C266 1.170 . S
C268 C269 1.170 . S
C268 C270 1.380 1_545 S
C269 C268 1.170 . S
C270 C268 1.380 1_565 S
C270 C271 1.170 . S
C271 C270 1.170 . S
C272 C273 1.170 . S
C272 C274 1.380 1_665 S
C273 C272 1.170 . S
C274 C272 1.380 1_445 S
C274 C275 1.170 . S
C275 C274 1.170 . S
C276 C277 1.170 . S
C276 C278 1.380 1_455 S
C277 C276 1.170 . S
C278 C276 1.380 1_655 S
C278 C279 1.170 . S
C279 C278 1.170 . S
C280 C281 1.170 . S
C280 C282 1.380 . S
C281 C280 1.170 . S
C282 C280 1.380 . S
C282 C283 1.170 . S
C283 C282 1.170 . S
C284 C285 1.170 . S
C284 C286 1.380 . S
C285 C284 1.170 . S
C286 C284 1.380 . S
C286 C287 1.170 . S
C287 C286 1.170 . S
C288 C289 1.170 . S
C288 C290 1.380 1_556 S
C289 C288 1.170 . S
C290 C288 1.380 1_554 S
C290 C291 1.170 . S
C291 C290 1.170 . S
C292 C293 1.170 . S
C292 C294 1.380 . S
C293 C292 1.170 . S
C294 C292 1.380 . S
C294 C295 1.170 . S
C295 C294 1.170 . S
C296 C297 1.170 . S
C296 C298 1.380 . S
C297 C296 1.170 . S
C298 C296 1.380 . S
C298 C299 1.170 . S
C299 C298 1.170 . S
C300 C301 1.170 . S
C300 C302 1.380 . S
C301 C300 1.170 . S
C302 C300 1.380 . S
C302 C303 1.170 1_554 S
C303 C302 1.170 1_556 S
C304 C305 1.170 . S
C304 C306 1.380 . S
C305 C304 1.170 . S
C306 C304 1.380 . S
C306 C307 1.170 . S
C307 C306 1.170 . S
C308 C309 1.170 . S
C308 C310 1.380 . S
C309 C308 1.170 . S
C310 C308 1.380 . S
C310 C311 1.170 . S
C311 C310 1.170 . S
C312 C313 1.170 . S
C312 C314 1.380 . S
C313 C312 1.170 . S
C314 C312 1.380 . S
C314 C315 1.170 1_556 S
C315 C314 1.170 1_554 S
C316 C317 1.170 . S
C316 C318 1.380 . S
C317 C316 1.170 . S
C318 C316 1.380 . S
C318 C319 1.170 . S
C319 C318 1.170 . S
C320 C321 1.170 . S
C320 C322 1.380 . S
C321 C320 1.170 . S
C322 C320 1.380 . S
C322 C323 1.170 . S
C323 C322 1.170 . S
C324 C325 1.170 . S
C324 C326 1.380 . S
C325 C324 1.170 . S
C326 C324 1.380 . S
C326 C327 1.170 . S
C327 C326 1.170 . S
C328 C329 1.170 . S
C328 C330 1.380 . S
C329 C328 1.170 . S
C330 C328 1.380 . S
C330 C331 1.170 . S
C331 C330 1.170 . S
C332 C333 1.170 . S
C332 C334 1.380 . S
C333 C332 1.170 . S
C334 C332 1.380 . S
C334 C335 1.170 . S
C335 C334 1.170 . S
C336 C337 1.170 . S
C336 C338 1.380 . S
C337 C336 1.170 . S
C338 C336 1.380 . S
C338 C339 1.170 . S
C339 C338 1.170 . S
C340 C341 1.170 . S
C340 C342 1.380 . S
C341 C340 1.170 . S
C342 C340 1.380 . S
C342 C343 1.170 . S
C343 C342 1.170 . S
C265 C249 1.228 . S
C267 C18 1.241 . S
C269 C150 1.248 . S
C271 C51 1.240 . S
C273 C183 1.240 . S
C275 C84 1.228 . S
C277 C216 1.247 . S
C279 C117 1.247 . S
C281 N2 1.379 . S
C283 N13 1.352 . S
C285 N35 1.363 1_556 S
C287 N46 1.321 . S
C289 N79 1.384 . S
C291 N68 1.340 . S
C293 N112 1.362 . S
C295 N101 1.404 . S
C297 N134 1.400 1_556 S
C299 N145 1.361 . S
C301 N178 1.349 . S
C303 N167 1.368 . S
C305 N200 1.320 . S
C307 N211 1.367 . S
C309 N233 1.350 . S
C311 N244 1.360 . S
C313 C219 1.414 . S
C315 C21 1.435 . S
C317 C40 1.397 . S
C319 C252 1.448 . S
C321 C153 1.667 . S
C323 C73 1.636 . S
C325 C106 1.619 . S
C327 C172 1.626 . S
C329 C186 1.419 . S
C331 C54 1.432 . S
C333 C87 1.425 . S
C335 C205 1.439 . S
C337 C238 1.659 . S
C339 C120 1.658 . S
C341 C7 1.627 . S
C343 C139 1.608 . S
