# Generated by pormake.
# Topology umy, (4)-cn, num edge types: 1
# Building blocks:
#     Node 0, Type 0, BuildingBlock: CEKHIL_clean_sbu_0, # of connection points: 4
#     Node 1, Type 0, BuildingBlock: CEKHIL_clean_sbu_0, # of connection points: 4
#     Node 2, Type 0, BuildingBlock: CEKHIL_clean_sbu_0, # of connection points: 4
#     Node 3, Type 0, BuildingBlock: CEKHIL_clean_sbu_0, # of connection points: 4
#     Node 4, Type 0, BuildingBlock: CEKHIL_clean_sbu_0, # of connection points: 4
#     Node 5, Type 0, BuildingBlock: CEKHIL_clean_sbu_0, # of connection points: 4
#     Node 6, Type 0, BuildingBlock: CEKHIL_clean_sbu_0, # of connection points: 4
#     Node 7, Type 0, BuildingBlock: CEKHIL_clean_sbu_0, # of connection points: 4
#     Node 8, Type 0, BuildingBlock: CEKHIL_clean_sbu_0, # of connection points: 4
#     Node 9, Type 0, BuildingBlock: CEKHIL_clean_sbu_0, # of connection points: 4
#     Node 10, Type 0, BuildingBlock: CEKHIL_clean_sbu_0, # of connection points: 4
#     Node 11, Type 0, BuildingBlock: CEKHIL_clean_sbu_0, # of connection points: 4
#     Edge 12, Type (0, 0), BuildingBlock: KIFKEQ_clean_linker_1, # of connection points: 2
#     Edge 13, Type (0, 0), BuildingBlock: KIFKEQ_clean_linker_1, # of connection points: 2
#     Edge 14, Type (0, 0), BuildingBlock: KIFKEQ_clean_linker_1, # of connection points: 2
#     Edge 15, Type (0, 0), BuildingBlock: KIFKEQ_clean_linker_1, # of connection points: 2
#     Edge 16, Type (0, 0), BuildingBlock: KIFKEQ_clean_linker_1, # of connection points: 2
#     Edge 17, Type (0, 0), BuildingBlock: KIFKEQ_clean_linker_1, # of connection points: 2
#     Edge 18, Type (0, 0), BuildingBlock: KIFKEQ_clean_linker_1, # of connection points: 2
#     Edge 19, Type (0, 0), BuildingBlock: KIFKEQ_clean_linker_1, # of connection points: 2
#     Edge 20, Type (0, 0), BuildingBlock: KIFKEQ_clean_linker_1, # of connection points: 2
#     Edge 21, Type (0, 0), BuildingBlock: KIFKEQ_clean_linker_1, # of connection points: 2
#     Edge 22, Type (0, 0), BuildingBlock: KIFKEQ_clean_linker_1, # of connection points: 2
#     Edge 23, Type (0, 0), BuildingBlock: KIFKEQ_clean_linker_1, # of connection points: 2
#     Edge 24, Type (0, 0), BuildingBlock: KIFKEQ_clean_linker_1, # of connection points: 2
#     Edge 25, Type (0, 0), BuildingBlock: KIFKEQ_clean_linker_1, # of connection points: 2
#     Edge 26, Type (0, 0), BuildingBlock: KIFKEQ_clean_linker_1, # of connection points: 2
#     Edge 27, Type (0, 0), BuildingBlock: KIFKEQ_clean_linker_1, # of connection points: 2
#     Edge 28, Type (0, 0), BuildingBlock: KIFKEQ_clean_linker_1, # of connection points: 2
#     Edge 29, Type (0, 0), BuildingBlock: KIFKEQ_clean_linker_1, # of connection points: 2
#     Edge 30, Type (0, 0), BuildingBlock: KIFKEQ_clean_linker_1, # of connection points: 2
#     Edge 31, Type (0, 0), BuildingBlock: KIFKEQ_clean_linker_1, # of connection points: 2
#     Edge 32, Type (0, 0), BuildingBlock: KIFKEQ_clean_linker_1, # of connection points: 2
#     Edge 33, Type (0, 0), BuildingBlock: KIFKEQ_clean_linker_1, # of connection points: 2
#     Edge 34, Type (0, 0), BuildingBlock: KIFKEQ_clean_linker_1, # of connection points: 2
#     Edge 35, Type (0, 0), BuildingBlock: KIFKEQ_clean_linker_1, # of connection points: 2
# Relax obj value: 0.117
# Max RMSD: 0.082
# Mean RMSD: 0.082
data_MOF--net-umy--node1-CEKHIL_clean_sbu_0--edge1-KIFKEQ_clean_linker_1
_symmetry_space_group_name_H-M    P1
_symmetry_Int_Tables_number       1
_symmetry_cell_setting            triclinic
loop_
_symmetry_equiv_pos_as_xyz
'x, y, z'
_cell_length_a     38.081506
_cell_length_b     38.077086
_cell_length_c     52.30437
_cell_angle_alpha  89.993617
_cell_angle_beta   90.026222
_cell_angle_gamma 119.92805
loop_
_atom_site_label
_atom_site_type_symbol
_atom_site_fract_x
_atom_site_fract_y
_atom_site_fract_z
_atom_type_partial_charge
Co0 Co 0.05969 0.35106 0.133 0.0
O1 O 0.04082 0.37577 0.10848 0.0
O2 O 0.0946 0.40963 0.13312 0.0
C3 C 0.99825 0.309 0.15075 0.0
O4 O 0.08697 0.33638 0.16149 0.0
Co5 Co 0.02932 0.25859 0.13059 0.0
O6 O 0.05653 0.26844 0.16428 0.0
C7 C 0.09227 0.31373 0.09435 0.0
C8 C 0.07039 0.41054 0.11589 0.0
C9 C 0.08157 0.30378 0.17257 0.0
O10 O 0.09482 0.3448 0.10606 0.0
O11 O 0.06569 0.27721 0.09995 0.0
O12 O 0.01892 0.3467 0.15776 0.0
O13 O 0.01334 0.29932 0.13175 0.0
Co14 Co 0.71524 0.0573 0.30089 0.0
O15 O 0.67297 0.04095 0.2755 0.0
O16 O 0.69222 0.09257 0.30206 0.0
C17 C 0.69506 0.99481 0.31729 0.0
O18 O 0.75597 0.08252 0.33014 0.0
Co19 Co 0.77738 0.02689 0.29808 0.0
O20 O 0.79464 0.05322 0.332 0.0
C21 C 0.78596 0.09138 0.26296 0.0
C22 C 0.66808 0.07036 0.28386 0.0
C23 C 0.78357 0.07737 0.34086 0.0
O24 O 0.75775 0.09398 0.27501 0.0
O25 O 0.79532 0.06412 0.26786 0.0
O26 O 0.67747 0.01497 0.32433 0.0
O27 O 0.72066 0.0109 0.29878 0.0
Co28 Co 0.65931 0.70898 0.4683 0.0
O29 O 0.63405 0.66667 0.44292 0.0
O30 O 0.60084 0.68378 0.47025 0.0
C31 C 0.70408 0.6914 0.48384 0.0
O32 O 0.67452 0.74947 0.49764 0.0
Co33 Co 0.75064 0.77393 0.46331 0.0
O34 O 0.74211 0.79116 0.49748 0.0
C35 C 0.69142 0.77767 0.42913 0.0
C36 C 0.5995 0.66032 0.45175 0.0
C37 C 0.70728 0.77841 0.50749 0.0
O38 O 0.66223 0.75076 0.44285 0.0
O39 O 0.72855 0.78766 0.43242 0.0
O40 O 0.66655 0.67231 0.49127 0.0
O41 O 0.71189 0.71666 0.46529 0.0
Co42 Co 0.95643 0.65804 0.63364 0.0
O43 O 0.97285 0.63217 0.60832 0.0
O44 O 0.92213 0.59968 0.63545 0.0
C45 C 0.01912 0.70144 0.64915 0.0
O46 O 0.93152 0.67377 0.6629 0.0
Co47 Co 0.98491 0.74989 0.62997 0.0
O48 O 0.96264 0.74176 0.66523 0.0
C49 C 0.92104 0.69248 0.59524 0.0
C50 C 0.94417 0.59786 0.61707 0.0
C51 C 0.93836 0.70667 0.6742 0.0
O52 O 0.91857 0.66241 0.6081 0.0
O53 O 0.94818 0.72939 0.59934 0.0
O54 O 0.99956 0.66401 0.65681 0.0
O55 O 1.00218 0.71001 0.63065 0.0
Co56 Co 0.30168 0.95414 0.79859 0.0
O57 O 0.34508 0.97401 0.77388 0.0
O58 O 0.32632 0.92016 0.79831 0.0
C59 C 0.31946 0.01497 0.81681 0.0
O60 O 0.26025 0.92566 0.82709 0.0
Co61 Co 0.23744 0.98197 0.79667 0.0
O62 O 0.21949 0.95259 0.82962 0.0
C63 C 0.23202 0.9209 0.75976 0.0
C64 C 0.35092 0.94466 0.78105 0.0
C65 C 0.23148 0.9288 0.83784 0.0
O66 O 0.26056 0.91863 0.77164 0.0
O67 O 0.22134 0.94694 0.76545 0.0
O68 O 0.33781 0.99529 0.8233 0.0
O69 O 0.29451 0.99953 0.79793 0.0
Co70 Co 0.35657 0.30153 0.96741 0.0
O71 O 0.38072 0.34502 0.94289 0.0
O72 O 0.41531 0.32681 0.96824 0.0
C73 C 0.31228 0.31868 0.9844 0.0
O74 O 0.34216 0.25975 0.99585 0.0
Co75 Co 0.26511 0.23713 0.96282 0.0
O76 O 0.27443 0.2189 0.99644 0.0
C77 C 0.32335 0.23347 0.92764 0.0
C78 C 0.41571 0.35122 0.95067 0.0
C79 C 0.30955 0.23084 0.00583 0.0
O80 O 0.35297 0.26085 0.94086 0.0
O81 O 0.28623 0.22298 0.93164 0.0
O82 O 0.34987 0.33694 0.99179 0.0
O83 O 0.30408 0.29428 0.96532 0.0
Co84 Co 0.663 0.9548 0.70533 0.0
O85 O 0.6388 0.97483 0.72938 0.0
O86 O 0.60458 0.91927 0.70627 0.0
C87 C 0.70345 0.01493 0.68571 0.0
O88 O 0.67704 0.92598 0.67759 0.0
Co89 Co 0.75557 0.98628 0.70689 0.0
O90 O 0.7449 0.95577 0.67441 0.0
C91 C 0.70225 0.92484 0.74444 0.0
C92 C 0.60396 0.94449 0.72281 0.0
C93 C 0.70933 0.9303 0.6667 0.0
O94 O 0.67075 0.92179 0.73306 0.0
O95 O 0.73853 0.95118 0.73816 0.0
O96 O 0.6655 0.99316 0.67948 0.0
O97 O 0.71452 1.00188 0.70516 0.0
Co98 Co 0.716 0.66138 0.87128 0.0
O99 O 0.67292 0.63739 0.89608 0.0
O100 O 0.6907 0.60265 0.87057 0.0
C101 C 0.69855 0.70559 0.85455 0.0
O102 O 0.75729 0.67551 0.84256 0.0
Co103 Co 0.78068 0.75288 0.8748 0.0
O104 O 0.79474 0.74345 0.83983 0.0
C105 C 0.78499 0.69508 0.91029 0.0
C106 C 0.66658 0.60234 0.88831 0.0
C107 C 0.78374 0.70811 0.83117 0.0
O108 O 0.75704 0.66519 0.89755 0.0
O109 O 0.79583 0.73219 0.90582 0.0
O110 O 0.68016 0.66798 0.8472 0.0
O111 O 0.72344 0.71392 0.87337 0.0
Co112 Co 0.06208 0.71321 0.0392 0.0
O113 O 0.04363 0.67124 0.06487 0.0
O114 O 0.09538 0.68778 0.03896 0.0
C115 C 1.00013 0.69511 0.02264 0.0
O116 O 0.08874 0.75291 0.00948 0.0
Co117 Co 0.03523 0.77834 0.04067 0.0
O118 O 0.06038 0.79235 0.00638 0.0
C119 C 0.10246 0.78833 0.07381 0.0
C120 C 0.07199 0.66435 0.05704 0.0
C121 C 0.08408 0.78035 0.99806 0.0
O122 O 0.10015 0.75575 0.06466 0.0
O123 O 0.07818 0.80099 0.06761 0.0
O124 O 0.01895 0.67599 0.01597 0.0
O125 O 0.01711 0.72112 0.04085 0.0
Co126 Co 0.35885 0.05942 0.20459 0.0
O127 O 0.38478 0.04255 0.22961 0.0
O128 O 0.41699 0.09589 0.20433 0.0
C129 C 0.31888 0.99768 0.1867 0.0
O130 O 0.34309 0.0853 0.17584 0.0
Co131 Co 0.26603 0.02628 0.20657 0.0
O132 O 0.27512 0.05428 0.17322 0.0
C133 C 0.31944 0.09045 0.24273 0.0
C134 C 0.41893 0.07284 0.22197 0.0
C135 C 0.3103 0.07964 0.16492 0.0
O136 O 0.35096 0.09386 0.23119 0.0
O137 O 0.28325 0.06301 0.2371 0.0
O138 O 0.35662 0.01956 0.18007 0.0
O139 O 0.30785 0.01166 0.20569 0.0
Co140 Co 0.30207 0.35044 0.3712 0.0
O141 O 0.34503 0.37567 0.39618 0.0
O142 O 0.32576 0.40885 0.37029 0.0
C143 C 0.3213 0.30771 0.35422 0.0
O144 O 0.26066 0.3356 0.3424 0.0
Co145 Co 0.23948 0.25823 0.37395 0.0
O146 O 0.2208 0.26781 0.34065 0.0
C147 C 0.23248 0.31424 0.40989 0.0
C148 C 0.35015 0.4102 0.38818 0.0
C149 C 0.23226 0.30318 0.33191 0.0
O150 O 0.26049 0.34498 0.39772 0.0
O151 O 0.22269 0.2776 0.40471 0.0
O152 O 0.33871 0.34536 0.34702 0.0
O153 O 0.29632 0.29849 0.37305 0.0
Co154 Co 0.95825 0.30059 0.5382 0.0
O155 O 0.97451 0.34268 0.56368 0.0
O156 O 0.92351 0.32424 0.5367 0.0
C157 C 0.02101 0.32054 0.52241 0.0
O158 O 0.93316 0.2601 0.50879 0.0
Co159 Co 0.9881 0.23797 0.54082 0.0
O160 O 0.96188 0.22089 0.50692 0.0
C161 C 0.91903 0.22586 0.57298 0.0
C162 C 0.94554 0.34807 0.55507 0.0
C163 C 0.93787 0.23219 0.49814 0.0
O164 O 0.92058 0.25797 0.56364 0.0
O165 O 0.94416 0.21409 0.56717 0.0
O166 O 1.00099 0.3381 0.51501 0.0
O167 O 1.00452 0.29485 0.54086 0.0
H168 H 0.01708 0.60172 0.08623 0.0
H169 H 0.13403 0.64796 0.05029 0.0
H170 H 0.01931 0.54172 0.10013 0.0
H171 H 0.13644 0.58778 0.06468 0.0
H172 H 0.13401 0.4884 0.12189 0.0
H173 H 0.13718 0.55158 0.10797 0.0
H174 H 0.01776 0.48247 0.07511 0.0
H175 H 0.01475 0.41974 0.08852 0.0
C176 C 0.0435 0.59933 0.08152 0.0
C177 C 0.07534 0.62962 0.06707 0.0
C178 C 0.04465 0.56481 0.08939 0.0
C179 C 0.07793 0.55994 0.08336 0.0
C180 C 0.11047 0.5908 0.06966 0.0
C181 C 0.10901 0.62515 0.06137 0.0
C182 C 0.10863 0.48676 0.1115 0.0
C183 C 0.07412 0.44902 0.10635 0.0
C184 C 0.1105 0.52289 0.1035 0.0
C185 C 0.07758 0.52195 0.09064 0.0
C186 C 0.04341 0.48419 0.08522 0.0
C187 C 0.04182 0.44822 0.0928 0.0
H188 H 0.62918 0.0464 0.23788 0.0
H189 H 0.63183 0.10766 0.30793 0.0
H190 H 0.57137 0.05239 0.22297 0.0
H191 H 0.57318 0.11247 0.29326 0.0
H192 H 0.43309 0.0476 0.26762 0.0
H193 H 0.49623 0.05211 0.28246 0.0
H194 H 0.5557 0.11393 0.21287 0.0
H195 H 0.49281 0.11059 0.19829 0.0
C196 C 0.61758 0.06136 0.25 0.0
C197 C 0.63506 0.0766 0.27406 0.0
C198 C 0.58463 0.0649 0.24143 0.0
C199 C 0.56787 0.08287 0.25699 0.0
C200 C 0.58555 0.09847 0.28093 0.0
C201 C 0.61916 0.09584 0.28924 0.0
C202 C 0.45979 0.06269 0.25566 0.0
C203 C 0.45805 0.07883 0.23183 0.0
C204 C 0.4959 0.06534 0.26418 0.0
C205 C 0.53075 0.08331 0.24878 0.0
C206 C 0.52921 0.09989 0.22507 0.0
C207 C 0.49333 0.09814 0.21682 0.0
H208 H 0.5854 0.62271 0.40541 0.0
H209 H 0.52616 0.62148 0.47603 0.0
H210 H 0.52252 0.56434 0.39014 0.0
H211 H 0.46357 0.56228 0.46097 0.0
H212 H 0.38943 0.42349 0.43385 0.0
H213 H 0.44757 0.48646 0.44922 0.0
H214 H 0.44579 0.54714 0.38 0.0
H215 H 0.3868 0.48442 0.36487 0.0
C216 C 0.55889 0.6101 0.4176 0.0
C217 C 0.5607 0.62669 0.44191 0.0
C218 C 0.52291 0.57682 0.40882 0.0
C219 C 0.48825 0.55882 0.4244 0.0
C220 C 0.4899 0.57556 0.44862 0.0
C221 C 0.52563 0.6095 0.45717 0.0
C222 C 0.40113 0.45039 0.42205 0.0
C223 C 0.38352 0.44903 0.39817 0.0
C224 C 0.43429 0.48642 0.43089 0.0
C225 C 0.45115 0.5216 0.41578 0.0
C226 C 0.43338 0.5204 0.39199 0.0
C227 C 0.39957 0.48459 0.38341 0.0
H228 H 0.9086 0.52454 0.64145 0.0
H229 H 0.96788 0.58322 0.571 0.0
H230 H 0.90506 0.46164 0.6268 0.0
H231 H 0.96327 0.52007 0.55614 0.0
H232 H 0.90866 0.38486 0.53104 0.0
H233 H 0.90439 0.44377 0.54579 0.0
H234 H 0.96449 0.44498 0.61598 0.0
H235 H 0.96981 0.38686 0.60102 0.0
C236 C 0.92027 0.52382 0.6227 0.0
C237 C 0.93856 0.55881 0.60738 0.0
C238 C 0.9184 0.48791 0.61439 0.0
C239 C 0.93386 0.48604 0.59034 0.0
C240 C 0.95089 0.52062 0.57468 0.0
C241 C 0.95363 0.55676 0.58323 0.0
C242 C 0.92059 0.39746 0.54972 0.0
C243 C 0.93961 0.38128 0.56487 0.0
C244 C 0.91829 0.43123 0.55808 0.0
C245 C 0.93406 0.44884 0.58202 0.0
C246 C 0.95184 0.43181 0.59753 0.0
C247 C 0.955 0.39867 0.58892 0.0
H248 H 0.59522 1.00069 0.74984 0.0
H249 H 0.52601 0.88086 0.7173 0.0
H250 H 0.53274 0.99816 0.76316 0.0
H251 H 0.46306 0.87825 0.73104 0.0
H252 H 0.36638 0.88196 0.78744 0.0
H253 H 0.42643 0.87919 0.77333 0.0
H254 H 0.47414 0.99721 0.73877 0.0
H255 H 0.41435 0.99988 0.75251 0.0
C256 C 0.56667 0.9736 0.74571 0.0
C257 C 0.56564 0.941 0.73243 0.0
C258 C 0.53083 0.9723 0.75323 0.0
C259 C 0.49298 0.93816 0.74797 0.0
C260 C 0.49182 0.90493 0.7354 0.0
C261 C 0.52782 0.90647 0.72749 0.0
C262 C 0.38955 0.90712 0.77663 0.0
C263 C 0.38562 0.94119 0.77116 0.0
C264 C 0.42382 0.90545 0.76849 0.0
C265 C 0.45512 0.93812 0.75512 0.0
C266 C 0.45075 0.97178 0.74929 0.0
C267 C 0.41635 0.97318 0.75705 0.0
H268 H 0.4235 0.41444 0.92219 0.0
H269 H 0.49408 0.36679 0.95682 0.0
H270 H 0.48548 0.47369 0.90759 0.0
H271 H 0.55655 0.42638 0.9417 0.0
H272 H 0.6509 0.52397 0.88208 0.0
H273 H 0.59146 0.46151 0.89734 0.0
H274 H 0.54466 0.53265 0.93195 0.0
H275 H 0.60379 0.59464 0.91721 0.0
C276 C 0.45225 0.41641 0.92652 0.0
C277 C 0.45382 0.3859 0.94076 0.0
C278 C 0.48778 0.4505 0.91823 0.0
C279 C 0.52585 0.45476 0.92362 0.0
C280 C 0.52758 0.42378 0.93722 0.0
C281 C 0.49188 0.38981 0.94593 0.0
C282 C 0.62804 0.5262 0.89312 0.0
C283 C 0.63204 0.56427 0.89837 0.0
C284 C 0.59415 0.4905 0.90191 0.0
C285 C 0.56334 0.49225 0.91569 0.0
C286 C 0.56772 0.53034 0.92118 0.0
C287 C 0.60174 0.56587 0.91281 0.0
H288 H 0.08964 0.25708 0.06128 0.0
H289 H 0.16509 0.38246 0.08322 0.0
H290 H 0.14267 0.26203 0.03349 0.0
H291 H 0.21835 0.38774 0.05453 0.0
H292 H 0.31999 0.36077 0.02851 0.0
H293 H 0.26652 0.36363 0.0526 0.0
H294 H 0.17936 0.28969 0.99505 0.0
H295 H 0.23256 0.28594 0.97146 0.0
C296 C 0.11735 0.28602 0.0599 0.0
C297 C 0.12302 0.31931 0.07473 0.0
C298 C 0.14783 0.28893 0.04371 0.0
C299 C 0.18502 0.32526 0.04171 0.0
C300 C 0.1903 0.35911 0.05583 0.0
C301 C 0.1596 0.35621 0.0721 0.0
C302 C 0.28943 0.34534 0.02095 0.0
C303 C 0.28046 0.3228 0.99819 0.0
C304 C 0.25878 0.34723 0.03467 0.0
C305 C 0.21844 0.32671 0.02591 0.0
C306 C 0.20988 0.30529 0.00267 0.0
C307 C 0.24044 0.30325 0.98905 0.0
H308 H 0.83872 0.08852 0.22899 0.0
H309 H 0.79114 0.16516 0.25318 0.0
H310 H 0.88603 0.14145 0.20089 0.0
H311 H 0.83845 0.21843 0.22421 0.0
H312 H 0.96706 0.31839 0.19586 0.0
H313 H 0.91135 0.26586 0.2209 0.0
H314 H 0.89223 0.17777 0.16252 0.0
H315 H 0.94841 0.22988 0.13799 0.0
C316 C 0.83789 0.11652 0.22808 0.0
C317 C 0.81109 0.1225 0.24356 0.0
C318 C 0.86499 0.14692 0.21172 0.0
C319 C 0.8662 0.18436 0.21019 0.0
C320 C 0.83865 0.19011 0.2251 0.0
C321 C 0.81127 0.15945 0.24153 0.0
C322 C 0.95071 0.28784 0.18833 0.0
C323 C 0.96244 0.2782 0.16508 0.0
C324 C 0.91857 0.25776 0.20259 0.0
C325 C 0.89741 0.2174 0.19387 0.0
C326 C 0.90828 0.20829 0.1701 0.0
C327 C 0.94044 0.23824 0.15596 0.0
H328 H 0.71915 0.79529 0.38036 0.0
H329 H 0.64639 0.81453 0.43547 0.0
H330 H 0.71441 0.8424 0.35108 0.0
H331 H 0.64425 0.86446 0.40735 0.0
H332 H 0.63191 0.94362 0.34801 0.0
H333 H 0.6245 0.88553 0.3722 0.0
H334 H 0.74148 0.90945 0.3444 0.0
H335 H 0.74684 0.9649 0.31891 0.0
C336 C 0.7019 0.80958 0.38608 0.0
C337 C 0.68302 0.80123 0.41008 0.0
C338 C 0.69966 0.8372 0.36948 0.0
C339 C 0.67977 0.85849 0.37683 0.0
C340 C 0.65951 0.84871 0.40061 0.0
C341 C 0.66073 0.82005 0.41688 0.0
C342 C 0.65573 0.93599 0.34693 0.0
C343 C 0.68994 0.95886 0.33153 0.0
C344 C 0.65172 0.9028 0.361 0.0
C345 C 0.68235 0.89223 0.36054 0.0
C346 C 0.71653 0.91541 0.34497 0.0
C347 C 0.71996 0.94779 0.33043 0.0
H348 H 0.69585 0.62772 0.51241 0.0
H349 H 0.78469 0.74717 0.48672 0.0
H350 H 0.74802 0.62258 0.53631 0.0
H351 H 0.8362 0.74397 0.51214 0.0
H352 H 0.93159 0.72602 0.54798 0.0
H353 H 0.87974 0.72115 0.51867 0.0
H354 H 0.78705 0.64128 0.57192 0.0
H355 H 0.83932 0.64375 0.59991 0.0
C356 C 0.72659 0.65303 0.51205 0.0
C357 C 0.73615 0.68782 0.49768 0.0
C358 C 0.75662 0.65033 0.52599 0.0
C359 C 0.79687 0.68289 0.52653 0.0
C360 C 0.80614 0.71766 0.51194 0.0
C361 C 0.77637 0.7198 0.49744 0.0
C362 C 0.90002 0.70676 0.55304 0.0
C363 C 0.88943 0.68517 0.57613 0.0
C364 C 0.87009 0.70436 0.53641 0.0
C365 C 0.82866 0.68146 0.54287 0.0
C366 C 0.81827 0.65884 0.56579 0.0
C367 C 0.84828 0.66028 0.58202 0.0
H368 H 0.0665 0.78091 0.63586 0.0
H369 H 0.05389 0.69361 0.69305 0.0
H370 H 0.12343 0.83412 0.65942 0.0
H371 H 0.11016 0.74707 0.71711 0.0
H372 H 0.22917 0.84864 0.74852 0.0
H373 H 0.18223 0.7955 0.71938 0.0
H374 H 0.13162 0.87063 0.69786 0.0
H375 H 0.17868 0.92355 0.72611 0.0
C376 C 0.07598 0.77305 0.65345 0.0
C377 C 0.05546 0.73309 0.66267 0.0
C378 C 0.10855 0.80362 0.66705 0.0
C379 C 0.12131 0.7951 0.69036 0.0
C380 C 0.10156 0.75477 0.69913 0.0
C381 C 0.06906 0.72412 0.68543 0.0
C382 C 0.20852 0.85404 0.73719 0.0
C383 C 0.20768 0.89039 0.73984 0.0
C384 C 0.18133 0.82342 0.72065 0.0
C385 C 0.15288 0.82857 0.70629 0.0
C386 C 0.1533 0.86559 0.70827 0.0
C387 C 0.18026 0.89599 0.72472 0.0
H388 H 0.26581 0.04238 0.81989 0.0
H389 H 0.38313 0.06744 0.84679 0.0
H390 H 0.27095 0.09797 0.84514 0.0
H391 H 0.39023 0.12566 0.8707 0.0
H392 H 0.37026 0.19862 0.93342 0.0
H393 H 0.37192 0.14792 0.90585 0.0
H394 H 0.29693 0.16507 0.85071 0.0
H395 H 0.29274 0.21297 0.87954 0.0
C396 C 0.29313 0.06032 0.8309 0.0
C397 C 0.32397 0.05037 0.83141 0.0
C398 C 0.29642 0.09279 0.84528 0.0
C399 C 0.33126 0.11718 0.86007 0.0
C400 C 0.36254 0.10751 0.86008 0.0
C401 C 0.35869 0.07422 0.84619 0.0
C402 C 0.35475 0.19188 0.91518 0.0
C403 C 0.33131 0.20957 0.90861 0.0
C404 C 0.35568 0.16275 0.89922 0.0
C405 C 0.33395 0.15134 0.87596 0.0
C406 C 0.31285 0.17151 0.86876 0.0
C407 C 0.31092 0.1996 0.88508 0.0
H408 H 0.73246 0.78554 0.86712 0.0
H409 H 0.65535 0.69777 0.81091 0.0
H410 H 0.72884 0.83886 0.84356 0.0
H411 H 0.65253 0.75134 0.78688 0.0
H412 H 0.63361 0.85294 0.75691 0.0
H413 H 0.62888 0.80002 0.78567 0.0
H414 H 0.7556 0.87487 0.80458 0.0
H415 H 0.76008 0.92766 0.77662 0.0
C416 C 0.71465 0.77761 0.84973 0.0
C417 C 0.69442 0.73745 0.84081 0.0
C418 C 0.7127 0.80824 0.83614 0.0
C419 C 0.69062 0.79959 0.81316 0.0
C420 C 0.66945 0.75913 0.80462 0.0
C421 C 0.6713 0.72843 0.8183 0.0
C422 C 0.66024 0.85836 0.76758 0.0
C423 C 0.69726 0.89461 0.76429 0.0
C424 C 0.65764 0.82784 0.78389 0.0
C425 C 0.69191 0.83297 0.79739 0.0
C426 C 0.72841 0.86988 0.79481 0.0
C427 C 0.73103 0.9002 0.77855 0.0
H428 H 0.81858 0.64693 0.90535 0.0
H429 H 0.80602 0.7269 0.95806 0.0
H430 H 0.86815 0.6443 0.93352 0.0
H431 H 0.85267 0.72174 0.98753 0.0
H432 H 0.97389 0.74976 0.01955 0.0
H433 H 0.91919 0.74583 0.99394 0.0
H434 H 0.88889 0.62548 0.96904 0.0
H435 H 0.94636 0.6314 0.99323 0.0
C436 C 0.82551 0.66285 0.92346 0.0
C437 C 0.80866 0.68721 0.92953 0.0
C438 C 0.85395 0.66132 0.93977 0.0
C439 C 0.86543 0.68334 0.96292 0.0
C440 C 0.84616 0.70551 0.96959 0.0
C441 C 0.8188 0.70804 0.95289 0.0
C442 C 0.95556 0.72247 0.00861 0.0
C443 C 0.96467 0.69102 0.00831 0.0
C444 C 0.92359 0.71988 0.99402 0.0
C445 C 0.89882 0.68516 0.97924 0.0
C446 C 0.90743 0.65315 0.97959 0.0
C447 C 0.94026 0.6563 0.99367 0.0
H448 H 0.3285 0.97786 0.13814 0.0
H449 H 0.24278 0.93824 0.20046 0.0
H450 H 0.27799 0.92338 0.11131 0.0
H451 H 0.19261 0.88292 0.17365 0.0
H452 H 0.13387 0.76818 0.11522 0.0
H453 H 0.18831 0.81568 0.1441 0.0
H454 H 0.20295 0.91615 0.09811 0.0
H455 H 0.14823 0.86944 0.07009 0.0
C456 C 0.29916 0.95708 0.14627 0.0
C457 C 0.28952 0.96243 0.17137 0.0
C458 C 0.27034 0.92592 0.13091 0.0
C459 C 0.23163 0.8989 0.14053 0.0
C460 C 0.22244 0.90312 0.16594 0.0
C461 C 0.25102 0.93488 0.18116 0.0
C462 C 0.14898 0.8004 0.11132 0.0
C463 C 0.13679 0.81523 0.09056 0.0
C464 C 0.17986 0.82746 0.12781 0.0
C465 C 0.19971 0.86946 0.12319 0.0
C466 C 0.18823 0.88394 0.102 0.0
C467 C 0.15685 0.85721 0.08606 0.0
H468 H 0.26168 0.08733 0.27506 0.0
H469 H 0.3875 0.16345 0.25435 0.0
H470 H 0.26592 0.13986 0.30312 0.0
H471 H 0.39197 0.21619 0.2832 0.0
H472 H 0.36388 0.3169 0.31006 0.0
H473 H 0.36722 0.26417 0.28533 0.0
H474 H 0.29357 0.17548 0.34219 0.0
H475 H 0.28944 0.2279 0.36645 0.0
C476 C 0.29053 0.11509 0.27674 0.0
C477 C 0.32421 0.12107 0.26223 0.0
C478 C 0.29302 0.14526 0.29306 0.0
C479 C 0.32927 0.18244 0.29548 0.0
C480 C 0.36341 0.18811 0.28159 0.0
C481 C 0.36095 0.15772 0.26521 0.0
C482 C 0.34866 0.28618 0.31734 0.0
C483 C 0.32608 0.27653 0.3401 0.0
C484 C 0.3508 0.25596 0.30325 0.0
C485 C 0.33045 0.2154 0.31163 0.0
C486 C 0.30903 0.20618 0.33487 0.0
C487 C 0.30679 0.23631 0.34887 0.0
H488 H 0.17976 0.25849 0.44382 0.0
H489 H 0.22868 0.38329 0.42075 0.0
H490 H 0.13305 0.26436 0.47239 0.0
H491 H 0.18208 0.38952 0.45021 0.0
H492 H 0.05421 0.36267 0.47816 0.0
H493 H 0.10996 0.36554 0.45341 0.0
H494 H 0.12592 0.2932 0.51092 0.0
H495 H 0.0695 0.28939 0.53517 0.0
C496 C 0.18104 0.2875 0.44509 0.0
C497 C 0.20796 0.32035 0.42973 0.0
C498 C 0.15429 0.29095 0.46174 0.0
C499 C 0.15358 0.3274 0.46368 0.0
C500 C 0.18142 0.36081 0.44899 0.0
C501 C 0.20841 0.35737 0.43226 0.0
C502 C 0.06988 0.34768 0.4856 0.0
C503 C 0.05715 0.32545 0.5085 0.0
C504 C 0.10207 0.34955 0.47149 0.0
C505 C 0.12238 0.32935 0.48001 0.0
C506 C 0.11056 0.30849 0.50348 0.0
C507 C 0.07828 0.30644 0.51748 0.0
H508 H 0.88927 0.24441 0.61576 0.0
H509 H 0.87163 0.14529 0.5672 0.0
H510 H 0.83495 0.19596 0.64426 0.0
H511 H 0.81692 0.09756 0.59488 0.0
H512 H 0.6936 0.03348 0.63682 0.0
H513 H 0.74372 0.08791 0.60977 0.0
H514 H 0.82929 0.12982 0.6721 0.0
H515 H 0.77953 0.07466 0.69909 0.0
C516 C 0.87339 0.21245 0.61104 0.0
C517 C 0.8846 0.19845 0.58942 0.0
C518 C 0.84257 0.18483 0.62731 0.0
C519 C 0.82181 0.14312 0.62166 0.0
C520 C 0.83229 0.12953 0.59958 0.0
C521 C 0.86365 0.15681 0.58383 0.0
C522 C 0.72294 0.05451 0.64485 0.0
C523 C 0.73272 0.04969 0.67003 0.0
C524 C 0.75155 0.08563 0.62937 0.0
C525 C 0.7902 0.1131 0.63894 0.0
C526 C 0.79953 0.10926 0.66439 0.0
C527 C 0.77119 0.07758 0.67973 0.0
H528 H 0.15788 0.24705 0.3144 0.0
H529 H 0.25761 0.36675 0.29801 0.0
H530 H 0.12258 0.25018 0.27673 0.0
H531 H 0.22257 0.36934 0.25934 0.0
H532 H 0.12783 0.37031 0.20317 0.0
H533 H 0.16485 0.37272 0.24209 0.0
H534 H 0.12796 0.2463 0.23206 0.0
H535 H 0.09035 0.24356 0.19415 0.0
C536 C 0.1725 0.27399 0.3026 0.0
C537 C 0.21086 0.30645 0.3091 0.0
C538 C 0.15226 0.27573 0.28084 0.0
C539 C 0.16995 0.30971 0.26464 0.0
C540 C 0.20793 0.34275 0.27142 0.0
C541 C 0.22812 0.3412 0.29351 0.0
C542 C 0.1277 0.3431 0.20934 0.0
C543 C 0.10567 0.30664 0.19565 0.0
C544 C 0.14907 0.34451 0.23158 0.0
C545 C 0.14899 0.30955 0.24048 0.0
C546 C 0.12787 0.27356 0.22628 0.0
C547 C 0.10639 0.27207 0.20434 0.0
H548 H 0.91903 0.15722 0.48171 0.0
H549 H 0.89987 0.25713 0.4637 0.0
H550 H 0.87954 0.12055 0.44474 0.0
H551 H 0.86119 0.22067 0.42563 0.0
H552 H 0.76391 0.12441 0.37118 0.0
H553 H 0.79939 0.16253 0.40957 0.0
H554 H 0.88768 0.12381 0.40007 0.0
H555 H 0.85194 0.08508 0.36273 0.0
C556 C 0.90674 0.17162 0.46965 0.0
C557 C 0.91314 0.2104 0.47548 0.0
C558 C 0.88413 0.15057 0.44832 0.0
C559 C 0.86771 0.16786 0.43185 0.0
C560 C 0.87324 0.20635 0.43794 0.0
C561 C 0.89559 0.22734 0.45965 0.0
C562 C 0.79083 0.12401 0.3774 0.0
C563 C 0.80473 0.10125 0.36399 0.0
C564 C 0.81131 0.14606 0.39931 0.0
C565 C 0.84618 0.14592 0.40814 0.0
C566 C 0.86038 0.12385 0.39431 0.0
C567 C 0.83987 0.10169 0.37271 0.0
H568 H 0.76608 0.91285 0.64919 0.0
H569 H 0.64459 0.88899 0.63406 0.0
H570 H 0.76286 0.8736 0.6119 0.0
H571 H 0.64183 0.8505 0.59582 0.0
H572 H 0.64204 0.7559 0.53969 0.0
H573 H 0.64005 0.78995 0.57894 0.0
H574 H 0.76499 0.88203 0.5671 0.0
H575 H 0.76738 0.84777 0.52879 0.0
C576 C 0.73868 0.8994 0.63778 0.0
C577 C 0.70577 0.90451 0.64446 0.0
C578 C 0.73689 0.87697 0.61626 0.0
C579 C 0.70236 0.85942 0.6005 0.0
C580 C 0.66884 0.86344 0.60756 0.0
C581 C 0.67047 0.88564 0.62941 0.0
C582 C 0.66906 0.78337 0.54555 0.0
C583 C 0.70497 0.7988 0.53115 0.0
C584 C 0.66785 0.80301 0.56798 0.0
C585 C 0.70249 0.83854 0.5764 0.0
C586 C 0.73801 0.85421 0.56165 0.0
C587 C 0.7393 0.83457 0.53948 0.0
H588 H 0.86848 0.64184 0.69267 0.0
H589 H 0.95787 0.7659 0.7098 0.0
H590 H 0.82942 0.64024 0.73017 0.0
H591 H 0.91992 0.7639 0.74757 0.0
H592 H 0.82394 0.76683 0.79546 0.0
H593 H 0.85996 0.76419 0.75795 0.0
H594 H 0.82613 0.64047 0.77594 0.0
H595 H 0.7886 0.64273 0.81324 0.0
C596 C 0.88007 0.66858 0.70462 0.0
C597 C 0.91609 0.70414 0.69806 0.0
C598 C 0.85774 0.66763 0.72618 0.0
C599 C 0.87112 0.70212 0.74179 0.0
C600 C 0.90796 0.7371 0.73566 0.0
C601 C 0.92996 0.73818 0.71404 0.0
C602 C 0.82402 0.73896 0.79143 0.0
C603 C 0.80361 0.70509 0.80752 0.0
C604 C 0.845 0.73753 0.76995 0.0
C605 C 0.84667 0.70235 0.76405 0.0
C606 C 0.82538 0.66803 0.77977 0.0
C607 C 0.80393 0.66934 0.80122 0.0
H608 H 0.25688 0.88881 0.87043 0.0
H609 H 0.15768 0.91079 0.85622 0.0
H610 H 0.22258 0.85091 0.90923 0.0
H611 H 0.12335 0.8724 0.89403 0.0
H612 H 0.12619 0.75611 0.96633 0.0
H613 H 0.16274 0.78952 0.92692 0.0
H614 H 0.13361 0.88437 0.93887 0.0
H615 H 0.09674 0.85101 0.97721 0.0
C616 C 0.22767 0.88524 0.87541 0.0
C617 C 0.21038 0.90345 0.86045 0.0
C618 C 0.20795 0.86339 0.89755 0.0
C619 C 0.17053 0.85921 0.905 0.0
C620 C 0.15265 0.87596 0.88933 0.0
C621 C 0.17236 0.89794 0.86752 0.0
C622 C 0.12769 0.7841 0.96045 0.0
C623 C 0.10793 0.80046 0.97474 0.0
C624 C 0.14875 0.80331 0.93797 0.0
C625 C 0.15051 0.83927 0.92948 0.0
C626 C 0.13192 0.85613 0.94436 0.0
C627 C 0.11081 0.83696 0.9665 0.0
H628 H 0.25117 0.09226 0.14559 0.0
H629 H 0.37525 0.12266 0.1327 0.0
H630 H 0.25356 0.13045 0.10797 0.0
H631 H 0.37722 0.16008 0.09412 0.0
H632 H 0.37433 0.25404 0.03852 0.0
H633 H 0.37667 0.21923 0.07731 0.0
H634 H 0.25372 0.12395 0.06321 0.0
H635 H 0.25094 0.15902 0.02537 0.0
C636 C 0.27895 0.10683 0.13458 0.0
C637 C 0.3129 0.10399 0.14207 0.0
C638 C 0.28026 0.12866 0.11285 0.0
C639 C 0.31537 0.1479 0.09767 0.0
C640 C 0.34974 0.14585 0.10541 0.0
C641 C 0.34856 0.12423 0.12745 0.0
C642 C 0.34785 0.22566 0.04376 0.0
C643 C 0.3123 0.20962 0.02894 0.0
C644 C 0.34925 0.20559 0.06593 0.0
C645 C 0.31521 0.16896 0.07364 0.0
C646 C 0.28018 0.15258 0.05835 0.0
C647 C 0.27866 0.17269 0.03646 0.0
loop_
_geom_bond_atom_site_label_1
_geom_bond_atom_site_label_2
_geom_bond_distance
_geom_bond_site_symmetry_2
_ccdc_geom_bond_type
Co0 O1 2.216 . S
Co0 O2 2.091 . S
Co0 O4 2.004 . S
Co0 O10 2.021 . S
Co0 O12 2.137 1_455 S
Co0 O13 2.244 . S
O1 Co0 2.216 . S
O1 C8 1.247 . S
O2 Co0 2.091 . S
O2 C8 1.261 . S
C3 O12 1.247 . S
C3 O13 1.272 1_655 S
O4 Co0 2.004 . S
O4 C9 1.259 . S
Co5 O6 2.061 . S
Co5 O11 2.052 . S
Co5 O13 2.135 . S
O6 Co5 2.061 . S
O6 C9 1.235 . S
C7 O10 1.238 . S
C7 O11 1.241 . S
C8 O1 1.247 . S
C8 O2 1.261 . S
C9 O4 1.259 . S
C9 O6 1.235 . S
O10 Co0 2.021 . S
O10 C7 1.238 . S
O11 Co5 2.052 . S
O11 C7 1.241 . S
O12 Co0 2.137 1_655 S
O12 C3 1.247 . S
O13 Co0 2.244 . S
O13 C3 1.272 1_455 S
O13 Co5 2.135 . S
Co14 O15 2.216 . S
Co14 O16 2.091 . S
Co14 O18 2.004 . S
Co14 O24 2.021 . S
Co14 O26 2.137 1_545 S
Co14 O27 2.244 . S
O15 Co14 2.216 . S
O15 C22 1.247 . S
O16 Co14 2.091 . S
O16 C22 1.261 . S
C17 O26 1.247 . S
C17 O27 1.272 1_565 S
O18 Co14 2.004 . S
O18 C23 1.259 . S
Co19 O20 2.061 . S
Co19 O25 2.052 . S
Co19 O27 2.135 . S
O20 Co19 2.061 . S
O20 C23 1.235 . S
C21 O24 1.238 . S
C21 O25 1.241 . S
C22 O15 1.247 . S
C22 O16 1.261 . S
C23 O18 1.259 . S
C23 O20 1.235 . S
O24 Co14 2.021 . S
O24 C21 1.238 . S
O25 Co19 2.052 . S
O25 C21 1.241 . S
O26 Co14 2.137 1_565 S
O26 C17 1.247 . S
O27 Co14 2.244 . S
O27 C17 1.272 1_545 S
O27 Co19 2.135 . S
Co28 O29 2.216 . S
Co28 O30 2.091 . S
Co28 O32 2.004 . S
Co28 O38 2.021 . S
Co28 O40 2.137 . S
Co28 O41 2.244 . S
O29 Co28 2.216 . S
O29 C36 1.247 . S
O30 Co28 2.091 . S
O30 C36 1.261 . S
C31 O40 1.247 . S
C31 O41 1.272 . S
O32 Co28 2.004 . S
O32 C37 1.259 . S
Co33 O34 2.061 . S
Co33 O39 2.052 . S
Co33 O41 2.135 . S
O34 Co33 2.061 . S
O34 C37 1.235 . S
C35 O38 1.238 . S
C35 O39 1.241 . S
C36 O29 1.247 . S
C36 O30 1.261 . S
C37 O32 1.259 . S
C37 O34 1.235 . S
O38 Co28 2.021 . S
O38 C35 1.238 . S
O39 Co33 2.052 . S
O39 C35 1.241 . S
O40 Co28 2.137 . S
O40 C31 1.247 . S
O41 Co28 2.244 . S
O41 C31 1.272 . S
O41 Co33 2.135 . S
Co42 O43 2.216 . S
Co42 O44 2.091 . S
Co42 O46 2.004 . S
Co42 O52 2.021 . S
Co42 O54 2.137 1_655 S
Co42 O55 2.244 . S
O43 Co42 2.216 . S
O43 C50 1.247 . S
O44 Co42 2.091 . S
O44 C50 1.261 . S
C45 O54 1.247 . S
C45 O55 1.272 1_455 S
O46 Co42 2.004 . S
O46 C51 1.259 . S
Co47 O48 2.061 . S
Co47 O53 2.052 . S
Co47 O55 2.135 . S
O48 Co47 2.061 . S
O48 C51 1.235 . S
C49 O52 1.238 . S
C49 O53 1.241 . S
C50 O43 1.247 . S
C50 O44 1.261 . S
C51 O46 1.259 . S
C51 O48 1.235 . S
O52 Co42 2.021 . S
O52 C49 1.238 . S
O53 Co47 2.052 . S
O53 C49 1.241 . S
O54 Co42 2.137 1_455 S
O54 C45 1.247 . S
O55 Co42 2.244 . S
O55 C45 1.272 1_655 S
O55 Co47 2.135 . S
Co56 O57 2.216 . S
Co56 O58 2.091 . S
Co56 O60 2.004 . S
Co56 O66 2.021 . S
Co56 O68 2.137 1_565 S
Co56 O69 2.244 . S
O57 Co56 2.216 . S
O57 C64 1.247 . S
O58 Co56 2.091 . S
O58 C64 1.261 . S
C59 O68 1.247 . S
C59 O69 1.272 1_545 S
O60 Co56 2.004 . S
O60 C65 1.259 . S
Co61 O62 2.061 . S
Co61 O67 2.052 . S
Co61 O69 2.135 . S
O62 Co61 2.061 . S
O62 C65 1.235 . S
C63 O66 1.238 . S
C63 O67 1.241 . S
C64 O57 1.247 . S
C64 O58 1.261 . S
C65 O60 1.259 . S
C65 O62 1.235 . S
O66 Co56 2.021 . S
O66 C63 1.238 . S
O67 Co61 2.052 . S
O67 C63 1.241 . S
O68 Co56 2.137 1_545 S
O68 C59 1.247 . S
O69 Co56 2.244 . S
O69 C59 1.272 1_565 S
O69 Co61 2.135 . S
Co70 O71 2.216 . S
Co70 O72 2.091 . S
Co70 O74 1.992 1_556 S
Co70 O80 2.021 . S
Co70 O82 2.137 . S
Co70 O83 2.244 . S
O71 Co70 2.216 . S
O71 C78 1.247 . S
O72 Co70 2.091 . S
O72 C78 1.261 . S
C73 O82 1.247 . S
C73 O83 1.272 . S
O74 Co70 1.992 1_554 S
O74 C79 1.264 . S
Co75 O76 2.073 . S
Co75 O81 2.052 . S
Co75 O83 2.135 . S
O76 Co75 2.073 . S
O76 C79 1.229 1_556 S
C77 O80 1.238 . S
C77 O81 1.241 . S
C78 O71 1.247 . S
C78 O72 1.261 . S
C79 O74 1.264 . S
C79 O76 1.229 1_554 S
O80 Co70 2.021 . S
O80 C77 1.238 . S
O81 Co75 2.052 . S
O81 C77 1.241 . S
O82 Co70 2.137 . S
O82 C73 1.247 . S
O83 Co70 2.244 . S
O83 C73 1.272 . S
O83 Co75 2.135 . S
Co84 O85 2.216 . S
Co84 O86 2.091 . S
Co84 O88 2.004 . S
Co84 O94 2.021 . S
Co84 O96 2.137 1_565 S
Co84 O97 2.244 . S
O85 Co84 2.216 . S
O85 C92 1.247 . S
O86 Co84 2.091 . S
O86 C92 1.261 . S
C87 O96 1.247 . S
C87 O97 1.272 1_545 S
O88 Co84 2.004 . S
O88 C93 1.259 . S
Co89 O90 2.061 . S
Co89 O95 2.052 . S
Co89 O97 2.135 . S
O90 Co89 2.061 . S
O90 C93 1.235 . S
C91 O94 1.238 . S
C91 O95 1.241 . S
C92 O85 1.247 . S
C92 O86 1.261 . S
C93 O88 1.259 . S
C93 O90 1.235 . S
O94 Co84 2.021 . S
O94 C91 1.238 . S
O95 Co89 2.052 . S
O95 C91 1.241 . S
O96 Co84 2.137 1_545 S
O96 C87 1.247 . S
O97 Co84 2.244 . S
O97 C87 1.272 1_565 S
O97 Co89 2.135 . S
Co98 O99 2.216 . S
Co98 O100 2.091 . S
Co98 O102 2.004 . S
Co98 O108 2.021 . S
Co98 O110 2.137 . S
Co98 O111 2.244 . S
O99 Co98 2.216 . S
O99 C106 1.247 . S
O100 Co98 2.091 . S
O100 C106 1.261 . S
C101 O110 1.247 . S
C101 O111 1.272 . S
O102 Co98 2.004 . S
O102 C107 1.259 . S
Co103 O104 2.061 . S
Co103 O109 2.052 . S
Co103 O111 2.135 . S
O104 Co103 2.061 . S
O104 C107 1.235 . S
C105 O108 1.238 . S
C105 O109 1.241 . S
C106 O99 1.247 . S
C106 O100 1.261 . S
C107 O102 1.259 . S
C107 O104 1.235 . S
O108 Co98 2.021 . S
O108 C105 1.238 . S
O109 Co103 2.052 . S
O109 C105 1.241 . S
O110 Co98 2.137 . S
O110 C101 1.247 . S
O111 Co98 2.244 . S
O111 C101 1.272 . S
O111 Co103 2.135 . S
Co112 O113 2.216 . S
Co112 O114 2.091 . S
Co112 O116 1.992 1_554 S
Co112 O122 2.021 . S
Co112 O124 2.137 1_455 S
Co112 O125 2.244 . S
O113 Co112 2.216 . S
O113 C120 1.247 . S
O114 Co112 2.091 . S
O114 C120 1.261 . S
C115 O124 1.247 . S
C115 O125 1.272 1_655 S
O116 Co112 1.992 1_556 S
O116 C121 1.264 . S
Co117 O118 2.072 . S
Co117 O123 2.052 . S
Co117 O125 2.135 . S
O118 Co117 2.072 . S
O118 C121 1.229 1_554 S
C119 O122 1.238 . S
C119 O123 1.241 . S
C120 O113 1.247 . S
C120 O114 1.261 . S
C121 O116 1.264 . S
C121 O118 1.229 1_556 S
O122 Co112 2.021 . S
O122 C119 1.238 . S
O123 Co117 2.052 . S
O123 C119 1.241 . S
O124 Co112 2.137 1_655 S
O124 C115 1.247 . S
O125 Co112 2.244 . S
O125 C115 1.272 1_455 S
O125 Co117 2.135 . S
Co126 O127 2.216 . S
Co126 O128 2.091 . S
Co126 O130 2.004 . S
Co126 O136 2.021 . S
Co126 O138 2.137 1_545 S
Co126 O139 2.244 . S
O127 Co126 2.216 . S
O127 C134 1.247 . S
O128 Co126 2.091 . S
O128 C134 1.261 . S
C129 O138 1.247 . S
C129 O139 1.272 1_565 S
O130 Co126 2.004 . S
O130 C135 1.259 . S
Co131 O132 2.061 . S
Co131 O137 2.052 . S
Co131 O139 2.135 . S
O132 Co131 2.061 . S
O132 C135 1.235 . S
C133 O136 1.238 . S
C133 O137 1.241 . S
C134 O127 1.247 . S
C134 O128 1.261 . S
C135 O130 1.259 . S
C135 O132 1.235 . S
O136 Co126 2.021 . S
O136 C133 1.238 . S
O137 Co131 2.052 . S
O137 C133 1.241 . S
O138 Co126 2.137 1_565 S
O138 C129 1.247 . S
O139 Co126 2.244 . S
O139 C129 1.272 1_545 S
O139 Co131 2.135 . S
Co140 O141 2.216 . S
Co140 O142 2.091 . S
Co140 O144 2.004 . S
Co140 O150 2.021 . S
Co140 O152 2.137 . S
Co140 O153 2.244 . S
O141 Co140 2.216 . S
O141 C148 1.247 . S
O142 Co140 2.091 . S
O142 C148 1.261 . S
C143 O152 1.247 . S
C143 O153 1.272 . S
O144 Co140 2.004 . S
O144 C149 1.259 . S
Co145 O146 2.061 . S
Co145 O151 2.052 . S
Co145 O153 2.135 . S
O146 Co145 2.061 . S
O146 C149 1.235 . S
C147 O150 1.238 . S
C147 O151 1.241 . S
C148 O141 1.247 . S
C148 O142 1.261 . S
C149 O144 1.259 . S
C149 O146 1.235 . S
O150 Co140 2.021 . S
O150 C147 1.238 . S
O151 Co145 2.052 . S
O151 C147 1.241 . S
O152 Co140 2.137 . S
O152 C143 1.247 . S
O153 Co140 2.244 . S
O153 C143 1.272 . S
O153 Co145 2.135 . S
Co154 O155 2.216 . S
Co154 O156 2.091 . S
Co154 O158 2.004 . S
Co154 O164 2.021 . S
Co154 O166 2.137 1_655 S
Co154 O167 2.244 . S
O155 Co154 2.216 . S
O155 C162 1.247 . S
O156 Co154 2.091 . S
O156 C162 1.261 . S
C157 O166 1.247 . S
C157 O167 1.272 1_455 S
O158 Co154 2.004 . S
O158 C163 1.259 . S
Co159 O160 2.061 . S
Co159 O165 2.052 . S
Co159 O167 2.135 . S
O160 Co159 2.061 . S
O160 C163 1.235 . S
C161 O164 1.238 . S
C161 O165 1.241 . S
C162 O155 1.247 . S
C162 O156 1.261 . S
C163 O158 1.259 . S
C163 O160 1.235 . S
O164 Co154 2.021 . S
O164 C161 1.238 . S
O165 Co159 2.052 . S
O165 C161 1.241 . S
O166 Co154 2.137 1_455 S
O166 C157 1.247 . S
O167 Co154 2.244 . S
O167 C157 1.272 1_655 S
O167 Co159 2.135 . S
H168 C176 0.950 1_655 S
H169 C181 0.950 . S
H170 C178 0.950 1_655 S
H171 C180 0.950 . S
H172 C182 0.950 . S
H173 C184 0.950 . S
H174 C186 0.950 1_655 S
H175 C187 0.950 1_655 S
C176 H168 0.950 1_455 S
C176 C177 1.386 . S
C176 C178 1.391 . S
C177 C176 1.386 . S
C177 C181 1.393 . S
C178 H170 0.950 1_455 S
C178 C176 1.391 . S
C178 C179 1.400 . S
C179 C178 1.400 . S
C179 C180 1.398 . S
C179 C185 1.491 . S
C180 H171 0.950 . S
C180 C179 1.398 . S
C180 C181 1.391 . S
C181 H169 0.950 . S
C181 C177 1.393 . S
C181 C180 1.391 . S
C182 H172 0.950 . S
C182 C183 1.386 . S
C182 C184 1.391 . S
C183 C182 1.386 . S
C183 C187 1.393 . S
C184 H173 0.950 . S
C184 C182 1.391 . S
C184 C185 1.400 . S
C185 C179 1.491 . S
C185 C184 1.400 . S
C185 C186 1.398 . S
C186 H174 0.950 1_455 S
C186 C185 1.398 . S
C186 C187 1.391 . S
C187 H175 0.950 1_455 S
C187 C183 1.393 . S
C187 C186 1.391 . S
H188 C196 0.950 . S
H189 C201 0.950 . S
H190 C198 0.950 . S
H191 C200 0.950 . S
H192 C202 0.950 . S
H193 C204 0.950 . S
H194 C206 0.950 . S
H195 C207 0.950 . S
C196 H188 0.950 . S
C196 C197 1.386 . S
C196 C198 1.391 . S
C197 C196 1.386 . S
C197 C201 1.393 . S
C198 H190 0.950 . S
C198 C196 1.391 . S
C198 C199 1.400 . S
C199 C198 1.400 . S
C199 C200 1.398 . S
C199 C205 1.491 . S
C200 H191 0.950 . S
C200 C199 1.398 . S
C200 C201 1.391 . S
C201 H189 0.950 . S
C201 C197 1.393 . S
C201 C200 1.391 . S
C202 H192 0.950 . S
C202 C203 1.386 . S
C202 C204 1.391 . S
C203 C202 1.386 . S
C203 C207 1.393 . S
C204 H193 0.950 . S
C204 C202 1.391 . S
C204 C205 1.400 . S
C205 C199 1.491 . S
C205 C204 1.400 . S
C205 C206 1.398 . S
C206 H194 0.950 . S
C206 C205 1.398 . S
C206 C207 1.391 . S
C207 H195 0.950 . S
C207 C203 1.393 . S
C207 C206 1.391 . S
H208 C216 0.950 . S
H209 C221 0.950 . S
H210 C218 0.950 . S
H211 C220 0.950 . S
H212 C222 0.950 . S
H213 C224 0.950 . S
H214 C226 0.950 . S
H215 C227 0.950 . S
C216 H208 0.950 . S
C216 C217 1.386 . S
C216 C218 1.391 . S
C217 C216 1.386 . S
C217 C221 1.393 . S
C218 H210 0.950 . S
C218 C216 1.391 . S
C218 C219 1.400 . S
C219 C218 1.400 . S
C219 C220 1.398 . S
C219 C225 1.491 . S
C220 H211 0.950 . S
C220 C219 1.398 . S
C220 C221 1.391 . S
C221 H209 0.950 . S
C221 C217 1.393 . S
C221 C220 1.391 . S
C222 H212 0.950 . S
C222 C223 1.386 . S
C222 C224 1.391 . S
C223 C222 1.386 . S
C223 C227 1.393 . S
C224 H213 0.950 . S
C224 C222 1.391 . S
C224 C225 1.400 . S
C225 C219 1.491 . S
C225 C224 1.400 . S
C225 C226 1.398 . S
C226 H214 0.950 . S
C226 C225 1.398 . S
C226 C227 1.391 . S
C227 H215 0.950 . S
C227 C223 1.393 . S
C227 C226 1.391 . S
H228 C236 0.950 . S
H229 C241 0.950 . S
H230 C238 0.950 . S
H231 C240 0.950 . S
H232 C242 0.950 . S
H233 C244 0.950 . S
H234 C246 0.950 . S
H235 C247 0.950 . S
C236 H228 0.950 . S
C236 C237 1.386 . S
C236 C238 1.391 . S
C237 C236 1.386 . S
C237 C241 1.393 . S
C238 H230 0.950 . S
C238 C236 1.391 . S
C238 C239 1.400 . S
C239 C238 1.400 . S
C239 C240 1.398 . S
C239 C245 1.491 . S
C240 H231 0.950 . S
C240 C239 1.398 . S
C240 C241 1.391 . S
C241 H229 0.950 . S
C241 C237 1.393 . S
C241 C240 1.391 . S
C242 H232 0.950 . S
C242 C243 1.386 . S
C242 C244 1.391 . S
C243 C242 1.386 . S
C243 C247 1.393 . S
C244 H233 0.950 . S
C244 C242 1.391 . S
C244 C245 1.400 . S
C245 C239 1.491 . S
C245 C244 1.400 . S
C245 C246 1.398 . S
C246 H234 0.950 . S
C246 C245 1.398 . S
C246 C247 1.391 . S
C247 H235 0.950 . S
C247 C243 1.393 . S
C247 C246 1.391 . S
H248 C256 0.950 1_545 S
H249 C261 0.950 . S
H250 C258 0.950 1_545 S
H251 C260 0.950 . S
H252 C262 0.950 . S
H253 C264 0.950 . S
H254 C266 0.950 1_545 S
H255 C267 0.950 1_545 S
C256 H248 0.950 1_565 S
C256 C257 1.386 . S
C256 C258 1.391 . S
C257 C256 1.386 . S
C257 C261 1.393 . S
C258 H250 0.950 1_565 S
C258 C256 1.391 . S
C258 C259 1.400 . S
C259 C258 1.400 . S
C259 C260 1.398 . S
C259 C265 1.491 . S
C260 H251 0.950 . S
C260 C259 1.398 . S
C260 C261 1.391 . S
C261 H249 0.950 . S
C261 C257 1.393 . S
C261 C260 1.391 . S
C262 H252 0.950 . S
C262 C263 1.386 . S
C262 C264 1.391 . S
C263 C262 1.386 . S
C263 C267 1.393 . S
C264 H253 0.950 . S
C264 C262 1.391 . S
C264 C265 1.400 . S
C265 C259 1.491 . S
C265 C264 1.400 . S
C265 C266 1.398 . S
C266 H254 0.950 1_565 S
C266 C265 1.398 . S
C266 C267 1.391 . S
C267 H255 0.950 1_565 S
C267 C263 1.393 . S
C267 C266 1.391 . S
H268 C276 0.950 . S
H269 C281 0.950 . S
H270 C278 0.950 . S
H271 C280 0.950 . S
H272 C282 0.950 . S
H273 C284 0.950 . S
H274 C286 0.950 . S
H275 C287 0.950 . S
C276 H268 0.950 . S
C276 C277 1.386 . S
C276 C278 1.391 . S
C277 C276 1.386 . S
C277 C281 1.393 . S
C278 H270 0.950 . S
C278 C276 1.391 . S
C278 C279 1.400 . S
C279 C278 1.400 . S
C279 C280 1.398 . S
C279 C285 1.491 . S
C280 H271 0.950 . S
C280 C279 1.398 . S
C280 C281 1.391 . S
C281 H269 0.950 . S
C281 C277 1.393 . S
C281 C280 1.391 . S
C282 H272 0.950 . S
C282 C283 1.386 . S
C282 C284 1.391 . S
C283 C282 1.386 . S
C283 C287 1.393 . S
C284 H273 0.950 . S
C284 C282 1.391 . S
C284 C285 1.400 . S
C285 C279 1.491 . S
C285 C284 1.400 . S
C285 C286 1.398 . S
C286 H274 0.950 . S
C286 C285 1.398 . S
C286 C287 1.391 . S
C287 H275 0.950 . S
C287 C283 1.393 . S
C287 C286 1.391 . S
H288 C296 0.950 . S
H289 C301 0.950 . S
H290 C298 0.950 . S
H291 C300 0.950 . S
H292 C302 0.950 . S
H293 C304 0.950 . S
H294 C306 0.950 . S
H295 C307 0.950 . S
C296 H288 0.950 . S
C296 C297 1.386 . S
C296 C298 1.391 . S
C297 C296 1.386 . S
C297 C301 1.393 . S
C298 H290 0.950 . S
C298 C296 1.391 . S
C298 C299 1.400 . S
C299 C298 1.400 . S
C299 C300 1.398 . S
C299 C305 1.491 . S
C300 H291 0.950 . S
C300 C299 1.398 . S
C300 C301 1.391 . S
C301 H289 0.950 . S
C301 C297 1.393 . S
C301 C300 1.391 . S
C302 H292 0.950 . S
C302 C303 1.390 . S
C302 C304 1.391 1_556 S
C303 C302 1.390 . S
C303 C307 1.364 1_556 S
C304 H293 0.950 . S
C304 C302 1.391 1_554 S
C304 C305 1.400 . S
C305 C299 1.491 . S
C305 C304 1.400 . S
C305 C306 1.398 . S
C306 H294 0.950 . S
C306 C305 1.398 . S
C306 C307 1.391 . S
C307 H295 0.950 . S
C307 C303 1.364 1_554 S
C307 C306 1.391 . S
H308 C316 0.950 . S
H309 C321 0.950 . S
H310 C318 0.950 . S
H311 C320 0.950 . S
H312 C322 0.950 . S
H313 C324 0.950 . S
H314 C326 0.950 . S
H315 C327 0.950 . S
C316 H308 0.950 . S
C316 C317 1.386 . S
C316 C318 1.391 . S
C317 C316 1.386 . S
C317 C321 1.393 . S
C318 H310 0.950 . S
C318 C316 1.391 . S
C318 C319 1.400 . S
C319 C318 1.400 . S
C319 C320 1.398 . S
C319 C325 1.491 . S
C320 H311 0.950 . S
C320 C319 1.398 . S
C320 C321 1.391 . S
C321 H309 0.950 . S
C321 C317 1.393 . S
C321 C320 1.391 . S
C322 H312 0.950 . S
C322 C323 1.386 . S
C322 C324 1.391 . S
C323 C322 1.386 . S
C323 C327 1.393 . S
C324 H313 0.950 . S
C324 C322 1.391 . S
C324 C325 1.400 . S
C325 C319 1.491 . S
C325 C324 1.400 . S
C325 C326 1.398 . S
C326 H314 0.950 . S
C326 C325 1.398 . S
C326 C327 1.391 . S
C327 H315 0.950 . S
C327 C323 1.393 . S
C327 C326 1.391 . S
H328 C336 0.950 . S
H329 C341 0.950 . S
H330 C338 0.950 . S
H331 C340 0.950 . S
H332 C342 0.950 . S
H333 C344 0.950 . S
H334 C346 0.950 . S
H335 C347 0.950 . S
C336 H328 0.950 . S
C336 C337 1.386 . S
C336 C338 1.391 . S
C337 C336 1.386 . S
C337 C341 1.393 . S
C338 H330 0.950 . S
C338 C336 1.391 . S
C338 C339 1.400 . S
C339 C338 1.400 . S
C339 C340 1.398 . S
C339 C345 1.491 . S
C340 H331 0.950 . S
C340 C339 1.398 . S
C340 C341 1.391 . S
C341 H329 0.950 . S
C341 C337 1.393 . S
C341 C340 1.391 . S
C342 H332 0.950 . S
C342 C343 1.386 . S
C342 C344 1.391 . S
C343 C342 1.386 . S
C343 C347 1.393 . S
C344 H333 0.950 . S
C344 C342 1.391 . S
C344 C345 1.400 . S
C345 C339 1.491 . S
C345 C344 1.400 . S
C345 C346 1.398 . S
C346 H334 0.950 . S
C346 C345 1.398 . S
C346 C347 1.391 . S
C347 H335 0.950 . S
C347 C343 1.393 . S
C347 C346 1.391 . S
H348 C356 0.950 . S
H349 C361 0.950 . S
H350 C358 0.950 . S
H351 C360 0.950 . S
H352 C362 0.950 . S
H353 C364 0.950 . S
H354 C366 0.950 . S
H355 C367 0.950 . S
C356 H348 0.950 . S
C356 C357 1.386 . S
C356 C358 1.391 . S
C357 C356 1.386 . S
C357 C361 1.393 . S
C358 H350 0.950 . S
C358 C356 1.391 . S
C358 C359 1.400 . S
C359 C358 1.400 . S
C359 C360 1.398 . S
C359 C365 1.491 . S
C360 H351 0.950 . S
C360 C359 1.398 . S
C360 C361 1.391 . S
C361 H349 0.950 . S
C361 C357 1.393 . S
C361 C360 1.391 . S
C362 H352 0.950 . S
C362 C363 1.386 . S
C362 C364 1.391 . S
C363 C362 1.386 . S
C363 C367 1.393 . S
C364 H353 0.950 . S
C364 C362 1.391 . S
C364 C365 1.400 . S
C365 C359 1.491 . S
C365 C364 1.400 . S
C365 C366 1.398 . S
C366 H354 0.950 . S
C366 C365 1.398 . S
C366 C367 1.391 . S
C367 H355 0.950 . S
C367 C363 1.393 . S
C367 C366 1.391 . S
H368 C376 0.950 . S
H369 C381 0.950 . S
H370 C378 0.950 . S
H371 C380 0.950 . S
H372 C382 0.950 . S
H373 C384 0.950 . S
H374 C386 0.950 . S
H375 C387 0.950 . S
C376 H368 0.950 . S
C376 C377 1.386 . S
C376 C378 1.391 . S
C377 C376 1.386 . S
C377 C381 1.393 . S
C378 H370 0.950 . S
C378 C376 1.391 . S
C378 C379 1.400 . S
C379 C378 1.400 . S
C379 C380 1.398 . S
C379 C385 1.491 . S
C380 H371 0.950 . S
C380 C379 1.398 . S
C380 C381 1.391 . S
C381 H369 0.950 . S
C381 C377 1.393 . S
C381 C380 1.391 . S
C382 H372 0.950 . S
C382 C383 1.386 . S
C382 C384 1.391 . S
C383 C382 1.386 . S
C383 C387 1.393 . S
C384 H373 0.950 . S
C384 C382 1.391 . S
C384 C385 1.400 . S
C385 C379 1.491 . S
C385 C384 1.400 . S
C385 C386 1.398 . S
C386 H374 0.950 . S
C386 C385 1.398 . S
C386 C387 1.391 . S
C387 H375 0.950 . S
C387 C383 1.393 . S
C387 C386 1.391 . S
H388 C396 0.950 . S
H389 C401 0.950 . S
H390 C398 0.950 . S
H391 C400 0.950 . S
H392 C402 0.950 . S
H393 C404 0.950 . S
H394 C406 0.950 . S
H395 C407 0.950 . S
C396 H388 0.950 . S
C396 C397 1.386 . S
C396 C398 1.391 . S
C397 C396 1.386 . S
C397 C401 1.393 . S
C398 H390 0.950 . S
C398 C396 1.391 . S
C398 C399 1.400 . S
C399 C398 1.400 . S
C399 C400 1.398 . S
C399 C405 1.491 . S
C400 H391 0.950 . S
C400 C399 1.398 . S
C400 C401 1.391 . S
C401 H389 0.950 . S
C401 C397 1.393 . S
C401 C400 1.391 . S
C402 H392 0.950 . S
C402 C403 1.386 . S
C402 C404 1.391 . S
C403 C402 1.386 . S
C403 C407 1.393 . S
C404 H393 0.950 . S
C404 C402 1.391 . S
C404 C405 1.400 . S
C405 C399 1.491 . S
C405 C404 1.400 . S
C405 C406 1.398 . S
C406 H394 0.950 . S
C406 C405 1.398 . S
C406 C407 1.391 . S
C407 H395 0.950 . S
C407 C403 1.393 . S
C407 C406 1.391 . S
H408 C416 0.950 . S
H409 C421 0.950 . S
H410 C418 0.950 . S
H411 C420 0.950 . S
H412 C422 0.950 . S
H413 C424 0.950 . S
H414 C426 0.950 . S
H415 C427 0.950 . S
C416 H408 0.950 . S
C416 C417 1.386 . S
C416 C418 1.391 . S
C417 C416 1.386 . S
C417 C421 1.393 . S
C418 H410 0.950 . S
C418 C416 1.391 . S
C418 C419 1.400 . S
C419 C418 1.400 . S
C419 C420 1.398 . S
C419 C425 1.491 . S
C420 H411 0.950 . S
C420 C419 1.398 . S
C420 C421 1.391 . S
C421 H409 0.950 . S
C421 C417 1.393 . S
C421 C420 1.391 . S
C422 H412 0.950 . S
C422 C423 1.386 . S
C422 C424 1.391 . S
C423 C422 1.386 . S
C423 C427 1.393 . S
C424 H413 0.950 . S
C424 C422 1.391 . S
C424 C425 1.400 . S
C425 C419 1.491 . S
C425 C424 1.400 . S
C425 C426 1.398 . S
C426 H414 0.950 . S
C426 C425 1.398 . S
C426 C427 1.391 . S
C427 H415 0.950 . S
C427 C423 1.393 . S
C427 C426 1.391 . S
H428 C436 0.950 . S
H429 C441 0.950 . S
H430 C438 0.950 . S
H431 C440 0.950 . S
H432 C442 0.950 . S
H433 C444 0.950 1_554 S
H434 C446 0.950 . S
H435 C447 0.950 . S
C436 H428 0.950 . S
C436 C437 1.386 . S
C436 C438 1.391 . S
C437 C436 1.386 . S
C437 C441 1.393 . S
C438 H430 0.950 . S
C438 C436 1.391 . S
C438 C439 1.400 . S
C439 C438 1.400 . S
C439 C440 1.398 . S
C439 C445 1.491 . S
C440 H431 0.950 . S
C440 C439 1.398 . S
C440 C441 1.391 . S
C441 H429 0.950 . S
C441 C437 1.393 . S
C441 C440 1.391 . S
C442 H432 0.950 . S
C442 C443 1.386 . S
C442 C444 1.391 1_554 S
C443 C442 1.386 . S
C443 C447 1.393 1_554 S
C444 H433 0.950 1_556 S
C444 C442 1.391 1_556 S
C444 C445 1.400 . S
C445 C439 1.491 . S
C445 C444 1.400 . S
C445 C446 1.398 . S
C446 H434 0.950 . S
C446 C445 1.398 . S
C446 C447 1.391 . S
C447 H435 0.950 . S
C447 C443 1.393 1_556 S
C447 C446 1.391 . S
H448 C456 0.950 . S
H449 C461 0.950 . S
H450 C458 0.950 . S
H451 C460 0.950 . S
H452 C462 0.950 . S
H453 C464 0.950 . S
H454 C466 0.950 . S
H455 C467 0.950 . S
C456 H448 0.950 . S
C456 C457 1.386 . S
C456 C458 1.391 . S
C457 C456 1.386 . S
C457 C461 1.393 . S
C458 H450 0.950 . S
C458 C456 1.391 . S
C458 C459 1.400 . S
C459 C458 1.400 . S
C459 C460 1.398 . S
C459 C465 1.491 . S
C460 H451 0.950 . S
C460 C459 1.398 . S
C460 C461 1.391 . S
C461 H449 0.950 . S
C461 C457 1.393 . S
C461 C460 1.391 . S
C462 H452 0.950 . S
C462 C463 1.386 . S
C462 C464 1.391 . S
C463 C462 1.386 . S
C463 C467 1.393 . S
C464 H453 0.950 . S
C464 C462 1.391 . S
C464 C465 1.400 . S
C465 C459 1.491 . S
C465 C464 1.400 . S
C465 C466 1.398 . S
C466 H454 0.950 . S
C466 C465 1.398 . S
C466 C467 1.391 . S
C467 H455 0.950 . S
C467 C463 1.393 . S
C467 C466 1.391 . S
H468 C476 0.950 . S
H469 C481 0.950 . S
H470 C478 0.950 . S
H471 C480 0.950 . S
H472 C482 0.950 . S
H473 C484 0.950 . S
H474 C486 0.950 . S
H475 C487 0.950 . S
C476 H468 0.950 . S
C476 C477 1.386 . S
C476 C478 1.391 . S
C477 C476 1.386 . S
C477 C481 1.393 . S
C478 H470 0.950 . S
C478 C476 1.391 . S
C478 C479 1.400 . S
C479 C478 1.400 . S
C479 C480 1.398 . S
C479 C485 1.491 . S
C480 H471 0.950 . S
C480 C479 1.398 . S
C480 C481 1.391 . S
C481 H469 0.950 . S
C481 C477 1.393 . S
C481 C480 1.391 . S
C482 H472 0.950 . S
C482 C483 1.386 . S
C482 C484 1.391 . S
C483 C482 1.386 . S
C483 C487 1.393 . S
C484 H473 0.950 . S
C484 C482 1.391 . S
C484 C485 1.400 . S
C485 C479 1.491 . S
C485 C484 1.400 . S
C485 C486 1.398 . S
C486 H474 0.950 . S
C486 C485 1.398 . S
C486 C487 1.391 . S
C487 H475 0.950 . S
C487 C483 1.393 . S
C487 C486 1.391 . S
H488 C496 0.950 . S
H489 C501 0.950 . S
H490 C498 0.950 . S
H491 C500 0.950 . S
H492 C502 0.950 . S
H493 C504 0.950 . S
H494 C506 0.950 . S
H495 C507 0.950 . S
C496 H488 0.950 . S
C496 C497 1.386 . S
C496 C498 1.391 . S
C497 C496 1.386 . S
C497 C501 1.393 . S
C498 H490 0.950 . S
C498 C496 1.391 . S
C498 C499 1.400 . S
C499 C498 1.400 . S
C499 C500 1.398 . S
C499 C505 1.491 . S
C500 H491 0.950 . S
C500 C499 1.398 . S
C500 C501 1.391 . S
C501 H489 0.950 . S
C501 C497 1.393 . S
C501 C500 1.391 . S
C502 H492 0.950 . S
C502 C503 1.386 . S
C502 C504 1.391 . S
C503 C502 1.386 . S
C503 C507 1.393 . S
C504 H493 0.950 . S
C504 C502 1.391 . S
C504 C505 1.400 . S
C505 C499 1.491 . S
C505 C504 1.400 . S
C505 C506 1.398 . S
C506 H494 0.950 . S
C506 C505 1.398 . S
C506 C507 1.391 . S
C507 H495 0.950 . S
C507 C503 1.393 . S
C507 C506 1.391 . S
H508 C516 0.950 . S
H509 C521 0.950 . S
H510 C518 0.950 . S
H511 C520 0.950 . S
H512 C522 0.950 . S
H513 C524 0.950 . S
H514 C526 0.950 . S
H515 C527 0.950 . S
C516 H508 0.950 . S
C516 C517 1.386 . S
C516 C518 1.391 . S
C517 C516 1.386 . S
C517 C521 1.393 . S
C518 H510 0.950 . S
C518 C516 1.391 . S
C518 C519 1.400 . S
C519 C518 1.400 . S
C519 C520 1.398 . S
C519 C525 1.491 . S
C520 H511 0.950 . S
C520 C519 1.398 . S
C520 C521 1.391 . S
C521 H509 0.950 . S
C521 C517 1.393 . S
C521 C520 1.391 . S
C522 H512 0.950 . S
C522 C523 1.386 . S
C522 C524 1.391 . S
C523 C522 1.386 . S
C523 C527 1.393 . S
C524 H513 0.950 . S
C524 C522 1.391 . S
C524 C525 1.400 . S
C525 C519 1.491 . S
C525 C524 1.400 . S
C525 C526 1.398 . S
C526 H514 0.950 . S
C526 C525 1.398 . S
C526 C527 1.391 . S
C527 H515 0.950 . S
C527 C523 1.393 . S
C527 C526 1.391 . S
H528 C536 0.950 . S
H529 C541 0.950 . S
H530 C538 0.950 . S
H531 C540 0.950 . S
H532 C542 0.950 . S
H533 C544 0.950 . S
H534 C546 0.950 . S
H535 C547 0.950 . S
C536 H528 0.950 . S
C536 C537 1.386 . S
C536 C538 1.391 . S
C537 C536 1.386 . S
C537 C541 1.393 . S
C538 H530 0.950 . S
C538 C536 1.391 . S
C538 C539 1.400 . S
C539 C538 1.400 . S
C539 C540 1.398 . S
C539 C545 1.491 . S
C540 H531 0.950 . S
C540 C539 1.398 . S
C540 C541 1.391 . S
C541 H529 0.950 . S
C541 C537 1.393 . S
C541 C540 1.391 . S
C542 H532 0.950 . S
C542 C543 1.386 . S
C542 C544 1.391 . S
C543 C542 1.386 . S
C543 C547 1.393 . S
C544 H533 0.950 . S
C544 C542 1.391 . S
C544 C545 1.400 . S
C545 C539 1.491 . S
C545 C544 1.400 . S
C545 C546 1.398 . S
C546 H534 0.950 . S
C546 C545 1.398 . S
C546 C547 1.391 . S
C547 H535 0.950 . S
C547 C543 1.393 . S
C547 C546 1.391 . S
H548 C556 0.950 . S
H549 C561 0.950 . S
H550 C558 0.950 . S
H551 C560 0.950 . S
H552 C562 0.950 . S
H553 C564 0.950 . S
H554 C566 0.950 . S
H555 C567 0.950 . S
C556 H548 0.950 . S
C556 C557 1.386 . S
C556 C558 1.391 . S
C557 C556 1.386 . S
C557 C561 1.393 . S
C558 H550 0.950 . S
C558 C556 1.391 . S
C558 C559 1.400 . S
C559 C558 1.400 . S
C559 C560 1.398 . S
C559 C565 1.491 . S
C560 H551 0.950 . S
C560 C559 1.398 . S
C560 C561 1.391 . S
C561 H549 0.950 . S
C561 C557 1.393 . S
C561 C560 1.391 . S
C562 H552 0.950 . S
C562 C563 1.386 . S
C562 C564 1.391 . S
C563 C562 1.386 . S
C563 C567 1.393 . S
C564 H553 0.950 . S
C564 C562 1.391 . S
C564 C565 1.400 . S
C565 C559 1.491 . S
C565 C564 1.400 . S
C565 C566 1.398 . S
C566 H554 0.950 . S
C566 C565 1.398 . S
C566 C567 1.391 . S
C567 H555 0.950 . S
C567 C563 1.393 . S
C567 C566 1.391 . S
H568 C576 0.950 . S
H569 C581 0.950 . S
H570 C578 0.950 . S
H571 C580 0.950 . S
H572 C582 0.950 . S
H573 C584 0.950 . S
H574 C586 0.950 . S
H575 C587 0.950 . S
C576 H568 0.950 . S
C576 C577 1.386 . S
C576 C578 1.391 . S
C577 C576 1.386 . S
C577 C581 1.393 . S
C578 H570 0.950 . S
C578 C576 1.391 . S
C578 C579 1.400 . S
C579 C578 1.400 . S
C579 C580 1.398 . S
C579 C585 1.491 . S
C580 H571 0.950 . S
C580 C579 1.398 . S
C580 C581 1.391 . S
C581 H569 0.950 . S
C581 C577 1.393 . S
C581 C580 1.391 . S
C582 H572 0.950 . S
C582 C583 1.386 . S
C582 C584 1.391 . S
C583 C582 1.386 . S
C583 C587 1.393 . S
C584 H573 0.950 . S
C584 C582 1.391 . S
C584 C585 1.400 . S
C585 C579 1.491 . S
C585 C584 1.400 . S
C585 C586 1.398 . S
C586 H574 0.950 . S
C586 C585 1.398 . S
C586 C587 1.391 . S
C587 H575 0.950 . S
C587 C583 1.393 . S
C587 C586 1.391 . S
H588 C596 0.950 . S
H589 C601 0.950 . S
H590 C598 0.950 . S
H591 C600 0.950 . S
H592 C602 0.950 . S
H593 C604 0.950 . S
H594 C606 0.950 . S
H595 C607 0.950 . S
C596 H588 0.950 . S
C596 C597 1.386 . S
C596 C598 1.391 . S
C597 C596 1.386 . S
C597 C601 1.393 . S
C598 H590 0.950 . S
C598 C596 1.391 . S
C598 C599 1.400 . S
C599 C598 1.400 . S
C599 C600 1.398 . S
C599 C605 1.491 . S
C600 H591 0.950 . S
C600 C599 1.398 . S
C600 C601 1.391 . S
C601 H589 0.950 . S
C601 C597 1.393 . S
C601 C600 1.391 . S
C602 H592 0.950 . S
C602 C603 1.386 . S
C602 C604 1.391 . S
C603 C602 1.386 . S
C603 C607 1.393 . S
C604 H593 0.950 . S
C604 C602 1.391 . S
C604 C605 1.400 . S
C605 C599 1.491 . S
C605 C604 1.400 . S
C605 C606 1.398 . S
C606 H594 0.950 . S
C606 C605 1.398 . S
C606 C607 1.391 . S
C607 H595 0.950 . S
C607 C603 1.393 . S
C607 C606 1.391 . S
H608 C616 0.950 . S
H609 C621 0.950 . S
H610 C618 0.950 . S
H611 C620 0.950 . S
H612 C622 0.950 . S
H613 C624 0.950 . S
H614 C626 0.950 . S
H615 C627 0.950 . S
C616 H608 0.950 . S
C616 C617 1.386 . S
C616 C618 1.391 . S
C617 C616 1.386 . S
C617 C621 1.393 . S
C618 H610 0.950 . S
C618 C616 1.391 . S
C618 C619 1.400 . S
C619 C618 1.400 . S
C619 C620 1.398 . S
C619 C625 1.491 . S
C620 H611 0.950 . S
C620 C619 1.398 . S
C620 C621 1.391 . S
C621 H609 0.950 . S
C621 C617 1.393 . S
C621 C620 1.391 . S
C622 H612 0.950 . S
C622 C623 1.386 . S
C622 C624 1.391 . S
C623 C622 1.386 . S
C623 C627 1.393 . S
C624 H613 0.950 . S
C624 C622 1.391 . S
C624 C625 1.400 . S
C625 C619 1.491 . S
C625 C624 1.400 . S
C625 C626 1.398 . S
C626 H614 0.950 . S
C626 C625 1.398 . S
C626 C627 1.391 . S
C627 H615 0.950 . S
C627 C623 1.393 . S
C627 C626 1.391 . S
H628 C636 0.950 . S
H629 C641 0.950 . S
H630 C638 0.950 . S
H631 C640 0.950 . S
H632 C642 0.950 . S
H633 C644 0.950 . S
H634 C646 0.950 . S
H635 C647 0.950 . S
C636 H628 0.950 . S
C636 C637 1.386 . S
C636 C638 1.391 . S
C637 C636 1.386 . S
C637 C641 1.393 . S
C638 H630 0.950 . S
C638 C636 1.391 . S
C638 C639 1.400 . S
C639 C638 1.400 . S
C639 C640 1.398 . S
C639 C645 1.491 . S
C640 H631 0.950 . S
C640 C639 1.398 . S
C640 C641 1.391 . S
C641 H629 0.950 . S
C641 C637 1.393 . S
C641 C640 1.391 . S
C642 H632 0.950 . S
C642 C643 1.386 . S
C642 C644 1.391 . S
C643 C642 1.386 . S
C643 C647 1.393 . S
C644 H633 0.950 . S
C644 C642 1.391 . S
C644 C645 1.400 . S
C645 C639 1.491 . S
C645 C644 1.400 . S
C645 C646 1.398 . S
C646 H634 0.950 . S
C646 C645 1.398 . S
C646 C647 1.391 . S
C647 H635 0.950 . S
C647 C643 1.393 . S
C647 C646 1.391 . S
C177 C120 1.392 . S
C183 C8 1.394 . S
C197 C22 1.399 . S
C203 C134 1.393 . S
C217 C36 1.402 . S
C223 C148 1.395 . S
C237 C50 1.398 . S
C243 C162 1.405 . S
C257 C92 1.392 . S
C263 C64 1.395 . S
C277 C78 1.392 . S
C283 C106 1.393 . S
C297 C7 1.514 . S
C303 C73 1.538 . S
C317 C21 1.512 . S
C323 C3 1.519 . S
C337 C35 1.517 . S
C343 C17 1.516 . S
C357 C31 1.530 . S
C363 C49 1.498 . S
C377 C45 1.522 . S
C383 C63 1.508 . S
C397 C59 1.518 . S
C403 C77 1.515 . S
C417 C101 1.518 . S
C423 C91 1.513 . S
C437 C105 1.502 . S
C443 C115 1.527 . S
C457 C129 1.524 . S
C463 C119 1.505 . S
C477 C133 1.514 . S
C483 C143 1.518 . S
C497 C147 1.517 . S
C503 C157 1.516 . S
C517 C161 1.510 . S
C523 C87 1.523 . S
C537 C149 1.269 . S
C543 C9 1.256 . S
C557 C163 1.268 . S
C563 C23 1.256 . S
C577 C93 1.269 . S
C583 C37 1.256 . S
C597 C51 1.263 . S
C603 C107 1.259 . S
C617 C65 1.254 . S
C623 C121 1.270 . S
C637 C135 1.267 . S
C643 C79 1.258 . S
