# Generated by pormake.
# Topology wjt, (5)-cn, num edge types: 1
# Building blocks:
#     Node 0, Type 0, BuildingBlock: XOMCOT_clean_sbu_1, # of connection points: 5
#     Node 1, Type 0, BuildingBlock: XOMCOT_clean_sbu_1, # of connection points: 5
#     Node 2, Type 0, BuildingBlock: XOMCOT_clean_sbu_1, # of connection points: 5
#     Node 3, Type 0, BuildingBlock: XOMCOT_clean_sbu_1, # of connection points: 5
#     Node 4, Type 0, BuildingBlock: XOMCOT_clean_sbu_1, # of connection points: 5
#     Node 5, Type 0, BuildingBlock: XOMCOT_clean_sbu_1, # of connection points: 5
#     Node 6, Type 0, BuildingBlock: XOMCOT_clean_sbu_1, # of connection points: 5
#     Node 7, Type 0, BuildingBlock: XOMCOT_clean_sbu_1, # of connection points: 5
#     Node 8, Type 0, BuildingBlock: XOMCOT_clean_sbu_1, # of connection points: 5
#     Node 9, Type 0, BuildingBlock: XOMCOT_clean_sbu_1, # of connection points: 5
#     Node 10, Type 0, BuildingBlock: XOMCOT_clean_sbu_1, # of connection points: 5
#     Node 11, Type 0, BuildingBlock: XOMCOT_clean_sbu_1, # of connection points: 5
#     Edge 12, Type (0, 0), BuildingBlock: TEMPAE_clean_linker_10, # of connection points: 2
#     Edge 13, Type (0, 0), BuildingBlock: TEMPAE_clean_linker_10, # of connection points: 2
#     Edge 14, Type (0, 0), BuildingBlock: TEMPAE_clean_linker_10, # of connection points: 2
#     Edge 15, Type (0, 0), BuildingBlock: TEMPAE_clean_linker_10, # of connection points: 2
#     Edge 16, Type (0, 0), BuildingBlock: TEMPAE_clean_linker_10, # of connection points: 2
#     Edge 17, Type (0, 0), BuildingBlock: TEMPAE_clean_linker_10, # of connection points: 2
#     Edge 18, Type (0, 0), BuildingBlock: TEMPAE_clean_linker_10, # of connection points: 2
#     Edge 19, Type (0, 0), BuildingBlock: TEMPAE_clean_linker_10, # of connection points: 2
#     Edge 20, Type (0, 0), BuildingBlock: TEMPAE_clean_linker_10, # of connection points: 2
#     Edge 21, Type (0, 0), BuildingBlock: TEMPAE_clean_linker_10, # of connection points: 2
#     Edge 22, Type (0, 0), BuildingBlock: TEMPAE_clean_linker_10, # of connection points: 2
#     Edge 23, Type (0, 0), BuildingBlock: TEMPAE_clean_linker_10, # of connection points: 2
#     Edge 24, Type (0, 0), BuildingBlock: TEMPAE_clean_linker_10, # of connection points: 2
#     Edge 25, Type (0, 0), BuildingBlock: TEMPAE_clean_linker_10, # of connection points: 2
#     Edge 26, Type (0, 0), BuildingBlock: TEMPAE_clean_linker_10, # of connection points: 2
#     Edge 27, Type (0, 0), BuildingBlock: TEMPAE_clean_linker_10, # of connection points: 2
#     Edge 28, Type (0, 0), BuildingBlock: TEMPAE_clean_linker_10, # of connection points: 2
#     Edge 29, Type (0, 0), BuildingBlock: TEMPAE_clean_linker_10, # of connection points: 2
#     Edge 30, Type (0, 0), BuildingBlock: TEMPAE_clean_linker_10, # of connection points: 2
#     Edge 31, Type (0, 0), BuildingBlock: TEMPAE_clean_linker_10, # of connection points: 2
#     Edge 32, Type (0, 0), BuildingBlock: TEMPAE_clean_linker_10, # of connection points: 2
#     Edge 33, Type (0, 0), BuildingBlock: TEMPAE_clean_linker_10, # of connection points: 2
#     Edge 34, Type (0, 0), BuildingBlock: TEMPAE_clean_linker_10, # of connection points: 2
#     Edge 35, Type (0, 0), BuildingBlock: TEMPAE_clean_linker_10, # of connection points: 2
#     Edge 36, Type (0, 0), BuildingBlock: TEMPAE_clean_linker_10, # of connection points: 2
#     Edge 37, Type (0, 0), BuildingBlock: TEMPAE_clean_linker_10, # of connection points: 2
#     Edge 38, Type (0, 0), BuildingBlock: TEMPAE_clean_linker_10, # of connection points: 2
#     Edge 39, Type (0, 0), BuildingBlock: TEMPAE_clean_linker_10, # of connection points: 2
#     Edge 40, Type (0, 0), BuildingBlock: TEMPAE_clean_linker_10, # of connection points: 2
#     Edge 41, Type (0, 0), BuildingBlock: TEMPAE_clean_linker_10, # of connection points: 2
# Relax obj value: 0.215
# Max RMSD: 0.163
# Mean RMSD: 0.163
data_MOF--net-wjt--node1-XOMCOT_clean_sbu_1--edge1-TEMPAE_clean_linker_10
_symmetry_space_group_name_H-M    P1
_symmetry_Int_Tables_number       1
_symmetry_cell_setting            triclinic
loop_
_symmetry_equiv_pos_as_xyz
'x, y, z'
_cell_length_a     69.444517
_cell_length_b     69.460884
_cell_length_c     17.408235
_cell_angle_alpha  90.001647
_cell_angle_beta   90.012329
_cell_angle_gamma 119.99197
loop_
_atom_site_label
_atom_site_type_symbol
_atom_site_fract_x
_atom_site_fract_y
_atom_site_fract_z
_atom_type_partial_charge
C0 C 0.29895 0.44996 0.28482 0.0
C1 C 0.29516 0.45041 0.36201 0.0
N2 N 0.29391 0.43222 0.39478 0.0
N3 N 0.29978 0.43145 0.26834 0.0
C4 C 0.29642 0.42085 0.33631 0.0
H5 H 0.30223 0.46301 0.24413 0.0
Co6 Co 0.30863 0.42604 0.17364 0.0
C7 C 0.30386 0.38151 0.19251 0.0
O8 O 0.29193 0.37448 0.12941 0.0
N9 N 0.31753 0.42107 0.07837 0.0
C10 C 0.33398 0.41345 0.98323 0.0
C11 C 0.33349 0.41605 0.0615 0.0
C12 C 0.30888 0.42182 0.0099 0.0
N13 N 0.31837 0.417 0.951 0.0
O14 O 0.27774 0.40697 0.14475 0.0
H15 H 0.34395 0.41423 0.10349 0.0
H16 H 0.29611 0.42623 0.00319 0.0
O17 O 0.31075 0.40128 0.21615 0.0
C18 C 0.2685 0.41815 0.12522 0.0
O19 O 0.28039 0.43994 0.12693 0.0
N20 N 0.33841 0.44588 0.20027 0.0
C21 C 0.38029 0.48066 0.24489 0.0
C22 C 0.36873 0.46138 0.2901 0.0
C23 C 0.34802 0.44408 0.26629 0.0
C24 C 0.3494 0.46416 0.15478 0.0
C25 C 0.37051 0.48143 0.17492 0.0
H26 H 0.33927 0.42977 0.30316 0.0
H27 H 0.34153 0.46559 0.10317 0.0
H28 H 0.29762 0.40605 0.34386 0.0
H29 H 0.29444 0.46369 0.39184 0.0
H30 H 0.34479 0.40903 0.95274 0.0
H31 H 0.37504 0.45983 0.34518 0.0
H32 H 0.37876 0.4954 0.13618 0.0
C33 C 0.85745 0.28017 0.57621 0.0
C34 C 0.85588 0.27627 0.65413 0.0
N35 N 0.87578 0.29016 0.68597 0.0
N36 N 0.87823 0.29646 0.55931 0.0
C37 C 0.88901 0.30217 0.62733 0.0
H38 H 0.84405 0.27227 0.5351 0.0
Co39 Co 0.88832 0.31031 0.46496 0.0
C40 C 0.93136 0.30892 0.46088 0.0
O41 O 0.92735 0.29761 0.39677 0.0
N42 N 0.8981 0.32437 0.36844 0.0
C43 C 0.90121 0.34518 0.26687 0.0
C44 C 0.89738 0.3425 0.34446 0.0
C45 C 0.90232 0.31633 0.30367 0.0
N46 N 0.90408 0.32854 0.24079 0.0
O47 O 0.87747 0.28143 0.41774 0.0
H48 H 0.89261 0.35227 0.37947 0.0
H49 H 0.90237 0.30084 0.30158 0.0
O50 O 0.91721 0.31374 0.48765 0.0
C51 C 0.85964 0.27582 0.38016 0.0
O52 O 0.85228 0.28996 0.37705 0.0
N53 N 0.89696 0.33792 0.51128 0.0
C54 C 0.90469 0.37861 0.56979 0.0
C55 C 0.92242 0.37599 0.54418 0.0
C56 C 0.91822 0.35543 0.51519 0.0
C57 C 0.8796 0.34012 0.53666 0.0
C58 C 0.88309 0.36024 0.56658 0.0
H59 H 0.93195 0.35392 0.49319 0.0
H60 H 0.86282 0.32625 0.53173 0.0
H61 H 0.90575 0.31593 0.63448 0.0
H62 H 0.8411 0.26462 0.68525 0.0
H63 H 0.89996 0.35735 0.23165 0.0
H64 H 0.93935 0.38976 0.5457 0.0
H65 H 0.86888 0.3616 0.58443 0.0
C66 C 0.54823 0.84965 0.92275 0.0
C67 C 0.54726 0.84533 0.00012 0.0
N68 N 0.56587 0.86157 0.03336 0.0
N69 N 0.56743 0.86841 0.90694 0.0
C70 C 0.57789 0.87516 0.97525 0.0
H71 H 0.53528 0.8403 0.88123 0.0
Co72 Co 0.57462 0.88269 0.81226 0.0
C73 C 0.61906 0.92243 0.8412 0.0
O74 O 0.62769 0.91849 0.7802 0.0
N75 N 0.58138 0.89671 0.71708 0.0
C76 C 0.59013 0.92092 0.62171 0.0
C77 C 0.58733 0.91792 0.69991 0.0
C78 C 0.58031 0.8871 0.64881 0.0
N79 N 0.58573 0.90146 0.58971 0.0
O80 O 0.5937 0.87043 0.79021 0.0
H81 H 0.58933 0.93036 0.74154 0.0
H82 H 0.57495 0.86967 0.6423 0.0
O83 O 0.59876 0.90926 0.8586 0.0
C84 C 0.58187 0.85022 0.76888 0.0
O85 O 0.56022 0.84177 0.76469 0.0
N86 N 0.55465 0.89285 0.83189 0.0
C87 C 0.51957 0.90033 0.8642 0.0
C88 C 0.53851 0.90933 0.91132 0.0
C89 C 0.55595 0.90544 0.89409 0.0
C90 C 0.53656 0.88428 0.78483 0.0
C91 C 0.51893 0.88803 0.79939 0.0
H92 H 0.56997 0.91173 0.93276 0.0
H93 H 0.53547 0.87381 0.73709 0.0
H94 H 0.59337 0.89051 0.98312 0.0
H95 H 0.53349 0.83169 0.02964 0.0
H96 H 0.59502 0.93623 0.59104 0.0
H97 H 0.53961 0.9189 0.96196 0.0
H98 H 0.50447 0.88049 0.7623 0.0
C99 C 0.7002 0.54682 0.26936 0.0
C100 C 0.70319 0.54634 0.34719 0.0
N101 N 0.70798 0.56619 0.37732 0.0
N102 N 0.70299 0.5668 0.2501 0.0
C103 C 0.70825 0.57842 0.31637 0.0
H104 H 0.69459 0.53294 0.23026 0.0
Co105 Co 0.6948 0.57297 0.15591 0.0
C106 C 0.70127 0.61814 0.17517 0.0
O107 O 0.71286 0.62482 0.1113 0.0
N108 N 0.68638 0.57879 0.06037 0.0
C109 C 0.66838 0.58514 0.96683 0.0
C110 C 0.66965 0.58286 0.04499 0.0
C111 C 0.695 0.57875 0.99097 0.0
N112 N 0.68449 0.5827 0.93343 0.0
O113 O 0.72588 0.59071 0.12861 0.0
H114 H 0.65887 0.58381 0.08785 0.0
H115 H 0.70828 0.5752 0.9818 0.0
O116 O 0.69399 0.59832 0.19887 0.0
C117 C 0.7327 0.57807 0.10184 0.0
O118 O 0.71841 0.55665 0.09702 0.0
N119 N 0.66473 0.55416 0.18231 0.0
C120 C 0.6226 0.5203 0.22898 0.0
C121 C 0.63489 0.5395 0.274 0.0
C122 C 0.65572 0.55634 0.24919 0.0
C123 C 0.653 0.53601 0.13682 0.0
C124 C 0.63175 0.51922 0.15798 0.0
H125 H 0.66512 0.57048 0.28627 0.0
H126 H 0.66041 0.53424 0.08459 0.0
H127 H 0.71078 0.59502 0.32018 0.0
H128 H 0.70026 0.53179 0.37917 0.0
H129 H 0.65659 0.58833 0.9369 0.0
H130 H 0.62912 0.54126 0.32983 0.0
H131 H 0.62292 0.50531 0.11934 0.0
C132 C 0.16315 0.71327 0.70887 0.0
C133 C 0.16686 0.7176 0.78594 0.0
N134 N 0.15167 0.72253 0.81353 0.0
N135 N 0.14571 0.71543 0.68738 0.0
C136 C 0.13918 0.7213 0.75197 0.0
H137 H 0.1718 0.70764 0.67163 0.0
Co138 Co 0.13247 0.7071 0.59147 0.0
C139 C 0.09064 0.7086 0.60591 0.0
O140 O 0.09362 0.71825 0.53862 0.0
N141 N 0.11947 0.69841 0.49491 0.0
C142 C 0.09704 0.67984 0.39777 0.0
C143 C 0.09989 0.68032 0.4761 0.0
C144 C 0.12819 0.7086 0.42748 0.0
N145 N 0.11482 0.69774 0.36773 0.0
O146 O 0.14373 0.73798 0.56444 0.0
H147 H 0.08845 0.66823 0.5167 0.0
H148 H 0.14432 0.72338 0.42172 0.0
O149 O 0.10509 0.70414 0.63223 0.0
C150 C 0.16461 0.74813 0.55115 0.0
O151 O 0.17533 0.73717 0.55998 0.0
N152 N 0.12324 0.67745 0.61581 0.0
C153 C 0.11575 0.63502 0.64993 0.0
C154 C 0.10309 0.64315 0.68537 0.0
C155 C 0.10729 0.6646 0.66828 0.0
C156 C 0.13544 0.66967 0.58007 0.0
C157 C 0.13202 0.64853 0.59641 0.0
H158 H 0.09806 0.67093 0.69866 0.0
H159 H 0.14823 0.68021 0.53964 0.0
H160 H 0.12497 0.72369 0.75419 0.0
H161 H 0.17888 0.71567 0.81956 0.0
H162 H 0.083 0.66739 0.36541 0.0
H163 H 0.09057 0.63329 0.72774 0.0
H164 H 0.14207 0.64281 0.56764 0.0
C165 C 0.44718 0.15614 0.01997 0.0
C166 C 0.44645 0.15972 0.09706 0.0
N167 N 0.42645 0.14421 0.12457 0.0
N168 N 0.42778 0.13848 -0.0017 0.0
C169 C 0.41538 0.13166 0.06288 0.0
H170 H 0.46147 0.16499 0.9829 0.0
Co171 Co 0.42338 0.1253 0.90245 0.0
C172 C 0.3795 0.08418 0.91342 0.0
O173 O 0.37337 0.08812 0.84659 0.0
N174 N 0.41958 0.11235 0.8059 0.0
C175 C 0.41576 0.08975 0.70931 0.0
C176 C 0.41808 0.09273 0.78764 0.0
C177 C 0.41814 0.12094 0.73814 0.0
N178 N 0.41564 0.10748 0.67877 0.0
O179 O 0.40426 0.13697 0.87297 0.0
H180 H 0.41859 0.0813 0.82866 0.0
H181 H 0.41936 0.137 0.7318 0.0
O182 O 0.39844 0.09801 0.94132 0.0
C183 C 0.4154 0.15775 0.85832 0.0
O184 O 0.43707 0.16806 0.86738 0.0
N185 N 0.44334 0.11566 0.92953 0.0
C186 C 0.47775 0.10791 0.97014 0.0
C187 C 0.45664 0.09551 0.00368 0.0
C188 C 0.43967 0.09984 0.98331 0.0
C189 C 0.46361 0.12757 0.89544 0.0
C190 C 0.48107 0.124 0.91498 0.0
H191 H 0.42388 0.09088 0.01249 0.0
H192 H 0.46634 0.1403 0.85401 0.0
H193 H 0.39898 0.11718 0.06509 0.0
H194 H 0.46029 0.17187 0.1308 0.0
H195 H 0.41412 0.07564 0.67733 0.0
H196 H 0.45353 0.08316 0.04728 0.0
H197 H 0.4971 0.13385 0.88756 0.0
C198 C 0.55338 0.69883 0.36312 0.0
C199 C 0.55147 0.70249 0.28668 0.0
N200 N 0.56986 0.70545 0.25014 0.0
N201 N 0.57282 0.69935 0.37484 0.0
C202 C 0.58274 0.70389 0.30517 0.0
H203 H 0.54084 0.69478 0.40676 0.0
Co204 Co 0.58038 0.69158 0.46813 0.0
C205 C 0.60453 0.66907 0.41428 0.0
O206 O 0.59066 0.65165 0.45489 0.0
N207 N 0.58802 0.68507 0.5646 0.0
C208 C 0.60644 0.68297 0.6662 0.0
C209 C 0.60538 0.68273 0.58741 0.0
C210 C 0.57957 0.68782 0.63105 0.0
N211 N 0.59029 0.68635 0.6934 0.0
O212 O 0.60142 0.72246 0.48752 0.0
H213 H 0.61794 0.68291 0.5506 0.0
H214 H 0.56636 0.69177 0.63345 0.0
O215 O 0.6033 0.68691 0.41623 0.0
C216 C 0.59118 0.73211 0.51292 0.0
O217 O 0.56945 0.72056 0.51951 0.0
N218 N 0.55778 0.6612 0.45057 0.0
C219 C 0.52123 0.61878 0.41906 0.0
C220 C 0.53683 0.63118 0.36194 0.0
C221 C 0.55489 0.65204 0.37885 0.0
C222 C 0.54261 0.6496 0.50669 0.0
C223 C 0.52461 0.62827 0.49277 0.0
H224 H 0.56647 0.66093 0.33323 0.0
H225 H 0.5439 0.65691 0.56235 0.0
H226 H 0.59819 0.70418 0.29371 0.0
H227 H 0.53721 0.702 0.25952 0.0
H228 H 0.61916 0.68245 0.70066 0.0
H229 H 0.53494 0.62527 0.30341 0.0
H230 H 0.51334 0.61953 0.53956 0.0
C231 C 0.86885 0.57657 0.72611 0.0
C232 C 0.86897 0.58057 0.64874 0.0
N233 N 0.88957 0.58742 0.62114 0.0
N234 N 0.88927 0.58093 0.74745 0.0
C235 C 0.90157 0.58767 0.68271 0.0
H236 H 0.85449 0.56969 0.7634 0.0
Co237 Co 0.8967 0.57436 0.84188 0.0
C238 C 0.94561 0.606 0.86234 0.0
O239 O 0.94713 0.59275 0.9127 0.0
N240 N 0.90352 0.5671 0.93891 0.0
C241 C 0.90527 0.54784 0.03821 0.0
C242 C 0.9025 0.54788 0.96018 0.0
C243 C 0.90716 0.57851 0.00548 0.0
N244 N 0.90803 0.56705 0.06666 0.0
O245 O 0.88583 0.59215 0.89085 0.0
H246 H 0.89897 0.53415 0.92263 0.0
H247 H 0.90793 0.59442 0.00976 0.0
O248 O 0.92682 0.60053 0.83148 0.0
C249 C 0.86709 0.57981 0.92328 0.0
O250 O 0.85871 0.55814 0.92135 0.0
N251 N 0.90465 0.55512 0.79233 0.0
C252 C 0.90847 0.52022 0.72853 0.0
C253 C 0.92727 0.54135 0.73791 0.0
C254 C 0.92499 0.5587 0.76905 0.0
C255 C 0.88611 0.535 0.77988 0.0
C256 C 0.88763 0.51731 0.74857 0.0
H257 H 0.93963 0.57475 0.77355 0.0
H258 H 0.87006 0.5325 0.79718 0.0
H259 H 0.91873 0.59167 0.68049 0.0
H260 H 0.85455 0.57716 0.61482 0.0
H261 H 0.90446 0.53434 0.07179 0.0
H262 H 0.9436 0.54448 0.72111 0.0
H263 H 0.87265 0.5013 0.74255 0.0
C264 C 0.28039 0.85748 0.01561 0.0
C265 C 0.27607 0.85665 0.93842 0.0
N266 N 0.29003 0.87669 0.90786 0.0
N267 N 0.29696 0.87799 0.0342 0.0
C268 C 0.30233 0.88942 0.9673 0.0
H269 H 0.27267 0.84353 0.05449 0.0
Co270 Co 0.31127 0.88576 0.1292 0.0
C271 C 0.33203 0.93486 0.14306 0.0
O272 O 0.34797 0.93524 0.18482 0.0
N273 N 0.32524 0.89273 0.22668 0.0
C274 C 0.34466 0.89419 0.33036 0.0
C275 C 0.34222 0.89028 0.25272 0.0
C276 C 0.31783 0.89834 0.29008 0.0
N277 N 0.32917 0.8991 0.35418 0.0
O278 O 0.28301 0.87617 0.17937 0.0
H279 H 0.35178 0.88498 0.21926 0.0
H280 H 0.3039 0.90121 0.28946 0.0
O281 O 0.31637 0.9163 0.11735 0.0
C282 C 0.27548 0.85647 0.20504 0.0
O283 O 0.28731 0.84673 0.19351 0.0
N284 N 0.33826 0.89261 0.07948 0.0
C285 C 0.37676 0.8958 0.01533 0.0
C286 C 0.37271 0.91366 0.01103 0.0
C287 C 0.35327 0.91167 0.04265 0.0
C288 C 0.34105 0.87454 0.07844 0.0
C289 C 0.36031 0.87587 0.04838 0.0
H290 H 0.35036 0.92537 0.03538 0.0
H291 H 0.32858 0.8592 0.1046 0.0
H292 H 0.31597 0.90625 0.96115 0.0
H293 H 0.26423 0.8421 0.90665 0.0
H294 H 0.35609 0.89212 0.36697 0.0
H295 H 0.38435 0.92904 0.98282 0.0
H296 H 0.36248 0.86153 0.0532 0.0
C297 C 0.45408 0.30303 0.36682 0.0
C298 C 0.45479 0.29856 0.29024 0.0
N299 N 0.4357 0.29488 0.25734 0.0
N300 N 0.43461 0.30215 0.382 0.0
C301 C 0.42361 0.29678 0.31444 0.0
H302 H 0.46734 0.30775 0.40809 0.0
Co303 Co 0.4272 0.30951 0.47597 0.0
C304 C 0.40117 0.33055 0.43088 0.0
O305 O 0.41428 0.34718 0.47596 0.0
N306 N 0.41951 0.31542 0.5727 0.0
C307 C 0.39739 0.30946 0.67338 0.0
C308 C 0.39926 0.31175 0.59511 0.0
C309 C 0.42928 0.31457 0.63885 0.0
N310 N 0.41624 0.31112 0.70055 0.0
O311 O 0.40709 0.27848 0.49661 0.0
H312 H 0.38549 0.30804 0.55748 0.0
H313 H 0.44442 0.31373 0.64085 0.0
O314 O 0.40347 0.31336 0.42636 0.0
C315 C 0.41801 0.26942 0.52112 0.0
O316 O 0.4398 0.28145 0.52338 0.0
N317 N 0.44881 0.34016 0.45722 0.0
C318 C 0.48406 0.383 0.42168 0.0
C319 C 0.4677 0.37026 0.36708 0.0
C320 C 0.4503 0.34918 0.38599 0.0
C321 C 0.46464 0.35218 0.511 0.0
C322 C 0.48201 0.37371 0.49513 0.0
H323 H 0.43822 0.33991 0.34202 0.0
H324 H 0.46445 0.34506 0.56604 0.0
H325 H 0.40753 0.29541 0.30623 0.0
H326 H 0.46885 0.29945 0.2601 0.0
H327 H 0.38264 0.30506 0.70705 0.0
H328 H 0.46856 0.37602 0.30878 0.0
H329 H 0.4939 0.38272 0.54014 0.0
C330 C 0.1523 0.45863 0.68887 0.0
C331 C 0.1574 0.46133 0.61197 0.0
N332 N 0.14318 0.44233 0.57566 0.0
N333 N 0.13482 0.43811 0.70076 0.0
C334 C 0.12983 0.42842 0.63083 0.0
H335 H 0.16004 0.47121 0.7329 0.0
Co336 Co 0.12012 0.42867 0.79419 0.0
C337 C 0.07307 0.40239 0.74514 0.0
O338 O 0.06855 0.41419 0.79322 0.0
N339 N 0.10641 0.41923 0.89051 0.0
C340 C 0.08725 0.39837 0.99048 0.0
C341 C 0.08835 0.39985 0.91179 0.0
C342 C 0.11666 0.42847 0.95761 0.0
N343 N 0.10517 0.41635 0.019 0.0
O344 O 0.13157 0.40868 0.80747 0.0
H345 H 0.0776 0.38653 0.87368 0.0
H346 H 0.13295 0.44315 0.96132 0.0
O347 O 0.09289 0.40553 0.74101 0.0
C348 C 0.15156 0.41986 0.83165 0.0
O349 O 0.16045 0.44148 0.83927 0.0
N350 N 0.11099 0.45032 0.78324 0.0
C351 C 0.1055 0.48732 0.75975 0.0
C352 C 0.09831 0.47036 0.70465 0.0
C353 C 0.10173 0.45241 0.71651 0.0
C354 C 0.11815 0.46672 0.83724 0.0
C355 C 0.11541 0.48517 0.82706 0.0
H356 H 0.09748 0.44051 0.67056 0.0
H357 H 0.12731 0.46639 0.88657 0.0
H358 H 0.11574 0.41211 0.61955 0.0
H359 H 0.16999 0.47636 0.58442 0.0
H360 H 0.07518 0.38438 0.02395 0.0
H361 H 0.09059 0.47115 0.6516 0.0
H362 H 0.12208 0.49818 0.87004 0.0
C363 C 0.68973 0.14487 0.06229 0.0
C364 C 0.69174 0.1498 0.98518 0.0
N365 N 0.69505 0.1347 0.94801 0.0
N366 N 0.69148 0.1266 0.07331 0.0
C367 C 0.6951 0.12099 0.00275 0.0
H368 H 0.6859 0.15324 0.10705 0.0
Co369 Co 0.68543 0.11169 0.16621 0.0
C370 C 0.6668 0.06473 0.11928 0.0
O371 O 0.64997 0.05967 0.1655 0.0
N372 N 0.68018 0.09759 0.26288 0.0
C373 C 0.68253 0.07896 0.36357 0.0
C374 C 0.68351 0.08077 0.28492 0.0
C375 C 0.67845 0.10642 0.33001 0.0
N376 N 0.67954 0.09527 0.39162 0.0
O377 O 0.71688 0.124 0.18351 0.0
H378 H 0.68852 0.07164 0.24764 0.0
H379 H 0.67828 0.12185 0.33438 0.0
O380 O 0.68279 0.08489 0.1144 0.0
C381 C 0.72364 0.14202 0.22124 0.0
O382 O 0.70918 0.14843 0.23693 0.0
N383 N 0.65467 0.10188 0.1502 0.0
C384 C 0.61263 0.09651 0.11697 0.0
C385 C 0.62278 0.08844 0.06682 0.0
C386 C 0.64393 0.09181 0.08335 0.0
C387 C 0.64506 0.10991 0.19937 0.0
C388 C 0.62406 0.10721 0.18442 0.0
H389 H 0.65198 0.08708 0.04038 0.0
H390 H 0.65421 0.11988 0.24783 0.0
H391 H 0.69602 0.10619 0.99066 0.0
H392 H 0.68994 0.16285 0.95813 0.0
H393 H 0.68586 0.06791 0.3977 0.0
H394 H 0.6148 0.08015 0.01378 0.0
H395 H 0.61747 0.11462 0.22348 0.0
C396 C 0.23885 0.39204 0.03407 0.0
C397 C 0.24583 0.40797 0.09272 0.0
C398 C 0.22017 0.38731 0.98845 0.0
C399 C 0.20831 0.39871 0.00248 0.0
C400 C 0.21415 0.41311 0.06665 0.0
C401 C 0.23288 0.41765 0.11046 0.0
C402 C 0.214 0.37131 0.92216 0.0
C403 C 0.20196 0.42549 0.08481 0.0
C404 C 0.18765 0.42133 0.84583 0.0
C405 C 0.16465 0.40966 0.85824 0.0
C406 C 0.20189 0.41634 0.88733 0.0
C407 C 0.19294 0.39931 0.94352 0.0
C408 C 0.16951 0.38601 0.95099 0.0
C409 C 0.15556 0.39138 0.90814 0.0
C410 C 0.2267 0.43092 0.87644 0.0
C411 C 0.15919 0.36743 0.0089 0.0
H412 H 0.24893 0.38462 0.02004 0.0
H413 H 0.23825 0.4299 0.15609 0.0
H414 H 0.19643 0.35789 0.92802 0.0
H415 H 0.21533 0.37999 0.86722 0.0
H416 H 0.22476 0.36371 0.91892 0.0
H417 H 0.207 0.43412 0.14117 0.0
H418 H 0.20551 0.4381 0.03958 0.0
H419 H 0.18374 0.41394 0.08552 0.0
H420 H 0.19469 0.43544 0.80699 0.0
H421 H 0.13777 0.38243 0.91837 0.0
H422 H 0.23488 0.42074 0.8731 0.0
H423 H 0.23382 0.44221 0.92654 0.0
H424 H 0.23082 0.44122 0.82363 0.0
H425 H 0.16892 0.35879 0.01433 0.0
H426 H 0.14178 0.3551 0.99313 0.0
H427 H 0.15893 0.3744 0.06598 0.0
C428 C 0.76515 0.15835 0.20635 0.0
C429 C 0.74688 0.15617 0.24794 0.0
C430 C 0.78698 0.17516 0.22514 0.0
C431 C 0.79042 0.19 0.28659 0.0
C432 C 0.77209 0.1865 0.33233 0.0
C433 C 0.75066 0.1697 0.31245 0.0
C434 C 0.80609 0.17791 0.17612 0.0
C435 C 0.77478 0.20164 0.39885 0.0
C436 C 0.84447 0.23442 0.37691 0.0
C437 C 0.84603 0.25363 0.34451 0.0
C438 C 0.8276 0.21313 0.35342 0.0
C439 C 0.81204 0.21117 0.29664 0.0
C440 C 0.81507 0.23055 0.25887 0.0
C441 C 0.83197 0.25146 0.28329 0.0
C442 C 0.82539 0.1929 0.39369 0.0
C443 C 0.79915 0.22943 0.19752 0.0
H444 H 0.76234 0.14786 0.15665 0.0
H445 H 0.73662 0.16779 0.34582 0.0
H446 H 0.8104 0.19142 0.13387 0.0
H447 H 0.82107 0.18262 0.21166 0.0
H448 H 0.80177 0.16245 0.14397 0.0
H449 H 0.75925 0.1954 0.43289 0.0
H450 H 0.78823 0.20345 0.43774 0.0
H451 H 0.77953 0.21843 0.37675 0.0
H452 H 0.85537 0.23599 0.42406 0.0
H453 H 0.83339 0.26628 0.25705 0.0
H454 H 0.82024 0.17889 0.35289 0.0
H455 H 0.81239 0.18749 0.43869 0.0
H456 H 0.84122 0.19648 0.42171 0.0
H457 H 0.79633 0.21658 0.15421 0.0
H458 H 0.80531 0.2456 0.16762 0.0
H459 H 0.78285 0.2247 0.22413 0.0
C460 C 0.61355 0.76093 0.61033 0.0
C461 C 0.60251 0.75534 0.53948 0.0
C462 C 0.61687 0.77995 0.65073 0.0
C463 C 0.60875 0.79341 0.61948 0.0
C464 C 0.59987 0.78904 0.54404 0.0
C465 C 0.59667 0.76994 0.50536 0.0
C466 C 0.62677 0.78414 0.73024 0.0
C467 C 0.59117 0.80295 0.50779 0.0
C468 C 0.57756 0.81312 0.7448 0.0
C469 C 0.59132 0.83629 0.74322 0.0
C470 C 0.5838 0.79904 0.70896 0.0
C471 C 0.60447 0.80825 0.67028 0.0
C472 C 0.61924 0.83156 0.67326 0.0
C473 C 0.61246 0.84539 0.70966 0.0
C474 C 0.56744 0.77433 0.70799 0.0
C475 C 0.64161 0.84204 0.63432 0.0
H476 H 0.61767 0.74939 0.63745 0.0
H477 H 0.58787 0.76541 0.45095 0.0
H478 H 0.6372 0.80222 0.74157 0.0
H479 H 0.6132 0.77715 0.77338 0.0
H480 H 0.63701 0.7761 0.73846 0.0
H481 H 0.58812 0.79966 0.44523 0.0
H482 H 0.57527 0.79911 0.53568 0.0
H483 H 0.60305 0.8209 0.51633 0.0
H484 H 0.56133 0.80595 0.77166 0.0
H485 H 0.62318 0.86328 0.70825 0.0
H486 H 0.57565 0.7649 0.7263 0.0
H487 H 0.56122 0.76901 0.6486 0.0
H488 H 0.55294 0.76969 0.74614 0.0
H489 H 0.64944 0.83159 0.64125 0.0
H490 H 0.65303 0.85891 0.65739 0.0
H491 H 0.63944 0.8436 0.57192 0.0
C492 C 0.85124 0.60537 0.92612 0.0
C493 C 0.85397 0.58865 0.96056 0.0
C494 C 0.83434 0.60955 0.95119 0.0
C495 C 0.82008 0.59678 0.01214 0.0
C496 C 0.82439 0.58151 0.05165 0.0
C497 C 0.84114 0.57754 0.02502 0.0
C498 C 0.83057 0.62622 0.90818 0.0
C499 C 0.80995 0.56772 0.11762 0.0
C500 C 0.77426 0.60382 0.10619 0.0
C501 C 0.75539 0.58651 0.07083 0.0
C502 C 0.7958 0.60862 0.08426 0.0
C503 C 0.79837 0.5959 0.02547 0.0
C504 C 0.77932 0.57968 0.98577 0.0
C505 C 0.75817 0.57515 0.00919 0.0
C506 C 0.81563 0.62623 0.12743 0.0
C507 C 0.78109 0.56588 0.922 0.0
H508 H 0.86111 0.61395 0.87608 0.0
H509 H 0.84341 0.56477 0.05229 0.0
H510 H 0.81657 0.61732 0.86737 0.0
H511 H 0.82604 0.63576 0.94814 0.0
H512 H 0.84553 0.63803 0.87493 0.0
H513 H 0.81732 0.55898 0.14874 0.0
H514 H 0.80728 0.57829 0.15905 0.0
H515 H 0.79342 0.55508 0.09528 0.0
H516 H 0.77217 0.61266 0.15383 0.0
H517 H 0.74362 0.562 0.98079 0.0
H518 H 0.82971 0.63609 0.08783 0.0
H519 H 0.82125 0.61814 0.16982 0.0
H520 H 0.81156 0.63766 0.15887 0.0
H521 H 0.7937 0.57672 0.87919 0.0
H522 H 0.76501 0.55563 0.89188 0.0
H523 H 0.78655 0.5546 0.94618 0.0
C524 C 0.19941 0.78364 0.52854 0.0
C525 C 0.1766 0.77027 0.51423 0.0
C526 C 0.21305 0.80139 0.47996 0.0
C527 C 0.20367 0.80581 0.41475 0.0
C528 C 0.18025 0.79382 0.40458 0.0
C529 C 0.16691 0.77613 0.45471 0.0
C530 C 0.23786 0.81367 0.49384 0.0
C531 C 0.16957 0.79849 0.33716 0.0
C532 C 0.24693 0.85509 0.29809 0.0
C533 C 0.25439 0.84427 0.24854 0.0
C534 C 0.22918 0.84277 0.34945 0.0
C535 C 0.21877 0.81923 0.35067 0.0
C536 C 0.22525 0.80835 0.29637 0.0
C537 C 0.24295 0.82099 0.2464 0.0
C538 C 0.22234 0.85492 0.40499 0.0
C539 C 0.21459 0.78331 0.29454 0.0
H540 H 0.20691 0.77924 0.57497 0.0
H541 H 0.14927 0.76579 0.44339 0.0
H542 H 0.24593 0.80792 0.45183 0.0
H543 H 0.24503 0.83181 0.4855 0.0
H544 H 0.24209 0.81076 0.55264 0.0
H545 H 0.15112 0.78891 0.34031 0.0
H546 H 0.17514 0.81648 0.33454 0.0
H547 H 0.17487 0.79414 0.2829 0.0
H548 H 0.25571 0.8731 0.29978 0.0
H549 H 0.24845 0.81255 0.2073 0.0
H550 H 0.22622 0.85233 0.46461 0.0
H551 H 0.20412 0.84813 0.40185 0.0
H552 H 0.23092 0.87306 0.39328 0.0
H553 H 0.21858 0.77746 0.34837 0.0
H554 H 0.22041 0.77743 0.24516 0.0
H555 H 0.19624 0.77541 0.29102 0.0
C556 C 0.39018 0.24036 0.60991 0.0
C557 C 0.40739 0.24705 0.55617 0.0
C558 C 0.38474 0.22228 0.6596 0.0
C559 C 0.39688 0.21086 0.65522 0.0
C560 C 0.41273 0.21632 0.59575 0.0
C561 C 0.41781 0.23437 0.54736 0.0
C562 C 0.36737 0.21681 0.72069 0.0
C563 C 0.42609 0.20465 0.58806 0.0
C564 C 0.41622 0.19308 0.82995 0.0
C565 C 0.40569 0.16999 0.82001 0.0
C566 C 0.41187 0.20642 0.78075 0.0
C567 C 0.39655 0.19644 0.7196 0.0
C568 C 0.38421 0.17291 0.71394 0.0
C569 C 0.38895 0.15988 0.76433 0.0
C570 C 0.42523 0.23138 0.79018 0.0
C571 C 0.36709 0.16166 0.6516 0.0
H572 H 0.38223 0.25027 0.61742 0.0
H573 H 0.43109 0.23952 0.50561 0.0
H574 H 0.35874 0.1989 0.73591 0.0
H575 H 0.37547 0.22655 0.77325 0.0
H576 H 0.35484 0.2213 0.70168 0.0
H577 H 0.43591 0.20918 0.53403 0.0
H578 H 0.43775 0.20926 0.63726 0.0
H579 H 0.41506 0.18636 0.58933 0.0
H580 H 0.42897 0.20091 0.87365 0.0
H581 H 0.38074 0.14202 0.75647 0.0
H582 H 0.41405 0.23847 0.79209 0.0
H583 H 0.43648 0.23885 0.74018 0.0
H584 H 0.43547 0.2364 0.8433 0.0
H585 H 0.35765 0.1433 0.65852 0.0
H586 H 0.37532 0.16565 0.59461 0.0
H587 H 0.35525 0.168 0.65181 0.0
C588 C 0.48089 0.58943 0.43882 0.0
C589 C 0.50118 0.59676 0.40025 0.0
C590 C 0.46166 0.56954 0.41808 0.0
C591 C 0.46236 0.55702 0.35507 0.0
C592 C 0.48274 0.56402 0.31658 0.0
C593 C 0.50193 0.58341 0.34078 0.0
C594 C 0.44043 0.56224 0.46248 0.0
C595 C 0.48412 0.55152 0.24774 0.0
C596 C 0.41603 0.49733 0.32221 0.0
C597 C 0.40175 0.50017 0.27199 0.0
C598 C 0.43551 0.51564 0.35106 0.0
C599 C 0.44154 0.53736 0.32658 0.0
C600 C 0.42764 0.5404 0.27449 0.0
C601 C 0.40776 0.52193 0.24943 0.0
C602 C 0.4495 0.51175 0.40859 0.0
C603 C 0.43374 0.56323 0.24512 0.0
H604 H 0.47969 0.59948 0.48404 0.0
H605 H 0.51749 0.58822 0.31185 0.0
H606 H 0.42835 0.56411 0.42615 0.0
H607 H 0.43271 0.54442 0.47822 0.0
H608 H 0.44329 0.57213 0.51574 0.0
H609 H 0.50125 0.55907 0.2243 0.0
H610 H 0.4784 0.534 0.2632 0.0
H611 H 0.47294 0.5513 0.20172 0.0
H612 H 0.41211 0.48079 0.33935 0.0
H613 H 0.39684 0.52477 0.21279 0.0
H614 H 0.45181 0.52173 0.46116 0.0
H615 H 0.46624 0.51731 0.38449 0.0
H616 H 0.4419 0.49398 0.42512 0.0
H617 H 0.4338 0.57372 0.29324 0.0
H618 H 0.42201 0.5626 0.20045 0.0
H619 H 0.45075 0.57152 0.22045 0.0
C620 C 0.89513 0.48595 0.64766 0.0
C621 C 0.91051 0.50106 0.70052 0.0
C622 C 0.89577 0.46686 0.62529 0.0
C623 C 0.91215 0.46267 0.65674 0.0
C624 C 0.9281 0.47816 0.70854 0.0
C625 C 0.92712 0.49719 0.72967 0.0
C626 C 0.87859 0.45088 0.56932 0.0
C627 C 0.94576 0.47428 0.74354 0.0
C628 C 0.89704 0.40199 0.66075 0.0
C629 C 0.90831 0.40057 0.59607 0.0
C630 C 0.89868 0.42224 0.68237 0.0
C631 C 0.91183 0.44156 0.63802 0.0
C632 C 0.92378 0.44039 0.57397 0.0
C633 C 0.92192 0.41991 0.55387 0.0
C634 C 0.88586 0.42281 0.75154 0.0
C635 C 0.93791 0.46058 0.52509 0.0
H636 H 0.88244 0.48899 0.6241 0.0
H637 H 0.93892 0.50867 0.77114 0.0
H638 H 0.88686 0.4479 0.51994 0.0
H639 H 0.86801 0.43463 0.5978 0.0
H640 H 0.86769 0.4571 0.54715 0.0
H641 H 0.95773 0.48853 0.77923 0.0
H642 H 0.93782 0.45918 0.78011 0.0
H643 H 0.95509 0.4713 0.69781 0.0
H644 H 0.88672 0.38716 0.69415 0.0
H645 H 0.93048 0.41889 0.50335 0.0
H646 H 0.87313 0.42707 0.73326 0.0
H647 H 0.89718 0.43589 0.79223 0.0
H648 H 0.87738 0.40664 0.78234 0.0
H649 H 0.92719 0.46608 0.49655 0.0
H650 H 0.94724 0.45724 0.4802 0.0
H651 H 0.94995 0.47455 0.56149 0.0
C652 C 0.48885 0.90788 0.82985 0.0
C653 C 0.49987 0.90228 0.88528 0.0
C654 C 0.46933 0.90829 0.84815 0.0
C655 C 0.46043 0.90257 0.92331 0.0
C656 C 0.4717 0.89721 0.97976 0.0
C657 C 0.49135 0.89728 0.96019 0.0
C658 C 0.45805 0.91449 0.78675 0.0
C659 C 0.46262 0.89072 0.06026 0.0
C660 C 0.41827 0.918 0.99674 0.0
C661 C 0.3981 0.898 0.98708 0.0
C662 C 0.43861 0.91994 0.97426 0.0
C663 C 0.4389 0.90133 0.94242 0.0
C664 C 0.41863 0.88122 0.93132 0.0
C665 C 0.39851 0.87986 0.95308 0.0
C666 C 0.45984 0.94176 0.98615 0.0
C667 C 0.41822 0.86095 0.89795 0.0
H668 H 0.49548 0.91191 0.77203 0.0
H669 H 0.49966 0.89264 0.00294 0.0
H670 H 0.44139 0.90009 0.77415 0.0
H671 H 0.45553 0.9282 0.80731 0.0
H672 H 0.46779 0.91978 0.73255 0.0
H673 H 0.47368 0.88758 0.09793 0.0
H674 H 0.46037 0.90401 0.08647 0.0
H675 H 0.44604 0.87544 0.05836 0.0
H676 H 0.41829 0.93206 0.02379 0.0
H677 H 0.38306 0.86447 0.94367 0.0
H678 H 0.46943 0.94723 0.93178 0.0
H679 H 0.47042 0.93963 0.02914 0.0
H680 H 0.45666 0.95509 0.0064 0.0
H681 H 0.42621 0.86487 0.84055 0.0
H682 H 0.40105 0.84664 0.89213 0.0
H683 H 0.42789 0.85589 0.93524 0.0
C684 C 0.58762 0.50427 0.31033 0.0
C685 C 0.60117 0.50107 0.25769 0.0
C686 C 0.56839 0.48618 0.34151 0.0
C687 C 0.56183 0.46432 0.31708 0.0
C688 C 0.57488 0.46094 0.26223 0.0
C689 C 0.59455 0.47919 0.23476 0.0
C690 C 0.55533 0.49044 0.40183 0.0
C691 C 0.56817 0.43796 0.23285 0.0
C692 C 0.52451 0.41277 0.43487 0.0
C693 C 0.50361 0.40512 0.40026 0.0
C694 C 0.54329 0.43265 0.41125 0.0
C695 C 0.5415 0.44484 0.34923 0.0
C696 C 0.52051 0.43757 0.31489 0.0
C697 C 0.5018 0.41818 0.34196 0.0
C698 C 0.56522 0.44024 0.45133 0.0
C699 C 0.51794 0.44971 0.24721 0.0
H700 H 0.59199 0.52092 0.3278 0.0
H701 H 0.60489 0.47606 0.19619 0.0
H702 H 0.53813 0.48448 0.38146 0.0
H703 H 0.55412 0.48102 0.45483 0.0
H704 H 0.56304 0.50835 0.41664 0.0
H705 H 0.57906 0.43834 0.18543 0.0
H706 H 0.56895 0.42769 0.28018 0.0
H707 H 0.55075 0.42959 0.21186 0.0
H708 H 0.52654 0.40296 0.47904 0.0
H709 H 0.48579 0.41311 0.31608 0.0
H710 H 0.57317 0.45815 0.46612 0.0
H711 H 0.57671 0.43818 0.41239 0.0
H712 H 0.56326 0.43066 0.50471 0.0
H713 H 0.52415 0.46738 0.26196 0.0
H714 H 0.5004 0.44218 0.22788 0.0
H715 H 0.52812 0.44947 0.19844 0.0
C716 C 0.10055 0.5191 0.80494 0.0
C717 C 0.10425 0.50786 0.74471 0.0
C718 C 0.10105 0.53933 0.79226 0.0
C719 C 0.10497 0.54843 0.71731 0.0
C720 C 0.10792 0.53683 0.6558 0.0
C721 C 0.10776 0.51687 0.67031 0.0
C722 C 0.09803 0.5513 0.8595 0.0
C723 C 0.11192 0.54584 0.57484 0.0
C724 C 0.09146 0.59391 0.66927 0.0
C725 C 0.11265 0.6129 0.67023 0.0
C726 C 0.08862 0.57278 0.68511 0.0
C727 C 0.10738 0.57072 0.70369 0.0
C728 C 0.12872 0.58997 0.70673 0.0
C729 C 0.13111 0.61078 0.68936 0.0
C730 C 0.06566 0.55263 0.68004 0.0
C731 C 0.1491 0.58857 0.72758 0.0
H732 H 0.09746 0.51218 0.86238 0.0
H733 H 0.11107 0.50869 0.62338 0.0
H734 H 0.11342 0.56754 0.86811 0.0
H735 H 0.08439 0.55481 0.84766 0.0
H736 H 0.09423 0.54159 0.91363 0.0
H737 H 0.11203 0.53393 0.53247 0.0
H738 H 0.0989 0.54983 0.55799 0.0
H739 H 0.12816 0.5615 0.57182 0.0
H740 H 0.07719 0.59553 0.65408 0.0
H741 H 0.14747 0.6255 0.69109 0.0
H742 H 0.06137 0.54319 0.73474 0.0
H743 H 0.06532 0.54136 0.6342 0.0
H744 H 0.05271 0.55711 0.66733 0.0
H745 H 0.1466 0.58008 0.78373 0.0
H746 H 0.16431 0.60521 0.73107 0.0
H747 H 0.15188 0.57854 0.68408 0.0
C748 C 0.57573 0.09278 0.15306 0.0
C749 C 0.59124 0.09549 0.09619 0.0
C750 C 0.55639 0.09354 0.13477 0.0
C751 C 0.55223 0.09674 0.05753 0.0
C752 C 0.56738 0.09871 -0.00051 0.0
C753 C 0.58675 0.09828 0.01953 0.0
C754 C 0.54074 0.09156 0.19843 0.0
C755 C 0.56347 0.10194 0.91631 0.0
C756 C 0.49403 0.08349 -0.002 0.0
C757 C 0.49651 0.10478 0.99447 0.0
C758 C 0.51198 0.08055 0.01878 0.0
C759 C 0.53274 0.09933 0.03775 0.0
C760 C 0.53513 0.12081 0.03587 0.0
C761 C 0.51706 0.12328 0.01371 0.0
C762 C 0.50886 0.05743 0.01891 0.0
C763 C 0.55685 0.14122 0.05686 0.0
H764 H 0.57878 0.09026 0.21225 0.0
H765 H 0.59871 0.10084 0.97506 0.0
H766 H 0.54009 0.10717 0.20244 0.0
H767 H 0.52365 0.07795 0.18565 0.0
H768 H 0.54589 0.08829 0.25511 0.0
H769 H 0.57587 0.10138 0.87742 0.0
H770 H 0.54659 0.08892 0.89823 0.0
H771 H 0.56439 0.11824 0.9091 0.0
H772 H 0.47819 0.06919 0.98274 0.0
H773 H 0.51892 0.13973 0.01206 0.0
H774 H 0.51311 0.05358 0.07613 0.0
H775 H 0.52031 0.05647 0.97665 0.0
H776 H 0.49155 0.04454 0.00439 0.0
H777 H 0.56208 0.13932 0.11528 0.0
H778 H 0.55571 0.15661 0.05546 0.0
H779 H 0.57007 0.14323 0.01641 0.0
C780 C 0.32039 0.3723 0.30435 0.0
C781 C 0.31313 0.36845 0.22784 0.0
C782 C 0.3321 0.3625 0.3356 0.0
C783 C 0.33724 0.349 0.28862 0.0
C784 C 0.32908 0.34427 0.2123 0.0
C785 C 0.31691 0.35386 0.18308 0.0
C786 C 0.34003 0.36763 0.41778 0.0
C787 C 0.33452 0.33035 0.15978 0.0
C788 C 0.39183 0.35271 0.34361 0.0
C789 C 0.38475 0.33291 0.38424 0.0
C790 C 0.37652 0.3575 0.3087 0.0
C791 C 0.35345 0.34236 0.31642 0.0
C792 C 0.34621 0.32188 0.35509 0.0
C793 C 0.36203 0.31727 0.38803 0.0
C794 C 0.38507 0.37928 0.26652 0.0
C795 C 0.3218 0.30547 0.36559 0.0
H796 H 0.31741 0.38345 0.33936 0.0
H797 H 0.31151 0.35097 0.12367 0.0
H798 H 0.33644 0.35219 0.44851 0.0
H799 H 0.3583 0.37892 0.41874 0.0
H800 H 0.33211 0.37575 0.44951 0.0
H801 H 0.32477 0.32597 0.1056 0.0
H802 H 0.35247 0.33973 0.14505 0.0
H803 H 0.33131 0.31482 0.18888 0.0
H804 H 0.40945 0.36478 0.3408 0.0
H805 H 0.35661 0.3021 0.42048 0.0
H806 H 0.38057 0.39025 0.29879 0.0
H807 H 0.37725 0.37642 0.20894 0.0
H808 H 0.40342 0.38815 0.25928 0.0
H809 H 0.31449 0.31257 0.40539 0.0
H810 H 0.31889 0.28941 0.38953 0.0
H811 H 0.31284 0.30227 0.31013 0.0
C812 C 0.04239 0.39484 0.65583 0.0
C813 C 0.05537 0.38727 0.69201 0.0
C814 C 0.02361 0.38044 0.61257 0.0
C815 C 0.01723 0.35768 0.60706 0.0
C816 C 0.03076 0.35007 0.64134 0.0
C817 C 0.04992 0.36508 0.68282 0.0
C818 C 0.01006 0.38947 0.57555 0.0
C819 C 0.02435 0.32589 0.63789 0.0
C820 C 0.95493 0.32195 0.57873 0.0
C821 C 0.95329 0.31828 0.49924 0.0
C822 C 0.97569 0.33341 0.61529 0.0
C823 C 0.9954 0.34185 0.57107 0.0
C824 C 0.99385 0.33731 0.49119 0.0
C825 C 0.97277 0.32536 0.45631 0.0
C826 C 0.97648 0.33744 0.70079 0.0
C827 C 0.0144 0.34631 0.4417 0.0
H828 H 0.04675 0.41208 0.66258 0.0
H829 H 0.0599 0.35923 0.71143 0.0
H830 H 0.0068 0.38438 0.51435 0.0
H831 H 0.99372 0.38249 0.60474 0.0
H832 H 0.01849 0.40789 0.57865 0.0
H833 H 0.03776 0.32307 0.65984 0.0
H834 H 0.00921 0.31596 0.67304 0.0
H835 H 0.02029 0.3196 0.57811 0.0
H836 H 0.93992 0.31621 0.61233 0.0
H837 H 0.97159 0.32265 0.39475 0.0
H838 H 0.9829 0.35537 0.71185 0.0
H839 H 0.98799 0.3329 0.72896 0.0
H840 H 0.95983 0.32783 0.72795 0.0
H841 H 0.02203 0.36462 0.43663 0.0
H842 H 0.01059 0.33904 0.38303 0.0
H843 H 0.02694 0.34298 0.46837 0.0
C844 C 0.67994 0.03899 0.07483 0.0
C845 C 0.66533 0.04726 0.06762 0.0
C846 C 0.67573 0.01944 0.03608 0.0
C847 C 0.65668 0.00825 0.98844 0.0
C848 C 0.6427 0.01746 0.97775 0.0
C849 C 0.64703 0.03666 0.01832 0.0
C850 C 0.69087 0.01003 0.04986 0.0
C851 C 0.62247 0.00642 0.92643 0.0
C852 C 0.6477 0.963 0.84526 0.0
C853 C 0.63136 0.94389 0.88274 0.0
C854 C 0.65694 0.98405 0.88024 0.0
C855 C 0.64999 0.98596 0.955 0.0
C856 C 0.63456 0.96649 0.99484 0.0
C857 C 0.62526 0.94578 0.95792 0.0
C858 C 0.67307 0.00437 0.83532 0.0
C859 C 0.62697 0.96762 0.07517 0.0
H860 H 0.6939 0.04707 0.11404 0.0
H861 H 0.63569 0.04307 0.01327 0.0
H862 H 0.68195 0.99461 0.0845 0.0
H863 H 0.69554 0.00549 0.99468 0.0
H864 H 0.70626 0.02191 0.08095 0.0
H865 H 0.61469 0.0169 0.91812 0.0
H866 H 0.62699 0.00275 0.86936 0.0
H867 H 0.60992 0.99037 0.9521 0.0
H868 H 0.65239 0.96169 0.78694 0.0
H869 H 0.61276 0.93109 0.98745 0.0
H870 H 0.68775 0.0154 0.87095 0.0
H871 H 0.66488 0.014 0.81904 0.0
H872 H 0.67884 0.99997 0.7821 0.0
H873 H 0.64147 0.97804 0.11248 0.0
H874 H 0.61718 0.9509 0.10166 0.0
H875 H 0.61645 0.97548 0.0735 0.0
C876 C 0.64402 0.6827 0.37482 0.0
C877 C 0.62131 0.66725 0.36791 0.0
C878 C 0.66005 0.67834 0.34222 0.0
C879 C 0.65305 0.65831 0.30084 0.0
C880 C 0.63004 0.64343 0.28991 0.0
C881 C 0.61451 0.64796 0.3244 0.0
C882 C 0.68438 0.69447 0.35599 0.0
C883 C 0.62175 0.62214 0.24485 0.0
C884 C 0.68986 0.64709 0.16824 0.0
C885 C 0.69277 0.63172 0.21168 0.0
C886 C 0.67807 0.65702 0.19808 0.0
C887 C 0.66935 0.65174 0.27359 0.0
C888 C 0.67376 0.63753 0.31958 0.0
C889 C 0.68518 0.62751 0.28781 0.0
C890 C 0.67352 0.67181 0.14674 0.0
C891 C 0.66521 0.63178 0.40092 0.0
H892 H 0.64924 0.69747 0.40946 0.0
H893 H 0.5969 0.63604 0.31912 0.0
H894 H 0.69113 0.68695 0.39635 0.0
H895 H 0.69392 0.69801 0.3017 0.0
H896 H 0.68719 0.7104 0.38085 0.0
H897 H 0.60348 0.61347 0.23561 0.0
H898 H 0.63009 0.62561 0.18806 0.0
H899 H 0.62586 0.61073 0.27612 0.0
H900 H 0.69557 0.65033 0.1092 0.0
H901 H 0.68754 0.61579 0.3219 0.0
H902 H 0.67651 0.68699 0.17789 0.0
H903 H 0.65579 0.6628 0.1291 0.0
H904 H 0.68398 0.67682 0.09414 0.0
H905 H 0.66889 0.64702 0.43318 0.0
H906 H 0.6726 0.62309 0.43222 0.0
H907 H 0.64689 0.62079 0.40004 0.0
C908 C 0.06705 0.69792 0.72386 0.0
C909 C 0.06864 0.69838 0.6436 0.0
C910 C 0.04639 0.68554 0.7607 0.0
C911 C 0.02702 0.67246 0.71626 0.0
C912 C 0.02851 0.67342 0.63497 0.0
C913 C 0.04926 0.6867 0.59964 0.0
C914 C 0.04553 0.6856 0.84732 0.0
C915 C 0.00853 0.65913 0.5853 0.0
C916 C 0.98347 0.61897 0.81073 0.0
C917 C 0.96631 0.62348 0.82635 0.0
C918 C 1.00304 0.63463 0.77381 0.0
C919 C 0.00598 0.65574 0.75452 0.0
C920 C 0.98885 0.66057 0.77148 0.0
C921 C 0.96896 0.64416 0.80575 0.0
C922 C 0.02044 0.62839 0.75444 0.0
C923 C 0.99169 0.68314 0.75443 0.0
H924 H 0.08205 0.70694 0.7579 0.0
H925 H 0.05054 0.68674 0.53755 0.0
H926 H 0.03086 0.68657 0.86736 0.0
H927 H 0.04393 0.66993 0.86983 0.0
H928 H 0.06078 0.69973 0.87221 0.0
H929 H 0.01199 0.6632 0.52331 0.0
H930 H 1.00349 0.64138 0.59363 0.0
H931 H 0.99421 0.66108 0.60222 0.0
H932 H 0.98132 0.60285 0.82554 0.0
H933 H 0.95568 0.64763 0.81792 0.0
H934 H 0.03605 0.63931 0.78597 0.0
H935 H 0.02434 0.63085 0.69215 0.0
H936 H 0.015 0.61085 0.76922 0.0
H937 H 0.00682 0.6962 0.78363 0.0
H938 H 0.97716 0.68453 0.7735 0.0
H939 H 0.99407 0.68656 0.6919 0.0
C940 C 0.36763 0.05937 0.02856 0.0
C941 C 0.3669 0.06188 0.94891 0.0
C942 C 0.35862 0.03818 0.06196 0.0
C943 C 0.3494 0.01908 0.01427 0.0
C944 C 0.34784 0.02151 0.93403 0.0
C945 C 0.35631 0.04288 0.90248 0.0
C946 C 0.36007 0.03635 0.14792 0.0
C947 C 0.33884 1.00174 0.88069 0.0
C948 C 0.35729 0.97194 0.08679 0.0
C949 C 0.33577 0.95605 0.10981 0.0
C950 C 0.36173 0.9922 0.05422 0.0
C951 C 0.34435 0.99713 0.04678 0.0
C952 C 0.32253 0.98121 0.07055 0.0
C953 C 0.3184 0.96061 0.1005 0.0
C954 C 0.38508 0.00829 0.02736 0.0
C955 C 0.30372 0.98612 0.0657 0.0
H956 H 0.37576 0.07403 0.06464 0.0
H957 H 0.35597 0.04477 0.84075 0.0
H958 H 0.34403 0.02299 0.17108 0.0
H959 H 0.37296 0.03191 0.16175 0.0
H960 H 0.36447 0.05219 0.17759 0.0
H961 H 0.33656 0.00606 0.82123 0.0
H962 H 0.35058 0.99529 0.87896 0.0
H963 H 0.3227 0.9881 0.90189 0.0
H964 H 0.3707 0.96831 0.09285 0.0
H965 H 0.30176 0.94833 0.11846 0.0
H966 H 0.39207 0.02387 0.06126 0.0
H967 H 0.38485 0.01273 0.96627 0.0
H968 H 0.39637 1.00135 0.03311 0.0
H969 H 0.30788 1.00118 0.09998 0.0
H970 H 0.28779 0.9721 0.08712 0.0
H971 H 0.30138 0.98971 0.00544 0.0
C972 C 0.30202 0.44557 0.52897 0.0
C973 C 0.29428 0.42803 0.4759 0.0
C974 C 0.30439 0.4422 0.60693 0.0
C975 C 0.29909 0.4208 0.63268 0.0
C976 C 0.29069 0.40286 0.58021 0.0
C977 C 0.28827 0.40666 0.50251 0.0
C978 C 0.31325 0.46175 0.66134 0.0
C979 C 0.2848 0.37978 0.60579 0.0
C980 C 0.32912 0.42064 0.8143 0.0
C981 C 0.31301 0.41625 0.87065 0.0
C982 C 0.3245 0.42132 0.73623 0.0
C983 C 0.30329 0.4176 0.71403 0.0
C984 C 0.2867 0.41238 0.77028 0.0
C985 C 0.29175 0.41173 0.84788 0.0
C986 C 0.34259 0.42682 0.67774 0.0
C987 C 0.26388 0.40831 0.749 0.0
H988 H 0.30703 0.46221 0.50954 0.0
H989 H 0.28192 0.3929 0.46247 0.0
H990 H 0.30177 0.45783 0.71067 0.0
H991 H 0.32953 0.46519 0.68479 0.0
H992 H 0.3155 0.47706 0.63296 0.0
H993 H 0.27752 0.36742 0.55859 0.0
H994 H 0.29993 0.37992 0.62719 0.0
H995 H 0.27277 0.37432 0.65404 0.0
H996 H 0.34559 0.42427 0.83133 0.0
H997 H 0.27903 0.40782 0.89081 0.0
H998 H 0.3475 0.4431 0.65074 0.0
H999 H 0.33639 0.41418 0.63131 0.0
H1000 H 0.3576 0.42764 0.7037 0.0
H1001 H 0.26507 0.42424 0.73164 0.0
H1002 H 0.252 0.40127 0.79761 0.0
H1003 H 0.25707 0.39678 0.69943 0.0
C1004 C 0.9104 0.33888 0.10356 0.0
C1005 C 0.90409 0.32267 0.16111 0.0
C1006 C 0.90741 0.33307 0.02555 0.0
C1007 C 0.89835 0.31052 0.00425 0.0
C1008 C 0.89333 0.29424 0.06156 0.0
C1009 C 0.89606 0.30045 0.13928 0.0
C1010 C 0.91285 0.35093 0.96617 0.0
C1011 C 0.88412 0.27008 0.04097 0.0
C1012 C 0.86528 0.29277 0.81885 0.0
C1013 C 0.88106 0.29379 0.76643 0.0
C1014 C 0.87066 0.29791 0.89658 0.0
C1015 C 0.89223 0.30379 0.92278 0.0
C1016 C 0.90801 0.3041 0.87054 0.0
C1017 C 0.90232 0.29939 0.79263 0.0
C1018 C 0.85347 0.29775 0.95015 0.0
C1019 C 0.93102 0.30981 0.89643 0.0
H1020 H 0.91711 0.35613 0.11954 0.0
H1021 H 0.89094 0.28766 0.18261 0.0
H1022 H 0.92411 0.35056 0.92181 0.0
H1023 H 0.89737 0.34777 0.93662 0.0
H1024 H 0.92083 0.36782 0.99185 0.0
H1025 H 0.88377 0.26001 0.09112 0.0
H1026 H 0.86691 0.26306 0.01892 0.0
H1027 H 0.89419 0.26843 0.99468 0.0
H1028 H 0.84896 0.28875 0.79839 0.0
H1029 H 0.91446 0.30004 0.75203 0.0
H1030 H 0.85972 0.31461 0.97456 0.0
H1031 H 0.85042 0.28629 -0.00109 0.0
H1032 H 0.83739 0.29255 0.9208 0.0
H1033 H 0.94099 0.32789 0.90834 0.0
H1034 H 0.93983 0.30558 0.8522 0.0
H1035 H 0.9302 0.30093 0.95039 0.0
C1036 C 0.59212 0.87998 0.14073 0.0
C1037 C 0.57037 0.86575 0.11447 0.0
C1038 C 0.59641 0.88601 0.21842 0.0
C1039 C 0.57857 0.8774 0.27131 0.0
C1040 C 0.55674 0.86236 0.24595 0.0
C1041 C 0.5529 0.85681 0.1679 0.0
C1042 C 0.61992 0.90212 0.24345 0.0
C1043 C 0.53729 0.8527 0.30087 0.0
C1044 C 0.58854 0.87876 0.48589 0.0
C1045 C 0.58563 0.89649 0.50925 0.0
C1046 C 0.58692 0.87271 0.4083 0.0
C1047 C 0.58243 0.88479 0.35267 0.0
C1048 C 0.58031 0.90321 0.37537 0.0
C1049 C 0.58187 0.9088 0.45341 0.0
C1050 C 0.58931 0.85299 0.38626 0.0
C1051 C 0.57566 0.91659 0.31747 0.0
H1052 H 0.60581 0.88666 0.10042 0.0
H1053 H 0.53601 0.84604 0.14864 0.0
H1054 H 0.62094 0.9177 0.26441 0.0
H1055 H 0.62478 0.89505 0.29185 0.0
H1056 H 0.63209 0.90634 0.19605 0.0
H1057 H 0.52157 0.84024 0.27283 0.0
H1058 H 0.54067 0.84466 0.35005 0.0
H1059 H 0.53491 0.8662 0.32449 0.0
H1060 H 0.59194 0.86946 0.52836 0.0
H1061 H 0.57943 0.92239 0.47082 0.0
H1062 H 0.60152 0.85747 0.33895 0.0
H1063 H 0.57314 0.83937 0.36499 0.0
H1064 H 0.59472 0.84663 0.43539 0.0
H1065 H 0.58812 0.92235 0.27052 0.0
H1066 H 0.57595 0.9313 0.34379 0.0
H1067 H 0.55909 0.90597 0.29108 0.0
C1068 C 0.67163 0.57243 0.80023 0.0
C1069 C 0.68907 0.58299 0.85292 0.0
C1070 C 0.67594 0.57101 0.72232 0.0
C1071 C 0.69824 0.58089 0.69654 0.0
C1072 C 0.71592 0.5923 0.74922 0.0
C1073 C 0.7111 0.59296 0.82707 0.0
C1074 C 0.65664 0.55831 0.66815 0.0
C1075 C 0.73988 0.60356 0.72356 0.0
C1076 C 0.70845 0.5572 0.5149 0.0
C1077 C 0.7081 0.57139 0.45803 0.0
C1078 C 0.70558 0.5603 0.59277 0.0
C1079 C 0.70297 0.57844 0.61502 0.0
C1080 C 0.70392 0.59362 0.559 0.0
C1081 C 0.70624 0.58982 0.4813 0.0
C1082 C 0.70448 0.54362 0.65091 0.0
C1083 C 0.70172 0.61349 0.58077 0.0
H1084 H 0.65463 0.56454 0.82066 0.0
H1085 H 0.72454 0.60131 0.86802 0.0
H1086 H 0.65753 0.56913 0.61984 0.0
H1087 H 0.65754 0.54408 0.64312 0.0
H1088 H 0.64032 0.55185 0.6972 0.0
H1089 H 0.75159 0.61298 0.77083 0.0
H1090 H 0.74391 0.59098 0.70187 0.0
H1091 H 0.74261 0.61516 0.67552 0.0
H1092 H 0.71046 0.54328 0.49883 0.0
H1093 H 0.70593 0.60107 0.43921 0.0
H1094 H 0.68794 0.53537 0.67921 0.0
H1095 H 0.71712 0.55214 0.69646 0.0
H1096 H 0.70723 0.53064 0.62446 0.0
H1097 H 0.68454 0.60781 0.60078 0.0
H1098 H 0.70539 0.62508 0.53181 0.0
H1099 H 0.71313 0.62272 0.62886 0.0
C1100 C 0.11433 0.68712 0.23304 0.0
C1101 C 0.1193 0.70361 0.28812 0.0
C1102 C 0.1198 0.69267 0.15567 0.0
C1103 C 0.12994 0.71523 0.13271 0.0
C1104 C 0.13425 0.7319 0.18785 0.0
C1105 C 0.12925 0.7259 0.26531 0.0
C1106 C 0.11537 0.67445 0.09891 0.0
C1107 C 0.14451 0.75609 0.16604 0.0
C1108 C 0.16343 0.72814 0.94962 0.0
C1109 C 0.14736 0.72447 0.89363 0.0
C1110 C 0.1583 0.72619 0.02808 0.0
C1111 C 0.13678 0.72115 0.05142 0.0
C1112 C 0.12117 0.71957 0.99596 0.0
C1113 C 0.12651 0.72092 0.9177 0.0
C1114 C 0.17551 0.72829 0.08572 0.0
C1115 C 0.09842 0.71532 0.01895 0.0
H1116 H 0.10686 0.66994 0.25113 0.0
H1117 H 0.13293 0.73862 0.30812 0.0
H1118 H 0.10417 0.67403 0.05272 0.0
H1119 H 0.13118 0.67785 0.07138 0.0
H1120 H 0.10765 0.6578 0.12638 0.0
H1121 H 0.13962 0.76513 0.20706 0.0
H1122 H 0.16289 0.76396 0.16779 0.0
H1123 H 0.13962 0.75818 0.1073 0.0
H1124 H 0.17987 0.73178 0.93232 0.0
H1125 H 0.11389 0.71823 0.8759 0.0
H1126 H 0.16937 0.71231 0.11669 0.0
H1127 H 0.17835 0.74114 0.12911 0.0
H1128 H 0.19166 0.73278 0.05829 0.0
H1129 H 0.08762 0.69745 0.03281 0.0
H1130 H 0.09041 0.71966 0.97207 0.0
H1131 H 0.09942 0.72506 0.07086 0.0
C1132 C 0.42572 0.10706 0.54399 0.0
C1133 C 0.41399 0.11173 0.59912 0.0
C1134 C 0.42545 0.11244 0.46659 0.0
C1135 C 0.41258 0.12211 0.44369 0.0
C1136 C 0.39999 0.12607 0.49894 0.0
C1137 C 0.40121 0.12122 0.5764 0.0
C1138 C 0.43955 0.10847 0.4098 0.0
C1139 C 0.38561 0.13584 0.47716 0.0
C1140 C 0.43245 0.15583 0.2608 0.0
C1141 C 0.4203 0.13971 0.20469 0.0
C1142 C 0.42942 0.15061 0.33922 0.0
C1143 C 0.41333 0.12893 0.36243 0.0
C1144 C 0.39954 0.11319 0.30687 0.0
C1145 C 0.40337 0.11865 0.22863 0.0
C1146 C 0.44435 0.16792 0.3969 0.0
C1147 C 0.38144 0.09023 0.32982 0.0
H1148 H 0.43576 0.09994 0.56208 0.0
H1149 H 0.39202 0.12467 0.61931 0.0
H1150 H 0.42895 0.09722 0.36338 0.0
H1151 H 0.45174 0.12442 0.38256 0.0
H1152 H 0.44875 0.10101 0.43718 0.0
H1153 H 0.37209 0.13136 0.51967 0.0
H1154 H 0.39593 0.15422 0.47586 0.0
H1155 H 0.37805 0.13014 0.41951 0.0
H1156 H 0.44495 0.1724 0.24361 0.0
H1157 H 0.39363 0.10598 0.18672 0.0
H1158 H 0.4545 0.16208 0.42756 0.0
H1159 H 0.43421 0.17047 0.44056 0.0
H1160 H 0.45574 0.18418 0.36956 0.0
H1161 H 0.389 0.08012 0.34733 0.0
H1162 H 0.36967 0.08154 0.28193 0.0
H1163 H 0.37196 0.09114 0.37969 0.0
C1164 C 0.5943 0.71702 0.13627 0.0
C1165 C 0.57295 0.70551 0.16831 0.0
C1166 C 0.5976 0.71578 0.05718 0.0
C1167 C 0.57913 0.70237 0.00948 0.0
C1168 C 0.55749 0.69111 0.04132 0.0
C1169 C 0.55466 0.69292 0.1202 0.0
C1170 C 0.62088 0.7283 0.02507 0.0
C1171 C 0.5374 0.67637 0.99271 0.0
C1172 C 0.58317 0.70757 0.79176 0.0
C1173 C 0.58718 0.69032 0.7722 0.0
C1174 C 0.58101 0.71208 0.86897 0.0
C1175 C 0.58248 0.6987 0.92754 0.0
C1176 C 0.58644 0.6812 0.90778 0.0
C1177 C 0.58896 0.67738 0.83034 0.0
C1178 C 0.5773 0.73119 0.88787 0.0
C1179 C 0.58774 0.66631 0.96835 0.0
H1180 H 0.60841 0.72688 0.1733 0.0
H1181 H 0.53817 0.68368 0.14481 0.0
H1182 H 0.62603 0.71636 0.00537 0.0
H1183 H 0.62142 0.73826 0.97442 0.0
H1184 H 0.63312 0.73958 0.06821 0.0
H1185 H 0.52161 0.66967 0.02547 0.0
H1186 H 0.53654 0.68573 0.94246 0.0
H1187 H 0.53886 0.6622 0.97023 0.0
H1188 H 0.58224 0.71784 0.74668 0.0
H1189 H 0.59202 0.66403 0.81482 0.0
H1190 H 0.59075 0.74314 0.92619 0.0
H1191 H 0.56139 0.72501 0.91927 0.0
H1192 H 0.57688 0.74016 0.83566 0.0
H1193 H 0.60124 0.67637 0.0097 0.0
H1194 H 0.59086 0.65342 0.94329 0.0
H1195 H 0.57196 0.65792 0.0013 0.0
C1196 C 0.89504 0.55566 0.19906 0.0
C1197 C 0.90794 0.57247 0.14635 0.0
C1198 C 0.89382 0.56062 0.27622 0.0
C1199 C 0.90601 0.58294 0.3016 0.0
C1200 C 0.91933 0.6 0.24895 0.0
C1201 C 0.91999 0.59457 0.17159 0.0
C1202 C 0.87918 0.54195 0.33032 0.0
C1203 C 0.9328 0.62393 0.27431 0.0
C1204 C 0.88342 0.59327 0.48528 0.0
C1205 C 0.89599 0.58985 0.54119 0.0
C1206 C 0.88728 0.59226 0.40668 0.0
C1207 C 0.90439 0.58813 0.38331 0.0
C1208 C 0.91822 0.58634 0.43909 0.0
C1209 C 0.91377 0.58706 0.51729 0.0
C1210 C 0.87211 0.59421 0.34887 0.0
C1211 C 0.93687 0.58226 0.41637 0.0
H1212 H 0.88536 0.53863 0.17943 0.0
H1213 H 0.93005 0.60754 0.13084 0.0
H1214 H 0.88923 0.54121 0.37856 0.0
H1215 H 0.86631 0.54508 0.3554 0.0
H1216 H 0.87074 0.52551 0.30128 0.0
H1217 H 0.94277 0.63513 0.22666 0.0
H1218 H 0.92162 0.62967 0.29717 0.0
H1219 H 0.94421 0.62544 0.32154 0.0
H1220 H 0.87005 0.59604 0.50283 0.0
H1221 H 0.92364 0.58432 0.55927 0.0
H1222 H 0.86153 0.57784 0.32106 0.0
H1223 H 0.88196 0.60617 0.30293 0.0
H1224 H 0.86111 0.59964 0.37578 0.0
H1225 H 0.92978 0.56498 0.3949 0.0
H1226 H 0.94807 0.58457 0.46541 0.0
H1227 H 0.94687 0.59359 0.36919 0.0
C1228 C 0.33956 0.9063 0.49119 0.0
C1229 C 0.32368 0.90088 0.43297 0.0
C1230 C 0.33371 0.90472 0.56896 0.0
C1231 C 0.3115 0.89806 0.58924 0.0
C1232 C 0.29577 0.89421 0.53095 0.0
C1233 C 0.30196 0.89544 0.45353 0.0
C1234 C 0.35097 0.90878 0.6293 0.0
C1235 C 0.27201 0.88747 0.55 0.0
C1236 C 0.29132 0.8655 0.77467 0.0
C1237 C 0.29395 0.88194 0.82728 0.0
C1238 C 0.29647 0.87049 0.69684 0.0
C1239 C 0.30428 0.89244 0.67055 0.0
C1240 C 0.30631 0.909 0.72279 0.0
C1241 C 0.30132 0.90359 0.80086 0.0
C1242 C 0.29426 0.85237 0.64323 0.0
C1243 C 0.31398 0.93243 0.69634 0.0
H1244 H 0.35649 0.91106 0.47609 0.0
H1245 H 0.28943 0.89108 0.40958 0.0
H1246 H 0.35149 0.92052 0.67352 0.0
H1247 H 0.34646 0.89291 0.65882 0.0
H1248 H 0.36787 0.91557 0.60441 0.0
H1249 H 0.26351 0.89019 0.50065 0.0
H1250 H 0.26273 0.86954 0.5649 0.0
H1251 H 0.2712 0.89687 0.60023 0.0
H1252 H 0.286 0.84884 0.79488 0.0
H1253 H 0.30315 0.91625 0.84133 0.0
H1254 H 0.31076 0.85697 0.61863 0.0
H1255 H 0.28311 0.85045 0.59464 0.0
H1256 H 0.28755 0.83606 0.67259 0.0
H1257 H 0.33135 0.94023 0.67525 0.0
H1258 H 0.31323 0.94294 0.74302 0.0
H1259 H 0.30356 0.93221 0.64764 0.0
C1260 C 0.43967 0.31991 0.81527 0.0
C1261 C 0.41978 0.30594 0.77708 0.0
C1262 C 0.44244 0.31626 0.89274 0.0
C1263 C 0.42501 0.29794 0.93188 0.0
C1264 C 0.40541 0.283 0.89183 0.0
C1265 C 0.40295 0.28732 0.81493 0.0
C1266 C 0.46352 0.33263 0.93367 0.0
C1267 C 0.38673 0.26296 0.93092 0.0
C1268 C 0.43889 0.28322 0.12643 0.0
C1269 C 0.43135 0.29389 0.17626 0.0
C1270 C 0.43638 0.28379 0.04655 0.0
C1271 C 0.42644 0.29565 0.01616 0.0
C1272 C 0.41841 0.30608 0.06639 0.0
C1273 C 0.42087 0.30497 0.14582 0.0
C1274 C 0.4447 0.27209 0.99469 0.0
C1275 C 0.40784 0.31903 0.03619 0.0
H1276 H 0.45262 0.33421 0.78531 0.0
H1277 H 0.38777 0.27628 0.78432 0.0
H1278 H 0.45959 0.34155 0.97833 0.0
H1279 H 0.47099 0.32378 0.96324 0.0
H1280 H 0.47604 0.34509 0.8938 0.0
H1281 H 0.37356 0.25191 0.88983 0.0
H1282 H 0.39322 0.25321 0.96039 0.0
H1283 H 0.37908 0.26847 0.97542 0.0
H1284 H 0.44687 0.27454 0.15011 0.0
H1285 H 0.41538 0.31357 0.18408 0.0
H1286 H 0.45849 0.28444 0.95845 0.0
H1287 H 0.43126 0.26062 0.95536 0.0
H1288 H 0.45076 0.26245 0.02757 0.0
H1289 H 0.41999 0.33308 0.0003 0.0
H1290 H 0.40207 0.32578 0.08306 0.0
H1291 H 0.39343 0.30825 -0.00094 0.0
C1292 C 0.14241 0.45625 0.44659 0.0
C1293 C 0.14017 0.43897 0.49416 0.0
C1294 C 0.13777 0.45279 0.36787 0.0
C1295 C 0.13107 0.43164 0.33587 0.0
C1296 C 0.12952 0.41433 0.38319 0.0
C1297 C 0.13385 0.41816 0.46214 0.0
C1298 C 0.13929 0.47156 0.31947 0.0
C1299 C 0.12285 0.39169 0.35072 0.0
C1300 C 0.09589 0.41551 0.15537 0.0
C1301 C 0.11181 0.42029 0.09815 0.0
C1302 C 0.10196 0.41912 0.23304 0.0
C1303 C 0.12446 0.42734 0.25382 0.0
C1304 C 0.14059 0.43195 0.1962 0.0
C1305 C 0.13406 0.42847 0.11881 0.0
C1306 C 0.08436 0.41442 0.29272 0.0
C1307 C 0.16463 0.44024 0.21623 0.0
H1308 H 0.14697 0.47225 0.4716 0.0
H1309 H 0.13227 0.40489 0.49908 0.0
H1310 H 0.15063 0.47482 0.27013 0.0
H1311 H 0.12267 0.46678 0.29563 0.0
H1312 H 0.14539 0.48719 0.35277 0.0
H1313 H 0.12403 0.38059 0.39406 0.0
H1314 H 0.10548 0.38368 0.32943 0.0
H1315 H 0.13358 0.39334 0.30104 0.0
H1316 H 0.07872 0.40928 0.13896 0.0
H1317 H 0.14627 0.43172 0.07446 0.0
H1318 H 0.08885 0.42978 0.32568 0.0
H1319 H 0.08338 0.40185 0.33424 0.0
H1320 H 0.06765 0.40823 0.26684 0.0
H1321 H 0.17107 0.4549 0.25471 0.0
H1322 H 0.17537 0.44489 0.16442 0.0
H1323 H 0.16599 0.42707 0.24765 0.0
C1324 C 0.69575 0.12418 0.4912 0.0
C1325 C 0.68169 0.10193 0.47059 0.0
C1326 C 0.69898 0.13068 0.56859 0.0
C1327 C 0.68744 0.11458 0.62628 0.0
C1328 C 0.67295 0.09213 0.60546 0.0
C1329 C 0.67049 0.08603 0.52774 0.0
C1330 C 0.71498 0.15466 0.58864 0.0
C1331 C 0.66002 0.07457 0.6652 0.0
C1332 C 0.70796 0.12412 0.8325 0.0
C1333 C 0.6943 0.1312 0.86651 0.0
C1334 C 0.70642 0.11933 0.75367 0.0
C1335 C 0.69043 0.12116 0.70852 0.0
C1336 C 0.67672 0.12848 0.74263 0.0
C1337 C 0.67898 0.13363 0.82116 0.0
C1338 C 0.72165 0.11201 0.71898 0.0
C1339 C 0.65915 0.13017 0.69677 0.0
H1340 H 0.7047 0.13635 0.44676 0.0
H1341 H 0.65965 0.06886 0.51121 0.0
H1342 H 0.72812 0.15568 0.62757 0.0
H1343 H 0.72304 0.16497 0.53696 0.0
H1344 H 0.70612 0.16185 0.61978 0.0
H1345 H 0.64891 0.05803 0.63918 0.0
H1346 H 0.67164 0.07303 0.70507 0.0
H1347 H 0.64979 0.07948 0.7 0.0
H1348 H 0.71984 0.12235 0.86781 0.0
H1349 H 0.66816 0.13874 0.84787 0.0
H1350 H 0.73048 0.12255 0.66862 0.0
H1351 H 0.71174 0.09464 0.69817 0.0
H1352 H 0.73417 0.11292 0.76079 0.0
H1353 H 0.66682 0.14133 0.64676 0.0
H1354 H 0.65014 0.13655 0.73165 0.0
H1355 H 0.64691 0.11355 0.67395 0.0
loop_
_geom_bond_atom_site_label_1
_geom_bond_atom_site_label_2
_geom_bond_distance
_geom_bond_site_symmetry_2
_ccdc_geom_bond_type
C0 C1 1.351 . S
C0 N3 1.368 . S
C0 H5 0.931 . S
C1 C0 1.351 . S
C1 N2 1.373 . S
C1 H29 0.930 . S
N2 C1 1.373 . S
N2 C4 1.340 . S
N3 C0 1.368 . S
N3 C4 1.321 . S
N3 Co6 2.135 . S
C4 N2 1.340 . S
C4 N3 1.321 . S
C4 H28 0.930 . S
H5 C0 0.931 . S
Co6 N3 2.135 . S
Co6 N9 2.121 . S
Co6 O14 2.055 . S
Co6 O17 2.039 . S
Co6 N20 2.140 . S
C7 O8 1.227 . S
C7 O17 1.265 . S
O8 C7 1.227 . S
N9 Co6 2.121 . S
N9 C11 1.375 . S
N9 C12 1.313 . S
C10 C11 1.338 . S
C10 N13 1.377 1_554 S
C10 H30 0.930 1_554 S
C11 N9 1.375 . S
C11 C10 1.338 . S
C11 H15 0.931 . S
C12 N9 1.313 . S
C12 N13 1.344 1_554 S
C12 H16 0.930 . S
N13 C10 1.377 1_556 S
N13 C12 1.344 1_556 S
O14 Co6 2.055 . S
O14 C18 1.253 . S
H15 C11 0.931 . S
H16 C12 0.930 . S
O17 Co6 2.039 . S
O17 C7 1.265 . S
C18 O14 1.253 . S
C18 O19 1.227 . S
O19 C18 1.227 . S
N20 Co6 2.140 . S
N20 C23 1.346 . S
N20 C24 1.345 . S
C21 C22 1.387 . S
C21 C25 1.391 . S
C22 C21 1.387 . S
C22 C23 1.369 . S
C22 H31 0.929 . S
C23 N20 1.346 . S
C23 C22 1.369 . S
C23 H26 0.928 . S
C24 N20 1.345 . S
C24 C25 1.371 . S
C24 H27 0.931 . S
C25 C21 1.391 . S
C25 C24 1.371 . S
C25 H32 0.930 . S
H26 C23 0.928 . S
H27 C24 0.931 . S
H28 C4 0.930 . S
H29 C1 0.930 . S
H30 C10 0.930 1_556 S
H31 C22 0.929 . S
H32 C25 0.930 . S
C33 C34 1.351 . S
C33 N36 1.368 . S
C33 H38 0.931 . S
C34 C33 1.351 . S
C34 N35 1.373 . S
C34 H62 0.930 . S
N35 C34 1.373 . S
N35 C37 1.340 . S
N36 C33 1.368 . S
N36 C37 1.321 . S
N36 Co39 2.135 . S
C37 N35 1.340 . S
C37 N36 1.321 . S
C37 H61 0.930 . S
H38 C33 0.931 . S
Co39 N36 2.135 . S
Co39 N42 2.121 . S
Co39 O47 2.055 . S
Co39 O50 2.039 . S
Co39 N53 2.140 . S
C40 O41 1.227 . S
C40 O50 1.265 . S
O41 C40 1.227 . S
N42 Co39 2.121 . S
N42 C44 1.375 . S
N42 C45 1.313 . S
C43 C44 1.338 . S
C43 N46 1.377 . S
C43 H63 0.930 . S
C44 N42 1.375 . S
C44 C43 1.338 . S
C44 H48 0.931 . S
C45 N42 1.313 . S
C45 N46 1.344 . S
C45 H49 0.930 . S
N46 C43 1.377 . S
N46 C45 1.344 . S
O47 Co39 2.055 . S
O47 C51 1.253 . S
H48 C44 0.931 . S
H49 C45 0.930 . S
O50 Co39 2.039 . S
O50 C40 1.265 . S
C51 O47 1.253 . S
C51 O52 1.227 . S
O52 C51 1.227 . S
N53 Co39 2.140 . S
N53 C56 1.346 . S
N53 C57 1.345 . S
C54 C55 1.387 . S
C54 C58 1.391 . S
C55 C54 1.387 . S
C55 C56 1.369 . S
C55 H64 0.929 . S
C56 N53 1.346 . S
C56 C55 1.369 . S
C56 H59 0.928 . S
C57 N53 1.345 . S
C57 C58 1.371 . S
C57 H60 0.931 . S
C58 C54 1.391 . S
C58 C57 1.371 . S
C58 H65 0.930 . S
H59 C56 0.928 . S
H60 C57 0.931 . S
H61 C37 0.930 . S
H62 C34 0.930 . S
H63 C43 0.930 . S
H64 C55 0.929 . S
H65 C58 0.930 . S
C66 C67 1.351 . S
C66 N69 1.368 . S
C66 H71 0.931 . S
C67 C66 1.351 . S
C67 N68 1.373 . S
C67 H95 0.930 . S
N68 C67 1.373 . S
N68 C70 1.340 . S
N69 C66 1.368 . S
N69 C70 1.321 . S
N69 Co72 2.135 1_554 S
C70 N68 1.340 . S
C70 N69 1.321 . S
C70 H94 0.930 . S
H71 C66 0.931 . S
Co72 N69 2.135 1_556 S
Co72 N75 2.121 . S
Co72 O80 2.055 . S
Co72 O83 2.039 . S
Co72 N86 2.140 . S
C73 O74 1.227 . S
C73 O83 1.265 . S
O74 C73 1.227 . S
N75 Co72 2.121 . S
N75 C77 1.375 . S
N75 C78 1.313 . S
C76 C77 1.338 . S
C76 N79 1.377 . S
C76 H96 0.930 . S
C77 N75 1.375 . S
C77 C76 1.338 . S
C77 H81 0.931 . S
C78 N75 1.313 . S
C78 N79 1.344 . S
C78 H82 0.930 . S
N79 C76 1.377 . S
N79 C78 1.344 . S
O80 Co72 2.055 . S
O80 C84 1.253 . S
H81 C77 0.931 . S
H82 C78 0.930 . S
O83 Co72 2.039 . S
O83 C73 1.265 . S
C84 O80 1.253 . S
C84 O85 1.227 . S
O85 C84 1.227 . S
N86 Co72 2.140 . S
N86 C89 1.346 . S
N86 C90 1.345 . S
C87 C88 1.387 . S
C87 C91 1.391 . S
C88 C87 1.387 . S
C88 C89 1.369 . S
C88 H97 0.929 1_556 S
C89 N86 1.346 . S
C89 C88 1.369 . S
C89 H92 0.928 1_556 S
C90 N86 1.345 . S
C90 C91 1.371 . S
C90 H93 0.931 . S
C91 C87 1.391 . S
C91 C90 1.371 . S
C91 H98 0.930 . S
H92 C89 0.928 1_554 S
H93 C90 0.931 . S
H94 C70 0.930 . S
H95 C67 0.930 . S
H96 C76 0.930 . S
H97 C88 0.929 1_554 S
H98 C91 0.930 . S
C99 C100 1.351 . S
C99 N102 1.368 . S
C99 H104 0.931 . S
C100 C99 1.351 . S
C100 N101 1.373 . S
C100 H128 0.930 . S
N101 C100 1.373 . S
N101 C103 1.340 . S
N102 C99 1.368 . S
N102 C103 1.321 . S
N102 Co105 2.135 . S
C103 N101 1.340 . S
C103 N102 1.321 . S
C103 H127 0.930 . S
H104 C99 0.931 . S
Co105 N102 2.135 . S
Co105 N108 2.121 . S
Co105 O113 2.055 . S
Co105 O116 2.039 . S
Co105 N119 2.140 . S
C106 O107 1.227 . S
C106 O116 1.265 . S
O107 C106 1.227 . S
N108 Co105 2.121 . S
N108 C110 1.375 . S
N108 C111 1.313 . S
C109 C110 1.338 . S
C109 N112 1.377 1_554 S
C109 H129 0.930 1_554 S
C110 N108 1.375 . S
C110 C109 1.338 . S
C110 H114 0.931 . S
C111 N108 1.313 . S
C111 N112 1.344 1_554 S
C111 H115 0.930 . S
N112 C109 1.377 1_556 S
N112 C111 1.344 1_556 S
O113 Co105 2.055 . S
O113 C117 1.253 . S
H114 C110 0.931 . S
H115 C111 0.930 . S
O116 Co105 2.039 . S
O116 C106 1.265 . S
C117 O113 1.253 . S
C117 O118 1.227 . S
O118 C117 1.227 . S
N119 Co105 2.140 . S
N119 C122 1.346 . S
N119 C123 1.345 . S
C120 C121 1.387 . S
C120 C124 1.391 . S
C121 C120 1.387 . S
C121 C122 1.369 . S
C121 H130 0.929 . S
C122 N119 1.346 . S
C122 C121 1.369 . S
C122 H125 0.928 . S
C123 N119 1.345 . S
C123 C124 1.371 . S
C123 H126 0.931 . S
C124 C120 1.391 . S
C124 C123 1.371 . S
C124 H131 0.930 . S
H125 C122 0.928 . S
H126 C123 0.931 . S
H127 C103 0.930 . S
H128 C100 0.930 . S
H129 C109 0.930 1_556 S
H130 C121 0.929 . S
H131 C124 0.930 . S
C132 C133 1.351 . S
C132 N135 1.368 . S
C132 H137 0.931 . S
C133 C132 1.351 . S
C133 N134 1.373 . S
C133 H161 0.930 . S
N134 C133 1.373 . S
N134 C136 1.340 . S
N135 C132 1.368 . S
N135 C136 1.321 . S
N135 Co138 2.135 . S
C136 N134 1.340 . S
C136 N135 1.321 . S
C136 H160 0.930 . S
H137 C132 0.931 . S
Co138 N135 2.135 . S
Co138 N141 2.121 . S
Co138 O146 2.055 . S
Co138 O149 2.039 . S
Co138 N152 2.140 . S
C139 O140 1.227 . S
C139 O149 1.265 . S
O140 C139 1.227 . S
N141 Co138 2.121 . S
N141 C143 1.375 . S
N141 C144 1.313 . S
C142 C143 1.338 . S
C142 N145 1.377 . S
C142 H162 0.930 . S
C143 N141 1.375 . S
C143 C142 1.338 . S
C143 H147 0.931 . S
C144 N141 1.313 . S
C144 N145 1.344 . S
C144 H148 0.930 . S
N145 C142 1.377 . S
N145 C144 1.344 . S
O146 Co138 2.055 . S
O146 C150 1.253 . S
H147 C143 0.931 . S
H148 C144 0.930 . S
O149 Co138 2.039 . S
O149 C139 1.265 . S
C150 O146 1.253 . S
C150 O151 1.227 . S
O151 C150 1.227 . S
N152 Co138 2.140 . S
N152 C155 1.346 . S
N152 C156 1.345 . S
C153 C154 1.387 . S
C153 C157 1.391 . S
C154 C153 1.387 . S
C154 C155 1.369 . S
C154 H163 0.929 . S
C155 N152 1.346 . S
C155 C154 1.369 . S
C155 H158 0.928 . S
C156 N152 1.345 . S
C156 C157 1.371 . S
C156 H159 0.931 . S
C157 C153 1.391 . S
C157 C156 1.371 . S
C157 H164 0.930 . S
H158 C155 0.928 . S
H159 C156 0.931 . S
H160 C136 0.930 . S
H161 C133 0.930 . S
H162 C142 0.930 . S
H163 C154 0.929 . S
H164 C157 0.930 . S
C165 C166 1.351 . S
C165 N168 1.368 . S
C165 H170 0.931 . S
C166 C165 1.351 . S
C166 N167 1.373 . S
C166 H194 0.930 . S
N167 C166 1.373 . S
N167 C169 1.340 . S
N168 C165 1.368 . S
N168 C169 1.321 . S
N168 Co171 2.135 1_554 S
C169 N167 1.340 . S
C169 N168 1.321 . S
C169 H193 0.930 . S
H170 C165 0.931 . S
Co171 N168 2.135 1_556 S
Co171 N174 2.121 . S
Co171 O179 2.055 . S
Co171 O182 2.039 . S
Co171 N185 2.140 . S
C172 O173 1.227 . S
C172 O182 1.265 . S
O173 C172 1.227 . S
N174 Co171 2.121 . S
N174 C176 1.375 . S
N174 C177 1.313 . S
C175 C176 1.338 . S
C175 N178 1.377 . S
C175 H195 0.930 . S
C176 N174 1.375 . S
C176 C175 1.338 . S
C176 H180 0.931 . S
C177 N174 1.313 . S
C177 N178 1.344 . S
C177 H181 0.930 . S
N178 C175 1.377 . S
N178 C177 1.344 . S
O179 Co171 2.055 . S
O179 C183 1.253 . S
H180 C176 0.931 . S
H181 C177 0.930 . S
O182 Co171 2.039 . S
O182 C172 1.265 . S
C183 O179 1.253 . S
C183 O184 1.227 . S
O184 C183 1.227 . S
N185 Co171 2.140 . S
N185 C188 1.346 . S
N185 C189 1.345 . S
C186 C187 1.387 . S
C186 C190 1.391 . S
C187 C186 1.387 . S
C187 C188 1.369 . S
C187 H196 0.929 1_556 S
C188 N185 1.346 . S
C188 C187 1.369 . S
C188 H191 0.928 1_556 S
C189 N185 1.345 . S
C189 C190 1.371 . S
C189 H192 0.931 . S
C190 C186 1.391 . S
C190 C189 1.371 . S
C190 H197 0.930 . S
H191 C188 0.928 1_554 S
H192 C189 0.931 . S
H193 C169 0.930 . S
H194 C166 0.930 . S
H195 C175 0.930 . S
H196 C187 0.929 1_554 S
H197 C190 0.930 . S
C198 C199 1.351 . S
C198 N201 1.368 . S
C198 H203 0.931 . S
C199 C198 1.351 . S
C199 N200 1.373 . S
C199 H227 0.930 . S
N200 C199 1.373 . S
N200 C202 1.340 . S
N201 C198 1.368 . S
N201 C202 1.321 . S
N201 Co204 2.135 . S
C202 N200 1.340 . S
C202 N201 1.321 . S
C202 H226 0.930 . S
H203 C198 0.931 . S
Co204 N201 2.135 . S
Co204 N207 2.121 . S
Co204 O212 2.055 . S
Co204 O215 2.039 . S
Co204 N218 2.140 . S
C205 O206 1.227 . S
C205 O215 1.265 . S
O206 C205 1.227 . S
N207 Co204 2.121 . S
N207 C209 1.375 . S
N207 C210 1.313 . S
C208 C209 1.338 . S
C208 N211 1.377 . S
C208 H228 0.930 . S
C209 N207 1.375 . S
C209 C208 1.338 . S
C209 H213 0.931 . S
C210 N207 1.313 . S
C210 N211 1.344 . S
C210 H214 0.930 . S
N211 C208 1.377 . S
N211 C210 1.344 . S
O212 Co204 2.055 . S
O212 C216 1.253 . S
H213 C209 0.931 . S
H214 C210 0.930 . S
O215 Co204 2.039 . S
O215 C205 1.265 . S
C216 O212 1.253 . S
C216 O217 1.227 . S
O217 C216 1.227 . S
N218 Co204 2.140 . S
N218 C221 1.346 . S
N218 C222 1.345 . S
C219 C220 1.387 . S
C219 C223 1.391 . S
C220 C219 1.387 . S
C220 C221 1.369 . S
C220 H229 0.929 . S
C221 N218 1.346 . S
C221 C220 1.369 . S
C221 H224 0.928 . S
C222 N218 1.345 . S
C222 C223 1.371 . S
C222 H225 0.931 . S
C223 C219 1.391 . S
C223 C222 1.371 . S
C223 H230 0.930 . S
H224 C221 0.928 . S
H225 C222 0.931 . S
H226 C202 0.930 . S
H227 C199 0.930 . S
H228 C208 0.930 . S
H229 C220 0.929 . S
H230 C223 0.930 . S
C231 C232 1.351 . S
C231 N234 1.368 . S
C231 H236 0.931 . S
C232 C231 1.351 . S
C232 N233 1.373 . S
C232 H260 0.930 . S
N233 C232 1.373 . S
N233 C235 1.340 . S
N234 C231 1.368 . S
N234 C235 1.321 . S
N234 Co237 2.135 . S
C235 N233 1.340 . S
C235 N234 1.321 . S
C235 H259 0.930 . S
H236 C231 0.931 . S
Co237 N234 2.135 . S
Co237 N240 2.121 . S
Co237 O245 2.055 . S
Co237 O248 2.039 . S
Co237 N251 2.140 . S
C238 O239 1.227 . S
C238 O248 1.265 . S
O239 C238 1.227 . S
N240 Co237 2.121 . S
N240 C242 1.375 . S
N240 C243 1.313 . S
C241 C242 1.338 . S
C241 N244 1.377 1_556 S
C241 H261 0.930 1_556 S
C242 N240 1.375 . S
C242 C241 1.338 . S
C242 H246 0.931 . S
C243 N240 1.313 . S
C243 N244 1.344 1_556 S
C243 H247 0.930 . S
N244 C241 1.377 1_554 S
N244 C243 1.344 1_554 S
O245 Co237 2.055 . S
O245 C249 1.253 . S
H246 C242 0.931 . S
H247 C243 0.930 . S
O248 Co237 2.039 . S
O248 C238 1.265 . S
C249 O245 1.253 . S
C249 O250 1.227 . S
O250 C249 1.227 . S
N251 Co237 2.140 . S
N251 C254 1.346 . S
N251 C255 1.345 . S
C252 C253 1.387 . S
C252 C256 1.391 . S
C253 C252 1.387 . S
C253 C254 1.369 . S
C253 H262 0.929 . S
C254 N251 1.346 . S
C254 C253 1.369 . S
C254 H257 0.928 . S
C255 N251 1.345 . S
C255 C256 1.371 . S
C255 H258 0.931 . S
C256 C252 1.391 . S
C256 C255 1.371 . S
C256 H263 0.930 . S
H257 C254 0.928 . S
H258 C255 0.931 . S
H259 C235 0.930 . S
H260 C232 0.930 . S
H261 C241 0.930 1_554 S
H262 C253 0.929 . S
H263 C256 0.930 . S
C264 C265 1.351 . S
C264 N267 1.368 . S
C264 H269 0.931 . S
C265 C264 1.351 . S
C265 N266 1.373 . S
C265 H293 0.930 . S
N266 C265 1.373 . S
N266 C268 1.340 . S
N267 C264 1.368 . S
N267 C268 1.321 . S
N267 Co270 2.135 1_556 S
C268 N266 1.340 . S
C268 N267 1.321 . S
C268 H292 0.930 . S
H269 C264 0.931 . S
Co270 N267 2.135 1_554 S
Co270 N273 2.121 . S
Co270 O278 2.055 . S
Co270 O281 2.039 . S
Co270 N284 2.140 . S
C271 O272 1.227 . S
C271 O281 1.265 . S
O272 C271 1.227 . S
N273 Co270 2.121 . S
N273 C275 1.375 . S
N273 C276 1.313 . S
C274 C275 1.338 . S
C274 N277 1.377 . S
C274 H294 0.930 . S
C275 N273 1.375 . S
C275 C274 1.338 . S
C275 H279 0.931 . S
C276 N273 1.313 . S
C276 N277 1.344 . S
C276 H280 0.930 . S
N277 C274 1.377 . S
N277 C276 1.344 . S
O278 Co270 2.055 . S
O278 C282 1.253 . S
H279 C275 0.931 . S
H280 C276 0.930 . S
O281 Co270 2.039 . S
O281 C271 1.265 . S
C282 O278 1.253 . S
C282 O283 1.227 . S
O283 C282 1.227 . S
N284 Co270 2.140 . S
N284 C287 1.346 . S
N284 C288 1.345 . S
C285 C286 1.387 . S
C285 C289 1.391 . S
C286 C285 1.387 . S
C286 C287 1.369 . S
C286 H295 0.929 1_554 S
C287 N284 1.346 . S
C287 C286 1.369 . S
C287 H290 0.928 1_554 S
C288 N284 1.345 . S
C288 C289 1.371 . S
C288 H291 0.931 . S
C289 C285 1.391 . S
C289 C288 1.371 . S
C289 H296 0.930 . S
H290 C287 0.928 1_556 S
H291 C288 0.931 . S
H292 C268 0.930 . S
H293 C265 0.930 . S
H294 C274 0.930 . S
H295 C286 0.929 1_556 S
H296 C289 0.930 . S
C297 C298 1.351 . S
C297 N300 1.368 . S
C297 H302 0.931 . S
C298 C297 1.351 . S
C298 N299 1.373 . S
C298 H326 0.930 . S
N299 C298 1.373 . S
N299 C301 1.340 . S
N300 C297 1.368 . S
N300 C301 1.321 . S
N300 Co303 2.135 . S
C301 N299 1.340 . S
C301 N300 1.321 . S
C301 H325 0.930 . S
H302 C297 0.931 . S
Co303 N300 2.135 . S
Co303 N306 2.121 . S
Co303 O311 2.055 . S
Co303 O314 2.039 . S
Co303 N317 2.140 . S
C304 O305 1.227 . S
C304 O314 1.265 . S
O305 C304 1.227 . S
N306 Co303 2.121 . S
N306 C308 1.375 . S
N306 C309 1.313 . S
C307 C308 1.338 . S
C307 N310 1.377 . S
C307 H327 0.930 . S
C308 N306 1.375 . S
C308 C307 1.338 . S
C308 H312 0.931 . S
C309 N306 1.313 . S
C309 N310 1.344 . S
C309 H313 0.930 . S
N310 C307 1.377 . S
N310 C309 1.344 . S
O311 Co303 2.055 . S
O311 C315 1.253 . S
H312 C308 0.931 . S
H313 C309 0.930 . S
O314 Co303 2.039 . S
O314 C304 1.265 . S
C315 O311 1.253 . S
C315 O316 1.227 . S
O316 C315 1.227 . S
N317 Co303 2.140 . S
N317 C320 1.346 . S
N317 C321 1.345 . S
C318 C319 1.387 . S
C318 C322 1.391 . S
C319 C318 1.387 . S
C319 C320 1.369 . S
C319 H328 0.929 . S
C320 N317 1.346 . S
C320 C319 1.369 . S
C320 H323 0.928 . S
C321 N317 1.345 . S
C321 C322 1.371 . S
C321 H324 0.931 . S
C322 C318 1.391 . S
C322 C321 1.371 . S
C322 H329 0.930 . S
H323 C320 0.928 . S
H324 C321 0.931 . S
H325 C301 0.930 . S
H326 C298 0.930 . S
H327 C307 0.930 . S
H328 C319 0.929 . S
H329 C322 0.930 . S
C330 C331 1.351 . S
C330 N333 1.368 . S
C330 H335 0.931 . S
C331 C330 1.351 . S
C331 N332 1.373 . S
C331 H359 0.930 . S
N332 C331 1.373 . S
N332 C334 1.340 . S
N333 C330 1.368 . S
N333 C334 1.321 . S
N333 Co336 2.135 . S
C334 N332 1.340 . S
C334 N333 1.321 . S
C334 H358 0.930 . S
H335 C330 0.931 . S
Co336 N333 2.135 . S
Co336 N339 2.121 . S
Co336 O344 2.055 . S
Co336 O347 2.039 . S
Co336 N350 2.140 . S
C337 O338 1.227 . S
C337 O347 1.265 . S
O338 C337 1.227 . S
N339 Co336 2.121 . S
N339 C341 1.375 . S
N339 C342 1.313 . S
C340 C341 1.338 . S
C340 N343 1.377 1_556 S
C340 H360 0.930 1_556 S
C341 N339 1.375 . S
C341 C340 1.338 . S
C341 H345 0.931 . S
C342 N339 1.313 . S
C342 N343 1.344 1_556 S
C342 H346 0.930 . S
N343 C340 1.377 1_554 S
N343 C342 1.344 1_554 S
O344 Co336 2.055 . S
O344 C348 1.253 . S
H345 C341 0.931 . S
H346 C342 0.930 . S
O347 Co336 2.039 . S
O347 C337 1.265 . S
C348 O344 1.253 . S
C348 O349 1.227 . S
O349 C348 1.227 . S
N350 Co336 2.140 . S
N350 C353 1.346 . S
N350 C354 1.345 . S
C351 C352 1.387 . S
C351 C355 1.391 . S
C352 C351 1.387 . S
C352 C353 1.369 . S
C352 H361 0.929 . S
C353 N350 1.346 . S
C353 C352 1.369 . S
C353 H356 0.928 . S
C354 N350 1.345 . S
C354 C355 1.371 . S
C354 H357 0.931 . S
C355 C351 1.391 . S
C355 C354 1.371 . S
C355 H362 0.930 . S
H356 C353 0.928 . S
H357 C354 0.931 . S
H358 C334 0.930 . S
H359 C331 0.930 . S
H360 C340 0.930 1_554 S
H361 C352 0.929 . S
H362 C355 0.930 . S
C363 C364 1.351 . S
C363 N366 1.368 . S
C363 H368 0.931 . S
C364 C363 1.351 . S
C364 N365 1.373 . S
C364 H392 0.930 . S
N365 C364 1.373 . S
N365 C367 1.340 . S
N366 C363 1.368 . S
N366 C367 1.321 . S
N366 Co369 2.135 1_556 S
C367 N365 1.340 . S
C367 N366 1.321 . S
C367 H391 0.930 . S
H368 C363 0.931 . S
Co369 N366 2.135 1_554 S
Co369 N372 2.121 . S
Co369 O377 2.055 . S
Co369 O380 2.039 . S
Co369 N383 2.140 . S
C370 O371 1.227 . S
C370 O380 1.265 . S
O371 C370 1.227 . S
N372 Co369 2.121 . S
N372 C374 1.375 . S
N372 C375 1.313 . S
C373 C374 1.338 . S
C373 N376 1.377 . S
C373 H393 0.930 . S
C374 N372 1.375 . S
C374 C373 1.338 . S
C374 H378 0.931 . S
C375 N372 1.313 . S
C375 N376 1.344 . S
C375 H379 0.930 . S
N376 C373 1.377 . S
N376 C375 1.344 . S
O377 Co369 2.055 . S
O377 C381 1.253 . S
H378 C374 0.931 . S
H379 C375 0.930 . S
O380 Co369 2.039 . S
O380 C370 1.265 . S
C381 O377 1.253 . S
C381 O382 1.227 . S
O382 C381 1.227 . S
N383 Co369 2.140 . S
N383 C386 1.346 . S
N383 C387 1.345 . S
C384 C385 1.387 . S
C384 C388 1.391 . S
C385 C384 1.387 . S
C385 C386 1.369 . S
C385 H394 0.929 1_554 S
C386 N383 1.346 . S
C386 C385 1.369 . S
C386 H389 0.928 1_554 S
C387 N383 1.345 . S
C387 C388 1.371 . S
C387 H390 0.931 . S
C388 C384 1.391 . S
C388 C387 1.371 . S
C388 H395 0.930 . S
H389 C386 0.928 1_556 S
H390 C387 0.931 . S
H391 C367 0.930 . S
H392 C364 0.930 . S
H393 C373 0.930 . S
H394 C385 0.929 1_556 S
H395 C388 0.930 . S
C396 C397 1.391 . S
C396 C398 1.394 . S
C396 H412 0.931 . S
C397 C396 1.391 . S
C397 C401 1.376 . S
C398 C396 1.394 . S
C398 C399 1.369 . S
C398 C402 1.531 1_554 S
C399 C398 1.369 . S
C399 C400 1.410 . S
C399 C407 1.503 1_554 S
C400 C399 1.410 . S
C400 C401 1.392 . S
C400 C403 1.511 . S
C401 C397 1.376 . S
C401 C400 1.392 . S
C401 H413 0.929 . S
C402 C398 1.531 1_556 S
C402 H414 0.960 . S
C402 H415 0.962 . S
C402 H416 0.960 . S
C403 C400 1.511 . S
C403 H417 0.961 . S
C403 H418 0.961 . S
C403 H419 0.961 . S
C404 C405 1.370 . S
C404 C406 1.363 . S
C404 H420 0.931 . S
C405 C404 1.370 . S
C405 C409 1.408 . S
C406 C404 1.363 . S
C406 C407 1.370 . S
C406 C410 1.524 . S
C407 C399 1.503 1_556 S
C407 C406 1.370 . S
C407 C408 1.403 . S
C408 C407 1.403 . S
C408 C409 1.404 . S
C408 C411 1.533 1_556 S
C409 C405 1.408 . S
C409 C408 1.404 . S
C409 H421 0.930 . S
C410 C406 1.524 . S
C410 H422 0.956 . S
C410 H423 0.961 1_556 S
C410 H424 0.961 . S
C411 C408 1.533 1_554 S
C411 H425 0.953 1_554 S
C411 H426 0.962 . S
C411 H427 0.971 . S
H412 C396 0.931 . S
H413 C401 0.929 . S
H414 C402 0.960 . S
H415 C402 0.962 . S
H416 C402 0.960 . S
H417 C403 0.961 . S
H418 C403 0.961 . S
H419 C403 0.961 . S
H420 C404 0.931 . S
H421 C409 0.930 . S
H422 C410 0.956 . S
H423 C410 0.961 1_554 S
H424 C410 0.961 . S
H425 C411 0.953 1_556 S
H426 C411 0.962 . S
H427 C411 0.971 . S
C428 C429 1.391 . S
C428 C430 1.394 . S
C428 H444 0.931 . S
C429 C428 1.391 . S
C429 C433 1.376 . S
C430 C428 1.394 . S
C430 C431 1.369 . S
C430 C434 1.531 . S
C431 C430 1.369 . S
C431 C432 1.410 . S
C431 C439 1.503 . S
C432 C431 1.410 . S
C432 C433 1.392 . S
C432 C435 1.511 . S
C433 C429 1.376 . S
C433 C432 1.392 . S
C433 H445 0.929 . S
C434 C430 1.531 . S
C434 H446 0.960 . S
C434 H447 0.962 . S
C434 H448 0.960 . S
C435 C432 1.511 . S
C435 H449 0.961 . S
C435 H450 0.961 . S
C435 H451 0.961 . S
C436 C437 1.370 . S
C436 C438 1.363 . S
C436 H452 0.931 . S
C437 C436 1.370 . S
C437 C441 1.408 . S
C438 C436 1.363 . S
C438 C439 1.370 . S
C438 C442 1.524 . S
C439 C431 1.503 . S
C439 C438 1.370 . S
C439 C440 1.403 . S
C440 C439 1.403 . S
C440 C441 1.404 . S
C440 C443 1.539 . S
C441 C437 1.408 . S
C441 C440 1.404 . S
C441 H453 0.930 . S
C442 C438 1.524 . S
C442 H454 0.956 . S
C442 H455 0.961 . S
C442 H456 0.961 . S
C443 C440 1.539 . S
C443 H457 0.958 . S
C443 H458 0.961 . S
C443 H459 0.960 . S
H444 C428 0.931 . S
H445 C433 0.929 . S
H446 C434 0.960 . S
H447 C434 0.962 . S
H448 C434 0.960 . S
H449 C435 0.961 . S
H450 C435 0.961 . S
H451 C435 0.961 . S
H452 C436 0.931 . S
H453 C441 0.930 . S
H454 C442 0.956 . S
H455 C442 0.961 . S
H456 C442 0.961 . S
H457 C443 0.958 . S
H458 C443 0.961 . S
H459 C443 0.960 . S
C460 C461 1.391 . S
C460 C462 1.394 . S
C460 H476 0.931 . S
C461 C460 1.391 . S
C461 C465 1.376 . S
C462 C460 1.394 . S
C462 C463 1.369 . S
C462 C466 1.531 . S
C463 C462 1.369 . S
C463 C464 1.410 . S
C463 C471 1.503 . S
C464 C463 1.410 . S
C464 C465 1.392 . S
C464 C467 1.511 . S
C465 C461 1.376 . S
C465 C464 1.392 . S
C465 H477 0.929 . S
C466 C462 1.531 . S
C466 H478 0.960 . S
C466 H479 0.962 . S
C466 H480 0.960 . S
C467 C464 1.511 . S
C467 H481 0.961 . S
C467 H482 0.961 . S
C467 H483 0.961 . S
C468 C469 1.370 . S
C468 C470 1.363 . S
C468 H484 0.931 . S
C469 C468 1.370 . S
C469 C473 1.408 . S
C470 C468 1.363 . S
C470 C471 1.370 . S
C470 C474 1.524 . S
C471 C463 1.503 . S
C471 C470 1.370 . S
C471 C472 1.403 . S
C472 C471 1.403 . S
C472 C473 1.404 . S
C472 C475 1.539 . S
C473 C469 1.408 . S
C473 C472 1.404 . S
C473 H485 0.930 . S
C474 C470 1.524 . S
C474 H486 0.956 . S
C474 H487 0.961 . S
C474 H488 0.961 . S
C475 C472 1.539 . S
C475 H489 0.958 . S
C475 H490 0.961 . S
C475 H491 0.960 . S
H476 C460 0.931 . S
H477 C465 0.929 . S
H478 C466 0.960 . S
H479 C466 0.962 . S
H480 C466 0.960 . S
H481 C467 0.961 . S
H482 C467 0.961 . S
H483 C467 0.961 . S
H484 C468 0.931 . S
H485 C473 0.930 . S
H486 C474 0.956 . S
H487 C474 0.961 . S
H488 C474 0.961 . S
H489 C475 0.958 . S
H490 C475 0.961 . S
H491 C475 0.960 . S
C492 C493 1.391 . S
C492 C494 1.394 . S
C492 H508 0.931 . S
C493 C492 1.391 . S
C493 C497 1.376 . S
C494 C492 1.394 . S
C494 C495 1.369 . S
C494 C498 1.531 . S
C495 C494 1.369 . S
C495 C496 1.410 . S
C495 C503 1.503 1_556 S
C496 C495 1.410 . S
C496 C497 1.392 . S
C496 C499 1.511 1_556 S
C497 C493 1.376 . S
C497 C496 1.392 . S
C497 H509 0.929 . S
C498 C494 1.531 . S
C498 H510 0.960 . S
C498 H511 0.962 . S
C498 H512 0.960 . S
C499 C496 1.511 1_554 S
C499 H513 0.961 . S
C499 H514 0.961 . S
C499 H515 0.961 . S
C500 C501 1.370 . S
C500 C502 1.363 . S
C500 H516 0.931 . S
C501 C500 1.370 . S
C501 C505 1.408 . S
C502 C500 1.363 . S
C502 C503 1.370 . S
C502 C506 1.524 . S
C503 C495 1.503 1_554 S
C503 C502 1.370 . S
C503 C504 1.403 . S
C504 C503 1.403 . S
C504 C505 1.404 . S
C504 C507 1.539 1_554 S
C505 C501 1.408 . S
C505 C504 1.404 . S
C505 H517 0.930 . S
C506 C502 1.524 . S
C506 H518 0.956 . S
C506 H519 0.961 . S
C506 H520 0.961 . S
C507 C504 1.539 1_556 S
C507 H521 0.958 . S
C507 H522 0.961 . S
C507 H523 0.960 . S
H508 C492 0.931 . S
H509 C497 0.929 . S
H510 C498 0.960 . S
H511 C498 0.962 . S
H512 C498 0.960 . S
H513 C499 0.961 . S
H514 C499 0.961 . S
H515 C499 0.961 . S
H516 C500 0.931 . S
H517 C505 0.930 . S
H518 C506 0.956 . S
H519 C506 0.961 . S
H520 C506 0.961 . S
H521 C507 0.958 . S
H522 C507 0.961 . S
H523 C507 0.960 . S
C524 C525 1.391 . S
C524 C526 1.394 . S
C524 H540 0.931 . S
C525 C524 1.391 . S
C525 C529 1.376 . S
C526 C524 1.394 . S
C526 C527 1.369 . S
C526 C530 1.531 . S
C527 C526 1.369 . S
C527 C528 1.410 . S
C527 C535 1.503 . S
C528 C527 1.410 . S
C528 C529 1.392 . S
C528 C531 1.511 . S
C529 C525 1.376 . S
C529 C528 1.392 . S
C529 H541 0.929 . S
C530 C526 1.531 . S
C530 H542 0.960 . S
C530 H543 0.962 . S
C530 H544 0.960 . S
C531 C528 1.511 . S
C531 H545 0.961 . S
C531 H546 0.961 . S
C531 H547 0.961 . S
C532 C533 1.370 . S
C532 C534 1.363 . S
C532 H548 0.931 . S
C533 C532 1.370 . S
C533 C537 1.408 . S
C534 C532 1.363 . S
C534 C535 1.370 . S
C534 C538 1.524 . S
C535 C527 1.503 . S
C535 C534 1.370 . S
C535 C536 1.403 . S
C536 C535 1.403 . S
C536 C537 1.404 . S
C536 C539 1.539 . S
C537 C533 1.408 . S
C537 C536 1.404 . S
C537 H549 0.930 . S
C538 C534 1.524 . S
C538 H550 0.956 . S
C538 H551 0.961 . S
C538 H552 0.961 . S
C539 C536 1.539 . S
C539 H553 0.958 . S
C539 H554 0.961 . S
C539 H555 0.960 . S
H540 C524 0.931 . S
H541 C529 0.929 . S
H542 C530 0.960 . S
H543 C530 0.962 . S
H544 C530 0.960 . S
H545 C531 0.961 . S
H546 C531 0.961 . S
H547 C531 0.961 . S
H548 C532 0.931 . S
H549 C537 0.930 . S
H550 C538 0.956 . S
H551 C538 0.961 . S
H552 C538 0.961 . S
H553 C539 0.958 . S
H554 C539 0.961 . S
H555 C539 0.960 . S
C556 C557 1.391 . S
C556 C558 1.394 . S
C556 H572 0.931 . S
C557 C556 1.391 . S
C557 C561 1.376 . S
C558 C556 1.394 . S
C558 C559 1.369 . S
C558 C562 1.531 . S
C559 C558 1.369 . S
C559 C560 1.410 . S
C559 C567 1.503 . S
C560 C559 1.410 . S
C560 C561 1.392 . S
C560 C563 1.511 . S
C561 C557 1.376 . S
C561 C560 1.392 . S
C561 H573 0.929 . S
C562 C558 1.531 . S
C562 H574 0.960 . S
C562 H575 0.962 . S
C562 H576 0.960 . S
C563 C560 1.511 . S
C563 H577 0.961 . S
C563 H578 0.961 . S
C563 H579 0.961 . S
C564 C565 1.370 . S
C564 C566 1.363 . S
C564 H580 0.931 . S
C565 C564 1.370 . S
C565 C569 1.408 . S
C566 C564 1.363 . S
C566 C567 1.370 . S
C566 C570 1.524 . S
C567 C559 1.503 . S
C567 C566 1.370 . S
C567 C568 1.403 . S
C568 C567 1.403 . S
C568 C569 1.404 . S
C568 C571 1.539 . S
C569 C565 1.408 . S
C569 C568 1.404 . S
C569 H581 0.930 . S
C570 C566 1.524 . S
C570 H582 0.956 . S
C570 H583 0.961 . S
C570 H584 0.961 . S
C571 C568 1.539 . S
C571 H585 0.958 . S
C571 H586 0.961 . S
C571 H587 0.960 . S
H572 C556 0.931 . S
H573 C561 0.929 . S
H574 C562 0.960 . S
H575 C562 0.962 . S
H576 C562 0.960 . S
H577 C563 0.961 . S
H578 C563 0.961 . S
H579 C563 0.961 . S
H580 C564 0.931 . S
H581 C569 0.930 . S
H582 C570 0.956 . S
H583 C570 0.961 . S
H584 C570 0.961 . S
H585 C571 0.958 . S
H586 C571 0.961 . S
H587 C571 0.960 . S
C588 C589 1.391 . S
C588 C590 1.394 . S
C588 H604 0.931 . S
C589 C588 1.391 . S
C589 C593 1.376 . S
C590 C588 1.394 . S
C590 C591 1.369 . S
C590 C594 1.531 . S
C591 C590 1.369 . S
C591 C592 1.410 . S
C591 C599 1.503 . S
C592 C591 1.410 . S
C592 C593 1.392 . S
C592 C595 1.511 . S
C593 C589 1.376 . S
C593 C592 1.392 . S
C593 H605 0.929 . S
C594 C590 1.531 . S
C594 H606 0.960 . S
C594 H607 0.962 . S
C594 H608 0.960 . S
C595 C592 1.511 . S
C595 H609 0.961 . S
C595 H610 0.961 . S
C595 H611 0.961 . S
C596 C597 1.370 . S
C596 C598 1.363 . S
C596 H612 0.931 . S
C597 C596 1.370 . S
C597 C601 1.408 . S
C598 C596 1.363 . S
C598 C599 1.370 . S
C598 C602 1.524 . S
C599 C591 1.503 . S
C599 C598 1.370 . S
C599 C600 1.403 . S
C600 C599 1.403 . S
C600 C601 1.404 . S
C600 C603 1.539 . S
C601 C597 1.408 . S
C601 C600 1.404 . S
C601 H613 0.930 . S
C602 C598 1.524 . S
C602 H614 0.956 . S
C602 H615 0.961 . S
C602 H616 0.961 . S
C603 C600 1.539 . S
C603 H617 0.958 . S
C603 H618 0.961 . S
C603 H619 0.960 . S
H604 C588 0.931 . S
H605 C593 0.929 . S
H606 C594 0.960 . S
H607 C594 0.962 . S
H608 C594 0.960 . S
H609 C595 0.961 . S
H610 C595 0.961 . S
H611 C595 0.961 . S
H612 C596 0.931 . S
H613 C601 0.930 . S
H614 C602 0.956 . S
H615 C602 0.961 . S
H616 C602 0.961 . S
H617 C603 0.958 . S
H618 C603 0.961 . S
H619 C603 0.960 . S
C620 C621 1.391 . S
C620 C622 1.394 . S
C620 H636 0.931 . S
C621 C620 1.391 . S
C621 C625 1.376 . S
C622 C620 1.394 . S
C622 C623 1.369 . S
C622 C626 1.531 . S
C623 C622 1.369 . S
C623 C624 1.410 . S
C623 C631 1.503 . S
C624 C623 1.410 . S
C624 C625 1.392 . S
C624 C627 1.511 . S
C625 C621 1.376 . S
C625 C624 1.392 . S
C625 H637 0.929 . S
C626 C622 1.531 . S
C626 H638 0.960 . S
C626 H639 0.962 . S
C626 H640 0.960 . S
C627 C624 1.511 . S
C627 H641 0.961 . S
C627 H642 0.961 . S
C627 H643 0.961 . S
C628 C629 1.370 . S
C628 C630 1.363 . S
C628 H644 0.931 . S
C629 C628 1.370 . S
C629 C633 1.408 . S
C630 C628 1.363 . S
C630 C631 1.370 . S
C630 C634 1.524 . S
C631 C623 1.503 . S
C631 C630 1.370 . S
C631 C632 1.403 . S
C632 C631 1.403 . S
C632 C633 1.404 . S
C632 C635 1.539 . S
C633 C629 1.408 . S
C633 C632 1.404 . S
C633 H645 0.930 . S
C634 C630 1.524 . S
C634 H646 0.956 . S
C634 H647 0.961 . S
C634 H648 0.961 . S
C635 C632 1.539 . S
C635 H649 0.958 . S
C635 H650 0.961 . S
C635 H651 0.960 . S
H636 C620 0.931 . S
H637 C625 0.929 . S
H638 C626 0.960 . S
H639 C626 0.962 . S
H640 C626 0.960 . S
H641 C627 0.961 . S
H642 C627 0.961 . S
H643 C627 0.961 . S
H644 C628 0.931 . S
H645 C633 0.930 . S
H646 C634 0.956 . S
H647 C634 0.961 . S
H648 C634 0.961 . S
H649 C635 0.958 . S
H650 C635 0.961 . S
H651 C635 0.960 . S
C652 C653 1.391 . S
C652 C654 1.394 . S
C652 H668 0.931 . S
C653 C652 1.391 . S
C653 C657 1.376 1_556 S
C654 C652 1.394 . S
C654 C655 1.369 . S
C654 C658 1.531 . S
C655 C654 1.369 . S
C655 C656 1.410 1_556 S
C655 C663 1.503 1_556 S
C656 C655 1.410 1_554 S
C656 C657 1.392 . S
C656 C659 1.511 . S
C657 C653 1.376 1_554 S
C657 C656 1.392 . S
C657 H669 0.929 . S
C658 C654 1.531 . S
C658 H670 0.960 . S
C658 H671 0.962 . S
C658 H672 0.960 . S
C659 C656 1.511 . S
C659 H673 0.961 . S
C659 H674 0.961 . S
C659 H675 0.961 . S
C660 C661 1.370 . S
C660 C662 1.363 . S
C660 H676 0.931 . S
C661 C660 1.370 . S
C661 C665 1.408 . S
C662 C660 1.363 . S
C662 C663 1.370 . S
C662 C666 1.524 . S
C663 C655 1.503 1_554 S
C663 C662 1.370 . S
C663 C664 1.403 . S
C664 C663 1.403 . S
C664 C665 1.404 . S
C664 C667 1.539 . S
C665 C661 1.408 . S
C665 C664 1.404 . S
C665 H677 0.930 . S
C666 C662 1.524 . S
C666 H678 0.956 1_554 S
C666 H679 0.961 . S
C666 H680 0.961 . S
C667 C664 1.539 . S
C667 H681 0.958 1_554 S
C667 H682 0.961 . S
C667 H683 0.960 . S
H668 C652 0.931 . S
H669 C657 0.929 . S
H670 C658 0.960 . S
H671 C658 0.962 . S
H672 C658 0.960 . S
H673 C659 0.961 . S
H674 C659 0.961 . S
H675 C659 0.961 . S
H676 C660 0.931 . S
H677 C665 0.930 . S
H678 C666 0.956 1_556 S
H679 C666 0.961 . S
H680 C666 0.961 . S
H681 C667 0.958 1_556 S
H682 C667 0.961 . S
H683 C667 0.960 . S
C684 C685 1.391 . S
C684 C686 1.394 . S
C684 H700 0.931 . S
C685 C684 1.391 . S
C685 C689 1.376 . S
C686 C684 1.394 . S
C686 C687 1.369 . S
C686 C690 1.531 . S
C687 C686 1.369 . S
C687 C688 1.410 . S
C687 C695 1.503 . S
C688 C687 1.410 . S
C688 C689 1.392 . S
C688 C691 1.511 . S
C689 C685 1.376 . S
C689 C688 1.392 . S
C689 H701 0.929 . S
C690 C686 1.531 . S
C690 H702 0.960 . S
C690 H703 0.962 . S
C690 H704 0.960 . S
C691 C688 1.511 . S
C691 H705 0.961 . S
C691 H706 0.961 . S
C691 H707 0.961 . S
C692 C693 1.370 . S
C692 C694 1.363 . S
C692 H708 0.931 . S
C693 C692 1.370 . S
C693 C697 1.408 . S
C694 C692 1.363 . S
C694 C695 1.370 . S
C694 C698 1.524 . S
C695 C687 1.503 . S
C695 C694 1.370 . S
C695 C696 1.403 . S
C696 C695 1.403 . S
C696 C697 1.404 . S
C696 C699 1.539 . S
C697 C693 1.408 . S
C697 C696 1.404 . S
C697 H709 0.930 . S
C698 C694 1.524 . S
C698 H710 0.956 . S
C698 H711 0.961 . S
C698 H712 0.961 . S
C699 C696 1.539 . S
C699 H713 0.958 . S
C699 H714 0.961 . S
C699 H715 0.960 . S
H700 C684 0.931 . S
H701 C689 0.929 . S
H702 C690 0.960 . S
H703 C690 0.962 . S
H704 C690 0.960 . S
H705 C691 0.961 . S
H706 C691 0.961 . S
H707 C691 0.961 . S
H708 C692 0.931 . S
H709 C697 0.930 . S
H710 C698 0.956 . S
H711 C698 0.961 . S
H712 C698 0.961 . S
H713 C699 0.958 . S
H714 C699 0.961 . S
H715 C699 0.960 . S
C716 C717 1.391 . S
C716 C718 1.394 . S
C716 H732 0.931 . S
C717 C716 1.391 . S
C717 C721 1.376 . S
C718 C716 1.394 . S
C718 C719 1.369 . S
C718 C722 1.531 . S
C719 C718 1.369 . S
C719 C720 1.410 . S
C719 C727 1.503 . S
C720 C719 1.410 . S
C720 C721 1.392 . S
C720 C723 1.511 . S
C721 C717 1.376 . S
C721 C720 1.392 . S
C721 H733 0.929 . S
C722 C718 1.531 . S
C722 H734 0.960 . S
C722 H735 0.962 . S
C722 H736 0.960 . S
C723 C720 1.511 . S
C723 H737 0.961 . S
C723 H738 0.961 . S
C723 H739 0.961 . S
C724 C725 1.370 . S
C724 C726 1.363 . S
C724 H740 0.931 . S
C725 C724 1.370 . S
C725 C729 1.408 . S
C726 C724 1.363 . S
C726 C727 1.370 . S
C726 C730 1.524 . S
C727 C719 1.503 . S
C727 C726 1.370 . S
C727 C728 1.403 . S
C728 C727 1.403 . S
C728 C729 1.404 . S
C728 C731 1.539 . S
C729 C725 1.408 . S
C729 C728 1.404 . S
C729 H741 0.930 . S
C730 C726 1.524 . S
C730 H742 0.956 . S
C730 H743 0.961 . S
C730 H744 0.961 . S
C731 C728 1.539 . S
C731 H745 0.958 . S
C731 H746 0.961 . S
C731 H747 0.960 . S
H732 C716 0.931 . S
H733 C721 0.929 . S
H734 C722 0.960 . S
H735 C722 0.962 . S
H736 C722 0.960 . S
H737 C723 0.961 . S
H738 C723 0.961 . S
H739 C723 0.961 . S
H740 C724 0.931 . S
H741 C729 0.930 . S
H742 C730 0.956 . S
H743 C730 0.961 . S
H744 C730 0.961 . S
H745 C731 0.958 . S
H746 C731 0.961 . S
H747 C731 0.960 . S
C748 C749 1.391 . S
C748 C750 1.394 . S
C748 H764 0.931 . S
C749 C748 1.391 . S
C749 C753 1.376 1_554 S
C750 C748 1.394 . S
C750 C751 1.369 . S
C750 C754 1.531 . S
C751 C750 1.369 . S
C751 C752 1.410 1_554 S
C751 C759 1.503 1_554 S
C752 C751 1.410 1_556 S
C752 C753 1.392 . S
C752 C755 1.511 . S
C753 C749 1.376 1_556 S
C753 C752 1.392 . S
C753 H765 0.929 . S
C754 C750 1.531 . S
C754 H766 0.960 . S
C754 H767 0.962 . S
C754 H768 0.960 . S
C755 C752 1.511 . S
C755 H769 0.961 . S
C755 H770 0.961 . S
C755 H771 0.961 . S
C756 C757 1.370 . S
C756 C758 1.363 . S
C756 H772 0.931 . S
C757 C756 1.370 . S
C757 C761 1.408 1_556 S
C758 C756 1.363 . S
C758 C759 1.370 . S
C758 C762 1.524 . S
C759 C751 1.503 1_556 S
C759 C758 1.370 . S
C759 C760 1.403 1_556 S
C760 C759 1.403 1_554 S
C760 C761 1.404 . S
C760 C763 1.539 . S
C761 C757 1.408 1_554 S
C761 C760 1.404 . S
C761 H773 0.930 . S
C762 C758 1.524 . S
C762 H774 0.956 . S
C762 H775 0.961 . S
C762 H776 0.961 . S
C763 C760 1.539 . S
C763 H777 0.958 . S
C763 H778 0.961 . S
C763 H779 0.960 . S
H764 C748 0.931 . S
H765 C753 0.929 . S
H766 C754 0.960 . S
H767 C754 0.962 . S
H768 C754 0.960 . S
H769 C755 0.961 . S
H770 C755 0.961 . S
H771 C755 0.961 . S
H772 C756 0.931 . S
H773 C761 0.930 . S
H774 C762 0.956 . S
H775 C762 0.961 . S
H776 C762 0.961 . S
H777 C763 0.958 . S
H778 C763 0.961 . S
H779 C763 0.960 . S
C780 C781 1.391 . S
C780 C782 1.394 . S
C780 H796 0.931 . S
C781 C780 1.391 . S
C781 C785 1.376 . S
C782 C780 1.394 . S
C782 C783 1.369 . S
C782 C786 1.531 . S
C783 C782 1.369 . S
C783 C784 1.410 . S
C783 C791 1.503 . S
C784 C783 1.410 . S
C784 C785 1.392 . S
C784 C787 1.511 . S
C785 C781 1.376 . S
C785 C784 1.392 . S
C785 H797 0.929 . S
C786 C782 1.531 . S
C786 H798 0.960 . S
C786 H799 0.962 . S
C786 H800 0.960 . S
C787 C784 1.511 . S
C787 H801 0.961 . S
C787 H802 0.961 . S
C787 H803 0.961 . S
C788 C789 1.370 . S
C788 C790 1.363 . S
C788 H804 0.931 . S
C789 C788 1.370 . S
C789 C793 1.408 . S
C790 C788 1.363 . S
C790 C791 1.370 . S
C790 C794 1.524 . S
C791 C783 1.503 . S
C791 C790 1.370 . S
C791 C792 1.403 . S
C792 C791 1.403 . S
C792 C793 1.404 . S
C792 C795 1.539 . S
C793 C789 1.408 . S
C793 C792 1.404 . S
C793 H805 0.930 . S
C794 C790 1.524 . S
C794 H806 0.956 . S
C794 H807 0.961 . S
C794 H808 0.961 . S
C795 C792 1.539 . S
C795 H809 0.958 . S
C795 H810 0.961 . S
C795 H811 0.960 . S
H796 C780 0.931 . S
H797 C785 0.929 . S
H798 C786 0.960 . S
H799 C786 0.962 . S
H800 C786 0.960 . S
H801 C787 0.961 . S
H802 C787 0.961 . S
H803 C787 0.961 . S
H804 C788 0.931 . S
H805 C793 0.930 . S
H806 C794 0.956 . S
H807 C794 0.961 . S
H808 C794 0.961 . S
H809 C795 0.958 . S
H810 C795 0.961 . S
H811 C795 0.960 . S
C812 C813 1.391 . S
C812 C814 1.394 . S
C812 H828 0.931 . S
C813 C812 1.391 . S
C813 C817 1.376 . S
C814 C812 1.394 . S
C814 C815 1.369 . S
C814 C818 1.531 . S
C815 C814 1.369 . S
C815 C816 1.410 . S
C815 C823 1.503 1_455 S
C816 C815 1.410 . S
C816 C817 1.392 . S
C816 C819 1.511 . S
C817 C813 1.376 . S
C817 C816 1.392 . S
C817 H829 0.929 . S
C818 C814 1.531 . S
C818 H830 0.966 . S
C818 H831 0.962 . S
C818 H832 0.960 . S
C819 C816 1.511 . S
C819 H833 0.961 . S
C819 H834 0.961 1_455 S
C819 H835 0.961 . S
C820 C821 1.370 . S
C820 C822 1.363 . S
C820 H836 0.931 . S
C821 C820 1.370 . S
C821 C825 1.408 . S
C822 C820 1.363 . S
C822 C823 1.370 . S
C822 C826 1.524 . S
C823 C815 1.503 1_655 S
C823 C822 1.370 . S
C823 C824 1.403 . S
C824 C823 1.403 . S
C824 C825 1.404 . S
C824 C827 1.539 . S
C825 C821 1.408 . S
C825 C824 1.404 . S
C825 H837 0.930 . S
C826 C822 1.524 . S
C826 H838 0.956 . S
C826 H839 0.961 . S
C826 H840 0.961 . S
C827 C824 1.539 . S
C827 H841 0.958 . S
C827 H842 0.961 . S
C827 H843 0.960 1_655 S
H828 C812 0.931 . S
H829 C817 0.929 . S
H830 C818 0.966 . S
H831 C818 0.962 . S
H832 C818 0.960 . S
H833 C819 0.961 . S
H834 C819 0.961 1_655 S
H835 C819 0.961 . S
H836 C820 0.931 . S
H837 C825 0.930 . S
H838 C826 0.956 . S
H839 C826 0.961 . S
H840 C826 0.961 . S
H841 C827 0.958 . S
H842 C827 0.961 . S
H843 C827 0.960 1_455 S
C844 C845 1.391 . S
C844 C846 1.394 . S
C844 H860 0.931 . S
C845 C844 1.391 . S
C845 C849 1.376 . S
C846 C844 1.394 . S
C846 C847 1.369 . S
C846 C850 1.531 . S
C847 C846 1.369 . S
C847 C848 1.410 . S
C847 C855 1.503 1_545 S
C848 C847 1.410 . S
C848 C849 1.392 . S
C848 C851 1.511 . S
C849 C845 1.376 . S
C849 C848 1.392 . S
C849 H861 0.929 . S
C850 C846 1.531 . S
C850 H862 0.960 1_545 S
C850 H863 0.962 1_554 S
C850 H864 0.960 . S
C851 C848 1.511 . S
C851 H865 0.961 . S
C851 H866 0.961 1_544 S
C851 H867 0.961 . S
C852 C853 1.370 . S
C852 C854 1.363 . S
C852 H868 0.931 . S
C853 C852 1.370 . S
C853 C857 1.408 1_556 S
C854 C852 1.363 . S
C854 C855 1.370 1_556 S
C854 C858 1.552 . S
C855 C847 1.503 1_565 S
C855 C854 1.370 1_554 S
C855 C856 1.403 . S
C856 C855 1.403 . S
C856 C857 1.404 . S
C856 C859 1.539 . S
C857 C853 1.408 1_554 S
C857 C856 1.404 . S
C857 H869 0.930 . S
C858 C854 1.552 . S
C858 H870 0.956 1_565 S
C858 H871 0.919 1_565 S
C858 H872 0.976 . S
C859 C856 1.539 . S
C859 H873 0.958 . S
C859 H874 0.961 . S
C859 H875 0.960 . S
H860 C844 0.931 . S
H861 C849 0.929 . S
H862 C850 0.960 1_565 S
H863 C850 0.962 1_556 S
H864 C850 0.960 . S
H865 C851 0.961 . S
H866 C851 0.961 1_566 S
H867 C851 0.961 . S
H868 C852 0.931 . S
H869 C857 0.930 . S
H870 C858 0.956 1_545 S
H871 C858 0.919 1_545 S
H872 C858 0.976 . S
H873 C859 0.958 . S
H874 C859 0.961 . S
H875 C859 0.960 . S
C876 C877 1.391 . S
C876 C878 1.394 . S
C876 H892 0.931 . S
C877 C876 1.391 . S
C877 C881 1.376 . S
C878 C876 1.394 . S
C878 C879 1.369 . S
C878 C882 1.531 . S
C879 C878 1.369 . S
C879 C880 1.410 . S
C879 C887 1.503 . S
C880 C879 1.410 . S
C880 C881 1.392 . S
C880 C883 1.511 . S
C881 C877 1.376 . S
C881 C880 1.392 . S
C881 H893 0.929 . S
C882 C878 1.531 . S
C882 H894 0.960 . S
C882 H895 0.962 . S
C882 H896 0.960 . S
C883 C880 1.511 . S
C883 H897 0.961 . S
C883 H898 0.961 . S
C883 H899 0.961 . S
C884 C885 1.370 . S
C884 C886 1.363 . S
C884 H900 0.931 . S
C885 C884 1.370 . S
C885 C889 1.408 . S
C886 C884 1.363 . S
C886 C887 1.370 . S
C886 C890 1.524 . S
C887 C879 1.503 . S
C887 C886 1.370 . S
C887 C888 1.403 . S
C888 C887 1.403 . S
C888 C889 1.404 . S
C888 C891 1.539 . S
C889 C885 1.408 . S
C889 C888 1.404 . S
C889 H901 0.930 . S
C890 C886 1.524 . S
C890 H902 0.956 . S
C890 H903 0.961 . S
C890 H904 0.961 . S
C891 C888 1.539 . S
C891 H905 0.958 . S
C891 H906 0.961 . S
C891 H907 0.960 . S
H892 C876 0.931 . S
H893 C881 0.929 . S
H894 C882 0.960 . S
H895 C882 0.962 . S
H896 C882 0.960 . S
H897 C883 0.961 . S
H898 C883 0.961 . S
H899 C883 0.961 . S
H900 C884 0.931 . S
H901 C889 0.930 . S
H902 C890 0.956 . S
H903 C890 0.961 . S
H904 C890 0.961 . S
H905 C891 0.958 . S
H906 C891 0.961 . S
H907 C891 0.960 . S
C908 C909 1.391 . S
C908 C910 1.394 . S
C908 H924 0.931 . S
C909 C908 1.391 . S
C909 C913 1.376 . S
C910 C908 1.394 . S
C910 C911 1.369 . S
C910 C914 1.531 . S
C911 C910 1.369 . S
C911 C912 1.410 . S
C911 C919 1.503 1_455 S
C912 C911 1.410 . S
C912 C913 1.392 . S
C912 C915 1.511 . S
C913 C909 1.376 . S
C913 C912 1.392 . S
C913 H925 0.929 . S
C914 C910 1.531 . S
C914 H926 0.960 . S
C914 H927 0.962 . S
C914 H928 0.960 . S
C915 C912 1.511 . S
C915 H929 0.961 . S
C915 H930 0.961 1_455 S
C915 H931 0.961 1_455 S
C916 C917 1.370 . S
C916 C918 1.363 . S
C916 H932 0.931 . S
C917 C916 1.370 . S
C917 C921 1.408 . S
C918 C916 1.363 . S
C918 C919 1.370 . S
C918 C922 1.524 . S
C919 C911 1.503 1_655 S
C919 C918 1.370 . S
C919 C920 1.403 . S
C920 C919 1.403 . S
C920 C921 1.404 . S
C920 C923 1.539 . S
C921 C917 1.408 . S
C921 C920 1.404 . S
C921 H933 0.930 . S
C922 C918 1.524 . S
C922 H934 0.956 1_655 S
C922 H935 0.961 1_655 S
C922 H936 0.961 . S
C923 C920 1.539 . S
C923 H937 0.958 . S
C923 H938 0.961 . S
C923 H939 0.960 . S
H924 C908 0.931 . S
H925 C913 0.929 . S
H926 C914 0.960 . S
H927 C914 0.962 . S
H928 C914 0.960 . S
H929 C915 0.961 . S
H930 C915 0.961 1_655 S
H931 C915 0.961 1_655 S
H932 C916 0.931 . S
H933 C921 0.930 . S
H934 C922 0.956 1_455 S
H935 C922 0.961 1_455 S
H936 C922 0.961 . S
H937 C923 0.958 . S
H938 C923 0.961 . S
H939 C923 0.960 . S
C940 C941 1.391 1_554 S
C940 C942 1.394 . S
C940 H956 0.931 . S
C941 C940 1.391 1_556 S
C941 C945 1.376 . S
C942 C940 1.394 . S
C942 C943 1.369 1_554 S
C942 C946 1.531 . S
C943 C942 1.369 1_556 S
C943 C944 1.410 . S
C943 C951 1.503 1_546 S
C944 C943 1.410 . S
C944 C945 1.392 . S
C944 C947 1.511 . S
C945 C941 1.376 . S
C945 C944 1.392 . S
C945 H957 0.929 . S
C946 C942 1.531 . S
C946 H958 0.960 . S
C946 H959 0.962 . S
C946 H960 0.960 . S
C947 C944 1.511 . S
C947 H961 0.961 . S
C947 H962 0.961 1_545 S
C947 H963 0.971 1_545 S
C948 C949 1.370 . S
C948 C950 1.363 . S
C948 H964 0.931 . S
C949 C948 1.370 . S
C949 C953 1.408 . S
C950 C948 1.363 . S
C950 C951 1.370 . S
C950 C954 1.524 . S
C951 C943 1.503 1_564 S
C951 C950 1.370 . S
C951 C952 1.403 . S
C952 C951 1.403 . S
C952 C953 1.404 . S
C952 C955 1.539 1_554 S
C953 C949 1.408 . S
C953 C952 1.404 . S
C953 H965 0.930 . S
C954 C950 1.524 . S
C954 H966 0.956 1_565 S
C954 H967 0.985 1_554 S
C954 H968 0.961 . S
C955 C952 1.539 1_556 S
C955 H969 0.958 1_556 S
C955 H970 0.961 . S
C955 H971 0.960 . S
H956 C940 0.931 . S
H957 C945 0.929 . S
H958 C946 0.960 . S
H959 C946 0.962 . S
H960 C946 0.960 . S
H961 C947 0.961 . S
H962 C947 0.961 1_565 S
H963 C947 0.971 1_565 S
H964 C948 0.931 . S
H965 C953 0.930 . S
H966 C954 0.956 1_545 S
H967 C954 0.985 1_556 S
H968 C954 0.961 . S
H969 C955 0.958 1_554 S
H970 C955 0.961 . S
H971 C955 0.960 . S
C972 C973 1.391 . S
C972 C974 1.394 . S
C972 H988 0.931 . S
C973 C972 1.391 . S
C973 C977 1.376 . S
C974 C972 1.394 . S
C974 C975 1.369 . S
C974 C978 1.531 . S
C975 C974 1.369 . S
C975 C976 1.410 . S
C975 C983 1.503 . S
C976 C975 1.410 . S
C976 C977 1.392 . S
C976 C979 1.511 . S
C977 C973 1.376 . S
C977 C976 1.392 . S
C977 H989 0.929 . S
C978 C974 1.531 . S
C978 H990 0.960 . S
C978 H991 0.962 . S
C978 H992 0.960 . S
C979 C976 1.511 . S
C979 H993 0.961 . S
C979 H994 0.961 . S
C979 H995 0.961 . S
C980 C981 1.370 . S
C980 C982 1.363 . S
C980 H996 0.931 . S
C981 C980 1.370 . S
C981 C985 1.408 . S
C982 C980 1.363 . S
C982 C983 1.370 . S
C982 C986 1.524 . S
C983 C975 1.503 . S
C983 C982 1.370 . S
C983 C984 1.403 . S
C984 C983 1.403 . S
C984 C985 1.404 . S
C984 C987 1.539 . S
C985 C981 1.408 . S
C985 C984 1.404 . S
C985 H997 0.930 . S
C986 C982 1.524 . S
C986 H998 0.956 . S
C986 H999 0.961 . S
C986 H1000 0.961 . S
C987 C984 1.539 . S
C987 H1001 0.958 . S
C987 H1002 0.961 . S
C987 H1003 0.960 . S
H988 C972 0.931 . S
H989 C977 0.929 . S
H990 C978 0.960 . S
H991 C978 0.962 . S
H992 C978 0.960 . S
H993 C979 0.961 . S
H994 C979 0.961 . S
H995 C979 0.961 . S
H996 C980 0.931 . S
H997 C985 0.930 . S
H998 C986 0.956 . S
H999 C986 0.961 . S
H1000 C986 0.961 . S
H1001 C987 0.958 . S
H1002 C987 0.961 . S
H1003 C987 0.960 . S
C1004 C1005 1.391 . S
C1004 C1006 1.394 . S
C1004 H1020 0.931 . S
C1005 C1004 1.391 . S
C1005 C1009 1.376 . S
C1006 C1004 1.394 . S
C1006 C1007 1.369 . S
C1006 C1010 1.531 . S
C1007 C1006 1.369 . S
C1007 C1008 1.410 . S
C1007 C1015 1.503 . S
C1008 C1007 1.410 . S
C1008 C1009 1.392 . S
C1008 C1011 1.511 . S
C1009 C1005 1.376 . S
C1009 C1008 1.392 . S
C1009 H1021 0.929 . S
C1010 C1006 1.531 . S
C1010 H1022 0.960 . S
C1010 H1023 0.962 . S
C1010 H1024 0.960 . S
C1011 C1008 1.511 . S
C1011 H1025 0.961 . S
C1011 H1026 0.961 . S
C1011 H1027 0.961 . S
C1012 C1013 1.370 . S
C1012 C1014 1.349 1_556 S
C1012 H1028 0.931 . S
C1013 C1012 1.370 . S
C1013 C1017 1.408 . S
C1014 C1012 1.349 1_554 S
C1014 C1015 1.375 . S
C1014 C1018 1.533 . S
C1015 C1007 1.503 . S
C1015 C1014 1.375 . S
C1015 C1016 1.403 1_554 S
C1016 C1015 1.403 1_556 S
C1016 C1017 1.404 . S
C1016 C1019 1.539 1_556 S
C1017 C1013 1.408 . S
C1017 C1016 1.404 . S
C1017 H1029 0.930 . S
C1018 C1014 1.533 . S
C1018 H1030 0.956 . S
C1018 H1031 0.961 . S
C1018 H1032 0.961 . S
C1019 C1016 1.539 1_554 S
C1019 H1033 0.958 . S
C1019 H1034 0.961 1_554 S
C1019 H1035 0.960 . S
H1020 C1004 0.931 . S
H1021 C1009 0.929 . S
H1022 C1010 0.960 . S
H1023 C1010 0.962 . S
H1024 C1010 0.960 . S
H1025 C1011 0.961 . S
H1026 C1011 0.961 . S
H1027 C1011 0.961 . S
H1028 C1012 0.931 . S
H1029 C1017 0.930 . S
H1030 C1018 0.956 . S
H1031 C1018 0.961 . S
H1032 C1018 0.961 . S
H1033 C1019 0.958 . S
H1034 C1019 0.961 1_556 S
H1035 C1019 0.960 . S
C1036 C1037 1.391 . S
C1036 C1038 1.394 . S
C1036 H1052 0.931 . S
C1037 C1036 1.391 . S
C1037 C1041 1.376 . S
C1038 C1036 1.394 . S
C1038 C1039 1.369 . S
C1038 C1042 1.531 . S
C1039 C1038 1.369 . S
C1039 C1040 1.410 . S
C1039 C1047 1.503 . S
C1040 C1039 1.410 . S
C1040 C1041 1.392 . S
C1040 C1043 1.511 . S
C1041 C1037 1.376 . S
C1041 C1040 1.392 . S
C1041 H1053 0.929 . S
C1042 C1038 1.531 . S
C1042 H1054 0.960 . S
C1042 H1055 0.962 . S
C1042 H1056 0.960 . S
C1043 C1040 1.511 . S
C1043 H1057 0.961 . S
C1043 H1058 0.961 . S
C1043 H1059 0.961 . S
C1044 C1045 1.370 . S
C1044 C1046 1.363 . S
C1044 H1060 0.931 . S
C1045 C1044 1.370 . S
C1045 C1049 1.408 . S
C1046 C1044 1.363 . S
C1046 C1047 1.370 . S
C1046 C1050 1.524 . S
C1047 C1039 1.503 . S
C1047 C1046 1.370 . S
C1047 C1048 1.403 . S
C1048 C1047 1.403 . S
C1048 C1049 1.404 . S
C1048 C1051 1.539 . S
C1049 C1045 1.408 . S
C1049 C1048 1.404 . S
C1049 H1061 0.930 . S
C1050 C1046 1.524 . S
C1050 H1062 0.956 . S
C1050 H1063 0.961 . S
C1050 H1064 0.961 . S
C1051 C1048 1.539 . S
C1051 H1065 0.958 . S
C1051 H1066 0.961 . S
C1051 H1067 0.960 . S
H1052 C1036 0.931 . S
H1053 C1041 0.929 . S
H1054 C1042 0.960 . S
H1055 C1042 0.962 . S
H1056 C1042 0.960 . S
H1057 C1043 0.961 . S
H1058 C1043 0.961 . S
H1059 C1043 0.961 . S
H1060 C1044 0.931 . S
H1061 C1049 0.930 . S
H1062 C1050 0.956 . S
H1063 C1050 0.961 . S
H1064 C1050 0.961 . S
H1065 C1051 0.958 . S
H1066 C1051 0.961 . S
H1067 C1051 0.960 . S
C1068 C1069 1.391 . S
C1068 C1070 1.394 . S
C1068 H1084 0.931 . S
C1069 C1068 1.391 . S
C1069 C1073 1.376 . S
C1070 C1068 1.394 . S
C1070 C1071 1.369 . S
C1070 C1074 1.531 . S
C1071 C1070 1.369 . S
C1071 C1072 1.410 . S
C1071 C1079 1.503 . S
C1072 C1071 1.410 . S
C1072 C1073 1.392 . S
C1072 C1075 1.511 . S
C1073 C1069 1.376 . S
C1073 C1072 1.392 . S
C1073 H1085 0.929 . S
C1074 C1070 1.531 . S
C1074 H1086 0.960 . S
C1074 H1087 0.962 . S
C1074 H1088 0.960 . S
C1075 C1072 1.511 . S
C1075 H1089 0.961 . S
C1075 H1090 0.961 . S
C1075 H1091 0.961 . S
C1076 C1077 1.370 . S
C1076 C1078 1.363 . S
C1076 H1092 0.931 . S
C1077 C1076 1.370 . S
C1077 C1081 1.408 . S
C1078 C1076 1.363 . S
C1078 C1079 1.370 . S
C1078 C1082 1.524 . S
C1079 C1071 1.503 . S
C1079 C1078 1.370 . S
C1079 C1080 1.403 . S
C1080 C1079 1.403 . S
C1080 C1081 1.404 . S
C1080 C1083 1.539 . S
C1081 C1077 1.408 . S
C1081 C1080 1.404 . S
C1081 H1093 0.930 . S
C1082 C1078 1.524 . S
C1082 H1094 0.956 . S
C1082 H1095 0.961 . S
C1082 H1096 0.961 . S
C1083 C1080 1.539 . S
C1083 H1097 0.958 . S
C1083 H1098 0.961 . S
C1083 H1099 0.960 . S
H1084 C1068 0.931 . S
H1085 C1073 0.929 . S
H1086 C1074 0.960 . S
H1087 C1074 0.962 . S
H1088 C1074 0.960 . S
H1089 C1075 0.961 . S
H1090 C1075 0.961 . S
H1091 C1075 0.961 . S
H1092 C1076 0.931 . S
H1093 C1081 0.930 . S
H1094 C1082 0.956 . S
H1095 C1082 0.961 . S
H1096 C1082 0.961 . S
H1097 C1083 0.958 . S
H1098 C1083 0.961 . S
H1099 C1083 0.960 . S
C1100 C1101 1.391 . S
C1100 C1102 1.394 . S
C1100 H1116 0.931 . S
C1101 C1100 1.391 . S
C1101 C1105 1.376 . S
C1102 C1100 1.394 . S
C1102 C1103 1.369 . S
C1102 C1106 1.531 . S
C1103 C1102 1.369 . S
C1103 C1104 1.410 . S
C1103 C1111 1.503 . S
C1104 C1103 1.410 . S
C1104 C1105 1.392 . S
C1104 C1107 1.511 . S
C1105 C1101 1.376 . S
C1105 C1104 1.392 . S
C1105 H1117 0.929 . S
C1106 C1102 1.531 . S
C1106 H1118 0.960 . S
C1106 H1119 0.962 . S
C1106 H1120 0.960 . S
C1107 C1104 1.511 . S
C1107 H1121 0.961 . S
C1107 H1122 0.961 . S
C1107 H1123 0.961 . S
C1108 C1109 1.370 . S
C1108 C1110 1.363 1_556 S
C1108 H1124 0.931 . S
C1109 C1108 1.370 . S
C1109 C1113 1.408 . S
C1110 C1108 1.363 1_554 S
C1110 C1111 1.370 . S
C1110 C1114 1.524 . S
C1111 C1103 1.503 . S
C1111 C1110 1.370 . S
C1111 C1112 1.403 1_554 S
C1112 C1111 1.403 1_556 S
C1112 C1113 1.404 . S
C1112 C1115 1.543 . S
C1113 C1109 1.408 . S
C1113 C1112 1.404 . S
C1113 H1125 0.930 . S
C1114 C1110 1.524 . S
C1114 H1126 0.956 . S
C1114 H1127 0.961 . S
C1114 H1128 0.961 . S
C1115 C1112 1.543 . S
C1115 H1129 0.958 . S
C1115 H1130 0.971 . S
C1115 H1131 0.946 1_556 S
H1116 C1100 0.931 . S
H1117 C1105 0.929 . S
H1118 C1106 0.960 . S
H1119 C1106 0.962 . S
H1120 C1106 0.960 . S
H1121 C1107 0.961 . S
H1122 C1107 0.961 . S
H1123 C1107 0.961 . S
H1124 C1108 0.931 . S
H1125 C1113 0.930 . S
H1126 C1114 0.956 . S
H1127 C1114 0.961 . S
H1128 C1114 0.961 . S
H1129 C1115 0.958 . S
H1130 C1115 0.971 . S
H1131 C1115 0.946 1_554 S
C1132 C1133 1.391 . S
C1132 C1134 1.394 . S
C1132 H1148 0.931 . S
C1133 C1132 1.391 . S
C1133 C1137 1.376 . S
C1134 C1132 1.394 . S
C1134 C1135 1.369 . S
C1134 C1138 1.531 . S
C1135 C1134 1.369 . S
C1135 C1136 1.410 . S
C1135 C1143 1.503 . S
C1136 C1135 1.410 . S
C1136 C1137 1.392 . S
C1136 C1139 1.511 . S
C1137 C1133 1.376 . S
C1137 C1136 1.392 . S
C1137 H1149 0.929 . S
C1138 C1134 1.531 . S
C1138 H1150 0.960 . S
C1138 H1151 0.962 . S
C1138 H1152 0.960 . S
C1139 C1136 1.511 . S
C1139 H1153 0.961 . S
C1139 H1154 0.961 . S
C1139 H1155 0.961 . S
C1140 C1141 1.370 . S
C1140 C1142 1.363 . S
C1140 H1156 0.931 . S
C1141 C1140 1.370 . S
C1141 C1145 1.408 . S
C1142 C1140 1.363 . S
C1142 C1143 1.370 . S
C1142 C1146 1.524 . S
C1143 C1135 1.503 . S
C1143 C1142 1.370 . S
C1143 C1144 1.403 . S
C1144 C1143 1.403 . S
C1144 C1145 1.404 . S
C1144 C1147 1.539 . S
C1145 C1141 1.408 . S
C1145 C1144 1.404 . S
C1145 H1157 0.930 . S
C1146 C1142 1.524 . S
C1146 H1158 0.956 . S
C1146 H1159 0.961 . S
C1146 H1160 0.961 . S
C1147 C1144 1.539 . S
C1147 H1161 0.958 . S
C1147 H1162 0.961 . S
C1147 H1163 0.960 . S
H1148 C1132 0.931 . S
H1149 C1137 0.929 . S
H1150 C1138 0.960 . S
H1151 C1138 0.962 . S
H1152 C1138 0.960 . S
H1153 C1139 0.961 . S
H1154 C1139 0.961 . S
H1155 C1139 0.961 . S
H1156 C1140 0.931 . S
H1157 C1145 0.930 . S
H1158 C1146 0.956 . S
H1159 C1146 0.961 . S
H1160 C1146 0.961 . S
H1161 C1147 0.958 . S
H1162 C1147 0.961 . S
H1163 C1147 0.960 . S
C1164 C1165 1.391 . S
C1164 C1166 1.394 . S
C1164 H1180 0.931 . S
C1165 C1164 1.391 . S
C1165 C1169 1.376 . S
C1166 C1164 1.394 . S
C1166 C1167 1.369 1_554 S
C1166 C1170 1.531 1_554 S
C1167 C1166 1.369 1_556 S
C1167 C1168 1.410 1_556 S
C1167 C1175 1.503 . S
C1168 C1167 1.410 1_554 S
C1168 C1169 1.392 . S
C1168 C1171 1.511 1_554 S
C1169 C1165 1.376 . S
C1169 C1168 1.392 . S
C1169 H1181 0.929 . S
C1170 C1166 1.531 1_556 S
C1170 H1182 0.960 . S
C1170 H1183 0.962 . S
C1170 H1184 0.960 . S
C1171 C1168 1.511 1_556 S
C1171 H1185 0.961 1_556 S
C1171 H1186 0.961 . S
C1171 H1187 0.961 . S
C1172 C1173 1.370 . S
C1172 C1174 1.363 . S
C1172 H1188 0.931 . S
C1173 C1172 1.370 . S
C1173 C1177 1.408 . S
C1174 C1172 1.363 . S
C1174 C1175 1.370 . S
C1174 C1178 1.524 . S
C1175 C1167 1.503 . S
C1175 C1174 1.370 . S
C1175 C1176 1.403 . S
C1176 C1175 1.403 . S
C1176 C1177 1.404 . S
C1176 C1179 1.539 . S
C1177 C1173 1.408 . S
C1177 C1176 1.404 . S
C1177 H1189 0.930 . S
C1178 C1174 1.524 . S
C1178 H1190 0.956 . S
C1178 H1191 0.961 . S
C1178 H1192 0.961 . S
C1179 C1176 1.539 . S
C1179 H1193 0.958 . S
C1179 H1194 0.961 . S
C1179 H1195 0.960 . S
H1180 C1164 0.931 . S
H1181 C1169 0.929 . S
H1182 C1170 0.960 . S
H1183 C1170 0.962 . S
H1184 C1170 0.960 . S
H1185 C1171 0.961 1_554 S
H1186 C1171 0.961 . S
H1187 C1171 0.961 . S
H1188 C1172 0.931 . S
H1189 C1177 0.930 . S
H1190 C1178 0.956 . S
H1191 C1178 0.961 . S
H1192 C1178 0.961 . S
H1193 C1179 0.958 . S
H1194 C1179 0.961 . S
H1195 C1179 0.960 . S
C1196 C1197 1.391 . S
C1196 C1198 1.394 . S
C1196 H1212 0.931 . S
C1197 C1196 1.391 . S
C1197 C1201 1.376 . S
C1198 C1196 1.394 . S
C1198 C1199 1.369 . S
C1198 C1202 1.531 . S
C1199 C1198 1.369 . S
C1199 C1200 1.410 . S
C1199 C1207 1.503 . S
C1200 C1199 1.410 . S
C1200 C1201 1.392 . S
C1200 C1203 1.511 . S
C1201 C1197 1.376 . S
C1201 C1200 1.392 . S
C1201 H1213 0.929 . S
C1202 C1198 1.531 . S
C1202 H1214 0.960 . S
C1202 H1215 0.962 . S
C1202 H1216 0.960 . S
C1203 C1200 1.511 . S
C1203 H1217 0.961 . S
C1203 H1218 0.961 . S
C1203 H1219 0.961 . S
C1204 C1205 1.370 . S
C1204 C1206 1.363 . S
C1204 H1220 0.931 . S
C1205 C1204 1.370 . S
C1205 C1209 1.408 . S
C1206 C1204 1.363 . S
C1206 C1207 1.370 . S
C1206 C1210 1.524 . S
C1207 C1199 1.503 . S
C1207 C1206 1.370 . S
C1207 C1208 1.403 . S
C1208 C1207 1.403 . S
C1208 C1209 1.404 . S
C1208 C1211 1.539 . S
C1209 C1205 1.408 . S
C1209 C1208 1.404 . S
C1209 H1221 0.930 . S
C1210 C1206 1.524 . S
C1210 H1222 0.956 . S
C1210 H1223 0.961 . S
C1210 H1224 0.961 . S
C1211 C1208 1.539 . S
C1211 H1225 0.958 . S
C1211 H1226 0.961 . S
C1211 H1227 0.960 . S
H1212 C1196 0.931 . S
H1213 C1201 0.929 . S
H1214 C1202 0.960 . S
H1215 C1202 0.962 . S
H1216 C1202 0.960 . S
H1217 C1203 0.961 . S
H1218 C1203 0.961 . S
H1219 C1203 0.961 . S
H1220 C1204 0.931 . S
H1221 C1209 0.930 . S
H1222 C1210 0.956 . S
H1223 C1210 0.961 . S
H1224 C1210 0.961 . S
H1225 C1211 0.958 . S
H1226 C1211 0.961 . S
H1227 C1211 0.960 . S
C1228 C1229 1.391 . S
C1228 C1230 1.394 . S
C1228 H1244 0.931 . S
C1229 C1228 1.391 . S
C1229 C1233 1.376 . S
C1230 C1228 1.394 . S
C1230 C1231 1.369 . S
C1230 C1234 1.531 . S
C1231 C1230 1.369 . S
C1231 C1232 1.410 . S
C1231 C1239 1.503 . S
C1232 C1231 1.410 . S
C1232 C1233 1.392 . S
C1232 C1235 1.511 . S
C1233 C1229 1.376 . S
C1233 C1232 1.392 . S
C1233 H1245 0.929 . S
C1234 C1230 1.531 . S
C1234 H1246 0.960 . S
C1234 H1247 0.962 . S
C1234 H1248 0.960 . S
C1235 C1232 1.511 . S
C1235 H1249 0.961 . S
C1235 H1250 0.961 . S
C1235 H1251 0.961 . S
C1236 C1237 1.370 . S
C1236 C1238 1.363 . S
C1236 H1252 0.931 . S
C1237 C1236 1.370 . S
C1237 C1241 1.408 . S
C1238 C1236 1.363 . S
C1238 C1239 1.370 . S
C1238 C1242 1.524 . S
C1239 C1231 1.503 . S
C1239 C1238 1.370 . S
C1239 C1240 1.403 . S
C1240 C1239 1.403 . S
C1240 C1241 1.404 . S
C1240 C1243 1.539 . S
C1241 C1237 1.408 . S
C1241 C1240 1.404 . S
C1241 H1253 0.930 . S
C1242 C1238 1.524 . S
C1242 H1254 0.956 . S
C1242 H1255 0.961 . S
C1242 H1256 0.961 . S
C1243 C1240 1.539 . S
C1243 H1257 0.958 . S
C1243 H1258 0.961 . S
C1243 H1259 0.960 . S
H1244 C1228 0.931 . S
H1245 C1233 0.929 . S
H1246 C1234 0.960 . S
H1247 C1234 0.962 . S
H1248 C1234 0.960 . S
H1249 C1235 0.961 . S
H1250 C1235 0.961 . S
H1251 C1235 0.961 . S
H1252 C1236 0.931 . S
H1253 C1241 0.930 . S
H1254 C1242 0.956 . S
H1255 C1242 0.961 . S
H1256 C1242 0.961 . S
H1257 C1243 0.958 . S
H1258 C1243 0.961 . S
H1259 C1243 0.960 . S
C1260 C1261 1.391 . S
C1260 C1262 1.394 . S
C1260 H1276 0.931 . S
C1261 C1260 1.391 . S
C1261 C1265 1.376 . S
C1262 C1260 1.394 . S
C1262 C1263 1.369 . S
C1262 C1266 1.531 . S
C1263 C1262 1.369 . S
C1263 C1264 1.410 . S
C1263 C1271 1.503 . S
C1264 C1263 1.410 . S
C1264 C1265 1.392 . S
C1264 C1267 1.511 . S
C1265 C1261 1.376 . S
C1265 C1264 1.392 . S
C1265 H1277 0.929 . S
C1266 C1262 1.531 . S
C1266 H1278 0.960 . S
C1266 H1279 0.962 . S
C1266 H1280 0.960 . S
C1267 C1264 1.511 . S
C1267 H1281 0.961 . S
C1267 H1282 0.961 . S
C1267 H1283 0.961 . S
C1268 C1269 1.370 . S
C1268 C1270 1.363 1_554 S
C1268 H1284 0.931 . S
C1269 C1268 1.370 . S
C1269 C1273 1.408 . S
C1270 C1268 1.363 1_556 S
C1270 C1271 1.370 . S
C1270 C1274 1.524 . S
C1271 C1263 1.503 . S
C1271 C1270 1.370 . S
C1271 C1272 1.403 1_556 S
C1272 C1271 1.403 1_554 S
C1272 C1273 1.404 . S
C1272 C1275 1.539 . S
C1273 C1269 1.408 . S
C1273 C1272 1.404 . S
C1273 H1285 0.930 . S
C1274 C1270 1.524 . S
C1274 H1286 0.956 . S
C1274 H1287 0.961 . S
C1274 H1288 0.961 . S
C1275 C1272 1.539 . S
C1275 H1289 0.958 . S
C1275 H1290 0.961 . S
C1275 H1291 0.960 1_554 S
H1276 C1260 0.931 . S
H1277 C1265 0.929 . S
H1278 C1266 0.960 . S
H1279 C1266 0.962 . S
H1280 C1266 0.960 . S
H1281 C1267 0.961 . S
H1282 C1267 0.961 . S
H1283 C1267 0.961 . S
H1284 C1268 0.931 . S
H1285 C1273 0.930 . S
H1286 C1274 0.956 . S
H1287 C1274 0.961 . S
H1288 C1274 0.961 . S
H1289 C1275 0.958 . S
H1290 C1275 0.961 . S
H1291 C1275 0.960 1_556 S
C1292 C1293 1.391 . S
C1292 C1294 1.394 . S
C1292 H1308 0.931 . S
C1293 C1292 1.391 . S
C1293 C1297 1.376 . S
C1294 C1292 1.394 . S
C1294 C1295 1.369 . S
C1294 C1298 1.531 . S
C1295 C1294 1.369 . S
C1295 C1296 1.410 . S
C1295 C1303 1.503 . S
C1296 C1295 1.410 . S
C1296 C1297 1.392 . S
C1296 C1299 1.511 . S
C1297 C1293 1.376 . S
C1297 C1296 1.392 . S
C1297 H1309 0.929 . S
C1298 C1294 1.531 . S
C1298 H1310 0.960 . S
C1298 H1311 0.962 . S
C1298 H1312 0.960 . S
C1299 C1296 1.511 . S
C1299 H1313 0.961 . S
C1299 H1314 0.961 . S
C1299 H1315 0.961 . S
C1300 C1301 1.370 . S
C1300 C1302 1.363 . S
C1300 H1316 0.931 . S
C1301 C1300 1.370 . S
C1301 C1305 1.408 . S
C1302 C1300 1.363 . S
C1302 C1303 1.370 . S
C1302 C1306 1.524 . S
C1303 C1295 1.503 . S
C1303 C1302 1.370 . S
C1303 C1304 1.403 . S
C1304 C1303 1.403 . S
C1304 C1305 1.404 . S
C1304 C1307 1.539 . S
C1305 C1301 1.408 . S
C1305 C1304 1.404 . S
C1305 H1317 0.930 . S
C1306 C1302 1.524 . S
C1306 H1318 0.956 . S
C1306 H1319 0.961 . S
C1306 H1320 0.961 . S
C1307 C1304 1.539 . S
C1307 H1321 0.958 . S
C1307 H1322 0.961 . S
C1307 H1323 0.960 . S
H1308 C1292 0.931 . S
H1309 C1297 0.929 . S
H1310 C1298 0.960 . S
H1311 C1298 0.962 . S
H1312 C1298 0.960 . S
H1313 C1299 0.961 . S
H1314 C1299 0.961 . S
H1315 C1299 0.961 . S
H1316 C1300 0.931 . S
H1317 C1305 0.930 . S
H1318 C1306 0.956 . S
H1319 C1306 0.961 . S
H1320 C1306 0.961 . S
H1321 C1307 0.958 . S
H1322 C1307 0.961 . S
H1323 C1307 0.960 . S
C1324 C1325 1.391 . S
C1324 C1326 1.394 . S
C1324 H1340 0.931 . S
C1325 C1324 1.391 . S
C1325 C1329 1.376 . S
C1326 C1324 1.394 . S
C1326 C1327 1.369 . S
C1326 C1330 1.531 . S
C1327 C1326 1.369 . S
C1327 C1328 1.410 . S
C1327 C1335 1.503 . S
C1328 C1327 1.410 . S
C1328 C1329 1.392 . S
C1328 C1331 1.511 . S
C1329 C1325 1.376 . S
C1329 C1328 1.392 . S
C1329 H1341 0.929 . S
C1330 C1326 1.531 . S
C1330 H1342 0.960 . S
C1330 H1343 0.962 . S
C1330 H1344 0.960 . S
C1331 C1328 1.511 . S
C1331 H1345 0.961 . S
C1331 H1346 0.961 . S
C1331 H1347 0.961 . S
C1332 C1333 1.370 . S
C1332 C1334 1.363 . S
C1332 H1348 0.931 . S
C1333 C1332 1.370 . S
C1333 C1337 1.408 . S
C1334 C1332 1.363 . S
C1334 C1335 1.370 . S
C1334 C1338 1.524 . S
C1335 C1327 1.503 . S
C1335 C1334 1.370 . S
C1335 C1336 1.403 . S
C1336 C1335 1.403 . S
C1336 C1337 1.404 . S
C1336 C1339 1.539 . S
C1337 C1333 1.408 . S
C1337 C1336 1.404 . S
C1337 H1349 0.930 . S
C1338 C1334 1.524 . S
C1338 H1350 0.956 . S
C1338 H1351 0.961 . S
C1338 H1352 0.961 . S
C1339 C1336 1.539 . S
C1339 H1353 0.958 . S
C1339 H1354 0.961 . S
C1339 H1355 0.960 . S
H1340 C1324 0.931 . S
H1341 C1329 0.929 . S
H1342 C1330 0.960 . S
H1343 C1330 0.962 . S
H1344 C1330 0.960 . S
H1345 C1331 0.961 . S
H1346 C1331 0.961 . S
H1347 C1331 0.961 . S
H1348 C1332 0.931 . S
H1349 C1337 0.930 . S
H1350 C1338 0.956 . S
H1351 C1338 0.961 . S
H1352 C1338 0.961 . S
H1353 C1339 0.958 . S
H1354 C1339 0.961 . S
H1355 C1339 0.960 . S
C397 C18 1.415 . S
C405 C348 1.394 . S
C429 C381 1.424 . S
C437 C51 1.382 . S
C461 C216 1.421 . S
C469 C84 1.391 . S
C493 C249 1.409 . S
C501 C117 1.386 . S
C525 C150 1.369 . S
C533 C282 1.402 . S
C557 C315 1.429 . S
C565 C183 1.384 . S
C589 C219 1.591 . S
C597 C21 1.596 . S
C621 C252 1.576 . S
C629 C54 1.590 . S
C653 C87 1.596 . S
C661 C285 1.596 . S
C685 C120 1.586 . S
C693 C318 1.587 . S
C717 C351 1.597 . S
C725 C153 1.595 . S
C749 C384 1.598 . S
C757 C186 1.594 . S
C781 C7 1.332 . S
C789 C304 1.348 . S
C813 C337 1.322 . S
C821 C40 1.345 . S
C845 C370 1.348 . S
C853 C73 1.332 . S
C877 C205 1.333 . S
C885 C106 1.328 . S
C909 C139 1.362 . S
C917 C238 1.347 . S
C941 C172 1.361 . S
C949 C271 1.348 . S
C973 N2 1.012 . S
C981 N13 1.042 . S
C1005 N46 1.014 . S
C1013 N35 1.042 . S
C1037 N68 1.049 . S
C1045 N79 1.028 . S
C1069 N112 1.014 . S
C1077 N101 1.042 . S
C1101 N145 1.019 . S
C1109 N134 1.040 . S
C1133 N178 1.013 . S
C1141 N167 1.042 . S
C1165 N200 1.045 . S
C1173 N211 1.030 . S
C1197 N244 1.037 . S
C1205 N233 1.033 . S
C1229 N277 1.014 . S
C1237 N266 1.041 . S
C1261 N310 1.022 . S
C1269 N299 1.039 . S
C1293 N332 1.012 . S
C1301 N343 1.042 . S
C1325 N376 1.049 . S
C1333 N365 1.027 . S
