# Generated by pormake.
# Topology uki, (4)-cn, num edge types: 1
# Building blocks:
#     Node 0, Type 0, BuildingBlock: NAWXER_clean_sbu_0, # of connection points: 4
#     Node 1, Type 0, BuildingBlock: NAWXER_clean_sbu_0, # of connection points: 4
#     Node 2, Type 0, BuildingBlock: NAWXER_clean_sbu_0, # of connection points: 4
#     Node 3, Type 0, BuildingBlock: NAWXER_clean_sbu_0, # of connection points: 4
#     Node 4, Type 0, BuildingBlock: NAWXER_clean_sbu_0, # of connection points: 4
#     Node 5, Type 0, BuildingBlock: NAWXER_clean_sbu_0, # of connection points: 4
#     Node 6, Type 0, BuildingBlock: NAWXER_clean_sbu_0, # of connection points: 4
#     Node 7, Type 0, BuildingBlock: NAWXER_clean_sbu_0, # of connection points: 4
#     Node 8, Type 0, BuildingBlock: NAWXER_clean_sbu_0, # of connection points: 4
#     Node 9, Type 0, BuildingBlock: NAWXER_clean_sbu_0, # of connection points: 4
#     Node 10, Type 0, BuildingBlock: NAWXER_clean_sbu_0, # of connection points: 4
#     Node 11, Type 0, BuildingBlock: NAWXER_clean_sbu_0, # of connection points: 4
#     Node 12, Type 0, BuildingBlock: NAWXER_clean_sbu_0, # of connection points: 4
#     Node 13, Type 0, BuildingBlock: NAWXER_clean_sbu_0, # of connection points: 4
#     Node 14, Type 0, BuildingBlock: NAWXER_clean_sbu_0, # of connection points: 4
#     Node 15, Type 0, BuildingBlock: NAWXER_clean_sbu_0, # of connection points: 4
#     Edge 16, Type (0, 0), BuildingBlock: EZIPEK_clean_linker_0, # of connection points: 2
#     Edge 17, Type (0, 0), BuildingBlock: EZIPEK_clean_linker_0, # of connection points: 2
#     Edge 18, Type (0, 0), BuildingBlock: EZIPEK_clean_linker_0, # of connection points: 2
#     Edge 19, Type (0, 0), BuildingBlock: EZIPEK_clean_linker_0, # of connection points: 2
#     Edge 20, Type (0, 0), BuildingBlock: EZIPEK_clean_linker_0, # of connection points: 2
#     Edge 21, Type (0, 0), BuildingBlock: EZIPEK_clean_linker_0, # of connection points: 2
#     Edge 22, Type (0, 0), BuildingBlock: EZIPEK_clean_linker_0, # of connection points: 2
#     Edge 23, Type (0, 0), BuildingBlock: EZIPEK_clean_linker_0, # of connection points: 2
#     Edge 24, Type (0, 0), BuildingBlock: EZIPEK_clean_linker_0, # of connection points: 2
#     Edge 25, Type (0, 0), BuildingBlock: EZIPEK_clean_linker_0, # of connection points: 2
#     Edge 26, Type (0, 0), BuildingBlock: EZIPEK_clean_linker_0, # of connection points: 2
#     Edge 27, Type (0, 0), BuildingBlock: EZIPEK_clean_linker_0, # of connection points: 2
#     Edge 28, Type (0, 0), BuildingBlock: EZIPEK_clean_linker_0, # of connection points: 2
#     Edge 29, Type (0, 0), BuildingBlock: EZIPEK_clean_linker_0, # of connection points: 2
#     Edge 30, Type (0, 0), BuildingBlock: EZIPEK_clean_linker_0, # of connection points: 2
#     Edge 31, Type (0, 0), BuildingBlock: EZIPEK_clean_linker_0, # of connection points: 2
#     Edge 32, Type (0, 0), BuildingBlock: EZIPEK_clean_linker_0, # of connection points: 2
#     Edge 33, Type (0, 0), BuildingBlock: EZIPEK_clean_linker_0, # of connection points: 2
#     Edge 34, Type (0, 0), BuildingBlock: EZIPEK_clean_linker_0, # of connection points: 2
#     Edge 35, Type (0, 0), BuildingBlock: EZIPEK_clean_linker_0, # of connection points: 2
#     Edge 36, Type (0, 0), BuildingBlock: EZIPEK_clean_linker_0, # of connection points: 2
#     Edge 37, Type (0, 0), BuildingBlock: EZIPEK_clean_linker_0, # of connection points: 2
#     Edge 38, Type (0, 0), BuildingBlock: EZIPEK_clean_linker_0, # of connection points: 2
#     Edge 39, Type (0, 0), BuildingBlock: EZIPEK_clean_linker_0, # of connection points: 2
#     Edge 40, Type (0, 0), BuildingBlock: EZIPEK_clean_linker_0, # of connection points: 2
#     Edge 41, Type (0, 0), BuildingBlock: EZIPEK_clean_linker_0, # of connection points: 2
#     Edge 42, Type (0, 0), BuildingBlock: EZIPEK_clean_linker_0, # of connection points: 2
#     Edge 43, Type (0, 0), BuildingBlock: EZIPEK_clean_linker_0, # of connection points: 2
#     Edge 44, Type (0, 0), BuildingBlock: EZIPEK_clean_linker_0, # of connection points: 2
#     Edge 45, Type (0, 0), BuildingBlock: EZIPEK_clean_linker_0, # of connection points: 2
#     Edge 46, Type (0, 0), BuildingBlock: EZIPEK_clean_linker_0, # of connection points: 2
#     Edge 47, Type (0, 0), BuildingBlock: EZIPEK_clean_linker_0, # of connection points: 2
# Relax obj value: 0.074
# Max RMSD: 0.234
# Mean RMSD: 0.234
data_MOF--net-uki--node1-NAWXER_clean_sbu_0--edge1-EZIPEK_clean_linker_0
_symmetry_space_group_name_H-M    P1
_symmetry_Int_Tables_number       1
_symmetry_cell_setting            triclinic
loop_
_symmetry_equiv_pos_as_xyz
'x, y, z'
_cell_length_a     23.002688
_cell_length_b     23.171963
_cell_length_c     53.235664
_cell_angle_alpha  89.930994
_cell_angle_beta   90.002679
_cell_angle_gamma 89.936151
loop_
_atom_site_label
_atom_site_type_symbol
_atom_site_fract_x
_atom_site_fract_y
_atom_site_fract_z
_atom_type_partial_charge
C0 C 0.16004 0.21602 0.34297 0.0
C1 C 0.99324 0.24788 0.28853 0.0
O2 O 0.11013 0.23604 0.34812 0.0
Zn3 Zn 0.07521 0.2286 0.31557 0.0
O4 O 0.16991 0.19749 0.32068 0.0
Zn5 Zn 0.12001 0.18764 0.28655 0.0
O6 O 0.1685 0.22695 0.26308 0.0
O7 O 0.1257 0.28414 0.29071 0.0
O8 O 0.03412 0.2213 0.27684 0.0
O9 O 0.99892 0.26023 0.31162 0.0
O10 O 0.05965 0.13795 0.31322 0.0
O11 O 0.11278 0.10598 0.28219 0.0
C12 C 0.15853 0.27735 0.27137 0.0
C13 C 0.07831 0.09543 0.30017 0.0
C14 C 0.29509 0.862 0.73982 0.0
C15 C 0.12013 0.95178 0.70708 0.0
O16 O 0.30394 0.887 0.71867 0.0
Zn17 Zn 0.25517 0.93869 0.69255 0.0
O18 O 0.24396 0.8608 0.74877 0.0
Zn19 Zn 0.20642 0.90284 0.72201 0.0
O20 O 0.21387 0.84835 0.68905 0.0
O21 O 0.26476 0.89842 0.66139 0.0
O22 O 0.12525 0.91666 0.72527 0.0
O23 O 0.16412 0.96298 0.69305 0.0
O24 O 0.29457 0.01187 0.69672 0.0
O25 O 0.23997 0.98784 0.72896 0.0
C26 C 0.23742 0.8528 0.66725 0.0
C27 C 0.27421 0.02384 0.7183 0.0
C28 C 0.84486 0.71469 0.27266 0.0
C29 C 0.94077 0.88985 0.29909 0.0
O30 O 0.83716 0.7655 0.26431 0.0
Zn31 Zn 0.88654 0.80343 0.28799 0.0
O32 O 0.87642 0.70671 0.2923 0.0
Zn33 Zn 0.92802 0.75982 0.31748 0.0
O34 O 0.89113 0.75815 0.34984 0.0
O35 O 0.83465 0.79812 0.32159 0.0
O36 O 0.95419 0.84722 0.31319 0.0
O37 O 0.90146 0.88453 0.28255 0.0
O38 O 0.97103 0.76433 0.2794 0.0
O39 O 1.00189 0.72245 0.31445 0.0
C40 C 0.84255 0.78043 0.34415 0.0
C41 C 0.00967 0.73537 0.29148 0.0
C42 C 0.77824 0.15375 0.66298 0.0
C43 C 0.74649 0.99142 0.72055 0.0
O44 O 0.80175 0.16116 0.6846 0.0
Zn45 Zn 0.80885 0.11488 0.71947 0.0
O46 O 0.7522 0.10659 0.65831 0.0
Zn47 Zn 0.76328 0.07041 0.69068 0.0
O48 O 0.71035 0.12418 0.71379 0.0
O49 O 0.7657 0.16142 0.74333 0.0
O50 O 0.72862 0.99557 0.69799 0.0
O51 O 0.77767 0.03167 0.72986 0.0
O52 O 0.89087 0.10458 0.72382 0.0
O53 O 0.85497 0.05183 0.69285 0.0
C54 C 0.71558 0.15444 0.73371 0.0
C55 C 0.89803 0.06717 0.70665 0.0
C56 C 0.99422 0.23023 0.96806 0.0
C57 C 0.16141 0.26876 0.91477 0.0
O58 O 1.00161 0.21661 0.94518 0.0
Zn59 Zn 0.07618 0.25258 0.94159 0.0
O60 O 0.03301 0.25994 0.97967 0.0
Zn61 Zn 0.11758 0.29806 0.97035 0.0
O62 O 0.10488 0.37927 0.97471 0.0
O63 O 0.05311 0.34298 0.94363 0.0
O64 O 0.16813 0.29147 0.93651 0.0
O65 O 0.11432 0.24305 0.90958 0.0
O66 O 0.12713 0.20079 0.96782 0.0
O67 O 0.16816 0.26153 0.99426 0.0
C68 C 0.06755 0.38601 0.95744 0.0
C69 C 0.15952 0.21003 0.98708 0.0
C70 C 0.27513 0.84616 0.09873 0.0
C71 C 0.24119 0.00963 0.04294 0.0
O72 O 0.30069 0.83907 0.07756 0.0
Zn73 Zn 0.31082 0.88799 0.04348 0.0
O74 O 0.24807 0.89282 0.10302 0.0
Zn75 Zn 0.26063 0.92946 0.07091 0.0
O76 O 0.21286 0.87716 0.04448 0.0
O77 O 0.27662 0.83695 0.01902 0.0
O78 O 0.22234 1.00165 0.06512 0.0
O79 O 0.27493 0.97178 0.03299 0.0
O80 O 0.39251 0.90166 0.04086 0.0
O81 O 0.35153 0.95382 0.07071 0.0
C82 C 0.22413 0.84457 0.02562 0.0
C83 C 0.39655 0.93998 0.05778 0.0
C84 C 0.85318 0.72754 0.91859 0.0
C85 C 0.02141 0.76054 0.97202 0.0
O86 O 0.89983 0.75449 0.91383 0.0
Zn87 Zn 0.93855 0.74165 0.94535 0.0
O88 O 0.84724 0.70194 0.93981 0.0
Zn89 Zn 0.89914 0.69155 0.9733 0.0
O90 O 0.85001 0.72496 0.99884 0.0
O91 O 0.88721 0.7886 0.97256 0.0
O92 O 0.98417 0.72693 0.98248 0.0
O93 O 0.01157 0.77968 0.95005 0.0
O94 O 0.96325 0.6514 0.94497 0.0
O95 O 0.91369 0.6107 0.97574 0.0
C96 C 0.8564 0.77708 0.99203 0.0
C97 C 0.95079 0.60671 0.95819 0.0
C98 C 0.73715 0.15203 0.09588 0.0
C99 C 0.77332 0.9802 0.04502 0.0
O100 O 0.71384 0.15623 0.07404 0.0
Zn101 Zn 0.70644 0.1018 0.0412 0.0
O102 O 0.76422 0.10634 0.10199 0.0
Zn103 Zn 0.75453 0.06553 0.0709 0.0
O104 O 0.80464 0.11634 0.04506 0.0
O105 O 0.74567 0.14394 0.01479 0.0
O106 O 0.79321 0.99181 0.06672 0.0
O107 O 0.73939 0.01652 0.03434 0.0
O108 O 0.62466 0.08891 0.03793 0.0
O109 O 0.66303 0.04287 0.07035 0.0
C110 C 0.79661 0.1418 0.02397 0.0
C111 C 0.61903 0.05447 0.05636 0.0
C112 C 0.49326 0.77422 0.79558 0.0
C113 C 0.6613 0.73044 0.84798 0.0
O114 O 0.50194 0.78901 0.81824 0.0
Zn115 Zn 0.57599 0.75013 0.82233 0.0
O116 O 0.53082 0.74311 0.78413 0.0
Zn117 Zn 0.6143 0.70595 0.79198 0.0
O118 O 0.60038 0.62515 0.7871 0.0
O119 O 0.55189 0.66085 0.81942 0.0
O120 O 0.66724 0.71003 0.8257 0.0
O121 O 0.61444 0.75566 0.85418 0.0
O122 O 0.63189 0.80123 0.79857 0.0
O123 O 0.65883 0.74679 0.76699 0.0
C124 C 0.56436 0.61848 0.80492 0.0
C125 C 0.65851 0.79591 0.77759 0.0
C126 C 0.73175 0.34294 0.16609 0.0
C127 C 0.76691 0.50818 0.22085 0.0
O128 O 0.70905 0.33563 0.18788 0.0
Zn129 Zn 0.70153 0.38539 0.22202 0.0
O130 O 0.75715 0.39007 0.16087 0.0
Zn131 Zn 0.74812 0.42652 0.19306 0.0
O132 O 0.79982 0.37307 0.21719 0.0
O133 O 0.74224 0.33847 0.24666 0.0
O134 O 0.78633 0.49928 0.19882 0.0
O135 O 0.7341 0.4701 0.23097 0.0
O136 O 0.61944 0.3982 0.22603 0.0
O137 O 0.65697 0.44981 0.19512 0.0
C138 C 0.79278 0.34328 0.23723 0.0
C139 C 0.61344 0.43629 0.20902 0.0
C140 C 0.35318 0.27546 0.84408 0.0
C141 C 0.51863 0.24634 0.7886 0.0
O142 O 0.40042 0.24902 0.84851 0.0
Zn143 Zn 0.4379 0.26426 0.81692 0.0
O144 O 0.34626 0.30178 0.82306 0.0
Zn145 Zn 0.39631 0.31383 0.78911 0.0
O146 O 0.34539 0.28074 0.76427 0.0
O147 O 0.3856 0.21703 0.7899 0.0
O148 O 0.47854 0.2763 0.7781 0.0
O149 O 0.51331 0.23088 0.8114 0.0
O150 O 0.4589 0.354 0.81845 0.0
O151 O 0.41266 0.39485 0.78694 0.0
C152 C 0.35334 0.22855 0.77082 0.0
C153 C 0.44805 0.39875 0.80515 0.0
C154 C 0.27568 0.6548 0.16898 0.0
C155 C 0.2393 0.48499 0.22112 0.0
O156 O 0.29817 0.65992 0.19091 0.0
Zn157 Zn 0.30486 0.60729 0.22421 0.0
O158 O 0.24969 0.60853 0.16295 0.0
Zn159 Zn 0.25847 0.5687 0.19444 0.0
O160 O 0.20634 0.61933 0.2193 0.0
O161 O 0.26319 0.65156 0.2495 0.0
O162 O 0.22028 0.49538 0.19913 0.0
O163 O 0.27219 0.52217 0.23175 0.0
O164 O 0.38692 0.59386 0.22817 0.0
O165 O 0.34957 0.54547 0.19627 0.0
C166 C 0.21278 0.64702 0.23989 0.0
C167 C 0.39302 0.5576 0.21045 0.0
C168 C 0.48073 0.75049 0.46679 0.0
C169 C 0.65783 0.78753 0.4186 0.0
O170 O 0.48951 0.74048 0.44362 0.0
Zn171 Zn 0.56769 0.77047 0.44242 0.0
O172 O 0.52006 0.77543 0.47992 0.0
Zn173 Zn 0.60699 0.80788 0.47409 0.0
O174 O 0.59824 0.88884 0.48069 0.0
O175 O 0.55367 0.86201 0.44635 0.0
O176 O 0.66209 0.80581 0.44125 0.0
O177 O 0.61082 0.76426 0.41134 0.0
O178 O 0.61124 0.71034 0.46725 0.0
O179 O 0.6494 0.76196 0.49799 0.0
C180 C 0.56894 0.90248 0.46136 0.0
C181 C 0.64029 0.7133 0.48777 0.0
C182 C 0.77423 0.34362 0.59115 0.0
C183 C 0.73165 0.51531 0.54155 0.0
O184 O 0.80123 0.34236 0.57005 0.0
Zn185 Zn 0.80609 0.39721 0.53726 0.0
O186 O 0.74302 0.3871 0.59645 0.0
Zn187 Zn 0.75606 0.43143 0.56657 0.0
O188 O 0.7081 0.38334 0.53822 0.0
O189 O 0.77262 0.3503 0.511 0.0
O190 O 0.71969 0.50618 0.56451 0.0
O191 O 0.76291 0.47851 0.52964 0.0
O192 O 0.88698 0.4173 0.53432 0.0
O193 O 0.84628 0.45684 0.56759 0.0
C194 C 0.72011 0.35514 0.51811 0.0
C195 C 0.89086 0.44957 0.55348 0.0
C196 C 0.44604 0.11912 0.46301 0.0
C197 C 0.35967 0.30299 0.48619 0.0
O198 O 0.4116 0.12904 0.48115 0.0
Zn199 Zn 0.39658 0.20877 0.47301 0.0
O200 O 0.45665 0.15861 0.44677 0.0
Zn201 Zn 0.43282 0.24752 0.44081 0.0
O202 O 0.50856 0.28285 0.44079 0.0
O203 O 0.48262 0.24571 0.47749 0.0
O204 O 0.38772 0.30648 0.46544 0.0
O205 O 0.35299 0.25427 0.49674 0.0
O206 O 0.34082 0.20474 0.44051 0.0
O207 O 0.38875 0.24777 0.40995 0.0
C208 C 0.51971 0.27237 0.46375 0.0
C209 C 0.34366 0.22174 0.41762 0.0
C210 C 0.28437 0.66229 0.52273 0.0
C211 C 0.11229 0.56562 0.55563 0.0
O212 O 0.29616 0.63122 0.54211 0.0
Zn213 Zn 0.24697 0.57935 0.56921 0.0
O214 O 0.23199 0.66859 0.51565 0.0
Zn215 Zn 0.19836 0.61894 0.54073 0.0
O216 O 0.2071 0.67037 0.57433 0.0
O217 O 0.25926 0.61803 0.60066 0.0
O218 O 0.11668 0.60128 0.53764 0.0
O219 O 0.1568 0.55511 0.56937 0.0
O220 O 0.28253 0.50476 0.56505 0.0
O221 O 0.24023 0.53807 0.53086 0.0
C222 C 0.23209 0.66432 0.59572 0.0
C223 C 0.2707 0.49912 0.54187 0.0
C224 C 0.18357 0.33281 0.23197 0.0
C225 C 0.18355 0.32857 0.25857 0.0
C226 C 0.21712 0.42844 0.26124 0.0
C227 C 0.22352 0.43045 0.23452 0.0
N228 N 0.23335 0.374 0.19644 0.0
N229 N 0.21921 0.36675 0.29786 0.0
C230 C 0.21303 0.37945 0.22042 0.0
C231 C 0.20624 0.37459 0.27303 0.0
N232 N 0.15336 0.29442 0.21756 0.0
N233 N 0.21823 0.47729 0.2756 0.0
H234 H 0.21502 0.32703 0.30692 0.0
H235 H 0.24081 0.39776 0.30852 0.0
H236 H 0.22322 0.51881 0.26863 0.0
H237 H 0.20752 0.47705 0.29463 0.0
H238 H 0.14879 0.29942 0.19818 0.0
H239 H 0.12726 0.26198 0.22506 0.0
H240 H 0.22991 0.33564 0.18632 0.0
H241 H 0.26049 0.40445 0.18805 0.0
C242 C 0.38632 0.77191 0.78559 0.0
C243 C 0.44217 0.79592 0.78157 0.0
C244 C 0.39993 0.86779 0.7535 0.0
C245 C 0.34538 0.83881 0.7544 0.0
N246 N 0.29242 0.75311 0.76695 0.0
N247 N 0.50378 0.85619 0.75575 0.0
C248 C 0.3399 0.78804 0.76934 0.0
C249 C 0.44959 0.84033 0.76359 0.0
N250 N 0.37757 0.73339 0.80465 0.0
N251 N 0.40449 0.92285 0.74445 0.0
H252 H 0.54147 0.83565 0.76184 0.0
H253 H 0.5106 0.88517 0.74104 0.0
H254 H 0.36906 0.94761 0.73885 0.0
H255 H 0.4428 0.94672 0.74567 0.0
H256 H 0.33642 0.71875 0.80979 0.0
H257 H 0.41083 0.71984 0.8166 0.0
H258 H 0.2891 0.7132 0.77588 0.0
H259 H 0.25975 0.76028 0.75376 0.0
C260 C 0.79137 0.61417 0.2209 0.0
C261 C 0.78148 0.56248 0.23465 0.0
C262 C 0.79698 0.61735 0.2735 0.0
C263 C 0.81961 0.66414 0.25941 0.0
N264 N 0.85065 0.69949 0.21862 0.0
N265 N 0.7866 0.51432 0.27544 0.0
C266 C 0.82022 0.6607 0.23277 0.0
C267 C 0.78722 0.56371 0.26138 0.0
N268 N 0.77122 0.62031 0.19692 0.0
N269 N 0.78313 0.62423 0.29828 0.0
H270 H 0.78278 0.47302 0.26811 0.0
H271 H 0.79662 0.51406 0.29454 0.0
H272 H 0.78629 0.66379 0.30751 0.0
H273 H 0.76177 0.59253 0.30867 0.0
H274 H 0.77432 0.65912 0.18706 0.0
H275 H 0.74449 0.58988 0.18831 0.0
H276 H 0.8555 0.695 0.19924 0.0
H277 H 0.87682 0.73159 0.2263 0.0
C278 C 0.60971 0.26214 0.76326 0.0
C279 C 0.56735 0.224 0.77324 0.0
C280 C 0.61508 0.14255 0.75236 0.0
C281 C 0.66281 0.17908 0.74591 0.0
N282 N 0.70564 0.27434 0.74526 0.0
N283 N 0.53007 0.12733 0.77828 0.0
C284 C 0.66022 0.23907 0.75148 0.0
C285 C 0.57026 0.1641 0.7681 0.0
N286 N 0.60084 0.32043 0.76428 0.0
N287 N 0.61091 0.08774 0.74301 0.0
H288 H 0.49302 0.14122 0.7878 0.0
H289 H 0.53516 0.08265 0.77855 0.0
H290 H 0.64249 0.06756 0.73224 0.0
H291 H 0.57331 0.0629 0.7443 0.0
H292 H 0.62701 0.35044 0.75513 0.0
H293 H 0.56398 0.33888 0.77227 0.0
H294 H 0.70995 0.31636 0.7519 0.0
H295 H 0.74065 0.26105 0.73427 0.0
C296 C 0.21236 0.05848 1.00218 0.0
C297 C 0.2234 0.06186 0.02843 0.0
C298 C 0.18683 0.16108 0.02812 0.0
C299 C 0.1843 0.16036 1.00141 0.0
N300 N 0.21409 0.11196 0.96331 0.0
N301 N 0.23836 0.12454 0.06425 0.0
C302 C 0.20305 0.11016 0.98848 0.0
C303 C 0.21601 0.11565 0.04081 0.0
N304 N 0.20734 0.00642 0.99036 0.0
N305 N 0.15879 0.20267 0.04166 0.0
H306 H 0.26425 0.09423 0.07346 0.0
H307 H 0.23737 0.16479 0.07299 0.0
H308 H 0.1319 0.23374 0.03358 0.0
H309 H 0.15627 0.20145 0.06122 0.0
H310 H 0.19502 0.00287 0.97157 0.0
H311 H 0.20776 0.96709 0.99984 0.0
H312 H 0.23171 0.07708 0.95354 0.0
H313 H 0.21314 0.15035 0.95311 0.0
C314 C 0.12585 0.79785 0.02516 0.0
C315 C 0.17526 0.81729 0.01165 0.0
C316 C 0.1283 0.78553 0.97279 0.0
C317 C 0.0749 0.77809 0.98582 0.0
N318 N 0.02142 0.7934 0.02461 0.0
N319 N 0.21646 0.84146 0.97097 0.0
C320 C 0.07308 0.78857 0.01212 0.0
C321 C 0.17487 0.81432 0.98496 0.0
N322 N 0.12943 0.78662 0.05028 0.0
N323 N 0.13569 0.76363 0.9492 0.0
H324 H 0.249 0.86708 0.9787 0.0
H325 H 0.21423 0.84407 0.95144 0.0
H326 H 0.10447 0.73828 0.9403 0.0
H327 H 0.17564 0.76452 0.93994 0.0
H328 H 0.09516 0.76863 0.06044 0.0
H329 H 0.16873 0.78803 0.06003 0.0
H330 H 0.01904 0.80526 0.04348 0.0
H331 H 0.98121 0.79339 0.01562 0.0
C332 C 0.80463 0.87195 0.99256 0.0
C333 C 0.82886 0.82528 0.00617 0.0
C334 C 0.80212 0.87454 0.04519 0.0
C335 C 0.79041 0.92613 0.03156 0.0
N336 N 0.7957 0.97502 0.99099 0.0
N337 N 0.86086 0.78826 0.04651 0.0
C338 C 0.7956 0.92532 1.00484 0.0
C339 C 0.83038 0.82796 0.03284 0.0
N340 N 0.78887 0.8652 0.96801 0.0
N341 N 0.78425 0.86854 0.06951 0.0
H342 H 0.88514 0.75518 0.03844 0.0
H343 H 0.86708 0.79225 0.06584 0.0
H344 H 0.75864 0.89917 0.07863 0.0
H345 H 0.78829 0.82983 0.07938 0.0
H346 H 0.76695 0.89712 0.95791 0.0
H347 H 0.79089 0.82538 0.95892 0.0
H348 H 0.80431 0.97529 0.97175 0.0
H349 H 0.79495 0.0162 0.99868 0.0
C350 C 0.84286 0.21775 0.99622 0.0
C351 C 0.84746 0.16495 0.00974 0.0
C352 C 0.95051 0.15882 0.99784 0.0
C353 C 0.9435 0.20747 0.982 0.0
N354 N 0.87898 0.27448 0.96136 0.0
N355 N 0.90339 0.07752 0.0173 0.0
C356 C 0.88837 0.23416 0.97963 0.0
C357 C 0.90073 0.13335 0.009 0.0
N358 N 0.79681 0.25393 1.00013 0.0
N359 N 1.00457 0.13627 1.00207 0.0
H360 H 0.8678 0.0548 0.02412 0.0
H361 H 0.93961 0.05118 0.01464 0.0
H362 H 0.04191 0.15149 0.99322 0.0
H363 H 0.01279 0.10528 0.01584 0.0
H364 H 0.79439 0.29514 0.99233 0.0
H365 H 0.76462 0.24587 0.01345 0.0
H366 H 0.83799 0.29145 0.95743 0.0
H367 H 0.911 0.28657 0.94852 0.0
C368 C 0.73112 0.8391 0.74712 0.0
C369 C 0.68592 0.84731 0.76512 0.0
C370 C 0.69625 0.95171 0.75882 0.0
C371 C 0.72934 0.94198 0.73672 0.0
N372 N 0.77631 0.87396 0.70897 0.0
N373 N 0.61749 0.91651 0.78375 0.0
C374 C 0.74564 0.88482 0.73041 0.0
C375 C 0.66634 0.9049 0.76997 0.0
N376 N 0.7632 0.78944 0.74706 0.0
N377 N 0.69284 0.00514 0.76957 0.0
H378 H 0.59019 0.88614 0.79178 0.0
H379 H 0.59955 0.95782 0.78476 0.0
H380 H 0.71339 0.04167 0.7626 0.0
H381 H 0.67397 0.01186 0.78715 0.0
H382 H 0.79927 0.7835 0.73549 0.0
H383 H 0.75935 0.75794 0.76095 0.0
H384 H 0.78394 0.83225 0.70241 0.0
H385 H 0.79084 0.90642 0.69694 0.0
C386 C 0.89254 0.23605 0.27095 0.0
C387 C 0.94272 0.27052 0.27447 0.0
C388 C 0.89366 0.35309 0.25509 0.0
C389 C 0.84446 0.31773 0.24992 0.0
N390 N 0.80217 0.22247 0.24824 0.0
N391 N 0.99595 0.35772 0.26554 0.0
C392 C 0.84516 0.25829 0.25663 0.0
C393 C 0.94475 0.32774 0.26517 0.0
N394 N 0.88989 0.1824 0.28159 0.0
N395 N 0.89094 0.41153 0.25162 0.0
H396 H 0.03413 0.34128 0.27331 0.0
H397 H 1.00196 0.39681 0.25621 0.0
H398 H 0.8549 0.43276 0.24433 0.0
H399 H 0.92263 0.43993 0.25811 0.0
H400 H 0.85214 0.15767 0.28214 0.0
H401 H 0.92457 0.16418 0.29146 0.0
H402 H 0.80332 0.17782 0.25037 0.0
H403 H 0.76792 0.23663 0.23697 0.0
C404 C 0.30082 0.12994 0.71781 0.0
C405 C 0.29051 0.07825 0.73156 0.0
C406 C 0.30337 0.13301 0.77044 0.0
C407 C 0.3263 0.18011 0.75674 0.0
N408 N 0.35691 0.21783 0.71634 0.0
N409 N 0.29693 0.02976 0.77215 0.0
C410 C 0.32773 0.17736 0.73008 0.0
C411 C 0.29569 0.07938 0.75825 0.0
N412 N 0.28286 0.13518 0.69346 0.0
N413 N 0.28756 0.13967 0.79498 0.0
H414 H 0.29713 0.98858 0.76443 0.0
H415 H 0.30546 0.02973 0.79139 0.0
H416 H 0.28852 0.17973 0.80389 0.0
H417 H 0.26659 0.10736 0.80518 0.0
H418 H 0.28575 0.17388 0.68353 0.0
H419 H 0.25829 0.10374 0.68437 0.0
H420 H 0.36315 0.21393 0.69702 0.0
H421 H 0.38014 0.25165 0.72437 0.0
C422 C 0.06018 0.65744 0.26779 0.0
C423 C 0.06142 0.71363 0.2781 0.0
C424 C 0.15903 0.72901 0.2608 0.0
C425 C 0.16055 0.67041 0.25292 0.0
N426 N 0.11491 0.57603 0.25243 0.0
N427 N 0.11315 0.80149 0.28713 0.0
C428 C 0.11165 0.6339 0.25725 0.0
C429 C 0.11124 0.74905 0.27542 0.0
N430 N 0.00931 0.62688 0.26752 0.0
N431 N 0.20156 0.76629 0.25317 0.0
H432 H 0.07839 0.81794 0.29749 0.0
H433 H 0.15046 0.82678 0.28813 0.0
H434 H 0.23608 0.75386 0.24169 0.0
H435 H 0.19973 0.81067 0.25612 0.0
H436 H 1.00377 0.58877 0.25744 0.0
H437 H 0.97091 0.64196 0.27561 0.0
H438 H 0.08361 0.54652 0.25832 0.0
H439 H 0.15091 0.55614 0.24447 0.0
C440 C 0.73805 0.59078 0.50735 0.0
C441 C 0.70704 0.56603 0.52785 0.0
C442 C 0.63108 0.63957 0.52221 0.0
C443 C 0.6599 0.6598 0.50041 0.0
N444 N 0.72678 0.63703 0.46711 0.0
N445 N 0.61283 0.55598 0.54807 0.0
C446 C 0.70903 0.62998 0.49132 0.0
C447 C 0.65034 0.5874 0.5336 0.0
N448 N 0.79558 0.5792 0.50347 0.0
N449 N 0.58437 0.66888 0.5316 0.0
H450 H 0.62173 0.51428 0.55428 0.0
H451 H 0.56966 0.56798 0.55094 0.0
H452 H 0.56661 0.7051 0.5228 0.0
H453 H 0.56573 0.65907 0.54894 0.0
H454 H 0.81995 0.6003 0.48973 0.0
H455 H 0.82072 0.55451 0.51566 0.0
H456 H 0.76053 0.61305 0.45922 0.0
H457 H 0.70193 0.66002 0.45418 0.0
C458 C 0.66574 0.27374 0.49713 0.0
C459 C 0.67193 0.33364 0.5021 0.0
C460 C 0.57849 0.35313 0.48154 0.0
C461 C 0.57374 0.29386 0.47542 0.0
N462 N 0.61618 0.19894 0.4734 0.0
N463 N 0.642 0.43155 0.49332 0.0
C464 C 0.61848 0.25446 0.48202 0.0
C465 C 0.63051 0.37371 0.49265 0.0
N466 N 0.70352 0.23513 0.50768 0.0
N467 N 0.53248 0.38949 0.47761 0.0
H468 H 0.6809 0.44818 0.50015 0.0
H469 H 0.61602 0.4625 0.4846 0.0
H470 H 0.49378 0.37638 0.46915 0.0
H471 H 0.53084 0.43145 0.48458 0.0
H472 H 0.69739 0.19064 0.50728 0.0
H473 H 0.73929 0.24766 0.51836 0.0
H474 H 0.64995 0.16938 0.47547 0.0
H475 H 0.58211 0.18365 0.46232 0.0
C476 C 0.35187 0.42873 0.53206 0.0
C477 C 0.29476 0.44987 0.52708 0.0
C478 C 0.29015 0.38579 0.49062 0.0
C479 C 0.34018 0.35625 0.49907 0.0
N480 N 0.41863 0.34812 0.52897 0.0
N481 N 0.20508 0.43843 0.50336 0.0
C482 C 0.37075 0.3769 0.52033 0.0
C483 C 0.26251 0.42566 0.50682 0.0
N484 N 0.38992 0.46015 0.54624 0.0
N485 N 0.27022 0.37773 0.46679 0.0
H486 H 0.18122 0.46472 0.51535 0.0
H487 H 0.17945 0.41736 0.49008 0.0
H488 H 0.29377 0.35401 0.4537 0.0
H489 H 0.23593 0.40144 0.45916 0.0
H490 H 0.43342 0.4487 0.54853 0.0
H491 H 0.38069 0.50144 0.55287 0.0
H492 H 0.43862 0.35799 0.546 0.0
H493 H 0.43619 0.31226 0.51988 0.0
C494 C 0.41842 0.66823 0.4812 0.0
C495 C 0.42786 0.72863 0.47952 0.0
C496 C 0.34426 0.74593 0.50725 0.0
C497 C 0.33241 0.68587 0.50729 0.0
N498 N 0.35041 0.5913 0.48998 0.0
N499 N 0.3954 0.82578 0.48759 0.0
C500 C 0.3672 0.64744 0.49297 0.0
C501 C 0.38947 0.7678 0.49161 0.0
N502 N 0.45978 0.63048 0.47275 0.0
N503 N 0.31365 0.7817 0.5228 0.0
H504 H 0.42779 0.84313 0.47613 0.0
H505 H 0.36551 0.85634 0.49383 0.0
H506 H 0.27991 0.76715 0.53427 0.0
H507 H 0.32437 0.8248 0.52576 0.0
H508 H 0.45827 0.58625 0.4762 0.0
H509 H 0.49847 0.64359 0.4643 0.0
H510 H 0.3707 0.56284 0.47764 0.0
H511 H 0.31261 0.57463 0.49792 0.0
C512 C 0.24604 0.25244 0.4019 0.0
C513 C 0.29354 0.21397 0.40036 0.0
C514 C 0.24736 0.16845 0.36395 0.0
C515 C 0.2066 0.21485 0.36257 0.0
N516 N 0.18032 0.31041 0.37745 0.0
N517 N 0.34247 0.13718 0.37836 0.0
C518 C 0.20944 0.25956 0.38079 0.0
C519 C 0.29543 0.17272 0.38076 0.0
N520 N 0.23484 0.28129 0.42363 0.0
N521 N 0.23857 0.1189 0.3506 0.0
H522 H 0.37693 0.13726 0.39111 0.0
H523 H 0.34872 0.11045 0.36286 0.0
H524 H 0.20134 0.11138 0.33996 0.0
H525 H 0.26467 0.08241 0.35262 0.0
H526 H 0.19824 0.30733 0.42601 0.0
H527 H 0.25745 0.2722 0.44012 0.0
H528 H 0.18504 0.34525 0.38967 0.0
H529 H 0.15816 0.32075 0.36097 0.0
C530 C 0.28661 0.73726 0.62121 0.0
C531 C 0.23267 0.71265 0.61399 0.0
C532 C 0.18106 0.78315 0.64027 0.0
C533 C 0.23527 0.80381 0.64931 0.0
N534 N 0.33936 0.79228 0.65236 0.0
N535 N 0.12881 0.70587 0.61941 0.0
C536 C 0.28801 0.77856 0.64089 0.0
C537 C 0.17985 0.73389 0.62426 0.0
N538 N 0.33634 0.72307 0.60856 0.0
N539 N 0.13094 0.81187 0.64616 0.0
H540 H 0.1263 0.66956 0.60789 0.0
H541 H 0.08985 0.7155 0.62844 0.0
H542 H 0.13013 0.84838 0.65759 0.0
H543 H 0.09087 0.80264 0.63801 0.0
H544 H 0.37572 0.74437 0.61121 0.0
H545 H 0.33716 0.69403 0.59361 0.0
H546 H 0.37819 0.7706 0.64879 0.0
H547 H 0.34223 0.8213 0.66727 0.0
C548 C 0.70623 0.82976 0.38012 0.0
C549 C 0.70794 0.79192 0.40104 0.0
C550 C 0.79177 0.74299 0.38296 0.0
C551 C 0.79526 0.78478 0.36343 0.0
N552 N 0.76367 0.879 0.3487 0.0
N553 N 0.76753 0.72938 0.42651 0.0
C554 C 0.75458 0.83141 0.36334 0.0
C555 C 0.75559 0.75399 0.40386 0.0
N556 N 0.65934 0.86497 0.37651 0.0
N557 N 0.81972 0.69113 0.38114 0.0
H558 H 0.74549 0.74134 0.44278 0.0
H559 H 0.80433 0.70396 0.42957 0.0
H560 H 0.84077 0.67745 0.36486 0.0
H561 H 0.81465 0.65857 0.39451 0.0
H562 H 0.65321 0.8889 0.36013 0.0
H563 H 0.62498 0.86743 0.38926 0.0
H564 H 0.73759 0.91573 0.34965 0.0
H565 H 0.80111 0.88516 0.33806 0.0
C566 C 0.78658 0.19083 0.61828 0.0
C567 C 0.77858 0.20184 0.6443 0.0
C568 C 0.78075 0.30554 0.6354 0.0
C569 C 0.77842 0.29444 0.60921 0.0
N570 N 0.76354 0.22347 0.57639 0.0
N571 N 0.74997 0.27144 0.67599 0.0
C572 C 0.77711 0.2362 0.60073 0.0
C573 C 0.7706 0.25972 0.65247 0.0
N574 N 0.80503 0.13799 0.6102 0.0
N575 N 0.79444 0.3592 0.64418 0.0
H576 H 0.73588 0.23946 0.68833 0.0
H577 H 0.7395 0.31312 0.68183 0.0
H578 H 0.80655 0.39313 0.63242 0.0
H579 H 0.80086 0.36761 0.66322 0.0
H580 H 0.81599 0.12989 0.59152 0.0
H581 H 0.816 0.10456 0.62243 0.0
H582 H 0.75738 0.18132 0.57011 0.0
H583 H 0.75124 0.25465 0.56334 0.0
C584 C 0.23127 0.32438 0.88771 0.0
C585 C 0.20962 0.27044 0.89623 0.0
C586 C 0.2802 0.21978 0.86953 0.0
C587 C 0.30488 0.27368 0.86258 0.0
N588 N 0.31057 0.37678 0.86814 0.0
N589 N 0.21853 0.16666 0.89822 0.0
C590 C 0.28216 0.32592 0.87248 0.0
C591 C 0.23535 0.21809 0.8879 0.0
N592 N 0.20186 0.37401 0.89337 0.0
N593 N 0.29792 0.17021 0.85787 0.0
H594 H 0.18474 0.16291 0.91114 0.0
H595 H 0.24089 0.12808 0.89548 0.0
H596 H 0.33144 0.16886 0.84473 0.0
H597 H 0.27637 0.13093 0.85967 0.0
H598 H 0.21178 0.41402 0.88557 0.0
H599 H 0.16402 0.37451 0.90417 0.0
H600 H 0.29986 0.41539 0.877 0.0
H601 H 0.34837 0.37954 0.85738 0.0
C602 C 0.32925 0.72524 0.14146 0.0
C603 C 0.27603 0.70458 0.15147 0.0
C604 C 0.22204 0.77549 0.12638 0.0
C605 C 0.27545 0.7989 0.11764 0.0
N606 N 0.37999 0.8036 0.12064 0.0
N607 N 0.17306 0.71784 0.15789 0.0
C608 C 0.32918 0.77582 0.12622 0.0
C609 C 0.22277 0.73192 0.14519 0.0
N610 N 0.37961 0.69551 0.14587 0.0
N611 N 0.17054 0.79288 0.11599 0.0
H612 H 0.17172 0.68654 0.17198 0.0
H613 H 0.13437 0.7409 0.15616 0.0
H614 H 0.16747 0.82476 0.10225 0.0
H615 H 0.13114 0.77219 0.11941 0.0
H616 H 0.41874 0.70467 0.13689 0.0
H617 H 0.38134 0.6585 0.15703 0.0
H618 H 0.41998 0.79232 0.1284 0.0
H619 H 0.38154 0.84154 0.1101 0.0
C620 C 0.78151 0.78131 0.89162 0.0
C621 C 0.80469 0.72785 0.90014 0.0
C622 C 0.73073 0.67581 0.87576 0.0
C623 C 0.71088 0.72905 0.86575 0.0
N624 N 0.72475 0.83144 0.8601 0.0
N625 N 0.80842 0.62403 0.89686 0.0
C626 C 0.73835 0.78153 0.87254 0.0
C627 C 0.78117 0.67494 0.89129 0.0
N628 N 0.79875 0.83192 0.9025 0.0
N629 N 0.70031 0.62634 0.87105 0.0
H630 H 0.8461 0.62171 0.90771 0.0
H631 H 0.7969 0.58467 0.88887 0.0
H632 H 0.66322 0.62549 0.85978 0.0
H633 H 0.70885 0.58718 0.87994 0.0
H634 H 0.77824 0.87129 0.89917 0.0
H635 H 0.83003 0.83416 0.91662 0.0
H636 H 0.74805 0.86964 0.86222 0.0
H637 H 0.69364 0.83352 0.84586 0.0
C638 C 0.78776 0.22817 0.12108 0.0
C639 C 0.7351 0.20158 0.11348 0.0
C640 C 0.67959 0.27192 0.13833 0.0
C641 C 0.73251 0.29466 0.14781 0.0
N642 N 0.83674 0.28674 0.15214 0.0
N643 N 0.63108 0.19227 0.11747 0.0
C644 C 0.78659 0.27075 0.14024 0.0
C645 C 0.68094 0.22194 0.12276 0.0
N646 N 0.83877 0.21439 0.10931 0.0
N647 N 0.62825 0.29916 0.14357 0.0
H648 H 0.63041 0.15535 0.10628 0.0
H649 H 0.59115 0.20127 0.12582 0.0
H650 H 0.62566 0.33588 0.15484 0.0
H651 H 0.58893 0.2884 0.13511 0.0
H652 H 0.87736 0.23694 0.11217 0.0
H653 H 0.84147 0.18414 0.09487 0.0
H654 H 0.87642 0.26603 0.14932 0.0
H655 H 0.83788 0.31692 0.16664 0.0
C656 C 0.02473 0.94673 0.28317 0.0
C657 C 0.97737 0.94181 0.3001 0.0
C658 C 0.01188 0.02626 0.32321 0.0
C659 C 0.05365 0.03621 0.30403 0.0
N660 N 0.11958 0.98815 0.27572 0.0
N661 N 0.92377 0.9767 0.33585 0.0
C662 C 0.066 0.9914 0.28671 0.0
C663 C 0.9706 0.98127 0.32017 0.0
N664 N 0.02997 0.90915 0.2635 0.0
N665 N 0.01551 0.05588 0.34532 0.0
H666 H 0.89307 0.9438 0.33425 0.0
H667 H 0.91276 0.00793 0.34908 0.0
H668 H 0.0508 0.08235 0.34958 0.0
H669 H 0.98897 0.04785 0.36077 0.0
H670 H 0.05969 0.91477 0.24895 0.0
H671 H 1.00176 0.87459 0.26064 0.0
H672 H 0.13282 0.95393 0.26441 0.0
H673 H 0.15394 0.01465 0.28115 0.0
C674 C 0.00615 0.07067 0.70071 0.0
C675 C 0.95485 0.03771 0.70393 0.0
C676 C 0.01237 0.94882 0.7021 0.0
C677 C 0.06402 0.98187 0.70319 0.0
N678 N 0.10987 0.07548 0.70744 0.0
N679 N 0.91048 0.94508 0.71257 0.0
C680 C 0.06109 0.04323 0.70329 0.0
C681 C 0.95811 0.97658 0.70572 0.0
N682 N 1.00247 0.12792 0.69471 0.0
N683 N 0.01505 0.89095 0.69727 0.0
H684 H 0.87057 0.96369 0.71695 0.0
H685 H 0.91226 0.90108 0.71658 0.0
H686 H 0.05416 0.86941 0.69394 0.0
H687 H 0.9783 0.86585 0.69392 0.0
H688 H 0.03845 0.15266 0.6897 0.0
H689 H 0.96287 0.14919 0.69225 0.0
H690 H 0.10872 0.11988 0.71047 0.0
H691 H 0.15092 0.0577 0.71022 0.0
C692 C 0.97633 0.44578 0.95706 0.0
C693 C 0.03766 0.4424 0.95461 0.0
C694 C 0.04311 0.54796 0.95382 0.0
C695 C 0.98126 0.55096 0.9541 0.0
N696 N 0.88974 0.50174 0.94863 0.0
N697 N 0.12803 0.48969 0.94458 0.0
C698 C 0.94811 0.49948 0.9533 0.0
C699 C 0.07063 0.49336 0.951 0.0
N700 N 0.94522 0.39885 0.96477 0.0
N701 N 0.07585 0.59622 0.95797 0.0
H702 H 0.14937 0.45034 0.9421 0.0
H703 H 0.15268 0.52541 0.9393 0.0
H704 H 0.05817 0.63684 0.96131 0.0
H705 H 0.12072 0.5949 0.96059 0.0
H706 H 0.90113 0.40083 0.96921 0.0
H707 H 0.96469 0.35975 0.96954 0.0
H708 H 0.86462 0.46494 0.94569 0.0
H709 H 0.8679 0.54032 0.94492 0.0
C710 C 0.45609 0.03139 0.05941 0.0
C711 C 0.45272 0.97028 0.06149 0.0
C712 C 0.55902 0.96404 0.06126 0.0
C713 C 0.56242 0.02532 0.06061 0.0
N714 N 0.51443 0.11696 0.06617 0.0
N715 N 0.50044 0.88052 0.07155 0.0
C716 C 0.51096 0.05889 0.06198 0.0
C717 C 0.50409 0.93729 0.06474 0.0
N718 N 0.40791 0.06313 0.0534 0.0
N719 N 0.60729 0.93104 0.05692 0.0
H720 H 0.46085 0.85988 0.0748 0.0
H721 H 0.53655 0.85587 0.07656 0.0
H722 H 0.64822 0.94823 0.0533 0.0
H723 H 0.60562 0.88647 0.05447 0.0
H724 H 0.40961 0.10689 0.04896 0.0
H725 H 0.36703 0.04513 0.05046 0.0
H726 H 0.47818 0.14265 0.06978 0.0
H727 H 0.55392 0.1383 0.0687 0.0
C728 C 0.5394 0.4578 0.81329 0.0
C729 C 0.47778 0.4546 0.81015 0.0
C730 C 0.47333 0.5593 0.80443 0.0
C731 C 0.53426 0.56269 0.80814 0.0
N732 N 0.62289 0.51819 0.82243 0.0
N733 N 0.38565 0.50422 0.8116 0.0
C734 C 0.56653 0.51284 0.81459 0.0
C735 C 0.44461 0.50607 0.80855 0.0
N736 N 0.57285 0.40902 0.81369 0.0
N737 N 0.4432 0.60599 0.79564 0.0
H738 H 0.36353 0.46614 0.81588 0.0
H739 H 0.35987 0.54112 0.81282 0.0
H740 H 0.46294 0.64532 0.79152 0.0
H741 H 0.39977 0.60398 0.79013 0.0
H742 H 0.61799 0.40976 0.81219 0.0
H743 H 0.55644 0.36734 0.81385 0.0
H744 H 0.64664 0.4843 0.83021 0.0
H745 H 0.64426 0.55781 0.82334 0.0
C746 C 0.50486 0.43625 0.20423 0.0
C747 C 0.55733 0.46779 0.20651 0.0
C748 C 0.50157 0.55827 0.20543 0.0
C749 C 0.44916 0.52649 0.20731 0.0
N750 N 0.4018 0.43399 0.21281 0.0
N751 N 0.60481 0.55964 0.21361 0.0
C752 C 0.45087 0.46507 0.20768 0.0
C753 C 0.55564 0.52912 0.20808 0.0
N754 N 0.50647 0.37896 0.1982 0.0
N755 N 0.49984 0.61616 0.20053 0.0
H756 H 0.64506 0.54044 0.21674 0.0
H757 H 0.60449 0.60364 0.21761 0.0
H758 H 0.46102 0.6387 0.19788 0.0
H759 H 0.53681 0.64038 0.19647 0.0
H760 H 0.46939 0.35519 0.19384 0.0
H761 H 0.54522 0.35674 0.19493 0.0
H762 H 0.40219 0.38959 0.21594 0.0
H763 H 0.36164 0.45285 0.2165 0.0
C764 C 0.46787 0.02478 0.4422 0.0
C765 C 0.47922 0.06454 0.46177 0.0
C766 C 0.56367 0.00729 0.47488 0.0
C767 C 0.54714 0.96327 0.45777 0.0
N768 N 0.50575 0.94726 0.41664 0.0
N769 N 0.53665 0.09386 0.49751 0.0
C770 C 0.5054 0.97658 0.43889 0.0
C771 C 0.52682 0.0559 0.47833 0.0
N772 N 0.42006 0.03208 0.42726 0.0
N773 N 0.61757 0.00578 0.48567 0.0
H774 H 0.5127 0.13165 0.5 0.0
H775 H 0.56607 0.08601 0.51199 0.0
H776 H 0.64909 0.97582 0.48035 0.0
H777 H 0.6343 0.03885 0.49673 0.0
H778 H 0.40568 1.00107 0.41455 0.0
H779 H 0.39171 0.067 0.42914 0.0
H780 H 0.47901 0.95766 0.40151 0.0
H781 H 0.53917 0.91913 0.41168 0.0
C782 C 0.94958 0.54068 0.56001 0.0
C783 C 0.94671 0.47937 0.55902 0.0
C784 C 0.05327 0.47379 0.55945 0.0
C785 C 0.0562 0.53517 0.56005 0.0
N786 N 0.00824 0.62543 0.56853 0.0
N787 N 0.99437 0.38807 0.56549 0.0
C788 C 1.00458 0.5681 0.5627 0.0
C789 C 0.99822 0.44611 0.56114 0.0
N790 N 0.90032 0.57306 0.55715 0.0
N791 N 0.10252 0.44171 0.556 0.0
H792 H 0.95465 0.36676 0.56739 0.0
H793 H 0.03005 0.3622 0.56981 0.0
H794 H 0.14411 0.45917 0.55567 0.0
H795 H 0.10195 0.39781 0.55185 0.0
H796 H 0.90082 0.61749 0.5542 0.0
H797 H 0.85882 0.55545 0.55615 0.0
H798 H 0.97238 0.65066 0.57326 0.0
H799 H 0.04785 0.64643 0.57122 0.0
loop_
_geom_bond_atom_site_label_1
_geom_bond_atom_site_label_2
_geom_bond_distance
_geom_bond_site_symmetry_2
_ccdc_geom_bond_type
C0 O2 1.247 . S
C0 O4 1.258 . S
C1 O8 1.247 . S
C1 O9 1.258 1_455 S
O2 C0 1.247 . S
O2 Zn3 2.028 . S
Zn3 O2 2.028 . S
Zn3 O7 2.035 . S
Zn3 O9 2.035 1_455 S
Zn3 O10 2.028 . S
O4 C0 1.258 . S
O4 Zn5 2.035 . S
Zn5 O4 2.035 . S
Zn5 O6 2.028 . S
Zn5 O8 2.028 . S
Zn5 O11 2.035 . S
O6 Zn5 2.028 . S
O6 C12 1.247 . S
O7 Zn3 2.035 . S
O7 C12 1.258 . S
O8 C1 1.247 . S
O8 Zn5 2.028 . S
O9 C1 1.258 1_655 S
O9 Zn3 2.035 1_655 S
O10 Zn3 2.028 . S
O10 C13 1.247 . S
O11 Zn5 2.035 . S
O11 C13 1.258 . S
C12 O6 1.247 . S
C12 O7 1.258 . S
C13 O10 1.247 . S
C13 O11 1.258 . S
C14 O16 1.247 . S
C14 O18 1.258 . S
C15 O22 1.247 . S
C15 O23 1.258 . S
O16 C14 1.247 . S
O16 Zn17 2.028 . S
Zn17 O16 2.028 . S
Zn17 O21 2.035 . S
Zn17 O23 2.035 . S
Zn17 O24 2.028 1_565 S
O18 C14 1.258 . S
O18 Zn19 2.035 . S
Zn19 O18 2.035 . S
Zn19 O20 2.028 . S
Zn19 O22 2.028 . S
Zn19 O25 2.035 . S
O20 Zn19 2.028 . S
O20 C26 1.247 . S
O21 Zn17 2.035 . S
O21 C26 1.258 . S
O22 C15 1.247 . S
O22 Zn19 2.028 . S
O23 C15 1.258 . S
O23 Zn17 2.035 . S
O24 Zn17 2.028 1_545 S
O24 C27 1.245 1_545 S
O25 Zn19 2.035 . S
O25 C27 1.273 . S
C26 O20 1.247 . S
C26 O21 1.258 . S
C27 O24 1.245 1_565 S
C27 O25 1.273 . S
C28 O30 1.247 . S
C28 O32 1.258 . S
C29 O36 1.247 . S
C29 O37 1.258 . S
O30 C28 1.247 . S
O30 Zn31 2.028 . S
Zn31 O30 2.028 . S
Zn31 O35 2.035 . S
Zn31 O37 2.035 . S
Zn31 O38 2.028 . S
O32 C28 1.258 . S
O32 Zn33 2.035 . S
Zn33 O32 2.035 . S
Zn33 O34 2.028 . S
Zn33 O36 2.028 . S
Zn33 O39 2.035 1_655 S
O34 Zn33 2.028 . S
O34 C40 1.247 . S
O35 Zn31 2.035 . S
O35 C40 1.258 . S
O36 C29 1.247 . S
O36 Zn33 2.028 . S
O37 C29 1.258 . S
O37 Zn31 2.035 . S
O38 Zn31 2.028 . S
O38 C41 1.247 . S
O39 Zn33 2.035 1_455 S
O39 C41 1.258 1_455 S
C40 O34 1.247 . S
C40 O35 1.258 . S
C41 O38 1.247 . S
C41 O39 1.258 1_655 S
C42 O44 1.247 . S
C42 O46 1.258 . S
C43 O50 1.245 1_545 S
C43 O51 1.273 . S
O44 C42 1.247 . S
O44 Zn45 2.028 . S
Zn45 O44 2.028 . S
Zn45 O49 2.035 . S
Zn45 O51 2.035 . S
Zn45 O52 2.028 . S
O46 C42 1.258 . S
O46 Zn47 2.035 . S
Zn47 O46 2.035 . S
Zn47 O48 2.028 . S
Zn47 O50 2.028 1_545 S
Zn47 O53 2.035 . S
O48 Zn47 2.028 . S
O48 C54 1.247 . S
O49 Zn45 2.035 . S
O49 C54 1.258 . S
O50 C43 1.245 1_565 S
O50 Zn47 2.028 1_565 S
O51 C43 1.273 . S
O51 Zn45 2.035 . S
O52 Zn45 2.028 . S
O52 C55 1.247 . S
O53 Zn47 2.035 . S
O53 C55 1.258 . S
C54 O48 1.247 . S
C54 O49 1.258 . S
C55 O52 1.247 . S
C55 O53 1.258 . S
C56 O58 1.245 1_455 S
C56 O60 1.273 . S
C57 O64 1.247 . S
C57 O65 1.258 . S
O58 C56 1.245 1_655 S
O58 Zn59 2.028 1_655 S
Zn59 O58 2.028 1_455 S
Zn59 O63 2.035 . S
Zn59 O65 2.035 . S
Zn59 O66 2.028 . S
O60 C56 1.273 . S
O60 Zn61 2.035 . S
Zn61 O60 2.035 . S
Zn61 O62 2.028 . S
Zn61 O64 2.028 . S
Zn61 O67 2.035 . S
O62 Zn61 2.028 . S
O62 C68 1.247 . S
O63 Zn59 2.035 . S
O63 C68 1.258 . S
O64 C57 1.247 . S
O64 Zn61 2.028 . S
O65 C57 1.258 . S
O65 Zn59 2.035 . S
O66 Zn59 2.028 . S
O66 C69 1.247 . S
O67 Zn61 2.035 . S
O67 C69 1.258 . S
C68 O62 1.247 . S
C68 O63 1.258 . S
C69 O66 1.247 . S
C69 O67 1.258 . S
C70 O72 1.247 . S
C70 O74 1.258 . S
C71 O78 1.245 1_565 S
C71 O79 1.273 . S
O72 C70 1.247 . S
O72 Zn73 2.028 . S
Zn73 O72 2.028 . S
Zn73 O77 2.035 . S
Zn73 O79 2.035 . S
Zn73 O80 2.028 . S
O74 C70 1.258 . S
O74 Zn75 2.035 . S
Zn75 O74 2.035 . S
Zn75 O76 2.028 . S
Zn75 O78 2.028 1_565 S
Zn75 O81 2.035 . S
O76 Zn75 2.028 . S
O76 C82 1.247 . S
O77 Zn73 2.035 . S
O77 C82 1.258 . S
O78 C71 1.245 1_545 S
O78 Zn75 2.028 1_545 S
O79 C71 1.273 . S
O79 Zn73 2.035 . S
O80 Zn73 2.028 . S
O80 C83 1.247 . S
O81 Zn75 2.035 . S
O81 C83 1.258 . S
C82 O76 1.247 . S
C82 O77 1.258 . S
C83 O80 1.247 . S
C83 O81 1.258 . S
C84 O86 1.247 . S
C84 O88 1.258 . S
C85 O92 1.247 . S
C85 O93 1.258 1_655 S
O86 C84 1.247 . S
O86 Zn87 2.028 . S
Zn87 O86 2.028 . S
Zn87 O91 2.035 . S
Zn87 O93 2.035 1_655 S
Zn87 O94 2.028 . S
O88 C84 1.258 . S
O88 Zn89 2.035 . S
Zn89 O88 2.035 . S
Zn89 O90 2.028 . S
Zn89 O92 2.028 . S
Zn89 O95 2.035 . S
O90 Zn89 2.028 . S
O90 C96 1.247 . S
O91 Zn87 2.035 . S
O91 C96 1.258 . S
O92 C85 1.247 . S
O92 Zn89 2.028 . S
O93 C85 1.258 1_455 S
O93 Zn87 2.035 1_455 S
O94 Zn87 2.028 . S
O94 C97 1.247 . S
O95 Zn89 2.035 . S
O95 C97 1.258 . S
C96 O90 1.247 . S
C96 O91 1.258 . S
C97 O94 1.247 . S
C97 O95 1.258 . S
C98 O100 1.247 . S
C98 O102 1.258 . S
C99 O106 1.245 1_545 S
C99 O107 1.273 . S
O100 C98 1.247 . S
O100 Zn101 2.028 . S
Zn101 O100 2.028 . S
Zn101 O105 2.035 . S
Zn101 O107 2.035 . S
Zn101 O108 2.028 . S
O102 C98 1.258 . S
O102 Zn103 2.035 . S
Zn103 O102 2.035 . S
Zn103 O104 2.028 . S
Zn103 O106 2.028 1_545 S
Zn103 O109 2.035 . S
O104 Zn103 2.028 . S
O104 C110 1.247 . S
O105 Zn101 2.035 . S
O105 C110 1.258 . S
O106 C99 1.245 1_565 S
O106 Zn103 2.028 1_565 S
O107 C99 1.273 . S
O107 Zn101 2.035 . S
O108 Zn101 2.028 . S
O108 C111 1.247 . S
O109 Zn103 2.035 . S
O109 C111 1.258 . S
C110 O104 1.247 . S
C110 O105 1.258 . S
C111 O108 1.247 . S
C111 O109 1.258 . S
C112 O114 1.247 . S
C112 O116 1.258 . S
C113 O120 1.247 . S
C113 O121 1.258 . S
O114 C112 1.247 . S
O114 Zn115 2.028 . S
Zn115 O114 2.028 . S
Zn115 O119 2.035 . S
Zn115 O121 2.035 . S
Zn115 O122 2.028 . S
O116 C112 1.258 . S
O116 Zn117 2.035 . S
Zn117 O116 2.035 . S
Zn117 O118 2.028 . S
Zn117 O120 2.028 . S
Zn117 O123 2.035 . S
O118 Zn117 2.028 . S
O118 C124 1.247 . S
O119 Zn115 2.035 . S
O119 C124 1.258 . S
O120 C113 1.247 . S
O120 Zn117 2.028 . S
O121 C113 1.258 . S
O121 Zn115 2.035 . S
O122 Zn115 2.028 . S
O122 C125 1.247 . S
O123 Zn117 2.035 . S
O123 C125 1.258 . S
C124 O118 1.247 . S
C124 O119 1.258 . S
C125 O122 1.247 . S
C125 O123 1.258 . S
C126 O128 1.247 . S
C126 O130 1.258 . S
C127 O134 1.247 . S
C127 O135 1.258 . S
O128 C126 1.247 . S
O128 Zn129 2.028 . S
Zn129 O128 2.028 . S
Zn129 O133 2.035 . S
Zn129 O135 2.035 . S
Zn129 O136 2.028 . S
O130 C126 1.258 . S
O130 Zn131 2.035 . S
Zn131 O130 2.035 . S
Zn131 O132 2.028 . S
Zn131 O134 2.028 . S
Zn131 O137 2.035 . S
O132 Zn131 2.028 . S
O132 C138 1.247 . S
O133 Zn129 2.035 . S
O133 C138 1.258 . S
O134 C127 1.247 . S
O134 Zn131 2.028 . S
O135 C127 1.258 . S
O135 Zn129 2.035 . S
O136 Zn129 2.028 . S
O136 C139 1.247 . S
O137 Zn131 2.035 . S
O137 C139 1.258 . S
C138 O132 1.247 . S
C138 O133 1.258 . S
C139 O136 1.247 . S
C139 O137 1.258 . S
C140 O142 1.247 . S
C140 O144 1.258 . S
C141 O148 1.247 . S
C141 O149 1.258 . S
O142 C140 1.247 . S
O142 Zn143 2.028 . S
Zn143 O142 2.028 . S
Zn143 O147 2.035 . S
Zn143 O149 2.035 . S
Zn143 O150 2.028 . S
O144 C140 1.258 . S
O144 Zn145 2.035 . S
Zn145 O144 2.035 . S
Zn145 O146 2.028 . S
Zn145 O148 2.028 . S
Zn145 O151 2.035 . S
O146 Zn145 2.028 . S
O146 C152 1.247 . S
O147 Zn143 2.035 . S
O147 C152 1.258 . S
O148 C141 1.247 . S
O148 Zn145 2.028 . S
O149 C141 1.258 . S
O149 Zn143 2.035 . S
O150 Zn143 2.028 . S
O150 C153 1.247 . S
O151 Zn145 2.035 . S
O151 C153 1.258 . S
C152 O146 1.247 . S
C152 O147 1.258 . S
C153 O150 1.247 . S
C153 O151 1.258 . S
C154 O156 1.247 . S
C154 O158 1.258 . S
C155 O162 1.247 . S
C155 O163 1.258 . S
O156 C154 1.247 . S
O156 Zn157 2.028 . S
Zn157 O156 2.028 . S
Zn157 O161 2.035 . S
Zn157 O163 2.035 . S
Zn157 O164 2.028 . S
O158 C154 1.258 . S
O158 Zn159 2.035 . S
Zn159 O158 2.035 . S
Zn159 O160 2.028 . S
Zn159 O162 2.028 . S
Zn159 O165 2.035 . S
O160 Zn159 2.028 . S
O160 C166 1.247 . S
O161 Zn157 2.035 . S
O161 C166 1.258 . S
O162 C155 1.247 . S
O162 Zn159 2.028 . S
O163 C155 1.258 . S
O163 Zn157 2.035 . S
O164 Zn157 2.028 . S
O164 C167 1.247 . S
O165 Zn159 2.035 . S
O165 C167 1.258 . S
C166 O160 1.247 . S
C166 O161 1.258 . S
C167 O164 1.247 . S
C167 O165 1.258 . S
C168 O170 1.247 . S
C168 O172 1.258 . S
C169 O176 1.247 . S
C169 O177 1.258 . S
O170 C168 1.247 . S
O170 Zn171 2.028 . S
Zn171 O170 2.028 . S
Zn171 O175 2.035 . S
Zn171 O177 2.035 . S
Zn171 O178 2.028 . S
O172 C168 1.258 . S
O172 Zn173 2.035 . S
Zn173 O172 2.035 . S
Zn173 O174 2.028 . S
Zn173 O176 2.028 . S
Zn173 O179 2.035 . S
O174 Zn173 2.028 . S
O174 C180 1.247 . S
O175 Zn171 2.035 . S
O175 C180 1.258 . S
O176 C169 1.247 . S
O176 Zn173 2.028 . S
O177 C169 1.258 . S
O177 Zn171 2.035 . S
O178 Zn171 2.028 . S
O178 C181 1.247 . S
O179 Zn173 2.035 . S
O179 C181 1.258 . S
C180 O174 1.247 . S
C180 O175 1.258 . S
C181 O178 1.247 . S
C181 O179 1.258 . S
C182 O184 1.247 . S
C182 O186 1.258 . S
C183 O190 1.247 . S
C183 O191 1.258 . S
O184 C182 1.247 . S
O184 Zn185 2.028 . S
Zn185 O184 2.028 . S
Zn185 O189 2.035 . S
Zn185 O191 2.035 . S
Zn185 O192 2.028 . S
O186 C182 1.258 . S
O186 Zn187 2.035 . S
Zn187 O186 2.035 . S
Zn187 O188 2.028 . S
Zn187 O190 2.028 . S
Zn187 O193 2.035 . S
O188 Zn187 2.028 . S
O188 C194 1.247 . S
O189 Zn185 2.035 . S
O189 C194 1.258 . S
O190 C183 1.247 . S
O190 Zn187 2.028 . S
O191 C183 1.258 . S
O191 Zn185 2.035 . S
O192 Zn185 2.028 . S
O192 C195 1.247 . S
O193 Zn187 2.035 . S
O193 C195 1.258 . S
C194 O188 1.247 . S
C194 O189 1.258 . S
C195 O192 1.247 . S
C195 O193 1.258 . S
C196 O198 1.247 . S
C196 O200 1.258 . S
C197 O204 1.247 . S
C197 O205 1.258 . S
O198 C196 1.247 . S
O198 Zn199 2.028 . S
Zn199 O198 2.028 . S
Zn199 O203 2.035 . S
Zn199 O205 2.035 . S
Zn199 O206 2.028 . S
O200 C196 1.258 . S
O200 Zn201 2.035 . S
Zn201 O200 2.035 . S
Zn201 O202 2.028 . S
Zn201 O204 2.028 . S
Zn201 O207 2.035 . S
O202 Zn201 2.028 . S
O202 C208 1.247 . S
O203 Zn199 2.035 . S
O203 C208 1.258 . S
O204 C197 1.247 . S
O204 Zn201 2.028 . S
O205 C197 1.258 . S
O205 Zn199 2.035 . S
O206 Zn199 2.028 . S
O206 C209 1.247 . S
O207 Zn201 2.035 . S
O207 C209 1.258 . S
C208 O202 1.247 . S
C208 O203 1.258 . S
C209 O206 1.247 . S
C209 O207 1.258 . S
C210 O212 1.247 . S
C210 O214 1.258 . S
C211 O218 1.247 . S
C211 O219 1.258 . S
O212 C210 1.247 . S
O212 Zn213 2.028 . S
Zn213 O212 2.028 . S
Zn213 O217 2.035 . S
Zn213 O219 2.035 . S
Zn213 O220 2.028 . S
O214 C210 1.258 . S
O214 Zn215 2.035 . S
Zn215 O214 2.035 . S
Zn215 O216 2.028 . S
Zn215 O218 2.028 . S
Zn215 O221 2.035 . S
O216 Zn215 2.028 . S
O216 C222 1.247 . S
O217 Zn213 2.035 . S
O217 C222 1.258 . S
O218 C211 1.247 . S
O218 Zn215 2.028 . S
O219 C211 1.258 . S
O219 Zn213 2.035 . S
O220 Zn213 2.028 . S
O220 C223 1.247 . S
O221 Zn215 2.035 . S
O221 C223 1.258 . S
C222 O216 1.247 . S
C222 O217 1.258 . S
C223 O220 1.247 . S
C223 O221 1.258 . S
C224 C225 1.363 . S
C224 C230 1.379 . S
C224 N232 1.356 . S
C225 C224 1.363 . S
C225 C231 1.363 . S
C226 C227 1.363 . S
C226 C231 1.379 . S
C226 N233 1.356 . S
C227 C226 1.363 . S
C227 C230 1.363 . S
N228 C230 1.356 . S
N228 H240 0.984 . S
N228 H241 0.985 . S
N229 C231 1.356 . S
N229 H234 0.984 . S
N229 H235 0.985 . S
C230 C224 1.379 . S
C230 C227 1.363 . S
C230 N228 1.356 . S
C231 C225 1.363 . S
C231 C226 1.379 . S
C231 N229 1.356 . S
N232 C224 1.356 . S
N232 H238 0.984 . S
N232 H239 0.984 . S
N233 C226 1.356 . S
N233 H236 0.984 . S
N233 H237 0.985 . S
H234 N229 0.984 . S
H235 N229 0.985 . S
H236 N233 0.984 . S
H237 N233 0.985 . S
H238 N232 0.984 . S
H239 N232 0.984 . S
H240 N228 0.984 . S
H241 N228 0.985 . S
C242 C243 1.363 . S
C242 C248 1.379 . S
C242 N250 1.356 . S
C243 C242 1.363 . S
C243 C249 1.363 . S
C244 C245 1.363 . S
C244 C249 1.379 . S
C244 N251 1.356 . S
C245 C244 1.363 . S
C245 C248 1.363 . S
N246 C248 1.356 . S
N246 H258 0.984 . S
N246 H259 0.985 . S
N247 C249 1.356 . S
N247 H252 0.984 . S
N247 H253 0.985 . S
C248 C242 1.379 . S
C248 C245 1.363 . S
C248 N246 1.356 . S
C249 C243 1.363 . S
C249 C244 1.379 . S
C249 N247 1.356 . S
N250 C242 1.356 . S
N250 H256 0.984 . S
N250 H257 0.984 . S
N251 C244 1.356 . S
N251 H254 0.984 . S
N251 H255 0.985 . S
H252 N247 0.984 . S
H253 N247 0.985 . S
H254 N251 0.984 . S
H255 N251 0.985 . S
H256 N250 0.984 . S
H257 N250 0.984 . S
H258 N246 0.984 . S
H259 N246 0.985 . S
C260 C261 1.363 . S
C260 C266 1.379 . S
C260 N268 1.356 . S
C261 C260 1.363 . S
C261 C267 1.363 . S
C262 C263 1.363 . S
C262 C267 1.379 . S
C262 N269 1.356 . S
C263 C262 1.363 . S
C263 C266 1.363 . S
N264 C266 1.356 . S
N264 H276 0.984 . S
N264 H277 0.985 . S
N265 C267 1.356 . S
N265 H270 0.984 . S
N265 H271 0.985 . S
C266 C260 1.379 . S
C266 C263 1.363 . S
C266 N264 1.356 . S
C267 C261 1.363 . S
C267 C262 1.379 . S
C267 N265 1.356 . S
N268 C260 1.356 . S
N268 H274 0.984 . S
N268 H275 0.984 . S
N269 C262 1.356 . S
N269 H272 0.984 . S
N269 H273 0.985 . S
H270 N265 0.984 . S
H271 N265 0.985 . S
H272 N269 0.984 . S
H273 N269 0.985 . S
H274 N268 0.984 . S
H275 N268 0.984 . S
H276 N264 0.984 . S
H277 N264 0.985 . S
C278 C279 1.363 . S
C278 C284 1.379 . S
C278 N286 1.356 . S
C279 C278 1.363 . S
C279 C285 1.363 . S
C280 C281 1.363 . S
C280 C285 1.379 . S
C280 N287 1.356 . S
C281 C280 1.363 . S
C281 C284 1.363 . S
N282 C284 1.356 . S
N282 H294 0.984 . S
N282 H295 0.985 . S
N283 C285 1.356 . S
N283 H288 0.984 . S
N283 H289 0.985 . S
C284 C278 1.379 . S
C284 C281 1.363 . S
C284 N282 1.356 . S
C285 C279 1.363 . S
C285 C280 1.379 . S
C285 N283 1.356 . S
N286 C278 1.356 . S
N286 H292 0.984 . S
N286 H293 0.984 . S
N287 C280 1.356 . S
N287 H290 0.984 . S
N287 H291 0.985 . S
H288 N283 0.984 . S
H289 N283 0.985 . S
H290 N287 0.984 . S
H291 N287 0.985 . S
H292 N286 0.984 . S
H293 N286 0.984 . S
H294 N282 0.984 . S
H295 N282 0.985 . S
C296 C297 1.363 1_556 S
C296 C302 1.379 . S
C296 N304 1.356 1_545 S
C297 C296 1.363 1_554 S
C297 C303 1.363 . S
C298 C299 1.363 . S
C298 C303 1.379 1_556 S
C298 N305 1.356 . S
C299 C298 1.363 . S
C299 C302 1.363 . S
N300 C302 1.356 . S
N300 H312 0.984 . S
N300 H313 0.985 . S
N301 C303 1.356 . S
N301 H306 0.984 . S
N301 H307 0.985 . S
C302 C296 1.379 . S
C302 C299 1.363 . S
C302 N300 1.356 . S
C303 C297 1.363 . S
C303 C298 1.379 1_554 S
C303 N301 1.356 . S
N304 C296 1.356 1_565 S
N304 H310 0.984 . S
N304 H311 0.984 . S
N305 C298 1.356 . S
N305 H308 0.984 . S
N305 H309 0.985 1_556 S
H306 N301 0.984 . S
H307 N301 0.985 . S
H308 N305 0.984 . S
H309 N305 0.985 1_554 S
H310 N304 0.984 . S
H311 N304 0.984 . S
H312 N300 0.984 . S
H313 N300 0.985 . S
C314 C315 1.363 . S
C314 C320 1.379 . S
C314 N322 1.356 . S
C315 C314 1.363 . S
C315 C321 1.332 1_554 S
C316 C317 1.363 . S
C316 C321 1.396 . S
C316 N323 1.356 . S
C317 C316 1.363 . S
C317 C320 1.363 1_556 S
N318 C320 1.356 1_655 S
N318 H330 0.984 . S
N318 H331 0.985 . S
N319 C321 1.362 . S
N319 H324 0.984 1_556 S
N319 H325 0.985 . S
C320 C314 1.379 . S
C320 C317 1.363 1_554 S
C320 N318 1.356 1_455 S
C321 C315 1.332 1_556 S
C321 C316 1.396 . S
C321 N319 1.362 . S
N322 C314 1.356 . S
N322 H328 0.984 . S
N322 H329 0.984 . S
N323 C316 1.356 . S
N323 H326 0.984 . S
N323 H327 0.985 . S
H324 N319 0.984 1_554 S
H325 N319 0.985 . S
H326 N323 0.984 . S
H327 N323 0.985 . S
H328 N322 0.984 . S
H329 N322 0.984 . S
H330 N318 0.984 . S
H331 N318 0.985 . S
C332 C333 1.363 . S
C332 C338 1.379 . S
C332 N340 1.356 . S
C333 C332 1.363 . S
C333 C339 1.363 1_556 S
C334 C335 1.363 . S
C334 C339 1.379 . S
C334 N341 1.356 . S
C335 C334 1.363 . S
C335 C338 1.363 1_554 S
N336 C338 1.356 1_545 S
N336 H348 0.984 . S
N336 H349 0.985 . S
N337 C339 1.356 . S
N337 H342 0.984 1_554 S
N337 H343 0.985 . S
C338 C332 1.379 . S
C338 C335 1.363 1_556 S
C338 N336 1.356 1_565 S
C339 C333 1.363 1_554 S
C339 C334 1.379 . S
C339 N337 1.356 . S
N340 C332 1.356 . S
N340 H346 0.984 . S
N340 H347 0.984 . S
N341 C334 1.356 . S
N341 H344 0.984 . S
N341 H345 0.985 . S
H342 N337 0.984 1_556 S
H343 N337 0.985 . S
H344 N341 0.984 . S
H345 N341 0.985 . S
H346 N340 0.984 . S
H347 N340 0.984 . S
H348 N336 0.984 . S
H349 N336 0.985 . S
C350 C351 1.363 . S
C350 C356 1.379 . S
C350 N358 1.356 . S
C351 C350 1.363 . S
C351 C357 1.382 . S
C352 C353 1.363 . S
C352 C357 1.368 1_556 S
C352 N359 1.356 . S
C353 C352 1.363 . S
C353 C356 1.363 1_556 S
N354 C356 1.356 . S
N354 H366 0.984 . S
N354 H367 0.985 . S
N355 C357 1.354 1_556 S
N355 H360 0.984 1_556 S
N355 H361 0.985 . S
C356 C350 1.379 . S
C356 C353 1.363 1_554 S
C356 N354 1.356 . S
C357 C351 1.382 . S
C357 C352 1.368 1_554 S
C357 N355 1.354 1_554 S
N358 C350 1.356 . S
N358 H364 0.984 . S
N358 H365 0.984 . S
N359 C352 1.356 . S
N359 H362 0.984 . S
N359 H363 0.985 . S
H360 N355 0.984 1_554 S
H361 N355 0.985 . S
H362 N359 0.984 . S
H363 N359 0.985 . S
H364 N358 0.984 . S
H365 N358 0.984 . S
H366 N354 0.984 . S
H367 N354 0.985 . S
C368 C369 1.363 . S
C368 C374 1.379 . S
C368 N376 1.356 . S
C369 C368 1.363 . S
C369 C375 1.363 . S
C370 C371 1.363 . S
C370 C375 1.379 . S
C370 N377 1.356 1_565 S
C371 C370 1.363 . S
C371 C374 1.363 . S
N372 C374 1.356 . S
N372 H384 0.984 . S
N372 H385 0.985 . S
N373 C375 1.356 . S
N373 H378 0.984 . S
N373 H379 0.985 . S
C374 C368 1.379 . S
C374 C371 1.363 . S
C374 N372 1.356 . S
C375 C369 1.363 . S
C375 C370 1.379 . S
C375 N373 1.356 . S
N376 C368 1.356 . S
N376 H382 0.984 . S
N376 H383 0.984 . S
N377 C370 1.356 1_545 S
N377 H380 0.984 . S
N377 H381 0.985 . S
H378 N373 0.984 . S
H379 N373 0.985 . S
H380 N377 0.984 . S
H381 N377 0.985 . S
H382 N376 0.984 . S
H383 N376 0.984 . S
H384 N372 0.984 . S
H385 N372 0.985 . S
C386 C387 1.363 . S
C386 C392 1.379 . S
C386 N394 1.356 . S
C387 C386 1.363 . S
C387 C393 1.363 . S
C388 C389 1.363 . S
C388 C393 1.379 . S
C388 N395 1.356 . S
C389 C388 1.363 . S
C389 C392 1.363 . S
N390 C392 1.356 . S
N390 H402 0.984 . S
N390 H403 0.985 . S
N391 C393 1.356 1_455 S
N391 H396 0.984 . S
N391 H397 0.985 . S
C392 C386 1.379 . S
C392 C389 1.363 . S
C392 N390 1.356 . S
C393 C387 1.363 . S
C393 C388 1.379 . S
C393 N391 1.356 1_655 S
N394 C386 1.356 . S
N394 H400 0.984 . S
N394 H401 0.984 . S
N395 C388 1.356 . S
N395 H398 0.984 . S
N395 H399 0.985 . S
H396 N391 0.984 . S
H397 N391 0.985 . S
H398 N395 0.984 . S
H399 N395 0.985 . S
H400 N394 0.984 . S
H401 N394 0.984 . S
H402 N390 0.984 . S
H403 N390 0.985 . S
C404 C405 1.363 . S
C404 C410 1.379 . S
C404 N412 1.356 . S
C405 C404 1.363 . S
C405 C411 1.363 . S
C406 C407 1.363 . S
C406 C411 1.379 . S
C406 N413 1.356 . S
C407 C406 1.363 . S
C407 C410 1.363 . S
N408 C410 1.356 . S
N408 H420 0.984 . S
N408 H421 0.985 . S
N409 C411 1.356 . S
N409 H414 0.984 1_545 S
N409 H415 0.985 . S
C410 C404 1.379 . S
C410 C407 1.363 . S
C410 N408 1.356 . S
C411 C405 1.363 . S
C411 C406 1.379 . S
C411 N409 1.356 . S
N412 C404 1.356 . S
N412 H418 0.984 . S
N412 H419 0.984 . S
N413 C406 1.356 . S
N413 H416 0.984 . S
N413 H417 0.985 . S
H414 N409 0.984 1_565 S
H415 N409 0.985 . S
H416 N413 0.984 . S
H417 N413 0.985 . S
H418 N412 0.984 . S
H419 N412 0.984 . S
H420 N408 0.984 . S
H421 N408 0.985 . S
C422 C423 1.363 . S
C422 C428 1.379 . S
C422 N430 1.356 . S
C423 C422 1.363 . S
C423 C429 1.363 . S
C424 C425 1.363 . S
C424 C429 1.379 . S
C424 N431 1.356 . S
C425 C424 1.363 . S
C425 C428 1.363 . S
N426 C428 1.356 . S
N426 H438 0.984 . S
N426 H439 0.985 . S
N427 C429 1.356 . S
N427 H432 0.984 . S
N427 H433 0.985 . S
C428 C422 1.379 . S
C428 C425 1.363 . S
C428 N426 1.356 . S
C429 C423 1.363 . S
C429 C424 1.379 . S
C429 N427 1.356 . S
N430 C422 1.356 . S
N430 H436 0.984 . S
N430 H437 0.984 . S
N431 C424 1.356 . S
N431 H434 0.984 . S
N431 H435 0.985 . S
H432 N427 0.984 . S
H433 N427 0.985 . S
H434 N431 0.984 . S
H435 N431 0.985 . S
H436 N430 0.984 . S
H437 N430 0.984 . S
H438 N426 0.984 . S
H439 N426 0.985 . S
C440 C441 1.363 . S
C440 C446 1.379 . S
C440 N448 1.356 . S
C441 C440 1.363 . S
C441 C447 1.363 . S
C442 C443 1.363 . S
C442 C447 1.379 . S
C442 N449 1.356 . S
C443 C442 1.363 . S
C443 C446 1.363 . S
N444 C446 1.356 . S
N444 H456 0.984 . S
N444 H457 0.985 . S
N445 C447 1.356 . S
N445 H450 0.984 . S
N445 H451 0.985 . S
C446 C440 1.379 . S
C446 C443 1.363 . S
C446 N444 1.356 . S
C447 C441 1.363 . S
C447 C442 1.379 . S
C447 N445 1.356 . S
N448 C440 1.356 . S
N448 H454 0.984 . S
N448 H455 0.984 . S
N449 C442 1.356 . S
N449 H452 0.984 . S
N449 H453 0.985 . S
H450 N445 0.984 . S
H451 N445 0.985 . S
H452 N449 0.984 . S
H453 N449 0.985 . S
H454 N448 0.984 . S
H455 N448 0.984 . S
H456 N444 0.984 . S
H457 N444 0.985 . S
C458 C459 1.363 . S
C458 C464 1.379 . S
C458 N466 1.356 . S
C459 C458 1.363 . S
C459 C465 1.363 . S
C460 C461 1.363 . S
C460 C465 1.379 . S
C460 N467 1.356 . S
C461 C460 1.363 . S
C461 C464 1.363 . S
N462 C464 1.356 . S
N462 H474 0.984 . S
N462 H475 0.985 . S
N463 C465 1.356 . S
N463 H468 0.984 . S
N463 H469 0.985 . S
C464 C458 1.379 . S
C464 C461 1.363 . S
C464 N462 1.356 . S
C465 C459 1.363 . S
C465 C460 1.379 . S
C465 N463 1.356 . S
N466 C458 1.356 . S
N466 H472 0.984 . S
N466 H473 0.984 . S
N467 C460 1.356 . S
N467 H470 0.984 . S
N467 H471 0.985 . S
H468 N463 0.984 . S
H469 N463 0.985 . S
H470 N467 0.984 . S
H471 N467 0.985 . S
H472 N466 0.984 . S
H473 N466 0.984 . S
H474 N462 0.984 . S
H475 N462 0.985 . S
C476 C477 1.363 . S
C476 C482 1.379 . S
C476 N484 1.356 . S
C477 C476 1.363 . S
C477 C483 1.363 . S
C478 C479 1.363 . S
C478 C483 1.379 . S
C478 N485 1.356 . S
C479 C478 1.363 . S
C479 C482 1.363 . S
N480 C482 1.356 . S
N480 H492 0.984 . S
N480 H493 0.985 . S
N481 C483 1.356 . S
N481 H486 0.984 . S
N481 H487 0.985 . S
C482 C476 1.379 . S
C482 C479 1.363 . S
C482 N480 1.356 . S
C483 C477 1.363 . S
C483 C478 1.379 . S
C483 N481 1.356 . S
N484 C476 1.356 . S
N484 H490 0.984 . S
N484 H491 0.984 . S
N485 C478 1.356 . S
N485 H488 0.984 . S
N485 H489 0.985 . S
H486 N481 0.984 . S
H487 N481 0.985 . S
H488 N485 0.984 . S
H489 N485 0.985 . S
H490 N484 0.984 . S
H491 N484 0.984 . S
H492 N480 0.984 . S
H493 N480 0.985 . S
C494 C495 1.363 . S
C494 C500 1.379 . S
C494 N502 1.356 . S
C495 C494 1.363 . S
C495 C501 1.363 . S
C496 C497 1.363 . S
C496 C501 1.379 . S
C496 N503 1.356 . S
C497 C496 1.363 . S
C497 C500 1.363 . S
N498 C500 1.356 . S
N498 H510 0.984 . S
N498 H511 0.985 . S
N499 C501 1.356 . S
N499 H504 0.984 . S
N499 H505 0.985 . S
C500 C494 1.379 . S
C500 C497 1.363 . S
C500 N498 1.356 . S
C501 C495 1.363 . S
C501 C496 1.379 . S
C501 N499 1.356 . S
N502 C494 1.356 . S
N502 H508 0.984 . S
N502 H509 0.984 . S
N503 C496 1.356 . S
N503 H506 0.984 . S
N503 H507 0.985 . S
H504 N499 0.984 . S
H505 N499 0.985 . S
H506 N503 0.984 . S
H507 N503 0.985 . S
H508 N502 0.984 . S
H509 N502 0.984 . S
H510 N498 0.984 . S
H511 N498 0.985 . S
C512 C513 1.363 . S
C512 C518 1.379 . S
C512 N520 1.356 . S
C513 C512 1.363 . S
C513 C519 1.363 . S
C514 C515 1.363 . S
C514 C519 1.379 . S
C514 N521 1.356 . S
C515 C514 1.363 . S
C515 C518 1.363 . S
N516 C518 1.356 . S
N516 H528 0.984 . S
N516 H529 0.985 . S
N517 C519 1.356 . S
N517 H522 0.984 . S
N517 H523 0.985 . S
C518 C512 1.379 . S
C518 C515 1.363 . S
C518 N516 1.356 . S
C519 C513 1.363 . S
C519 C514 1.379 . S
C519 N517 1.356 . S
N520 C512 1.356 . S
N520 H526 0.984 . S
N520 H527 0.984 . S
N521 C514 1.356 . S
N521 H524 0.984 . S
N521 H525 0.985 . S
H522 N517 0.984 . S
H523 N517 0.985 . S
H524 N521 0.984 . S
H525 N521 0.985 . S
H526 N520 0.984 . S
H527 N520 0.984 . S
H528 N516 0.984 . S
H529 N516 0.985 . S
C530 C531 1.363 . S
C530 C536 1.379 . S
C530 N538 1.356 . S
C531 C530 1.363 . S
C531 C537 1.363 . S
C532 C533 1.363 . S
C532 C537 1.379 . S
C532 N539 1.356 . S
C533 C532 1.363 . S
C533 C536 1.363 . S
N534 C536 1.356 . S
N534 H546 0.984 . S
N534 H547 0.985 . S
N535 C537 1.356 . S
N535 H540 0.984 . S
N535 H541 0.985 . S
C536 C530 1.379 . S
C536 C533 1.363 . S
C536 N534 1.356 . S
C537 C531 1.363 . S
C537 C532 1.379 . S
C537 N535 1.356 . S
N538 C530 1.356 . S
N538 H544 0.984 . S
N538 H545 0.984 . S
N539 C532 1.356 . S
N539 H542 0.984 . S
N539 H543 0.985 . S
H540 N535 0.984 . S
H541 N535 0.985 . S
H542 N539 0.984 . S
H543 N539 0.985 . S
H544 N538 0.984 . S
H545 N538 0.984 . S
H546 N534 0.984 . S
H547 N534 0.985 . S
C548 C549 1.363 . S
C548 C554 1.379 . S
C548 N556 1.356 . S
C549 C548 1.363 . S
C549 C555 1.363 . S
C550 C551 1.363 . S
C550 C555 1.379 . S
C550 N557 1.356 . S
C551 C550 1.363 . S
C551 C554 1.363 . S
N552 C554 1.356 . S
N552 H564 0.984 . S
N552 H565 0.985 . S
N553 C555 1.356 . S
N553 H558 0.984 . S
N553 H559 0.985 . S
C554 C548 1.379 . S
C554 C551 1.363 . S
C554 N552 1.356 . S
C555 C549 1.363 . S
C555 C550 1.379 . S
C555 N553 1.356 . S
N556 C548 1.356 . S
N556 H562 0.984 . S
N556 H563 0.984 . S
N557 C550 1.356 . S
N557 H560 0.984 . S
N557 H561 0.985 . S
H558 N553 0.984 . S
H559 N553 0.985 . S
H560 N557 0.984 . S
H561 N557 0.985 . S
H562 N556 0.984 . S
H563 N556 0.984 . S
H564 N552 0.984 . S
H565 N552 0.985 . S
C566 C567 1.363 . S
C566 C572 1.379 . S
C566 N574 1.356 . S
C567 C566 1.363 . S
C567 C573 1.363 . S
C568 C569 1.363 . S
C568 C573 1.379 . S
C568 N575 1.356 . S
C569 C568 1.363 . S
C569 C572 1.363 . S
N570 C572 1.356 . S
N570 H582 0.984 . S
N570 H583 0.985 . S
N571 C573 1.356 . S
N571 H576 0.984 . S
N571 H577 0.985 . S
C572 C566 1.379 . S
C572 C569 1.363 . S
C572 N570 1.356 . S
C573 C567 1.363 . S
C573 C568 1.379 . S
C573 N571 1.356 . S
N574 C566 1.356 . S
N574 H580 0.984 . S
N574 H581 0.984 . S
N575 C568 1.356 . S
N575 H578 0.984 . S
N575 H579 0.985 . S
H576 N571 0.984 . S
H577 N571 0.985 . S
H578 N575 0.984 . S
H579 N575 0.985 . S
H580 N574 0.984 . S
H581 N574 0.984 . S
H582 N570 0.984 . S
H583 N570 0.985 . S
C584 C585 1.363 . S
C584 C590 1.379 . S
C584 N592 1.356 . S
C585 C584 1.363 . S
C585 C591 1.363 . S
C586 C587 1.363 . S
C586 C591 1.379 . S
C586 N593 1.356 . S
C587 C586 1.363 . S
C587 C590 1.363 . S
N588 C590 1.356 . S
N588 H600 0.984 . S
N588 H601 0.985 . S
N589 C591 1.356 . S
N589 H594 0.984 . S
N589 H595 0.985 . S
C590 C584 1.379 . S
C590 C587 1.363 . S
C590 N588 1.356 . S
C591 C585 1.363 . S
C591 C586 1.379 . S
C591 N589 1.356 . S
N592 C584 1.356 . S
N592 H598 0.984 . S
N592 H599 0.984 . S
N593 C586 1.356 . S
N593 H596 0.984 . S
N593 H597 0.985 . S
H594 N589 0.984 . S
H595 N589 0.985 . S
H596 N593 0.984 . S
H597 N593 0.985 . S
H598 N592 0.984 . S
H599 N592 0.984 . S
H600 N588 0.984 . S
H601 N588 0.985 . S
C602 C603 1.363 . S
C602 C608 1.379 . S
C602 N610 1.356 . S
C603 C602 1.363 . S
C603 C609 1.363 . S
C604 C605 1.363 . S
C604 C609 1.379 . S
C604 N611 1.356 . S
C605 C604 1.363 . S
C605 C608 1.363 . S
N606 C608 1.356 . S
N606 H618 0.984 . S
N606 H619 0.985 . S
N607 C609 1.356 . S
N607 H612 0.984 . S
N607 H613 0.985 . S
C608 C602 1.379 . S
C608 C605 1.363 . S
C608 N606 1.356 . S
C609 C603 1.363 . S
C609 C604 1.379 . S
C609 N607 1.356 . S
N610 C602 1.356 . S
N610 H616 0.984 . S
N610 H617 0.984 . S
N611 C604 1.356 . S
N611 H614 0.984 . S
N611 H615 0.985 . S
H612 N607 0.984 . S
H613 N607 0.985 . S
H614 N611 0.984 . S
H615 N611 0.985 . S
H616 N610 0.984 . S
H617 N610 0.984 . S
H618 N606 0.984 . S
H619 N606 0.985 . S
C620 C621 1.363 . S
C620 C626 1.379 . S
C620 N628 1.356 . S
C621 C620 1.363 . S
C621 C627 1.363 . S
C622 C623 1.363 . S
C622 C627 1.379 . S
C622 N629 1.356 . S
C623 C622 1.363 . S
C623 C626 1.363 . S
N624 C626 1.356 . S
N624 H636 0.984 . S
N624 H637 0.985 . S
N625 C627 1.356 . S
N625 H630 0.984 . S
N625 H631 0.985 . S
C626 C620 1.379 . S
C626 C623 1.363 . S
C626 N624 1.356 . S
C627 C621 1.363 . S
C627 C622 1.379 . S
C627 N625 1.356 . S
N628 C620 1.356 . S
N628 H634 0.984 . S
N628 H635 0.984 . S
N629 C622 1.356 . S
N629 H632 0.984 . S
N629 H633 0.985 . S
H630 N625 0.984 . S
H631 N625 0.985 . S
H632 N629 0.984 . S
H633 N629 0.985 . S
H634 N628 0.984 . S
H635 N628 0.984 . S
H636 N624 0.984 . S
H637 N624 0.985 . S
C638 C639 1.363 . S
C638 C644 1.379 . S
C638 N646 1.356 . S
C639 C638 1.363 . S
C639 C645 1.363 . S
C640 C641 1.363 . S
C640 C645 1.379 . S
C640 N647 1.356 . S
C641 C640 1.363 . S
C641 C644 1.363 . S
N642 C644 1.356 . S
N642 H654 0.984 . S
N642 H655 0.985 . S
N643 C645 1.356 . S
N643 H648 0.984 . S
N643 H649 0.985 . S
C644 C638 1.379 . S
C644 C641 1.363 . S
C644 N642 1.356 . S
C645 C639 1.363 . S
C645 C640 1.379 . S
C645 N643 1.356 . S
N646 C638 1.356 . S
N646 H652 0.984 . S
N646 H653 0.984 . S
N647 C640 1.356 . S
N647 H650 0.984 . S
N647 H651 0.985 . S
H648 N643 0.984 . S
H649 N643 0.985 . S
H650 N647 0.984 . S
H651 N647 0.985 . S
H652 N646 0.984 . S
H653 N646 0.984 . S
H654 N642 0.984 . S
H655 N642 0.985 . S
C656 C657 1.363 1_455 S
C656 C662 1.379 1_565 S
C656 N664 1.356 . S
C657 C656 1.363 1_655 S
C657 C663 1.363 . S
C658 C659 1.363 1_655 S
C658 C663 1.379 1_545 S
C658 N665 1.356 . S
C659 C658 1.363 1_455 S
C659 C662 1.363 . S
N660 C662 1.356 . S
N660 H672 0.984 . S
N660 H673 0.985 . S
N661 C663 1.356 . S
N661 H666 0.984 . S
N661 H667 0.985 . S
C662 C656 1.379 1_545 S
C662 C659 1.363 . S
C662 N660 1.356 . S
C663 C657 1.363 . S
C663 C658 1.379 1_565 S
C663 N661 1.356 . S
N664 C656 1.356 . S
N664 H670 0.984 . S
N664 H671 0.984 . S
N665 C658 1.356 . S
N665 H668 0.984 . S
N665 H669 0.985 . S
H666 N661 0.984 . S
H667 N661 0.985 . S
H668 N665 0.984 . S
H669 N665 0.985 . S
H670 N664 0.984 . S
H671 N664 0.984 . S
H672 N660 0.984 . S
H673 N660 0.985 . S
C674 C675 1.363 . S
C674 C680 1.379 1_655 S
C674 N682 1.356 . S
C675 C674 1.363 . S
C675 C681 1.363 1_545 S
C676 C677 1.363 . S
C676 C681 1.379 1_455 S
C676 N683 1.356 . S
C677 C676 1.363 . S
C677 C680 1.363 1_565 S
N678 C680 1.356 . S
N678 H690 0.984 . S
N678 H691 0.985 . S
N679 C681 1.356 . S
N679 H684 0.984 . S
N679 H685 0.985 . S
C680 C674 1.379 1_455 S
C680 C677 1.363 1_545 S
C680 N678 1.356 . S
C681 C675 1.363 1_565 S
C681 C676 1.379 1_655 S
C681 N679 1.356 . S
N682 C674 1.356 . S
N682 H688 0.984 . S
N682 H689 0.984 . S
N683 C676 1.356 . S
N683 H686 0.984 . S
N683 H687 0.985 . S
H684 N679 0.984 . S
H685 N679 0.985 . S
H686 N683 0.984 . S
H687 N683 0.985 . S
H688 N682 0.984 . S
H689 N682 0.984 . S
H690 N678 0.984 . S
H691 N678 0.985 . S
C692 C693 1.363 1_655 S
C692 C698 1.379 . S
C692 N700 1.356 . S
C693 C692 1.363 1_455 S
C693 C699 1.363 . S
C694 C695 1.363 1_455 S
C694 C699 1.379 . S
C694 N701 1.356 . S
C695 C694 1.363 1_655 S
C695 C698 1.363 . S
N696 C698 1.356 . S
N696 H708 0.984 . S
N696 H709 0.985 . S
N697 C699 1.356 . S
N697 H702 0.984 . S
N697 H703 0.985 . S
C698 C692 1.379 . S
C698 C695 1.363 . S
C698 N696 1.356 . S
C699 C693 1.363 . S
C699 C694 1.379 . S
C699 N697 1.356 . S
N700 C692 1.356 . S
N700 H706 0.984 . S
N700 H707 0.984 . S
N701 C694 1.356 . S
N701 H704 0.984 . S
N701 H705 0.985 . S
H702 N697 0.984 . S
H703 N697 0.985 . S
H704 N701 0.984 . S
H705 N701 0.985 . S
H706 N700 0.984 . S
H707 N700 0.984 . S
H708 N696 0.984 . S
H709 N696 0.985 . S
C710 C711 1.363 1_545 S
C710 C716 1.379 . S
C710 N718 1.356 . S
C711 C710 1.363 1_565 S
C711 C717 1.363 . S
C712 C713 1.363 1_565 S
C712 C717 1.379 . S
C712 N719 1.356 . S
C713 C712 1.363 1_545 S
C713 C716 1.363 . S
N714 C716 1.356 . S
N714 H726 0.984 . S
N714 H727 0.985 . S
N715 C717 1.356 . S
N715 H720 0.984 . S
N715 H721 0.985 . S
C716 C710 1.379 . S
C716 C713 1.363 . S
C716 N714 1.356 . S
C717 C711 1.363 . S
C717 C712 1.379 . S
C717 N715 1.356 . S
N718 C710 1.356 . S
N718 H724 0.984 . S
N718 H725 0.984 . S
N719 C712 1.356 . S
N719 H722 0.984 . S
N719 H723 0.985 . S
H720 N715 0.984 . S
H721 N715 0.985 . S
H722 N719 0.984 . S
H723 N719 0.985 . S
H724 N718 0.984 . S
H725 N718 0.984 . S
H726 N714 0.984 . S
H727 N714 0.985 . S
C728 C729 1.363 . S
C728 C734 1.379 . S
C728 N736 1.356 . S
C729 C728 1.363 . S
C729 C735 1.363 . S
C730 C731 1.363 . S
C730 C735 1.379 . S
C730 N737 1.356 . S
C731 C730 1.363 . S
C731 C734 1.363 . S
N732 C734 1.356 . S
N732 H744 0.984 . S
N732 H745 0.985 . S
N733 C735 1.356 . S
N733 H738 0.984 . S
N733 H739 0.985 . S
C734 C728 1.379 . S
C734 C731 1.363 . S
C734 N732 1.356 . S
C735 C729 1.363 . S
C735 C730 1.379 . S
C735 N733 1.356 . S
N736 C728 1.356 . S
N736 H742 0.984 . S
N736 H743 0.984 . S
N737 C730 1.356 . S
N737 H740 0.984 . S
N737 H741 0.985 . S
H738 N733 0.984 . S
H739 N733 0.985 . S
H740 N737 0.984 . S
H741 N737 0.985 . S
H742 N736 0.984 . S
H743 N736 0.984 . S
H744 N732 0.984 . S
H745 N732 0.985 . S
C746 C747 1.363 . S
C746 C752 1.379 . S
C746 N754 1.356 . S
C747 C746 1.363 . S
C747 C753 1.363 . S
C748 C749 1.363 . S
C748 C753 1.379 . S
C748 N755 1.356 . S
C749 C748 1.363 . S
C749 C752 1.363 . S
N750 C752 1.356 . S
N750 H762 0.984 . S
N750 H763 0.985 . S
N751 C753 1.356 . S
N751 H756 0.984 . S
N751 H757 0.985 . S
C752 C746 1.379 . S
C752 C749 1.363 . S
C752 N750 1.356 . S
C753 C747 1.363 . S
C753 C748 1.379 . S
C753 N751 1.356 . S
N754 C746 1.356 . S
N754 H760 0.984 . S
N754 H761 0.984 . S
N755 C748 1.356 . S
N755 H758 0.984 . S
N755 H759 0.985 . S
H756 N751 0.984 . S
H757 N751 0.985 . S
H758 N755 0.984 . S
H759 N755 0.985 . S
H760 N754 0.984 . S
H761 N754 0.984 . S
H762 N750 0.984 . S
H763 N750 0.985 . S
C764 C765 1.363 . S
C764 C770 1.379 1_545 S
C764 N772 1.356 . S
C765 C764 1.363 . S
C765 C771 1.363 . S
C766 C767 1.363 . S
C766 C771 1.379 1_565 S
C766 N773 1.356 . S
C767 C766 1.363 . S
C767 C770 1.363 . S
N768 C770 1.356 . S
N768 H780 0.984 . S
N768 H781 0.985 . S
N769 C771 1.356 . S
N769 H774 0.984 . S
N769 H775 0.985 . S
C770 C764 1.379 1_565 S
C770 C767 1.363 . S
C770 N768 1.356 . S
C771 C765 1.363 . S
C771 C766 1.379 1_545 S
C771 N769 1.356 . S
N772 C764 1.356 . S
N772 H778 0.984 . S
N772 H779 0.984 . S
N773 C766 1.356 . S
N773 H776 0.984 . S
N773 H777 0.985 . S
H774 N769 0.984 . S
H775 N769 0.985 . S
H776 N773 0.984 . S
H777 N773 0.985 . S
H778 N772 0.984 . S
H779 N772 0.984 . S
H780 N768 0.984 . S
H781 N768 0.985 . S
C782 C783 1.363 . S
C782 C788 1.379 1_655 S
C782 N790 1.356 . S
C783 C782 1.363 . S
C783 C789 1.363 . S
C784 C785 1.363 . S
C784 C789 1.379 1_455 S
C784 N791 1.356 . S
C785 C784 1.363 . S
C785 C788 1.363 . S
N786 C788 1.356 . S
N786 H798 0.984 . S
N786 H799 0.985 . S
N787 C789 1.356 . S
N787 H792 0.984 . S
N787 H793 0.985 . S
C788 C782 1.379 1_455 S
C788 C785 1.363 . S
C788 N786 1.356 . S
C789 C783 1.363 . S
C789 C784 1.379 1_655 S
C789 N787 1.356 . S
N790 C782 1.356 . S
N790 H796 0.984 . S
N790 H797 0.984 . S
N791 C784 1.356 . S
N791 H794 0.984 . S
N791 H795 0.985 . S
H792 N787 0.984 . S
H793 N787 0.985 . S
H794 N791 0.984 . S
H795 N791 0.985 . S
H796 N790 0.984 . S
H797 N790 0.984 . S
H798 N786 0.984 . S
H799 N786 0.985 . S
C225 C12 1.600 . S
C227 C155 1.615 . S
C243 C112 1.615 . S
C245 C14 1.601 . S
C261 C127 1.615 . S
C263 C28 1.600 . S
C279 C141 1.616 . S
C281 C54 1.601 . S
C297 C71 1.602 1_545 S
C299 C69 1.601 . S
C315 C82 1.601 . S
C317 C85 1.616 1_455 S
C333 C96 1.600 . S
C335 C99 1.602 1_565 S
C351 C110 1.601 . S
C353 C56 1.602 1_655 S
C369 C125 1.601 . S
C371 C43 1.602 1_565 S
C387 C1 1.616 1_655 S
C389 C138 1.601 . S
C405 C27 1.602 1_545 S
C407 C152 1.600 . S
C423 C41 1.616 1_455 S
C425 C166 1.601 . S
C441 C183 1.615 . S
C443 C181 1.601 . S
C459 C194 1.601 . S
C461 C208 1.615 . S
C477 C223 1.615 . S
C479 C197 1.601 . S
C495 C168 1.615 . S
C497 C210 1.601 . S
C513 C209 1.757 . S
C515 C0 1.755 . S
C531 C222 1.757 . S
C533 C26 1.757 . S
C549 C169 1.757 . S
C551 C40 1.755 . S
C567 C42 1.757 . S
C569 C182 1.757 . S
C585 C57 1.757 . S
C587 C140 1.755 . S
C603 C154 1.757 . S
C605 C70 1.757 . S
C621 C84 1.755 . S
C623 C113 1.757 . S
C639 C98 1.757 . S
C641 C126 1.757 . S
C657 C29 1.655 . S
C659 C13 1.655 . S
C675 C55 1.653 . S
C677 C15 1.653 . S
C693 C68 1.653 . S
C695 C97 1.655 . S
C711 C83 1.653 . S
C713 C111 1.653 . S
C729 C153 1.655 . S
C731 C124 1.653 . S
C747 C139 1.653 . S
C749 C167 1.653 . S
C765 C196 1.653 . S
C767 C180 1.653 . S
C783 C195 1.653 . S
C785 C211 1.653 . S
