# Generated by pormake.
# Topology wka, (5)-cn, num edge types: 1
# Building blocks:
#     Node 0, Type 0, BuildingBlock: BEQFEK_clean_sbu_0, # of connection points: 5
#     Node 1, Type 0, BuildingBlock: BEQFEK_clean_sbu_0, # of connection points: 5
#     Node 2, Type 0, BuildingBlock: BEQFEK_clean_sbu_0, # of connection points: 5
#     Node 3, Type 0, BuildingBlock: BEQFEK_clean_sbu_0, # of connection points: 5
#     Node 4, Type 0, BuildingBlock: BEQFEK_clean_sbu_0, # of connection points: 5
#     Node 5, Type 0, BuildingBlock: BEQFEK_clean_sbu_0, # of connection points: 5
#     Node 6, Type 0, BuildingBlock: BEQFEK_clean_sbu_0, # of connection points: 5
#     Node 7, Type 0, BuildingBlock: BEQFEK_clean_sbu_0, # of connection points: 5
#     Node 8, Type 0, BuildingBlock: BEQFEK_clean_sbu_0, # of connection points: 5
#     Node 9, Type 0, BuildingBlock: BEQFEK_clean_sbu_0, # of connection points: 5
#     Node 10, Type 0, BuildingBlock: BEQFEK_clean_sbu_0, # of connection points: 5
#     Node 11, Type 0, BuildingBlock: BEQFEK_clean_sbu_0, # of connection points: 5
#     Edge 12, Type (0, 0), BuildingBlock: CIFDUS_clean_linker_0, # of connection points: 2
#     Edge 13, Type (0, 0), BuildingBlock: CIFDUS_clean_linker_0, # of connection points: 2
#     Edge 14, Type (0, 0), BuildingBlock: CIFDUS_clean_linker_0, # of connection points: 2
#     Edge 15, Type (0, 0), BuildingBlock: CIFDUS_clean_linker_0, # of connection points: 2
#     Edge 16, Type (0, 0), BuildingBlock: CIFDUS_clean_linker_0, # of connection points: 2
#     Edge 17, Type (0, 0), BuildingBlock: CIFDUS_clean_linker_0, # of connection points: 2
#     Edge 18, Type (0, 0), BuildingBlock: CIFDUS_clean_linker_0, # of connection points: 2
#     Edge 19, Type (0, 0), BuildingBlock: CIFDUS_clean_linker_0, # of connection points: 2
#     Edge 20, Type (0, 0), BuildingBlock: CIFDUS_clean_linker_0, # of connection points: 2
#     Edge 21, Type (0, 0), BuildingBlock: CIFDUS_clean_linker_0, # of connection points: 2
#     Edge 22, Type (0, 0), BuildingBlock: CIFDUS_clean_linker_0, # of connection points: 2
#     Edge 23, Type (0, 0), BuildingBlock: CIFDUS_clean_linker_0, # of connection points: 2
#     Edge 24, Type (0, 0), BuildingBlock: CIFDUS_clean_linker_0, # of connection points: 2
#     Edge 25, Type (0, 0), BuildingBlock: CIFDUS_clean_linker_0, # of connection points: 2
#     Edge 26, Type (0, 0), BuildingBlock: CIFDUS_clean_linker_0, # of connection points: 2
#     Edge 27, Type (0, 0), BuildingBlock: CIFDUS_clean_linker_0, # of connection points: 2
#     Edge 28, Type (0, 0), BuildingBlock: CIFDUS_clean_linker_0, # of connection points: 2
#     Edge 29, Type (0, 0), BuildingBlock: CIFDUS_clean_linker_0, # of connection points: 2
#     Edge 30, Type (0, 0), BuildingBlock: CIFDUS_clean_linker_0, # of connection points: 2
#     Edge 31, Type (0, 0), BuildingBlock: CIFDUS_clean_linker_0, # of connection points: 2
#     Edge 32, Type (0, 0), BuildingBlock: CIFDUS_clean_linker_0, # of connection points: 2
#     Edge 33, Type (0, 0), BuildingBlock: CIFDUS_clean_linker_0, # of connection points: 2
#     Edge 34, Type (0, 0), BuildingBlock: CIFDUS_clean_linker_0, # of connection points: 2
#     Edge 35, Type (0, 0), BuildingBlock: CIFDUS_clean_linker_0, # of connection points: 2
#     Edge 36, Type (0, 0), BuildingBlock: CIFDUS_clean_linker_0, # of connection points: 2
#     Edge 37, Type (0, 0), BuildingBlock: CIFDUS_clean_linker_0, # of connection points: 2
#     Edge 38, Type (0, 0), BuildingBlock: CIFDUS_clean_linker_0, # of connection points: 2
#     Edge 39, Type (0, 0), BuildingBlock: CIFDUS_clean_linker_0, # of connection points: 2
#     Edge 40, Type (0, 0), BuildingBlock: CIFDUS_clean_linker_0, # of connection points: 2
#     Edge 41, Type (0, 0), BuildingBlock: CIFDUS_clean_linker_0, # of connection points: 2
# Relax obj value: 0.409
# Max RMSD: 0.241
# Mean RMSD: 0.241
data_MOF--net-wka--node1-BEQFEK_clean_sbu_0--edge1-CIFDUS_clean_linker_0
_symmetry_space_group_name_H-M    P1
_symmetry_Int_Tables_number       1
_symmetry_cell_setting            triclinic
loop_
_symmetry_equiv_pos_as_xyz
'x, y, z'
_cell_length_a     59.73933
_cell_length_b     59.711527
_cell_length_c     16.070468
_cell_angle_alpha  90.059464
_cell_angle_beta   89.901379
_cell_angle_gamma 119.96799
loop_
_atom_site_label
_atom_site_type_symbol
_atom_site_fract_x
_atom_site_fract_y
_atom_site_fract_z
_atom_type_partial_charge
Co0 Co 0.12555 0.46035 0.95811 0.0
Co1 Co 0.09403 0.4401 0.12339 0.0
C2 C 0.06872 0.41959 0.96187 0.0
O3 O 0.08979 0.43617 0.92897 0.0
O4 O 0.06684 0.41682 0.04063 0.0
C5 C 0.1343 0.44157 0.81469 0.0
O6 O 0.12267 0.42075 0.86136 0.0
C7 C 0.07826 0.41451 0.2893 0.0
C8 C 0.07202 0.44351 0.35382 0.0
C9 C 0.07433 0.42187 0.36754 0.0
N10 N 0.07957 0.43184 0.23308 0.0
N11 N 0.07452 0.44834 0.27185 0.0
C12 C 0.08208 0.39217 0.2694 0.0
H13 H 0.0921 0.3951 0.20881 0.0
H14 H 0.09272 0.38888 0.32005 0.0
H15 H 0.06283 0.37448 0.26461 0.0
C16 C 0.16152 0.4488 0.04709 0.0
N17 N 0.13822 0.44708 0.0414 0.0
N18 N 0.12673 0.44105 0.11472 0.0
C19 C 0.14351 0.44074 0.17067 0.0
C20 C 0.16551 0.4446 0.12895 0.0
C21 C 0.18103 0.4581 0.9783 0.0
H22 H 0.18269 0.47585 0.95036 0.0
H23 H 0.17433 0.44311 0.92904 0.0
H24 H 0.20026 0.46216 0.00071 0.0
O25 O 0.12763 0.49318 0.99693 0.0
O26 O 0.10246 0.47626 0.10806 0.0
H27 H 0.12795 0.4492 0.27945 0.0
H28 H 0.16026 0.45543 0.29152 0.0
C29 C 0.14128 0.44209 0.26318 0.0
H30 H 0.13476 0.4228 0.29062 0.0
H31 H 0.07494 0.46426 0.24359 0.0
O32 O 0.14203 0.46352 0.8486 0.0
C33 C 0.11607 0.4954 0.06064 0.0
Co34 Co 0.66936 0.11926 0.13694 0.0
Co35 Co 0.6512 0.09266 0.30934 0.0
C36 C 0.65122 0.06252 0.16267 0.0
O37 O 0.65904 0.08276 0.11902 0.0
O38 O 0.64773 0.06306 0.24066 0.0
C39 C 0.69944 0.12729 0.99639 0.0
O40 O 0.70898 0.11625 0.04402 0.0
C41 C 0.65493 0.07618 0.47941 0.0
C42 C 0.62049 0.07462 0.53642 0.0
C43 C 0.64201 0.07254 0.5546 0.0
N44 N 0.64192 0.08096 0.42051 0.0
N45 N 0.62101 0.0793 0.45464 0.0
C46 C 0.67822 0.07367 0.462 0.0
H47 H 0.69044 0.08766 0.41346 0.0
H48 H 0.6896 0.07598 0.51895 0.0
H49 H 0.67159 0.05404 0.43677 0.0
C50 C 0.7142 0.15702 0.23596 0.0
N51 N 0.69229 0.13406 0.22826 0.0
N52 N 0.68433 0.12372 0.3025 0.0
C53 C 0.70053 0.14048 0.36014 0.0
C54 C 0.72023 0.16185 0.3199 0.0
C55 C 0.72801 0.17458 0.16432 0.0
H56 H 0.71578 0.18198 0.13809 0.0
H57 H 0.73124 0.16359 0.11485 0.0
H58 H 0.747 0.19102 0.18303 0.0
O59 O 0.63774 0.12208 0.15388 0.0
O60 O 0.62516 0.1018 0.27519 0.0
H61 H 0.67365 0.12857 0.46237 0.0
H62 H 0.70311 0.15851 0.4792 0.0
C63 C 0.69475 0.13894 0.45134 0.0
H64 H 0.70358 0.12879 0.48303 0.0
H65 H 0.60767 0.08255 0.42298 0.0
O66 O 0.68487 0.13474 0.02906 0.0
C67 C 0.62195 0.11361 0.21478 0.0
Co68 Co 0.54726 0.67022 0.29344 0.0
Co69 Co 0.56381 0.65597 0.46039 0.0
C70 C 0.58761 0.65369 0.30104 0.0
O71 O 0.57243 0.65962 0.2653 0.0
O72 O 0.58794 0.65244 0.38013 0.0
C73 C 0.5663 0.69892 0.15089 0.0
O74 O 0.58738 0.70778 0.19593 0.0
C75 C 0.5887 0.66512 0.62589 0.0
C76 C 0.55855 0.63099 0.69196 0.0
C77 C 0.58085 0.65449 0.70467 0.0
N78 N 0.57106 0.64923 0.57027 0.0
N79 N 0.5538 0.62829 0.60994 0.0
C80 C 0.61151 0.69085 0.60477 0.0
H81 H 0.60858 0.69801 0.54443 0.0
H82 H 0.61555 0.7051 0.65512 0.0
H83 H 0.62874 0.68851 0.59877 0.0
C84 C 0.55669 0.71619 0.38904 0.0
N85 N 0.55863 0.69475 0.38098 0.0
N86 N 0.56321 0.68799 0.45429 0.0
C87 C 0.56245 0.7041 0.51225 0.0
C88 C 0.55919 0.72289 0.47239 0.0
C89 C 0.54873 0.72757 0.32021 0.0
H90 H 0.53112 0.71209 0.28967 0.0
H91 H 0.56431 0.73595 0.2728 0.0
H92 H 0.54491 0.74287 0.34325 0.0
O93 O 0.51411 0.63862 0.32498 0.0
O94 O 0.52793 0.62845 0.43956 0.0
H95 H 0.55204 0.67843 0.61722 0.0
H96 H 0.54758 0.70551 0.63402 0.0
C97 C 0.56026 0.69925 0.60418 0.0
H98 H 0.57951 0.71068 0.63325 0.0
H99 H 0.53748 0.61315 0.58217 0.0
O100 O 0.54456 0.68464 0.18586 0.0
C101 C 0.51015 0.62385 0.38734 0.0
Co102 Co 0.87255 0.53955 0.42938 0.0
Co103 Co 0.90387 0.55914 0.5928 0.0
C104 C 0.93002 0.58285 0.43879 0.0
O105 O 0.90879 0.56679 0.40433 0.0
O106 O 0.93217 0.58381 0.51787 0.0
C107 C 0.86361 0.55684 0.28377 0.0
O108 O 0.87008 0.57813 0.32563 0.0
C109 C 0.92443 0.58134 0.76339 0.0
C110 C 0.90685 0.54394 0.82952 0.0
C111 C 0.92061 0.57034 0.84238 0.0
N112 N 0.91279 0.56199 0.70748 0.0
N113 N 0.90287 0.53983 0.74797 0.0
C114 C 0.9401 0.60938 0.7411 0.0
H115 H 0.94316 0.61174 0.67279 0.0
H116 H 0.93033 0.62001 0.76178 0.0
H117 H 0.95902 0.6181 0.77347 0.0
C118 C 0.8345 0.54626 0.52815 0.0
N119 N 0.85814 0.54922 0.51648 0.0
N120 N 0.8726 0.56052 0.58171 0.0
C121 C 0.85906 0.56657 0.63541 0.0
C122 C 0.83406 0.55723 0.60459 0.0
C123 C 0.81237 0.53065 0.47071 0.0
H124 H 0.81605 0.51706 0.43401 0.0
H125 H 0.81032 0.54382 0.42671 0.0
H126 H 0.79408 0.51953 0.50605 0.0
O127 O 0.87198 0.50726 0.45586 0.0
O128 O 0.89637 0.52294 0.56813 0.0
H129 H 0.87072 0.57084 0.76297 0.0
H130 H 0.86029 0.59316 0.72935 0.0
C131 C 0.87079 0.58301 0.71071 0.0
H132 H 0.89094 0.59775 0.69626 0.0
H133 H 0.8918 0.52174 0.72081 0.0
O134 O 0.85482 0.53578 0.32385 0.0
C135 C 0.88375 0.5045 0.51723 0.0
Co136 Co 0.33324 0.87386 0.5839 0.0
Co137 Co 0.34678 0.90446 0.74923 0.0
C138 C 0.34765 0.93119 0.59825 0.0
O139 O 0.34201 0.91018 0.5611 0.0
O140 O 0.34958 0.93279 0.6773 0.0
C141 C 0.30708 0.866 0.43897 0.0
O142 O 0.29268 0.87311 0.48036 0.0
C143 C 0.34696 0.92566 0.91938 0.0
C144 C 0.36618 0.90734 0.98473 0.0
C145 C 0.35417 0.92173 -0.00196 0.0
N146 N 0.3539 0.91341 0.86329 0.0
N147 N 0.36588 0.90311 0.90307 0.0
C148 C 0.33548 0.94217 0.89744 0.0
H149 H 0.33783 0.94673 0.82997 0.0
H150 H 0.31463 0.93221 0.91264 0.0
H151 H 0.34498 0.96031 0.93432 0.0
C152 C 0.28901 0.83573 0.68434 0.0
N153 N 0.31006 0.85913 0.67319 0.0
N154 N 0.31406 0.87327 0.73998 0.0
C155 C 0.29471 0.8598 0.79447 0.0
C156 C 0.27823 0.83516 0.76215 0.0
C157 C 0.28134 0.8139 0.62435 0.0
H158 H 0.29828 0.817 0.58691 0.0
H159 H 0.26651 0.81316 0.58119 0.0
H160 H 0.27331 0.79517 0.65762 0.0
O161 O 0.36541 0.87363 0.60465 0.0
O162 O 0.3753 0.8974 0.71901 0.0
H163 H 0.30311 0.87054 0.92256 0.0
H164 H 0.27044 0.86144 0.89174 0.0
C165 C 0.29096 0.87141 0.8719 0.0
H166 H 0.29697 0.89182 0.85951 0.0
H167 H 0.37253 0.89176 0.87518 0.0
O168 O 0.31829 0.85611 0.4792 0.0
C169 C 0.38065 0.88523 0.66474 0.0
Co170 Co 0.45221 0.33386 0.78905 0.0
Co171 Co 0.44254 0.35239 0.95912 0.0
C172 C 0.41532 0.35423 0.80806 0.0
O173 O 0.42844 0.34662 0.76755 0.0
O174 O 0.41725 0.35634 0.8869 0.0
C175 C 0.42727 0.30372 0.65399 0.0
O176 O 0.40783 0.29592 0.70626 0.0
C177 C 0.42508 0.34887 0.1338 0.0
C178 C 0.45731 0.3855 0.18058 0.0
C179 C 0.43665 0.36216 0.20669 0.0
N180 N 0.43964 0.36278 0.06897 0.0
N181 N 0.45796 0.3853 0.09724 0.0
C182 C 0.40164 0.3226 0.12622 0.0
H183 H 0.4007 0.31421 0.06382 0.0
H184 H 0.40111 0.3095 0.17595 0.0
H185 H 0.38423 0.32453 0.13426 0.0
C186 C 0.44098 0.28764 0.8864 0.0
N187 N 0.44182 0.31053 0.87983 0.0
N188 N 0.44069 0.31906 0.95454 0.0
C189 C 0.44135 0.30263 0.01135 0.0
C190 C 0.44048 0.28176 0.96988 0.0
C191 C 0.44412 0.27345 0.81462 0.0
H192 H 0.46059 0.28714 0.77537 0.0
H193 H 0.4264 0.26505 0.7759 0.0
H194 H 0.44748 0.25769 0.83579 0.0
O195 O 0.48744 0.36438 0.80869 0.0
O196 O 0.47806 0.37772 0.92596 0.0
H197 H 0.4625 0.30439 0.12206 0.0
H198 H 0.42989 0.29608 0.13942 0.0
C199 C 0.4473 0.30858 0.10186 0.0
H200 H 0.45467 0.32926 0.11451 0.0
H201 H 0.4724 0.3996 0.06037 0.0
O202 O 0.45016 0.31703 0.68216 0.0
C203 C 0.49398 0.3804 0.86891 0.0
Co204 Co 0.55589 0.88836 0.85548 0.0
Co205 Co 0.56737 0.91827 0.68772 0.0
C206 C 0.59393 0.94567 0.842 0.0
O207 O 0.58033 0.92468 0.88081 0.0
O208 O 0.59237 0.94658 0.76317 0.0
C209 C 0.5769 0.88094 -0.00204 0.0
O210 O 0.59801 0.89499 0.95432 0.0
C211 C 0.59041 0.93562 0.52131 0.0
C212 C 0.55772 0.93532 0.45688 0.0
C213 C 0.58152 0.93723 0.44311 0.0
N214 N 0.57216 0.93173 0.57771 0.0
N215 N 0.55321 0.93278 0.5391 0.0
C216 C 0.61481 0.93546 0.54111 0.0
H217 H 0.61322 0.92604 0.60201 0.0
H218 H 0.61977 0.92587 0.49102 0.0
H219 H 0.63084 0.95576 0.54508 0.0
C220 C 0.56733 0.85385 0.75383 0.0
N221 N 0.56656 0.87588 0.76381 0.0
N222 N 0.56956 0.88718 0.691 0.0
C223 C 0.57093 0.87179 0.63178 0.0
C224 C 0.57043 0.85072 0.66983 0.0
C225 C 0.56375 0.83565 0.82316 0.0
H226 H 0.54396 0.82755 0.849 0.0
H227 H 0.57761 0.8464 0.87372 0.0
H228 H 0.5668 0.81968 0.80209 0.0
O229 O 0.52157 0.88507 0.83322 0.0
O230 O 0.53144 0.90838 0.71719 0.0
H231 H 0.55601 0.88394 0.53011 0.0
H232 H 0.55507 0.85374 0.51363 0.0
C233 C 0.56659 0.87339 0.54071 0.0
H234 H 0.58536 0.88297 0.50766 0.0
H235 H 0.53615 0.92949 0.56773 0.0
O236 O 0.55513 0.87148 0.96159 0.0
C237 C 0.51533 0.89499 0.77371 0.0
Co238 Co 0.6712 0.54382 0.07388 0.0
Co239 Co 0.65633 0.56056 0.90792 0.0
C240 C 0.65381 0.58453 0.06195 0.0
O241 O 0.66015 0.56939 0.09643 0.0
O242 O 0.65222 0.58505 0.98297 0.0
C243 C 0.70168 0.56698 0.21 0.0
O244 O 0.71083 0.5869 0.15934 0.0
C245 C 0.65591 0.5734 0.72596 0.0
C246 C 0.62026 0.53769 0.69167 0.0
C247 C 0.64182 0.55868 0.65779 0.0
N248 N 0.64417 0.56047 0.79616 0.0
N249 N 0.62212 0.53993 0.77452 0.0
C250 C 0.67494 0.60177 0.72379 0.0
H251 H 0.68032 0.60968 0.78776 0.0
H252 H 0.69223 0.60574 0.68687 0.0
H253 H 0.66598 0.61186 0.69204 0.0
C254 C 0.71436 0.54949 0.97203 0.0
N255 N 0.69386 0.5528 0.98257 0.0
N256 N 0.69018 0.56312 0.91535 0.0
C257 C 0.70979 0.56847 0.86198 0.0
C258 C 0.7254 0.55933 0.89467 0.0
C259 C 0.72109 0.53464 0.03211 0.0
H260 H 0.70398 0.52161 0.07034 0.0
H261 H 0.73651 0.54837 0.07447 0.0
H262 H 0.72807 0.52299 -0.00119 0.0
O263 O 0.64046 0.51022 0.05551 0.0
O264 O 0.63044 0.52406 0.94155 0.0
H265 H 0.70284 0.57423 0.73595 0.0
H266 H 0.73623 0.59363 0.76736 0.0
C267 C 0.71589 0.58544 0.78772 0.0
H268 H 0.71342 0.60197 0.805 0.0
H269 H 0.60897 0.52628 0.81593 0.0
O270 O 0.68784 0.54447 0.1796 0.0
C271 C 0.62554 0.50628 0.99427 0.0
Co272 Co 0.1231 0.67083 0.21527 0.0
Co273 Co 0.09301 0.66102 0.04688 0.0
C274 C 0.06559 0.6556 0.20245 0.0
O275 O 0.08661 0.66088 0.23848 0.0
O276 O 0.06417 0.65523 0.12329 0.0
C277 C 0.13661 0.70171 0.35816 0.0
O278 O 0.13153 0.71644 0.3104 0.0
C279 C 0.0761 0.66403 0.86979 0.0
C280 C 0.07709 0.63016 0.81933 0.0
C281 C 0.07381 0.65057 0.79668 0.0
N282 N 0.08169 0.65258 0.93252 0.0
N283 N 0.08121 0.63181 0.90143 0.0
C284 C 0.06802 0.68385 0.8809 0.0
H285 H 0.06772 0.68831 0.94781 0.0
H286 H 0.08097 0.70159 0.84534 0.0
H287 H 0.04834 0.67627 0.85481 0.0
C288 C 0.16203 0.71591 0.12114 0.0
N289 N 0.13782 0.69592 0.12971 0.0
N290 N 0.12422 0.694 0.06295 0.0
C291 C 0.1391 0.71401 0.01207 0.0
C292 C 0.1639 0.72828 0.04574 0.0
C293 C 0.1834 0.72064 0.17975 0.0
H294 H 0.17832 0.70285 0.21562 0.0
H295 H 0.18632 0.73607 0.22432 0.0
H296 H 0.20171 0.72683 0.14542 0.0
O297 O 0.12526 0.64005 0.18529 0.0
O298 O 0.10334 0.63447 0.06906 0.0
H299 H 0.12568 0.70745 0.88646 0.0
H300 H 0.14195 0.74118 0.9173 0.0
C301 C 0.12888 0.72105 0.93808 0.0
H302 H 0.11047 0.71984 0.95602 0.0
H303 H 0.08436 0.61881 0.93541 0.0
O304 O 0.13907 0.68375 0.32481 0.0
C305 C 0.11537 0.62759 0.11862 0.0
Co306 Co 0.45449 0.12658 0.39828 0.0
Co307 Co 0.44194 0.09743 0.22913 0.0
C308 C 0.41497 0.06976 0.38302 0.0
O309 O 0.42891 0.09056 0.42236 0.0
O310 O 0.41666 0.06902 0.30418 0.0
C311 C 0.43415 0.13546 0.53974 0.0
O312 O 0.41311 0.12226 0.49514 0.0
C313 C 0.41809 0.08179 0.06376 0.0
C314 C 0.44914 0.0796 0.99657 0.0
C315 C 0.42606 0.07937 0.98488 0.0
N316 N 0.43616 0.08434 0.11874 0.0
N317 N 0.45409 0.08187 0.0785 0.0
C318 C 0.39488 0.08398 0.08542 0.0
H319 H 0.39714 0.09299 0.14752 0.0
H320 H 0.39117 0.095 0.03713 0.0
H321 H 0.37774 0.06426 0.08738 0.0
C322 C 0.44638 0.16354 0.30038 0.0
N323 N 0.44478 0.14034 0.30857 0.0
N324 N 0.44134 0.12939 0.23492 0.0
C325 C 0.44199 0.14613 0.17688 0.0
C326 C 0.44445 0.16789 0.21666 0.0
C327 C 0.45171 0.18188 0.37102 0.0
H328 H 0.47116 0.18801 0.39678 0.0
H329 H 0.43737 0.17188 0.42114 0.0
H330 H 0.45065 0.19913 0.35145 0.0
O331 O 0.48807 0.12836 0.37401 0.0
O332 O 0.47754 0.10575 0.25632 0.0
H333 H 0.45588 0.13286 0.07504 0.0
H334 H 0.45956 0.16433 0.06018 0.0
C335 C 0.44668 0.14473 0.08588 0.0
H336 H 0.42816 0.13656 0.05173 0.0
H337 H 0.47085 0.08395 0.1059 0.0
O338 O 0.456 0.14352 0.50494 0.0
C339 C 0.49382 0.11838 0.31324 0.0
Co340 Co 0.3363 0.44733 0.48811 0.0
Co341 Co 0.35227 0.43353 0.3196 0.0
C342 C 0.35707 0.41044 0.47643 0.0
O343 O 0.34988 0.42432 0.51457 0.0
O344 O 0.35801 0.41058 0.39728 0.0
C345 C 0.30827 0.42599 0.63 0.0
O346 O 0.30152 0.40531 0.58431 0.0
C347 C 0.34476 0.40879 0.15483 0.0
C348 C 0.37744 0.44032 0.08748 0.0
C349 C 0.35507 0.4168 0.07586 0.0
N350 N 0.35971 0.42731 0.20958 0.0
N351 N 0.37986 0.44553 0.16924 0.0
C352 C 0.32012 0.38475 0.17682 0.0
H353 H 0.31281 0.38677 0.23824 0.0
H354 H 0.30533 0.37981 0.12776 0.0
H355 H 0.32404 0.36847 0.18069 0.0
C356 C 0.2887 0.43364 0.39432 0.0
N357 N 0.31156 0.43441 0.40115 0.0
N358 N 0.31873 0.43046 0.32753 0.0
C359 C 0.30116 0.42853 0.2707 0.0
C360 C 0.28123 0.42958 0.31149 0.0
C361 C 0.27537 0.43852 0.46509 0.0
H362 H 0.28824 0.45812 0.4907 0.0
H363 H 0.27158 0.42435 0.51529 0.0
H364 H 0.25673 0.43674 0.44596 0.0
O365 O 0.36595 0.48197 0.45729 0.0
O366 O 0.37755 0.47022 0.34092 0.0
H367 H 0.29804 0.44423 0.15339 0.0
H368 H 0.29602 0.41349 0.14677 0.0
C369 C 0.30603 0.4324 0.17891 0.0
H370 H 0.32698 0.44248 0.16538 0.0
H371 H 0.39414 0.46259 0.19635 0.0
O372 O 0.32095 0.44814 0.59596 0.0
C373 C 0.38078 0.48737 0.39414 0.0
Co374 Co 0.87745 0.33078 0.74704 0.0
Co375 Co 0.9056 0.34544 0.5748 0.0
C376 C 0.93382 0.34595 0.72628 0.0
O377 O 0.91337 0.33975 0.7671 0.0
O378 O 0.93438 0.34861 0.64752 0.0
C379 C 0.86715 0.30055 0.88879 0.0
O380 O 0.87584 0.28888 0.84021 0.0
C381 C 0.92306 0.34119 0.40429 0.0
C382 C 0.92403 0.37516 0.34627 0.0
C383 C 0.92661 0.3539 0.3288 0.0
N384 N 0.9177 0.35398 0.46282 0.0
N385 N 0.91915 0.3747 0.42788 0.0
C386 C 0.92634 0.31839 0.42163 0.0
H387 H 0.91762 0.30958 0.48257 0.0
H388 H 0.91801 0.30387 0.37107 0.0
H389 H 0.94731 0.32506 0.42424 0.0
C390 C 0.84017 0.2841 0.65323 0.0
N391 N 0.86268 0.30661 0.65851 0.0
N392 N 0.87372 0.31283 0.58445 0.0
C393 C 0.85777 0.2948 0.52917 0.0
C394 C 0.83636 0.27583 0.57131 0.0
C395 C 0.82158 0.27196 0.72379 0.0
H396 H 0.8215 0.28714 0.76337 0.0
H397 H 0.82783 0.2607 0.76246 0.0
H398 H 0.80174 0.25869 0.70075 0.0
O399 O 0.87605 0.36291 0.72339 0.0
O400 O 0.89746 0.37263 0.6039 0.0
H401 H 0.87142 0.31662 0.41603 0.0
H402 H 0.84358 0.28526 0.40247 0.0
C403 C 0.86191 0.29628 0.43704 0.0
H404 H 0.87397 0.28761 0.42124 0.0
H405 H 0.91565 0.388 0.45876 0.0
O406 O 0.86198 0.3169 0.85676 0.0
C407 C 0.88572 0.37763 0.66039 0.0
H408 H 0.11704 0.59229 0.22127 0.0
H409 H 0.12089 0.61329 0.96295 0.0
H410 H 0.12337 0.57525 0.92142 0.0
H411 H 0.12218 0.53455 0.95816 0.0
H412 H 0.1158 0.51249 0.21638 0.0
H413 H 0.11687 0.55226 0.25815 0.0
C414 C 0.11864 0.58859 0.15604 0.0
C415 C 0.11844 0.60533 0.09529 0.0
C416 C 0.11958 0.56639 0.13245 0.0
C417 C 0.12043 0.60033 0.01085 0.0
C418 C 0.12202 0.57867 0.98701 0.0
C419 C 0.12132 0.53866 0.02347 0.0
C420 C 0.11882 0.5206 0.08393 0.0
C421 C 0.12124 0.56133 0.04716 0.0
C422 C 0.11749 0.52601 0.16848 0.0
C423 C 0.11813 0.54877 0.19257 0.0
H424 H 0.5194 0.11819 0.17403 0.0
H425 H 0.52617 0.12412 0.44148 0.0
H426 H 0.56706 0.12408 0.4338 0.0
H427 H 0.59941 0.1198 0.35168 0.0
H428 H 0.59395 0.11597 0.08392 0.0
H429 H 0.55397 0.11796 0.09089 0.0
C430 C 0.52991 0.11961 0.2306 0.0
C431 C 0.51966 0.12084 0.30836 0.0
C432 C 0.55352 0.11989 0.22556 0.0
C433 C 0.53367 0.12313 0.381 0.0
C434 C 0.55697 0.123 0.37663 0.0
C435 C 0.58951 0.11953 0.2948 0.0
C436 C 0.59935 0.1174 0.21739 0.0
C437 C 0.56684 0.12099 0.29938 0.0
C438 C 0.58669 0.11757 0.14413 0.0
C439 C 0.56381 0.11859 0.14819 0.0
H440 H 0.41022 0.52334 0.51031 0.0
H441 H 0.3996 0.51075 0.24557 0.0
H442 H 0.43727 0.55313 0.21929 0.0
H443 H 0.47528 0.59256 0.27145 0.0
H444 H 0.48797 0.60337 0.53607 0.0
H445 H 0.44761 0.56327 0.5625 0.0
C446 C 0.416 0.53008 0.44703 0.0
C447 C 0.40222 0.51398 0.3801 0.0
C448 C 0.43822 0.55417 0.43226 0.0
C449 C 0.41006 0.52278 0.29822 0.0
C450 C 0.43158 0.54702 0.28307 0.0
C451 C 0.46896 0.58626 0.33476 0.0
C452 C 0.48453 0.60083 0.40159 0.0
C453 C 0.44612 0.5627 0.34956 0.0
C454 C 0.47634 0.59234 0.48349 0.0
C455 C 0.45327 0.56942 0.49873 0.0
H456 H 0.88145 0.3978 0.5154 0.0
H457 H 0.88416 0.40938 0.78092 0.0
H458 H 0.88394 0.44998 0.7598 0.0
H459 H 0.88472 0.4828 0.66495 0.0
H460 H 0.87964 0.46971 0.39993 0.0
H461 H 0.87914 0.42891 0.42161 0.0
C462 C 0.88197 0.4092 0.56871 0.0
C463 C 0.88316 0.40084 0.64961 0.0
C464 C 0.88156 0.43222 0.55602 0.0
C465 C 0.88324 0.41546 0.71814 0.0
C466 C 0.88325 0.4387 0.70599 0.0
C467 C 0.88357 0.47107 0.61199 0.0
C468 C 0.88257 0.47943 0.53084 0.0
C469 C 0.88275 0.44741 0.62512 0.0
C470 C 0.88049 0.46371 0.4629 0.0
C471 C 0.88024 0.44043 0.47527 0.0
H472 H 0.40586 0.88598 0.80598 0.0
H473 H 0.41042 0.88401 0.53843 0.0
H474 H 0.45249 0.88656 0.54887 0.0
H475 H 0.48859 0.89098 0.63396 0.0
H476 H 0.48293 0.88998 0.90163 0.0
H477 H 0.44047 0.88678 0.89152 0.0
C478 C 0.41607 0.88607 0.75006 0.0
C479 C 0.40524 0.8851 0.67151 0.0
C480 C 0.43996 0.887 0.75665 0.0
C481 C 0.4184 0.88473 0.59952 0.0
C482 C 0.44246 0.88628 0.60548 0.0
C483 C 0.47799 0.88997 0.69007 0.0
C484 C 0.48891 0.891 0.76846 0.0
C485 C 0.45351 0.88767 0.68366 0.0
C486 C 0.47486 0.88922 0.84067 0.0
C487 C 0.45068 0.8875 0.83486 0.0
H488 H 0.60252 0.48253 0.84929 0.0
H489 H 0.59586 0.47294 0.11589 0.0
H490 H 0.55501 0.43242 0.09967 0.0
H491 H 0.52017 0.40119 0.01043 0.0
H492 H 0.52721 0.40917 0.74357 0.0
H493 H 0.56919 0.44889 0.75889 0.0
C494 C 0.59208 0.47153 0.90373 0.0
C495 C 0.60192 0.48087 0.98379 0.0
C496 C 0.5688 0.44806 0.8938 0.0
C497 C 0.58861 0.46616 0.05376 0.0
C498 C 0.56525 0.44306 0.0445 0.0
C499 C 0.53099 0.41155 0.95554 0.0
C500 C 0.52056 0.40252 0.87596 0.0
C501 C 0.55502 0.43405 0.96495 0.0
C502 C 0.5349 0.41579 0.80538 0.0
C503 C 0.55879 0.43853 0.81422 0.0
H504 H 0.01988 0.38003 0.00036 0.0
H505 H 0.06748 0.42533 0.79426 0.0
H506 H 0.03087 0.40457 0.70083 0.0
H507 H 0.98418 0.37677 0.67923 0.0
H508 H 0.93673 0.3297 0.88192 0.0
H509 H 0.97413 0.34775 0.97397 0.0
C510 C 0.02227 0.3852 0.93497 0.0
C511 C 0.04638 0.40462 0.90539 0.0
C512 C 1.00101 0.37301 0.88049 0.0
C513 C 0.04914 0.41073 0.81976 0.0
C514 C 0.02816 0.39884 0.76572 0.0
C515 C 0.98213 0.37004 0.74296 0.0
C516 C 0.95753 0.35256 0.77434 0.0
C517 C 0.00384 0.38039 0.79563 0.0
C518 C 0.95531 0.3439 0.85704 0.0
C519 C 0.97673 0.35411 0.90974 0.0
H520 H 0.59462 0.95061 0.01021 0.0
H521 H 0.63009 0.994 0.78618 0.0
H522 H 0.65415 0.03337 0.86907 0.0
H523 H 0.66151 0.05602 0.00249 0.0
H524 H 0.62327 0.01311 0.22425 0.0
H525 H 0.6041 0.97284 0.14462 0.0
C526 C 0.6077 0.96862 0.97913 0.0
C527 C 0.61029 0.96934 0.89163 0.0
C528 C 0.62079 0.99128 0.02673 0.0
C529 C 0.62749 0.99289 0.85307 0.0
C530 C 0.64119 0.01542 0.90045 0.0
C531 C 0.64901 0.03789 0.03361 0.0
C532 C 0.6434 0.03774 0.11899 0.0
C533 C 0.63741 0.01495 0.98692 0.0
C534 C 0.62784 0.0139 0.15868 0.0
C535 C 0.61674 0.99086 0.11302 0.0
H536 H 0.61653 0.63154 0.34647 0.0
H537 H 0.59366 0.65919 0.13297 0.0
H538 H 0.61375 0.64222 0.04019 0.0
H539 H 0.63432 0.61584 0.01789 0.0
H540 H 0.65723 0.58814 0.23119 0.0
H541 H 0.64099 0.60884 0.32437 0.0
C542 C 0.61629 0.6342 0.2798 0.0
C543 C 0.60328 0.6464 0.24726 0.0
C544 C 0.62773 0.62409 0.22596 0.0
C545 C 0.60329 0.64969 0.16031 0.0
C546 C 0.61475 0.63992 0.10675 0.0
C547 C 0.63606 0.61461 0.08466 0.0
C548 C 0.6467 0.6001 0.1169 0.0
C549 C 0.62647 0.62649 0.13864 0.0
C550 C 0.64891 0.59891 0.204 0.0
C551 C 0.63957 0.61075 0.25779 0.0
H552 H 0.98038 0.61639 0.48341 0.0
H553 H 0.9305 0.58589 0.26961 0.0
H554 H 0.96742 0.60694 0.17681 0.0
H555 H 0.01459 0.63097 0.15586 0.0
H556 H 0.06435 0.66355 0.36875 0.0
H557 H 0.02714 0.64505 0.46144 0.0
C558 C 0.97754 0.61461 0.41658 0.0
C559 C 0.95259 0.59897 0.38401 0.0
C560 C 0.99904 0.62702 0.3629 0.0
C561 C 0.94941 0.59725 0.29691 0.0
C562 C 0.9706 0.60939 0.2434 0.0
C563 C 0.01728 0.63437 0.22234 0.0
C564 C 0.0424 0.64798 0.25534 0.0
C565 C 0.99561 0.62384 0.27563 0.0
C566 C 0.04536 0.65239 0.34177 0.0
C567 C 0.02401 0.64194 0.395 0.0
H568 H 0.38678 0.01958 0.32845 0.0
H569 H 0.40648 0.06654 0.55032 0.0
H570 H 0.38541 0.028 0.63629 0.0
H571 H 0.36529 0.9809 0.65037 0.0
H572 H 0.34516 0.93377 0.42911 0.0
H573 H 0.36217 0.97212 0.34209 0.0
C574 C 0.38612 0.02138 0.39544 0.0
C575 C 0.39858 0.04602 0.43244 0.0
C576 C 0.37407 0.99899 0.44527 0.0
C577 C 0.39733 0.04789 0.51965 0.0
C578 C 0.3853 0.0258 0.56928 0.0
C579 C 0.36427 0.97896 0.58317 0.0
C580 C 0.35436 0.9544 0.54675 0.0
C581 C 0.37421 1.00123 0.53303 0.0
C582 C 0.35302 0.95237 0.45928 0.0
C583 C 0.36278 0.97437 0.40914 0.0
H584 H 0.40585 0.34895 0.64191 0.0
H585 H 0.38956 0.37866 0.86522 0.0
H586 H 0.36867 0.39722 0.78149 0.0
H587 H 0.35766 0.40733 0.64519 0.0
H588 H 0.37578 0.37928 0.4216 0.0
H589 H 0.39314 0.35741 0.50602 0.0
C590 C 0.39749 0.35922 0.67278 0.0
C591 C 0.39949 0.36254 0.76004 0.0
C592 C 0.38585 0.37012 0.62427 0.0
C593 C 0.38833 0.37577 0.79846 0.0
C594 C 0.37641 0.38642 0.75054 0.0
C595 C 0.36521 0.39629 0.61455 0.0
C596 C 0.36558 0.39517 0.52676 0.0
C597 C 0.3755 0.38411 0.66338 0.0
C598 C 0.37532 0.38059 0.48874 0.0
C599 C 0.38527 0.36809 0.53706 0.0
H600 H 0.18171 0.41012 0.11497 0.0
H601 H 0.20191 0.48382 0.22305 0.0
H602 H 0.23955 0.48569 0.29103 0.0
H603 H 0.26631 0.46578 0.32107 0.0
H604 H 0.24636 0.39237 0.21068 0.0
H605 H 0.20915 0.39087 0.14154 0.0
C606 C 0.19451 0.42657 0.1532 0.0
C607 C 0.18908 0.44662 0.16545 0.0
C608 C 0.21601 0.42745 0.19173 0.0
C609 C 0.2057 0.46803 0.21421 0.0
C610 C 0.22716 0.46909 0.25283 0.0
C611 C 0.25357 0.44937 0.28266 0.0
C612 C 0.25859 0.42894 0.27204 0.0
C613 C 0.23236 0.44877 0.24275 0.0
C614 C 0.24256 0.40813 0.22016 0.0
C615 C 0.22136 0.40729 0.18065 0.0
H616 H 0.75301 0.16544 0.4418 0.0
H617 H 0.73235 0.21164 0.28922 0.0
H618 H 0.76594 0.25106 0.35557 0.0
H619 H 0.80147 0.27241 0.45673 0.0
H620 H 0.82201 0.22634 0.61002 0.0
H621 H 0.78765 0.18672 0.54609 0.0
C622 C 0.75593 0.18419 0.42332 0.0
C623 C 0.74069 0.18576 0.3596 0.0
C624 C 0.77503 0.20669 0.46253 0.0
C625 C 0.74438 0.21005 0.33649 0.0
C626 C 0.76339 0.23255 0.37497 0.0
C627 C 0.79843 0.25365 0.4755 0.0
C628 C 0.8144 0.25211 0.53653 0.0
C629 C 0.77892 0.2311 0.43772 0.0
C630 C 0.80996 0.22781 0.56254 0.0
C631 C 0.79044 0.20525 0.5258 0.0
H632 H 0.53563 0.79913 0.67756 0.0
H633 H 0.60758 0.85495 0.56455 0.0
H634 H 0.61009 0.82041 0.49053 0.0
H635 H 0.59223 0.77407 0.46052 0.0
H636 H 0.51953 0.71828 0.56902 0.0
H637 H 0.51674 0.75284 0.64236 0.0
C638 C 0.55193 0.80357 0.63734 0.0
C639 C 0.57166 0.82936 0.62744 0.0
C640 C 0.55304 0.78363 0.59425 0.0
C641 C 0.59234 0.83512 0.57346 0.0
C642 C 0.59375 0.81542 0.53114 0.0
C643 C 0.57577 0.76963 0.49999 0.0
C644 C 0.5564 0.74382 0.5112 0.0
C645 C 0.57427 0.7896 0.54129 0.0
C646 C 0.53493 0.73809 0.56133 0.0
C647 C 0.53332 0.75781 0.60296 0.0
H648 H 0.73168 0.55356 0.72864 0.0
H649 H 0.76903 0.56304 0.96634 0.0
H650 H 0.80365 0.55948 0.89884 0.0
H651 H 0.82348 0.55425 0.7719 0.0
H652 H 0.79363 0.55998 0.53307 0.0
H653 H 0.75588 0.55712 0.60109 0.0
C654 C 0.74775 0.55583 0.76598 0.0
C655 C 0.74737 0.55844 0.85312 0.0
C656 C 0.76892 0.55632 0.72609 0.0
C657 C 0.76809 0.56017 0.89976 0.0
C658 C 0.7882 0.55853 0.86096 0.0
C659 C 0.80939 0.55591 0.73421 0.0
C660 C 0.81164 0.5571 0.64672 0.0
C661 C 0.78889 0.55678 0.77404 0.0
C662 C 0.79224 0.55806 0.6 0.0
C663 C 0.77072 0.55684 0.63904 0.0
H664 H 0.27029 0.82324 0.92862 0.0
H665 H 0.23395 0.79691 0.68865 0.0
H666 H 0.19775 0.75977 0.75423 0.0
H667 H 0.17618 0.73518 0.87996 0.0
H668 H 0.20537 0.76983 0.12037 0.0
H669 H 0.24467 0.80344 0.05479 0.0
C670 C 0.25416 0.81008 0.89028 0.0
C671 C 0.25534 0.81308 0.80304 0.0
C672 C 0.23211 0.79009 0.92898 0.0
C673 C 0.23438 0.79485 0.75531 0.0
C674 C 0.21335 0.77372 0.79299 0.0
C675 C 0.19051 0.75054 0.9184 0.0
C676 C 0.18749 0.74969 0.00557 0.0
C677 C 0.21195 0.77125 0.87985 0.0
C678 C 0.20722 0.76932 0.05359 0.0
C679 C 0.22964 0.78885 0.01594 0.0
H680 H 0.41255 0.17171 0.10644 0.0
H681 H 0.48477 0.21707 0.23484 0.0
H682 H 0.49072 0.25638 0.1667 0.0
H683 H 0.47524 0.2777 0.07008 0.0
H684 H 0.40195 0.23269 0.94719 0.0
H685 H 0.39688 0.19315 0.0109 0.0
C686 C 0.42952 0.19027 0.1194 0.0
C687 C 0.44799 0.19172 0.17636 0.0
C688 C 0.43267 0.21271 0.0804 0.0
C689 C 0.47006 0.2157 0.19244 0.0
C690 C 0.47353 0.23809 0.15312 0.0
C691 C 0.45788 0.25934 0.05902 0.0
C692 C 0.4386 0.2581 0.00613 0.0
C693 C 0.45487 0.23685 0.09742 0.0
C694 C 0.41689 0.23401 0.98845 0.0
C695 C 0.41396 0.21147 0.02503 0.0
H696 H 0.11916 0.45568 0.43718 0.0
H697 H 0.05237 0.38038 0.47342 0.0
H698 H 0.06763 0.37832 0.61386 0.0
H699 H 0.09734 0.40041 0.73025 0.0
H700 H 0.16221 0.47733 0.69575 0.0
H701 H 0.15068 0.47619 0.5492 0.0
C702 C 0.10819 0.43866 0.47563 0.0
C703 C 0.08465 0.41826 0.44624 0.0
C704 C 0.11678 0.43801 0.55602 0.0
C705 C 0.07053 0.39623 0.49551 0.0
C706 C 0.07923 0.39516 0.57552 0.0
C707 C 0.10936 0.41668 0.6902 0.0
C708 C 0.13065 0.43898 0.72366 0.0
C709 C 0.10198 0.41625 0.60709 0.0
C710 C 0.14577 0.46002 0.67131 0.0
C711 C 0.1391 0.4594 0.5878 0.0
H712 H 0.65598 0.08856 0.93702 0.0
H713 H 0.73216 0.14774 0.86316 0.0
H714 H 0.72223 0.13337 0.71738 0.0
H715 H 0.69016 0.10626 0.61193 0.0
H716 H 0.61476 0.04581 0.68911 0.0
H717 H 0.6263 0.05788 0.83456 0.0
C718 C 0.67049 0.09801 0.8889 0.0
C719 C 0.69457 0.11922 0.90933 0.0
C720 C 0.66485 0.08921 0.80692 0.0
C721 C 0.71339 0.13152 0.84763 0.0
C722 C 0.70774 0.12321 0.76489 0.0
C723 C 0.67671 0.09492 0.66055 0.0
C724 C 0.65177 0.07487 0.64003 0.0
C725 C 0.68339 0.10224 0.74381 0.0
C726 C 0.63414 0.06111 0.7038 0.0
C727 C 0.64062 0.06819 0.78666 0.0
H728 H 0.5477 0.66592 0.7777 0.0
H729 H 0.62377 0.67561 0.80452 0.0
H730 H 0.62769 0.69488 0.94302 0.0
H731 H 0.60701 0.70375 0.06133 0.0
H732 H 0.52938 0.69052 0.03618 0.0
H733 H 0.52873 0.67853 0.89037 0.0
C734 C 0.56525 0.67256 0.8137 0.0
C735 C 0.58531 0.66913 0.78244 0.0
C736 C 0.56704 0.68304 0.89288 0.0
C737 C 0.60811 0.67801 0.82828 0.0
C738 C 0.61027 0.68894 0.90713 0.0
C739 C 0.59018 0.69887 0.02342 0.0
C740 C 0.56815 0.69784 0.05953 0.0
C741 C 0.58954 0.69088 0.94087 0.0
C742 C 0.54647 0.69134 0.00977 0.0
C743 C 0.54604 0.68432 0.92671 0.0
H744 H 0.92905 0.55327 0.98477 0.0
H745 H 0.91071 0.60934 0.88674 0.0
H746 H 0.89332 0.61196 0.0213 0.0
H747 H 0.8754 0.59166 0.15836 0.0
H748 H 0.8855 0.52831 0.2394 0.0
H749 H 0.91254 0.53406 0.11935 0.0
C750 C 0.92196 0.56669 0.9937 0.0
C751 C 0.92126 0.58105 0.92572 0.0
C752 C 0.90905 0.56562 0.06734 0.0
C753 C 0.91213 0.59844 0.93795 0.0
C754 C 0.90139 0.59934 0.01456 0.0
C755 C 0.88344 0.57908 0.1491 0.0
C756 C 0.87801 0.55929 0.20666 0.0
C757 C 0.89833 0.58184 0.0779 0.0
C758 C 0.88871 0.54321 0.19474 0.0
C759 C 0.90456 0.54674 0.12683 0.0
H760 H 0.28615 0.87975 0.31259 0.0
H761 H 0.35771 0.88657 0.39915 0.0
H762 H 0.38033 0.91264 0.27872 0.0
H763 H 0.37893 0.92856 0.14156 0.0
H764 H 0.3062 0.91455 0.04107 0.0
H765 H 0.28544 0.89824 0.17522 0.0
C766 C 0.30667 0.88694 0.30457 0.0
C767 C 0.32005 0.88067 0.36335 0.0
C768 C 0.31954 0.90134 0.23347 0.0
C769 C 0.34673 0.89037 0.35334 0.0
C770 C 0.35982 0.90565 0.28516 0.0
C771 C 0.35869 0.92267 0.14983 0.0
C772 C 0.34424 0.92278 0.08125 0.0
C773 C 0.3463 0.91067 0.22394 0.0
C774 C 0.31806 0.91525 0.09269 0.0
C775 C 0.30594 0.90517 0.16915 0.0
H776 H 0.46303 0.32219 0.53156 0.0
H777 H 0.38154 0.29099 0.57651 0.0
H778 H 0.37663 0.30553 0.43925 0.0
H779 H 0.39681 0.33198 0.31277 0.0
H780 H 0.47873 0.36402 0.27406 0.0
H781 H 0.48215 0.34479 0.40278 0.0
C782 C 0.44407 0.31809 0.51084 0.0
C783 C 0.42283 0.30587 0.56468 0.0
C784 C 0.44155 0.32732 0.43354 0.0
C785 C 0.39832 0.30044 0.53635 0.0
C786 C 0.39551 0.30901 0.45815 0.0
C787 C 0.41529 0.33458 0.33279 0.0
C788 C 0.43754 0.3499 0.28526 0.0
C789 C 0.41721 0.32336 0.40746 0.0
C790 C 0.46141 0.35294 0.31094 0.0
C791 C 0.46339 0.34171 0.38407 0.0
H792 H 0.61461 0.91955 0.08928 0.0
H793 H 0.54043 0.84982 0.11024 0.0
H794 H 0.53686 0.86044 0.2547 0.0
H795 H 0.55201 0.89214 0.3673 0.0
H796 H 0.62477 0.96305 0.34571 0.0
H797 H 0.63191 0.9494 0.20837 0.0
C798 C 0.59799 0.90629 0.12614 0.0
C799 C 0.57772 0.88394 0.08917 0.0
C800 C 0.59564 0.91304 0.20803 0.0
C801 C 0.55621 0.86713 0.1374 0.0
C802 C 0.55409 0.87329 0.21966 0.0
C803 C 0.56952 0.90449 0.33254 0.0
C804 C 0.58768 0.9287 0.36489 0.0
C805 C 0.57319 0.89664 0.25425 0.0
C806 C 0.61052 0.94444 0.32093 0.0
C807 C 0.61453 0.93661 0.24282 0.0
H808 H 0.67817 0.53008 0.3274 0.0
H809 H 0.71695 0.61273 0.29202 0.0
H810 H 0.70183 0.61791 0.42822 0.0
H811 H 0.6737 0.59829 0.55107 0.0
H812 H 0.6345 0.51525 0.58088 0.0
H813 H 0.65286 0.51103 0.4518 0.0
C814 C 0.68376 0.54931 0.34991 0.0
C815 C 0.69845 0.5709 0.29915 0.0
C816 C 0.67426 0.55208 0.4265 0.0
C817 C 0.70564 0.59569 0.3298 0.0
C818 C 0.69673 0.59867 0.40733 0.0
C819 C 0.66947 0.57934 0.53008 0.0
C820 C 0.65262 0.55721 0.57614 0.0
C821 C 0.68035 0.5769 0.4552 0.0
C822 C 0.64699 0.53272 0.54645 0.0
C823 C 0.65773 0.5302 0.47284 0.0
H824 H 0.09853 0.65809 0.42126 0.0
H825 H 0.15307 0.73694 0.4859 0.0
H826 H 0.13547 0.72935 0.62839 0.0
H827 H 0.10647 0.69868 0.73563 0.0
H828 H 0.04952 0.62119 0.66318 0.0
H829 H 0.06515 0.6303 0.52002 0.0
C830 C 0.10644 0.67367 0.46653 0.0
C831 C 0.12736 0.69782 0.44456 0.0
C832 C 0.09531 0.66956 0.54558 0.0
C833 C 0.13725 0.71804 0.50263 0.0
C834 C 0.12702 0.71375 0.58344 0.0
C835 C 0.09669 0.68422 0.68781 0.0
C836 C 0.07675 0.65931 0.70967 0.0
C837 C 0.10612 0.68947 0.60573 0.0
C838 C 0.06476 0.64052 0.64742 0.0
C839 C 0.07396 0.64557 0.56601 0.0
H840 H 0.39515 0.09809 0.63036 0.0
H841 H 0.47011 0.16668 0.65287 0.0
H842 H 0.47239 0.15637 0.79864 0.0
H843 H 0.45619 0.12466 0.9113 0.0
H844 H 0.383 0.05439 0.88702 0.0
H845 H 0.37679 0.06837 0.74917 0.0
C846 C 0.41168 0.11116 0.66778 0.0
C847 C 0.43257 0.13305 0.63101 0.0
C848 C 0.41336 0.10444 0.75016 0.0
C849 C 0.4539 0.1497 0.67997 0.0
C850 C 0.45528 0.14371 0.76294 0.0
C851 C 0.43875 0.1126 0.87596 0.0
C852 C 0.42021 0.08843 0.9075 0.0
C853 C 0.43566 0.12059 0.79729 0.0
C854 C 0.39751 0.07298 0.86277 0.0
C855 C 0.39404 0.08099 0.78438 0.0
H856 H 0.30743 0.38701 0.71874 0.0
H857 H 0.31184 0.46108 0.74518 0.0
H858 H 0.32355 0.46268 0.89157 0.0
H859 H 0.33883 0.44628 0.00411 0.0
H860 H 0.33792 0.37409 0.9761 0.0
H861 H 0.31817 0.36817 0.83766 0.0
C862 C 0.31023 0.40317 0.75711 0.0
C863 C 0.30895 0.42404 0.72126 0.0
C864 C 0.318 0.40443 0.8401 0.0
C865 C 0.31285 0.44491 0.77147 0.0
C866 C 0.31969 0.44589 0.85486 0.0
C867 C 0.334 0.42911 0.96782 0.0
C868 C 0.34007 0.41079 -0.00142 0.0
C869 C 0.32338 0.42631 0.88851 0.0
C870 C 0.33348 0.38842 0.9526 0.0
C871 C 0.32228 0.38514 0.8738 0.0
H872 H 0.89 0.30685 0.27238 0.0
H873 H 0.95496 0.37939 0.19445 0.0
H874 H 0.94186 0.36879 0.04917 0.0
H875 H 0.90874 0.34176 0.94799 0.0
H876 H 0.8448 0.26821 0.02193 0.0
H877 H 0.86021 0.27651 0.1669 0.0
C878 C 0.90196 0.31975 0.22339 0.0
C879 C 0.92368 0.3437 0.2437 0.0
C880 C 0.89387 0.31379 0.1403 0.0
C881 C 0.93841 0.36073 0.1798 0.0
C882 C 0.93071 0.35484 0.09708 0.0
C883 C 0.89847 0.32741 0.99585 0.0
C884 C 0.87562 0.30463 0.97567 0.0
C885 C 0.90794 0.33195 0.07723 0.0
C886 C 0.86227 0.28604 0.0372 0.0
C887 C 0.87119 0.29073 0.1195 0.0
loop_
_geom_bond_atom_site_label_1
_geom_bond_atom_site_label_2
_geom_bond_distance
_geom_bond_site_symmetry_2
_ccdc_geom_bond_type
Co0 O3 1.970 . S
Co0 N17 1.989 1_556 S
Co0 O25 1.967 1_556 S
Co0 O32 1.920 . S
Co1 O4 1.966 . S
Co1 N10 2.022 . S
Co1 N18 1.993 . S
Co1 O26 1.941 . S
C2 O3 1.258 1_554 S
C2 O4 1.263 . S
O3 Co0 1.970 . S
O3 C2 1.258 1_556 S
O4 Co1 1.966 . S
O4 C2 1.263 . S
C5 O6 1.235 . S
C5 O32 1.289 . S
O6 C5 1.235 . S
C7 C9 1.400 . S
C7 N10 1.351 . S
C7 C12 1.501 . S
C8 C9 1.387 . S
C8 N11 1.341 . S
C9 C7 1.400 . S
C9 C8 1.387 . S
N10 Co1 2.022 . S
N10 C7 1.351 . S
N10 N11 1.365 . S
N11 C8 1.341 . S
N11 N10 1.365 . S
N11 H31 0.862 . S
C12 C7 1.501 . S
C12 H13 0.961 . S
C12 H14 0.961 . S
C12 H15 0.960 . S
H13 C12 0.961 . S
H14 C12 0.961 . S
H15 C12 0.960 . S
C16 N17 1.342 . S
C16 C20 1.401 . S
C16 C21 1.499 1_554 S
N17 Co0 1.989 1_554 S
N17 C16 1.342 . S
N17 N18 1.388 . S
N18 Co1 1.993 . S
N18 N17 1.388 . S
N18 C19 1.346 . S
C19 N18 1.346 . S
C19 C20 1.396 . S
C19 C29 1.510 . S
C20 C16 1.401 . S
C20 C19 1.396 . S
C21 C16 1.499 1_556 S
C21 H22 0.959 . S
C21 H23 0.960 . S
C21 H24 0.961 . S
H22 C21 0.959 . S
H23 C21 0.960 . S
H24 C21 0.961 . S
O25 Co0 1.967 1_554 S
O25 C33 1.258 . S
O26 Co1 1.941 . S
O26 C33 1.266 . S
H27 C29 0.959 . S
H28 C29 0.961 . S
C29 C19 1.510 . S
C29 H27 0.959 . S
C29 H28 0.961 . S
C29 H30 0.960 . S
H30 C29 0.960 . S
H31 N11 0.862 . S
O32 Co0 1.920 . S
O32 C5 1.289 . S
C33 O25 1.258 . S
C33 O26 1.266 . S
Co34 O37 1.970 . S
Co34 N51 1.989 . S
Co34 O59 1.967 . S
Co34 O66 1.920 . S
Co35 O38 1.966 . S
Co35 N44 2.022 . S
Co35 N52 1.993 . S
Co35 O60 1.941 . S
C36 O37 1.258 . S
C36 O38 1.263 . S
O37 Co34 1.970 . S
O37 C36 1.258 . S
O38 Co35 1.966 . S
O38 C36 1.263 . S
C39 O40 1.235 1_556 S
C39 O66 1.289 1_556 S
O40 C39 1.235 1_554 S
C41 C43 1.400 . S
C41 N44 1.351 . S
C41 C46 1.501 . S
C42 C43 1.387 . S
C42 N45 1.341 . S
C43 C41 1.400 . S
C43 C42 1.387 . S
N44 Co35 2.022 . S
N44 C41 1.351 . S
N44 N45 1.365 . S
N45 C42 1.341 . S
N45 N44 1.365 . S
N45 H65 0.862 . S
C46 C41 1.501 . S
C46 H47 0.961 . S
C46 H48 0.961 . S
C46 H49 0.960 . S
H47 C46 0.961 . S
H48 C46 0.961 . S
H49 C46 0.960 . S
C50 N51 1.342 . S
C50 C54 1.401 . S
C50 C55 1.499 . S
N51 Co34 1.989 . S
N51 C50 1.342 . S
N51 N52 1.388 . S
N52 Co35 1.993 . S
N52 N51 1.388 . S
N52 C53 1.346 . S
C53 N52 1.346 . S
C53 C54 1.396 . S
C53 C63 1.510 . S
C54 C50 1.401 . S
C54 C53 1.396 . S
C55 C50 1.499 . S
C55 H56 0.959 . S
C55 H57 0.960 . S
C55 H58 0.961 . S
H56 C55 0.959 . S
H57 C55 0.960 . S
H58 C55 0.961 . S
O59 Co34 1.967 . S
O59 C67 1.258 . S
O60 Co35 1.941 . S
O60 C67 1.266 . S
H61 C63 0.959 . S
H62 C63 0.961 . S
C63 C53 1.510 . S
C63 H61 0.959 . S
C63 H62 0.961 . S
C63 H64 0.960 . S
H64 C63 0.960 . S
H65 N45 0.862 . S
O66 Co34 1.920 . S
O66 C39 1.289 1_554 S
C67 O59 1.258 . S
C67 O60 1.266 . S
Co68 O71 1.970 . S
Co68 N85 1.989 . S
Co68 O93 1.967 . S
Co68 O100 1.920 . S
Co69 O72 1.966 . S
Co69 N78 2.022 . S
Co69 N86 1.993 . S
Co69 O94 1.941 . S
C70 O71 1.258 . S
C70 O72 1.263 . S
O71 Co68 1.970 . S
O71 C70 1.258 . S
O72 Co69 1.966 . S
O72 C70 1.263 . S
C73 O74 1.235 . S
C73 O100 1.289 . S
O74 C73 1.235 . S
C75 C77 1.400 . S
C75 N78 1.351 . S
C75 C80 1.501 . S
C76 C77 1.387 . S
C76 N79 1.341 . S
C77 C75 1.400 . S
C77 C76 1.387 . S
N78 Co69 2.022 . S
N78 C75 1.351 . S
N78 N79 1.365 . S
N79 C76 1.341 . S
N79 N78 1.365 . S
N79 H99 0.862 . S
C80 C75 1.501 . S
C80 H81 0.961 . S
C80 H82 0.961 . S
C80 H83 0.960 . S
H81 C80 0.961 . S
H82 C80 0.961 . S
H83 C80 0.960 . S
C84 N85 1.342 . S
C84 C88 1.401 . S
C84 C89 1.499 . S
N85 Co68 1.989 . S
N85 C84 1.342 . S
N85 N86 1.388 . S
N86 Co69 1.993 . S
N86 N85 1.388 . S
N86 C87 1.346 . S
C87 N86 1.346 . S
C87 C88 1.396 . S
C87 C97 1.510 . S
C88 C84 1.401 . S
C88 C87 1.396 . S
C89 C84 1.499 . S
C89 H90 0.959 . S
C89 H91 0.960 . S
C89 H92 0.961 . S
H90 C89 0.959 . S
H91 C89 0.960 . S
H92 C89 0.961 . S
O93 Co68 1.967 . S
O93 C101 1.258 . S
O94 Co69 1.941 . S
O94 C101 1.266 . S
H95 C97 0.959 . S
H96 C97 0.961 . S
C97 C87 1.510 . S
C97 H95 0.959 . S
C97 H96 0.961 . S
C97 H98 0.960 . S
H98 C97 0.960 . S
H99 N79 0.862 . S
O100 Co68 1.920 . S
O100 C73 1.289 . S
C101 O93 1.258 . S
C101 O94 1.266 . S
Co102 O105 1.970 . S
Co102 N119 1.989 . S
Co102 O127 1.967 . S
Co102 O134 1.920 . S
Co103 O106 1.966 . S
Co103 N112 2.022 . S
Co103 N120 1.993 . S
Co103 O128 1.941 . S
C104 O105 1.258 . S
C104 O106 1.263 . S
O105 Co102 1.970 . S
O105 C104 1.258 . S
O106 Co103 1.966 . S
O106 C104 1.263 . S
C107 O108 1.235 . S
C107 O134 1.289 . S
O108 C107 1.235 . S
C109 C111 1.400 . S
C109 N112 1.351 . S
C109 C114 1.501 . S
C110 C111 1.387 . S
C110 N113 1.341 . S
C111 C109 1.400 . S
C111 C110 1.387 . S
N112 Co103 2.022 . S
N112 C109 1.351 . S
N112 N113 1.365 . S
N113 C110 1.341 . S
N113 N112 1.365 . S
N113 H133 0.862 . S
C114 C109 1.501 . S
C114 H115 0.961 . S
C114 H116 0.961 . S
C114 H117 0.960 . S
H115 C114 0.961 . S
H116 C114 0.961 . S
H117 C114 0.960 . S
C118 N119 1.342 . S
C118 C122 1.401 . S
C118 C123 1.499 . S
N119 Co102 1.989 . S
N119 C118 1.342 . S
N119 N120 1.388 . S
N120 Co103 1.993 . S
N120 N119 1.388 . S
N120 C121 1.346 . S
C121 N120 1.346 . S
C121 C122 1.396 . S
C121 C131 1.510 . S
C122 C118 1.401 . S
C122 C121 1.396 . S
C123 C118 1.499 . S
C123 H124 0.959 . S
C123 H125 0.960 . S
C123 H126 0.961 . S
H124 C123 0.959 . S
H125 C123 0.960 . S
H126 C123 0.961 . S
O127 Co102 1.967 . S
O127 C135 1.258 . S
O128 Co103 1.941 . S
O128 C135 1.266 . S
H129 C131 0.959 . S
H130 C131 0.961 . S
C131 C121 1.510 . S
C131 H129 0.959 . S
C131 H130 0.961 . S
C131 H132 0.960 . S
H132 C131 0.960 . S
H133 N113 0.862 . S
O134 Co102 1.920 . S
O134 C107 1.289 . S
C135 O127 1.258 . S
C135 O128 1.266 . S
Co136 O139 1.970 . S
Co136 N153 1.989 . S
Co136 O161 1.967 . S
Co136 O168 1.920 . S
Co137 O140 1.966 . S
Co137 N146 2.022 . S
Co137 N154 1.993 . S
Co137 O162 1.941 . S
C138 O139 1.258 . S
C138 O140 1.263 . S
O139 Co136 1.970 . S
O139 C138 1.258 . S
O140 Co137 1.966 . S
O140 C138 1.263 . S
C141 O142 1.235 . S
C141 O168 1.289 . S
O142 C141 1.235 . S
C143 C145 1.400 1_556 S
C143 N146 1.351 . S
C143 C148 1.501 . S
C144 C145 1.387 . S
C144 N147 1.341 . S
C145 C143 1.400 1_554 S
C145 C144 1.387 . S
N146 Co137 2.022 . S
N146 C143 1.351 . S
N146 N147 1.365 1_556 S
N147 C144 1.341 . S
N147 N146 1.365 1_554 S
N147 H167 0.862 . S
C148 C143 1.501 . S
C148 H149 0.961 . S
C148 H150 0.961 . S
C148 H151 0.960 . S
H149 C148 0.961 . S
H150 C148 0.961 . S
H151 C148 0.960 . S
C152 N153 1.342 . S
C152 C156 1.401 . S
C152 C157 1.499 . S
N153 Co136 1.989 . S
N153 C152 1.342 . S
N153 N154 1.388 . S
N154 Co137 1.993 . S
N154 N153 1.388 . S
N154 C155 1.346 . S
C155 N154 1.346 . S
C155 C156 1.396 . S
C155 C165 1.510 . S
C156 C152 1.401 . S
C156 C155 1.396 . S
C157 C152 1.499 . S
C157 H158 0.959 . S
C157 H159 0.960 . S
C157 H160 0.961 . S
H158 C157 0.959 . S
H159 C157 0.960 . S
H160 C157 0.961 . S
O161 Co136 1.967 . S
O161 C169 1.258 . S
O162 Co137 1.941 . S
O162 C169 1.266 . S
H163 C165 0.959 . S
H164 C165 0.961 . S
C165 C155 1.510 . S
C165 H163 0.959 . S
C165 H164 0.961 . S
C165 H166 0.960 . S
H166 C165 0.960 . S
H167 N147 0.862 . S
O168 Co136 1.920 . S
O168 C141 1.289 . S
C169 O161 1.258 . S
C169 O162 1.266 . S
Co170 O173 1.970 . S
Co170 N187 1.989 . S
Co170 O195 1.967 . S
Co170 O202 1.920 . S
Co171 O174 1.964 1_554 S
Co171 N180 2.026 . S
Co171 N188 1.992 1_554 S
Co171 O196 1.941 1_554 S
C172 O173 1.258 . S
C172 O174 1.263 . S
O173 Co170 1.970 . S
O173 C172 1.258 . S
O174 Co171 1.964 1_556 S
O174 C172 1.263 . S
C175 O176 1.235 . S
C175 O202 1.289 . S
O176 C175 1.235 . S
C177 C179 1.400 . S
C177 N180 1.351 . S
C177 C182 1.501 . S
C178 C179 1.387 . S
C178 N181 1.341 . S
C179 C177 1.400 . S
C179 C178 1.387 . S
N180 Co171 2.026 . S
N180 C177 1.351 . S
N180 N181 1.365 . S
N181 C178 1.341 . S
N181 N180 1.365 . S
N181 H201 0.862 . S
C182 C177 1.501 . S
C182 H183 0.961 . S
C182 H184 0.961 . S
C182 H185 0.960 . S
H183 C182 0.961 . S
H184 C182 0.961 . S
H185 C182 0.960 . S
C186 N187 1.342 . S
C186 C190 1.401 . S
C186 C191 1.499 . S
N187 Co170 1.989 . S
N187 C186 1.342 . S
N187 N188 1.388 . S
N188 Co171 1.992 1_556 S
N188 N187 1.388 . S
N188 C189 1.346 1_556 S
C189 N188 1.346 1_554 S
C189 C190 1.396 1_554 S
C189 C199 1.510 . S
C190 C186 1.401 . S
C190 C189 1.396 1_556 S
C191 C186 1.499 . S
C191 H192 0.959 . S
C191 H193 0.960 . S
C191 H194 0.961 . S
H192 C191 0.959 . S
H193 C191 0.960 . S
H194 C191 0.961 . S
O195 Co170 1.967 . S
O195 C203 1.258 . S
O196 Co171 1.941 1_556 S
O196 C203 1.266 . S
H197 C199 0.959 . S
H198 C199 0.961 . S
C199 C189 1.510 . S
C199 H197 0.959 . S
C199 H198 0.961 . S
C199 H200 0.960 . S
H200 C199 0.960 . S
H201 N181 0.862 . S
O202 Co170 1.920 . S
O202 C175 1.289 . S
C203 O195 1.258 . S
C203 O196 1.266 . S
Co204 O207 1.970 . S
Co204 N221 1.989 . S
Co204 O229 1.967 . S
Co204 O236 1.920 . S
Co205 O208 1.966 . S
Co205 N214 2.022 . S
Co205 N222 1.993 . S
Co205 O230 1.941 . S
C206 O207 1.258 . S
C206 O208 1.263 . S
O207 Co204 1.970 . S
O207 C206 1.258 . S
O208 Co205 1.966 . S
O208 C206 1.263 . S
C209 O210 1.235 1_554 S
C209 O236 1.289 1_554 S
O210 C209 1.235 1_556 S
C211 C213 1.400 . S
C211 N214 1.351 . S
C211 C216 1.501 . S
C212 C213 1.387 . S
C212 N215 1.341 . S
C213 C211 1.400 . S
C213 C212 1.387 . S
N214 Co205 2.022 . S
N214 C211 1.351 . S
N214 N215 1.365 . S
N215 C212 1.341 . S
N215 N214 1.365 . S
N215 H235 0.862 . S
C216 C211 1.501 . S
C216 H217 0.961 . S
C216 H218 0.961 . S
C216 H219 0.960 . S
H217 C216 0.961 . S
H218 C216 0.961 . S
H219 C216 0.960 . S
C220 N221 1.342 . S
C220 C224 1.401 . S
C220 C225 1.499 . S
N221 Co204 1.989 . S
N221 C220 1.342 . S
N221 N222 1.388 . S
N222 Co205 1.993 . S
N222 N221 1.388 . S
N222 C223 1.346 . S
C223 N222 1.346 . S
C223 C224 1.396 . S
C223 C233 1.510 . S
C224 C220 1.401 . S
C224 C223 1.396 . S
C225 C220 1.499 . S
C225 H226 0.959 . S
C225 H227 0.960 . S
C225 H228 0.961 . S
H226 C225 0.959 . S
H227 C225 0.960 . S
H228 C225 0.961 . S
O229 Co204 1.967 . S
O229 C237 1.258 . S
O230 Co205 1.941 . S
O230 C237 1.266 . S
H231 C233 0.959 . S
H232 C233 0.961 . S
C233 C223 1.510 . S
C233 H231 0.959 . S
C233 H232 0.961 . S
C233 H234 0.960 . S
H234 C233 0.960 . S
H235 N215 0.862 . S
O236 Co204 1.920 . S
O236 C209 1.289 1_556 S
C237 O229 1.258 . S
C237 O230 1.266 . S
Co238 O241 1.970 . S
Co238 N255 1.989 1_554 S
Co238 O263 1.967 1_554 S
Co238 O270 1.920 . S
Co239 O242 1.966 . S
Co239 N248 2.022 . S
Co239 N256 1.993 . S
Co239 O264 1.941 . S
C240 O241 1.258 1_556 S
C240 O242 1.263 . S
O241 Co238 1.970 . S
O241 C240 1.258 1_554 S
O242 Co239 1.966 . S
O242 C240 1.263 . S
C243 O244 1.235 . S
C243 O270 1.289 . S
O244 C243 1.235 . S
C245 C247 1.400 . S
C245 N248 1.351 . S
C245 C250 1.501 . S
C246 C247 1.387 . S
C246 N249 1.341 . S
C247 C245 1.400 . S
C247 C246 1.387 . S
N248 Co239 2.022 . S
N248 C245 1.351 . S
N248 N249 1.365 . S
N249 C246 1.341 . S
N249 N248 1.365 . S
N249 H269 0.862 . S
C250 C245 1.501 . S
C250 H251 0.961 . S
C250 H252 0.961 . S
C250 H253 0.960 . S
H251 C250 0.961 . S
H252 C250 0.961 . S
H253 C250 0.960 . S
C254 N255 1.342 . S
C254 C258 1.401 . S
C254 C259 1.499 1_556 S
N255 Co238 1.989 1_556 S
N255 C254 1.342 . S
N255 N256 1.388 . S
N256 Co239 1.993 . S
N256 N255 1.388 . S
N256 C257 1.346 . S
C257 N256 1.346 . S
C257 C258 1.396 . S
C257 C267 1.510 . S
C258 C254 1.401 . S
C258 C257 1.396 . S
C259 C254 1.499 1_554 S
C259 H260 0.959 . S
C259 H261 0.960 . S
C259 H262 0.961 . S
H260 C259 0.959 . S
H261 C259 0.960 . S
H262 C259 0.961 . S
O263 Co238 1.967 1_556 S
O263 C271 1.258 . S
O264 Co239 1.941 . S
O264 C271 1.266 . S
H265 C267 0.959 . S
H266 C267 0.961 . S
C267 C257 1.510 . S
C267 H265 0.959 . S
C267 H266 0.961 . S
C267 H268 0.960 . S
H268 C267 0.960 . S
H269 N249 0.862 . S
O270 Co238 1.920 . S
O270 C243 1.289 . S
C271 O263 1.258 . S
C271 O264 1.266 . S
Co272 O275 1.970 . S
Co272 N289 1.989 . S
Co272 O297 1.967 . S
Co272 O304 1.920 . S
Co273 O276 1.964 1_556 S
Co273 N282 2.026 . S
Co273 N290 1.992 1_556 S
Co273 O298 1.941 1_556 S
C274 O275 1.258 . S
C274 O276 1.263 . S
O275 Co272 1.970 . S
O275 C274 1.258 . S
O276 Co273 1.964 1_554 S
O276 C274 1.263 . S
C277 O278 1.235 . S
C277 O304 1.289 . S
O278 C277 1.235 . S
C279 C281 1.400 . S
C279 N282 1.351 . S
C279 C284 1.501 . S
C280 C281 1.387 . S
C280 N283 1.341 . S
C281 C279 1.400 . S
C281 C280 1.387 . S
N282 Co273 2.026 . S
N282 C279 1.351 . S
N282 N283 1.365 . S
N283 C280 1.341 . S
N283 N282 1.365 . S
N283 H303 0.862 . S
C284 C279 1.501 . S
C284 H285 0.961 . S
C284 H286 0.961 . S
C284 H287 0.960 . S
H285 C284 0.961 . S
H286 C284 0.961 . S
H287 C284 0.960 . S
C288 N289 1.342 . S
C288 C292 1.401 . S
C288 C293 1.499 . S
N289 Co272 1.989 . S
N289 C288 1.342 . S
N289 N290 1.388 . S
N290 Co273 1.992 1_554 S
N290 N289 1.388 . S
N290 C291 1.346 1_554 S
C291 N290 1.346 1_556 S
C291 C292 1.396 1_556 S
C291 C301 1.510 . S
C292 C288 1.401 . S
C292 C291 1.396 1_554 S
C293 C288 1.499 . S
C293 H294 0.959 . S
C293 H295 0.960 . S
C293 H296 0.961 . S
H294 C293 0.959 . S
H295 C293 0.960 . S
H296 C293 0.961 . S
O297 Co272 1.967 . S
O297 C305 1.258 . S
O298 Co273 1.941 1_554 S
O298 C305 1.266 . S
H299 C301 0.959 . S
H300 C301 0.961 . S
C301 C291 1.510 . S
C301 H299 0.959 . S
C301 H300 0.961 . S
C301 H302 0.960 . S
H302 C301 0.960 . S
H303 N283 0.862 . S
O304 Co272 1.920 . S
O304 C277 1.289 . S
C305 O297 1.258 . S
C305 O298 1.266 . S
Co306 O309 1.970 . S
Co306 N323 1.989 . S
Co306 O331 1.967 . S
Co306 O338 1.920 . S
Co307 O310 1.966 . S
Co307 N316 2.022 . S
Co307 N324 1.993 . S
Co307 O332 1.941 . S
C308 O309 1.258 . S
C308 O310 1.263 . S
O309 Co306 1.970 . S
O309 C308 1.258 . S
O310 Co307 1.966 . S
O310 C308 1.263 . S
C311 O312 1.235 . S
C311 O338 1.289 . S
O312 C311 1.235 . S
C313 C315 1.400 1_554 S
C313 N316 1.351 . S
C313 C318 1.501 . S
C314 C315 1.387 . S
C314 N317 1.341 . S
C315 C313 1.400 1_556 S
C315 C314 1.387 . S
N316 Co307 2.022 . S
N316 C313 1.351 . S
N316 N317 1.365 1_554 S
N317 C314 1.341 . S
N317 N316 1.365 1_556 S
N317 H337 0.862 . S
C318 C313 1.501 . S
C318 H319 0.961 . S
C318 H320 0.961 . S
C318 H321 0.960 . S
H319 C318 0.961 . S
H320 C318 0.961 . S
H321 C318 0.960 . S
C322 N323 1.342 . S
C322 C326 1.401 . S
C322 C327 1.499 . S
N323 Co306 1.989 . S
N323 C322 1.342 . S
N323 N324 1.388 . S
N324 Co307 1.993 . S
N324 N323 1.388 . S
N324 C325 1.346 . S
C325 N324 1.346 . S
C325 C326 1.396 . S
C325 C335 1.510 . S
C326 C322 1.401 . S
C326 C325 1.396 . S
C327 C322 1.499 . S
C327 H328 0.959 . S
C327 H329 0.960 . S
C327 H330 0.961 . S
H328 C327 0.959 . S
H329 C327 0.960 . S
H330 C327 0.961 . S
O331 Co306 1.967 . S
O331 C339 1.258 . S
O332 Co307 1.941 . S
O332 C339 1.266 . S
H333 C335 0.959 . S
H334 C335 0.961 . S
C335 C325 1.510 . S
C335 H333 0.959 . S
C335 H334 0.961 . S
C335 H336 0.960 . S
H336 C335 0.960 . S
H337 N317 0.862 . S
O338 Co306 1.920 . S
O338 C311 1.289 . S
C339 O331 1.258 . S
C339 O332 1.266 . S
Co340 O343 1.970 . S
Co340 N357 1.989 . S
Co340 O365 1.967 . S
Co340 O372 1.920 . S
Co341 O344 1.966 . S
Co341 N350 2.022 . S
Co341 N358 1.993 . S
Co341 O366 1.941 . S
C342 O343 1.258 . S
C342 O344 1.263 . S
O343 Co340 1.970 . S
O343 C342 1.258 . S
O344 Co341 1.966 . S
O344 C342 1.263 . S
C345 O346 1.235 . S
C345 O372 1.289 . S
O346 C345 1.235 . S
C347 C349 1.400 . S
C347 N350 1.351 . S
C347 C352 1.501 . S
C348 C349 1.387 . S
C348 N351 1.341 . S
C349 C347 1.400 . S
C349 C348 1.387 . S
N350 Co341 2.022 . S
N350 C347 1.351 . S
N350 N351 1.365 . S
N351 C348 1.341 . S
N351 N350 1.365 . S
N351 H371 0.862 . S
C352 C347 1.501 . S
C352 H353 0.961 . S
C352 H354 0.961 . S
C352 H355 0.960 . S
H353 C352 0.961 . S
H354 C352 0.961 . S
H355 C352 0.960 . S
C356 N357 1.342 . S
C356 C360 1.401 . S
C356 C361 1.499 . S
N357 Co340 1.989 . S
N357 C356 1.342 . S
N357 N358 1.388 . S
N358 Co341 1.993 . S
N358 N357 1.388 . S
N358 C359 1.346 . S
C359 N358 1.346 . S
C359 C360 1.396 . S
C359 C369 1.510 . S
C360 C356 1.401 . S
C360 C359 1.396 . S
C361 C356 1.499 . S
C361 H362 0.959 . S
C361 H363 0.960 . S
C361 H364 0.961 . S
H362 C361 0.959 . S
H363 C361 0.960 . S
H364 C361 0.961 . S
O365 Co340 1.967 . S
O365 C373 1.258 . S
O366 Co341 1.941 . S
O366 C373 1.266 . S
H367 C369 0.959 . S
H368 C369 0.961 . S
C369 C359 1.510 . S
C369 H367 0.959 . S
C369 H368 0.961 . S
C369 H370 0.960 . S
H370 C369 0.960 . S
H371 N351 0.862 . S
O372 Co340 1.920 . S
O372 C345 1.289 . S
C373 O365 1.258 . S
C373 O366 1.266 . S
Co374 O377 1.970 . S
Co374 N391 1.989 . S
Co374 O399 1.967 . S
Co374 O406 1.920 . S
Co375 O378 1.966 . S
Co375 N384 2.022 . S
Co375 N392 1.993 . S
Co375 O400 1.941 . S
C376 O377 1.258 . S
C376 O378 1.263 . S
O377 Co374 1.970 . S
O377 C376 1.258 . S
O378 Co375 1.966 . S
O378 C376 1.263 . S
C379 O380 1.235 . S
C379 O406 1.289 . S
O380 C379 1.235 . S
C381 C383 1.400 . S
C381 N384 1.351 . S
C381 C386 1.501 . S
C382 C383 1.387 . S
C382 N385 1.341 . S
C383 C381 1.400 . S
C383 C382 1.387 . S
N384 Co375 2.022 . S
N384 C381 1.351 . S
N384 N385 1.365 . S
N385 C382 1.341 . S
N385 N384 1.365 . S
N385 H405 0.862 . S
C386 C381 1.501 . S
C386 H387 0.961 . S
C386 H388 0.961 . S
C386 H389 0.960 . S
H387 C386 0.961 . S
H388 C386 0.961 . S
H389 C386 0.960 . S
C390 N391 1.342 . S
C390 C394 1.401 . S
C390 C395 1.499 . S
N391 Co374 1.989 . S
N391 C390 1.342 . S
N391 N392 1.388 . S
N392 Co375 1.993 . S
N392 N391 1.388 . S
N392 C393 1.346 . S
C393 N392 1.346 . S
C393 C394 1.396 . S
C393 C403 1.510 . S
C394 C390 1.401 . S
C394 C393 1.396 . S
C395 C390 1.499 . S
C395 H396 0.959 . S
C395 H397 0.960 . S
C395 H398 0.961 . S
H396 C395 0.959 . S
H397 C395 0.960 . S
H398 C395 0.961 . S
O399 Co374 1.967 . S
O399 C407 1.258 . S
O400 Co375 1.941 . S
O400 C407 1.266 . S
H401 C403 0.959 . S
H402 C403 0.961 . S
C403 C393 1.510 . S
C403 H401 0.959 . S
C403 H402 0.961 . S
C403 H404 0.960 . S
H404 C403 0.960 . S
H405 N385 0.862 . S
O406 Co374 1.920 . S
O406 C379 1.289 . S
C407 O399 1.258 . S
C407 O400 1.266 . S
H408 C414 0.930 . S
H409 C417 0.930 1_556 S
H410 C418 0.930 1_556 S
H411 C419 0.930 1_556 S
H412 C422 0.930 . S
H413 C423 0.930 . S
C414 H408 0.930 . S
C414 C415 1.355 . S
C414 C416 1.415 . S
C415 C414 1.355 . S
C415 C417 1.419 . S
C416 C414 1.415 . S
C416 C421 1.425 . S
C416 C423 1.409 . S
C417 H409 0.930 1_554 S
C417 C415 1.419 . S
C417 C418 1.362 . S
C418 H410 0.930 1_554 S
C418 C417 1.362 . S
C418 C421 1.409 . S
C419 H411 0.930 1_554 S
C419 C420 1.355 . S
C419 C421 1.415 . S
C420 C419 1.355 . S
C420 C422 1.419 . S
C421 C416 1.425 . S
C421 C418 1.409 . S
C421 C419 1.415 . S
C422 H412 0.930 . S
C422 C420 1.419 . S
C422 C423 1.362 . S
C423 H413 0.930 . S
C423 C416 1.409 . S
C423 C422 1.362 . S
H424 C430 0.930 . S
H425 C433 0.930 . S
H426 C434 0.930 . S
H427 C435 0.930 . S
H428 C438 0.930 . S
H429 C439 0.930 . S
C430 H424 0.930 . S
C430 C431 1.355 . S
C430 C432 1.415 . S
C431 C430 1.355 . S
C431 C433 1.419 . S
C432 C430 1.415 . S
C432 C437 1.425 . S
C432 C439 1.409 . S
C433 H425 0.930 . S
C433 C431 1.419 . S
C433 C434 1.362 . S
C434 H426 0.930 . S
C434 C433 1.362 . S
C434 C437 1.409 . S
C435 H427 0.930 . S
C435 C436 1.355 . S
C435 C437 1.415 . S
C436 C435 1.355 . S
C436 C438 1.419 . S
C437 C432 1.425 . S
C437 C434 1.409 . S
C437 C435 1.415 . S
C438 H428 0.930 . S
C438 C436 1.419 . S
C438 C439 1.362 . S
C439 H429 0.930 . S
C439 C432 1.409 . S
C439 C438 1.362 . S
H440 C446 0.930 . S
H441 C449 0.930 . S
H442 C450 0.930 . S
H443 C451 0.930 . S
H444 C454 0.930 . S
H445 C455 0.930 . S
C446 H440 0.930 . S
C446 C447 1.355 . S
C446 C448 1.415 . S
C447 C446 1.355 . S
C447 C449 1.419 . S
C448 C446 1.415 . S
C448 C453 1.425 . S
C448 C455 1.409 . S
C449 H441 0.930 . S
C449 C447 1.419 . S
C449 C450 1.362 . S
C450 H442 0.930 . S
C450 C449 1.362 . S
C450 C453 1.409 . S
C451 H443 0.930 . S
C451 C452 1.355 . S
C451 C453 1.415 . S
C452 C451 1.355 . S
C452 C454 1.419 . S
C453 C448 1.425 . S
C453 C450 1.409 . S
C453 C451 1.415 . S
C454 H444 0.930 . S
C454 C452 1.419 . S
C454 C455 1.362 . S
C455 H445 0.930 . S
C455 C448 1.409 . S
C455 C454 1.362 . S
H456 C462 0.930 . S
H457 C465 0.930 . S
H458 C466 0.930 . S
H459 C467 0.930 . S
H460 C470 0.930 . S
H461 C471 0.930 . S
C462 H456 0.930 . S
C462 C463 1.355 . S
C462 C464 1.415 . S
C463 C462 1.355 . S
C463 C465 1.419 . S
C464 C462 1.415 . S
C464 C469 1.425 . S
C464 C471 1.409 . S
C465 H457 0.930 . S
C465 C463 1.419 . S
C465 C466 1.362 . S
C466 H458 0.930 . S
C466 C465 1.362 . S
C466 C469 1.409 . S
C467 H459 0.930 . S
C467 C468 1.355 . S
C467 C469 1.415 . S
C468 C467 1.355 . S
C468 C470 1.419 . S
C469 C464 1.425 . S
C469 C466 1.409 . S
C469 C467 1.415 . S
C470 H460 0.930 . S
C470 C468 1.419 . S
C470 C471 1.362 . S
C471 H461 0.930 . S
C471 C464 1.409 . S
C471 C470 1.362 . S
H472 C478 0.930 . S
H473 C481 0.930 . S
H474 C482 0.930 . S
H475 C483 0.930 . S
H476 C486 0.930 . S
H477 C487 0.930 . S
C478 H472 0.930 . S
C478 C479 1.355 . S
C478 C480 1.415 . S
C479 C478 1.355 . S
C479 C481 1.419 . S
C480 C478 1.415 . S
C480 C485 1.425 . S
C480 C487 1.409 . S
C481 H473 0.930 . S
C481 C479 1.419 . S
C481 C482 1.362 . S
C482 H474 0.930 . S
C482 C481 1.362 . S
C482 C485 1.409 . S
C483 H475 0.930 . S
C483 C484 1.355 . S
C483 C485 1.415 . S
C484 C483 1.355 . S
C484 C486 1.419 . S
C485 C480 1.425 . S
C485 C482 1.409 . S
C485 C483 1.415 . S
C486 H476 0.930 . S
C486 C484 1.419 . S
C486 C487 1.362 . S
C487 H477 0.930 . S
C487 C480 1.409 . S
C487 C486 1.362 . S
H488 C494 0.930 . S
H489 C497 0.936 . S
H490 C498 0.930 . S
H491 C499 0.930 . S
H492 C502 0.930 . S
H493 C503 0.930 . S
C494 H488 0.930 . S
C494 C495 1.355 . S
C494 C496 1.415 . S
C495 C494 1.355 . S
C495 C497 1.419 . S
C496 C494 1.415 . S
C496 C501 1.425 . S
C496 C503 1.409 . S
C497 H489 0.936 . S
C497 C495 1.419 . S
C497 C498 1.362 . S
C498 H490 0.930 . S
C498 C497 1.362 . S
C498 C501 1.409 . S
C499 H491 0.930 . S
C499 C500 1.355 . S
C499 C501 1.415 . S
C500 C499 1.355 . S
C500 C502 1.419 . S
C501 C496 1.425 . S
C501 C498 1.409 . S
C501 C499 1.415 . S
C502 H492 0.930 . S
C502 C500 1.419 . S
C502 C503 1.362 . S
C503 H493 0.930 . S
C503 C496 1.409 . S
C503 C502 1.362 . S
H504 C510 0.930 1_655 S
H505 C513 0.930 . S
H506 C514 0.930 . S
H507 C515 0.930 1_455 S
H508 C518 0.930 . S
H509 C519 0.930 . S
C510 H504 0.930 1_455 S
C510 C511 1.355 . S
C510 C512 1.415 1_455 S
C511 C510 1.355 . S
C511 C513 1.419 . S
C512 C510 1.415 1_655 S
C512 C517 1.425 1_655 S
C512 C519 1.409 . S
C513 H505 0.930 . S
C513 C511 1.419 . S
C513 C514 1.362 . S
C514 H506 0.930 . S
C514 C513 1.362 . S
C514 C517 1.409 . S
C515 H507 0.930 1_655 S
C515 C516 1.355 . S
C515 C517 1.415 1_655 S
C516 C515 1.355 . S
C516 C518 1.419 . S
C517 C512 1.425 1_455 S
C517 C514 1.409 . S
C517 C515 1.415 1_455 S
C518 H508 0.930 . S
C518 C516 1.419 . S
C518 C519 1.362 . S
C519 H509 0.930 . S
C519 C512 1.409 . S
C519 C518 1.362 . S
H520 C526 0.930 . S
H521 C529 0.930 . S
H522 C530 0.930 . S
H523 C531 0.930 . S
H524 C534 0.930 . S
H525 C535 0.930 . S
C526 H520 0.930 . S
C526 C527 1.355 . S
C526 C528 1.415 1_556 S
C527 C526 1.355 . S
C527 C529 1.419 1_565 S
C528 C526 1.415 1_554 S
C528 C533 1.425 1_564 S
C528 C535 1.409 . S
C529 H521 0.930 . S
C529 C527 1.419 1_545 S
C529 C530 1.362 . S
C530 H522 0.930 . S
C530 C529 1.362 . S
C530 C533 1.409 . S
C531 H523 0.930 . S
C531 C532 1.355 . S
C531 C533 1.415 1_554 S
C532 C531 1.355 . S
C532 C534 1.419 1_545 S
C533 C528 1.425 1_546 S
C533 C530 1.409 . S
C533 C531 1.415 1_556 S
C534 H524 0.930 . S
C534 C532 1.419 1_565 S
C534 C535 1.362 . S
C535 H525 0.930 . S
C535 C528 1.409 . S
C535 C534 1.362 . S
H536 C542 0.930 . S
H537 C545 0.930 . S
H538 C546 0.930 . S
H539 C547 0.930 . S
H540 C550 0.930 . S
H541 C551 0.930 . S
C542 H536 0.930 . S
C542 C543 1.355 . S
C542 C544 1.415 . S
C543 C542 1.355 . S
C543 C545 1.419 . S
C544 C542 1.415 . S
C544 C549 1.425 . S
C544 C551 1.409 . S
C545 H537 0.930 . S
C545 C543 1.419 . S
C545 C546 1.362 . S
C546 H538 0.930 . S
C546 C545 1.362 . S
C546 C549 1.409 . S
C547 H539 0.930 . S
C547 C548 1.355 . S
C547 C549 1.415 . S
C548 C547 1.355 . S
C548 C550 1.419 . S
C549 C544 1.425 . S
C549 C546 1.409 . S
C549 C547 1.415 . S
C550 H540 0.930 . S
C550 C548 1.419 . S
C550 C551 1.362 . S
C551 H541 0.930 . S
C551 C544 1.409 . S
C551 C550 1.362 . S
H552 C558 0.897 1_455 S
H553 C561 0.930 . S
H554 C562 0.930 . S
H555 C563 0.896 1_655 S
H556 C566 0.930 . S
H557 C567 0.930 . S
C558 H552 0.897 1_655 S
C558 C559 1.355 . S
C558 C560 1.415 1_655 S
C559 C558 1.355 . S
C559 C561 1.419 . S
C560 C558 1.415 1_455 S
C560 C565 1.425 1_455 S
C560 C567 1.409 . S
C561 H553 0.930 . S
C561 C559 1.419 . S
C561 C562 1.362 . S
C562 H554 0.930 . S
C562 C561 1.362 . S
C562 C565 1.409 . S
C563 H555 0.896 1_455 S
C563 C564 1.355 . S
C563 C565 1.415 1_455 S
C564 C563 1.355 . S
C564 C566 1.419 . S
C565 C560 1.425 1_655 S
C565 C562 1.409 . S
C565 C563 1.415 1_655 S
C566 H556 0.930 . S
C566 C564 1.419 . S
C566 C567 1.362 . S
C567 H557 0.930 . S
C567 C560 1.409 . S
C567 C566 1.362 . S
H568 C574 0.930 1_565 S
H569 C577 0.930 . S
H570 C578 0.930 . S
H571 C579 0.930 1_545 S
H572 C582 0.930 . S
H573 C583 0.930 . S
C574 H568 0.930 1_545 S
C574 C575 1.355 . S
C574 C576 1.415 1_545 S
C575 C574 1.355 . S
C575 C577 1.419 . S
C576 C574 1.415 1_565 S
C576 C581 1.425 1_565 S
C576 C583 1.409 . S
C577 H569 0.930 . S
C577 C575 1.419 . S
C577 C578 1.362 . S
C578 H570 0.930 . S
C578 C577 1.362 . S
C578 C581 1.409 . S
C579 H571 0.930 1_565 S
C579 C580 1.355 . S
C579 C581 1.415 1_565 S
C580 C579 1.355 . S
C580 C582 1.419 . S
C581 C576 1.425 1_545 S
C581 C578 1.409 . S
C581 C579 1.415 1_545 S
C582 H572 0.930 . S
C582 C580 1.419 . S
C582 C583 1.362 . S
C583 H573 0.930 . S
C583 C576 1.409 . S
C583 C582 1.362 . S
H584 C590 0.930 . S
H585 C593 0.930 . S
H586 C594 0.930 . S
H587 C595 0.930 . S
H588 C598 0.930 . S
H589 C599 0.930 . S
C590 H584 0.930 . S
C590 C591 1.355 . S
C590 C592 1.415 . S
C591 C590 1.355 . S
C591 C593 1.419 . S
C592 C590 1.415 . S
C592 C597 1.425 . S
C592 C599 1.409 . S
C593 H585 0.930 . S
C593 C591 1.419 . S
C593 C594 1.362 . S
C594 H586 0.930 . S
C594 C593 1.362 . S
C594 C597 1.409 . S
C595 H587 0.930 . S
C595 C596 1.355 . S
C595 C597 1.415 . S
C596 C595 1.355 . S
C596 C598 1.419 . S
C597 C592 1.425 . S
C597 C594 1.409 . S
C597 C595 1.415 . S
C598 H588 0.930 . S
C598 C596 1.419 . S
C598 C599 1.362 . S
C599 H589 0.930 . S
C599 C592 1.409 . S
C599 C598 1.362 . S
H600 C606 0.930 . S
H601 C609 0.930 . S
H602 C610 0.930 . S
H603 C611 0.930 . S
H604 C614 0.930 . S
H605 C615 0.930 . S
C606 H600 0.930 . S
C606 C607 1.355 . S
C606 C608 1.415 . S
C607 C606 1.355 . S
C607 C609 1.419 . S
C608 C606 1.415 . S
C608 C613 1.425 . S
C608 C615 1.409 . S
C609 H601 0.930 . S
C609 C607 1.419 . S
C609 C610 1.362 . S
C610 H602 0.930 . S
C610 C609 1.362 . S
C610 C613 1.409 . S
C611 H603 0.930 . S
C611 C612 1.355 . S
C611 C613 1.415 . S
C612 C611 1.355 . S
C612 C614 1.419 . S
C613 C608 1.425 . S
C613 C610 1.409 . S
C613 C611 1.415 . S
C614 H604 0.930 . S
C614 C612 1.419 . S
C614 C615 1.362 . S
C615 H605 0.930 . S
C615 C608 1.409 . S
C615 C614 1.362 . S
H616 C622 0.930 . S
H617 C625 0.930 . S
H618 C626 0.930 . S
H619 C627 0.930 . S
H620 C630 0.930 . S
H621 C631 0.930 . S
C622 H616 0.930 . S
C622 C623 1.355 . S
C622 C624 1.415 . S
C623 C622 1.355 . S
C623 C625 1.419 . S
C624 C622 1.415 . S
C624 C629 1.425 . S
C624 C631 1.409 . S
C625 H617 0.930 . S
C625 C623 1.419 . S
C625 C626 1.362 . S
C626 H618 0.930 . S
C626 C625 1.362 . S
C626 C629 1.409 . S
C627 H619 0.930 . S
C627 C628 1.355 . S
C627 C629 1.415 . S
C628 C627 1.355 . S
C628 C630 1.419 . S
C629 C624 1.425 . S
C629 C626 1.409 . S
C629 C627 1.415 . S
C630 H620 0.930 . S
C630 C628 1.419 . S
C630 C631 1.362 . S
C631 H621 0.930 . S
C631 C624 1.409 . S
C631 C630 1.362 . S
H632 C638 0.930 . S
H633 C641 0.930 . S
H634 C642 0.930 . S
H635 C643 0.930 . S
H636 C646 0.930 . S
H637 C647 0.930 . S
C638 H632 0.930 . S
C638 C639 1.355 . S
C638 C640 1.415 . S
C639 C638 1.355 . S
C639 C641 1.419 . S
C640 C638 1.415 . S
C640 C645 1.425 . S
C640 C647 1.409 . S
C641 H633 0.930 . S
C641 C639 1.419 . S
C641 C642 1.362 . S
C642 H634 0.930 . S
C642 C641 1.362 . S
C642 C645 1.409 . S
C643 H635 0.930 . S
C643 C644 1.355 . S
C643 C645 1.415 . S
C644 C643 1.355 . S
C644 C646 1.419 . S
C645 C640 1.425 . S
C645 C642 1.409 . S
C645 C643 1.415 . S
C646 H636 0.930 . S
C646 C644 1.419 . S
C646 C647 1.362 . S
C647 H637 0.930 . S
C647 C640 1.409 . S
C647 C646 1.362 . S
H648 C654 0.930 . S
H649 C657 0.930 . S
H650 C658 0.930 . S
H651 C659 0.930 . S
H652 C662 0.930 . S
H653 C663 0.930 . S
C654 H648 0.930 . S
C654 C655 1.355 . S
C654 C656 1.415 . S
C655 C654 1.355 . S
C655 C657 1.419 . S
C656 C654 1.415 . S
C656 C661 1.425 . S
C656 C663 1.409 . S
C657 H649 0.930 . S
C657 C655 1.419 . S
C657 C658 1.362 . S
C658 H650 0.930 . S
C658 C657 1.362 . S
C658 C661 1.409 . S
C659 H651 0.930 . S
C659 C660 1.355 . S
C659 C661 1.415 . S
C660 C659 1.355 . S
C660 C662 1.419 . S
C661 C656 1.425 . S
C661 C658 1.409 . S
C661 C659 1.415 . S
C662 H652 0.930 . S
C662 C660 1.419 . S
C662 C663 1.362 . S
C663 H653 0.930 . S
C663 C656 1.409 . S
C663 C662 1.362 . S
H664 C670 0.930 . S
H665 C673 0.930 . S
H666 C674 0.930 . S
H667 C675 0.930 . S
H668 C678 0.930 . S
H669 C679 0.930 . S
C670 H664 0.930 . S
C670 C671 1.355 . S
C670 C672 1.415 . S
C671 C670 1.355 . S
C671 C673 1.419 . S
C672 C670 1.415 . S
C672 C677 1.425 . S
C672 C679 1.409 1_556 S
C673 H665 0.930 . S
C673 C671 1.419 . S
C673 C674 1.362 . S
C674 H666 0.930 . S
C674 C673 1.362 . S
C674 C677 1.409 . S
C675 H667 0.930 . S
C675 C676 1.355 1_556 S
C675 C677 1.415 . S
C676 C675 1.355 1_554 S
C676 C678 1.419 . S
C677 C672 1.425 . S
C677 C674 1.409 . S
C677 C675 1.415 . S
C678 H668 0.930 . S
C678 C676 1.419 . S
C678 C679 1.362 . S
C679 H669 0.930 . S
C679 C672 1.409 1_554 S
C679 C678 1.362 . S
H680 C686 0.930 . S
H681 C689 0.930 . S
H682 C690 0.930 . S
H683 C691 0.930 . S
H684 C694 0.930 1_556 S
H685 C695 0.930 . S
C686 H680 0.930 . S
C686 C687 1.355 . S
C686 C688 1.415 . S
C687 C686 1.355 . S
C687 C689 1.419 . S
C688 C686 1.415 . S
C688 C693 1.425 . S
C688 C695 1.409 . S
C689 H681 0.930 . S
C689 C687 1.419 . S
C689 C690 1.362 . S
C690 H682 0.930 . S
C690 C689 1.362 . S
C690 C693 1.409 . S
C691 H683 0.930 . S
C691 C692 1.355 . S
C691 C693 1.415 . S
C692 C691 1.355 . S
C692 C694 1.419 . S
C693 C688 1.425 . S
C693 C690 1.409 . S
C693 C691 1.415 . S
C694 H684 0.930 1_554 S
C694 C692 1.419 . S
C694 C695 1.362 . S
C695 H685 0.930 . S
C695 C688 1.409 . S
C695 C694 1.362 . S
H696 C702 0.930 . S
H697 C705 0.930 . S
H698 C706 0.930 . S
H699 C707 0.930 . S
H700 C710 0.930 . S
H701 C711 0.930 . S
C702 H696 0.930 . S
C702 C703 1.355 . S
C702 C704 1.415 . S
C703 C702 1.355 . S
C703 C705 1.419 . S
C704 C702 1.415 . S
C704 C709 1.425 . S
C704 C711 1.409 . S
C705 H697 0.930 . S
C705 C703 1.419 . S
C705 C706 1.362 . S
C706 H698 0.930 . S
C706 C705 1.362 . S
C706 C709 1.409 . S
C707 H699 0.930 . S
C707 C708 1.355 . S
C707 C709 1.415 . S
C708 C707 1.355 . S
C708 C710 1.419 . S
C709 C704 1.425 . S
C709 C706 1.409 . S
C709 C707 1.415 . S
C710 H700 0.930 . S
C710 C708 1.419 . S
C710 C711 1.362 . S
C711 H701 0.930 . S
C711 C704 1.409 . S
C711 C710 1.362 . S
H712 C718 0.930 . S
H713 C721 0.930 . S
H714 C722 0.930 . S
H715 C723 0.930 . S
H716 C726 0.930 . S
H717 C727 0.930 . S
C718 H712 0.930 . S
C718 C719 1.355 . S
C718 C720 1.415 . S
C719 C718 1.355 . S
C719 C721 1.419 . S
C720 C718 1.415 . S
C720 C725 1.425 . S
C720 C727 1.409 . S
C721 H713 0.930 . S
C721 C719 1.419 . S
C721 C722 1.362 . S
C722 H714 0.930 . S
C722 C721 1.362 . S
C722 C725 1.409 . S
C723 H715 0.930 . S
C723 C724 1.355 . S
C723 C725 1.415 . S
C724 C723 1.355 . S
C724 C726 1.419 . S
C725 C720 1.425 . S
C725 C722 1.409 . S
C725 C723 1.415 . S
C726 H716 0.930 . S
C726 C724 1.419 . S
C726 C727 1.362 . S
C727 H717 0.930 . S
C727 C720 1.409 . S
C727 C726 1.362 . S
H728 C734 0.930 . S
H729 C737 0.930 . S
H730 C738 0.930 . S
H731 C739 0.930 . S
H732 C742 0.930 . S
H733 C743 0.930 . S
C734 H728 0.930 . S
C734 C735 1.355 . S
C734 C736 1.415 . S
C735 C734 1.355 . S
C735 C737 1.419 . S
C736 C734 1.415 . S
C736 C741 1.425 . S
C736 C743 1.409 . S
C737 H729 0.930 . S
C737 C735 1.419 . S
C737 C738 1.362 . S
C738 H730 0.930 . S
C738 C737 1.362 . S
C738 C741 1.409 . S
C739 H731 0.930 . S
C739 C740 1.355 . S
C739 C741 1.415 1_554 S
C740 C739 1.355 . S
C740 C742 1.419 . S
C741 C736 1.425 . S
C741 C738 1.409 . S
C741 C739 1.415 1_556 S
C742 H732 0.930 . S
C742 C740 1.419 . S
C742 C743 1.362 1_554 S
C743 H733 0.930 . S
C743 C736 1.409 . S
C743 C742 1.362 1_556 S
H744 C750 0.930 . S
H745 C753 0.930 . S
H746 C754 0.930 . S
H747 C755 0.930 . S
H748 C758 0.930 . S
H749 C759 0.930 . S
C750 H744 0.930 . S
C750 C751 1.355 1_554 S
C750 C752 1.415 . S
C751 C750 1.355 1_556 S
C751 C753 1.419 . S
C752 C750 1.415 . S
C752 C757 1.425 . S
C752 C759 1.409 . S
C753 H745 0.930 . S
C753 C751 1.419 . S
C753 C754 1.362 1_556 S
C754 H746 0.930 . S
C754 C753 1.362 1_554 S
C754 C757 1.409 . S
C755 H747 0.930 . S
C755 C756 1.355 . S
C755 C757 1.415 . S
C756 C755 1.355 . S
C756 C758 1.419 . S
C757 C752 1.425 . S
C757 C754 1.409 . S
C757 C755 1.415 . S
C758 H748 0.930 . S
C758 C756 1.419 . S
C758 C759 1.362 . S
C759 H749 0.930 . S
C759 C752 1.409 . S
C759 C758 1.362 . S
H760 C766 0.930 . S
H761 C769 0.930 . S
H762 C770 0.930 . S
H763 C771 0.930 . S
H764 C774 0.930 . S
H765 C775 0.930 . S
C766 H760 0.930 . S
C766 C767 1.355 . S
C766 C768 1.415 . S
C767 C766 1.355 . S
C767 C769 1.419 . S
C768 C766 1.415 . S
C768 C773 1.425 . S
C768 C775 1.409 . S
C769 H761 0.930 . S
C769 C767 1.419 . S
C769 C770 1.362 . S
C770 H762 0.930 . S
C770 C769 1.362 . S
C770 C773 1.409 . S
C771 H763 0.930 . S
C771 C772 1.355 . S
C771 C773 1.415 . S
C772 C771 1.355 . S
C772 C774 1.419 . S
C773 C768 1.425 . S
C773 C770 1.409 . S
C773 C771 1.415 . S
C774 H764 0.930 . S
C774 C772 1.419 . S
C774 C775 1.362 . S
C775 H765 0.930 . S
C775 C768 1.409 . S
C775 C774 1.362 . S
H776 C782 0.930 . S
H777 C785 0.930 . S
H778 C786 0.930 . S
H779 C787 0.930 . S
H780 C790 0.930 . S
H781 C791 0.930 . S
C782 H776 0.930 . S
C782 C783 1.355 . S
C782 C784 1.415 . S
C783 C782 1.355 . S
C783 C785 1.419 . S
C784 C782 1.415 . S
C784 C789 1.425 . S
C784 C791 1.409 . S
C785 H777 0.930 . S
C785 C783 1.419 . S
C785 C786 1.362 . S
C786 H778 0.930 . S
C786 C785 1.362 . S
C786 C789 1.409 . S
C787 H779 0.930 . S
C787 C788 1.355 . S
C787 C789 1.415 . S
C788 C787 1.355 . S
C788 C790 1.419 . S
C789 C784 1.425 . S
C789 C786 1.409 . S
C789 C787 1.415 . S
C790 H780 0.930 . S
C790 C788 1.419 . S
C790 C791 1.362 . S
C791 H781 0.930 . S
C791 C784 1.409 . S
C791 C790 1.362 . S
H792 C798 0.930 . S
H793 C801 0.930 . S
H794 C802 0.930 . S
H795 C803 0.930 . S
H796 C806 0.930 . S
H797 C807 0.930 . S
C798 H792 0.930 . S
C798 C799 1.355 . S
C798 C800 1.415 . S
C799 C798 1.355 . S
C799 C801 1.419 . S
C800 C798 1.415 . S
C800 C805 1.425 . S
C800 C807 1.409 . S
C801 H793 0.930 . S
C801 C799 1.419 . S
C801 C802 1.362 . S
C802 H794 0.930 . S
C802 C801 1.362 . S
C802 C805 1.409 . S
C803 H795 0.930 . S
C803 C804 1.355 . S
C803 C805 1.415 . S
C804 C803 1.355 . S
C804 C806 1.419 . S
C805 C800 1.425 . S
C805 C802 1.409 . S
C805 C803 1.415 . S
C806 H796 0.930 . S
C806 C804 1.419 . S
C806 C807 1.362 . S
C807 H797 0.930 . S
C807 C800 1.409 . S
C807 C806 1.362 . S
H808 C814 0.930 . S
H809 C817 0.930 . S
H810 C818 0.930 . S
H811 C819 0.930 . S
H812 C822 0.930 . S
H813 C823 0.930 . S
C814 H808 0.930 . S
C814 C815 1.355 . S
C814 C816 1.415 . S
C815 C814 1.355 . S
C815 C817 1.419 . S
C816 C814 1.415 . S
C816 C821 1.425 . S
C816 C823 1.409 . S
C817 H809 0.930 . S
C817 C815 1.419 . S
C817 C818 1.362 . S
C818 H810 0.930 . S
C818 C817 1.362 . S
C818 C821 1.409 . S
C819 H811 0.930 . S
C819 C820 1.355 . S
C819 C821 1.415 . S
C820 C819 1.355 . S
C820 C822 1.419 . S
C821 C816 1.425 . S
C821 C818 1.409 . S
C821 C819 1.415 . S
C822 H812 0.930 . S
C822 C820 1.419 . S
C822 C823 1.362 . S
C823 H813 0.930 . S
C823 C816 1.409 . S
C823 C822 1.362 . S
H824 C830 0.930 . S
H825 C833 0.930 . S
H826 C834 0.930 . S
H827 C835 0.930 . S
H828 C838 0.930 . S
H829 C839 0.930 . S
C830 H824 0.930 . S
C830 C831 1.355 . S
C830 C832 1.415 . S
C831 C830 1.355 . S
C831 C833 1.419 . S
C832 C830 1.415 . S
C832 C837 1.425 . S
C832 C839 1.409 . S
C833 H825 0.930 . S
C833 C831 1.419 . S
C833 C834 1.362 . S
C834 H826 0.930 . S
C834 C833 1.362 . S
C834 C837 1.409 . S
C835 H827 0.930 . S
C835 C836 1.355 . S
C835 C837 1.415 . S
C836 C835 1.355 . S
C836 C838 1.419 . S
C837 C832 1.425 . S
C837 C834 1.409 . S
C837 C835 1.415 . S
C838 H828 0.930 . S
C838 C836 1.419 . S
C838 C839 1.362 . S
C839 H829 0.930 . S
C839 C832 1.409 . S
C839 C838 1.362 . S
H840 C846 0.930 . S
H841 C849 0.930 . S
H842 C850 0.930 . S
H843 C851 0.930 . S
H844 C854 0.930 . S
H845 C855 0.930 . S
C846 H840 0.930 . S
C846 C847 1.355 . S
C846 C848 1.415 . S
C847 C846 1.355 . S
C847 C849 1.419 . S
C848 C846 1.415 . S
C848 C853 1.425 . S
C848 C855 1.409 . S
C849 H841 0.930 . S
C849 C847 1.419 . S
C849 C850 1.362 . S
C850 H842 0.930 . S
C850 C849 1.362 . S
C850 C853 1.409 . S
C851 H843 0.930 . S
C851 C852 1.355 . S
C851 C853 1.415 . S
C852 C851 1.355 . S
C852 C854 1.419 . S
C853 C848 1.425 . S
C853 C850 1.409 . S
C853 C851 1.415 . S
C854 H844 0.930 . S
C854 C852 1.419 . S
C854 C855 1.362 . S
C855 H845 0.930 . S
C855 C848 1.409 . S
C855 C854 1.362 . S
H856 C862 0.930 . S
H857 C865 0.930 . S
H858 C866 0.930 . S
H859 C867 0.930 . S
H860 C870 0.930 . S
H861 C871 0.930 . S
C862 H856 0.930 . S
C862 C863 1.355 . S
C862 C864 1.415 . S
C863 C862 1.355 . S
C863 C865 1.419 . S
C864 C862 1.415 . S
C864 C869 1.425 . S
C864 C871 1.409 . S
C865 H857 0.930 . S
C865 C863 1.419 . S
C865 C866 1.362 . S
C866 H858 0.930 . S
C866 C865 1.362 . S
C866 C869 1.409 . S
C867 H859 0.930 . S
C867 C868 1.355 . S
C867 C869 1.415 1_554 S
C868 C867 1.355 . S
C868 C870 1.419 1_554 S
C869 C864 1.425 . S
C869 C866 1.409 . S
C869 C867 1.415 1_556 S
C870 H860 0.930 . S
C870 C868 1.419 1_556 S
C870 C871 1.362 . S
C871 H861 0.930 . S
C871 C864 1.409 . S
C871 C870 1.362 . S
H872 C878 0.930 . S
H873 C881 0.930 . S
H874 C882 0.930 . S
H875 C883 0.930 . S
H876 C886 0.930 . S
H877 C887 0.930 1_554 S
C878 H872 0.930 . S
C878 C879 1.355 . S
C878 C880 1.415 . S
C879 C878 1.355 . S
C879 C881 1.419 . S
C880 C878 1.415 . S
C880 C885 1.425 . S
C880 C887 1.409 1_554 S
C881 H873 0.930 . S
C881 C879 1.419 . S
C881 C882 1.362 . S
C882 H874 0.930 . S
C882 C881 1.362 . S
C882 C885 1.409 . S
C883 H875 0.930 . S
C883 C884 1.355 . S
C883 C885 1.415 1_556 S
C884 C883 1.355 . S
C884 C886 1.419 . S
C885 C880 1.425 . S
C885 C882 1.409 . S
C885 C883 1.415 1_554 S
C886 H876 0.930 . S
C886 C884 1.419 . S
C886 C887 1.362 . S
C887 H877 0.930 1_556 S
C887 C880 1.409 1_556 S
C887 C886 1.362 . S
C415 C305 1.528 . S
C420 C33 1.518 . S
C431 C339 1.548 . S
C436 C67 1.544 . S
C447 C373 1.518 . S
C452 C101 1.517 . S
C463 C407 1.546 . S
C468 C135 1.547 . S
C479 C169 1.538 . S
C484 C237 1.527 . S
C495 C271 1.529 . S
C500 C203 1.541 . S
C511 C2 1.709 1_556 S
C516 C376 1.712 . S
C527 C206 1.790 . S
C532 C36 1.793 . S
C543 C70 1.728 . S
C548 C240 1.718 1_554 S
C559 C104 1.739 . S
C564 C274 1.727 . S
C575 C308 1.709 . S
C580 C138 1.710 . S
C591 C172 1.789 . S
C596 C342 1.781 . S
C607 C20 1.599 . S
C612 C360 1.594 . S
C623 C54 1.612 . S
C628 C394 1.605 . S
C639 C224 1.604 . S
C644 C88 1.611 . S
C655 C258 1.626 . S
C660 C122 1.624 . S
C671 C156 1.625 . S
C676 C292 1.621 . S
C687 C326 1.606 . S
C692 C190 1.600 1_554 S
C703 C9 1.045 . S
C708 C5 1.131 . S
C719 C39 1.035 . S
C724 C43 0.891 . S
C735 C77 0.955 . S
C740 C73 1.026 . S
C751 C111 0.909 . S
C756 C107 1.000 . S
C767 C141 1.031 . S
C772 C145 0.963 . S
C783 C175 0.990 . S
C788 C179 0.880 . S
C799 C209 1.077 . S
C804 C213 1.023 . S
C815 C243 0.999 . S
C820 C247 0.905 . S
C831 C277 1.005 . S
C836 C281 0.865 . S
C847 C311 1.097 . S
C852 C315 0.974 . S
C863 C345 1.132 . S
C868 C349 1.052 . S
C879 C383 0.901 . S
C884 C379 1.044 . S
