# Generated by pormake.
# Topology dia-a, (4)-cn, num edge types: 1
# Building blocks:
#     Node 0, Type 0, BuildingBlock: NAHDIM_clean_sbu_0, # of connection points: 4
#     Node 1, Type 0, BuildingBlock: NAHDIM_clean_sbu_0, # of connection points: 4
#     Node 2, Type 0, BuildingBlock: NAHDIM_clean_sbu_0, # of connection points: 4
#     Node 3, Type 0, BuildingBlock: NAHDIM_clean_sbu_0, # of connection points: 4
#     Node 4, Type 0, BuildingBlock: NAHDIM_clean_sbu_0, # of connection points: 4
#     Node 5, Type 0, BuildingBlock: NAHDIM_clean_sbu_0, # of connection points: 4
#     Node 6, Type 0, BuildingBlock: NAHDIM_clean_sbu_0, # of connection points: 4
#     Node 7, Type 0, BuildingBlock: NAHDIM_clean_sbu_0, # of connection points: 4
#     Node 8, Type 0, BuildingBlock: NAHDIM_clean_sbu_0, # of connection points: 4
#     Node 9, Type 0, BuildingBlock: NAHDIM_clean_sbu_0, # of connection points: 4
#     Node 10, Type 0, BuildingBlock: NAHDIM_clean_sbu_0, # of connection points: 4
#     Node 11, Type 0, BuildingBlock: NAHDIM_clean_sbu_0, # of connection points: 4
#     Node 12, Type 0, BuildingBlock: NAHDIM_clean_sbu_0, # of connection points: 4
#     Node 13, Type 0, BuildingBlock: NAHDIM_clean_sbu_0, # of connection points: 4
#     Node 14, Type 0, BuildingBlock: NAHDIM_clean_sbu_0, # of connection points: 4
#     Node 15, Type 0, BuildingBlock: NAHDIM_clean_sbu_0, # of connection points: 4
#     Node 16, Type 0, BuildingBlock: NAHDIM_clean_sbu_0, # of connection points: 4
#     Node 17, Type 0, BuildingBlock: NAHDIM_clean_sbu_0, # of connection points: 4
#     Node 18, Type 0, BuildingBlock: NAHDIM_clean_sbu_0, # of connection points: 4
#     Node 19, Type 0, BuildingBlock: NAHDIM_clean_sbu_0, # of connection points: 4
#     Node 20, Type 0, BuildingBlock: NAHDIM_clean_sbu_0, # of connection points: 4
#     Node 21, Type 0, BuildingBlock: NAHDIM_clean_sbu_0, # of connection points: 4
#     Node 22, Type 0, BuildingBlock: NAHDIM_clean_sbu_0, # of connection points: 4
#     Node 23, Type 0, BuildingBlock: NAHDIM_clean_sbu_0, # of connection points: 4
#     Node 24, Type 0, BuildingBlock: NAHDIM_clean_sbu_0, # of connection points: 4
#     Node 25, Type 0, BuildingBlock: NAHDIM_clean_sbu_0, # of connection points: 4
#     Node 26, Type 0, BuildingBlock: NAHDIM_clean_sbu_0, # of connection points: 4
#     Node 27, Type 0, BuildingBlock: NAHDIM_clean_sbu_0, # of connection points: 4
#     Node 28, Type 0, BuildingBlock: NAHDIM_clean_sbu_0, # of connection points: 4
#     Node 29, Type 0, BuildingBlock: NAHDIM_clean_sbu_0, # of connection points: 4
#     Node 30, Type 0, BuildingBlock: NAHDIM_clean_sbu_0, # of connection points: 4
#     Node 31, Type 0, BuildingBlock: NAHDIM_clean_sbu_0, # of connection points: 4
#     Edge 32, Type (0, 0), BuildingBlock: TEMPAE_clean_linker_10, # of connection points: 2
#     Edge 33, Type (0, 0), BuildingBlock: TEMPAE_clean_linker_10, # of connection points: 2
#     Edge 34, Type (0, 0), BuildingBlock: TEMPAE_clean_linker_10, # of connection points: 2
#     Edge 35, Type (0, 0), BuildingBlock: TEMPAE_clean_linker_10, # of connection points: 2
#     Edge 36, Type (0, 0), BuildingBlock: TEMPAE_clean_linker_10, # of connection points: 2
#     Edge 37, Type (0, 0), BuildingBlock: TEMPAE_clean_linker_10, # of connection points: 2
#     Edge 38, Type (0, 0), BuildingBlock: TEMPAE_clean_linker_10, # of connection points: 2
#     Edge 39, Type (0, 0), BuildingBlock: TEMPAE_clean_linker_10, # of connection points: 2
#     Edge 40, Type (0, 0), BuildingBlock: TEMPAE_clean_linker_10, # of connection points: 2
#     Edge 41, Type (0, 0), BuildingBlock: TEMPAE_clean_linker_10, # of connection points: 2
#     Edge 42, Type (0, 0), BuildingBlock: TEMPAE_clean_linker_10, # of connection points: 2
#     Edge 43, Type (0, 0), BuildingBlock: TEMPAE_clean_linker_10, # of connection points: 2
#     Edge 44, Type (0, 0), BuildingBlock: TEMPAE_clean_linker_10, # of connection points: 2
#     Edge 45, Type (0, 0), BuildingBlock: TEMPAE_clean_linker_10, # of connection points: 2
#     Edge 46, Type (0, 0), BuildingBlock: TEMPAE_clean_linker_10, # of connection points: 2
#     Edge 47, Type (0, 0), BuildingBlock: TEMPAE_clean_linker_10, # of connection points: 2
#     Edge 48, Type (0, 0), BuildingBlock: TEMPAE_clean_linker_10, # of connection points: 2
#     Edge 49, Type (0, 0), BuildingBlock: TEMPAE_clean_linker_10, # of connection points: 2
#     Edge 50, Type (0, 0), BuildingBlock: TEMPAE_clean_linker_10, # of connection points: 2
#     Edge 51, Type (0, 0), BuildingBlock: TEMPAE_clean_linker_10, # of connection points: 2
#     Edge 52, Type (0, 0), BuildingBlock: TEMPAE_clean_linker_10, # of connection points: 2
#     Edge 53, Type (0, 0), BuildingBlock: TEMPAE_clean_linker_10, # of connection points: 2
#     Edge 54, Type (0, 0), BuildingBlock: TEMPAE_clean_linker_10, # of connection points: 2
#     Edge 55, Type (0, 0), BuildingBlock: TEMPAE_clean_linker_10, # of connection points: 2
#     Edge 56, Type (0, 0), BuildingBlock: TEMPAE_clean_linker_10, # of connection points: 2
#     Edge 57, Type (0, 0), BuildingBlock: TEMPAE_clean_linker_10, # of connection points: 2
#     Edge 58, Type (0, 0), BuildingBlock: TEMPAE_clean_linker_10, # of connection points: 2
#     Edge 59, Type (0, 0), BuildingBlock: TEMPAE_clean_linker_10, # of connection points: 2
#     Edge 60, Type (0, 0), BuildingBlock: TEMPAE_clean_linker_10, # of connection points: 2
#     Edge 61, Type (0, 0), BuildingBlock: TEMPAE_clean_linker_10, # of connection points: 2
#     Edge 62, Type (0, 0), BuildingBlock: TEMPAE_clean_linker_10, # of connection points: 2
#     Edge 63, Type (0, 0), BuildingBlock: TEMPAE_clean_linker_10, # of connection points: 2
#     Edge 64, Type (0, 0), BuildingBlock: TEMPAE_clean_linker_10, # of connection points: 2
#     Edge 65, Type (0, 0), BuildingBlock: TEMPAE_clean_linker_10, # of connection points: 2
#     Edge 66, Type (0, 0), BuildingBlock: TEMPAE_clean_linker_10, # of connection points: 2
#     Edge 67, Type (0, 0), BuildingBlock: TEMPAE_clean_linker_10, # of connection points: 2
#     Edge 68, Type (0, 0), BuildingBlock: TEMPAE_clean_linker_10, # of connection points: 2
#     Edge 69, Type (0, 0), BuildingBlock: TEMPAE_clean_linker_10, # of connection points: 2
#     Edge 70, Type (0, 0), BuildingBlock: TEMPAE_clean_linker_10, # of connection points: 2
#     Edge 71, Type (0, 0), BuildingBlock: TEMPAE_clean_linker_10, # of connection points: 2
#     Edge 72, Type (0, 0), BuildingBlock: TEMPAE_clean_linker_10, # of connection points: 2
#     Edge 73, Type (0, 0), BuildingBlock: TEMPAE_clean_linker_10, # of connection points: 2
#     Edge 74, Type (0, 0), BuildingBlock: TEMPAE_clean_linker_10, # of connection points: 2
#     Edge 75, Type (0, 0), BuildingBlock: TEMPAE_clean_linker_10, # of connection points: 2
#     Edge 76, Type (0, 0), BuildingBlock: TEMPAE_clean_linker_10, # of connection points: 2
#     Edge 77, Type (0, 0), BuildingBlock: TEMPAE_clean_linker_10, # of connection points: 2
#     Edge 78, Type (0, 0), BuildingBlock: TEMPAE_clean_linker_10, # of connection points: 2
#     Edge 79, Type (0, 0), BuildingBlock: TEMPAE_clean_linker_10, # of connection points: 2
#     Edge 80, Type (0, 0), BuildingBlock: TEMPAE_clean_linker_10, # of connection points: 2
#     Edge 81, Type (0, 0), BuildingBlock: TEMPAE_clean_linker_10, # of connection points: 2
#     Edge 82, Type (0, 0), BuildingBlock: TEMPAE_clean_linker_10, # of connection points: 2
#     Edge 83, Type (0, 0), BuildingBlock: TEMPAE_clean_linker_10, # of connection points: 2
#     Edge 84, Type (0, 0), BuildingBlock: TEMPAE_clean_linker_10, # of connection points: 2
#     Edge 85, Type (0, 0), BuildingBlock: TEMPAE_clean_linker_10, # of connection points: 2
#     Edge 86, Type (0, 0), BuildingBlock: TEMPAE_clean_linker_10, # of connection points: 2
#     Edge 87, Type (0, 0), BuildingBlock: TEMPAE_clean_linker_10, # of connection points: 2
#     Edge 88, Type (0, 0), BuildingBlock: TEMPAE_clean_linker_10, # of connection points: 2
#     Edge 89, Type (0, 0), BuildingBlock: TEMPAE_clean_linker_10, # of connection points: 2
#     Edge 90, Type (0, 0), BuildingBlock: TEMPAE_clean_linker_10, # of connection points: 2
#     Edge 91, Type (0, 0), BuildingBlock: TEMPAE_clean_linker_10, # of connection points: 2
#     Edge 92, Type (0, 0), BuildingBlock: TEMPAE_clean_linker_10, # of connection points: 2
#     Edge 93, Type (0, 0), BuildingBlock: TEMPAE_clean_linker_10, # of connection points: 2
#     Edge 94, Type (0, 0), BuildingBlock: TEMPAE_clean_linker_10, # of connection points: 2
#     Edge 95, Type (0, 0), BuildingBlock: TEMPAE_clean_linker_10, # of connection points: 2
# Relax obj value: 0.792
# Max RMSD: 0.299
# Mean RMSD: 0.283
data_MOF--net-dia-a--node1-NAHDIM_clean_sbu_0--edge1-TEMPAE_clean_linker_10
_symmetry_space_group_name_H-M    P1
_symmetry_Int_Tables_number       1
_symmetry_cell_setting            triclinic
loop_
_symmetry_equiv_pos_as_xyz
'x, y, z'
_cell_length_a     70.005004
_cell_length_b     64.558755
_cell_length_c     49.849168
_cell_angle_alpha  94.9268
_cell_angle_beta   93.582179
_cell_angle_gamma 88.909656
loop_
_atom_site_label
_atom_site_type_symbol
_atom_site_fract_x
_atom_site_fract_y
_atom_site_fract_z
_atom_type_partial_charge
C0 C 0.09508 0.00226 0.47944 0.0
O1 O 0.09134 0.01508 0.46066 0.0
O2 O 0.11784 0.05432 0.476 0.0
Zn3 Zn 0.11894 0.03557 0.50638 0.0
O4 O 0.10484 0.05009 0.53663 0.0
C5 C 0.15776 0.04757 0.52013 0.0
O6 O 0.1543 0.0599 0.50072 0.0
O7 O 0.10718 0.00743 0.49878 0.0
C8 C 0.10771 0.06918 0.54395 0.0
O9 O 0.11879 0.07987 0.53008 0.0
C10 C 0.10272 0.06464 0.47014 0.0
O11 O 0.08656 0.05949 0.47969 0.0
O12 O 0.14558 0.03383 0.52349 0.0
C13 C 0.88904 0.19294 0.77643 0.0
O14 O 0.87728 0.19111 0.79555 0.0
O15 O 0.84897 0.23318 0.79117 0.0
Zn16 Zn 0.87516 0.23618 0.77736 0.0
O17 O 0.89084 0.24936 0.80942 0.0
C18 C 0.86034 0.26983 0.74721 0.0
O19 O 0.84559 0.26792 0.76178 0.0
O20 O 0.88904 0.20979 0.76495 0.0
C21 C 0.88548 0.267 0.81987 0.0
O22 O 0.87056 0.27637 0.80879 0.0
C23 C 0.84819 0.23074 0.81613 0.0
O24 O 0.86362 0.22406 0.8293 0.0
O25 O 0.87431 0.25703 0.74903 0.0
C26 C 0.61985 0.27649 0.00282 0.0
O27 O 0.62023 0.25824 0.989 0.0
O28 O 0.59974 0.22721 0.01713 0.0
Zn29 Zn 0.60527 0.25269 0.04307 0.0
O30 O 0.62773 0.24536 0.06799 0.0
C31 C 0.57117 0.24493 0.06905 0.0
O32 O 0.56852 0.23094 0.04846 0.0
O33 O 0.6126 0.27804 0.02564 0.0
C34 C 0.62595 0.23022 0.08232 0.0
O35 O 0.60985 0.2199 0.07993 0.0
C36 C 0.61332 0.21441 0.01186 0.0
O37 O 0.6309 0.21939 0.02041 0.0
O38 O 0.58416 0.2583 0.06832 0.0
C39 C 0.87425 0.00036 0.21869 0.0
O40 O 0.89042 0.0014 0.23357 0.0
O41 O 0.89379 0.96334 0.26423 0.0
Zn42 Zn 0.87228 0.95839 0.23585 0.0
O43 O 0.85018 0.95304 0.258 0.0
C44 C 0.89083 0.92009 0.21761 0.0
O45 O 0.90525 0.92828 0.23276 0.0
O46 O 0.86526 0.98331 0.21554 0.0
C47 C 0.85318 0.93871 0.27378 0.0
O48 O 0.86944 0.92822 0.27315 0.0
C49 C 0.89004 0.97483 0.28532 0.0
O50 O 0.87443 0.98645 0.2848 0.0
O51 O 0.87604 0.93131 0.21313 0.0
C52 C 0.0198 0.13329 0.77429 0.0
O53 O 0.02578 0.11965 0.75546 0.0
O54 O 0.07989 0.14357 0.79994 0.0
Zn55 Zn 0.05801 0.14946 0.7733 0.0
O56 O 0.06163 0.13191 0.73833 0.0
C57 C 0.07619 0.18764 0.7632 0.0
O58 O 0.09095 0.17985 0.77672 0.0
O59 O 0.03155 0.14644 0.78599 0.0
C60 C 0.078 0.13192 0.72856 0.0
O61 O 0.09202 0.1421 0.74224 0.0
C62 C 0.08784 0.12569 0.79806 0.0
O63 O 0.07867 0.11035 0.78412 0.0
O64 O 0.06025 0.17841 0.76202 0.0
C65 C 0.73294 0.36092 0.97987 0.0
O66 O 0.7483 0.35281 0.99162 0.0
O67 O 0.78098 0.38438 0.98047 0.0
Zn68 Zn 0.76148 0.3765 0.94962 0.0
O69 O 0.76977 0.3492 0.93061 0.0
C70 C 0.77592 0.40892 0.92079 0.0
O71 O 0.78885 0.40992 0.94111 0.0
O72 O 0.73496 0.37302 0.96151 0.0
C73 C 0.78577 0.34843 0.91979 0.0
O74 O 0.79632 0.36516 0.92188 0.0
C75 C 0.79214 0.37056 0.98969 0.0
O76 O 0.78923 0.35092 0.98157 0.0
O77 O 0.76176 0.39696 0.92129 0.0
C78 C 0.78212 0.1166 0.19488 0.0
O79 O 0.77726 0.12288 0.17097 0.0
O80 O 0.73475 0.10636 0.16873 0.0
Zn81 Zn 0.74278 0.12548 0.20115 0.0
O82 O 0.72386 0.12141 0.22891 0.0
C83 C 0.72818 0.16751 0.19972 0.0
O84 O 0.72329 0.16492 0.22421 0.0
O85 O 0.76978 0.1178 0.21262 0.0
C86 C 0.72515 0.12393 0.25452 0.0
O87 O 0.74153 0.12948 0.26716 0.0
C88 C 0.71738 0.10789 0.16001 0.0
O89 O 0.70593 0.121 0.17308 0.0
O90 O 0.73891 0.15394 0.18797 0.0
C91 C 0.98427 0.91604 0.51109 0.0
O92 O 0.96947 0.92844 0.5153 0.0
O93 O 0.93633 0.88573 0.51913 0.0
Zn94 Zn 0.95442 0.8895 0.49008 0.0
O95 O 0.9444 0.91157 0.46631 0.0
C96 C 0.939 0.85339 0.46065 0.0
O97 O 0.92397 0.85996 0.47357 0.0
O98 O 0.98133 0.89722 0.5025 0.0
C99 C 0.92697 0.91336 0.45794 0.0
O100 O 0.91416 0.90134 0.46658 0.0
C101 C 0.92605 0.90012 0.53008 0.0
O102 O 0.92978 0.91954 0.52662 0.0
O103 O 0.95466 0.86307 0.46544 0.0
C104 C 0.58199 0.00033 0.97862 0.0
O105 O 0.57645 0.01502 0.96307 0.0
O106 O 0.60255 0.05265 0.97773 0.0
Zn107 Zn 0.61158 0.02945 0.00036 0.0
O108 O 0.60722 0.04016 0.03862 0.0
C109 C 0.65023 0.0404 0.99599 0.0
O110 O 0.6424 0.05429 0.98077 0.0
O111 O 0.59706 0.00284 0.994 0.0
C112 C 0.6131 0.05807 0.04772 0.0
O113 O 0.62189 0.06948 0.03183 0.0
C114 C 0.58803 0.06306 0.98558 0.0
O115 O 0.57744 0.05531 0.00304 0.0
O116 O 0.64006 0.02538 0.00138 0.0
C117 C 0.89236 0.69239 0.26364 0.0
O118 O 0.88182 0.69085 0.28425 0.0
O119 O 0.85327 0.73172 0.28501 0.0
Zn120 Zn 0.87839 0.73473 0.26787 0.0
O121 O 0.89654 0.74593 0.29821 0.0
C122 C 0.86859 0.77446 0.25398 0.0
O123 O 0.86256 0.77421 0.2784 0.0
O124 O 0.89107 0.70888 0.25138 0.0
C125 C 0.90942 0.75897 0.29519 0.0
O126 O 0.91203 0.76459 0.27098 0.0
C127 C 0.85382 0.72904 0.31006 0.0
O128 O 0.87003 0.72295 0.32182 0.0
O129 O 0.87557 0.75777 0.24283 0.0
C130 C 0.12459 0.27679 0.50704 0.0
O131 O 0.11595 0.26331 0.48933 0.0
O132 O 0.11079 0.22314 0.5187 0.0
Zn133 Zn 0.12244 0.24505 0.54576 0.0
O134 O 0.14813 0.23394 0.55869 0.0
C135 C 0.09689 0.23318 0.58396 0.0
O136 O 0.09423 0.21765 0.56539 0.0
O137 O 0.12731 0.27248 0.53139 0.0
C138 C 0.14961 0.21541 0.56545 0.0
O139 O 0.13444 0.20357 0.56258 0.0
C140 C 0.11893 0.21489 0.49825 0.0
O141 O 0.13499 0.22265 0.4915 0.0
O142 O 0.10735 0.24816 0.57917 0.0
C143 C 0.86877 0.48962 0.73152 0.0
O144 O 0.87542 0.4854 0.75571 0.0
O145 O 0.88451 0.44159 0.75708 0.0
Zn146 Zn 0.864 0.4462 0.72769 0.0
O147 O 0.83957 0.4454 0.74674 0.0
C148 C 0.88086 0.41237 0.69725 0.0
O149 O 0.89654 0.42212 0.70651 0.0
O150 O 0.86463 0.47458 0.71407 0.0
C151 C 0.82904 0.42953 0.74605 0.0
O152 O 0.83302 0.41295 0.7301 0.0
C153 C 0.88352 0.42424 0.76726 0.0
O154 O 0.87038 0.41101 0.75729 0.0
O155 O 0.86489 0.42183 0.69964 0.0
C156 C 0.52561 0.13241 0.27284 0.0
O157 O 0.53019 0.12021 0.25168 0.0
O158 O 0.58643 0.14943 0.29684 0.0
Zn159 Zn 0.56387 0.14731 0.26972 0.0
O160 O 0.56912 0.12501 0.23987 0.0
C161 C 0.57651 0.18038 0.24079 0.0
O162 O 0.59326 0.17164 0.24613 0.0
O163 O 0.53834 0.14406 0.28522 0.0
C164 C 0.58612 0.12011 0.23385 0.0
O165 O 0.6006 0.12807 0.24906 0.0
C166 C 0.59354 0.13371 0.30778 0.0
O167 O 0.58377 0.11639 0.30533 0.0
O168 O 0.56181 0.17342 0.2505 0.0
C169 C 0.73206 0.86306 0.48298 0.0
O170 O 0.74546 0.86388 0.50267 0.0
O171 O 0.78283 0.87812 0.47826 0.0
Zn172 Zn 0.76372 0.8673 0.44873 0.0
O173 O 0.77296 0.83913 0.43395 0.0
C174 C 0.77288 0.90319 0.42153 0.0
O175 O 0.77729 0.91126 0.44618 0.0
O176 O 0.7366 0.86517 0.45912 0.0
C177 C 0.78966 0.83861 0.42524 0.0
O178 O 0.79967 0.85576 0.42782 0.0
C179 C 0.79077 0.86814 0.49692 0.0
O180 O 0.78489 0.84941 0.50036 0.0
O181 O 0.76533 0.88534 0.41811 0.0
C182 C 0.27951 0.10764 0.74697 0.0
O183 O 0.2641 0.10051 0.75659 0.0
O184 O 0.24008 0.11379 0.69587 0.0
Zn185 Zn 0.2514 0.13417 0.72499 0.0
O186 O 0.23329 0.13512 0.75534 0.0
C187 C 0.25515 0.1598 0.68283 0.0
O188 O 0.26454 0.14324 0.67329 0.0
O189 O 0.27798 0.12376 0.73405 0.0
C190 C 0.22081 0.14969 0.757 0.0
O191 O 0.22197 0.16522 0.74184 0.0
C192 C 0.22378 0.11825 0.685 0.0
O193 O 0.21474 0.13514 0.69422 0.0
O194 O 0.25081 0.16095 0.7073 0.0
C195 C 0.98503 0.41337 0.01978 0.0
O196 O 0.97204 0.42151 0.03561 0.0
O197 O 0.93586 0.39382 0.02617 0.0
Zn198 Zn 0.95471 0.38564 0.99805 0.0
O199 O 0.94405 0.39675 0.9638 0.0
C200 C 0.93842 0.34618 0.98711 0.0
O201 O 0.92428 0.35609 0.99901 0.0
O202 O 0.98109 0.39715 0.00438 0.0
C203 C 0.95238 0.3919 0.94218 0.0
O204 O 0.96818 0.3806 0.94319 0.0
C205 C 0.92618 0.41036 0.02287 0.0
O206 O 0.93248 0.42357 0.00693 0.0
O207 O 0.95457 0.35495 0.98784 0.0
C208 C 0.08202 0.51698 0.98229 0.0
O209 O 0.07426 0.53536 0.97915 0.0
O210 O 0.1063 0.56774 0.98673 0.0
Zn211 Zn 0.11513 0.54081 0.00212 0.0
O212 O 0.11252 0.54449 0.04228 0.0
C213 C 0.15388 0.55101 0.99639 0.0
O214 O 0.14599 0.56752 0.98635 0.0
O215 O 0.0997 0.51568 0.98939 0.0
C216 C 0.12062 0.55934 0.05683 0.0
O217 O 0.13057 0.5728 0.04535 0.0
C218 C 0.0942 0.57917 0.99933 0.0
O219 O 0.08583 0.57183 0.01932 0.0
O220 O 0.14329 0.53568 0.99917 0.0
C221 C 0.48621 0.4073 0.53143 0.0
O222 O 0.47152 0.42013 0.53419 0.0
O223 O 0.435 0.39578 0.52777 0.0
Zn224 Zn 0.45661 0.38358 0.5063 0.0
O225 O 0.45641 0.39902 0.47308 0.0
C226 C 0.43468 0.34687 0.48899 0.0
O227 O 0.42076 0.35827 0.49916 0.0
O228 O 0.48301 0.38847 0.52311 0.0
C229 C 0.44136 0.4001 0.45767 0.0
O230 O 0.42557 0.39172 0.46436 0.0
C231 C 0.42699 0.38719 0.54606 0.0
O232 O 0.43532 0.37084 0.55595 0.0
O233 O 0.45167 0.35378 0.4916 0.0
C234 C 0.10711 0.79457 0.01774 0.0
O235 O 0.09836 0.78081 0.00052 0.0
O236 O 0.09511 0.74141 0.02547 0.0
Zn237 Zn 0.10398 0.76304 0.05525 0.0
O238 O 0.12871 0.75173 0.07143 0.0
C239 C 0.07513 0.75004 0.08808 0.0
O240 O 0.07005 0.73837 0.06599 0.0
O241 O 0.10964 0.79078 0.04231 0.0
C242 C 0.1287 0.73277 0.07655 0.0
O243 O 0.11311 0.72187 0.07062 0.0
C244 C 0.10792 0.73245 0.01145 0.0
O245 O 0.12519 0.74028 0.01341 0.0
O246 O 0.08727 0.76425 0.08678 0.0
C247 C 0.02757 0.64656 0.28335 0.0
O248 O 0.03776 0.66109 0.29736 0.0
O249 O 0.07361 0.63043 0.3135 0.0
Zn250 Zn 0.06499 0.632 0.27388 0.0
O251 O 0.07357 0.6085 0.24795 0.0
C252 C 0.08142 0.65902 0.23841 0.0
O253 O 0.09061 0.64183 0.23073 0.0
O254 O 0.03624 0.63126 0.27152 0.0
C255 C 0.08797 0.59622 0.2475 0.0
O256 O 0.10016 0.59626 0.2686 0.0
C257 C 0.08905 0.62891 0.32819 0.0
O258 O 0.08777 0.6272 0.35409 0.0
O259 O 0.07075 0.6591 0.25817 0.0
C260 C 0.21857 0.86448 0.95677 0.0
O261 O 0.21958 0.88134 0.94396 0.0
O262 O 0.2794 0.86527 0.96798 0.0
Zn263 Zn 0.25787 0.85579 0.94151 0.0
O264 O 0.26634 0.82828 0.92376 0.0
C265 C 0.26404 0.89269 0.91492 0.0
O266 O 0.27049 0.89982 0.93921 0.0
O267 O 0.23305 0.85239 0.95844 0.0
C268 C 0.2825 0.8286 0.91355 0.0
O269 O 0.29197 0.84612 0.91584 0.0
C270 C 0.28139 0.86666 0.99357 0.0
O271 O 0.26719 0.86163 0.00767 0.0
O272 O 0.25609 0.87504 0.9118 0.0
C273 C 0.37155 0.99067 0.72667 0.0
O274 O 0.38722 0.98825 0.74207 0.0
O275 O 0.38432 0.94975 0.76759 0.0
Zn276 Zn 0.36568 0.94757 0.73513 0.0
O277 O 0.34136 0.94089 0.7517 0.0
C278 C 0.38745 0.91257 0.71435 0.0
O279 O 0.40115 0.92196 0.72974 0.0
O280 O 0.36145 0.97487 0.71887 0.0
C281 C 0.34254 0.92491 0.76495 0.0
O282 O 0.3583 0.91353 0.76442 0.0
C283 C 0.37909 0.96035 0.78862 0.0
O284 O 0.36354 0.97202 0.78681 0.0
O285 O 0.37174 0.92232 0.71022 0.0
C286 C 0.47404 0.91253 0.02024 0.0
O287 O 0.45912 0.92461 0.02494 0.0
O288 O 0.42623 0.88325 0.0308 0.0
Zn289 Zn 0.44457 0.88433 0.00133 0.0
O290 O 0.43417 0.90412 0.97468 0.0
C291 C 0.43029 0.84548 0.9767 0.0
O292 O 0.41526 0.85138 0.99005 0.0
O293 O 0.47137 0.8935 0.01243 0.0
C294 C 0.41696 0.90365 0.96489 0.0
O295 O 0.40497 0.89074 0.97363 0.0
C296 C 0.41575 0.89883 0.03785 0.0
O297 O 0.41993 0.9171 0.03024 0.0
O298 O 0.44527 0.85648 0.97982 0.0
C299 C 0.27187 0.59823 0.22982 0.0
O300 O 0.25707 0.58832 0.2371 0.0
O301 O 0.23543 0.5984 0.1732 0.0
Zn302 Zn 0.24123 0.61882 0.20519 0.0
O303 O 0.22334 0.61405 0.23429 0.0
C304 C 0.21664 0.64986 0.18871 0.0
O305 O 0.20514 0.6357 0.19571 0.0
O306 O 0.26888 0.61409 0.21663 0.0
C307 C 0.21933 0.6281 0.2526 0.0
O308 O 0.22915 0.64537 0.25527 0.0
C309 C 0.22043 0.5875 0.17043 0.0
O310 O 0.20859 0.5885 0.18995 0.0
O311 O 0.23465 0.64679 0.19133 0.0
C312 C 0.39709 0.68549 0.76803 0.0
O313 O 0.38534 0.68298 0.78698 0.0
O314 O 0.35587 0.72347 0.78376 0.0
Zn315 Zn 0.38236 0.72798 0.77183 0.0
O316 O 0.39731 0.73981 0.80529 0.0
C317 C 0.37209 0.76716 0.7556 0.0
O318 O 0.36409 0.76689 0.77873 0.0
O319 O 0.39683 0.70267 0.75729 0.0
C320 C 0.40909 0.75454 0.8054 0.0
O321 O 0.41299 0.7617 0.7825 0.0
C322 C 0.35431 0.7201 0.8083 0.0
O323 O 0.36963 0.71426 0.82244 0.0
O324 O 0.38078 0.75082 0.74639 0.0
C325 C 0.59209 0.49302 0.48115 0.0
O326 O 0.58582 0.50644 0.46415 0.0
O327 O 0.60972 0.54632 0.47617 0.0
Zn328 Zn 0.62024 0.52463 0.50018 0.0
O329 O 0.61566 0.53664 0.53783 0.0
C330 C 0.658 0.53814 0.49589 0.0
O331 O 0.64948 0.55109 0.47989 0.0
O332 O 0.60705 0.49711 0.49623 0.0
C333 C 0.62024 0.55529 0.54546 0.0
O334 O 0.62794 0.56668 0.52849 0.0
C335 C 0.59463 0.55579 0.48373 0.0
O336 O 0.58442 0.54732 0.50104 0.0
O337 O 0.64885 0.52232 0.50119 0.0
C338 C 0.62542 0.76947 0.50302 0.0
O339 O 0.63001 0.75028 0.49463 0.0
O340 O 0.60312 0.72107 0.51732 0.0
Zn341 Zn 0.60756 0.74782 0.54147 0.0
O342 O 0.63009 0.7428 0.56744 0.0
C343 C 0.57284 0.74036 0.56627 0.0
O344 O 0.57065 0.72602 0.54601 0.0
O345 O 0.61413 0.77245 0.52199 0.0
C346 C 0.62861 0.72911 0.58403 0.0
O347 O 0.61263 0.71869 0.58345 0.0
C348 C 0.61666 0.70775 0.51465 0.0
O349 O 0.63388 0.71259 0.52496 0.0
O350 O 0.58591 0.75366 0.56579 0.0
C351 C 0.77269 0.60194 0.7226 0.0
O352 O 0.75608 0.59321 0.72454 0.0
O353 O 0.73831 0.61108 0.66877 0.0
Zn354 Zn 0.74658 0.62965 0.70164 0.0
O355 O 0.7267 0.62667 0.72851 0.0
C356 C 0.73424 0.67232 0.70047 0.0
O357 O 0.72958 0.67015 0.72518 0.0
O358 O 0.77287 0.6199 0.714 0.0
C359 C 0.72752 0.62864 0.75415 0.0
O360 O 0.7439 0.63295 0.7676 0.0
C361 C 0.72112 0.61292 0.65938 0.0
O362 O 0.7096 0.62626 0.67192 0.0
O363 O 0.74447 0.65828 0.68868 0.0
C364 C 0.52788 0.62673 0.76453 0.0
O365 O 0.5338 0.61616 0.74285 0.0
O366 O 0.58715 0.64673 0.79354 0.0
Zn367 Zn 0.56528 0.64418 0.76531 0.0
O368 O 0.57233 0.6231 0.73499 0.0
C369 C 0.57676 0.67968 0.73979 0.0
O370 O 0.59391 0.6727 0.74692 0.0
O371 O 0.5396 0.63848 0.77892 0.0
C372 C 0.58962 0.62022 0.72891 0.0
O373 O 0.60334 0.62962 0.74421 0.0
C374 C 0.59489 0.63077 0.80313 0.0
O375 O 0.58608 0.61291 0.79853 0.0
O376 O 0.56221 0.67079 0.74727 0.0
C377 C 0.23631 0.35441 0.46022 0.0
O378 O 0.25224 0.3441 0.46579 0.0
O379 O 0.28302 0.38061 0.46277 0.0
Zn380 Zn 0.26279 0.37458 0.43248 0.0
O381 O 0.27154 0.34841 0.41144 0.0
C382 C 0.26738 0.41582 0.41503 0.0
O383 O 0.27058 0.4211 0.44095 0.0
O384 O 0.23699 0.36982 0.44613 0.0
C385 C 0.26121 0.33443 0.39858 0.0
O386 O 0.24248 0.33624 0.39833 0.0
C387 C 0.3 0.37932 0.45505 0.0
O388 O 0.30249 0.37515 0.42922 0.0
O389 O 0.26259 0.39727 0.40732 0.0
C390 C 0.38259 0.50253 0.24392 0.0
O391 O 0.39324 0.50392 0.26664 0.0
O392 O 0.40814 0.46478 0.28008 0.0
Zn393 Zn 0.38406 0.46098 0.25622 0.0
O394 O 0.36321 0.46162 0.28229 0.0
C395 C 0.38394 0.41852 0.25582 0.0
O396 O 0.38536 0.42559 0.28138 0.0
O397 O 0.37837 0.48453 0.23297 0.0
C398 C 0.34743 0.47169 0.28248 0.0
O399 O 0.343 0.48431 0.26366 0.0
C400 C 0.42267 0.45277 0.27835 0.0
O401 O 0.42394 0.43976 0.25674 0.0
O402 O 0.38349 0.4316 0.23802 0.0
C403 C 0.39543 0.19355 0.28473 0.0
O404 O 0.38769 0.19559 0.30815 0.0
O405 O 0.3491 0.23133 0.28449 0.0
Zn406 Zn 0.37737 0.23348 0.2796 0.0
O407 O 0.38911 0.24449 0.31571 0.0
C408 C 0.36778 0.26565 0.24339 0.0
O409 O 0.35034 0.25869 0.24428 0.0
O410 O 0.39163 0.20714 0.26806 0.0
C411 C 0.38417 0.26282 0.32417 0.0
O412 O 0.37185 0.27317 0.30925 0.0
C413 C 0.34352 0.22754 0.30734 0.0
O414 O 0.35601 0.22021 0.32501 0.0
O415 O 0.38161 0.25616 0.25503 0.0
C416 C 0.00671 0.94565 0.52039 0.0
C417 C 0.00354 0.92495 0.5105 0.0
C418 C 0.02361 0.95566 0.51565 0.0
C419 C 0.03765 0.94472 0.50056 0.0
C420 C 0.03507 0.92345 0.49193 0.0
C421 C 0.01804 0.91377 0.49708 0.0
C422 C 0.02597 0.9783 0.52559 0.0
C423 C 0.04976 0.91125 0.47592 0.0
C424 C 0.06651 0.98087 0.46355 0.0
C425 C 0.08248 0.98438 0.48165 0.0
C426 C 0.05234 0.96687 0.46859 0.0
C427 C 0.05423 0.95615 0.49227 0.0
C428 C 0.07104 0.95837 0.50945 0.0
C429 C 0.085 0.97244 0.50391 0.0
C430 C 0.03471 0.96468 0.44955 0.0
C431 C 0.07368 0.94705 0.53473 0.0
H432 H 0.99565 0.95433 0.53097 0.0
H433 H 0.0157 0.89775 0.48936 0.0
H434 H 0.03996 0.98066 0.53708 0.0
H435 H 0.02583 0.98785 0.50811 0.0
H436 H 0.01443 0.9841 0.53872 0.0
H437 H 0.04688 0.8943 0.47392 0.0
H438 H 0.04962 0.91671 0.4554 0.0
H439 H 0.06435 0.9138 0.48549 0.0
H440 H 0.06452 0.98987 0.44618 0.0
H441 H 0.09741 0.97486 0.51788 0.0
H442 H 0.02224 0.97196 0.45958 0.0
H443 H 0.03141 0.94803 0.44432 0.0
H444 H 0.03638 0.9722 0.43063 0.0
H445 H 0.06403 0.95407 0.54996 0.0
H446 H 0.08863 0.94795 0.54361 0.0
H447 H 0.0698 0.93046 0.53052 0.0
C448 C 0.91876 0.18117 0.75409 0.0
C449 C 0.90509 0.17788 0.77263 0.0
C450 C 0.93617 0.1701 0.75423 0.0
C451 C 0.93994 0.15522 0.77324 0.0
C452 C 0.92554 0.15048 0.79035 0.0
C453 C 0.90826 0.16192 0.78989 0.0
C454 C 0.95108 0.17551 0.73544 0.0
C455 C 0.92886 0.13441 0.81047 0.0
C456 C 0.98559 0.12398 0.76184 0.0
C457 C 0.99903 0.13616 0.77792 0.0
C458 C 0.96598 0.12909 0.76143 0.0
C459 C 0.95975 0.14686 0.77734 0.0
C460 C 0.97308 0.15826 0.79508 0.0
C461 C 0.99254 0.15271 0.79524 0.0
C462 C 0.95215 0.1163 0.74268 0.0
C463 C 0.96702 0.17724 0.81254 0.0
H464 H 0.91635 0.19327 0.74041 0.0
H465 H 0.89771 0.1591 0.80413 0.0
H466 H 0.96319 0.18342 0.74733 0.0
H467 H 0.9569 0.16121 0.72475 0.0
H468 H 0.94527 0.18593 0.7202 0.0
H469 H 0.91527 0.12977 0.81851 0.0
H470 H 0.93606 0.12034 0.80123 0.0
H471 H 0.9384 0.14089 0.82764 0.0
H472 H 0.99044 0.11102 0.74857 0.0
H473 H 0.00277 0.16209 0.80796 0.0
H474 H 0.94809 0.12489 0.72479 0.0
H475 H 0.93884 0.11355 0.75274 0.0
H476 H 0.95851 0.10106 0.73559 0.0
H477 H 0.96229 0.18973 0.79954 0.0
H478 H 0.9788 0.1833 0.82687 0.0
H479 H 0.95471 0.17361 0.82421 0.0
C480 C 0.69735 0.36019 0.97026 0.0
C481 C 0.71375 0.35344 0.98491 0.0
C482 C 0.67954 0.35095 0.97218 0.0
C483 C 0.6782 0.33451 0.98896 0.0
C484 C 0.69448 0.32844 0.00489 0.0
C485 C 0.71202 0.33804 0.00275 0.0
C486 C 0.66242 0.35809 0.95529 0.0
C487 C 0.69363 0.31101 0.02315 0.0
C488 C 0.63276 0.31248 0.01146 0.0
C489 C 0.63165 0.2936 0.99525 0.0
C490 C 0.64698 0.32694 0.00821 0.0
C491 C 0.6604 0.32229 0.98842 0.0
C492 C 0.65827 0.30415 0.97046 0.0
C493 C 0.64384 0.29007 0.97401 0.0
C494 C 0.64852 0.34636 0.02733 0.0
C495 C 0.67224 0.29869 0.94897 0.0
H496 H 0.69854 0.3722 0.95656 0.0
H497 H 0.72456 0.33284 0.01431 0.0
H498 H 0.65902 0.34616 0.93839 0.0
H499 H 0.64965 0.35999 0.96742 0.0
H500 H 0.66505 0.37303 0.9467 0.0
H501 H 0.70729 0.30896 0.03528 0.0
H502 H 0.68198 0.31403 0.03713 0.0
H503 H 0.69039 0.29619 0.01085 0.0
H504 H 0.62322 0.31549 0.0277 0.0
H505 H 0.64295 0.27564 0.96119 0.0
H506 H 0.65175 0.36003 0.01643 0.0
H507 H 0.66044 0.34441 0.04268 0.0
H508 H 0.63516 0.34961 0.03796 0.0
H509 H 0.67444 0.31223 0.9373 0.0
H510 H 0.66734 0.28539 0.93475 0.0
H511 H 0.68632 0.2945 0.95867 0.0
C512 C 0.81269 0.10094 0.1784 0.0
C513 C 0.80003 0.10439 0.19914 0.0
C514 C 0.82768 0.08625 0.1801 0.0
C515 C 0.82993 0.07468 0.20297 0.0
C516 C 0.8181 0.07923 0.22481 0.0
C517 C 0.80335 0.0941 0.22268 0.0
C518 C 0.84025 0.08214 0.15664 0.0
C519 C 0.82008 0.06731 0.24964 0.0
C520 C 0.84644 0.01846 0.19665 0.0
C521 C 0.86458 0.01959 0.2103 0.0
C522 C 0.83544 0.03645 0.1929 0.0
C523 C 0.8428 0.0561 0.20283 0.0
C524 C 0.86165 0.0575 0.21484 0.0
C525 C 0.87232 0.03919 0.21851 0.0
C526 C 0.81544 0.03427 0.17982 0.0
C527 C 0.87011 0.07819 0.22523 0.0
H528 H 0.81038 0.10899 0.16024 0.0
H529 H 0.79376 0.0968 0.23891 0.0
H530 H 0.85548 0.08056 0.16386 0.0
H531 H 0.83608 0.06727 0.14513 0.0
H532 H 0.83891 0.09469 0.1427 0.0
H533 H 0.81105 0.07407 0.26584 0.0
H534 H 0.81577 0.05095 0.24423 0.0
H535 H 0.8352 0.06704 0.25772 0.0
H536 H 0.84041 0.00342 0.18998 0.0
H537 H 0.88638 0.04023 0.22891 0.0
H538 H 0.8133 0.04472 0.16332 0.0
H539 H 0.80484 0.03895 0.19494 0.0
H540 H 0.81239 0.01809 0.17143 0.0
H541 H 0.8673 0.08985 0.2103 0.0
H542 H 0.8858 0.07698 0.2299 0.0
H543 H 0.86327 0.08408 0.24393 0.0
C544 C 0.57288 0.97039 0.00362 0.0
C545 C 0.56899 0.98311 0.98238 0.0
C546 C 0.55923 0.95647 0.01054 0.0
C547 C 0.54135 0.95509 0.99569 0.0
C548 C 0.53785 0.96682 0.9731 0.0
C549 C 0.5517 0.98076 0.96676 0.0
C550 C 0.5635 0.94422 0.03475 0.0
C551 C 0.51905 0.9655 0.95648 0.0
C552 C 0.50659 0.91161 0.00209 0.0
C553 C 0.4929 0.92195 0.01797 0.0
C554 C 0.52289 0.92194 0.99542 0.0
C555 C 0.52562 0.94298 0.00517 0.0
C556 C 0.51251 0.95302 0.02268 0.0
C557 C 0.49624 0.94241 0.02874 0.0
C558 C 0.53655 0.91073 0.97668 0.0
C559 C 0.51513 0.97533 0.03393 0.0
H560 H 0.58624 0.97201 0.01577 0.0
H561 H 0.54864 0.99038 0.9502 0.0
H562 H 0.55462 0.95042 0.05138 0.0
H563 H 0.55974 0.92765 0.02988 0.0
H564 H 0.5788 0.94511 0.04209 0.0
H565 H 0.51931 0.97401 0.93806 0.0
H566 H 0.51549 0.94903 0.95037 0.0
H567 H 0.50742 0.97221 0.96879 0.0
H568 H 0.50407 0.89581 0.99359 0.0
H569 H 0.48578 0.95043 0.04118 0.0
H570 H 0.55157 0.9129 0.98474 0.0
H571 H 0.53516 0.9174 0.95684 0.0
H572 H 0.53366 0.89381 0.97344 0.0
H573 H 0.52975 0.97752 0.04357 0.0
H574 H 0.50456 0.98028 0.04902 0.0
H575 H 0.51352 0.98571 0.01728 0.0
C576 C 0.91391 0.66368 0.27856 0.0
C577 C 0.90931 0.67852 0.26012 0.0
C578 C 0.93226 0.65456 0.28035 0.0
C579 C 0.94625 0.66041 0.26325 0.0
C580 C 0.94104 0.67363 0.24269 0.0
C581 C 0.9226 0.6825 0.24132 0.0
C582 C 0.93714 0.64023 0.30224 0.0
C583 C 0.95546 0.68006 0.22379 0.0
C584 C 0.99735 0.6663 0.2923 0.0
C585 C 0.00651 0.64898 0.27962 0.0
C586 C 0.97767 0.66985 0.28754 0.0
C587 C 0.96683 0.6557 0.26966 0.0
C588 C 0.97584 0.63784 0.25739 0.0
C589 C 0.99562 0.63469 0.26248 0.0
C590 C 0.9686 0.68908 0.30115 0.0
C591 C 0.96471 0.62238 0.23835 0.0
H592 H 0.90366 0.66026 0.29295 0.0
H593 H 0.9191 0.69371 0.22671 0.0
H594 H 0.94608 0.62688 0.29465 0.0
H595 H 0.94554 0.64885 0.31909 0.0
H596 H 0.9241 0.6342 0.31033 0.0
H597 H 0.94852 0.68768 0.20648 0.0
H598 H 0.9656 0.69119 0.23498 0.0
H599 H 0.96393 0.66644 0.21591 0.0
H600 H 0.00561 0.67738 0.30565 0.0
H601 H 0.00259 0.62124 0.25261 0.0
H602 H 0.95649 0.6847 0.31275 0.0
H603 H 0.96272 0.69926 0.28569 0.0
H604 H 0.97892 0.69818 0.3151 0.0
H605 H 0.95176 0.61747 0.24774 0.0
H606 H 0.97341 0.60834 0.23246 0.0
H607 H 0.95979 0.62978 0.21982 0.0
C608 C 0.21716 0.32772 0.47931 0.0
C609 C 0.21778 0.34674 0.46783 0.0
C610 C 0.19972 0.31927 0.4849 0.0
C611 C 0.18243 0.33021 0.47916 0.0
C612 C 0.18293 0.34971 0.46827 0.0
C613 C 0.20063 0.35772 0.46257 0.0
C614 C 0.19982 0.29838 0.49648 0.0
C615 C 0.16479 0.36192 0.46226 0.0
C616 C 0.14074 0.29348 0.47136 0.0
C617 C 0.13537 0.29414 0.49805 0.0
C618 C 0.15506 0.30652 0.46423 0.0
C619 C 0.16397 0.3207 0.48422 0.0
C620 C 0.15709 0.32299 0.51042 0.0
C621 C 0.14293 0.30958 0.51708 0.0
C622 C 0.16197 0.30361 0.43604 0.0
C623 C 0.16589 0.33825 0.53214 0.0
H624 H 0.23031 0.31912 0.48343 0.0
H625 H 0.20102 0.37247 0.45375 0.0
H626 H 0.19294 0.29978 0.51602 0.0
H627 H 0.19141 0.28712 0.48262 0.0
H628 H 0.21452 0.29192 0.4998 0.0
H629 H 0.16773 0.37749 0.45566 0.0
H630 H 0.15581 0.35322 0.44612 0.0
H631 H 0.1563 0.36395 0.48039 0.0
H632 H 0.13489 0.28166 0.4565 0.0
H633 H 0.13862 0.31037 0.53766 0.0
H634 H 0.17594 0.29519 0.43653 0.0
H635 H 0.16422 0.31884 0.42808 0.0
H636 H 0.15174 0.29452 0.42192 0.0
H637 H 0.17995 0.33207 0.53959 0.0
H638 H 0.1567 0.34094 0.54952 0.0
H639 H 0.16843 0.35337 0.52405 0.0
C640 C 0.80787 0.59583 0.71737 0.0
C641 C 0.79054 0.58966 0.72673 0.0
C642 C 0.82408 0.5826 0.7178 0.0
C643 C 0.8228 0.56282 0.72775 0.0
C644 C 0.80563 0.55705 0.73853 0.0
C645 C 0.78975 0.57054 0.73791 0.0
C646 C 0.8422 0.5894 0.70643 0.0
C647 C 0.80368 0.53616 0.74963 0.0
C648 C 0.84984 0.51432 0.70398 0.0
C649 C 0.86132 0.51081 0.72727 0.0
C650 C 0.83847 0.53238 0.7028 0.0
C651 C 0.83869 0.54728 0.72539 0.0
C652 C 0.85188 0.54494 0.74764 0.0
C653 C 0.86305 0.52669 0.74833 0.0
C654 C 0.8248 0.53444 0.67849 0.0
C655 C 0.85287 0.56068 0.77186 0.0
H656 H 0.80859 0.61062 0.70871 0.0
H657 H 0.77648 0.56575 0.74546 0.0
H658 H 0.85493 0.58561 0.71961 0.0
H659 H 0.84385 0.58091 0.68638 0.0
H660 H 0.842 0.60634 0.70397 0.0
H661 H 0.78966 0.5345 0.75844 0.0
H662 H 0.8052 0.52355 0.73328 0.0
H663 H 0.81522 0.5339 0.76544 0.0
H664 H 0.84863 0.5023 0.68741 0.0
H665 H 0.87215 0.52429 0.76624 0.0
H666 H 0.82486 0.55048 0.67212 0.0
H667 H 0.81004 0.53126 0.68382 0.0
H668 H 0.82839 0.52338 0.66115 0.0
H669 H 0.85199 0.57676 0.76557 0.0
H670 H 0.86625 0.5589 0.7847 0.0
H671 H 0.84053 0.55857 0.78425 0.0
C672 C 0.49092 0.12363 0.26431 0.0
C673 C 0.5052 0.13594 0.27841 0.0
C674 C 0.47147 0.12918 0.26564 0.0
C675 C 0.46627 0.1476 0.2811 0.0
C676 C 0.48054 0.1593 0.29675 0.0
C677 C 0.4998 0.15323 0.29538 0.0
C678 C 0.45664 0.11599 0.24927 0.0
C679 C 0.47561 0.17908 0.3135 0.0
C680 C 0.42387 0.18092 0.25988 0.0
C681 C 0.4115 0.17861 0.28044 0.0
C682 C 0.44133 0.16994 0.25896 0.0
C683 C 0.44638 0.15606 0.27883 0.0
C684 C 0.43321 0.15231 0.29822 0.0
C685 C 0.41596 0.16376 0.29893 0.0
C686 C 0.45497 0.17441 0.23792 0.0
C687 C 0.43785 0.13721 0.31927 0.0
H688 H 0.49495 0.11011 0.25136 0.0
H689 H 0.51071 0.16278 0.30647 0.0
H690 H 0.4441 0.11377 0.26122 0.0
H691 H 0.45145 0.12399 0.23132 0.0
H692 H 0.46252 0.1005 0.24224 0.0
H693 H 0.48817 0.18558 0.32592 0.0
H694 H 0.47006 0.19094 0.30002 0.0
H695 H 0.46417 0.17622 0.3271 0.0
H696 H 0.42051 0.19227 0.24541 0.0
H697 H 0.40637 0.1617 0.31471 0.0
H698 H 0.46011 0.1597 0.22743 0.0
H699 H 0.46768 0.18254 0.24788 0.0
H700 H 0.44828 0.18427 0.22263 0.0
H701 H 0.44425 0.12264 0.31007 0.0
H702 H 0.42496 0.1333 0.32964 0.0
H703 H 0.44853 0.14417 0.33465 0.0
C704 C 0.70984 0.84488 0.50998 0.0
C705 C 0.71277 0.85554 0.4873 0.0
C706 C 0.69298 0.83382 0.51167 0.0
C707 C 0.67859 0.83379 0.49039 0.0
C708 C 0.68071 0.84613 0.46868 0.0
C709 C 0.69789 0.85671 0.46724 0.0
C710 C 0.69129 0.8208 0.53517 0.0
C711 C 0.66542 0.84703 0.44606 0.0
C712 C 0.65249 0.7828 0.47965 0.0
C713 C 0.63662 0.78695 0.49515 0.0
C714 C 0.66574 0.7983 0.47672 0.0
C715 C 0.66285 0.81857 0.48919 0.0
C716 C 0.64598 0.82334 0.50282 0.0
C717 C 0.6331 0.80741 0.50584 0.0
C718 C 0.68355 0.79255 0.46196 0.0
C719 C 0.64211 0.84492 0.51566 0.0
H720 H 0.72123 0.84398 0.52562 0.0
H721 H 0.69997 0.8652 0.44982 0.0
H722 H 0.67733 0.82376 0.54421 0.0
H723 H 0.69195 0.80407 0.52793 0.0
H724 H 0.70291 0.82395 0.55114 0.0
H725 H 0.6675 0.86028 0.43377 0.0
H726 H 0.66585 0.83244 0.43262 0.0
H727 H 0.65098 0.84843 0.4541 0.0
H728 H 0.65525 0.7671 0.4711 0.0
H729 H 0.62073 0.81081 0.51759 0.0
H730 H 0.69627 0.79367 0.47643 0.0
H731 H 0.68558 0.80353 0.44648 0.0
H732 H 0.68302 0.77651 0.45191 0.0
H733 H 0.65131 0.84763 0.53453 0.0
H734 H 0.62694 0.84707 0.52074 0.0
H735 H 0.64565 0.85687 0.5021 0.0
C736 C 0.31145 0.09845 0.72882 0.0
C737 C 0.29722 0.09477 0.74643 0.0
C738 C 0.32652 0.08411 0.72448 0.0
C739 C 0.32738 0.06578 0.73817 0.0
C740 C 0.31383 0.06275 0.75737 0.0
C741 C 0.2989 0.07726 0.76122 0.0
C742 C 0.34076 0.08797 0.704 0.0
C743 C 0.31441 0.04353 0.77271 0.0
C744 C 0.34617 0.01419 0.70838 0.0
C745 C 0.36295 0.01166 0.72472 0.0
C746 C 0.33518 0.03253 0.71112 0.0
C747 C 0.34108 0.04869 0.73073 0.0
C748 C 0.35887 0.04699 0.74553 0.0
C749 C 0.36966 0.02848 0.74228 0.0
C750 C 0.31645 0.03388 0.69456 0.0
C751 C 0.36577 0.06396 0.76642 0.0
H752 H 0.31028 0.11198 0.71733 0.0
H753 H 0.28809 0.07442 0.77507 0.0
H754 H 0.35556 0.08446 0.71179 0.0
H755 H 0.33773 0.07749 0.68546 0.0
H756 H 0.34005 0.10428 0.69845 0.0
H757 H 0.30386 0.04438 0.78853 0.0
H758 H 0.31124 0.02965 0.7585 0.0
H759 H 0.3289 0.04121 0.78238 0.0
H760 H 0.34103 0.00136 0.6945 0.0
H761 H 0.38267 0.02672 0.75491 0.0
H762 H 0.31502 0.04906 0.6857 0.0
H763 H 0.30439 0.03277 0.70778 0.0
H764 H 0.31507 0.02124 0.678 0.0
H765 H 0.36346 0.0795 0.75875 0.0
H766 H 0.38118 0.062 0.77254 0.0
H767 H 0.35745 0.0636 0.7846 0.0
C768 C 0.00742 0.44272 0.03296 0.0
C769 C 0.00227 0.42528 0.01551 0.0
C770 C 0.02189 0.45597 0.02682 0.0
C771 C 0.03121 0.45179 0.00248 0.0
C772 C 0.02669 0.4337 0.9854 0.0
C773 C 0.01237 0.42056 0.99223 0.0
C774 C 0.02663 0.47491 0.04582 0.0
C775 C 0.03623 0.42881 0.9592 0.0
C776 C 0.05028 0.4997 0.97486 0.0
C777 C 0.06969 0.49877 0.9835 0.0
C778 C 0.03775 0.48398 0.97988 0.0
C779 C 0.04477 0.4671 0.99417 0.0
C780 C 0.06451 0.46557 0.00181 0.0
C781 C 0.07677 0.48136 0.9962 0.0
C782 C 0.01683 0.48591 0.97092 0.0
C783 C 0.07251 0.44786 0.01719 0.0
H784 H -0.00025 0.44637 0.05105 0.0
H785 H 0.00845 0.40714 0.97856 0.0
H786 H 0.04229 0.47568 0.05069 0.0
H787 H 0.02228 0.48917 0.03594 0.0
H788 H 0.01927 0.47497 0.06494 0.0
H789 H 0.03233 0.41324 0.94939 0.0
H790 H 0.03189 0.44067 0.94507 0.0
H791 H 0.05202 0.42946 0.96263 0.0
H792 H 0.04475 0.51304 0.9649 0.0
H793 H 0.09176 0.48053 0.00301 0.0
H794 H 0.00818 0.48844 0.98885 0.0
H795 H 0.01187 0.47131 0.95944 0.0
H796 H 0.01397 0.49901 0.95809 0.0
H797 H 0.06681 0.44901 0.03756 0.0
H798 H 0.08839 0.44795 0.01954 0.0
H799 H 0.06793 0.4327 0.00685 0.0
C800 C 0.50898 0.43667 0.53932 0.0
C801 C 0.50548 0.41596 0.52979 0.0
C802 C 0.52523 0.44685 0.53234 0.0
C803 C 0.53823 0.43607 0.5153 0.0
C804 C 0.53556 0.4147 0.50732 0.0
C805 C 0.51923 0.40484 0.51479 0.0
C806 C 0.52777 0.46956 0.54172 0.0
C807 C 0.54915 0.40265 0.48928 0.0
C808 C 0.56242 0.47191 0.47202 0.0
C809 C 0.57986 0.47563 0.48687 0.0
C810 C 0.54917 0.45806 0.48022 0.0
C811 C 0.55344 0.44779 0.50392 0.0
C812 C 0.57152 0.45042 0.51798 0.0
C813 C 0.58455 0.46426 0.50923 0.0
C814 C 0.53013 0.45538 0.4644 0.0
C815 C 0.57664 0.43968 0.54325 0.0
H816 H 0.49849 0.44529 0.55111 0.0
H817 H 0.51664 0.38881 0.50731 0.0
H818 H 0.54253 0.47235 0.55053 0.0
H819 H 0.52558 0.47905 0.52421 0.0
H820 H 0.5175 0.47509 0.55698 0.0
H821 H 0.54677 0.38563 0.48832 0.0
H822 H 0.54705 0.40768 0.46856 0.0
H823 H 0.56423 0.40579 0.49636 0.0
H824 H 0.55875 0.48048 0.4546 0.0
H825 H 0.59805 0.46691 0.52079 0.0
H826 H 0.51858 0.4624 0.47662 0.0
H827 H 0.52694 0.43863 0.45991 0.0
H828 H 0.52976 0.46283 0.44509 0.0
H829 H 0.5682 0.44674 0.55989 0.0
H830 H 0.59208 0.44105 0.54963 0.0
H831 H 0.57299 0.42296 0.54019 0.0
C832 C 0.12156 0.81113 0.98048 0.0
C833 C 0.11806 0.81148 0.00791 0.0
C834 C 0.13582 0.82352 0.97179 0.0
C835 C 0.14663 0.83669 0.99098 0.0
C836 C 0.14164 0.83885 0.01816 0.0
C837 C 0.12745 0.82612 0.02635 0.0
C838 C 0.14062 0.82083 0.94258 0.0
C839 C 0.15251 0.85309 0.03912 0.0
C840 C 0.19922 0.83937 0.97852 0.0
C841 C 0.20032 0.85843 0.96721 0.0
C842 C 0.18188 0.8324 0.98668 0.0
C843 C 0.16515 0.84487 0.98374 0.0
C844 C 0.1662 0.86446 0.9732 0.0
C845 C 0.1838 0.87099 0.96491 0.0
C846 C 0.1814 0.81137 0.99784 0.0
C847 C 0.14871 0.87827 0.97013 0.0
H848 H 0.11423 0.80003 0.96603 0.0
H849 H 0.12458 0.82676 0.04753 0.0
H850 H 0.14311 0.83609 0.93485 0.0
H851 H 0.15402 0.81147 0.9408 0.0
H852 H 0.1291 0.81275 0.92959 0.0
H853 H 0.14459 0.85613 0.05772 0.0
H854 H 0.16652 0.84578 0.04465 0.0
H855 H 0.1554 0.86815 0.03109 0.0
H856 H 0.2119 0.82957 0.98049 0.0
H857 H 0.18454 0.88578 0.95628 0.0
H858 H 0.17153 0.801 0.98486 0.0
H859 H 0.17591 0.81302 0.01832 0.0
H860 H 0.19574 0.80372 0.99908 0.0
H861 H 0.1385 0.87098 0.95434 0.0
H862 H 0.15231 0.89392 0.9644 0.0
H863 H 0.14125 0.8801 0.9892 0.0
C864 C 0.35661 0.51867 0.21556 0.0
C865 C 0.37128 0.5209 0.23604 0.0
C866 C 0.34257 0.53425 0.21271 0.0
C867 C 0.34328 0.55245 0.23075 0.0
C868 C 0.35913 0.5557 0.24956 0.0
C869 C 0.373 0.53989 0.25193 0.0
C870 C 0.32605 0.53035 0.19206 0.0
C871 C 0.36054 0.57499 0.26892 0.0
C872 C 0.30602 0.59457 0.21745 0.0
C873 C 0.29123 0.58884 0.23295 0.0
C874 C 0.32343 0.58336 0.21718 0.0
C875 C 0.32604 0.56614 0.23286 0.0
C876 C 0.31154 0.56104 0.24965 0.0
C877 C 0.29432 0.57244 0.24946 0.0
C878 C 0.33859 0.58928 0.1991 0.0
C879 C 0.31384 0.54293 0.26697 0.0
H880 H 0.35529 0.50417 0.20295 0.0
H881 H 0.38444 0.5419 0.26757 0.0
H882 H 0.31309 0.52672 0.20243 0.0
H883 H 0.32275 0.54441 0.18121 0.0
H884 H 0.32903 0.51712 0.17706 0.0
H885 H 0.37518 0.57694 0.27868 0.0
H886 H 0.35657 0.58908 0.25847 0.0
H887 H 0.35038 0.57387 0.28494 0.0
H888 H 0.30371 0.6072 0.20459 0.0
H889 H 0.28301 0.56804 0.26165 0.0
H890 H 0.33927 0.57743 0.18169 0.0
H891 H 0.35289 0.58963 0.21003 0.0
H892 H 0.33556 0.60467 0.19127 0.0
H893 H 0.31491 0.52819 0.25392 0.0
H894 H 0.30167 0.54178 0.28001 0.0
H895 H 0.32726 0.54443 0.28002 0.0
C896 C 0.49386 0.61764 0.7507 0.0
C897 C 0.5071 0.6288 0.76842 0.0
C898 C 0.47425 0.62265 0.75037 0.0
C899 C 0.4678 0.6393 0.768 0.0
C900 C 0.48087 0.64944 0.78742 0.0
C901 C 0.50035 0.64399 0.7875 0.0
C902 C 0.46068 0.61112 0.72983 0.0
C903 C 0.47457 0.66722 0.80672 0.0
C904 C 0.42756 0.67532 0.74666 0.0
C905 C 0.41332 0.67076 0.76374 0.0
C906 C 0.44498 0.66427 0.74669 0.0
C907 C 0.44816 0.6481 0.76399 0.0
C908 C 0.43323 0.64221 0.7795 0.0
C909 C 0.41597 0.65367 0.77927 0.0
C910 C 0.46049 0.67097 0.72966 0.0
C911 C 0.43591 0.62473 0.7977 0.0
H912 H 0.49891 0.60569 0.7361 0.0
H913 H 0.51042 0.65256 0.80145 0.0
H914 H 0.44711 0.60774 0.73886 0.0
H915 H 0.45708 0.62095 0.71298 0.0
H916 H 0.46707 0.59627 0.72138 0.0
H917 H 0.48607 0.67212 0.8222 0.0
H918 H 0.47032 0.68076 0.79529 0.0
H919 H 0.46189 0.6628 0.81712 0.0
H920 H 0.42558 0.68833 0.73435 0.0
H921 H 0.40496 0.64988 0.79234 0.0
H922 H 0.4664 0.65736 0.71761 0.0
H923 H 0.47242 0.6779 0.74297 0.0
H924 H 0.45522 0.68262 0.71569 0.0
H925 H 0.4433 0.61122 0.7874 0.0
H926 H 0.42204 0.61955 0.80432 0.0
H927 H 0.44501 0.63008 0.8159 0.0
C928 C 0.10587 0.18019 0.50375 0.0
C929 C 0.11304 0.19399 0.48677 0.0
C930 C 0.10321 0.15921 0.49502 0.0
C931 C 0.10707 0.15199 0.46822 0.0
C932 C 0.11295 0.1662 0.45033 0.0
C933 C 0.11634 0.187 0.46004 0.0
C934 C 0.09747 0.14453 0.51511 0.0
C935 C 0.11644 0.15934 0.42133 0.0
C936 C 0.12237 0.09563 0.4649 0.0
C937 C 0.10459 0.08579 0.4613 0.0
C938 C 0.12365 0.11726 0.46507 0.0
C939 C 0.10681 0.12925 0.46039 0.0
C940 C 0.08925 0.11912 0.45311 0.0
C941 C 0.08826 0.09749 0.45412 0.0
C942 C 0.14265 0.12737 0.47335 0.0
C943 C 0.07121 0.13129 0.44652 0.0
H944 H 0.10348 0.18548 0.52452 0.0
H945 H 0.12182 0.1977 0.44686 0.0
H946 H 0.08424 0.13625 0.50746 0.0
H947 H 0.1089 0.13261 0.51786 0.0
H948 H 0.09494 0.1527 0.53514 0.0
H949 H 0.11591 0.17272 0.40868 0.0
H950 H 0.13081 0.15192 0.42021 0.0
H951 H 0.10573 0.14775 0.41272 0.0
H952 H 0.13513 0.08672 0.47013 0.0
H953 H 0.07451 0.08994 0.45082 0.0
H954 H 0.14197 0.13556 0.49379 0.0
H955 H 0.14584 0.13911 0.45937 0.0
H956 H 0.15464 0.11586 0.47382 0.0
H957 H 0.06533 0.13819 0.46548 0.0
H958 H 0.06009 0.12122 0.43549 0.0
H959 H 0.07423 0.14421 0.43416 0.0
C960 C 0.89378 0.3788 0.71184 0.0
C961 C 0.88078 0.38941 0.69519 0.0
C962 C 0.89089 0.358 0.71639 0.0
C963 C 0.87499 0.34735 0.70319 0.0
C964 C 0.86289 0.3574 0.68433 0.0
C965 C 0.86572 0.37848 0.68092 0.0
C966 C 0.90379 0.34816 0.73734 0.0
C967 C 0.84616 0.34637 0.66922 0.0
C968 C 0.87445 0.28944 0.71209 0.0
C969 C 0.86241 0.28898 0.73346 0.0
C970 C 0.87788 0.30819 0.7009 0.0
C971 C 0.86961 0.32693 0.71204 0.0
C972 C 0.85713 0.32644 0.73327 0.0
C973 C 0.85345 0.30742 0.74341 0.0
C974 C 0.89081 0.30805 0.67777 0.0
C975 C 0.8484 0.34613 0.74626 0.0
H976 H 0.9053 0.38723 0.72325 0.0
H977 H 0.85564 0.38667 0.66805 0.0
H978 H 0.89571 0.34642 0.75546 0.0
H979 H 0.90856 0.33242 0.72961 0.0
H980 H 0.91662 0.35767 0.74362 0.0
H981 H 0.84045 0.35484 0.65189 0.0
H982 H 0.85035 0.33035 0.66168 0.0
H983 H 0.83449 0.3451 0.68304 0.0
H984 H 0.88133 0.27517 0.70431 0.0
H985 H 0.8443 0.30719 0.76014 0.0
H986 H 0.90441 0.31587 0.68475 0.0
H987 H 0.88401 0.31686 0.66145 0.0
H988 H 0.8942 0.29202 0.66931 0.0
H989 H 0.85992 0.35657 0.75536 0.0
H990 H 0.83875 0.34301 0.76226 0.0
H991 H 0.84014 0.35463 0.73087 0.0
C992 C 0.58006 0.09913 0.00332 0.0
C993 C 0.5872 0.08565 0.98261 0.0
C994 C 0.58303 0.1206 0.00446 0.0
C995 C 0.59287 0.12888 0.98392 0.0
C996 C 0.59872 0.11554 0.96178 0.0
C997 C 0.59608 0.094 0.96159 0.0
C998 C 0.57702 0.13413 0.02883 0.0
C999 C 0.60878 0.12386 0.93913 0.0
C1000 C 0.59158 0.18791 0.98688 0.0
C1001 C 0.60903 0.19281 0.00117 0.0
C1002 C 0.58656 0.16711 0.9796 0.0
C1003 C 0.59904 0.15092 0.98754 0.0
C1004 C 0.61692 0.15584 0.00125 0.0
C1005 C 0.62179 0.17672 0.00755 0.0
C1006 C 0.56762 0.16246 0.96434 0.0
C1007 C 0.63047 0.13906 0.01068 0.0
H1008 H 0.57338 0.0928 0.01982 0.0
H1009 H 0.60159 0.08362 0.94553 0.0
H1010 H 0.58995 0.13981 0.0411 0.0
H1011 H 0.56885 0.14797 0.02256 0.0
H1012 H 0.56811 0.12563 0.04182 0.0
H1013 H 0.60942 0.11223 0.92142 0.0
H1014 H 0.60144 0.13814 0.93262 0.0
H1015 H 0.62363 0.1281 0.94628 0.0
H1016 H 0.58171 0.20033 0.98181 0.0
H1017 H 0.63523 0.18038 0.0188 0.0
H1018 H 0.55772 0.15591 0.97785 0.0
H1019 H 0.56955 0.15063 0.94717 0.0
H1020 H 0.5608 0.17659 0.95651 0.0
H1021 H 0.62357 0.13031 0.02559 0.0
H1022 H 0.64412 0.14547 0.02021 0.0
H1023 H 0.63381 0.12779 0.9935 0.0
C1024 C 0.86406 0.81293 0.25643 0.0
C1025 C 0.87003 0.79458 0.24202 0.0
C1026 C 0.86751 0.83246 0.2476 0.0
C1027 C 0.87699 0.83373 0.22353 0.0
C1028 C 0.88217 0.81527 0.20809 0.0
C1029 C 0.87871 0.79586 0.2176 0.0
C1030 C 0.86177 0.85176 0.26475 0.0
C1031 C 0.89203 0.81601 0.18213 0.0
C1032 C 0.87291 0.88797 0.20004 0.0
C1033 C 0.88945 0.89714 0.21293 0.0
C1034 C 0.86936 0.86674 0.2013 0.0
C1035 C 0.88258 0.85449 0.21597 0.0
C1036 C 0.90005 0.86324 0.22695 0.0
C1037 C 0.90334 0.88442 0.22512 0.0
C1038 C 0.85074 0.85789 0.18884 0.0
C1039 C 0.91454 0.85074 0.24279 0.0
H1040 H 0.85726 0.81214 0.27525 0.0
H1041 H 0.88332 0.78175 0.20629 0.0
H1042 H 0.87473 0.86057 0.27242 0.0
H1043 H 0.85269 0.86212 0.25249 0.0
H1044 H 0.85378 0.84808 0.28228 0.0
H1045 H 0.8928 0.80048 0.17075 0.0
H1046 H 0.88446 0.82701 0.16907 0.0
H1047 H 0.90682 0.82174 0.18668 0.0
H1048 H 0.86218 0.8976 0.19031 0.0
H1049 H 0.91625 0.89128 0.23494 0.0
H1050 H 0.84076 0.85624 0.20494 0.0
H1051 H 0.85306 0.84221 0.17852 0.0
H1052 H 0.84379 0.86808 0.17411 0.0
H1053 H 0.90875 0.84769 0.26228 0.0
H1054 H 0.92833 0.85897 0.24709 0.0
H1055 H 0.91735 0.83546 0.2317 0.0
C1056 C 0.20205 0.1322 0.78978 0.0
C1057 C 0.203 0.14687 0.77073 0.0
C1058 C 0.18448 0.12758 0.80001 0.0
C1059 C 0.16748 0.13742 0.7903 0.0
C1060 C 0.1685 0.15276 0.77177 0.0
C1061 C 0.18626 0.15748 0.76253 0.0
C1062 C 0.18401 0.11161 0.82034 0.0
C1063 C 0.15068 0.16337 0.76046 0.0
C1064 C 0.11922 0.11168 0.78359 0.0
C1065 C 0.10895 0.12467 0.80174 0.0
C1066 C 0.13876 0.11473 0.78092 0.0
C1067 C 0.14837 0.1307 0.79745 0.0
C1068 C 0.13854 0.14229 0.81785 0.0
C1069 C 0.11883 0.13937 0.81948 0.0
C1070 C 0.14851 0.10232 0.75846 0.0
C1071 C 0.14843 0.15898 0.83646 0.0
H1072 H 0.21496 0.12403 0.79628 0.0
H1073 H 0.18683 0.16875 0.7477 0.0
H1074 H 0.17508 0.11733 0.83715 0.0
H1075 H 0.17743 0.09716 0.81059 0.0
H1076 H 0.19857 0.10772 0.82879 0.0
H1077 H 0.15399 0.17528 0.74668 0.0
H1078 H 0.14118 0.15165 0.74914 0.0
H1079 H 0.14254 0.171 0.77706 0.0
H1080 H 0.11166 0.1004 0.76964 0.0
H1081 H 0.11094 0.14938 0.83362 0.0
H1082 H 0.16272 0.09649 0.76578 0.0
H1083 H 0.15085 0.11252 0.74216 0.0
H1084 H 0.13985 0.08888 0.74967 0.0
H1085 H 0.16298 0.15373 0.8433 0.0
H1086 H 0.14015 0.16343 0.85442 0.0
H1087 H 0.15003 0.17302 0.82549 0.0
C1088 C 0.81244 0.39526 0.02017 0.0
C1089 C 0.81069 0.37677 0.00335 0.0
C1090 C 0.83056 0.40257 0.03002 0.0
C1091 C 0.84719 0.3916 0.02173 0.0
C1092 C 0.84539 0.37252 0.00553 0.0
C1093 C 0.82714 0.36516 0.99699 0.0
C1094 C 0.83188 0.42245 0.04826 0.0
C1095 C 0.86272 0.36058 0.99554 0.0
C1096 C 0.8925 0.41893 0.00914 0.0
C1097 C 0.90559 0.41041 0.02775 0.0
C1098 C 0.87305 0.41406 0.00813 0.0
C1099 C 0.86643 0.40101 0.02691 0.0
C1100 C 0.8792 0.39439 0.04773 0.0
C1101 C 0.89877 0.39881 0.04758 0.0
C1102 C 0.86007 0.42106 0.98516 0.0
C1103 C 0.8725 0.38134 0.06892 0.0
H1104 H 0.79969 0.40419 0.0252 0.0
H1105 H 0.82582 0.35096 0.98376 0.0
H1106 H 0.84335 0.42123 0.06448 0.0
H1107 H 0.83548 0.43545 0.03642 0.0
H1108 H 0.81813 0.42637 0.05763 0.0
H1109 H 0.85882 0.3458 0.98353 0.0
H1110 H 0.87065 0.37026 0.98273 0.0
H1111 H 0.87262 0.3569 0.01277 0.0
H1112 H 0.89766 0.42785 0.99367 0.0
H1113 H 0.90885 0.39234 0.06215 0.0
H1114 H 0.84676 0.42828 0.9928 0.0
H1115 H 0.85587 0.40736 0.97117 0.0
H1116 H 0.86708 0.43239 0.97352 0.0
H1117 H 0.85828 0.38683 0.07551 0.0
H1118 H 0.88281 0.38165 0.08682 0.0
H1119 H 0.87103 0.36497 0.06036 0.0
C1120 C 0.68993 0.11936 0.25462 0.0
C1121 C 0.70747 0.1231 0.26926 0.0
C1122 C 0.67265 0.12064 0.26734 0.0
C1123 C 0.67281 0.1255 0.29559 0.0
C1124 C 0.69049 0.12828 0.3108 0.0
C1125 C 0.70766 0.12721 0.2974 0.0
C1126 C 0.65415 0.11756 0.25024 0.0
C1127 C 0.69127 0.13312 0.34099 0.0
C1128 C 0.62546 0.15061 0.31123 0.0
C1129 C 0.61451 0.13304 0.31414 0.0
C1130 C 0.6452 0.14879 0.30809 0.0
C1131 C 0.65421 0.12898 0.30828 0.0
C1132 C 0.64375 0.11181 0.31499 0.0
C1133 C 0.62395 0.11401 0.31777 0.0
C1134 C 0.65582 0.16759 0.30123 0.0
C1135 C 0.65297 0.09058 0.31628 0.0
H1136 H 0.68957 0.11603 0.2329 0.0
H1137 H 0.72115 0.13003 0.3089 0.0
H1138 H 0.64581 0.10496 0.25753 0.0
H1139 H 0.64526 0.13198 0.25195 0.0
H1140 H 0.65656 0.11353 0.22859 0.0
H1141 H 0.70588 0.13067 0.35032 0.0
H1142 H 0.68703 0.14961 0.34574 0.0
H1143 H 0.6811 0.12337 0.35036 0.0
H1144 H 0.61839 0.16549 0.30896 0.0
H1145 H 0.6157 0.1004 0.32055 0.0
H1146 H 0.65797 0.16628 0.27927 0.0
H1147 H 0.67015 0.16847 0.31204 0.0
H1148 H 0.64782 0.18228 0.30631 0.0
H1149 H 0.6541 0.08319 0.29549 0.0
H1150 H 0.64443 0.08029 0.32753 0.0
H1151 H 0.66765 0.09174 0.32599 0.0
C1152 C 0.89985 0.87468 0.53129 0.0
C1153 C 0.90692 0.89474 0.53838 0.0
C1154 C 0.88022 0.87077 0.53078 0.0
C1155 C 0.86745 0.8871 0.53872 0.0
C1156 C 0.87482 0.90651 0.54963 0.0
C1157 C 0.89449 0.91026 0.54888 0.0
C1158 C 0.87303 0.84986 0.5188 0.0
C1159 C 0.86177 0.92386 0.55991 0.0
C1160 C 0.82123 0.88681 0.49529 0.0
C1161 C 0.80919 0.87556 0.50993 0.0
C1162 C 0.84002 0.89127 0.50498 0.0
C1163 C 0.84673 0.88505 0.53051 0.0
C1164 C 0.83416 0.87505 0.54632 0.0
C1165 C 0.81563 0.86994 0.53553 0.0
C1166 C 0.85303 0.90146 0.48702 0.0
C1167 C 0.84042 0.86896 0.57411 0.0
H1168 H 0.90938 0.86242 0.52373 0.0
H1169 H 0.89989 0.92568 0.55502 0.0
H1170 H 0.86282 0.84355 0.53203 0.0
H1171 H 0.86526 0.85168 0.49901 0.0
H1172 H 0.88484 0.83835 0.51566 0.0
H1173 H 0.86976 0.93585 0.57323 0.0
H1174 H 0.85487 0.93148 0.54261 0.0
H1175 H 0.85024 0.91772 0.57121 0.0
H1176 H 0.81637 0.89104 0.47538 0.0
H1177 H 0.80628 0.86134 0.54695 0.0
H1178 H 0.86529 0.89091 0.48225 0.0
H1179 H 0.85896 0.91597 0.49757 0.0
H1180 H 0.84552 0.90533 0.46776 0.0
H1181 H 0.8477 0.85354 0.57237 0.0
H1182 H 0.82796 0.86774 0.58661 0.0
H1183 H 0.8506 0.88032 0.58472 0.0
C1184 C 0.57506 0.10582 0.18738 0.0
C1185 C 0.58971 0.10831 0.20785 0.0
C1186 C 0.57889 0.09702 0.16151 0.0
C1187 C 0.59775 0.09032 0.15614 0.0
C1188 C 0.61244 0.09206 0.17701 0.0
C1189 C 0.60825 0.10113 0.20258 0.0
C1190 C 0.56289 0.09555 0.13969 0.0
C1191 C 0.63272 0.08497 0.17215 0.0
C1192 C 0.60384 0.05288 0.09422 0.0
C1193 C 0.60958 0.06624 0.07558 0.0
C1194 C 0.60022 0.06047 0.12065 0.0
C1195 C 0.60217 0.08195 0.12849 0.0
C1196 C 0.60806 0.09551 0.10979 0.0
C1197 C 0.61177 0.08746 0.08357 0.0
C1198 C 0.59428 0.04552 0.14019 0.0
C1199 C 0.61028 0.11853 0.1174 0.0
H1200 H 0.56072 0.11145 0.19125 0.0
H1201 H 0.61959 0.10293 0.21834 0.0
H1202 H 0.56628 0.10516 0.12322 0.0
H1203 H 0.56147 0.07927 0.13077 0.0
H1204 H 0.54891 0.10091 0.14735 0.0
H1205 H 0.64175 0.08465 0.19125 0.0
H1206 H 0.63291 0.06923 0.1613 0.0
H1207 H 0.63928 0.09573 0.15928 0.0
H1208 H 0.60226 0.03644 0.0882 0.0
H1209 H 0.61616 0.09786 0.06922 0.0
H1210 H 0.57991 0.04996 0.14715 0.0
H1211 H 0.60441 0.04633 0.15828 0.0
H1212 H 0.59384 0.0292 0.13109 0.0
H1213 H 0.59657 0.12536 0.12427 0.0
H1214 H 0.61467 0.12698 0.10034 0.0
H1215 H 0.62117 0.12111 0.13445 0.0
C1216 C 0.82544 0.75273 0.31613 0.0
C1217 C 0.83903 0.73903 0.32706 0.0
C1218 C 0.81501 0.7667 0.33295 0.0
C1219 C 0.81813 0.76681 0.3613 0.0
C1220 C 0.83034 0.7516 0.37237 0.0
C1221 C 0.84066 0.73788 0.3551 0.0
C1222 C 0.80204 0.78261 0.32032 0.0
C1223 C 0.83385 0.75097 0.40248 0.0
C1224 C 0.81541 0.81977 0.40018 0.0
C1225 C 0.79722 0.81961 0.41046 0.0
C1226 C 0.82242 0.80256 0.38453 0.0
C1227 C 0.81099 0.78463 0.37905 0.0
C1228 C 0.79282 0.78411 0.38992 0.0
C1229 C 0.78612 0.80164 0.40549 0.0
C1230 C 0.84194 0.80373 0.37343 0.0
C1231 C 0.78034 0.76521 0.38466 0.0
H1232 H 0.82396 0.75367 0.2945 0.0
H1233 H 0.85096 0.72718 0.36373 0.0
H1234 H 0.78831 0.78416 0.3303 0.0
H1235 H 0.80902 0.79801 0.32304 0.0
H1236 H 0.79895 0.77856 0.29838 0.0
H1237 H 0.84324 0.76402 0.41047 0.0
H1238 H 0.82024 0.75289 0.41273 0.0
H1239 H 0.84092 0.73619 0.40778 0.0
H1240 H 0.82413 0.83353 0.40399 0.0
H1241 H 0.77206 0.80137 0.41339 0.0
H1242 H 0.84066 0.80161 0.35106 0.0
H1243 H 0.85135 0.79103 0.38051 0.0
H1244 H 0.84901 0.81881 0.3796 0.0
H1245 H 0.77621 0.76269 0.36279 0.0
H1246 H 0.76711 0.76679 0.39591 0.0
H1247 H 0.78837 0.75114 0.39046 0.0
C1248 C 0.23024 0.18685 0.67338 0.0
C1249 C 0.24424 0.17272 0.66386 0.0
C1250 C 0.21647 0.19521 0.65556 0.0
C1251 C 0.2169 0.18954 0.62754 0.0
C1252 C 0.23195 0.17672 0.61762 0.0
C1253 C 0.24545 0.16842 0.63592 0.0
C1254 C 0.20063 0.20883 0.66696 0.0
C1255 C 0.23303 0.17053 0.58784 0.0
C1256 C 0.16826 0.18855 0.58962 0.0
C1257 C 0.16758 0.20796 0.57891 0.0
C1258 C 0.18451 0.18209 0.60476 0.0
C1259 C 0.20052 0.19532 0.60913 0.0
C1260 C 0.20027 0.2145 0.59736 0.0
C1261 C 0.18376 0.22064 0.58245 0.0
C1262 C 0.18425 0.16142 0.61689 0.0
C1263 C 0.21721 0.22882 0.60123 0.0
H1264 H 0.22923 0.19037 0.6949 0.0
H1265 H 0.25628 0.15761 0.62834 0.0
H1266 H 0.19885 0.22315 0.6562 0.0
H1267 H 0.1869 0.20037 0.66397 0.0
H1268 H 0.20334 0.21335 0.68885 0.0
H1269 H 0.2472 0.16361 0.58308 0.0
H1270 H 0.22189 0.15886 0.58127 0.0
H1271 H 0.23023 0.18412 0.57592 0.0
H1272 H 0.15587 0.1786 0.58687 0.0
H1273 H 0.18341 0.2356 0.57406 0.0
H1274 H 0.18561 0.16394 0.63923 0.0
H1275 H 0.19661 0.1516 0.61052 0.0
H1276 H 0.17089 0.15274 0.61091 0.0
H1277 H 0.21911 0.23483 0.62274 0.0
H1278 H 0.21543 0.24225 0.58875 0.0
H1279 H 0.23051 0.22018 0.59602 0.0
C1280 C 0.90824 0.43425 0.80442 0.0
C1281 C 0.89585 0.41937 0.79113 0.0
C1282 C 0.91868 0.43023 0.82844 0.0
C1283 C 0.91662 0.41091 0.83935 0.0
C1284 C 0.90461 0.39558 0.82554 0.0
C1285 C 0.89442 0.39998 0.80157 0.0
C1286 C 0.9315 0.44686 0.84254 0.0
C1287 C 0.90203 0.37478 0.83654 0.0
C1288 C 0.9531 0.39278 0.89219 0.0
C1289 C 0.94373 0.39774 0.91602 0.0
C1290 C 0.94462 0.39735 0.86709 0.0
C1291 C 0.9263 0.407 0.86583 0.0
C1292 C 0.91687 0.41228 0.88983 0.0
C1293 C 0.92573 0.40765 0.91465 0.0
C1294 C 0.95508 0.39151 0.84189 0.0
C1295 C 0.89724 0.42244 0.88926 0.0
H1296 H 0.90944 0.44923 0.79643 0.0
H1297 H 0.88498 0.38832 0.79131 0.0
H1298 H 0.92594 0.45219 0.86237 0.0
H1299 H 0.94612 0.44046 0.84649 0.0
H1300 H 0.93244 0.46052 0.83059 0.0
H1301 H 0.89299 0.36415 0.82259 0.0
H1302 H 0.91613 0.36711 0.8404 0.0
H1303 H 0.89523 0.3771 0.85611 0.0
H1304 H 0.96701 0.38513 0.89308 0.0
H1305 H 0.91836 0.41148 0.93297 0.0
H1306 H 0.95648 0.40534 0.83044 0.0
H1307 H 0.94676 0.37984 0.82857 0.0
H1308 H 0.96959 0.38495 0.84644 0.0
H1309 H 0.89746 0.43707 0.87914 0.0
H1310 H 0.89208 0.42604 0.90979 0.0
H1311 H 0.88681 0.41202 0.87741 0.0
C1312 C 0.22807 0.57391 0.12376 0.0
C1313 C 0.21482 0.57682 0.14381 0.0
C1314 C 0.22218 0.5668 0.09718 0.0
C1315 C 0.20257 0.56297 0.09052 0.0
C1316 C 0.18936 0.56469 0.11104 0.0
C1317 C 0.19569 0.57141 0.1375 0.0
C1318 C 0.23678 0.56449 0.07605 0.0
C1319 C 0.16828 0.56081 0.10477 0.0
C1320 C 0.17744 0.57348 0.02399 0.0
C1321 C 0.17141 0.55345 0.01447 0.0
C1322 C 0.18907 0.57672 0.04782 0.0
C1323 C 0.19524 0.55944 0.06194 0.0
C1324 C 0.19139 0.53905 0.05041 0.0
C1325 C 0.17936 0.53627 0.02684 0.0
C1326 C 0.19281 0.59876 0.05944 0.0
C1327 C 0.19836 0.52021 0.06431 0.0
H1328 H 0.24295 0.57782 0.12862 0.0
H1329 H 0.18539 0.57355 0.1529 0.0
H1330 H 0.23422 0.5502 0.06236 0.0
H1331 H 0.23552 0.57793 0.06358 0.0
H1332 H 0.25163 0.5639 0.08525 0.0
H1333 H 0.16002 0.56212 0.12318 0.0
H1334 H 0.16237 0.57226 0.09096 0.0
H1335 H 0.16608 0.54511 0.0943 0.0
H1336 H 0.17154 0.58685 0.01443 0.0
H1337 H 0.17501 0.5207 0.01931 0.0
H1338 H 0.20803 0.60064 0.06664 0.0
H1339 H 0.18401 0.60239 0.07706 0.0
H1340 H 0.18917 0.61027 0.04452 0.0
H1341 H 0.21314 0.52244 0.07338 0.0
H1342 H 0.19807 0.50595 0.05015 0.0
H1343 H 0.18896 0.51777 0.08084 0.0
C1344 C 0.55779 0.22079 0.09923 0.0
C1345 C 0.56491 0.24048 0.09576 0.0
C1346 C 0.55741 0.21372 0.12499 0.0
C1347 C 0.56393 0.22684 0.14782 0.0
C1348 C 0.56904 0.24755 0.14468 0.0
C1349 C 0.56956 0.25412 0.11862 0.0
C1350 C 0.55183 0.19151 0.12747 0.0
C1351 C 0.57556 0.26219 0.16859 0.0
C1352 C 0.55661 0.20539 0.21485 0.0
C1353 C 0.57421 0.1952 0.21975 0.0
C1354 C 0.55336 0.21689 0.1923 0.0
C1355 C 0.56794 0.21787 0.17407 0.0
C1356 C 0.58608 0.20854 0.1797 0.0
C1357 C 0.58903 0.19747 0.20261 0.0
C1358 C 0.53402 0.22705 0.18728 0.0
C1359 C 0.60202 0.20915 0.16068 0.0
H1360 H 0.55401 0.21018 0.08174 0.0
H1361 H 0.57484 0.26947 0.11614 0.0
H1362 H 0.56478 0.18227 0.13307 0.0
H1363 H 0.54174 0.19074 0.14363 0.0
H1364 H 0.54508 0.18414 0.10832 0.0
H1365 H 0.57538 0.27861 0.16348 0.0
H1366 H 0.56639 0.2609 0.18572 0.0
H1367 H 0.59041 0.258 0.17542 0.0
H1368 H 0.54515 0.20384 0.22816 0.0
H1369 H 0.60267 0.18966 0.20626 0.0
H1370 H 0.52596 0.21812 0.17037 0.0
H1371 H 0.53562 0.24308 0.18137 0.0
H1372 H 0.5254 0.22769 0.20532 0.0
H1373 H 0.59772 0.20047 0.14111 0.0
H1374 H 0.61559 0.20219 0.16879 0.0
H1375 H 0.60477 0.2254 0.15655 0.0
C1376 C 0.8437 0.91987 0.31234 0.0
C1377 C 0.83937 0.9348 0.29397 0.0
C1378 C 0.83125 0.9164 0.33235 0.0
C1379 C 0.81399 0.92811 0.33399 0.0
C1380 C 0.80946 0.94314 0.31545 0.0
C1381 C 0.82223 0.94633 0.29562 0.0
C1382 C 0.8366 0.9002 0.35177 0.0
C1383 C 0.79121 0.95593 0.31672 0.0
C1384 C 0.77694 0.90281 0.37206 0.0
C1385 C 0.78046 0.91236 0.39822 0.0
C1386 C 0.78697 0.90867 0.3505 0.0
C1387 C 0.80083 0.92445 0.35526 0.0
C1388 C 0.80349 0.93513 0.38119 0.0
C1389 C 0.79322 0.92899 0.40238 0.0
C1390 C 0.78367 0.897 0.32308 0.0
C1391 C 0.81817 0.95203 0.38702 0.0
H1392 H 0.85695 0.91095 0.31128 0.0
H1393 H 0.81884 0.95794 0.28153 0.0
H1394 H 0.83695 0.90736 0.37283 0.0
H1395 H 0.82564 0.88789 0.34987 0.0
H1396 H 0.85077 0.89282 0.34815 0.0
H1397 H 0.7897 0.96685 0.30063 0.0
H1398 H 0.77865 0.94556 0.31475 0.0
H1399 H 0.79088 0.96503 0.33661 0.0
H1400 H 0.767 0.89005 0.36861 0.0
H1401 H 0.79599 0.93651 0.4225 0.0
H1402 H 0.79634 0.88698 0.31864 0.0
H1403 H 0.78189 0.90798 0.30714 0.0
H1404 H 0.77085 0.88699 0.32191 0.0
H1405 H 0.83276 0.94506 0.38629 0.0
H1406 H 0.81685 0.96049 0.4072 0.0
H1407 H 0.81673 0.96338 0.3715 0.0
C1408 C 0.18387 0.07079 0.54058 0.0
C1409 C 0.17217 0.05361 0.54228 0.0
C1410 C 0.19425 0.07981 0.56347 0.0
C1411 C 0.19285 0.07143 0.58858 0.0
C1412 C 0.18223 0.05317 0.59 0.0
C1413 C 0.1721 0.04439 0.56677 0.0
C1414 C 0.20562 0.09917 0.56115 0.0
C1415 C 0.18035 0.04382 0.61645 0.0
C1416 C 0.22679 0.09001 0.64778 0.0
C1417 C 0.21572 0.1056 0.661 0.0
C1418 C 0.21956 0.07869 0.62415 0.0
C1419 C 0.20077 0.08297 0.61372 0.0
C1420 C 0.18943 0.09849 0.62721 0.0
C1421 C 0.19708 0.10967 0.65061 0.0
C1422 C 0.23208 0.06239 0.61013 0.0
C1423 C 0.16924 0.10337 0.61684 0.0
H1424 H 0.18411 0.07793 0.52171 0.0
H1425 H 0.16316 0.03107 0.56829 0.0
H1426 H 0.19832 0.11279 0.57135 0.0
H1427 H 0.22008 0.09783 0.57135 0.0
H1428 H 0.20718 0.10222 0.5398 0.0
H1429 H 0.17357 0.0283 0.6136 0.0
H1430 H 0.19457 0.04225 0.62725 0.0
H1431 H 0.17145 0.05428 0.62956 0.0
H1432 H 0.24126 0.08688 0.65562 0.0
H1433 H 0.18844 0.12169 0.66073 0.0
H1434 H 0.23435 0.06653 0.58943 0.0
H1435 H 0.2249 0.04712 0.60815 0.0
H1436 H 0.24626 0.06071 0.6211 0.0
H1437 H 0.1693 0.10841 0.59612 0.0
H1438 H 0.16233 0.11582 0.62982 0.0
H1439 H 0.16038 0.08922 0.61576 0.0
C1440 C 0.44192 0.32294 0.44875 0.0
C1441 C 0.42975 0.32904 0.46938 0.0
C1442 C 0.43548 0.30967 0.42639 0.0
C1443 C 0.41655 0.30211 0.42493 0.0
C1444 C 0.40482 0.30676 0.44684 0.0
C1445 C 0.41153 0.32029 0.46875 0.0
C1446 C 0.44836 0.30522 0.40333 0.0
C1447 C 0.38468 0.2987 0.44628 0.0
C1448 C 0.39077 0.29418 0.35581 0.0
C1449 C 0.39237 0.27261 0.35009 0.0
C1450 C 0.39871 0.30392 0.38004 0.0
C1451 C 0.40821 0.29174 0.39923 0.0
C1452 C 0.40968 0.26991 0.39375 0.0
C1453 C 0.40186 0.2606 0.36909 0.0
C1454 C 0.39703 0.3273 0.38499 0.0
C1455 C 0.41939 0.25643 0.41398 0.0
H1456 H 0.456 0.32971 0.44908 0.0
H1457 H 0.40212 0.32484 0.48477 0.0
H1458 H 0.44834 0.28843 0.3964 0.0
H1459 H 0.4429 0.31383 0.38603 0.0
H1460 H 0.46334 0.31 0.40896 0.0
H1461 H 0.37861 0.30099 0.46641 0.0
H1462 H 0.37535 0.30706 0.43183 0.0
H1463 H 0.3843 0.28192 0.43932 0.0
H1464 H 0.38353 0.30356 0.34115 0.0
H1465 H 0.40301 0.24389 0.36481 0.0
H1466 H 0.41147 0.33413 0.38881 0.0
H1467 H 0.38898 0.33147 0.40321 0.0
H1468 H 0.38962 0.33453 0.36769 0.0
H1469 H 0.4345 0.26113 0.41831 0.0
H1470 H 0.41913 0.23966 0.40676 0.0
H1471 H 0.41224 0.2586 0.43329 0.0
C1472 C 0.06787 0.69315 0.22497 0.0
C1473 C 0.08128 0.67683 0.22155 0.0
C1474 C 0.06563 0.70827 0.2063 0.0
C1475 C 0.07703 0.70697 0.18373 0.0
C1476 C 0.09131 0.69121 0.18103 0.0
C1477 C 0.0933 0.6764 0.20003 0.0
C1478 C 0.05042 0.72498 0.20999 0.0
C1479 C 0.10391 0.68938 0.15737 0.0
C1480 C 0.06018 0.72522 0.11601 0.0
C1481 C 0.0719 0.74242 0.11464 0.0
C1482 C 0.0607 0.71437 0.13925 0.0
C1483 C 0.07323 0.72091 0.16167 0.0
C1484 C 0.08381 0.73932 0.16129 0.0
C1485 C 0.08298 0.74991 0.13778 0.0
C1486 C 0.04905 0.69488 0.13891 0.0
C1487 C 0.0972 0.74691 0.18484 0.0
H1488 H 0.05855 0.69362 0.24159 0.0
H1489 H 0.10384 0.66399 0.1974 0.0
H1490 H 0.05631 0.74046 0.20736 0.0
H1491 H 0.03856 0.72208 0.19437 0.0
H1492 H 0.04445 0.72543 0.23017 0.0
H1493 H 0.11439 0.67629 0.15838 0.0
H1494 H 0.09496 0.68691 0.13822 0.0
H1495 H 0.11185 0.704 0.15663 0.0
H1496 H 0.05144 0.71943 0.09834 0.0
H1497 H 0.09205 0.76325 0.13702 0.0
H1498 H 0.0414 0.69481 0.15772 0.0
H1499 H 0.05876 0.68108 0.13785 0.0
H1500 H 0.03841 0.69328 0.12139 0.0
H1501 H 0.09042 0.74594 0.20422 0.0
H1502 H 0.10163 0.7632 0.18345 0.0
H1503 H 0.11025 0.73688 0.18521 0.0
C1504 C 0.90648 0.26421 0.86192 0.0
C1505 C 0.89505 0.27639 0.84511 0.0
C1506 C 0.91482 0.27287 0.8866 0.0
C1507 C 0.9119 0.29425 0.89429 0.0
C1508 C 0.90058 0.30667 0.87717 0.0
C1509 C 0.89215 0.29753 0.85291 0.0
C1510 C 0.92651 0.25913 0.90459 0.0
C1511 C 0.89737 0.32963 0.88445 0.0
C1512 C 0.91643 0.31861 0.96613 0.0
C1513 C 0.9339 0.32891 0.96639 0.0
C1514 C 0.90968 0.30596 0.94335 0.0
C1515 C 0.92055 0.30386 0.92024 0.0
C1516 C 0.93881 0.31302 0.92111 0.0
C1517 C 0.94537 0.32528 0.94432 0.0
C1518 C 0.89028 0.29611 0.94334 0.0
C1519 C 0.95072 0.31139 0.89676 0.0
H1520 H 0.90858 0.2478 0.85607 0.0
H1521 H 0.88335 0.307 0.83994 0.0
H1522 H 0.94121 0.26524 0.90856 0.0
H1523 H 0.92004 0.25921 0.92436 0.0
H1524 H 0.92746 0.24281 0.89562 0.0
H1525 H 0.88826 0.33706 0.86881 0.0
H1526 H 0.8904 0.33205 0.90388 0.0
H1527 H 0.91132 0.33768 0.88712 0.0
H1528 H 0.90756 0.32129 0.98319 0.0
H1529 H 0.95885 0.33326 0.9443 0.0
H1530 H 0.89088 0.27963 0.935 0.0
H1531 H 0.87982 0.30436 0.93025 0.0
H1532 H 0.8849 0.29678 0.96391 0.0
H1533 H 0.95154 0.29508 0.88786 0.0
H1534 H 0.96549 0.31712 0.90175 0.0
H1535 H 0.94386 0.3208 0.88111 0.0
C1536 C 0.18771 0.61177 0.25684 0.0
C1537 C 0.20124 0.62689 0.26627 0.0
C1538 C 0.16947 0.612 0.26698 0.0
C1539 C 0.16469 0.62749 0.28735 0.0
C1540 C 0.17845 0.64242 0.29757 0.0
C1541 C 0.19654 0.64201 0.2868 0.0
C1542 C 0.15507 0.59613 0.25512 0.0
C1543 C 0.17384 0.6592 0.31929 0.0
C1544 C 0.11189 0.63979 0.29547 0.0
C1545 C 0.10816 0.62839 0.31714 0.0
C1546 C 0.13027 0.63984 0.28564 0.0
C1547 C 0.14523 0.62811 0.29784 0.0
C1548 C 0.14155 0.6167 0.31991 0.0
C1549 C 0.12309 0.61706 0.32936 0.0
C1550 C 0.13354 0.65223 0.26201 0.0
C1551 C 0.15711 0.60404 0.33348 0.0
H1552 H 0.19109 0.60014 0.24078 0.0
H1553 H 0.20688 0.65379 0.29411 0.0
H1554 H 0.1489 0.58812 0.27133 0.0
H1555 H 0.14313 0.60415 0.24433 0.0
H1556 H 0.16141 0.58426 0.24069 0.0
H1557 H 0.18632 0.66921 0.32573 0.0
H1558 H 0.16191 0.66915 0.3118 0.0
H1559 H 0.16901 0.65212 0.33717 0.0
H1560 H 0.10053 0.64902 0.28666 0.0
H1561 H 0.12028 0.60829 0.34625 0.0
H1562 H 0.14745 0.66031 0.26475 0.0
H1563 H 0.12202 0.66401 0.25896 0.0
H1564 H 0.13385 0.6415 0.24341 0.0
H1565 H 0.16263 0.5919 0.31869 0.0
H1566 H 0.15198 0.59635 0.35074 0.0
H1567 H 0.16929 0.61415 0.3409 0.0
C1568 C 0.30346 0.87442 0.03497 0.0
C1569 C 0.3002 0.87289 0.0068 0.0
C1570 C 0.32166 0.87952 0.04714 0.0
C1571 C 0.33688 0.88292 0.03068 0.0
C1572 C 0.33354 0.88171 0.00228 0.0
C1573 C 0.31529 0.87681 0.99077 0.0
C1574 C 0.32467 0.88087 0.07747 0.0
C1575 C 0.34937 0.88519 0.98388 0.0
C1576 C 0.38283 0.91166 0.04779 0.0
C1577 C 0.39611 0.89513 0.04571 0.0
C1578 C 0.36309 0.9079 0.04625 0.0
C1579 C 0.3566 0.88717 0.04243 0.0
C1580 C 0.36996 0.87051 0.04397 0.0
C1581 C 0.3896 0.87471 0.04579 0.0
C1582 C 0.34931 0.92612 0.04546 0.0
C1583 C 0.36368 0.84816 0.04025 0.0
H1584 H 0.29187 0.87145 0.0475 0.0
H1585 H 0.31297 0.87575 0.96899 0.0
H1586 H 0.33384 0.86766 0.08354 0.0
H1587 H 0.33221 0.89538 0.08501 0.0
H1588 H 0.31095 0.88041 0.08746 0.0
H1589 H 0.34431 0.88384 0.96224 0.0
H1590 H 0.35548 0.90088 0.98891 0.0
H1591 H 0.36111 0.87367 0.98681 0.0
H1592 H 0.38772 0.92753 0.04832 0.0
H1593 H 0.39975 0.86181 0.04475 0.0
H1594 H 0.33631 0.9233 0.05618 0.0
H1595 H 0.34471 0.9283 0.02416 0.0
H1596 H 0.35601 0.94074 0.05459 0.0
H1597 H 0.35071 0.84593 0.05128 0.0
H1598 H 0.37514 0.83737 0.04723 0.0
H1599 H 0.36006 0.84388 0.0185 0.0
C1600 C 0.09741 0.60931 0.97144 0.0
C1601 C 0.09282 0.60164 0.99567 0.0
C1602 C 0.09832 0.63084 0.96919 0.0
C1603 C 0.09522 0.64487 0.99199 0.0
C1604 C 0.09007 0.63716 0.01626 0.0
C1605 C 0.08865 0.61567 0.01764 0.0
C1606 C 0.10328 0.63852 0.94277 0.0
C1607 C 0.08715 0.65152 0.0413 0.0
C1608 C 0.12054 0.69644 0.0031 0.0
C1609 C 0.10519 0.71057 0.00087 0.0
C1610 C 0.11763 0.67496 0.999 0.0
C1611 C 0.099 0.66745 0.99161 0.0
C1612 C 0.08373 0.68171 0.98718 0.0
C1613 C 0.08693 0.70315 0.99238 0.0
C1614 C 0.13422 0.66035 0.00479 0.0
C1615 C 0.0638 0.67431 0.97848 0.0
H1616 H 0.10059 0.59849 0.95439 0.0
H1617 H 0.0853 0.60982 0.03653 0.0
H1618 H 0.09339 0.65134 0.93729 0.0
H1619 H 0.11797 0.64484 0.94481 0.0
H1620 H 0.10262 0.62595 0.92608 0.0
H1621 H 0.08269 0.64307 0.05832 0.0
H1622 H 0.10066 0.65974 0.0478 0.0
H1623 H 0.07611 0.66352 0.03697 0.0
H1624 H 0.13464 0.70207 0.01004 0.0
H1625 H 0.07505 0.71407 0.99064 0.0
H1626 H 0.13545 0.64818 0.98787 0.0
H1627 H 0.13167 0.65237 0.02308 0.0
H1628 H 0.14805 0.6686 0.00825 0.0
H1629 H 0.06426 0.66159 0.96207 0.0
H1630 H 0.05444 0.68709 0.97141 0.0
H1631 H 0.05724 0.66802 0.99572 0.0
C1632 C 0.37203 0.87899 0.69669 0.0
C1633 C 0.3878 0.88955 0.70976 0.0
C1634 C 0.36978 0.8576 0.69858 0.0
C1635 C 0.38353 0.84662 0.71411 0.0
C1636 C 0.40036 0.85676 0.7251 0.0
C1637 C 0.40237 0.87807 0.72259 0.0
C1638 C 0.35186 0.84724 0.68597 0.0
C1639 C 0.41539 0.84565 0.74182 0.0
C1640 C 0.36636 0.80541 0.75628 0.0
C1641 C 0.3733 0.78702 0.74298 0.0
C1642 C 0.36916 0.82478 0.74659 0.0
C1643 C 0.37894 0.82586 0.72273 0.0
C1644 C 0.38521 0.80731 0.70846 0.0
C1645 C 0.38243 0.78808 0.71886 0.0
C1646 C 0.36229 0.84419 0.76255 0.0
C1647 C 0.39538 0.80783 0.68272 0.0
H1648 H 0.3608 0.88766 0.68641 0.0
H1649 H 0.41472 0.886 0.73254 0.0
H1650 H 0.35516 0.83146 0.67663 0.0
H1651 H 0.34172 0.84549 0.70185 0.0
H1652 H 0.34463 0.85649 0.67041 0.0
H1653 H 0.42871 0.85479 0.74581 0.0
H1654 H 0.40968 0.84291 0.76148 0.0
H1655 H 0.41903 0.83027 0.73163 0.0
H1656 H 0.35924 0.80479 0.77489 0.0
H1657 H 0.38777 0.77394 0.7084 0.0
H1658 H 0.35273 0.85352 0.74951 0.0
H1659 H 0.3747 0.85402 0.76987 0.0
H1660 H 0.35442 0.84062 0.78024 0.0
H1661 H 0.38742 0.81788 0.66876 0.0
H1662 H 0.39712 0.79207 0.67226 0.0
H1663 H 0.40978 0.8146 0.68735 0.0
C1664 C 0.41583 0.75568 0.85527 0.0
C1665 C 0.41573 0.76561 0.83132 0.0
C1666 C 0.41991 0.76674 0.88038 0.0
C1667 C 0.42345 0.78832 0.88151 0.0
C1668 C 0.42393 0.79826 0.85732 0.0
C1669 C 0.42029 0.78671 0.83247 0.0
C1670 C 0.41973 0.75552 0.90571 0.0
C1671 C 0.42728 0.82134 0.85771 0.0
C1672 C 0.4105 0.8232 0.94288 0.0
C1673 C 0.42861 0.82867 0.95468 0.0
C1674 C 0.40861 0.8096 0.91943 0.0
C1675 C 0.42524 0.80089 0.9079 0.0
C1676 C 0.44351 0.8054 0.92061 0.0
C1677 C 0.445 0.81947 0.9437 0.0
C1678 C 0.38887 0.80543 0.90622 0.0
C1679 C 0.46151 0.79595 0.90927 0.0
H1680 H 0.4124 0.73932 0.85439 0.0
H1681 H 0.42005 0.79448 0.81401 0.0
H1682 H 0.4327 0.75929 0.91905 0.0
H1683 H 0.40713 0.76073 0.91707 0.0
H1684 H 0.41906 0.73838 0.90124 0.0
H1685 H 0.42794 0.82653 0.83711 0.0
H1686 H 0.41554 0.83006 0.86783 0.0
H1687 H 0.44084 0.82554 0.86944 0.0
H1688 H 0.39778 0.83036 0.95117 0.0
H1689 H 0.45902 0.82358 0.95288 0.0
H1690 H 0.38634 0.78847 0.90312 0.0
H1691 H 0.38774 0.81157 0.88605 0.0
H1692 H 0.37736 0.81276 0.91834 0.0
H1693 H 0.46003 0.77887 0.90514 0.0
H1694 H 0.47434 0.79915 0.92317 0.0
H1695 H 0.46387 0.80236 0.88982 0.0
C1696 C 0.09334 0.24762 0.63181 0.0
C1697 C 0.091 0.23118 0.6116 0.0
C1698 C 0.09014 0.24478 0.6588 0.0
C1699 C 0.08483 0.22496 0.66569 0.0
C1700 C 0.08177 0.20854 0.64522 0.0
C1701 C 0.08472 0.21192 0.61843 0.0
C1702 C 0.09314 0.26272 0.68003 0.0
C1703 C 0.07628 0.18707 0.65171 0.0
C1704 C 0.09745 0.20385 0.73295 0.0
C1705 C 0.07926 0.20237 0.74282 0.0
C1706 C 0.09975 0.21273 0.70867 0.0
C1707 C 0.08351 0.22067 0.69432 0.0
C1708 C 0.06549 0.22128 0.70576 0.0
C1709 C 0.06354 0.21194 0.72981 0.0
C1710 C 0.11922 0.21167 0.69712 0.0
C1711 C 0.04794 0.23007 0.69141 0.0
H1712 H 0.09812 0.26256 0.62665 0.0
H1713 H 0.08291 0.1991 0.603 0.0
H1714 H 0.08096 0.26418 0.69332 0.0
H1715 H 0.10624 0.25982 0.69294 0.0
H1716 H 0.09475 0.2777 0.67102 0.0
H1717 H 0.07362 0.1763 0.6333 0.0
H1718 H 0.08791 0.18033 0.66457 0.0
H1719 H 0.0632 0.18794 0.66322 0.0
H1720 H 0.10969 0.19651 0.74289 0.0
H1721 H 0.04946 0.21103 0.73755 0.0
H1722 H 0.12266 0.22671 0.68948 0.0
H1723 H 0.11915 0.19965 0.67979 0.0
H1724 H 0.13073 0.20761 0.71222 0.0
H1725 H 0.05127 0.2448 0.68285 0.0
H1726 H 0.03606 0.23301 0.70507 0.0
H1727 H 0.04294 0.21886 0.67441 0.0
C1728 C 0.30906 0.81033 0.88974 0.0
C1729 C 0.29051 0.80989 0.89875 0.0
C1730 C 0.31689 0.79308 0.8751 0.0
C1731 C 0.30587 0.77491 0.86914 0.0
C1732 C 0.28718 0.77424 0.87834 0.0
C1733 C 0.27972 0.79176 0.89312 0.0
C1734 C 0.33698 0.79439 0.86587 0.0
C1735 C 0.27506 0.75512 0.87237 0.0
C1736 C 0.32466 0.7423 0.80968 0.0
C1737 C 0.33795 0.72942 0.82275 0.0
C1738 C 0.31277 0.75609 0.82454 0.0
C1739 C 0.31414 0.75685 0.85306 0.0
C1740 C 0.32595 0.74227 0.86612 0.0
C1741 C 0.33771 0.72868 0.85079 0.0
C1742 C 0.30021 0.77124 0.80981 0.0
C1743 C 0.32767 0.74239 0.89648 0.0
H1744 H 0.31754 0.82423 0.89409 0.0
H1745 H 0.26536 0.79132 0.89999 0.0
H1746 H 0.34615 0.78193 0.87407 0.0
H1747 H 0.33676 0.79198 0.84354 0.0
H1748 H 0.34367 0.80961 0.87236 0.0
H1749 H 0.261 0.75689 0.88155 0.0
H1750 H 0.27252 0.7518 0.85024 0.0
H1751 H 0.2827 0.74141 0.88005 0.0
H1752 H 0.32458 0.74286 0.788 0.0
H1753 H 0.34772 0.71856 0.86105 0.0
H1754 H 0.30693 0.78678 0.81223 0.0
H1755 H 0.28596 0.7729 0.81837 0.0
H1756 H 0.29822 0.76638 0.7879 0.0
H1757 H 0.33646 0.75578 0.90501 0.0
H1758 H 0.3346 0.72792 0.90315 0.0
H1759 H 0.31341 0.74424 0.90498 0.0
C1760 C 0.90403 0.9243 0.4212 0.0
C1761 C 0.92176 0.92666 0.43578 0.0
C1762 C 0.89991 0.93464 0.39785 0.0
C1763 C 0.91377 0.94785 0.3891 0.0
C1764 C 0.93124 0.95122 0.40458 0.0
C1765 C 0.93508 0.94048 0.42767 0.0
C1766 C 0.8811 0.9306 0.38182 0.0
C1767 C 0.9462 0.96548 0.39614 0.0
C1768 C 0.91073 0.95233 0.31371 0.0
C1769 C 0.8995 0.97041 0.31165 0.0
C1770 C 0.91616 0.94527 0.33893 0.0
C1771 C 0.9105 0.95677 0.36266 0.0
C1772 C 0.90041 0.97584 0.3608 0.0
C1773 C 0.89492 0.98239 0.33527 0.0
C1774 C 0.92685 0.92478 0.34005 0.0
C1775 C 0.89442 0.98871 0.38568 0.0
H1776 H 0.89365 0.91368 0.42734 0.0
H1777 H 0.94875 0.94252 0.43899 0.0
H1778 H 0.87368 0.94547 0.37796 0.0
H1779 H 0.8838 0.92237 0.36191 0.0
H1780 H 0.87139 0.92101 0.3923 0.0
H1781 H 0.95804 0.9682 0.41188 0.0
H1782 H 0.95234 0.95856 0.37737 0.0
H1783 H 0.93965 0.98068 0.39169 0.0
H1784 H 0.91431 0.94293 0.29559 0.0
H1785 H 0.88632 0.99643 0.33384 0.0
H1786 H 0.91753 0.91321 0.34779 0.0
H1787 H 0.93971 0.92655 0.35416 0.0
H1788 H 0.93139 0.91852 0.31995 0.0
H1789 H 0.88282 0.9807 0.39471 0.0
H1790 H 0.8891 0.00441 0.38105 0.0
H1791 H 0.90655 0.99046 0.40107 0.0
C1792 C 0.61318 0.60382 0.69773 0.0
C1793 C 0.59412 0.60871 0.70309 0.0
C1794 C 0.61797 0.59463 0.67248 0.0
C1795 C 0.60331 0.59046 0.65197 0.0
C1796 C 0.58399 0.59501 0.65737 0.0
C1797 C 0.5796 0.60397 0.68294 0.0
C1798 C 0.63877 0.59002 0.66763 0.0
C1799 C 0.568 0.59089 0.63592 0.0
C1800 C 0.61645 0.58588 0.57896 0.0
C1801 C 0.61635 0.56428 0.57282 0.0
C1802 C 0.61232 0.59465 0.60471 0.0
C1803 C 0.60815 0.58145 0.62479 0.0
C1804 C 0.60834 0.55963 0.61881 0.0
C1805 C 0.61233 0.5513 0.59283 0.0
C1806 C 0.61227 0.61801 0.61034 0.0
C1807 C 0.60437 0.54508 0.63991 0.0
H1808 H 0.62444 0.60741 0.71319 0.0
H1809 H 0.56484 0.60783 0.68686 0.0
H1810 H 0.64056 0.57463 0.65626 0.0
H1811 H 0.64418 0.60194 0.65537 0.0
H1812 H 0.64779 0.5903 0.6868 0.0
H1813 H 0.55371 0.59512 0.64344 0.0
H1814 H 0.57027 0.59995 0.61847 0.0
H1815 H 0.56801 0.57421 0.62842 0.0
H1816 H 0.61951 0.59598 0.56352 0.0
H1817 H 0.6124 0.53458 0.58824 0.0
H1818 H 0.62309 0.62257 0.6269 0.0
H1819 H 0.59811 0.62353 0.6171 0.0
H1820 H 0.61546 0.62607 0.59234 0.0
H1821 H 0.6147 0.54784 0.65761 0.0
H1822 H 0.60539 0.52847 0.63214 0.0
H1823 H 0.58982 0.54821 0.64709 0.0
C1824 C 0.78126 0.31117 0.90208 0.0
C1825 C 0.79263 0.32899 0.90528 0.0
C1826 C 0.78765 0.29279 0.88804 0.0
C1827 C 0.80581 0.29228 0.877 0.0
C1828 C 0.8174 0.31017 0.88036 0.0
C1829 C 0.81066 0.3283 0.89443 0.0
C1830 C 0.775 0.27396 0.88497 0.0
C1831 C 0.83696 0.3102 0.86905 0.0
C1832 C 0.83489 0.24354 0.85989 0.0
C1833 C 0.83339 0.24228 0.83159 0.0
C1834 C 0.8248 0.25886 0.87515 0.0
C1835 C 0.81289 0.27317 0.86175 0.0
C1836 C 0.80986 0.27068 0.83332 0.0
C1837 C 0.82007 0.25516 0.81856 0.0
C1838 C 0.82828 0.26086 0.90546 0.0
C1839 C 0.79721 0.28557 0.81828 0.0
H1840 H 0.76732 0.31158 0.91045 0.0
H1841 H 0.81957 0.34196 0.89688 0.0
H1842 H 0.77164 0.2693 0.86327 0.0
H1843 H 0.78262 0.26064 0.8937 0.0
H1844 H 0.76135 0.27683 0.89499 0.0
H1845 H 0.84413 0.32544 0.87333 0.0
H1846 H 0.84629 0.29808 0.87776 0.0
H1847 H 0.83568 0.30641 0.84688 0.0
H1848 H 0.84497 0.23352 0.87019 0.0
H1849 H 0.81862 0.25416 0.79672 0.0
H1850 H 0.81469 0.26401 0.91546 0.0
H1851 H 0.83787 0.27416 0.91152 0.0
H1852 H 0.83513 0.24663 0.91298 0.0
H1853 H 0.78345 0.28833 0.82799 0.0
H1854 H 0.79414 0.27977 0.79684 0.0
H1855 H 0.80443 0.30077 0.81884 0.0
C1856 C 0.12221 0.58107 0.10084 0.0
C1857 C 0.1179 0.56209 0.08609 0.0
C1858 C 0.11868 0.5843 0.12828 0.0
C1859 C 0.11057 0.56817 0.14122 0.0
C1860 C 0.10689 0.54871 0.12671 0.0
C1861 C 0.11053 0.54592 0.09927 0.0
C1862 C 0.12293 0.60525 0.14313 0.0
C1863 C 0.09847 0.53109 0.13994 0.0
C1864 C 0.11071 0.57607 0.21774 0.0
C1865 C 0.09276 0.58561 0.22116 0.0
C1866 C 0.11658 0.56956 0.19184 0.0
C1867 C 0.10407 0.5725 0.16899 0.0
C1868 C 0.08548 0.58083 0.1725 0.0
C1869 C 0.08005 0.58723 0.1985 0.0
C1870 C 0.13651 0.56066 0.18894 0.0
C1871 C 0.07162 0.58405 0.14868 0.0
H1872 H 0.12797 0.59361 0.0908 0.0
H1873 H 0.10736 0.53113 0.08804 0.0
H1874 H 0.10935 0.61305 0.14891 0.0
H1875 H 0.13181 0.60331 0.16199 0.0
H1876 H 0.13053 0.61558 0.13074 0.0
H1877 H 0.09815 0.51637 0.12664 0.0
H1878 H 0.10683 0.52842 0.15901 0.0
H1879 H 0.08362 0.53524 0.14516 0.0
H1880 H 0.12048 0.57443 0.23516 0.0
H1881 H 0.06604 0.59434 0.2009 0.0
H1882 H 0.14584 0.57274 0.18239 0.0
H1883 H 0.1365 0.54731 0.17336 0.0
H1884 H 0.14287 0.5555 0.20827 0.0
H1885 H 0.07736 0.59577 0.1364 0.0
H1886 H 0.05729 0.58946 0.15496 0.0
H1887 H 0.06991 0.56937 0.13552 0.0
C1888 C 0.58508 0.59122 0.50218 0.0
C1889 C 0.59298 0.57844 0.48138 0.0
C1890 C 0.58751 0.6128 0.50429 0.0
C1891 C 0.59759 0.62192 0.48466 0.0
C1892 C 0.60417 0.6093 0.46235 0.0
C1893 C 0.60203 0.58763 0.46117 0.0
C1894 C 0.58072 0.62555 0.52882 0.0
C1895 C 0.6146 0.61851 0.44069 0.0
C1896 C 0.59546 0.68102 0.48897 0.0
C1897 C 0.61257 0.68606 0.50407 0.0
C1898 C 0.59077 0.66018 0.48126 0.0
C1899 C 0.60327 0.64408 0.48944 0.0
C1900 C 0.62077 0.64913 0.5041 0.0
C1901 C 0.6253 0.67005 0.51095 0.0
C1902 C 0.57218 0.65537 0.46515 0.0
C1903 C 0.63433 0.63244 0.51374 0.0
H1904 H 0.57826 0.58425 0.51808 0.0
H1905 H 0.60815 0.57782 0.44506 0.0
H1906 H 0.59329 0.63098 0.54206 0.0
H1907 H 0.57264 0.63953 0.52284 0.0
H1908 H 0.57148 0.61651 0.54075 0.0
H1909 H 0.61594 0.60731 0.42267 0.0
H1910 H 0.60708 0.63275 0.43438 0.0
H1911 H 0.62919 0.62305 0.44876 0.0
H1912 H 0.58561 0.69334 0.48351 0.0
H1913 H 0.63848 0.6738 0.52278 0.0
H1914 H 0.56223 0.64799 0.47784 0.0
H1915 H 0.5747 0.64414 0.44755 0.0
H1916 H 0.56511 0.66955 0.45783 0.0
H1917 H 0.62718 0.62326 0.52796 0.0
H1918 H 0.64767 0.63897 0.52413 0.0
H1919 H 0.63827 0.62152 0.4965 0.0
C1920 C 0.69217 0.62486 0.75281 0.0
C1921 C 0.70954 0.62769 0.76817 0.0
C1922 C 0.67473 0.62521 0.76504 0.0
C1923 C 0.67451 0.62825 0.79348 0.0
C1924 C 0.692 0.63049 0.80929 0.0
C1925 C 0.70936 0.63031 0.79641 0.0
C1926 C 0.65645 0.62274 0.74732 0.0
C1927 C 0.69235 0.63357 0.83966 0.0
C1928 C 0.62591 0.64956 0.80983 0.0
C1929 C 0.61577 0.63106 0.81036 0.0
C1930 C 0.64577 0.64917 0.80748 0.0
C1931 C 0.6557 0.62985 0.80591 0.0
C1932 C 0.64597 0.61153 0.81028 0.0
C1933 C 0.62606 0.61233 0.81243 0.0
C1934 C 0.65559 0.66914 0.80323 0.0
C1935 C 0.65613 0.59068 0.80948 0.0
H1936 H 0.6921 0.62275 0.73099 0.0
H1937 H 0.72272 0.63247 0.80843 0.0
H1938 H 0.64838 0.60927 0.75281 0.0
H1939 H 0.64719 0.63678 0.75048 0.0
H1940 H 0.65916 0.62035 0.72553 0.0
H1941 H 0.70702 0.63176 0.8491 0.0
H1942 H 0.68695 0.64942 0.84584 0.0
H1943 H 0.68281 0.62236 0.84767 0.0
H1944 H 0.61815 0.6642 0.80879 0.0
H1945 H 0.61843 0.59798 0.81337 0.0
H1946 H 0.65767 0.66969 0.78141 0.0
H1947 H 0.66991 0.66995 0.81408 0.0
H1948 H 0.64701 0.68303 0.81009 0.0
H1949 H 0.65782 0.58482 0.78816 0.0
H1950 H 0.64793 0.57905 0.81909 0.0
H1951 H 0.67063 0.59201 0.81974 0.0
C1952 C 0.19016 0.67512 0.18217 0.0
C1953 C 0.20817 0.66747 0.17508 0.0
C1954 C 0.17961 0.6885 0.16607 0.0
C1955 C 0.18715 0.69405 0.14203 0.0
C1956 C 0.20591 0.68753 0.13574 0.0
C1957 C 0.21632 0.67437 0.15255 0.0
C1958 C 0.15979 0.69539 0.17376 0.0
C1959 C 0.21436 0.69301 0.11019 0.0
C1960 C 0.14756 0.70157 0.08858 0.0
C1961 C 0.1454 0.72324 0.09049 0.0
C1962 C 0.16199 0.69194 0.10401 0.0
C1963 C 0.17434 0.70431 0.12214 0.0
C1964 C 0.17281 0.72626 0.12321 0.0
C1965 C 0.1584 0.7355 0.10716 0.0
C1966 C 0.16331 0.66847 0.10194 0.0
C1967 C 0.18559 0.73993 0.14247 0.0
H1968 H 0.18393 0.66985 0.19974 0.0
H1969 H 0.2302 0.66829 0.14697 0.0
H1970 H 0.15785 0.71238 0.17256 0.0
H1971 H 0.14898 0.68754 0.15935 0.0
H1972 H 0.15689 0.69161 0.19444 0.0
H1973 H 0.22999 0.68967 0.1104 0.0
H1974 H 0.20727 0.68377 0.09268 0.0
H1975 H 0.21181 0.70967 0.10711 0.0
H1976 H 0.13767 0.69207 0.07541 0.0
H1977 H 0.15672 0.75229 0.10868 0.0
H1978 H 0.1586 0.66266 0.12074 0.0
H1979 H 0.17834 0.66317 0.09966 0.0
H1980 H 0.15424 0.6613 0.08465 0.0
H1981 H 0.18154 0.73861 0.16342 0.0
H1982 H 0.18439 0.75653 0.13823 0.0
H1983 H 0.20076 0.7348 0.14144 0.0
C1984 C 0.56933 0.75093 0.61517 0.0
C1985 C 0.56589 0.73645 0.5928 0.0
C1986 C 0.5683 0.74512 0.64152 0.0
C1987 C 0.564 0.72432 0.64546 0.0
C1988 C 0.55862 0.71028 0.62297 0.0
C1989 C 0.55941 0.71662 0.59688 0.0
C1990 C 0.57347 0.76073 0.66502 0.0
C1991 C 0.55396 0.68792 0.62627 0.0
C1992 C 0.58938 0.69757 0.7024 0.0
C1993 C 0.57428 0.69445 0.71872 0.0
C1994 C 0.58639 0.70817 0.6791 0.0
C1995 C 0.56791 0.71624 0.6723 0.0
C1996 C 0.55299 0.71459 0.68983 0.0
C1997 C 0.55629 0.70348 0.71273 0.0
C1998 C 0.6027 0.70946 0.66082 0.0
C1999 C 0.53328 0.72351 0.68366 0.0
H2000 H 0.57409 0.7664 0.61216 0.0
H2001 H 0.55656 0.70536 0.57975 0.0
H2002 H 0.56402 0.75926 0.68179 0.0
H2003 H 0.58839 0.75774 0.67274 0.0
H2004 H 0.57248 0.77693 0.65908 0.0
H2005 H 0.54806 0.67969 0.60714 0.0
H2006 H 0.56716 0.67958 0.63307 0.0
H2007 H 0.54347 0.68704 0.64189 0.0
H2008 H 0.60332 0.69063 0.70689 0.0
H2009 H 0.5446 0.70128 0.72543 0.0
H2010 H 0.60475 0.72577 0.65635 0.0
H2011 H 0.59923 0.70027 0.64132 0.0
H2012 H 0.61642 0.70343 0.66976 0.0
H2013 H 0.53421 0.73933 0.67676 0.0
H2014 H 0.52444 0.72431 0.70148 0.0
H2015 H 0.52583 0.71359 0.66712 0.0
C2016 C 0.81189 0.40895 0.77679 0.0
C2017 C 0.81563 0.42827 0.76754 0.0
C2018 C 0.80272 0.40772 0.8008 0.0
C2019 C 0.7968 0.42624 0.81552 0.0
C2020 C 0.79907 0.44566 0.80502 0.0
C2021 C 0.80869 0.44647 0.78127 0.0
C2022 C 0.80076 0.38671 0.81147 0.0
C2023 C 0.79247 0.46568 0.81972 0.0
C2024 C 0.76631 0.41723 0.87363 0.0
C2025 C 0.78024 0.41721 0.89513 0.0
C2026 C 0.77122 0.42147 0.84778 0.0
C2027 C 0.79055 0.42532 0.84332 0.0
C2028 C 0.80444 0.42646 0.86528 0.0
C2029 C 0.79906 0.42262 0.89097 0.0
C2030 C 0.75593 0.42075 0.82501 0.0
C2031 C 0.82527 0.43034 0.86134 0.0
H2032 H 0.81729 0.39484 0.76632 0.0
H2033 H 0.81143 0.46143 0.77402 0.0
H2034 H 0.81023 0.38582 0.83006 0.0
H2035 H 0.78587 0.38448 0.81695 0.0
H2036 H 0.80468 0.37374 0.79661 0.0
H2037 H 0.79222 0.47885 0.80673 0.0
H2038 H 0.77796 0.46398 0.82696 0.0
H2039 H 0.80232 0.46961 0.83766 0.0
H2040 H 0.7517 0.41322 0.87677 0.0
H2041 H 0.80992 0.42264 0.90745 0.0
H2042 H 0.75776 0.40635 0.81152 0.0
H2043 H 0.75721 0.43413 0.8127 0.0
H2044 H 0.7413 0.42089 0.8325 0.0
H2045 H 0.83117 0.41731 0.84822 0.0
H2046 H 0.83408 0.4318 0.88072 0.0
H2047 H 0.82673 0.44475 0.85108 0.0
C2048 C 0.95302 0.82743 0.4268 0.0
C2049 C 0.93691 0.83686 0.43832 0.0
C2050 C 0.95098 0.813 0.40411 0.0
C2051 C 0.93245 0.80831 0.39244 0.0
C2052 C 0.91614 0.81744 0.40438 0.0
C2053 C 0.91858 0.83144 0.42734 0.0
C2054 C 0.96863 0.80311 0.39227 0.0
C2055 C 0.89612 0.81304 0.39235 0.0
C2056 C 0.92387 0.79116 0.31824 0.0
C2057 C 0.91861 0.77043 0.31925 0.0
C2058 C 0.9293 0.80349 0.34191 0.0
C2059 C 0.9299 0.79466 0.36701 0.0
C2060 C 0.92597 0.77332 0.36786 0.0
C2061 C 0.9201 0.7615 0.34395 0.0
C2062 C 0.93303 0.82629 0.34023 0.0
C2063 C 0.9269 0.76325 0.39416 0.0
H2064 H 0.96721 0.83149 0.43535 0.0
H2065 H 0.90607 0.83873 0.43607 0.0
H2066 H 0.96721 0.78596 0.38968 0.0
H2067 H 0.97024 0.80848 0.372 0.0
H2068 H 0.98185 0.80699 0.40509 0.0
H2069 H 0.88497 0.82118 0.40439 0.0
H2070 H 0.89459 0.81804 0.37156 0.0
H2071 H 0.89338 0.79611 0.39093 0.0
H2072 H 0.92258 0.79814 0.29918 0.0
H2073 H 0.91615 0.74541 0.3447 0.0
H2074 H 0.94679 0.83075 0.35124 0.0
H2075 H 0.92156 0.83573 0.34999 0.0
H2076 H 0.93344 0.83034 0.31906 0.0
H2077 H 0.9402 0.76767 0.40642 0.0
H2078 H 0.92635 0.74602 0.39092 0.0
H2079 H 0.91463 0.76878 0.40603 0.0
C2080 C 0.39449 0.37356 0.55159 0.0
C2081 C 0.40602 0.39028 0.54699 0.0
C2082 C 0.37512 0.37307 0.54235 0.0
C2083 C 0.36717 0.38982 0.52859 0.0
C2084 C 0.37805 0.40796 0.52747 0.0
C2085 C 0.39738 0.40797 0.53669 0.0
C2086 C 0.364 0.35352 0.54427 0.0
C2087 C 0.37006 0.42633 0.51343 0.0
C2088 C 0.33507 0.37615 0.46586 0.0
C2089 C 0.31687 0.3818 0.47447 0.0
C2090 C 0.3514 0.37836 0.4835 0.0
C2091 C 0.34957 0.38664 0.51049 0.0
C2092 C 0.33123 0.39223 0.51947 0.0
C2093 C 0.31503 0.38966 0.50134 0.0
C2094 C 0.37066 0.3719 0.4731 0.0
C2095 C 0.32877 0.40114 0.54805 0.0
H2096 H 0.40098 0.35987 0.55973 0.0
H2097 H 0.40616 0.42109 0.53349 0.0
H2098 H 0.34882 0.35716 0.54811 0.0
H2099 H 0.36427 0.34377 0.52483 0.0
H2100 H 0.37031 0.34425 0.56048 0.0
H2101 H 0.37866 0.44051 0.51904 0.0
H2102 H 0.37021 0.42269 0.49128 0.0
H2103 H 0.35502 0.4297 0.51832 0.0
H2104 H 0.33662 0.36988 0.44522 0.0
H2105 H 0.30099 0.39404 0.50811 0.0
H2106 H 0.37754 0.36005 0.48553 0.0
H2107 H 0.38027 0.38549 0.47472 0.0
H2108 H 0.36954 0.36533 0.45173 0.0
H2109 H 0.33548 0.39065 0.56254 0.0
H2110 H 0.31347 0.4036 0.55232 0.0
H2111 H 0.33615 0.41627 0.55173 0.0
C2112 C 0.38111 0.3826 0.26945 0.0
C2113 C 0.38244 0.39581 0.24873 0.0
C2114 C 0.37916 0.36111 0.26384 0.0
C2115 C 0.37868 0.35244 0.23675 0.0
C2116 C 0.38031 0.36557 0.21566 0.0
C2117 C 0.38208 0.38718 0.22189 0.0
C2118 C 0.37738 0.34773 0.287 0.0
C2119 C 0.38008 0.35679 0.1866 0.0
C2120 C 0.38926 0.29473 0.23506 0.0
C2121 C 0.37073 0.28677 0.23493 0.0
C2122 C 0.39213 0.31599 0.23302 0.0
C2123 C 0.3761 0.32961 0.23108 0.0
C2124 C 0.35741 0.32136 0.22853 0.0
C2125 C 0.35496 0.30001 0.23032 0.0
C2126 C 0.4123 0.32409 0.23533 0.0
C2127 C 0.33992 0.33531 0.22653 0.0
H2128 H 0.38137 0.38906 0.29027 0.0
H2129 H 0.38317 0.39728 0.20579 0.0
H2130 H 0.36363 0.33931 0.28444 0.0
H2131 H 0.38906 0.33589 0.2872 0.0
H2132 H 0.37798 0.35696 0.3069 0.0
H2133 H 0.3822 0.36896 0.17265 0.0
H2134 H 0.39149 0.34474 0.18406 0.0
H2135 H 0.36623 0.34911 0.18071 0.0
H2136 H 0.40155 0.28457 0.23826 0.0
H2137 H 0.34058 0.29401 0.22999 0.0
H2138 H 0.41542 0.33165 0.25595 0.0
H2139 H 0.414 0.33597 0.22088 0.0
H2140 H 0.42302 0.31143 0.23162 0.0
H2141 H 0.33798 0.34387 0.24648 0.0
H2142 H 0.32673 0.32636 0.2204 0.0
H2143 H 0.34166 0.34701 0.21187 0.0
C2144 C 0.31581 0.25214 0.30177 0.0
C2145 C 0.32561 0.23743 0.31685 0.0
C2146 C 0.30238 0.26593 0.31355 0.0
C2147 C 0.29852 0.26479 0.34092 0.0
C2148 C 0.3068 0.24853 0.35527 0.0
C2149 C 0.32029 0.23505 0.34307 0.0
C2150 C 0.29383 0.28299 0.29748 0.0
C2151 C 0.30282 0.24655 0.38435 0.0
C2152 C 0.29039 0.31599 0.38197 0.0
C2153 C 0.27047 0.31643 0.38382 0.0
C2154 C 0.29958 0.29928 0.36802 0.0
C2155 C 0.28862 0.28245 0.35569 0.0
C2156 C 0.26852 0.28268 0.35754 0.0
C2157 C 0.25965 0.29973 0.37153 0.0
C2158 C 0.32107 0.29971 0.36645 0.0
C2159 C 0.25643 0.26493 0.3448 0.0
H2160 H 0.31968 0.25402 0.28141 0.0
H2161 H 0.3276 0.22355 0.35476 0.0
H2162 H 0.27836 0.28516 0.30067 0.0
H2163 H 0.30099 0.29787 0.30441 0.0
H2164 H 0.29567 0.27973 0.27554 0.0
H2165 H 0.30754 0.23119 0.39103 0.0
H2166 H 0.31062 0.25883 0.39739 0.0
H2167 H 0.28734 0.24877 0.38748 0.0
H2168 H 0.29889 0.32882 0.39134 0.0
H2169 H 0.24426 0.29993 0.37293 0.0
H2170 H 0.32478 0.29867 0.34505 0.0
H2171 H 0.32777 0.28608 0.37565 0.0
H2172 H 0.32746 0.31405 0.37695 0.0
H2173 H 0.25818 0.26295 0.32276 0.0
H2174 H 0.24099 0.26742 0.34819 0.0
H2175 H 0.26127 0.25021 0.35316 0.0
C2176 C 0.09974 0.1167 0.69418 0.0
C2177 C 0.08111 0.12183 0.70147 0.0
C2178 C 0.10316 0.10809 0.6681 0.0
C2179 C 0.08758 0.1049 0.64874 0.0
C2180 C 0.06874 0.11006 0.65599 0.0
C2181 C 0.0657 0.11829 0.6824 0.0
C2182 C 0.12344 0.10248 0.66125 0.0
C2183 C 0.05184 0.10722 0.63573 0.0
C2184 C 0.10075 0.10012 0.57571 0.0
C2185 C 0.10073 0.07851 0.5697 0.0
C2186 C 0.09581 0.10902 0.60107 0.0
C2187 C 0.0911 0.09592 0.621 0.0
C2188 C 0.09065 0.07412 0.61484 0.0
C2189 C 0.09529 0.06569 0.58916 0.0
C2190 C 0.09606 0.13237 0.60675 0.0
C2191 C 0.08601 0.05963 0.63569 0.0
H2192 H 0.11169 0.11935 0.70892 0.0
H2193 H 0.0513 0.12246 0.68791 0.0
H2194 H 0.12442 0.0858 0.65391 0.0
H2195 H 0.12763 0.1116 0.64474 0.0
H2196 H 0.13388 0.10549 0.67882 0.0
H2197 H 0.03811 0.11212 0.64455 0.0
H2198 H 0.05387 0.11642 0.61834 0.0
H2199 H 0.0508 0.09068 0.62777 0.0
H2200 H 0.10485 0.1101 0.56068 0.0
H2201 H 0.09537 0.04895 0.58471 0.0
H2202 H 0.10749 0.13681 0.62249 0.0
H2203 H 0.08226 0.13805 0.61464 0.0
H2204 H 0.09859 0.14041 0.58848 0.0
H2205 H 0.09696 0.06111 0.65281 0.0
H2206 H 0.08557 0.04312 0.62736 0.0
H2207 H 0.07198 0.06394 0.64391 0.0
C2208 C 0.65835 0.23595 0.10586 0.0
C2209 C 0.64195 0.22373 0.10069 0.0
C2210 C 0.67374 0.22961 0.12284 0.0
C2211 C 0.67276 0.21051 0.13462 0.0
C2212 C 0.65614 0.19825 0.12971 0.0
C2213 C 0.64092 0.20506 0.11292 0.0
C2214 C 0.69111 0.24322 0.12794 0.0
C2215 C 0.65456 0.1777 0.14177 0.0
C2216 C 0.7171 0.17979 0.1551 0.0
C2217 C 0.71694 0.1821 0.18335 0.0
C2218 C 0.70336 0.18984 0.13893 0.0
C2219 C 0.6893 0.20278 0.1513 0.0
C2220 C 0.69003 0.20655 0.17974 0.0
C2221 C 0.7038 0.19608 0.19545 0.0
C2222 C 0.703 0.1853 0.10867 0.0
C2223 C 0.67549 0.22056 0.19364 0.0
H2224 H 0.65919 0.25047 0.09661 0.0
H2225 H 0.6283 0.19553 0.10903 0.0
H2226 H 0.69421 0.2467 0.14995 0.0
H2227 H 0.70382 0.23488 0.11989 0.0
H2228 H 0.68922 0.25811 0.11841 0.0
H2229 H 0.64057 0.17016 0.13616 0.0
H2230 H 0.66614 0.16694 0.13486 0.0
H2231 H 0.65636 0.18002 0.16408 0.0
H2232 H 0.72719 0.16905 0.1455 0.0
H2233 H 0.70365 0.19807 0.21726 0.0
H2234 H 0.70175 0.19993 0.09852 0.0
H2235 H 0.69028 0.17583 0.10172 0.0
H2236 H 0.71601 0.17665 0.10211 0.0
H2237 H 0.67377 0.23539 0.18397 0.0
H2238 H 0.67954 0.2241 0.21543 0.0
H2239 H 0.66135 0.2129 0.1917 0.0
C2240 C 0.44247 0.42921 0.30631 0.0
C2241 C 0.43362 0.44867 0.30371 0.0
C2242 C 0.44735 0.42242 0.33188 0.0
C2243 C 0.4434 0.4355 0.35521 0.0
C2244 C 0.43662 0.45605 0.35259 0.0
C2245 C 0.43183 0.46241 0.32682 0.0
C2246 C 0.45478 0.40046 0.33382 0.0
C2247 C 0.43249 0.4706 0.37696 0.0
C2248 C 0.42571 0.40915 0.4138 0.0
C2249 C 0.4419 0.40967 0.43183 0.0
C2250 C 0.42611 0.41748 0.38881 0.0
C2251 C 0.44312 0.42663 0.38169 0.0
C2252 C 0.4595 0.42735 0.39984 0.0
C2253 C 0.4587 0.41882 0.42472 0.0
C2254 C 0.40831 0.4164 0.36997 0.0
C2255 C 0.47784 0.43701 0.39292 0.0
H2256 H 0.44405 0.41852 0.28857 0.0
H2257 H 0.42527 0.47761 0.32491 0.0
H2258 H 0.4663 0.39986 0.35007 0.0
H2259 H 0.44298 0.39053 0.33889 0.0
H2260 H 0.46038 0.39377 0.31453 0.0
H2261 H 0.41914 0.46577 0.38543 0.0
H2262 H 0.44418 0.46994 0.39294 0.0
H2263 H 0.43057 0.48695 0.37179 0.0
H2264 H 0.4127 0.40206 0.41909 0.0
H2265 H 0.4713 0.41926 0.43856 0.0
H2266 H 0.41146 0.40766 0.35056 0.0
H2267 H 0.40359 0.4323 0.36544 0.0
H2268 H 0.39629 0.40873 0.37856 0.0
H2269 H 0.48325 0.42855 0.37453 0.0
H2270 H 0.48918 0.43674 0.40952 0.0
H2271 H 0.47514 0.45336 0.38835 0.0
C2272 C 0.68059 0.56609 0.51432 0.0
C2273 C 0.6734 0.54608 0.51564 0.0
C2274 C 0.69085 0.57628 0.53654 0.0
C2275 C 0.69396 0.56619 0.56058 0.0
C2276 C 0.68827 0.54534 0.56119 0.0
C2277 C 0.67819 0.53546 0.53862 0.0
C2278 C 0.6969 0.59844 0.535 0.0
C2279 C 0.69134 0.53404 0.58644 0.0
C2280 C 0.72725 0.58976 0.6178 0.0
C2281 C 0.71426 0.60071 0.63428 0.0
C2282 C 0.7209 0.57857 0.59359 0.0
C2283 C 0.70111 0.57815 0.58589 0.0
C2284 C 0.68792 0.58906 0.60253 0.0
C2285 C 0.69467 0.60027 0.62647 0.0
C2286 C 0.73536 0.56729 0.57619 0.0
C2287 C 0.66663 0.58876 0.59519 0.0
H2288 H 0.67712 0.57437 0.49659 0.0
H2289 H 0.67286 0.51994 0.53982 0.0
H2290 H 0.68737 0.60909 0.54691 0.0
H2291 H 0.71173 0.60078 0.5438 0.0
H2292 H 0.6961 0.6029 0.51392 0.0
H2293 H 0.68844 0.51715 0.58255 0.0
H2294 H 0.7062 0.53601 0.59523 0.0
H2295 H 0.68159 0.54074 0.60175 0.0
H2296 H 0.74242 0.59013 0.62365 0.0
H2297 H 0.68455 0.60861 0.63917 0.0
H2298 H 0.73438 0.57313 0.55585 0.0
H2299 H 0.73218 0.55044 0.57348 0.0
H2300 H 0.75026 0.56925 0.58497 0.0
H2301 H 0.6636 0.59392 0.57467 0.0
H2302 H 0.65841 0.59894 0.60958 0.0
H2303 H 0.66133 0.57266 0.59493 0.0
C2304 C 0.26476 0.89349 0.86495 0.0
C2305 C 0.27045 0.90205 0.89099 0.0
C2306 C 0.27401 0.89881 0.84239 0.0
C2307 C 0.28933 0.91296 0.84603 0.0
C2308 C 0.29409 0.92291 0.87194 0.0
C2309 C 0.2845 0.91742 0.89411 0.0
C2310 C 0.26839 0.88805 0.81503 0.0
C2311 C 0.31036 0.93809 0.87664 0.0
C2312 C 0.33063 0.90457 0.8006 0.0
C2313 C 0.32779 0.9208 0.78374 0.0
C2314 C 0.31799 0.90168 0.82059 0.0
C2315 C 0.30199 0.91523 0.82367 0.0
C2316 C 0.29865 0.93121 0.80615 0.0
C2317 C 0.31164 0.93385 0.78639 0.0
C2318 C 0.32214 0.88449 0.83899 0.0
C2319 C 0.28168 0.94587 0.80879 0.0
H2320 H 0.25378 0.88174 0.86231 0.0
H2321 H 0.28894 0.92421 0.91412 0.0
H2322 H 0.26738 0.89934 0.79941 0.0
H2323 H 0.27954 0.87633 0.80933 0.0
H2324 H 0.25448 0.88001 0.81485 0.0
H2325 H 0.31069 0.94638 0.89714 0.0
H2326 H 0.32417 0.92959 0.87431 0.0
H2327 H 0.30926 0.94975 0.86151 0.0
H2328 H 0.34307 0.89441 0.79871 0.0
H2329 H 0.30936 0.94644 0.77343 0.0
H2330 H 0.30954 0.87431 0.83878 0.0
H2331 H 0.32499 0.89131 0.86003 0.0
H2332 H 0.33471 0.87475 0.83312 0.0
H2333 H 0.26827 0.93696 0.80869 0.0
H2334 H 0.2803 0.95644 0.79231 0.0
H2335 H 0.28317 0.95544 0.82836 0.0
C2336 C 0.72301 0.08518 0.11784 0.0
C2337 C 0.71025 0.09588 0.13491 0.0
C2338 C 0.71637 0.07455 0.09337 0.0
C2339 C 0.69653 0.07452 0.08599 0.0
C2340 C 0.68356 0.08503 0.10336 0.0
C2341 C 0.6906 0.09563 0.12755 0.0
C2342 C 0.73058 0.06361 0.07525 0.0
C2343 C 0.66223 0.08516 0.09636 0.0
C2344 C 0.6747 0.06626 0.01472 0.0
C2345 C 0.66668 0.04653 0.01499 0.0
C2346 C 0.68583 0.07503 0.03705 0.0
C2347 C 0.68906 0.06373 0.06005 0.0
C2348 C 0.68274 0.04299 0.05928 0.0
C2349 C 0.67171 0.03458 0.03666 0.0
C2350 C 0.69256 0.0971 0.03695 0.0
C2351 C 0.686 0.03037 0.08333 0.0
H2352 H 0.73823 0.08538 0.12337 0.0
H2353 H 0.68065 0.10378 0.1407 0.0
H2354 H 0.72688 0.04697 0.07105 0.0
H2355 H 0.72993 0.07053 0.05559 0.0
H2356 H 0.74549 0.06466 0.08424 0.0
H2357 H 0.65412 0.09413 0.11205 0.0
H2358 H 0.6591 0.09205 0.0769 0.0
H2359 H 0.65687 0.069 0.09388 0.0
H2360 H 0.6711 0.07554 0.99795 0.0
H2361 H 0.6658 0.01921 0.03695 0.0
H2362 H 0.70753 0.09861 0.0455 0.0
H2363 H 0.68347 0.10759 0.04977 0.0
H2364 H 0.69168 0.10246 0.01631 0.0
H2365 H 0.70094 0.03189 0.09201 0.0
H2366 H 0.683 0.01363 0.07804 0.0
H2367 H 0.6764 0.0363 0.09924 0.0
C2368 C 0.42369 0.93016 0.93307 0.0
C2369 C 0.41122 0.91565 0.94165 0.0
C2370 C 0.41935 0.93995 0.90934 0.0
C2371 C 0.40223 0.93495 0.89373 0.0
C2372 C 0.38922 0.92095 0.90283 0.0
C2373 C 0.39383 0.91155 0.92679 0.0
C2374 C 0.43341 0.95506 0.90047 0.0
C2375 C 0.37081 0.9152 0.88668 0.0
C2376 C 0.38195 0.96766 0.83873 0.0
C2377 C 0.38761 0.95597 0.81546 0.0
C2378 C 0.38734 0.96155 0.8645 0.0
C2379 C 0.39845 0.9432 0.86697 0.0
C2380 C 0.40496 0.93189 0.84361 0.0
C2381 C 0.39957 0.9385 0.81813 0.0
C2382 C 0.38036 0.97417 0.88898 0.0
C2383 C 0.41675 0.91216 0.84542 0.0
H2384 H 0.43709 0.93353 0.94458 0.0
H2385 H 0.38409 0.9004 0.9333 0.0
H2386 H 0.43981 0.94837 0.88179 0.0
H2387 H 0.42596 0.96975 0.8957 0.0
H2388 H 0.44515 0.95875 0.9161 0.0
H2389 H 0.36168 0.90511 0.89738 0.0
H2390 H 0.36248 0.92939 0.88214 0.0
H2391 H 0.37413 0.90684 0.86709 0.0
H2392 H 0.37276 0.98123 0.8368 0.0
H2393 H 0.40395 0.92932 0.80026 0.0
H2394 H 0.39231 0.9772 0.90442 0.0
H2395 H 0.36944 0.96527 0.89819 0.0
H2396 H 0.37387 0.98928 0.88386 0.0
H2397 H 0.4295 0.915 0.85951 0.0
H2398 H 0.4216 0.90587 0.8255 0.0
H2399 H 0.40813 0.90015 0.85355 0.0
C2400 C 0.64464 0.70612 0.61661 0.0
C2401 C 0.64502 0.724 0.60258 0.0
C2402 C 0.66041 0.70037 0.6332 0.0
C2403 C 0.6769 0.71295 0.6361 0.0
C2404 C 0.67716 0.73137 0.62265 0.0
C2405 C 0.66125 0.73661 0.60587 0.0
C2406 C 0.6596 0.68051 0.64705 0.0
C2407 C 0.69436 0.74532 0.62563 0.0
C2408 C 0.71002 0.70102 0.69605 0.0
C2409 C 0.72275 0.68658 0.6839 0.0
C2410 C 0.69576 0.71095 0.6805 0.0
C2411 C 0.6941 0.70611 0.65222 0.0
C2412 C 0.7078 0.69279 0.63967 0.0
C2413 C 0.72208 0.68334 0.65564 0.0
C2414 C 0.68165 0.72543 0.69454 0.0
C2415 C 0.70647 0.6871 0.60959 0.0
H2416 H 0.63217 0.69629 0.61415 0.0
H2417 H 0.66156 0.75054 0.59523 0.0
H2418 H 0.67099 0.66955 0.63999 0.0
H2419 H 0.66225 0.68381 0.66916 0.0
H2420 H 0.64556 0.67272 0.64311 0.0
H2421 H 0.69178 0.75981 0.61535 0.0
H2422 H 0.69827 0.74956 0.64729 0.0
H2423 H 0.70683 0.73693 0.61698 0.0
H2424 H 0.71052 0.70375 0.71784 0.0
H2425 H 0.73185 0.67225 0.646 0.0
H2426 H 0.66766 0.71761 0.69447 0.0
H2427 H 0.67925 0.73967 0.68373 0.0
H2428 H 0.68657 0.73003 0.7158 0.0
H2429 H 0.69373 0.67729 0.60412 0.0
H2430 H 0.71933 0.67837 0.60266 0.0
H2431 H 0.70462 0.70125 0.59849 0.0
C2432 C 0.33846 0.45319 0.32158 0.0
C2433 C 0.33375 0.46783 0.30293 0.0
C2434 C 0.32538 0.44796 0.33989 0.0
C2435 C 0.30709 0.45769 0.33976 0.0
C2436 C 0.30243 0.47308 0.32173 0.0
C2437 C 0.31583 0.47793 0.30339 0.0
C2438 C 0.33097 0.43145 0.3588 0.0
C2439 C 0.28316 0.48395 0.32125 0.0
C2440 C 0.27193 0.42275 0.36735 0.0
C2441 C 0.27342 0.42957 0.39489 0.0
C2442 C 0.2815 0.433 0.34857 0.0
C2443 C 0.29272 0.45055 0.35754 0.0
C2444 C 0.29264 0.45876 0.38479 0.0
C2445 C 0.283 0.44813 0.4032 0.0
C2446 C 0.28109 0.4238 0.31965 0.0
C2447 C 0.30413 0.47768 0.39503 0.0
H2448 H 0.35231 0.44537 0.32153 0.0
H2449 H 0.31212 0.48936 0.28915 0.0
H2450 H 0.32927 0.43759 0.38 0.0
H2451 H 0.32139 0.41792 0.35445 0.0
H2452 H 0.346 0.42593 0.35694 0.0
H2453 H 0.28273 0.49742 0.30874 0.0
H2454 H 0.27197 0.47285 0.31287 0.0
H2455 H 0.27946 0.48948 0.342 0.0
H2456 H 0.26431 0.4086 0.36063 0.0
H2457 H 0.28401 0.45369 0.42438 0.0
H2458 H 0.29503 0.41599 0.31577 0.0
H2459 H 0.27897 0.43615 0.30556 0.0
H2460 H 0.26958 0.41218 0.31507 0.0
H2461 H 0.3195 0.47324 0.39721 0.0
H2462 H 0.29966 0.48441 0.41497 0.0
H2463 H 0.30268 0.48981 0.38054 0.0
loop_
_geom_bond_atom_site_label_1
_geom_bond_atom_site_label_2
_geom_bond_distance
_geom_bond_site_symmetry_2
_ccdc_geom_bond_type
C0 O1 1.160 . S
C0 O7 1.185 . S
O1 C0 1.160 . S
O2 Zn3 1.899 . S
O2 C10 1.284 . S
Zn3 O2 1.899 . S
Zn3 O4 2.032 . S
Zn3 O7 2.086 . S
Zn3 O12 1.977 . S
O4 Zn3 2.032 . S
O4 C8 1.278 . S
C5 O6 1.203 . S
C5 O12 1.267 . S
O6 C5 1.203 . S
O7 C0 1.185 . S
O7 Zn3 2.086 . S
C8 O4 1.278 . S
C8 O9 1.211 . S
O9 C8 1.211 . S
C10 O2 1.284 . S
C10 O11 1.273 . S
O11 C10 1.273 . S
O12 Zn3 1.977 . S
O12 C5 1.267 . S
C13 O14 1.160 . S
C13 O20 1.185 . S
O14 C13 1.160 . S
O15 Zn16 1.899 . S
O15 C23 1.284 . S
Zn16 O15 1.899 . S
Zn16 O17 2.032 . S
Zn16 O20 2.086 . S
Zn16 O25 1.977 . S
O17 Zn16 2.032 . S
O17 C21 1.278 . S
C18 O19 1.203 . S
C18 O25 1.267 . S
O19 C18 1.203 . S
O20 C13 1.185 . S
O20 Zn16 2.086 . S
C21 O17 1.278 . S
C21 O22 1.211 . S
O22 C21 1.211 . S
C23 O15 1.284 . S
C23 O24 1.273 . S
O24 C23 1.273 . S
O25 Zn16 1.977 . S
O25 C18 1.267 . S
C26 O27 1.138 1_554 S
C26 O33 1.185 . S
O27 C26 1.138 1_556 S
O28 Zn29 1.899 . S
O28 C36 1.284 . S
Zn29 O28 1.899 . S
Zn29 O30 2.032 . S
Zn29 O33 2.086 . S
Zn29 O38 1.977 . S
O30 Zn29 2.032 . S
O30 C34 1.278 . S
C31 O32 1.203 . S
C31 O38 1.267 . S
O32 C31 1.203 . S
O33 C26 1.185 . S
O33 Zn29 2.086 . S
C34 O30 1.278 . S
C34 O35 1.211 . S
O35 C34 1.211 . S
C36 O28 1.284 . S
C36 O37 1.273 . S
O37 C36 1.273 . S
O38 Zn29 1.977 . S
O38 C31 1.267 . S
C39 O40 1.160 . S
C39 O46 1.185 . S
O40 C39 1.160 . S
O41 Zn42 1.899 . S
O41 C49 1.284 . S
Zn42 O41 1.899 . S
Zn42 O43 2.032 . S
Zn42 O46 2.086 . S
Zn42 O51 1.977 . S
O43 Zn42 2.032 . S
O43 C47 1.278 . S
C44 O45 1.203 . S
C44 O51 1.267 . S
O45 C44 1.203 . S
O46 C39 1.185 . S
O46 Zn42 2.086 . S
C47 O43 1.278 . S
C47 O48 1.211 . S
O48 C47 1.211 . S
C49 O41 1.284 . S
C49 O50 1.273 . S
O50 C49 1.273 . S
O51 Zn42 1.977 . S
O51 C44 1.267 . S
C52 O53 1.160 . S
C52 O59 1.185 . S
O53 C52 1.160 . S
O54 Zn55 1.899 . S
O54 C62 1.284 . S
Zn55 O54 1.899 . S
Zn55 O56 2.032 . S
Zn55 O59 2.086 . S
Zn55 O64 1.977 . S
O56 Zn55 2.032 . S
O56 C60 1.278 . S
C57 O58 1.203 . S
C57 O64 1.267 . S
O58 C57 1.203 . S
O59 C52 1.185 . S
O59 Zn55 2.086 . S
C60 O56 1.278 . S
C60 O61 1.211 . S
O61 C60 1.211 . S
C62 O54 1.284 . S
C62 O63 1.273 . S
O63 C62 1.273 . S
O64 Zn55 1.977 . S
O64 C57 1.267 . S
C65 O66 1.160 . S
C65 O72 1.185 . S
O66 C65 1.160 . S
O67 Zn68 1.899 . S
O67 C75 1.284 . S
Zn68 O67 1.899 . S
Zn68 O69 2.032 . S
Zn68 O72 2.086 . S
Zn68 O77 1.977 . S
O69 Zn68 2.032 . S
O69 C73 1.278 . S
C70 O71 1.203 . S
C70 O77 1.267 . S
O71 C70 1.203 . S
O72 C65 1.185 . S
O72 Zn68 2.086 . S
C73 O69 1.278 . S
C73 O74 1.211 . S
O74 C73 1.211 . S
C75 O67 1.284 . S
C75 O76 1.273 . S
O76 C75 1.273 . S
O77 Zn68 1.977 . S
O77 C70 1.267 . S
C78 O79 1.160 . S
C78 O85 1.185 . S
O79 C78 1.160 . S
O80 Zn81 1.899 . S
O80 C88 1.284 . S
Zn81 O80 1.899 . S
Zn81 O82 2.032 . S
Zn81 O85 2.086 . S
Zn81 O90 1.977 . S
O82 Zn81 2.032 . S
O82 C86 1.278 . S
C83 O84 1.203 . S
C83 O90 1.267 . S
O84 C83 1.203 . S
O85 C78 1.185 . S
O85 Zn81 2.086 . S
C86 O82 1.278 . S
C86 O87 1.211 . S
O87 C86 1.211 . S
C88 O80 1.284 . S
C88 O89 1.273 . S
O89 C88 1.273 . S
O90 Zn81 1.977 . S
O90 C83 1.267 . S
C91 O92 1.160 . S
C91 O98 1.185 . S
O92 C91 1.160 . S
O93 Zn94 1.899 . S
O93 C101 1.284 . S
Zn94 O93 1.899 . S
Zn94 O95 2.032 . S
Zn94 O98 2.086 . S
Zn94 O103 1.977 . S
O95 Zn94 2.032 . S
O95 C99 1.278 . S
C96 O97 1.203 . S
C96 O103 1.267 . S
O97 C96 1.203 . S
O98 C91 1.185 . S
O98 Zn94 2.086 . S
C99 O95 1.278 . S
C99 O100 1.211 . S
O100 C99 1.211 . S
C101 O93 1.284 . S
C101 O102 1.273 . S
O102 C101 1.273 . S
O103 Zn94 1.977 . S
O103 C96 1.267 . S
C104 O105 1.160 . S
C104 O111 1.185 1_556 S
O105 C104 1.160 . S
O106 Zn107 1.899 1_556 S
O106 C114 1.284 . S
Zn107 O106 1.899 1_554 S
Zn107 O108 2.032 . S
Zn107 O111 2.086 . S
Zn107 O116 1.977 . S
O108 Zn107 2.032 . S
O108 C112 1.278 . S
C109 O110 1.203 . S
C109 O116 1.267 . S
O110 C109 1.203 . S
O111 C104 1.185 1_554 S
O111 Zn107 2.086 . S
C112 O108 1.278 . S
C112 O113 1.211 . S
O113 C112 1.211 . S
C114 O106 1.284 . S
C114 O115 1.273 1_556 S
O115 C114 1.273 1_554 S
O116 Zn107 1.977 . S
O116 C109 1.267 . S
C117 O118 1.160 . S
C117 O124 1.185 . S
O118 C117 1.160 . S
O119 Zn120 1.899 . S
O119 C127 1.284 . S
Zn120 O119 1.899 . S
Zn120 O121 2.032 . S
Zn120 O124 2.086 . S
Zn120 O129 1.977 . S
O121 Zn120 2.032 . S
O121 C125 1.278 . S
C122 O123 1.203 . S
C122 O129 1.267 . S
O123 C122 1.203 . S
O124 C117 1.185 . S
O124 Zn120 2.086 . S
C125 O121 1.278 . S
C125 O126 1.211 . S
O126 C125 1.211 . S
C127 O119 1.284 . S
C127 O128 1.273 . S
O128 C127 1.273 . S
O129 Zn120 1.977 . S
O129 C122 1.267 . S
C130 O131 1.160 . S
C130 O137 1.185 . S
O131 C130 1.160 . S
O132 Zn133 1.899 . S
O132 C140 1.284 . S
Zn133 O132 1.899 . S
Zn133 O134 2.032 . S
Zn133 O137 2.086 . S
Zn133 O142 1.977 . S
O134 Zn133 2.032 . S
O134 C138 1.278 . S
C135 O136 1.203 . S
C135 O142 1.267 . S
O136 C135 1.203 . S
O137 C130 1.185 . S
O137 Zn133 2.086 . S
C138 O134 1.278 . S
C138 O139 1.211 . S
O139 C138 1.211 . S
C140 O132 1.284 . S
C140 O141 1.273 . S
O141 C140 1.273 . S
O142 Zn133 1.977 . S
O142 C135 1.267 . S
C143 O144 1.160 . S
C143 O150 1.185 . S
O144 C143 1.160 . S
O145 Zn146 1.899 . S
O145 C153 1.284 . S
Zn146 O145 1.899 . S
Zn146 O147 2.032 . S
Zn146 O150 2.086 . S
Zn146 O155 1.977 . S
O147 Zn146 2.032 . S
O147 C151 1.278 . S
C148 O149 1.203 . S
C148 O155 1.267 . S
O149 C148 1.203 . S
O150 C143 1.185 . S
O150 Zn146 2.086 . S
C151 O147 1.278 . S
C151 O152 1.211 . S
O152 C151 1.211 . S
C153 O145 1.284 . S
C153 O154 1.273 . S
O154 C153 1.273 . S
O155 Zn146 1.977 . S
O155 C148 1.267 . S
C156 O157 1.160 . S
C156 O163 1.185 . S
O157 C156 1.160 . S
O158 Zn159 1.899 . S
O158 C166 1.284 . S
Zn159 O158 1.899 . S
Zn159 O160 2.032 . S
Zn159 O163 2.086 . S
Zn159 O168 1.977 . S
O160 Zn159 2.032 . S
O160 C164 1.278 . S
C161 O162 1.203 . S
C161 O168 1.267 . S
O162 C161 1.203 . S
O163 C156 1.185 . S
O163 Zn159 2.086 . S
C164 O160 1.278 . S
C164 O165 1.211 . S
O165 C164 1.211 . S
C166 O158 1.284 . S
C166 O167 1.273 . S
O167 C166 1.273 . S
O168 Zn159 1.977 . S
O168 C161 1.267 . S
C169 O170 1.160 . S
C169 O176 1.185 . S
O170 C169 1.160 . S
O171 Zn172 1.899 . S
O171 C179 1.284 . S
Zn172 O171 1.899 . S
Zn172 O173 2.032 . S
Zn172 O176 2.086 . S
Zn172 O181 1.977 . S
O173 Zn172 2.032 . S
O173 C177 1.278 . S
C174 O175 1.203 . S
C174 O181 1.267 . S
O175 C174 1.203 . S
O176 C169 1.185 . S
O176 Zn172 2.086 . S
C177 O173 1.278 . S
C177 O178 1.211 . S
O178 C177 1.211 . S
C179 O171 1.284 . S
C179 O180 1.273 . S
O180 C179 1.273 . S
O181 Zn172 1.977 . S
O181 C174 1.267 . S
C182 O183 1.160 . S
C182 O189 1.185 . S
O183 C182 1.160 . S
O184 Zn185 1.899 . S
O184 C192 1.284 . S
Zn185 O184 1.899 . S
Zn185 O186 2.032 . S
Zn185 O189 2.086 . S
Zn185 O194 1.977 . S
O186 Zn185 2.032 . S
O186 C190 1.278 . S
C187 O188 1.203 . S
C187 O194 1.267 . S
O188 C187 1.203 . S
O189 C182 1.185 . S
O189 Zn185 2.086 . S
C190 O186 1.278 . S
C190 O191 1.211 . S
O191 C190 1.211 . S
C192 O184 1.284 . S
C192 O193 1.273 . S
O193 C192 1.273 . S
O194 Zn185 1.977 . S
O194 C187 1.267 . S
C195 O196 1.160 . S
C195 O202 1.185 1_554 S
O196 C195 1.160 . S
O197 Zn198 1.899 1_554 S
O197 C205 1.284 . S
Zn198 O197 1.899 1_556 S
Zn198 O199 2.032 . S
Zn198 O202 2.086 . S
Zn198 O207 1.977 . S
O199 Zn198 2.032 . S
O199 C203 1.278 . S
C200 O201 1.203 . S
C200 O207 1.267 . S
O201 C200 1.203 . S
O202 C195 1.185 1_556 S
O202 Zn198 2.086 . S
C203 O199 1.278 . S
C203 O204 1.211 . S
O204 C203 1.211 . S
C205 O197 1.284 . S
C205 O206 1.273 1_554 S
O206 C205 1.273 1_556 S
O207 Zn198 1.977 . S
O207 C200 1.267 . S
C208 O209 1.160 . S
C208 O215 1.185 1_556 S
O209 C208 1.160 . S
O210 Zn211 1.899 1_556 S
O210 C218 1.284 . S
Zn211 O210 1.899 1_554 S
Zn211 O212 2.032 . S
Zn211 O215 2.086 . S
Zn211 O220 1.977 . S
O212 Zn211 2.032 . S
O212 C216 1.278 . S
C213 O214 1.203 . S
C213 O220 1.267 . S
O214 C213 1.203 . S
O215 C208 1.185 1_554 S
O215 Zn211 2.086 . S
C216 O212 1.278 . S
C216 O217 1.211 . S
O217 C216 1.211 . S
C218 O210 1.284 . S
C218 O219 1.273 1_556 S
O219 C218 1.273 1_554 S
O220 Zn211 1.977 . S
O220 C213 1.267 . S
C221 O222 1.160 . S
C221 O228 1.185 . S
O222 C221 1.160 . S
O223 Zn224 1.899 . S
O223 C231 1.284 . S
Zn224 O223 1.899 . S
Zn224 O225 2.032 . S
Zn224 O228 2.086 . S
Zn224 O233 1.977 . S
O225 Zn224 2.032 . S
O225 C229 1.278 . S
C226 O227 1.203 . S
C226 O233 1.267 . S
O227 C226 1.203 . S
O228 C221 1.185 . S
O228 Zn224 2.086 . S
C229 O225 1.278 . S
C229 O230 1.211 . S
O230 C229 1.211 . S
C231 O223 1.284 . S
C231 O232 1.273 . S
O232 C231 1.273 . S
O233 Zn224 1.977 . S
O233 C226 1.267 . S
C234 O235 1.138 1_554 S
C234 O241 1.185 . S
O235 C234 1.138 1_556 S
O236 Zn237 1.899 . S
O236 C244 1.284 . S
Zn237 O236 1.899 . S
Zn237 O238 2.032 . S
Zn237 O241 2.086 . S
Zn237 O246 1.977 . S
O238 Zn237 2.032 . S
O238 C242 1.278 . S
C239 O240 1.203 . S
C239 O246 1.267 . S
O240 C239 1.203 . S
O241 C234 1.185 . S
O241 Zn237 2.086 . S
C242 O238 1.278 . S
C242 O243 1.211 . S
O243 C242 1.211 . S
C244 O236 1.284 . S
C244 O245 1.273 . S
O245 C244 1.273 . S
O246 Zn237 1.977 . S
O246 C239 1.267 . S
C247 O248 1.160 . S
C247 O254 1.185 . S
O248 C247 1.160 . S
O249 Zn250 1.899 . S
O249 C257 1.284 . S
Zn250 O249 1.899 . S
Zn250 O251 2.032 . S
Zn250 O254 2.086 . S
Zn250 O259 1.977 . S
O251 Zn250 2.032 . S
O251 C255 1.278 . S
C252 O253 1.203 . S
C252 O259 1.267 . S
O253 C252 1.203 . S
O254 C247 1.185 . S
O254 Zn250 2.086 . S
C255 O251 1.278 . S
C255 O256 1.211 . S
O256 C255 1.211 . S
C257 O249 1.284 . S
C257 O258 1.273 . S
O258 C257 1.273 . S
O259 Zn250 1.977 . S
O259 C252 1.267 . S
C260 O261 1.160 . S
C260 O267 1.185 . S
O261 C260 1.160 . S
O262 Zn263 1.899 . S
O262 C270 1.284 . S
Zn263 O262 1.899 . S
Zn263 O264 2.032 . S
Zn263 O267 2.086 . S
Zn263 O272 1.977 . S
O264 Zn263 2.032 . S
O264 C268 1.278 . S
C265 O266 1.203 . S
C265 O272 1.267 . S
O266 C265 1.203 . S
O267 C260 1.185 . S
O267 Zn263 2.086 . S
C268 O264 1.278 . S
C268 O269 1.211 . S
O269 C268 1.211 . S
C270 O262 1.284 . S
C270 O271 1.273 . S
O271 C270 1.273 . S
O272 Zn263 1.977 . S
O272 C265 1.267 . S
C273 O274 1.160 . S
C273 O280 1.185 . S
O274 C273 1.160 . S
O275 Zn276 1.899 . S
O275 C283 1.284 . S
Zn276 O275 1.899 . S
Zn276 O277 2.032 . S
Zn276 O280 2.086 . S
Zn276 O285 1.977 . S
O277 Zn276 2.032 . S
O277 C281 1.278 . S
C278 O279 1.203 . S
C278 O285 1.267 . S
O279 C278 1.203 . S
O280 C273 1.185 . S
O280 Zn276 2.086 . S
C281 O277 1.278 . S
C281 O282 1.211 . S
O282 C281 1.211 . S
C283 O275 1.284 . S
C283 O284 1.273 . S
O284 C283 1.273 . S
O285 Zn276 1.977 . S
O285 C278 1.267 . S
C286 O287 1.160 . S
C286 O293 1.185 1_554 S
O287 C286 1.160 . S
O288 Zn289 1.899 1_554 S
O288 C296 1.284 . S
Zn289 O288 1.899 1_556 S
Zn289 O290 2.032 . S
Zn289 O293 2.086 . S
Zn289 O298 1.977 . S
O290 Zn289 2.032 . S
O290 C294 1.278 . S
C291 O292 1.203 . S
C291 O298 1.267 . S
O292 C291 1.203 . S
O293 C286 1.185 1_556 S
O293 Zn289 2.086 . S
C294 O290 1.278 . S
C294 O295 1.211 . S
O295 C294 1.211 . S
C296 O288 1.284 . S
C296 O297 1.273 1_554 S
O297 C296 1.273 1_556 S
O298 Zn289 1.977 . S
O298 C291 1.267 . S
C299 O300 1.160 . S
C299 O306 1.185 . S
O300 C299 1.160 . S
O301 Zn302 1.899 . S
O301 C309 1.284 . S
Zn302 O301 1.899 . S
Zn302 O303 2.032 . S
Zn302 O306 2.086 . S
Zn302 O311 1.977 . S
O303 Zn302 2.032 . S
O303 C307 1.278 . S
C304 O305 1.203 . S
C304 O311 1.267 . S
O305 C304 1.203 . S
O306 C299 1.185 . S
O306 Zn302 2.086 . S
C307 O303 1.278 . S
C307 O308 1.211 . S
O308 C307 1.211 . S
C309 O301 1.284 . S
C309 O310 1.273 . S
O310 C309 1.273 . S
O311 Zn302 1.977 . S
O311 C304 1.267 . S
C312 O313 1.160 . S
C312 O319 1.185 . S
O313 C312 1.160 . S
O314 Zn315 1.899 . S
O314 C322 1.284 . S
Zn315 O314 1.899 . S
Zn315 O316 2.032 . S
Zn315 O319 2.086 . S
Zn315 O324 1.977 . S
O316 Zn315 2.032 . S
O316 C320 1.278 . S
C317 O318 1.203 . S
C317 O324 1.267 . S
O318 C317 1.203 . S
O319 C312 1.185 . S
O319 Zn315 2.086 . S
C320 O316 1.278 . S
C320 O321 1.211 . S
O321 C320 1.211 . S
C322 O314 1.284 . S
C322 O323 1.273 . S
O323 C322 1.273 . S
O324 Zn315 1.977 . S
O324 C317 1.267 . S
C325 O326 1.160 . S
C325 O332 1.185 . S
O326 C325 1.160 . S
O327 Zn328 1.899 . S
O327 C335 1.284 . S
Zn328 O327 1.899 . S
Zn328 O329 2.032 . S
Zn328 O332 2.086 . S
Zn328 O337 1.977 . S
O329 Zn328 2.032 . S
O329 C333 1.278 . S
C330 O331 1.203 . S
C330 O337 1.267 . S
O331 C330 1.203 . S
O332 C325 1.185 . S
O332 Zn328 2.086 . S
C333 O329 1.278 . S
C333 O334 1.211 . S
O334 C333 1.211 . S
C335 O327 1.284 . S
C335 O336 1.273 . S
O336 C335 1.273 . S
O337 Zn328 1.977 . S
O337 C330 1.267 . S
C338 O339 1.160 . S
C338 O345 1.185 . S
O339 C338 1.160 . S
O340 Zn341 1.899 . S
O340 C348 1.284 . S
Zn341 O340 1.899 . S
Zn341 O342 2.032 . S
Zn341 O345 2.086 . S
Zn341 O350 1.977 . S
O342 Zn341 2.032 . S
O342 C346 1.278 . S
C343 O344 1.203 . S
C343 O350 1.267 . S
O344 C343 1.203 . S
O345 C338 1.185 . S
O345 Zn341 2.086 . S
C346 O342 1.278 . S
C346 O347 1.211 . S
O347 C346 1.211 . S
C348 O340 1.284 . S
C348 O349 1.273 . S
O349 C348 1.273 . S
O350 Zn341 1.977 . S
O350 C343 1.267 . S
C351 O352 1.160 . S
C351 O358 1.185 . S
O352 C351 1.160 . S
O353 Zn354 1.899 . S
O353 C361 1.284 . S
Zn354 O353 1.899 . S
Zn354 O355 2.032 . S
Zn354 O358 2.086 . S
Zn354 O363 1.977 . S
O355 Zn354 2.032 . S
O355 C359 1.278 . S
C356 O357 1.203 . S
C356 O363 1.267 . S
O357 C356 1.203 . S
O358 C351 1.185 . S
O358 Zn354 2.086 . S
C359 O355 1.278 . S
C359 O360 1.211 . S
O360 C359 1.211 . S
C361 O353 1.284 . S
C361 O362 1.273 . S
O362 C361 1.273 . S
O363 Zn354 1.977 . S
O363 C356 1.267 . S
C364 O365 1.160 . S
C364 O371 1.185 . S
O365 C364 1.160 . S
O366 Zn367 1.899 . S
O366 C374 1.284 . S
Zn367 O366 1.899 . S
Zn367 O368 2.032 . S
Zn367 O371 2.086 . S
Zn367 O376 1.977 . S
O368 Zn367 2.032 . S
O368 C372 1.278 . S
C369 O370 1.203 . S
C369 O376 1.267 . S
O370 C369 1.203 . S
O371 C364 1.185 . S
O371 Zn367 2.086 . S
C372 O368 1.278 . S
C372 O373 1.211 . S
O373 C372 1.211 . S
C374 O366 1.284 . S
C374 O375 1.273 . S
O375 C374 1.273 . S
O376 Zn367 1.977 . S
O376 C369 1.267 . S
C377 O378 1.160 . S
C377 O384 1.185 . S
O378 C377 1.160 . S
O379 Zn380 1.899 . S
O379 C387 1.284 . S
Zn380 O379 1.899 . S
Zn380 O381 2.032 . S
Zn380 O384 2.086 . S
Zn380 O389 1.977 . S
O381 Zn380 2.032 . S
O381 C385 1.278 . S
C382 O383 1.203 . S
C382 O389 1.267 . S
O383 C382 1.203 . S
O384 C377 1.185 . S
O384 Zn380 2.086 . S
C385 O381 1.278 . S
C385 O386 1.211 . S
O386 C385 1.211 . S
C387 O379 1.284 . S
C387 O388 1.273 . S
O388 C387 1.273 . S
O389 Zn380 1.977 . S
O389 C382 1.267 . S
C390 O391 1.160 . S
C390 O397 1.185 . S
O391 C390 1.160 . S
O392 Zn393 1.899 . S
O392 C400 1.284 . S
Zn393 O392 1.899 . S
Zn393 O394 2.032 . S
Zn393 O397 2.086 . S
Zn393 O402 1.977 . S
O394 Zn393 2.032 . S
O394 C398 1.278 . S
C395 O396 1.203 . S
C395 O402 1.267 . S
O396 C395 1.203 . S
O397 C390 1.185 . S
O397 Zn393 2.086 . S
C398 O394 1.278 . S
C398 O399 1.211 . S
O399 C398 1.211 . S
C400 O392 1.284 . S
C400 O401 1.273 . S
O401 C400 1.273 . S
O402 Zn393 1.977 . S
O402 C395 1.267 . S
C403 O404 1.160 . S
C403 O410 1.185 . S
O404 C403 1.160 . S
O405 Zn406 1.899 . S
O405 C413 1.284 . S
Zn406 O405 1.899 . S
Zn406 O407 2.032 . S
Zn406 O410 2.086 . S
Zn406 O415 1.977 . S
O407 Zn406 2.032 . S
O407 C411 1.278 . S
C408 O409 1.203 . S
C408 O415 1.267 . S
O409 C408 1.203 . S
O410 C403 1.185 . S
O410 Zn406 2.086 . S
C411 O407 1.278 . S
C411 O412 1.211 . S
O412 C411 1.211 . S
C413 O405 1.284 . S
C413 O414 1.273 . S
O414 C413 1.273 . S
O415 Zn406 1.977 . S
O415 C408 1.267 . S
C416 C417 1.391 . S
C416 C418 1.394 1_655 S
C416 H432 0.931 . S
C417 C416 1.391 . S
C417 C421 1.376 1_655 S
C418 C416 1.394 1_455 S
C418 C419 1.369 . S
C418 C422 1.531 . S
C419 C418 1.369 . S
C419 C420 1.410 . S
C419 C427 1.503 . S
C420 C419 1.410 . S
C420 C421 1.392 . S
C420 C423 1.511 . S
C421 C417 1.376 1_455 S
C421 C420 1.392 . S
C421 H433 0.929 . S
C422 C418 1.531 . S
C422 H434 0.960 . S
C422 H435 0.960 1_455 S
C422 H436 0.960 1_455 S
C423 C420 1.511 . S
C423 H437 0.961 . S
C423 H438 0.961 . S
C423 H439 0.961 . S
C424 C425 1.370 1_565 S
C424 C426 1.363 . S
C424 H440 0.931 1_565 S
C425 C424 1.370 1_545 S
C425 C429 1.408 1_545 S
C426 C424 1.363 . S
C426 C427 1.370 . S
C426 C430 1.524 . S
C427 C419 1.503 . S
C427 C426 1.370 . S
C427 C428 1.403 . S
C428 C427 1.403 . S
C428 C429 1.404 . S
C428 C431 1.539 . S
C429 C425 1.408 1_565 S
C429 C428 1.404 . S
C429 H441 0.930 . S
C430 C426 1.524 . S
C430 H442 0.956 . S
C430 H443 0.961 . S
C430 H444 0.961 . S
C431 C428 1.539 . S
C431 H445 0.958 . S
C431 H446 0.961 . S
C431 H447 0.960 . S
H432 C416 0.931 . S
H433 C421 0.929 . S
H434 C422 0.960 . S
H435 C422 0.960 1_655 S
H436 C422 0.960 1_655 S
H437 C423 0.961 . S
H438 C423 0.961 . S
H439 C423 0.961 . S
H440 C424 0.931 1_545 S
H441 C429 0.930 . S
H442 C430 0.956 . S
H443 C430 0.961 . S
H444 C430 0.961 . S
H445 C431 0.958 . S
H446 C431 0.961 . S
H447 C431 0.960 . S
C448 C449 1.391 . S
C448 C450 1.394 . S
C448 H464 0.931 . S
C449 C448 1.391 . S
C449 C453 1.376 . S
C450 C448 1.394 . S
C450 C451 1.369 . S
C450 C454 1.531 . S
C451 C450 1.369 . S
C451 C452 1.410 . S
C451 C459 1.503 . S
C452 C451 1.410 . S
C452 C453 1.392 . S
C452 C455 1.511 . S
C453 C449 1.376 . S
C453 C452 1.392 . S
C453 H465 0.929 . S
C454 C450 1.531 . S
C454 H466 0.960 . S
C454 H467 0.962 . S
C454 H468 0.960 . S
C455 C452 1.511 . S
C455 H469 0.961 . S
C455 H470 0.961 . S
C455 H471 0.961 . S
C456 C457 1.370 1_655 S
C456 C458 1.363 . S
C456 H472 0.931 . S
C457 C456 1.370 1_455 S
C457 C461 1.408 . S
C458 C456 1.363 . S
C458 C459 1.370 . S
C458 C462 1.524 . S
C459 C451 1.503 . S
C459 C458 1.370 . S
C459 C460 1.403 . S
C460 C459 1.403 . S
C460 C461 1.404 1_655 S
C460 C463 1.539 . S
C461 C457 1.408 . S
C461 C460 1.404 1_455 S
C461 H473 0.930 . S
C462 C458 1.524 . S
C462 H474 0.956 . S
C462 H475 0.961 . S
C462 H476 0.961 . S
C463 C460 1.539 . S
C463 H477 0.958 . S
C463 H478 0.961 1_655 S
C463 H479 0.960 . S
H464 C448 0.931 . S
H465 C453 0.929 . S
H466 C454 0.960 . S
H467 C454 0.962 . S
H468 C454 0.960 . S
H469 C455 0.961 . S
H470 C455 0.961 . S
H471 C455 0.961 . S
H472 C456 0.931 . S
H473 C461 0.930 . S
H474 C462 0.956 . S
H475 C462 0.961 . S
H476 C462 0.961 . S
H477 C463 0.958 . S
H478 C463 0.961 1_455 S
H479 C463 0.960 . S
C480 C481 1.391 . S
C480 C482 1.394 . S
C480 H496 0.931 . S
C481 C480 1.391 . S
C481 C485 1.376 . S
C482 C480 1.394 . S
C482 C483 1.369 . S
C482 C486 1.531 . S
C483 C482 1.369 . S
C483 C484 1.410 . S
C483 C491 1.503 . S
C484 C483 1.410 . S
C484 C485 1.392 . S
C484 C487 1.511 . S
C485 C481 1.376 . S
C485 C484 1.392 . S
C485 H497 0.929 . S
C486 C482 1.531 . S
C486 H498 0.960 . S
C486 H499 0.962 . S
C486 H500 0.960 . S
C487 C484 1.511 . S
C487 H501 0.954 1_556 S
C487 H502 0.961 1_556 S
C487 H503 0.961 . S
C488 C489 1.370 . S
C488 C490 1.363 . S
C488 H504 0.931 . S
C489 C488 1.370 . S
C489 C493 1.408 1_554 S
C490 C488 1.363 . S
C490 C491 1.370 1_554 S
C490 C494 1.524 . S
C491 C483 1.503 . S
C491 C490 1.370 1_556 S
C491 C492 1.403 . S
C492 C491 1.403 . S
C492 C493 1.404 . S
C492 C495 1.539 . S
C493 C489 1.408 1_556 S
C493 C492 1.404 . S
C493 H505 0.930 . S
C494 C490 1.524 . S
C494 H506 0.956 . S
C494 H507 0.961 . S
C494 H508 0.961 . S
C495 C492 1.539 . S
C495 H509 0.958 . S
C495 H510 0.961 . S
C495 H511 0.960 . S
H496 C480 0.931 . S
H497 C485 0.929 . S
H498 C486 0.960 . S
H499 C486 0.962 . S
H500 C486 0.960 . S
H501 C487 0.954 1_554 S
H502 C487 0.961 1_554 S
H503 C487 0.961 . S
H504 C488 0.931 . S
H505 C493 0.930 . S
H506 C494 0.956 . S
H507 C494 0.961 . S
H508 C494 0.961 . S
H509 C495 0.958 . S
H510 C495 0.961 . S
H511 C495 0.960 . S
C512 C513 1.391 . S
C512 C514 1.394 . S
C512 H528 0.931 . S
C513 C512 1.391 . S
C513 C517 1.376 . S
C514 C512 1.394 . S
C514 C515 1.369 . S
C514 C518 1.531 . S
C515 C514 1.369 . S
C515 C516 1.410 . S
C515 C523 1.503 . S
C516 C515 1.410 . S
C516 C517 1.392 . S
C516 C519 1.511 . S
C517 C513 1.376 . S
C517 C516 1.392 . S
C517 H529 0.929 . S
C518 C514 1.531 . S
C518 H530 0.960 . S
C518 H531 0.962 . S
C518 H532 0.960 . S
C519 C516 1.511 . S
C519 H533 0.961 . S
C519 H534 0.961 . S
C519 H535 0.961 . S
C520 C521 1.370 1_545 S
C520 C522 1.365 . S
C520 H536 0.929 1_545 S
C521 C520 1.370 1_565 S
C521 C525 1.408 1_565 S
C522 C520 1.365 . S
C522 C523 1.370 . S
C522 C526 1.524 . S
C523 C515 1.503 . S
C523 C522 1.370 . S
C523 C524 1.403 . S
C524 C523 1.403 . S
C524 C525 1.404 . S
C524 C527 1.539 . S
C525 C521 1.408 1_545 S
C525 C524 1.404 . S
C525 H537 0.930 . S
C526 C522 1.524 . S
C526 H538 0.956 . S
C526 H539 0.961 . S
C526 H540 0.961 . S
C527 C524 1.539 . S
C527 H541 0.958 . S
C527 H542 0.961 . S
C527 H543 0.960 . S
H528 C512 0.931 . S
H529 C517 0.929 . S
H530 C518 0.960 . S
H531 C518 0.962 . S
H532 C518 0.960 . S
H533 C519 0.961 . S
H534 C519 0.961 . S
H535 C519 0.961 . S
H536 C520 0.929 1_565 S
H537 C525 0.930 . S
H538 C526 0.956 . S
H539 C526 0.961 . S
H540 C526 0.961 . S
H541 C527 0.958 . S
H542 C527 0.961 . S
H543 C527 0.960 . S
C544 C545 1.391 1_564 S
C544 C546 1.394 . S
C544 H560 0.931 . S
C545 C544 1.391 1_546 S
C545 C549 1.376 . S
C546 C544 1.394 . S
C546 C547 1.369 . S
C546 C550 1.531 . S
C547 C546 1.369 . S
C547 C548 1.410 1_554 S
C547 C555 1.503 . S
C548 C547 1.410 1_556 S
C548 C549 1.392 1_565 S
C548 C551 1.511 1_565 S
C549 C545 1.376 . S
C549 C548 1.392 1_545 S
C549 H561 0.929 . S
C550 C546 1.531 . S
C550 H562 0.960 . S
C550 H563 0.962 . S
C550 H564 0.960 . S
C551 C548 1.511 1_545 S
C551 H565 0.961 . S
C551 H566 0.961 1_545 S
C551 H567 0.961 1_556 S
C552 C553 1.370 1_556 S
C552 C554 1.363 . S
C552 H568 0.931 . S
C553 C552 1.370 1_554 S
C553 C557 1.408 . S
C554 C552 1.363 . S
C554 C555 1.370 1_556 S
C554 C558 1.524 . S
C555 C547 1.503 . S
C555 C554 1.370 1_554 S
C555 C556 1.403 . S
C556 C555 1.403 . S
C556 C557 1.404 . S
C556 C559 1.539 . S
C557 C553 1.408 . S
C557 C556 1.404 . S
C557 H569 0.930 . S
C558 C554 1.524 . S
C558 H570 0.956 . S
C558 H571 0.961 . S
C558 H572 0.961 . S
C559 C556 1.539 . S
C559 H573 0.958 . S
C559 H574 0.961 . S
C559 H575 0.960 . S
H560 C544 0.931 . S
H561 C549 0.929 . S
H562 C550 0.960 . S
H563 C550 0.962 . S
H564 C550 0.960 . S
H565 C551 0.961 . S
H566 C551 0.961 1_565 S
H567 C551 0.961 1_554 S
H568 C552 0.931 . S
H569 C557 0.930 . S
H570 C558 0.956 . S
H571 C558 0.961 . S
H572 C558 0.961 . S
H573 C559 0.958 . S
H574 C559 0.961 . S
H575 C559 0.960 . S
C576 C577 1.391 . S
C576 C578 1.394 . S
C576 H592 0.931 . S
C577 C576 1.391 . S
C577 C581 1.376 . S
C578 C576 1.394 . S
C578 C579 1.369 . S
C578 C582 1.531 . S
C579 C578 1.369 . S
C579 C580 1.410 . S
C579 C587 1.503 . S
C580 C579 1.410 . S
C580 C581 1.392 . S
C580 C583 1.511 . S
C581 C577 1.376 . S
C581 C580 1.392 . S
C581 H593 0.929 . S
C582 C578 1.531 . S
C582 H594 0.960 . S
C582 H595 0.962 . S
C582 H596 0.960 . S
C583 C580 1.511 . S
C583 H597 0.961 . S
C583 H598 0.961 . S
C583 H599 0.961 . S
C584 C585 1.370 . S
C584 C586 1.363 1_455 S
C584 H600 0.931 . S
C585 C584 1.370 . S
C585 C589 1.408 . S
C586 C584 1.363 1_655 S
C586 C587 1.370 . S
C586 C590 1.524 . S
C587 C579 1.503 . S
C587 C586 1.370 . S
C587 C588 1.403 . S
C588 C587 1.403 . S
C588 C589 1.404 1_655 S
C588 C591 1.539 . S
C589 C585 1.408 . S
C589 C588 1.404 1_455 S
C589 H601 0.930 . S
C590 C586 1.524 . S
C590 H602 0.956 . S
C590 H603 0.961 . S
C590 H604 0.961 . S
C591 C588 1.539 . S
C591 H605 0.958 . S
C591 H606 0.961 . S
C591 H607 0.960 . S
H592 C576 0.931 . S
H593 C581 0.929 . S
H594 C582 0.960 . S
H595 C582 0.962 . S
H596 C582 0.960 . S
H597 C583 0.961 . S
H598 C583 0.961 . S
H599 C583 0.961 . S
H600 C584 0.931 . S
H601 C589 0.930 . S
H602 C590 0.956 . S
H603 C590 0.961 . S
H604 C590 0.961 . S
H605 C591 0.958 . S
H606 C591 0.961 . S
H607 C591 0.960 . S
C608 C609 1.391 . S
C608 C610 1.394 . S
C608 H624 0.931 . S
C609 C608 1.391 . S
C609 C613 1.376 . S
C610 C608 1.394 . S
C610 C611 1.369 . S
C610 C614 1.531 . S
C611 C610 1.369 . S
C611 C612 1.410 . S
C611 C619 1.503 . S
C612 C611 1.410 . S
C612 C613 1.392 . S
C612 C615 1.511 . S
C613 C609 1.376 . S
C613 C612 1.392 . S
C613 H625 0.929 . S
C614 C610 1.531 . S
C614 H626 0.960 . S
C614 H627 0.962 . S
C614 H628 0.960 . S
C615 C612 1.511 . S
C615 H629 0.961 . S
C615 H630 0.961 . S
C615 H631 0.961 . S
C616 C617 1.370 . S
C616 C618 1.363 . S
C616 H632 0.931 . S
C617 C616 1.370 . S
C617 C621 1.408 . S
C618 C616 1.363 . S
C618 C619 1.370 . S
C618 C622 1.524 . S
C619 C611 1.503 . S
C619 C618 1.370 . S
C619 C620 1.403 . S
C620 C619 1.403 . S
C620 C621 1.404 . S
C620 C623 1.539 . S
C621 C617 1.408 . S
C621 C620 1.404 . S
C621 H633 0.930 . S
C622 C618 1.524 . S
C622 H634 0.956 . S
C622 H635 0.961 . S
C622 H636 0.961 . S
C623 C620 1.539 . S
C623 H637 0.958 . S
C623 H638 0.961 . S
C623 H639 0.960 . S
H624 C608 0.931 . S
H625 C613 0.929 . S
H626 C614 0.960 . S
H627 C614 0.962 . S
H628 C614 0.960 . S
H629 C615 0.961 . S
H630 C615 0.961 . S
H631 C615 0.961 . S
H632 C616 0.931 . S
H633 C621 0.930 . S
H634 C622 0.956 . S
H635 C622 0.961 . S
H636 C622 0.961 . S
H637 C623 0.958 . S
H638 C623 0.961 . S
H639 C623 0.960 . S
C640 C641 1.391 . S
C640 C642 1.394 . S
C640 H656 0.931 . S
C641 C640 1.391 . S
C641 C645 1.376 . S
C642 C640 1.394 . S
C642 C643 1.369 . S
C642 C646 1.531 . S
C643 C642 1.369 . S
C643 C644 1.410 . S
C643 C651 1.503 . S
C644 C643 1.410 . S
C644 C645 1.392 . S
C644 C647 1.511 . S
C645 C641 1.376 . S
C645 C644 1.392 . S
C645 H657 0.929 . S
C646 C642 1.531 . S
C646 H658 0.960 . S
C646 H659 0.962 . S
C646 H660 0.960 . S
C647 C644 1.511 . S
C647 H661 0.961 . S
C647 H662 0.961 . S
C647 H663 0.961 . S
C648 C649 1.370 . S
C648 C650 1.363 . S
C648 H664 0.931 . S
C649 C648 1.370 . S
C649 C653 1.408 . S
C650 C648 1.363 . S
C650 C651 1.370 . S
C650 C654 1.524 . S
C651 C643 1.503 . S
C651 C650 1.370 . S
C651 C652 1.403 . S
C652 C651 1.403 . S
C652 C653 1.404 . S
C652 C655 1.539 . S
C653 C649 1.408 . S
C653 C652 1.404 . S
C653 H665 0.930 . S
C654 C650 1.524 . S
C654 H666 0.956 . S
C654 H667 0.961 . S
C654 H668 0.961 . S
C655 C652 1.539 . S
C655 H669 0.958 . S
C655 H670 0.961 . S
C655 H671 0.960 . S
H656 C640 0.931 . S
H657 C645 0.929 . S
H658 C646 0.960 . S
H659 C646 0.962 . S
H660 C646 0.960 . S
H661 C647 0.961 . S
H662 C647 0.961 . S
H663 C647 0.961 . S
H664 C648 0.931 . S
H665 C653 0.930 . S
H666 C654 0.956 . S
H667 C654 0.961 . S
H668 C654 0.961 . S
H669 C655 0.958 . S
H670 C655 0.961 . S
H671 C655 0.960 . S
C672 C673 1.391 . S
C672 C674 1.394 . S
C672 H688 0.931 . S
C673 C672 1.391 . S
C673 C677 1.376 . S
C674 C672 1.394 . S
C674 C675 1.369 . S
C674 C678 1.531 . S
C675 C674 1.369 . S
C675 C676 1.410 . S
C675 C683 1.503 . S
C676 C675 1.410 . S
C676 C677 1.392 . S
C676 C679 1.511 . S
C677 C673 1.376 . S
C677 C676 1.392 . S
C677 H689 0.929 . S
C678 C674 1.531 . S
C678 H690 0.960 . S
C678 H691 0.962 . S
C678 H692 0.960 . S
C679 C676 1.511 . S
C679 H693 0.961 . S
C679 H694 0.961 . S
C679 H695 0.961 . S
C680 C681 1.370 . S
C680 C682 1.363 . S
C680 H696 0.931 . S
C681 C680 1.370 . S
C681 C685 1.408 . S
C682 C680 1.363 . S
C682 C683 1.370 . S
C682 C686 1.524 . S
C683 C675 1.503 . S
C683 C682 1.370 . S
C683 C684 1.403 . S
C684 C683 1.403 . S
C684 C685 1.404 . S
C684 C687 1.539 . S
C685 C681 1.408 . S
C685 C684 1.404 . S
C685 H697 0.930 . S
C686 C682 1.524 . S
C686 H698 0.956 . S
C686 H699 0.961 . S
C686 H700 0.961 . S
C687 C684 1.539 . S
C687 H701 0.958 . S
C687 H702 0.961 . S
C687 H703 0.960 . S
H688 C672 0.931 . S
H689 C677 0.929 . S
H690 C678 0.960 . S
H691 C678 0.962 . S
H692 C678 0.960 . S
H693 C679 0.961 . S
H694 C679 0.961 . S
H695 C679 0.961 . S
H696 C680 0.931 . S
H697 C685 0.930 . S
H698 C686 0.956 . S
H699 C686 0.961 . S
H700 C686 0.961 . S
H701 C687 0.958 . S
H702 C687 0.961 . S
H703 C687 0.960 . S
C704 C705 1.391 . S
C704 C706 1.394 . S
C704 H720 0.931 . S
C705 C704 1.391 . S
C705 C709 1.376 . S
C706 C704 1.394 . S
C706 C707 1.369 . S
C706 C710 1.531 . S
C707 C706 1.369 . S
C707 C708 1.410 . S
C707 C715 1.503 . S
C708 C707 1.410 . S
C708 C709 1.392 . S
C708 C711 1.511 . S
C709 C705 1.376 . S
C709 C708 1.392 . S
C709 H721 0.929 . S
C710 C706 1.531 . S
C710 H722 0.960 . S
C710 H723 0.962 . S
C710 H724 0.960 . S
C711 C708 1.511 . S
C711 H725 0.961 . S
C711 H726 0.961 . S
C711 H727 0.961 . S
C712 C713 1.370 . S
C712 C714 1.363 . S
C712 H728 0.931 . S
C713 C712 1.370 . S
C713 C717 1.408 . S
C714 C712 1.363 . S
C714 C715 1.370 . S
C714 C718 1.524 . S
C715 C707 1.503 . S
C715 C714 1.370 . S
C715 C716 1.403 . S
C716 C715 1.403 . S
C716 C717 1.404 . S
C716 C719 1.539 . S
C717 C713 1.408 . S
C717 C716 1.404 . S
C717 H729 0.930 . S
C718 C714 1.524 . S
C718 H730 0.956 . S
C718 H731 0.961 . S
C718 H732 0.961 . S
C719 C716 1.539 . S
C719 H733 0.958 . S
C719 H734 0.961 . S
C719 H735 0.960 . S
H720 C704 0.931 . S
H721 C709 0.929 . S
H722 C710 0.960 . S
H723 C710 0.962 . S
H724 C710 0.960 . S
H725 C711 0.961 . S
H726 C711 0.961 . S
H727 C711 0.961 . S
H728 C712 0.931 . S
H729 C717 0.930 . S
H730 C718 0.956 . S
H731 C718 0.961 . S
H732 C718 0.961 . S
H733 C719 0.958 . S
H734 C719 0.961 . S
H735 C719 0.960 . S
C736 C737 1.391 . S
C736 C738 1.394 . S
C736 H752 0.931 . S
C737 C736 1.391 . S
C737 C741 1.376 . S
C738 C736 1.394 . S
C738 C739 1.369 . S
C738 C742 1.531 . S
C739 C738 1.369 . S
C739 C740 1.410 . S
C739 C747 1.503 . S
C740 C739 1.410 . S
C740 C741 1.392 . S
C740 C743 1.511 . S
C741 C737 1.376 . S
C741 C740 1.392 . S
C741 H753 0.929 . S
C742 C738 1.531 . S
C742 H754 0.960 . S
C742 H755 0.962 . S
C742 H756 0.960 . S
C743 C740 1.511 . S
C743 H757 0.961 . S
C743 H758 0.961 . S
C743 H759 0.961 . S
C744 C745 1.370 1_545 S
C744 C746 1.363 . S
C744 H760 0.949 . S
C745 C744 1.370 1_565 S
C745 C749 1.408 1_565 S
C746 C744 1.363 . S
C746 C747 1.370 . S
C746 C750 1.524 . S
C747 C739 1.503 . S
C747 C746 1.370 . S
C747 C748 1.403 . S
C748 C747 1.403 . S
C748 C749 1.404 . S
C748 C751 1.539 . S
C749 C745 1.408 1_545 S
C749 C748 1.404 . S
C749 H761 0.944 . S
C750 C746 1.524 . S
C750 H762 0.956 . S
C750 H763 0.961 . S
C750 H764 0.961 . S
C751 C748 1.539 . S
C751 H765 0.958 . S
C751 H766 0.961 . S
C751 H767 0.960 . S
H752 C736 0.931 . S
H753 C741 0.929 . S
H754 C742 0.960 . S
H755 C742 0.962 . S
H756 C742 0.960 . S
H757 C743 0.961 . S
H758 C743 0.961 . S
H759 C743 0.961 . S
H760 C744 0.949 . S
H761 C749 0.944 . S
H762 C750 0.956 . S
H763 C750 0.961 . S
H764 C750 0.961 . S
H765 C751 0.958 . S
H766 C751 0.961 . S
H767 C751 0.960 . S
C768 C769 1.391 . S
C768 C770 1.394 1_655 S
C768 H784 0.931 . S
C769 C768 1.391 . S
C769 C773 1.370 1_654 S
C770 C768 1.394 1_455 S
C770 C771 1.369 . S
C770 C774 1.531 . S
C771 C770 1.369 . S
C771 C772 1.410 1_554 S
C771 C779 1.512 . S
C772 C771 1.410 1_556 S
C772 C773 1.395 . S
C772 C775 1.511 . S
C773 C769 1.370 1_456 S
C773 C772 1.395 . S
C773 H785 0.932 . S
C774 C770 1.531 . S
C774 H786 0.960 . S
C774 H787 0.962 1_455 S
C774 H788 0.960 1_455 S
C775 C772 1.511 . S
C775 H789 0.961 . S
C775 H790 0.961 . S
C775 H791 0.961 1_556 S
C776 C777 1.370 . S
C776 C778 1.363 . S
C776 H792 0.931 . S
C777 C776 1.370 . S
C777 C781 1.408 1_556 S
C778 C776 1.363 . S
C778 C779 1.345 1_556 S
C778 C782 1.524 . S
C779 C771 1.512 . S
C779 C778 1.345 1_554 S
C779 C780 1.421 . S
C780 C779 1.421 . S
C780 C781 1.404 . S
C780 C783 1.539 . S
C781 C777 1.408 1_554 S
C781 C780 1.404 . S
C781 H793 0.930 . S
C782 C778 1.524 . S
C782 H794 0.956 . S
C782 H795 0.961 . S
C782 H796 0.961 . S
C783 C780 1.539 . S
C783 H797 0.958 . S
C783 H798 0.961 . S
C783 H799 0.960 . S
H784 C768 0.931 . S
H785 C773 0.932 . S
H786 C774 0.960 . S
H787 C774 0.962 1_655 S
H788 C774 0.960 1_655 S
H789 C775 0.961 . S
H790 C775 0.961 . S
H791 C775 0.961 1_554 S
H792 C776 0.931 . S
H793 C781 0.930 . S
H794 C782 0.956 . S
H795 C782 0.961 . S
H796 C782 0.961 . S
H797 C783 0.958 . S
H798 C783 0.961 . S
H799 C783 0.960 . S
C800 C801 1.391 . S
C800 C802 1.394 . S
C800 H816 0.931 . S
C801 C800 1.391 . S
C801 C805 1.376 . S
C802 C800 1.394 . S
C802 C803 1.369 . S
C802 C806 1.531 . S
C803 C802 1.369 . S
C803 C804 1.410 . S
C803 C811 1.503 . S
C804 C803 1.410 . S
C804 C805 1.392 . S
C804 C807 1.511 . S
C805 C801 1.376 . S
C805 C804 1.392 . S
C805 H817 0.929 . S
C806 C802 1.531 . S
C806 H818 0.960 . S
C806 H819 0.962 . S
C806 H820 0.960 . S
C807 C804 1.511 . S
C807 H821 0.961 . S
C807 H822 0.961 . S
C807 H823 0.961 . S
C808 C809 1.370 . S
C808 C810 1.363 . S
C808 H824 0.931 . S
C809 C808 1.370 . S
C809 C813 1.408 . S
C810 C808 1.363 . S
C810 C811 1.370 . S
C810 C814 1.524 . S
C811 C803 1.503 . S
C811 C810 1.370 . S
C811 C812 1.403 . S
C812 C811 1.403 . S
C812 C813 1.404 . S
C812 C815 1.539 . S
C813 C809 1.408 . S
C813 C812 1.404 . S
C813 H825 0.930 . S
C814 C810 1.524 . S
C814 H826 0.956 . S
C814 H827 0.961 . S
C814 H828 0.961 . S
C815 C812 1.539 . S
C815 H829 0.958 . S
C815 H830 0.961 . S
C815 H831 0.960 . S
H816 C800 0.931 . S
H817 C805 0.929 . S
H818 C806 0.960 . S
H819 C806 0.962 . S
H820 C806 0.960 . S
H821 C807 0.961 . S
H822 C807 0.961 . S
H823 C807 0.961 . S
H824 C808 0.931 . S
H825 C813 0.930 . S
H826 C814 0.956 . S
H827 C814 0.961 . S
H828 C814 0.961 . S
H829 C815 0.958 . S
H830 C815 0.961 . S
H831 C815 0.960 . S
C832 C833 1.391 1_556 S
C832 C834 1.394 . S
C832 H848 0.931 . S
C833 C832 1.391 1_554 S
C833 C837 1.376 . S
C834 C832 1.394 . S
C834 C835 1.369 1_556 S
C834 C838 1.531 . S
C835 C834 1.369 1_554 S
C835 C836 1.410 . S
C835 C843 1.503 1_554 S
C836 C835 1.410 . S
C836 C837 1.392 . S
C836 C839 1.511 . S
C837 C833 1.376 . S
C837 C836 1.392 . S
C837 H849 0.929 . S
C838 C834 1.531 . S
C838 H850 0.960 . S
C838 H851 0.962 . S
C838 H852 0.960 . S
C839 C836 1.511 . S
C839 H853 0.961 . S
C839 H854 0.961 . S
C839 H855 0.961 . S
C840 C841 1.370 . S
C840 C842 1.363 . S
C840 H856 0.931 . S
C841 C840 1.370 . S
C841 C845 1.408 1_556 S
C842 C840 1.363 . S
C842 C843 1.370 . S
C842 C846 1.524 . S
C843 C835 1.503 1_556 S
C843 C842 1.370 . S
C843 C844 1.403 1_556 S
C844 C843 1.403 1_554 S
C844 C845 1.404 . S
C844 C847 1.539 . S
C845 C841 1.408 1_554 S
C845 C844 1.404 . S
C845 H857 0.930 . S
C846 C842 1.524 . S
C846 H858 0.956 . S
C846 H859 0.961 . S
C846 H860 0.961 . S
C847 C844 1.539 . S
C847 H861 0.958 . S
C847 H862 0.961 . S
C847 H863 0.960 . S
H848 C832 0.931 . S
H849 C837 0.929 . S
H850 C838 0.960 . S
H851 C838 0.962 . S
H852 C838 0.960 . S
H853 C839 0.961 . S
H854 C839 0.961 . S
H855 C839 0.961 . S
H856 C840 0.931 . S
H857 C845 0.930 . S
H858 C846 0.956 . S
H859 C846 0.961 . S
H860 C846 0.961 . S
H861 C847 0.958 . S
H862 C847 0.961 . S
H863 C847 0.960 . S
C864 C865 1.391 . S
C864 C866 1.394 . S
C864 H880 0.931 . S
C865 C864 1.391 . S
C865 C869 1.376 . S
C866 C864 1.394 . S
C866 C867 1.369 . S
C866 C870 1.531 . S
C867 C866 1.369 . S
C867 C868 1.410 . S
C867 C875 1.503 . S
C868 C867 1.410 . S
C868 C869 1.392 . S
C868 C871 1.511 . S
C869 C865 1.376 . S
C869 C868 1.392 . S
C869 H881 0.929 . S
C870 C866 1.531 . S
C870 H882 0.960 . S
C870 H883 0.962 . S
C870 H884 0.960 . S
C871 C868 1.511 . S
C871 H885 0.961 . S
C871 H886 0.961 . S
C871 H887 0.961 . S
C872 C873 1.370 . S
C872 C874 1.363 . S
C872 H888 0.931 . S
C873 C872 1.370 . S
C873 C877 1.408 . S
C874 C872 1.363 . S
C874 C875 1.370 . S
C874 C878 1.524 . S
C875 C867 1.503 . S
C875 C874 1.370 . S
C875 C876 1.403 . S
C876 C875 1.403 . S
C876 C877 1.404 . S
C876 C879 1.539 . S
C877 C873 1.408 . S
C877 C876 1.404 . S
C877 H889 0.930 . S
C878 C874 1.524 . S
C878 H890 0.956 . S
C878 H891 0.961 . S
C878 H892 0.961 . S
C879 C876 1.539 . S
C879 H893 0.958 . S
C879 H894 0.961 . S
C879 H895 0.960 . S
H880 C864 0.931 . S
H881 C869 0.929 . S
H882 C870 0.960 . S
H883 C870 0.962 . S
H884 C870 0.960 . S
H885 C871 0.961 . S
H886 C871 0.961 . S
H887 C871 0.961 . S
H888 C872 0.931 . S
H889 C877 0.930 . S
H890 C878 0.956 . S
H891 C878 0.961 . S
H892 C878 0.961 . S
H893 C879 0.958 . S
H894 C879 0.961 . S
H895 C879 0.960 . S
C896 C897 1.391 . S
C896 C898 1.394 . S
C896 H912 0.931 . S
C897 C896 1.391 . S
C897 C901 1.376 . S
C898 C896 1.394 . S
C898 C899 1.369 . S
C898 C902 1.531 . S
C899 C898 1.369 . S
C899 C900 1.410 . S
C899 C907 1.503 . S
C900 C899 1.410 . S
C900 C901 1.392 . S
C900 C903 1.511 . S
C901 C897 1.376 . S
C901 C900 1.392 . S
C901 H913 0.929 . S
C902 C898 1.531 . S
C902 H914 0.960 . S
C902 H915 0.962 . S
C902 H916 0.960 . S
C903 C900 1.511 . S
C903 H917 0.961 . S
C903 H918 0.961 . S
C903 H919 0.961 . S
C904 C905 1.370 . S
C904 C906 1.363 . S
C904 H920 0.931 . S
C905 C904 1.370 . S
C905 C909 1.408 . S
C906 C904 1.363 . S
C906 C907 1.370 . S
C906 C910 1.524 . S
C907 C899 1.503 . S
C907 C906 1.370 . S
C907 C908 1.403 . S
C908 C907 1.403 . S
C908 C909 1.404 . S
C908 C911 1.539 . S
C909 C905 1.408 . S
C909 C908 1.404 . S
C909 H921 0.930 . S
C910 C906 1.524 . S
C910 H922 0.956 . S
C910 H923 0.961 . S
C910 H924 0.961 . S
C911 C908 1.539 . S
C911 H925 0.958 . S
C911 H926 0.961 . S
C911 H927 0.960 . S
H912 C896 0.931 . S
H913 C901 0.929 . S
H914 C902 0.960 . S
H915 C902 0.962 . S
H916 C902 0.960 . S
H917 C903 0.961 . S
H918 C903 0.961 . S
H919 C903 0.961 . S
H920 C904 0.931 . S
H921 C909 0.930 . S
H922 C910 0.956 . S
H923 C910 0.961 . S
H924 C910 0.961 . S
H925 C911 0.958 . S
H926 C911 0.961 . S
H927 C911 0.960 . S
C928 C929 1.391 . S
C928 C930 1.394 . S
C928 H944 0.931 . S
C929 C928 1.391 . S
C929 C933 1.376 . S
C930 C928 1.394 . S
C930 C931 1.369 . S
C930 C934 1.531 . S
C931 C930 1.369 . S
C931 C932 1.410 . S
C931 C939 1.503 . S
C932 C931 1.410 . S
C932 C933 1.392 . S
C932 C935 1.511 . S
C933 C929 1.376 . S
C933 C932 1.392 . S
C933 H945 0.929 . S
C934 C930 1.531 . S
C934 H946 0.960 . S
C934 H947 0.962 . S
C934 H948 0.960 . S
C935 C932 1.511 . S
C935 H949 0.961 . S
C935 H950 0.961 . S
C935 H951 0.961 . S
C936 C937 1.370 . S
C936 C938 1.363 . S
C936 H952 0.931 . S
C937 C936 1.370 . S
C937 C941 1.408 . S
C938 C936 1.363 . S
C938 C939 1.370 . S
C938 C942 1.524 . S
C939 C931 1.503 . S
C939 C938 1.370 . S
C939 C940 1.403 . S
C940 C939 1.403 . S
C940 C941 1.404 . S
C940 C943 1.539 . S
C941 C937 1.408 . S
C941 C940 1.404 . S
C941 H953 0.930 . S
C942 C938 1.524 . S
C942 H954 0.956 . S
C942 H955 0.961 . S
C942 H956 0.961 . S
C943 C940 1.539 . S
C943 H957 0.958 . S
C943 H958 0.961 . S
C943 H959 0.960 . S
H944 C928 0.931 . S
H945 C933 0.929 . S
H946 C934 0.960 . S
H947 C934 0.962 . S
H948 C934 0.960 . S
H949 C935 0.961 . S
H950 C935 0.961 . S
H951 C935 0.961 . S
H952 C936 0.931 . S
H953 C941 0.930 . S
H954 C942 0.956 . S
H955 C942 0.961 . S
H956 C942 0.961 . S
H957 C943 0.958 . S
H958 C943 0.961 . S
H959 C943 0.960 . S
C960 C961 1.391 . S
C960 C962 1.394 . S
C960 H976 0.931 . S
C961 C960 1.391 . S
C961 C965 1.376 . S
C962 C960 1.394 . S
C962 C963 1.369 . S
C962 C966 1.531 . S
C963 C962 1.369 . S
C963 C964 1.410 . S
C963 C971 1.503 . S
C964 C963 1.410 . S
C964 C965 1.392 . S
C964 C967 1.511 . S
C965 C961 1.376 . S
C965 C964 1.392 . S
C965 H977 0.929 . S
C966 C962 1.531 . S
C966 H978 0.960 . S
C966 H979 0.962 . S
C966 H980 0.960 . S
C967 C964 1.511 . S
C967 H981 0.961 . S
C967 H982 0.961 . S
C967 H983 0.961 . S
C968 C969 1.370 . S
C968 C970 1.363 . S
C968 H984 0.931 . S
C969 C968 1.370 . S
C969 C973 1.408 . S
C970 C968 1.363 . S
C970 C971 1.370 . S
C970 C974 1.524 . S
C971 C963 1.503 . S
C971 C970 1.370 . S
C971 C972 1.403 . S
C972 C971 1.403 . S
C972 C973 1.404 . S
C972 C975 1.539 . S
C973 C969 1.408 . S
C973 C972 1.404 . S
C973 H985 0.930 . S
C974 C970 1.524 . S
C974 H986 0.956 . S
C974 H987 0.961 . S
C974 H988 0.961 . S
C975 C972 1.539 . S
C975 H989 0.958 . S
C975 H990 0.961 . S
C975 H991 0.960 . S
H976 C960 0.931 . S
H977 C965 0.929 . S
H978 C966 0.960 . S
H979 C966 0.962 . S
H980 C966 0.960 . S
H981 C967 0.961 . S
H982 C967 0.961 . S
H983 C967 0.961 . S
H984 C968 0.931 . S
H985 C973 0.930 . S
H986 C974 0.956 . S
H987 C974 0.961 . S
H988 C974 0.961 . S
H989 C975 0.958 . S
H990 C975 0.961 . S
H991 C975 0.960 . S
C992 C993 1.391 . S
C992 C994 1.394 1_556 S
C992 H1008 0.940 . S
C993 C992 1.391 . S
C993 C997 1.376 . S
C994 C992 1.394 1_554 S
C994 C995 1.369 1_554 S
C994 C998 1.531 . S
C995 C994 1.369 1_556 S
C995 C996 1.410 . S
C995 C1003 1.504 . S
C996 C995 1.410 . S
C996 C997 1.392 . S
C996 C999 1.511 . S
C997 C993 1.376 . S
C997 C996 1.392 . S
C997 H1009 0.929 . S
C998 C994 1.531 . S
C998 H1010 0.960 . S
C998 H1011 0.962 1_554 S
C998 H1012 0.960 . S
C999 C996 1.511 . S
C999 H1013 0.961 . S
C999 H1014 0.961 . S
C999 H1015 0.961 . S
C1000 C1001 1.370 1_556 S
C1000 C1002 1.363 . S
C1000 H1016 0.931 . S
C1001 C1000 1.370 1_554 S
C1001 C1005 1.408 . S
C1002 C1000 1.363 . S
C1002 C1003 1.395 . S
C1002 C1006 1.524 . S
C1003 C995 1.504 . S
C1003 C1002 1.395 . S
C1003 C1004 1.379 1_556 S
C1004 C1003 1.379 1_554 S
C1004 C1005 1.404 . S
C1004 C1007 1.539 . S
C1005 C1001 1.408 . S
C1005 C1004 1.404 . S
C1005 H1017 0.930 . S
C1006 C1002 1.524 . S
C1006 H1018 0.956 . S
C1006 H1019 0.961 . S
C1006 H1020 0.961 . S
C1007 C1004 1.539 . S
C1007 H1021 0.958 . S
C1007 H1022 0.961 . S
C1007 H1023 0.960 . S
H1008 C992 0.940 . S
H1009 C997 0.929 . S
H1010 C998 0.960 . S
H1011 C998 0.962 1_556 S
H1012 C998 0.960 . S
H1013 C999 0.961 . S
H1014 C999 0.961 . S
H1015 C999 0.961 . S
H1016 C1000 0.931 . S
H1017 C1005 0.930 . S
H1018 C1006 0.956 . S
H1019 C1006 0.961 . S
H1020 C1006 0.961 . S
H1021 C1007 0.958 . S
H1022 C1007 0.961 . S
H1023 C1007 0.960 . S
C1024 C1025 1.391 . S
C1024 C1026 1.394 . S
C1024 H1040 0.931 . S
C1025 C1024 1.391 . S
C1025 C1029 1.376 . S
C1026 C1024 1.394 . S
C1026 C1027 1.369 . S
C1026 C1030 1.531 . S
C1027 C1026 1.369 . S
C1027 C1028 1.410 . S
C1027 C1035 1.503 . S
C1028 C1027 1.410 . S
C1028 C1029 1.392 . S
C1028 C1031 1.511 . S
C1029 C1025 1.376 . S
C1029 C1028 1.392 . S
C1029 H1041 0.929 . S
C1030 C1026 1.531 . S
C1030 H1042 0.960 . S
C1030 H1043 0.962 . S
C1030 H1044 0.960 . S
C1031 C1028 1.511 . S
C1031 H1045 0.961 . S
C1031 H1046 0.961 . S
C1031 H1047 0.961 . S
C1032 C1033 1.370 . S
C1032 C1034 1.363 . S
C1032 H1048 0.931 . S
C1033 C1032 1.370 . S
C1033 C1037 1.408 . S
C1034 C1032 1.363 . S
C1034 C1035 1.370 . S
C1034 C1038 1.524 . S
C1035 C1027 1.503 . S
C1035 C1034 1.370 . S
C1035 C1036 1.403 . S
C1036 C1035 1.403 . S
C1036 C1037 1.404 . S
C1036 C1039 1.539 . S
C1037 C1033 1.408 . S
C1037 C1036 1.404 . S
C1037 H1049 0.930 . S
C1038 C1034 1.524 . S
C1038 H1050 0.956 . S
C1038 H1051 0.961 . S
C1038 H1052 0.961 . S
C1039 C1036 1.539 . S
C1039 H1053 0.958 . S
C1039 H1054 0.961 . S
C1039 H1055 0.960 . S
H1040 C1024 0.931 . S
H1041 C1029 0.929 . S
H1042 C1030 0.960 . S
H1043 C1030 0.962 . S
H1044 C1030 0.960 . S
H1045 C1031 0.961 . S
H1046 C1031 0.961 . S
H1047 C1031 0.961 . S
H1048 C1032 0.931 . S
H1049 C1037 0.930 . S
H1050 C1038 0.956 . S
H1051 C1038 0.961 . S
H1052 C1038 0.961 . S
H1053 C1039 0.958 . S
H1054 C1039 0.961 . S
H1055 C1039 0.960 . S
C1056 C1057 1.391 . S
C1056 C1058 1.394 . S
C1056 H1072 0.931 . S
C1057 C1056 1.391 . S
C1057 C1061 1.376 . S
C1058 C1056 1.394 . S
C1058 C1059 1.369 . S
C1058 C1062 1.531 . S
C1059 C1058 1.369 . S
C1059 C1060 1.410 . S
C1059 C1067 1.503 . S
C1060 C1059 1.410 . S
C1060 C1061 1.392 . S
C1060 C1063 1.511 . S
C1061 C1057 1.376 . S
C1061 C1060 1.392 . S
C1061 H1073 0.929 . S
C1062 C1058 1.531 . S
C1062 H1074 0.960 . S
C1062 H1075 0.962 . S
C1062 H1076 0.960 . S
C1063 C1060 1.511 . S
C1063 H1077 0.961 . S
C1063 H1078 0.961 . S
C1063 H1079 0.961 . S
C1064 C1065 1.370 . S
C1064 C1066 1.363 . S
C1064 H1080 0.931 . S
C1065 C1064 1.370 . S
C1065 C1069 1.408 . S
C1066 C1064 1.363 . S
C1066 C1067 1.370 . S
C1066 C1070 1.524 . S
C1067 C1059 1.503 . S
C1067 C1066 1.370 . S
C1067 C1068 1.403 . S
C1068 C1067 1.403 . S
C1068 C1069 1.404 . S
C1068 C1071 1.539 . S
C1069 C1065 1.408 . S
C1069 C1068 1.404 . S
C1069 H1081 0.930 . S
C1070 C1066 1.524 . S
C1070 H1082 0.956 . S
C1070 H1083 0.961 . S
C1070 H1084 0.961 . S
C1071 C1068 1.539 . S
C1071 H1085 0.958 . S
C1071 H1086 0.961 . S
C1071 H1087 0.960 . S
H1072 C1056 0.931 . S
H1073 C1061 0.929 . S
H1074 C1062 0.960 . S
H1075 C1062 0.962 . S
H1076 C1062 0.960 . S
H1077 C1063 0.961 . S
H1078 C1063 0.961 . S
H1079 C1063 0.961 . S
H1080 C1064 0.931 . S
H1081 C1069 0.930 . S
H1082 C1070 0.956 . S
H1083 C1070 0.961 . S
H1084 C1070 0.961 . S
H1085 C1071 0.958 . S
H1086 C1071 0.961 . S
H1087 C1071 0.960 . S
C1088 C1089 1.391 1_554 S
C1088 C1090 1.394 . S
C1088 H1104 0.931 . S
C1089 C1088 1.391 1_556 S
C1089 C1093 1.376 . S
C1090 C1088 1.394 . S
C1090 C1091 1.369 . S
C1090 C1094 1.531 . S
C1091 C1090 1.369 . S
C1091 C1092 1.410 1_554 S
C1091 C1099 1.503 . S
C1092 C1091 1.410 1_556 S
C1092 C1093 1.392 . S
C1092 C1095 1.511 . S
C1093 C1089 1.376 . S
C1093 C1092 1.392 . S
C1093 H1105 0.929 . S
C1094 C1090 1.531 . S
C1094 H1106 0.960 . S
C1094 H1107 0.962 . S
C1094 H1108 0.960 . S
C1095 C1092 1.511 . S
C1095 H1109 0.961 . S
C1095 H1110 0.961 . S
C1095 H1111 0.961 . S
C1096 C1097 1.370 . S
C1096 C1098 1.366 . S
C1096 H1112 0.931 . S
C1097 C1096 1.370 . S
C1097 C1101 1.408 . S
C1098 C1096 1.366 . S
C1098 C1099 1.379 . S
C1098 C1102 1.513 1_554 S
C1099 C1091 1.503 . S
C1099 C1098 1.379 . S
C1099 C1100 1.403 . S
C1100 C1099 1.403 . S
C1100 C1101 1.404 . S
C1100 C1103 1.539 . S
C1101 C1097 1.408 . S
C1101 C1100 1.404 . S
C1101 H1113 0.930 . S
C1102 C1098 1.513 1_556 S
C1102 H1114 0.935 1_556 S
C1102 H1115 0.961 . S
C1102 H1116 0.961 . S
C1103 C1100 1.539 . S
C1103 H1117 0.958 . S
C1103 H1118 0.961 . S
C1103 H1119 0.960 . S
H1104 C1088 0.931 . S
H1105 C1093 0.929 . S
H1106 C1094 0.960 . S
H1107 C1094 0.962 . S
H1108 C1094 0.960 . S
H1109 C1095 0.961 . S
H1110 C1095 0.961 . S
H1111 C1095 0.961 . S
H1112 C1096 0.931 . S
H1113 C1101 0.930 . S
H1114 C1102 0.935 1_554 S
H1115 C1102 0.961 . S
H1116 C1102 0.961 . S
H1117 C1103 0.958 . S
H1118 C1103 0.961 . S
H1119 C1103 0.960 . S
C1120 C1121 1.391 . S
C1120 C1122 1.394 . S
C1120 H1136 0.931 . S
C1121 C1120 1.391 . S
C1121 C1125 1.376 . S
C1122 C1120 1.394 . S
C1122 C1123 1.369 . S
C1122 C1126 1.531 . S
C1123 C1122 1.369 . S
C1123 C1124 1.410 . S
C1123 C1131 1.503 . S
C1124 C1123 1.410 . S
C1124 C1125 1.392 . S
C1124 C1127 1.511 . S
C1125 C1121 1.376 . S
C1125 C1124 1.392 . S
C1125 H1137 0.929 . S
C1126 C1122 1.531 . S
C1126 H1138 0.960 . S
C1126 H1139 0.962 . S
C1126 H1140 0.960 . S
C1127 C1124 1.511 . S
C1127 H1141 0.961 . S
C1127 H1142 0.961 . S
C1127 H1143 0.961 . S
C1128 C1129 1.370 . S
C1128 C1130 1.363 . S
C1128 H1144 0.931 . S
C1129 C1128 1.370 . S
C1129 C1133 1.408 . S
C1130 C1128 1.363 . S
C1130 C1131 1.370 . S
C1130 C1134 1.524 . S
C1131 C1123 1.503 . S
C1131 C1130 1.370 . S
C1131 C1132 1.403 . S
C1132 C1131 1.403 . S
C1132 C1133 1.404 . S
C1132 C1135 1.539 . S
C1133 C1129 1.408 . S
C1133 C1132 1.404 . S
C1133 H1145 0.930 . S
C1134 C1130 1.524 . S
C1134 H1146 0.956 . S
C1134 H1147 0.961 . S
C1134 H1148 0.961 . S
C1135 C1132 1.539 . S
C1135 H1149 0.958 . S
C1135 H1150 0.961 . S
C1135 H1151 0.960 . S
H1136 C1120 0.931 . S
H1137 C1125 0.929 . S
H1138 C1126 0.960 . S
H1139 C1126 0.962 . S
H1140 C1126 0.960 . S
H1141 C1127 0.961 . S
H1142 C1127 0.961 . S
H1143 C1127 0.961 . S
H1144 C1128 0.931 . S
H1145 C1133 0.930 . S
H1146 C1134 0.956 . S
H1147 C1134 0.961 . S
H1148 C1134 0.961 . S
H1149 C1135 0.958 . S
H1150 C1135 0.961 . S
H1151 C1135 0.960 . S
C1152 C1153 1.391 . S
C1152 C1154 1.394 . S
C1152 H1168 0.931 . S
C1153 C1152 1.391 . S
C1153 C1157 1.376 . S
C1154 C1152 1.394 . S
C1154 C1155 1.369 . S
C1154 C1158 1.531 . S
C1155 C1154 1.369 . S
C1155 C1156 1.410 . S
C1155 C1163 1.503 . S
C1156 C1155 1.410 . S
C1156 C1157 1.392 . S
C1156 C1159 1.511 . S
C1157 C1153 1.376 . S
C1157 C1156 1.392 . S
C1157 H1169 0.929 . S
C1158 C1154 1.531 . S
C1158 H1170 0.960 . S
C1158 H1171 0.962 . S
C1158 H1172 0.960 . S
C1159 C1156 1.511 . S
C1159 H1173 0.961 . S
C1159 H1174 0.961 . S
C1159 H1175 0.961 . S
C1160 C1161 1.370 . S
C1160 C1162 1.363 . S
C1160 H1176 0.931 . S
C1161 C1160 1.370 . S
C1161 C1165 1.408 . S
C1162 C1160 1.363 . S
C1162 C1163 1.370 . S
C1162 C1166 1.524 . S
C1163 C1155 1.503 . S
C1163 C1162 1.370 . S
C1163 C1164 1.403 . S
C1164 C1163 1.403 . S
C1164 C1165 1.404 . S
C1164 C1167 1.539 . S
C1165 C1161 1.408 . S
C1165 C1164 1.404 . S
C1165 H1177 0.930 . S
C1166 C1162 1.524 . S
C1166 H1178 0.956 . S
C1166 H1179 0.961 . S
C1166 H1180 0.961 . S
C1167 C1164 1.539 . S
C1167 H1181 0.958 . S
C1167 H1182 0.961 . S
C1167 H1183 0.960 . S
H1168 C1152 0.931 . S
H1169 C1157 0.929 . S
H1170 C1158 0.960 . S
H1171 C1158 0.962 . S
H1172 C1158 0.960 . S
H1173 C1159 0.961 . S
H1174 C1159 0.961 . S
H1175 C1159 0.961 . S
H1176 C1160 0.931 . S
H1177 C1165 0.930 . S
H1178 C1166 0.956 . S
H1179 C1166 0.961 . S
H1180 C1166 0.961 . S
H1181 C1167 0.958 . S
H1182 C1167 0.961 . S
H1183 C1167 0.960 . S
C1184 C1185 1.391 . S
C1184 C1186 1.394 . S
C1184 H1200 0.931 . S
C1185 C1184 1.391 . S
C1185 C1189 1.376 . S
C1186 C1184 1.394 . S
C1186 C1187 1.369 . S
C1186 C1190 1.531 . S
C1187 C1186 1.369 . S
C1187 C1188 1.410 . S
C1187 C1195 1.503 . S
C1188 C1187 1.410 . S
C1188 C1189 1.392 . S
C1188 C1191 1.511 . S
C1189 C1185 1.376 . S
C1189 C1188 1.392 . S
C1189 H1201 0.929 . S
C1190 C1186 1.531 . S
C1190 H1202 0.960 . S
C1190 H1203 0.962 . S
C1190 H1204 0.960 . S
C1191 C1188 1.511 . S
C1191 H1205 0.961 . S
C1191 H1206 0.961 . S
C1191 H1207 0.961 . S
C1192 C1193 1.370 . S
C1192 C1194 1.363 . S
C1192 H1208 0.931 . S
C1193 C1192 1.370 . S
C1193 C1197 1.408 . S
C1194 C1192 1.363 . S
C1194 C1195 1.370 . S
C1194 C1198 1.524 . S
C1195 C1187 1.503 . S
C1195 C1194 1.370 . S
C1195 C1196 1.403 . S
C1196 C1195 1.403 . S
C1196 C1197 1.404 . S
C1196 C1199 1.539 . S
C1197 C1193 1.408 . S
C1197 C1196 1.404 . S
C1197 H1209 0.930 . S
C1198 C1194 1.524 . S
C1198 H1210 0.956 . S
C1198 H1211 0.961 . S
C1198 H1212 0.961 . S
C1199 C1196 1.539 . S
C1199 H1213 0.958 . S
C1199 H1214 0.961 . S
C1199 H1215 0.960 . S
H1200 C1184 0.931 . S
H1201 C1189 0.929 . S
H1202 C1190 0.960 . S
H1203 C1190 0.962 . S
H1204 C1190 0.960 . S
H1205 C1191 0.961 . S
H1206 C1191 0.961 . S
H1207 C1191 0.961 . S
H1208 C1192 0.931 . S
H1209 C1197 0.930 . S
H1210 C1198 0.956 . S
H1211 C1198 0.961 . S
H1212 C1198 0.961 . S
H1213 C1199 0.958 . S
H1214 C1199 0.961 . S
H1215 C1199 0.960 . S
C1216 C1217 1.391 . S
C1216 C1218 1.394 . S
C1216 H1232 0.931 . S
C1217 C1216 1.391 . S
C1217 C1221 1.376 . S
C1218 C1216 1.394 . S
C1218 C1219 1.369 . S
C1218 C1222 1.531 . S
C1219 C1218 1.369 . S
C1219 C1220 1.410 . S
C1219 C1227 1.503 . S
C1220 C1219 1.410 . S
C1220 C1221 1.392 . S
C1220 C1223 1.511 . S
C1221 C1217 1.376 . S
C1221 C1220 1.392 . S
C1221 H1233 0.929 . S
C1222 C1218 1.531 . S
C1222 H1234 0.960 . S
C1222 H1235 0.962 . S
C1222 H1236 0.960 . S
C1223 C1220 1.511 . S
C1223 H1237 0.961 . S
C1223 H1238 0.961 . S
C1223 H1239 0.961 . S
C1224 C1225 1.370 . S
C1224 C1226 1.363 . S
C1224 H1240 0.931 . S
C1225 C1224 1.370 . S
C1225 C1229 1.408 . S
C1226 C1224 1.363 . S
C1226 C1227 1.370 . S
C1226 C1230 1.524 . S
C1227 C1219 1.503 . S
C1227 C1226 1.370 . S
C1227 C1228 1.403 . S
C1228 C1227 1.403 . S
C1228 C1229 1.404 . S
C1228 C1231 1.539 . S
C1229 C1225 1.408 . S
C1229 C1228 1.404 . S
C1229 H1241 0.930 . S
C1230 C1226 1.524 . S
C1230 H1242 0.956 . S
C1230 H1243 0.961 . S
C1230 H1244 0.961 . S
C1231 C1228 1.539 . S
C1231 H1245 0.958 . S
C1231 H1246 0.961 . S
C1231 H1247 0.960 . S
H1232 C1216 0.931 . S
H1233 C1221 0.929 . S
H1234 C1222 0.960 . S
H1235 C1222 0.962 . S
H1236 C1222 0.960 . S
H1237 C1223 0.961 . S
H1238 C1223 0.961 . S
H1239 C1223 0.961 . S
H1240 C1224 0.931 . S
H1241 C1229 0.930 . S
H1242 C1230 0.956 . S
H1243 C1230 0.961 . S
H1244 C1230 0.961 . S
H1245 C1231 0.958 . S
H1246 C1231 0.961 . S
H1247 C1231 0.960 . S
C1248 C1249 1.391 . S
C1248 C1250 1.394 . S
C1248 H1264 0.931 . S
C1249 C1248 1.391 . S
C1249 C1253 1.376 . S
C1250 C1248 1.394 . S
C1250 C1251 1.369 . S
C1250 C1254 1.531 . S
C1251 C1250 1.369 . S
C1251 C1252 1.410 . S
C1251 C1259 1.503 . S
C1252 C1251 1.410 . S
C1252 C1253 1.392 . S
C1252 C1255 1.511 . S
C1253 C1249 1.376 . S
C1253 C1252 1.392 . S
C1253 H1265 0.929 . S
C1254 C1250 1.531 . S
C1254 H1266 0.960 . S
C1254 H1267 0.962 . S
C1254 H1268 0.960 . S
C1255 C1252 1.511 . S
C1255 H1269 0.961 . S
C1255 H1270 0.961 . S
C1255 H1271 0.961 . S
C1256 C1257 1.370 . S
C1256 C1258 1.363 . S
C1256 H1272 0.931 . S
C1257 C1256 1.370 . S
C1257 C1261 1.408 . S
C1258 C1256 1.363 . S
C1258 C1259 1.370 . S
C1258 C1262 1.524 . S
C1259 C1251 1.503 . S
C1259 C1258 1.370 . S
C1259 C1260 1.403 . S
C1260 C1259 1.403 . S
C1260 C1261 1.404 . S
C1260 C1263 1.539 . S
C1261 C1257 1.408 . S
C1261 C1260 1.404 . S
C1261 H1273 0.930 . S
C1262 C1258 1.524 . S
C1262 H1274 0.956 . S
C1262 H1275 0.961 . S
C1262 H1276 0.961 . S
C1263 C1260 1.539 . S
C1263 H1277 0.958 . S
C1263 H1278 0.961 . S
C1263 H1279 0.960 . S
H1264 C1248 0.931 . S
H1265 C1253 0.929 . S
H1266 C1254 0.960 . S
H1267 C1254 0.962 . S
H1268 C1254 0.960 . S
H1269 C1255 0.961 . S
H1270 C1255 0.961 . S
H1271 C1255 0.961 . S
H1272 C1256 0.931 . S
H1273 C1261 0.930 . S
H1274 C1262 0.956 . S
H1275 C1262 0.961 . S
H1276 C1262 0.961 . S
H1277 C1263 0.958 . S
H1278 C1263 0.961 . S
H1279 C1263 0.960 . S
C1280 C1281 1.391 . S
C1280 C1282 1.394 . S
C1280 H1296 0.931 . S
C1281 C1280 1.391 . S
C1281 C1285 1.376 . S
C1282 C1280 1.394 . S
C1282 C1283 1.369 . S
C1282 C1286 1.531 . S
C1283 C1282 1.369 . S
C1283 C1284 1.410 . S
C1283 C1291 1.503 . S
C1284 C1283 1.410 . S
C1284 C1285 1.392 . S
C1284 C1287 1.511 . S
C1285 C1281 1.376 . S
C1285 C1284 1.392 . S
C1285 H1297 0.929 . S
C1286 C1282 1.531 . S
C1286 H1298 0.960 . S
C1286 H1299 0.962 . S
C1286 H1300 0.960 . S
C1287 C1284 1.511 . S
C1287 H1301 0.961 . S
C1287 H1302 0.961 . S
C1287 H1303 0.961 . S
C1288 C1289 1.370 . S
C1288 C1290 1.363 . S
C1288 H1304 0.931 . S
C1289 C1288 1.370 . S
C1289 C1293 1.408 . S
C1290 C1288 1.363 . S
C1290 C1291 1.370 . S
C1290 C1294 1.524 . S
C1291 C1283 1.503 . S
C1291 C1290 1.370 . S
C1291 C1292 1.403 . S
C1292 C1291 1.403 . S
C1292 C1293 1.404 . S
C1292 C1295 1.539 . S
C1293 C1289 1.408 . S
C1293 C1292 1.404 . S
C1293 H1305 0.930 . S
C1294 C1290 1.524 . S
C1294 H1306 0.956 . S
C1294 H1307 0.961 . S
C1294 H1308 0.961 . S
C1295 C1292 1.539 . S
C1295 H1309 0.958 . S
C1295 H1310 0.961 . S
C1295 H1311 0.960 . S
H1296 C1280 0.931 . S
H1297 C1285 0.929 . S
H1298 C1286 0.960 . S
H1299 C1286 0.962 . S
H1300 C1286 0.960 . S
H1301 C1287 0.961 . S
H1302 C1287 0.961 . S
H1303 C1287 0.961 . S
H1304 C1288 0.931 . S
H1305 C1293 0.930 . S
H1306 C1294 0.956 . S
H1307 C1294 0.961 . S
H1308 C1294 0.961 . S
H1309 C1295 0.958 . S
H1310 C1295 0.961 . S
H1311 C1295 0.960 . S
C1312 C1313 1.391 . S
C1312 C1314 1.394 . S
C1312 H1328 0.931 . S
C1313 C1312 1.391 . S
C1313 C1317 1.376 . S
C1314 C1312 1.394 . S
C1314 C1315 1.369 . S
C1314 C1318 1.531 . S
C1315 C1314 1.369 . S
C1315 C1316 1.410 . S
C1315 C1323 1.503 . S
C1316 C1315 1.410 . S
C1316 C1317 1.392 . S
C1316 C1319 1.511 . S
C1317 C1313 1.376 . S
C1317 C1316 1.392 . S
C1317 H1329 0.929 . S
C1318 C1314 1.531 . S
C1318 H1330 0.960 . S
C1318 H1331 0.962 . S
C1318 H1332 0.960 . S
C1319 C1316 1.511 . S
C1319 H1333 0.961 . S
C1319 H1334 0.961 . S
C1319 H1335 0.961 . S
C1320 C1321 1.370 . S
C1320 C1322 1.363 . S
C1320 H1336 0.931 . S
C1321 C1320 1.370 . S
C1321 C1325 1.408 . S
C1322 C1320 1.363 . S
C1322 C1323 1.370 . S
C1322 C1326 1.524 . S
C1323 C1315 1.503 . S
C1323 C1322 1.370 . S
C1323 C1324 1.403 . S
C1324 C1323 1.403 . S
C1324 C1325 1.404 . S
C1324 C1327 1.539 . S
C1325 C1321 1.408 . S
C1325 C1324 1.404 . S
C1325 H1337 0.930 . S
C1326 C1322 1.524 . S
C1326 H1338 0.956 . S
C1326 H1339 0.961 . S
C1326 H1340 0.961 . S
C1327 C1324 1.539 . S
C1327 H1341 0.958 . S
C1327 H1342 0.961 . S
C1327 H1343 0.960 . S
H1328 C1312 0.931 . S
H1329 C1317 0.929 . S
H1330 C1318 0.960 . S
H1331 C1318 0.962 . S
H1332 C1318 0.960 . S
H1333 C1319 0.961 . S
H1334 C1319 0.961 . S
H1335 C1319 0.961 . S
H1336 C1320 0.931 . S
H1337 C1325 0.930 . S
H1338 C1326 0.956 . S
H1339 C1326 0.961 . S
H1340 C1326 0.961 . S
H1341 C1327 0.958 . S
H1342 C1327 0.961 . S
H1343 C1327 0.960 . S
C1344 C1345 1.391 . S
C1344 C1346 1.394 . S
C1344 H1360 0.931 . S
C1345 C1344 1.391 . S
C1345 C1349 1.376 . S
C1346 C1344 1.394 . S
C1346 C1347 1.369 . S
C1346 C1350 1.531 . S
C1347 C1346 1.369 . S
C1347 C1348 1.410 . S
C1347 C1355 1.503 . S
C1348 C1347 1.410 . S
C1348 C1349 1.392 . S
C1348 C1351 1.511 . S
C1349 C1345 1.376 . S
C1349 C1348 1.392 . S
C1349 H1361 0.929 . S
C1350 C1346 1.531 . S
C1350 H1362 0.960 . S
C1350 H1363 0.962 . S
C1350 H1364 0.960 . S
C1351 C1348 1.511 . S
C1351 H1365 0.961 . S
C1351 H1366 0.961 . S
C1351 H1367 0.961 . S
C1352 C1353 1.370 . S
C1352 C1354 1.363 . S
C1352 H1368 0.931 . S
C1353 C1352 1.370 . S
C1353 C1357 1.408 . S
C1354 C1352 1.363 . S
C1354 C1355 1.370 . S
C1354 C1358 1.524 . S
C1355 C1347 1.503 . S
C1355 C1354 1.370 . S
C1355 C1356 1.403 . S
C1356 C1355 1.403 . S
C1356 C1357 1.404 . S
C1356 C1359 1.539 . S
C1357 C1353 1.408 . S
C1357 C1356 1.404 . S
C1357 H1369 0.930 . S
C1358 C1354 1.524 . S
C1358 H1370 0.956 . S
C1358 H1371 0.961 . S
C1358 H1372 0.961 . S
C1359 C1356 1.539 . S
C1359 H1373 0.958 . S
C1359 H1374 0.961 . S
C1359 H1375 0.960 . S
H1360 C1344 0.931 . S
H1361 C1349 0.929 . S
H1362 C1350 0.960 . S
H1363 C1350 0.962 . S
H1364 C1350 0.960 . S
H1365 C1351 0.961 . S
H1366 C1351 0.961 . S
H1367 C1351 0.961 . S
H1368 C1352 0.931 . S
H1369 C1357 0.930 . S
H1370 C1358 0.956 . S
H1371 C1358 0.961 . S
H1372 C1358 0.961 . S
H1373 C1359 0.958 . S
H1374 C1359 0.961 . S
H1375 C1359 0.960 . S
C1376 C1377 1.391 . S
C1376 C1378 1.394 . S
C1376 H1392 0.931 . S
C1377 C1376 1.391 . S
C1377 C1381 1.376 . S
C1378 C1376 1.394 . S
C1378 C1379 1.369 . S
C1378 C1382 1.531 . S
C1379 C1378 1.369 . S
C1379 C1380 1.410 . S
C1379 C1387 1.503 . S
C1380 C1379 1.410 . S
C1380 C1381 1.392 . S
C1380 C1383 1.511 . S
C1381 C1377 1.376 . S
C1381 C1380 1.392 . S
C1381 H1393 0.929 . S
C1382 C1378 1.531 . S
C1382 H1394 0.960 . S
C1382 H1395 0.962 . S
C1382 H1396 0.960 . S
C1383 C1380 1.511 . S
C1383 H1397 0.961 . S
C1383 H1398 0.961 . S
C1383 H1399 0.961 . S
C1384 C1385 1.370 . S
C1384 C1386 1.363 . S
C1384 H1400 0.931 . S
C1385 C1384 1.370 . S
C1385 C1389 1.408 . S
C1386 C1384 1.363 . S
C1386 C1387 1.370 . S
C1386 C1390 1.524 . S
C1387 C1379 1.503 . S
C1387 C1386 1.370 . S
C1387 C1388 1.403 . S
C1388 C1387 1.403 . S
C1388 C1389 1.404 . S
C1388 C1391 1.539 . S
C1389 C1385 1.408 . S
C1389 C1388 1.404 . S
C1389 H1401 0.930 . S
C1390 C1386 1.524 . S
C1390 H1402 0.956 . S
C1390 H1403 0.961 . S
C1390 H1404 0.961 . S
C1391 C1388 1.539 . S
C1391 H1405 0.958 . S
C1391 H1406 0.961 . S
C1391 H1407 0.960 . S
H1392 C1376 0.931 . S
H1393 C1381 0.929 . S
H1394 C1382 0.960 . S
H1395 C1382 0.962 . S
H1396 C1382 0.960 . S
H1397 C1383 0.961 . S
H1398 C1383 0.961 . S
H1399 C1383 0.961 . S
H1400 C1384 0.931 . S
H1401 C1389 0.930 . S
H1402 C1390 0.956 . S
H1403 C1390 0.961 . S
H1404 C1390 0.961 . S
H1405 C1391 0.958 . S
H1406 C1391 0.961 . S
H1407 C1391 0.960 . S
C1408 C1409 1.391 . S
C1408 C1410 1.394 . S
C1408 H1424 0.931 . S
C1409 C1408 1.391 . S
C1409 C1413 1.376 . S
C1410 C1408 1.394 . S
C1410 C1411 1.369 . S
C1410 C1414 1.531 . S
C1411 C1410 1.369 . S
C1411 C1412 1.410 . S
C1411 C1419 1.503 . S
C1412 C1411 1.410 . S
C1412 C1413 1.392 . S
C1412 C1415 1.511 . S
C1413 C1409 1.376 . S
C1413 C1412 1.392 . S
C1413 H1425 0.929 . S
C1414 C1410 1.531 . S
C1414 H1426 0.960 . S
C1414 H1427 0.962 . S
C1414 H1428 0.960 . S
C1415 C1412 1.511 . S
C1415 H1429 0.961 . S
C1415 H1430 0.961 . S
C1415 H1431 0.961 . S
C1416 C1417 1.370 . S
C1416 C1418 1.363 . S
C1416 H1432 0.931 . S
C1417 C1416 1.370 . S
C1417 C1421 1.408 . S
C1418 C1416 1.363 . S
C1418 C1419 1.370 . S
C1418 C1422 1.524 . S
C1419 C1411 1.503 . S
C1419 C1418 1.370 . S
C1419 C1420 1.403 . S
C1420 C1419 1.403 . S
C1420 C1421 1.404 . S
C1420 C1423 1.539 . S
C1421 C1417 1.408 . S
C1421 C1420 1.404 . S
C1421 H1433 0.930 . S
C1422 C1418 1.524 . S
C1422 H1434 0.956 . S
C1422 H1435 0.961 . S
C1422 H1436 0.961 . S
C1423 C1420 1.539 . S
C1423 H1437 0.958 . S
C1423 H1438 0.961 . S
C1423 H1439 0.960 . S
H1424 C1408 0.931 . S
H1425 C1413 0.929 . S
H1426 C1414 0.960 . S
H1427 C1414 0.962 . S
H1428 C1414 0.960 . S
H1429 C1415 0.961 . S
H1430 C1415 0.961 . S
H1431 C1415 0.961 . S
H1432 C1416 0.931 . S
H1433 C1421 0.930 . S
H1434 C1422 0.956 . S
H1435 C1422 0.961 . S
H1436 C1422 0.961 . S
H1437 C1423 0.958 . S
H1438 C1423 0.961 . S
H1439 C1423 0.960 . S
C1440 C1441 1.391 . S
C1440 C1442 1.394 . S
C1440 H1456 0.931 . S
C1441 C1440 1.391 . S
C1441 C1445 1.376 . S
C1442 C1440 1.394 . S
C1442 C1443 1.369 . S
C1442 C1446 1.531 . S
C1443 C1442 1.369 . S
C1443 C1444 1.410 . S
C1443 C1451 1.503 . S
C1444 C1443 1.410 . S
C1444 C1445 1.392 . S
C1444 C1447 1.511 . S
C1445 C1441 1.376 . S
C1445 C1444 1.392 . S
C1445 H1457 0.929 . S
C1446 C1442 1.531 . S
C1446 H1458 0.960 . S
C1446 H1459 0.962 . S
C1446 H1460 0.960 . S
C1447 C1444 1.511 . S
C1447 H1461 0.961 . S
C1447 H1462 0.961 . S
C1447 H1463 0.961 . S
C1448 C1449 1.370 . S
C1448 C1450 1.363 . S
C1448 H1464 0.931 . S
C1449 C1448 1.370 . S
C1449 C1453 1.408 . S
C1450 C1448 1.363 . S
C1450 C1451 1.370 . S
C1450 C1454 1.524 . S
C1451 C1443 1.503 . S
C1451 C1450 1.370 . S
C1451 C1452 1.403 . S
C1452 C1451 1.403 . S
C1452 C1453 1.404 . S
C1452 C1455 1.539 . S
C1453 C1449 1.408 . S
C1453 C1452 1.404 . S
C1453 H1465 0.930 . S
C1454 C1450 1.524 . S
C1454 H1466 0.956 . S
C1454 H1467 0.961 . S
C1454 H1468 0.961 . S
C1455 C1452 1.539 . S
C1455 H1469 0.958 . S
C1455 H1470 0.961 . S
C1455 H1471 0.960 . S
H1456 C1440 0.931 . S
H1457 C1445 0.929 . S
H1458 C1446 0.960 . S
H1459 C1446 0.962 . S
H1460 C1446 0.960 . S
H1461 C1447 0.961 . S
H1462 C1447 0.961 . S
H1463 C1447 0.961 . S
H1464 C1448 0.931 . S
H1465 C1453 0.930 . S
H1466 C1454 0.956 . S
H1467 C1454 0.961 . S
H1468 C1454 0.961 . S
H1469 C1455 0.958 . S
H1470 C1455 0.961 . S
H1471 C1455 0.960 . S
C1472 C1473 1.391 . S
C1472 C1474 1.394 . S
C1472 H1488 0.931 . S
C1473 C1472 1.391 . S
C1473 C1477 1.376 . S
C1474 C1472 1.394 . S
C1474 C1475 1.369 . S
C1474 C1478 1.531 . S
C1475 C1474 1.369 . S
C1475 C1476 1.410 . S
C1475 C1483 1.503 . S
C1476 C1475 1.410 . S
C1476 C1477 1.392 . S
C1476 C1479 1.511 . S
C1477 C1473 1.376 . S
C1477 C1476 1.392 . S
C1477 H1489 0.929 . S
C1478 C1474 1.531 . S
C1478 H1490 0.960 . S
C1478 H1491 0.962 . S
C1478 H1492 0.960 . S
C1479 C1476 1.511 . S
C1479 H1493 0.961 . S
C1479 H1494 0.961 . S
C1479 H1495 0.961 . S
C1480 C1481 1.370 . S
C1480 C1482 1.363 . S
C1480 H1496 0.931 . S
C1481 C1480 1.370 . S
C1481 C1485 1.408 . S
C1482 C1480 1.363 . S
C1482 C1483 1.370 . S
C1482 C1486 1.524 . S
C1483 C1475 1.503 . S
C1483 C1482 1.370 . S
C1483 C1484 1.403 . S
C1484 C1483 1.403 . S
C1484 C1485 1.404 . S
C1484 C1487 1.539 . S
C1485 C1481 1.408 . S
C1485 C1484 1.404 . S
C1485 H1497 0.930 . S
C1486 C1482 1.524 . S
C1486 H1498 0.956 . S
C1486 H1499 0.961 . S
C1486 H1500 0.961 . S
C1487 C1484 1.539 . S
C1487 H1501 0.958 . S
C1487 H1502 0.961 . S
C1487 H1503 0.960 . S
H1488 C1472 0.931 . S
H1489 C1477 0.929 . S
H1490 C1478 0.960 . S
H1491 C1478 0.962 . S
H1492 C1478 0.960 . S
H1493 C1479 0.961 . S
H1494 C1479 0.961 . S
H1495 C1479 0.961 . S
H1496 C1480 0.931 . S
H1497 C1485 0.930 . S
H1498 C1486 0.956 . S
H1499 C1486 0.961 . S
H1500 C1486 0.961 . S
H1501 C1487 0.958 . S
H1502 C1487 0.961 . S
H1503 C1487 0.960 . S
C1504 C1505 1.391 . S
C1504 C1506 1.394 . S
C1504 H1520 0.931 . S
C1505 C1504 1.391 . S
C1505 C1509 1.376 . S
C1506 C1504 1.394 . S
C1506 C1507 1.369 . S
C1506 C1510 1.531 . S
C1507 C1506 1.369 . S
C1507 C1508 1.410 . S
C1507 C1515 1.503 . S
C1508 C1507 1.410 . S
C1508 C1509 1.392 . S
C1508 C1511 1.511 . S
C1509 C1505 1.376 . S
C1509 C1508 1.392 . S
C1509 H1521 0.929 . S
C1510 C1506 1.531 . S
C1510 H1522 0.960 . S
C1510 H1523 0.962 . S
C1510 H1524 0.960 . S
C1511 C1508 1.511 . S
C1511 H1525 0.961 . S
C1511 H1526 0.961 . S
C1511 H1527 0.961 . S
C1512 C1513 1.370 . S
C1512 C1514 1.363 . S
C1512 H1528 0.931 . S
C1513 C1512 1.370 . S
C1513 C1517 1.408 . S
C1514 C1512 1.363 . S
C1514 C1515 1.370 . S
C1514 C1518 1.524 . S
C1515 C1507 1.503 . S
C1515 C1514 1.370 . S
C1515 C1516 1.403 . S
C1516 C1515 1.403 . S
C1516 C1517 1.404 . S
C1516 C1519 1.539 . S
C1517 C1513 1.408 . S
C1517 C1516 1.404 . S
C1517 H1529 0.930 . S
C1518 C1514 1.524 . S
C1518 H1530 0.956 . S
C1518 H1531 0.961 . S
C1518 H1532 0.961 . S
C1519 C1516 1.539 . S
C1519 H1533 0.958 . S
C1519 H1534 0.961 . S
C1519 H1535 0.960 . S
H1520 C1504 0.931 . S
H1521 C1509 0.929 . S
H1522 C1510 0.960 . S
H1523 C1510 0.962 . S
H1524 C1510 0.960 . S
H1525 C1511 0.961 . S
H1526 C1511 0.961 . S
H1527 C1511 0.961 . S
H1528 C1512 0.931 . S
H1529 C1517 0.930 . S
H1530 C1518 0.956 . S
H1531 C1518 0.961 . S
H1532 C1518 0.961 . S
H1533 C1519 0.958 . S
H1534 C1519 0.961 . S
H1535 C1519 0.960 . S
C1536 C1537 1.391 . S
C1536 C1538 1.394 . S
C1536 H1552 0.931 . S
C1537 C1536 1.391 . S
C1537 C1541 1.376 . S
C1538 C1536 1.394 . S
C1538 C1539 1.369 . S
C1538 C1542 1.531 . S
C1539 C1538 1.369 . S
C1539 C1540 1.410 . S
C1539 C1547 1.503 . S
C1540 C1539 1.410 . S
C1540 C1541 1.392 . S
C1540 C1543 1.511 . S
C1541 C1537 1.376 . S
C1541 C1540 1.392 . S
C1541 H1553 0.929 . S
C1542 C1538 1.531 . S
C1542 H1554 0.960 . S
C1542 H1555 0.962 . S
C1542 H1556 0.960 . S
C1543 C1540 1.511 . S
C1543 H1557 0.961 . S
C1543 H1558 0.961 . S
C1543 H1559 0.961 . S
C1544 C1545 1.370 . S
C1544 C1546 1.363 . S
C1544 H1560 0.931 . S
C1545 C1544 1.370 . S
C1545 C1549 1.408 . S
C1546 C1544 1.363 . S
C1546 C1547 1.370 . S
C1546 C1550 1.524 . S
C1547 C1539 1.503 . S
C1547 C1546 1.370 . S
C1547 C1548 1.403 . S
C1548 C1547 1.403 . S
C1548 C1549 1.404 . S
C1548 C1551 1.539 . S
C1549 C1545 1.408 . S
C1549 C1548 1.404 . S
C1549 H1561 0.930 . S
C1550 C1546 1.524 . S
C1550 H1562 0.956 . S
C1550 H1563 0.961 . S
C1550 H1564 0.961 . S
C1551 C1548 1.539 . S
C1551 H1565 0.958 . S
C1551 H1566 0.961 . S
C1551 H1567 0.960 . S
H1552 C1536 0.931 . S
H1553 C1541 0.929 . S
H1554 C1542 0.960 . S
H1555 C1542 0.962 . S
H1556 C1542 0.960 . S
H1557 C1543 0.961 . S
H1558 C1543 0.961 . S
H1559 C1543 0.961 . S
H1560 C1544 0.931 . S
H1561 C1549 0.930 . S
H1562 C1550 0.956 . S
H1563 C1550 0.961 . S
H1564 C1550 0.961 . S
H1565 C1551 0.958 . S
H1566 C1551 0.961 . S
H1567 C1551 0.960 . S
C1568 C1569 1.391 . S
C1568 C1570 1.393 1_556 S
C1568 H1584 0.920 1_556 S
C1569 C1568 1.391 . S
C1569 C1573 1.376 . S
C1570 C1568 1.393 1_554 S
C1570 C1571 1.366 1_554 S
C1570 C1574 1.534 . S
C1571 C1570 1.366 1_556 S
C1571 C1572 1.410 . S
C1571 C1579 1.503 1_556 S
C1572 C1571 1.410 . S
C1572 C1573 1.392 . S
C1572 C1575 1.511 . S
C1573 C1569 1.376 . S
C1573 C1572 1.392 . S
C1573 H1585 0.929 . S
C1574 C1570 1.534 . S
C1574 H1586 0.960 . S
C1574 H1587 0.962 . S
C1574 H1588 0.960 . S
C1575 C1572 1.511 . S
C1575 H1589 0.961 . S
C1575 H1590 0.961 . S
C1575 H1591 0.961 . S
C1576 C1577 1.370 . S
C1576 C1578 1.363 . S
C1576 H1592 0.931 . S
C1577 C1576 1.370 . S
C1577 C1581 1.408 1_554 S
C1578 C1576 1.363 . S
C1578 C1579 1.370 . S
C1578 C1582 1.524 . S
C1579 C1571 1.503 1_554 S
C1579 C1578 1.370 . S
C1579 C1580 1.403 1_554 S
C1580 C1579 1.403 1_556 S
C1580 C1581 1.404 . S
C1580 C1583 1.539 . S
C1581 C1577 1.408 1_556 S
C1581 C1580 1.404 . S
C1581 H1593 0.930 . S
C1582 C1578 1.524 . S
C1582 H1594 0.956 . S
C1582 H1595 0.961 . S
C1582 H1596 0.961 . S
C1583 C1580 1.539 . S
C1583 H1597 0.958 . S
C1583 H1598 0.961 . S
C1583 H1599 0.960 . S
H1584 C1568 0.920 1_554 S
H1585 C1573 0.929 . S
H1586 C1574 0.960 . S
H1587 C1574 0.962 . S
H1588 C1574 0.960 . S
H1589 C1575 0.961 . S
H1590 C1575 0.961 . S
H1591 C1575 0.961 . S
H1592 C1576 0.931 . S
H1593 C1581 0.930 . S
H1594 C1582 0.956 . S
H1595 C1582 0.961 . S
H1596 C1582 0.961 . S
H1597 C1583 0.958 . S
H1598 C1583 0.961 . S
H1599 C1583 0.960 . S
C1600 C1601 1.391 . S
C1600 C1602 1.394 . S
C1600 H1616 0.931 . S
C1601 C1600 1.391 . S
C1601 C1605 1.376 . S
C1602 C1600 1.394 . S
C1602 C1603 1.369 . S
C1602 C1606 1.531 . S
C1603 C1602 1.369 . S
C1603 C1604 1.410 . S
C1603 C1611 1.503 . S
C1604 C1603 1.410 . S
C1604 C1605 1.392 . S
C1604 C1607 1.511 1_556 S
C1605 C1601 1.376 . S
C1605 C1604 1.392 . S
C1605 H1617 0.928 . S
C1606 C1602 1.531 . S
C1606 H1618 0.960 . S
C1606 H1619 0.962 . S
C1606 H1620 0.960 . S
C1607 C1604 1.511 1_554 S
C1607 H1621 0.961 . S
C1607 H1622 0.961 . S
C1607 H1623 0.961 1_554 S
C1608 C1609 1.370 . S
C1608 C1610 1.363 . S
C1608 H1624 0.931 . S
C1609 C1608 1.370 . S
C1609 C1613 1.408 1_554 S
C1610 C1608 1.363 . S
C1610 C1611 1.370 1_554 S
C1610 C1614 1.524 . S
C1611 C1603 1.503 . S
C1611 C1610 1.370 1_556 S
C1611 C1612 1.403 . S
C1612 C1611 1.403 . S
C1612 C1613 1.404 . S
C1612 C1615 1.539 . S
C1613 C1609 1.408 1_556 S
C1613 C1612 1.404 . S
C1613 H1625 0.930 . S
C1614 C1610 1.524 . S
C1614 H1626 0.956 . S
C1614 H1627 0.961 . S
C1614 H1628 0.961 . S
C1615 C1612 1.539 . S
C1615 H1629 0.958 . S
C1615 H1630 0.961 . S
C1615 H1631 0.960 . S
H1616 C1600 0.931 . S
H1617 C1605 0.928 . S
H1618 C1606 0.960 . S
H1619 C1606 0.962 . S
H1620 C1606 0.960 . S
H1621 C1607 0.961 . S
H1622 C1607 0.961 . S
H1623 C1607 0.961 1_556 S
H1624 C1608 0.931 . S
H1625 C1613 0.930 . S
H1626 C1614 0.956 . S
H1627 C1614 0.961 . S
H1628 C1614 0.961 . S
H1629 C1615 0.958 . S
H1630 C1615 0.961 . S
H1631 C1615 0.960 . S
C1632 C1633 1.391 . S
C1632 C1634 1.394 . S
C1632 H1648 0.931 . S
C1633 C1632 1.391 . S
C1633 C1637 1.376 . S
C1634 C1632 1.394 . S
C1634 C1635 1.369 . S
C1634 C1638 1.531 . S
C1635 C1634 1.369 . S
C1635 C1636 1.410 . S
C1635 C1643 1.503 . S
C1636 C1635 1.410 . S
C1636 C1637 1.392 . S
C1636 C1639 1.511 . S
C1637 C1633 1.376 . S
C1637 C1636 1.392 . S
C1637 H1649 0.929 . S
C1638 C1634 1.531 . S
C1638 H1650 0.960 . S
C1638 H1651 0.962 . S
C1638 H1652 0.960 . S
C1639 C1636 1.511 . S
C1639 H1653 0.961 . S
C1639 H1654 0.961 . S
C1639 H1655 0.961 . S
C1640 C1641 1.370 . S
C1640 C1642 1.363 . S
C1640 H1656 0.931 . S
C1641 C1640 1.370 . S
C1641 C1645 1.408 . S
C1642 C1640 1.363 . S
C1642 C1643 1.370 . S
C1642 C1646 1.524 . S
C1643 C1635 1.503 . S
C1643 C1642 1.370 . S
C1643 C1644 1.403 . S
C1644 C1643 1.403 . S
C1644 C1645 1.404 . S
C1644 C1647 1.539 . S
C1645 C1641 1.408 . S
C1645 C1644 1.404 . S
C1645 H1657 0.930 . S
C1646 C1642 1.524 . S
C1646 H1658 0.956 . S
C1646 H1659 0.961 . S
C1646 H1660 0.961 . S
C1647 C1644 1.539 . S
C1647 H1661 0.958 . S
C1647 H1662 0.961 . S
C1647 H1663 0.960 . S
H1648 C1632 0.931 . S
H1649 C1637 0.929 . S
H1650 C1638 0.960 . S
H1651 C1638 0.962 . S
H1652 C1638 0.960 . S
H1653 C1639 0.961 . S
H1654 C1639 0.961 . S
H1655 C1639 0.961 . S
H1656 C1640 0.931 . S
H1657 C1645 0.930 . S
H1658 C1646 0.956 . S
H1659 C1646 0.961 . S
H1660 C1646 0.961 . S
H1661 C1647 0.958 . S
H1662 C1647 0.961 . S
H1663 C1647 0.960 . S
C1664 C1665 1.391 . S
C1664 C1666 1.394 . S
C1664 H1680 0.931 . S
C1665 C1664 1.391 . S
C1665 C1669 1.376 . S
C1666 C1664 1.394 . S
C1666 C1667 1.369 . S
C1666 C1670 1.531 . S
C1667 C1666 1.369 . S
C1667 C1668 1.410 . S
C1667 C1675 1.503 . S
C1668 C1667 1.410 . S
C1668 C1669 1.392 . S
C1668 C1671 1.511 . S
C1669 C1665 1.376 . S
C1669 C1668 1.392 . S
C1669 H1681 0.929 . S
C1670 C1666 1.531 . S
C1670 H1682 0.960 . S
C1670 H1683 0.962 . S
C1670 H1684 0.960 . S
C1671 C1668 1.511 . S
C1671 H1685 0.961 . S
C1671 H1686 0.961 . S
C1671 H1687 0.961 . S
C1672 C1673 1.370 . S
C1672 C1674 1.363 . S
C1672 H1688 0.931 . S
C1673 C1672 1.370 . S
C1673 C1677 1.408 . S
C1674 C1672 1.363 . S
C1674 C1675 1.370 . S
C1674 C1678 1.524 . S
C1675 C1667 1.503 . S
C1675 C1674 1.370 . S
C1675 C1676 1.403 . S
C1676 C1675 1.403 . S
C1676 C1677 1.404 . S
C1676 C1679 1.539 . S
C1677 C1673 1.408 . S
C1677 C1676 1.404 . S
C1677 H1689 0.930 . S
C1678 C1674 1.524 . S
C1678 H1690 0.956 . S
C1678 H1691 0.961 . S
C1678 H1692 0.961 . S
C1679 C1676 1.539 . S
C1679 H1693 0.958 . S
C1679 H1694 0.961 . S
C1679 H1695 0.960 . S
H1680 C1664 0.931 . S
H1681 C1669 0.929 . S
H1682 C1670 0.960 . S
H1683 C1670 0.962 . S
H1684 C1670 0.960 . S
H1685 C1671 0.961 . S
H1686 C1671 0.961 . S
H1687 C1671 0.961 . S
H1688 C1672 0.931 . S
H1689 C1677 0.930 . S
H1690 C1678 0.956 . S
H1691 C1678 0.961 . S
H1692 C1678 0.961 . S
H1693 C1679 0.958 . S
H1694 C1679 0.961 . S
H1695 C1679 0.960 . S
C1696 C1697 1.391 . S
C1696 C1698 1.394 . S
C1696 H1712 0.931 . S
C1697 C1696 1.391 . S
C1697 C1701 1.376 . S
C1698 C1696 1.394 . S
C1698 C1699 1.369 . S
C1698 C1702 1.531 . S
C1699 C1698 1.369 . S
C1699 C1700 1.410 . S
C1699 C1707 1.503 . S
C1700 C1699 1.410 . S
C1700 C1701 1.392 . S
C1700 C1703 1.511 . S
C1701 C1697 1.376 . S
C1701 C1700 1.392 . S
C1701 H1713 0.929 . S
C1702 C1698 1.531 . S
C1702 H1714 0.960 . S
C1702 H1715 0.962 . S
C1702 H1716 0.960 . S
C1703 C1700 1.511 . S
C1703 H1717 0.961 . S
C1703 H1718 0.961 . S
C1703 H1719 0.961 . S
C1704 C1705 1.370 . S
C1704 C1706 1.363 . S
C1704 H1720 0.931 . S
C1705 C1704 1.370 . S
C1705 C1709 1.408 . S
C1706 C1704 1.363 . S
C1706 C1707 1.370 . S
C1706 C1710 1.524 . S
C1707 C1699 1.503 . S
C1707 C1706 1.370 . S
C1707 C1708 1.403 . S
C1708 C1707 1.403 . S
C1708 C1709 1.404 . S
C1708 C1711 1.539 . S
C1709 C1705 1.408 . S
C1709 C1708 1.404 . S
C1709 H1721 0.930 . S
C1710 C1706 1.524 . S
C1710 H1722 0.956 . S
C1710 H1723 0.961 . S
C1710 H1724 0.961 . S
C1711 C1708 1.539 . S
C1711 H1725 0.958 . S
C1711 H1726 0.961 . S
C1711 H1727 0.960 . S
H1712 C1696 0.931 . S
H1713 C1701 0.929 . S
H1714 C1702 0.960 . S
H1715 C1702 0.962 . S
H1716 C1702 0.960 . S
H1717 C1703 0.961 . S
H1718 C1703 0.961 . S
H1719 C1703 0.961 . S
H1720 C1704 0.931 . S
H1721 C1709 0.930 . S
H1722 C1710 0.956 . S
H1723 C1710 0.961 . S
H1724 C1710 0.961 . S
H1725 C1711 0.958 . S
H1726 C1711 0.961 . S
H1727 C1711 0.960 . S
C1728 C1729 1.391 . S
C1728 C1730 1.394 . S
C1728 H1744 0.931 . S
C1729 C1728 1.391 . S
C1729 C1733 1.376 . S
C1730 C1728 1.394 . S
C1730 C1731 1.369 . S
C1730 C1734 1.531 . S
C1731 C1730 1.369 . S
C1731 C1732 1.410 . S
C1731 C1739 1.503 . S
C1732 C1731 1.410 . S
C1732 C1733 1.392 . S
C1732 C1735 1.511 . S
C1733 C1729 1.376 . S
C1733 C1732 1.392 . S
C1733 H1745 0.929 . S
C1734 C1730 1.531 . S
C1734 H1746 0.960 . S
C1734 H1747 0.962 . S
C1734 H1748 0.960 . S
C1735 C1732 1.511 . S
C1735 H1749 0.961 . S
C1735 H1750 0.961 . S
C1735 H1751 0.961 . S
C1736 C1737 1.370 . S
C1736 C1738 1.363 . S
C1736 H1752 0.931 . S
C1737 C1736 1.370 . S
C1737 C1741 1.408 . S
C1738 C1736 1.363 . S
C1738 C1739 1.370 . S
C1738 C1742 1.524 . S
C1739 C1731 1.503 . S
C1739 C1738 1.370 . S
C1739 C1740 1.403 . S
C1740 C1739 1.403 . S
C1740 C1741 1.404 . S
C1740 C1743 1.539 . S
C1741 C1737 1.408 . S
C1741 C1740 1.404 . S
C1741 H1753 0.930 . S
C1742 C1738 1.524 . S
C1742 H1754 0.956 . S
C1742 H1755 0.961 . S
C1742 H1756 0.961 . S
C1743 C1740 1.539 . S
C1743 H1757 0.958 . S
C1743 H1758 0.961 . S
C1743 H1759 0.960 . S
H1744 C1728 0.931 . S
H1745 C1733 0.929 . S
H1746 C1734 0.960 . S
H1747 C1734 0.962 . S
H1748 C1734 0.960 . S
H1749 C1735 0.961 . S
H1750 C1735 0.961 . S
H1751 C1735 0.961 . S
H1752 C1736 0.931 . S
H1753 C1741 0.930 . S
H1754 C1742 0.956 . S
H1755 C1742 0.961 . S
H1756 C1742 0.961 . S
H1757 C1743 0.958 . S
H1758 C1743 0.961 . S
H1759 C1743 0.960 . S
C1760 C1761 1.391 . S
C1760 C1762 1.394 . S
C1760 H1776 0.931 . S
C1761 C1760 1.391 . S
C1761 C1765 1.376 . S
C1762 C1760 1.394 . S
C1762 C1763 1.369 . S
C1762 C1766 1.531 . S
C1763 C1762 1.369 . S
C1763 C1764 1.410 . S
C1763 C1771 1.503 . S
C1764 C1763 1.410 . S
C1764 C1765 1.392 . S
C1764 C1767 1.511 . S
C1765 C1761 1.376 . S
C1765 C1764 1.392 . S
C1765 H1777 0.929 . S
C1766 C1762 1.531 . S
C1766 H1778 0.960 . S
C1766 H1779 0.962 . S
C1766 H1780 0.960 . S
C1767 C1764 1.511 . S
C1767 H1781 0.961 . S
C1767 H1782 0.961 . S
C1767 H1783 0.961 . S
C1768 C1769 1.370 . S
C1768 C1770 1.363 . S
C1768 H1784 0.931 . S
C1769 C1768 1.370 . S
C1769 C1773 1.408 . S
C1770 C1768 1.363 . S
C1770 C1771 1.370 . S
C1770 C1774 1.524 . S
C1771 C1763 1.503 . S
C1771 C1770 1.370 . S
C1771 C1772 1.403 . S
C1772 C1771 1.403 . S
C1772 C1773 1.404 . S
C1772 C1775 1.539 . S
C1773 C1769 1.408 . S
C1773 C1772 1.404 . S
C1773 H1785 0.930 . S
C1774 C1770 1.524 . S
C1774 H1786 0.956 . S
C1774 H1787 0.961 . S
C1774 H1788 0.961 . S
C1775 C1772 1.539 . S
C1775 H1789 0.958 . S
C1775 H1790 0.961 . S
C1775 H1791 0.960 . S
H1776 C1760 0.931 . S
H1777 C1765 0.929 . S
H1778 C1766 0.960 . S
H1779 C1766 0.962 . S
H1780 C1766 0.960 . S
H1781 C1767 0.961 . S
H1782 C1767 0.961 . S
H1783 C1767 0.961 . S
H1784 C1768 0.931 . S
H1785 C1773 0.930 . S
H1786 C1774 0.956 . S
H1787 C1774 0.961 . S
H1788 C1774 0.961 . S
H1789 C1775 0.958 . S
H1790 C1775 0.961 . S
H1791 C1775 0.960 . S
C1792 C1793 1.391 . S
C1792 C1794 1.394 . S
C1792 H1808 0.931 . S
C1793 C1792 1.391 . S
C1793 C1797 1.376 . S
C1794 C1792 1.394 . S
C1794 C1795 1.369 . S
C1794 C1798 1.531 . S
C1795 C1794 1.369 . S
C1795 C1796 1.410 . S
C1795 C1803 1.503 . S
C1796 C1795 1.410 . S
C1796 C1797 1.392 . S
C1796 C1799 1.511 . S
C1797 C1793 1.376 . S
C1797 C1796 1.392 . S
C1797 H1809 0.929 . S
C1798 C1794 1.531 . S
C1798 H1810 0.960 . S
C1798 H1811 0.962 . S
C1798 H1812 0.960 . S
C1799 C1796 1.511 . S
C1799 H1813 0.961 . S
C1799 H1814 0.961 . S
C1799 H1815 0.961 . S
C1800 C1801 1.370 . S
C1800 C1802 1.363 . S
C1800 H1816 0.931 . S
C1801 C1800 1.370 . S
C1801 C1805 1.408 . S
C1802 C1800 1.363 . S
C1802 C1803 1.370 . S
C1802 C1806 1.524 . S
C1803 C1795 1.503 . S
C1803 C1802 1.370 . S
C1803 C1804 1.403 . S
C1804 C1803 1.403 . S
C1804 C1805 1.404 . S
C1804 C1807 1.539 . S
C1805 C1801 1.408 . S
C1805 C1804 1.404 . S
C1805 H1817 0.930 . S
C1806 C1802 1.524 . S
C1806 H1818 0.956 . S
C1806 H1819 0.961 . S
C1806 H1820 0.961 . S
C1807 C1804 1.539 . S
C1807 H1821 0.958 . S
C1807 H1822 0.961 . S
C1807 H1823 0.960 . S
H1808 C1792 0.931 . S
H1809 C1797 0.929 . S
H1810 C1798 0.960 . S
H1811 C1798 0.962 . S
H1812 C1798 0.960 . S
H1813 C1799 0.961 . S
H1814 C1799 0.961 . S
H1815 C1799 0.961 . S
H1816 C1800 0.931 . S
H1817 C1805 0.930 . S
H1818 C1806 0.956 . S
H1819 C1806 0.961 . S
H1820 C1806 0.961 . S
H1821 C1807 0.958 . S
H1822 C1807 0.961 . S
H1823 C1807 0.960 . S
C1824 C1825 1.391 . S
C1824 C1826 1.394 . S
C1824 H1840 0.931 . S
C1825 C1824 1.391 . S
C1825 C1829 1.376 . S
C1826 C1824 1.394 . S
C1826 C1827 1.369 . S
C1826 C1830 1.531 . S
C1827 C1826 1.369 . S
C1827 C1828 1.410 . S
C1827 C1835 1.503 . S
C1828 C1827 1.410 . S
C1828 C1829 1.392 . S
C1828 C1831 1.511 . S
C1829 C1825 1.376 . S
C1829 C1828 1.392 . S
C1829 H1841 0.929 . S
C1830 C1826 1.531 . S
C1830 H1842 0.960 . S
C1830 H1843 0.962 . S
C1830 H1844 0.960 . S
C1831 C1828 1.511 . S
C1831 H1845 0.961 . S
C1831 H1846 0.961 . S
C1831 H1847 0.961 . S
C1832 C1833 1.370 . S
C1832 C1834 1.363 . S
C1832 H1848 0.931 . S
C1833 C1832 1.370 . S
C1833 C1837 1.408 . S
C1834 C1832 1.363 . S
C1834 C1835 1.370 . S
C1834 C1838 1.524 . S
C1835 C1827 1.503 . S
C1835 C1834 1.370 . S
C1835 C1836 1.403 . S
C1836 C1835 1.403 . S
C1836 C1837 1.404 . S
C1836 C1839 1.539 . S
C1837 C1833 1.408 . S
C1837 C1836 1.404 . S
C1837 H1849 0.930 . S
C1838 C1834 1.524 . S
C1838 H1850 0.956 . S
C1838 H1851 0.961 . S
C1838 H1852 0.961 . S
C1839 C1836 1.539 . S
C1839 H1853 0.958 . S
C1839 H1854 0.961 . S
C1839 H1855 0.960 . S
H1840 C1824 0.931 . S
H1841 C1829 0.929 . S
H1842 C1830 0.960 . S
H1843 C1830 0.962 . S
H1844 C1830 0.960 . S
H1845 C1831 0.961 . S
H1846 C1831 0.961 . S
H1847 C1831 0.961 . S
H1848 C1832 0.931 . S
H1849 C1837 0.930 . S
H1850 C1838 0.956 . S
H1851 C1838 0.961 . S
H1852 C1838 0.961 . S
H1853 C1839 0.958 . S
H1854 C1839 0.961 . S
H1855 C1839 0.960 . S
C1856 C1857 1.391 . S
C1856 C1858 1.394 . S
C1856 H1872 0.931 . S
C1857 C1856 1.391 . S
C1857 C1861 1.376 . S
C1858 C1856 1.394 . S
C1858 C1859 1.369 . S
C1858 C1862 1.531 . S
C1859 C1858 1.369 . S
C1859 C1860 1.410 . S
C1859 C1867 1.503 . S
C1860 C1859 1.410 . S
C1860 C1861 1.392 . S
C1860 C1863 1.511 . S
C1861 C1857 1.376 . S
C1861 C1860 1.392 . S
C1861 H1873 0.929 . S
C1862 C1858 1.531 . S
C1862 H1874 0.960 . S
C1862 H1875 0.962 . S
C1862 H1876 0.960 . S
C1863 C1860 1.511 . S
C1863 H1877 0.961 . S
C1863 H1878 0.961 . S
C1863 H1879 0.961 . S
C1864 C1865 1.370 . S
C1864 C1866 1.363 . S
C1864 H1880 0.931 . S
C1865 C1864 1.370 . S
C1865 C1869 1.408 . S
C1866 C1864 1.363 . S
C1866 C1867 1.370 . S
C1866 C1870 1.524 . S
C1867 C1859 1.503 . S
C1867 C1866 1.370 . S
C1867 C1868 1.403 . S
C1868 C1867 1.403 . S
C1868 C1869 1.404 . S
C1868 C1871 1.539 . S
C1869 C1865 1.408 . S
C1869 C1868 1.404 . S
C1869 H1881 0.930 . S
C1870 C1866 1.524 . S
C1870 H1882 0.956 . S
C1870 H1883 0.961 . S
C1870 H1884 0.961 . S
C1871 C1868 1.539 . S
C1871 H1885 0.958 . S
C1871 H1886 0.961 . S
C1871 H1887 0.960 . S
H1872 C1856 0.931 . S
H1873 C1861 0.929 . S
H1874 C1862 0.960 . S
H1875 C1862 0.962 . S
H1876 C1862 0.960 . S
H1877 C1863 0.961 . S
H1878 C1863 0.961 . S
H1879 C1863 0.961 . S
H1880 C1864 0.931 . S
H1881 C1869 0.930 . S
H1882 C1870 0.956 . S
H1883 C1870 0.961 . S
H1884 C1870 0.961 . S
H1885 C1871 0.958 . S
H1886 C1871 0.961 . S
H1887 C1871 0.960 . S
C1888 C1889 1.391 . S
C1888 C1890 1.394 . S
C1888 H1904 0.931 . S
C1889 C1888 1.391 . S
C1889 C1893 1.376 . S
C1890 C1888 1.394 . S
C1890 C1891 1.369 . S
C1890 C1894 1.531 . S
C1891 C1890 1.369 . S
C1891 C1892 1.410 . S
C1891 C1899 1.503 . S
C1892 C1891 1.410 . S
C1892 C1893 1.392 . S
C1892 C1895 1.511 . S
C1893 C1889 1.376 . S
C1893 C1892 1.392 . S
C1893 H1905 0.929 . S
C1894 C1890 1.531 . S
C1894 H1906 0.960 . S
C1894 H1907 0.962 . S
C1894 H1908 0.960 . S
C1895 C1892 1.511 . S
C1895 H1909 0.961 . S
C1895 H1910 0.961 . S
C1895 H1911 0.961 . S
C1896 C1897 1.370 . S
C1896 C1898 1.363 . S
C1896 H1912 0.931 . S
C1897 C1896 1.370 . S
C1897 C1901 1.408 . S
C1898 C1896 1.363 . S
C1898 C1899 1.370 . S
C1898 C1902 1.524 . S
C1899 C1891 1.503 . S
C1899 C1898 1.370 . S
C1899 C1900 1.403 . S
C1900 C1899 1.403 . S
C1900 C1901 1.404 . S
C1900 C1903 1.539 . S
C1901 C1897 1.408 . S
C1901 C1900 1.404 . S
C1901 H1913 0.930 . S
C1902 C1898 1.524 . S
C1902 H1914 0.956 . S
C1902 H1915 0.961 . S
C1902 H1916 0.961 . S
C1903 C1900 1.539 . S
C1903 H1917 0.958 . S
C1903 H1918 0.961 . S
C1903 H1919 0.960 . S
H1904 C1888 0.931 . S
H1905 C1893 0.929 . S
H1906 C1894 0.960 . S
H1907 C1894 0.962 . S
H1908 C1894 0.960 . S
H1909 C1895 0.961 . S
H1910 C1895 0.961 . S
H1911 C1895 0.961 . S
H1912 C1896 0.931 . S
H1913 C1901 0.930 . S
H1914 C1902 0.956 . S
H1915 C1902 0.961 . S
H1916 C1902 0.961 . S
H1917 C1903 0.958 . S
H1918 C1903 0.961 . S
H1919 C1903 0.960 . S
C1920 C1921 1.391 . S
C1920 C1922 1.394 . S
C1920 H1936 0.931 . S
C1921 C1920 1.391 . S
C1921 C1925 1.376 . S
C1922 C1920 1.394 . S
C1922 C1923 1.369 . S
C1922 C1926 1.531 . S
C1923 C1922 1.369 . S
C1923 C1924 1.410 . S
C1923 C1931 1.503 . S
C1924 C1923 1.410 . S
C1924 C1925 1.392 . S
C1924 C1927 1.511 . S
C1925 C1921 1.376 . S
C1925 C1924 1.392 . S
C1925 H1937 0.929 . S
C1926 C1922 1.531 . S
C1926 H1938 0.960 . S
C1926 H1939 0.962 . S
C1926 H1940 0.960 . S
C1927 C1924 1.511 . S
C1927 H1941 0.961 . S
C1927 H1942 0.961 . S
C1927 H1943 0.961 . S
C1928 C1929 1.370 . S
C1928 C1930 1.363 . S
C1928 H1944 0.931 . S
C1929 C1928 1.370 . S
C1929 C1933 1.408 . S
C1930 C1928 1.363 . S
C1930 C1931 1.370 . S
C1930 C1934 1.524 . S
C1931 C1923 1.503 . S
C1931 C1930 1.370 . S
C1931 C1932 1.403 . S
C1932 C1931 1.403 . S
C1932 C1933 1.404 . S
C1932 C1935 1.539 . S
C1933 C1929 1.408 . S
C1933 C1932 1.404 . S
C1933 H1945 0.930 . S
C1934 C1930 1.524 . S
C1934 H1946 0.956 . S
C1934 H1947 0.961 . S
C1934 H1948 0.961 . S
C1935 C1932 1.539 . S
C1935 H1949 0.958 . S
C1935 H1950 0.961 . S
C1935 H1951 0.960 . S
H1936 C1920 0.931 . S
H1937 C1925 0.929 . S
H1938 C1926 0.960 . S
H1939 C1926 0.962 . S
H1940 C1926 0.960 . S
H1941 C1927 0.961 . S
H1942 C1927 0.961 . S
H1943 C1927 0.961 . S
H1944 C1928 0.931 . S
H1945 C1933 0.930 . S
H1946 C1934 0.956 . S
H1947 C1934 0.961 . S
H1948 C1934 0.961 . S
H1949 C1935 0.958 . S
H1950 C1935 0.961 . S
H1951 C1935 0.960 . S
C1952 C1953 1.391 . S
C1952 C1954 1.394 . S
C1952 H1968 0.931 . S
C1953 C1952 1.391 . S
C1953 C1957 1.376 . S
C1954 C1952 1.394 . S
C1954 C1955 1.369 . S
C1954 C1958 1.531 . S
C1955 C1954 1.369 . S
C1955 C1956 1.410 . S
C1955 C1963 1.503 . S
C1956 C1955 1.410 . S
C1956 C1957 1.392 . S
C1956 C1959 1.511 . S
C1957 C1953 1.376 . S
C1957 C1956 1.392 . S
C1957 H1969 0.929 . S
C1958 C1954 1.531 . S
C1958 H1970 0.960 . S
C1958 H1971 0.962 . S
C1958 H1972 0.960 . S
C1959 C1956 1.511 . S
C1959 H1973 0.961 . S
C1959 H1974 0.961 . S
C1959 H1975 0.961 . S
C1960 C1961 1.370 . S
C1960 C1962 1.363 . S
C1960 H1976 0.931 . S
C1961 C1960 1.370 . S
C1961 C1965 1.408 . S
C1962 C1960 1.363 . S
C1962 C1963 1.370 . S
C1962 C1966 1.524 . S
C1963 C1955 1.503 . S
C1963 C1962 1.370 . S
C1963 C1964 1.403 . S
C1964 C1963 1.403 . S
C1964 C1965 1.404 . S
C1964 C1967 1.539 . S
C1965 C1961 1.408 . S
C1965 C1964 1.404 . S
C1965 H1977 0.930 . S
C1966 C1962 1.524 . S
C1966 H1978 0.956 . S
C1966 H1979 0.961 . S
C1966 H1980 0.961 . S
C1967 C1964 1.539 . S
C1967 H1981 0.958 . S
C1967 H1982 0.961 . S
C1967 H1983 0.960 . S
H1968 C1952 0.931 . S
H1969 C1957 0.929 . S
H1970 C1958 0.960 . S
H1971 C1958 0.962 . S
H1972 C1958 0.960 . S
H1973 C1959 0.961 . S
H1974 C1959 0.961 . S
H1975 C1959 0.961 . S
H1976 C1960 0.931 . S
H1977 C1965 0.930 . S
H1978 C1966 0.956 . S
H1979 C1966 0.961 . S
H1980 C1966 0.961 . S
H1981 C1967 0.958 . S
H1982 C1967 0.961 . S
H1983 C1967 0.960 . S
C1984 C1985 1.391 . S
C1984 C1986 1.394 . S
C1984 H2000 0.931 . S
C1985 C1984 1.391 . S
C1985 C1989 1.376 . S
C1986 C1984 1.394 . S
C1986 C1987 1.369 . S
C1986 C1990 1.531 . S
C1987 C1986 1.369 . S
C1987 C1988 1.410 . S
C1987 C1995 1.503 . S
C1988 C1987 1.410 . S
C1988 C1989 1.392 . S
C1988 C1991 1.511 . S
C1989 C1985 1.376 . S
C1989 C1988 1.392 . S
C1989 H2001 0.929 . S
C1990 C1986 1.531 . S
C1990 H2002 0.960 . S
C1990 H2003 0.962 . S
C1990 H2004 0.960 . S
C1991 C1988 1.511 . S
C1991 H2005 0.961 . S
C1991 H2006 0.961 . S
C1991 H2007 0.961 . S
C1992 C1993 1.370 . S
C1992 C1994 1.363 . S
C1992 H2008 0.931 . S
C1993 C1992 1.370 . S
C1993 C1997 1.408 . S
C1994 C1992 1.363 . S
C1994 C1995 1.370 . S
C1994 C1998 1.524 . S
C1995 C1987 1.503 . S
C1995 C1994 1.370 . S
C1995 C1996 1.403 . S
C1996 C1995 1.403 . S
C1996 C1997 1.404 . S
C1996 C1999 1.539 . S
C1997 C1993 1.408 . S
C1997 C1996 1.404 . S
C1997 H2009 0.930 . S
C1998 C1994 1.524 . S
C1998 H2010 0.956 . S
C1998 H2011 0.961 . S
C1998 H2012 0.961 . S
C1999 C1996 1.539 . S
C1999 H2013 0.958 . S
C1999 H2014 0.961 . S
C1999 H2015 0.960 . S
H2000 C1984 0.931 . S
H2001 C1989 0.929 . S
H2002 C1990 0.960 . S
H2003 C1990 0.962 . S
H2004 C1990 0.960 . S
H2005 C1991 0.961 . S
H2006 C1991 0.961 . S
H2007 C1991 0.961 . S
H2008 C1992 0.931 . S
H2009 C1997 0.930 . S
H2010 C1998 0.956 . S
H2011 C1998 0.961 . S
H2012 C1998 0.961 . S
H2013 C1999 0.958 . S
H2014 C1999 0.961 . S
H2015 C1999 0.960 . S
C2016 C2017 1.391 . S
C2016 C2018 1.394 . S
C2016 H2032 0.931 . S
C2017 C2016 1.391 . S
C2017 C2021 1.376 . S
C2018 C2016 1.394 . S
C2018 C2019 1.369 . S
C2018 C2022 1.531 . S
C2019 C2018 1.369 . S
C2019 C2020 1.410 . S
C2019 C2027 1.503 . S
C2020 C2019 1.410 . S
C2020 C2021 1.392 . S
C2020 C2023 1.511 . S
C2021 C2017 1.376 . S
C2021 C2020 1.392 . S
C2021 H2033 0.929 . S
C2022 C2018 1.531 . S
C2022 H2034 0.960 . S
C2022 H2035 0.962 . S
C2022 H2036 0.960 . S
C2023 C2020 1.511 . S
C2023 H2037 0.961 . S
C2023 H2038 0.961 . S
C2023 H2039 0.961 . S
C2024 C2025 1.370 . S
C2024 C2026 1.363 . S
C2024 H2040 0.931 . S
C2025 C2024 1.370 . S
C2025 C2029 1.408 . S
C2026 C2024 1.363 . S
C2026 C2027 1.370 . S
C2026 C2030 1.524 . S
C2027 C2019 1.503 . S
C2027 C2026 1.370 . S
C2027 C2028 1.403 . S
C2028 C2027 1.403 . S
C2028 C2029 1.404 . S
C2028 C2031 1.539 . S
C2029 C2025 1.408 . S
C2029 C2028 1.404 . S
C2029 H2041 0.930 . S
C2030 C2026 1.524 . S
C2030 H2042 0.956 . S
C2030 H2043 0.961 . S
C2030 H2044 0.961 . S
C2031 C2028 1.539 . S
C2031 H2045 0.958 . S
C2031 H2046 0.961 . S
C2031 H2047 0.960 . S
H2032 C2016 0.931 . S
H2033 C2021 0.929 . S
H2034 C2022 0.960 . S
H2035 C2022 0.962 . S
H2036 C2022 0.960 . S
H2037 C2023 0.961 . S
H2038 C2023 0.961 . S
H2039 C2023 0.961 . S
H2040 C2024 0.931 . S
H2041 C2029 0.930 . S
H2042 C2030 0.956 . S
H2043 C2030 0.961 . S
H2044 C2030 0.961 . S
H2045 C2031 0.958 . S
H2046 C2031 0.961 . S
H2047 C2031 0.960 . S
C2048 C2049 1.391 . S
C2048 C2050 1.394 . S
C2048 H2064 0.931 . S
C2049 C2048 1.391 . S
C2049 C2053 1.376 . S
C2050 C2048 1.394 . S
C2050 C2051 1.369 . S
C2050 C2054 1.531 . S
C2051 C2050 1.369 . S
C2051 C2052 1.410 . S
C2051 C2059 1.503 . S
C2052 C2051 1.410 . S
C2052 C2053 1.392 . S
C2052 C2055 1.511 . S
C2053 C2049 1.376 . S
C2053 C2052 1.392 . S
C2053 H2065 0.929 . S
C2054 C2050 1.531 . S
C2054 H2066 0.960 . S
C2054 H2067 0.962 . S
C2054 H2068 0.960 . S
C2055 C2052 1.511 . S
C2055 H2069 0.961 . S
C2055 H2070 0.961 . S
C2055 H2071 0.961 . S
C2056 C2057 1.370 . S
C2056 C2058 1.363 . S
C2056 H2072 0.931 . S
C2057 C2056 1.370 . S
C2057 C2061 1.408 . S
C2058 C2056 1.363 . S
C2058 C2059 1.370 . S
C2058 C2062 1.524 . S
C2059 C2051 1.503 . S
C2059 C2058 1.370 . S
C2059 C2060 1.403 . S
C2060 C2059 1.403 . S
C2060 C2061 1.404 . S
C2060 C2063 1.539 . S
C2061 C2057 1.408 . S
C2061 C2060 1.404 . S
C2061 H2073 0.930 . S
C2062 C2058 1.524 . S
C2062 H2074 0.956 . S
C2062 H2075 0.961 . S
C2062 H2076 0.961 . S
C2063 C2060 1.539 . S
C2063 H2077 0.958 . S
C2063 H2078 0.961 . S
C2063 H2079 0.960 . S
H2064 C2048 0.931 . S
H2065 C2053 0.929 . S
H2066 C2054 0.960 . S
H2067 C2054 0.962 . S
H2068 C2054 0.960 . S
H2069 C2055 0.961 . S
H2070 C2055 0.961 . S
H2071 C2055 0.961 . S
H2072 C2056 0.931 . S
H2073 C2061 0.930 . S
H2074 C2062 0.956 . S
H2075 C2062 0.961 . S
H2076 C2062 0.961 . S
H2077 C2063 0.958 . S
H2078 C2063 0.961 . S
H2079 C2063 0.960 . S
C2080 C2081 1.391 . S
C2080 C2082 1.394 . S
C2080 H2096 0.931 . S
C2081 C2080 1.391 . S
C2081 C2085 1.376 . S
C2082 C2080 1.394 . S
C2082 C2083 1.369 . S
C2082 C2086 1.531 . S
C2083 C2082 1.369 . S
C2083 C2084 1.410 . S
C2083 C2091 1.503 . S
C2084 C2083 1.410 . S
C2084 C2085 1.392 . S
C2084 C2087 1.511 . S
C2085 C2081 1.376 . S
C2085 C2084 1.392 . S
C2085 H2097 0.929 . S
C2086 C2082 1.531 . S
C2086 H2098 0.960 . S
C2086 H2099 0.962 . S
C2086 H2100 0.960 . S
C2087 C2084 1.511 . S
C2087 H2101 0.961 . S
C2087 H2102 0.961 . S
C2087 H2103 0.961 . S
C2088 C2089 1.370 . S
C2088 C2090 1.363 . S
C2088 H2104 0.931 . S
C2089 C2088 1.370 . S
C2089 C2093 1.408 . S
C2090 C2088 1.363 . S
C2090 C2091 1.370 . S
C2090 C2094 1.524 . S
C2091 C2083 1.503 . S
C2091 C2090 1.370 . S
C2091 C2092 1.403 . S
C2092 C2091 1.403 . S
C2092 C2093 1.404 . S
C2092 C2095 1.539 . S
C2093 C2089 1.408 . S
C2093 C2092 1.404 . S
C2093 H2105 0.930 . S
C2094 C2090 1.524 . S
C2094 H2106 0.956 . S
C2094 H2107 0.961 . S
C2094 H2108 0.961 . S
C2095 C2092 1.539 . S
C2095 H2109 0.958 . S
C2095 H2110 0.961 . S
C2095 H2111 0.960 . S
H2096 C2080 0.931 . S
H2097 C2085 0.929 . S
H2098 C2086 0.960 . S
H2099 C2086 0.962 . S
H2100 C2086 0.960 . S
H2101 C2087 0.961 . S
H2102 C2087 0.961 . S
H2103 C2087 0.961 . S
H2104 C2088 0.931 . S
H2105 C2093 0.930 . S
H2106 C2094 0.956 . S
H2107 C2094 0.961 . S
H2108 C2094 0.961 . S
H2109 C2095 0.958 . S
H2110 C2095 0.961 . S
H2111 C2095 0.960 . S
C2112 C2113 1.391 . S
C2112 C2114 1.394 . S
C2112 H2128 0.931 . S
C2113 C2112 1.391 . S
C2113 C2117 1.376 . S
C2114 C2112 1.394 . S
C2114 C2115 1.369 . S
C2114 C2118 1.531 . S
C2115 C2114 1.369 . S
C2115 C2116 1.410 . S
C2115 C2123 1.503 . S
C2116 C2115 1.410 . S
C2116 C2117 1.392 . S
C2116 C2119 1.511 . S
C2117 C2113 1.376 . S
C2117 C2116 1.392 . S
C2117 H2129 0.929 . S
C2118 C2114 1.531 . S
C2118 H2130 0.960 . S
C2118 H2131 0.962 . S
C2118 H2132 0.960 . S
C2119 C2116 1.511 . S
C2119 H2133 0.961 . S
C2119 H2134 0.961 . S
C2119 H2135 0.961 . S
C2120 C2121 1.370 . S
C2120 C2122 1.363 . S
C2120 H2136 0.931 . S
C2121 C2120 1.370 . S
C2121 C2125 1.408 . S
C2122 C2120 1.363 . S
C2122 C2123 1.370 . S
C2122 C2126 1.524 . S
C2123 C2115 1.503 . S
C2123 C2122 1.370 . S
C2123 C2124 1.403 . S
C2124 C2123 1.403 . S
C2124 C2125 1.404 . S
C2124 C2127 1.539 . S
C2125 C2121 1.408 . S
C2125 C2124 1.404 . S
C2125 H2137 0.930 . S
C2126 C2122 1.524 . S
C2126 H2138 0.956 . S
C2126 H2139 0.961 . S
C2126 H2140 0.961 . S
C2127 C2124 1.539 . S
C2127 H2141 0.958 . S
C2127 H2142 0.961 . S
C2127 H2143 0.960 . S
H2128 C2112 0.931 . S
H2129 C2117 0.929 . S
H2130 C2118 0.960 . S
H2131 C2118 0.962 . S
H2132 C2118 0.960 . S
H2133 C2119 0.961 . S
H2134 C2119 0.961 . S
H2135 C2119 0.961 . S
H2136 C2120 0.931 . S
H2137 C2125 0.930 . S
H2138 C2126 0.956 . S
H2139 C2126 0.961 . S
H2140 C2126 0.961 . S
H2141 C2127 0.958 . S
H2142 C2127 0.961 . S
H2143 C2127 0.960 . S
C2144 C2145 1.391 . S
C2144 C2146 1.394 . S
C2144 H2160 0.931 . S
C2145 C2144 1.391 . S
C2145 C2149 1.376 . S
C2146 C2144 1.394 . S
C2146 C2147 1.369 . S
C2146 C2150 1.531 . S
C2147 C2146 1.369 . S
C2147 C2148 1.410 . S
C2147 C2155 1.503 . S
C2148 C2147 1.410 . S
C2148 C2149 1.392 . S
C2148 C2151 1.511 . S
C2149 C2145 1.376 . S
C2149 C2148 1.392 . S
C2149 H2161 0.929 . S
C2150 C2146 1.531 . S
C2150 H2162 0.960 . S
C2150 H2163 0.962 . S
C2150 H2164 0.960 . S
C2151 C2148 1.511 . S
C2151 H2165 0.961 . S
C2151 H2166 0.961 . S
C2151 H2167 0.961 . S
C2152 C2153 1.370 . S
C2152 C2154 1.363 . S
C2152 H2168 0.931 . S
C2153 C2152 1.370 . S
C2153 C2157 1.408 . S
C2154 C2152 1.363 . S
C2154 C2155 1.370 . S
C2154 C2158 1.524 . S
C2155 C2147 1.503 . S
C2155 C2154 1.370 . S
C2155 C2156 1.403 . S
C2156 C2155 1.403 . S
C2156 C2157 1.404 . S
C2156 C2159 1.539 . S
C2157 C2153 1.408 . S
C2157 C2156 1.404 . S
C2157 H2169 0.930 . S
C2158 C2154 1.524 . S
C2158 H2170 0.956 . S
C2158 H2171 0.961 . S
C2158 H2172 0.961 . S
C2159 C2156 1.539 . S
C2159 H2173 0.958 . S
C2159 H2174 0.961 . S
C2159 H2175 0.960 . S
H2160 C2144 0.931 . S
H2161 C2149 0.929 . S
H2162 C2150 0.960 . S
H2163 C2150 0.962 . S
H2164 C2150 0.960 . S
H2165 C2151 0.961 . S
H2166 C2151 0.961 . S
H2167 C2151 0.961 . S
H2168 C2152 0.931 . S
H2169 C2157 0.930 . S
H2170 C2158 0.956 . S
H2171 C2158 0.961 . S
H2172 C2158 0.961 . S
H2173 C2159 0.958 . S
H2174 C2159 0.961 . S
H2175 C2159 0.960 . S
C2176 C2177 1.391 . S
C2176 C2178 1.394 . S
C2176 H2192 0.931 . S
C2177 C2176 1.391 . S
C2177 C2181 1.376 . S
C2178 C2176 1.394 . S
C2178 C2179 1.369 . S
C2178 C2182 1.531 . S
C2179 C2178 1.369 . S
C2179 C2180 1.410 . S
C2179 C2187 1.503 . S
C2180 C2179 1.410 . S
C2180 C2181 1.392 . S
C2180 C2183 1.511 . S
C2181 C2177 1.376 . S
C2181 C2180 1.392 . S
C2181 H2193 0.929 . S
C2182 C2178 1.531 . S
C2182 H2194 0.960 . S
C2182 H2195 0.962 . S
C2182 H2196 0.960 . S
C2183 C2180 1.511 . S
C2183 H2197 0.961 . S
C2183 H2198 0.961 . S
C2183 H2199 0.961 . S
C2184 C2185 1.370 . S
C2184 C2186 1.363 . S
C2184 H2200 0.931 . S
C2185 C2184 1.370 . S
C2185 C2189 1.408 . S
C2186 C2184 1.363 . S
C2186 C2187 1.370 . S
C2186 C2190 1.524 . S
C2187 C2179 1.503 . S
C2187 C2186 1.370 . S
C2187 C2188 1.403 . S
C2188 C2187 1.403 . S
C2188 C2189 1.404 . S
C2188 C2191 1.539 . S
C2189 C2185 1.408 . S
C2189 C2188 1.404 . S
C2189 H2201 0.930 . S
C2190 C2186 1.524 . S
C2190 H2202 0.956 . S
C2190 H2203 0.961 . S
C2190 H2204 0.961 . S
C2191 C2188 1.539 . S
C2191 H2205 0.958 . S
C2191 H2206 0.961 . S
C2191 H2207 0.960 . S
H2192 C2176 0.931 . S
H2193 C2181 0.929 . S
H2194 C2182 0.960 . S
H2195 C2182 0.962 . S
H2196 C2182 0.960 . S
H2197 C2183 0.961 . S
H2198 C2183 0.961 . S
H2199 C2183 0.961 . S
H2200 C2184 0.931 . S
H2201 C2189 0.930 . S
H2202 C2190 0.956 . S
H2203 C2190 0.961 . S
H2204 C2190 0.961 . S
H2205 C2191 0.958 . S
H2206 C2191 0.961 . S
H2207 C2191 0.960 . S
C2208 C2209 1.391 . S
C2208 C2210 1.394 . S
C2208 H2224 0.931 . S
C2209 C2208 1.391 . S
C2209 C2213 1.376 . S
C2210 C2208 1.394 . S
C2210 C2211 1.369 . S
C2210 C2214 1.531 . S
C2211 C2210 1.369 . S
C2211 C2212 1.410 . S
C2211 C2219 1.503 . S
C2212 C2211 1.410 . S
C2212 C2213 1.392 . S
C2212 C2215 1.511 . S
C2213 C2209 1.376 . S
C2213 C2212 1.392 . S
C2213 H2225 0.929 . S
C2214 C2210 1.531 . S
C2214 H2226 0.960 . S
C2214 H2227 0.962 . S
C2214 H2228 0.960 . S
C2215 C2212 1.511 . S
C2215 H2229 0.961 . S
C2215 H2230 0.961 . S
C2215 H2231 0.961 . S
C2216 C2217 1.370 . S
C2216 C2218 1.363 . S
C2216 H2232 0.931 . S
C2217 C2216 1.370 . S
C2217 C2221 1.408 . S
C2218 C2216 1.363 . S
C2218 C2219 1.370 . S
C2218 C2222 1.524 . S
C2219 C2211 1.503 . S
C2219 C2218 1.370 . S
C2219 C2220 1.403 . S
C2220 C2219 1.403 . S
C2220 C2221 1.404 . S
C2220 C2223 1.539 . S
C2221 C2217 1.408 . S
C2221 C2220 1.404 . S
C2221 H2233 0.930 . S
C2222 C2218 1.524 . S
C2222 H2234 0.956 . S
C2222 H2235 0.961 . S
C2222 H2236 0.961 . S
C2223 C2220 1.539 . S
C2223 H2237 0.958 . S
C2223 H2238 0.961 . S
C2223 H2239 0.960 . S
H2224 C2208 0.931 . S
H2225 C2213 0.929 . S
H2226 C2214 0.960 . S
H2227 C2214 0.962 . S
H2228 C2214 0.960 . S
H2229 C2215 0.961 . S
H2230 C2215 0.961 . S
H2231 C2215 0.961 . S
H2232 C2216 0.931 . S
H2233 C2221 0.930 . S
H2234 C2222 0.956 . S
H2235 C2222 0.961 . S
H2236 C2222 0.961 . S
H2237 C2223 0.958 . S
H2238 C2223 0.961 . S
H2239 C2223 0.960 . S
C2240 C2241 1.391 . S
C2240 C2242 1.394 . S
C2240 H2256 0.931 . S
C2241 C2240 1.391 . S
C2241 C2245 1.376 . S
C2242 C2240 1.394 . S
C2242 C2243 1.369 . S
C2242 C2246 1.531 . S
C2243 C2242 1.369 . S
C2243 C2244 1.410 . S
C2243 C2251 1.503 . S
C2244 C2243 1.410 . S
C2244 C2245 1.392 . S
C2244 C2247 1.511 . S
C2245 C2241 1.376 . S
C2245 C2244 1.392 . S
C2245 H2257 0.929 . S
C2246 C2242 1.531 . S
C2246 H2258 0.960 . S
C2246 H2259 0.962 . S
C2246 H2260 0.960 . S
C2247 C2244 1.511 . S
C2247 H2261 0.961 . S
C2247 H2262 0.961 . S
C2247 H2263 0.961 . S
C2248 C2249 1.370 . S
C2248 C2250 1.363 . S
C2248 H2264 0.931 . S
C2249 C2248 1.370 . S
C2249 C2253 1.408 . S
C2250 C2248 1.363 . S
C2250 C2251 1.370 . S
C2250 C2254 1.524 . S
C2251 C2243 1.503 . S
C2251 C2250 1.370 . S
C2251 C2252 1.403 . S
C2252 C2251 1.403 . S
C2252 C2253 1.404 . S
C2252 C2255 1.539 . S
C2253 C2249 1.408 . S
C2253 C2252 1.404 . S
C2253 H2265 0.930 . S
C2254 C2250 1.524 . S
C2254 H2266 0.956 . S
C2254 H2267 0.961 . S
C2254 H2268 0.961 . S
C2255 C2252 1.539 . S
C2255 H2269 0.958 . S
C2255 H2270 0.961 . S
C2255 H2271 0.960 . S
H2256 C2240 0.931 . S
H2257 C2245 0.929 . S
H2258 C2246 0.960 . S
H2259 C2246 0.962 . S
H2260 C2246 0.960 . S
H2261 C2247 0.961 . S
H2262 C2247 0.961 . S
H2263 C2247 0.961 . S
H2264 C2248 0.931 . S
H2265 C2253 0.930 . S
H2266 C2254 0.956 . S
H2267 C2254 0.961 . S
H2268 C2254 0.961 . S
H2269 C2255 0.958 . S
H2270 C2255 0.961 . S
H2271 C2255 0.960 . S
C2272 C2273 1.391 . S
C2272 C2274 1.394 . S
C2272 H2288 0.931 . S
C2273 C2272 1.391 . S
C2273 C2277 1.376 . S
C2274 C2272 1.394 . S
C2274 C2275 1.369 . S
C2274 C2278 1.531 . S
C2275 C2274 1.369 . S
C2275 C2276 1.410 . S
C2275 C2283 1.503 . S
C2276 C2275 1.410 . S
C2276 C2277 1.392 . S
C2276 C2279 1.511 . S
C2277 C2273 1.376 . S
C2277 C2276 1.392 . S
C2277 H2289 0.929 . S
C2278 C2274 1.531 . S
C2278 H2290 0.960 . S
C2278 H2291 0.962 . S
C2278 H2292 0.960 . S
C2279 C2276 1.511 . S
C2279 H2293 0.961 . S
C2279 H2294 0.961 . S
C2279 H2295 0.961 . S
C2280 C2281 1.370 . S
C2280 C2282 1.363 . S
C2280 H2296 0.931 . S
C2281 C2280 1.370 . S
C2281 C2285 1.408 . S
C2282 C2280 1.363 . S
C2282 C2283 1.370 . S
C2282 C2286 1.524 . S
C2283 C2275 1.503 . S
C2283 C2282 1.370 . S
C2283 C2284 1.403 . S
C2284 C2283 1.403 . S
C2284 C2285 1.404 . S
C2284 C2287 1.539 . S
C2285 C2281 1.408 . S
C2285 C2284 1.404 . S
C2285 H2297 0.930 . S
C2286 C2282 1.524 . S
C2286 H2298 0.956 . S
C2286 H2299 0.961 . S
C2286 H2300 0.961 . S
C2287 C2284 1.539 . S
C2287 H2301 0.958 . S
C2287 H2302 0.961 . S
C2287 H2303 0.960 . S
H2288 C2272 0.931 . S
H2289 C2277 0.929 . S
H2290 C2278 0.960 . S
H2291 C2278 0.962 . S
H2292 C2278 0.960 . S
H2293 C2279 0.961 . S
H2294 C2279 0.961 . S
H2295 C2279 0.961 . S
H2296 C2280 0.931 . S
H2297 C2285 0.930 . S
H2298 C2286 0.956 . S
H2299 C2286 0.961 . S
H2300 C2286 0.961 . S
H2301 C2287 0.958 . S
H2302 C2287 0.961 . S
H2303 C2287 0.960 . S
C2304 C2305 1.391 . S
C2304 C2306 1.394 . S
C2304 H2320 0.931 . S
C2305 C2304 1.391 . S
C2305 C2309 1.376 . S
C2306 C2304 1.394 . S
C2306 C2307 1.369 . S
C2306 C2310 1.531 . S
C2307 C2306 1.369 . S
C2307 C2308 1.410 . S
C2307 C2315 1.503 . S
C2308 C2307 1.410 . S
C2308 C2309 1.392 . S
C2308 C2311 1.511 . S
C2309 C2305 1.376 . S
C2309 C2308 1.392 . S
C2309 H2321 0.929 . S
C2310 C2306 1.531 . S
C2310 H2322 0.960 . S
C2310 H2323 0.962 . S
C2310 H2324 0.960 . S
C2311 C2308 1.511 . S
C2311 H2325 0.961 . S
C2311 H2326 0.961 . S
C2311 H2327 0.961 . S
C2312 C2313 1.370 . S
C2312 C2314 1.363 . S
C2312 H2328 0.931 . S
C2313 C2312 1.370 . S
C2313 C2317 1.408 . S
C2314 C2312 1.363 . S
C2314 C2315 1.370 . S
C2314 C2318 1.524 . S
C2315 C2307 1.503 . S
C2315 C2314 1.370 . S
C2315 C2316 1.403 . S
C2316 C2315 1.403 . S
C2316 C2317 1.404 . S
C2316 C2319 1.539 . S
C2317 C2313 1.408 . S
C2317 C2316 1.404 . S
C2317 H2329 0.930 . S
C2318 C2314 1.524 . S
C2318 H2330 0.956 . S
C2318 H2331 0.961 . S
C2318 H2332 0.961 . S
C2319 C2316 1.539 . S
C2319 H2333 0.958 . S
C2319 H2334 0.961 . S
C2319 H2335 0.960 . S
H2320 C2304 0.931 . S
H2321 C2309 0.929 . S
H2322 C2310 0.960 . S
H2323 C2310 0.962 . S
H2324 C2310 0.960 . S
H2325 C2311 0.961 . S
H2326 C2311 0.961 . S
H2327 C2311 0.961 . S
H2328 C2312 0.931 . S
H2329 C2317 0.930 . S
H2330 C2318 0.956 . S
H2331 C2318 0.961 . S
H2332 C2318 0.961 . S
H2333 C2319 0.958 . S
H2334 C2319 0.961 . S
H2335 C2319 0.960 . S
C2336 C2337 1.391 . S
C2336 C2338 1.394 . S
C2336 H2352 0.931 . S
C2337 C2336 1.391 . S
C2337 C2341 1.376 . S
C2338 C2336 1.394 . S
C2338 C2339 1.369 . S
C2338 C2342 1.531 . S
C2339 C2338 1.369 . S
C2339 C2340 1.410 . S
C2339 C2347 1.503 . S
C2340 C2339 1.410 . S
C2340 C2341 1.392 . S
C2340 C2343 1.511 . S
C2341 C2337 1.376 . S
C2341 C2340 1.392 . S
C2341 H2353 0.929 . S
C2342 C2338 1.531 . S
C2342 H2354 0.960 . S
C2342 H2355 0.962 . S
C2342 H2356 0.960 . S
C2343 C2340 1.511 . S
C2343 H2357 0.961 . S
C2343 H2358 0.961 . S
C2343 H2359 0.961 . S
C2344 C2345 1.370 . S
C2344 C2346 1.363 . S
C2344 H2360 0.931 . S
C2345 C2344 1.370 . S
C2345 C2349 1.408 . S
C2346 C2344 1.363 . S
C2346 C2347 1.370 . S
C2346 C2350 1.524 . S
C2347 C2339 1.503 . S
C2347 C2346 1.370 . S
C2347 C2348 1.403 . S
C2348 C2347 1.403 . S
C2348 C2349 1.404 . S
C2348 C2351 1.539 . S
C2349 C2345 1.408 . S
C2349 C2348 1.404 . S
C2349 H2361 0.930 . S
C2350 C2346 1.524 . S
C2350 H2362 0.956 . S
C2350 H2363 0.961 . S
C2350 H2364 0.961 . S
C2351 C2348 1.539 . S
C2351 H2365 0.958 . S
C2351 H2366 0.961 . S
C2351 H2367 0.960 . S
H2352 C2336 0.931 . S
H2353 C2341 0.929 . S
H2354 C2342 0.960 . S
H2355 C2342 0.962 . S
H2356 C2342 0.960 . S
H2357 C2343 0.961 . S
H2358 C2343 0.961 . S
H2359 C2343 0.961 . S
H2360 C2344 0.931 . S
H2361 C2349 0.930 . S
H2362 C2350 0.956 . S
H2363 C2350 0.961 . S
H2364 C2350 0.961 . S
H2365 C2351 0.958 . S
H2366 C2351 0.961 . S
H2367 C2351 0.960 . S
C2368 C2369 1.391 . S
C2368 C2370 1.394 . S
C2368 H2384 0.931 . S
C2369 C2368 1.391 . S
C2369 C2373 1.376 . S
C2370 C2368 1.394 . S
C2370 C2371 1.369 . S
C2370 C2374 1.531 . S
C2371 C2370 1.369 . S
C2371 C2372 1.410 . S
C2371 C2379 1.503 . S
C2372 C2371 1.410 . S
C2372 C2373 1.392 . S
C2372 C2375 1.511 . S
C2373 C2369 1.376 . S
C2373 C2372 1.392 . S
C2373 H2385 0.929 . S
C2374 C2370 1.531 . S
C2374 H2386 0.960 . S
C2374 H2387 0.962 . S
C2374 H2388 0.960 . S
C2375 C2372 1.511 . S
C2375 H2389 0.961 . S
C2375 H2390 0.961 . S
C2375 H2391 0.961 . S
C2376 C2377 1.370 . S
C2376 C2378 1.363 . S
C2376 H2392 0.931 . S
C2377 C2376 1.370 . S
C2377 C2381 1.408 . S
C2378 C2376 1.363 . S
C2378 C2379 1.370 . S
C2378 C2382 1.524 . S
C2379 C2371 1.503 . S
C2379 C2378 1.370 . S
C2379 C2380 1.403 . S
C2380 C2379 1.403 . S
C2380 C2381 1.404 . S
C2380 C2383 1.539 . S
C2381 C2377 1.408 . S
C2381 C2380 1.404 . S
C2381 H2393 0.930 . S
C2382 C2378 1.524 . S
C2382 H2394 0.956 . S
C2382 H2395 0.961 . S
C2382 H2396 0.961 . S
C2383 C2380 1.539 . S
C2383 H2397 0.958 . S
C2383 H2398 0.961 . S
C2383 H2399 0.960 . S
H2384 C2368 0.931 . S
H2385 C2373 0.929 . S
H2386 C2374 0.960 . S
H2387 C2374 0.962 . S
H2388 C2374 0.960 . S
H2389 C2375 0.961 . S
H2390 C2375 0.961 . S
H2391 C2375 0.961 . S
H2392 C2376 0.931 . S
H2393 C2381 0.930 . S
H2394 C2382 0.956 . S
H2395 C2382 0.961 . S
H2396 C2382 0.961 . S
H2397 C2383 0.958 . S
H2398 C2383 0.961 . S
H2399 C2383 0.960 . S
C2400 C2401 1.391 . S
C2400 C2402 1.394 . S
C2400 H2416 0.931 . S
C2401 C2400 1.391 . S
C2401 C2405 1.376 . S
C2402 C2400 1.394 . S
C2402 C2403 1.369 . S
C2402 C2406 1.531 . S
C2403 C2402 1.369 . S
C2403 C2404 1.410 . S
C2403 C2411 1.503 . S
C2404 C2403 1.410 . S
C2404 C2405 1.392 . S
C2404 C2407 1.511 . S
C2405 C2401 1.376 . S
C2405 C2404 1.392 . S
C2405 H2417 0.929 . S
C2406 C2402 1.531 . S
C2406 H2418 0.960 . S
C2406 H2419 0.962 . S
C2406 H2420 0.960 . S
C2407 C2404 1.511 . S
C2407 H2421 0.961 . S
C2407 H2422 0.961 . S
C2407 H2423 0.961 . S
C2408 C2409 1.370 . S
C2408 C2410 1.363 . S
C2408 H2424 0.931 . S
C2409 C2408 1.370 . S
C2409 C2413 1.408 . S
C2410 C2408 1.363 . S
C2410 C2411 1.370 . S
C2410 C2414 1.524 . S
C2411 C2403 1.503 . S
C2411 C2410 1.370 . S
C2411 C2412 1.403 . S
C2412 C2411 1.403 . S
C2412 C2413 1.404 . S
C2412 C2415 1.539 . S
C2413 C2409 1.408 . S
C2413 C2412 1.404 . S
C2413 H2425 0.930 . S
C2414 C2410 1.524 . S
C2414 H2426 0.956 . S
C2414 H2427 0.961 . S
C2414 H2428 0.961 . S
C2415 C2412 1.539 . S
C2415 H2429 0.958 . S
C2415 H2430 0.961 . S
C2415 H2431 0.960 . S
H2416 C2400 0.931 . S
H2417 C2405 0.929 . S
H2418 C2406 0.960 . S
H2419 C2406 0.962 . S
H2420 C2406 0.960 . S
H2421 C2407 0.961 . S
H2422 C2407 0.961 . S
H2423 C2407 0.961 . S
H2424 C2408 0.931 . S
H2425 C2413 0.930 . S
H2426 C2414 0.956 . S
H2427 C2414 0.961 . S
H2428 C2414 0.961 . S
H2429 C2415 0.958 . S
H2430 C2415 0.961 . S
H2431 C2415 0.960 . S
C2432 C2433 1.391 . S
C2432 C2434 1.394 . S
C2432 H2448 0.931 . S
C2433 C2432 1.391 . S
C2433 C2437 1.376 . S
C2434 C2432 1.394 . S
C2434 C2435 1.369 . S
C2434 C2438 1.531 . S
C2435 C2434 1.369 . S
C2435 C2436 1.410 . S
C2435 C2443 1.503 . S
C2436 C2435 1.410 . S
C2436 C2437 1.392 . S
C2436 C2439 1.511 . S
C2437 C2433 1.376 . S
C2437 C2436 1.392 . S
C2437 H2449 0.929 . S
C2438 C2434 1.531 . S
C2438 H2450 0.960 . S
C2438 H2451 0.962 . S
C2438 H2452 0.960 . S
C2439 C2436 1.511 . S
C2439 H2453 0.961 . S
C2439 H2454 0.961 . S
C2439 H2455 0.961 . S
C2440 C2441 1.370 . S
C2440 C2442 1.363 . S
C2440 H2456 0.931 . S
C2441 C2440 1.370 . S
C2441 C2445 1.408 . S
C2442 C2440 1.363 . S
C2442 C2443 1.370 . S
C2442 C2446 1.524 . S
C2443 C2435 1.503 . S
C2443 C2442 1.370 . S
C2443 C2444 1.403 . S
C2444 C2443 1.403 . S
C2444 C2445 1.404 . S
C2444 C2447 1.539 . S
C2445 C2441 1.408 . S
C2445 C2444 1.404 . S
C2445 H2457 0.930 . S
C2446 C2442 1.524 . S
C2446 H2458 0.956 . S
C2446 H2459 0.961 . S
C2446 H2460 0.961 . S
C2447 C2444 1.539 . S
C2447 H2461 0.958 . S
C2447 H2462 0.961 . S
C2447 H2463 0.960 . S
H2448 C2432 0.931 . S
H2449 C2437 0.929 . S
H2450 C2438 0.960 . S
H2451 C2438 0.962 . S
H2452 C2438 0.960 . S
H2453 C2439 0.961 . S
H2454 C2439 0.961 . S
H2455 C2439 0.961 . S
H2456 C2440 0.931 . S
H2457 C2445 0.930 . S
H2458 C2446 0.956 . S
H2459 C2446 0.961 . S
H2460 C2446 0.961 . S
H2461 C2447 0.958 . S
H2462 C2447 0.961 . S
H2463 C2447 0.960 . S
C417 C91 1.499 . S
C425 C0 1.474 . S
C449 C13 1.563 . S
C457 C52 1.592 . S
C481 C65 1.316 . S
C489 C26 1.296 . S
C513 C78 1.345 . S
C521 C39 1.421 . S
C545 C104 1.449 . S
C553 C286 1.484 . S
C577 C117 1.593 . S
C585 C247 1.590 . S
C609 C377 1.303 . S
C617 C130 1.306 . S
C641 C351 1.359 . S
C649 C143 1.417 . S
C673 C156 1.595 . S
C681 C403 1.569 . S
C705 C169 1.320 . S
C713 C338 1.313 . S
C737 C182 1.376 . S
C745 C273 1.405 . S
C769 C195 1.498 . S
C777 C208 1.473 . S
C801 C221 1.471 . S
C809 C325 1.462 . S
C833 C234 1.319 . S
C841 C260 1.314 . S
C865 C390 1.387 . S
C873 C299 1.352 . S
C897 C364 1.602 . S
C905 C312 1.580 . S
C929 C140 0.678 . S
C937 C10 0.650 . S
C961 C148 0.634 . S
C969 C18 0.701 . S
C993 C114 0.532 . S
C1001 C36 0.544 . S
C1025 C122 0.679 . S
C1033 C44 0.711 . S
C1057 C190 0.702 . S
C1065 C62 0.716 . S
C1089 C75 0.614 . S
C1097 C205 0.698 . S
C1121 C86 0.668 . S
C1129 C166 0.687 . S
C1153 C101 0.789 . S
C1161 C179 0.673 . S
C1185 C164 0.615 . S
C1193 C112 0.611 . S
C1217 C127 0.815 . S
C1225 C177 0.881 . S
C1249 C187 0.806 . S
C1257 C138 0.594 . S
C1281 C153 0.735 . S
C1289 C203 0.714 . S
C1313 C309 0.769 . S
C1321 C213 0.765 . S
C1345 C31 0.663 . S
C1353 C161 0.803 . S
C1377 C47 0.534 . S
C1385 C174 0.677 . S
C1409 C5 0.670 . S
C1417 C192 0.786 . S
C1441 C226 0.794 . S
C1449 C411 0.649 . S
C1473 C252 0.804 . S
C1481 C239 0.750 . S
C1505 C21 0.607 . S
C1513 C200 0.700 . S
C1537 C307 0.689 . S
C1545 C257 0.710 . S
C1569 C270 0.526 . S
C1577 C296 0.632 . S
C1601 C218 0.729 . S
C1609 C244 0.639 . S
C1633 C278 0.760 . S
C1641 C317 0.736 . S
C1665 C320 0.694 . S
C1673 C291 0.740 . S
C1697 C135 0.881 . S
C1705 C57 0.831 . S
C1729 C268 0.909 . S
C1737 C322 0.812 . S
C1761 C99 0.759 . S
C1769 C49 0.748 . S
C1793 C372 0.835 . S
C1801 C333 0.666 . S
C1825 C73 0.820 . S
C1833 C23 0.771 . S
C1857 C216 0.674 . S
C1865 C255 0.690 . S
C1889 C335 0.521 . S
C1897 C348 0.546 . S
C1921 C359 0.596 . S
C1929 C374 0.657 . S
C1953 C304 0.857 . S
C1961 C242 0.620 . S
C1985 C343 0.828 . S
C1993 C369 0.821 . S
C2017 C151 0.457 . S
C2025 C70 0.636 . S
C2049 C96 0.709 . S
C2057 C125 0.648 . S
C2081 C231 0.692 . S
C2089 C387 0.664 . S
C2113 C395 0.647 . S
C2121 C408 0.705 . S
C2145 C413 0.836 . S
C2153 C385 0.856 . S
C2177 C60 0.832 . S
C2185 C8 0.669 . S
C2209 C34 0.633 . S
C2217 C83 0.788 . S
C2241 C400 0.722 . S
C2249 C229 0.712 . S
C2273 C330 0.677 . S
C2281 C361 0.787 . S
C2305 C265 0.790 . S
C2313 C281 0.541 . S
C2337 C88 0.787 . S
C2345 C109 0.788 . S
C2369 C294 0.623 . S
C2377 C283 0.681 . S
C2401 C346 0.672 . S
C2409 C356 0.748 . S
C2433 C398 0.562 . S
C2441 C382 0.698 . S
