# Generated by pormake.
# Topology ung, (4)-cn, num edge types: 1
# Building blocks:
#     Node 0, Type 0, BuildingBlock: ICAMEG_clean_sbu_1, # of connection points: 4
#     Node 1, Type 0, BuildingBlock: ICAMEG_clean_sbu_1, # of connection points: 4
#     Node 2, Type 0, BuildingBlock: ICAMEG_clean_sbu_1, # of connection points: 4
#     Node 3, Type 0, BuildingBlock: ICAMEG_clean_sbu_1, # of connection points: 4
#     Node 4, Type 0, BuildingBlock: ICAMEG_clean_sbu_1, # of connection points: 4
#     Node 5, Type 0, BuildingBlock: ICAMEG_clean_sbu_1, # of connection points: 4
#     Node 6, Type 0, BuildingBlock: ICAMEG_clean_sbu_1, # of connection points: 4
#     Node 7, Type 0, BuildingBlock: ICAMEG_clean_sbu_1, # of connection points: 4
#     Node 8, Type 0, BuildingBlock: ICAMEG_clean_sbu_1, # of connection points: 4
#     Node 9, Type 0, BuildingBlock: ICAMEG_clean_sbu_1, # of connection points: 4
#     Node 10, Type 0, BuildingBlock: ICAMEG_clean_sbu_1, # of connection points: 4
#     Node 11, Type 0, BuildingBlock: ICAMEG_clean_sbu_1, # of connection points: 4
#     Node 12, Type 0, BuildingBlock: ICAMEG_clean_sbu_1, # of connection points: 4
#     Node 13, Type 0, BuildingBlock: ICAMEG_clean_sbu_1, # of connection points: 4
#     Node 14, Type 0, BuildingBlock: ICAMEG_clean_sbu_1, # of connection points: 4
#     Node 15, Type 0, BuildingBlock: ICAMEG_clean_sbu_1, # of connection points: 4
#     Node 16, Type 0, BuildingBlock: ICAMEG_clean_sbu_1, # of connection points: 4
#     Node 17, Type 0, BuildingBlock: ICAMEG_clean_sbu_1, # of connection points: 4
#     Edge 18, Type (0, 0), BuildingBlock: XUDNAN_clean_linker_2, # of connection points: 2
#     Edge 19, Type (0, 0), BuildingBlock: XUDNAN_clean_linker_2, # of connection points: 2
#     Edge 20, Type (0, 0), BuildingBlock: XUDNAN_clean_linker_2, # of connection points: 2
#     Edge 21, Type (0, 0), BuildingBlock: XUDNAN_clean_linker_2, # of connection points: 2
#     Edge 22, Type (0, 0), BuildingBlock: XUDNAN_clean_linker_2, # of connection points: 2
#     Edge 23, Type (0, 0), BuildingBlock: XUDNAN_clean_linker_2, # of connection points: 2
#     Edge 24, Type (0, 0), BuildingBlock: XUDNAN_clean_linker_2, # of connection points: 2
#     Edge 25, Type (0, 0), BuildingBlock: XUDNAN_clean_linker_2, # of connection points: 2
#     Edge 26, Type (0, 0), BuildingBlock: XUDNAN_clean_linker_2, # of connection points: 2
#     Edge 27, Type (0, 0), BuildingBlock: XUDNAN_clean_linker_2, # of connection points: 2
#     Edge 28, Type (0, 0), BuildingBlock: XUDNAN_clean_linker_2, # of connection points: 2
#     Edge 29, Type (0, 0), BuildingBlock: XUDNAN_clean_linker_2, # of connection points: 2
#     Edge 30, Type (0, 0), BuildingBlock: XUDNAN_clean_linker_2, # of connection points: 2
#     Edge 31, Type (0, 0), BuildingBlock: XUDNAN_clean_linker_2, # of connection points: 2
#     Edge 32, Type (0, 0), BuildingBlock: XUDNAN_clean_linker_2, # of connection points: 2
#     Edge 33, Type (0, 0), BuildingBlock: XUDNAN_clean_linker_2, # of connection points: 2
#     Edge 34, Type (0, 0), BuildingBlock: XUDNAN_clean_linker_2, # of connection points: 2
#     Edge 35, Type (0, 0), BuildingBlock: XUDNAN_clean_linker_2, # of connection points: 2
#     Edge 36, Type (0, 0), BuildingBlock: XUDNAN_clean_linker_2, # of connection points: 2
#     Edge 37, Type (0, 0), BuildingBlock: XUDNAN_clean_linker_2, # of connection points: 2
#     Edge 38, Type (0, 0), BuildingBlock: XUDNAN_clean_linker_2, # of connection points: 2
#     Edge 39, Type (0, 0), BuildingBlock: XUDNAN_clean_linker_2, # of connection points: 2
#     Edge 40, Type (0, 0), BuildingBlock: XUDNAN_clean_linker_2, # of connection points: 2
#     Edge 41, Type (0, 0), BuildingBlock: XUDNAN_clean_linker_2, # of connection points: 2
#     Edge 42, Type (0, 0), BuildingBlock: XUDNAN_clean_linker_2, # of connection points: 2
#     Edge 43, Type (0, 0), BuildingBlock: XUDNAN_clean_linker_2, # of connection points: 2
#     Edge 44, Type (0, 0), BuildingBlock: XUDNAN_clean_linker_2, # of connection points: 2
#     Edge 45, Type (0, 0), BuildingBlock: XUDNAN_clean_linker_2, # of connection points: 2
#     Edge 46, Type (0, 0), BuildingBlock: XUDNAN_clean_linker_2, # of connection points: 2
#     Edge 47, Type (0, 0), BuildingBlock: XUDNAN_clean_linker_2, # of connection points: 2
#     Edge 48, Type (0, 0), BuildingBlock: XUDNAN_clean_linker_2, # of connection points: 2
#     Edge 49, Type (0, 0), BuildingBlock: XUDNAN_clean_linker_2, # of connection points: 2
#     Edge 50, Type (0, 0), BuildingBlock: XUDNAN_clean_linker_2, # of connection points: 2
#     Edge 51, Type (0, 0), BuildingBlock: XUDNAN_clean_linker_2, # of connection points: 2
#     Edge 52, Type (0, 0), BuildingBlock: XUDNAN_clean_linker_2, # of connection points: 2
#     Edge 53, Type (0, 0), BuildingBlock: XUDNAN_clean_linker_2, # of connection points: 2
# Relax obj value: 0.020
# Max RMSD: 0.108
# Mean RMSD: 0.108
data_MOF--net-ung--node1-ICAMEG_clean_sbu_1--edge1-XUDNAN_clean_linker_2
_symmetry_space_group_name_H-M    P1
_symmetry_Int_Tables_number       1
_symmetry_cell_setting            triclinic
loop_
_symmetry_equiv_pos_as_xyz
'x, y, z'
_cell_length_a     76.460812
_cell_length_b     76.606671
_cell_length_c     24.43922
_cell_angle_alpha  90.031966
_cell_angle_beta   89.930623
_cell_angle_gamma 120.0409
loop_
_atom_site_label
_atom_site_type_symbol
_atom_site_fract_x
_atom_site_fract_y
_atom_site_fract_z
_atom_type_partial_charge
Co0 Co 0.0901 0.65109 0.21369 0.0
Co1 Co 0.04474 0.62816 0.28171 0.0
O2 O 0.06773 0.6277 0.24881 0.0
C3 C 0.07691 0.61813 0.13207 0.0
O4 O 0.05836 0.61447 0.13948 0.0
C5 C 0.05932 0.61156 0.36854 0.0
O6 O 0.07754 0.62672 0.35903 0.0
O7 O 0.06319 0.65195 0.32625 0.0
O8 O 0.08938 0.6701 0.26982 0.0
H9 H 0.00542 0.6607 0.34629 0.0
H10 H 0.09469 0.61616 0.24447 0.0
O11 O 0.09152 0.63261 0.15763 0.0
H12 H 0.14837 0.67409 0.3447 0.0
H13 H 0.15708 0.68783 0.11647 0.0
H14 H 0.09882 0.69231 0.18557 0.0
H15 H 0.12539 0.6786 0.2832 0.0
H16 H 0.12886 0.65884 0.16317 0.0
O17 O 0.04429 0.60991 0.34152 0.0
H18 H 0.03416 0.65984 0.3031 0.0
H19 H 0.00657 0.59701 0.33434 0.0
H20 H 0.1268 0.72173 0.13963 0.0
H21 H 0.11745 0.61101 0.30525 0.0
H22 H 0.15619 0.71959 0.10468 0.0
H23 H 0.14447 0.6401 0.35605 0.0
O24 O 0.07092 0.6545 0.16632 0.0
H25 H 0.02022 0.55947 0.2007 0.0
H26 H 0.00906 0.61747 0.21047 0.0
H27 H 0.98695 0.58838 0.15222 0.0
H28 H 0.99247 0.55911 0.14706 0.0
H29 H 0.04207 0.58894 0.25816 0.0
H30 H 0.97762 0.59721 0.3784 0.0
H31 H 0.97689 0.62921 0.38435 0.0
O32 O 0.04457 0.64632 0.22234 0.0
C33 C 0.07953 0.66802 0.31398 0.0
C34 C 0.00553 0.64665 0.34379 0.0
C35 C 0.98994 0.61102 0.36187 0.0
N36 N 0.02194 0.62836 0.31578 0.0
C37 C 0.02173 0.64606 0.31923 0.0
C38 C 0.00639 0.611 0.33699 0.0
C39 C 0.98954 0.62898 0.36518 0.0
C40 C 0.10656 0.62894 0.26594 0.0
N41 N 0.10875 0.64767 0.2601 0.0
C42 C 0.11934 0.62591 0.3005 0.0
C43 C 0.13447 0.64223 0.32907 0.0
C44 C 0.13666 0.6613 0.32276 0.0
C45 C 0.12357 0.66375 0.28795 0.0
C46 C 0.14437 0.68896 0.1316 0.0
C47 C 0.11162 0.69132 0.17078 0.0
C48 C 0.12833 0.67259 0.15795 0.0
N49 N 0.1123 0.67396 0.17743 0.0
C50 C 0.12739 0.708 0.14466 0.0
C51 C 0.14387 0.70678 0.12502 0.0
C52 C 0.05426 0.6537 0.17779 0.0
C53 C 0.01762 0.5721 0.20276 0.0
C54 C 0.01158 0.6048 0.20841 0.0
C55 C 0.99898 0.58835 0.17543 0.0
C56 C 1.00208 0.57193 0.17259 0.0
N57 N 0.0268 0.60487 0.23786 0.0
C58 C 0.02989 0.58879 0.23542 0.0
Co59 Co 0.50239 0.48771 0.31122 0.0
Co60 Co 0.48494 0.50843 0.21516 0.0
O61 O 0.50558 0.50953 0.26383 0.0
C62 C 0.51298 0.52228 0.3832 0.0
O63 O 0.49846 0.52331 0.35762 0.0
C64 C 0.51987 0.5178 0.14509 0.0
O65 O 0.51974 0.50256 0.16993 0.0
O66 O 0.47937 0.48201 0.18591 0.0
O67 O 0.488 0.46707 0.25171 0.0
H68 H 0.41698 0.47611 0.12401 0.0
H69 H 0.54299 0.52363 0.29526 0.0
O70 O 0.51676 0.50828 0.37095 0.0
H71 H 0.54906 0.46586 0.23089 0.0
H72 H 0.52588 0.45695 0.45456 0.0
H73 H 0.46945 0.44612 0.33474 0.0
H74 H 0.51682 0.46065 0.26843 0.0
H75 H 0.52928 0.48384 0.3923 0.0
O76 O 0.50649 0.5225 0.15727 0.0
H77 H 0.44287 0.47763 0.18718 0.0
H78 H 0.48406 0.53742 0.13573 0.0
H79 H 0.46544 0.41875 0.396 0.0
H80 H 0.57554 0.52949 0.25843 0.0
H81 H 0.4938 0.4241 0.45647 0.0
H82 H 0.5787 0.50049 0.22569 0.0
O83 O 0.4761 0.48342 0.33874 0.0
H84 H 0.52972 0.58022 0.27481 0.0
H85 H 0.45933 0.52469 0.25743 0.0
H86 H 0.46616 0.55709 0.29735 0.0
H87 H 0.50157 0.58512 0.30627 0.0
H88 H 0.52222 0.54752 0.23553 0.0
H89 H 0.45869 0.53651 0.07164 0.0
H90 H 0.42484 0.50571 0.06569 0.0
O91 O 0.46329 0.49429 0.27256 0.0
C92 C 0.48055 0.46713 0.20486 0.0
C93 C 0.43165 0.48964 0.12638 0.0
C94 C 0.45507 0.52354 0.09693 0.0
N95 N 0.46485 0.50766 0.16545 0.0
C96 C 0.44633 0.49061 0.16219 0.0
C97 C 0.46938 0.52395 0.1332 0.0
C98 C 0.43608 0.50625 0.09363 0.0
C99 C 0.54431 0.5109 0.28171 0.0
N100 N 0.52806 0.49181 0.28428 0.0
C101 C 0.56275 0.51433 0.26064 0.0
C102 C 0.5645 0.49805 0.2422 0.0
C103 C 0.54787 0.47862 0.24508 0.0
C104 C 0.52966 0.47576 0.2663 0.0
C105 C 0.51343 0.45442 0.42833 0.0
C106 C 0.48189 0.44849 0.36069 0.0
C107 C 0.51526 0.4696 0.39309 0.0
N108 N 0.49964 0.46646 0.35964 0.0
C109 C 0.47951 0.43297 0.3954 0.0
C110 C 0.49543 0.43599 0.42936 0.0
C111 C 0.4621 0.48589 0.31875 0.0
C112 C 0.51422 0.56814 0.27097 0.0
C113 C 0.47478 0.53682 0.26116 0.0
C114 C 0.47855 0.55514 0.28373 0.0
C115 C 0.49842 0.57087 0.2887 0.0
N116 N 0.49036 0.53426 0.2439 0.0
C117 C 0.50988 0.54963 0.24851 0.0
Co118 Co 0.63725 0.05072 0.19301 0.0
Co119 Co 0.64884 0.08264 0.30155 0.0
O120 O 0.62957 0.06419 0.24783 0.0
C121 C 0.61482 0.0661 0.12637 0.0
O122 O 0.62658 0.08437 0.14538 0.0
C123 C 0.61341 0.05524 0.3691 0.0
O124 O 0.61401 0.04023 0.34498 0.0
O125 O 0.6549 0.06138 0.32622 0.0
O126 O 0.6566 0.04882 0.24474 0.0
H127 H 0.71471 0.11661 0.40351 0.0
H128 H 0.59397 0.03434 0.22007 0.0
O129 O 0.61768 0.0517 0.14032 0.0
H130 H 0.60774 0.97927 0.26002 0.0
H131 H 0.62385 0.00214 0.03833 0.0
H132 H 0.67606 0.05491 0.1553 0.0
H133 H 0.63464 0.01178 0.22391 0.0
H134 H 0.61443 0.01847 0.11043 0.0
O135 O 0.62644 0.07335 0.35685 0.0
H136 H 0.69054 0.09394 0.33431 0.0
H137 H 0.64736 0.1099 0.38625 0.0
H138 H 0.68614 0.039 0.08374 0.0
H139 H 0.56659 0.00199 0.25558 0.0
H140 H 0.65993 0.01237 0.02469 0.0
H141 H 0.57341 0.9742 0.27598 0.0
O142 O 0.65948 0.07725 0.1667 0.0
H143 H 0.60344 0.10942 0.2461 0.0
H144 H 0.67414 0.1259 0.26985 0.0
H145 H 0.66698 0.15203 0.23623 0.0
H146 H 0.63141 0.14387 0.22426 0.0
H147 H 0.61129 0.08369 0.27919 0.0
H148 H 0.67101 0.13263 0.45632 0.0
H149 H 0.70499 0.13615 0.46512 0.0
O150 O 0.67168 0.09252 0.24732 0.0
C151 C 0.66011 0.05113 0.2961 0.0
C152 C 0.69998 0.11526 0.39995 0.0
C153 C 0.67544 0.12423 0.42963 0.0
N154 N 0.66763 0.10074 0.35593 0.0
C155 C 0.68624 0.10249 0.36074 0.0
C156 C 0.6621 0.11131 0.38995 0.0
C157 C 0.6945 0.1262 0.43454 0.0
C158 C 0.59701 0.02225 0.22829 0.0
N159 N 0.61586 0.02492 0.21964 0.0
C160 C 0.58146 0.00399 0.24862 0.0
C161 C 0.58531 0.98842 0.26015 0.0
C162 C 0.60458 0.99126 0.25123 0.0
C163 C 0.61976 0.00972 0.2309 0.0
C164 C 0.6354 0.01368 0.06389 0.0
C165 C 0.66455 0.04328 0.12998 0.0
C166 C 0.63016 0.023 0.10475 0.0
N167 N 0.64466 0.03752 0.13735 0.0
C168 C 0.67036 0.03434 0.08943 0.0
C169 C 0.65565 0.01943 0.05627 0.0
C170 C 0.67359 0.09081 0.19588 0.0
C171 C 0.619 0.11318 0.25131 0.0
C172 C 0.65862 0.12221 0.2646 0.0
C173 C 0.65466 0.13709 0.24567 0.0
C174 C 0.6347 0.1325 0.23899 0.0
N175 N 0.64314 0.10332 0.27674 0.0
C176 C 0.62353 0.0987 0.27023 0.0
Co177 Co 0.05446 0.4857 0.80293 0.0
Co178 Co 0.0916 0.51019 0.70502 0.0
O179 O 0.07207 0.50903 0.75798 0.0
C180 C 0.07881 0.51864 0.87966 0.0
O181 O 0.09439 0.52044 0.85227 0.0
C182 C 0.0645 0.51953 0.64156 0.0
O183 O 0.04964 0.50387 0.66606 0.0
O184 O 0.07116 0.48387 0.67321 0.0
O185 O 0.04788 0.46696 0.73868 0.0
H186 H 0.1288 0.48272 0.59873 0.0
H187 H 0.04866 0.52126 0.80033 0.0
O188 O 0.06105 0.5046 0.86723 0.0
H189 H 0.98442 0.46416 0.7349 0.0
H190 H 1.00255 0.45011 0.95038 0.0
H191 H 0.04679 0.4439 0.81425 0.0
H192 H 0.01251 0.45899 0.76261 0.0
H193 H 0.02467 0.47882 0.8908 0.0
O194 O 0.08274 0.52447 0.65216 0.0
H195 H 0.10445 0.48159 0.66708 0.0
H196 H 0.11992 0.54158 0.62706 0.0
H197 H 0.02485 0.41478 0.87274 0.0
H198 H 0.02091 0.52706 0.77353 0.0
H199 H 1.00252 0.41779 0.94141 0.0
H200 H 0.98853 0.4984 0.74031 0.0
O201 O 0.07709 0.48107 0.82271 0.0
H202 H 0.11562 0.57966 0.77961 0.0
H203 H 0.13453 0.52812 0.74028 0.0
H204 H 0.15937 0.56016 0.78359 0.0
H205 H 0.14995 0.58619 0.80358 0.0
H206 H 0.09122 0.54734 0.73673 0.0
H207 H 0.14429 0.54331 0.55793 0.0
H208 H 0.14891 0.51376 0.54361 0.0
O209 O 0.10076 0.49602 0.75712 0.0
C210 C 0.05525 0.46833 0.6908 0.0
C211 C 0.12697 0.49572 0.60475 0.0
C212 C 0.13565 0.52972 0.58179 0.0
N213 N 0.11093 0.51156 0.65136 0.0
C214 C 0.11327 0.49519 0.6435 0.0
C215 C 0.1218 0.52864 0.62089 0.0
C216 C 0.13824 0.51314 0.57379 0.0
C217 C 0.03455 0.50866 0.78652 0.0
N218 N 0.03217 0.48978 0.78338 0.0
C219 C 0.01891 0.51206 0.77114 0.0
C220 C 1.00076 0.49598 0.75244 0.0
C221 C 0.99845 0.47677 0.74937 0.0
C222 C 0.01442 0.47394 0.76503 0.0
C223 C 0.01219 0.4486 0.92056 0.0
C224 C 0.03703 0.44528 0.84382 0.0
C225 C 0.02477 0.46481 0.88681 0.0
N226 N 0.03689 0.46297 0.8489 0.0
C227 C 0.02468 0.42876 0.87693 0.0
C228 C 0.01217 0.43047 0.91549 0.0
C229 C 0.09393 0.48544 0.80065 0.0
C230 C 0.11992 0.56845 0.77104 0.0
C231 C 0.13032 0.53935 0.74901 0.0
C232 C 0.14446 0.55749 0.77339 0.0
C233 C 0.13917 0.57209 0.78455 0.0
N234 N 0.11146 0.53587 0.73604 0.0
C235 C 0.10619 0.55015 0.74659 0.0
Co236 Co 0.62983 0.65289 0.72732 0.0
Co237 Co 0.65222 0.63038 0.79688 0.0
O238 O 0.62889 0.62955 0.76205 0.0
C239 C 0.61154 0.62054 0.64362 0.0
O240 O 0.62643 0.61701 0.65238 0.0
C241 C 0.61985 0.61272 0.88074 0.0
O242 O 0.61677 0.62784 0.87141 0.0
O243 O 0.6566 0.65374 0.84216 0.0
O244 O 0.64866 0.67169 0.78498 0.0
H245 H 0.72345 0.66366 0.86722 0.0
H246 H 0.59022 0.61724 0.75454 0.0
O247 O 0.61083 0.63464 0.66949 0.0
H248 H 0.5921 0.67383 0.85588 0.0
H249 H 0.59971 0.68922 0.62834 0.0
H250 H 0.66221 0.69454 0.70208 0.0
H251 H 0.62054 0.67939 0.79654 0.0
H252 H 0.59894 0.66023 0.67463 0.0
O253 O 0.63377 0.61156 0.85502 0.0
H254 H 0.69408 0.66247 0.82167 0.0
H255 H 0.6592 0.59941 0.85016 0.0
H256 H 0.66364 0.72398 0.65662 0.0
H257 H 0.56138 0.61105 0.81313 0.0
H258 H 0.63222 0.72141 0.61935 0.0
H259 H 0.56225 0.63945 0.86449 0.0
O260 O 0.65314 0.65707 0.6819 0.0
H261 H 0.60992 0.56198 0.71205 0.0
H262 H 0.67857 0.62079 0.72779 0.0
H263 H 0.6728 0.59224 0.66894 0.0
H264 H 0.63827 0.56256 0.66079 0.0
H265 H 0.61632 0.59093 0.77014 0.0
H266 H 0.68811 0.59993 0.89652 0.0
H267 H 0.72055 0.63222 0.90504 0.0
O268 O 0.67117 0.64911 0.73884 0.0
C269 C 0.65602 0.6696 0.82979 0.0
C270 C 0.70941 0.64949 0.86361 0.0
C271 C 0.68957 0.61372 0.88012 0.0
N272 N 0.67503 0.63086 0.83287 0.0
C273 C 0.69276 0.64871 0.83772 0.0
C274 C 0.67324 0.61352 0.85394 0.0
C275 C 0.70777 0.63185 0.88486 0.0
C276 C 0.59061 0.62973 0.77625 0.0
N277 N 0.60702 0.64866 0.77193 0.0
C278 C 0.57428 0.62611 0.80957 0.0
C279 C 0.57479 0.64205 0.83845 0.0
C280 C 0.59154 0.66134 0.83368 0.0
C281 C 0.60762 0.66438 0.80009 0.0
C282 C 0.61349 0.69054 0.6445 0.0
C283 C 0.64846 0.69336 0.68627 0.0
C284 C 0.61316 0.67416 0.67063 0.0
N285 N 0.63049 0.67576 0.69139 0.0
C286 C 0.64937 0.71006 0.66043 0.0
C287 C 0.63174 0.7086 0.63949 0.0
C288 C 0.66906 0.65651 0.6941 0.0
C289 C 0.62504 0.5748 0.71542 0.0
C290 C 0.66349 0.60795 0.72441 0.0
C291 C 0.66033 0.5918 0.69111 0.0
C292 C 0.64095 0.57515 0.68659 0.0
N293 N 0.64781 0.6075 0.75254 0.0
C294 C 0.62878 0.5912 0.74844 0.0
Co295 Co 0.50028 0.08047 0.79584 0.0
Co296 Co 0.47991 0.04096 0.70561 0.0
O297 O 0.50139 0.05921 0.75451 0.0
C298 C 0.5094 0.05792 0.87742 0.0
O299 O 0.49339 0.04187 0.85828 0.0
C300 C 0.51665 0.0555 0.63598 0.0
O301 O 0.52159 0.07404 0.64903 0.0
O302 O 0.48179 0.06431 0.66532 0.0
O303 O 0.48651 0.08611 0.73324 0.0
H304 H 0.41587 0.01643 0.59801 0.0
H305 H 0.53933 0.08143 0.78227 0.0
O306 O 0.51422 0.07526 0.85841 0.0
H307 H 0.54992 0.145 0.70161 0.0
H308 H 0.52827 0.13963 0.92473 0.0
H309 H 0.4696 0.09281 0.81325 0.0
H310 H 0.51712 0.1208 0.74283 0.0
H311 H 0.5292 0.11302 0.87002 0.0
O312 O 0.50058 0.04066 0.65535 0.0
H313 H 0.44283 0.03893 0.66163 0.0
H314 H 0.47204 0.00458 0.64161 0.0
H315 H 0.46808 0.1193 0.86691 0.0
H316 H 0.57242 0.10529 0.7419 0.0
H317 H 0.49757 0.14294 0.9232 0.0
H318 H 0.57786 0.13731 0.70104 0.0
O319 O 0.47336 0.06072 0.82692 0.0
H320 H 0.50851 0.00207 0.79735 0.0
H321 H 0.44615 0.00327 0.75386 0.0
H322 H 0.44402 0.97501 0.80749 0.0
H323 H 0.47536 0.97428 0.82954 0.0
H324 H 0.50997 0.03013 0.74421 0.0
H325 H 0.4455 0.9818 0.5774 0.0
H326 H 0.41711 0.98762 0.55541 0.0
O327 O 0.45855 0.04053 0.75468 0.0
C328 C 0.48225 0.08013 0.68357 0.0
C329 C 0.42812 0.01369 0.60743 0.0
C330 C 0.44476 0.99427 0.59581 0.0
N331 N 0.45887 0.02294 0.65575 0.0
C332 C 0.44339 0.02634 0.64356 0.0
C333 C 0.45976 0.00723 0.63212 0.0
C334 C 0.42884 0.99754 0.5835 0.0
C335 C 0.54163 0.09542 0.76505 0.0
N336 N 0.52634 0.09976 0.76518 0.0
C337 C 0.56038 0.10884 0.74205 0.0
C338 C 0.56341 0.12679 0.71906 0.0
C339 C 0.54774 0.13111 0.71933 0.0
C340 C 0.52919 0.11732 0.74264 0.0
C341 C 0.51534 0.12945 0.9003 0.0
C342 C 0.48254 0.10312 0.83735 0.0
C343 C 0.51576 0.11433 0.86934 0.0
N344 N 0.49953 0.10149 0.83818 0.0
C345 C 0.48157 0.11805 0.86779 0.0
C346 C 0.49811 0.1313 0.8994 0.0
C347 C 0.45781 0.04706 0.80227 0.0
C348 C 0.49474 0.00217 0.78782 0.0
C349 C 0.45986 0.00309 0.76336 0.0
C350 C 0.45856 0.98702 0.79365 0.0
C351 C 0.47614 0.98661 0.80596 0.0
N352 N 0.47817 0.0183 0.74573 0.0
C353 C 0.49547 0.01798 0.75753 0.0
Co354 Co 0.71673 0.9642 0.61019 0.0
Co355 Co 0.76289 0.98995 0.54657 0.0
O356 O 0.7408 0.96569 0.5787 0.0
C357 C 0.73095 0.94878 0.70173 0.0
O358 O 0.74743 0.96651 0.70408 0.0
C359 C 0.75102 0.9587 0.46114 0.0
O360 O 0.73241 0.95477 0.4689 0.0
O361 O 0.74371 0.99353 0.49984 0.0
O362 O 0.71602 0.98261 0.55249 0.0
H363 H 0.79832 0.06184 0.48183 0.0
H364 H 0.71721 0.92673 0.58209 0.0
O365 O 0.717 0.94545 0.66756 0.0
H366 H 0.66123 0.92388 0.47503 0.0
H367 H 0.6486 0.92819 0.7016 0.0
H368 H 0.70315 0.99355 0.63352 0.0
H369 H 0.68134 0.95246 0.53701 0.0
H370 H 0.67906 0.93077 0.65883 0.0
O371 O 0.76545 0.97281 0.48816 0.0
H372 H 0.77051 0.03118 0.5238 0.0
H373 H 0.80243 0.99979 0.49717 0.0
H374 H 0.67287 0.99162 0.67547 0.0
H375 H 0.69739 0.89781 0.52091 0.0
H376 H 0.64533 0.95875 0.7099 0.0
H377 H 0.66922 0.8963 0.46666 0.0
O378 O 0.73358 0.98803 0.65711 0.0
H379 H 0.79117 0.95008 0.63435 0.0
H380 H 0.79719 0.01707 0.61923 0.0
H381 H 0.82025 0.01251 0.68032 0.0
H382 H 0.81733 0.97882 0.68812 0.0
H383 H 0.76835 0.95528 0.57397 0.0
H384 H 0.83051 0.03004 0.45433 0.0
H385 H 0.82859 0.06137 0.44671 0.0
O386 O 0.76074 0.00742 0.60469 0.0
C387 C 0.72645 0.99156 0.51002 0.0
C388 C 0.79937 0.0483 0.48508 0.0
C389 C 0.81742 0.03044 0.46958 0.0
N390 N 0.78495 0.0138 0.51335 0.0
C391 C 0.7837 0.03092 0.50896 0.0
C392 C 0.80146 0.01335 0.49374 0.0
C393 C 0.81634 0.04802 0.46533 0.0
C394 C 0.70479 0.92604 0.55926 0.0
N395 N 0.70035 0.94119 0.56349 0.0
C396 C 0.69369 0.90968 0.52442 0.0
C397 C 0.67792 0.90887 0.4939 0.0
C398 C 0.67344 0.92435 0.49854 0.0
C399 C 0.6849 0.9405 0.53366 0.0
C400 C 0.66048 0.94258 0.68666 0.0
C401 C 0.69116 0.97917 0.64805 0.0
C402 C 0.67777 0.94414 0.66253 0.0
N403 N 0.69277 0.96226 0.64329 0.0
C404 C 0.67409 0.97818 0.67193 0.0
C405 C 0.65865 0.95974 0.69128 0.0
C406 C 0.74979 0.00458 0.64704 0.0
C407 C 0.79264 0.96485 0.63115 0.0
C408 C 0.79583 0.00236 0.62241 0.0
C409 C 0.80894 0.99988 0.65702 0.0
C410 C 0.8073 0.98097 0.66137 0.0
N411 N 0.78153 0.98648 0.59277 0.0
C412 C 0.77981 0.9679 0.59688 0.0
Co413 Co 0.166 0.81435 0.64259 0.0
Co414 Co 0.15408 0.8345 0.53339 0.0
O415 O 0.17306 0.83584 0.58915 0.0
C416 C 0.18409 0.85175 0.70914 0.0
O417 O 0.17409 0.85802 0.67919 0.0
C418 C 0.19164 0.84539 0.47184 0.0
O419 O 0.19166 0.83015 0.49635 0.0
O420 O 0.14949 0.80777 0.50752 0.0
O421 O 0.14913 0.79318 0.58739 0.0
H422 H 0.08962 0.80117 0.42511 0.0
H423 H 0.20908 0.84453 0.62415 0.0
O424 O 0.18262 0.83472 0.69974 0.0
H425 H 0.2028 0.77892 0.57852 0.0
H426 H 0.18007 0.77995 0.79786 0.0
H427 H 0.12804 0.77741 0.6738 0.0
H428 H 0.17321 0.78084 0.61055 0.0
H429 H 0.18895 0.80633 0.72802 0.0
O430 O 0.17723 0.84887 0.48057 0.0
H431 H 0.11331 0.80324 0.49665 0.0
H432 H 0.15544 0.86325 0.44892 0.0
H433 H 0.1185 0.75069 0.74291 0.0
H434 H 0.23911 0.84328 0.59272 0.0
H435 H 0.14463 0.75184 0.80553 0.0
H436 H 0.23605 0.8103 0.56949 0.0
O437 O 0.14197 0.81596 0.66586 0.0
H438 H 0.19631 0.90696 0.59088 0.0
H439 H 0.12693 0.85051 0.56373 0.0
H440 H 0.13219 0.88314 0.59745 0.0
H441 H 0.16709 0.91167 0.61111 0.0
H442 H 0.19037 0.87401 0.55793 0.0
H443 H 0.13226 0.86179 0.37662 0.0
H444 H 0.09905 0.8306 0.36449 0.0
O445 O 0.13053 0.82042 0.58553 0.0
C446 C 0.14542 0.79227 0.53619 0.0
C447 C 0.10402 0.81487 0.43011 0.0
C448 C 0.12796 0.84888 0.40284 0.0
N449 N 0.13566 0.83339 0.47722 0.0
C450 C 0.11747 0.81614 0.47063 0.0
C451 C 0.14104 0.8496 0.44379 0.0
C452 C 0.10933 0.83138 0.39607 0.0
C453 C 0.20769 0.8301 0.61469 0.0
N454 N 0.18945 0.81278 0.61944 0.0
C455 C 0.22472 0.8295 0.59667 0.0
C456 C 0.22299 0.81099 0.58355 0.0
C457 C 0.20433 0.79338 0.58857 0.0
C458 C 0.18762 0.79457 0.6066 0.0
C459 C 0.16857 0.77923 0.77067 0.0
C460 C 0.13952 0.77793 0.7006 0.0
C461 C 0.1735 0.79413 0.73106 0.0
N462 N 0.15907 0.79327 0.69642 0.0
C463 C 0.13402 0.7628 0.73978 0.0
C464 C 0.14868 0.76347 0.77495 0.0
C465 C 0.12818 0.81592 0.6365 0.0
C466 C 0.18104 0.89467 0.58493 0.0
C467 C 0.14216 0.86281 0.56988 0.0
C468 C 0.14505 0.88128 0.58879 0.0
C469 C 0.16463 0.89728 0.59637 0.0
N470 N 0.15833 0.86035 0.55876 0.0
C471 C 0.17757 0.87599 0.56601 0.0
Co472 Co 0.31315 0.41191 0.6418 0.0
Co473 Co 0.301 0.37868 0.53589 0.0
O474 O 0.29374 0.39296 0.58912 0.0
C475 C 0.27715 0.38522 0.70882 0.0
O476 O 0.27743 0.36989 0.68568 0.0
C477 C 0.28026 0.39481 0.46605 0.0
O478 O 0.29268 0.41301 0.48454 0.0
O479 O 0.32354 0.40469 0.50818 0.0
O480 O 0.33581 0.42144 0.58704 0.0
H481 H 0.349 0.36458 0.43028 0.0
H482 H 0.27548 0.41259 0.61786 0.0
O483 O 0.29081 0.40315 0.69716 0.0
H484 H 0.33096 0.48072 0.57205 0.0
H485 H 0.33563 0.46324 0.79326 0.0
H486 H 0.35501 0.42372 0.67403 0.0
H487 H 0.33827 0.45498 0.60798 0.0
H488 H 0.31179 0.43983 0.7246 0.0
O489 O 0.28189 0.37986 0.48201 0.0
H490 H 0.33943 0.38165 0.49973 0.0
H491 H 0.27769 0.3459 0.45509 0.0
H492 H 0.37937 0.44706 0.74186 0.0
H493 H 0.26749 0.43794 0.58249 0.0
H494 H 0.36973 0.46702 0.80207 0.0
H495 H 0.29535 0.47228 0.55919 0.0
O496 O 0.31934 0.3909 0.6685 0.0
H497 H 0.22989 0.3317 0.59847 0.0
H498 H 0.29739 0.33962 0.57054 0.0
H499 H 0.26994 0.30774 0.60815 0.0
H500 H 0.2359 0.30361 0.62226 0.0
H501 H 0.25782 0.36341 0.5615 0.0
H502 H 0.28659 0.32845 0.38505 0.0
H503 H 0.32247 0.33774 0.37239 0.0
O504 O 0.32 0.37671 0.58878 0.0
C505 C 0.33743 0.41909 0.53579 0.0
C506 C 0.3333 0.36033 0.43557 0.0
C507 C 0.29828 0.34008 0.41013 0.0
N508 N 0.30801 0.36464 0.48182 0.0
C509 C 0.32779 0.36991 0.47493 0.0
C510 C 0.29333 0.35002 0.44983 0.0
C511 C 0.31841 0.34529 0.40305 0.0
C512 C 0.28769 0.42755 0.60826 0.0
N513 N 0.30732 0.43232 0.61524 0.0
C514 C 0.28307 0.44182 0.58806 0.0
C515 C 0.29871 0.46107 0.57493 0.0
C516 C 0.31869 0.46582 0.5821 0.0
C517 C 0.32274 0.45116 0.60234 0.0
C518 C 0.34002 0.45465 0.7672 0.0
C519 C 0.35074 0.43244 0.69988 0.0
C520 C 0.32657 0.44134 0.72834 0.0
N521 N 0.33206 0.43053 0.69511 0.0
C522 C 0.36458 0.44559 0.73831 0.0
C523 C 0.35915 0.45677 0.77211 0.0
C524 C 0.32399 0.37987 0.6398 0.0
C525 C 0.24464 0.33329 0.59234 0.0
C526 C 0.28264 0.33798 0.57673 0.0
C527 C 0.26714 0.31986 0.5979 0.0
C528 C 0.24803 0.31755 0.60577 0.0
N529 N 0.27919 0.35335 0.56365 0.0
C530 C 0.26049 0.35118 0.57118 0.0
Co531 Co 0.72338 0.82088 0.14851 0.0
Co532 Co 0.75179 0.83374 0.03092 0.0
O533 O 0.73847 0.83999 0.08986 0.0
C534 C 0.75083 0.85867 0.207 0.0
O535 O 0.76558 0.85899 0.17858 0.0
C536 C 0.73494 0.8584 0.98001 0.0
O537 O 0.72818 0.86045 0.02745 0.0
O538 O 0.72607 0.80883 0.01364 0.0
O539 O 0.71366 0.79717 0.09731 0.0
H540 H 0.76756 0.78765 0.92206 0.0
H541 H 0.71616 0.85525 0.13308 0.0
O542 O 0.7328 0.84415 0.20088 0.0
H543 H 0.65011 0.79414 0.10269 0.0
H544 H 0.67962 0.79775 0.31706 0.0
H545 H 0.718 0.78149 0.18434 0.0
H546 H 0.67999 0.79143 0.12623 0.0
H547 H 0.6978 0.82088 0.24069 0.0
O548 O 0.74442 0.84867 0.97554 0.0
H549 H 0.75218 0.79673 0.9975 0.0
H550 H 0.77849 0.85662 0.93705 0.0
H551 H 0.7 0.75792 0.25997 0.0
H552 H 0.6866 0.85864 0.11038 0.0
H553 H 0.68061 0.76598 0.32696 0.0
H554 H 0.65328 0.82793 0.09476 0.0
O555 O 0.74723 0.8182 0.16664 0.0
H556 H 0.79597 0.9072 0.07994 0.0
H557 H 0.79413 0.84291 0.0455 0.0
H558 H 0.8264 0.87306 0.06955 0.0
H559 H 0.8275 0.90555 0.08673 0.0
H560 H 0.76408 0.87674 0.05659 0.0
H561 H 0.79414 0.84818 0.86082 0.0
H562 H 0.78874 0.81349 0.85307 0.0
O563 O 0.75942 0.81826 0.08302 0.0
C564 C 0.71429 0.79469 0.04573 0.0
C565 C 0.7701 0.80285 0.92512 0.0
C566 C 0.78499 0.83681 0.89071 0.0
N567 N 0.76458 0.82723 0.97196 0.0
C568 C 0.76147 0.80809 0.96784 0.0
C569 C 0.77607 0.84149 0.93391 0.0
C570 C 0.78196 0.81734 0.88639 0.0
C571 C 0.70172 0.84181 0.12657 0.0
N572 N 0.69989 0.82318 0.13049 0.0
C573 C 0.68503 0.84383 0.11362 0.0
C574 C 0.66635 0.8266 0.10481 0.0
C575 C 0.66456 0.80763 0.10917 0.0
C576 C 0.68159 0.8062 0.12217 0.0
C577 C 0.68796 0.79404 0.28802 0.0
C578 C 0.70949 0.78504 0.2131 0.0
C579 C 0.69829 0.80708 0.24472 0.0
N580 N 0.70877 0.80243 0.20776 0.0
C581 C 0.69937 0.77167 0.25594 0.0
C582 C 0.68852 0.77621 0.29355 0.0
C583 C 0.75837 0.81485 0.1345 0.0
C584 C 0.79573 0.89319 0.07197 0.0
C585 C 0.79444 0.85699 0.05265 0.0
C586 C 0.81279 0.87402 0.06631 0.0
C587 C 0.8134 0.89224 0.07594 0.0
N588 N 0.77716 0.85805 0.04819 0.0
C589 C 0.77766 0.87585 0.05813 0.0
Co590 Co 0.32474 0.97093 0.14781 0.0
Co591 Co 0.29353 0.97963 0.06556 0.0
O592 O 0.29912 0.96211 0.11063 0.0
C593 C 0.29333 0.95207 0.2338 0.0
O594 O 0.28667 0.96404 0.2177 0.0
C595 C 0.27773 0.95593 0.96379 0.0
O596 O 0.28982 0.97256 0.93704 0.0
O597 O 0.3181 0.98689 0.02128 0.0
O598 O 0.34045 0.98792 0.08296 0.0
H599 H 0.31158 0.04303 0.96166 0.0
H600 H 0.29501 0.92728 0.13633 0.0
O601 O 0.30924 0.95361 0.21217 0.0
H602 H 0.35715 0.9371 0.04685 0.0
H603 H 0.37236 0.96069 0.26764 0.0
H604 H 0.36291 0.00982 0.16015 0.0
H605 H 0.35613 0.96578 0.08934 0.0
H606 H 0.34047 0.95008 0.21816 0.0
O607 O 0.27727 0.95592 0.01601 0.0
H608 H 0.31826 0.02066 0.01959 0.0
H609 H 0.25629 0.97548 0.01305 0.0
H610 H 0.3951 0.02106 0.20863 0.0
H611 H 0.29543 0.89816 0.09473 0.0
H612 H 0.39997 0.9964 0.26286 0.0
H613 H 0.32666 0.90298 0.04953 0.0
O614 O 0.32416 0.99452 0.18064 0.0
H615 H 0.22974 0.93098 0.16403 0.0
H616 H 0.27687 0.00265 0.12298 0.0
H617 H 0.24751 0.99342 0.18281 0.0
H618 H 0.22371 0.95736 0.20373 0.0
H619 H 0.25936 0.94087 0.10471 0.0
H620 H 0.24893 0.99737 0.95506 0.0
H621 H 0.2767 0.03141 0.92899 0.0
O622 O 0.30985 0.00336 0.11429 0.0
C623 C 0.33592 0.99112 0.03498 0.0
C624 C 0.29935 0.02824 0.97281 0.0
C625 C 0.26418 0.00262 0.96915 0.0
N626 N 0.28768 0.99684 0.01992 0.0
C627 C 0.30304 0.01552 0.00563 0.0
C628 C 0.26843 0.99032 1.00208 0.0
C629 C 0.27977 0.02172 0.9545 0.0
C630 C 0.3087 0.92948 0.11708 0.0
N631 N 0.32555 0.94819 0.1156 0.0
C632 C 0.30883 0.91294 0.09344 0.0
C633 C 0.32635 0.91566 0.06803 0.0
C634 C 0.34346 0.9348 0.0665 0.0
C635 C 0.34277 0.95099 0.09054 0.0
C636 C 0.37043 0.97157 0.24408 0.0
C637 C 0.36498 0.99899 0.18341 0.0
C638 C 0.35239 0.96566 0.21609 0.0
N639 N 0.34991 0.9793 0.18602 0.0
C640 C 0.38321 0.00545 0.21089 0.0
C641 C 0.38592 0.99161 0.24136 0.0
C642 C 0.31964 0.00691 0.15907 0.0
C643 C 0.23994 0.94674 0.15498 0.0
C644 C 0.26659 0.98692 0.13186 0.0
C645 C 0.24996 0.98179 0.16569 0.0
C646 C 0.2366 0.96155 0.17736 0.0
N647 N 0.26977 0.97231 0.11003 0.0
C648 C 0.25668 0.95243 0.12115 0.0
Co649 Co 0.17694 0.41963 0.11947 0.0
Co650 Co 0.14585 0.37798 0.04052 0.0
O651 O 0.17128 0.39566 0.07787 0.0
C652 C 0.18394 0.39443 0.19751 0.0
O653 O 0.16656 0.37944 0.1808 0.0
C654 C 0.17773 0.39046 0.9558 0.0
O655 O 0.18454 0.4091 0.97209 0.0
O656 O 0.14564 0.4014 0.00568 0.0
O657 O 0.16367 0.42779 0.06185 0.0
H658 H 0.07505 0.3551 0.97791 0.0
H659 H 0.20991 0.41145 0.09179 0.0
O660 O 0.19057 0.41199 0.17746 0.0
H661 H 0.22995 0.47759 0.0093 0.0
H662 H 0.21973 0.47998 0.23808 0.0
H663 H 0.15377 0.43995 0.14705 0.0
H664 H 0.19846 0.45947 0.06291 0.0
H665 H 0.21243 0.45002 0.18324 0.0
O666 O 0.16171 0.37615 0.97713 0.0
H667 H 0.10698 0.37721 0.02616 0.0
H668 H 0.13123 0.3409 0.9727 0.0
H669 H 0.1605 0.4699 0.2011 0.0
H670 H 0.24157 0.42907 0.03873 0.0
H671 H 0.19368 0.49013 0.24708 0.0
H672 H 0.25171 0.46233 0.99681 0.0
O673 O 0.15084 0.40436 0.15988 0.0
H674 H 0.1772 0.33698 0.09982 0.0
H675 H 0.11519 0.34168 0.10122 0.0
H676 H 0.11531 0.31317 0.14764 0.0
H677 H 0.14648 0.31069 0.14712 0.0
H678 H 0.17648 0.36532 0.05427 0.0
H679 H 0.09961 0.31846 0.92353 0.0
H680 H 0.07122 0.32547 0.92613 0.0
O681 O 0.12978 0.37931 0.10376 0.0
C682 C 0.15256 0.41973 0.0198 0.0
C683 C 0.08729 0.35186 0.97658 0.0
C684 C 0.10109 0.33131 0.946 0.0
N685 N 0.12089 0.36028 1.00246 0.0
C686 C 0.10539 0.3643 1.00391 0.0
C687 C 0.11897 0.34409 0.97379 0.0
C688 C 0.08516 0.33524 0.94749 0.0
C689 C 0.21433 0.42601 0.07413 0.0
N690 N 0.20235 0.43442 0.08038 0.0
C691 C 0.23223 0.43588 0.04397 0.0
C692 C 0.2379 0.45454 0.02038 0.0
C693 C 0.22568 0.46309 0.02732 0.0
C694 C 0.20785 0.45275 0.0576 0.0
C695 C 0.20523 0.47131 0.21814 0.0
C696 C 0.16829 0.44878 0.16663 0.0
C697 C 0.201 0.45432 0.18714 0.0
N698 N 0.18275 0.44337 0.16163 0.0
C699 C 0.17199 0.46567 0.19731 0.0
C700 C 0.19061 0.477 0.22316 0.0
C701 C 0.13353 0.38935 0.14818 0.0
C702 C 0.16351 0.33785 0.10016 0.0
C703 C 0.12882 0.34071 0.1008 0.0
C704 C 0.12879 0.32452 0.1271 0.0
C705 C 0.14628 0.32313 0.12677 0.0
N706 N 0.14578 0.3551 0.07477 0.0
C707 C 0.16297 0.35382 0.0742 0.0
Co708 Co 0.42499 0.31708 0.8947 0.0
Co709 Co 0.38392 0.30325 0.9766 0.0
O710 O 0.40333 0.29739 0.94095 0.0
C711 C 0.40795 0.28006 0.82438 0.0
O712 O 0.38977 0.27757 0.83042 0.0
C713 C 0.39812 0.2868 0.06498 0.0
O714 O 0.41667 0.29969 0.04971 0.0
O715 O 0.40627 0.32796 0.01118 0.0
O716 O 0.42798 0.34003 0.94091 0.0
H717 H 0.35581 0.34715 0.03564 0.0
H718 H 0.42813 0.28287 0.93985 0.0
O719 O 0.42308 0.2948 0.84742 0.0
H720 H 0.48791 0.34401 0.00969 0.0
H721 H 0.48787 0.34331 0.77959 0.0
H722 H 0.43466 0.35642 0.84658 0.0
H723 H 0.46363 0.34671 0.949 0.0
H724 H 0.46093 0.319 0.84053 0.0
O725 O 0.38323 0.28664 0.04108 0.0
H726 H 0.37992 0.33959 0.98929 0.0
H727 H 0.34681 0.27879 0.04336 0.0
H728 H 0.46141 0.38121 0.78607 0.0
H729 H 0.45213 0.27949 1.00008 0.0
H730 H 0.48827 0.37472 0.75215 0.0
H731 H 0.48224 0.31021 0.03557 0.0
O732 O 0.40481 0.3192 0.84838 0.0
H733 H 0.34776 0.23041 0.91984 0.0
H734 H 0.34662 0.29419 0.91491 0.0
H735 H 0.31947 0.26406 0.86941 0.0
H736 H 0.31992 0.23186 0.87177 0.0
H737 H 0.37471 0.26095 0.96446 0.0
H738 H 0.32243 0.28574 0.09075 0.0
H739 H 0.32681 0.32011 0.08685 0.0
O740 O 0.38387 0.31971 0.91206 0.0
C741 C 0.42175 0.34214 0.9876 0.0
C742 C 0.3537 0.3321 0.03751 0.0
C743 C 0.33498 0.29764 0.0685 0.0
N744 N 0.36468 0.30874 0.01329 0.0
C745 C 0.36728 0.32771 0.01122 0.0
C746 C 0.34886 0.29381 0.04171 0.0
C747 C 0.33745 0.31693 0.06628 0.0
C748 C 0.44132 0.29631 0.95464 0.0
N749 N 0.4445 0.31496 0.94076 0.0
C750 C 0.45481 0.2943 0.98893 0.0
C751 C 0.47167 0.31154 0.00892 0.0
C752 C 0.47485 0.33051 0.99446 0.0
C753 C 0.46102 0.33195 0.96019 0.0
C754 C 0.47628 0.34633 0.7942 0.0
C755 C 0.44637 0.35355 0.83226 0.0
C756 C 0.46096 0.3326 0.82864 0.0
N757 N 0.44633 0.33638 0.84747 0.0
C758 C 0.46144 0.36762 0.79789 0.0
C759 C 0.47649 0.36395 0.77883 0.0
C760 C 0.3907 0.3225 0.86309 0.0
C761 C 0.34737 0.24433 0.91868 0.0
C762 C 0.34695 0.28025 0.91604 0.0
C763 C 0.33151 0.26323 0.89028 0.0
C764 C 0.33177 0.24517 0.89164 0.0
N765 N 0.36219 0.27931 0.94256 0.0
C766 C 0.36255 0.26166 0.94404 0.0
Co767 Co 0.83929 0.15273 0.9609 0.0
Co768 Co 0.81608 0.16955 0.87452 0.0
O769 O 0.84024 0.17363 0.91326 0.0
C770 C 0.86091 0.18937 0.03134 0.0
O771 O 0.84647 0.1935 0.02176 0.0
C772 C 0.84885 0.187 0.79003 0.0
O773 O 0.8547 0.17434 0.80571 0.0
O774 O 0.81315 0.14471 0.83948 0.0
O775 O 0.8184 0.13069 0.9135 0.0
H776 H 0.7448 0.12898 0.80573 0.0
H777 H 0.87893 0.18448 0.91894 0.0
O778 O 0.86028 0.17394 0.0096 0.0
H779 H 0.87158 0.12038 0.85231 0.0
H780 H 0.8693 0.12133 0.08203 0.0
H781 H 0.80634 0.11459 0.00723 0.0
H782 H 0.84503 0.12057 0.90922 0.0
H783 H 0.87033 0.1471 0.01954 0.0
O784 O 0.83352 0.18651 0.81229 0.0
H785 H 0.77513 0.13456 0.85592 0.0
H786 H 0.80628 0.19606 0.80737 0.0
H787 H 0.80462 0.08838 0.0692 0.0
H788 H 0.90597 0.18497 0.86264 0.0
H789 H 0.83627 0.09166 0.10706 0.0
H790 H 0.90235 0.15274 0.82877 0.0
O791 O 0.81751 0.15304 0.00454 0.0
H792 H 0.85484 0.24161 0.93755 0.0
H793 H 0.788 0.17981 0.9327 0.0
H794 H 0.7918 0.21008 0.9792 0.0
H795 H 0.82541 0.24129 0.98175 0.0
H796 H 0.8504 0.21093 0.89191 0.0
H797 H 0.77634 0.19109 0.75617 0.0
H798 H 0.74529 0.15737 0.75534 0.0
O799 O 0.79779 0.15288 0.93646 0.0
C800 C 0.81173 0.12952 0.86496 0.0
C801 C 0.75823 0.14375 0.80587 0.0
C802 C 0.77594 0.17861 0.778 0.0
N803 N 0.79243 0.16564 0.83481 0.0
C804 C 0.77544 0.14702 0.83432 0.0
C805 C 0.79287 0.18131 0.80692 0.0
C806 C 0.75852 0.15968 0.77757 0.0
C807 C 0.87735 0.17039 0.90483 0.0
N808 N 0.86045 0.15253 0.91748 0.0
C809 C 0.89267 0.17076 0.87277 0.0
C810 C 0.89061 0.15268 0.85369 0.0
C811 C 0.87334 0.13451 0.86684 0.0
C812 C 0.85832 0.13473 0.89893 0.0
C813 C 0.85541 0.11971 0.06571 0.0
C814 C 0.82018 0.11606 0.02326 0.0
C815 C 0.8559 0.13428 0.0304 0.0
N816 N 0.83842 0.13227 0.00941 0.0
C817 C 0.81911 0.1012 0.05845 0.0
C818 C 0.83687 0.10306 0.07973 0.0
C819 C 0.80072 0.15048 0.98671 0.0
C820 C 0.8401 0.22812 0.93656 0.0
C821 C 0.80269 0.19331 0.93373 0.0
C822 C 0.80474 0.21042 0.96004 0.0
C823 C 0.82359 0.22792 0.96142 0.0
N824 N 0.81895 0.19362 0.90937 0.0
C825 C 0.83749 0.21073 0.91059 0.0
Co826 Co 0.96291 0.71509 0.86878 0.0
Co827 Co 0.98599 0.75134 0.9686 0.0
O828 O 0.96271 0.73315 0.92443 0.0
C829 C 0.94821 0.7391 0.81201 0.0
O830 O 0.96377 0.7548 0.83414 0.0
C831 C 0.95395 0.72688 0.04802 0.0
O832 O 0.95251 0.71124 0.02184 0.0
O833 O 0.99107 0.72909 0.98868 0.0
O834 O 0.98057 0.70854 0.91534 0.0
H835 H 0.05727 0.78233 0.03743 0.0
H836 H 0.92387 0.70991 0.9078 0.0
O837 O 0.94533 0.72146 0.82111 0.0
H838 H 0.92134 0.64573 0.94986 0.0
H839 H 0.9312 0.66203 0.72246 0.0
H840 H 0.99414 0.7075 0.82097 0.0
H841 H 0.95105 0.67329 0.90369 0.0
H842 H 0.93149 0.68465 0.79482 0.0
O843 O 0.96726 0.74465 0.03336 0.0
H844 H 0.0281 0.7597 0.97996 0.0
H845 H 0.99252 0.78132 0.05537 0.0
H846 H 0.99451 0.685 0.74927 0.0
H847 H 0.8938 0.6827 0.95368 0.0
H848 H 0.96287 0.66205 0.69947 0.0
H849 H 0.89244 0.65036 0.97517 0.0
O850 O 0.98731 0.73756 0.83436 0.0
H851 H 0.9431 0.78324 0.93953 0.0
H852 H 0.01191 0.79324 0.92702 0.0
H853 H 0.00583 0.82067 0.89895 0.0
H854 H 0.97121 0.81576 0.90515 0.0
H855 H 0.9498 0.75614 0.96665 0.0
H856 H 0.02126 0.80407 0.11401 0.0
H857 H 0.05394 0.80472 0.10506 0.0
O858 O 0.00489 0.75827 0.90393 0.0
C859 C 0.9895 0.71412 0.96163 0.0
C860 C 0.04313 0.78223 0.04159 0.0
C861 C 0.02291 0.79442 0.08462 0.0
N862 N 0.00871 0.76934 0.014 0.0
C863 C 0.02659 0.76951 0.00904 0.0
C864 C 0.00668 0.78149 0.0514 0.0
C865 C 0.04125 0.79478 0.07956 0.0
C866 C 0.92329 0.6958 0.91648 0.0
N867 N 0.93913 0.69314 0.90279 0.0
C868 C 0.90627 0.68048 0.94269 0.0
C869 C 0.90553 0.66235 0.95481 0.0
C870 C 0.92174 0.65975 0.94065 0.0
C871 C 0.93854 0.67541 0.91459 0.0
C872 C 0.94507 0.67192 0.74398 0.0
C873 C 0.98029 0.69743 0.79977 0.0
C874 C 0.94533 0.68477 0.78492 0.0
N875 N 0.96277 0.6972 0.81246 0.0
C876 C 0.9806 0.68478 0.75908 0.0
C877 C 0.96285 0.67193 0.73111 0.0
C878 C 0.0031 0.75269 0.85384 0.0
C879 C 0.95826 0.78558 0.93679 0.0
C880 C 0.9968 0.79097 0.92974 0.0
C881 C 0.99345 0.80657 0.91389 0.0
C882 C 0.97403 0.80381 0.91743 0.0
N883 N 0.98124 0.77313 0.94869 0.0
C884 C 0.96217 0.77033 0.95236 0.0
Co885 Co 0.38613 0.15091 0.484 0.0
Co886 Co 0.4214 0.17399 0.38163 0.0
O887 O 0.40343 0.17403 0.43801 0.0
C888 C 0.41031 0.18375 0.56119 0.0
O889 O 0.42607 0.18567 0.53443 0.0
C890 C 0.39623 0.18744 0.32466 0.0
O891 O 0.38076 0.17187 0.34761 0.0
O892 O 0.399 0.14904 0.34915 0.0
O893 O 0.37941 0.13163 0.42077 0.0
H894 H 0.45208 0.14287 0.26253 0.0
H895 H 0.37968 0.18601 0.48038 0.0
O896 O 0.39261 0.16997 0.54753 0.0
H897 H 0.31562 0.12804 0.41745 0.0
H898 H 0.33475 0.11553 0.63282 0.0
H899 H 0.37954 0.10959 0.49799 0.0
H900 H 0.3441 0.12349 0.44503 0.0
H901 H 0.35631 0.144 0.57187 0.0
O902 O 0.41407 0.19072 0.33346 0.0
H903 H 0.42976 0.14317 0.33508 0.0
H904 H 0.45079 0.20516 0.30502 0.0
H905 H 0.35815 0.0807 0.55785 0.0
H906 H 0.35152 0.19119 0.45371 0.0
H907 H 0.33555 0.08358 0.62587 0.0
H908 H 0.31923 0.16209 0.42174 0.0
O909 O 0.40922 0.14703 0.50356 0.0
H910 H 0.45287 0.24358 0.46214 0.0
H911 H 0.46384 0.18724 0.41415 0.0
H912 H 0.49133 0.21769 0.45768 0.0
H913 H 0.48593 0.24613 0.48195 0.0
H914 H 0.42574 0.21279 0.41891 0.0
H915 H 0.4732 0.20551 0.23178 0.0
H916 H 0.474 0.17421 0.21032 0.0
O917 O 0.42902 0.15728 0.42871 0.0
C918 C 0.38449 0.13316 0.37035 0.0
C919 C 0.45192 0.15662 0.27165 0.0
C920 C 0.46376 0.19177 0.25434 0.0
N921 N 0.43914 0.17421 0.32461 0.0
C922 C 0.43937 0.1569 0.3128 0.0
C923 C 0.45102 0.19148 0.29578 0.0
C924 C 0.46421 0.17421 0.24233 0.0
C925 C 0.3656 0.17323 0.46713 0.0
N926 N 0.36351 0.15445 0.46454 0.0
C927 C 0.34974 0.17627 0.45182 0.0
C928 C 0.33164 0.15994 0.4338 0.0
C929 C 0.32961 0.14083 0.43135 0.0
C930 C 0.3458 0.13836 0.44691 0.0
C931 C 0.3445 0.11408 0.60326 0.0
C932 C 0.36964 0.1109 0.52724 0.0
C933 C 0.35676 0.13015 0.56872 0.0
N934 N 0.36902 0.12837 0.53113 0.0
C935 C 0.35761 0.09452 0.56114 0.0
C936 C 0.34495 0.09615 0.59933 0.0
C937 C 0.42415 0.14881 0.47572 0.0
C938 C 0.45543 0.23131 0.45159 0.0
C939 C 0.46137 0.19955 0.42463 0.0
C940 C 0.477 0.21676 0.4492 0.0
C941 C 0.47396 0.23272 0.46277 0.0
N942 N 0.44325 0.1983 0.41374 0.0
C943 C 0.44016 0.21388 0.42689 0.0
Co944 Co 0.9686 0.3199 0.36629 0.0
Co945 Co 0.98489 0.30405 0.47649 0.0
O946 O 0.96505 0.29967 0.42019 0.0
C947 C 0.95869 0.28395 0.29968 0.0
O948 O 0.97317 0.28313 0.32627 0.0
C949 C 0.94675 0.29015 0.53669 0.0
O950 O 0.94553 0.30444 0.5104 0.0
O951 O 0.98607 0.32948 0.50049 0.0
O952 O 0.98233 0.34217 0.42139 0.0
H953 H 0.04818 0.34464 0.58628 0.0
H954 H 0.92787 0.28442 0.38401 0.0
O955 O 0.95485 0.29799 0.31012 0.0
H956 H 0.92095 0.34362 0.42643 0.0
H957 H 0.94674 0.34639 0.20779 0.0
H958 H 1.00206 0.36047 0.33592 0.0
H959 H 0.95366 0.34794 0.39605 0.0
H960 H 0.94245 0.32155 0.27843 0.0
O961 O 0.96207 0.28798 0.52928 0.0
H962 H 0.0236 0.33891 0.51335 0.0
H963 H 0.98731 0.27786 0.56275 0.0
H964 H 0.00695 0.38578 0.26613 0.0
H965 H 0.89484 0.27943 0.41379 0.0
H966 H 0.97916 0.3788 0.20145 0.0
H967 H 0.89125 0.30917 0.43543 0.0
O968 O 0.99538 0.32365 0.34461 0.0
H969 H 0.95037 0.23121 0.42007 0.0
H970 H 0.01608 0.29295 0.44885 0.0
H971 H 0.01519 0.26204 0.41621 0.0
H972 H 0.98216 0.23087 0.4017 0.0
H973 H 0.95195 0.26249 0.45219 0.0
H974 H 0.01146 0.28293 0.63641 0.0
H975 H 0.04218 0.31651 0.64841 0.0
O976 O 0.00796 0.32012 0.42438 0.0
C977 C 0.98699 0.3439 0.47213 0.0
C978 C 0.0349 0.32991 0.5813 0.0
C979 C 0.01427 0.29529 0.60948 0.0
N980 N 0.00417 0.30802 0.53344 0.0
C981 C 0.02097 0.32656 0.53996 0.0
C982 C 1.00065 0.29251 0.56775 0.0
C983 C 0.03151 0.31413 0.61619 0.0
C984 C 0.92637 0.29745 0.39275 0.0
N985 N 0.94265 0.31645 0.38803 0.0
C986 C 0.90765 0.29452 0.40985 0.0
C987 C 0.90566 0.31121 0.42207 0.0
C988 C 0.92232 0.33055 0.41707 0.0
C989 C 0.94082 0.3329 0.39996 0.0
C990 C 0.95894 0.34963 0.23583 0.0
C991 C 0.98985 0.35739 0.30816 0.0
C992 C 0.95661 0.33561 0.27587 0.0
N993 N 0.97193 0.33966 0.31158 0.0
C994 C 0.99273 0.37175 0.26862 0.0
C995 C 0.97713 0.36781 0.23231 0.0
C996 C 0.00996 0.3254 0.37399 0.0
C997 C 0.96486 0.24467 0.42641 0.0
C998 C 1.00165 0.27946 0.44251 0.0
C999 C 1.00124 0.26199 0.42413 0.0
C1000 C 0.9827 0.24451 0.41603 0.0
N1001 N 0.98408 0.27949 0.45269 0.0
C1002 C 0.96585 0.26241 0.44483 0.0
Co1003 Co 0.83291 0.75071 0.46182 0.0
Co1004 Co 0.81822 0.71 0.37847 0.0
O1005 O 0.83816 0.73097 0.42592 0.0
C1006 C 0.84871 0.73585 0.55049 0.0
O1007 O 0.83588 0.71738 0.53473 0.0
C1008 C 0.85565 0.72672 0.3099 0.0
O1009 O 0.85828 0.74487 0.31696 0.0
O1010 O 0.81724 0.73087 0.33249 0.0
O1011 O 0.8169 0.75147 0.3973 0.0
H1012 H 0.75441 0.6759 0.26755 0.0
H1013 H 0.87495 0.75883 0.45026 0.0
O1014 O 0.8491 0.7508 0.52649 0.0
H1015 H 0.87381 0.81518 0.35617 0.0
H1016 H 0.85157 0.81214 0.57683 0.0
H1017 H 0.79708 0.75568 0.4743 0.0
H1018 H 0.84314 0.78843 0.4009 0.0
H1019 H 0.85791 0.78742 0.52924 0.0
O1020 O 0.84059 0.7115 0.33183 0.0
H1021 H 0.77941 0.70183 0.32935 0.0
H1022 H 0.81545 0.67402 0.32288 0.0
H1023 H 0.79013 0.78015 0.52078 0.0
H1024 H 0.90601 0.78536 0.40642 0.0
H1025 H 0.8175 0.80863 0.57255 0.0
H1026 H 0.90555 0.81377 0.35882 0.0
O1027 O 0.80783 0.72864 0.49564 0.0
H1028 H 0.85335 0.68016 0.48377 0.0
H1029 H 0.78726 0.67161 0.43102 0.0
H1030 H 0.78856 0.6464 0.49099 0.0
H1031 H 0.82178 0.65058 0.51769 0.0
H1032 H 0.85137 0.70511 0.42429 0.0
H1033 H 0.79093 0.64788 0.26063 0.0
H1034 H 0.7601 0.64867 0.23275 0.0
O1035 O 0.79516 0.70762 0.42412 0.0
C1036 C 0.81442 0.74519 0.34788 0.0
C1037 C 0.76774 0.67535 0.27956 0.0
C1038 C 0.78825 0.65963 0.27562 0.0
N1039 N 0.79876 0.68933 0.33012 0.0
C1040 C 0.78192 0.68995 0.31468 0.0
C1041 C 0.8021 0.6745 0.3108 0.0
C1042 C 0.77096 0.66008 0.26001 0.0
C1043 C 0.87467 0.77124 0.43005 0.0
N1044 N 0.85727 0.77212 0.4284 0.0
C1045 C 0.89229 0.78618 0.40513 0.0
C1046 C 0.89201 0.8021 0.37836 0.0
C1047 C 0.87421 0.80289 0.37683 0.0
C1048 C 0.85687 0.78768 0.40215 0.0
C1049 C 0.83953 0.79981 0.55435 0.0
C1050 C 0.80909 0.76809 0.49647 0.0
C1051 C 0.84302 0.78574 0.52745 0.0
N1052 N 0.82791 0.7702 0.49873 0.0
C1053 C 0.80506 0.78187 0.52284 0.0
C1054 C 0.82041 0.79784 0.55191 0.0
C1055 C 0.79327 0.71378 0.4712 0.0
C1056 C 0.83878 0.67813 0.47226 0.0
C1057 C 0.80178 0.67357 0.4426 0.0
C1058 C 0.80242 0.65922 0.47645 0.0
C1059 C 0.82106 0.66156 0.49137 0.0
N1060 N 0.81923 0.68979 0.42405 0.0
C1061 C 0.83756 0.69216 0.43839 0.0
H1062 H 0.05025 0.52497 0.93152 0.0
H1063 H 0.11483 0.5477 0.92089 0.0
H1064 H 0.12106 0.57506 0.98474 0.0
H1065 H 0.05356 0.57309 0.93451 0.0
H1066 H 0.03316 0.56587 0.98255 0.0
H1067 H 0.03342 0.54722 0.93813 0.0
H1068 H 0.03096 0.52555 0.02226 0.0
H1069 H 0.0306 0.54409 0.06694 0.0
H1070 H 0.04932 0.53663 0.07639 0.0
H1071 H 0.12069 0.60056 0.04717 0.0
H1072 H 0.11364 0.62249 0.10577 0.0
H1073 H 0.04934 0.58393 0.07633 0.0
C1074 C 0.06567 0.53554 0.94326 0.0
C1075 C 0.08204 0.53406 0.92136 0.0
C1076 C 0.10201 0.54841 0.93716 0.0
C1077 C 0.10574 0.56405 0.97344 0.0
C1078 C 0.08935 0.56525 0.9937 0.0
C1079 C 0.0697 0.55138 0.97944 0.0
C1080 C 0.05492 0.55657 0.00614 0.0
C1081 C 0.04307 0.56095 0.96274 0.0
C1082 C 0.04061 0.53971 0.04526 0.0
C1083 C 0.06938 0.57554 0.03729 0.0
C1084 C 0.08915 0.5802 0.02956 0.0
C1085 C 0.10526 0.59705 0.05369 0.0
C1086 C 0.10109 0.60944 0.08688 0.0
C1087 C 0.08094 0.60501 0.09568 0.0
C1088 C 0.06491 0.5878 0.07034 0.0
H1089 H 0.58631 0.6081 0.93616 0.0
H1090 H 0.62379 0.5808 0.9141 0.0
H1091 H 0.60208 0.5537 0.97827 0.0
H1092 H 0.57656 0.59713 0.08028 0.0
H1093 H 0.55078 0.59173 0.07662 0.0
H1094 H 0.56927 0.60914 0.02891 0.0
H1095 H 0.54678 0.588 0.94797 0.0
H1096 H 0.52823 0.57051 0.99543 0.0
H1097 H 0.53872 0.56153 0.94392 0.0
H1098 H 0.57673 0.52974 0.04471 0.0
H1099 H 0.54918 0.51014 0.10971 0.0
H1100 H 0.52743 0.55239 0.08927 0.0
C1101 C 0.59 0.59647 0.94497 0.0
C1102 C 0.60684 0.59665 0.9201 0.0
C1103 C 0.61103 0.58105 0.93255 0.0
C1104 C 0.59877 0.56556 0.96898 0.0
C1105 C 0.58231 0.5658 0.99263 0.0
C1106 C 0.57786 0.58081 0.98123 0.0
C1107 C 0.55916 0.57738 0.01225 0.0
C1108 C 0.56426 0.59489 0.05187 0.0
C1109 C 0.54222 0.57416 0.97251 0.0
C1110 C 0.55387 0.55813 0.04297 0.0
C1111 C 0.56746 0.55177 0.03092 0.0
C1112 C 0.56596 0.53453 0.05439 0.0
C1113 C 0.5502 0.52348 0.09133 0.0
C1114 C 0.53603 0.52964 0.10461 0.0
C1115 C 0.53792 0.54721 0.07984 0.0
H1116 H 0.60569 0.09264 0.07351 0.0
H1117 H 0.58409 0.02887 0.09836 0.0
H1118 H 0.55468 0.02029 0.04028 0.0
H1119 H 0.5565 0.08898 0.07291 0.0
H1120 H 0.56287 0.10743 0.01952 0.0
H1121 H 0.58228 0.10894 0.06432 0.0
H1122 H 0.60276 0.10843 0.98044 0.0
H1123 H 0.58344 0.10697 0.93541 0.0
H1124 H 0.59096 0.08815 0.93158 0.0
H1125 H 0.52764 0.01817 0.97997 0.0
H1126 H 0.50509 0.02271 0.91718 0.0
H1127 H 0.54384 0.08772 0.92811 0.0
C1128 C 0.59475 0.07689 0.06679 0.0
C1129 C 0.59729 0.06146 0.09066 0.0
C1130 C 0.58262 0.04102 0.08053 0.0
C1131 C 0.56577 0.03594 0.04767 0.0
C1132 C 0.5637 0.05143 0.02478 0.0
C1133 C 0.57779 0.0715 0.0335 0.0
C1134 C 0.57203 0.08508 1.00253 0.0
C1135 C 0.56819 0.0984 0.0422 0.0
C1136 C 0.58827 0.09791 0.95996 0.0
C1137 C 0.55258 0.06948 0.97515 0.0
C1138 C 0.54806 0.05019 0.98896 0.0
C1139 C 0.53098 0.03321 0.96884 0.0
C1140 C 0.51823 0.03596 0.93323 0.0
C1141 C 0.5226 0.05556 0.9177 0.0
C1142 C 0.54001 0.07254 0.93929 0.0
H1143 H 0.60746 0.08288 0.42608 0.0
H1144 H 0.58297 0.01851 0.40419 0.0
H1145 H 0.55606 0.01173 0.47102 0.0
H1146 H 0.59769 0.08128 0.57138 0.0
H1147 H 0.59103 0.10075 0.56853 0.0
H1148 H 0.60858 0.10059 0.51957 0.0
H1149 H 0.58614 0.10053 0.44016 0.0
H1150 H 0.56853 0.1007 0.48886 0.0
H1151 H 0.55989 0.08118 0.43765 0.0
H1152 H 0.53155 0.01188 0.53921 0.0
H1153 H 0.51099 0.01882 0.6037 0.0
H1154 H 0.55127 0.08317 0.58171 0.0
C1155 C 0.59649 0.06734 0.43543 0.0
C1156 C 0.5974 0.05121 0.40987 0.0
C1157 C 0.58267 0.03112 0.42323 0.0
C1158 C 0.56731 0.02711 0.46118 0.0
C1159 C 0.56685 0.04334 0.48552 0.0
C1160 C 0.58104 0.06306 0.47323 0.0
C1161 C 0.57697 0.07774 0.50474 0.0
C1162 C 0.59462 0.09086 0.54335 0.0
C1163 C 0.57262 0.0908 0.4655 0.0
C1164 C 0.55821 0.06319 0.53653 0.0
C1165 C 0.55267 0.04343 0.52485 0.0
C1166 C 0.53576 0.02729 0.54873 0.0
C1167 C 0.52416 0.03142 0.58536 0.0
C1168 C 0.52946 0.05156 0.59792 0.0
C1169 C 0.5468 0.06762 0.57315 0.0
H1170 H 0.08817 0.60726 0.42482 0.0
H1171 H 0.02328 0.58069 0.40579 0.0
H1172 H 0.01776 0.55465 0.4738 0.0
H1173 H 0.08804 0.56046 0.43838 0.0
H1174 H 0.10796 0.56997 0.4886 0.0
H1175 H 0.10693 0.58686 0.43913 0.0
H1176 H 0.10682 0.60958 0.5175 0.0
H1177 H 0.10786 0.59277 0.56723 0.0
H1178 H 0.08787 0.59874 0.57038 0.0
H1179 H 0.01911 0.53149 0.54364 0.0
H1180 H 0.02721 0.51234 0.60983 0.0
H1181 H 0.09127 0.55344 0.58335 0.0
C1182 C 0.07279 0.59603 0.43514 0.0
C1183 C 0.05615 0.5961 0.41001 0.0
C1184 C 0.03628 0.581 0.4244 0.0
C1185 C 0.03298 0.56613 0.46307 0.0
C1186 C 0.04968 0.56648 0.48695 0.0
C1187 C 0.0692 0.58098 0.47355 0.0
C1188 C 0.08447 0.57771 0.50479 0.0
C1189 C 0.09762 0.5735 0.46536 0.0
C1190 C 0.09752 0.59577 0.5422 0.0
C1191 C 0.07046 0.55911 0.53785 0.0
C1192 C 0.05047 0.55293 0.52696 0.0
C1193 C 0.03472 0.53616 0.55246 0.0
C1194 C 0.0395 0.52537 0.59005 0.0
C1195 C 0.05988 0.53131 0.60182 0.0
C1196 C 0.07554 0.54846 0.57525 0.0
H1197 H 0.6056 0.58661 0.58775 0.0
H1198 H 0.58004 0.6255 0.61233 0.0
H1199 H 0.55214 0.60425 0.54991 0.0
H1200 H 0.5932 0.57681 0.44416 0.0
H1201 H 0.58709 0.55086 0.44767 0.0
H1202 H 0.60525 0.56912 0.49437 0.0
H1203 H 0.58442 0.54712 0.57643 0.0
H1204 H 0.56616 0.52881 0.52997 0.0
H1205 H 0.55812 0.53981 0.58246 0.0
H1206 H 0.5272 0.5793 0.48517 0.0
H1207 H 0.50651 0.55203 0.42075 0.0
H1208 H 0.54752 0.52853 0.43722 0.0
C1209 C 0.59418 0.5907 0.57983 0.0
C1210 C 0.59508 0.6078 0.60497 0.0
C1211 C 0.57974 0.61253 0.59368 0.0
C1212 C 0.56379 0.60053 0.55826 0.0
C1213 C 0.56331 0.58379 0.53439 0.0
C1214 C 0.57805 0.57882 0.54453 0.0
C1215 C 0.57379 0.55992 0.51336 0.0
C1216 C 0.59085 0.56446 0.47246 0.0
C1217 C 0.57042 0.54291 0.55293 0.0
C1218 C 0.55438 0.55513 0.48408 0.0
C1219 C 0.54867 0.56914 0.49697 0.0
C1220 C 0.53147 0.5682 0.47482 0.0
C1221 C 0.5198 0.5526 0.43821 0.0
C1222 C 0.52531 0.53804 0.42395 0.0
C1223 C 0.54282 0.53933 0.44753 0.0
H1224 H 0.7234 0.86495 0.26408 0.0
H1225 H 0.78772 0.89061 0.23516 0.0
H1226 H 0.79475 0.91891 0.29688 0.0
H1227 H 0.72368 0.91193 0.26683 0.0
H1228 H 0.70491 0.90417 0.32007 0.0
H1229 H 0.70493 0.88567 0.27458 0.0
H1230 H 0.70686 0.86574 0.35774 0.0
H1231 H 0.70682 0.88418 0.40348 0.0
H1232 H 0.72692 0.87837 0.40691 0.0
H1233 H 0.79483 0.9444 0.36234 0.0
H1234 H 0.78789 0.96544 0.42538 0.0
H1235 H 0.7235 0.92357 0.41004 0.0
C1236 C 0.73899 0.87646 0.27089 0.0
C1237 C 0.75502 0.87548 0.24488 0.0
C1238 C 0.77517 0.89097 0.25464 0.0
C1239 C 0.77932 0.90712 0.28967 0.0
C1240 C 0.76318 0.90765 0.31451 0.0
C1241 C 0.7434 0.89275 0.30551 0.0
C1242 C 0.7288 0.89705 0.33664 0.0
C1243 C 0.71475 0.89987 0.29717 0.0
C1244 C 0.71663 0.88034 0.37869 0.0
C1245 C 0.74344 0.91669 0.36456 0.0
C1246 C 0.76321 0.92251 0.35142 0.0
C1247 C 0.77941 0.94002 0.3728 0.0
C1248 C 0.77531 0.95187 0.4086 0.0
C1249 C 0.75516 0.94625 0.4225 0.0
C1250 C 0.73907 0.92841 0.39994 0.0
H1251 H 0.19648 0.87843 0.41411 0.0
H1252 H 0.22628 0.84421 0.45086 0.0
H1253 H 0.25571 0.86812 0.39582 0.0
H1254 H 0.21412 0.89081 0.2744 0.0
H1255 H 0.21727 0.91573 0.27761 0.0
H1256 H 0.19848 0.89582 0.31955 0.0
H1257 H 0.21431 0.91768 0.40606 0.0
H1258 H 0.2332 0.93761 0.36437 0.0
H1259 H 0.24074 0.92751 0.42029 0.0
H1260 H 0.2821 0.89594 0.33709 0.0
H1261 H 0.30299 0.92494 0.27691 0.0
H1262 H 0.25611 0.94118 0.27844 0.0
C1263 C 0.20914 0.87589 0.41043 0.0
C1264 C 0.20899 0.85934 0.43683 0.0
C1265 C 0.22594 0.85667 0.43095 0.0
C1266 C 0.24278 0.87022 0.39985 0.0
C1267 C 0.24249 0.88641 0.37474 0.0
C1268 C 0.22608 0.88926 0.37946 0.0
C1269 C 0.22958 0.90786 0.34821 0.0
C1270 C 0.21393 0.90221 0.30221 0.0
C1271 C 0.22946 0.9236 0.38706 0.0
C1272 C 0.25053 0.91504 0.32523 0.0
C1273 C 0.25772 0.90247 0.34108 0.0
C1274 C 0.27663 0.9059 0.32449 0.0
C1275 C 0.28842 0.92246 0.29035 0.0
C1276 C 0.28131 0.93546 0.27304 0.0
C1277 C 0.26212 0.93168 0.29121 0.0
H1278 H 0.27442 0.4228 0.40947 0.0
H1279 H 0.24887 0.3584 0.43459 0.0
H1280 H 0.22152 0.35161 0.37005 0.0
H1281 H 0.22684 0.4221 0.39762 0.0
H1282 H 0.23565 0.44099 0.34462 0.0
H1283 H 0.25321 0.44105 0.39384 0.0
H1284 H 0.27519 0.43967 0.31508 0.0
H1285 H 0.2577 0.43959 0.26566 0.0
H1286 H 0.26386 0.41975 0.26504 0.0
H1287 H 0.1969 0.35144 0.30324 0.0
H1288 H 0.17687 0.35801 0.23607 0.0
H1289 H 0.21833 0.42242 0.25159 0.0
C1290 C 0.26304 0.40728 0.40151 0.0
C1291 C 0.26385 0.39115 0.42723 0.0
C1292 C 0.24868 0.37105 0.4154 0.0
C1293 C 0.23302 0.367 0.37882 0.0
C1294 C 0.23269 0.38318 0.35404 0.0
C1295 C 0.24729 0.40292 0.36462 0.0
C1296 C 0.24349 0.41744 0.33144 0.0
C1297 C 0.23956 0.4312 0.36914 0.0
C1298 C 0.26111 0.42984 0.29196 0.0
C1299 C 0.22451 0.40274 0.30067 0.0
C1300 C 0.21852 0.38307 0.31462 0.0
C1301 C 0.20142 0.36679 0.29194 0.0
C1302 C 0.19012 0.37069 0.25386 0.0
C1303 C 0.19598 0.39072 0.2385 0.0
C1304 C 0.21345 0.40693 0.26236 0.0
H1305 H 0.21437 0.41676 0.9083 0.0
H1306 H 0.16818 0.35346 0.91447 0.0
H1307 H 0.18865 0.34525 0.85291 0.0
H1308 H 0.22776 0.41747 0.76557 0.0
H1309 H 0.25429 0.43457 0.77693 0.0
H1310 H 0.2358 0.4355 0.82069 0.0
H1311 H 0.25316 0.43065 0.90563 0.0
H1312 H 0.27165 0.42961 0.86212 0.0
H1313 H 0.25688 0.40921 0.90877 0.0
H1314 H 0.21452 0.34375 0.79206 0.0
H1315 H 0.24329 0.34927 0.73389 0.0
H1316 H 0.27261 0.41353 0.76691 0.0
C1317 C 0.20844 0.40118 0.89634 0.0
C1318 C 0.18957 0.38577 0.91617 0.0
C1319 C 0.18252 0.36557 0.89978 0.0
C1320 C 0.19407 0.36073 0.86486 0.0
C1321 C 0.21267 0.37624 0.84653 0.0
C1322 C 0.21978 0.39608 0.86145 0.0
C1323 C 0.24033 0.40988 0.83626 0.0
C1324 C 0.23949 0.42526 0.79756 0.0
C1325 C 0.25646 0.42046 0.88086 0.0
C1326 C 0.24367 0.3947 0.80486 0.0
C1327 C 0.22756 0.37538 0.81144 0.0
C1328 C 0.22721 0.35882 0.78655 0.0
C1329 C 0.24367 0.36211 0.75367 0.0
C1330 C 0.26027 0.38181 0.74579 0.0
C1331 C 0.2602 0.39826 0.77206 0.0
H1332 H 0.74372 0.89746 0.97215 0.0
H1333 H 0.72145 0.84222 0.87903 0.0
H1334 H 0.71682 0.85904 0.79813 0.0
H1335 H 0.71234 0.91523 0.91388 0.0
H1336 H 0.73212 0.94128 0.91194 0.0
H1337 H 0.7326 0.92459 0.96307 0.0
H1338 H 0.76847 0.9334 0.93141 0.0
H1339 H 0.76812 0.95017 0.88033 0.0
H1340 H 0.77274 0.93016 0.8605 0.0
H1341 H 0.71288 0.88155 0.72943 0.0
H1342 H 0.71449 0.90923 0.67347 0.0
H1343 H 0.74319 0.95087 0.80799 0.0
C1344 C 0.73776 0.88894 0.93471 0.0
C1345 C 0.73261 0.86852 0.93165 0.0
C1346 C 0.72533 0.85787 0.88191 0.0
C1347 C 0.72261 0.86727 0.836 0.0
C1348 C 0.72774 0.88745 0.8403 0.0
C1349 C 0.73556 0.89828 0.88805 0.0
C1350 C 0.74114 0.92013 0.88084 0.0
C1351 C 0.72881 0.92562 0.91975 0.0
C1352 C 0.76397 0.9343 0.88873 0.0
C1353 C 0.73501 0.91986 0.82178 0.0
C1354 C 0.72697 0.90078 0.79945 0.0
C1355 C 0.71938 0.89659 0.74627 0.0
C1356 C 0.72027 0.91237 0.7149 0.0
C1357 C 0.72912 0.93215 0.73634 0.0
C1358 C 0.73658 0.93591 0.79045 0.0
H1359 H 0.26146 0.95376 0.86264 0.0
H1360 H 0.26171 0.91681 0.99675 0.0
H1361 H 0.23778 0.88606 0.94589 0.0
H1362 H 0.20827 0.92328 0.83376 0.0
H1363 H 0.21135 0.92716 0.76083 0.0
H1364 H 0.22909 0.94618 0.80673 0.0
H1365 H 0.2586 0.94492 0.75828 0.0
H1366 H 0.24095 0.92592 0.71218 0.0
H1367 H 0.25793 0.92114 0.75204 0.0
H1368 H 0.21505 0.85943 0.87868 0.0
H1369 H 0.19284 0.83872 0.80324 0.0
H1370 H 0.20514 0.89305 0.71619 0.0
C1371 C 0.25659 0.93918 0.88107 0.0
C1372 C 0.26357 0.93758 0.9333 0.0
C1373 C 0.25655 0.9183 0.95667 0.0
C1374 C 0.24302 0.90078 0.92808 0.0
C1375 C 0.23639 0.90287 0.87665 0.0
C1376 C 0.24274 0.92157 0.85362 0.0
C1377 C 0.2327 0.91967 0.79874 0.0
C1378 C 0.21957 0.92966 0.80013 0.0
C1379 C 0.24849 0.92843 0.75259 0.0
C1380 C 0.21985 0.89695 0.79422 0.0
C1381 C 0.22238 0.88755 0.83933 0.0
C1382 C 0.21278 0.86662 0.84346 0.0
C1383 C 0.20025 0.855 0.8004 0.0
C1384 C 0.19715 0.86431 0.75429 0.0
C1385 C 0.207 0.88556 0.75141 0.0
H1386 H 0.3803 0.24754 0.76232 0.0
H1387 H 0.44374 0.28115 0.80765 0.0
H1388 H 0.45061 0.25941 0.7483 0.0
H1389 H 0.37668 0.19812 0.75556 0.0
H1390 H 0.36007 0.18992 0.69717 0.0
H1391 H 0.35969 0.20769 0.7448 0.0
H1392 H 0.36649 0.23269 0.66537 0.0
H1393 H 0.36691 0.215 0.61755 0.0
H1394 H 0.38818 0.24025 0.62187 0.0
H1395 H 0.45135 0.23548 0.68137 0.0
H1396 H 0.44565 0.20998 0.61151 0.0
H1397 H 0.38171 0.19081 0.6094 0.0
C1398 C 0.39559 0.25022 0.76005 0.0
C1399 C 0.41146 0.26615 0.78976 0.0
C1400 C 0.43129 0.26915 0.78538 0.0
C1401 C 0.43538 0.25683 0.75176 0.0
C1402 C 0.41951 0.24144 0.72276 0.0
C1403 C 0.39999 0.23797 0.72657 0.0
C1404 C 0.38587 0.22054 0.68991 0.0
C1405 C 0.36962 0.20303 0.7239 0.0
C1406 C 0.3763 0.22755 0.64608 0.0
C1407 C 0.40059 0.21497 0.66465 0.0
C1408 C 0.4199 0.22726 0.68433 0.0
C1409 C 0.43627 0.22563 0.66595 0.0
C1410 C 0.43286 0.2111 0.62616 0.0
C1411 C 0.41323 0.19828 0.60522 0.0
C1412 C 0.39686 0.2002 0.62513 0.0
H1413 H 0.88603 0.19751 0.74435 0.0
H1414 H 0.83838 0.2127 0.74243 0.0
H1415 H 0.85813 0.24024 0.67759 0.0
H1416 H 0.92736 0.24828 0.73962 0.0
H1417 H 0.94286 0.24274 0.69544 0.0
H1418 H 0.92475 0.22355 0.74039 0.0
H1419 H 0.90826 0.19971 0.6577 0.0
H1420 H 0.92637 0.2188 0.61251 0.0
H1421 H 0.89971 0.20817 0.60018 0.0
H1422 H 0.88305 0.26663 0.61489 0.0
H1423 H 0.91153 0.29001 0.5567 0.0
H1424 H 0.9436 0.25837 0.59826 0.0
C1425 C 0.87967 0.20649 0.72985 0.0
C1426 C 0.86057 0.20282 0.74855 0.0
C1427 C 0.85293 0.21512 0.72889 0.0
C1428 C 0.86404 0.23085 0.69196 0.0
C1429 C 0.88285 0.2342 0.67484 0.0
C1430 C 0.89063 0.22238 0.69289 0.0
C1431 C 0.91144 0.22955 0.66855 0.0
C1432 C 0.92755 0.23644 0.7137 0.0
C1433 C 0.91144 0.21307 0.63259 0.0
C1434 C 0.91411 0.24727 0.63429 0.0
C1435 C 0.89739 0.24962 0.63857 0.0
C1436 C 0.89623 0.26493 0.61113 0.0
C1437 C 0.91255 0.27819 0.57821 0.0
C1438 C 0.92989 0.27613 0.57288 0.0
C1439 C 0.9306 0.2604 0.60147 0.0
H1440 H 0.91627 0.71073 0.75054 0.0
H1441 H 0.94826 0.77427 0.79385 0.0
H1442 H 0.92546 0.77982 0.7346 0.0
H1443 H 0.90818 0.71757 0.60987 0.0
H1444 H 0.88332 0.6956 0.6065 0.0
H1445 H 0.90168 0.6963 0.65393 0.0
H1446 H 0.87665 0.68877 0.734 0.0
H1447 H 0.85822 0.68806 0.68679 0.0
H1448 H 0.86604 0.70487 0.74471 0.0
H1449 H 0.90014 0.77894 0.66906 0.0
H1450 H 0.87385 0.77174 0.60034 0.0
H1451 H 0.85778 0.70873 0.5987 0.0
C1452 C 0.9184 0.72579 0.74779 0.0
C1453 C 0.9341 0.74207 0.7769 0.0
C1454 C 0.93642 0.76156 0.77192 0.0
C1455 C 0.9235 0.76487 0.73844 0.0
C1456 C 0.90828 0.74856 0.71015 0.0
C1457 C 0.90563 0.7294 0.71437 0.0
C1458 C 0.88833 0.71464 0.67839 0.0
C1459 C 0.89583 0.70549 0.63458 0.0
C1460 C 0.8713 0.69811 0.71306 0.0
C1461 C 0.88181 0.72856 0.65305 0.0
C1462 C 0.89352 0.74804 0.67217 0.0
C1463 C 0.89079 0.76373 0.65396 0.0
C1464 C 0.87581 0.75947 0.61482 0.0
C1465 C 0.86366 0.73966 0.59417 0.0
C1466 C 0.86666 0.72399 0.61402 0.0
H1467 H 0.88821 0.75471 0.24867 0.0
H1468 H 0.85516 0.69126 0.29286 0.0
H1469 H 0.87757 0.68503 0.234 0.0
H1470 H 0.89614 0.74735 0.10833 0.0
H1471 H 0.92125 0.76892 0.10453 0.0
H1472 H 0.90318 0.76883 0.15203 0.0
H1473 H 0.9281 0.77594 0.23192 0.0
H1474 H 0.94626 0.77606 0.18461 0.0
H1475 H 0.93814 0.75936 0.2428 0.0
H1476 H 0.90228 0.68503 0.1678 0.0
H1477 H 0.92817 0.69138 0.09839 0.0
H1478 H 0.94608 0.75487 0.09655 0.0
C1479 C 0.88579 0.73954 0.24628 0.0
C1480 C 0.86985 0.72348 0.27555 0.0
C1481 C 0.86718 0.70384 0.27095 0.0
C1482 C 0.87988 0.70012 0.23762 0.0
C1483 C 0.8953 0.71619 0.20908 0.0
C1484 C 0.89839 0.73552 0.21304 0.0
C1485 C 0.91585 0.74993 0.17673 0.0
C1486 C 0.90867 0.7593 0.1328 0.0
C1487 C 0.93311 0.76629 0.21108 0.0
C1488 C 0.9219 0.73559 0.15149 0.0
C1489 C 0.90982 0.71622 0.17093 0.0
C1490 C 0.91194 0.70017 0.15257 0.0
C1491 C 0.92671 0.70394 0.11304 0.0
C1492 C 0.93929 0.72364 0.0922 0.0
C1493 C 0.9369 0.73969 0.11215 0.0
H1494 H 0.42429 0.2198 0.26384 0.0
H1495 H 0.36043 0.18611 0.30467 0.0
H1496 H 0.35434 0.20846 0.24506 0.0
H1497 H 0.42865 0.26913 0.25883 0.0
H1498 H 0.44586 0.27767 0.20162 0.0
H1499 H 0.44542 0.25927 0.24837 0.0
H1500 H 0.43902 0.23491 0.1675 0.0
H1501 H 0.43946 0.25324 0.12052 0.0
H1502 H 0.41787 0.22813 0.12261 0.0
H1503 H 0.35485 0.23383 0.17976 0.0
H1504 H 0.36191 0.26049 0.11236 0.0
H1505 H 0.42546 0.27811 0.11347 0.0
C1506 C 0.40904 0.21716 0.26041 0.0
C1507 C 0.39283 0.20115 0.28901 0.0
C1508 C 0.3731 0.19821 0.28317 0.0
C1509 C 0.36947 0.21086 0.24945 0.0
C1510 C 0.38572 0.22644 0.22176 0.0
C1511 C 0.40512 0.22966 0.22678 0.0
C1512 C 0.41982 0.24732 0.19169 0.0
C1513 C 0.43588 0.26435 0.22726 0.0
C1514 C 0.42962 0.24049 0.14799 0.0
C1515 C 0.40562 0.25344 0.16605 0.0
C1516 C 0.38603 0.2412 0.1841 0.0
C1517 C 0.37014 0.24358 0.16549 0.0
C1518 C 0.37432 0.25879 0.12714 0.0
C1519 C 0.39425 0.2715 0.1077 0.0
C1520 C 0.4101 0.2688 0.12785 0.0
H1521 H 0.92514 0.27882 0.24382 0.0
H1522 H 0.96461 0.25363 0.26222 0.0
H1523 H 0.94434 0.22742 0.1942 0.0
H1524 H 0.87904 0.23154 0.23122 0.0
H1525 H 0.86809 0.24056 0.18129 0.0
H1526 H 0.88604 0.25778 0.23024 0.0
H1527 H 0.90834 0.28063 0.1512 0.0
H1528 H 0.89047 0.26347 0.10198 0.0
H1529 H 0.91661 0.27003 0.09814 0.0
H1530 H 0.91987 0.20386 0.12503 0.0
H1531 H 0.89224 0.1838 0.06073 0.0
H1532 H 0.86798 0.22371 0.08742 0.0
C1533 C 0.9296 0.26786 0.23335 0.0
C1534 C 0.94657 0.26837 0.25827 0.0
C1535 C 0.95175 0.25362 0.24369 0.0
C1536 C 0.94033 0.23867 0.20502 0.0
C1537 C 0.92372 0.23859 0.18133 0.0
C1538 C 0.91831 0.25275 0.19496 0.0
C1539 C 0.89948 0.24896 0.16423 0.0
C1540 C 0.88214 0.24444 0.20413 0.0
C1541 C 0.904 0.26684 0.12665 0.0
C1542 C 0.89513 0.23042 0.13131 0.0
C1543 C 0.90938 0.22479 0.14171 0.0
C1544 C 0.90862 0.20812 0.11654 0.0
C1545 C 0.89281 0.19681 0.08 0.0
C1546 C 0.87784 0.2021 0.06891 0.0
C1547 C 0.87914 0.21924 0.0949 0.0
H1548 H 0.10414 0.70899 0.29598 0.0
H1549 H 0.07384 0.66451 0.42401 0.0
H1550 H 0.08795 0.69141 0.49337 0.0
H1551 H 0.14951 0.74195 0.37108 0.0
H1552 H 0.15168 0.76492 0.34467 0.0
H1553 H 0.13964 0.74219 0.3043 0.0
H1554 H 0.10753 0.74528 0.29632 0.0
H1555 H 0.11947 0.76804 0.33659 0.0
H1556 H 0.09545 0.7472 0.35762 0.0
H1557 H 0.10589 0.72234 0.54913 0.0
H1558 H 0.12454 0.75625 0.58885 0.0
H1559 H 0.14203 0.78203 0.42595 0.0
C1560 C 0.10053 0.70497 0.33864 0.0
C1561 C 0.08789 0.68462 0.35459 0.0
C1562 C 0.08335 0.67997 0.41075 0.0
C1563 C 0.09137 0.69514 0.45053 0.0
C1564 C 0.10372 0.71499 0.4336 0.0
C1565 C 0.10812 0.72005 0.37908 0.0
C1566 C 0.12126 0.74277 0.37236 0.0
C1567 C 0.14174 0.74828 0.34658 0.0
C1568 C 0.11027 0.75132 0.33873 0.0
C1569 C 0.12366 0.74957 0.43169 0.0
C1570 C 0.11354 0.73319 0.46611 0.0
C1571 C 0.11378 0.73532 0.52264 0.0
C1572 C 0.12452 0.75473 0.54481 0.0
C1573 C 0.13477 0.77193 0.51066 0.0
C1574 C 0.13428 0.76924 0.45318 0.0
H1575 H 0.42207 0.45803 0.2999 0.0
H1576 H 0.46304 0.50091 0.41898 0.0
H1577 H 0.43486 0.49031 0.4843 0.0
H1578 H 0.37682 0.46148 0.33635 0.0
H1579 H 0.35981 0.43479 0.32808 0.0
H1580 H 0.38263 0.44735 0.28788 0.0
H1581 H 0.39316 0.42206 0.32318 0.0
H1582 H 0.37046 0.40951 0.36367 0.0
H1583 H 0.39476 0.41906 0.39584 0.0
H1584 H 0.40323 0.47396 0.5386 0.0
H1585 H 0.37013 0.45189 0.58078 0.0
H1586 H 0.34911 0.41803 0.429 0.0
C1587 C 0.42487 0.46545 0.33929 0.0
C1588 C 0.44456 0.48053 0.35435 0.0
C1589 C 0.44797 0.48951 0.40671 0.0
C1590 C 0.43207 0.4836 0.44398 0.0
C1591 C 0.41286 0.46849 0.42852 0.0
C1592 C 0.40914 0.45942 0.3776 0.0
C1593 C 0.38738 0.44236 0.37347 0.0
C1594 C 0.37598 0.44676 0.32879 0.0
C1595 C 0.38639 0.42205 0.36345 0.0
C1596 C 0.37961 0.44317 0.43012 0.0
C1597 C 0.39455 0.45852 0.46083 0.0
C1598 C 0.39134 0.46196 0.51488 0.0
C1599 C 0.37243 0.44928 0.53851 0.0
C1600 C 0.35686 0.43317 0.50837 0.0
C1601 C 0.36056 0.43027 0.45315 0.0
H1602 H 0.69915 0.00452 0.52834 0.0
H1603 H 0.73505 0.99776 0.40123 0.0
H1604 H 0.72171 0.01199 0.33367 0.0
H1605 H 0.65547 0.99274 0.44551 0.0
H1606 H 0.65107 0.0115 0.47694 0.0
H1607 H 0.66292 1.00019 0.51549 0.0
H1608 H 0.69333 0.03562 0.53599 0.0
H1609 H 0.68161 0.04705 0.4974 0.0
H1610 H 0.70673 0.05239 0.48004 0.0
H1611 H 0.70422 0.02607 0.27958 0.0
H1612 H 0.68494 0.04108 0.2421 0.0
H1613 H 0.66144 0.04089 0.40416 0.0
C1614 C 0.70409 0.00594 0.48621 0.0
C1615 C 0.71809 0.99994 0.46997 0.0
C1616 C 0.7244 0.00229 0.41463 0.0
C1617 C 0.71687 0.01031 0.37592 0.0
C1618 C 0.70321 0.01617 0.39322 0.0
C1619 C 0.69697 0.01428 0.44704 0.0
C1620 C 0.68264 0.02243 0.4548 0.0
C1621 C 0.66179 0.00572 0.47433 0.0
C1622 C 0.69162 0.04044 0.49441 0.0
C1623 C 0.68172 0.02903 0.39681 0.0
C1624 C 0.6936 0.02509 0.36206 0.0
C1625 C 0.69494 0.02932 0.30638 0.0
C1626 C 0.68385 0.03781 0.28548 0.0
C1627 C 0.67169 0.04224 0.32015 0.0
C1628 C 0.67072 0.03785 0.37671 0.0
H1629 H 0.68561 0.09162 0.08837 0.0
H1630 H 0.70792 0.11903 0.24765 0.0
H1631 H 0.74245 0.13748 0.21088 0.0
H1632 H 0.72663 0.08481 0.05375 0.0
H1633 H 0.72729 0.09106 0.98239 0.0
H1634 H 0.70391 0.08063 0.01995 0.0
H1635 H 0.70013 0.11129 0.99305 0.0
H1636 H 0.72344 0.12175 0.95503 0.0
H1637 H 0.72036 0.13644 0.00782 0.0
H1638 H 0.77502 0.15052 0.15998 0.0
H1639 H 0.80315 0.16026 0.09474 0.0
H1640 H 0.76009 0.12643 0.96668 0.0
C1641 C 0.69768 0.10176 0.11531 0.0
C1642 C 0.69389 0.10374 0.1711 0.0
C1643 C 0.71026 0.11713 0.20486 0.0
C1644 C 0.73003 0.12771 0.18439 0.0
C1645 C 0.73328 0.12502 0.12978 0.0
C1646 C 0.71756 0.11267 0.09536 0.0
C1647 C 0.72535 0.11237 0.03838 0.0
C1648 C 0.72051 0.09095 0.02271 0.0
C1649 C 0.71681 0.12098 0.99607 0.0
C1650 C 0.74788 0.12628 0.04647 0.0
C1651 C 0.75211 0.13325 0.09968 0.0
C1652 C 0.77189 0.14541 0.11797 0.0
C1653 C 0.78777 0.15077 0.08076 0.0
C1654 C 0.78379 0.14424 0.02568 0.0
C1655 C 0.76355 0.13188 0.0084 0.0
H1656 H 0.99608 0.70945 0.06981 0.0
H1657 H 0.00442 0.69358 0.90521 0.0
H1658 H 0.02194 0.67649 0.94264 0.0
H1659 H 0.04314 0.71886 0.1254 0.0
H1660 H 0.03284 0.70765 0.191 0.0
H1661 H 0.02098 0.71868 0.15141 0.0
H1662 H 0.98696 0.68499 0.15526 0.0
H1663 H 0.99871 0.67387 0.19505 0.0
H1664 H 0.98589 0.66211 0.13221 0.0
H1665 H 0.04067 0.66325 0.9976 0.0
H1666 H 0.0559 0.65135 0.06685 0.0
H1667 H 0.03293 0.67322 0.1962 0.0
C1668 C 1.00156 0.70233 0.04168 0.0
C1669 C 0.999 0.70295 0.98452 0.0
C1670 C 0.00617 0.69326 0.9491 0.0
C1671 C 0.01621 0.68359 0.96997 0.0
C1672 C 0.01865 0.68341 0.02645 0.0
C1673 C 0.01123 0.69222 0.06191 0.0
C1674 C 0.01539 0.6894 0.12098 0.0
C1675 C 0.02889 0.70986 0.14882 0.0
C1676 C 0.99555 0.67684 0.15274 0.0
C1677 C 0.02652 0.67785 0.11317 0.0
C1678 C 0.02846 0.67478 0.05828 0.0
C1679 C 0.03903 0.66534 0.04071 0.0
C1680 C 0.0477 0.65873 0.08026 0.0
C1681 C 0.04545 0.66125 0.13674 0.0
C1682 C 0.03465 0.67088 0.15328 0.0
H1683 H 0.42025 0.35287 0.09549 0.0
H1684 H 0.44848 0.3774 0.93816 0.0
H1685 H 0.46704 0.41121 0.97835 0.0
H1686 H 0.41462 0.39481 0.13712 0.0
H1687 H 0.42072 0.39397 0.20795 0.0
H1688 H 0.4095 0.37126 0.16748 0.0
H1689 H 0.43932 0.36568 0.19155 0.0
H1690 H 0.45067 0.38842 0.23197 0.0
H1691 H 0.46483 0.38537 0.17748 0.0
H1692 H 0.48113 0.44243 0.03208 0.0
H1693 H 0.49144 0.46985 0.09918 0.0
H1694 H 0.45648 0.42621 0.22503 0.0
C1695 C 0.43035 0.36537 0.0696 0.0
C1696 C 0.43282 0.36237 0.0135 0.0
C1697 C 0.4463 0.37915 0.98116 0.0
C1698 C 0.45695 0.3985 1.0036 0.0
C1699 C 0.45422 0.40094 0.05873 0.0
C1700 C 0.44142 0.38491 0.09162 0.0
C1701 C 0.4415 0.392 0.14985 0.0
C1702 C 0.42032 0.38776 0.16657 0.0
C1703 C 0.44956 0.38229 0.19009 0.0
C1704 C 0.45614 0.4145 0.14404 0.0
C1705 C 0.46315 0.4192 0.09087 0.0
C1706 C 0.47596 0.43896 0.07401 0.0
C1707 C 0.4817 0.45441 0.11235 0.0
C1708 C 0.47489 0.45008 0.16718 0.0
C1709 C 0.46214 0.42983 0.18351 0.0
H1710 H 0.99655 0.3544 0.58104 0.0
H1711 H 0.99627 0.37936 0.42153 0.0
H1712 H 0.01257 0.41336 0.46136 0.0
H1713 H 0.98617 0.38918 0.66007 0.0
H1714 H 1.00238 0.39095 0.71585 0.0
H1715 H 0.98983 0.36822 0.67557 0.0
H1716 H 0.02435 0.37098 0.6546 0.0
H1717 H 0.037 0.39375 0.69462 0.0
H1718 H 0.04425 0.39379 0.62438 0.0
H1719 H 0.03162 0.44484 0.51536 0.0
H1720 H 0.04966 0.47196 0.583 0.0
H1721 H 0.03597 0.4273 0.70981 0.0
C1722 C 0.99967 0.36698 0.5546 0.0
C1723 C 0.99511 0.36408 0.49795 0.0
C1724 C 0.99954 0.38103 0.46494 0.0
C1725 C 0.00885 0.40048 0.48717 0.0
C1726 C 0.01343 0.40283 0.54273 0.0
C1727 C 0.00876 0.38657 0.57631 0.0
C1728 C 0.01557 0.39345 0.63467 0.0
C1729 C 0.9974 0.38494 0.67385 0.0
C1730 C 0.03122 0.38765 0.65314 0.0
C1731 C 0.0251 0.41613 0.62829 0.0
C1732 C 0.02378 0.42114 0.57472 0.0
C1733 C 0.03249 0.44111 0.5576 0.0
C1734 C 0.04279 0.4564 0.59623 0.0
C1735 C 0.04406 0.4517 0.65156 0.0
C1736 C 0.03494 0.43127 0.66789 0.0
H1737 H 0.71023 0.675 0.71161 0.0
H1738 H 0.66495 0.65508 0.58357 0.0
H1739 H 0.69176 0.66692 0.51355 0.0
H1740 H 0.74655 0.72076 0.64202 0.0
H1741 H 0.76826 0.71966 0.66599 0.0
H1742 H 0.74551 0.70886 0.70652 0.0
H1743 H 0.74448 0.67455 0.7073 0.0
H1744 H 0.76721 0.68523 0.66673 0.0
H1745 H 0.74479 0.66297 0.64334 0.0
H1746 H 0.72302 0.67961 0.45742 0.0
H1747 H 0.75724 0.69541 0.41782 0.0
H1748 H 0.78308 0.7099 0.58094 0.0
C1749 C 0.70602 0.67311 0.6688 0.0
C1750 C 0.68549 0.66405 0.65295 0.0
C1751 C 0.68056 0.66205 0.5966 0.0
C1752 C 0.69568 0.66865 0.55653 0.0
C1753 C 0.71573 0.67754 0.57335 0.0
C1754 C 0.72101 0.68007 0.62805 0.0
C1755 C 0.74383 0.69097 0.63466 0.0
C1756 C 0.75148 0.71127 0.66404 0.0
C1757 C 0.75046 0.67763 0.66479 0.0
C1758 C 0.75049 0.694 0.57516 0.0
C1759 C 0.73397 0.68588 0.54063 0.0
C1760 C 0.73609 0.68617 0.48399 0.0
C1761 C 0.75561 0.69512 0.46189 0.0
C1762 C 0.77285 0.70398 0.49621 0.0
C1763 C 0.77019 0.70343 0.55367 0.0
H1764 H 0.42545 0.13792 0.58243 0.0
H1765 H 0.44997 0.13993 0.42065 0.0
H1766 H 0.46848 0.12377 0.45715 0.0
H1767 H 0.47112 0.14881 0.65771 0.0
H1768 H 0.45727 0.1322 0.7135 0.0
H1769 H 0.4463 0.1444 0.67503 0.0
H1770 H 0.41494 0.10963 0.65405 0.0
H1771 H 0.4258 0.09733 0.69242 0.0
H1772 H 0.41832 0.09028 0.62229 0.0
H1773 H 0.48201 0.10484 0.50936 0.0
H1774 H 0.49179 0.0868 0.57542 0.0
H1775 H 0.46059 0.09913 0.70473 0.0
C1776 C 0.43481 0.13509 0.55469 0.0
C1777 C 0.43617 0.14015 0.49852 0.0
C1778 C 0.44869 0.13626 0.46379 0.0
C1779 C 0.45925 0.12705 0.48414 0.0
C1780 C 0.45742 0.12208 0.53951 0.0
C1781 C 0.44573 0.12619 0.57449 0.0
C1782 C 0.44631 0.11926 0.63229 0.0
C1783 C 0.45582 0.13724 0.67197 0.0
C1784 C 0.42508 0.10317 0.65136 0.0
C1785 C 0.4599 0.11033 0.62414 0.0
C1786 C 0.46602 0.11199 0.57019 0.0
C1787 C 0.47758 0.10373 0.55186 0.0
C1788 C 0.48301 0.09347 0.58958 0.0
C1789 C 0.47715 0.09182 0.64516 0.0
C1790 C 0.46562 0.10055 0.66268 0.0
H1791 H 0.37741 0.00994 0.04875 0.0
H1792 H 0.33091 0.99142 0.92431 0.0
H1793 H 0.357 0.00402 0.85262 0.0
H1794 H 0.41408 0.05622 0.98005 0.0
H1795 H 0.43552 0.05406 1.00091 0.0
H1796 H 0.4132 0.04363 0.04316 0.0
H1797 H 0.41084 0.00872 0.03995 0.0
H1798 H 0.43312 0.01902 0.99763 0.0
H1799 H 0.41004 0.9974 0.97462 0.0
H1800 H 0.38762 0.01675 0.79386 0.0
H1801 H 0.42132 0.03119 0.75159 0.0
H1802 H 0.44878 0.04356 0.91278 0.0
C1803 C 0.37272 0.0086 0.00644 0.0
C1804 C 0.352 0.9996 0.99238 0.0
C1805 C 0.34659 0.99827 0.93642 0.0
C1806 C 0.36133 0.00535 0.89522 0.0
C1807 C 0.38152 0.01399 0.91041 0.0
C1808 C 0.38731 0.01588 0.9646 0.0
C1809 C 0.41015 0.02604 0.96945 0.0
C1810 C 0.41874 0.04619 1.00022 0.0
C1811 C 0.4164 0.01195 0.99704 0.0
C1812 C 0.41623 0.02934 0.90948 0.0
C1813 C 0.3994 0.02211 0.87625 0.0
C1814 C 0.40093 0.02264 0.81943 0.0
C1815 C 0.42016 0.03082 0.79579 0.0
C1816 C 0.43771 0.03863 0.82879 0.0
C1817 C 0.43566 0.03795 0.88648 0.0
H1818 H 0.0811 0.45002 0.85636 0.0
H1819 H 0.13515 0.50513 0.80834 0.0
H1820 H 0.15607 0.49437 0.85928 0.0
H1821 H 0.0966 0.44583 0.99087 0.0
H1822 H 0.08554 0.41882 0.98847 0.0
H1823 H 0.07482 0.43089 0.94847 0.0
H1824 H 0.07876 0.41428 0.86055 0.0
H1825 H 0.08943 0.40209 0.9003 0.0
H1826 H 0.10321 0.41775 0.84291 0.0
H1827 H 0.17083 0.4786 0.9212 0.0
H1828 H 0.17871 0.45722 0.98038 0.0
H1829 H 0.11545 0.41104 0.98133 0.0
C1830 C 0.09735 0.45978 0.85648 0.0
C1831 C 0.10652 0.47848 0.8286 0.0
C1832 C 0.12783 0.49073 0.82915 0.0
C1833 C 0.13982 0.48478 0.85821 0.0
C1834 C 0.13029 0.46633 0.88562 0.0
C1835 C 0.10956 0.45384 0.88416 0.0
C1836 C 0.10314 0.4345 0.91567 0.0
C1837 C 0.0892 0.4324 0.96372 0.0
C1838 C 0.09304 0.41607 0.87757 0.0
C1839 C 0.12347 0.43817 0.93573 0.0
C1840 C 0.13891 0.45674 0.91854 0.0
C1841 C 0.1589 0.46393 0.9343 0.0
C1842 C 0.16323 0.45176 0.96812 0.0
C1843 C 0.14772 0.43249 0.98497 0.0
C1844 C 0.12762 0.42561 0.96831 0.0
H1845 H 0.67344 0.71036 0.8111 0.0
H1846 H 0.65507 0.66588 0.94072 0.0
H1847 H 0.666 0.6929 0.00983 0.0
H1848 H 0.71861 0.74783 0.8794 0.0
H1849 H 0.71663 0.76885 0.85397 0.0
H1850 H 0.70644 0.74591 0.81474 0.0
H1851 H 0.67149 0.7437 0.81336 0.0
H1852 H 0.68155 0.76657 0.85294 0.0
H1853 H 0.65968 0.74391 0.87707 0.0
H1854 H 0.67828 0.72459 0.06484 0.0
H1855 H 0.69473 0.75907 0.10238 0.0
H1856 H 0.70719 0.78336 0.93727 0.0
C1857 C 0.67168 0.70635 0.85406 0.0
C1858 C 0.66334 0.68603 0.87064 0.0
C1859 C 0.66152 0.68136 0.92717 0.0
C1860 C 0.66755 0.69658 0.9667 0.0
C1861 C 0.67566 0.71645 0.94908 0.0
C1862 C 0.67806 0.72142 0.89414 0.0
C1863 C 0.68829 0.74407 0.88633 0.0
C1864 C 0.7087 0.75214 0.85687 0.0
C1865 C 0.67442 0.7499 0.8556 0.0
C1866 C 0.69117 0.75102 0.94542 0.0
C1867 C 0.68353 0.73482 0.9809 0.0
C1868 C 0.68439 0.73741 0.03746 0.0
C1869 C 0.6937 0.75709 0.0584 0.0
C1870 C 0.70232 0.77401 0.02291 0.0
C1871 C 0.70076 0.7708 0.96561 0.0
H1872 H 0.77447 0.04536 0.62958 0.0
H1873 H 0.74044 1.00133 0.75573 0.0
H1874 H 0.75234 0.02862 0.82409 0.0
H1875 H 0.8173 0.07821 0.7112 0.0
H1876 H 0.8205 0.10112 0.68117 0.0
H1877 H 0.80935 0.07817 0.64176 0.0
H1878 H 0.77782 0.08158 0.62375 0.0
H1879 H 0.78887 0.10456 0.66308 0.0
H1880 H 0.76422 0.08399 0.68083 0.0
H1881 H 0.76927 0.0601 0.87958 0.0
H1882 H 0.78817 0.09434 0.91828 0.0
H1883 H 0.80964 0.11881 0.75608 0.0
C1884 C 0.76952 0.04148 0.6716 0.0
C1885 C 0.75657 0.02118 0.68737 0.0
C1886 C 0.75027 0.01675 0.74264 0.0
C1887 C 0.757 0.03215 0.78181 0.0
C1888 C 0.76978 0.05195 0.76499 0.0
C1889 C 0.7758 0.05674 0.71116 0.0
C1890 C 0.7893 0.07935 0.70398 0.0
C1891 C 0.81036 0.08451 0.68331 0.0
C1892 C 0.77946 0.08787 0.66563 0.0
C1893 C 0.79016 0.08649 0.76239 0.0
C1894 C 0.77889 0.07035 0.79685 0.0
C1895 C 0.77797 0.07287 0.85297 0.0
C1896 C 0.78884 0.09238 0.87458 0.0
C1897 C 0.80028 0.10923 0.84015 0.0
C1898 C 0.8008 0.10623 0.7832 0.0
H1899 H 0.11697 0.80609 0.74462 0.0
H1900 H 0.09356 0.80975 0.58571 0.0
H1901 H 0.05956 0.79579 0.62571 0.0
H1902 H 0.07516 0.75975 0.78521 0.0
H1903 H 0.07587 0.76661 0.85608 0.0
H1904 H 0.09871 0.77808 0.81597 0.0
H1905 H 0.10446 0.81352 0.84006 0.0
H1906 H 0.08163 0.80214 0.88033 0.0
H1907 H 0.08484 0.8194 0.82597 0.0
H1908 H 0.02763 0.77858 0.68033 0.0
H1909 H 1.0001 0.76108 0.74757 0.0
H1910 H 0.044 0.77002 0.87275 0.0
C1911 C 0.10478 0.80423 0.71829 0.0
C1912 C 0.10806 0.80907 0.66183 0.0
C1913 C 0.09156 0.80625 0.62899 0.0
C1914 C 0.07214 0.7983 0.65136 0.0
C1915 C 0.0694 0.79343 0.70682 0.0
C1916 C 0.08528 0.79648 0.74005 0.0
C1917 C 0.07809 0.78945 0.79811 0.0
C1918 C 0.0822 0.77246 0.8148 0.0
C1919 C 0.08784 0.80719 0.8385 0.0
C1920 C 0.05562 0.78168 0.79208 0.0
C1921 C 0.05097 0.78408 0.73895 0.0
C1922 C 0.03112 0.77691 0.72223 0.0
C1923 C 0.01559 0.76694 0.76064 0.0
C1924 C 0.01996 0.76442 0.8154 0.0
C1925 C 0.04028 0.77212 0.83143 0.0
H1926 H 0.32927 0.37494 0.75013 0.0
H1927 H 0.34409 0.36384 0.58682 0.0
H1928 H 0.36265 0.34843 0.62636 0.0
H1929 H 0.37667 0.38666 0.81401 0.0
H1930 H 0.36519 0.37391 0.8772 0.0
H1931 H 0.35324 0.38459 0.83652 0.0
H1932 H 0.32037 0.34983 0.83345 0.0
H1933 H 0.33226 0.33906 0.87405 0.0
H1934 H 0.32133 0.32815 0.80871 0.0
H1935 H 0.38016 0.33473 0.68223 0.0
H1936 H 0.39437 0.32212 0.75189 0.0
H1937 H 0.36747 0.34043 0.88005 0.0
C1938 C 0.33648 0.36933 0.72275 0.0
C1939 C 0.33518 0.3707 0.66521 0.0
C1940 C 0.34474 0.36299 0.63092 0.0
C1941 C 0.3554 0.35421 0.65298 0.0
C1942 C 0.35634 0.35303 0.70958 0.0
C1943 C 0.34707 0.36023 0.74416 0.0
C1944 C 0.35015 0.35658 0.80359 0.0
C1945 C 0.36202 0.37663 0.83466 0.0
C1946 C 0.32981 0.34257 0.83159 0.0
C1947 C 0.36259 0.34626 0.79674 0.0
C1948 C 0.36608 0.34453 0.74211 0.0
C1949 C 0.37748 0.33591 0.7252 0.0
C1950 C 0.38553 0.32882 0.76515 0.0
C1951 C 0.38203 0.33019 0.82154 0.0
C1952 C 0.37033 0.33901 0.83732 0.0
H1953 H 0.02027 0.32936 0.26466 0.0
H1954 H 0.04621 0.34398 0.42769 0.0
H1955 H 0.08036 0.3626 0.38751 0.0
H1956 H 0.05948 0.32142 0.20559 0.0
H1957 H 0.05889 0.33199 0.14021 0.0
H1958 H 0.03644 0.31989 0.18183 0.0
H1959 H 0.0338 0.3523 0.17822 0.0
H1960 H 0.05634 0.36454 0.13696 0.0
H1961 H 0.05494 0.37594 0.20015 0.0
H1962 H 0.11163 0.38128 0.32975 0.0
H1963 H 0.13814 0.39529 0.25869 0.0
H1964 H 0.09231 0.36686 0.13291 0.0
C1965 C 0.03314 0.3364 0.29192 0.0
C1966 C 0.0305 0.33525 0.34944 0.0
C1967 C 0.04778 0.34455 0.38359 0.0
C1968 C 0.06727 0.35527 0.36113 0.0
C1969 C 0.06932 0.35634 0.30437 0.0
C1970 C 0.05276 0.34688 0.27018 0.0
C1971 C 0.05923 0.34989 0.21056 0.0
C1972 C 0.05315 0.32959 0.18293 0.0
C1973 C 0.05056 0.36135 0.17966 0.0
C1974 C 0.08198 0.36266 0.21662 0.0
C1975 C 0.08744 0.36641 0.27108 0.0
C1976 C 0.10754 0.37831 0.28699 0.0
C1977 C 0.12249 0.38632 0.24626 0.0
C1978 C 0.11734 0.38218 0.19019 0.0
C1979 C 0.09675 0.37023 0.17539 0.0
H1980 H 0.79525 0.76687 0.36659 0.0
H1981 H 0.81844 0.74544 0.23646 0.0
H1982 H 0.80793 0.76217 0.1682 0.0
H1983 H 0.75122 0.75931 0.29334 0.0
H1984 H 0.75181 0.78133 0.32158 0.0
H1985 H 0.76183 0.76832 0.36027 0.0
H1986 H 0.79612 0.80152 0.36898 0.0
H1987 H 0.78623 0.81465 0.33017 0.0
H1988 H 0.809 0.81519 0.30804 0.0
H1989 H 0.79527 0.7816 0.1142 0.0
H1990 H 0.77903 0.79996 0.07759 0.0
H1991 H 0.76273 0.80752 0.24272 0.0
C1992 C 0.79821 0.76576 0.32375 0.0
C1993 C 0.80778 0.75492 0.30688 0.0
C1994 C 0.81111 0.75362 0.25036 0.0
C1995 C 0.80527 0.76315 0.2113 0.0
C1996 C 0.79593 0.77375 0.22933 0.0
C1997 C 0.79221 0.77492 0.28416 0.0
C1998 C 0.78117 0.78655 0.29254 0.0
C1999 C 0.76027 0.77307 0.31846 0.0
C2000 C 0.79389 0.80561 0.32697 0.0
C2001 C 0.77934 0.79181 0.23385 0.0
C2002 C 0.7881 0.78443 0.19809 0.0
C2003 C 0.78832 0.7874 0.14181 0.0
C2004 C 0.77907 0.79792 0.12142 0.0
C2005 C 0.76953 0.80522 0.15714 0.0
C2006 C 0.76987 0.80219 0.21419 0.0
H2007 H 0.33527 0.01935 0.26329 0.0
H2008 H 0.32076 0.04 0.11362 0.0
H2009 H 0.33458 0.07387 0.15307 0.0
H2010 H 0.32273 0.04924 0.35609 0.0
H2011 H 0.343 0.05447 0.40282 0.0
H2012 H 0.33145 0.03144 0.36366 0.0
H2013 H 0.36651 0.04024 0.32511 0.0
H2014 H 0.37815 0.06328 0.36409 0.0
H2015 H 0.38174 0.06405 0.29104 0.0
H2016 H 0.35254 0.10615 0.20447 0.0
H2017 H 0.3711 0.13445 0.26879 0.0
H2018 H 0.37194 0.09315 0.38862 0.0
C2019 C 0.33485 0.03095 0.23901 0.0
C2020 C 0.32692 0.02691 0.18517 0.0
C2021 C 0.32665 0.04257 0.15491 0.0
C2022 C 0.33452 0.06194 0.17693 0.0
C2023 C 0.34237 0.06547 0.22969 0.0
C2024 C 0.34237 0.0504 0.26076 0.0
C2025 C 0.35181 0.05839 0.31647 0.0
C2026 C 0.33632 0.04775 0.36248 0.0
C2027 C 0.37067 0.05637 0.32463 0.0
C2028 C 0.35739 0.08034 0.31133 0.0
C2029 C 0.35192 0.08406 0.26067 0.0
C2030 C 0.3566 0.10338 0.24461 0.0
C2031 C 0.36718 0.11935 0.28126 0.0
C2032 C 0.37266 0.11588 0.33367 0.0
C2033 C 0.36753 0.09608 0.34911 0.0
loop_
_geom_bond_atom_site_label_1
_geom_bond_atom_site_label_2
_geom_bond_distance
_geom_bond_site_symmetry_2
_ccdc_geom_bond_type
Co0 O2 2.143 . S
Co0 O8 2.074 . S
Co0 O11 2.093 . S
Co0 O24 2.097 . S
Co0 N41 2.151 . S
Co0 N49 2.214 . S
Co1 O2 2.160 . S
Co1 O7 2.058 . S
Co1 O17 2.057 . S
Co1 O32 2.037 . S
Co1 N36 2.145 . S
Co1 N57 2.257 . S
O2 Co0 2.143 . S
O2 Co1 2.160 . S
C3 O4 1.278 . S
C3 O11 1.224 . S
O4 C3 1.278 . S
C5 O6 1.245 . S
C5 O17 1.232 . S
O6 C5 1.245 . S
O7 Co1 2.058 . S
O7 C33 1.269 . S
O8 Co0 2.074 . S
O8 C33 1.257 . S
H9 C34 0.930 . S
H10 C40 0.930 . S
O11 Co0 2.093 . S
O11 C3 1.224 . S
H12 C44 0.929 . S
H13 C46 0.930 . S
H14 C47 0.930 . S
H15 C45 0.929 . S
H16 C48 0.928 . S
O17 Co1 2.057 . S
O17 C5 1.232 . S
H18 C37 0.929 . S
H19 C38 0.929 . S
H20 C50 0.931 . S
H21 C42 0.929 . S
H22 C51 0.930 . S
H23 C43 0.931 . S
O24 Co0 2.097 . S
O24 C52 1.214 . S
H25 C53 0.929 . S
H26 C54 0.929 . S
H27 C55 0.930 . S
H28 C56 0.929 . S
H29 C58 0.930 . S
H30 C35 0.930 . S
H31 C39 0.897 1_655 S
O32 Co1 2.037 . S
O32 C52 1.234 . S
C33 O7 1.269 . S
C33 O8 1.257 . S
C34 H9 0.930 . S
C34 C37 1.388 . S
C34 C39 1.424 . S
C35 H30 0.930 . S
C35 C38 1.404 . S
C35 C39 1.381 . S
N36 Co1 2.145 . S
N36 C37 1.397 . S
N36 C38 1.334 . S
C37 H18 0.929 . S
C37 C34 1.388 . S
C37 N36 1.397 . S
C38 H19 0.929 . S
C38 C35 1.404 . S
C38 N36 1.334 . S
C39 H31 0.897 1_455 S
C39 C34 1.424 . S
C39 C35 1.381 . S
C40 H10 0.930 . S
C40 N41 1.330 . S
C40 C42 1.446 . S
N41 Co0 2.151 . S
N41 C40 1.330 . S
N41 C45 1.418 . S
C42 H21 0.929 . S
C42 C40 1.446 . S
C42 C43 1.332 . S
C43 H23 0.931 . S
C43 C42 1.332 . S
C43 C44 1.267 . S
C44 H12 0.929 . S
C44 C43 1.267 . S
C44 C45 1.251 . S
C45 H15 0.929 . S
C45 N41 1.418 . S
C45 C44 1.251 . S
C46 H13 0.930 . S
C46 C48 1.406 . S
C46 C51 1.261 . S
C47 H14 0.930 . S
C47 N49 1.325 . S
C47 C50 1.357 . S
C48 H16 0.928 . S
C48 C46 1.406 . S
C48 N49 1.261 . S
N49 Co0 2.214 . S
N49 C47 1.325 . S
N49 C48 1.261 . S
C50 H20 0.931 . S
C50 C47 1.357 . S
C50 C51 1.312 . S
C51 H22 0.930 . S
C51 C46 1.261 . S
C51 C50 1.312 . S
C52 O24 1.214 . S
C52 O32 1.234 . S
C53 H25 0.929 . S
C53 C56 1.391 1_455 S
C53 C58 1.391 . S
C54 H26 0.929 . S
C54 C55 1.390 1_455 S
C54 N57 1.391 . S
C55 H27 0.930 . S
C55 C54 1.390 1_655 S
C55 C56 1.392 . S
C56 H28 0.929 . S
C56 C53 1.391 1_655 S
C56 C55 1.392 . S
N57 Co1 2.257 . S
N57 C54 1.391 . S
N57 C58 1.388 . S
C58 H29 0.930 . S
C58 C53 1.391 . S
C58 N57 1.388 . S
Co59 O61 2.143 . S
Co59 O67 2.074 . S
Co59 O70 2.093 . S
Co59 O83 2.097 . S
Co59 N100 2.151 . S
Co59 N108 2.214 . S
Co60 O61 2.160 . S
Co60 O66 2.058 . S
Co60 O76 2.057 . S
Co60 O91 2.037 . S
Co60 N95 2.145 . S
Co60 N116 2.257 . S
O61 Co59 2.143 . S
O61 Co60 2.160 . S
C62 O63 1.278 . S
C62 O70 1.224 . S
O63 C62 1.278 . S
C64 O65 1.245 . S
C64 O76 1.232 . S
O65 C64 1.245 . S
O66 Co60 2.058 . S
O66 C92 1.269 . S
O67 Co59 2.074 . S
O67 C92 1.257 . S
H68 C93 0.930 . S
H69 C99 0.930 . S
O70 Co59 2.093 . S
O70 C62 1.224 . S
H71 C103 0.929 . S
H72 C105 0.930 . S
H73 C106 0.930 . S
H74 C104 0.929 . S
H75 C107 0.928 . S
O76 Co60 2.057 . S
O76 C64 1.232 . S
H77 C96 0.929 . S
H78 C97 0.929 . S
H79 C109 0.931 . S
H80 C101 0.929 . S
H81 C110 0.930 . S
H82 C102 0.931 . S
O83 Co59 2.097 . S
O83 C111 1.214 . S
H84 C112 0.929 . S
H85 C113 0.929 . S
H86 C114 0.930 . S
H87 C115 0.929 . S
H88 C117 0.930 . S
H89 C94 0.930 . S
H90 C98 0.930 . S
O91 Co60 2.037 . S
O91 C111 1.234 . S
C92 O66 1.269 . S
C92 O67 1.257 . S
C93 H68 0.930 . S
C93 C96 1.388 . S
C93 C98 1.418 . S
C94 H89 0.930 . S
C94 C97 1.404 . S
C94 C98 1.353 . S
N95 Co60 2.145 . S
N95 C96 1.397 . S
N95 C97 1.334 . S
C96 H77 0.929 . S
C96 C93 1.388 . S
C96 N95 1.397 . S
C97 H78 0.929 . S
C97 C94 1.404 . S
C97 N95 1.334 . S
C98 H90 0.930 . S
C98 C93 1.418 . S
C98 C94 1.353 . S
C99 H69 0.930 . S
C99 N100 1.330 . S
C99 C101 1.446 . S
N100 Co59 2.151 . S
N100 C99 1.330 . S
N100 C104 1.418 . S
C101 H80 0.929 . S
C101 C99 1.446 . S
C101 C102 1.332 . S
C102 H82 0.931 . S
C102 C101 1.332 . S
C102 C103 1.267 . S
C103 H71 0.929 . S
C103 C102 1.267 . S
C103 C104 1.251 . S
C104 H74 0.929 . S
C104 N100 1.418 . S
C104 C103 1.251 . S
C105 H72 0.930 . S
C105 C107 1.406 . S
C105 C110 1.261 . S
C106 H73 0.930 . S
C106 N108 1.325 . S
C106 C109 1.357 . S
C107 H75 0.928 . S
C107 C105 1.406 . S
C107 N108 1.261 . S
N108 Co59 2.214 . S
N108 C106 1.325 . S
N108 C107 1.261 . S
C109 H79 0.931 . S
C109 C106 1.357 . S
C109 C110 1.312 . S
C110 H81 0.930 . S
C110 C105 1.261 . S
C110 C109 1.312 . S
C111 O83 1.214 . S
C111 O91 1.234 . S
C112 H84 0.929 . S
C112 C115 1.391 . S
C112 C117 1.391 . S
C113 H85 0.929 . S
C113 C114 1.390 . S
C113 N116 1.391 . S
C114 H86 0.930 . S
C114 C113 1.390 . S
C114 C115 1.392 . S
C115 H87 0.929 . S
C115 C112 1.391 . S
C115 C114 1.392 . S
N116 Co60 2.257 . S
N116 C113 1.391 . S
N116 C117 1.388 . S
C117 H88 0.930 . S
C117 C112 1.391 . S
C117 N116 1.388 . S
Co118 O120 2.143 . S
Co118 O126 2.074 . S
Co118 O129 2.093 . S
Co118 O142 2.097 . S
Co118 N159 2.151 . S
Co118 N167 2.214 . S
Co119 O120 2.160 . S
Co119 O125 2.058 . S
Co119 O135 2.057 . S
Co119 O150 2.037 . S
Co119 N154 2.145 . S
Co119 N175 2.257 . S
O120 Co118 2.143 . S
O120 Co119 2.160 . S
C121 O122 1.278 . S
C121 O129 1.224 . S
O122 C121 1.278 . S
C123 O124 1.245 . S
C123 O135 1.232 . S
O124 C123 1.245 . S
O125 Co119 2.058 . S
O125 C151 1.269 . S
O126 Co118 2.074 . S
O126 C151 1.257 . S
H127 C152 0.930 . S
H128 C158 0.930 . S
O129 Co118 2.093 . S
O129 C121 1.224 . S
H130 C162 0.929 . S
H131 C164 0.910 1_565 S
H132 C165 0.930 . S
H133 C163 0.929 . S
H134 C166 0.928 . S
O135 Co119 2.057 . S
O135 C123 1.232 . S
H136 C155 0.929 . S
H137 C156 0.929 . S
H138 C168 0.931 . S
H139 C160 0.929 . S
H140 C169 0.930 . S
H141 C161 0.931 . S
O142 Co118 2.097 . S
O142 C170 1.214 . S
H143 C171 0.929 . S
H144 C172 0.929 . S
H145 C173 0.930 . S
H146 C174 0.929 . S
H147 C176 0.930 . S
H148 C153 0.930 . S
H149 C157 0.930 . S
O150 Co119 2.037 . S
O150 C170 1.234 . S
C151 O125 1.269 . S
C151 O126 1.257 . S
C152 H127 0.930 . S
C152 C155 1.388 . S
C152 C157 1.418 . S
C153 H148 0.930 . S
C153 C156 1.404 . S
C153 C157 1.353 . S
N154 Co119 2.145 . S
N154 C155 1.397 . S
N154 C156 1.334 . S
C155 H136 0.929 . S
C155 C152 1.388 . S
C155 N154 1.397 . S
C156 H137 0.929 . S
C156 C153 1.404 . S
C156 N154 1.334 . S
C157 H149 0.930 . S
C157 C152 1.418 . S
C157 C153 1.353 . S
C158 H128 0.930 . S
C158 N159 1.330 . S
C158 C160 1.446 1_545 S
N159 Co118 2.151 . S
N159 C158 1.330 . S
N159 C163 1.418 . S
C160 H139 0.929 . S
C160 C158 1.446 1_565 S
C160 C161 1.332 . S
C161 H141 0.931 . S
C161 C160 1.332 . S
C161 C162 1.267 . S
C162 H130 0.929 . S
C162 C161 1.267 . S
C162 C163 1.251 1_565 S
C163 H133 0.929 . S
C163 N159 1.418 . S
C163 C162 1.251 1_545 S
C164 H131 0.910 1_545 S
C164 C166 1.406 . S
C164 C169 1.261 . S
C165 H132 0.930 . S
C165 N167 1.325 . S
C165 C168 1.357 . S
C166 H134 0.928 . S
C166 C164 1.406 . S
C166 N167 1.261 . S
N167 Co118 2.214 . S
N167 C165 1.325 . S
N167 C166 1.261 . S
C168 H138 0.931 . S
C168 C165 1.357 . S
C168 C169 1.312 . S
C169 H140 0.930 . S
C169 C164 1.261 . S
C169 C168 1.312 . S
C170 O142 1.214 . S
C170 O150 1.234 . S
C171 H143 0.929 . S
C171 C174 1.391 . S
C171 C176 1.391 . S
C172 H144 0.929 . S
C172 C173 1.390 . S
C172 N175 1.391 . S
C173 H145 0.930 . S
C173 C172 1.390 . S
C173 C174 1.392 . S
C174 H146 0.929 . S
C174 C171 1.391 . S
C174 C173 1.392 . S
N175 Co119 2.257 . S
N175 C172 1.391 . S
N175 C176 1.388 . S
C176 H147 0.930 . S
C176 C171 1.391 . S
C176 N175 1.388 . S
Co177 O179 2.143 . S
Co177 O185 2.074 . S
Co177 O188 2.093 . S
Co177 O201 2.097 . S
Co177 N218 2.151 . S
Co177 N226 2.214 . S
Co178 O179 2.160 . S
Co178 O184 2.058 . S
Co178 O194 2.057 . S
Co178 O209 2.037 . S
Co178 N213 2.145 . S
Co178 N234 2.257 . S
O179 Co177 2.143 . S
O179 Co178 2.160 . S
C180 O181 1.278 . S
C180 O188 1.224 . S
O181 C180 1.278 . S
C182 O183 1.245 . S
C182 O194 1.232 . S
O183 C182 1.245 . S
O184 Co178 2.058 . S
O184 C210 1.269 . S
O185 Co177 2.074 . S
O185 C210 1.257 . S
H186 C211 0.930 . S
H187 C217 0.930 . S
O188 Co177 2.093 . S
O188 C180 1.224 . S
H189 C221 0.929 . S
H190 C223 0.930 1_655 S
H191 C224 0.930 . S
H192 C222 0.955 . S
H193 C225 0.928 . S
O194 Co178 2.057 . S
O194 C182 1.232 . S
H195 C214 0.929 . S
H196 C215 0.929 . S
H197 C227 0.931 . S
H198 C219 0.929 . S
H199 C228 0.930 . S
H200 C220 0.931 . S
O201 Co177 2.097 . S
O201 C229 1.214 . S
H202 C230 0.929 . S
H203 C231 0.929 . S
H204 C232 0.930 . S
H205 C233 0.929 . S
H206 C235 0.930 . S
H207 C212 0.930 . S
H208 C216 0.930 . S
O209 Co178 2.037 . S
O209 C229 1.234 . S
C210 O184 1.269 . S
C210 O185 1.257 . S
C211 H186 0.930 . S
C211 C214 1.388 . S
C211 C216 1.418 . S
C212 H207 0.930 . S
C212 C215 1.404 . S
C212 C216 1.353 . S
N213 Co178 2.145 . S
N213 C214 1.397 . S
N213 C215 1.334 . S
C214 H195 0.929 . S
C214 C211 1.388 . S
C214 N213 1.397 . S
C215 H196 0.929 . S
C215 C212 1.404 . S
C215 N213 1.334 . S
C216 H208 0.930 . S
C216 C211 1.418 . S
C216 C212 1.353 . S
C217 H187 0.930 . S
C217 N218 1.330 . S
C217 C219 1.446 1_455 S
N218 Co177 2.151 . S
N218 C217 1.330 . S
N218 C222 1.440 . S
C219 H198 0.929 . S
C219 C217 1.446 1_655 S
C219 C220 1.332 . S
C220 H200 0.931 . S
C220 C219 1.332 . S
C220 C221 1.267 . S
C221 H189 0.929 . S
C221 C220 1.267 . S
C221 C222 1.205 1_655 S
C222 H192 0.955 . S
C222 N218 1.440 . S
C222 C221 1.205 1_455 S
C223 H190 0.930 1_455 S
C223 C225 1.406 . S
C223 C228 1.261 . S
C224 H191 0.930 . S
C224 N226 1.325 . S
C224 C227 1.357 . S
C225 H193 0.928 . S
C225 C223 1.406 . S
C225 N226 1.261 . S
N226 Co177 2.214 . S
N226 C224 1.325 . S
N226 C225 1.261 . S
C227 H197 0.931 . S
C227 C224 1.357 . S
C227 C228 1.312 . S
C228 H199 0.930 . S
C228 C223 1.261 . S
C228 C227 1.312 . S
C229 O201 1.214 . S
C229 O209 1.234 . S
C230 H202 0.929 . S
C230 C233 1.391 . S
C230 C235 1.391 . S
C231 H203 0.929 . S
C231 C232 1.390 . S
C231 N234 1.391 . S
C232 H204 0.930 . S
C232 C231 1.390 . S
C232 C233 1.392 . S
C233 H205 0.929 . S
C233 C230 1.391 . S
C233 C232 1.392 . S
N234 Co178 2.257 . S
N234 C231 1.391 . S
N234 C235 1.388 . S
C235 H206 0.930 . S
C235 C230 1.391 . S
C235 N234 1.388 . S
Co236 O238 2.143 . S
Co236 O244 2.074 . S
Co236 O247 2.093 . S
Co236 O260 2.097 . S
Co236 N277 2.151 . S
Co236 N285 2.214 . S
Co237 O238 2.160 . S
Co237 O243 2.058 . S
Co237 O253 2.057 . S
Co237 O268 2.037 . S
Co237 N272 2.145 . S
Co237 N293 2.257 . S
O238 Co236 2.143 . S
O238 Co237 2.160 . S
C239 O240 1.278 . S
C239 O247 1.224 . S
O240 C239 1.278 . S
C241 O242 1.245 . S
C241 O253 1.232 . S
O242 C241 1.245 . S
O243 Co237 2.058 . S
O243 C269 1.269 . S
O244 Co236 2.074 . S
O244 C269 1.257 . S
H245 C270 0.930 . S
H246 C276 0.930 . S
O247 Co236 2.093 . S
O247 C239 1.224 . S
H248 C280 0.929 . S
H249 C282 0.930 . S
H250 C283 0.930 . S
H251 C281 0.929 . S
H252 C284 0.928 . S
O253 Co237 2.057 . S
O253 C241 1.232 . S
H254 C273 0.929 . S
H255 C274 0.929 . S
H256 C286 0.931 . S
H257 C278 0.929 . S
H258 C287 0.930 . S
H259 C279 0.931 . S
O260 Co236 2.097 . S
O260 C288 1.214 . S
H261 C289 0.929 . S
H262 C290 0.929 . S
H263 C291 0.930 . S
H264 C292 0.929 . S
H265 C294 0.930 . S
H266 C271 0.930 . S
H267 C275 0.930 . S
O268 Co237 2.037 . S
O268 C288 1.234 . S
C269 O243 1.269 . S
C269 O244 1.257 . S
C270 H245 0.930 . S
C270 C273 1.388 . S
C270 C275 1.418 . S
C271 H266 0.930 . S
C271 C274 1.404 . S
C271 C275 1.353 . S
N272 Co237 2.145 . S
N272 C273 1.397 . S
N272 C274 1.334 . S
C273 H254 0.929 . S
C273 C270 1.388 . S
C273 N272 1.397 . S
C274 H255 0.929 . S
C274 C271 1.404 . S
C274 N272 1.334 . S
C275 H267 0.930 . S
C275 C270 1.418 . S
C275 C271 1.353 . S
C276 H246 0.930 . S
C276 N277 1.330 . S
C276 C278 1.446 . S
N277 Co236 2.151 . S
N277 C276 1.330 . S
N277 C281 1.418 . S
C278 H257 0.929 . S
C278 C276 1.446 . S
C278 C279 1.332 . S
C279 H259 0.931 . S
C279 C278 1.332 . S
C279 C280 1.267 . S
C280 H248 0.929 . S
C280 C279 1.267 . S
C280 C281 1.251 . S
C281 H251 0.929 . S
C281 N277 1.418 . S
C281 C280 1.251 . S
C282 H249 0.930 . S
C282 C284 1.406 . S
C282 C287 1.261 . S
C283 H250 0.930 . S
C283 N285 1.325 . S
C283 C286 1.357 . S
C284 H252 0.928 . S
C284 C282 1.406 . S
C284 N285 1.261 . S
N285 Co236 2.214 . S
N285 C283 1.325 . S
N285 C284 1.261 . S
C286 H256 0.931 . S
C286 C283 1.357 . S
C286 C287 1.312 . S
C287 H258 0.930 . S
C287 C282 1.261 . S
C287 C286 1.312 . S
C288 O260 1.214 . S
C288 O268 1.234 . S
C289 H261 0.929 . S
C289 C292 1.391 . S
C289 C294 1.391 . S
C290 H262 0.929 . S
C290 C291 1.390 . S
C290 N293 1.391 . S
C291 H263 0.930 . S
C291 C290 1.390 . S
C291 C292 1.392 . S
C292 H264 0.929 . S
C292 C289 1.391 . S
C292 C291 1.392 . S
N293 Co237 2.257 . S
N293 C290 1.391 . S
N293 C294 1.388 . S
C294 H265 0.930 . S
C294 C289 1.391 . S
C294 N293 1.388 . S
Co295 O297 2.143 . S
Co295 O303 2.074 . S
Co295 O306 2.093 . S
Co295 O319 2.097 . S
Co295 N336 2.151 . S
Co295 N344 2.214 . S
Co296 O297 2.160 . S
Co296 O302 2.058 . S
Co296 O312 2.057 . S
Co296 O327 2.037 . S
Co296 N331 2.145 . S
Co296 N352 2.257 . S
O297 Co295 2.143 . S
O297 Co296 2.160 . S
C298 O299 1.278 . S
C298 O306 1.224 . S
O299 C298 1.278 . S
C300 O301 1.245 . S
C300 O312 1.232 . S
O301 C300 1.245 . S
O302 Co296 2.058 . S
O302 C328 1.269 . S
O303 Co295 2.074 . S
O303 C328 1.257 . S
H304 C329 0.930 . S
H305 C335 0.930 . S
O306 Co295 2.093 . S
O306 C298 1.224 . S
H307 C339 0.929 . S
H308 C341 0.930 . S
H309 C342 0.930 . S
H310 C340 0.929 . S
H311 C343 0.928 . S
O312 Co296 2.057 . S
O312 C300 1.232 . S
H313 C332 0.929 . S
H314 C333 0.929 . S
H315 C345 0.931 . S
H316 C337 0.929 . S
H317 C346 0.930 . S
H318 C338 0.931 . S
O319 Co295 2.097 . S
O319 C347 1.214 . S
H320 C348 0.929 . S
H321 C349 0.929 . S
H322 C350 0.930 . S
H323 C351 0.929 . S
H324 C353 0.930 . S
H325 C330 0.930 . S
H326 C334 0.930 1_565 S
O327 Co296 2.037 . S
O327 C347 1.234 . S
C328 O302 1.269 . S
C328 O303 1.257 . S
C329 H304 0.930 . S
C329 C332 1.388 . S
C329 C334 1.418 . S
C330 H325 0.930 . S
C330 C333 1.404 . S
C330 C334 1.353 . S
N331 Co296 2.145 . S
N331 C332 1.397 . S
N331 C333 1.334 . S
C332 H313 0.929 . S
C332 C329 1.388 . S
C332 N331 1.397 . S
C333 H314 0.929 . S
C333 C330 1.404 . S
C333 N331 1.334 . S
C334 H326 0.930 1_545 S
C334 C329 1.418 . S
C334 C330 1.353 . S
C335 H305 0.930 . S
C335 N336 1.330 . S
C335 C337 1.446 . S
N336 Co295 2.151 . S
N336 C335 1.330 . S
N336 C340 1.418 . S
C337 H316 0.929 . S
C337 C335 1.446 . S
C337 C338 1.332 . S
C338 H318 0.931 . S
C338 C337 1.332 . S
C338 C339 1.267 . S
C339 H307 0.929 . S
C339 C338 1.267 . S
C339 C340 1.251 . S
C340 H310 0.929 . S
C340 N336 1.418 . S
C340 C339 1.251 . S
C341 H308 0.930 . S
C341 C343 1.406 . S
C341 C346 1.261 . S
C342 H309 0.930 . S
C342 N344 1.325 . S
C342 C345 1.357 . S
C343 H311 0.928 . S
C343 C341 1.406 . S
C343 N344 1.261 . S
N344 Co295 2.214 . S
N344 C342 1.325 . S
N344 C343 1.261 . S
C345 H315 0.931 . S
C345 C342 1.357 . S
C345 C346 1.312 . S
C346 H317 0.930 . S
C346 C341 1.261 . S
C346 C345 1.312 . S
C347 O319 1.214 . S
C347 O327 1.234 . S
C348 H320 0.929 . S
C348 C351 1.391 1_545 S
C348 C353 1.391 . S
C349 H321 0.929 . S
C349 C350 1.390 1_545 S
C349 N352 1.391 . S
C350 H322 0.930 . S
C350 C349 1.390 1_565 S
C350 C351 1.392 . S
C351 H323 0.929 . S
C351 C348 1.391 1_565 S
C351 C350 1.392 . S
N352 Co296 2.257 . S
N352 C349 1.391 . S
N352 C353 1.388 . S
C353 H324 0.930 . S
C353 C348 1.391 . S
C353 N352 1.388 . S
Co354 O356 2.143 . S
Co354 O362 2.074 . S
Co354 O365 2.093 . S
Co354 O378 2.097 . S
Co354 N395 2.151 . S
Co354 N403 2.214 . S
Co355 O356 2.160 . S
Co355 O361 2.058 . S
Co355 O371 2.057 . S
Co355 O386 2.037 1_565 S
Co355 N390 2.145 1_565 S
Co355 N411 2.257 . S
O356 Co354 2.143 . S
O356 Co355 2.160 . S
C357 O358 1.278 . S
C357 O365 1.224 . S
O358 C357 1.278 . S
C359 O360 1.245 . S
C359 O371 1.232 . S
O360 C359 1.245 . S
O361 Co355 2.058 . S
O361 C387 1.269 . S
O362 Co354 2.074 . S
O362 C387 1.257 . S
H363 C388 0.930 . S
H364 C394 0.930 . S
O365 Co354 2.093 . S
O365 C357 1.224 . S
H366 C398 0.929 . S
H367 C400 0.930 . S
H368 C401 0.930 1_545 S
H369 C399 0.929 . S
H370 C402 0.928 . S
O371 Co355 2.057 . S
O371 C359 1.232 . S
H372 C391 0.929 . S
H373 C392 0.878 1_565 S
H374 C404 0.931 . S
H375 C396 0.929 . S
H376 C405 0.930 . S
H377 C397 0.931 . S
O378 Co354 2.097 . S
O378 C406 1.214 1_565 S
H379 C407 0.929 . S
H380 C408 0.929 1_545 S
H381 C409 0.930 1_545 S
H382 C410 0.929 . S
H383 C412 0.930 . S
H384 C389 0.930 . S
H385 C393 0.930 . S
O386 Co355 2.037 1_545 S
O386 C406 1.234 . S
C387 O361 1.269 . S
C387 O362 1.257 . S
C388 H363 0.930 . S
C388 C391 1.388 . S
C388 C393 1.418 . S
C389 H384 0.930 . S
C389 C392 1.428 . S
C389 C393 1.353 . S
N390 Co355 2.145 1_545 S
N390 C391 1.397 . S
N390 C392 1.360 . S
C391 H372 0.929 . S
C391 C388 1.388 . S
C391 N390 1.397 . S
C392 H373 0.878 1_545 S
C392 C389 1.428 . S
C392 N390 1.360 . S
C393 H385 0.930 . S
C393 C388 1.418 . S
C393 C389 1.353 . S
C394 H364 0.930 . S
C394 N395 1.330 . S
C394 C396 1.446 . S
N395 Co354 2.151 . S
N395 C394 1.330 . S
N395 C399 1.418 . S
C396 H375 0.929 . S
C396 C394 1.446 . S
C396 C397 1.332 . S
C397 H377 0.931 . S
C397 C396 1.332 . S
C397 C398 1.267 . S
C398 H366 0.929 . S
C398 C397 1.267 . S
C398 C399 1.251 . S
C399 H369 0.929 . S
C399 N395 1.418 . S
C399 C398 1.251 . S
C400 H367 0.930 . S
C400 C402 1.406 . S
C400 C405 1.261 . S
C401 H368 0.930 1_565 S
C401 N403 1.325 . S
C401 C404 1.357 1_565 S
C402 H370 0.928 . S
C402 C400 1.406 . S
C402 N403 1.261 . S
N403 Co354 2.214 . S
N403 C401 1.325 . S
N403 C402 1.261 . S
C404 H374 0.931 . S
C404 C401 1.357 1_545 S
C404 C405 1.312 1_545 S
C405 H376 0.930 . S
C405 C400 1.261 . S
C405 C404 1.312 1_565 S
C406 O378 1.214 1_545 S
C406 O386 1.234 . S
C407 H379 0.929 . S
C407 C410 1.391 . S
C407 C412 1.391 . S
C408 H380 0.929 1_565 S
C408 C409 1.390 . S
C408 N411 1.391 . S
C409 H381 0.930 1_565 S
C409 C408 1.390 . S
C409 C410 1.392 . S
C410 H382 0.929 . S
C410 C407 1.391 . S
C410 C409 1.392 . S
N411 Co355 2.257 . S
N411 C408 1.391 . S
N411 C412 1.388 . S
C412 H383 0.930 . S
C412 C407 1.391 . S
C412 N411 1.388 . S
Co413 O415 2.143 . S
Co413 O421 2.074 . S
Co413 O424 2.093 . S
Co413 O437 2.097 . S
Co413 N454 2.151 . S
Co413 N462 2.214 . S
Co414 O415 2.160 . S
Co414 O420 2.058 . S
Co414 O430 2.057 . S
Co414 O445 2.037 . S
Co414 N449 2.145 . S
Co414 N470 2.257 . S
O415 Co413 2.143 . S
O415 Co414 2.160 . S
C416 O417 1.278 . S
C416 O424 1.224 . S
O417 C416 1.278 . S
C418 O419 1.245 . S
C418 O430 1.232 . S
O419 C418 1.245 . S
O420 Co414 2.058 . S
O420 C446 1.269 . S
O421 Co413 2.074 . S
O421 C446 1.257 . S
H422 C447 0.930 . S
H423 C453 0.930 . S
O424 Co413 2.093 . S
O424 C416 1.224 . S
H425 C457 0.929 . S
H426 C459 0.930 . S
H427 C460 0.930 . S
H428 C458 0.929 . S
H429 C461 0.928 . S
O430 Co414 2.057 . S
O430 C418 1.232 . S
H431 C450 0.929 . S
H432 C451 0.929 . S
H433 C463 0.931 . S
H434 C455 0.929 . S
H435 C464 0.930 . S
H436 C456 0.931 . S
O437 Co413 2.097 . S
O437 C465 1.214 . S
H438 C466 0.929 . S
H439 C467 0.929 . S
H440 C468 0.930 . S
H441 C469 0.929 . S
H442 C471 0.930 . S
H443 C448 0.930 . S
H444 C452 0.930 . S
O445 Co414 2.037 . S
O445 C465 1.234 . S
C446 O420 1.269 . S
C446 O421 1.257 . S
C447 H422 0.930 . S
C447 C450 1.388 . S
C447 C452 1.418 . S
C448 H443 0.930 . S
C448 C451 1.404 . S
C448 C452 1.353 . S
N449 Co414 2.145 . S
N449 C450 1.397 . S
N449 C451 1.334 . S
C450 H431 0.929 . S
C450 C447 1.388 . S
C450 N449 1.397 . S
C451 H432 0.929 . S
C451 C448 1.404 . S
C451 N449 1.334 . S
C452 H444 0.930 . S
C452 C447 1.418 . S
C452 C448 1.353 . S
C453 H423 0.930 . S
C453 N454 1.330 . S
C453 C455 1.446 . S
N454 Co413 2.151 . S
N454 C453 1.330 . S
N454 C458 1.418 . S
C455 H434 0.929 . S
C455 C453 1.446 . S
C455 C456 1.332 . S
C456 H436 0.931 . S
C456 C455 1.332 . S
C456 C457 1.267 . S
C457 H425 0.929 . S
C457 C456 1.267 . S
C457 C458 1.251 . S
C458 H428 0.929 . S
C458 N454 1.418 . S
C458 C457 1.251 . S
C459 H426 0.930 . S
C459 C461 1.406 . S
C459 C464 1.261 . S
C460 H427 0.930 . S
C460 N462 1.325 . S
C460 C463 1.357 . S
C461 H429 0.928 . S
C461 C459 1.406 . S
C461 N462 1.261 . S
N462 Co413 2.214 . S
N462 C460 1.325 . S
N462 C461 1.261 . S
C463 H433 0.931 . S
C463 C460 1.357 . S
C463 C464 1.312 . S
C464 H435 0.930 . S
C464 C459 1.261 . S
C464 C463 1.312 . S
C465 O437 1.214 . S
C465 O445 1.234 . S
C466 H438 0.929 . S
C466 C469 1.391 . S
C466 C471 1.391 . S
C467 H439 0.929 . S
C467 C468 1.390 . S
C467 N470 1.391 . S
C468 H440 0.930 . S
C468 C467 1.390 . S
C468 C469 1.392 . S
C469 H441 0.929 . S
C469 C466 1.391 . S
C469 C468 1.392 . S
N470 Co414 2.257 . S
N470 C467 1.391 . S
N470 C471 1.388 . S
C471 H442 0.930 . S
C471 C466 1.391 . S
C471 N470 1.388 . S
Co472 O474 2.143 . S
Co472 O480 2.074 . S
Co472 O483 2.093 . S
Co472 O496 2.097 . S
Co472 N513 2.151 . S
Co472 N521 2.214 . S
Co473 O474 2.160 . S
Co473 O479 2.058 . S
Co473 O489 2.057 . S
Co473 O504 2.037 . S
Co473 N508 2.145 . S
Co473 N529 2.257 . S
O474 Co472 2.143 . S
O474 Co473 2.160 . S
C475 O476 1.278 . S
C475 O483 1.224 . S
O476 C475 1.278 . S
C477 O478 1.245 . S
C477 O489 1.232 . S
O478 C477 1.245 . S
O479 Co473 2.058 . S
O479 C505 1.269 . S
O480 Co472 2.074 . S
O480 C505 1.257 . S
H481 C506 0.930 . S
H482 C512 0.930 . S
O483 Co472 2.093 . S
O483 C475 1.224 . S
H484 C516 0.929 . S
H485 C518 0.930 . S
H486 C519 0.930 . S
H487 C517 0.929 . S
H488 C520 0.928 . S
O489 Co473 2.057 . S
O489 C477 1.232 . S
H490 C509 0.929 . S
H491 C510 0.929 . S
H492 C522 0.931 . S
H493 C514 0.929 . S
H494 C523 0.930 . S
H495 C515 0.931 . S
O496 Co472 2.097 . S
O496 C524 1.214 . S
H497 C525 0.929 . S
H498 C526 0.929 . S
H499 C527 0.930 . S
H500 C528 0.929 . S
H501 C530 0.930 . S
H502 C507 0.930 . S
H503 C511 0.930 . S
O504 Co473 2.037 . S
O504 C524 1.234 . S
C505 O479 1.269 . S
C505 O480 1.257 . S
C506 H481 0.930 . S
C506 C509 1.388 . S
C506 C511 1.418 . S
C507 H502 0.930 . S
C507 C510 1.404 . S
C507 C511 1.353 . S
N508 Co473 2.145 . S
N508 C509 1.397 . S
N508 C510 1.334 . S
C509 H490 0.929 . S
C509 C506 1.388 . S
C509 N508 1.397 . S
C510 H491 0.929 . S
C510 C507 1.404 . S
C510 N508 1.334 . S
C511 H503 0.930 . S
C511 C506 1.418 . S
C511 C507 1.353 . S
C512 H482 0.930 . S
C512 N513 1.330 . S
C512 C514 1.446 . S
N513 Co472 2.151 . S
N513 C512 1.330 . S
N513 C517 1.418 . S
C514 H493 0.929 . S
C514 C512 1.446 . S
C514 C515 1.332 . S
C515 H495 0.931 . S
C515 C514 1.332 . S
C515 C516 1.267 . S
C516 H484 0.929 . S
C516 C515 1.267 . S
C516 C517 1.251 . S
C517 H487 0.929 . S
C517 N513 1.418 . S
C517 C516 1.251 . S
C518 H485 0.930 . S
C518 C520 1.406 . S
C518 C523 1.261 . S
C519 H486 0.930 . S
C519 N521 1.325 . S
C519 C522 1.357 . S
C520 H488 0.928 . S
C520 C518 1.406 . S
C520 N521 1.261 . S
N521 Co472 2.214 . S
N521 C519 1.325 . S
N521 C520 1.261 . S
C522 H492 0.931 . S
C522 C519 1.357 . S
C522 C523 1.312 . S
C523 H494 0.930 . S
C523 C518 1.261 . S
C523 C522 1.312 . S
C524 O496 1.214 . S
C524 O504 1.234 . S
C525 H497 0.929 . S
C525 C528 1.391 . S
C525 C530 1.391 . S
C526 H498 0.929 . S
C526 C527 1.390 . S
C526 N529 1.391 . S
C527 H499 0.930 . S
C527 C526 1.390 . S
C527 C528 1.392 . S
C528 H500 0.929 . S
C528 C525 1.391 . S
C528 C527 1.392 . S
N529 Co473 2.257 . S
N529 C526 1.391 . S
N529 C530 1.388 . S
C530 H501 0.930 . S
C530 C525 1.391 . S
C530 N529 1.388 . S
Co531 O533 2.143 . S
Co531 O539 2.074 . S
Co531 O542 2.093 . S
Co531 O555 2.097 . S
Co531 N572 2.151 . S
Co531 N580 2.214 . S
Co532 O533 2.160 . S
Co532 O538 2.058 . S
Co532 O548 2.057 1_554 S
Co532 O563 2.037 . S
Co532 N567 2.145 1_554 S
Co532 N588 2.257 . S
O533 Co531 2.143 . S
O533 Co532 2.160 . S
C534 O535 1.278 . S
C534 O542 1.224 . S
O535 C534 1.278 . S
C536 O537 1.245 1_556 S
C536 O548 1.232 . S
O537 C536 1.245 1_554 S
O538 Co532 2.058 . S
O538 C564 1.269 . S
O539 Co531 2.074 . S
O539 C564 1.257 . S
H540 C565 0.930 . S
H541 C571 0.930 . S
O542 Co531 2.093 . S
O542 C534 1.224 . S
H543 C575 0.929 . S
H544 C577 0.930 . S
H545 C578 0.930 . S
H546 C576 0.929 . S
H547 C579 0.928 . S
O548 Co532 2.057 1_556 S
O548 C536 1.232 . S
H549 C568 0.929 1_554 S
H550 C569 0.929 . S
H551 C581 0.931 . S
H552 C573 0.929 . S
H553 C582 0.930 . S
H554 C574 0.931 . S
O555 Co531 2.097 . S
O555 C583 1.214 . S
H556 C584 0.929 . S
H557 C585 0.929 . S
H558 C586 0.930 . S
H559 C587 0.929 . S
H560 C589 0.930 . S
H561 C566 0.930 . S
H562 C570 0.930 . S
O563 Co532 2.037 . S
O563 C583 1.234 . S
C564 O538 1.269 . S
C564 O539 1.257 . S
C565 H540 0.930 . S
C565 C568 1.388 . S
C565 C570 1.418 . S
C566 H561 0.930 . S
C566 C569 1.404 . S
C566 C570 1.353 . S
N567 Co532 2.145 1_556 S
N567 C568 1.397 . S
N567 C569 1.334 . S
C568 H549 0.929 1_556 S
C568 C565 1.388 . S
C568 N567 1.397 . S
C569 H550 0.929 . S
C569 C566 1.404 . S
C569 N567 1.334 . S
C570 H562 0.930 . S
C570 C565 1.418 . S
C570 C566 1.353 . S
C571 H541 0.930 . S
C571 N572 1.330 . S
C571 C573 1.446 . S
N572 Co531 2.151 . S
N572 C571 1.330 . S
N572 C576 1.418 . S
C573 H552 0.929 . S
C573 C571 1.446 . S
C573 C574 1.332 . S
C574 H554 0.931 . S
C574 C573 1.332 . S
C574 C575 1.267 . S
C575 H543 0.929 . S
C575 C574 1.267 . S
C575 C576 1.251 . S
C576 H546 0.929 . S
C576 N572 1.418 . S
C576 C575 1.251 . S
C577 H544 0.930 . S
C577 C579 1.406 . S
C577 C582 1.261 . S
C578 H545 0.930 . S
C578 N580 1.325 . S
C578 C581 1.357 . S
C579 H547 0.928 . S
C579 C577 1.406 . S
C579 N580 1.261 . S
N580 Co531 2.214 . S
N580 C578 1.325 . S
N580 C579 1.261 . S
C581 H551 0.931 . S
C581 C578 1.357 . S
C581 C582 1.312 . S
C582 H553 0.930 . S
C582 C577 1.261 . S
C582 C581 1.312 . S
C583 O555 1.214 . S
C583 O563 1.234 . S
C584 H556 0.929 . S
C584 C587 1.391 . S
C584 C589 1.391 . S
C585 H557 0.929 . S
C585 C586 1.390 . S
C585 N588 1.391 . S
C586 H558 0.930 . S
C586 C585 1.390 . S
C586 C587 1.392 . S
C587 H559 0.929 . S
C587 C584 1.391 . S
C587 C586 1.392 . S
N588 Co532 2.257 . S
N588 C585 1.391 . S
N588 C589 1.388 . S
C589 H560 0.930 . S
C589 C584 1.391 . S
C589 N588 1.388 . S
Co590 O592 2.143 . S
Co590 O598 2.074 . S
Co590 O601 2.093 . S
Co590 O614 2.097 . S
Co590 N631 2.151 . S
Co590 N639 2.214 . S
Co591 O592 2.160 . S
Co591 O597 2.058 . S
Co591 O607 2.057 1_554 S
Co591 O622 2.037 1_565 S
Co591 N626 2.145 1_564 S
Co591 N647 2.257 . S
O592 Co590 2.143 . S
O592 Co591 2.160 . S
C593 O594 1.278 . S
C593 O601 1.224 . S
O594 C593 1.278 . S
C595 O596 1.245 1_556 S
C595 O607 1.232 . S
O596 C595 1.245 1_554 S
O597 Co591 2.058 . S
O597 C623 1.269 . S
O598 Co590 2.074 . S
O598 C623 1.257 . S
H599 C624 0.930 . S
H600 C630 0.930 . S
O601 Co590 2.093 . S
O601 C593 1.224 . S
H602 C634 0.929 . S
H603 C636 0.930 . S
H604 C637 0.930 1_545 S
H605 C635 0.929 . S
H606 C638 0.928 . S
O607 Co591 2.057 1_556 S
O607 C595 1.232 . S
H608 C627 0.929 1_554 S
H609 C628 0.893 1_565 S
H610 C640 0.931 . S
H611 C632 0.929 . S
H612 C641 0.930 . S
H613 C633 0.931 . S
O614 Co590 2.097 . S
O614 C642 1.214 1_565 S
H615 C643 0.929 . S
H616 C644 0.929 1_545 S
H617 C645 0.930 1_545 S
H618 C646 0.929 . S
H619 C648 0.930 . S
H620 C625 0.930 . S
H621 C629 0.930 . S
O622 Co591 2.037 1_545 S
O622 C642 1.234 . S
C623 O597 1.269 . S
C623 O598 1.257 . S
C624 H599 0.930 . S
C624 C627 1.388 . S
C624 C629 1.418 . S
C625 H620 0.930 . S
C625 C628 1.447 . S
C625 C629 1.353 . S
N626 Co591 2.145 1_546 S
N626 C627 1.397 . S
N626 C628 1.329 . S
C627 H608 0.929 1_556 S
C627 C624 1.388 . S
C627 N626 1.397 . S
C628 H609 0.893 1_545 S
C628 C625 1.447 . S
C628 N626 1.329 . S
C629 H621 0.930 . S
C629 C624 1.418 . S
C629 C625 1.353 . S
C630 H600 0.930 . S
C630 N631 1.330 . S
C630 C632 1.446 . S
N631 Co590 2.151 . S
N631 C630 1.330 . S
N631 C635 1.418 . S
C632 H611 0.929 . S
C632 C630 1.446 . S
C632 C633 1.332 . S
C633 H613 0.931 . S
C633 C632 1.332 . S
C633 C634 1.267 . S
C634 H602 0.929 . S
C634 C633 1.267 . S
C634 C635 1.251 . S
C635 H605 0.929 . S
C635 N631 1.418 . S
C635 C634 1.251 . S
C636 H603 0.930 . S
C636 C638 1.406 . S
C636 C641 1.261 . S
C637 H604 0.930 1_565 S
C637 N639 1.325 . S
C637 C640 1.357 1_565 S
C638 H606 0.928 . S
C638 C636 1.406 . S
C638 N639 1.261 . S
N639 Co590 2.214 . S
N639 C637 1.325 . S
N639 C638 1.261 . S
C640 H610 0.931 . S
C640 C637 1.357 1_545 S
C640 C641 1.312 1_545 S
C641 H612 0.930 . S
C641 C636 1.261 . S
C641 C640 1.312 1_565 S
C642 O614 1.214 1_545 S
C642 O622 1.234 . S
C643 H615 0.929 . S
C643 C646 1.391 . S
C643 C648 1.391 . S
C644 H616 0.929 1_565 S
C644 C645 1.390 . S
C644 N647 1.391 . S
C645 H617 0.930 1_565 S
C645 C644 1.390 . S
C645 C646 1.392 . S
C646 H618 0.929 . S
C646 C643 1.391 . S
C646 C645 1.392 . S
N647 Co591 2.257 . S
N647 C644 1.391 . S
N647 C648 1.388 . S
C648 H619 0.930 . S
C648 C643 1.391 . S
C648 N647 1.388 . S
Co649 O651 2.143 . S
Co649 O657 2.074 . S
Co649 O660 2.093 . S
Co649 O673 2.097 . S
Co649 N690 2.151 . S
Co649 N698 2.214 . S
Co650 O651 2.160 . S
Co650 O656 2.058 . S
Co650 O666 2.057 1_554 S
Co650 O681 2.037 . S
Co650 N685 2.145 1_554 S
Co650 N706 2.257 . S
O651 Co649 2.143 . S
O651 Co650 2.160 . S
C652 O653 1.278 . S
C652 O660 1.224 . S
O653 C652 1.278 . S
C654 O655 1.245 1_556 S
C654 O666 1.232 . S
O655 C654 1.245 1_554 S
O656 Co650 2.058 . S
O656 C682 1.269 . S
O657 Co649 2.074 . S
O657 C682 1.257 . S
H658 C683 0.930 . S
H659 C689 0.930 . S
O660 Co649 2.093 . S
O660 C652 1.224 . S
H661 C693 0.929 . S
H662 C695 0.930 . S
H663 C696 0.930 . S
H664 C694 0.929 . S
H665 C697 0.928 . S
O666 Co650 2.057 1_556 S
O666 C654 1.232 . S
H667 C686 0.929 1_554 S
H668 C687 0.929 . S
H669 C699 0.931 . S
H670 C691 0.929 . S
H671 C700 0.930 . S
H672 C692 0.931 . S
O673 Co649 2.097 . S
O673 C701 1.214 . S
H674 C702 0.929 . S
H675 C703 0.929 . S
H676 C704 0.930 . S
H677 C705 0.929 . S
H678 C707 0.930 . S
H679 C684 0.930 . S
H680 C688 0.930 . S
O681 Co650 2.037 . S
O681 C701 1.234 . S
C682 O656 1.269 . S
C682 O657 1.257 . S
C683 H658 0.930 . S
C683 C686 1.388 . S
C683 C688 1.418 . S
C684 H679 0.930 . S
C684 C687 1.404 . S
C684 C688 1.353 . S
N685 Co650 2.145 1_556 S
N685 C686 1.397 . S
N685 C687 1.334 . S
C686 H667 0.929 1_556 S
C686 C683 1.388 . S
C686 N685 1.397 . S
C687 H668 0.929 . S
C687 C684 1.404 . S
C687 N685 1.334 . S
C688 H680 0.930 . S
C688 C683 1.418 . S
C688 C684 1.353 . S
C689 H659 0.930 . S
C689 N690 1.330 . S
C689 C691 1.446 . S
N690 Co649 2.151 . S
N690 C689 1.330 . S
N690 C694 1.418 . S
C691 H670 0.929 . S
C691 C689 1.446 . S
C691 C692 1.332 . S
C692 H672 0.931 . S
C692 C691 1.332 . S
C692 C693 1.267 . S
C693 H661 0.929 . S
C693 C692 1.267 . S
C693 C694 1.251 . S
C694 H664 0.929 . S
C694 N690 1.418 . S
C694 C693 1.251 . S
C695 H662 0.930 . S
C695 C697 1.406 . S
C695 C700 1.261 . S
C696 H663 0.930 . S
C696 N698 1.325 . S
C696 C699 1.357 . S
C697 H665 0.928 . S
C697 C695 1.406 . S
C697 N698 1.261 . S
N698 Co649 2.214 . S
N698 C696 1.325 . S
N698 C697 1.261 . S
C699 H669 0.931 . S
C699 C696 1.357 . S
C699 C700 1.312 . S
C700 H671 0.930 . S
C700 C695 1.261 . S
C700 C699 1.312 . S
C701 O673 1.214 . S
C701 O681 1.234 . S
C702 H674 0.929 . S
C702 C705 1.391 . S
C702 C707 1.391 . S
C703 H675 0.929 . S
C703 C704 1.390 . S
C703 N706 1.391 . S
C704 H676 0.930 . S
C704 C703 1.390 . S
C704 C705 1.392 . S
C705 H677 0.929 . S
C705 C702 1.391 . S
C705 C704 1.392 . S
N706 Co650 2.257 . S
N706 C703 1.391 . S
N706 C707 1.388 . S
C707 H678 0.930 . S
C707 C702 1.391 . S
C707 N706 1.388 . S
Co708 O710 2.143 . S
Co708 O716 2.074 . S
Co708 O719 2.093 . S
Co708 O732 2.097 . S
Co708 N749 2.151 . S
Co708 N757 2.214 . S
Co709 O710 2.160 . S
Co709 O715 2.058 . S
Co709 O725 2.057 1_556 S
Co709 O740 2.037 . S
Co709 N744 2.145 1_556 S
Co709 N765 2.257 . S
O710 Co708 2.143 . S
O710 Co709 2.160 . S
C711 O712 1.278 . S
C711 O719 1.224 . S
O712 C711 1.278 . S
C713 O714 1.245 1_554 S
C713 O725 1.232 . S
O714 C713 1.245 1_556 S
O715 Co709 2.058 . S
O715 C741 1.269 . S
O716 Co708 2.074 . S
O716 C741 1.257 . S
H717 C742 0.930 . S
H718 C748 0.930 . S
O719 Co708 2.093 . S
O719 C711 1.224 . S
H720 C752 0.929 . S
H721 C754 0.930 . S
H722 C755 0.930 . S
H723 C753 0.929 . S
H724 C756 0.928 . S
O725 Co709 2.057 1_554 S
O725 C713 1.232 . S
H726 C745 0.929 1_556 S
H727 C746 0.929 . S
H728 C758 0.931 . S
H729 C750 0.929 . S
H730 C759 0.930 . S
H731 C751 0.931 . S
O732 Co708 2.097 . S
O732 C760 1.214 . S
H733 C761 0.929 . S
H734 C762 0.929 . S
H735 C763 0.930 . S
H736 C764 0.929 . S
H737 C766 0.930 . S
H738 C743 0.930 . S
H739 C747 0.930 . S
O740 Co709 2.037 . S
O740 C760 1.234 . S
C741 O715 1.269 . S
C741 O716 1.257 . S
C742 H717 0.930 . S
C742 C745 1.388 . S
C742 C747 1.418 . S
C743 H738 0.930 . S
C743 C746 1.404 . S
C743 C747 1.353 . S
N744 Co709 2.145 1_554 S
N744 C745 1.397 . S
N744 C746 1.334 . S
C745 H726 0.929 1_554 S
C745 C742 1.388 . S
C745 N744 1.397 . S
C746 H727 0.929 . S
C746 C743 1.404 . S
C746 N744 1.334 . S
C747 H739 0.930 . S
C747 C742 1.418 . S
C747 C743 1.353 . S
C748 H718 0.930 . S
C748 N749 1.330 . S
C748 C750 1.446 . S
N749 Co708 2.151 . S
N749 C748 1.330 . S
N749 C753 1.418 . S
C750 H729 0.929 . S
C750 C748 1.446 . S
C750 C751 1.332 . S
C751 H731 0.931 . S
C751 C750 1.332 . S
C751 C752 1.267 . S
C752 H720 0.929 . S
C752 C751 1.267 . S
C752 C753 1.251 . S
C753 H723 0.929 . S
C753 N749 1.418 . S
C753 C752 1.251 . S
C754 H721 0.930 . S
C754 C756 1.406 . S
C754 C759 1.261 . S
C755 H722 0.930 . S
C755 N757 1.325 . S
C755 C758 1.357 . S
C756 H724 0.928 . S
C756 C754 1.406 . S
C756 N757 1.261 . S
N757 Co708 2.214 . S
N757 C755 1.325 . S
N757 C756 1.261 . S
C758 H728 0.931 . S
C758 C755 1.357 . S
C758 C759 1.312 . S
C759 H730 0.930 . S
C759 C754 1.261 . S
C759 C758 1.312 . S
C760 O732 1.214 . S
C760 O740 1.234 . S
C761 H733 0.929 . S
C761 C764 1.391 . S
C761 C766 1.391 . S
C762 H734 0.929 . S
C762 C763 1.390 . S
C762 N765 1.391 . S
C763 H735 0.930 . S
C763 C762 1.390 . S
C763 C764 1.392 . S
C764 H736 0.929 . S
C764 C761 1.391 . S
C764 C763 1.392 . S
N765 Co709 2.257 . S
N765 C762 1.391 . S
N765 C766 1.388 . S
C766 H737 0.930 . S
C766 C761 1.391 . S
C766 N765 1.388 . S
Co767 O769 2.143 . S
Co767 O775 2.074 . S
Co767 O778 2.093 1_556 S
Co767 O791 2.097 . S
Co767 N808 2.151 . S
Co767 N816 2.214 1_556 S
Co768 O769 2.160 . S
Co768 O774 2.058 . S
Co768 O784 2.057 . S
Co768 O799 2.037 . S
Co768 N803 2.145 . S
Co768 N824 2.257 . S
O769 Co767 2.143 . S
O769 Co768 2.160 . S
C770 O771 1.278 1_554 S
C770 O778 1.224 . S
O771 C770 1.278 1_556 S
C772 O773 1.245 . S
C772 O784 1.232 . S
O773 C772 1.245 . S
O774 Co768 2.058 . S
O774 C800 1.269 . S
O775 Co767 2.074 . S
O775 C800 1.257 . S
H776 C801 0.930 . S
H777 C807 0.930 . S
O778 Co767 2.093 1_554 S
O778 C770 1.224 . S
H779 C811 0.929 . S
H780 C813 0.930 . S
H781 C814 0.930 . S
H782 C812 0.929 . S
H783 C815 0.928 . S
O784 Co768 2.057 . S
O784 C772 1.232 . S
H785 C804 0.929 . S
H786 C805 0.929 . S
H787 C817 0.931 . S
H788 C809 0.929 . S
H789 C818 0.930 . S
H790 C810 0.931 . S
O791 Co767 2.097 . S
O791 C819 1.214 . S
H792 C820 0.929 . S
H793 C821 0.929 . S
H794 C822 0.930 . S
H795 C823 0.929 . S
H796 C825 0.930 . S
H797 C802 0.930 . S
H798 C806 0.930 . S
O799 Co768 2.037 . S
O799 C819 1.234 . S
C800 O774 1.269 . S
C800 O775 1.257 . S
C801 H776 0.930 . S
C801 C804 1.388 . S
C801 C806 1.418 . S
C802 H797 0.930 . S
C802 C805 1.404 . S
C802 C806 1.353 . S
N803 Co768 2.145 . S
N803 C804 1.397 . S
N803 C805 1.334 . S
C804 H785 0.929 . S
C804 C801 1.388 . S
C804 N803 1.397 . S
C805 H786 0.929 . S
C805 C802 1.404 . S
C805 N803 1.334 . S
C806 H798 0.930 . S
C806 C801 1.418 . S
C806 C802 1.353 . S
C807 H777 0.930 . S
C807 N808 1.330 . S
C807 C809 1.446 . S
N808 Co767 2.151 . S
N808 C807 1.330 . S
N808 C812 1.418 . S
C809 H788 0.929 . S
C809 C807 1.446 . S
C809 C810 1.332 . S
C810 H790 0.931 . S
C810 C809 1.332 . S
C810 C811 1.267 . S
C811 H779 0.929 . S
C811 C810 1.267 . S
C811 C812 1.251 . S
C812 H782 0.929 . S
C812 N808 1.418 . S
C812 C811 1.251 . S
C813 H780 0.930 . S
C813 C815 1.406 . S
C813 C818 1.261 . S
C814 H781 0.930 . S
C814 N816 1.325 . S
C814 C817 1.357 . S
C815 H783 0.928 . S
C815 C813 1.406 . S
C815 N816 1.261 . S
N816 Co767 2.214 1_554 S
N816 C814 1.325 . S
N816 C815 1.261 . S
C817 H787 0.931 . S
C817 C814 1.357 . S
C817 C818 1.312 . S
C818 H789 0.930 . S
C818 C813 1.261 . S
C818 C817 1.312 . S
C819 O791 1.214 . S
C819 O799 1.234 . S
C820 H792 0.929 . S
C820 C823 1.391 . S
C820 C825 1.391 . S
C821 H793 0.929 . S
C821 C822 1.390 . S
C821 N824 1.391 . S
C822 H794 0.930 . S
C822 C821 1.390 . S
C822 C823 1.392 . S
C823 H795 0.929 . S
C823 C820 1.391 . S
C823 C822 1.392 . S
N824 Co768 2.257 . S
N824 C821 1.391 . S
N824 C825 1.388 . S
C825 H796 0.930 . S
C825 C820 1.391 . S
C825 N824 1.388 . S
Co826 O828 2.143 . S
Co826 O834 2.074 . S
Co826 O837 2.093 . S
Co826 O850 2.097 . S
Co826 N867 2.151 . S
Co826 N875 2.214 . S
Co827 O828 2.160 . S
Co827 O833 2.058 . S
Co827 O843 2.057 1_556 S
Co827 O858 2.037 1_655 S
Co827 N862 2.145 1_656 S
Co827 N883 2.257 . S
O828 Co826 2.143 . S
O828 Co827 2.160 . S
C829 O830 1.278 . S
C829 O837 1.224 . S
O830 C829 1.278 . S
C831 O832 1.245 1_554 S
C831 O843 1.232 . S
O832 C831 1.245 1_556 S
O833 Co827 2.058 . S
O833 C859 1.269 . S
O834 Co826 2.074 . S
O834 C859 1.257 . S
H835 C860 0.930 . S
H836 C866 0.930 . S
O837 Co826 2.093 . S
O837 C829 1.224 . S
H838 C870 0.929 . S
H839 C872 0.930 . S
H840 C873 0.930 1_455 S
H841 C871 0.929 . S
H842 C874 0.928 . S
O843 Co827 2.057 1_554 S
O843 C831 1.232 . S
H844 C863 0.929 1_556 S
H845 C864 0.919 1_655 S
H846 C876 0.971 . S
H847 C868 0.929 . S
H848 C877 0.930 . S
H849 C869 0.931 . S
O850 Co826 2.097 . S
O850 C878 1.214 1_655 S
H851 C879 0.929 . S
H852 C880 0.929 1_455 S
H853 C881 0.930 1_455 S
H854 C882 0.929 . S
H855 C884 0.930 . S
H856 C861 0.930 . S
H857 C865 0.930 . S
O858 Co827 2.037 1_455 S
O858 C878 1.234 . S
C859 O833 1.269 . S
C859 O834 1.257 . S
C860 H835 0.930 . S
C860 C863 1.388 . S
C860 C865 1.418 . S
C861 H856 0.930 . S
C861 C864 1.408 . S
C861 C865 1.353 . S
N862 Co827 2.145 1_454 S
N862 C863 1.397 . S
N862 C864 1.339 . S
C863 H844 0.929 1_554 S
C863 C860 1.388 . S
C863 N862 1.397 . S
C864 H845 0.919 1_455 S
C864 C861 1.408 . S
C864 N862 1.339 . S
C865 H857 0.930 . S
C865 C860 1.418 . S
C865 C861 1.353 . S
C866 H836 0.930 . S
C866 N867 1.330 . S
C866 C868 1.446 . S
N867 Co826 2.151 . S
N867 C866 1.330 . S
N867 C871 1.418 . S
C868 H847 0.929 . S
C868 C866 1.446 . S
C868 C869 1.332 . S
C869 H849 0.931 . S
C869 C868 1.332 . S
C869 C870 1.267 . S
C870 H838 0.929 . S
C870 C869 1.267 . S
C870 C871 1.251 . S
C871 H841 0.929 . S
C871 N867 1.418 . S
C871 C870 1.251 . S
C872 H839 0.930 . S
C872 C874 1.406 . S
C872 C877 1.261 . S
C873 H840 0.930 1_655 S
C873 N875 1.325 . S
C873 C876 1.328 1_655 S
C874 H842 0.928 . S
C874 C872 1.406 . S
C874 N875 1.261 . S
N875 Co826 2.214 . S
N875 C873 1.325 . S
N875 C874 1.261 . S
C876 H846 0.971 . S
C876 C873 1.328 1_455 S
C876 C877 1.299 1_455 S
C877 H848 0.930 . S
C877 C872 1.261 . S
C877 C876 1.299 1_655 S
C878 O850 1.214 1_455 S
C878 O858 1.234 . S
C879 H851 0.929 . S
C879 C882 1.391 . S
C879 C884 1.391 . S
C880 H852 0.929 1_655 S
C880 C881 1.390 . S
C880 N883 1.391 . S
C881 H853 0.930 1_655 S
C881 C880 1.390 . S
C881 C882 1.392 . S
C882 H854 0.929 . S
C882 C879 1.391 . S
C882 C881 1.392 . S
N883 Co827 2.257 . S
N883 C880 1.391 . S
N883 C884 1.388 . S
C884 H855 0.930 . S
C884 C879 1.391 . S
C884 N883 1.388 . S
Co885 O887 2.143 . S
Co885 O893 2.074 . S
Co885 O896 2.093 . S
Co885 O909 2.097 . S
Co885 N926 2.151 . S
Co885 N934 2.214 . S
Co886 O887 2.160 . S
Co886 O892 2.058 . S
Co886 O902 2.057 . S
Co886 O917 2.037 . S
Co886 N921 2.145 . S
Co886 N942 2.257 . S
O887 Co885 2.143 . S
O887 Co886 2.160 . S
C888 O889 1.278 . S
C888 O896 1.224 . S
O889 C888 1.278 . S
C890 O891 1.245 . S
C890 O902 1.232 . S
O891 C890 1.245 . S
O892 Co886 2.058 . S
O892 C918 1.269 . S
O893 Co885 2.074 . S
O893 C918 1.257 . S
H894 C919 0.930 . S
H895 C925 0.930 . S
O896 Co885 2.093 . S
O896 C888 1.224 . S
H897 C929 0.929 . S
H898 C931 0.930 . S
H899 C932 0.930 . S
H900 C930 0.929 . S
H901 C933 0.928 . S
O902 Co886 2.057 . S
O902 C890 1.232 . S
H903 C922 0.929 . S
H904 C923 0.929 . S
H905 C935 0.931 . S
H906 C927 0.929 . S
H907 C936 0.930 . S
H908 C928 0.931 . S
O909 Co885 2.097 . S
O909 C937 1.214 . S
H910 C938 0.929 . S
H911 C939 0.929 . S
H912 C940 0.930 . S
H913 C941 0.929 . S
H914 C943 0.930 . S
H915 C920 0.930 . S
H916 C924 0.930 . S
O917 Co886 2.037 . S
O917 C937 1.234 . S
C918 O892 1.269 . S
C918 O893 1.257 . S
C919 H894 0.930 . S
C919 C922 1.388 . S
C919 C924 1.418 . S
C920 H915 0.930 . S
C920 C923 1.404 . S
C920 C924 1.353 . S
N921 Co886 2.145 . S
N921 C922 1.397 . S
N921 C923 1.334 . S
C922 H903 0.929 . S
C922 C919 1.388 . S
C922 N921 1.397 . S
C923 H904 0.929 . S
C923 C920 1.404 . S
C923 N921 1.334 . S
C924 H916 0.930 . S
C924 C919 1.418 . S
C924 C920 1.353 . S
C925 H895 0.930 . S
C925 N926 1.330 . S
C925 C927 1.446 . S
N926 Co885 2.151 . S
N926 C925 1.330 . S
N926 C930 1.418 . S
C927 H906 0.929 . S
C927 C925 1.446 . S
C927 C928 1.332 . S
C928 H908 0.931 . S
C928 C927 1.332 . S
C928 C929 1.267 . S
C929 H897 0.929 . S
C929 C928 1.267 . S
C929 C930 1.251 . S
C930 H900 0.929 . S
C930 N926 1.418 . S
C930 C929 1.251 . S
C931 H898 0.930 . S
C931 C933 1.406 . S
C931 C936 1.261 . S
C932 H899 0.930 . S
C932 N934 1.325 . S
C932 C935 1.357 . S
C933 H901 0.928 . S
C933 C931 1.406 . S
C933 N934 1.261 . S
N934 Co885 2.214 . S
N934 C932 1.325 . S
N934 C933 1.261 . S
C935 H905 0.931 . S
C935 C932 1.357 . S
C935 C936 1.312 . S
C936 H907 0.930 . S
C936 C931 1.261 . S
C936 C935 1.312 . S
C937 O909 1.214 . S
C937 O917 1.234 . S
C938 H910 0.929 . S
C938 C941 1.391 . S
C938 C943 1.391 . S
C939 H911 0.929 . S
C939 C940 1.390 . S
C939 N942 1.391 . S
C940 H912 0.930 . S
C940 C939 1.390 . S
C940 C941 1.392 . S
C941 H913 0.929 . S
C941 C938 1.391 . S
C941 C940 1.392 . S
N942 Co886 2.257 . S
N942 C939 1.391 . S
N942 C943 1.388 . S
C943 H914 0.930 . S
C943 C938 1.391 . S
C943 N942 1.388 . S
Co944 O946 2.143 . S
Co944 O952 2.074 . S
Co944 O955 2.093 . S
Co944 O968 2.097 . S
Co944 N985 2.151 . S
Co944 N993 2.214 . S
Co945 O946 2.160 . S
Co945 O951 2.058 . S
Co945 O961 2.057 . S
Co945 O976 2.037 1_655 S
Co945 N980 2.145 1_655 S
Co945 N1001 2.257 . S
O946 Co944 2.143 . S
O946 Co945 2.160 . S
C947 O948 1.278 . S
C947 O955 1.224 . S
O948 C947 1.278 . S
C949 O950 1.245 . S
C949 O961 1.232 . S
O950 C949 1.245 . S
O951 Co945 2.058 . S
O951 C977 1.269 . S
O952 Co944 2.074 . S
O952 C977 1.257 . S
H953 C978 0.930 . S
H954 C984 0.930 . S
O955 Co944 2.093 . S
O955 C947 1.224 . S
H956 C988 0.929 . S
H957 C990 0.930 . S
H958 C991 0.930 1_455 S
H959 C989 0.929 . S
H960 C992 0.928 . S
O961 Co945 2.057 . S
O961 C949 1.232 . S
H962 C981 0.929 . S
H963 C982 0.917 1_655 S
H964 C994 0.959 . S
H965 C986 0.929 . S
H966 C995 0.930 . S
H967 C987 0.931 . S
O968 Co944 2.097 . S
O968 C996 1.214 1_655 S
H969 C997 0.929 . S
H970 C998 0.929 1_455 S
H971 C999 0.930 1_455 S
H972 C1000 0.929 . S
H973 C1002 0.930 . S
H974 C979 0.930 . S
H975 C983 0.930 . S
O976 Co945 2.037 1_455 S
O976 C996 1.234 . S
C977 O951 1.269 . S
C977 O952 1.257 . S
C978 H953 0.930 . S
C978 C981 1.388 . S
C978 C983 1.418 . S
C979 H974 0.930 . S
C979 C982 1.418 . S
C979 C983 1.353 . S
N980 Co945 2.145 1_455 S
N980 C981 1.397 . S
N980 C982 1.332 . S
C981 H962 0.929 . S
C981 C978 1.388 . S
C981 N980 1.397 . S
C982 H963 0.917 1_455 S
C982 C979 1.418 . S
C982 N980 1.332 . S
C983 H975 0.930 . S
C983 C978 1.418 . S
C983 C979 1.353 . S
C984 H954 0.930 . S
C984 N985 1.330 . S
C984 C986 1.446 . S
N985 Co944 2.151 . S
N985 C984 1.330 . S
N985 C989 1.418 . S
C986 H965 0.929 . S
C986 C984 1.446 . S
C986 C987 1.332 . S
C987 H967 0.931 . S
C987 C986 1.332 . S
C987 C988 1.267 . S
C988 H956 0.929 . S
C988 C987 1.267 . S
C988 C989 1.251 . S
C989 H959 0.929 . S
C989 N985 1.418 . S
C989 C988 1.251 . S
C990 H957 0.930 . S
C990 C992 1.406 . S
C990 C995 1.261 . S
C991 H958 0.930 1_655 S
C991 N993 1.325 . S
C991 C994 1.360 1_655 S
C992 H960 0.928 . S
C992 C990 1.406 . S
C992 N993 1.261 . S
N993 Co944 2.214 . S
N993 C991 1.325 . S
N993 C992 1.261 . S
C994 H964 0.959 . S
C994 C991 1.360 1_455 S
C994 C995 1.281 1_455 S
C995 H966 0.930 . S
C995 C990 1.261 . S
C995 C994 1.281 1_655 S
C996 O968 1.214 1_455 S
C996 O976 1.234 . S
C997 H969 0.929 . S
C997 C1000 1.391 . S
C997 C1002 1.391 . S
C998 H970 0.929 1_655 S
C998 C999 1.390 . S
C998 N1001 1.391 . S
C999 H971 0.930 1_655 S
C999 C998 1.390 . S
C999 C1000 1.392 . S
C1000 H972 0.929 . S
C1000 C997 1.391 . S
C1000 C999 1.392 . S
N1001 Co945 2.257 . S
N1001 C998 1.391 . S
N1001 C1002 1.388 . S
C1002 H973 0.930 . S
C1002 C997 1.391 . S
C1002 N1001 1.388 . S
Co1003 O1005 2.143 . S
Co1003 O1011 2.074 . S
Co1003 O1014 2.093 . S
Co1003 O1027 2.097 . S
Co1003 N1044 2.151 . S
Co1003 N1052 2.214 . S
Co1004 O1005 2.160 . S
Co1004 O1010 2.058 . S
Co1004 O1020 2.057 . S
Co1004 O1035 2.037 . S
Co1004 N1039 2.145 . S
Co1004 N1060 2.257 . S
O1005 Co1003 2.143 . S
O1005 Co1004 2.160 . S
C1006 O1007 1.278 . S
C1006 O1014 1.224 . S
O1007 C1006 1.278 . S
C1008 O1009 1.245 . S
C1008 O1020 1.232 . S
O1009 C1008 1.245 . S
O1010 Co1004 2.058 . S
O1010 C1036 1.269 . S
O1011 Co1003 2.074 . S
O1011 C1036 1.257 . S
H1012 C1037 0.930 . S
H1013 C1043 0.930 . S
O1014 Co1003 2.093 . S
O1014 C1006 1.224 . S
H1015 C1047 0.929 . S
H1016 C1049 0.930 . S
H1017 C1050 0.930 . S
H1018 C1048 0.929 . S
H1019 C1051 0.928 . S
O1020 Co1004 2.057 . S
O1020 C1008 1.232 . S
H1021 C1040 0.929 . S
H1022 C1041 0.929 . S
H1023 C1053 0.931 . S
H1024 C1045 0.929 . S
H1025 C1054 0.930 . S
H1026 C1046 0.931 . S
O1027 Co1003 2.097 . S
O1027 C1055 1.214 . S
H1028 C1056 0.929 . S
H1029 C1057 0.929 . S
H1030 C1058 0.930 . S
H1031 C1059 0.929 . S
H1032 C1061 0.930 . S
H1033 C1038 0.930 . S
H1034 C1042 0.930 . S
O1035 Co1004 2.037 . S
O1035 C1055 1.234 . S
C1036 O1010 1.269 . S
C1036 O1011 1.257 . S
C1037 H1012 0.930 . S
C1037 C1040 1.388 . S
C1037 C1042 1.418 . S
C1038 H1033 0.930 . S
C1038 C1041 1.404 . S
C1038 C1042 1.353 . S
N1039 Co1004 2.145 . S
N1039 C1040 1.397 . S
N1039 C1041 1.334 . S
C1040 H1021 0.929 . S
C1040 C1037 1.388 . S
C1040 N1039 1.397 . S
C1041 H1022 0.929 . S
C1041 C1038 1.404 . S
C1041 N1039 1.334 . S
C1042 H1034 0.930 . S
C1042 C1037 1.418 . S
C1042 C1038 1.353 . S
C1043 H1013 0.930 . S
C1043 N1044 1.330 . S
C1043 C1045 1.446 . S
N1044 Co1003 2.151 . S
N1044 C1043 1.330 . S
N1044 C1048 1.418 . S
C1045 H1024 0.929 . S
C1045 C1043 1.446 . S
C1045 C1046 1.332 . S
C1046 H1026 0.931 . S
C1046 C1045 1.332 . S
C1046 C1047 1.267 . S
C1047 H1015 0.929 . S
C1047 C1046 1.267 . S
C1047 C1048 1.251 . S
C1048 H1018 0.929 . S
C1048 N1044 1.418 . S
C1048 C1047 1.251 . S
C1049 H1016 0.930 . S
C1049 C1051 1.406 . S
C1049 C1054 1.261 . S
C1050 H1017 0.930 . S
C1050 N1052 1.325 . S
C1050 C1053 1.357 . S
C1051 H1019 0.928 . S
C1051 C1049 1.406 . S
C1051 N1052 1.261 . S
N1052 Co1003 2.214 . S
N1052 C1050 1.325 . S
N1052 C1051 1.261 . S
C1053 H1023 0.931 . S
C1053 C1050 1.357 . S
C1053 C1054 1.312 . S
C1054 H1025 0.930 . S
C1054 C1049 1.261 . S
C1054 C1053 1.312 . S
C1055 O1027 1.214 . S
C1055 O1035 1.234 . S
C1056 H1028 0.929 . S
C1056 C1059 1.391 . S
C1056 C1061 1.391 . S
C1057 H1029 0.929 . S
C1057 C1058 1.390 . S
C1057 N1060 1.391 . S
C1058 H1030 0.930 . S
C1058 C1057 1.390 . S
C1058 C1059 1.392 . S
C1059 H1031 0.929 . S
C1059 C1056 1.391 . S
C1059 C1058 1.392 . S
N1060 Co1004 2.257 . S
N1060 C1057 1.391 . S
N1060 C1061 1.388 . S
C1061 H1032 0.930 . S
C1061 C1056 1.391 . S
C1061 N1060 1.388 . S
H1062 C1074 0.930 . S
H1063 C1076 0.930 . S
H1064 C1077 0.930 . S
H1065 C1081 0.959 . S
H1066 C1081 0.959 . S
H1067 C1081 0.961 . S
H1068 C1082 0.960 . S
H1069 C1082 0.961 . S
H1070 C1082 0.959 . S
H1071 C1085 0.929 . S
H1072 C1086 0.931 . S
H1073 C1088 0.930 . S
C1074 H1062 0.930 . S
C1074 C1075 1.399 . S
C1074 C1079 1.399 . S
C1075 C1074 1.399 . S
C1075 C1076 1.376 . S
C1076 H1063 0.930 . S
C1076 C1075 1.376 . S
C1076 C1077 1.388 . S
C1077 H1064 0.930 . S
C1077 C1076 1.388 . S
C1077 C1078 1.390 . S
C1078 C1077 1.390 . S
C1078 C1079 1.394 . S
C1078 C1084 1.465 1_556 S
C1079 C1074 1.399 . S
C1079 C1078 1.394 . S
C1079 C1080 1.516 1_556 S
C1080 C1079 1.516 1_554 S
C1080 C1081 1.502 . S
C1080 C1082 1.561 . S
C1080 C1083 1.526 . S
C1081 H1065 0.959 . S
C1081 H1066 0.959 . S
C1081 H1067 0.961 . S
C1081 C1080 1.502 . S
C1082 H1068 0.960 . S
C1082 H1069 0.961 . S
C1082 H1070 0.959 . S
C1082 C1080 1.561 . S
C1083 C1080 1.526 . S
C1083 C1084 1.396 . S
C1083 C1088 1.390 . S
C1084 C1078 1.465 1_554 S
C1084 C1083 1.396 . S
C1084 C1085 1.399 1_554 S
C1085 H1071 0.929 . S
C1085 C1084 1.399 1_556 S
C1085 C1086 1.385 1_556 S
C1086 H1072 0.931 . S
C1086 C1085 1.385 1_554 S
C1086 C1087 1.389 . S
C1087 C1086 1.389 . S
C1087 C1088 1.387 . S
C1088 H1073 0.930 . S
C1088 C1083 1.390 . S
C1088 C1087 1.387 . S
H1089 C1101 0.930 . S
H1090 C1103 0.930 . S
H1091 C1104 0.930 1_554 S
H1092 C1108 0.959 . S
H1093 C1108 0.959 . S
H1094 C1108 0.961 . S
H1095 C1109 0.960 . S
H1096 C1109 0.961 . S
H1097 C1109 0.959 . S
H1098 C1112 0.929 . S
H1099 C1113 0.931 . S
H1100 C1115 0.930 . S
C1101 H1089 0.930 . S
C1101 C1102 1.399 . S
C1101 C1106 1.399 . S
C1102 C1101 1.399 . S
C1102 C1103 1.376 . S
C1103 H1090 0.930 . S
C1103 C1102 1.376 . S
C1103 C1104 1.388 . S
C1104 H1091 0.930 1_556 S
C1104 C1103 1.388 . S
C1104 C1105 1.390 . S
C1105 C1104 1.390 . S
C1105 C1106 1.394 . S
C1105 C1111 1.465 1_556 S
C1106 C1101 1.399 . S
C1106 C1105 1.394 . S
C1106 C1107 1.516 . S
C1107 C1106 1.516 . S
C1107 C1108 1.502 . S
C1107 C1109 1.561 . S
C1107 C1110 1.526 1_556 S
C1108 H1092 0.959 . S
C1108 H1093 0.959 . S
C1108 H1094 0.961 . S
C1108 C1107 1.502 . S
C1109 H1095 0.960 . S
C1109 H1096 0.961 . S
C1109 H1097 0.959 . S
C1109 C1107 1.561 . S
C1110 C1107 1.526 1_554 S
C1110 C1111 1.396 . S
C1110 C1115 1.390 . S
C1111 C1105 1.465 1_554 S
C1111 C1110 1.396 . S
C1111 C1112 1.399 . S
C1112 H1098 0.929 . S
C1112 C1111 1.399 . S
C1112 C1113 1.385 . S
C1113 H1099 0.931 . S
C1113 C1112 1.385 . S
C1113 C1114 1.389 . S
C1114 C1113 1.389 . S
C1114 C1115 1.387 . S
C1115 H1100 0.930 . S
C1115 C1110 1.390 . S
C1115 C1114 1.387 . S
H1116 C1128 0.930 . S
H1117 C1130 0.930 . S
H1118 C1131 0.930 . S
H1119 C1135 0.959 . S
H1120 C1135 0.959 1_556 S
H1121 C1135 0.961 . S
H1122 C1136 0.960 . S
H1123 C1136 0.961 . S
H1124 C1136 0.959 . S
H1125 C1139 0.929 . S
H1126 C1140 0.931 . S
H1127 C1142 0.930 . S
C1128 H1116 0.930 . S
C1128 C1129 1.399 . S
C1128 C1133 1.399 . S
C1129 C1128 1.399 . S
C1129 C1130 1.376 . S
C1130 H1117 0.930 . S
C1130 C1129 1.376 . S
C1130 C1131 1.388 . S
C1131 H1118 0.930 . S
C1131 C1130 1.388 . S
C1131 C1132 1.390 . S
C1132 C1131 1.390 . S
C1132 C1133 1.394 . S
C1132 C1138 1.465 1_554 S
C1133 C1128 1.399 . S
C1133 C1132 1.394 . S
C1133 C1134 1.516 1_554 S
C1134 C1133 1.516 1_556 S
C1134 C1135 1.502 1_556 S
C1134 C1136 1.561 . S
C1134 C1137 1.526 . S
C1135 H1119 0.959 . S
C1135 H1120 0.959 1_554 S
C1135 H1121 0.961 . S
C1135 C1134 1.502 1_554 S
C1136 H1122 0.960 . S
C1136 H1123 0.961 . S
C1136 H1124 0.959 . S
C1136 C1134 1.561 . S
C1137 C1134 1.526 . S
C1137 C1138 1.396 . S
C1137 C1142 1.390 . S
C1138 C1132 1.465 1_556 S
C1138 C1137 1.396 . S
C1138 C1139 1.399 . S
C1139 H1125 0.929 . S
C1139 C1138 1.399 . S
C1139 C1140 1.385 . S
C1140 H1126 0.931 . S
C1140 C1139 1.385 . S
C1140 C1141 1.389 . S
C1141 C1140 1.389 . S
C1141 C1142 1.387 . S
C1142 H1127 0.930 . S
C1142 C1137 1.390 . S
C1142 C1141 1.387 . S
H1143 C1155 0.930 . S
H1144 C1157 0.930 . S
H1145 C1158 0.930 . S
H1146 C1162 0.959 . S
H1147 C1162 0.959 . S
H1148 C1162 0.961 . S
H1149 C1163 0.960 . S
H1150 C1163 0.961 . S
H1151 C1163 0.959 . S
H1152 C1166 0.929 . S
H1153 C1167 0.931 . S
H1154 C1169 0.930 . S
C1155 H1143 0.930 . S
C1155 C1156 1.399 . S
C1155 C1160 1.399 . S
C1156 C1155 1.399 . S
C1156 C1157 1.376 . S
C1157 H1144 0.930 . S
C1157 C1156 1.376 . S
C1157 C1158 1.388 . S
C1158 H1145 0.930 . S
C1158 C1157 1.388 . S
C1158 C1159 1.390 . S
C1159 C1158 1.390 . S
C1159 C1160 1.394 . S
C1159 C1165 1.465 . S
C1160 C1155 1.399 . S
C1160 C1159 1.394 . S
C1160 C1161 1.516 . S
C1161 C1160 1.516 . S
C1161 C1162 1.502 . S
C1161 C1163 1.561 . S
C1161 C1164 1.526 . S
C1162 H1146 0.959 . S
C1162 H1147 0.959 . S
C1162 H1148 0.961 . S
C1162 C1161 1.502 . S
C1163 H1149 0.960 . S
C1163 H1150 0.961 . S
C1163 H1151 0.959 . S
C1163 C1161 1.561 . S
C1164 C1161 1.526 . S
C1164 C1165 1.396 . S
C1164 C1169 1.390 . S
C1165 C1159 1.465 . S
C1165 C1164 1.396 . S
C1165 C1166 1.399 . S
C1166 H1152 0.929 . S
C1166 C1165 1.399 . S
C1166 C1167 1.385 . S
C1167 H1153 0.931 . S
C1167 C1166 1.385 . S
C1167 C1168 1.389 . S
C1168 C1167 1.389 . S
C1168 C1169 1.387 . S
C1169 H1154 0.930 . S
C1169 C1164 1.390 . S
C1169 C1168 1.387 . S
H1170 C1182 0.930 . S
H1171 C1184 0.930 . S
H1172 C1185 0.930 . S
H1173 C1189 0.959 . S
H1174 C1189 0.959 . S
H1175 C1189 0.961 . S
H1176 C1190 0.960 . S
H1177 C1190 0.961 . S
H1178 C1190 0.959 . S
H1179 C1193 0.929 . S
H1180 C1194 0.931 . S
H1181 C1196 0.930 . S
C1182 H1170 0.930 . S
C1182 C1183 1.399 . S
C1182 C1187 1.399 . S
C1183 C1182 1.399 . S
C1183 C1184 1.376 . S
C1184 H1171 0.930 . S
C1184 C1183 1.376 . S
C1184 C1185 1.388 . S
C1185 H1172 0.930 . S
C1185 C1184 1.388 . S
C1185 C1186 1.390 . S
C1186 C1185 1.390 . S
C1186 C1187 1.394 . S
C1186 C1192 1.465 . S
C1187 C1182 1.399 . S
C1187 C1186 1.394 . S
C1187 C1188 1.516 . S
C1188 C1187 1.516 . S
C1188 C1189 1.502 . S
C1188 C1190 1.561 . S
C1188 C1191 1.526 . S
C1189 H1173 0.959 . S
C1189 H1174 0.959 . S
C1189 H1175 0.961 . S
C1189 C1188 1.502 . S
C1190 H1176 0.960 . S
C1190 H1177 0.961 . S
C1190 H1178 0.959 . S
C1190 C1188 1.561 . S
C1191 C1188 1.526 . S
C1191 C1192 1.396 . S
C1191 C1196 1.390 . S
C1192 C1186 1.465 . S
C1192 C1191 1.396 . S
C1192 C1193 1.399 . S
C1193 H1179 0.929 . S
C1193 C1192 1.399 . S
C1193 C1194 1.385 . S
C1194 H1180 0.931 . S
C1194 C1193 1.385 . S
C1194 C1195 1.389 . S
C1195 C1194 1.389 . S
C1195 C1196 1.387 . S
C1196 H1181 0.930 . S
C1196 C1191 1.390 . S
C1196 C1195 1.387 . S
H1197 C1209 0.930 . S
H1198 C1211 0.930 . S
H1199 C1212 0.930 . S
H1200 C1216 0.959 . S
H1201 C1216 0.959 . S
H1202 C1216 0.961 . S
H1203 C1217 0.960 . S
H1204 C1217 0.961 . S
H1205 C1217 0.959 . S
H1206 C1220 0.929 . S
H1207 C1221 0.931 . S
H1208 C1223 0.930 . S
C1209 H1197 0.930 . S
C1209 C1210 1.399 . S
C1209 C1214 1.399 . S
C1210 C1209 1.399 . S
C1210 C1211 1.376 . S
C1211 H1198 0.930 . S
C1211 C1210 1.376 . S
C1211 C1212 1.388 . S
C1212 H1199 0.930 . S
C1212 C1211 1.388 . S
C1212 C1213 1.390 . S
C1213 C1212 1.390 . S
C1213 C1214 1.394 . S
C1213 C1219 1.465 . S
C1214 C1209 1.399 . S
C1214 C1213 1.394 . S
C1214 C1215 1.516 . S
C1215 C1214 1.516 . S
C1215 C1216 1.502 . S
C1215 C1217 1.561 . S
C1215 C1218 1.526 . S
C1216 H1200 0.959 . S
C1216 H1201 0.959 . S
C1216 H1202 0.961 . S
C1216 C1215 1.502 . S
C1217 H1203 0.960 . S
C1217 H1204 0.961 . S
C1217 H1205 0.959 . S
C1217 C1215 1.561 . S
C1218 C1215 1.526 . S
C1218 C1219 1.396 . S
C1218 C1223 1.390 . S
C1219 C1213 1.465 . S
C1219 C1218 1.396 . S
C1219 C1220 1.399 . S
C1220 H1206 0.929 . S
C1220 C1219 1.399 . S
C1220 C1221 1.385 . S
C1221 H1207 0.931 . S
C1221 C1220 1.385 . S
C1221 C1222 1.389 . S
C1222 C1221 1.389 . S
C1222 C1223 1.387 . S
C1223 H1208 0.930 . S
C1223 C1218 1.390 . S
C1223 C1222 1.387 . S
H1224 C1236 0.930 . S
H1225 C1238 0.930 . S
H1226 C1239 0.930 . S
H1227 C1243 0.959 . S
H1228 C1243 0.959 . S
H1229 C1243 0.961 . S
H1230 C1244 0.960 . S
H1231 C1244 0.961 . S
H1232 C1244 0.959 . S
H1233 C1247 0.929 . S
H1234 C1248 0.931 . S
H1235 C1250 0.930 . S
C1236 H1224 0.930 . S
C1236 C1237 1.399 . S
C1236 C1241 1.399 . S
C1237 C1236 1.399 . S
C1237 C1238 1.376 . S
C1238 H1225 0.930 . S
C1238 C1237 1.376 . S
C1238 C1239 1.388 . S
C1239 H1226 0.930 . S
C1239 C1238 1.388 . S
C1239 C1240 1.390 . S
C1240 C1239 1.390 . S
C1240 C1241 1.394 . S
C1240 C1246 1.465 . S
C1241 C1236 1.399 . S
C1241 C1240 1.394 . S
C1241 C1242 1.516 . S
C1242 C1241 1.516 . S
C1242 C1243 1.502 . S
C1242 C1244 1.561 . S
C1242 C1245 1.526 . S
C1243 H1227 0.959 . S
C1243 H1228 0.959 . S
C1243 H1229 0.961 . S
C1243 C1242 1.502 . S
C1244 H1230 0.960 . S
C1244 H1231 0.961 . S
C1244 H1232 0.959 . S
C1244 C1242 1.561 . S
C1245 C1242 1.526 . S
C1245 C1246 1.396 . S
C1245 C1250 1.390 . S
C1246 C1240 1.465 . S
C1246 C1245 1.396 . S
C1246 C1247 1.399 . S
C1247 H1233 0.929 . S
C1247 C1246 1.399 . S
C1247 C1248 1.385 . S
C1248 H1234 0.931 . S
C1248 C1247 1.385 . S
C1248 C1249 1.389 . S
C1249 C1248 1.389 . S
C1249 C1250 1.387 . S
C1250 H1235 0.930 . S
C1250 C1245 1.390 . S
C1250 C1249 1.387 . S
H1251 C1263 0.930 . S
H1252 C1265 0.930 . S
H1253 C1266 0.930 . S
H1254 C1270 0.959 . S
H1255 C1270 0.959 . S
H1256 C1270 0.961 . S
H1257 C1271 0.960 . S
H1258 C1271 0.961 . S
H1259 C1271 0.959 . S
H1260 C1274 0.929 . S
H1261 C1275 0.931 . S
H1262 C1277 0.930 . S
C1263 H1251 0.930 . S
C1263 C1264 1.399 . S
C1263 C1268 1.399 . S
C1264 C1263 1.399 . S
C1264 C1265 1.376 . S
C1265 H1252 0.930 . S
C1265 C1264 1.376 . S
C1265 C1266 1.388 . S
C1266 H1253 0.930 . S
C1266 C1265 1.388 . S
C1266 C1267 1.390 . S
C1267 C1266 1.390 . S
C1267 C1268 1.394 . S
C1267 C1273 1.465 . S
C1268 C1263 1.399 . S
C1268 C1267 1.394 . S
C1268 C1269 1.516 . S
C1269 C1268 1.516 . S
C1269 C1270 1.502 . S
C1269 C1271 1.561 . S
C1269 C1272 1.526 . S
C1270 H1254 0.959 . S
C1270 H1255 0.959 . S
C1270 H1256 0.961 . S
C1270 C1269 1.502 . S
C1271 H1257 0.960 . S
C1271 H1258 0.961 . S
C1271 H1259 0.959 . S
C1271 C1269 1.561 . S
C1272 C1269 1.526 . S
C1272 C1273 1.396 . S
C1272 C1277 1.390 . S
C1273 C1267 1.465 . S
C1273 C1272 1.396 . S
C1273 C1274 1.399 . S
C1274 H1260 0.929 . S
C1274 C1273 1.399 . S
C1274 C1275 1.385 . S
C1275 H1261 0.931 . S
C1275 C1274 1.385 . S
C1275 C1276 1.389 . S
C1276 C1275 1.389 . S
C1276 C1277 1.387 . S
C1277 H1262 0.930 . S
C1277 C1272 1.390 . S
C1277 C1276 1.387 . S
H1278 C1290 0.930 . S
H1279 C1292 0.930 . S
H1280 C1293 0.930 . S
H1281 C1297 0.959 . S
H1282 C1297 0.959 . S
H1283 C1297 0.961 . S
H1284 C1298 0.960 . S
H1285 C1298 0.961 . S
H1286 C1298 0.959 . S
H1287 C1301 0.929 . S
H1288 C1302 0.931 . S
H1289 C1304 0.930 . S
C1290 H1278 0.930 . S
C1290 C1291 1.399 . S
C1290 C1295 1.399 . S
C1291 C1290 1.399 . S
C1291 C1292 1.376 . S
C1292 H1279 0.930 . S
C1292 C1291 1.376 . S
C1292 C1293 1.388 . S
C1293 H1280 0.930 . S
C1293 C1292 1.388 . S
C1293 C1294 1.390 . S
C1294 C1293 1.390 . S
C1294 C1295 1.394 . S
C1294 C1300 1.465 . S
C1295 C1290 1.399 . S
C1295 C1294 1.394 . S
C1295 C1296 1.516 . S
C1296 C1295 1.516 . S
C1296 C1297 1.502 . S
C1296 C1298 1.561 . S
C1296 C1299 1.526 . S
C1297 H1281 0.959 . S
C1297 H1282 0.959 . S
C1297 H1283 0.961 . S
C1297 C1296 1.502 . S
C1298 H1284 0.960 . S
C1298 H1285 0.961 . S
C1298 H1286 0.959 . S
C1298 C1296 1.561 . S
C1299 C1296 1.526 . S
C1299 C1300 1.396 . S
C1299 C1304 1.390 . S
C1300 C1294 1.465 . S
C1300 C1299 1.396 . S
C1300 C1301 1.399 . S
C1301 H1287 0.929 . S
C1301 C1300 1.399 . S
C1301 C1302 1.385 . S
C1302 H1288 0.931 . S
C1302 C1301 1.385 . S
C1302 C1303 1.389 . S
C1303 C1302 1.389 . S
C1303 C1304 1.387 . S
C1304 H1289 0.930 . S
C1304 C1299 1.390 . S
C1304 C1303 1.387 . S
H1305 C1317 0.930 . S
H1306 C1319 0.930 . S
H1307 C1320 0.930 . S
H1308 C1324 0.959 . S
H1309 C1324 0.959 . S
H1310 C1324 0.961 . S
H1311 C1325 0.960 . S
H1312 C1325 0.961 . S
H1313 C1325 0.959 . S
H1314 C1328 0.929 . S
H1315 C1329 0.931 . S
H1316 C1331 0.930 . S
C1317 H1305 0.930 . S
C1317 C1318 1.399 . S
C1317 C1322 1.399 . S
C1318 C1317 1.399 . S
C1318 C1319 1.376 . S
C1319 H1306 0.930 . S
C1319 C1318 1.376 . S
C1319 C1320 1.388 . S
C1320 H1307 0.930 . S
C1320 C1319 1.388 . S
C1320 C1321 1.390 . S
C1321 C1320 1.390 . S
C1321 C1322 1.394 . S
C1321 C1327 1.465 . S
C1322 C1317 1.399 . S
C1322 C1321 1.394 . S
C1322 C1323 1.516 . S
C1323 C1322 1.516 . S
C1323 C1324 1.502 . S
C1323 C1325 1.561 . S
C1323 C1326 1.526 . S
C1324 H1308 0.959 . S
C1324 H1309 0.959 . S
C1324 H1310 0.961 . S
C1324 C1323 1.502 . S
C1325 H1311 0.960 . S
C1325 H1312 0.961 . S
C1325 H1313 0.959 . S
C1325 C1323 1.561 . S
C1326 C1323 1.526 . S
C1326 C1327 1.396 . S
C1326 C1331 1.390 . S
C1327 C1321 1.465 . S
C1327 C1326 1.396 . S
C1327 C1328 1.399 . S
C1328 H1314 0.929 . S
C1328 C1327 1.399 . S
C1328 C1329 1.385 . S
C1329 H1315 0.931 . S
C1329 C1328 1.385 . S
C1329 C1330 1.389 . S
C1330 C1329 1.389 . S
C1330 C1331 1.387 . S
C1331 H1316 0.930 . S
C1331 C1326 1.390 . S
C1331 C1330 1.387 . S
H1332 C1344 0.930 . S
H1333 C1346 0.930 . S
H1334 C1347 0.930 . S
H1335 C1351 0.959 . S
H1336 C1351 0.959 . S
H1337 C1351 0.961 . S
H1338 C1352 0.960 . S
H1339 C1352 0.961 . S
H1340 C1352 0.959 . S
H1341 C1355 0.929 . S
H1342 C1356 0.931 . S
H1343 C1358 0.930 . S
C1344 H1332 0.930 . S
C1344 C1345 1.399 . S
C1344 C1349 1.399 . S
C1345 C1344 1.399 . S
C1345 C1346 1.376 . S
C1346 H1333 0.930 . S
C1346 C1345 1.376 . S
C1346 C1347 1.388 . S
C1347 H1334 0.930 . S
C1347 C1346 1.388 . S
C1347 C1348 1.390 . S
C1348 C1347 1.390 . S
C1348 C1349 1.394 . S
C1348 C1354 1.465 . S
C1349 C1344 1.399 . S
C1349 C1348 1.394 . S
C1349 C1350 1.516 . S
C1350 C1349 1.516 . S
C1350 C1351 1.502 . S
C1350 C1352 1.561 . S
C1350 C1353 1.526 . S
C1351 H1335 0.959 . S
C1351 H1336 0.959 . S
C1351 H1337 0.961 . S
C1351 C1350 1.502 . S
C1352 H1338 0.960 . S
C1352 H1339 0.961 . S
C1352 H1340 0.959 . S
C1352 C1350 1.561 . S
C1353 C1350 1.526 . S
C1353 C1354 1.396 . S
C1353 C1358 1.390 . S
C1354 C1348 1.465 . S
C1354 C1353 1.396 . S
C1354 C1355 1.399 . S
C1355 H1341 0.929 . S
C1355 C1354 1.399 . S
C1355 C1356 1.385 . S
C1356 H1342 0.931 . S
C1356 C1355 1.385 . S
C1356 C1357 1.389 . S
C1357 C1356 1.389 . S
C1357 C1358 1.387 . S
C1358 H1343 0.930 . S
C1358 C1353 1.390 . S
C1358 C1357 1.387 . S
H1359 C1371 0.930 . S
H1360 C1373 0.930 . S
H1361 C1374 0.930 . S
H1362 C1378 0.959 . S
H1363 C1378 0.959 . S
H1364 C1378 0.961 . S
H1365 C1379 0.960 . S
H1366 C1379 0.961 . S
H1367 C1379 0.959 . S
H1368 C1382 0.929 . S
H1369 C1383 0.931 . S
H1370 C1385 0.930 . S
C1371 H1359 0.930 . S
C1371 C1372 1.399 . S
C1371 C1376 1.399 . S
C1372 C1371 1.399 . S
C1372 C1373 1.376 . S
C1373 H1360 0.930 . S
C1373 C1372 1.376 . S
C1373 C1374 1.388 . S
C1374 H1361 0.930 . S
C1374 C1373 1.388 . S
C1374 C1375 1.390 . S
C1375 C1374 1.390 . S
C1375 C1376 1.394 . S
C1375 C1381 1.465 . S
C1376 C1371 1.399 . S
C1376 C1375 1.394 . S
C1376 C1377 1.516 . S
C1377 C1376 1.516 . S
C1377 C1378 1.502 . S
C1377 C1379 1.561 . S
C1377 C1380 1.526 . S
C1378 H1362 0.959 . S
C1378 H1363 0.959 . S
C1378 H1364 0.961 . S
C1378 C1377 1.502 . S
C1379 H1365 0.960 . S
C1379 H1366 0.961 . S
C1379 H1367 0.959 . S
C1379 C1377 1.561 . S
C1380 C1377 1.526 . S
C1380 C1381 1.396 . S
C1380 C1385 1.390 . S
C1381 C1375 1.465 . S
C1381 C1380 1.396 . S
C1381 C1382 1.399 . S
C1382 H1368 0.929 . S
C1382 C1381 1.399 . S
C1382 C1383 1.385 . S
C1383 H1369 0.931 . S
C1383 C1382 1.385 . S
C1383 C1384 1.389 . S
C1384 C1383 1.389 . S
C1384 C1385 1.387 . S
C1385 H1370 0.930 . S
C1385 C1380 1.390 . S
C1385 C1384 1.387 . S
H1386 C1398 0.930 . S
H1387 C1400 0.930 . S
H1388 C1401 0.930 . S
H1389 C1405 0.959 . S
H1390 C1405 0.959 . S
H1391 C1405 0.961 . S
H1392 C1406 0.960 . S
H1393 C1406 0.961 . S
H1394 C1406 0.959 . S
H1395 C1409 0.929 . S
H1396 C1410 0.931 . S
H1397 C1412 0.930 . S
C1398 H1386 0.930 . S
C1398 C1399 1.399 . S
C1398 C1403 1.399 . S
C1399 C1398 1.399 . S
C1399 C1400 1.376 . S
C1400 H1387 0.930 . S
C1400 C1399 1.376 . S
C1400 C1401 1.388 . S
C1401 H1388 0.930 . S
C1401 C1400 1.388 . S
C1401 C1402 1.390 . S
C1402 C1401 1.390 . S
C1402 C1403 1.394 . S
C1402 C1408 1.465 . S
C1403 C1398 1.399 . S
C1403 C1402 1.394 . S
C1403 C1404 1.516 . S
C1404 C1403 1.516 . S
C1404 C1405 1.502 . S
C1404 C1406 1.561 . S
C1404 C1407 1.526 . S
C1405 H1389 0.959 . S
C1405 H1390 0.959 . S
C1405 H1391 0.961 . S
C1405 C1404 1.502 . S
C1406 H1392 0.960 . S
C1406 H1393 0.961 . S
C1406 H1394 0.959 . S
C1406 C1404 1.561 . S
C1407 C1404 1.526 . S
C1407 C1408 1.396 . S
C1407 C1412 1.390 . S
C1408 C1402 1.465 . S
C1408 C1407 1.396 . S
C1408 C1409 1.399 . S
C1409 H1395 0.929 . S
C1409 C1408 1.399 . S
C1409 C1410 1.385 . S
C1410 H1396 0.931 . S
C1410 C1409 1.385 . S
C1410 C1411 1.389 . S
C1411 C1410 1.389 . S
C1411 C1412 1.387 . S
C1412 H1397 0.930 . S
C1412 C1407 1.390 . S
C1412 C1411 1.387 . S
H1413 C1425 0.930 . S
H1414 C1427 0.930 . S
H1415 C1428 0.930 . S
H1416 C1432 0.959 . S
H1417 C1432 0.959 . S
H1418 C1432 0.961 . S
H1419 C1433 0.960 . S
H1420 C1433 0.961 . S
H1421 C1433 0.959 . S
H1422 C1436 0.929 . S
H1423 C1437 0.931 . S
H1424 C1439 0.930 . S
C1425 H1413 0.930 . S
C1425 C1426 1.399 . S
C1425 C1430 1.399 . S
C1426 C1425 1.399 . S
C1426 C1427 1.376 . S
C1427 H1414 0.930 . S
C1427 C1426 1.376 . S
C1427 C1428 1.388 . S
C1428 H1415 0.930 . S
C1428 C1427 1.388 . S
C1428 C1429 1.390 . S
C1429 C1428 1.390 . S
C1429 C1430 1.394 . S
C1429 C1435 1.465 . S
C1430 C1425 1.399 . S
C1430 C1429 1.394 . S
C1430 C1431 1.516 . S
C1431 C1430 1.516 . S
C1431 C1432 1.502 . S
C1431 C1433 1.561 . S
C1431 C1434 1.526 . S
C1432 H1416 0.959 . S
C1432 H1417 0.959 . S
C1432 H1418 0.961 . S
C1432 C1431 1.502 . S
C1433 H1419 0.960 . S
C1433 H1420 0.961 . S
C1433 H1421 0.959 . S
C1433 C1431 1.561 . S
C1434 C1431 1.526 . S
C1434 C1435 1.396 . S
C1434 C1439 1.390 . S
C1435 C1429 1.465 . S
C1435 C1434 1.396 . S
C1435 C1436 1.399 . S
C1436 H1422 0.929 . S
C1436 C1435 1.399 . S
C1436 C1437 1.385 . S
C1437 H1423 0.931 . S
C1437 C1436 1.385 . S
C1437 C1438 1.389 . S
C1438 C1437 1.389 . S
C1438 C1439 1.387 . S
C1439 H1424 0.930 . S
C1439 C1434 1.390 . S
C1439 C1438 1.387 . S
H1440 C1452 0.930 . S
H1441 C1454 0.930 . S
H1442 C1455 0.930 . S
H1443 C1459 0.959 . S
H1444 C1459 0.959 . S
H1445 C1459 0.961 . S
H1446 C1460 0.960 . S
H1447 C1460 0.961 . S
H1448 C1460 0.959 . S
H1449 C1463 0.929 . S
H1450 C1464 0.931 . S
H1451 C1466 0.930 . S
C1452 H1440 0.930 . S
C1452 C1453 1.399 . S
C1452 C1457 1.399 . S
C1453 C1452 1.399 . S
C1453 C1454 1.376 . S
C1454 H1441 0.930 . S
C1454 C1453 1.376 . S
C1454 C1455 1.388 . S
C1455 H1442 0.930 . S
C1455 C1454 1.388 . S
C1455 C1456 1.390 . S
C1456 C1455 1.390 . S
C1456 C1457 1.394 . S
C1456 C1462 1.465 . S
C1457 C1452 1.399 . S
C1457 C1456 1.394 . S
C1457 C1458 1.516 . S
C1458 C1457 1.516 . S
C1458 C1459 1.502 . S
C1458 C1460 1.561 . S
C1458 C1461 1.526 . S
C1459 H1443 0.959 . S
C1459 H1444 0.959 . S
C1459 H1445 0.961 . S
C1459 C1458 1.502 . S
C1460 H1446 0.960 . S
C1460 H1447 0.961 . S
C1460 H1448 0.959 . S
C1460 C1458 1.561 . S
C1461 C1458 1.526 . S
C1461 C1462 1.396 . S
C1461 C1466 1.390 . S
C1462 C1456 1.465 . S
C1462 C1461 1.396 . S
C1462 C1463 1.399 . S
C1463 H1449 0.929 . S
C1463 C1462 1.399 . S
C1463 C1464 1.385 . S
C1464 H1450 0.931 . S
C1464 C1463 1.385 . S
C1464 C1465 1.389 . S
C1465 C1464 1.389 . S
C1465 C1466 1.387 . S
C1466 H1451 0.930 . S
C1466 C1461 1.390 . S
C1466 C1465 1.387 . S
H1467 C1479 0.930 . S
H1468 C1481 0.930 . S
H1469 C1482 0.930 . S
H1470 C1486 0.959 . S
H1471 C1486 0.959 . S
H1472 C1486 0.961 . S
H1473 C1487 0.960 . S
H1474 C1487 0.961 . S
H1475 C1487 0.959 . S
H1476 C1490 0.929 . S
H1477 C1491 0.931 . S
H1478 C1493 0.930 . S
C1479 H1467 0.930 . S
C1479 C1480 1.399 . S
C1479 C1484 1.399 . S
C1480 C1479 1.399 . S
C1480 C1481 1.376 . S
C1481 H1468 0.930 . S
C1481 C1480 1.376 . S
C1481 C1482 1.388 . S
C1482 H1469 0.930 . S
C1482 C1481 1.388 . S
C1482 C1483 1.390 . S
C1483 C1482 1.390 . S
C1483 C1484 1.394 . S
C1483 C1489 1.465 . S
C1484 C1479 1.399 . S
C1484 C1483 1.394 . S
C1484 C1485 1.516 . S
C1485 C1484 1.516 . S
C1485 C1486 1.502 . S
C1485 C1487 1.561 . S
C1485 C1488 1.526 . S
C1486 H1470 0.959 . S
C1486 H1471 0.959 . S
C1486 H1472 0.961 . S
C1486 C1485 1.502 . S
C1487 H1473 0.960 . S
C1487 H1474 0.961 . S
C1487 H1475 0.959 . S
C1487 C1485 1.561 . S
C1488 C1485 1.526 . S
C1488 C1489 1.396 . S
C1488 C1493 1.390 . S
C1489 C1483 1.465 . S
C1489 C1488 1.396 . S
C1489 C1490 1.399 . S
C1490 H1476 0.929 . S
C1490 C1489 1.399 . S
C1490 C1491 1.385 . S
C1491 H1477 0.931 . S
C1491 C1490 1.385 . S
C1491 C1492 1.389 . S
C1492 C1491 1.389 . S
C1492 C1493 1.387 . S
C1493 H1478 0.930 . S
C1493 C1488 1.390 . S
C1493 C1492 1.387 . S
H1494 C1506 0.930 . S
H1495 C1508 0.930 . S
H1496 C1509 0.930 . S
H1497 C1513 0.959 . S
H1498 C1513 0.959 . S
H1499 C1513 0.961 . S
H1500 C1514 0.960 . S
H1501 C1514 0.961 . S
H1502 C1514 0.959 . S
H1503 C1517 0.929 . S
H1504 C1518 0.931 . S
H1505 C1520 0.930 . S
C1506 H1494 0.930 . S
C1506 C1507 1.399 . S
C1506 C1511 1.399 . S
C1507 C1506 1.399 . S
C1507 C1508 1.376 . S
C1508 H1495 0.930 . S
C1508 C1507 1.376 . S
C1508 C1509 1.388 . S
C1509 H1496 0.930 . S
C1509 C1508 1.388 . S
C1509 C1510 1.390 . S
C1510 C1509 1.390 . S
C1510 C1511 1.394 . S
C1510 C1516 1.465 . S
C1511 C1506 1.399 . S
C1511 C1510 1.394 . S
C1511 C1512 1.516 . S
C1512 C1511 1.516 . S
C1512 C1513 1.502 . S
C1512 C1514 1.561 . S
C1512 C1515 1.526 . S
C1513 H1497 0.959 . S
C1513 H1498 0.959 . S
C1513 H1499 0.961 . S
C1513 C1512 1.502 . S
C1514 H1500 0.960 . S
C1514 H1501 0.961 . S
C1514 H1502 0.959 . S
C1514 C1512 1.561 . S
C1515 C1512 1.526 . S
C1515 C1516 1.396 . S
C1515 C1520 1.390 . S
C1516 C1510 1.465 . S
C1516 C1515 1.396 . S
C1516 C1517 1.399 . S
C1517 H1503 0.929 . S
C1517 C1516 1.399 . S
C1517 C1518 1.385 . S
C1518 H1504 0.931 . S
C1518 C1517 1.385 . S
C1518 C1519 1.389 . S
C1519 C1518 1.389 . S
C1519 C1520 1.387 . S
C1520 H1505 0.930 . S
C1520 C1515 1.390 . S
C1520 C1519 1.387 . S
H1521 C1533 0.930 . S
H1522 C1535 0.930 . S
H1523 C1536 0.930 . S
H1524 C1540 0.959 . S
H1525 C1540 0.959 . S
H1526 C1540 0.961 . S
H1527 C1541 0.960 . S
H1528 C1541 0.961 . S
H1529 C1541 0.959 . S
H1530 C1544 0.929 . S
H1531 C1545 0.931 . S
H1532 C1547 0.930 . S
C1533 H1521 0.930 . S
C1533 C1534 1.399 . S
C1533 C1538 1.399 . S
C1534 C1533 1.399 . S
C1534 C1535 1.376 . S
C1535 H1522 0.930 . S
C1535 C1534 1.376 . S
C1535 C1536 1.388 . S
C1536 H1523 0.930 . S
C1536 C1535 1.388 . S
C1536 C1537 1.390 . S
C1537 C1536 1.390 . S
C1537 C1538 1.394 . S
C1537 C1543 1.465 . S
C1538 C1533 1.399 . S
C1538 C1537 1.394 . S
C1538 C1539 1.516 . S
C1539 C1538 1.516 . S
C1539 C1540 1.502 . S
C1539 C1541 1.561 . S
C1539 C1542 1.526 . S
C1540 H1524 0.959 . S
C1540 H1525 0.959 . S
C1540 H1526 0.961 . S
C1540 C1539 1.502 . S
C1541 H1527 0.960 . S
C1541 H1528 0.961 . S
C1541 H1529 0.959 . S
C1541 C1539 1.561 . S
C1542 C1539 1.526 . S
C1542 C1543 1.396 . S
C1542 C1547 1.390 . S
C1543 C1537 1.465 . S
C1543 C1542 1.396 . S
C1543 C1544 1.399 . S
C1544 H1530 0.929 . S
C1544 C1543 1.399 . S
C1544 C1545 1.385 . S
C1545 H1531 0.931 . S
C1545 C1544 1.385 . S
C1545 C1546 1.389 . S
C1546 C1545 1.389 . S
C1546 C1547 1.387 . S
C1547 H1532 0.930 . S
C1547 C1542 1.390 . S
C1547 C1546 1.387 . S
H1548 C1560 0.930 . S
H1549 C1562 0.930 . S
H1550 C1563 0.930 . S
H1551 C1567 0.959 . S
H1552 C1567 0.959 . S
H1553 C1567 0.961 . S
H1554 C1568 0.960 . S
H1555 C1568 0.961 . S
H1556 C1568 0.959 . S
H1557 C1571 0.929 . S
H1558 C1572 0.931 . S
H1559 C1574 0.930 . S
C1560 H1548 0.930 . S
C1560 C1561 1.399 . S
C1560 C1565 1.399 . S
C1561 C1560 1.399 . S
C1561 C1562 1.376 . S
C1562 H1549 0.930 . S
C1562 C1561 1.376 . S
C1562 C1563 1.388 . S
C1563 H1550 0.930 . S
C1563 C1562 1.388 . S
C1563 C1564 1.390 . S
C1564 C1563 1.390 . S
C1564 C1565 1.394 . S
C1564 C1570 1.465 . S
C1565 C1560 1.399 . S
C1565 C1564 1.394 . S
C1565 C1566 1.516 . S
C1566 C1565 1.516 . S
C1566 C1567 1.502 . S
C1566 C1568 1.561 . S
C1566 C1569 1.526 . S
C1567 H1551 0.959 . S
C1567 H1552 0.959 . S
C1567 H1553 0.961 . S
C1567 C1566 1.502 . S
C1568 H1554 0.960 . S
C1568 H1555 0.961 . S
C1568 H1556 0.959 . S
C1568 C1566 1.561 . S
C1569 C1566 1.526 . S
C1569 C1570 1.396 . S
C1569 C1574 1.390 . S
C1570 C1564 1.465 . S
C1570 C1569 1.396 . S
C1570 C1571 1.399 . S
C1571 H1557 0.929 . S
C1571 C1570 1.399 . S
C1571 C1572 1.385 . S
C1572 H1558 0.931 . S
C1572 C1571 1.385 . S
C1572 C1573 1.389 . S
C1573 C1572 1.389 . S
C1573 C1574 1.387 . S
C1574 H1559 0.930 . S
C1574 C1569 1.390 . S
C1574 C1573 1.387 . S
H1575 C1587 0.930 . S
H1576 C1589 0.930 . S
H1577 C1590 0.930 . S
H1578 C1594 0.959 . S
H1579 C1594 0.959 . S
H1580 C1594 0.961 . S
H1581 C1595 0.960 . S
H1582 C1595 0.961 . S
H1583 C1595 0.959 . S
H1584 C1598 0.929 . S
H1585 C1599 0.931 . S
H1586 C1601 0.930 . S
C1587 H1575 0.930 . S
C1587 C1588 1.399 . S
C1587 C1592 1.399 . S
C1588 C1587 1.399 . S
C1588 C1589 1.376 . S
C1589 H1576 0.930 . S
C1589 C1588 1.376 . S
C1589 C1590 1.388 . S
C1590 H1577 0.930 . S
C1590 C1589 1.388 . S
C1590 C1591 1.390 . S
C1591 C1590 1.390 . S
C1591 C1592 1.394 . S
C1591 C1597 1.465 . S
C1592 C1587 1.399 . S
C1592 C1591 1.394 . S
C1592 C1593 1.516 . S
C1593 C1592 1.516 . S
C1593 C1594 1.502 . S
C1593 C1595 1.561 . S
C1593 C1596 1.526 . S
C1594 H1578 0.959 . S
C1594 H1579 0.959 . S
C1594 H1580 0.961 . S
C1594 C1593 1.502 . S
C1595 H1581 0.960 . S
C1595 H1582 0.961 . S
C1595 H1583 0.959 . S
C1595 C1593 1.561 . S
C1596 C1593 1.526 . S
C1596 C1597 1.396 . S
C1596 C1601 1.390 . S
C1597 C1591 1.465 . S
C1597 C1596 1.396 . S
C1597 C1598 1.399 . S
C1598 H1584 0.929 . S
C1598 C1597 1.399 . S
C1598 C1599 1.385 . S
C1599 H1585 0.931 . S
C1599 C1598 1.385 . S
C1599 C1600 1.389 . S
C1600 C1599 1.389 . S
C1600 C1601 1.387 . S
C1601 H1586 0.930 . S
C1601 C1596 1.390 . S
C1601 C1600 1.387 . S
H1602 C1614 0.930 . S
H1603 C1616 0.930 . S
H1604 C1617 0.930 . S
H1605 C1621 0.959 . S
H1606 C1621 0.959 . S
H1607 C1621 0.961 . S
H1608 C1622 0.960 . S
H1609 C1622 0.961 . S
H1610 C1622 0.959 . S
H1611 C1625 0.978 . S
H1612 C1626 0.931 . S
H1613 C1628 0.930 . S
C1614 H1602 0.930 . S
C1614 C1615 1.399 1_545 S
C1614 C1619 1.399 . S
C1615 C1614 1.399 1_565 S
C1615 C1616 1.376 . S
C1616 H1603 0.930 . S
C1616 C1615 1.376 . S
C1616 C1617 1.388 . S
C1617 H1604 0.930 . S
C1617 C1616 1.388 . S
C1617 C1618 1.390 1_565 S
C1618 C1617 1.390 1_545 S
C1618 C1619 1.394 . S
C1618 C1624 1.465 . S
C1619 C1614 1.399 . S
C1619 C1618 1.394 . S
C1619 C1620 1.516 . S
C1620 C1619 1.516 . S
C1620 C1621 1.502 . S
C1620 C1622 1.561 . S
C1620 C1623 1.526 . S
C1621 H1605 0.959 . S
C1621 H1606 0.959 . S
C1621 H1607 0.961 . S
C1621 C1620 1.502 . S
C1622 H1608 0.960 . S
C1622 H1609 0.961 . S
C1622 H1610 0.959 . S
C1622 C1620 1.561 . S
C1623 C1620 1.526 . S
C1623 C1624 1.396 . S
C1623 C1628 1.390 . S
C1624 C1618 1.465 . S
C1624 C1623 1.396 . S
C1624 C1625 1.399 . S
C1625 H1611 0.978 . S
C1625 C1624 1.399 . S
C1625 C1626 1.385 . S
C1626 H1612 0.931 . S
C1626 C1625 1.385 . S
C1626 C1627 1.389 . S
C1627 C1626 1.389 . S
C1627 C1628 1.387 . S
C1628 H1613 0.930 . S
C1628 C1623 1.390 . S
C1628 C1627 1.387 . S
H1629 C1641 0.930 . S
H1630 C1643 0.930 . S
H1631 C1644 0.930 . S
H1632 C1648 0.959 . S
H1633 C1648 0.959 . S
H1634 C1648 0.961 . S
H1635 C1649 0.960 . S
H1636 C1649 0.961 . S
H1637 C1649 0.959 . S
H1638 C1652 0.929 . S
H1639 C1653 0.931 . S
H1640 C1655 0.933 . S
C1641 H1629 0.930 . S
C1641 C1642 1.399 . S
C1641 C1646 1.399 . S
C1642 C1641 1.399 . S
C1642 C1643 1.376 . S
C1643 H1630 0.930 . S
C1643 C1642 1.376 . S
C1643 C1644 1.388 . S
C1644 H1631 0.930 . S
C1644 C1643 1.388 . S
C1644 C1645 1.390 . S
C1645 C1644 1.390 . S
C1645 C1646 1.394 . S
C1645 C1651 1.465 . S
C1646 C1641 1.399 . S
C1646 C1645 1.394 . S
C1646 C1647 1.516 . S
C1647 C1646 1.516 . S
C1647 C1648 1.502 . S
C1647 C1649 1.561 1_554 S
C1647 C1650 1.526 . S
C1648 H1632 0.959 . S
C1648 H1633 0.959 . S
C1648 H1634 0.961 . S
C1648 C1647 1.502 . S
C1649 H1635 0.960 . S
C1649 H1636 0.961 . S
C1649 H1637 0.959 . S
C1649 C1647 1.561 1_556 S
C1650 C1647 1.526 . S
C1650 C1651 1.396 . S
C1650 C1655 1.387 1_554 S
C1651 C1645 1.465 . S
C1651 C1650 1.396 . S
C1651 C1652 1.399 . S
C1652 H1638 0.929 . S
C1652 C1651 1.399 . S
C1652 C1653 1.385 . S
C1653 H1639 0.931 . S
C1653 C1652 1.385 . S
C1653 C1654 1.389 . S
C1654 C1653 1.389 . S
C1654 C1655 1.386 1_554 S
C1655 H1640 0.933 . S
C1655 C1650 1.387 1_556 S
C1655 C1654 1.386 1_556 S
H1656 C1668 0.930 . S
H1657 C1670 0.930 . S
H1658 C1671 0.906 . S
H1659 C1675 0.959 . S
H1660 C1675 0.959 . S
H1661 C1675 0.961 . S
H1662 C1676 0.960 . S
H1663 C1676 0.961 . S
H1664 C1676 0.959 . S
H1665 C1679 0.929 . S
H1666 C1680 0.931 . S
H1667 C1682 0.930 . S
C1668 H1656 0.930 . S
C1668 C1669 1.399 1_554 S
C1668 C1673 1.399 1_655 S
C1669 C1668 1.399 1_556 S
C1669 C1670 1.376 . S
C1670 H1657 0.930 . S
C1670 C1669 1.376 . S
C1670 C1671 1.379 1_655 S
C1671 H1658 0.906 . S
C1671 C1670 1.379 1_455 S
C1671 C1672 1.393 1_556 S
C1672 C1671 1.393 1_554 S
C1672 C1673 1.394 . S
C1672 C1678 1.465 . S
C1673 C1668 1.399 1_455 S
C1673 C1672 1.394 . S
C1673 C1674 1.516 . S
C1674 C1673 1.516 . S
C1674 C1675 1.502 . S
C1674 C1676 1.561 1_455 S
C1674 C1677 1.526 . S
C1675 H1659 0.959 . S
C1675 H1660 0.959 . S
C1675 H1661 0.961 . S
C1675 C1674 1.502 . S
C1676 H1662 0.960 . S
C1676 H1663 0.961 . S
C1676 H1664 0.959 . S
C1676 C1674 1.561 1_655 S
C1677 C1674 1.526 . S
C1677 C1678 1.396 . S
C1677 C1682 1.390 . S
C1678 C1672 1.465 . S
C1678 C1677 1.396 . S
C1678 C1679 1.399 . S
C1679 H1665 0.929 . S
C1679 C1678 1.399 . S
C1679 C1680 1.385 . S
C1680 H1666 0.931 . S
C1680 C1679 1.385 . S
C1680 C1681 1.389 . S
C1681 C1680 1.389 . S
C1681 C1682 1.387 . S
C1682 H1667 0.930 . S
C1682 C1677 1.390 . S
C1682 C1681 1.387 . S
H1683 C1695 0.930 . S
H1684 C1697 0.930 . S
H1685 C1698 0.930 . S
H1686 C1702 0.959 . S
H1687 C1702 0.959 . S
H1688 C1702 0.961 . S
H1689 C1703 0.960 . S
H1690 C1703 0.961 . S
H1691 C1703 0.959 . S
H1692 C1706 0.929 . S
H1693 C1707 0.931 . S
H1694 C1709 0.930 . S
C1695 H1683 0.930 . S
C1695 C1696 1.399 1_554 S
C1695 C1700 1.399 . S
C1696 C1695 1.399 1_556 S
C1696 C1697 1.376 . S
C1697 H1684 0.930 . S
C1697 C1696 1.376 . S
C1697 C1698 1.388 . S
C1698 H1685 0.930 . S
C1698 C1697 1.388 . S
C1698 C1699 1.390 1_556 S
C1699 C1698 1.390 1_554 S
C1699 C1700 1.394 . S
C1699 C1705 1.465 . S
C1700 C1695 1.399 . S
C1700 C1699 1.394 . S
C1700 C1701 1.516 . S
C1701 C1700 1.516 . S
C1701 C1702 1.502 . S
C1701 C1703 1.561 . S
C1701 C1704 1.526 . S
C1702 H1686 0.959 . S
C1702 H1687 0.959 . S
C1702 H1688 0.961 . S
C1702 C1701 1.502 . S
C1703 H1689 0.960 . S
C1703 H1690 0.961 . S
C1703 H1691 0.959 . S
C1703 C1701 1.561 . S
C1704 C1701 1.526 . S
C1704 C1705 1.396 . S
C1704 C1709 1.390 . S
C1705 C1699 1.465 . S
C1705 C1704 1.396 . S
C1705 C1706 1.399 . S
C1706 H1692 0.929 . S
C1706 C1705 1.399 . S
C1706 C1707 1.385 . S
C1707 H1693 0.931 . S
C1707 C1706 1.385 . S
C1707 C1708 1.389 . S
C1708 C1707 1.389 . S
C1708 C1709 1.387 . S
C1709 H1694 0.930 . S
C1709 C1704 1.390 . S
C1709 C1708 1.387 . S
H1710 C1722 0.930 . S
H1711 C1724 0.930 . S
H1712 C1725 0.930 . S
H1713 C1729 0.959 . S
H1714 C1729 0.959 . S
H1715 C1729 0.961 . S
H1716 C1730 0.960 . S
H1717 C1730 0.961 . S
H1718 C1730 0.959 . S
H1719 C1733 0.929 . S
H1720 C1734 0.931 . S
H1721 C1736 0.930 . S
C1722 H1710 0.930 . S
C1722 C1723 1.399 . S
C1722 C1727 1.399 1_655 S
C1723 C1722 1.399 . S
C1723 C1724 1.376 1_655 S
C1724 H1711 0.930 . S
C1724 C1723 1.376 1_455 S
C1724 C1725 1.388 . S
C1725 H1712 0.930 . S
C1725 C1724 1.388 . S
C1725 C1726 1.390 . S
C1726 C1725 1.390 . S
C1726 C1727 1.394 . S
C1726 C1732 1.465 . S
C1727 C1722 1.399 1_455 S
C1727 C1726 1.394 . S
C1727 C1728 1.516 . S
C1728 C1727 1.516 . S
C1728 C1729 1.502 1_455 S
C1728 C1730 1.561 . S
C1728 C1731 1.526 . S
C1729 H1713 0.959 . S
C1729 H1714 0.959 . S
C1729 H1715 0.961 . S
C1729 C1728 1.502 1_655 S
C1730 H1716 0.960 . S
C1730 H1717 0.961 . S
C1730 H1718 0.959 . S
C1730 C1728 1.561 . S
C1731 C1728 1.526 . S
C1731 C1732 1.396 . S
C1731 C1736 1.390 . S
C1732 C1726 1.465 . S
C1732 C1731 1.396 . S
C1732 C1733 1.399 . S
C1733 H1719 0.929 . S
C1733 C1732 1.399 . S
C1733 C1734 1.385 . S
C1734 H1720 0.931 . S
C1734 C1733 1.385 . S
C1734 C1735 1.389 . S
C1735 C1734 1.389 . S
C1735 C1736 1.387 . S
C1736 H1721 0.930 . S
C1736 C1731 1.390 . S
C1736 C1735 1.387 . S
H1737 C1749 0.930 . S
H1738 C1751 0.930 . S
H1739 C1752 0.930 . S
H1740 C1756 0.959 . S
H1741 C1756 0.959 . S
H1742 C1756 0.961 . S
H1743 C1757 0.960 . S
H1744 C1757 0.961 . S
H1745 C1757 0.959 . S
H1746 C1760 0.929 . S
H1747 C1761 0.931 . S
H1748 C1763 0.930 . S
C1749 H1737 0.930 . S
C1749 C1750 1.399 . S
C1749 C1754 1.399 . S
C1750 C1749 1.399 . S
C1750 C1751 1.376 . S
C1751 H1738 0.930 . S
C1751 C1750 1.376 . S
C1751 C1752 1.388 . S
C1752 H1739 0.930 . S
C1752 C1751 1.388 . S
C1752 C1753 1.390 . S
C1753 C1752 1.390 . S
C1753 C1754 1.394 . S
C1753 C1759 1.465 . S
C1754 C1749 1.399 . S
C1754 C1753 1.394 . S
C1754 C1755 1.516 . S
C1755 C1754 1.516 . S
C1755 C1756 1.502 . S
C1755 C1757 1.561 . S
C1755 C1758 1.526 . S
C1756 H1740 0.959 . S
C1756 H1741 0.959 . S
C1756 H1742 0.961 . S
C1756 C1755 1.502 . S
C1757 H1743 0.960 . S
C1757 H1744 0.961 . S
C1757 H1745 0.959 . S
C1757 C1755 1.561 . S
C1758 C1755 1.526 . S
C1758 C1759 1.396 . S
C1758 C1763 1.390 . S
C1759 C1753 1.465 . S
C1759 C1758 1.396 . S
C1759 C1760 1.399 . S
C1760 H1746 0.929 . S
C1760 C1759 1.399 . S
C1760 C1761 1.385 . S
C1761 H1747 0.931 . S
C1761 C1760 1.385 . S
C1761 C1762 1.389 . S
C1762 C1761 1.389 . S
C1762 C1763 1.387 . S
C1763 H1748 0.930 . S
C1763 C1758 1.390 . S
C1763 C1762 1.387 . S
H1764 C1776 0.930 . S
H1765 C1778 0.930 . S
H1766 C1779 0.930 . S
H1767 C1783 0.959 . S
H1768 C1783 0.959 . S
H1769 C1783 0.961 . S
H1770 C1784 0.960 . S
H1771 C1784 0.961 . S
H1772 C1784 0.959 . S
H1773 C1787 0.929 . S
H1774 C1788 0.931 . S
H1775 C1790 0.930 . S
C1776 H1764 0.930 . S
C1776 C1777 1.399 . S
C1776 C1781 1.399 . S
C1777 C1776 1.399 . S
C1777 C1778 1.376 . S
C1778 H1765 0.930 . S
C1778 C1777 1.376 . S
C1778 C1779 1.388 . S
C1779 H1766 0.930 . S
C1779 C1778 1.388 . S
C1779 C1780 1.390 . S
C1780 C1779 1.390 . S
C1780 C1781 1.394 . S
C1780 C1786 1.465 . S
C1781 C1776 1.399 . S
C1781 C1780 1.394 . S
C1781 C1782 1.516 . S
C1782 C1781 1.516 . S
C1782 C1783 1.502 . S
C1782 C1784 1.561 . S
C1782 C1785 1.526 . S
C1783 H1767 0.959 . S
C1783 H1768 0.959 . S
C1783 H1769 0.961 . S
C1783 C1782 1.502 . S
C1784 H1770 0.960 . S
C1784 H1771 0.961 . S
C1784 H1772 0.959 . S
C1784 C1782 1.561 . S
C1785 C1782 1.526 . S
C1785 C1786 1.396 . S
C1785 C1790 1.390 . S
C1786 C1780 1.465 . S
C1786 C1785 1.396 . S
C1786 C1787 1.399 . S
C1787 H1773 0.929 . S
C1787 C1786 1.399 . S
C1787 C1788 1.385 . S
C1788 H1774 0.931 . S
C1788 C1787 1.385 . S
C1788 C1789 1.389 . S
C1789 C1788 1.389 . S
C1789 C1790 1.387 . S
C1790 H1775 0.930 . S
C1790 C1785 1.390 . S
C1790 C1789 1.387 . S
H1791 C1803 0.930 1_554 S
H1792 C1805 0.930 . S
H1793 C1806 0.930 . S
H1794 C1810 0.959 1_545 S
H1795 C1810 0.959 . S
H1796 C1810 0.961 1_554 S
H1797 C1811 0.960 . S
H1798 C1811 0.961 . S
H1799 C1811 0.959 . S
H1800 C1814 0.929 . S
H1801 C1815 0.931 . S
H1802 C1817 0.930 . S
C1803 H1791 0.930 1_556 S
C1803 C1804 1.399 . S
C1803 C1808 1.398 1_565 S
C1804 C1803 1.399 . S
C1804 C1805 1.376 1_565 S
C1805 H1792 0.930 . S
C1805 C1804 1.376 1_545 S
C1805 C1806 1.388 . S
C1806 H1793 0.930 . S
C1806 C1805 1.388 . S
C1806 C1807 1.390 . S
C1807 C1806 1.390 . S
C1807 C1808 1.398 . S
C1807 C1813 1.465 . S
C1808 C1803 1.398 1_545 S
C1808 C1807 1.398 . S
C1808 C1809 1.513 1_545 S
C1809 C1808 1.513 1_565 S
C1809 C1810 1.502 . S
C1809 C1811 1.561 . S
C1809 C1812 1.526 1_565 S
C1810 H1794 0.959 1_565 S
C1810 H1795 0.959 . S
C1810 H1796 0.961 1_556 S
C1810 C1809 1.502 . S
C1811 H1797 0.960 . S
C1811 H1798 0.961 . S
C1811 H1799 0.959 . S
C1811 C1809 1.561 . S
C1812 C1809 1.526 1_545 S
C1812 C1813 1.396 . S
C1812 C1817 1.390 . S
C1813 C1807 1.465 . S
C1813 C1812 1.396 . S
C1813 C1814 1.399 . S
C1814 H1800 0.929 . S
C1814 C1813 1.399 . S
C1814 C1815 1.385 . S
C1815 H1801 0.931 . S
C1815 C1814 1.385 . S
C1815 C1816 1.389 . S
C1816 C1815 1.389 . S
C1816 C1817 1.387 . S
C1817 H1802 0.930 . S
C1817 C1812 1.390 . S
C1817 C1816 1.387 . S
H1818 C1830 0.930 . S
H1819 C1832 0.930 . S
H1820 C1833 0.930 . S
H1821 C1837 0.962 . S
H1822 C1837 0.959 1_554 S
H1823 C1837 0.961 . S
H1824 C1838 0.960 . S
H1825 C1838 0.961 . S
H1826 C1838 0.959 . S
H1827 C1841 0.929 . S
H1828 C1842 0.931 . S
H1829 C1844 0.930 1_554 S
C1830 H1818 0.930 . S
C1830 C1831 1.399 . S
C1830 C1835 1.399 . S
C1831 C1830 1.399 . S
C1831 C1832 1.376 . S
C1832 H1819 0.930 . S
C1832 C1831 1.376 . S
C1832 C1833 1.388 . S
C1833 H1820 0.930 . S
C1833 C1832 1.388 . S
C1833 C1834 1.390 . S
C1834 C1833 1.390 . S
C1834 C1835 1.394 . S
C1834 C1840 1.465 . S
C1835 C1830 1.399 . S
C1835 C1834 1.394 . S
C1835 C1836 1.516 . S
C1836 C1835 1.516 . S
C1836 C1837 1.502 . S
C1836 C1838 1.561 . S
C1836 C1839 1.526 . S
C1837 H1821 0.962 . S
C1837 H1822 0.959 1_556 S
C1837 H1823 0.961 . S
C1837 C1836 1.502 . S
C1838 H1824 0.960 . S
C1838 H1825 0.961 . S
C1838 H1826 0.959 . S
C1838 C1836 1.561 . S
C1839 C1836 1.526 . S
C1839 C1840 1.396 . S
C1839 C1844 1.390 . S
C1840 C1834 1.465 . S
C1840 C1839 1.396 . S
C1840 C1841 1.399 . S
C1841 H1827 0.929 . S
C1841 C1840 1.399 . S
C1841 C1842 1.385 . S
C1842 H1828 0.931 . S
C1842 C1841 1.385 . S
C1842 C1843 1.389 . S
C1843 C1842 1.389 . S
C1843 C1844 1.387 . S
C1844 H1829 0.930 1_556 S
C1844 C1839 1.390 . S
C1844 C1843 1.387 . S
H1845 C1857 0.930 . S
H1846 C1859 0.930 . S
H1847 C1860 0.930 . S
H1848 C1864 0.959 . S
H1849 C1864 0.959 . S
H1850 C1864 0.961 . S
H1851 C1865 0.960 . S
H1852 C1865 0.961 . S
H1853 C1865 0.959 . S
H1854 C1868 0.929 . S
H1855 C1869 0.931 . S
H1856 C1871 0.930 . S
C1857 H1845 0.930 . S
C1857 C1858 1.399 . S
C1857 C1862 1.399 . S
C1858 C1857 1.399 . S
C1858 C1859 1.376 . S
C1859 H1846 0.930 . S
C1859 C1858 1.376 . S
C1859 C1860 1.388 . S
C1860 H1847 0.930 . S
C1860 C1859 1.388 . S
C1860 C1861 1.390 . S
C1861 C1860 1.390 . S
C1861 C1862 1.394 . S
C1861 C1867 1.465 . S
C1862 C1857 1.399 . S
C1862 C1861 1.394 . S
C1862 C1863 1.516 . S
C1863 C1862 1.516 . S
C1863 C1864 1.502 . S
C1863 C1865 1.561 . S
C1863 C1866 1.526 . S
C1864 H1848 0.959 . S
C1864 H1849 0.959 . S
C1864 H1850 0.961 . S
C1864 C1863 1.502 . S
C1865 H1851 0.960 . S
C1865 H1852 0.961 . S
C1865 H1853 0.959 . S
C1865 C1863 1.561 . S
C1866 C1863 1.526 . S
C1866 C1867 1.396 . S
C1866 C1871 1.390 . S
C1867 C1861 1.465 . S
C1867 C1866 1.396 . S
C1867 C1868 1.399 1_556 S
C1868 H1854 0.929 . S
C1868 C1867 1.399 1_554 S
C1868 C1869 1.385 . S
C1869 H1855 0.931 . S
C1869 C1868 1.385 . S
C1869 C1870 1.389 . S
C1870 C1869 1.389 . S
C1870 C1871 1.387 1_554 S
C1871 H1856 0.930 . S
C1871 C1866 1.390 . S
C1871 C1870 1.387 1_556 S
H1872 C1884 0.930 . S
H1873 C1886 0.930 . S
H1874 C1887 0.930 . S
H1875 C1891 0.959 . S
H1876 C1891 0.959 . S
H1877 C1891 0.961 . S
H1878 C1892 0.960 . S
H1879 C1892 0.961 . S
H1880 C1892 0.959 . S
H1881 C1895 0.929 . S
H1882 C1896 0.931 . S
H1883 C1898 0.930 . S
C1884 H1872 0.930 . S
C1884 C1885 1.399 . S
C1884 C1889 1.399 . S
C1885 C1884 1.399 . S
C1885 C1886 1.376 . S
C1886 H1873 0.930 . S
C1886 C1885 1.376 . S
C1886 C1887 1.388 . S
C1887 H1874 0.930 . S
C1887 C1886 1.388 . S
C1887 C1888 1.390 . S
C1888 C1887 1.390 . S
C1888 C1889 1.394 . S
C1888 C1894 1.465 . S
C1889 C1884 1.399 . S
C1889 C1888 1.394 . S
C1889 C1890 1.516 . S
C1890 C1889 1.516 . S
C1890 C1891 1.502 . S
C1890 C1892 1.561 . S
C1890 C1893 1.526 . S
C1891 H1875 0.959 . S
C1891 H1876 0.959 . S
C1891 H1877 0.961 . S
C1891 C1890 1.502 . S
C1892 H1878 0.960 . S
C1892 H1879 0.961 . S
C1892 H1880 0.959 . S
C1892 C1890 1.561 . S
C1893 C1890 1.526 . S
C1893 C1894 1.396 . S
C1893 C1898 1.390 . S
C1894 C1888 1.465 . S
C1894 C1893 1.396 . S
C1894 C1895 1.399 . S
C1895 H1881 0.929 . S
C1895 C1894 1.399 . S
C1895 C1896 1.385 . S
C1896 H1882 0.931 . S
C1896 C1895 1.385 . S
C1896 C1897 1.389 . S
C1897 C1896 1.389 . S
C1897 C1898 1.387 . S
C1898 H1883 0.930 . S
C1898 C1893 1.390 . S
C1898 C1897 1.387 . S
H1899 C1911 0.930 . S
H1900 C1913 0.930 . S
H1901 C1914 0.930 . S
H1902 C1918 0.959 . S
H1903 C1918 0.959 . S
H1904 C1918 0.961 . S
H1905 C1919 0.960 . S
H1906 C1919 0.961 . S
H1907 C1919 0.959 . S
H1908 C1922 0.929 . S
H1909 C1923 0.931 . S
H1910 C1925 0.930 . S
C1911 H1899 0.930 . S
C1911 C1912 1.399 . S
C1911 C1916 1.399 . S
C1912 C1911 1.399 . S
C1912 C1913 1.376 . S
C1913 H1900 0.930 . S
C1913 C1912 1.376 . S
C1913 C1914 1.388 . S
C1914 H1901 0.930 . S
C1914 C1913 1.388 . S
C1914 C1915 1.390 . S
C1915 C1914 1.390 . S
C1915 C1916 1.394 . S
C1915 C1921 1.465 . S
C1916 C1911 1.399 . S
C1916 C1915 1.394 . S
C1916 C1917 1.516 . S
C1917 C1916 1.516 . S
C1917 C1918 1.502 . S
C1917 C1919 1.561 . S
C1917 C1920 1.526 . S
C1918 H1902 0.959 . S
C1918 H1903 0.959 . S
C1918 H1904 0.961 . S
C1918 C1917 1.502 . S
C1919 H1905 0.960 . S
C1919 H1906 0.961 . S
C1919 H1907 0.959 . S
C1919 C1917 1.561 . S
C1920 C1917 1.526 . S
C1920 C1921 1.396 . S
C1920 C1925 1.390 . S
C1921 C1915 1.465 . S
C1921 C1920 1.396 . S
C1921 C1922 1.399 . S
C1922 H1908 0.929 . S
C1922 C1921 1.399 . S
C1922 C1923 1.385 . S
C1923 H1909 0.931 . S
C1923 C1922 1.385 . S
C1923 C1924 1.389 . S
C1924 C1923 1.389 . S
C1924 C1925 1.387 . S
C1925 H1910 0.930 . S
C1925 C1920 1.390 . S
C1925 C1924 1.387 . S
H1926 C1938 0.930 . S
H1927 C1940 0.930 . S
H1928 C1941 0.930 . S
H1929 C1945 0.959 . S
H1930 C1945 0.959 . S
H1931 C1945 0.961 . S
H1932 C1946 0.960 . S
H1933 C1946 0.961 . S
H1934 C1946 0.959 . S
H1935 C1949 0.929 . S
H1936 C1950 0.931 . S
H1937 C1952 0.930 . S
C1938 H1926 0.930 . S
C1938 C1939 1.399 . S
C1938 C1943 1.399 . S
C1939 C1938 1.399 . S
C1939 C1940 1.376 . S
C1940 H1927 0.930 . S
C1940 C1939 1.376 . S
C1940 C1941 1.388 . S
C1941 H1928 0.930 . S
C1941 C1940 1.388 . S
C1941 C1942 1.390 . S
C1942 C1941 1.390 . S
C1942 C1943 1.394 . S
C1942 C1948 1.465 . S
C1943 C1938 1.399 . S
C1943 C1942 1.394 . S
C1943 C1944 1.516 . S
C1944 C1943 1.516 . S
C1944 C1945 1.502 . S
C1944 C1946 1.561 . S
C1944 C1947 1.526 . S
C1945 H1929 0.959 . S
C1945 H1930 0.959 . S
C1945 H1931 0.961 . S
C1945 C1944 1.502 . S
C1946 H1932 0.960 . S
C1946 H1933 0.961 . S
C1946 H1934 0.959 . S
C1946 C1944 1.561 . S
C1947 C1944 1.526 . S
C1947 C1948 1.396 . S
C1947 C1952 1.390 . S
C1948 C1942 1.465 . S
C1948 C1947 1.396 . S
C1948 C1949 1.399 . S
C1949 H1935 0.929 . S
C1949 C1948 1.399 . S
C1949 C1950 1.385 . S
C1950 H1936 0.931 . S
C1950 C1949 1.385 . S
C1950 C1951 1.389 . S
C1951 C1950 1.389 . S
C1951 C1952 1.387 . S
C1952 H1937 0.930 . S
C1952 C1947 1.390 . S
C1952 C1951 1.387 . S
H1953 C1965 0.930 . S
H1954 C1967 0.930 . S
H1955 C1968 0.930 . S
H1956 C1972 0.959 . S
H1957 C1972 0.959 . S
H1958 C1972 0.961 . S
H1959 C1973 0.960 . S
H1960 C1973 0.961 . S
H1961 C1973 0.959 . S
H1962 C1976 0.929 . S
H1963 C1977 0.931 . S
H1964 C1979 0.930 . S
C1965 H1953 0.930 . S
C1965 C1966 1.399 . S
C1965 C1970 1.399 . S
C1966 C1965 1.399 . S
C1966 C1967 1.376 . S
C1967 H1954 0.930 . S
C1967 C1966 1.376 . S
C1967 C1968 1.388 . S
C1968 H1955 0.930 . S
C1968 C1967 1.388 . S
C1968 C1969 1.390 . S
C1969 C1968 1.390 . S
C1969 C1970 1.394 . S
C1969 C1975 1.465 . S
C1970 C1965 1.399 . S
C1970 C1969 1.394 . S
C1970 C1971 1.516 . S
C1971 C1970 1.516 . S
C1971 C1972 1.502 . S
C1971 C1973 1.561 . S
C1971 C1974 1.526 . S
C1972 H1956 0.959 . S
C1972 H1957 0.959 . S
C1972 H1958 0.961 . S
C1972 C1971 1.502 . S
C1973 H1959 0.960 . S
C1973 H1960 0.961 . S
C1973 H1961 0.959 . S
C1973 C1971 1.561 . S
C1974 C1971 1.526 . S
C1974 C1975 1.396 . S
C1974 C1979 1.390 . S
C1975 C1969 1.465 . S
C1975 C1974 1.396 . S
C1975 C1976 1.399 . S
C1976 H1962 0.929 . S
C1976 C1975 1.399 . S
C1976 C1977 1.385 . S
C1977 H1963 0.931 . S
C1977 C1976 1.385 . S
C1977 C1978 1.389 . S
C1978 C1977 1.389 . S
C1978 C1979 1.387 . S
C1979 H1964 0.930 . S
C1979 C1974 1.390 . S
C1979 C1978 1.387 . S
H1980 C1992 0.930 . S
H1981 C1994 0.930 . S
H1982 C1995 0.930 . S
H1983 C1999 0.959 . S
H1984 C1999 0.959 . S
H1985 C1999 0.961 . S
H1986 C2000 0.960 . S
H1987 C2000 0.961 . S
H1988 C2000 0.959 . S
H1989 C2003 0.929 . S
H1990 C2004 0.931 . S
H1991 C2006 0.930 . S
C1992 H1980 0.930 . S
C1992 C1993 1.399 . S
C1992 C1997 1.399 . S
C1993 C1992 1.399 . S
C1993 C1994 1.376 . S
C1994 H1981 0.930 . S
C1994 C1993 1.376 . S
C1994 C1995 1.388 . S
C1995 H1982 0.930 . S
C1995 C1994 1.388 . S
C1995 C1996 1.390 . S
C1996 C1995 1.390 . S
C1996 C1997 1.394 . S
C1996 C2002 1.465 . S
C1997 C1992 1.399 . S
C1997 C1996 1.394 . S
C1997 C1998 1.516 . S
C1998 C1997 1.516 . S
C1998 C1999 1.502 . S
C1998 C2000 1.561 . S
C1998 C2001 1.526 . S
C1999 H1983 0.959 . S
C1999 H1984 0.959 . S
C1999 H1985 0.961 . S
C1999 C1998 1.502 . S
C2000 H1986 0.960 . S
C2000 H1987 0.961 . S
C2000 H1988 0.959 . S
C2000 C1998 1.561 . S
C2001 C1998 1.526 . S
C2001 C2002 1.396 . S
C2001 C2006 1.390 . S
C2002 C1996 1.465 . S
C2002 C2001 1.396 . S
C2002 C2003 1.399 . S
C2003 H1989 0.929 . S
C2003 C2002 1.399 . S
C2003 C2004 1.385 . S
C2004 H1990 0.931 . S
C2004 C2003 1.385 . S
C2004 C2005 1.389 . S
C2005 C2004 1.389 . S
C2005 C2006 1.387 . S
C2006 H1991 0.930 . S
C2006 C2001 1.390 . S
C2006 C2005 1.387 . S
H2007 C2019 0.930 . S
H2008 C2021 0.930 . S
H2009 C2022 0.930 . S
H2010 C2026 0.959 . S
H2011 C2026 0.959 . S
H2012 C2026 0.961 . S
H2013 C2027 0.960 . S
H2014 C2027 0.961 . S
H2015 C2027 0.959 . S
H2016 C2030 0.929 . S
H2017 C2031 0.931 . S
H2018 C2033 0.930 . S
C2019 H2007 0.930 . S
C2019 C2020 1.399 . S
C2019 C2024 1.399 . S
C2020 C2019 1.399 . S
C2020 C2021 1.376 . S
C2021 H2008 0.930 . S
C2021 C2020 1.376 . S
C2021 C2022 1.388 . S
C2022 H2009 0.930 . S
C2022 C2021 1.388 . S
C2022 C2023 1.390 . S
C2023 C2022 1.390 . S
C2023 C2024 1.394 . S
C2023 C2029 1.465 . S
C2024 C2019 1.399 . S
C2024 C2023 1.394 . S
C2024 C2025 1.516 . S
C2025 C2024 1.516 . S
C2025 C2026 1.502 . S
C2025 C2027 1.561 . S
C2025 C2028 1.526 . S
C2026 H2010 0.959 . S
C2026 H2011 0.959 . S
C2026 H2012 0.961 . S
C2026 C2025 1.502 . S
C2027 H2013 0.960 . S
C2027 H2014 0.961 . S
C2027 H2015 0.959 . S
C2027 C2025 1.561 . S
C2028 C2025 1.526 . S
C2028 C2029 1.396 . S
C2028 C2033 1.390 . S
C2029 C2023 1.465 . S
C2029 C2028 1.396 . S
C2029 C2030 1.399 . S
C2030 H2016 0.929 . S
C2030 C2029 1.399 . S
C2030 C2031 1.385 . S
C2031 H2017 0.931 . S
C2031 C2030 1.385 . S
C2031 C2032 1.389 . S
C2032 C2031 1.389 . S
C2032 C2033 1.387 . S
C2033 H2018 0.930 . S
C2033 C2028 1.390 . S
C2033 C2032 1.387 . S
C1075 C180 1.294 . S
C1087 C3 1.286 . S
C1102 C241 1.313 . S
C1114 C64 1.287 . S
C1129 C121 1.313 . S
C1141 C298 1.269 . S
C1156 C123 1.282 . S
C1168 C300 1.314 . S
C1183 C5 1.288 . S
C1195 C182 1.296 . S
C1210 C239 1.315 . S
C1222 C62 1.271 . S
C1237 C534 1.269 . S
C1249 C359 1.315 . S
C1264 C418 1.275 . S
C1276 C593 1.315 . S
C1291 C477 1.315 . S
C1303 C652 1.270 . S
C1318 C654 1.315 . S
C1330 C475 1.270 . S
C1345 C536 1.300 . S
C1357 C357 1.311 . S
C1372 C595 1.291 . S
C1384 C416 1.281 . S
C1399 C711 1.275 . S
C1411 C888 1.307 . S
C1426 C772 1.318 . S
C1438 C949 1.277 . S
C1453 C829 1.287 . S
C1465 C1006 1.307 . S
C1480 C1008 1.317 . S
C1492 C831 1.277 . S
C1507 C890 1.287 . S
C1519 C713 1.299 . S
C1534 C947 1.302 . S
C1546 C770 1.274 . S
C1561 C33 1.501 . S
C1573 C446 1.521 . S
C1588 C111 1.494 . S
C1600 C505 1.521 . S
C1615 C387 1.495 . S
C1627 C151 1.520 . S
C1642 C170 1.517 . S
C1654 C819 1.503 1_554 S
C1669 C859 1.523 . S
C1681 C52 1.498 . S
C1696 C741 1.520 . S
C1708 C92 1.500 . S
C1723 C977 1.506 . S
C1735 C210 1.491 . S
C1750 C288 1.495 . S
C1762 C1055 1.523 . S
C1777 C937 1.522 . S
C1789 C328 1.507 . S
C1804 C623 1.491 1_556 S
C1816 C347 1.512 . S
C1831 C229 1.520 . S
C1843 C682 1.510 1_556 S
C1858 C269 1.504 . S
C1870 C564 1.519 . S
C1885 C406 1.499 . S
C1897 C800 1.520 . S
C1912 C465 1.519 . S
C1924 C878 1.498 . S
C1939 C524 1.512 . S
C1951 C760 1.508 . S
C1966 C996 1.510 . S
C1978 C701 1.502 . S
C1993 C1036 1.496 . S
C2005 C583 1.521 . S
C2020 C642 1.520 . S
C2032 C918 1.496 . S
