# Generated by pormake.
# Topology acs-g, (3)-cn, num edge types: 1
# Building blocks:
#     Node 0, Type 0, BuildingBlock: OLANEW_clean_sbu_2, # of connection points: 3
#     Node 1, Type 0, BuildingBlock: OLANEW_clean_sbu_2, # of connection points: 3
#     Node 2, Type 0, BuildingBlock: OLANEW_clean_sbu_2, # of connection points: 3
#     Node 3, Type 0, BuildingBlock: OLANEW_clean_sbu_2, # of connection points: 3
#     Node 4, Type 0, BuildingBlock: OLANEW_clean_sbu_2, # of connection points: 3
#     Node 5, Type 0, BuildingBlock: OLANEW_clean_sbu_2, # of connection points: 3
#     Node 6, Type 0, BuildingBlock: OLANEW_clean_sbu_2, # of connection points: 3
#     Node 7, Type 0, BuildingBlock: OLANEW_clean_sbu_2, # of connection points: 3
#     Node 8, Type 0, BuildingBlock: OLANEW_clean_sbu_2, # of connection points: 3
#     Node 9, Type 0, BuildingBlock: OLANEW_clean_sbu_2, # of connection points: 3
#     Node 10, Type 0, BuildingBlock: OLANEW_clean_sbu_2, # of connection points: 3
#     Node 11, Type 0, BuildingBlock: OLANEW_clean_sbu_2, # of connection points: 3
#     Edge 12, Type (0, 0), BuildingBlock: OJICUG_clean_linker_0, # of connection points: 2
#     Edge 13, Type (0, 0), BuildingBlock: OJICUG_clean_linker_0, # of connection points: 2
#     Edge 14, Type (0, 0), BuildingBlock: OJICUG_clean_linker_0, # of connection points: 2
#     Edge 15, Type (0, 0), BuildingBlock: OJICUG_clean_linker_0, # of connection points: 2
#     Edge 16, Type (0, 0), BuildingBlock: OJICUG_clean_linker_0, # of connection points: 2
#     Edge 17, Type (0, 0), BuildingBlock: OJICUG_clean_linker_0, # of connection points: 2
#     Edge 18, Type (0, 0), BuildingBlock: OJICUG_clean_linker_0, # of connection points: 2
#     Edge 19, Type (0, 0), BuildingBlock: OJICUG_clean_linker_0, # of connection points: 2
#     Edge 20, Type (0, 0), BuildingBlock: OJICUG_clean_linker_0, # of connection points: 2
#     Edge 21, Type (0, 0), BuildingBlock: OJICUG_clean_linker_0, # of connection points: 2
#     Edge 22, Type (0, 0), BuildingBlock: OJICUG_clean_linker_0, # of connection points: 2
#     Edge 23, Type (0, 0), BuildingBlock: OJICUG_clean_linker_0, # of connection points: 2
#     Edge 24, Type (0, 0), BuildingBlock: OJICUG_clean_linker_0, # of connection points: 2
#     Edge 25, Type (0, 0), BuildingBlock: OJICUG_clean_linker_0, # of connection points: 2
#     Edge 26, Type (0, 0), BuildingBlock: OJICUG_clean_linker_0, # of connection points: 2
#     Edge 27, Type (0, 0), BuildingBlock: OJICUG_clean_linker_0, # of connection points: 2
#     Edge 28, Type (0, 0), BuildingBlock: OJICUG_clean_linker_0, # of connection points: 2
#     Edge 29, Type (0, 0), BuildingBlock: OJICUG_clean_linker_0, # of connection points: 2
# Relax obj value: 0.000
# Max RMSD: 0.029
# Mean RMSD: 0.029
data_MOF--net-acs-g--node1-OLANEW_clean_sbu_2--edge1-OJICUG_clean_linker_0
_symmetry_space_group_name_H-M    P1
_symmetry_Int_Tables_number       1
_symmetry_cell_setting            triclinic
loop_
_symmetry_equiv_pos_as_xyz
'x, y, z'
_cell_length_a     40.979102
_cell_length_b     40.985174
_cell_length_c     35.011658
_cell_angle_alpha  90.368602
_cell_angle_beta   89.723822
_cell_angle_gamma 119.77169
loop_
_atom_site_label
_atom_site_type_symbol
_atom_site_fract_x
_atom_site_fract_y
_atom_site_fract_z
_atom_type_partial_charge
O0 O 0.38614 0.42215 0.19469 0.0
Cd1 Cd 0.33104 0.37005 0.16438 0.0
O2 O 0.36983 0.39863 0.25249 0.0
Cd3 Cd 0.31234 0.35744 0.23639 0.0
O4 O 0.25376 0.34421 0.24045 0.0
C5 C 0.24215 0.35969 0.21698 0.0
O6 O 0.26478 0.38041 0.18948 0.0
C7 C 0.3935 0.42358 0.23012 0.0
C8 C 0.34462 0.36047 0.08793 0.0
O9 O 0.33061 0.38128 0.0972 0.0
O10 O 0.35223 0.34423 0.1148 0.0
O11 O 0.9596 0.4393 0.70493 0.0
Cd12 Cd 0.93525 0.37739 0.6747 0.0
O13 O 0.97064 0.41951 0.75906 0.0
Cd14 Cd 0.94159 0.36045 0.7419 0.0
O15 O 0.89557 0.30265 0.73631 0.0
C16 C 0.88254 0.28299 0.76631 0.0
O17 O 0.89854 0.29746 0.79929 0.0
C18 C 0.97235 0.44604 0.73888 0.0
C19 C 0.95864 0.38036 0.59904 0.0
O20 O 0.97933 0.38141 0.6269 0.0
O21 O 0.9271 0.37831 0.60695 0.0
O22 O 0.54877 0.99551 0.14402 0.0
Cd23 Cd 0.57709 0.98086 0.08969 0.0
O24 O 0.56159 0.9571 0.17473 0.0
Cd25 Cd 0.55835 0.9174 0.21825 0.0
O26 O 0.56061 0.87132 0.24691 0.0
C27 C 0.58884 0.8671 0.24033 0.0
O28 O 0.61572 0.89124 0.21793 0.0
C29 C 0.54632 0.9776 0.17438 0.0
C30 C 0.60287 0.03191 0.0297 0.0
O31 O 0.56767 0.00909 0.03429 0.0
O32 O 0.62588 0.03138 0.05402 0.0
O33 O 0.57962 0.50429 0.68744 0.0
Cd34 Cd 0.63591 0.53646 0.64763 0.0
O35 O 0.60799 0.50633 0.74136 0.0
Cd36 Cd 0.66501 0.53533 0.71799 0.0
O37 O 0.72464 0.55208 0.71499 0.0
C38 C 0.73356 0.52699 0.70819 0.0
O39 O 0.70674 0.49243 0.70117 0.0
C40 C 0.57794 0.49655 0.72275 0.0
C41 C 0.61774 0.55859 0.57945 0.0
O42 O 0.60949 0.52446 0.58482 0.0
O43 O 0.63519 0.58265 0.60599 0.0
O44 O 0.05841 0.59567 0.21156 0.0
Cd45 Cd 0.076 0.65766 0.18589 0.0
O46 O 0.05043 0.60952 0.27045 0.0
Cd47 Cd 0.0734 0.66912 0.25841 0.0
O48 O 0.1181 0.72778 0.26051 0.0
C49 C 0.1358 0.73957 0.29186 0.0
O50 O 0.12507 0.71672 0.32122 0.0
C51 C 0.04917 0.58577 0.24609 0.0
C52 C 0.07659 0.6577 0.10607 0.0
O53 O 0.10603 0.66473 0.12511 0.0
O54 O 0.04685 0.65065 0.12479 0.0
O55 O 0.4676 0.10973 0.66263 0.0
Cd56 Cd 0.42012 0.10879 0.61986 0.0
O57 O 0.43252 0.05437 0.68889 0.0
Cd58 Cd 0.38365 0.05788 0.6701 0.0
O59 O 0.35909 0.09434 0.67643 0.0
C60 C 0.35465 0.10273 0.71036 0.0
O61 O 0.36206 0.08682 0.73894 0.0
C62 C 0.46455 0.08337 0.68399 0.0
C63 C 0.4121 0.06419 0.55609 0.0
O64 O 0.43986 0.09773 0.55895 0.0
O65 O 0.3877 0.05173 0.58306 0.0
O66 O 0.51418 0.56155 0.33473 0.0
Cd67 Cd 0.54731 0.61793 0.37443 0.0
O68 O 0.51989 0.59042 0.28024 0.0
Cd69 Cd 0.5483 0.64738 0.30375 0.0
O70 O 0.55848 0.70502 0.30291 0.0
C71 C 0.58577 0.72984 0.28359 0.0
O72 O 0.60896 0.72083 0.26675 0.0
C73 C 0.50815 0.56017 0.29901 0.0
C74 C 0.57162 0.60068 0.44174 0.0
O75 O 0.53724 0.59201 0.43729 0.0
O76 O 0.59488 0.61799 0.41463 0.0
O77 O 0.0587 0.60577 0.8295 0.0
Cd78 Cd 0.08179 0.66673 0.86107 0.0
O79 O 0.01545 0.61365 0.80158 0.0
Cd80 Cd 0.96386 0.59769 0.76948 0.0
O81 O 0.9094 0.58821 0.74928 0.0
C82 C 0.88518 0.55693 0.7349 0.0
O83 O 0.89352 0.52998 0.73118 0.0
C84 C 0.03072 0.59358 0.80707 0.0
C85 C 0.07928 0.66166 0.9407 0.0
O86 O 0.05107 0.65821 0.92171 0.0
O87 O 0.10858 0.66724 0.92201 0.0
O88 O 0.44131 0.9414 0.32478 0.0
Cd89 Cd 0.39286 0.91525 0.37449 0.0
O90 O 0.40948 0.95552 0.28413 0.0
Cd91 Cd 0.35801 0.92954 0.3181 0.0
O92 O 0.29945 0.88584 0.32556 0.0
C93 C 0.27817 0.87779 0.29658 0.0
O94 O 0.29196 0.89731 0.26515 0.0
C95 C 0.43934 0.95511 0.29297 0.0
C96 C 0.40008 0.96675 0.43096 0.0
O97 O 0.42172 0.95253 0.43027 0.0
O98 O 0.37521 0.95709 0.40473 0.0
O99 O 0.43509 0.37781 0.8244 0.0
Cd100 Cd 0.37978 0.32454 0.85295 0.0
O101 O 0.41143 0.36484 0.76637 0.0
Cd102 Cd 0.36638 0.30847 0.78074 0.0
O103 O 0.34855 0.24887 0.77376 0.0
C104 C 0.3454 0.23644 0.73981 0.0
O105 O 0.35003 0.25901 0.71126 0.0
C106 C 0.43738 0.38637 0.78924 0.0
C107 C 0.36962 0.33753 0.92944 0.0
O108 O 0.35562 0.34763 0.9024 0.0
O109 O 0.38853 0.3214 0.92032 0.0
O110 O 0.02802 0.43752 0.33458 0.0
Cd111 Cd 0.02657 0.38381 0.36605 0.0
O112 O 0.04114 0.42612 0.27658 0.0
Cd113 Cd 0.05342 0.3817 0.29169 0.0
O114 O 0.09336 0.36187 0.28092 0.0
C115 C 0.1096 0.37099 0.24855 0.0
O116 O 0.10001 0.38937 0.22465 0.0
C117 C 0.03319 0.44556 0.29924 0.0
C118 C 0.00468 0.38139 0.44225 0.0
O119 O 0.03953 0.39733 0.43299 0.0
O120 O 0.98025 0.36614 0.41562 0.0
O121 O 0.61721 0.13636 0.78036 0.0
Cd122 Cd 0.67184 0.15711 0.82211 0.0
O123 O 0.60462 0.07855 0.76773 0.0
Cd124 Cd 0.66014 0.09374 0.78961 0.0
O125 O 0.72059 0.13246 0.79334 0.0
C126 C 0.73709 0.14855 0.76252 0.0
O127 O 0.71759 0.13922 0.73068 0.0
C128 C 0.59604 0.10432 0.76529 0.0
C129 C 0.65189 0.11965 0.892 0.0
O130 O 0.64477 0.1461 0.88494 0.0
O131 O 0.66864 0.111 0.86627 0.0
C132 C 0.19306 0.37538 0.1969 0.0
C133 C 0.20579 0.35852 0.22327 0.0
H134 H 0.15267 0.39221 0.18405 0.0
C135 C 0.18491 0.34316 0.25691 0.0
H136 H 0.20835 0.38733 0.17064 0.0
C137 C 0.15294 0.34614 0.26474 0.0
C138 C 0.14112 0.36436 0.239 0.0
H139 H 0.19394 0.32995 0.27782 0.0
H140 H 0.1381 0.33503 0.29139 0.0
C141 C 0.16107 0.37818 0.20463 0.0
C142 C 0.79582 0.19349 0.79763 0.0
C143 C 0.77621 0.1803 0.76303 0.0
H144 H 0.8449 0.23614 0.82579 0.0
C145 C 0.79338 0.1994 0.72909 0.0
H146 H 0.78345 0.17934 0.82427 0.0
C147 C 0.82859 0.23198 0.72995 0.0
C148 C 0.84742 0.24618 0.76478 0.0
H149 H 0.77916 0.18987 0.7019 0.0
H150 H 0.8405 0.24663 0.70342 0.0
C151 C 0.83106 0.22609 0.79849 0.0
C152 C 0.61844 0.79389 0.25418 0.0
C153 C 0.58867 0.76675 0.27622 0.0
H154 H 0.64198 0.8469 0.22583 0.0
C155 C 0.56037 0.77422 0.28879 0.0
H156 H 0.64079 0.78913 0.24418 0.0
C157 C 0.56096 0.80734 0.27811 0.0
C158 C 0.58995 0.83377 0.25478 0.0
H159 H 0.53708 0.75396 0.3059 0.0
H160 H 0.53819 0.81176 0.28738 0.0
C161 C 0.61911 0.82705 0.24365 0.0
C162 C 0.78261 0.50745 0.70565 0.0
C163 C 0.7731 0.53566 0.71175 0.0
H164 H 0.82539 0.49204 0.70797 0.0
C165 C 0.80135 0.57157 0.72333 0.0
H166 H 0.76157 0.4795 0.69659 0.0
C167 C 0.83796 0.57874 0.72993 0.0
C168 C 0.84717 0.55017 0.72504 0.0
H169 H 0.79502 0.59398 0.72821 0.0
H170 H 0.85884 0.60651 0.73963 0.0
C171 C 0.81924 0.51464 0.71219 0.0
C172 C 0.22599 0.82176 0.32929 0.0
C173 C 0.23991 0.84454 0.29674 0.0
H174 H 0.18209 0.7709 0.35335 0.0
C175 C 0.21785 0.83394 0.26345 0.0
H176 H 0.24219 0.82919 0.35544 0.0
C177 C 0.18339 0.80047 0.26222 0.0
C178 C 0.17022 0.77689 0.29427 0.0
H179 H 0.22764 0.85095 0.23791 0.0
H180 H 0.16759 0.79261 0.2358 0.0
C181 C 0.19151 0.78831 0.32807 0.0
C182 C 0.342 0.18716 0.69465 0.0
C183 C 0.3421 0.19928 0.73235 0.0
H184 H 0.34557 0.14699 0.65805 0.0
C185 C 0.34229 0.17706 0.76266 0.0
H186 H 0.34163 0.20347 0.67061 0.0
C187 C 0.34455 0.14465 0.75543 0.0
C188 C 0.34663 0.13372 0.71774 0.0
H189 H 0.34217 0.18545 0.79204 0.0
H190 H 0.34606 0.12896 0.77948 0.0
C191 C 0.34424 0.15472 0.68742 0.0
C192 C 0.43609 0.4575 0.28516 0.0
C193 C 0.4274 0.45638 0.24619 0.0
H194 H 0.46881 0.49098 0.33233 0.0
C195 C 0.44905 0.48842 0.2238 0.0
H196 H 0.4202 0.4332 0.30317 0.0
C197 C 0.47686 0.52168 0.24059 0.0
C198 C 0.48377 0.52352 0.28007 0.0
H199 H 0.44326 0.48848 0.19365 0.0
H200 H 0.49178 0.54638 0.22287 0.0
C201 C 0.46405 0.49066 0.30189 0.0
C202 C 0.98475 0.51255 0.73648 0.0
C203 C 0.98808 0.48424 0.75555 0.0
H204 H 0.99608 0.56952 0.73751 0.0
C205 C 0.00582 0.49246 0.7914 0.0
H206 H 0.97138 0.50722 0.70876 0.0
C207 C 0.01967 0.52801 0.8079 0.0
C208 C 0.01573 0.55606 0.7892 0.0
H209 H 0.00899 0.47139 0.80685 0.0
H210 H 0.03309 0.53339 0.8356 0.0
C211 C 0.99841 0.54811 0.75318 0.0
C212 C 0.52749 0.96807 0.24361 0.0
C213 C 0.52237 0.9772 0.20637 0.0
H214 H 0.50552 0.95432 0.30045 0.0
C215 C 0.49234 0.98367 0.19918 0.0
H216 H 0.55123 0.9645 0.25046 0.0
C217 C 0.4664 0.97839 0.22791 0.0
C218 C 0.47002 0.96667 0.26453 0.0
H219 H 0.48781 0.9911 0.17084 0.0
H220 H 0.44267 0.98198 0.22089 0.0
C221 C 0.50154 0.96276 0.2724 0.0
C222 C 0.50441 0.43766 0.79656 0.0
C223 C 0.47188 0.41899 0.77397 0.0
H224 H 0.56346 0.47694 0.79816 0.0
C225 C 0.47376 0.42935 0.73547 0.0
H226 H 0.50393 0.43048 0.82635 0.0
C227 C 0.50786 0.45611 0.71934 0.0
C228 C 0.54092 0.47295 0.74128 0.0
H229 H 0.44918 0.41576 0.71732 0.0
H230 H 0.50855 0.46229 0.68922 0.0
C231 C 0.53859 0.46426 0.78035 0.0
C232 C 0.04308 0.52276 0.23304 0.0
C233 C 0.04021 0.54775 0.25868 0.0
H234 H 0.04295 0.47086 0.22564 0.0
C235 C 0.03164 0.53721 0.29716 0.0
H236 H 0.0495 0.52989 0.20317 0.0
C237 C 0.02786 0.5033 0.31008 0.0
C238 C 0.03263 0.47919 0.28481 0.0
H239 H 0.02903 0.55569 0.31766 0.0
H240 H 0.02243 0.49662 0.34014 0.0
C241 C 0.03937 0.48888 0.24596 0.0
C242 C 0.49947 0.05668 0.7191 0.0
C243 C 0.4981 0.08778 0.70426 0.0
H244 H 0.532 0.03738 0.74965 0.0
C245 C 0.52918 0.12391 0.70939 0.0
H246 H 0.47592 0.0285 0.71549 0.0
C247 C 0.56069 0.129 0.72936 0.0
C248 C 0.56228 0.09804 0.74411 0.0
H249 H 0.52897 0.14848 0.69848 0.0
H250 H 0.58403 0.1573 0.73299 0.0
C251 C 0.53152 0.06173 0.73851 0.0
C252 C 0.33971 0.36998 0.01793 0.0
C253 C 0.35155 0.35512 0.04739 0.0
H254 H 0.336 0.376 0.95765 0.0
C255 C 0.3698 0.33484 0.03773 0.0
H256 H 0.32557 0.38574 0.02438 0.0
C257 C 0.37596 0.32942 0.99947 0.0
C258 C 0.36379 0.34395 0.96999 0.0
H259 H 0.37936 0.32309 0.05973 0.0
H260 H 0.39 0.31356 0.99302 0.0
C261 C 0.34566 0.36436 0.97966 0.0
C262 C 0.01897 0.39094 0.51235 0.0
C263 C 0.99296 0.38102 0.4824 0.0
H264 H 0.02848 0.39822 0.5727 0.0
C265 C 0.95566 0.37112 0.49113 0.0
H266 H 0.04792 0.39869 0.50655 0.0
C267 C 0.94465 0.37134 0.52896 0.0
C268 C 0.97056 0.38093 0.55894 0.0
H269 H 0.93497 0.3635 0.46869 0.0
H270 H 0.9157 0.36361 0.53472 0.0
C271 C 0.00783 0.39063 0.55024 0.0
C272 C 0.60708 0.09244 0.94664 0.0
C273 C 0.64043 0.09911 0.92842 0.0
H274 H 0.56858 0.0651 0.99285 0.0
C275 C 0.66214 0.08499 0.94468 0.0
H276 H 0.58979 0.10293 0.93454 0.0
C277 C 0.65064 0.06443 0.97857 0.0
C278 C 0.61661 0.0566 0.99605 0.0
H279 H 0.68803 0.08989 0.93119 0.0
H280 H 0.66771 0.05355 0.99038 0.0
C281 C 0.59493 0.07079 0.97986 0.0
C282 C 0.6299 0.60447 0.52699 0.0
C283 C 0.6064 0.56952 0.54406 0.0
H284 H 0.63766 0.64134 0.48022 0.0
C285 C 0.57155 0.54499 0.52727 0.0
H286 H 0.65694 0.62379 0.53944 0.0
C287 C 0.56004 0.55551 0.49433 0.0
C288 C 0.58376 0.59016 0.47686 0.0
H289 H 0.55288 0.51797 0.54005 0.0
H290 H 0.53284 0.53628 0.48213 0.0
C291 C 0.61896 0.61442 0.49319 0.0
C292 C 0.04509 0.65189 0.04313 0.0
C293 C 0.07702 0.65801 0.06375 0.0
H294 H 0.02074 0.64822 0.98819 0.0
C295 C 0.10948 0.66473 0.04352 0.0
H296 H 0.01961 0.6466 0.05782 0.0
C297 C 0.11009 0.66557 0.00359 0.0
C298 C 0.07829 0.65981 0.98298 0.0
H299 H 0.13454 0.66948 0.05852 0.0
H300 H 0.13563 0.67101 0.98892 0.0
C301 C 0.04574 0.65283 0.00319 0.0
C302 C 0.37078 0.99128 0.47729 0.0
C303 C 0.40319 0.99281 0.46179 0.0
H304 H 0.34819 0.01216 0.52026 0.0
C305 C 0.43851 0.01853 0.47688 0.0
H306 H 0.34322 0.97148 0.46624 0.0
C307 C 0.44142 0.04253 0.50686 0.0
C308 C 0.40896 0.04023 0.52313 0.0
H309 H 0.46388 0.02023 0.46533 0.0
H310 H 0.46899 0.06216 0.51802 0.0
C311 C 0.3736 0.01435 0.50821 0.0
loop_
_geom_bond_atom_site_label_1
_geom_bond_atom_site_label_2
_geom_bond_distance
_geom_bond_site_symmetry_2
_ccdc_geom_bond_type
O0 Cd1 2.300 . S
O0 C7 1.275 . S
Cd1 O0 2.300 . S
Cd1 O9 2.381 . S
Cd1 O10 2.378 . S
O2 Cd3 2.385 . S
O2 C7 1.255 . S
Cd3 O2 2.385 . S
Cd3 O4 2.317 . S
O4 Cd3 2.317 . S
O4 C5 1.232 . S
C5 O4 1.232 . S
C5 O6 1.218 . S
O6 C5 1.218 . S
C7 O0 1.275 . S
C7 O2 1.255 . S
C8 O9 1.258 . S
C8 O10 1.256 . S
O9 Cd1 2.381 . S
O9 C8 1.258 . S
O10 Cd1 2.378 . S
O10 C8 1.256 . S
O11 Cd12 2.300 . S
O11 C18 1.275 . S
Cd12 O11 2.300 . S
Cd12 O20 2.381 . S
Cd12 O21 2.378 . S
O13 Cd14 2.385 . S
O13 C18 1.255 . S
Cd14 O13 2.385 . S
Cd14 O15 2.317 . S
O15 Cd14 2.317 . S
O15 C16 1.232 . S
C16 O15 1.232 . S
C16 O17 1.218 . S
O17 C16 1.218 . S
C18 O11 1.275 . S
C18 O13 1.255 . S
C19 O20 1.258 . S
C19 O21 1.256 . S
O20 Cd12 2.381 . S
O20 C19 1.258 . S
O21 Cd12 2.378 . S
O21 C19 1.256 . S
O22 Cd23 2.300 . S
O22 C29 1.275 . S
Cd23 O22 2.300 . S
Cd23 O31 2.381 . S
Cd23 O32 2.378 . S
O24 Cd25 2.385 . S
O24 C29 1.255 . S
Cd25 O24 2.385 . S
Cd25 O26 2.317 . S
O26 Cd25 2.317 . S
O26 C27 1.232 . S
C27 O26 1.232 . S
C27 O28 1.218 . S
O28 C27 1.218 . S
C29 O22 1.275 . S
C29 O24 1.255 . S
C30 O31 1.258 . S
C30 O32 1.256 . S
O31 Cd23 2.381 . S
O31 C30 1.258 . S
O32 Cd23 2.378 . S
O32 C30 1.256 . S
O33 Cd34 2.300 . S
O33 C40 1.275 . S
Cd34 O33 2.300 . S
Cd34 O42 2.381 . S
Cd34 O43 2.378 . S
O35 Cd36 2.385 . S
O35 C40 1.255 . S
Cd36 O35 2.385 . S
Cd36 O37 2.317 . S
O37 Cd36 2.317 . S
O37 C38 1.232 . S
C38 O37 1.232 . S
C38 O39 1.218 . S
O39 C38 1.218 . S
C40 O33 1.275 . S
C40 O35 1.255 . S
C41 O42 1.258 . S
C41 O43 1.256 . S
O42 Cd34 2.381 . S
O42 C41 1.258 . S
O43 Cd34 2.378 . S
O43 C41 1.256 . S
O44 Cd45 2.300 . S
O44 C51 1.275 . S
Cd45 O44 2.300 . S
Cd45 O53 2.381 . S
Cd45 O54 2.378 . S
O46 Cd47 2.385 . S
O46 C51 1.255 . S
Cd47 O46 2.385 . S
Cd47 O48 2.317 . S
O48 Cd47 2.317 . S
O48 C49 1.232 . S
C49 O48 1.232 . S
C49 O50 1.218 . S
O50 C49 1.218 . S
C51 O44 1.275 . S
C51 O46 1.255 . S
C52 O53 1.258 . S
C52 O54 1.256 . S
O53 Cd45 2.381 . S
O53 C52 1.258 . S
O54 Cd45 2.378 . S
O54 C52 1.256 . S
O55 Cd56 2.300 . S
O55 C62 1.275 . S
Cd56 O55 2.300 . S
Cd56 O64 2.381 . S
Cd56 O65 2.378 . S
O57 Cd58 2.385 . S
O57 C62 1.255 . S
Cd58 O57 2.385 . S
Cd58 O59 2.317 . S
O59 Cd58 2.317 . S
O59 C60 1.232 . S
C60 O59 1.232 . S
C60 O61 1.218 . S
O61 C60 1.218 . S
C62 O55 1.275 . S
C62 O57 1.255 . S
C63 O64 1.258 . S
C63 O65 1.256 . S
O64 Cd56 2.381 . S
O64 C63 1.258 . S
O65 Cd56 2.378 . S
O65 C63 1.256 . S
O66 Cd67 2.300 . S
O66 C73 1.275 . S
Cd67 O66 2.300 . S
Cd67 O75 2.381 . S
Cd67 O76 2.378 . S
O68 Cd69 2.385 . S
O68 C73 1.255 . S
Cd69 O68 2.385 . S
Cd69 O70 2.317 . S
O70 Cd69 2.317 . S
O70 C71 1.232 . S
C71 O70 1.232 . S
C71 O72 1.218 . S
O72 C71 1.218 . S
C73 O66 1.275 . S
C73 O68 1.255 . S
C74 O75 1.258 . S
C74 O76 1.256 . S
O75 Cd67 2.381 . S
O75 C74 1.258 . S
O76 Cd67 2.378 . S
O76 C74 1.256 . S
O77 Cd78 2.300 . S
O77 C84 1.275 . S
Cd78 O77 2.300 . S
Cd78 O86 2.381 . S
Cd78 O87 2.378 . S
O79 Cd80 2.385 . S
O79 C84 1.255 . S
Cd80 O79 2.385 . S
Cd80 O81 2.317 . S
O81 Cd80 2.317 . S
O81 C82 1.232 . S
C82 O81 1.232 . S
C82 O83 1.218 . S
O83 C82 1.218 . S
C84 O77 1.275 . S
C84 O79 1.255 . S
C85 O86 1.258 . S
C85 O87 1.256 . S
O86 Cd78 2.381 . S
O86 C85 1.258 . S
O87 Cd78 2.378 . S
O87 C85 1.256 . S
O88 Cd89 2.300 . S
O88 C95 1.275 . S
Cd89 O88 2.300 . S
Cd89 O97 2.381 . S
Cd89 O98 2.378 . S
O90 Cd91 2.385 . S
O90 C95 1.255 . S
Cd91 O90 2.385 . S
Cd91 O92 2.317 . S
O92 Cd91 2.317 . S
O92 C93 1.232 . S
C93 O92 1.232 . S
C93 O94 1.218 . S
O94 C93 1.218 . S
C95 O88 1.275 . S
C95 O90 1.255 . S
C96 O97 1.258 . S
C96 O98 1.256 . S
O97 Cd89 2.381 . S
O97 C96 1.258 . S
O98 Cd89 2.378 . S
O98 C96 1.256 . S
O99 Cd100 2.300 . S
O99 C106 1.275 . S
Cd100 O99 2.300 . S
Cd100 O108 2.381 . S
Cd100 O109 2.378 . S
O101 Cd102 2.385 . S
O101 C106 1.255 . S
Cd102 O101 2.385 . S
Cd102 O103 2.317 . S
O103 Cd102 2.317 . S
O103 C104 1.232 . S
C104 O103 1.232 . S
C104 O105 1.218 . S
O105 C104 1.218 . S
C106 O99 1.275 . S
C106 O101 1.255 . S
C107 O108 1.258 . S
C107 O109 1.256 . S
O108 Cd100 2.381 . S
O108 C107 1.258 . S
O109 Cd100 2.378 . S
O109 C107 1.256 . S
O110 Cd111 2.300 . S
O110 C117 1.275 . S
Cd111 O110 2.300 . S
Cd111 O119 2.381 . S
Cd111 O120 2.378 . S
O112 Cd113 2.385 . S
O112 C117 1.255 . S
Cd113 O112 2.385 . S
Cd113 O114 2.317 . S
O114 Cd113 2.317 . S
O114 C115 1.232 . S
C115 O114 1.232 . S
C115 O116 1.218 . S
O116 C115 1.218 . S
C117 O110 1.275 . S
C117 O112 1.255 . S
C118 O119 1.258 . S
C118 O120 1.256 . S
O119 Cd111 2.381 . S
O119 C118 1.258 . S
O120 Cd111 2.378 . S
O120 C118 1.256 . S
O121 Cd122 2.300 . S
O121 C128 1.275 . S
Cd122 O121 2.300 . S
Cd122 O130 2.381 . S
Cd122 O131 2.378 . S
O123 Cd124 2.385 . S
O123 C128 1.255 . S
Cd124 O123 2.385 . S
Cd124 O125 2.317 . S
O125 Cd124 2.317 . S
O125 C126 1.232 . S
C126 O125 1.232 . S
C126 O127 1.218 . S
O127 C126 1.218 . S
C128 O121 1.275 . S
C128 O123 1.255 . S
C129 O130 1.258 . S
C129 O131 1.256 . S
O130 Cd122 2.381 . S
O130 C129 1.258 . S
O131 Cd122 2.378 . S
O131 C129 1.256 . S
C132 C133 1.387 . S
C132 H136 0.950 . S
C132 C141 1.390 . S
C133 C132 1.387 . S
C133 C135 1.387 . S
H134 C141 0.950 . S
C135 C133 1.387 . S
C135 C137 1.390 . S
C135 H139 0.950 . S
H136 C132 0.950 . S
C137 C135 1.390 . S
C137 C138 1.387 . S
C137 H140 0.950 . S
C138 C137 1.387 . S
C138 C141 1.387 . S
H139 C135 0.950 . S
H140 C137 0.950 . S
C141 C132 1.390 . S
C141 H134 0.950 . S
C141 C138 1.387 . S
C142 C143 1.387 . S
C142 H146 0.950 . S
C142 C151 1.390 . S
C143 C142 1.387 . S
C143 C145 1.387 . S
H144 C151 0.950 . S
C145 C143 1.387 . S
C145 C147 1.390 . S
C145 H149 0.950 . S
H146 C142 0.950 . S
C147 C145 1.390 . S
C147 C148 1.387 . S
C147 H150 0.950 . S
C148 C147 1.387 . S
C148 C151 1.387 . S
H149 C145 0.950 . S
H150 C147 0.950 . S
C151 C142 1.390 . S
C151 H144 0.950 . S
C151 C148 1.387 . S
C152 C153 1.387 . S
C152 H156 0.950 . S
C152 C161 1.390 . S
C153 C152 1.387 . S
C153 C155 1.387 . S
H154 C161 0.950 . S
C155 C153 1.387 . S
C155 C157 1.390 . S
C155 H159 0.950 . S
H156 C152 0.950 . S
C157 C155 1.390 . S
C157 C158 1.387 . S
C157 H160 0.950 . S
C158 C157 1.387 . S
C158 C161 1.387 . S
H159 C155 0.950 . S
H160 C157 0.950 . S
C161 C152 1.390 . S
C161 H154 0.950 . S
C161 C158 1.387 . S
C162 C163 1.387 . S
C162 H166 0.950 . S
C162 C171 1.390 . S
C163 C162 1.387 . S
C163 C165 1.387 . S
H164 C171 0.950 . S
C165 C163 1.387 . S
C165 C167 1.390 . S
C165 H169 0.950 . S
H166 C162 0.950 . S
C167 C165 1.390 . S
C167 C168 1.387 . S
C167 H170 0.950 . S
C168 C167 1.387 . S
C168 C171 1.387 . S
H169 C165 0.950 . S
H170 C167 0.950 . S
C171 C162 1.390 . S
C171 H164 0.950 . S
C171 C168 1.387 . S
C172 C173 1.387 . S
C172 H176 0.950 . S
C172 C181 1.390 . S
C173 C172 1.387 . S
C173 C175 1.387 . S
H174 C181 0.950 . S
C175 C173 1.387 . S
C175 C177 1.390 . S
C175 H179 0.950 . S
H176 C172 0.950 . S
C177 C175 1.390 . S
C177 C178 1.387 . S
C177 H180 0.950 . S
C178 C177 1.387 . S
C178 C181 1.387 . S
H179 C175 0.950 . S
H180 C177 0.950 . S
C181 C172 1.390 . S
C181 H174 0.950 . S
C181 C178 1.387 . S
C182 C183 1.387 . S
C182 H186 0.950 . S
C182 C191 1.390 . S
C183 C182 1.387 . S
C183 C185 1.387 . S
H184 C191 0.950 . S
C185 C183 1.387 . S
C185 C187 1.390 . S
C185 H189 0.950 . S
H186 C182 0.950 . S
C187 C185 1.390 . S
C187 C188 1.387 . S
C187 H190 0.950 . S
C188 C187 1.387 . S
C188 C191 1.387 . S
H189 C185 0.950 . S
H190 C187 0.950 . S
C191 C182 1.390 . S
C191 H184 0.950 . S
C191 C188 1.387 . S
C192 C193 1.387 . S
C192 H196 0.950 . S
C192 C201 1.390 . S
C193 C192 1.387 . S
C193 C195 1.387 . S
H194 C201 0.950 . S
C195 C193 1.387 . S
C195 C197 1.390 . S
C195 H199 0.950 . S
H196 C192 0.950 . S
C197 C195 1.390 . S
C197 C198 1.387 . S
C197 H200 0.950 . S
C198 C197 1.387 . S
C198 C201 1.387 . S
H199 C195 0.950 . S
H200 C197 0.950 . S
C201 C192 1.390 . S
C201 H194 0.950 . S
C201 C198 1.387 . S
C202 C203 1.387 . S
C202 H206 0.950 . S
C202 C211 1.390 . S
C203 C202 1.387 . S
C203 C205 1.387 . S
H204 C211 0.950 . S
C205 C203 1.387 . S
C205 C207 1.390 . S
C205 H209 0.950 . S
H206 C202 0.950 . S
C207 C205 1.390 . S
C207 C208 1.387 . S
C207 H210 0.950 . S
C208 C207 1.387 . S
C208 C211 1.387 . S
H209 C205 0.950 . S
H210 C207 0.950 . S
C211 C202 1.390 . S
C211 H204 0.950 . S
C211 C208 1.387 . S
C212 C213 1.387 . S
C212 H216 0.950 . S
C212 C221 1.390 . S
C213 C212 1.387 . S
C213 C215 1.387 . S
H214 C221 0.950 . S
C215 C213 1.387 . S
C215 C217 1.390 . S
C215 H219 0.950 . S
H216 C212 0.950 . S
C217 C215 1.390 . S
C217 C218 1.387 . S
C217 H220 0.950 . S
C218 C217 1.387 . S
C218 C221 1.387 . S
H219 C215 0.950 . S
H220 C217 0.950 . S
C221 C212 1.390 . S
C221 H214 0.950 . S
C221 C218 1.387 . S
C222 C223 1.387 . S
C222 H226 0.950 . S
C222 C231 1.390 . S
C223 C222 1.387 . S
C223 C225 1.387 . S
H224 C231 0.950 . S
C225 C223 1.387 . S
C225 C227 1.390 . S
C225 H229 0.950 . S
H226 C222 0.950 . S
C227 C225 1.390 . S
C227 C228 1.387 . S
C227 H230 0.950 . S
C228 C227 1.387 . S
C228 C231 1.387 . S
H229 C225 0.950 . S
H230 C227 0.950 . S
C231 C222 1.390 . S
C231 H224 0.950 . S
C231 C228 1.387 . S
C232 C233 1.387 . S
C232 H236 0.950 . S
C232 C241 1.390 . S
C233 C232 1.387 . S
C233 C235 1.387 . S
H234 C241 0.950 . S
C235 C233 1.387 . S
C235 C237 1.390 . S
C235 H239 0.950 . S
H236 C232 0.950 . S
C237 C235 1.390 . S
C237 C238 1.387 . S
C237 H240 0.950 . S
C238 C237 1.387 . S
C238 C241 1.387 . S
H239 C235 0.950 . S
H240 C237 0.950 . S
C241 C232 1.390 . S
C241 H234 0.950 . S
C241 C238 1.387 . S
C242 C243 1.387 . S
C242 H246 0.950 . S
C242 C251 1.390 . S
C243 C242 1.387 . S
C243 C245 1.387 . S
H244 C251 0.950 . S
C245 C243 1.387 . S
C245 C247 1.390 . S
C245 H249 0.950 . S
H246 C242 0.950 . S
C247 C245 1.390 . S
C247 C248 1.387 . S
C247 H250 0.950 . S
C248 C247 1.387 . S
C248 C251 1.387 . S
H249 C245 0.950 . S
H250 C247 0.950 . S
C251 C242 1.390 . S
C251 H244 0.950 . S
C251 C248 1.387 . S
C252 C253 1.387 . S
C252 H256 0.950 . S
C252 C261 1.390 1_554 S
C253 C252 1.387 . S
C253 C255 1.387 . S
H254 C261 0.950 . S
C255 C253 1.387 . S
C255 C257 1.390 1_554 S
C255 H259 0.950 . S
H256 C252 0.950 . S
C257 C255 1.390 1_556 S
C257 C258 1.387 . S
C257 H260 0.950 . S
C258 C257 1.387 . S
C258 C261 1.387 . S
H259 C255 0.950 . S
H260 C257 0.950 . S
C261 C252 1.390 1_556 S
C261 H254 0.950 . S
C261 C258 1.387 . S
C262 C263 1.387 . S
C262 H266 0.950 . S
C262 C271 1.390 . S
C263 C262 1.387 . S
C263 C265 1.387 1_455 S
H264 C271 0.950 . S
C265 C263 1.387 1_655 S
C265 C267 1.390 . S
C265 H269 0.950 . S
H266 C262 0.950 . S
C267 C265 1.390 . S
C267 C268 1.387 . S
C267 H270 0.950 . S
C268 C267 1.387 . S
C268 C271 1.387 1_655 S
H269 C265 0.950 . S
H270 C267 0.950 . S
C271 C262 1.390 . S
C271 H264 0.950 . S
C271 C268 1.387 1_455 S
C272 C273 1.387 . S
C272 H276 0.950 . S
C272 C281 1.390 1_546 S
C273 C272 1.387 . S
C273 C275 1.387 . S
H274 C281 0.950 . S
C275 C273 1.387 . S
C275 C277 1.390 1_546 S
C275 H279 0.950 . S
H276 C272 0.950 . S
C277 C275 1.390 1_564 S
C277 C278 1.387 . S
C277 H280 0.950 . S
C278 C277 1.387 . S
C278 C281 1.387 . S
H279 C275 0.950 . S
H280 C277 0.950 . S
C281 C272 1.390 1_564 S
C281 H274 0.950 . S
C281 C278 1.387 . S
C282 C283 1.387 . S
C282 H286 0.950 . S
C282 C291 1.390 . S
C283 C282 1.387 . S
C283 C285 1.387 . S
H284 C291 0.950 . S
C285 C283 1.387 . S
C285 C287 1.390 . S
C285 H289 0.950 . S
H286 C282 0.950 . S
C287 C285 1.390 . S
C287 C288 1.387 . S
C287 H290 0.950 . S
C288 C287 1.387 . S
C288 C291 1.387 . S
H289 C285 0.950 . S
H290 C287 0.950 . S
C291 C282 1.390 . S
C291 H284 0.950 . S
C291 C288 1.387 . S
C292 C293 1.387 1_655 S
C292 H296 0.950 . S
C292 C301 1.390 1_554 S
C293 C292 1.387 1_455 S
C293 C295 1.387 . S
H294 C301 0.950 . S
C295 C293 1.387 . S
C295 C297 1.390 1_554 S
C295 H299 0.950 . S
H296 C292 0.950 . S
C297 C295 1.390 1_556 S
C297 C298 1.387 1_455 S
C297 H300 0.950 . S
C298 C297 1.387 1_655 S
C298 C301 1.387 . S
H299 C295 0.950 . S
H300 C297 0.950 . S
C301 C292 1.390 1_556 S
C301 H294 0.950 . S
C301 C298 1.387 . S
C302 C303 1.387 . S
C302 H306 0.950 . S
C302 C311 1.390 1_565 S
C303 C302 1.387 . S
C303 C305 1.387 . S
H304 C311 0.950 . S
C305 C303 1.387 . S
C305 C307 1.390 1_565 S
C305 H309 0.950 . S
H306 C302 0.950 . S
C307 C305 1.390 1_545 S
C307 C308 1.387 . S
C307 H310 0.950 . S
C308 C307 1.387 . S
C308 C311 1.387 . S
H309 C305 0.950 . S
H310 C307 0.950 . S
C311 C302 1.390 1_545 S
C311 H304 0.950 . S
C311 C308 1.387 . S
C133 C5 1.411 . S
C138 C115 1.411 . S
C143 C126 1.414 . S
C148 C16 1.412 . S
C153 C71 1.412 . S
C158 C27 1.414 . S
C163 C38 1.411 . S
C168 C82 1.410 . S
C173 C93 1.414 . S
C178 C49 1.412 . S
C183 C104 1.411 . S
C188 C60 1.414 . S
C193 C7 1.526 . S
C198 C73 1.524 . S
C203 C18 1.525 . S
C208 C84 1.526 . S
C213 C29 1.524 . S
C218 C95 1.524 . S
C223 C106 1.524 . S
C228 C40 1.526 . S
C233 C51 1.523 . S
C238 C117 1.525 . S
C243 C62 1.525 . S
C248 C128 1.525 . S
C253 C8 1.571 . S
C258 C107 1.571 . S
C263 C118 1.571 . S
C268 C19 1.571 . S
C273 C129 1.571 . S
C278 C30 1.571 . S
C283 C41 1.572 . S
C288 C74 1.572 . S
C293 C52 1.571 . S
C298 C85 1.571 . S
C303 C96 1.571 . S
C308 C63 1.571 . S
