# Generated by pormake.
# Topology reo, (8)-cn, num edge types: 1
# Building blocks:
#     Node 0, Type 0, BuildingBlock: TAGTUT_clean_sbu_3, # of connection points: 8
#     Node 1, Type 0, BuildingBlock: TAGTUT_clean_sbu_3, # of connection points: 8
#     Node 2, Type 0, BuildingBlock: TAGTUT_clean_sbu_3, # of connection points: 8
#     Edge 3, Type (0, 0), BuildingBlock: FUNLAD_clean_linker_0, # of connection points: 2
#     Edge 4, Type (0, 0), BuildingBlock: FUNLAD_clean_linker_0, # of connection points: 2
#     Edge 5, Type (0, 0), BuildingBlock: FUNLAD_clean_linker_0, # of connection points: 2
#     Edge 6, Type (0, 0), BuildingBlock: FUNLAD_clean_linker_0, # of connection points: 2
#     Edge 7, Type (0, 0), BuildingBlock: FUNLAD_clean_linker_0, # of connection points: 2
#     Edge 8, Type (0, 0), BuildingBlock: FUNLAD_clean_linker_0, # of connection points: 2
#     Edge 9, Type (0, 0), BuildingBlock: FUNLAD_clean_linker_0, # of connection points: 2
#     Edge 10, Type (0, 0), BuildingBlock: FUNLAD_clean_linker_0, # of connection points: 2
#     Edge 11, Type (0, 0), BuildingBlock: FUNLAD_clean_linker_0, # of connection points: 2
#     Edge 12, Type (0, 0), BuildingBlock: FUNLAD_clean_linker_0, # of connection points: 2
#     Edge 13, Type (0, 0), BuildingBlock: FUNLAD_clean_linker_0, # of connection points: 2
#     Edge 14, Type (0, 0), BuildingBlock: FUNLAD_clean_linker_0, # of connection points: 2
# Relax obj value: 0.169
# Max RMSD: 0.190
# Mean RMSD: 0.190
data_MOF--net-reo--node1-TAGTUT_clean_sbu_3--edge1-FUNLAD_clean_linker_0
_symmetry_space_group_name_H-M    P1
_symmetry_Int_Tables_number       1
_symmetry_cell_setting            triclinic
loop_
_symmetry_equiv_pos_as_xyz
'x, y, z'
_cell_length_a     26.904775
_cell_length_b     26.9527
_cell_length_c     26.888052
_cell_angle_alpha  90.845286
_cell_angle_beta   90.9948
_cell_angle_gamma 90.874739
loop_
_atom_site_label
_atom_site_type_symbol
_atom_site_fract_x
_atom_site_fract_y
_atom_site_fract_z
_atom_type_partial_charge
C0 C 0.96312 0.89723 0.53763 0.0
C1 C 0.80112 0.00591 0.53352 0.0
C2 C 0.87033 0.06896 0.40316 0.0
Mg3 Mg 0.07396 0.92949 0.50372 0.0
Mg4 Mg 0.10964 0.04791 0.50503 0.0
O5 O 0.06448 -0.00087 0.47986 0.0
Mg6 Mg 0.9933 0.00645 0.49731 0.0
O7 O 0.92178 0.01049 0.51395 0.0
Mg8 Mg 0.89409 0.96177 0.46306 0.0
Mg9 Mg 0.89303 0.07398 0.5141 0.0
C10 C 0.02738 0.11538 0.45473 0.0
O11 O 0.01049 0.05498 0.56641 0.0
O12 O 0.15157 0.93611 0.46698 0.0
O13 O 0.94939 0.11142 0.56141 0.0
O14 O 0.10733 0.95463 0.57915 0.0
O15 O 0.17363 0.01728 0.46931 0.0
O16 O 0.11816 0.03674 0.58386 0.0
O17 O 0.97258 0.96084 0.42828 0.0
O18 O 0.03624 0.9083 0.42972 0.0
C19 C 0.9962 0.92438 0.4096 0.0
C20 C 0.18208 0.9719 0.45764 0.0
O21 O 0.99529 0.07969 0.45611 0.0
O22 O 0.81954 0.97132 0.50608 0.0
O23 O 0.07107 0.11271 0.47476 0.0
O24 O 0.87211 0.02204 0.40815 0.0
O25 O 0.82335 0.0478 0.54148 0.0
O26 O 0.88009 0.09878 0.43932 0.0
O27 O 0.99564 0.93248 0.53692 0.0
O28 O 0.92081 0.90148 0.51564 0.0
C29 C 0.11889 0.99409 0.60386 0.0
C30 C 0.99077 0.09608 0.5798 0.0
C31 C 0.41931 0.98274 0.91367 0.0
C32 C 0.45475 0.17484 0.95268 0.0
C33 C 0.59997 0.11834 0.99318 0.0
Mg34 Mg 0.47165 0.88808 0.96441 0.0
Mg35 Mg 0.51491 0.89531 0.07996 0.0
O36 O 0.51855 0.9202 0.01476 0.0
Mg37 Mg 0.49907 0.99035 0.00468 0.0
O38 O 0.47826 0.05957 0.99029 0.0
Mg39 Mg 0.50765 0.06615 0.92213 0.0
Mg40 Mg 0.49683 0.10878 0.03739 0.0
C41 C 0.57632 -0.00418 0.10006 0.0
O42 O 0.45302 0.99452 0.07541 0.0
O43 O 0.51465 0.81556 0.98245 0.0
O44 O 0.46116 0.07449 0.10115 0.0
O45 O 0.41268 0.86997 0.02187 0.0
O46 O 0.54534 0.82458 0.0607 0.0
O47 O 0.4385 0.88369 0.10005 0.0
O48 O 0.54365 0.98995 0.93371 0.0
O49 O 0.52841 0.91236 0.90668 0.0
C50 C 0.5486 0.95529 0.90105 0.0
C51 C 0.5402 0.79971 0.01982 0.0
O52 O 0.56397 0.01321 0.05739 0.0
O53 O 0.46717 0.14258 0.91951 0.0
O54 O 0.55877 0.95466 0.11656 0.0
O55 O 0.5796 0.10451 0.95189 0.0
O56 O 0.46311 0.16919 -0.0007 0.0
O57 O 0.57591 0.11851 0.03367 0.0
O58 O 0.43539 0.96439 0.95442 0.0
O59 O 0.43829 0.02235 0.89553 0.0
C60 C 0.40446 0.8719 0.06841 0.0
C61 C 0.44561 0.02964 0.10707 0.0
C62 C 0.90104 0.53886 0.96457 0.0
C63 C 0.00419 0.5333 0.79818 0.0
C64 C 0.06764 0.40255 0.86765 0.0
Mg65 Mg 0.93831 0.50563 0.0749 0.0
Mg66 Mg 0.05765 0.50992 0.1034 0.0
O67 O 0.00708 0.48055 0.06245 0.0
Mg68 Mg 0.01094 0.49706 0.99057 0.0
O69 O 0.01199 0.51367 0.91899 0.0
Mg70 Mg 0.96151 0.46374 0.89309 0.0
Mg71 Mg 0.07467 0.51347 0.88835 0.0
C72 C 0.12254 0.45834 0.02002 0.0
O73 O 0.06016 0.566 0.00525 0.0
O74 O 0.94956 0.47167 0.15394 0.0
O75 O 0.1145 0.56166 0.94233 0.0
O76 O 0.96433 0.58112 0.10426 0.0
O77 O 0.03202 0.47683 0.17055 0.0
O78 O 0.04655 0.58884 0.11035 0.0
O79 O 0.96188 0.42905 0.97207 0.0
O80 O 0.91356 0.43272 0.03897 0.0
C81 C 0.92544 0.41231 -0.00248 0.0
C82 C 0.98761 0.46467 0.18267 0.0
O83 O 0.08511 0.45606 0.98962 0.0
O84 O 0.96958 0.50673 0.81785 0.0
O85 O 0.12093 0.48056 0.06267 0.0
O86 O 0.0207 0.40797 0.87014 0.0
O87 O 0.04697 0.54039 0.81904 0.0
O88 O 0.09806 0.43846 0.87615 0.0
O89 O 0.93759 0.53683 0.99566 0.0
O90 O 0.90314 0.51761 0.9217 0.0
C91 C 0.00334 0.60742 0.11258 0.0
C92 C 0.1002 0.58014 0.98398 0.0
C93 C 0.94149 0.40452 0.23588 0.0
C94 C 0.98145 0.43789 0.22978 0.0
C95 C 0.94111 0.37246 0.27633 0.0
C96 C 0.98059 0.37354 0.31143 0.0
C97 C 0.01807 0.40987 0.30762 0.0
C98 C 0.01879 0.44144 0.26698 0.0
C99 C 0.98616 0.33507 0.34994 0.0
C100 C 0.97308 0.28734 0.34082 0.0
C101 C 0.98604 0.24526 0.37353 0.0
C102 C 0.96296 0.1991 0.36344 0.0
C103 C 0.97649 0.15727 0.38998 0.0
C104 C 0.01333 0.16045 0.42757 0.0
H105 H 0.04293 0.28295 0.41961 0.0
C106 C 0.03656 0.2065 0.43802 0.0
C107 C 0.02311 0.24858 0.41128 0.0
H108 H 0.06523 0.20998 0.4667 0.0
H109 H 0.91198 0.40123 0.20805 0.0
H110 H 0.9107 0.34594 0.2792 0.0
H111 H 0.04852 0.41191 0.33453 0.0
H112 H 0.04971 0.46734 0.26372 0.0
H113 H 0.00619 0.34558 0.3839 0.0
H114 H 0.95393 0.27776 0.30599 0.0
H115 H 0.93487 0.19508 0.33421 0.0
H116 H 0.959 0.12204 0.38001 0.0
C117 C 0.86434 0.06136 0.31118 0.0
C118 C 0.85295 0.08767 0.35486 0.0
C119 C 0.83821 0.07003 0.267 0.0
C120 C 0.79944 0.10416 0.26617 0.0
C121 C 0.79159 0.13421 0.30851 0.0
C122 C 0.81853 0.12621 0.35259 0.0
C123 C 0.76336 0.10137 0.22391 0.0
C124 C 0.71412 0.10051 0.23209 0.0
C125 C 0.67746 0.07785 0.19638 0.0
C126 C 0.63625 0.05254 0.21562 0.0
C127 C 0.60349 0.02594 0.18416 0.0
C128 C 0.61059 0.02509 0.13261 0.0
H129 H 0.71496 0.0978 0.12846 0.0
C130 C 0.65056 0.05202 0.1129 0.0
C131 C 0.68401 0.078 0.14456 0.0
H132 H 0.65671 0.05181 0.0732 0.0
H133 H 0.89128 0.03189 0.31195 0.0
H134 H 0.84531 0.04681 0.23472 0.0
H135 H 0.76262 0.16167 0.30844 0.0
H136 H 0.80939 0.14718 0.38579 0.0
H137 H 0.7771 0.08898 0.18814 0.0
H138 H 0.70112 0.10823 0.26944 0.0
H139 H 0.6303 0.05187 0.25537 0.0
H140 H 0.57253 0.00598 0.20019 0.0
C141 C 0.95144 0.87054 0.34759 0.0
C142 C 0.9858 0.90877 0.35829 0.0
C143 C 0.95135 0.84686 0.301 0.0
C144 C 0.98585 0.86129 0.26473 0.0
C145 C 0.01764 0.90203 0.27477 0.0
C146 C 0.01763 0.92559 0.32123 0.0
C147 C 0.99584 0.82959 0.22064 0.0
C148 C 0.96301 0.7959 0.20218 0.0
C149 C 0.97749 0.75327 0.17051 0.0
C150 C 0.94006 0.72729 0.14379 0.0
C151 C 0.94959 0.68121 0.12225 0.0
C152 C -0.00325 0.6598 0.12743 0.0
H153 H 0.05546 0.75188 0.1938 0.0
C154 C 0.03528 0.68721 0.15114 0.0
C155 C 0.02575 0.73354 0.17267 0.0
H156 H 0.07194 0.67166 0.15571 0.0
H157 H 0.92733 0.85666 0.37627 0.0
H158 H 0.92704 0.81488 0.29535 0.0
H159 H 0.04472 0.91365 0.24776 0.0
H160 H 0.04482 0.95482 0.32935 0.0
H161 H 0.03305 0.83145 0.20563 0.0
H162 H 0.9245 0.79718 0.21355 0.0
H163 H 0.90265 0.74156 0.14161 0.0
H164 H 0.91918 0.66137 0.10351 0.0
C165 C 0.42681 0.97636 0.17959 0.0
C166 C 0.41612 0.01814 0.15097 0.0
C167 C 0.39676 0.96383 0.21958 0.0
C168 C 0.35508 0.99247 0.23071 0.0
C169 C 0.3445 0.03415 0.20196 0.0
C170 C 0.37525 0.04739 0.16287 0.0
C171 C 0.32096 0.9789 0.27093 0.0
C172 C 0.33696 0.96345 0.31562 0.0
C173 C 0.30146 0.95798 0.35646 0.0
C174 C 0.25853 0.92809 0.35028 0.0
C175 C 0.22118 0.9295 0.38571 0.0
C176 C 0.22573 0.96186 0.42701 0.0
H177 H 0.34076 0.01043 0.40505 0.0
C178 C 0.26986 0.98972 0.43443 0.0
C179 C 0.30786 0.98713 0.39975 0.0
H180 H 0.27414 0.01491 0.46604 0.0
H181 H 0.45843 0.95355 0.17106 0.0
H182 H 0.40533 0.93115 0.24086 0.0
H183 H 0.31243 0.0566 0.20987 0.0
H184 H 0.36619 0.07952 0.14093 0.0
H185 H 0.28165 0.98635 0.26521 0.0
H186 H 0.37653 0.96133 0.32397 0.0
H187 H 0.2531 0.90518 0.31712 0.0
H188 H 0.18733 0.90797 0.37897 0.0
C189 C 0.94295 0.80823 0.55404 0.0
C190 C 0.97433 0.84987 0.56234 0.0
C191 C 0.95185 0.76369 0.57819 0.0
C192 C 0.9921 0.75983 0.61191 0.0
C193 C 0.02427 0.80106 0.61918 0.0
C194 C 0.01552 0.84563 0.59468 0.0
C195 C 0.00185 0.71379 0.64018 0.0
C196 C 0.96749 0.67762 0.64743 0.0
C197 C 0.97675 0.63468 0.68024 0.0
C198 C 0.93661 0.6125 0.70482 0.0
C199 C 0.94487 0.57645 0.7409 0.0
C200 C 0.99351 0.56195 0.75283 0.0
H201 H 0.05646 0.63113 0.66914 0.0
C202 C 0.03313 0.58107 0.72516 0.0
C203 C 0.02486 0.61679 0.68906 0.0
H204 H 0.07097 0.56986 0.73278 0.0
H205 H 0.91132 0.80989 0.52866 0.0
H206 H 0.92715 0.73256 0.56987 0.0
H207 H 0.05588 0.79909 0.64456 0.0
H208 H 0.04048 0.87693 0.60177 0.0
H209 H 0.03792 0.71155 0.65868 0.0
H210 H 0.92991 0.68156 0.63295 0.0
H211 H 0.89903 0.62494 0.69803 0.0
H212 H 0.91356 0.56235 0.76149 0.0
C213 C 0.32953 0.96086 0.9092 0.0
C214 C 0.37658 0.9598 0.88761 0.0
C215 C 0.28704 0.94972 0.88025 0.0
C216 C 0.29158 0.93629 0.82986 0.0
C217 C 0.33899 0.93114 0.80972 0.0
C218 C 0.38125 0.94376 0.83817 0.0
C219 C 0.248 0.93302 0.79591 0.0
C220 C 0.21499 0.96999 0.79397 0.0
C221 C 0.18262 0.97654 0.74962 0.0
C222 C 0.17766 0.02416 0.7299 0.0
C223 C 0.15524 0.03038 0.68319 0.0
C224 C 0.13645 0.98911 0.65596 0.0
H225 H 0.16328 0.8987 0.73901 0.0
C226 C 0.13795 0.94195 0.67772 0.0
C227 C 0.16098 0.9357 0.72402 0.0
H228 H 0.12313 0.9094 0.65819 0.0
H229 H 0.32543 0.97352 0.94733 0.0
H230 H 0.25073 0.95347 0.89654 0.0
H231 H 0.34317 0.92081 0.77093 0.0
H232 H 0.4174 0.943 0.82102 0.0
H233 H 0.24884 0.90559 0.7659 0.0
H234 H 0.21819 0.00059 0.82071 0.0
H235 H 0.1939 0.05622 0.7492 0.0
H236 H 0.15462 0.06717 0.66757 0.0
C237 C 0.12449 0.3505 0.81715 0.0
C238 C 0.08574 0.35386 0.85124 0.0
C239 C 0.13231 0.30584 0.79147 0.0
C240 C 0.10188 0.26405 0.80032 0.0
C241 C 0.06756 0.26602 0.83887 0.0
C242 C 0.05908 0.31076 0.86372 0.0
C243 C 0.09855 0.22142 0.76503 0.0
C244 C 0.09626 0.22919 0.71572 0.0
C245 C 0.0724 0.19334 0.68013 0.0
C246 C 0.045 0.21224 0.63998 0.0
C247 C 0.01795 0.18049 0.60796 0.0
C248 C 0.0187 0.12901 0.61473 0.0
H249 H 0.09519 0.12594 0.71682 0.0
C250 C 0.04744 0.10972 0.65382 0.0
C251 C 0.07383 0.14167 0.6866 0.0
H252 H 0.0487 0.07006 0.65954 0.0
H253 H 0.1458 0.38322 0.80726 0.0
H254 H 0.15984 0.30488 0.76257 0.0
H255 H 0.04404 0.23417 0.84667 0.0
H256 H 0.02956 0.31234 0.89056 0.0
H257 H 0.08653 0.18586 0.7795 0.0
H258 H 0.10347 0.26637 0.70211 0.0
H259 H 0.04333 0.25189 0.63416 0.0
H260 H -0.00321 0.19622 0.57753 0.0
C261 C 0.57772 0.92806 0.81725 0.0
C262 C 0.57459 0.96541 0.8541 0.0
C263 C 0.60145 0.93725 0.7725 0.0
C264 C 0.62251 0.98428 0.76333 0.0
C265 C 0.61956 0.0215 0.80031 0.0
C266 C 0.59583 0.01226 0.84515 0.0
C267 C 0.64996 0.99561 0.71718 0.0
C268 C 0.64967 0.96655 0.67582 0.0
C269 C 0.6822 0.97741 0.63321 0.0
C270 C 0.70307 0.93794 0.60648 0.0
C271 C 0.73961 0.94706 0.57117 0.0
C272 C 0.75553 -0.00408 0.56191 0.0
H273 H 0.67782 0.05768 0.6388 0.0
C274 C 0.73126 0.03545 0.58546 0.0
C275 C 0.69488 0.02633 0.62059 0.0
H276 H 0.74183 0.0736 0.57833 0.0
H277 H 0.56196 0.8914 0.82293 0.0
H278 H 0.60374 0.90691 0.74599 0.0
H279 H 0.6358 0.05797 0.79458 0.0
H280 H 0.59425 0.04184 0.8727 0.0
H281 H 0.67289 0.02915 0.7182 0.0
H282 H 0.62825 0.93219 0.67402 0.0
H283 H 0.69322 0.8999 0.61495 0.0
H284 H 0.75735 0.91581 0.55345 0.0
C285 C 0.16885 0.39646 0.96891 0.0
C286 C 0.16926 0.43431 0.00544 0.0
C287 C 0.21269 0.37251 0.95632 0.0
C288 C 0.25797 0.3859 0.98025 0.0
C289 C 0.25835 0.42406 0.01641 0.0
C290 C 0.21457 0.44814 0.02878 0.0
C291 C 0.30427 0.35766 0.97274 0.0
C292 C 0.31354 0.3296 0.93204 0.0
C293 C 0.35598 0.29485 0.92997 0.0
C294 C 0.35174 0.25207 0.89951 0.0
C295 C 0.38657 0.21416 0.90353 0.0
C296 C 0.42595 0.21856 0.93829 0.0
H297 H 0.40496 0.33471 0.98266 0.0
C298 C 0.43278 0.26316 0.96526 0.0
C299 C 0.3986 0.30125 0.96065 0.0
H300 H 0.46349 0.26775 0.99162 0.0
H301 H 0.13433 0.38401 0.95132 0.0
H302 H 0.21032 0.3422 0.92952 0.0
H303 H 0.29259 0.43481 0.03577 0.0
H304 H 0.21619 0.4773 0.05695 0.0
H305 H 0.33054 0.35847 0.0038 0.0
H306 H 0.28708 0.32855 0.90109 0.0
H307 H 0.31977 0.24651 0.87489 0.0
H308 H 0.38055 0.18006 0.8823 0.0
C309 C 0.11307 0.65536 0.0386 0.0
C310 C 0.13294 0.61635 0.01043 0.0
C311 C 0.14456 0.68882 0.06461 0.0
C312 C 0.19643 0.68335 0.06312 0.0
C313 C 0.21599 0.64359 0.03585 0.0
C314 C 0.18462 0.61072 0.00931 0.0
C315 C 0.23168 0.71931 0.08732 0.0
C316 C 0.22287 0.76827 0.09047 0.0
C317 C 0.26485 0.80413 0.09605 0.0
C318 C 0.26808 0.84274 0.06188 0.0
C319 C 0.31305 0.86811 0.05576 0.0
C320 C 0.35494 0.85617 0.08479 0.0
H321 H 0.30321 0.76664 0.15598 0.0
C322 C 0.35002 0.82201 0.12332 0.0
C323 C 0.30522 0.79573 0.12868 0.0
H324 H 0.38188 0.81235 0.14618 0.0
H325 H 0.07325 0.66036 0.03994 0.0
H326 H 0.12828 0.71867 0.08587 0.0
H327 H 0.25582 0.63855 0.03415 0.0
H328 H 0.20079 0.58043 0.98851 0.0
H329 H 0.26911 0.70634 0.09485 0.0
H330 H 0.18721 0.78233 0.07801 0.0
H331 H 0.23732 0.85008 0.03661 0.0
H332 H 0.31601 0.89472 0.02607 0.0
C333 C 0.67975 0.13619 0.94933 0.0
C334 C 0.6522 0.13632 0.9934 0.0
C335 C 0.72735 0.15776 0.94856 0.0
C336 C 0.7483 0.17959 0.99202 0.0
C337 C 0.72199 0.1768 0.03657 0.0
C338 C 0.67431 0.15595 0.03719 0.0
C339 C 0.7944 0.21039 0.99227 0.0
C340 C 0.81171 0.23425 0.95224 0.0
C341 C 0.84062 0.2809 0.95985 0.0
C342 C 0.88457 0.29087 0.9341 0.0
C343 C 0.91216 0.33462 0.94464 0.0
C344 C 0.89547 0.36873 0.98056 0.0
H345 H 0.78801 0.31061 0.01224 0.0
C346 C 0.84981 0.35968 0.00357 0.0
C347 C 0.82283 0.31647 0.99335 0.0
H348 H 0.83503 0.38565 0.03044 0.0
H349 H 0.66405 0.12072 0.91501 0.0
H350 H 0.74692 0.15815 0.91377 0.0
H351 H 0.73725 0.19321 0.07068 0.0
H352 H 0.65424 0.15673 0.07175 0.0
H353 H 0.80951 0.22141 0.02869 0.0
H354 H 0.79897 0.22474 0.91477 0.0
H355 H 0.89828 0.26424 0.90727 0.0
H356 H 0.94699 0.34096 0.92601 0.0
C357 C 0.84973 0.58688 0.02527 0.0
C358 C 0.85479 0.5644 0.97823 0.0
C359 C 0.80614 0.61165 0.03723 0.0
C360 C 0.76654 0.61424 0.00263 0.0
C361 C 0.77161 0.59151 0.95557 0.0
C362 C 0.8151 0.56679 0.94368 0.0
C363 C 0.72237 0.64387 0.01582 0.0
C364 C 0.67845 0.64157 0.99079 0.0
C365 C 0.63797 0.67696 0.00064 0.0
C366 C 0.63074 0.69769 0.04817 0.0
C367 C 0.59679 0.73571 0.05483 0.0
C368 C 0.56918 0.75374 0.01419 0.0
H369 H 0.61197 0.67614 0.92399 0.0
C370 C 0.57366 0.73032 0.96745 0.0
C371 C 0.60762 0.69212 0.96085 0.0
H372 H 0.55269 0.74295 0.93543 0.0
H373 H 0.87947 0.58573 0.05276 0.0
H374 H 0.80355 0.6292 0.07359 0.0
H375 H 0.743 0.59371 0.92704 0.0
H376 H 0.81775 0.55013 0.90693 0.0
H377 H 0.72728 0.67026 0.04649 0.0
H378 H 0.67294 0.61595 0.95967 0.0
H379 H 0.65195 0.6854 0.08014 0.0
H380 H 0.59359 0.75216 0.09161 0.0
loop_
_geom_bond_atom_site_label_1
_geom_bond_atom_site_label_2
_geom_bond_distance
_geom_bond_site_symmetry_2
_ccdc_geom_bond_type
C0 O27 1.312 1_655 S
C0 O28 1.208 . S
C1 O22 1.331 . S
C1 O25 1.244 1_565 S
C2 O24 1.264 1_545 S
C2 O26 1.273 . S
Mg3 O5 1.936 1_565 S
Mg3 O12 2.081 . S
Mg3 O14 2.023 . S
Mg3 O18 2.031 . S
Mg3 O27 2.291 . S
Mg4 O5 1.963 . S
Mg4 O15 1.942 . S
Mg4 O16 1.955 . S
Mg4 O23 1.986 . S
O5 Mg3 1.936 1_545 S
O5 Mg4 1.963 . S
O5 Mg6 1.915 . S
Mg6 O5 1.915 . S
Mg6 O7 1.915 1_455 S
Mg6 O11 2.013 . S
Mg6 O17 2.114 1_445 S
Mg6 O21 2.013 1_455 S
Mg6 O27 2.114 1_545 S
O7 Mg6 1.915 1_655 S
O7 Mg8 1.936 1_545 S
O7 Mg9 1.963 . S
Mg8 O7 1.936 1_565 S
Mg8 O17 2.291 . S
Mg8 O22 2.081 . S
Mg8 O24 2.023 . S
Mg8 O28 2.031 . S
Mg9 O7 1.963 . S
Mg9 O13 1.986 . S
Mg9 O25 1.942 . S
Mg9 O26 1.955 . S
C10 O21 1.191 1_455 S
C10 O23 1.307 . S
O11 Mg6 2.013 . S
O11 C30 1.191 1_455 S
O12 Mg3 2.081 . S
O12 C20 1.331 . S
O13 Mg9 1.986 . S
O13 C30 1.307 . S
O14 Mg3 2.023 . S
O14 C29 1.264 1_565 S
O15 Mg4 1.942 . S
O15 C20 1.244 1_545 S
O16 Mg4 1.955 . S
O16 C29 1.273 . S
O17 Mg6 2.114 1_665 S
O17 Mg8 2.291 . S
O17 C19 1.312 1_655 S
O18 Mg3 2.031 . S
O18 C19 1.208 . S
C19 O17 1.312 1_455 S
C19 O18 1.208 . S
C20 O12 1.331 . S
C20 O15 1.244 1_565 S
O21 Mg6 2.013 1_655 S
O21 C10 1.191 1_655 S
O22 C1 1.331 . S
O22 Mg8 2.081 . S
O23 Mg4 1.986 . S
O23 C10 1.307 . S
O24 C2 1.264 1_565 S
O24 Mg8 2.023 . S
O25 C1 1.244 1_545 S
O25 Mg9 1.942 . S
O26 C2 1.273 . S
O26 Mg9 1.955 . S
O27 C0 1.312 1_455 S
O27 Mg3 2.291 . S
O27 Mg6 2.114 1_565 S
O28 C0 1.208 . S
O28 Mg8 2.031 . S
C29 O14 1.264 1_545 S
C29 O16 1.273 . S
C30 O11 1.191 1_655 S
C30 O13 1.307 . S
C31 O58 1.312 1_545 S
C31 O59 1.208 . S
C32 O53 1.331 . S
C32 O56 1.244 1_556 S
C33 O55 1.264 1_554 S
C33 O57 1.273 . S
Mg34 O36 1.936 1_556 S
Mg34 O43 2.081 . S
Mg34 O45 2.023 . S
Mg34 O49 2.031 . S
Mg34 O58 2.291 . S
Mg35 O36 1.963 . S
Mg35 O46 1.942 . S
Mg35 O47 1.955 . S
Mg35 O54 1.986 . S
O36 Mg34 1.936 1_554 S
O36 Mg35 1.963 . S
O36 Mg37 1.915 1_565 S
Mg37 O36 1.915 1_545 S
Mg37 O38 1.915 . S
Mg37 O42 2.013 1_545 S
Mg37 O48 2.114 1_554 S
Mg37 O52 2.013 . S
Mg37 O58 2.114 1_544 S
O38 Mg37 1.915 . S
O38 Mg39 1.936 1_554 S
O38 Mg40 1.963 . S
Mg39 O38 1.936 1_556 S
Mg39 O48 2.291 . S
Mg39 O53 2.081 . S
Mg39 O55 2.023 . S
Mg39 O59 2.031 . S
Mg40 O38 1.963 . S
Mg40 O44 1.986 . S
Mg40 O56 1.942 . S
Mg40 O57 1.955 . S
C41 O52 1.191 1_565 S
C41 O54 1.307 . S
O42 Mg37 2.013 1_565 S
O42 C61 1.191 1_565 S
O43 Mg34 2.081 . S
O43 C51 1.331 . S
O44 Mg40 1.986 . S
O44 C61 1.307 . S
O45 Mg34 2.023 . S
O45 C60 1.264 1_556 S
O46 Mg35 1.942 . S
O46 C51 1.244 1_554 S
O47 Mg35 1.955 . S
O47 C60 1.273 . S
O48 Mg37 2.114 1_556 S
O48 Mg39 2.291 . S
O48 C50 1.312 1_545 S
O49 Mg34 2.031 . S
O49 C50 1.208 . S
C50 O48 1.312 1_565 S
C50 O49 1.208 . S
C51 O43 1.331 . S
C51 O46 1.244 1_556 S
O52 Mg37 2.013 . S
O52 C41 1.191 1_545 S
O53 C32 1.331 . S
O53 Mg39 2.081 . S
O54 Mg35 1.986 . S
O54 C41 1.307 . S
O55 C33 1.264 1_556 S
O55 Mg39 2.023 . S
O56 C32 1.244 1_554 S
O56 Mg40 1.942 . S
O57 C33 1.273 . S
O57 Mg40 1.955 . S
O58 C31 1.312 1_565 S
O58 Mg34 2.291 . S
O58 Mg37 2.114 1_566 S
O59 C31 1.208 . S
O59 Mg39 2.031 . S
C60 O45 1.264 1_554 S
C60 O47 1.273 . S
C61 O42 1.191 1_545 S
C61 O44 1.307 . S
C62 O89 1.312 1_556 S
C62 O90 1.208 . S
C63 O84 1.331 . S
C63 O87 1.244 1_655 S
C64 O86 1.264 1_455 S
C64 O88 1.273 . S
Mg65 O67 1.936 1_655 S
Mg65 O74 2.081 . S
Mg65 O76 2.023 . S
Mg65 O80 2.031 . S
Mg65 O89 2.291 . S
Mg66 O67 1.963 . S
Mg66 O77 1.942 . S
Mg66 O78 1.955 . S
Mg66 O85 1.986 . S
O67 Mg65 1.936 1_455 S
O67 Mg66 1.963 . S
O67 Mg68 1.915 . S
Mg68 O67 1.915 . S
Mg68 O69 1.915 1_554 S
Mg68 O73 2.013 . S
Mg68 O79 2.114 1_454 S
Mg68 O83 2.013 1_554 S
Mg68 O89 2.114 1_455 S
O69 Mg68 1.915 1_556 S
O69 Mg70 1.936 1_455 S
O69 Mg71 1.963 . S
Mg70 O69 1.936 1_655 S
Mg70 O79 2.291 . S
Mg70 O84 2.081 . S
Mg70 O86 2.023 . S
Mg70 O90 2.031 . S
Mg71 O69 1.963 . S
Mg71 O75 1.986 . S
Mg71 O87 1.942 . S
Mg71 O88 1.955 . S
C72 O83 1.191 1_554 S
C72 O85 1.307 . S
O73 Mg68 2.013 . S
O73 C92 1.191 1_554 S
O74 Mg65 2.081 . S
O74 C82 1.331 . S
O75 Mg71 1.986 . S
O75 C92 1.307 . S
O76 Mg65 2.023 . S
O76 C91 1.264 1_655 S
O77 Mg66 1.942 . S
O77 C82 1.244 1_455 S
O78 Mg66 1.955 . S
O78 C91 1.273 . S
O79 Mg68 2.114 1_656 S
O79 Mg70 2.291 . S
O79 C81 1.312 1_556 S
O80 Mg65 2.031 . S
O80 C81 1.208 . S
C81 O79 1.312 1_554 S
C81 O80 1.208 . S
C82 O74 1.331 . S
C82 O77 1.244 1_655 S
O83 Mg68 2.013 1_556 S
O83 C72 1.191 1_556 S
O84 C63 1.331 . S
O84 Mg70 2.081 . S
O85 Mg66 1.986 . S
O85 C72 1.307 . S
O86 C64 1.264 1_655 S
O86 Mg70 2.023 . S
O87 C63 1.244 1_455 S
O87 Mg71 1.942 . S
O88 C64 1.273 . S
O88 Mg71 1.955 . S
O89 C62 1.312 1_554 S
O89 Mg65 2.291 . S
O89 Mg68 2.114 1_655 S
O90 C62 1.208 . S
O90 Mg70 2.031 . S
C91 O76 1.264 1_455 S
C91 O78 1.273 . S
C92 O73 1.191 1_556 S
C92 O75 1.307 . S
C93 C94 1.386 1_455 S
C93 C95 1.383 . S
C93 H109 0.951 . S
C94 C93 1.386 1_655 S
C94 C98 1.383 . S
C95 C93 1.383 . S
C95 C96 1.402 . S
C95 H110 0.951 . S
C96 C95 1.402 . S
C96 C97 1.375 1_455 S
C96 C99 1.481 . S
C97 C96 1.375 1_655 S
C97 C98 1.367 . S
C97 H111 0.951 . S
C98 C94 1.383 . S
C98 C97 1.367 . S
C98 H112 0.950 . S
C99 C96 1.481 . S
C99 C100 1.297 . S
C99 H113 0.950 1_455 S
C100 C99 1.297 . S
C100 C101 1.479 . S
C100 H114 0.950 . S
C101 C100 1.479 . S
C101 C102 1.375 . S
C101 C107 1.404 . S
C102 C101 1.375 . S
C102 C103 1.369 . S
C102 H115 0.950 . S
C103 C102 1.369 . S
C103 C104 1.392 . S
C103 H116 0.951 . S
C104 C103 1.392 . S
C104 C106 1.384 . S
H105 C107 0.949 . S
C106 C104 1.384 . S
C106 C107 1.385 . S
C106 H108 0.950 . S
C107 C101 1.404 . S
C107 H105 0.949 . S
C107 C106 1.385 . S
H108 C106 0.950 . S
H109 C93 0.951 . S
H110 C95 0.951 . S
H111 C97 0.951 . S
H112 C98 0.950 . S
H113 C99 0.950 1_655 S
H114 C100 0.950 . S
H115 C102 0.950 . S
H116 C103 0.951 . S
C117 C118 1.386 1_565 S
C117 C119 1.383 . S
C117 H133 0.951 . S
C118 C117 1.386 1_545 S
C118 C122 1.383 . S
C119 C117 1.383 . S
C119 C120 1.402 1_565 S
C119 H134 0.951 . S
C120 C119 1.402 1_545 S
C120 C121 1.375 . S
C120 C123 1.481 . S
C121 C120 1.375 . S
C121 C122 1.367 . S
C121 H135 0.951 . S
C122 C118 1.383 . S
C122 C121 1.367 . S
C122 H136 0.950 . S
C123 C120 1.481 . S
C123 C124 1.297 . S
C123 H137 0.950 . S
C124 C123 1.297 . S
C124 C125 1.479 . S
C124 H138 0.950 . S
C125 C124 1.479 . S
C125 C126 1.375 1_545 S
C125 C131 1.404 . S
C126 C125 1.375 1_565 S
C126 C127 1.369 . S
C126 H139 0.950 . S
C127 C126 1.369 . S
C127 C128 1.392 1_565 S
C127 H140 0.951 . S
C128 C127 1.392 1_545 S
C128 C130 1.384 . S
H129 C131 0.949 . S
C130 C128 1.384 . S
C130 C131 1.385 . S
C130 H132 0.950 . S
C131 C125 1.404 . S
C131 H129 0.949 . S
C131 C130 1.385 . S
H132 C130 0.950 . S
H133 C117 0.951 . S
H134 C119 0.951 . S
H135 C121 0.951 . S
H136 C122 0.950 . S
H137 C123 0.950 . S
H138 C124 0.950 . S
H139 C126 0.950 . S
H140 C127 0.951 . S
C141 C142 1.386 1_655 S
C141 C143 1.383 . S
C141 H157 0.951 . S
C142 C141 1.386 1_455 S
C142 C146 1.383 . S
C143 C141 1.383 . S
C143 C144 1.402 1_655 S
C143 H158 0.951 . S
C144 C143 1.402 1_455 S
C144 C145 1.375 . S
C144 C147 1.481 . S
C145 C144 1.375 . S
C145 C146 1.367 . S
C145 H159 0.951 . S
C146 C142 1.383 . S
C146 C145 1.367 . S
C146 H160 0.950 . S
C147 C144 1.481 . S
C147 C148 1.297 1_455 S
C147 H161 0.950 . S
C148 C147 1.297 1_655 S
C148 C149 1.479 . S
C148 H162 0.950 . S
C149 C148 1.479 . S
C149 C150 1.375 . S
C149 C155 1.404 1_655 S
C150 C149 1.375 . S
C150 C151 1.369 . S
C150 H163 0.950 . S
C151 C150 1.369 . S
C151 C152 1.392 1_655 S
C151 H164 0.951 . S
C152 C151 1.392 1_455 S
C152 C154 1.384 . S
H153 C155 0.949 . S
C154 C152 1.384 . S
C154 C155 1.385 . S
C154 H156 0.950 . S
C155 C149 1.404 1_455 S
C155 H153 0.949 . S
C155 C154 1.385 . S
H156 C154 0.950 . S
H157 C141 0.951 . S
H158 C143 0.951 . S
H159 C145 0.951 . S
H160 C146 0.950 . S
H161 C147 0.950 . S
H162 C148 0.950 . S
H163 C150 0.950 . S
H164 C151 0.951 . S
C165 C166 1.386 1_565 S
C165 C167 1.383 . S
C165 H181 0.951 . S
C166 C165 1.386 1_545 S
C166 C170 1.383 . S
C167 C165 1.383 . S
C167 C168 1.402 1_565 S
C167 H182 0.951 . S
C168 C167 1.402 1_545 S
C168 C169 1.375 . S
C168 C171 1.481 . S
C169 C168 1.375 . S
C169 C170 1.367 . S
C169 H183 0.951 . S
C170 C166 1.383 . S
C170 C169 1.367 . S
C170 H184 0.950 . S
C171 C168 1.481 . S
C171 C172 1.297 1_545 S
C171 H185 0.950 . S
C172 C171 1.297 1_565 S
C172 C173 1.479 . S
C172 H186 0.950 . S
C173 C172 1.479 . S
C173 C174 1.375 . S
C173 C179 1.404 1_565 S
C174 C173 1.375 . S
C174 C175 1.369 . S
C174 H187 0.950 . S
C175 C174 1.369 . S
C175 C176 1.392 . S
C175 H188 0.951 . S
C176 C175 1.392 . S
C176 C178 1.384 1_565 S
H177 C179 0.949 . S
C178 C176 1.384 1_545 S
C178 C179 1.385 . S
C178 H180 0.950 . S
C179 C173 1.404 1_545 S
C179 H177 0.949 . S
C179 C178 1.385 . S
H180 C178 0.950 . S
H181 C165 0.951 . S
H182 C167 0.951 . S
H183 C169 0.951 . S
H184 C170 0.950 . S
H185 C171 0.950 . S
H186 C172 0.950 . S
H187 C174 0.950 . S
H188 C175 0.951 . S
C189 C190 1.386 1_655 S
C189 C191 1.383 . S
C189 H205 0.951 . S
C190 C189 1.386 1_455 S
C190 C194 1.383 . S
C191 C189 1.383 . S
C191 C192 1.402 1_655 S
C191 H206 0.951 . S
C192 C191 1.402 1_455 S
C192 C193 1.375 . S
C192 C195 1.481 . S
C193 C192 1.375 . S
C193 C194 1.367 . S
C193 H207 0.951 . S
C194 C190 1.383 . S
C194 C193 1.367 . S
C194 H208 0.950 . S
C195 C192 1.481 . S
C195 C196 1.297 1_455 S
C195 H209 0.950 . S
C196 C195 1.297 1_655 S
C196 C197 1.479 . S
C196 H210 0.950 . S
C197 C196 1.479 . S
C197 C198 1.375 . S
C197 C203 1.404 1_655 S
C198 C197 1.375 . S
C198 C199 1.369 . S
C198 H211 0.950 . S
C199 C198 1.369 . S
C199 C200 1.392 . S
C199 H212 0.951 . S
C200 C199 1.392 . S
C200 C202 1.384 1_655 S
H201 C203 0.949 . S
C202 C200 1.384 1_455 S
C202 C203 1.385 . S
C202 H204 0.950 . S
C203 C197 1.404 1_455 S
C203 H201 0.949 . S
C203 C202 1.385 . S
H204 C202 0.950 . S
H205 C189 0.951 . S
H206 C191 0.951 . S
H207 C193 0.951 . S
H208 C194 0.950 . S
H209 C195 0.950 . S
H210 C196 0.950 . S
H211 C198 0.950 . S
H212 C199 0.951 . S
C213 C214 1.386 1_545 S
C213 C215 1.383 . S
C213 H229 0.951 . S
C214 C213 1.386 1_565 S
C214 C218 1.383 . S
C215 C213 1.383 . S
C215 C216 1.402 1_545 S
C215 H230 0.951 . S
C216 C215 1.402 1_565 S
C216 C217 1.375 . S
C216 C219 1.481 . S
C217 C216 1.375 . S
C217 C218 1.367 . S
C217 H231 0.951 . S
C218 C214 1.383 . S
C218 C217 1.367 . S
C218 H232 0.950 . S
C219 C216 1.481 . S
C219 C220 1.297 1_565 S
C219 H233 0.950 . S
C220 C219 1.297 1_545 S
C220 C221 1.479 . S
C220 H234 0.950 . S
C221 C220 1.479 . S
C221 C222 1.375 . S
C221 C227 1.404 1_545 S
C222 C221 1.375 . S
C222 C223 1.369 . S
C222 H235 0.950 . S
C223 C222 1.369 . S
C223 C224 1.392 . S
C223 H236 0.951 . S
C224 C223 1.392 . S
C224 C226 1.384 1_545 S
H225 C227 0.949 . S
C226 C224 1.384 1_565 S
C226 C227 1.385 . S
C226 H228 0.950 . S
C227 C221 1.404 1_565 S
C227 H225 0.949 . S
C227 C226 1.385 . S
H228 C226 0.950 . S
H229 C213 0.951 . S
H230 C215 0.951 . S
H231 C217 0.951 . S
H232 C218 0.950 . S
H233 C219 0.950 . S
H234 C220 0.950 . S
H235 C222 0.950 . S
H236 C223 0.951 . S
C237 C238 1.386 . S
C237 C239 1.383 . S
C237 H253 0.951 . S
C238 C237 1.386 . S
C238 C242 1.383 . S
C239 C237 1.383 . S
C239 C240 1.402 . S
C239 H254 0.951 . S
C240 C239 1.402 . S
C240 C241 1.375 . S
C240 C243 1.481 . S
C241 C240 1.375 . S
C241 C242 1.367 . S
C241 H255 0.949 1_455 S
C242 C238 1.383 . S
C242 C241 1.367 . S
C242 H256 0.950 1_455 S
C243 C240 1.481 . S
C243 C244 1.297 . S
C243 H257 0.950 . S
C244 C243 1.297 . S
C244 C245 1.479 . S
C244 H258 0.950 . S
C245 C244 1.479 . S
C245 C246 1.375 . S
C245 C251 1.404 . S
C246 C245 1.375 . S
C246 C247 1.369 . S
C246 H259 0.950 . S
C247 C246 1.369 . S
C247 C248 1.392 . S
C247 H260 0.951 . S
C248 C247 1.392 . S
C248 C250 1.384 . S
H249 C251 0.949 . S
C250 C248 1.384 . S
C250 C251 1.385 . S
C250 H252 0.950 . S
C251 C245 1.404 . S
C251 H249 0.949 . S
C251 C250 1.385 . S
H252 C250 0.950 . S
H253 C237 0.951 . S
H254 C239 0.951 . S
H255 C241 0.949 1_655 S
H256 C242 0.950 1_655 S
H257 C243 0.950 . S
H258 C244 0.950 . S
H259 C246 0.950 . S
H260 C247 0.951 . S
C261 C262 1.386 1_565 S
C261 C263 1.383 . S
C261 H277 0.951 . S
C262 C261 1.386 1_545 S
C262 C266 1.383 . S
C263 C261 1.383 . S
C263 C264 1.402 1_565 S
C263 H278 0.951 . S
C264 C263 1.402 1_545 S
C264 C265 1.375 . S
C264 C267 1.481 . S
C265 C264 1.375 . S
C265 C266 1.367 . S
C265 H279 0.951 . S
C266 C262 1.383 . S
C266 C265 1.367 . S
C266 H280 0.950 . S
C267 C264 1.481 . S
C267 C268 1.297 1_545 S
C267 H281 0.950 . S
C268 C267 1.297 1_565 S
C268 C269 1.479 . S
C268 H282 0.950 . S
C269 C268 1.479 . S
C269 C270 1.375 . S
C269 C275 1.404 1_565 S
C270 C269 1.375 . S
C270 C271 1.369 . S
C270 H283 0.950 . S
C271 C270 1.369 . S
C271 C272 1.392 . S
C271 H284 0.951 . S
C272 C271 1.392 . S
C272 C274 1.384 1_565 S
H273 C275 0.949 . S
C274 C272 1.384 1_545 S
C274 C275 1.385 . S
C274 H276 0.950 . S
C275 C269 1.404 1_545 S
C275 H273 0.949 . S
C275 C274 1.385 . S
H276 C274 0.950 . S
H277 C261 0.951 . S
H278 C263 0.951 . S
H279 C265 0.951 . S
H280 C266 0.950 . S
H281 C267 0.950 . S
H282 C268 0.950 . S
H283 C270 0.950 . S
H284 C271 0.951 . S
C285 C286 1.386 . S
C285 C287 1.383 . S
C285 H301 0.951 . S
C286 C285 1.386 . S
C286 C290 1.383 1_554 S
C287 C285 1.383 . S
C287 C288 1.402 1_554 S
C287 H302 0.951 . S
C288 C287 1.402 1_556 S
C288 C289 1.375 . S
C288 C291 1.481 . S
C289 C288 1.375 . S
C289 C290 1.367 . S
C289 H303 0.951 . S
C290 C286 1.383 1_556 S
C290 C289 1.367 . S
C290 H304 0.950 . S
C291 C288 1.481 . S
C291 C292 1.297 . S
C291 H305 0.950 . S
C292 C291 1.297 . S
C292 C293 1.479 . S
C292 H306 0.950 . S
C293 C292 1.479 . S
C293 C294 1.383 . S
C293 C299 1.404 . S
C294 C293 1.383 . S
C294 C295 1.367 1_556 S
C294 H307 0.944 1_556 S
C295 C294 1.367 1_554 S
C295 C296 1.392 1_554 S
C295 H308 0.951 . S
C296 C295 1.392 1_556 S
C296 C298 1.384 . S
H297 C299 0.949 . S
C298 C296 1.384 . S
C298 C299 1.385 . S
C298 H300 0.950 . S
C299 C293 1.404 . S
C299 H297 0.949 . S
C299 C298 1.385 . S
H300 C298 0.950 . S
H301 C285 0.951 . S
H302 C287 0.951 . S
H303 C289 0.951 . S
H304 C290 0.950 . S
H305 C291 0.950 . S
H306 C292 0.950 . S
H307 C294 0.944 1_554 S
H308 C295 0.951 . S
C309 C310 1.386 1_556 S
C309 C311 1.383 1_556 S
C309 H325 0.951 . S
C310 C309 1.386 1_554 S
C310 C314 1.383 . S
C311 C309 1.383 1_554 S
C311 C312 1.402 . S
C311 H326 0.951 1_554 S
C312 C311 1.402 . S
C312 C313 1.375 . S
C312 C315 1.481 . S
C313 C312 1.375 . S
C313 C314 1.367 . S
C313 H327 0.951 . S
C314 C310 1.383 . S
C314 C313 1.367 . S
C314 H328 0.950 . S
C315 C312 1.481 . S
C315 C316 1.297 . S
C315 H329 0.950 . S
C316 C315 1.297 . S
C316 C317 1.479 . S
C316 H330 0.950 . S
C317 C316 1.479 . S
C317 C318 1.375 . S
C317 C323 1.404 . S
C318 C317 1.375 . S
C318 C319 1.369 . S
C318 H331 0.950 . S
C319 C318 1.369 . S
C319 C320 1.392 . S
C319 H332 0.951 1_554 S
C320 C319 1.392 . S
C320 C322 1.384 . S
H321 C323 0.949 . S
C322 C320 1.384 . S
C322 C323 1.385 . S
C322 H324 0.950 . S
C323 C317 1.404 . S
C323 H321 0.949 . S
C323 C322 1.385 . S
H324 C322 0.950 . S
H325 C309 0.951 . S
H326 C311 0.951 1_556 S
H327 C313 0.951 . S
H328 C314 0.950 . S
H329 C315 0.950 . S
H330 C316 0.950 . S
H331 C318 0.950 . S
H332 C319 0.951 1_556 S
C333 C334 1.386 . S
C333 C335 1.383 . S
C333 H349 0.951 . S
C334 C333 1.386 . S
C334 C338 1.385 . S
C335 C333 1.383 . S
C335 C336 1.402 1_554 S
C335 H350 0.951 . S
C336 C335 1.402 1_556 S
C336 C337 1.375 . S
C336 C339 1.481 . S
C337 C336 1.375 . S
C337 C338 1.365 1_556 S
C337 H351 0.951 . S
C338 C334 1.385 . S
C338 C337 1.365 1_554 S
C338 H352 0.949 1_554 S
C339 C336 1.481 . S
C339 C340 1.297 . S
C339 H353 0.950 . S
C340 C339 1.297 . S
C340 C341 1.479 . S
C340 H354 0.950 . S
C341 C340 1.479 . S
C341 C342 1.375 . S
C341 C347 1.404 . S
C342 C341 1.375 . S
C342 C343 1.370 . S
C342 H355 0.950 . S
C343 C342 1.370 . S
C343 C344 1.395 . S
C343 H356 0.946 1_556 S
C344 C343 1.395 . S
C344 C346 1.384 . S
H345 C347 0.949 . S
C346 C344 1.384 . S
C346 C347 1.385 . S
C346 H348 0.950 . S
C347 C341 1.404 . S
C347 H345 0.949 . S
C347 C346 1.385 . S
H348 C346 0.950 . S
H349 C333 0.951 . S
H350 C335 0.951 . S
H351 C337 0.951 . S
H352 C338 0.949 1_556 S
H353 C339 0.950 . S
H354 C340 0.950 . S
H355 C342 0.950 . S
H356 C343 0.946 1_554 S
C357 C358 1.381 1_554 S
C357 C359 1.383 . S
C357 H373 0.951 . S
C358 C357 1.381 1_556 S
C358 C362 1.389 . S
C359 C357 1.383 . S
C359 C360 1.402 1_554 S
C359 H374 0.951 . S
C360 C359 1.402 1_556 S
C360 C361 1.375 . S
C360 C363 1.481 . S
C361 C360 1.375 . S
C361 C362 1.367 . S
C361 H375 0.951 . S
C362 C358 1.389 . S
C362 C361 1.367 . S
C362 H376 0.950 . S
C363 C360 1.481 . S
C363 C364 1.297 . S
C363 H377 0.950 . S
C364 C363 1.297 . S
C364 C365 1.479 . S
C364 H378 0.950 1_556 S
C365 C364 1.479 . S
C365 C366 1.375 1_556 S
C365 C371 1.404 . S
C366 C365 1.375 1_554 S
C366 C367 1.369 . S
C366 H379 0.950 . S
C367 C366 1.369 . S
C367 C368 1.392 1_554 S
C367 H380 0.951 . S
C368 C367 1.392 1_556 S
C368 C370 1.384 . S
H369 C371 0.949 . S
C370 C368 1.384 . S
C370 C371 1.385 . S
C370 H372 0.950 . S
C371 C365 1.404 . S
C371 H369 0.949 . S
C371 C370 1.385 . S
H372 C370 0.950 . S
H373 C357 0.951 . S
H374 C359 0.951 . S
H375 C361 0.951 . S
H376 C362 0.950 . S
H377 C363 0.950 . S
H378 C364 0.950 1_554 S
H379 C366 0.950 . S
H380 C367 0.951 . S
C94 C82 1.202 . S
C104 C10 1.144 . S
C118 C2 1.270 . S
C128 C41 1.229 1_545 S
C142 C19 1.292 . S
C152 C91 1.331 . S
C166 C61 1.158 . S
C176 C20 1.199 . S
C190 C0 1.200 1_455 S
C200 C63 1.216 . S
C214 C31 1.260 1_565 S
C224 C29 1.319 . S
C238 C64 1.273 . S
C248 C30 1.266 1_455 S
C262 C50 1.163 1_545 S
C272 C1 1.235 . S
C286 C72 1.196 . S
C296 C32 1.229 . S
C310 C92 1.237 1_554 S
C320 C60 1.270 . S
C334 C33 1.322 . S
C344 C81 1.319 1_556 S
C358 C62 1.165 . S
C368 C51 1.249 . S
