# Generated by pormake.
# Topology smw, (6)-cn, num edge types: 1
# Building blocks:
#     Node 0, Type 0, BuildingBlock: IZENUY_clean_sbu_0, # of connection points: 6
#     Node 1, Type 0, BuildingBlock: IZENUY_clean_sbu_0, # of connection points: 6
#     Node 2, Type 0, BuildingBlock: IZENUY_clean_sbu_0, # of connection points: 6
#     Node 3, Type 0, BuildingBlock: IZENUY_clean_sbu_0, # of connection points: 6
#     Node 4, Type 0, BuildingBlock: IZENUY_clean_sbu_0, # of connection points: 6
#     Node 5, Type 0, BuildingBlock: IZENUY_clean_sbu_0, # of connection points: 6
#     Node 6, Type 0, BuildingBlock: IZENUY_clean_sbu_0, # of connection points: 6
#     Node 7, Type 0, BuildingBlock: IZENUY_clean_sbu_0, # of connection points: 6
#     Node 8, Type 0, BuildingBlock: IZENUY_clean_sbu_0, # of connection points: 6
#     Node 9, Type 0, BuildingBlock: IZENUY_clean_sbu_0, # of connection points: 6
#     Node 10, Type 0, BuildingBlock: IZENUY_clean_sbu_0, # of connection points: 6
#     Node 11, Type 0, BuildingBlock: IZENUY_clean_sbu_0, # of connection points: 6
#     Edge 12, Type (0, 0), BuildingBlock: XIVTED_clean_linker_0, # of connection points: 2
#     Edge 13, Type (0, 0), BuildingBlock: XIVTED_clean_linker_0, # of connection points: 2
#     Edge 14, Type (0, 0), BuildingBlock: XIVTED_clean_linker_0, # of connection points: 2
#     Edge 15, Type (0, 0), BuildingBlock: XIVTED_clean_linker_0, # of connection points: 2
#     Edge 16, Type (0, 0), BuildingBlock: XIVTED_clean_linker_0, # of connection points: 2
#     Edge 17, Type (0, 0), BuildingBlock: XIVTED_clean_linker_0, # of connection points: 2
#     Edge 18, Type (0, 0), BuildingBlock: XIVTED_clean_linker_0, # of connection points: 2
#     Edge 19, Type (0, 0), BuildingBlock: XIVTED_clean_linker_0, # of connection points: 2
#     Edge 20, Type (0, 0), BuildingBlock: XIVTED_clean_linker_0, # of connection points: 2
#     Edge 21, Type (0, 0), BuildingBlock: XIVTED_clean_linker_0, # of connection points: 2
#     Edge 22, Type (0, 0), BuildingBlock: XIVTED_clean_linker_0, # of connection points: 2
#     Edge 23, Type (0, 0), BuildingBlock: XIVTED_clean_linker_0, # of connection points: 2
#     Edge 24, Type (0, 0), BuildingBlock: XIVTED_clean_linker_0, # of connection points: 2
#     Edge 25, Type (0, 0), BuildingBlock: XIVTED_clean_linker_0, # of connection points: 2
#     Edge 26, Type (0, 0), BuildingBlock: XIVTED_clean_linker_0, # of connection points: 2
#     Edge 27, Type (0, 0), BuildingBlock: XIVTED_clean_linker_0, # of connection points: 2
#     Edge 28, Type (0, 0), BuildingBlock: XIVTED_clean_linker_0, # of connection points: 2
#     Edge 29, Type (0, 0), BuildingBlock: XIVTED_clean_linker_0, # of connection points: 2
#     Edge 30, Type (0, 0), BuildingBlock: XIVTED_clean_linker_0, # of connection points: 2
#     Edge 31, Type (0, 0), BuildingBlock: XIVTED_clean_linker_0, # of connection points: 2
#     Edge 32, Type (0, 0), BuildingBlock: XIVTED_clean_linker_0, # of connection points: 2
#     Edge 33, Type (0, 0), BuildingBlock: XIVTED_clean_linker_0, # of connection points: 2
#     Edge 34, Type (0, 0), BuildingBlock: XIVTED_clean_linker_0, # of connection points: 2
#     Edge 35, Type (0, 0), BuildingBlock: XIVTED_clean_linker_0, # of connection points: 2
#     Edge 36, Type (0, 0), BuildingBlock: XIVTED_clean_linker_0, # of connection points: 2
#     Edge 37, Type (0, 0), BuildingBlock: XIVTED_clean_linker_0, # of connection points: 2
#     Edge 38, Type (0, 0), BuildingBlock: XIVTED_clean_linker_0, # of connection points: 2
#     Edge 39, Type (0, 0), BuildingBlock: XIVTED_clean_linker_0, # of connection points: 2
#     Edge 40, Type (0, 0), BuildingBlock: XIVTED_clean_linker_0, # of connection points: 2
#     Edge 41, Type (0, 0), BuildingBlock: XIVTED_clean_linker_0, # of connection points: 2
#     Edge 42, Type (0, 0), BuildingBlock: XIVTED_clean_linker_0, # of connection points: 2
#     Edge 43, Type (0, 0), BuildingBlock: XIVTED_clean_linker_0, # of connection points: 2
#     Edge 44, Type (0, 0), BuildingBlock: XIVTED_clean_linker_0, # of connection points: 2
#     Edge 45, Type (0, 0), BuildingBlock: XIVTED_clean_linker_0, # of connection points: 2
#     Edge 46, Type (0, 0), BuildingBlock: XIVTED_clean_linker_0, # of connection points: 2
#     Edge 47, Type (0, 0), BuildingBlock: XIVTED_clean_linker_0, # of connection points: 2
# Relax obj value: 0.142
# Max RMSD: 0.113
# Mean RMSD: 0.113
data_MOF--net-smw--node1-IZENUY_clean_sbu_0--edge1-XIVTED_clean_linker_0
_symmetry_space_group_name_H-M    P1
_symmetry_Int_Tables_number       1
_symmetry_cell_setting            triclinic
loop_
_symmetry_equiv_pos_as_xyz
'x, y, z'
_cell_length_a     57.070986
_cell_length_b     57.126224
_cell_length_c     20.362423
_cell_angle_alpha  90.040729
_cell_angle_beta   89.75269
_cell_angle_gamma 119.96382
loop_
_atom_site_label
_atom_site_type_symbol
_atom_site_fract_x
_atom_site_fract_y
_atom_site_fract_z
_atom_type_partial_charge
Fe0 Fe 0.48676 0.15373 0.00426 0.0
Fe1 Fe 0.4624 0.09262 -0.00472 0.0
O2 O 0.45802 0.12111 -0.00212 0.0
Fe3 Fe 0.42493 0.11666 0.99404 0.0
O4 O 0.43313 0.13751 0.92065 0.0
O5 O 0.47241 0.17037 0.95503 0.0
O6 O 0.50159 0.14973 0.92854 0.0
C7 C 0.50679 0.13094 0.91959 0.0
C8 C 0.45177 0.15898 0.08718 0.0
O9 O 0.49561 0.10998 0.95509 0.0
C10 C 0.41516 0.07393 0.07271 0.0
O11 O 0.50605 0.14277 0.05539 0.0
O12 O 0.47756 0.09985 0.076 0.0
O13 O 0.43247 0.14559 0.04773 0.0
O14 O 0.47428 0.16014 0.07983 0.0
C15 C 0.42419 0.07917 0.90117 0.0
O16 O 0.42995 0.06937 0.03459 0.0
O17 O 0.41433 0.09553 0.06773 0.0
C18 C 0.49854 0.12179 0.09034 0.0
O19 O 0.44778 0.08422 0.9147 0.0
O20 O 0.41164 0.08698 0.93886 0.0
C21 C 0.45273 0.16136 0.91543 0.0
Fe22 Fe 0.33659 0.48658 0.98746 0.0
Fe23 Fe 0.37362 0.46259 0.98767 0.0
O24 O 0.34061 0.45779 0.98985 0.0
Fe25 Fe 0.31218 0.4245 0.9942 0.0
O26 O 0.29053 0.43238 0.94232 0.0
O27 O 0.31715 0.47489 0.91273 0.0
O28 O 0.36645 0.50681 0.93524 0.0
C29 C 0.37911 0.49962 0.89638 0.0
C30 C 0.29525 0.4515 0.07612 0.0
O31 O 0.38003 0.47834 0.90732 0.0
C32 C 0.35073 0.42357 0.08179 0.0
O33 O 0.35603 0.50028 0.06296 0.0
O34 O 0.38958 0.49522 0.02855 0.0
O35 O 0.2997 0.43207 0.06923 0.0
O36 O 0.30594 0.47163 0.03784 0.0
C37 C 0.34507 0.41661 0.90921 0.0
O38 O 0.36888 0.4473 0.06739 0.0
O39 O 0.32938 0.41125 0.04729 0.0
C40 C 0.38003 0.50499 0.06904 0.0
O41 O 0.36438 0.4309 0.94705 0.0
O42 O 0.32205 0.41405 0.91873 0.0
C43 C 0.29625 0.45214 0.90415 0.0
Fe44 Fe 0.89204 0.30991 -0.00493 0.0
Fe45 Fe 0.85559 0.3356 0.98687 0.0
O46 O 0.8881 0.33885 0.99063 0.0
Fe47 Fe 0.91686 0.37155 0.99016 0.0
O48 O 0.93927 0.36174 0.95072 0.0
O49 O 0.91316 0.31962 0.92106 0.0
O50 O 0.86287 0.28899 0.94195 0.0
C51 C 0.84928 0.29507 0.90344 0.0
C52 C 0.93099 0.34721 0.08482 0.0
O53 O 0.84795 0.31629 0.9117 0.0
C54 C 0.88062 0.37868 0.06962 0.0
O55 O 0.8713 0.2976 0.06914 0.0
O56 O 0.83885 0.30489 0.03644 0.0
O57 O 0.92649 0.36611 0.07063 0.0
O58 O 0.92195 0.32615 0.04936 0.0
C59 C 0.8865 0.37821 0.89754 0.0
O60 O 0.86112 0.3549 0.06263 0.0
O61 O 0.90039 0.38796 0.0304 0.0
C62 C 0.84761 0.29379 0.0752 0.0
O63 O 0.86631 0.36563 0.93543 0.0
O64 O 0.90852 0.37877 0.90932 0.0
C65 C 0.93492 0.34183 0.91558 0.0
Fe66 Fe 0.55264 0.9162 0.98986 0.0
Fe67 Fe 0.59021 0.89221 0.99202 0.0
O68 O 0.55709 0.88777 0.989 0.0
Fe69 Fe 0.52819 0.85513 0.98539 0.0
O70 O 0.50837 0.8655 0.93462 0.0
O71 O 0.53694 0.90788 0.90931 0.0
O72 O 0.58469 0.93891 0.94996 0.0
C73 C 0.60008 0.9347 0.91342 0.0
C74 C 0.50941 0.87931 0.06902 0.0
O75 O 0.60081 0.91307 0.91793 0.0
C76 C 0.56289 0.84812 0.07275 0.0
O77 O 0.56784 0.92569 0.07014 0.0
O78 O 0.60375 0.92222 0.04639 0.0
O79 O 0.51438 0.86028 0.06158 0.0
O80 O 0.5198 0.89934 0.03069 0.0
C81 C 0.56235 0.84911 0.90087 0.0
O82 O 0.58247 0.87186 0.06608 0.0
O83 O 0.54286 0.83887 0.03439 0.0
C84 C 0.59144 0.93058 0.08337 0.0
O85 O 0.58217 0.86293 0.93881 0.0
O86 O 0.53984 0.8478 0.90975 0.0
C87 C 0.51567 0.88577 0.89728 0.0
Fe88 Fe 0.63948 0.54727 -4e-05 0.0
Fe89 Fe 0.7011 0.58454 0.99205 0.0
O90 O 0.67233 0.55154 -0.00355 0.0
Fe91 Fe 0.67587 0.52247 -0.0024 0.0
O92 O 0.65618 0.5093 0.92278 0.0
O93 O 0.62289 0.51459 0.95831 0.0
O94 O 0.64411 0.56269 0.92062 0.0
C95 C 0.66259 0.58619 0.90571 0.0
C96 C 0.63385 0.50981 0.09016 0.0
O97 O 0.68416 0.59823 0.93953 0.0
C98 C 0.71673 0.55608 0.08036 0.0
O99 O 0.64925 0.57927 0.04118 0.0
O100 O 0.69165 0.59502 0.06769 0.0
O101 O 0.64614 0.5025 0.05044 0.0
O102 O 0.63321 0.53132 0.08011 0.0
C103 C 0.71725 0.55736 0.90853 0.0
O104 O 0.72253 0.57617 0.0433 0.0
O105 O 0.69558 0.5336 0.07165 0.0
C106 C 0.66943 0.59433 0.07605 0.0
O107 O 0.71332 0.57704 0.91661 0.0
O108 O 0.7063 0.53703 0.94618 0.0
C109 C 0.63215 0.50447 0.9178 0.0
Fe110 Fe 0.09677 0.63674 0.99229 0.0
Fe111 Fe 0.12161 0.69831 0.99274 0.0
O112 O 0.1256 0.66938 -0.00502 0.0
Fe113 Fe 0.15806 0.67264 9e-05 0.0
O114 O 0.15352 0.65406 0.92403 0.0
O115 O 0.11369 0.62062 0.95151 0.0
O116 O 0.08848 0.64351 0.91208 0.0
C117 C 0.08382 0.66238 0.89914 0.0
C118 C 0.12575 0.62892 0.08649 0.0
O119 O 0.092 0.68264 0.93715 0.0
C120 C 0.16393 0.71242 0.0851 0.0
O121 O 0.07376 0.64612 0.03215 0.0
O122 O 0.10037 0.68748 0.06627 0.0
O123 O 0.14671 0.64213 0.05099 0.0
O124 O 0.10393 0.62837 0.0727 0.0
C125 C 0.16633 0.71536 0.91337 0.0
O126 O 0.15051 0.71887 0.04708 0.0
O127 O 0.16503 0.69119 0.07586 0.0
C128 C 0.07851 0.6653 0.07069 0.0
O129 O 0.14265 0.71151 0.91974 0.0
O130 O 0.17508 0.7038 0.95106 0.0
C131 C 0.1346 0.63016 0.91569 0.0
Fe132 Fe 0.89349 0.58723 0.49323 0.0
Fe133 Fe 0.85661 0.52507 0.49094 0.0
O134 O 0.88919 0.55419 0.48971 0.0
Fe135 Fe 0.91778 0.54993 0.48481 0.0
O136 O 0.92906 0.56557 0.5636 0.0
O137 O 0.92444 0.60108 0.54439 0.0
O138 O 0.8743 0.58022 0.56964 0.0
C139 C 0.85089 0.56041 0.57969 0.0
C140 C 0.93425 0.59645 0.40718 0.0
O141 O 0.84126 0.53978 0.54324 0.0
C142 C 0.88509 0.51218 0.3966 0.0
O143 O 0.86335 0.57864 0.44345 0.0
O144 O 0.84705 0.53575 0.41744 0.0
O145 O 0.93973 0.58179 0.44262 0.0
O146 O 0.91283 0.59726 0.41645 0.0
C147 C 0.8834 0.50764 0.56929 0.0
O148 O 0.86591 0.50501 0.43758 0.0
O149 O 0.9074 0.53367 0.40526 0.0
C150 C 0.8485 0.55827 0.40799 0.0
O151 O 0.86403 0.51229 0.56546 0.0
O152 O 0.90215 0.51741 0.52712 0.0
C153 C 0.93369 0.58891 0.57874 0.0
Fe154 Fe 0.31181 0.88888 0.49504 0.0
Fe155 Fe 0.33744 0.85228 0.48997 0.0
O156 O 0.34067 0.88477 0.49027 0.0
Fe157 Fe 0.37339 0.9135 0.48577 0.0
O158 O 0.36896 0.92431 0.5653 0.0
O159 O 0.32884 0.91973 0.54646 0.0
O160 O 0.30009 0.86961 0.57127 0.0
C161 C 0.29683 0.84632 0.58083 0.0
C162 C 0.34297 0.92987 0.40947 0.0
O163 O 0.30759 0.83671 0.54317 0.0
C164 C 0.37863 0.88145 0.39549 0.0
O165 O 0.29022 0.85881 0.44529 0.0
O166 O 0.31691 0.8428 0.41696 0.0
O167 O 0.36313 0.93542 0.44489 0.0
O168 O 0.32084 0.90832 0.41852 0.0
C169 C 0.38181 0.87886 0.56792 0.0
O170 O 0.36672 0.86197 0.43563 0.0
O171 O 0.37927 0.9036 0.40555 0.0
C172 C 0.29566 0.84407 0.40895 0.0
O173 O 0.35784 0.85951 0.56389 0.0
O174 O 0.39062 0.89789 0.5267 0.0
C175 C 0.3502 0.92888 0.58084 0.0
Fe176 Fe 0.4867 0.33264 0.5013 0.0
Fe177 Fe 0.46206 0.36912 0.50111 0.0
O178 O 0.4577 0.33629 0.49863 0.0
Fe179 Fe 0.42463 0.30756 0.49344 0.0
O180 O 0.43274 0.28585 0.54488 0.0
O181 O 0.47488 0.31295 0.57586 0.0
O182 O 0.50655 0.36235 0.55354 0.0
C183 C 0.49914 0.37484 0.5922 0.0
C184 C 0.45248 0.2918 0.41154 0.0
O185 O 0.47775 0.37554 0.58129 0.0
C186 C 0.42361 0.34595 0.40601 0.0
O187 O 0.50053 0.3523 0.4261 0.0
O188 O 0.49487 0.38557 0.45957 0.0
O189 O 0.43284 0.29594 0.41813 0.0
O190 O 0.47223 0.30221 0.45071 0.0
C191 C 0.41546 0.33924 0.57867 0.0
O192 O 0.44694 0.36449 0.42148 0.0
O193 O 0.41112 0.32465 0.44077 0.0
C194 C 0.5053 0.37629 0.42004 0.0
O195 O 0.43009 0.35928 0.54261 0.0
O196 O 0.41369 0.31665 0.56882 0.0
C197 C 0.45237 0.29162 0.58345 0.0
Fe198 Fe 0.11912 0.42124 0.49305 0.0
Fe199 Fe 0.15701 0.48314 0.49058 0.0
O200 O 0.12417 0.45455 0.49797 0.0
Fe201 Fe 0.09608 0.45909 0.51065 0.0
O202 O 0.08865 0.4415 0.58848 0.0
O203 O 0.09 0.40623 0.5502 0.0
O204 O 0.14083 0.4271 0.56372 0.0
C205 C 0.16485 0.44647 0.56892 0.0
C206 C 0.07561 0.41484 0.42322 0.0
O207 O 0.17379 0.46696 0.53165 0.0
C208 C 0.12389 0.49799 0.41819 0.0
O209 O 0.14737 0.43005 0.43572 0.0
O210 O 0.16184 0.47248 0.41025 0.0
O211 O 0.07221 0.42845 0.4673 0.0
O212 O 0.09693 0.41325 0.42179 0.0
C213 C 0.13617 0.50044 0.58828 0.0
O214 O 0.14569 0.50411 0.44798 0.0
O215 O 0.10198 0.47709 0.43363 0.0
C216 C 0.16058 0.45022 0.39831 0.0
O217 O 0.15498 0.49628 0.5708 0.0
O218 O 0.11438 0.49052 0.55647 0.0
C219 C 0.083 0.41727 0.59418 0.0
Fe220 Fe 0.67701 0.15562 0.49033 0.0
Fe221 Fe 0.6413 0.0945 0.50781 0.0
O222 O 0.67368 0.12316 0.49713 0.0
Fe223 Fe 0.70255 0.11901 0.49374 0.0
O224 O 0.7174 0.14068 0.56503 0.0
O225 O 0.70948 0.17295 0.53304 0.0
O226 O 0.66081 0.15269 0.5699 0.0
C227 C 0.6378 0.13345 0.58571 0.0
C228 C 0.71481 0.16046 0.3997 0.0
O229 O 0.62683 0.11194 0.55263 0.0
C230 C 0.66697 0.07532 0.42194 0.0
O231 O 0.64503 0.14366 0.44606 0.0
O232 O 0.62974 0.10027 0.43004 0.0
O233 O 0.72182 0.14742 0.43732 0.0
O234 O 0.69349 0.16134 0.4108 0.0
C235 C 0.67016 0.08254 0.59344 0.0
O236 O 0.64937 0.07129 0.4651 0.0
O237 O 0.68953 0.097 0.42181 0.0
C238 C 0.63016 0.12192 0.41513 0.0
O239 O 0.65101 0.0873 0.58626 0.0
O240 O 0.68861 0.08986 0.55035 0.0
C241 C 0.72135 0.16445 0.57038 0.0
Fe242 Fe 0.58905 0.7005 0.49054 0.0
Fe243 Fe 0.52707 0.67594 0.4861 0.0
O244 O 0.5559 0.67199 0.4872 0.0
Fe245 Fe 0.55128 0.63903 0.48505 0.0
O246 O 0.56677 0.64391 0.56432 0.0
O247 O 0.60263 0.68355 0.5432 0.0
O248 O 0.58174 0.71284 0.56595 0.0
C249 C 0.5623 0.71721 0.57378 0.0
C250 C 0.59827 0.66833 0.40739 0.0
O251 O 0.54209 0.7066 0.53601 0.0
C252 C 0.51374 0.63346 0.39544 0.0
O253 O 0.58086 0.72207 0.43911 0.0
O254 O 0.5383 0.69525 0.41103 0.0
O255 O 0.5832 0.64838 0.44329 0.0
O256 O 0.59922 0.69069 0.41497 0.0
C257 C 0.50878 0.63253 0.56777 0.0
O258 O 0.50677 0.64612 0.43479 0.0
O259 O 0.5351 0.63249 0.40523 0.0
C260 C 0.5609 0.71628 0.40183 0.0
O261 O 0.51381 0.6566 0.56187 0.0
O262 O 0.51866 0.62297 0.52745 0.0
C263 C 0.59016 0.66257 0.579 0.0
H264 H 0.41021 0.16974 0.10697 0.0
H265 H 0.4918 0.27941 0.38496 0.0
H266 H 0.48822 0.18825 0.18244 0.0
H267 H 0.41138 0.25959 0.32563 0.0
H268 H 0.4902 0.24614 0.30864 0.0
H269 H 0.40927 0.20183 0.1857 0.0
C270 C 0.42702 0.18034 0.14033 0.0
C271 C 0.44942 0.17638 0.13772 0.0
C272 C 0.47283 0.24895 0.31207 0.0
C273 C 0.44852 0.21318 0.22731 0.0
C274 C 0.47373 0.26809 0.35574 0.0
C275 C 0.45163 0.27233 0.36209 0.0
C276 C 0.44967 0.23377 0.27384 0.0
C277 C 0.42889 0.257 0.32241 0.0
C278 C 0.42649 0.19872 0.18506 0.0
C279 C 0.4706 0.19071 0.18213 0.0
N280 N 0.42847 0.23834 0.27993 0.0
N281 N 0.46965 0.20848 0.22469 0.0
H282 H 0.19144 0.48917 0.30796 0.0
H283 H 0.26222 0.40948 0.15959 0.0
H284 H 0.17038 0.40873 0.37028 0.0
H285 H 0.28233 0.49038 0.10408 0.0
H286 H 0.22793 0.40788 0.23571 0.0
H287 H 0.22363 0.4887 0.22981 0.0
C288 C 0.19342 0.4713 0.30495 0.0
C289 C 0.1782 0.44901 0.34614 0.0
C290 C 0.2399 0.42595 0.20678 0.0
C291 C 0.21541 0.44842 0.25669 0.0
C292 C 0.25955 0.42691 0.16351 0.0
C293 C 0.27522 0.45007 0.12514 0.0
C294 C 0.23594 0.4483 0.21165 0.0
C295 C 0.27077 0.47203 0.13229 0.0
C296 C 0.21192 0.47107 0.26034 0.0
C297 C 0.18167 0.4264 0.33962 0.0
N298 N 0.25161 0.47056 0.17443 0.0
N299 N 0.20001 0.42674 0.29605 0.0
H300 H 0.79646 0.28315 0.10333 0.0
H301 H 0.76497 0.16784 0.36891 0.0
H302 H 0.85478 0.25956 0.15812 0.0
H303 H 0.70846 0.19365 0.31306 0.0
H304 H 0.79765 0.19994 0.29012 0.0
H305 H 0.76404 0.24979 0.17909 0.0
C306 C 0.80254 0.27098 0.1314 0.0
C307 C 0.82849 0.27421 0.12403 0.0
C308 C 0.77806 0.19848 0.29495 0.0
C309 C 0.79106 0.23561 0.21144 0.0
C310 C 0.7593 0.18008 0.33979 0.0
C311 C 0.73387 0.17806 0.34798 0.0
C312 C 0.77139 0.21503 0.25789 0.0
C313 C 0.72778 0.19449 0.30874 0.0
C314 C 0.7839 0.25184 0.17475 0.0
C315 C 0.83505 0.25782 0.16217 0.0
N316 N 0.74642 0.2123 0.2657 0.0
N317 N 0.81643 0.23918 0.20418 0.0
H318 H 0.52397 0.70795 0.30706 0.0
H319 H 0.6036 0.85822 0.16074 0.0
H320 H 0.60203 0.76855 0.37955 0.0
H321 H 0.5247 0.79577 0.09749 0.0
H322 H 0.60461 0.82624 0.23966 0.0
H323 H 0.5254 0.74021 0.2274 0.0
C324 C 0.54151 0.72807 0.30618 0.0
C325 C 0.56284 0.73556 0.35053 0.0
C326 C 0.58713 0.81963 0.20838 0.0
C327 C 0.56457 0.77291 0.25885 0.0
C328 C 0.5865 0.83787 0.16344 0.0
C329 C 0.56404 0.8297 0.12224 0.0
C330 C 0.56515 0.79311 0.21203 0.0
C331 C 0.54249 0.80307 0.12796 0.0
C332 C 0.5423 0.74655 0.26052 0.0
C333 C 0.58511 0.76191 0.34638 0.0
N334 N 0.54362 0.78583 0.17181 0.0
N335 N 0.58535 0.77971 0.30151 0.0
H336 H 0.71322 0.51508 0.15579 0.0
H337 H 0.84748 0.60329 0.36273 0.0
H338 H 0.76438 0.60064 0.12034 0.0
H339 H 0.80808 0.51662 0.34023 0.0
H340 H 0.81561 0.60416 0.28321 0.0
H341 H 0.7457 0.51684 0.23483 0.0
C342 C 0.73127 0.53433 0.16469 0.0
C343 C 0.73611 0.55774 0.13083 0.0
C344 C 0.81413 0.58504 0.29574 0.0
C345 C 0.77362 0.55982 0.22197 0.0
C346 C 0.83223 0.5845 0.3411 0.0
C347 C 0.83042 0.55983 0.35842 0.0
C348 C 0.79395 0.56072 0.26841 0.0
C349 C 0.81032 0.53613 0.32864 0.0
C350 C 0.74991 0.53527 0.2098 0.0
C351 C 0.7599 0.58208 0.14501 0.0
N352 N 0.79285 0.53718 0.28556 0.0
N353 N 0.77784 0.58252 0.18966 0.0
H354 H 0.25038 0.84429 0.36324 0.0
H355 H 0.19886 0.7068 0.16561 0.0
H356 H 0.29506 0.80193 0.3445 0.0
H357 H 0.16889 0.76118 0.1225 0.0
H358 H 0.22995 0.73908 0.24456 0.0
H359 H 0.21672 0.81212 0.28587 0.0
C360 C 0.25315 0.82831 0.34287 0.0
C361 C 0.27558 0.82579 0.36049 0.0
C362 C 0.21659 0.744 0.21791 0.0
C363 C 0.23713 0.78896 0.27307 0.0
C364 C 0.19868 0.72549 0.17287 0.0
C365 C 0.18133 0.73134 0.13672 0.0
C366 C 0.21717 0.76859 0.22764 0.0
C367 C 0.18202 0.75591 0.14895 0.0
C368 C 0.23398 0.81004 0.29875 0.0
C369 C 0.27819 0.80476 0.33242 0.0
N370 N 0.19973 0.77371 0.19344 0.0
N371 N 0.25914 0.78712 0.29055 0.0
H372 H 0.60366 0.7481 0.66037 0.0
H373 H 0.52572 0.82111 0.80502 0.0
H374 H 0.52431 0.73152 0.60039 0.0
H375 H 0.60303 0.83706 0.87962 0.0
H376 H 0.52675 0.78978 0.72615 0.0
H377 H 0.60531 0.78166 0.73873 0.0
C378 C 0.5866 0.75142 0.6637 0.0
C379 C 0.56383 0.73694 0.6235 0.0
C380 C 0.54358 0.80011 0.75956 0.0
C381 C 0.56569 0.77533 0.71255 0.0
C382 C 0.54302 0.81812 0.80474 0.0
C383 C 0.56424 0.83168 0.84951 0.0
C384 C 0.56549 0.79541 0.75874 0.0
C385 C 0.58621 0.82703 0.84611 0.0
C386 C 0.58759 0.77062 0.70831 0.0
C387 C 0.54234 0.74214 0.63002 0.0
N388 N 0.58621 0.80916 0.80169 0.0
N389 N 0.54385 0.76084 0.6734 0.0
H390 H 0.72213 0.51545 0.86104 0.0
H391 H 0.85481 0.60502 0.64365 0.0
H392 H 0.75699 0.60179 0.84179 0.0
H393 H 0.8059 0.51815 0.63302 0.0
H394 H 0.82233 0.60531 0.72326 0.0
H395 H 0.75547 0.51711 0.78368 0.0
C396 C 0.73679 0.53482 0.84039 0.0
C397 C 0.7367 0.55853 0.85811 0.0
C398 C 0.81883 0.58625 0.7034 0.0
C399 C 0.77537 0.5606 0.76913 0.0
C400 C 0.83743 0.58604 0.65838 0.0
C401 C 0.83305 0.56153 0.6314 0.0
C402 C 0.79594 0.56175 0.72202 0.0
C403 C 0.81008 0.53757 0.65203 0.0
C404 C 0.75587 0.53574 0.79603 0.0
C405 C 0.75622 0.583 0.8293 0.0
N406 N 0.79252 0.5383 0.69593 0.0
N407 N 0.77489 0.58344 0.78646 0.0
H408 H 0.29647 0.8029 0.63663 0.0
H409 H 0.16038 0.75332 0.84315 0.0
H410 H 0.25553 0.84912 0.64505 0.0
H411 H 0.21531 0.72296 0.87221 0.0
H412 H 0.19266 0.7866 0.76488 0.0
H413 H 0.26488 0.77174 0.71787 0.0
C414 C 0.28084 0.80656 0.65575 0.0
C415 C 0.27863 0.82866 0.63376 0.0
C416 C 0.19761 0.77267 0.78859 0.0
C417 C 0.24204 0.7927 0.72692 0.0
C418 C 0.17914 0.75356 0.83298 0.0
C419 C 0.1851 0.73525 0.86443 0.0
C420 C 0.22205 0.77326 0.7749 0.0
C421 C 0.20982 0.73665 0.84945 0.0
C422 C 0.26281 0.78874 0.70233 0.0
C423 C 0.25804 0.83241 0.66077 0.0
N424 N 0.22725 0.75519 0.80571 0.0
N425 N 0.24036 0.81446 0.70558 0.0
H426 H 0.41099 0.2393 0.60473 0.0
H427 H 0.49108 0.21394 0.89285 0.0
H428 H 0.48915 0.29917 0.67826 0.0
H429 H 0.41276 0.15184 0.82553 0.0
H430 H 0.48974 0.24518 0.8143 0.0
H431 H 0.41005 0.20698 0.6857 0.0
C432 C 0.42785 0.24572 0.63802 0.0
C433 C 0.45025 0.27201 0.6343 0.0
C434 C 0.47278 0.22475 0.8165 0.0
C435 C 0.44933 0.23512 0.72671 0.0
C436 C 0.47354 0.2068 0.8615 0.0
C437 C 0.45197 0.18012 0.8661 0.0
C438 C 0.4503 0.21616 0.77525 0.0
C439 C 0.42985 0.1722 0.82379 0.0
C440 C 0.42733 0.22723 0.68407 0.0
C441 C 0.47151 0.27914 0.67874 0.0
N442 N 0.42957 0.19014 0.78012 0.0
N443 N 0.47053 0.26084 0.72273 0.0
H444 H 0.15449 0.40696 0.6613 0.0
H445 H 0.30481 0.48795 0.80574 0.0
H446 H 0.21837 0.48292 0.58561 0.0
H447 H 0.24416 0.41059 0.88267 0.0
H448 H 0.27299 0.4851 0.72297 0.0
H449 H 0.18649 0.40662 0.74111 0.0
C450 C 0.1752 0.42348 0.6612 0.0
C451 C 0.18368 0.44503 0.61663 0.0
C452 C 0.26655 0.46865 0.75772 0.0
C453 C 0.22029 0.44477 0.70771 0.0
C454 C 0.28477 0.47028 0.80523 0.0
C455 C 0.27716 0.44956 0.85168 0.0
C456 C 0.2403 0.44617 0.75637 0.0
C457 C 0.25091 0.42707 0.84792 0.0
C458 C 0.19344 0.42327 0.70676 0.0
C459 C 0.21077 0.46589 0.61892 0.0
N460 N 0.23335 0.42603 0.8013 0.0
N461 N 0.22798 0.46523 0.66361 0.0
H462 H 0.8401 0.24364 0.88033 0.0
H463 H 0.73628 0.21738 0.58858 0.0
H464 H 0.8199 0.30244 0.80837 0.0
H465 H 0.75222 0.15558 0.66047 0.0
H466 H 0.76859 0.24901 0.66653 0.0
H467 H 0.81003 0.21156 0.79776 0.0
C468 C 0.82949 0.24988 0.84704 0.0
C469 C 0.83245 0.27578 0.85165 0.0
C470 C 0.76513 0.22857 0.66541 0.0
C471 C 0.79801 0.23914 0.75725 0.0
C472 C 0.74659 0.21039 0.62074 0.0
C473 C 0.74141 0.18365 0.61782 0.0
C474 C 0.77874 0.22014 0.70804 0.0
C475 C 0.75555 0.17597 0.66095 0.0
C476 C 0.81229 0.23152 0.80003 0.0
C477 C 0.81818 0.2827 0.80712 0.0
N478 N 0.77356 0.19413 0.70443 0.0
N479 N 0.80159 0.2645 0.76207 0.0
H480 H 0.32464 0.92177 0.28235 0.0
H481 H 0.39931 0.08003 0.19616 0.0
H482 H 0.36836 0.98425 0.42521 0.0
H483 H 0.39186 0.01943 0.05805 0.0
H484 H 0.37564 0.04427 0.27893 0.0
H485 H 0.33688 0.95694 0.19781 0.0
C486 C 0.33621 0.94286 0.29615 0.0
C487 C 0.34565 0.95019 0.36054 0.0
C488 C 0.37888 0.03886 0.23012 0.0
C489 C 0.35949 0.99028 0.26494 0.0
C490 C 0.39223 0.05918 0.18292 0.0
C491 C 0.39776 0.05268 0.12049 0.0
C492 C 0.37052 0.01185 0.21415 0.0
C493 C 0.38828 0.02534 0.10592 0.0
C494 C 0.34334 0.96287 0.248 0.0
C495 C 0.36086 0.9778 0.37589 0.0
N496 N 0.37517 0.00595 0.15237 0.0
N497 N 0.36735 0.99684 0.32849 0.0
H498 H 0.44817 0.38129 0.30655 0.0
H499 H 0.32102 0.37002 0.12275 0.0
H500 H 0.36878 0.32412 0.38075 0.0
H501 H 0.39576 0.44444 0.15754 0.0
H502 H 0.3363 0.34687 0.19949 0.0
H503 H 0.42763 0.39725 0.22746 0.0
C504 C 0.42632 0.37188 0.30585 0.0
C505 C 0.4102 0.35171 0.35133 0.0
C506 C 0.34907 0.36829 0.19022 0.0
C507 C 0.38651 0.37012 0.26046 0.0
C508 C 0.34041 0.38152 0.1467 0.0
C509 C 0.35724 0.40919 0.1329 0.0
C510 C 0.37481 0.38285 0.21867 0.0
C511 C 0.38213 0.42308 0.1656 0.0
C512 C 0.41462 0.38109 0.26074 0.0
C513 C 0.38193 0.33988 0.34686 0.0
N514 N 0.39021 0.40972 0.20606 0.0
N515 N 0.37087 0.34949 0.30247 0.0
H516 H 0.02433 0.40543 0.43567 0.0
H517 H 0.9673 0.329 0.09543 0.0
H518 H 0.07465 0.38901 0.30652 0.0
H519 H 0.93857 0.37652 0.19536 0.0
H520 H 1.00211 0.34161 0.18081 0.0
H521 H 0.98787 0.38479 0.35726 0.0
C522 C 0.02777 0.39738 0.39078 0.0
C523 C 0.0529 0.39944 0.37729 0.0
C524 C 0.98799 0.34901 0.18403 0.0
C525 C 0.0107 0.37556 0.28657 0.0
C526 C 0.96805 0.34169 0.13585 0.0
C527 C 0.95009 0.35179 0.13853 0.0
C528 C 0.98945 0.36603 0.23557 0.0
C529 C 0.95207 0.3684 0.19131 0.0
C530 C 1.00681 0.38556 0.34592 0.0
C531 C 0.0557 0.38804 0.31866 0.0
N532 N 0.97133 0.37493 0.23765 0.0
N533 N 0.03485 0.37674 0.27493 0.0
H534 H 0.56956 0.93441 0.19801 0.0
H535 H 0.6925 0.07635 0.30453 0.0
H536 H 0.64519 0.96972 0.09189 0.0
H537 H 0.62698 0.02317 0.43316 0.0
H538 H 0.67698 0.03915 0.22429 0.0
H539 H 0.59112 0.96837 0.28325 0.0
C540 C 0.59086 0.94922 0.19312 0.0
C541 C 0.60564 0.94927 0.13805 0.0
C542 C 0.66633 0.0357 0.27057 0.0
C543 C 0.63051 0.98872 0.23504 0.0
C544 C 0.67516 0.05687 0.31627 0.0
C545 C 0.66078 0.05305 0.37522 0.0
C546 C 0.64297 0.01079 0.28417 0.0
C547 C 0.63847 0.02736 0.38798 0.0
C548 C 0.60322 0.96863 0.24182 0.0
C549 C 0.63319 0.96893 0.13405 0.0
N550 N 0.63018 0.00744 0.34276 0.0
N551 N 0.64473 0.9882 0.18158 0.0
H552 H 0.69034 0.60824 0.20038 0.0
H553 H 0.61186 0.68862 0.28213 0.0
H554 H 0.64188 0.62117 0.05904 0.0
H555 H 0.62473 0.64041 0.42458 0.0
H556 H 0.63568 0.67654 0.19946 0.0
H557 H 0.67904 0.63273 0.28276 0.0
C558 C 0.67786 0.61676 0.1864 0.0
C559 C 0.66677 0.6125 0.12329 0.0
C560 C 0.63365 0.66905 0.24921 0.0
C561 C 0.6541 0.64058 0.21624 0.0
C562 C 0.62023 0.67603 0.29627 0.0
C563 C 0.61614 0.66524 0.35982 0.0
C564 C 0.64347 0.65168 0.26651 0.0
C565 C 0.62722 0.64886 0.37576 0.0
C566 C 0.67132 0.63056 0.2333 0.0
C567 C 0.65055 0.62377 0.10755 0.0
N568 N 0.6403 0.64251 0.3294 0.0
N569 N 0.64463 0.63723 0.15372 0.0
H570 H 0.92612 0.60552 0.27914 0.0
H571 H 0.08458 0.68816 0.19267 0.0
H572 H 0.98856 0.62599 0.42308 0.0
H573 H 0.02397 0.63391 0.05665 0.0
H574 H 0.04875 0.67703 0.27485 0.0
H575 H 0.96139 0.62777 0.19415 0.0
C576 C 0.94723 0.61531 0.29302 0.0
C577 C 0.95454 0.61387 0.35786 0.0
C578 C 0.04335 0.6679 0.22661 0.0
C579 C 0.99471 0.63928 0.26181 0.0
C580 C 0.06372 0.67431 0.17977 0.0
C581 C 0.05723 0.6617 0.11815 0.0
C582 C 0.01631 0.64922 0.21108 0.0
C583 C 0.02987 0.64381 0.10394 0.0
C584 C 0.96728 0.62778 0.24464 0.0
C585 C 0.98215 0.62655 0.3734 0.0
N586 N 0.01043 0.63807 0.15004 0.0
N587 N 1.00124 0.63867 0.32574 0.0
H588 H 0.65188 0.08078 0.71709 0.0
H589 H 0.62058 0.93299 0.79131 0.0
H590 H 0.68239 0.04189 0.58891 0.0
H591 H 0.62272 0.98777 0.94027 0.0
H592 H 0.64494 0.97178 0.71619 0.0
H593 H 0.642 0.04632 0.80007 0.0
C594 C 0.65683 0.06512 0.70698 0.0
C595 C 0.66791 0.06406 0.64642 0.0
C596 C 0.64052 0.97524 0.76585 0.0
C597 C 0.6561 0.02413 0.74029 0.0
C598 C 0.62671 0.95318 0.80856 0.0
C599 C 0.61916 0.95722 0.87131 0.0
C600 C 0.64652 1.00116 0.78657 0.0
C601 C 0.62756 0.98371 0.89161 0.0
C602 C 0.65126 0.04546 0.75428 0.0
C603 C 0.67397 0.04338 0.63543 0.0
N604 N 0.64041 0.00457 0.84913 0.0
N605 N 0.66749 0.02382 0.68159 0.0
H606 H 0.69286 0.63958 0.86392 0.0
H607 H 0.56591 0.62927 0.682 0.0
H608 H 0.6175 0.5656 0.83055 0.0
H609 H 0.64499 0.68381 0.60173 0.0
H610 H 0.5866 0.61405 0.76266 0.0
H611 H 0.67785 0.66287 0.78681 0.0
C612 C 0.67338 0.62822 0.84023 0.0
C613 C 0.65629 0.60064 0.85452 0.0
C614 C 0.5995 0.6295 0.72772 0.0
C615 C 0.63905 0.62712 0.76853 0.0
C616 C 0.58773 0.63826 0.68174 0.0
C617 C 0.60371 0.65741 0.63416 0.0
C618 C 0.62752 0.63987 0.72658 0.0
C619 C 0.63196 0.66881 0.6373 0.0
C620 C 0.66489 0.64151 0.79655 0.0
C621 C 0.63132 0.58689 0.82216 0.0
N622 N 0.64308 0.6596 0.68247 0.0
N623 N 0.6234 0.60032 0.78157 0.0
H624 H 0.94796 0.56548 0.67373 0.0
H625 H 0.05576 0.68932 0.87257 0.0
H626 H 0.96439 0.64382 0.6051 0.0
H627 H 0.06737 0.62418 0.80419 0.0
H628 H 0.01788 0.67454 0.79462 0.0
H629 H 0.98549 0.58743 0.74949 0.0
C630 C 0.95932 0.58736 0.67495 0.0
C631 C 0.9534 0.60284 0.63188 0.0
C632 C 0.02914 0.66392 0.79652 0.0
C633 C 0.99645 0.62804 0.71912 0.0
C634 C 0.0507 0.67229 0.84064 0.0
C635 C 0.0644 0.65762 0.84584 0.0
C636 C 0.02128 0.64063 0.75876 0.0
C637 C 0.05709 0.63579 0.80311 0.0
C638 C 0.98077 0.59983 0.71815 0.0
C639 C 0.96849 0.63117 0.63708 0.0
N640 N 0.03579 0.62772 0.76235 0.0
N641 N 0.98966 0.64302 0.67976 0.0
H642 H 0.38889 0.94445 0.67369 0.0
H643 H 0.36934 0.05026 0.87413 0.0
H644 H 0.32479 0.95832 0.60915 0.0
H645 H 0.44691 0.06349 0.80649 0.0
H646 H 0.3471 0.01227 0.79613 0.0
H647 H 0.40395 0.98201 0.74932 0.0
C648 C 0.37778 0.95526 0.67576 0.0
C649 C 0.3559 0.94862 0.63389 0.0
C650 C 0.36897 0.0239 0.7982 0.0
C651 C 0.37317 0.9917 0.72091 0.0
C652 C 0.38167 0.04552 0.84233 0.0
C653 C 0.41002 0.0597 0.84774 0.0
C654 C 0.38488 0.01648 0.76066 0.0
C655 C 0.42502 0.05282 0.8052 0.0
C656 C 0.38648 0.97674 0.71886 0.0
C657 C 0.34194 0.963 0.64017 0.0
N658 N 0.41226 0.03146 0.76439 0.0
N659 N 0.35098 0.9842 0.68274 0.0
H660 H 0.31166 0.36621 0.85217 0.0
H661 H 0.44064 0.37407 0.67584 0.0
H662 H 0.39202 0.43568 0.84459 0.0
H663 H 0.36092 0.31658 0.60729 0.0
H664 H 0.42079 0.39037 0.75657 0.0
H665 H 0.32659 0.34282 0.77413 0.0
C666 C 0.33219 0.37662 0.83345 0.0
C667 C 0.35078 0.40274 0.85551 0.0
C668 C 0.40744 0.37402 0.72446 0.0
C669 C 0.36788 0.37626 0.76854 0.0
C670 C 0.41881 0.36455 0.67885 0.0
C671 C 0.40236 0.34404 0.63524 0.0
C672 C 0.37929 0.36323 0.72613 0.0
C673 C 0.37417 0.33237 0.64077 0.0
C674 C 0.34071 0.36326 0.78951 0.0
C675 C 0.37714 0.41536 0.83002 0.0
N676 N 0.36337 0.34236 0.68519 0.0
N677 N 0.38487 0.40197 0.78862 0.0
H678 H 0.98788 0.37047 0.94491 0.0
H679 H 0.04223 0.36448 0.58721 0.0
H680 H 0.9336 0.32056 0.79248 0.0
H681 H 0.07958 0.43283 0.718 0.0
H682 H 1.00652 0.33992 0.66987 0.0
H683 H 0.02596 0.3839 0.87061 0.0
C684 C 0.98403 0.36203 0.89583 0.0
C685 C 0.95753 0.34482 0.87421 0.0
C686 C 0.0228 0.36013 0.68058 0.0
C687 C 1.00116 0.36038 0.78863 0.0
C688 C 0.04322 0.37405 0.63387 0.0
C689 C 0.06376 0.40071 0.64605 0.0
C690 C 0.02344 0.37285 0.74006 0.0
C691 C 0.06401 0.41236 0.7067 0.0
C692 C 1.00579 0.36975 0.85347 0.0
C693 C 0.95375 0.33403 0.81069 0.0
N694 N 0.04416 0.39836 0.75138 0.0
N695 N 0.9754 0.34237 0.76942 0.0
H696 H 0.543 0.16561 0.14157 0.0
H697 H 0.58862 0.0778 0.35455 0.0
H698 H 0.49593 0.07864 0.15637 0.0
H699 H 0.62735 0.1648 0.36476 0.0
H700 H 0.55569 0.07757 0.27773 0.0
H701 H 0.57496 0.16558 0.22065 0.0
C702 C 0.5393 0.1465 0.16167 0.0
C703 C 0.5168 0.12208 0.14203 0.0
C704 C 0.57139 0.09669 0.29688 0.0
C705 C 0.55348 0.1219 0.23235 0.0
C706 C 0.59028 0.09686 0.34049 0.0
C707 C 0.61076 0.12136 0.36633 0.0
C708 C 0.5731 0.1212 0.27859 0.0
C709 C 0.61187 0.14541 0.34636 0.0
C710 C 0.55758 0.1465 0.20685 0.0
C711 C 0.513 0.09796 0.17004 0.0
N712 N 0.59333 0.14472 0.30368 0.0
N713 N 0.53126 0.09846 0.21348 0.0
H714 H 0.42916 0.51225 0.10153 0.0
H715 H 0.46467 0.62849 0.36554 0.0
H716 H 0.37384 0.54059 0.15052 0.0
H717 H 0.51826 0.59886 0.30958 0.0
H718 H 0.43137 0.59746 0.28697 0.0
H719 H 0.46156 0.54417 0.17827 0.0
C720 C 0.42377 0.52526 0.12845 0.0
C721 C 0.39872 0.52384 0.11896 0.0
C722 C 0.45044 0.59783 0.29179 0.0
C723 C 0.43618 0.56076 0.20797 0.0
C724 C 0.46954 0.61557 0.33653 0.0
C725 C 0.49433 0.61621 0.34452 0.0
C726 C 0.45613 0.58057 0.25469 0.0
C727 C 0.49946 0.59906 0.30537 0.0
C728 C 0.44241 0.54355 0.17249 0.0
C729 C 0.39291 0.54103 0.15616 0.0
N730 N 0.4805 0.58191 0.26241 0.0
N731 N 0.4116 0.55891 0.19904 0.0
H732 H 0.84133 0.46259 0.36901 0.0
H733 H 0.92192 0.42837 0.10037 0.0
H734 H 0.92339 0.5175 0.30682 0.0
H735 H 0.83867 0.37229 0.15124 0.0
H736 H 0.92194 0.46077 0.17658 0.0
H737 H 0.83902 0.42943 0.28947 0.0
C738 C 0.85883 0.46778 0.33841 0.0
C739 C 0.88271 0.49287 0.345 0.0
C740 C 0.90358 0.44146 0.1713 0.0
C741 C 0.88013 0.45488 0.25414 0.0
C742 C 0.9035 0.4228 0.12757 0.0
C743 C 0.88013 0.39751 0.11884 0.0
C744 C 0.88015 0.435 0.20729 0.0
C745 C 0.8571 0.39154 0.15632 0.0
C746 C 0.85746 0.44877 0.29311 0.0
C747 C 0.90463 0.49844 0.30381 0.0
N748 N 0.85766 0.41023 0.19899 0.0
N749 N 0.90282 0.47956 0.26045 0.0
H750 H 0.40814 0.9192 0.30163 0.0
H751 H 0.47693 0.83756 0.15406 0.0
H752 H 0.38812 0.83974 0.36992 0.0
H753 H 0.49592 0.91773 0.09419 0.0
H754 H 0.44319 0.8366 0.23138 0.0
H755 H 0.4389 0.91741 0.22128 0.0
C756 C 0.4101 0.90131 0.29954 0.0
C757 C 0.39567 0.8797 0.34298 0.0
C758 C 0.45479 0.85432 0.20106 0.0
C759 C 0.43109 0.87753 0.25112 0.0
C760 C 0.47405 0.85489 0.15713 0.0
C761 C 0.48924 0.8777 0.11741 0.0
C762 C 0.45084 0.87672 0.20504 0.0
C763 C 0.48468 0.89961 0.12344 0.0
C764 C 0.42774 0.90029 0.25367 0.0
C765 C 0.39894 0.85694 0.33759 0.0
N766 N 0.46596 0.89854 0.16621 0.0
N767 N 0.41644 0.85651 0.29275 0.0
H768 H 0.6032 0.51732 0.1827 0.0
H769 H 0.53731 0.3675 0.33218 0.0
H770 H 0.62508 0.45893 0.11637 0.0
H771 H 0.51829 0.42822 0.39633 0.0
H772 H 0.57004 0.4003 0.25349 0.0
H773 H 0.57275 0.48467 0.26339 0.0
C774 C 0.6017 0.49768 0.18524 0.0
C775 C 0.61665 0.49087 0.14235 0.0
C776 C 0.55868 0.40635 0.28503 0.0
C777 C 0.58159 0.45316 0.23468 0.0
C778 C 0.53999 0.38763 0.32981 0.0
C779 C 0.52506 0.39508 0.37115 0.0
C780 C 0.56235 0.43259 0.28166 0.0
C781 C 0.52935 0.42148 0.36583 0.0
C782 C 0.58425 0.47897 0.23134 0.0
C783 C 0.61391 0.46507 0.14827 0.0
N784 N 0.54751 0.43916 0.3221 0.0
N785 N 0.59662 0.44711 0.19333 0.0
H786 H 0.08007 0.49665 0.35907 0.0
H787 H 0.16928 0.62706 0.13618 0.0
H788 H 0.1673 0.54291 0.36569 0.0
H789 H 0.08253 0.58962 0.15553 0.0
H790 H 0.16885 0.59542 0.21735 0.0
H791 H 0.08044 0.5292 0.28056 0.0
C792 C 0.09931 0.5136 0.34395 0.0
C793 C 0.1237 0.51705 0.3692 0.0
C794 C 0.14992 0.59419 0.20405 0.0
C795 C 0.12424 0.55439 0.27928 0.0
C796 C 0.15014 0.61226 0.15764 0.0
C797 C 0.12589 0.61096 0.13872 0.0
C798 C 0.12525 0.5745 0.23152 0.0
C799 C 0.10172 0.59139 0.16853 0.0
C800 C 0.09949 0.53223 0.2993 0.0
C801 C 0.148 0.53945 0.34778 0.0
N802 N 0.102 0.57383 0.21313 0.0
N803 N 0.14764 0.55721 0.30402 0.0
H804 H 0.5224 0.92532 0.80985 0.0
H805 H 0.37383 0.83889 0.65648 0.0
H806 H 0.46587 0.8431 0.86684 0.0
H807 H 0.43356 0.91873 0.59068 0.0
H808 H 0.40681 0.83995 0.73517 0.0
H809 H 0.48975 0.9231 0.7293 0.0
C810 C 0.50319 0.90677 0.8053 0.0
C811 C 0.49688 0.88442 0.84546 0.0
C812 C 0.41264 0.85719 0.70331 0.0
C813 C 0.45927 0.88176 0.75348 0.0
C814 C 0.39381 0.8566 0.65852 0.0
C815 C 0.40092 0.87868 0.61668 0.0
C816 C 0.43868 0.88007 0.70641 0.0
C817 C 0.42713 0.90114 0.62161 0.0
C818 C 0.48451 0.90551 0.75931 0.0
C819 C 0.47164 0.86088 0.83713 0.0
N820 N 0.44497 0.90124 0.66554 0.0
N821 N 0.45374 0.86021 0.79233 0.0
H822 H 0.64096 0.47235 0.83121 0.0
H823 H 0.4917 0.40669 0.6809 0.0
H824 H 0.58024 0.49171 0.89413 0.0
H825 H 0.54953 0.38292 0.62113 0.0
H826 H 0.52417 0.43754 0.7606 0.0
H827 H 0.60821 0.43941 0.75372 0.0
C828 C 0.62082 0.46971 0.82875 0.0
C829 C 0.61334 0.48477 0.86942 0.0
C830 C 0.52976 0.42551 0.73025 0.0
C831 C 0.57589 0.44723 0.78128 0.0
C832 C 0.51116 0.40781 0.68476 0.0
C833 C 0.51788 0.39223 0.644 0.0
C834 C 0.55539 0.42778 0.73505 0.0
C835 C 0.54347 0.39459 0.65139 0.0
C836 C 0.60213 0.45088 0.78469 0.0
C837 C 0.58696 0.48052 0.86409 0.0
N838 N 0.56134 0.41214 0.69579 0.0
N839 N 0.56928 0.46222 0.82098 0.0
H840 H 0.09775 0.49271 0.67627 0.0
H841 H 0.17784 0.64035 0.83435 0.0
H842 H 0.18089 0.54855 0.6259 0.0
H843 H 0.09796 0.5775 0.89188 0.0
H844 H 0.18097 0.60809 0.75953 0.0
H845 H 0.09927 0.52402 0.75901 0.0
C846 C 0.11648 0.51159 0.68326 0.0
C847 C 0.13918 0.51815 0.64415 0.0
C848 C 0.16288 0.60147 0.78893 0.0
C849 C 0.14103 0.55465 0.73839 0.0
C850 C 0.16102 0.61987 0.83137 0.0
C851 C 0.13755 0.61171 0.8694 0.0
C852 C 0.14109 0.57485 0.78459 0.0
C853 C 0.11644 0.58488 0.86366 0.0
C854 C 0.11736 0.52955 0.7305 0.0
C855 C 0.163 0.54277 0.65545 0.0
N856 N 0.11873 0.56759 0.82219 0.0
N857 N 0.16324 0.56039 0.70115 0.0
H858 H 0.60265 0.09287 0.66355 0.0
H859 H 0.54123 0.17513 0.84256 0.0
H860 H 0.63662 0.17849 0.63267 0.0
H861 H 0.52055 0.09315 0.88785 0.0
H862 H 0.57589 0.17801 0.76501 0.0
H863 H 0.57251 0.09386 0.7463 0.0
C864 C 0.60384 0.112 0.67459 0.0
C865 C 0.62205 0.1356 0.64091 0.0
C866 C 0.56378 0.15951 0.79232 0.0
C867 C 0.5871 0.13691 0.73591 0.0
C868 C 0.54394 0.1578 0.83633 0.0
C869 C 0.52786 0.13384 0.87186 0.0
C870 C 0.56735 0.13705 0.7837 0.0
C871 C 0.53234 0.11207 0.86187 0.0
C872 C 0.58659 0.11258 0.72203 0.0
C873 C 0.62289 0.15986 0.65775 0.0
N874 N 0.55149 0.11421 0.81887 0.0
N875 N 0.60538 0.15987 0.70374 0.0
H876 H 0.47675 0.64161 0.65479 0.0
H877 H 0.40998 0.49192 0.80503 0.0
H878 H 0.49598 0.58077 0.59289 0.0
H879 H 0.38801 0.55049 0.86944 0.0
H880 H 0.44085 0.52449 0.7249 0.0
H881 H 0.44376 0.60897 0.73325 0.0
C882 C 0.47408 0.62149 0.65767 0.0
C883 C 0.4891 0.61393 0.61696 0.0
C884 C 0.42924 0.53025 0.7564 0.0
C885 C 0.45151 0.57661 0.70611 0.0
C886 C 0.41154 0.51159 0.80217 0.0
C887 C 0.39647 0.51849 0.84436 0.0
C888 C 0.43201 0.5561 0.7527 0.0
C889 C 0.39929 0.5443 0.83805 0.0
C890 C 0.45523 0.60286 0.70228 0.0
C891 C 0.48482 0.58757 0.62287 0.0
N892 N 0.41682 0.56222 0.79331 0.0
N893 N 0.46649 0.56996 0.6664 0.0
H894 H 0.92461 0.49821 0.59576 0.0
H895 H 0.84305 0.38351 0.86388 0.0
H896 H 0.84275 0.47372 0.65479 0.0
H897 H 0.92685 0.41313 0.81375 0.0
H898 H 0.84175 0.41474 0.78447 0.0
H899 H 0.92499 0.46606 0.67299 0.0
C900 C 0.90662 0.48603 0.62498 0.0
C901 C 0.8835 0.4886 0.6184 0.0
C902 C 0.8604 0.41438 0.79072 0.0
C903 C 0.88391 0.45153 0.7075 0.0
C904 C 0.86119 0.39649 0.83598 0.0
C905 C 0.88519 0.39576 0.84589 0.0
C906 C 0.88375 0.4317 0.75479 0.0
C907 C 0.90795 0.413 0.80798 0.0
C908 C 0.90691 0.46765 0.66923 0.0
C909 C 0.86098 0.4724 0.65816 0.0
N910 N 0.90667 0.43031 0.76427 0.0
N911 N 0.86171 0.45446 0.70096 0.0
loop_
_geom_bond_atom_site_label_1
_geom_bond_atom_site_label_2
_geom_bond_distance
_geom_bond_site_symmetry_2
_ccdc_geom_bond_type
Fe0 O2 1.918 . S
Fe0 O5 1.997 1_554 S
Fe0 O6 2.002 1_554 S
Fe0 O11 1.976 . S
Fe0 O14 1.996 . S
Fe1 O2 1.918 . S
Fe1 O9 1.997 1_554 S
Fe1 O12 1.996 . S
Fe1 O16 1.976 . S
Fe1 O19 2.002 1_554 S
O2 Fe0 1.918 . S
O2 Fe1 1.918 . S
O2 Fe3 1.918 . S
Fe3 O2 1.918 . S
Fe3 O4 2.002 1_554 S
Fe3 O13 1.976 . S
Fe3 O17 1.996 . S
Fe3 O20 1.997 1_554 S
O4 Fe3 2.002 1_556 S
O4 C21 1.295 . S
O5 Fe0 1.997 1_556 S
O5 C21 1.235 . S
O6 Fe0 2.002 1_556 S
O6 C7 1.295 . S
C7 O6 1.295 . S
C7 O9 1.235 . S
C8 O13 1.287 . S
C8 O14 1.255 . S
O9 Fe1 1.997 1_556 S
O9 C7 1.235 . S
C10 O16 1.287 . S
C10 O17 1.255 . S
O11 Fe0 1.976 . S
O11 C18 1.287 . S
O12 Fe1 1.996 . S
O12 C18 1.255 . S
O13 Fe3 1.976 . S
O13 C8 1.287 . S
O14 Fe0 1.996 . S
O14 C8 1.255 . S
C15 O19 1.295 . S
C15 O20 1.235 . S
O16 Fe1 1.976 . S
O16 C10 1.287 . S
O17 Fe3 1.996 . S
O17 C10 1.255 . S
C18 O11 1.287 . S
C18 O12 1.255 . S
O19 Fe1 2.002 1_556 S
O19 C15 1.295 . S
O20 Fe3 1.997 1_556 S
O20 C15 1.235 . S
C21 O4 1.295 . S
C21 O5 1.235 . S
Fe22 O24 1.918 . S
Fe22 O27 1.997 1_554 S
Fe22 O28 2.002 1_554 S
Fe22 O33 1.976 . S
Fe22 O36 1.996 . S
Fe23 O24 1.918 . S
Fe23 O31 1.997 1_554 S
Fe23 O34 1.996 . S
Fe23 O38 1.976 . S
Fe23 O41 2.002 1_554 S
O24 Fe22 1.918 . S
O24 Fe23 1.918 . S
O24 Fe25 1.918 . S
Fe25 O24 1.918 . S
Fe25 O26 2.002 1_554 S
Fe25 O35 1.976 . S
Fe25 O39 1.996 . S
Fe25 O42 1.997 1_554 S
O26 Fe25 2.002 1_556 S
O26 C43 1.295 . S
O27 Fe22 1.997 1_556 S
O27 C43 1.235 . S
O28 Fe22 2.002 1_556 S
O28 C29 1.295 . S
C29 O28 1.295 . S
C29 O31 1.235 . S
C30 O35 1.287 . S
C30 O36 1.255 . S
O31 Fe23 1.997 1_556 S
O31 C29 1.235 . S
C32 O38 1.287 . S
C32 O39 1.255 . S
O33 Fe22 1.976 . S
O33 C40 1.287 . S
O34 Fe23 1.996 . S
O34 C40 1.255 . S
O35 Fe25 1.976 . S
O35 C30 1.287 . S
O36 Fe22 1.996 . S
O36 C30 1.255 . S
C37 O41 1.295 . S
C37 O42 1.235 . S
O38 Fe23 1.976 . S
O38 C32 1.287 . S
O39 Fe25 1.996 . S
O39 C32 1.255 . S
C40 O33 1.287 . S
C40 O34 1.255 . S
O41 Fe23 2.002 1_556 S
O41 C37 1.295 . S
O42 Fe25 1.997 1_556 S
O42 C37 1.235 . S
C43 O26 1.295 . S
C43 O27 1.235 . S
Fe44 O46 1.918 . S
Fe44 O49 1.997 1_554 S
Fe44 O50 2.002 1_554 S
Fe44 O55 1.976 . S
Fe44 O58 1.996 . S
Fe45 O46 1.918 . S
Fe45 O53 1.997 1_554 S
Fe45 O56 1.996 . S
Fe45 O60 1.976 . S
Fe45 O63 2.002 1_554 S
O46 Fe44 1.918 . S
O46 Fe45 1.918 . S
O46 Fe47 1.918 . S
Fe47 O46 1.918 . S
Fe47 O48 2.002 1_554 S
Fe47 O57 1.976 . S
Fe47 O61 1.996 . S
Fe47 O64 1.997 1_554 S
O48 Fe47 2.002 1_556 S
O48 C65 1.295 . S
O49 Fe44 1.997 1_556 S
O49 C65 1.235 . S
O50 Fe44 2.002 1_556 S
O50 C51 1.295 . S
C51 O50 1.295 . S
C51 O53 1.235 . S
C52 O57 1.287 . S
C52 O58 1.255 . S
O53 Fe45 1.997 1_556 S
O53 C51 1.235 . S
C54 O60 1.287 . S
C54 O61 1.255 . S
O55 Fe44 1.976 . S
O55 C62 1.287 . S
O56 Fe45 1.996 . S
O56 C62 1.255 . S
O57 Fe47 1.976 . S
O57 C52 1.287 . S
O58 Fe44 1.996 . S
O58 C52 1.255 . S
C59 O63 1.295 . S
C59 O64 1.235 . S
O60 Fe45 1.976 . S
O60 C54 1.287 . S
O61 Fe47 1.996 . S
O61 C54 1.255 . S
C62 O55 1.287 . S
C62 O56 1.255 . S
O63 Fe45 2.002 1_556 S
O63 C59 1.295 . S
O64 Fe47 1.997 1_556 S
O64 C59 1.235 . S
C65 O48 1.295 . S
C65 O49 1.235 . S
Fe66 O68 1.918 . S
Fe66 O71 1.997 1_554 S
Fe66 O72 2.002 1_554 S
Fe66 O77 1.976 . S
Fe66 O80 1.996 . S
Fe67 O68 1.918 . S
Fe67 O75 1.997 1_554 S
Fe67 O78 1.996 . S
Fe67 O82 1.976 . S
Fe67 O85 2.002 1_554 S
O68 Fe66 1.918 . S
O68 Fe67 1.918 . S
O68 Fe69 1.918 . S
Fe69 O68 1.918 . S
Fe69 O70 2.002 1_554 S
Fe69 O79 1.976 . S
Fe69 O83 1.996 . S
Fe69 O86 1.997 1_554 S
O70 Fe69 2.002 1_556 S
O70 C87 1.295 . S
O71 Fe66 1.997 1_556 S
O71 C87 1.235 . S
O72 Fe66 2.002 1_556 S
O72 C73 1.295 . S
C73 O72 1.295 . S
C73 O75 1.235 . S
C74 O79 1.287 . S
C74 O80 1.255 . S
O75 Fe67 1.997 1_556 S
O75 C73 1.235 . S
C76 O82 1.287 . S
C76 O83 1.255 . S
O77 Fe66 1.976 . S
O77 C84 1.287 . S
O78 Fe67 1.996 . S
O78 C84 1.255 . S
O79 Fe69 1.976 . S
O79 C74 1.287 . S
O80 Fe66 1.996 . S
O80 C74 1.255 . S
C81 O85 1.295 . S
C81 O86 1.235 . S
O82 Fe67 1.976 . S
O82 C76 1.287 . S
O83 Fe69 1.996 . S
O83 C76 1.255 . S
C84 O77 1.287 . S
C84 O78 1.255 . S
O85 Fe67 2.002 1_556 S
O85 C81 1.295 . S
O86 Fe69 1.997 1_556 S
O86 C81 1.235 . S
C87 O70 1.295 . S
C87 O71 1.235 . S
Fe88 O90 1.918 . S
Fe88 O93 1.997 1_554 S
Fe88 O94 2.002 1_554 S
Fe88 O99 1.976 . S
Fe88 O102 1.996 . S
Fe89 O90 1.918 . S
Fe89 O97 1.997 1_554 S
Fe89 O100 1.996 . S
Fe89 O104 1.976 . S
Fe89 O107 2.002 1_554 S
O90 Fe88 1.918 . S
O90 Fe89 1.918 . S
O90 Fe91 1.918 . S
Fe91 O90 1.918 . S
Fe91 O92 2.002 1_554 S
Fe91 O101 1.976 . S
Fe91 O105 1.996 . S
Fe91 O108 1.997 1_554 S
O92 Fe91 2.002 1_556 S
O92 C109 1.295 . S
O93 Fe88 1.997 1_556 S
O93 C109 1.235 . S
O94 Fe88 2.002 1_556 S
O94 C95 1.295 . S
C95 O94 1.295 . S
C95 O97 1.235 . S
C96 O101 1.287 . S
C96 O102 1.255 . S
O97 Fe89 1.997 1_556 S
O97 C95 1.235 . S
C98 O104 1.287 . S
C98 O105 1.255 . S
O99 Fe88 1.976 . S
O99 C106 1.287 . S
O100 Fe89 1.996 . S
O100 C106 1.255 . S
O101 Fe91 1.976 . S
O101 C96 1.287 . S
O102 Fe88 1.996 . S
O102 C96 1.255 . S
C103 O107 1.295 . S
C103 O108 1.235 . S
O104 Fe89 1.976 . S
O104 C98 1.287 . S
O105 Fe91 1.996 . S
O105 C98 1.255 . S
C106 O99 1.287 . S
C106 O100 1.255 . S
O107 Fe89 2.002 1_556 S
O107 C103 1.295 . S
O108 Fe91 1.997 1_556 S
O108 C103 1.235 . S
C109 O92 1.295 . S
C109 O93 1.235 . S
Fe110 O112 1.918 . S
Fe110 O115 1.997 1_554 S
Fe110 O116 2.002 1_554 S
Fe110 O121 1.976 . S
Fe110 O124 1.996 . S
Fe111 O112 1.918 . S
Fe111 O119 1.997 1_554 S
Fe111 O122 1.996 . S
Fe111 O126 1.976 . S
Fe111 O129 2.002 1_554 S
O112 Fe110 1.918 . S
O112 Fe111 1.918 . S
O112 Fe113 1.918 . S
Fe113 O112 1.918 . S
Fe113 O114 2.002 1_554 S
Fe113 O123 1.976 . S
Fe113 O127 1.996 . S
Fe113 O130 1.997 1_554 S
O114 Fe113 2.002 1_556 S
O114 C131 1.295 . S
O115 Fe110 1.997 1_556 S
O115 C131 1.235 . S
O116 Fe110 2.002 1_556 S
O116 C117 1.295 . S
C117 O116 1.295 . S
C117 O119 1.235 . S
C118 O123 1.287 . S
C118 O124 1.255 . S
O119 Fe111 1.997 1_556 S
O119 C117 1.235 . S
C120 O126 1.287 . S
C120 O127 1.255 . S
O121 Fe110 1.976 . S
O121 C128 1.287 . S
O122 Fe111 1.996 . S
O122 C128 1.255 . S
O123 Fe113 1.976 . S
O123 C118 1.287 . S
O124 Fe110 1.996 . S
O124 C118 1.255 . S
C125 O129 1.295 . S
C125 O130 1.235 . S
O126 Fe111 1.976 . S
O126 C120 1.287 . S
O127 Fe113 1.996 . S
O127 C120 1.255 . S
C128 O121 1.287 . S
C128 O122 1.255 . S
O129 Fe111 2.002 1_556 S
O129 C125 1.295 . S
O130 Fe113 1.997 1_556 S
O130 C125 1.235 . S
C131 O114 1.295 . S
C131 O115 1.235 . S
Fe132 O134 1.918 . S
Fe132 O137 1.997 . S
Fe132 O138 2.002 . S
Fe132 O143 1.976 . S
Fe132 O146 1.996 . S
Fe133 O134 1.918 . S
Fe133 O141 1.997 . S
Fe133 O144 1.996 . S
Fe133 O148 1.976 . S
Fe133 O151 2.002 . S
O134 Fe132 1.918 . S
O134 Fe133 1.918 . S
O134 Fe135 1.918 . S
Fe135 O134 1.918 . S
Fe135 O136 2.002 . S
Fe135 O145 1.976 . S
Fe135 O149 1.996 . S
Fe135 O152 1.997 . S
O136 Fe135 2.002 . S
O136 C153 1.295 . S
O137 Fe132 1.997 . S
O137 C153 1.235 . S
O138 Fe132 2.002 . S
O138 C139 1.295 . S
C139 O138 1.295 . S
C139 O141 1.235 . S
C140 O145 1.287 . S
C140 O146 1.255 . S
O141 Fe133 1.997 . S
O141 C139 1.235 . S
C142 O148 1.287 . S
C142 O149 1.255 . S
O143 Fe132 1.976 . S
O143 C150 1.287 . S
O144 Fe133 1.996 . S
O144 C150 1.255 . S
O145 Fe135 1.976 . S
O145 C140 1.287 . S
O146 Fe132 1.996 . S
O146 C140 1.255 . S
C147 O151 1.295 . S
C147 O152 1.235 . S
O148 Fe133 1.976 . S
O148 C142 1.287 . S
O149 Fe135 1.996 . S
O149 C142 1.255 . S
C150 O143 1.287 . S
C150 O144 1.255 . S
O151 Fe133 2.002 . S
O151 C147 1.295 . S
O152 Fe135 1.997 . S
O152 C147 1.235 . S
C153 O136 1.295 . S
C153 O137 1.235 . S
Fe154 O156 1.918 . S
Fe154 O159 1.997 . S
Fe154 O160 2.002 . S
Fe154 O165 1.976 . S
Fe154 O168 1.996 . S
Fe155 O156 1.918 . S
Fe155 O163 1.997 . S
Fe155 O166 1.996 . S
Fe155 O170 1.976 . S
Fe155 O173 2.002 . S
O156 Fe154 1.918 . S
O156 Fe155 1.918 . S
O156 Fe157 1.918 . S
Fe157 O156 1.918 . S
Fe157 O158 2.002 . S
Fe157 O167 1.976 . S
Fe157 O171 1.996 . S
Fe157 O174 1.997 . S
O158 Fe157 2.002 . S
O158 C175 1.295 . S
O159 Fe154 1.997 . S
O159 C175 1.235 . S
O160 Fe154 2.002 . S
O160 C161 1.295 . S
C161 O160 1.295 . S
C161 O163 1.235 . S
C162 O167 1.287 . S
C162 O168 1.255 . S
O163 Fe155 1.997 . S
O163 C161 1.235 . S
C164 O170 1.287 . S
C164 O171 1.255 . S
O165 Fe154 1.976 . S
O165 C172 1.287 . S
O166 Fe155 1.996 . S
O166 C172 1.255 . S
O167 Fe157 1.976 . S
O167 C162 1.287 . S
O168 Fe154 1.996 . S
O168 C162 1.255 . S
C169 O173 1.295 . S
C169 O174 1.235 . S
O170 Fe155 1.976 . S
O170 C164 1.287 . S
O171 Fe157 1.996 . S
O171 C164 1.255 . S
C172 O165 1.287 . S
C172 O166 1.255 . S
O173 Fe155 2.002 . S
O173 C169 1.295 . S
O174 Fe157 1.997 . S
O174 C169 1.235 . S
C175 O158 1.295 . S
C175 O159 1.235 . S
Fe176 O178 1.918 . S
Fe176 O181 1.997 . S
Fe176 O182 2.002 . S
Fe176 O187 1.976 . S
Fe176 O190 1.996 . S
Fe177 O178 1.918 . S
Fe177 O185 1.997 . S
Fe177 O188 1.996 . S
Fe177 O192 1.976 . S
Fe177 O195 2.002 . S
O178 Fe176 1.918 . S
O178 Fe177 1.918 . S
O178 Fe179 1.918 . S
Fe179 O178 1.918 . S
Fe179 O180 2.002 . S
Fe179 O189 1.976 . S
Fe179 O193 1.996 . S
Fe179 O196 1.997 . S
O180 Fe179 2.002 . S
O180 C197 1.295 . S
O181 Fe176 1.997 . S
O181 C197 1.235 . S
O182 Fe176 2.002 . S
O182 C183 1.295 . S
C183 O182 1.295 . S
C183 O185 1.235 . S
C184 O189 1.287 . S
C184 O190 1.255 . S
O185 Fe177 1.997 . S
O185 C183 1.235 . S
C186 O192 1.287 . S
C186 O193 1.255 . S
O187 Fe176 1.976 . S
O187 C194 1.287 . S
O188 Fe177 1.996 . S
O188 C194 1.255 . S
O189 Fe179 1.976 . S
O189 C184 1.287 . S
O190 Fe176 1.996 . S
O190 C184 1.255 . S
C191 O195 1.295 . S
C191 O196 1.235 . S
O192 Fe177 1.976 . S
O192 C186 1.287 . S
O193 Fe179 1.996 . S
O193 C186 1.255 . S
C194 O187 1.287 . S
C194 O188 1.255 . S
O195 Fe177 2.002 . S
O195 C191 1.295 . S
O196 Fe179 1.997 . S
O196 C191 1.235 . S
C197 O180 1.295 . S
C197 O181 1.235 . S
Fe198 O200 1.918 . S
Fe198 O203 1.997 . S
Fe198 O204 2.002 . S
Fe198 O209 1.976 . S
Fe198 O212 1.996 . S
Fe199 O200 1.918 . S
Fe199 O207 1.997 . S
Fe199 O210 1.996 . S
Fe199 O214 1.976 . S
Fe199 O217 2.002 . S
O200 Fe198 1.918 . S
O200 Fe199 1.918 . S
O200 Fe201 1.918 . S
Fe201 O200 1.918 . S
Fe201 O202 2.002 . S
Fe201 O211 1.976 . S
Fe201 O215 1.996 . S
Fe201 O218 1.997 . S
O202 Fe201 2.002 . S
O202 C219 1.295 . S
O203 Fe198 1.997 . S
O203 C219 1.235 . S
O204 Fe198 2.002 . S
O204 C205 1.295 . S
C205 O204 1.295 . S
C205 O207 1.235 . S
C206 O211 1.287 . S
C206 O212 1.255 . S
O207 Fe199 1.997 . S
O207 C205 1.235 . S
C208 O214 1.287 . S
C208 O215 1.255 . S
O209 Fe198 1.976 . S
O209 C216 1.287 . S
O210 Fe199 1.996 . S
O210 C216 1.255 . S
O211 Fe201 1.976 . S
O211 C206 1.287 . S
O212 Fe198 1.996 . S
O212 C206 1.255 . S
C213 O217 1.295 . S
C213 O218 1.235 . S
O214 Fe199 1.976 . S
O214 C208 1.287 . S
O215 Fe201 1.996 . S
O215 C208 1.255 . S
C216 O209 1.287 . S
C216 O210 1.255 . S
O217 Fe199 2.002 . S
O217 C213 1.295 . S
O218 Fe201 1.997 . S
O218 C213 1.235 . S
C219 O202 1.295 . S
C219 O203 1.235 . S
Fe220 O222 1.918 . S
Fe220 O225 1.997 . S
Fe220 O226 2.002 . S
Fe220 O231 1.976 . S
Fe220 O234 1.996 . S
Fe221 O222 1.918 . S
Fe221 O229 1.997 . S
Fe221 O232 1.996 . S
Fe221 O236 1.976 . S
Fe221 O239 2.002 . S
O222 Fe220 1.918 . S
O222 Fe221 1.918 . S
O222 Fe223 1.918 . S
Fe223 O222 1.918 . S
Fe223 O224 2.002 . S
Fe223 O233 1.976 . S
Fe223 O237 1.996 . S
Fe223 O240 1.997 . S
O224 Fe223 2.002 . S
O224 C241 1.295 . S
O225 Fe220 1.997 . S
O225 C241 1.235 . S
O226 Fe220 2.002 . S
O226 C227 1.295 . S
C227 O226 1.295 . S
C227 O229 1.235 . S
C228 O233 1.287 . S
C228 O234 1.255 . S
O229 Fe221 1.997 . S
O229 C227 1.235 . S
C230 O236 1.287 . S
C230 O237 1.255 . S
O231 Fe220 1.976 . S
O231 C238 1.287 . S
O232 Fe221 1.996 . S
O232 C238 1.255 . S
O233 Fe223 1.976 . S
O233 C228 1.287 . S
O234 Fe220 1.996 . S
O234 C228 1.255 . S
C235 O239 1.295 . S
C235 O240 1.235 . S
O236 Fe221 1.976 . S
O236 C230 1.287 . S
O237 Fe223 1.996 . S
O237 C230 1.255 . S
C238 O231 1.287 . S
C238 O232 1.255 . S
O239 Fe221 2.002 . S
O239 C235 1.295 . S
O240 Fe223 1.997 . S
O240 C235 1.235 . S
C241 O224 1.295 . S
C241 O225 1.235 . S
Fe242 O244 1.918 . S
Fe242 O247 1.997 . S
Fe242 O248 2.002 . S
Fe242 O253 1.976 . S
Fe242 O256 1.996 . S
Fe243 O244 1.918 . S
Fe243 O251 1.997 . S
Fe243 O254 1.996 . S
Fe243 O258 1.976 . S
Fe243 O261 2.002 . S
O244 Fe242 1.918 . S
O244 Fe243 1.918 . S
O244 Fe245 1.918 . S
Fe245 O244 1.918 . S
Fe245 O246 2.002 . S
Fe245 O255 1.976 . S
Fe245 O259 1.996 . S
Fe245 O262 1.997 . S
O246 Fe245 2.002 . S
O246 C263 1.295 . S
O247 Fe242 1.997 . S
O247 C263 1.235 . S
O248 Fe242 2.002 . S
O248 C249 1.295 . S
C249 O248 1.295 . S
C249 O251 1.235 . S
C250 O255 1.287 . S
C250 O256 1.255 . S
O251 Fe243 1.997 . S
O251 C249 1.235 . S
C252 O258 1.287 . S
C252 O259 1.255 . S
O253 Fe242 1.976 . S
O253 C260 1.287 . S
O254 Fe243 1.996 . S
O254 C260 1.255 . S
O255 Fe245 1.976 . S
O255 C250 1.287 . S
O256 Fe242 1.996 . S
O256 C250 1.255 . S
C257 O261 1.295 . S
C257 O262 1.235 . S
O258 Fe243 1.976 . S
O258 C252 1.287 . S
O259 Fe245 1.996 . S
O259 C252 1.255 . S
C260 O253 1.287 . S
C260 O254 1.255 . S
O261 Fe243 2.002 . S
O261 C257 1.295 . S
O262 Fe245 1.997 . S
O262 C257 1.235 . S
C263 O246 1.295 . S
C263 O247 1.235 . S
H264 C270 0.930 . S
H265 C274 0.930 . S
H266 C279 0.929 . S
H267 C277 0.929 . S
H268 C272 0.929 . S
H269 C278 0.929 . S
C270 H264 0.930 . S
C270 C271 1.367 . S
C270 C278 1.378 . S
C271 C270 1.367 . S
C271 C279 1.433 . S
C272 H268 0.929 . S
C272 C274 1.378 . S
C272 C276 1.350 . S
C273 C276 1.463 . S
C273 C278 1.350 . S
C273 N281 1.427 . S
C274 H265 0.930 . S
C274 C272 1.378 . S
C274 C275 1.367 . S
C275 C274 1.367 . S
C275 C277 1.433 . S
C276 C272 1.350 . S
C276 C273 1.463 . S
C276 N280 1.427 . S
C277 H267 0.929 . S
C277 C275 1.433 . S
C277 N280 1.384 . S
C278 H269 0.929 . S
C278 C270 1.378 . S
C278 C273 1.350 . S
C279 H266 0.929 . S
C279 C271 1.433 . S
C279 N281 1.384 . S
N280 C276 1.427 . S
N280 C277 1.384 . S
N281 C273 1.427 . S
N281 C279 1.384 . S
H282 C288 0.930 . S
H283 C292 0.930 . S
H284 C297 0.929 . S
H285 C295 0.929 . S
H286 C290 0.929 . S
H287 C296 0.929 . S
C288 H282 0.930 . S
C288 C289 1.367 . S
C288 C296 1.378 . S
C289 C288 1.367 . S
C289 C297 1.433 . S
C290 H286 0.929 . S
C290 C292 1.378 . S
C290 C294 1.350 . S
C291 C294 1.463 . S
C291 C296 1.350 . S
C291 N299 1.427 . S
C292 H283 0.930 . S
C292 C290 1.378 . S
C292 C293 1.367 . S
C293 C292 1.367 . S
C293 C295 1.433 . S
C294 C290 1.350 . S
C294 C291 1.463 . S
C294 N298 1.427 . S
C295 H285 0.929 . S
C295 C293 1.433 . S
C295 N298 1.384 . S
C296 H287 0.929 . S
C296 C288 1.378 . S
C296 C291 1.350 . S
C297 H284 0.929 . S
C297 C289 1.433 . S
C297 N299 1.384 . S
N298 C294 1.427 . S
N298 C295 1.384 . S
N299 C291 1.427 . S
N299 C297 1.384 . S
H300 C306 0.930 . S
H301 C310 0.930 . S
H302 C315 0.929 . S
H303 C313 0.929 . S
H304 C308 0.929 . S
H305 C314 0.929 . S
C306 H300 0.930 . S
C306 C307 1.367 . S
C306 C314 1.378 . S
C307 C306 1.367 . S
C307 C315 1.433 . S
C308 H304 0.929 . S
C308 C310 1.378 . S
C308 C312 1.350 . S
C309 C312 1.463 . S
C309 C314 1.350 . S
C309 N317 1.427 . S
C310 H301 0.930 . S
C310 C308 1.378 . S
C310 C311 1.367 . S
C311 C310 1.367 . S
C311 C313 1.433 . S
C312 C308 1.350 . S
C312 C309 1.463 . S
C312 N316 1.427 . S
C313 H303 0.929 . S
C313 C311 1.433 . S
C313 N316 1.384 . S
C314 H305 0.929 . S
C314 C306 1.378 . S
C314 C309 1.350 . S
C315 H302 0.929 . S
C315 C307 1.433 . S
C315 N317 1.384 . S
N316 C312 1.427 . S
N316 C313 1.384 . S
N317 C309 1.427 . S
N317 C315 1.384 . S
H318 C324 0.930 . S
H319 C328 0.930 . S
H320 C333 0.929 . S
H321 C331 0.929 . S
H322 C326 0.929 . S
H323 C332 0.929 . S
C324 H318 0.930 . S
C324 C325 1.367 . S
C324 C332 1.378 . S
C325 C324 1.367 . S
C325 C333 1.433 . S
C326 H322 0.929 . S
C326 C328 1.378 . S
C326 C330 1.350 . S
C327 C330 1.463 . S
C327 C332 1.350 . S
C327 N335 1.427 . S
C328 H319 0.930 . S
C328 C326 1.378 . S
C328 C329 1.367 . S
C329 C328 1.367 . S
C329 C331 1.433 . S
C330 C326 1.350 . S
C330 C327 1.463 . S
C330 N334 1.427 . S
C331 H321 0.929 . S
C331 C329 1.433 . S
C331 N334 1.384 . S
C332 H323 0.929 . S
C332 C324 1.378 . S
C332 C327 1.350 . S
C333 H320 0.929 . S
C333 C325 1.433 . S
C333 N335 1.384 . S
N334 C330 1.427 . S
N334 C331 1.384 . S
N335 C327 1.427 . S
N335 C333 1.384 . S
H336 C342 0.930 . S
H337 C346 0.930 . S
H338 C351 0.929 . S
H339 C349 0.929 . S
H340 C344 0.929 . S
H341 C350 0.929 . S
C342 H336 0.930 . S
C342 C343 1.367 . S
C342 C350 1.378 . S
C343 C342 1.367 . S
C343 C351 1.433 . S
C344 H340 0.929 . S
C344 C346 1.378 . S
C344 C348 1.350 . S
C345 C348 1.463 . S
C345 C350 1.350 . S
C345 N353 1.427 . S
C346 H337 0.930 . S
C346 C344 1.378 . S
C346 C347 1.367 . S
C347 C346 1.367 . S
C347 C349 1.433 . S
C348 C344 1.350 . S
C348 C345 1.463 . S
C348 N352 1.427 . S
C349 H339 0.929 . S
C349 C347 1.433 . S
C349 N352 1.384 . S
C350 H341 0.929 . S
C350 C342 1.378 . S
C350 C345 1.350 . S
C351 H338 0.929 . S
C351 C343 1.433 . S
C351 N353 1.384 . S
N352 C348 1.427 . S
N352 C349 1.384 . S
N353 C345 1.427 . S
N353 C351 1.384 . S
H354 C360 0.930 . S
H355 C364 0.930 . S
H356 C369 0.929 . S
H357 C367 0.929 . S
H358 C362 0.929 . S
H359 C368 0.929 . S
C360 H354 0.930 . S
C360 C361 1.367 . S
C360 C368 1.378 . S
C361 C360 1.367 . S
C361 C369 1.433 . S
C362 H358 0.929 . S
C362 C364 1.378 . S
C362 C366 1.350 . S
C363 C366 1.463 . S
C363 C368 1.350 . S
C363 N371 1.427 . S
C364 H355 0.930 . S
C364 C362 1.378 . S
C364 C365 1.367 . S
C365 C364 1.367 . S
C365 C367 1.433 . S
C366 C362 1.350 . S
C366 C363 1.463 . S
C366 N370 1.427 . S
C367 H357 0.929 . S
C367 C365 1.433 . S
C367 N370 1.384 . S
C368 H359 0.929 . S
C368 C360 1.378 . S
C368 C363 1.350 . S
C369 H356 0.929 . S
C369 C361 1.433 . S
C369 N371 1.384 . S
N370 C366 1.427 . S
N370 C367 1.384 . S
N371 C363 1.427 . S
N371 C369 1.384 . S
H372 C378 0.930 . S
H373 C382 0.930 . S
H374 C387 0.929 . S
H375 C385 0.929 . S
H376 C380 0.929 . S
H377 C386 0.929 . S
C378 H372 0.930 . S
C378 C379 1.367 . S
C378 C386 1.378 . S
C379 C378 1.367 . S
C379 C387 1.433 . S
C380 H376 0.929 . S
C380 C382 1.378 . S
C380 C384 1.350 . S
C381 C384 1.463 . S
C381 C386 1.350 . S
C381 N389 1.427 . S
C382 H373 0.930 . S
C382 C380 1.378 . S
C382 C383 1.367 . S
C383 C382 1.367 . S
C383 C385 1.433 . S
C384 C380 1.350 . S
C384 C381 1.463 . S
C384 N388 1.427 . S
C385 H375 0.929 . S
C385 C383 1.433 . S
C385 N388 1.384 . S
C386 H377 0.929 . S
C386 C378 1.378 . S
C386 C381 1.350 . S
C387 H374 0.929 . S
C387 C379 1.433 . S
C387 N389 1.384 . S
N388 C384 1.427 . S
N388 C385 1.384 . S
N389 C381 1.427 . S
N389 C387 1.384 . S
H390 C396 0.930 . S
H391 C400 0.930 . S
H392 C405 0.929 . S
H393 C403 0.929 . S
H394 C398 0.929 . S
H395 C404 0.929 . S
C396 H390 0.930 . S
C396 C397 1.367 . S
C396 C404 1.378 . S
C397 C396 1.367 . S
C397 C405 1.433 . S
C398 H394 0.929 . S
C398 C400 1.378 . S
C398 C402 1.350 . S
C399 C402 1.463 . S
C399 C404 1.350 . S
C399 N407 1.427 . S
C400 H391 0.930 . S
C400 C398 1.378 . S
C400 C401 1.367 . S
C401 C400 1.367 . S
C401 C403 1.433 . S
C402 C398 1.350 . S
C402 C399 1.463 . S
C402 N406 1.427 . S
C403 H393 0.929 . S
C403 C401 1.433 . S
C403 N406 1.384 . S
C404 H395 0.929 . S
C404 C396 1.378 . S
C404 C399 1.350 . S
C405 H392 0.929 . S
C405 C397 1.433 . S
C405 N407 1.384 . S
N406 C402 1.427 . S
N406 C403 1.384 . S
N407 C399 1.427 . S
N407 C405 1.384 . S
H408 C414 0.930 . S
H409 C418 0.930 . S
H410 C423 0.929 . S
H411 C421 0.929 . S
H412 C416 0.929 . S
H413 C422 0.929 . S
C414 H408 0.930 . S
C414 C415 1.367 . S
C414 C422 1.378 . S
C415 C414 1.367 . S
C415 C423 1.433 . S
C416 H412 0.929 . S
C416 C418 1.378 . S
C416 C420 1.350 . S
C417 C420 1.463 . S
C417 C422 1.350 . S
C417 N425 1.427 . S
C418 H409 0.930 . S
C418 C416 1.378 . S
C418 C419 1.367 . S
C419 C418 1.367 . S
C419 C421 1.433 . S
C420 C416 1.350 . S
C420 C417 1.463 . S
C420 N424 1.427 . S
C421 H411 0.929 . S
C421 C419 1.433 . S
C421 N424 1.384 . S
C422 H413 0.929 . S
C422 C414 1.378 . S
C422 C417 1.350 . S
C423 H410 0.929 . S
C423 C415 1.433 . S
C423 N425 1.384 . S
N424 C420 1.427 . S
N424 C421 1.384 . S
N425 C417 1.427 . S
N425 C423 1.384 . S
H426 C432 0.930 . S
H427 C436 0.930 . S
H428 C441 0.929 . S
H429 C439 0.929 . S
H430 C434 0.929 . S
H431 C440 0.929 . S
C432 H426 0.930 . S
C432 C433 1.367 . S
C432 C440 1.378 . S
C433 C432 1.367 . S
C433 C441 1.433 . S
C434 H430 0.929 . S
C434 C436 1.378 . S
C434 C438 1.350 . S
C435 C438 1.463 . S
C435 C440 1.350 . S
C435 N443 1.427 . S
C436 H427 0.930 . S
C436 C434 1.378 . S
C436 C437 1.367 . S
C437 C436 1.367 . S
C437 C439 1.433 . S
C438 C434 1.350 . S
C438 C435 1.463 . S
C438 N442 1.427 . S
C439 H429 0.929 . S
C439 C437 1.433 . S
C439 N442 1.384 . S
C440 H431 0.929 . S
C440 C432 1.378 . S
C440 C435 1.350 . S
C441 H428 0.929 . S
C441 C433 1.433 . S
C441 N443 1.384 . S
N442 C438 1.427 . S
N442 C439 1.384 . S
N443 C435 1.427 . S
N443 C441 1.384 . S
H444 C450 0.930 . S
H445 C454 0.930 . S
H446 C459 0.929 . S
H447 C457 0.929 . S
H448 C452 0.929 . S
H449 C458 0.929 . S
C450 H444 0.930 . S
C450 C451 1.367 . S
C450 C458 1.378 . S
C451 C450 1.367 . S
C451 C459 1.433 . S
C452 H448 0.929 . S
C452 C454 1.378 . S
C452 C456 1.350 . S
C453 C456 1.463 . S
C453 C458 1.350 . S
C453 N461 1.427 . S
C454 H445 0.930 . S
C454 C452 1.378 . S
C454 C455 1.367 . S
C455 C454 1.367 . S
C455 C457 1.433 . S
C456 C452 1.350 . S
C456 C453 1.463 . S
C456 N460 1.427 . S
C457 H447 0.929 . S
C457 C455 1.433 . S
C457 N460 1.384 . S
C458 H449 0.929 . S
C458 C450 1.378 . S
C458 C453 1.350 . S
C459 H446 0.929 . S
C459 C451 1.433 . S
C459 N461 1.384 . S
N460 C456 1.427 . S
N460 C457 1.384 . S
N461 C453 1.427 . S
N461 C459 1.384 . S
H462 C468 0.930 . S
H463 C472 0.930 . S
H464 C477 0.929 . S
H465 C475 0.929 . S
H466 C470 0.929 . S
H467 C476 0.929 . S
C468 H462 0.930 . S
C468 C469 1.367 . S
C468 C476 1.378 . S
C469 C468 1.367 . S
C469 C477 1.433 . S
C470 H466 0.929 . S
C470 C472 1.378 . S
C470 C474 1.350 . S
C471 C474 1.463 . S
C471 C476 1.350 . S
C471 N479 1.427 . S
C472 H463 0.930 . S
C472 C470 1.378 . S
C472 C473 1.367 . S
C473 C472 1.367 . S
C473 C475 1.433 . S
C474 C470 1.350 . S
C474 C471 1.463 . S
C474 N478 1.427 . S
C475 H465 0.929 . S
C475 C473 1.433 . S
C475 N478 1.384 . S
C476 H467 0.929 . S
C476 C468 1.378 . S
C476 C471 1.350 . S
C477 H464 0.929 . S
C477 C469 1.433 . S
C477 N479 1.384 . S
N478 C474 1.427 . S
N478 C475 1.384 . S
N479 C471 1.427 . S
N479 C477 1.384 . S
H480 C486 0.930 . S
H481 C490 0.930 . S
H482 C495 0.929 . S
H483 C493 0.929 . S
H484 C488 0.929 . S
H485 C494 0.929 . S
C486 H480 0.930 . S
C486 C487 1.367 . S
C486 C494 1.378 . S
C487 C486 1.367 . S
C487 C495 1.433 . S
C488 H484 0.929 . S
C488 C490 1.378 . S
C488 C492 1.350 . S
C489 C492 1.463 1_565 S
C489 C494 1.350 . S
C489 N497 1.427 . S
C490 H481 0.930 . S
C490 C488 1.378 . S
C490 C491 1.367 . S
C491 C490 1.367 . S
C491 C493 1.433 . S
C492 C488 1.350 . S
C492 C489 1.463 1_545 S
C492 N496 1.427 . S
C493 H483 0.929 . S
C493 C491 1.433 . S
C493 N496 1.384 . S
C494 H485 0.929 . S
C494 C486 1.378 . S
C494 C489 1.350 . S
C495 H482 0.929 . S
C495 C487 1.433 . S
C495 N497 1.384 . S
N496 C492 1.427 . S
N496 C493 1.384 . S
N497 C489 1.427 . S
N497 C495 1.384 . S
H498 C504 0.930 . S
H499 C508 0.930 . S
H500 C513 0.929 . S
H501 C511 0.929 . S
H502 C506 0.929 . S
H503 C512 0.929 . S
C504 H498 0.930 . S
C504 C505 1.367 . S
C504 C512 1.378 . S
C505 C504 1.367 . S
C505 C513 1.433 . S
C506 H502 0.929 . S
C506 C508 1.378 . S
C506 C510 1.350 . S
C507 C510 1.463 . S
C507 C512 1.350 . S
C507 N515 1.427 . S
C508 H499 0.930 . S
C508 C506 1.378 . S
C508 C509 1.367 . S
C509 C508 1.367 . S
C509 C511 1.433 . S
C510 C506 1.350 . S
C510 C507 1.463 . S
C510 N514 1.427 . S
C511 H501 0.929 . S
C511 C509 1.433 . S
C511 N514 1.384 . S
C512 H503 0.929 . S
C512 C504 1.378 . S
C512 C507 1.350 . S
C513 H500 0.929 . S
C513 C505 1.433 . S
C513 N515 1.384 . S
N514 C510 1.427 . S
N514 C511 1.384 . S
N515 C507 1.427 . S
N515 C513 1.384 . S
H516 C522 0.930 . S
H517 C526 0.930 . S
H518 C531 0.929 . S
H519 C529 0.929 . S
H520 C524 0.941 . S
H521 C530 0.941 . S
C522 H516 0.930 . S
C522 C523 1.367 . S
C522 C530 1.378 . S
C523 C522 1.367 . S
C523 C531 1.433 . S
C524 H520 0.941 . S
C524 C526 1.378 . S
C524 C528 1.350 . S
C525 C528 1.463 1_455 S
C525 C530 1.350 . S
C525 N533 1.427 . S
C526 H517 0.930 . S
C526 C524 1.378 . S
C526 C527 1.367 . S
C527 C526 1.367 . S
C527 C529 1.433 . S
C528 C524 1.350 . S
C528 C525 1.463 1_655 S
C528 N532 1.427 . S
C529 H519 0.929 . S
C529 C527 1.433 . S
C529 N532 1.384 . S
C530 H521 0.941 . S
C530 C522 1.378 . S
C530 C525 1.350 . S
C531 H518 0.929 . S
C531 C523 1.433 . S
C531 N533 1.384 . S
N532 C528 1.427 . S
N532 C529 1.384 . S
N533 C525 1.427 . S
N533 C531 1.384 . S
H534 C540 0.930 . S
H535 C544 0.930 . S
H536 C549 0.929 . S
H537 C547 0.929 . S
H538 C542 0.929 . S
H539 C548 0.929 . S
C540 H534 0.930 . S
C540 C541 1.367 . S
C540 C548 1.378 . S
C541 C540 1.367 . S
C541 C549 1.433 . S
C542 H538 0.929 . S
C542 C544 1.378 . S
C542 C546 1.350 . S
C543 C546 1.463 1_565 S
C543 C548 1.350 . S
C543 N551 1.427 . S
C544 H535 0.930 . S
C544 C542 1.378 . S
C544 C545 1.367 . S
C545 C544 1.367 . S
C545 C547 1.433 . S
C546 C542 1.350 . S
C546 C543 1.463 1_545 S
C546 N550 1.427 . S
C547 H537 0.929 . S
C547 C545 1.433 . S
C547 N550 1.384 . S
C548 H539 0.929 . S
C548 C540 1.378 . S
C548 C543 1.350 . S
C549 H536 0.929 . S
C549 C541 1.433 . S
C549 N551 1.384 . S
N550 C546 1.427 . S
N550 C547 1.384 . S
N551 C543 1.427 . S
N551 C549 1.384 . S
H552 C558 0.930 . S
H553 C562 0.930 . S
H554 C567 0.929 . S
H555 C565 0.929 . S
H556 C560 0.929 . S
H557 C566 0.929 . S
C558 H552 0.930 . S
C558 C559 1.367 . S
C558 C566 1.378 . S
C559 C558 1.367 . S
C559 C567 1.433 . S
C560 H556 0.929 . S
C560 C562 1.378 . S
C560 C564 1.350 . S
C561 C564 1.463 . S
C561 C566 1.350 . S
C561 N569 1.427 . S
C562 H553 0.930 . S
C562 C560 1.378 . S
C562 C563 1.367 . S
C563 C562 1.367 . S
C563 C565 1.433 . S
C564 C560 1.350 . S
C564 C561 1.463 . S
C564 N568 1.427 . S
C565 H555 0.929 . S
C565 C563 1.433 . S
C565 N568 1.384 . S
C566 H557 0.929 . S
C566 C558 1.378 . S
C566 C561 1.350 . S
C567 H554 0.929 . S
C567 C559 1.433 . S
C567 N569 1.384 . S
N568 C564 1.427 . S
N568 C565 1.384 . S
N569 C561 1.427 . S
N569 C567 1.384 . S
H570 C576 0.930 . S
H571 C580 0.930 . S
H572 C585 0.929 . S
H573 C583 0.929 . S
H574 C578 0.929 . S
H575 C584 0.929 . S
C576 H570 0.930 . S
C576 C577 1.367 . S
C576 C584 1.378 . S
C577 C576 1.367 . S
C577 C585 1.433 . S
C578 H574 0.929 . S
C578 C580 1.378 . S
C578 C582 1.350 . S
C579 C582 1.463 1_655 S
C579 C584 1.350 . S
C579 N587 1.427 . S
C580 H571 0.930 . S
C580 C578 1.378 . S
C580 C581 1.367 . S
C581 C580 1.367 . S
C581 C583 1.433 . S
C582 C578 1.350 . S
C582 C579 1.463 1_455 S
C582 N586 1.427 . S
C583 H573 0.929 . S
C583 C581 1.433 . S
C583 N586 1.384 . S
C584 H575 0.929 . S
C584 C576 1.378 . S
C584 C579 1.350 . S
C585 H572 0.929 . S
C585 C577 1.433 . S
C585 N587 1.384 . S
N586 C582 1.427 . S
N586 C583 1.384 . S
N587 C579 1.427 . S
N587 C585 1.384 . S
H588 C594 0.930 . S
H589 C598 0.930 . S
H590 C603 0.929 . S
H591 C601 0.929 . S
H592 C596 0.929 . S
H593 C602 0.929 . S
C594 H588 0.930 . S
C594 C595 1.367 . S
C594 C602 1.378 . S
C595 C594 1.367 . S
C595 C603 1.433 . S
C596 H592 0.929 . S
C596 C598 1.378 . S
C596 C600 1.350 . S
C597 C600 1.463 1_545 S
C597 C602 1.350 . S
C597 N605 1.427 . S
C598 H589 0.930 . S
C598 C596 1.378 . S
C598 C599 1.367 . S
C599 C598 1.367 . S
C599 C601 1.433 . S
C600 C596 1.350 . S
C600 C597 1.463 1_565 S
C600 N604 1.427 . S
C601 H591 0.929 . S
C601 C599 1.433 . S
C601 N604 1.384 . S
C602 H593 0.929 . S
C602 C594 1.378 . S
C602 C597 1.350 . S
C603 H590 0.929 . S
C603 C595 1.433 . S
C603 N605 1.384 . S
N604 C600 1.427 . S
N604 C601 1.384 . S
N605 C597 1.427 . S
N605 C603 1.384 . S
H606 C612 0.930 . S
H607 C616 0.930 . S
H608 C621 0.929 . S
H609 C619 0.929 . S
H610 C614 0.929 . S
H611 C620 0.929 . S
C612 H606 0.930 . S
C612 C613 1.367 . S
C612 C620 1.378 . S
C613 C612 1.367 . S
C613 C621 1.433 . S
C614 H610 0.929 . S
C614 C616 1.378 . S
C614 C618 1.350 . S
C615 C618 1.463 . S
C615 C620 1.350 . S
C615 N623 1.427 . S
C616 H607 0.930 . S
C616 C614 1.378 . S
C616 C617 1.367 . S
C617 C616 1.367 . S
C617 C619 1.433 . S
C618 C614 1.350 . S
C618 C615 1.463 . S
C618 N622 1.427 . S
C619 H609 0.929 . S
C619 C617 1.433 . S
C619 N622 1.384 . S
C620 H611 0.929 . S
C620 C612 1.378 . S
C620 C615 1.350 . S
C621 H608 0.929 . S
C621 C613 1.433 . S
C621 N623 1.384 . S
N622 C618 1.427 . S
N622 C619 1.384 . S
N623 C615 1.427 . S
N623 C621 1.384 . S
H624 C630 0.930 . S
H625 C634 0.930 . S
H626 C639 0.929 . S
H627 C637 0.929 . S
H628 C632 0.929 . S
H629 C638 0.929 . S
C630 H624 0.930 . S
C630 C631 1.367 . S
C630 C638 1.378 . S
C631 C630 1.367 . S
C631 C639 1.433 . S
C632 H628 0.929 . S
C632 C634 1.378 . S
C632 C636 1.350 . S
C633 C636 1.463 1_655 S
C633 C638 1.350 . S
C633 N641 1.427 . S
C634 H625 0.930 . S
C634 C632 1.378 . S
C634 C635 1.367 . S
C635 C634 1.367 . S
C635 C637 1.433 . S
C636 C632 1.350 . S
C636 C633 1.463 1_455 S
C636 N640 1.427 . S
C637 H627 0.929 . S
C637 C635 1.433 . S
C637 N640 1.384 . S
C638 H629 0.929 . S
C638 C630 1.378 . S
C638 C633 1.350 . S
C639 H626 0.929 . S
C639 C631 1.433 . S
C639 N641 1.384 . S
N640 C636 1.427 . S
N640 C637 1.384 . S
N641 C633 1.427 . S
N641 C639 1.384 . S
H642 C648 0.930 . S
H643 C652 0.930 . S
H644 C657 0.929 . S
H645 C655 0.929 . S
H646 C650 0.929 . S
H647 C656 0.929 . S
C648 H642 0.930 . S
C648 C649 1.367 . S
C648 C656 1.378 . S
C649 C648 1.367 . S
C649 C657 1.433 . S
C650 H646 0.929 . S
C650 C652 1.378 . S
C650 C654 1.350 . S
C651 C654 1.463 1_565 S
C651 C656 1.350 . S
C651 N659 1.427 . S
C652 H643 0.930 . S
C652 C650 1.378 . S
C652 C653 1.367 . S
C653 C652 1.367 . S
C653 C655 1.433 . S
C654 C650 1.350 . S
C654 C651 1.463 1_545 S
C654 N658 1.427 . S
C655 H645 0.929 . S
C655 C653 1.433 . S
C655 N658 1.384 . S
C656 H647 0.929 . S
C656 C648 1.378 . S
C656 C651 1.350 . S
C657 H644 0.929 . S
C657 C649 1.433 . S
C657 N659 1.384 . S
N658 C654 1.427 . S
N658 C655 1.384 . S
N659 C651 1.427 . S
N659 C657 1.384 . S
H660 C666 0.930 . S
H661 C670 0.930 . S
H662 C675 0.929 . S
H663 C673 0.929 . S
H664 C668 0.929 . S
H665 C674 0.929 . S
C666 H660 0.930 . S
C666 C667 1.367 . S
C666 C674 1.378 . S
C667 C666 1.367 . S
C667 C675 1.433 . S
C668 H664 0.929 . S
C668 C670 1.378 . S
C668 C672 1.350 . S
C669 C672 1.463 . S
C669 C674 1.350 . S
C669 N677 1.427 . S
C670 H661 0.930 . S
C670 C668 1.378 . S
C670 C671 1.367 . S
C671 C670 1.367 . S
C671 C673 1.433 . S
C672 C668 1.350 . S
C672 C669 1.463 . S
C672 N676 1.427 . S
C673 H663 0.929 . S
C673 C671 1.433 . S
C673 N676 1.384 . S
C674 H665 0.929 . S
C674 C666 1.378 . S
C674 C669 1.350 . S
C675 H662 0.929 . S
C675 C667 1.433 . S
C675 N677 1.384 . S
N676 C672 1.427 . S
N676 C673 1.384 . S
N677 C669 1.427 . S
N677 C675 1.384 . S
H678 C684 0.930 . S
H679 C688 0.930 . S
H680 C693 0.929 . S
H681 C691 0.929 . S
H682 C686 0.929 1_655 S
H683 C692 0.929 1_455 S
C684 H678 0.930 . S
C684 C685 1.367 . S
C684 C692 1.378 . S
C685 C684 1.367 . S
C685 C693 1.433 . S
C686 H682 0.929 1_455 S
C686 C688 1.378 . S
C686 C690 1.350 . S
C687 C690 1.463 1_655 S
C687 C692 1.350 . S
C687 N695 1.427 . S
C688 H679 0.930 . S
C688 C686 1.378 . S
C688 C689 1.367 . S
C689 C688 1.367 . S
C689 C691 1.433 . S
C690 C686 1.350 . S
C690 C687 1.463 1_455 S
C690 N694 1.427 . S
C691 H681 0.929 . S
C691 C689 1.433 . S
C691 N694 1.384 . S
C692 H683 0.929 1_655 S
C692 C684 1.378 . S
C692 C687 1.350 . S
C693 H680 0.929 . S
C693 C685 1.433 . S
C693 N695 1.384 . S
N694 C690 1.427 . S
N694 C691 1.384 . S
N695 C687 1.427 . S
N695 C693 1.384 . S
H696 C702 0.930 . S
H697 C706 0.930 . S
H698 C711 0.929 . S
H699 C709 0.929 . S
H700 C704 0.929 . S
H701 C710 0.929 . S
C702 H696 0.930 . S
C702 C703 1.367 . S
C702 C710 1.378 . S
C703 C702 1.367 . S
C703 C711 1.433 . S
C704 H700 0.929 . S
C704 C706 1.378 . S
C704 C708 1.350 . S
C705 C708 1.463 . S
C705 C710 1.350 . S
C705 N713 1.427 . S
C706 H697 0.930 . S
C706 C704 1.378 . S
C706 C707 1.367 . S
C707 C706 1.367 . S
C707 C709 1.433 . S
C708 C704 1.350 . S
C708 C705 1.463 . S
C708 N712 1.427 . S
C709 H699 0.929 . S
C709 C707 1.433 . S
C709 N712 1.384 . S
C710 H701 0.929 . S
C710 C702 1.378 . S
C710 C705 1.350 . S
C711 H698 0.929 . S
C711 C703 1.433 . S
C711 N713 1.384 . S
N712 C708 1.427 . S
N712 C709 1.384 . S
N713 C705 1.427 . S
N713 C711 1.384 . S
H714 C720 0.930 . S
H715 C724 0.930 . S
H716 C729 0.929 . S
H717 C727 0.929 . S
H718 C722 0.929 . S
H719 C728 0.929 . S
C720 H714 0.930 . S
C720 C721 1.367 . S
C720 C728 1.378 . S
C721 C720 1.367 . S
C721 C729 1.433 . S
C722 H718 0.929 . S
C722 C724 1.378 . S
C722 C726 1.350 . S
C723 C726 1.463 . S
C723 C728 1.350 . S
C723 N731 1.427 . S
C724 H715 0.930 . S
C724 C722 1.378 . S
C724 C725 1.367 . S
C725 C724 1.367 . S
C725 C727 1.433 . S
C726 C722 1.350 . S
C726 C723 1.463 . S
C726 N730 1.427 . S
C727 H717 0.929 . S
C727 C725 1.433 . S
C727 N730 1.384 . S
C728 H719 0.929 . S
C728 C720 1.378 . S
C728 C723 1.350 . S
C729 H716 0.929 . S
C729 C721 1.433 . S
C729 N731 1.384 . S
N730 C726 1.427 . S
N730 C727 1.384 . S
N731 C723 1.427 . S
N731 C729 1.384 . S
H732 C738 0.930 . S
H733 C742 0.930 . S
H734 C747 0.929 . S
H735 C745 0.929 . S
H736 C740 0.929 . S
H737 C746 0.929 . S
C738 H732 0.930 . S
C738 C739 1.367 . S
C738 C746 1.378 . S
C739 C738 1.367 . S
C739 C747 1.433 . S
C740 H736 0.929 . S
C740 C742 1.378 . S
C740 C744 1.350 . S
C741 C744 1.463 . S
C741 C746 1.350 . S
C741 N749 1.427 . S
C742 H733 0.930 . S
C742 C740 1.378 . S
C742 C743 1.367 . S
C743 C742 1.367 . S
C743 C745 1.433 . S
C744 C740 1.350 . S
C744 C741 1.463 . S
C744 N748 1.427 . S
C745 H735 0.929 . S
C745 C743 1.433 . S
C745 N748 1.384 . S
C746 H737 0.929 . S
C746 C738 1.378 . S
C746 C741 1.350 . S
C747 H734 0.929 . S
C747 C739 1.433 . S
C747 N749 1.384 . S
N748 C744 1.427 . S
N748 C745 1.384 . S
N749 C741 1.427 . S
N749 C747 1.384 . S
H750 C756 0.930 . S
H751 C760 0.930 . S
H752 C765 0.929 . S
H753 C763 0.929 . S
H754 C758 0.929 . S
H755 C764 0.929 . S
C756 H750 0.930 . S
C756 C757 1.367 . S
C756 C764 1.378 . S
C757 C756 1.367 . S
C757 C765 1.433 . S
C758 H754 0.929 . S
C758 C760 1.378 . S
C758 C762 1.350 . S
C759 C762 1.463 . S
C759 C764 1.350 . S
C759 N767 1.427 . S
C760 H751 0.930 . S
C760 C758 1.378 . S
C760 C761 1.367 . S
C761 C760 1.367 . S
C761 C763 1.433 . S
C762 C758 1.350 . S
C762 C759 1.463 . S
C762 N766 1.427 . S
C763 H753 0.929 . S
C763 C761 1.433 . S
C763 N766 1.384 . S
C764 H755 0.929 . S
C764 C756 1.378 . S
C764 C759 1.350 . S
C765 H752 0.929 . S
C765 C757 1.433 . S
C765 N767 1.384 . S
N766 C762 1.427 . S
N766 C763 1.384 . S
N767 C759 1.427 . S
N767 C765 1.384 . S
H768 C774 0.930 . S
H769 C778 0.930 . S
H770 C783 0.929 . S
H771 C781 0.929 . S
H772 C776 0.929 . S
H773 C782 0.929 . S
C774 H768 0.930 . S
C774 C775 1.367 . S
C774 C782 1.378 . S
C775 C774 1.367 . S
C775 C783 1.433 . S
C776 H772 0.929 . S
C776 C778 1.378 . S
C776 C780 1.350 . S
C777 C780 1.463 . S
C777 C782 1.350 . S
C777 N785 1.427 . S
C778 H769 0.930 . S
C778 C776 1.378 . S
C778 C779 1.367 . S
C779 C778 1.367 . S
C779 C781 1.433 . S
C780 C776 1.350 . S
C780 C777 1.463 . S
C780 N784 1.427 . S
C781 H771 0.929 . S
C781 C779 1.433 . S
C781 N784 1.384 . S
C782 H773 0.929 . S
C782 C774 1.378 . S
C782 C777 1.350 . S
C783 H770 0.929 . S
C783 C775 1.433 . S
C783 N785 1.384 . S
N784 C780 1.427 . S
N784 C781 1.384 . S
N785 C777 1.427 . S
N785 C783 1.384 . S
H786 C792 0.930 . S
H787 C796 0.930 . S
H788 C801 0.929 . S
H789 C799 0.929 . S
H790 C794 0.929 . S
H791 C800 0.929 . S
C792 H786 0.930 . S
C792 C793 1.367 . S
C792 C800 1.378 . S
C793 C792 1.367 . S
C793 C801 1.433 . S
C794 H790 0.929 . S
C794 C796 1.378 . S
C794 C798 1.350 . S
C795 C798 1.463 . S
C795 C800 1.350 . S
C795 N803 1.427 . S
C796 H787 0.930 . S
C796 C794 1.378 . S
C796 C797 1.367 . S
C797 C796 1.367 . S
C797 C799 1.433 . S
C798 C794 1.350 . S
C798 C795 1.463 . S
C798 N802 1.427 . S
C799 H789 0.929 . S
C799 C797 1.433 . S
C799 N802 1.384 . S
C800 H791 0.929 . S
C800 C792 1.378 . S
C800 C795 1.350 . S
C801 H788 0.929 . S
C801 C793 1.433 . S
C801 N803 1.384 . S
N802 C798 1.427 . S
N802 C799 1.384 . S
N803 C795 1.427 . S
N803 C801 1.384 . S
H804 C810 0.930 . S
H805 C814 0.930 . S
H806 C819 0.929 . S
H807 C817 0.929 . S
H808 C812 0.929 . S
H809 C818 0.929 . S
C810 H804 0.930 . S
C810 C811 1.367 . S
C810 C818 1.378 . S
C811 C810 1.367 . S
C811 C819 1.433 . S
C812 H808 0.929 . S
C812 C814 1.378 . S
C812 C816 1.350 . S
C813 C816 1.463 . S
C813 C818 1.350 . S
C813 N821 1.427 . S
C814 H805 0.930 . S
C814 C812 1.378 . S
C814 C815 1.367 . S
C815 C814 1.367 . S
C815 C817 1.433 . S
C816 C812 1.350 . S
C816 C813 1.463 . S
C816 N820 1.427 . S
C817 H807 0.929 . S
C817 C815 1.433 . S
C817 N820 1.384 . S
C818 H809 0.929 . S
C818 C810 1.378 . S
C818 C813 1.350 . S
C819 H806 0.929 . S
C819 C811 1.433 . S
C819 N821 1.384 . S
N820 C816 1.427 . S
N820 C817 1.384 . S
N821 C813 1.427 . S
N821 C819 1.384 . S
H822 C828 0.930 . S
H823 C832 0.930 . S
H824 C837 0.929 . S
H825 C835 0.929 . S
H826 C830 0.929 . S
H827 C836 0.929 . S
C828 H822 0.930 . S
C828 C829 1.367 . S
C828 C836 1.378 . S
C829 C828 1.367 . S
C829 C837 1.433 . S
C830 H826 0.929 . S
C830 C832 1.378 . S
C830 C834 1.350 . S
C831 C834 1.463 . S
C831 C836 1.350 . S
C831 N839 1.427 . S
C832 H823 0.930 . S
C832 C830 1.378 . S
C832 C833 1.367 . S
C833 C832 1.367 . S
C833 C835 1.433 . S
C834 C830 1.350 . S
C834 C831 1.463 . S
C834 N838 1.427 . S
C835 H825 0.929 . S
C835 C833 1.433 . S
C835 N838 1.384 . S
C836 H827 0.929 . S
C836 C828 1.378 . S
C836 C831 1.350 . S
C837 H824 0.929 . S
C837 C829 1.433 . S
C837 N839 1.384 . S
N838 C834 1.427 . S
N838 C835 1.384 . S
N839 C831 1.427 . S
N839 C837 1.384 . S
H840 C846 0.930 . S
H841 C850 0.930 . S
H842 C855 0.929 . S
H843 C853 0.929 . S
H844 C848 0.929 . S
H845 C854 0.929 . S
C846 H840 0.930 . S
C846 C847 1.367 . S
C846 C854 1.378 . S
C847 C846 1.367 . S
C847 C855 1.433 . S
C848 H844 0.929 . S
C848 C850 1.378 . S
C848 C852 1.350 . S
C849 C852 1.463 . S
C849 C854 1.350 . S
C849 N857 1.427 . S
C850 H841 0.930 . S
C850 C848 1.378 . S
C850 C851 1.367 . S
C851 C850 1.367 . S
C851 C853 1.433 . S
C852 C848 1.350 . S
C852 C849 1.463 . S
C852 N856 1.427 . S
C853 H843 0.929 . S
C853 C851 1.433 . S
C853 N856 1.384 . S
C854 H845 0.929 . S
C854 C846 1.378 . S
C854 C849 1.350 . S
C855 H842 0.929 . S
C855 C847 1.433 . S
C855 N857 1.384 . S
N856 C852 1.427 . S
N856 C853 1.384 . S
N857 C849 1.427 . S
N857 C855 1.384 . S
H858 C864 0.930 . S
H859 C868 0.930 . S
H860 C873 0.929 . S
H861 C871 0.929 . S
H862 C866 0.929 . S
H863 C872 0.929 . S
C864 H858 0.930 . S
C864 C865 1.367 . S
C864 C872 1.378 . S
C865 C864 1.367 . S
C865 C873 1.433 . S
C866 H862 0.929 . S
C866 C868 1.378 . S
C866 C870 1.350 . S
C867 C870 1.463 . S
C867 C872 1.350 . S
C867 N875 1.427 . S
C868 H859 0.930 . S
C868 C866 1.378 . S
C868 C869 1.367 . S
C869 C868 1.367 . S
C869 C871 1.433 . S
C870 C866 1.350 . S
C870 C867 1.463 . S
C870 N874 1.427 . S
C871 H861 0.929 . S
C871 C869 1.433 . S
C871 N874 1.384 . S
C872 H863 0.929 . S
C872 C864 1.378 . S
C872 C867 1.350 . S
C873 H860 0.929 . S
C873 C865 1.433 . S
C873 N875 1.384 . S
N874 C870 1.427 . S
N874 C871 1.384 . S
N875 C867 1.427 . S
N875 C873 1.384 . S
H876 C882 0.930 . S
H877 C886 0.930 . S
H878 C891 0.929 . S
H879 C889 0.929 . S
H880 C884 0.929 . S
H881 C890 0.929 . S
C882 H876 0.930 . S
C882 C883 1.367 . S
C882 C890 1.378 . S
C883 C882 1.367 . S
C883 C891 1.433 . S
C884 H880 0.929 . S
C884 C886 1.378 . S
C884 C888 1.350 . S
C885 C888 1.463 . S
C885 C890 1.350 . S
C885 N893 1.427 . S
C886 H877 0.930 . S
C886 C884 1.378 . S
C886 C887 1.367 . S
C887 C886 1.367 . S
C887 C889 1.433 . S
C888 C884 1.350 . S
C888 C885 1.463 . S
C888 N892 1.427 . S
C889 H879 0.929 . S
C889 C887 1.433 . S
C889 N892 1.384 . S
C890 H881 0.929 . S
C890 C882 1.378 . S
C890 C885 1.350 . S
C891 H878 0.929 . S
C891 C883 1.433 . S
C891 N893 1.384 . S
N892 C888 1.427 . S
N892 C889 1.384 . S
N893 C885 1.427 . S
N893 C891 1.384 . S
H894 C900 0.930 . S
H895 C904 0.930 . S
H896 C909 0.929 . S
H897 C907 0.929 . S
H898 C902 0.929 . S
H899 C908 0.929 . S
C900 H894 0.930 . S
C900 C901 1.367 . S
C900 C908 1.378 . S
C901 C900 1.367 . S
C901 C909 1.433 . S
C902 H898 0.929 . S
C902 C904 1.378 . S
C902 C906 1.350 . S
C903 C906 1.463 . S
C903 C908 1.350 . S
C903 N911 1.427 . S
C904 H895 0.930 . S
C904 C902 1.378 . S
C904 C905 1.367 . S
C905 C904 1.367 . S
C905 C907 1.433 . S
C906 C902 1.350 . S
C906 C903 1.463 . S
C906 N910 1.427 . S
C907 H897 0.929 . S
C907 C905 1.433 . S
C907 N910 1.384 . S
C908 H899 0.929 . S
C908 C900 1.378 . S
C908 C903 1.350 . S
C909 H896 0.929 . S
C909 C901 1.433 . S
C909 N911 1.384 . S
N910 C906 1.427 . S
N910 C907 1.384 . S
N911 C903 1.427 . S
N911 C909 1.384 . S
C271 C8 1.168 . S
C275 C184 1.164 . S
C289 C216 1.164 . S
C293 C30 1.169 . S
C307 C62 1.164 . S
C311 C228 1.168 . S
C325 C260 1.166 . S
C329 C76 1.167 . S
C343 C98 1.165 . S
C347 C150 1.168 . S
C361 C172 1.167 . S
C365 C120 1.165 . S
C379 C249 1.281 . S
C383 C81 1.281 . S
C397 C103 1.278 . S
C401 C139 1.280 . S
C415 C161 1.280 . S
C419 C125 1.281 . S
C433 C197 1.276 . S
C437 C21 1.274 . S
C451 C205 1.281 . S
C455 C43 1.280 . S
C469 C51 1.275 . S
C473 C241 1.275 . S
C487 C162 1.243 . S
C491 C10 1.251 . S
C505 C186 1.243 . S
C509 C32 1.251 . S
C523 C206 1.243 . S
C527 C52 1.250 . S
C541 C84 1.244 . S
C545 C230 1.251 . S
C559 C106 1.246 . S
C563 C250 1.249 . S
C577 C140 1.245 . S
C581 C128 1.250 . S
C595 C235 1.334 . S
C599 C73 1.341 . S
C613 C95 1.340 . S
C617 C263 1.339 . S
C631 C153 1.336 . S
C635 C117 1.341 . S
C649 C175 1.336 . S
C653 C15 1.341 . S
C667 C37 1.339 . S
C671 C191 1.331 . S
C685 C65 1.333 . S
C689 C219 1.331 . S
C703 C18 1.518 . S
C707 C238 1.514 . S
C721 C40 1.514 . S
C725 C252 1.518 . S
C739 C142 1.515 . S
C743 C54 1.513 . S
C757 C164 1.513 . S
C761 C74 1.516 . S
C775 C96 1.515 . S
C779 C194 1.518 . S
C793 C208 1.513 . S
C797 C118 1.517 . S
C811 C87 1.629 . S
C815 C169 1.631 . S
C829 C109 1.628 . S
C833 C183 1.627 . S
C847 C213 1.631 . S
C851 C131 1.632 . S
C865 C227 1.626 . S
C869 C7 1.628 . S
C883 C257 1.630 . S
C887 C29 1.628 . S
C901 C147 1.625 . S
C905 C59 1.625 . S
