# Generated by pormake.
# Topology fns, (5)-cn, num edge types: 1
# Building blocks:
#     Node 0, Type 0, BuildingBlock: BEQFEK_clean_sbu_0, # of connection points: 5
#     Node 1, Type 0, BuildingBlock: BEQFEK_clean_sbu_0, # of connection points: 5
#     Node 2, Type 0, BuildingBlock: BEQFEK_clean_sbu_0, # of connection points: 5
#     Node 3, Type 0, BuildingBlock: BEQFEK_clean_sbu_0, # of connection points: 5
#     Node 4, Type 0, BuildingBlock: BEQFEK_clean_sbu_0, # of connection points: 5
#     Node 5, Type 0, BuildingBlock: BEQFEK_clean_sbu_0, # of connection points: 5
#     Edge 6, Type (0, 0), BuildingBlock: OJICUG_clean_linker_0, # of connection points: 2
#     Edge 7, Type (0, 0), BuildingBlock: OJICUG_clean_linker_0, # of connection points: 2
#     Edge 8, Type (0, 0), BuildingBlock: OJICUG_clean_linker_0, # of connection points: 2
#     Edge 9, Type (0, 0), BuildingBlock: OJICUG_clean_linker_0, # of connection points: 2
#     Edge 10, Type (0, 0), BuildingBlock: OJICUG_clean_linker_0, # of connection points: 2
#     Edge 11, Type (0, 0), BuildingBlock: OJICUG_clean_linker_0, # of connection points: 2
#     Edge 12, Type (0, 0), BuildingBlock: OJICUG_clean_linker_0, # of connection points: 2
#     Edge 13, Type (0, 0), BuildingBlock: OJICUG_clean_linker_0, # of connection points: 2
#     Edge 14, Type (0, 0), BuildingBlock: OJICUG_clean_linker_0, # of connection points: 2
#     Edge 15, Type (0, 0), BuildingBlock: OJICUG_clean_linker_0, # of connection points: 2
#     Edge 16, Type (0, 0), BuildingBlock: OJICUG_clean_linker_0, # of connection points: 2
#     Edge 17, Type (0, 0), BuildingBlock: OJICUG_clean_linker_0, # of connection points: 2
#     Edge 18, Type (0, 0), BuildingBlock: OJICUG_clean_linker_0, # of connection points: 2
#     Edge 19, Type (0, 0), BuildingBlock: OJICUG_clean_linker_0, # of connection points: 2
#     Edge 20, Type (0, 0), BuildingBlock: OJICUG_clean_linker_0, # of connection points: 2
# Relax obj value: 0.292
# Max RMSD: 0.271
# Mean RMSD: 0.271
data_MOF--net-fns--node1-BEQFEK_clean_sbu_0--edge1-OJICUG_clean_linker_0
_symmetry_space_group_name_H-M    P1
_symmetry_Int_Tables_number       1
_symmetry_cell_setting            triclinic
loop_
_symmetry_equiv_pos_as_xyz
'x, y, z'
_cell_length_a     41.32635
_cell_length_b     41.480189
_cell_length_c     14.559709
_cell_angle_alpha  90.163004
_cell_angle_beta   89.825585
_cell_angle_gamma 120.06146
loop_
_atom_site_label
_atom_site_type_symbol
_atom_site_fract_x
_atom_site_fract_y
_atom_site_fract_z
_atom_type_partial_charge
Co0 Co 0.16947 0.60633 0.06937 0.0
Co1 Co 0.17112 0.56719 0.2508 0.0
C2 C 0.21204 0.65232 0.22216 0.0
O3 O 0.20108 0.65293 0.14071 0.0
O4 O 0.2025 0.62174 0.26252 0.0
C5 C 0.14967 0.62337 0.86991 0.0
O6 O 0.13297 0.64309 0.87849 0.0
C7 C 0.15067 0.56649 0.43837 0.0
C8 C 0.17455 0.53668 0.51099 0.0
C9 C 0.15704 0.55746 0.52558 0.0
N10 N 0.16386 0.552 0.37592 0.0
N11 N 0.17766 0.53369 0.41951 0.0
C12 C 0.13629 0.59218 0.41417 0.0
H13 H 0.14175 0.60082 0.34141 0.0
H14 H 0.10557 0.57746 0.42444 0.0
H15 H 0.14915 0.61724 0.45888 0.0
C16 C 0.08799 0.56241 0.1073 0.0
N17 N 0.12381 0.5739 0.12859 0.0
N18 N 0.12463 0.55444 0.19855 0.0
C19 C 0.08947 0.52906 0.22248 0.0
C20 C 0.06485 0.53334 0.16581 0.0
C21 C 0.0766 0.58031 0.03514 0.0
H22 H 0.09734 0.61049 0.03178 0.0
H23 H 0.04856 0.57656 0.04989 0.0
H24 H 0.07593 0.56762 0.96746 0.0
O25 O 0.19741 0.57964 0.05087 0.0
O26 O 0.19833 0.54862 0.17388 0.0
H27 H 0.05412 0.47341 0.27429 0.0
H28 H 0.07578 0.5092 0.36047 0.0
C29 C 0.08011 0.49944 0.293 0.0
H30 H 0.10338 0.49354 0.29964 0.0
H31 H 0.19125 0.52126 0.38728 0.0
O32 O 0.16004 0.61316 0.94052 0.0
C33 C 0.20669 0.5581 0.08996 0.0
Co34 Co 0.55132 0.17424 0.39949 0.0
Co35 Co 0.58881 0.17274 0.58325 0.0
C36 C 0.54525 0.21414 0.55603 0.0
O37 O 0.53484 0.2043 0.47331 0.0
O38 O 0.56575 0.20403 0.5969 0.0
C39 C 0.51538 0.15925 0.20293 0.0
O40 O 0.47922 0.14233 0.21843 0.0
C41 C 0.56811 0.1524 0.76991 0.0
C42 C 0.62196 0.17561 0.84256 0.0
C43 C 0.58366 0.15934 0.85697 0.0
N44 N 0.5958 0.16429 0.70756 0.0
N45 N 0.62795 0.17755 0.75117 0.0
C46 C 0.52807 0.13893 0.74566 0.0
H47 H 0.5248 0.1426 0.67171 0.0
H48 H 0.51105 0.10876 0.76084 0.0
H49 H 0.51693 0.15364 0.78734 0.0
C50 C 0.51617 0.09198 0.422 0.0
N51 N 0.53787 0.12728 0.45147 0.0
N52 N 0.5558 0.12703 0.52568 0.0
C53 C 0.54645 0.09174 0.54559 0.0
C54 C 0.52087 0.0683 0.48068 0.0
C55 C 0.49424 0.08166 0.33471 0.0
H56 H 0.51361 0.0952 0.27626 0.0
H57 H 0.47424 0.09208 0.33716 0.0
H58 H 0.47879 0.05117 0.32278 0.0
O59 O 0.60607 0.2023 0.38652 0.0
O60 O 0.63609 0.20111 0.51129 0.0
H61 H 0.59133 0.10192 0.63684 0.0
H62 H 0.5582 0.05305 0.61865 0.0
C63 C 0.5614 0.08104 0.62644 0.0
H64 H 0.54577 0.08058 0.68884 0.0
H65 H 0.65403 0.19038 0.71891 0.0
O66 O 0.53826 0.16918 0.26908 0.0
C67 C 0.6363 0.21078 0.42805 0.0
Co68 Co 0.3666 0.55553 0.72293 0.0
Co69 Co 0.40554 0.59507 0.9128 0.0
C70 C 0.32162 0.553 0.88566 0.0
O71 O 0.32183 0.54389 0.80206 0.0
O72 O 0.35179 0.57233 0.92927 0.0
C73 C 0.34518 0.51825 0.52042 0.0
O74 O 0.31875 0.48515 0.49373 0.0
C75 C 0.40886 0.58039 0.10764 0.0
C76 C 0.44011 0.636 0.17113 0.0
C77 C 0.41971 0.59834 0.1925 0.0
N78 N 0.42237 0.60602 0.03989 0.0
N79 N 0.44135 0.63927 0.07855 0.0
C80 C 0.38178 0.53984 0.09154 0.0
H81 H 0.35714 0.53024 0.13735 0.0
H82 H 0.37271 0.53434 0.01894 0.0
H83 H 0.39526 0.52324 0.10776 0.0
C84 C 0.41306 0.5208 0.75523 0.0
N85 N 0.39961 0.54285 0.7828 0.0
N86 N 0.41694 0.56033 0.85867 0.0
C87 C 0.44235 0.55039 0.88092 0.0
C88 C 0.44051 0.52478 0.81645 0.0
C89 C 0.40251 0.49956 0.66669 0.0
H90 H 0.37193 0.47984 0.66597 0.0
H91 H 0.4176 0.48404 0.65585 0.0
H92 H 0.40925 0.51936 0.60903 0.0
O93 O 0.39484 0.60922 0.69638 0.0
O94 O 0.4223 0.63896 0.8269 0.0
H95 H 0.47624 0.59507 0.97364 0.0
H96 H 0.49312 0.56299 0.95436 0.0
C97 C 0.46782 0.56544 0.96229 0.0
H98 H 0.45278 0.54939 0.02411 0.0
H99 H 0.45333 0.66429 0.04222 0.0
O100 O 0.34702 0.52611 0.60582 0.0
C101 C 0.41551 0.63917 0.74089 0.0
Co102 Co 0.79898 0.37155 0.07304 0.0
Co103 Co 0.79726 0.41087 0.25498 0.0
C104 C 0.75685 0.32571 0.22676 0.0
O105 O 0.76764 0.32502 0.14496 0.0
O106 O 0.76626 0.35633 0.26708 0.0
C107 C 0.81882 0.35452 0.8726 0.0
O108 O 0.83539 0.33466 0.87988 0.0
C109 C 0.81791 0.41188 0.44229 0.0
C110 C 0.79354 0.44123 0.5158 0.0
C111 C 0.81134 0.42073 0.52981 0.0
N112 N 0.80455 0.4262 0.38026 0.0
N113 N 0.79046 0.44424 0.42441 0.0
C114 C 0.83265 0.38649 0.41737 0.0
H115 H 0.81998 0.36141 0.46183 0.0
H116 H 0.82726 0.37786 0.34455 0.0
H117 H 0.86338 0.40145 0.42737 0.0
C118 C 0.88043 0.41594 0.10957 0.0
N119 N 0.84461 0.40426 0.1317 0.0
N120 N 0.84377 0.42378 0.20186 0.0
C121 C 0.87892 0.44936 0.2251 0.0
C122 C 0.90355 0.44519 0.16771 0.0
C123 C 0.89184 0.39805 0.03691 0.0
H124 H 0.87117 0.36785 0.03352 0.0
H125 H 0.91992 0.40191 0.05116 0.0
H126 H 0.89243 0.41069 0.96941 0.0
O127 O 0.77095 0.39811 0.05488 0.0
O128 O 0.76975 0.42904 0.17836 0.0
H129 H 0.91409 0.50514 0.27663 0.0
H130 H 0.89279 0.46945 0.36296 0.0
C131 C 0.88824 0.47905 0.29573 0.0
H132 H 0.86484 0.48476 0.3031 0.0
H133 H 0.77665 0.45645 0.39263 0.0
O134 O 0.80858 0.36461 0.944 0.0
C135 C 0.76154 0.41958 0.09434 0.0
Co136 Co 0.41913 0.8027 0.39089 0.0
Co137 Co 0.3818 0.8037 0.57558 0.0
C138 C 0.42475 0.76181 0.54476 0.0
O139 O 0.43531 0.77208 0.46235 0.0
O140 O 0.40439 0.77193 0.58685 0.0
C141 C 0.45539 0.81817 0.19453 0.0
O142 O 0.49154 0.83527 0.20994 0.0
C143 C 0.40255 0.82357 0.76224 0.0
C144 C 0.34879 0.80116 0.83554 0.0
C145 C 0.38706 0.81709 0.8494 0.0
N146 N 0.37487 0.81183 0.70026 0.0
N147 N 0.34277 0.79901 0.74422 0.0
C148 C 0.4425 0.83654 0.73759 0.0
H149 H 0.44571 0.83272 0.66358 0.0
H150 H 0.45985 0.8667 0.75276 0.0
H151 H 0.45332 0.82159 0.77904 0.0
C152 C 0.45492 0.88501 0.41653 0.0
N153 N 0.43298 0.84957 0.44467 0.0
N154 N 0.41504 0.84957 0.5194 0.0
C155 C 0.42456 0.8848 0.54094 0.0
C156 C 0.45032 0.90849 0.47664 0.0
C157 C 0.47703 0.8957 0.32929 0.0
H158 H 0.49703 0.88528 0.33096 0.0
H159 H 0.49251 0.92626 0.31847 0.0
H160 H 0.45778 0.8824 0.2706 0.0
O161 O 0.3643 0.77496 0.37815 0.0
O162 O 0.33454 0.77605 0.50408 0.0
H163 H 0.41283 0.92325 0.61609 0.0
H164 H 0.42512 0.89541 0.68467 0.0
C165 C 0.40957 0.89521 0.62265 0.0
H166 H 0.3796 0.87435 0.63285 0.0
H167 H 0.31669 0.78647 0.71224 0.0
O168 O 0.43241 0.80805 0.26068 0.0
C169 C 0.33416 0.76658 0.42046 0.0
Co170 Co 0.60208 0.41985 0.73098 0.0
Co171 Co 0.56272 0.38228 0.91474 0.0
C172 C 0.64798 0.42519 0.88652 0.0
O173 O 0.64875 0.43571 0.80393 0.0
O174 O 0.61719 0.40492 0.9275 0.0
C175 C 0.62291 0.45577 0.53395 0.0
O176 O 0.64246 0.49183 0.54858 0.0
C177 C 0.56311 0.40285 0.10179 0.0
C178 C 0.53241 0.34919 0.17447 0.0
C179 C 0.55444 0.38735 0.18887 0.0
N180 N 0.54734 0.37528 0.03943 0.0
N181 N 0.52843 0.34324 0.08308 0.0
C182 C 0.58969 0.44276 0.07747 0.0
H183 H 0.59704 0.446 0.00367 0.0
H184 H 0.57627 0.45962 0.09203 0.0
H185 H 0.61542 0.45402 0.11962 0.0
C186 C 0.55595 0.4561 0.7567 0.0
N187 N 0.56891 0.43372 0.78454 0.0
N188 N 0.5504 0.41563 0.85841 0.0
C189 C 0.52479 0.42546 0.87954 0.0
C190 C 0.52761 0.45165 0.81602 0.0
C191 C 0.56819 0.47861 0.67042 0.0
H192 H 0.56175 0.45963 0.61092 0.0
H193 H 0.59885 0.49771 0.67275 0.0
H194 H 0.55394 0.49495 0.66034 0.0
O195 O 0.57482 0.36529 0.71714 0.0
O196 O 0.54338 0.33531 0.84198 0.0
H197 H 0.49013 0.38072 0.97114 0.0
H198 H 0.47375 0.41318 0.95189 0.0
C199 C 0.49885 0.41043 0.96027 0.0
H200 H 0.51368 0.42626 0.0226 0.0
H201 H 0.51518 0.31726 0.05082 0.0
O202 O 0.61009 0.43324 0.60069 0.0
C203 C 0.55279 0.33516 0.75845 0.0
C204 C 0.25674 0.54102 0.0812 0.0
C205 C 0.23031 0.5472 0.03683 0.0
H206 H 0.30651 0.53776 0.06685 0.0
C207 C 0.23023 0.54826 0.93997 0.0
H208 H 0.2575 0.54003 0.15547 0.0
C209 C 0.25804 0.54646 0.88893 0.0
C210 C 0.28667 0.54412 0.93413 0.0
H211 H 0.20985 0.55258 0.90376 0.0
H212 H 0.25882 0.54994 0.81509 0.0
C213 C 0.28484 0.53982 0.03032 0.0
C214 C 0.70271 0.26272 0.42377 0.0
C215 C 0.67153 0.23461 0.37796 0.0
H216 H 0.75451 0.31392 0.41065 0.0
C217 C 0.67198 0.2332 0.28117 0.0
H218 H 0.70308 0.26457 0.49804 0.0
C219 C 0.70169 0.26112 0.23095 0.0
C220 C 0.73105 0.29126 0.27677 0.0
H221 H 0.64829 0.21161 0.24406 0.0
H222 H 0.70012 0.26067 0.15665 0.0
C223 C 0.73205 0.29101 0.37355 0.0
C224 C 0.43426 0.73593 0.68975 0.0
C225 C 0.43293 0.7354 0.59302 0.0
H226 H 0.43072 0.70617 0.81288 0.0
C227 C 0.43279 0.70584 0.54584 0.0
H228 H 0.4345 0.75847 0.72794 0.0
C229 C 0.43009 0.67557 0.59475 0.0
C230 C 0.42805 0.67466 0.69155 0.0
H231 H 0.43163 0.70463 0.4715 0.0
H232 H 0.42739 0.65189 0.55659 0.0
C233 C 0.43219 0.70601 0.73859 0.0
C234 C 0.71202 0.43281 0.89259 0.0
C235 C 0.68239 0.43377 0.93696 0.0
H236 H 0.7607 0.42761 0.90863 0.0
C237 C 0.68276 0.43645 0.03352 0.0
H238 H 0.71235 0.43052 0.8185 0.0
C239 C 0.71057 0.43525 0.08522 0.0
C240 C 0.73811 0.43054 0.04128 0.0
H241 H 0.66024 0.43723 0.06954 0.0
H242 H 0.70874 0.43502 0.15948 0.0
C243 C 0.73949 0.43088 0.94441 0.0
C244 C 0.29816 0.74407 0.27421 0.0
C245 C 0.29875 0.74302 0.37099 0.0
H246 H 0.26943 0.71645 0.15044 0.0
C247 C 0.26733 0.71554 0.41758 0.0
H248 H 0.32201 0.76517 0.2365 0.0
C249 C 0.23755 0.68745 0.36813 0.0
C250 C 0.23834 0.68679 0.27137 0.0
H251 H 0.26704 0.714 0.49187 0.0
H252 H 0.21486 0.66497 0.40577 0.0
C253 C 0.26802 0.71636 0.22476 0.0
C254 C 0.53711 0.26999 0.56045 0.0
C255 C 0.53679 0.24013 0.60602 0.0
H256 H 0.54244 0.32385 0.57403 0.0
C257 C 0.53507 0.23897 0.70278 0.0
H258 H 0.53866 0.27174 0.48619 0.0
C259 C 0.53671 0.26848 0.75325 0.0
C260 C 0.5409 0.30004 0.70777 0.0
H261 H 0.53479 0.21624 0.73974 0.0
H262 H 0.53779 0.26786 0.82752 0.0
C263 C 0.53951 0.29987 0.61094 0.0
C264 C 0.12486 0.59955 0.71242 0.0
C265 C 0.15189 0.60783 0.78036 0.0
H266 H 0.10333 0.57451 0.58198 0.0
C267 C 0.17953 0.59806 0.76555 0.0
H268 H 0.10257 0.60572 0.7233 0.0
C269 C 0.18059 0.58106 0.6836 0.0
C270 C 0.15386 0.57313 0.61481 0.0
H271 H 0.20053 0.60379 0.8173 0.0
H272 H 0.20279 0.57469 0.67363 0.0
C273 C 0.12547 0.58181 0.63111 0.0
C274 C 0.52823 0.13115 0.96458 0.0
C275 C 0.56531 0.1588 0.94503 0.0
H276 H 0.48265 0.11026 0.06067 0.0
C277 C 0.58482 0.18728 0.0094 0.0
H278 H 0.51282 0.10802 0.91833 0.0
C279 C 0.56772 0.1882 0.09119 0.0
C280 C 0.53063 0.16076 0.11048 0.0
H281 H 0.61333 0.20909 0.99644 0.0
H282 H 0.58378 0.2102 0.14021 0.0
C283 C 0.51086 0.13238 0.04615 0.0
C284 C 0.38609 0.52768 0.38616 0.0
C285 C 0.37233 0.54319 0.45046 0.0
H286 H 0.41365 0.53364 0.25773 0.0
C287 C 0.37889 0.57944 0.43537 0.0
H288 H 0.38169 0.49989 0.39635 0.0
C289 C 0.39628 0.59846 0.35357 0.0
C290 C 0.4073 0.58148 0.28578 0.0
H291 H 0.36822 0.59191 0.48329 0.0
H292 H 0.39902 0.62544 0.341 0.0
C293 C 0.40378 0.54675 0.30565 0.0
C294 C 0.78907 0.38019 0.76976 0.0
C295 C 0.81665 0.37033 0.78366 0.0
H296 H 0.76577 0.4036 0.67884 0.0
C297 C 0.84365 0.37864 0.71527 0.0
H298 H 0.76811 0.37447 0.82191 0.0
C299 C 0.84302 0.39644 0.63437 0.0
C300 C 0.81461 0.40511 0.6188 0.0
H301 H 0.86592 0.37243 0.72544 0.0
H302 H 0.86515 0.40376 0.58494 0.0
C303 C 0.78795 0.39721 0.68815 0.0
C304 C 0.40314 0.78879 0.08323 0.0
C305 C 0.44018 0.81642 0.10221 0.0
H306 H 0.35753 0.76756 0.98889 0.0
C307 C 0.45988 0.84469 0.03772 0.0
H308 H 0.38715 0.76685 0.13235 0.0
C309 C 0.44247 0.84565 0.95632 0.0
C310 C 0.40543 0.81787 0.93719 0.0
H311 H 0.48805 0.86692 0.05202 0.0
H312 H 0.45779 0.8687 0.90987 0.0
C313 C 0.386 0.78947 0.00164 0.0
C314 C 0.58166 0.44264 0.29625 0.0
C315 C 0.57212 0.40563 0.27692 0.0
H316 H 0.60657 0.48821 0.39179 0.0
C317 C 0.58092 0.38616 0.34146 0.0
H318 H 0.57402 0.45802 0.24995 0.0
C319 C 0.59897 0.40326 0.42306 0.0
C320 C 0.60884 0.44032 0.44195 0.0
H321 H 0.57411 0.35769 0.32873 0.0
H322 H 0.60483 0.38725 0.47215 0.0
C323 C 0.60032 0.46002 0.37755 0.0
C324 C 0.96485 0.47851 0.24986 0.0
C325 C 0.94487 0.46766 0.16701 0.0
H326 H 0.01826 0.50921 0.31442 0.0
C327 C 0.9646 0.47878 0.08365 0.0
H328 H 0.9505 0.46989 0.31522 0.0
C329 C 0.00358 0.49982 0.08318 0.0
C330 C 0.02352 0.51108 0.16607 0.0
H331 H 0.94998 0.47147 0.01865 0.0
H332 H 0.01805 0.50696 0.01783 0.0
C333 C 0.00374 0.50046 0.2494 0.0
C334 C 0.46381 0.00549 0.47312 0.0
C335 C 0.5029 0.02742 0.47481 0.0
H336 H 0.41642 0.95025 0.46933 0.0
C337 C 0.52463 0.01012 0.47196 0.0
H338 H 0.44657 0.01836 0.47458 0.0
C339 C 0.50747 0.97132 0.47163 0.0
C340 C 0.46836 0.94939 0.47249 0.0
H341 H 0.55487 0.0266 0.47079 0.0
H342 H 0.52469 0.95844 0.47202 0.0
C343 C 0.44665 0.96672 0.47107 0.0
C344 C 0.50214 0.5272 0.81177 0.0
C345 C 0.46295 0.50621 0.81272 0.0
H346 H 0.55343 0.52604 0.81404 0.0
C347 C 0.4451 0.46722 0.81018 0.0
H348 H 0.51645 0.55735 0.81089 0.0
C349 C 0.46617 0.44942 0.80898 0.0
C350 C 0.50533 0.47037 0.81209 0.0
H351 H 0.41487 0.45055 0.80994 0.0
H352 H 0.45187 0.41928 0.80615 0.0
C353 C 0.5232 0.50938 0.8124 0.0
loop_
_geom_bond_atom_site_label_1
_geom_bond_atom_site_label_2
_geom_bond_distance
_geom_bond_site_symmetry_2
_ccdc_geom_bond_type
Co0 O3 1.970 . S
Co0 N17 1.989 . S
Co0 O25 1.967 . S
Co0 O32 1.920 1_554 S
Co1 O4 1.966 . S
Co1 N10 2.022 . S
Co1 N18 1.993 . S
Co1 O26 1.941 . S
C2 O3 1.258 . S
C2 O4 1.263 . S
O3 Co0 1.970 . S
O3 C2 1.258 . S
O4 Co1 1.966 . S
O4 C2 1.263 . S
C5 O6 1.235 . S
C5 O32 1.289 . S
O6 C5 1.235 . S
C7 C9 1.400 . S
C7 N10 1.351 . S
C7 C12 1.501 . S
C8 C9 1.387 . S
C8 N11 1.341 . S
C9 C7 1.400 . S
C9 C8 1.387 . S
N10 Co1 2.022 . S
N10 C7 1.351 . S
N10 N11 1.365 . S
N11 C8 1.341 . S
N11 N10 1.365 . S
N11 H31 0.862 . S
C12 C7 1.501 . S
C12 H13 0.961 . S
C12 H14 0.961 . S
C12 H15 0.960 . S
H13 C12 0.961 . S
H14 C12 0.961 . S
H15 C12 0.960 . S
C16 N17 1.342 . S
C16 C20 1.401 . S
C16 C21 1.499 1_554 S
N17 Co0 1.989 . S
N17 C16 1.342 . S
N17 N18 1.388 . S
N18 Co1 1.993 . S
N18 N17 1.388 . S
N18 C19 1.346 . S
C19 N18 1.346 . S
C19 C20 1.396 . S
C19 C29 1.510 . S
C20 C16 1.401 . S
C20 C19 1.396 . S
C21 C16 1.499 1_556 S
C21 H22 0.959 . S
C21 H23 0.960 . S
C21 H24 0.961 . S
H22 C21 0.959 . S
H23 C21 0.960 . S
H24 C21 0.961 . S
O25 Co0 1.967 . S
O25 C33 1.258 . S
O26 Co1 1.941 . S
O26 C33 1.266 . S
H27 C29 0.959 . S
H28 C29 0.961 . S
C29 C19 1.510 . S
C29 H27 0.959 . S
C29 H28 0.961 . S
C29 H30 0.960 . S
H30 C29 0.960 . S
H31 N11 0.862 . S
O32 Co0 1.920 1_556 S
O32 C5 1.289 . S
C33 O25 1.258 . S
C33 O26 1.266 . S
Co34 O37 1.970 . S
Co34 N51 1.989 . S
Co34 O59 1.967 . S
Co34 O66 1.920 . S
Co35 O38 1.966 . S
Co35 N44 2.022 . S
Co35 N52 1.993 . S
Co35 O60 1.941 . S
C36 O37 1.258 . S
C36 O38 1.263 . S
O37 Co34 1.970 . S
O37 C36 1.258 . S
O38 Co35 1.966 . S
O38 C36 1.263 . S
C39 O40 1.235 . S
C39 O66 1.289 . S
O40 C39 1.235 . S
C41 C43 1.400 . S
C41 N44 1.351 . S
C41 C46 1.501 . S
C42 C43 1.387 . S
C42 N45 1.341 . S
C43 C41 1.400 . S
C43 C42 1.387 . S
N44 Co35 2.022 . S
N44 C41 1.351 . S
N44 N45 1.365 . S
N45 C42 1.341 . S
N45 N44 1.365 . S
N45 H65 0.862 . S
C46 C41 1.501 . S
C46 H47 0.961 . S
C46 H48 0.961 . S
C46 H49 0.960 . S
H47 C46 0.961 . S
H48 C46 0.961 . S
H49 C46 0.960 . S
C50 N51 1.342 . S
C50 C54 1.401 . S
C50 C55 1.499 . S
N51 Co34 1.989 . S
N51 C50 1.342 . S
N51 N52 1.388 . S
N52 Co35 1.993 . S
N52 N51 1.388 . S
N52 C53 1.346 . S
C53 N52 1.346 . S
C53 C54 1.396 . S
C53 C63 1.510 . S
C54 C50 1.401 . S
C54 C53 1.396 . S
C55 C50 1.499 . S
C55 H56 0.959 . S
C55 H57 0.960 . S
C55 H58 0.961 . S
H56 C55 0.959 . S
H57 C55 0.960 . S
H58 C55 0.961 . S
O59 Co34 1.967 . S
O59 C67 1.258 . S
O60 Co35 1.941 . S
O60 C67 1.266 . S
H61 C63 0.959 . S
H62 C63 0.961 . S
C63 C53 1.510 . S
C63 H61 0.959 . S
C63 H62 0.961 . S
C63 H64 0.960 . S
H64 C63 0.960 . S
H65 N45 0.862 . S
O66 Co34 1.920 . S
O66 C39 1.289 . S
C67 O59 1.258 . S
C67 O60 1.266 . S
Co68 O71 1.970 . S
Co68 N85 1.989 . S
Co68 O93 1.967 . S
Co68 O100 1.920 . S
Co69 O72 1.966 . S
Co69 N78 2.022 1_556 S
Co69 N86 1.993 . S
Co69 O94 1.941 . S
C70 O71 1.258 . S
C70 O72 1.263 . S
O71 Co68 1.970 . S
O71 C70 1.258 . S
O72 Co69 1.966 . S
O72 C70 1.263 . S
C73 O74 1.235 . S
C73 O100 1.289 . S
O74 C73 1.235 . S
C75 C77 1.400 . S
C75 N78 1.351 . S
C75 C80 1.501 . S
C76 C77 1.387 . S
C76 N79 1.341 . S
C77 C75 1.400 . S
C77 C76 1.387 . S
N78 Co69 2.022 1_554 S
N78 C75 1.351 . S
N78 N79 1.365 . S
N79 C76 1.341 . S
N79 N78 1.365 . S
N79 H99 0.862 . S
C80 C75 1.501 . S
C80 H81 0.961 . S
C80 H82 0.961 . S
C80 H83 0.960 . S
H81 C80 0.961 . S
H82 C80 0.961 . S
H83 C80 0.960 . S
C84 N85 1.342 . S
C84 C88 1.401 . S
C84 C89 1.499 . S
N85 Co68 1.989 . S
N85 C84 1.342 . S
N85 N86 1.388 . S
N86 Co69 1.993 . S
N86 N85 1.388 . S
N86 C87 1.346 . S
C87 N86 1.346 . S
C87 C88 1.396 . S
C87 C97 1.510 . S
C88 C84 1.401 . S
C88 C87 1.396 . S
C89 C84 1.499 . S
C89 H90 0.959 . S
C89 H91 0.960 . S
C89 H92 0.961 . S
H90 C89 0.959 . S
H91 C89 0.960 . S
H92 C89 0.961 . S
O93 Co68 1.967 . S
O93 C101 1.258 . S
O94 Co69 1.941 . S
O94 C101 1.266 . S
H95 C97 0.959 . S
H96 C97 0.961 1_554 S
C97 C87 1.510 . S
C97 H95 0.959 . S
C97 H96 0.961 1_556 S
C97 H98 0.960 1_556 S
H98 C97 0.960 1_554 S
H99 N79 0.862 . S
O100 Co68 1.920 . S
O100 C73 1.289 . S
C101 O93 1.258 . S
C101 O94 1.266 . S
Co102 O105 1.970 . S
Co102 N119 1.989 . S
Co102 O127 1.967 . S
Co102 O134 1.920 1_554 S
Co103 O106 1.966 . S
Co103 N112 2.022 . S
Co103 N120 1.993 . S
Co103 O128 1.941 . S
C104 O105 1.258 . S
C104 O106 1.263 . S
O105 Co102 1.970 . S
O105 C104 1.258 . S
O106 Co103 1.966 . S
O106 C104 1.263 . S
C107 O108 1.235 . S
C107 O134 1.289 . S
O108 C107 1.235 . S
C109 C111 1.400 . S
C109 N112 1.351 . S
C109 C114 1.501 . S
C110 C111 1.387 . S
C110 N113 1.341 . S
C111 C109 1.400 . S
C111 C110 1.387 . S
N112 Co103 2.022 . S
N112 C109 1.351 . S
N112 N113 1.365 . S
N113 C110 1.341 . S
N113 N112 1.365 . S
N113 H133 0.862 . S
C114 C109 1.501 . S
C114 H115 0.961 . S
C114 H116 0.961 . S
C114 H117 0.960 . S
H115 C114 0.961 . S
H116 C114 0.961 . S
H117 C114 0.960 . S
C118 N119 1.342 . S
C118 C122 1.401 . S
C118 C123 1.499 1_554 S
N119 Co102 1.989 . S
N119 C118 1.342 . S
N119 N120 1.388 . S
N120 Co103 1.993 . S
N120 N119 1.388 . S
N120 C121 1.346 . S
C121 N120 1.346 . S
C121 C122 1.396 . S
C121 C131 1.510 . S
C122 C118 1.401 . S
C122 C121 1.396 . S
C123 C118 1.499 1_556 S
C123 H124 0.959 . S
C123 H125 0.960 . S
C123 H126 0.961 . S
H124 C123 0.959 . S
H125 C123 0.960 . S
H126 C123 0.961 . S
O127 Co102 1.967 . S
O127 C135 1.258 . S
O128 Co103 1.941 . S
O128 C135 1.266 . S
H129 C131 0.959 . S
H130 C131 0.961 . S
C131 C121 1.510 . S
C131 H129 0.959 . S
C131 H130 0.961 . S
C131 H132 0.960 . S
H132 C131 0.960 . S
H133 N113 0.862 . S
O134 Co102 1.920 1_556 S
O134 C107 1.289 . S
C135 O127 1.258 . S
C135 O128 1.266 . S
Co136 O139 1.970 . S
Co136 N153 1.989 . S
Co136 O161 1.967 . S
Co136 O168 1.920 . S
Co137 O140 1.966 . S
Co137 N146 2.022 . S
Co137 N154 1.993 . S
Co137 O162 1.941 . S
C138 O139 1.258 . S
C138 O140 1.263 . S
O139 Co136 1.970 . S
O139 C138 1.258 . S
O140 Co137 1.966 . S
O140 C138 1.263 . S
C141 O142 1.235 . S
C141 O168 1.289 . S
O142 C141 1.235 . S
C143 C145 1.400 . S
C143 N146 1.351 . S
C143 C148 1.501 . S
C144 C145 1.387 . S
C144 N147 1.341 . S
C145 C143 1.400 . S
C145 C144 1.387 . S
N146 Co137 2.022 . S
N146 C143 1.351 . S
N146 N147 1.365 . S
N147 C144 1.341 . S
N147 N146 1.365 . S
N147 H167 0.862 . S
C148 C143 1.501 . S
C148 H149 0.961 . S
C148 H150 0.961 . S
C148 H151 0.960 . S
H149 C148 0.961 . S
H150 C148 0.961 . S
H151 C148 0.960 . S
C152 N153 1.342 . S
C152 C156 1.401 . S
C152 C157 1.499 . S
N153 Co136 1.989 . S
N153 C152 1.342 . S
N153 N154 1.388 . S
N154 Co137 1.993 . S
N154 N153 1.388 . S
N154 C155 1.346 . S
C155 N154 1.346 . S
C155 C156 1.396 . S
C155 C165 1.510 . S
C156 C152 1.401 . S
C156 C155 1.396 . S
C157 C152 1.499 . S
C157 H158 0.959 . S
C157 H159 0.960 . S
C157 H160 0.961 . S
H158 C157 0.959 . S
H159 C157 0.960 . S
H160 C157 0.961 . S
O161 Co136 1.967 . S
O161 C169 1.258 . S
O162 Co137 1.941 . S
O162 C169 1.266 . S
H163 C165 0.959 . S
H164 C165 0.961 . S
C165 C155 1.510 . S
C165 H163 0.959 . S
C165 H164 0.961 . S
C165 H166 0.960 . S
H166 C165 0.960 . S
H167 N147 0.862 . S
O168 Co136 1.920 . S
O168 C141 1.289 . S
C169 O161 1.258 . S
C169 O162 1.266 . S
Co170 O173 1.970 . S
Co170 N187 1.989 . S
Co170 O195 1.967 . S
Co170 O202 1.920 . S
Co171 O174 1.966 . S
Co171 N180 2.022 1_556 S
Co171 N188 1.993 . S
Co171 O196 1.941 . S
C172 O173 1.258 . S
C172 O174 1.263 . S
O173 Co170 1.970 . S
O173 C172 1.258 . S
O174 Co171 1.966 . S
O174 C172 1.263 . S
C175 O176 1.235 . S
C175 O202 1.289 . S
O176 C175 1.235 . S
C177 C179 1.400 . S
C177 N180 1.351 . S
C177 C182 1.501 . S
C178 C179 1.387 . S
C178 N181 1.341 . S
C179 C177 1.400 . S
C179 C178 1.387 . S
N180 Co171 2.022 1_554 S
N180 C177 1.351 . S
N180 N181 1.365 . S
N181 C178 1.341 . S
N181 N180 1.365 . S
N181 H201 0.862 . S
C182 C177 1.501 . S
C182 H183 0.961 . S
C182 H184 0.961 . S
C182 H185 0.960 . S
H183 C182 0.961 . S
H184 C182 0.961 . S
H185 C182 0.960 . S
C186 N187 1.342 . S
C186 C190 1.401 . S
C186 C191 1.499 . S
N187 Co170 1.989 . S
N187 C186 1.342 . S
N187 N188 1.388 . S
N188 Co171 1.993 . S
N188 N187 1.388 . S
N188 C189 1.346 . S
C189 N188 1.346 . S
C189 C190 1.396 . S
C189 C199 1.510 . S
C190 C186 1.401 . S
C190 C189 1.396 . S
C191 C186 1.499 . S
C191 H192 0.959 . S
C191 H193 0.960 . S
C191 H194 0.961 . S
H192 C191 0.959 . S
H193 C191 0.960 . S
H194 C191 0.961 . S
O195 Co170 1.967 . S
O195 C203 1.258 . S
O196 Co171 1.941 . S
O196 C203 1.266 . S
H197 C199 0.959 . S
H198 C199 0.961 1_554 S
C199 C189 1.510 . S
C199 H197 0.959 . S
C199 H198 0.961 1_556 S
C199 H200 0.960 1_556 S
H200 C199 0.960 1_554 S
H201 N181 0.862 . S
O202 Co170 1.920 . S
O202 C175 1.289 . S
C203 O195 1.258 . S
C203 O196 1.266 . S
C204 C205 1.387 . S
C204 H208 0.950 . S
C204 C213 1.390 1_554 S
C205 C204 1.387 . S
C205 C207 1.387 1_554 S
H206 C213 0.950 . S
C207 C205 1.387 1_556 S
C207 C209 1.390 . S
C207 H211 0.950 . S
H208 C204 0.950 . S
C209 C207 1.390 . S
C209 C210 1.387 . S
C209 H212 0.950 . S
C210 C209 1.387 . S
C210 C213 1.387 . S
H211 C207 0.950 . S
H212 C209 0.950 . S
C213 C204 1.390 1_556 S
C213 H206 0.950 . S
C213 C210 1.387 . S
C214 C215 1.387 . S
C214 H218 0.950 . S
C214 C223 1.390 . S
C215 C214 1.387 . S
C215 C217 1.387 . S
H216 C223 0.950 . S
C217 C215 1.387 . S
C217 C219 1.390 . S
C217 H221 0.950 . S
H218 C214 0.950 . S
C219 C217 1.390 . S
C219 C220 1.387 . S
C219 H222 0.950 . S
C220 C219 1.387 . S
C220 C223 1.387 . S
H221 C217 0.950 . S
H222 C219 0.950 . S
C223 C214 1.390 . S
C223 H216 0.950 . S
C223 C220 1.387 . S
C224 C225 1.387 . S
C224 H228 0.950 . S
C224 C233 1.390 . S
C225 C224 1.387 . S
C225 C227 1.387 . S
H226 C233 0.950 . S
C227 C225 1.387 . S
C227 C229 1.390 . S
C227 H231 0.950 . S
H228 C224 0.950 . S
C229 C227 1.390 . S
C229 C230 1.387 . S
C229 H232 0.950 . S
C230 C229 1.387 . S
C230 C233 1.387 . S
H231 C227 0.950 . S
H232 C229 0.950 . S
C233 C224 1.390 . S
C233 H226 0.950 . S
C233 C230 1.387 . S
C234 C235 1.387 . S
C234 H238 0.950 . S
C234 C243 1.390 . S
C235 C234 1.387 . S
C235 C237 1.387 . S
H236 C243 0.950 . S
C237 C235 1.387 . S
C237 C239 1.390 1_556 S
C237 H241 0.950 . S
H238 C234 0.950 . S
C239 C237 1.390 1_554 S
C239 C240 1.387 . S
C239 H242 0.950 . S
C240 C239 1.387 . S
C240 C243 1.387 1_554 S
H241 C237 0.950 . S
H242 C239 0.950 . S
C243 C234 1.390 . S
C243 H236 0.950 . S
C243 C240 1.387 1_556 S
C244 C245 1.387 . S
C244 H248 0.950 . S
C244 C253 1.390 . S
C245 C244 1.387 . S
C245 C247 1.387 . S
H246 C253 0.950 . S
C247 C245 1.387 . S
C247 C249 1.390 . S
C247 H251 0.950 . S
H248 C244 0.950 . S
C249 C247 1.390 . S
C249 C250 1.387 . S
C249 H252 0.950 . S
C250 C249 1.387 . S
C250 C253 1.387 . S
H251 C247 0.950 . S
H252 C249 0.950 . S
C253 C244 1.390 . S
C253 H246 0.950 . S
C253 C250 1.387 . S
C254 C255 1.387 . S
C254 H258 0.950 . S
C254 C263 1.390 . S
C255 C254 1.387 . S
C255 C257 1.387 . S
H256 C263 0.950 . S
C257 C255 1.387 . S
C257 C259 1.390 . S
C257 H261 0.950 . S
H258 C254 0.950 . S
C259 C257 1.390 . S
C259 C260 1.387 . S
C259 H262 0.950 . S
C260 C259 1.387 . S
C260 C263 1.387 . S
H261 C257 0.950 . S
H262 C259 0.950 . S
C263 C254 1.390 . S
C263 H256 0.950 . S
C263 C260 1.387 . S
C264 C265 1.387 . S
C264 H268 0.950 . S
C264 C273 1.390 . S
C265 C264 1.387 . S
C265 C267 1.387 . S
H266 C273 0.950 . S
C267 C265 1.387 . S
C267 C269 1.390 . S
C267 H271 0.950 . S
H268 C264 0.950 . S
C269 C267 1.390 . S
C269 C270 1.387 . S
C269 H272 0.950 . S
C270 C269 1.387 . S
C270 C273 1.387 . S
H271 C267 0.950 . S
H272 C269 0.950 . S
C273 C264 1.390 . S
C273 H266 0.950 . S
C273 C270 1.387 . S
C274 C275 1.387 1_554 S
C274 H278 0.950 1_554 S
C274 C283 1.390 . S
C275 C274 1.387 1_556 S
C275 C277 1.387 . S
H276 C283 0.950 . S
C277 C275 1.387 . S
C277 C279 1.390 1_556 S
C277 H281 0.950 . S
H278 C274 0.950 1_556 S
C279 C277 1.390 1_554 S
C279 C280 1.387 . S
C279 H282 0.950 . S
C280 C279 1.387 . S
C280 C283 1.387 . S
H281 C277 0.950 . S
H282 C279 0.950 . S
C283 C274 1.390 . S
C283 H276 0.950 . S
C283 C280 1.387 . S
C284 C285 1.387 . S
C284 H288 0.950 . S
C284 C293 1.390 . S
C285 C284 1.387 . S
C285 C287 1.387 . S
H286 C293 0.950 . S
C287 C285 1.387 . S
C287 C289 1.390 . S
C287 H291 0.950 . S
H288 C284 0.950 . S
C289 C287 1.390 . S
C289 C290 1.387 . S
C289 H292 0.950 . S
C290 C289 1.387 . S
C290 C293 1.387 . S
H291 C287 0.950 . S
H292 C289 0.950 . S
C293 C284 1.390 . S
C293 H286 0.950 . S
C293 C290 1.387 . S
C294 C295 1.387 . S
C294 H298 0.950 . S
C294 C303 1.390 . S
C295 C294 1.387 . S
C295 C297 1.387 . S
H296 C303 0.950 . S
C297 C295 1.387 . S
C297 C299 1.390 . S
C297 H301 0.950 . S
H298 C294 0.950 . S
C299 C297 1.390 . S
C299 C300 1.387 . S
C299 H302 0.950 . S
C300 C299 1.387 . S
C300 C303 1.387 . S
H301 C297 0.950 . S
H302 C299 0.950 . S
C303 C294 1.390 . S
C303 H296 0.950 . S
C303 C300 1.387 . S
C304 C305 1.387 . S
C304 H308 0.950 . S
C304 C313 1.390 1_554 S
C305 C304 1.387 . S
C305 C307 1.387 . S
H306 C313 0.950 . S
C307 C305 1.387 . S
C307 C309 1.389 . S
C307 H311 0.950 . S
H308 C304 0.950 . S
C309 C307 1.389 . S
C309 C310 1.388 1_554 S
C309 H312 0.950 1_554 S
C310 C309 1.388 1_556 S
C310 C313 1.387 . S
H311 C307 0.950 . S
H312 C309 0.950 1_556 S
C313 C304 1.390 1_556 S
C313 H306 0.950 . S
C313 C310 1.387 . S
C314 C315 1.387 . S
C314 H318 0.950 . S
C314 C323 1.390 . S
C315 C314 1.387 . S
C315 C317 1.387 . S
H316 C323 0.950 . S
C317 C315 1.387 . S
C317 C319 1.390 . S
C317 H321 0.950 . S
H318 C314 0.950 . S
C319 C317 1.390 . S
C319 C320 1.387 . S
C319 H322 0.950 . S
C320 C319 1.387 . S
C320 C323 1.387 . S
H321 C317 0.950 . S
H322 C319 0.950 . S
C323 C314 1.390 . S
C323 H316 0.950 . S
C323 C320 1.387 . S
C324 C325 1.387 . S
C324 H328 0.950 . S
C324 C333 1.390 1_655 S
C325 C324 1.387 . S
C325 C327 1.387 . S
H326 C333 0.950 . S
C327 C325 1.387 . S
C327 C329 1.390 1_655 S
C327 H331 0.950 . S
H328 C324 0.950 . S
C329 C327 1.390 1_455 S
C329 C330 1.387 . S
C329 H332 0.950 . S
C330 C329 1.387 . S
C330 C333 1.387 . S
H331 C327 0.950 . S
H332 C329 0.950 . S
C333 C324 1.390 1_455 S
C333 H326 0.950 . S
C333 C330 1.387 . S
C334 C335 1.387 . S
C334 H338 0.950 . S
C334 C343 1.390 1_545 S
C335 C334 1.387 . S
C335 C337 1.387 . S
H336 C343 0.950 . S
C337 C335 1.387 . S
C337 C339 1.390 1_545 S
C337 H341 0.950 . S
H338 C334 0.950 . S
C339 C337 1.390 1_565 S
C339 C340 1.387 . S
C339 H342 0.950 . S
C340 C339 1.387 . S
C340 C343 1.387 . S
H341 C337 0.950 . S
H342 C339 0.950 . S
C343 C334 1.390 1_565 S
C343 H336 0.950 . S
C343 C340 1.387 . S
C344 C345 1.387 . S
C344 H348 0.950 . S
C344 C353 1.390 . S
C345 C344 1.387 . S
C345 C347 1.387 . S
H346 C353 0.950 . S
C347 C345 1.387 . S
C347 C349 1.390 . S
C347 H351 0.950 . S
H348 C344 0.950 . S
C349 C347 1.390 . S
C349 C350 1.387 . S
C349 H352 0.950 . S
C350 C349 1.387 . S
C350 C353 1.387 . S
H351 C347 0.950 . S
H352 C349 0.950 . S
C353 C344 1.390 . S
C353 H346 0.950 . S
C353 C350 1.387 . S
C205 C33 1.679 . S
C210 C70 1.606 . S
C215 C67 1.677 . S
C220 C104 1.603 . S
C225 C138 1.605 . S
C230 C101 1.678 . S
C235 C172 1.602 . S
C240 C135 1.677 . S
C245 C169 1.679 . S
C250 C2 1.603 . S
C255 C36 1.602 . S
C260 C203 1.677 . S
C265 C5 1.483 . S
C270 C9 1.558 . S
C275 C43 1.558 . S
C280 C39 1.483 . S
C285 C73 1.483 . S
C290 C77 1.558 . S
C295 C107 1.485 . S
C300 C111 1.559 . S
C305 C141 1.486 . S
C310 C145 1.559 . S
C315 C179 1.558 . S
C320 C175 1.483 . S
C325 C122 1.568 . S
C330 C20 1.568 . S
C335 C54 1.570 . S
C340 C156 1.570 . S
C345 C88 1.569 . S
C350 C190 1.569 . S
