# Generated by pormake.
# Topology hjm, (4)-cn, num edge types: 1
# Building blocks:
#     Node 0, Type 0, BuildingBlock: QUQFOY_clean_sbu_3, # of connection points: 4
#     Node 1, Type 0, BuildingBlock: QUQFOY_clean_sbu_3, # of connection points: 4
#     Node 2, Type 0, BuildingBlock: QUQFOY_clean_sbu_3, # of connection points: 4
#     Node 3, Type 0, BuildingBlock: QUQFOY_clean_sbu_3, # of connection points: 4
#     Node 4, Type 0, BuildingBlock: QUQFOY_clean_sbu_3, # of connection points: 4
#     Node 5, Type 0, BuildingBlock: QUQFOY_clean_sbu_3, # of connection points: 4
#     Node 6, Type 0, BuildingBlock: QUQFOY_clean_sbu_3, # of connection points: 4
#     Node 7, Type 0, BuildingBlock: QUQFOY_clean_sbu_3, # of connection points: 4
#     Edge 8, Type (0, 0), BuildingBlock: MIFKUJ_clean_linker_0, # of connection points: 2
#     Edge 9, Type (0, 0), BuildingBlock: MIFKUJ_clean_linker_0, # of connection points: 2
#     Edge 10, Type (0, 0), BuildingBlock: MIFKUJ_clean_linker_0, # of connection points: 2
#     Edge 11, Type (0, 0), BuildingBlock: MIFKUJ_clean_linker_0, # of connection points: 2
#     Edge 12, Type (0, 0), BuildingBlock: MIFKUJ_clean_linker_0, # of connection points: 2
#     Edge 13, Type (0, 0), BuildingBlock: MIFKUJ_clean_linker_0, # of connection points: 2
#     Edge 14, Type (0, 0), BuildingBlock: MIFKUJ_clean_linker_0, # of connection points: 2
#     Edge 15, Type (0, 0), BuildingBlock: MIFKUJ_clean_linker_0, # of connection points: 2
#     Edge 16, Type (0, 0), BuildingBlock: MIFKUJ_clean_linker_0, # of connection points: 2
#     Edge 17, Type (0, 0), BuildingBlock: MIFKUJ_clean_linker_0, # of connection points: 2
#     Edge 18, Type (0, 0), BuildingBlock: MIFKUJ_clean_linker_0, # of connection points: 2
#     Edge 19, Type (0, 0), BuildingBlock: MIFKUJ_clean_linker_0, # of connection points: 2
#     Edge 20, Type (0, 0), BuildingBlock: MIFKUJ_clean_linker_0, # of connection points: 2
#     Edge 21, Type (0, 0), BuildingBlock: MIFKUJ_clean_linker_0, # of connection points: 2
#     Edge 22, Type (0, 0), BuildingBlock: MIFKUJ_clean_linker_0, # of connection points: 2
#     Edge 23, Type (0, 0), BuildingBlock: MIFKUJ_clean_linker_0, # of connection points: 2
# Relax obj value: 0.093
# Max RMSD: 0.137
# Mean RMSD: 0.137
data_MOF--net-hjm--node1-QUQFOY_clean_sbu_3--edge1-MIFKUJ_clean_linker_0
_symmetry_space_group_name_H-M    P1
_symmetry_Int_Tables_number       1
_symmetry_cell_setting            triclinic
loop_
_symmetry_equiv_pos_as_xyz
'x, y, z'
_cell_length_a     35.295714
_cell_length_b     30.347616
_cell_length_c     34.463308
_cell_angle_alpha  89.941922
_cell_angle_beta   59.417095
_cell_angle_gamma 90.010671
loop_
_atom_site_label
_atom_site_type_symbol
_atom_site_fract_x
_atom_site_fract_y
_atom_site_fract_z
_atom_type_partial_charge
C0 C 0.22804 0.32155 0.22345 0.0
O1 O 0.22687 0.35986 0.23879 0.0
Cd2 Cd 0.20844 0.37358 0.3143 0.0
O3 O 0.2211 0.28738 0.24782 0.0
Cd4 Cd 0.20547 0.27002 0.32524 0.0
C5 C 0.29725 0.32355 0.30925 0.0
O6 O 0.14779 0.32395 0.35627 0.0
O7 O 0.16257 0.29624 0.40453 0.0
O8 O 0.1688 0.20409 0.31903 0.0
C9 C 0.13719 0.31951 0.39699 0.0
O10 O 0.27685 0.35948 0.3137 0.0
C11 C 0.18093 0.17904 0.34021 0.0
O12 O 0.27964 0.28676 0.30978 0.0
O13 O 0.20585 0.19591 0.35277 0.0
C14 C 0.831 0.28141 0.24799 0.0
O15 O 0.83891 0.32011 0.23165 0.0
Cd16 Cd 0.85184 0.33873 0.15924 0.0
O17 O 0.82982 0.24869 0.22532 0.0
Cd18 Cd 0.84233 0.23585 0.148 0.0
C19 C 0.75488 0.30148 0.17101 0.0
O20 O 0.90517 0.28321 0.11676 0.0
O21 O 0.88851 0.26203 0.068 0.0
O22 O 0.87048 0.16353 0.15281 0.0
C23 C 0.91559 0.2815 0.07599 0.0
O24 O 0.77875 0.33459 0.16704 0.0
C25 C 0.85527 0.14332 0.1314 0.0
O26 O 0.76981 0.26255 0.16696 0.0
O27 O 0.83254 0.16583 0.11954 0.0
C28 C 0.89723 0.68716 0.65364 0.0
O29 O 0.91458 0.70373 0.67475 0.0
Cd30 Cd 0.89309 0.77227 0.71248 0.0
O31 O 0.86613 0.70704 0.65216 0.0
Cd32 Cd 0.82247 0.77587 0.68389 0.0
C33 C 0.91326 0.83799 0.62288 0.0
O34 O 0.81492 0.76352 0.75621 0.0
O35 O 0.79419 0.82815 0.74872 0.0
O36 O 0.76041 0.7322 0.69417 0.0
C37 C 0.79484 0.79876 0.77456 0.0
O38 O 0.9235 0.82715 0.65207 0.0
C39 C 0.74354 0.76198 0.68185 0.0
O40 O 0.87872 0.82254 0.62507 0.0
O41 O 0.7646 0.79803 0.66823 0.0
C42 C 0.15121 0.64568 0.81608 0.0
O43 O 0.13334 0.6593 0.79433 0.0
Cd44 Cd 0.14687 0.7297 0.75994 0.0
O45 O 0.17856 0.6698 0.82021 0.0
Cd46 Cd 0.21419 0.74313 0.79256 0.0
C47 C 0.1179 0.79656 0.85148 0.0
O48 O 0.22518 0.73325 0.71877 0.0
O49 O 0.23357 0.80028 0.73302 0.0
O50 O 0.28113 0.70742 0.779 0.0
C51 C 0.23781 0.77177 0.70419 0.0
O52 O 0.11075 0.78394 0.82054 0.0
C53 C 0.29421 0.73844 0.79394 0.0
O54 O 0.15213 0.78399 0.85183 0.0
O55 O 0.26883 0.77147 0.81057 0.0
C56 C 0.67584 0.79964 0.2364 0.0
O57 O 0.67276 0.83581 0.25625 0.0
Cd58 Cd 0.65778 0.84339 0.33086 0.0
O59 O 0.67092 0.76282 0.25651 0.0
Cd60 Cd 0.6563 0.73987 0.33301 0.0
C61 C 0.75014 0.79095 0.31433 0.0
O62 O 0.59849 0.79262 0.37148 0.0
O63 O 0.6204 0.76393 0.41357 0.0
O64 O 0.61282 0.67604 0.33422 0.0
C65 C 0.59206 0.78708 0.41064 0.0
O66 O 0.7289 0.82699 0.32328 0.0
C67 C 0.63006 0.64917 0.34908 0.0
O68 O 0.73216 0.75482 0.31361 0.0
O69 O 0.66125 0.66389 0.35362 0.0
C70 C 0.27417 0.79407 0.27442 0.0
O71 O 0.27813 0.83063 0.25478 0.0
Cd72 Cd 0.29669 0.83933 0.17904 0.0
O73 O 0.27965 0.75759 0.25368 0.0
Cd74 Cd 0.29684 0.73512 0.1765 0.0
C75 C 0.20579 0.78748 0.19009 0.0
O76 O 0.35556 0.78757 0.14106 0.0
O77 O 0.33605 0.75974 0.09661 0.0
O78 O 0.33658 0.6699 0.17968 0.0
C79 C 0.36381 0.7821 0.10123 0.0
O80 O 0.2272 0.82329 0.18261 0.0
C81 C 0.32278 0.64467 0.16011 0.0
O82 O 0.22264 0.75098 0.19182 0.0
O83 O 0.29476 0.66078 0.15138 0.0
C84 C 0.35825 0.15149 0.68471 0.0
O85 O 0.37484 0.16924 0.706 0.0
Cd86 Cd 0.35374 0.23971 0.73959 0.0
O87 O 0.32783 0.17087 0.68152 0.0
Cd88 Cd 0.28326 0.23993 0.70999 0.0
C89 C 0.37337 0.30343 0.64825 0.0
O90 O 0.27527 0.23516 0.78287 0.0
O91 O 0.25871 0.29906 0.76858 0.0
O92 O 0.21537 0.19959 0.73361 0.0
C93 C 0.25833 0.27254 0.79727 0.0
O94 O 0.38413 0.29223 0.67697 0.0
C95 C 0.20344 0.22163 0.71043 0.0
O96 O 0.33849 0.28818 0.65093 0.0
O97 O 0.22929 0.25192 0.68556 0.0
C98 C 0.59847 0.15375 0.84081 0.0
O99 O 0.58035 0.17231 0.82132 0.0
Cd100 Cd 0.60402 0.23775 0.778 0.0
O101 O 0.63236 0.17062 0.8393 0.0
Cd102 Cd 0.67973 0.23687 0.80362 0.0
C103 C 0.59462 0.30874 0.85978 0.0
O104 O 0.68051 0.22331 0.73495 0.0
O105 O 0.71234 0.28383 0.73425 0.0
O106 O 0.74148 0.1909 0.79167 0.0
C107 C 0.70347 0.25586 0.71272 0.0
O108 O 0.58231 0.29729 0.83238 0.0
C109 C 0.76006 0.22021 0.80249 0.0
O110 O 0.6276 0.29036 0.8587 0.0
O111 O 0.73992 0.25667 0.81645 0.0
H112 H 0.13429 0.13097 0.31131 0.0
H113 H 0.09534 0.06147 0.34293 0.0
H114 H 0.14656 0.05724 0.43299 0.0
H115 H 0.18681 0.12547 0.40038 0.0
H116 H 0.14088 0.97666 0.40864 0.0
H117 H 0.04334 0.10508 0.46221 0.0
H118 H 0.00802 0.17049 0.45158 0.0
H119 H 0.95436 0.09026 0.3885 0.0
H120 H 0.9898 0.02444 0.39835 0.0
H121 H 0.98415 0.88385 0.61299 0.0
H122 H 0.03412 0.9309 0.55038 0.0
H123 H 0.96095 0.90492 0.4837 0.0
H124 H 0.90987 0.85833 0.54705 0.0
H125 H 0.9787 0.9902 0.48103 0.0
H126 H 0.06466 0.8594 0.44163 0.0
H127 H 0.09715 0.79414 0.45623 0.0
H128 H 0.17067 0.87765 0.49476 0.0
H129 H 0.13862 0.94353 0.48036 0.0
C130 C 0.13794 0.11469 0.3372 0.0
C131 C 0.16313 0.13395 0.3538 0.0
C132 C 0.11552 0.07508 0.35537 0.0
C133 C 0.11714 0.05467 0.39112 0.0
C134 C 0.14463 0.07241 0.40557 0.0
C135 C 0.16755 0.11156 0.38698 0.0
C136 C 0.08742 0.01745 0.41656 0.0
C137 C 0.10543 0.97959 0.42443 0.0
C138 C 0.04115 0.02053 0.43608 0.0
C139 C 0.01961 0.06001 0.43052 0.0
C140 C 0.0242 0.10147 0.44586 0.0
C141 C 0.00415 0.13859 0.43999 0.0
C142 C 0.97908 0.13456 0.41924 0.0
C143 C 0.97388 0.09335 0.40446 0.0
C144 C 0.99391 0.05614 0.41019 0.0
C145 C 0.97861 0.888 0.58504 0.0
C146 C 0.94296 0.8673 0.58509 0.0
C147 C 0.00751 0.91463 0.54901 0.0
C148 C 0.00186 0.92069 0.51187 0.0
C149 C 0.96611 0.90041 0.51186 0.0
C150 C 0.93691 0.87392 0.54816 0.0
C151 C 0.03209 0.95029 0.47452 0.0
C152 C 0.01418 0.98665 0.46432 0.0
C153 C 0.07837 0.94582 0.45294 0.0
C154 C 0.09904 0.90642 0.4601 0.0
C155 C 0.08773 0.86388 0.45323 0.0
C156 C 0.10609 0.82679 0.46144 0.0
C157 C 0.13577 0.83177 0.4766 0.0
C158 C 0.14754 0.87388 0.48315 0.0
C159 C 0.1295 0.91113 0.47468 0.0
H160 H 0.14967 0.80299 0.4832 0.0
H161 H 0.9636 0.16333 0.41472 0.0
H162 H 0.05767 0.84963 0.84768 0.0
H163 H 0.00732 0.90177 0.90457 0.0
H164 H 0.05521 0.86346 0.99247 0.0
H165 H 0.10662 0.8116 0.93513 0.0
H166 H 0.95857 0.87228 0.03509 0.0
H167 H 0.0923 0.94908 0.9448 0.0
H168 H 0.15735 0.97706 0.8761 0.0
H169 H 0.07399 0.04968 0.84205 0.0
H170 H 0.00815 0.02053 0.90953 0.0
H171 H 0.89613 0.08415 0.15809 0.0
H172 H 0.93092 0.01464 0.12071 0.0
H173 H 0.88049 0.03062 0.03096 0.0
H174 H 0.84481 0.0994 0.06859 0.0
H175 H 0.97976 0.0309 0.99462 0.0
H176 H 0.84559 0.951 0.08205 0.0
H177 H 0.78026 0.92182 0.14972 0.0
H178 H 0.86299 0.85802 0.19042 0.0
H179 H 0.92913 0.88679 0.12274 0.0
C180 C 0.0574 0.85206 0.87917 0.0
C181 C 0.08631 0.82673 0.88682 0.0
C182 C 0.02862 0.88185 0.9116 0.0
C183 C 0.02777 0.88644 0.95252 0.0
C184 C 0.05547 0.86024 0.96103 0.0
C185 C 0.08494 0.83093 0.92818 0.0
C186 C 0.99928 0.92031 0.98514 0.0
C187 C 0.96321 0.90702 0.02658 0.0
C188 C 0.00571 0.96552 0.97363 0.0
C189 C 0.04515 0.9819 0.93196 0.0
C190 C 0.0877 0.97019 0.92219 0.0
C191 C 0.12474 0.98632 0.88344 0.0
C192 C 0.11975 0.01477 0.85448 0.0
C193 C 0.07771 0.02715 0.86421 0.0
C194 C 0.04051 0.01074 0.90266 0.0
C195 C 0.89131 0.07214 0.13132 0.0
C196 C 0.86817 0.09745 0.11592 0.0
C197 C 0.91101 0.03237 0.11019 0.0
C198 C 0.90812 0.0177 0.07323 0.0
C199 C 0.8827 0.0414 0.05971 0.0
C200 C 0.86243 0.08071 0.08122 0.0
C201 C 0.93789 0.98278 0.04373 0.0
C202 C 0.97473 0.9961 0.00303 0.0
C203 C 0.93193 0.93777 0.05596 0.0
C204 C 0.89238 0.92177 0.09764 0.0
C205 C 0.84995 0.93139 0.10575 0.0
C206 C 0.81277 0.91459 0.14393 0.0
C207 C 0.81752 0.8882 0.17441 0.0
C208 C 0.85948 0.87847 0.16671 0.0
C209 C 0.89683 0.89492 0.12837 0.0
H210 H 0.7887 0.87518 0.20394 0.0
H211 H 0.14848 0.02748 0.82466 0.0
H212 H 0.35757 0.34316 0.58608 0.0
H213 H 0.40481 0.39577 0.52712 0.0
H214 H 0.5018 0.38511 0.56753 0.0
H215 H 0.45466 0.33348 0.62682 0.0
H216 H 0.48701 0.46813 0.55879 0.0
H217 H 0.51337 0.33691 0.47163 0.0
H218 H 0.4922 0.2723 0.44366 0.0
H219 H 0.44116 0.35722 0.38134 0.0
H220 H 0.46049 0.42243 0.41038 0.0
H221 H 0.65858 0.58664 0.38535 0.0
H222 H 0.61891 0.52078 0.42703 0.0
H223 H 0.51808 0.54607 0.39441 0.0
H224 H 0.55776 0.61201 0.35226 0.0
H225 H 0.5351 0.45488 0.39662 0.0
H226 H 0.50252 0.58446 0.48925 0.0
H227 H 0.52143 0.64956 0.51883 0.0
H228 H 0.58482 0.56642 0.56974 0.0
H229 H 0.56685 0.50084 0.53984 0.0
C230 C 0.38905 0.35189 0.58227 0.0
C231 C 0.40217 0.33424 0.61139 0.0
C232 C 0.41614 0.38179 0.54837 0.0
C233 C 0.45706 0.39419 0.54263 0.0
C234 C 0.47037 0.37615 0.57132 0.0
C235 C 0.44329 0.34658 0.60528 0.0
C236 C 0.48525 0.42761 0.5084 0.0
C237 C 0.49799 0.46476 0.52326 0.0
C238 C 0.4987 0.42389 0.4621 0.0
C239 C 0.48776 0.38465 0.44388 0.0
C240 C 0.49711 0.34188 0.45247 0.0
C241 C 0.48538 0.30512 0.43647 0.0
C242 C 0.46508 0.31065 0.41102 0.0
C243 C 0.45666 0.35298 0.4013 0.0
C244 C 0.46788 0.38987 0.41765 0.0
C245 C 0.62852 0.57768 0.38607 0.0
C246 C 0.61102 0.60491 0.366 0.0
C247 C 0.60586 0.54003 0.40998 0.0
C248 C 0.56519 0.52901 0.41444 0.0
C249 C 0.54935 0.55409 0.39146 0.0
C250 C 0.57204 0.59183 0.36748 0.0
C251 C 0.53704 0.4947 0.44722 0.0
C252 C 0.52416 0.45779 0.43217 0.0
C253 C 0.5233 0.49844 0.49347 0.0
C254 C 0.53373 0.53779 0.5119 0.0
C255 C 0.52078 0.58009 0.50646 0.0
C256 C 0.53129 0.61707 0.52332 0.0
C257 C 0.55442 0.61215 0.54605 0.0
C258 C 0.56697 0.5702 0.55207 0.0
C259 C 0.55661 0.53311 0.53519 0.0
H260 H 0.56253 0.64082 0.55907 0.0
H261 H 0.45609 0.28212 0.39863 0.0
H262 H 0.37729 0.59704 0.1795 0.0
H263 H 0.42031 0.53173 0.1395 0.0
H264 H 0.35934 0.53128 0.05809 0.0
H265 H 0.31492 0.59451 0.09934 0.0
H266 H 0.37227 0.4525 0.06982 0.0
H267 H 0.46174 0.58292 0.02727 0.0
H268 H 0.49709 0.64816 0.038 0.0
H269 H 0.5649 0.56524 0.08405 0.0
H270 H 0.52976 0.49953 0.07377 0.0
H271 H 0.53316 0.36462 0.86186 0.0
H272 H 0.48566 0.41557 0.92161 0.0
H273 H 0.54776 0.37894 -0.00291 0.0
H274 H 0.59646 0.32832 0.93662 0.0
H275 H 0.53418 0.46826 -0.00226 0.0
H276 H 0.44833 0.33554 0.02021 0.0
H277 H 0.41862 0.2784 0.99207 0.0
H278 H 0.34543 0.37655 0.9679 0.0
H279 H 0.37573 0.43448 0.99449 0.0
C280 C 0.37237 0.58227 0.15379 0.0
C281 C 0.343 0.60114 0.1423 0.0
C282 C 0.39724 0.54518 0.13068 0.0
C283 C 0.39402 0.52719 0.09486 0.0
C284 C 0.36267 0.54447 0.08541 0.0
C285 C 0.33723 0.58081 0.10906 0.0
C286 C 0.42495 0.49256 0.06497 0.0
C287 C 0.40767 0.45608 0.05405 0.0
C288 C 0.47128 0.49686 0.04445 0.0
C289 C 0.49232 0.53639 0.05077 0.0
C290 C 0.48381 0.57865 0.04016 0.0
C291 C 0.50393 0.6157 0.046 0.0
C292 C 0.533 0.61088 0.06198 0.0
C293 C 0.54219 0.56896 0.07192 0.0
C294 C 0.52215 0.53181 0.06613 0.0
C295 C 0.53697 0.36746 0.89102 0.0
C296 C 0.56839 0.34209 0.89463 0.0
C297 C 0.50959 0.39648 0.92529 0.0
C298 C 0.51241 0.40021 0.96431 0.0
C299 C 0.54477 0.37619 0.96742 0.0
C300 C 0.57259 0.34736 0.93283 0.0
C301 C 0.48143 0.42924 0.00171 0.0
C302 C 0.49875 0.46439 0.01421 0.0
C303 C 0.43518 0.42486 0.02208 0.0
C304 C 0.41479 0.38948 0.00888 0.0
C305 C 0.42611 0.345 0.00867 0.0
C306 C 0.40934 0.3125 0.99274 0.0
C307 C 0.38072 0.32399 0.97755 0.0
C308 C 0.36804 0.36782 0.97915 0.0
C309 C 0.38501 0.40049 0.99465 0.0
H310 H 0.36799 0.29884 0.96496 0.0
H311 H 0.54858 0.6396 0.06644 0.0
H312 H 0.93846 0.29942 0.98846 0.0
H313 H 0.99546 0.35118 0.93683 0.0
H314 H 0.03506 0.37242 0.03492 0.0
H315 H 0.97869 0.32115 0.0863 0.0
H316 H 0.01049 0.44765 0.01179 0.0
H317 H 0.10564 0.32788 0.94049 0.0
H318 H 0.13298 0.2567 0.90215 0.0
H319 H 0.12103 0.30235 0.79093 0.0
H320 H 0.09248 0.37369 0.82914 0.0
H321 H 0.16702 0.61138 0.88008 0.0
H322 H 0.14233 0.53998 0.91811 0.0
H323 H 0.08575 0.50868 0.8362 0.0
H324 H 0.11001 0.57973 0.79823 0.0
H325 H 0.12828 0.43564 0.85134 0.0
H326 H 0.022 0.55289 0.93372 0.0
H327 H 1.00002 0.62443 0.973 0.0
H328 H 0.03979 0.58062 0.06548 0.0
H329 H 0.06257 0.50897 0.02629 0.0
C330 C 0.95996 0.31446 -0.00147 0.0
C331 C 0.95359 0.30696 0.04169 0.0
C332 C 0.99263 0.34376 0.96896 0.0
C333 C 0.01924 0.36569 0.98227 0.0
C334 C 0.01474 0.35593 0.02414 0.0
C335 C 0.98233 0.32676 0.05351 0.0
C336 C 0.04689 0.40338 0.9559 0.0
C337 C 0.03674 0.44478 0.97691 0.0
C338 C 0.08098 0.39959 0.91041 0.0
C339 C 0.09635 0.3561 0.88802 0.0
C340 C 0.10815 0.32264 0.90819 0.0
C341 C 0.12407 0.28229 0.88637 0.0
C342 C 0.12883 0.27504 0.84411 0.0
C343 C 0.11733 0.30805 0.82369 0.0
C344 C 0.10121 0.34845 0.84546 0.0
C345 C 0.14983 0.58904 0.8698 0.0
C346 C 0.13986 0.60141 0.83667 0.0
C347 C 0.13591 0.54827 0.89142 0.0
C348 C 0.11215 0.51929 0.87995 0.0
C349 C 0.10422 0.53059 0.84531 0.0
C350 C 0.11771 0.5714 0.82402 0.0
C351 C 0.0911 0.47952 0.90717 0.0
C352 C 0.10231 0.43801 0.88636 0.0
C353 C 0.05832 0.48287 0.95314 0.0
C354 C 0.04448 0.52584 0.97676 0.0
C355 C 0.0264 0.55867 0.96219 0.0
C356 C 0.01374 0.59919 0.98448 0.0
C357 C 0.01864 0.60712 0.02162 0.0
C358 C 0.03611 0.57447 0.03663 0.0
C359 C 0.0489 0.5339 0.01441 0.0
H360 H 0.0088 0.63851 0.03884 0.0
H361 H 0.14154 0.24391 0.82715 0.0
H362 H 0.0669 0.35171 0.39476 0.0
H363 H 0.013 0.40496 0.44623 0.0
H364 H 0.072 0.40072 0.52932 0.0
H365 H 0.1255 0.34613 0.47835 0.0
H366 H 0.9815 0.41371 0.57996 0.0
H367 H 0.10687 0.47533 0.44785 0.0
H368 H 0.15893 0.48285 0.36621 0.0
H369 H 0.05279 0.51931 0.34576 0.0
H370 H 0.99997 0.51127 0.42725 0.0
H371 H 0.95236 0.63062 0.66223 0.0
H372 H 0.98057 0.56044 0.62423 0.0
H373 H 0.90689 0.57542 0.55647 0.0
H374 H 0.87823 0.64627 0.59454 0.0
H375 H 0.9969 0.55446 0.49937 0.0
H376 H 0.8713 0.49021 0.63109 0.0
H377 H 0.81998 0.48674 0.71329 0.0
H378 H 0.92808 0.46264 0.7343 0.0
H379 H 0.97995 0.46497 0.65204 0.0
C380 C 0.06785 0.36147 0.42449 0.0
C381 C 0.10084 0.34562 0.4322 0.0
C382 C 0.037 0.39176 0.45389 0.0
C383 C 0.03924 0.40746 0.49091 0.0
C384 C 0.06993 0.38909 0.50074 0.0
C385 C 0.10054 0.35813 0.47157 0.0
C386 C 0.01358 0.44679 0.51553 0.0
C387 C 0.98496 0.44445 0.56235 0.0
C388 C 0.01764 0.48683 0.49248 0.0
C389 C 0.04942 0.49223 0.44355 0.0
C390 C 0.0946 0.48465 0.42589 0.0
C391 C 0.12424 0.48903 0.37966 0.0
C392 C 0.10916 0.50143 0.3508 0.0
C393 C 0.06441 0.50962 0.36814 0.0
C394 C 0.03461 0.50516 0.41435 0.0
C395 C 0.94188 0.61903 0.63944 0.0
C396 C 0.91315 0.64409 0.63127 0.0
C397 C 0.95778 0.57872 0.61805 0.0
C398 C 0.9453 0.56262 0.5881 0.0
C399 C 0.91655 0.58732 0.57982 0.0
C400 C 0.90029 0.62768 0.60154 0.0
C401 C 0.96487 0.52128 0.5635 0.0
C402 C 0.99273 0.52339 0.51672 0.0
C403 C 0.96029 0.4813 0.58651 0.0
C404 C 0.92933 0.47754 0.63561 0.0
C405 C 0.88402 0.4838 0.65329 0.0
C406 C 0.85487 0.48195 0.69982 0.0
C407 C 0.87077 0.47423 0.72897 0.0
C408 C 0.91583 0.46823 0.71162 0.0
C409 C 0.94507 0.46949 0.66505 0.0
H410 H 0.8482 0.47306 0.765 0.0
H411 H 0.13216 0.50481 0.31501 0.0
H412 H 0.62249 0.10581 0.89273 0.0
H413 H 0.59067 0.0358 0.93141 0.0
H414 H 0.5032 0.03555 0.87835 0.0
H415 H 0.53381 0.10522 0.84069 0.0
H416 H 0.45954 0.02113 0.966 0.0
H417 H 0.59336 0.96584 0.83733 0.0
H418 H 0.67353 0.95865 0.7863 0.0
H419 H 0.68833 0.91851 0.89736 0.0
H420 H 0.60829 0.92579 0.94914 0.0
H421 H 0.36571 0.81191 0.02545 0.0
H422 H 0.41478 0.86891 0.97393 0.0
H423 H 0.4878 0.86945 0.04323 0.0
H424 H 0.43846 0.81317 0.09527 0.0
H425 H 0.54096 0.88247 0.94887 0.0
H426 H 0.40971 0.93835 0.07727 0.0
H427 H 0.32963 0.94326 0.12966 0.0
H428 H 0.31114 0.98362 0.02095 0.0
H429 H 0.3911 0.97803 0.9677 0.0
C430 C 0.59654 0.09072 0.8893 0.0
C431 C 0.58044 0.11128 0.86396 0.0
C432 C 0.57866 0.05061 0.9111 0.0
C433 C 0.54479 0.03043 0.90747 0.0
C434 C 0.52926 0.05063 0.88166 0.0
C435 C 0.54679 0.09059 0.86022 0.0
C436 C 0.52317 0.98969 0.93257 0.0
C437 C 0.4774 0.9907 0.96173 0.0
C438 C 0.54667 0.95041 0.92816 0.0
C439 C 0.59489 0.94684 0.89718 0.0
C440 C 0.61376 0.95589 0.85095 0.0
C441 C 0.65917 0.95165 0.82186 0.0
C442 C 0.68602 0.93815 0.83859 0.0
C443 C 0.66751 0.92889 0.88444 0.0
C444 C 0.62213 0.93307 0.91366 0.0
C445 C 0.39288 0.82343 0.02894 0.0
C446 C 0.39799 0.80889 0.06465 0.0
C447 C 0.4208 0.85591 -0.0004 0.0
C448 C 0.45437 0.87361 0.00536 0.0
C449 C 0.46194 0.85621 0.03844 0.0
C450 C 0.43365 0.82432 0.0682 0.0
C451 C 0.47765 0.91394 0.98106 0.0
C452 C 0.52346 0.91298 0.95273 0.0
C453 C 0.45439 0.9535 0.98638 0.0
C454 C 0.40633 0.95726 0.0184 0.0
C455 C 0.38853 0.94786 0.06445 0.0
C456 C 0.34317 0.95082 0.09432 0.0
C457 C 0.3153 0.96363 0.07862 0.0
C458 C 0.33276 0.9736 0.03304 0.0
C459 C 0.3781 0.97053 0.00299 0.0
H460 H 0.28019 0.96593 0.1018 0.0
H461 H 0.72115 0.9348 0.81601 0.0
H462 H 0.58721 0.80735 0.49057 0.0
H463 H 0.53781 0.86147 0.54643 0.0
H464 H 0.47161 0.87936 0.47123 0.0
H465 H 0.52106 0.82631 0.41538 0.0
H466 H 0.50137 0.95519 0.48302 0.0
H467 H 0.41843 0.83327 0.57635 0.0
H468 H 0.40578 0.76368 0.6182 0.0
H469 H 0.45248 0.82306 0.69916 0.0
H470 H 0.46597 0.89287 0.65738 0.0
H471 H 0.34051 0.10821 0.62599 0.0
H472 H 0.3724 0.03867 0.58703 0.0
H473 H 0.44543 0.02738 0.65582 0.0
H474 H 0.41378 0.09661 0.69496 0.0
H475 H 0.41015 0.94703 0.64971 0.0
H476 H 0.49616 0.06721 0.55407 0.0
H477 H 0.50865 0.13705 0.5126 0.0
H478 H 0.45674 0.07986 0.43531 0.0
H479 H 0.44335 0.00982 0.47682 0.0
C480 C 0.56148 0.82223 0.48667 0.0
C481 C 0.55837 0.81332 0.44841 0.0
C482 C 0.53321 0.85296 0.51858 0.0
C483 C 0.50122 0.8746 0.51276 0.0
C484 C 0.49628 0.86331 0.47614 0.0
C485 C 0.52461 0.83304 0.44425 0.0
C486 C 0.47657 0.91272 0.54117 0.0
C487 C 0.48077 0.95311 0.51942 0.0
C488 C 0.45093 0.91035 0.58872 0.0
C489 C 0.44362 0.86819 0.61341 0.0
C490 C 0.42645 0.83136 0.60274 0.0
C491 C 0.41902 0.7919 0.62654 0.0
C492 C 0.42842 0.78892 0.66123 0.0
C493 C 0.44526 0.82539 0.67224 0.0
C494 C 0.45278 0.86493 0.64853 0.0
C495 C 0.36303 0.09074 0.63314 0.0
C496 C 0.37499 0.10818 0.66317 0.0
C497 C 0.38118 0.05106 0.61089 0.0
C498 C 0.41147 0.02821 0.61839 0.0
C499 C 0.42207 0.04456 0.64968 0.0
C500 C 0.40417 0.0843 0.67172 0.0
C501 C 0.43448 0.98894 0.59131 0.0
C502 C 0.4304 0.9487 0.61327 0.0
C503 C 0.4604 0.99129 0.54383 0.0
C504 C 0.46828 0.03344 0.51892 0.0
C505 C 0.48702 0.06966 0.52854 0.0
C506 C 0.49434 0.10925 0.50496 0.0
C507 C 0.48338 0.11294 0.47142 0.0
C508 C 0.46514 0.07699 0.46135 0.0
C509 C 0.45769 0.03733 0.48488 0.0
H510 H 0.48914 0.1436 0.45316 0.0
H511 H 0.42255 0.75836 0.67959 0.0
H512 H 0.24525 0.8634 0.33266 0.0
H513 H 0.23647 0.86674 0.40734 0.0
H514 H 0.27435 0.73006 0.39669 0.0
H515 H 0.2826 0.72624 0.32191 0.0
H516 H 0.20846 0.74627 0.47765 0.0
H517 H 0.34744 0.81961 0.37732 0.0
H518 H 0.39388 0.87575 0.3213 0.0
H519 H 0.31625 0.9786 0.41294 0.0
H520 H 0.26906 0.92302 0.46931 0.0
H521 H 0.27424 0.71838 0.63192 0.0
H522 H 0.27935 0.73093 0.55956 0.0
H523 H 0.22838 0.8625 0.601 0.0
H524 H 0.22422 0.85035 0.67368 0.0
H525 H 0.29246 0.85704 0.50975 0.0
H526 H 0.15852 0.78488 0.61307 0.0
H527 H 0.11219 0.72951 0.67005 0.0
H528 H 0.17785 0.62596 0.5739 0.0
H529 H 0.22512 0.68067 0.51653 0.0
C530 C 0.2515 0.83392 0.34627 0.0
C531 C 0.26507 0.79461 0.3212 0.0
C532 C 0.24655 0.83596 0.38898 0.0
C533 C 0.25549 0.7989 0.4073 0.0
C534 C 0.26745 0.75914 0.38308 0.0
C535 C 0.27213 0.75697 0.34038 0.0
C536 C 0.25298 0.80143 0.45145 0.0
C537 C 0.22712 0.77027 0.48448 0.0
C538 C 0.27596 0.83388 0.46104 0.0
C539 C 0.30457 0.86721 0.42733 0.0
C540 C 0.34017 0.85421 0.3854 0.0
C541 C 0.36663 0.88591 0.35361 0.0
C542 C 0.35796 0.93071 0.36352 0.0
C543 C 0.3229 0.9439 0.40529 0.0
C544 C 0.29633 0.91232 0.43719 0.0
C545 C 0.26492 0.75031 0.62528 0.0
C546 C 0.24825 0.78324 0.65841 0.0
C547 C 0.26773 0.75736 0.58406 0.0
C548 C 0.25305 0.79715 0.5756 0.0
C549 C 0.23944 0.83142 0.60725 0.0
C550 C 0.23715 0.82454 0.64858 0.0
C551 C 0.24913 0.80099 0.53508 0.0
C552 C 0.27347 0.83341 0.50297 0.0
C553 C 0.22445 0.76993 0.52638 0.0
C554 C 0.19556 0.7369 0.56057 0.0
C555 C 0.16326 0.75029 0.60414 0.0
C556 C 0.13683 0.71902 0.63651 0.0
C557 C 0.14212 0.67424 0.62562 0.0
C558 C 0.1738 0.66066 0.58229 0.0
C559 C 0.20039 0.69179 0.54981 0.0
H560 H 0.12163 0.65008 0.65073 0.0
H561 H 0.37847 0.9552 0.33885 0.0
H562 H 0.76375 0.73484 0.83765 0.0
H563 H 0.73621 0.74218 0.91817 0.0
H564 H 0.75517 0.88289 0.90255 0.0
H565 H 0.7817 0.87589 0.82143 0.0
H566 H 0.79701 0.83335 0.94636 0.0
H567 H 0.65907 0.85397 0.95412 0.0
H568 H 0.60005 0.83613 0.93855 0.0
H569 H 0.57576 0.71404 0.01044 0.0
H570 H 0.63597 0.73023 0.02486 0.0
H571 H 0.70559 0.86993 0.17948 0.0
H572 H 0.72093 0.87377 0.10224 0.0
H573 H 0.68375 0.73731 0.10903 0.0
H574 H 0.6681 0.73307 0.18696 0.0
H575 H 0.64823 0.7908 0.07019 0.0
H576 H 0.78676 0.76186 0.05565 0.0
H577 H 0.84856 0.77161 0.0689 0.0
H578 H 0.87445 0.89982 0.00786 0.0
H579 H 0.81181 0.89144 0.99544 0.0
C580 C 0.76157 0.76745 0.85142 0.0
C581 C 0.77508 0.80481 0.82344 0.0
C582 C 0.74567 0.77156 0.89738 0.0
C583 C 0.74363 0.81302 0.91607 0.0
C584 C 0.75643 0.85065 0.88849 0.0
C585 C 0.77144 0.84665 0.8424 0.0
C586 C 0.73106 0.81589 0.96387 0.0
C587 C 0.76421 0.82519 0.97366 0.0
C588 C 0.68874 0.80314 -0.00113 0.0
C589 C 0.65245 0.79319 0.9902 0.0
C590 C 0.64158 0.82305 0.96612 0.0
C591 C 0.60777 0.81329 0.95762 0.0
C592 C 0.584 0.7741 0.97367 0.0
C593 C 0.59417 0.74443 -0.00195 0.0
C594 C 0.62824 0.75384 0.0063 0.0
C595 C 0.70051 0.84066 0.16472 0.0
C596 C 0.68559 0.80112 0.18936 0.0
C597 C 0.70942 0.84296 0.1205 0.0
C598 C 0.70358 0.80582 0.1 0.0
C599 C 0.68832 0.76635 0.12446 0.0
C600 C 0.67968 0.76389 0.16878 0.0
C601 C 0.71419 0.8083 0.05268 0.0
C602 C 0.68082 0.79971 0.04299 0.0
C603 C 0.75659 0.82075 0.01755 0.0
C604 C 0.79413 0.82626 0.02519 0.0
C605 C 0.80519 0.79241 0.04561 0.0
C606 C 0.84039 0.79766 0.05293 0.0
C607 C 0.86525 0.83634 0.03939 0.0
C608 C 0.855 0.86992 0.01846 0.0
C609 C 0.81957 0.86499 0.01137 0.0
H610 H 0.89248 0.84015 0.04505 0.0
H611 H 0.5577 0.76673 0.96719 0.0
H612 H 0.85508 0.33584 0.29434 0.0
H613 H 0.83786 0.32819 0.37213 0.0
H614 H 0.7715 0.20527 0.38368 0.0
H615 H 0.78905 0.21241 0.30531 0.0
H616 H 0.72108 0.26717 0.4511 0.0
H617 H 0.86294 0.20015 0.38403 0.0
H618 H 0.94299 0.19239 0.33295 0.0
H619 H 0.9653 0.30953 0.38831 0.0
H620 H 0.88529 0.31829 0.43941 0.0
H621 H 0.68249 0.20211 0.66375 0.0
H622 H 0.70658 0.20735 0.58413 0.0
H623 H 0.77952 0.3255 0.57298 0.0
H624 H 0.75581 0.32015 0.65337 0.0
H625 H 0.82741 0.26646 0.50499 0.0
H626 H 0.68464 0.33271 0.57284 0.0
H627 H 0.60458 0.3385 0.62499 0.0
H628 H 0.58388 0.22161 0.56808 0.0
H629 H 0.6639 0.21473 0.516 0.0
C630 C 0.83715 0.30694 0.31326 0.0
C631 C 0.82308 0.27484 0.29392 0.0
C632 C 0.82766 0.3025 0.35755 0.0
C633 C 0.80365 0.2661 0.38337 0.0
C634 C 0.79025 0.2335 0.36401 0.0
C635 C 0.8003 0.2376 0.31937 0.0
C636 C 0.78946 0.26427 0.43164 0.0
C637 C 0.74424 0.26627 0.46299 0.0
C638 C 0.81995 0.26462 0.44674 0.0
C639 C 0.86804 0.26017 0.41519 0.0
C640 C 0.88486 0.22458 0.38493 0.0
C641 C 0.93025 0.21991 0.35607 0.0
C642 C 0.9592 0.25053 0.35727 0.0
C643 C 0.94282 0.28588 0.38735 0.0
C644 C 0.89746 0.29069 0.4163 0.0
C645 C 0.70348 0.22942 0.64456 0.0
C646 C 0.71719 0.26086 0.66481 0.0
C647 C 0.71705 0.23242 0.59906 0.0
C648 C 0.74432 0.26709 0.57291 0.0
C649 C 0.75826 0.2986 0.59283 0.0
C650 C 0.74462 0.29562 0.63863 0.0
C651 C 0.759 0.26928 0.52447 0.0
C652 C 0.80426 0.26745 0.49309 0.0
C653 C 0.72854 0.26907 0.50927 0.0
C654 C 0.68036 0.273 0.54076 0.0
C655 C 0.66307 0.308 0.57171 0.0
C656 C 0.61767 0.31153 0.60121 0.0
C657 C 0.58917 0.28039 0.59991 0.0
C658 C 0.606 0.24568 0.56907 0.0
C659 C 0.65138 0.24198 0.53953 0.0
H660 H 0.55403 0.28322 0.62274 0.0
H661 H 0.99433 0.24679 0.33498 0.0
H662 H 0.20093 0.25439 0.19096 0.0
H663 H 0.20623 0.25037 0.11755 0.0
H664 H 0.27642 0.37411 0.07921 0.0
H665 H 0.26952 0.37921 0.15338 0.0
H666 H 0.21405 0.37334 0.05825 0.0
H667 H 0.32235 0.2716 0.04778 0.0
H668 H 0.35381 0.20718 0.06432 0.0
H669 H 0.27557 0.12112 0.03434 0.0
H670 H 0.24336 0.18513 0.01767 0.0
H671 H 0.27476 0.3509 0.82523 0.0
H672 H 0.26935 0.36438 0.89813 0.0
H673 H 0.20884 0.23669 0.94493 0.0
H674 H 0.21659 0.22243 0.87164 0.0
H675 H 0.27331 0.24328 0.95814 0.0
H676 H 0.15213 0.33853 0.98811 0.0
H677 H 0.11507 0.39972 0.97384 0.0
H678 H 0.20825 0.49135 0.97254 0.0
H679 H 0.24611 0.43058 0.98683 0.0
C680 C 0.21787 0.28049 0.1667 0.0
C681 C 0.23488 0.31707 0.17776 0.0
C682 C 0.22087 0.27818 0.1248 0.0
C683 C 0.24206 0.31176 0.09279 0.0
C684 C 0.2598 0.34793 0.1035 0.0
C685 C 0.25603 0.35069 0.14573 0.0
C686 C 0.24475 0.3097 0.04857 0.0
C687 C 0.22753 0.34509 0.03605 0.0
C688 C 0.26139 0.27228 0.02026 0.0
C689 C 0.28055 0.23359 0.03102 0.0
C690 C 0.31185 0.2391 0.04445 0.0
C691 C 0.32979 0.20253 0.05401 0.0
C692 C 0.31679 0.16005 0.05029 0.0
C693 C 0.28573 0.15407 0.03708 0.0
C694 C 0.26769 0.19055 0.02746 0.0
C695 C 0.25936 0.32635 0.85163 0.0
C696 C 0.24627 0.28559 0.84311 0.0
C697 C 0.25625 0.334 0.89322 0.0
C698 C 0.23893 0.30139 0.927 0.0
C699 C 0.2229 0.26207 0.91926 0.0
C700 C 0.22706 0.25404 0.87755 0.0
C701 C 0.24083 0.30596 0.96884 0.0
C702 C 0.25964 0.27136 0.98052 0.0
C703 C 0.22465 0.34341 -0.00303 0.0
C704 C 0.20223 0.37995 0.98804 0.0
C705 C 0.16496 0.37167 0.98442 0.0
C706 C 0.14375 0.40629 0.9764 0.0
C707 C 0.15937 0.44937 0.97199 0.0
C708 C 0.19622 0.45795 0.97584 0.0
C709 C 0.21753 0.42345 0.98402 0.0
H710 H 0.14282 0.47607 0.96579 0.0
H711 H 0.33071 0.13177 0.05772 0.0
H712 H 0.34648 0.39611 0.30261 0.0
H713 H 0.42355 0.39801 0.2827 0.0
H714 H 0.42877 0.25609 0.27547 0.0
H715 H 0.35163 0.25374 0.29593 0.0
H716 H 0.47005 0.28846 0.31788 0.0
H717 H 0.47078 0.31826 0.17831 0.0
H718 H 0.44763 0.35975 0.1322 0.0
H719 H 0.49742 0.47937 0.15625 0.0
H720 H 0.52103 0.43852 0.2023 0.0
H721 H 0.69366 0.23818 0.18644 0.0
H722 H 0.6157 0.24841 0.21306 0.0
H723 H 0.63194 0.38935 0.21163 0.0
H724 H 0.7104 0.37952 0.1846 0.0
H725 H 0.57928 0.36578 0.17819 0.0
H726 H 0.58633 0.33729 0.30969 0.0
H727 H 0.60797 0.29908 0.35859 0.0
H728 H 0.54062 0.18232 0.35591 0.0
H729 H 0.51931 0.21956 0.30619 0.0
C730 C 0.36387 0.36524 0.29714 0.0
C731 C 0.34289 0.32475 0.3006 0.0
C732 C 0.408 0.36644 0.28554 0.0
C733 C 0.43205 0.32723 0.27692 0.0
C734 C 0.41083 0.28675 0.28182 0.0
C735 C 0.36673 0.28549 0.29346 0.0
C736 C 0.47957 0.32813 0.26183 0.0
C737 C 0.49401 0.30506 0.28719 0.0
C738 C 0.51057 0.3511 0.22258 0.0
C739 C 0.49737 0.37542 0.19397 0.0
C740 C 0.47673 0.35342 0.17377 0.0
C741 C 0.46362 0.3768 0.14757 0.0
C742 C 0.47103 0.42217 0.1413 0.0
C743 C 0.49182 0.4442 0.16099 0.0
C744 C 0.5052 0.42094 0.18702 0.0
C745 C 0.68088 0.27143 0.19143 0.0
C746 C 0.70834 0.30802 0.18359 0.0
C747 C 0.63618 0.27719 0.2069 0.0
C748 C 0.61789 0.31961 0.21504 0.0
C749 C 0.64538 0.35633 0.20578 0.0
C750 C 0.6902 0.3506 0.19036 0.0
C751 C 0.56991 0.32516 0.23375 0.0
C752 C 0.55536 0.34951 0.20915 0.0
C753 C 0.53869 0.30383 0.27408 0.0
C754 C 0.55172 0.28107 0.30369 0.0
C755 C 0.57664 0.30328 0.319 0.0
C756 C 0.58882 0.2818 0.3469 0.0
C757 C 0.57594 0.2382 0.36009 0.0
C758 C 0.55075 0.21603 0.34549 0.0
C759 C 0.53862 0.23731 0.31743 0.0
H760 H 0.58523 0.22169 0.38186 0.0
H761 H 0.46063 0.44023 0.12124 0.0
H762 H 0.6884 0.69186 0.71897 0.0
H763 H 0.61222 0.68585 0.73685 0.0
H764 H 0.62224 0.81286 0.67607 0.0
H765 H 0.69873 0.81934 0.65814 0.0
H766 H 0.54512 0.74399 0.79262 0.0
H767 H 0.55172 0.80933 0.6338 0.0
H768 H 0.60295 0.81414 0.55181 0.0
H769 H 0.6667 0.69511 0.55578 0.0
H770 H 0.61602 0.68984 0.63797 0.0
H771 H 0.33305 0.80068 0.82013 0.0
H772 H 0.40974 0.80198 0.80245 0.0
H773 H 0.43235 0.67611 0.73633 0.0
H774 H 0.35606 0.67425 0.75404 0.0
H775 H 0.49303 0.74365 0.68341 0.0
H776 H 0.42686 0.67793 0.83177 0.0
H777 H 0.37568 0.67438 0.91389 0.0
H778 H 0.43005 0.79425 0.93106 0.0
H779 H 0.48094 0.79901 0.84905 0.0
C780 C 0.67468 0.71829 0.70878 0.0
C781 C 0.69954 0.75617 0.68726 0.0
C782 C 0.63109 0.71485 0.71922 0.0
C783 C 0.61167 0.74893 0.70788 0.0
C784 C 0.63679 0.7861 0.68487 0.0
C785 C 0.68043 0.78974 0.67467 0.0
C786 C 0.56444 0.74638 0.72242 0.0
C787 C 0.53366 0.74406 0.76878 0.0
C788 C 0.54962 0.7467 0.6913 0.0
C789 C 0.58039 0.74945 0.64202 0.0
C790 C 0.57668 0.78419 0.61715 0.0
C791 C 0.6056 0.78698 0.57064 0.0
C792 C 0.63802 0.75489 0.54853 0.0
C793 C 0.64166 0.72001 0.57296 0.0
C794 C 0.61299 0.71722 0.61954 0.0
C795 C 0.35418 0.77297 0.80249 0.0
C796 C 0.33855 0.73741 0.78839 0.0
C797 C 0.39789 0.77378 0.79244 0.0
C798 C 0.42651 0.73918 0.76802 0.0
C799 C 0.41066 0.70312 0.75513 0.0
C800 C 0.36703 0.70211 0.76542 0.0
C801 C 0.47366 0.74146 0.75361 0.0
C802 C 0.50441 0.74394 0.7073 0.0
C803 C 0.48835 0.74174 0.78484 0.0
C804 C 0.45737 0.73909 0.83417 0.0
C805 C 0.42753 0.70383 0.853 0.0
C806 C 0.39862 0.70156 0.89958 0.0
C807 C 0.39947 0.73419 0.92771 0.0
C808 C 0.42928 0.7691 0.9093 0.0
C809 C 0.45817 0.77159 0.86277 0.0
H810 H 0.37714 0.73236 0.96377 0.0
H811 H 0.6603 0.75706 0.51249 0.0
H812 H 0.15522 0.86017 0.20171 0.0
H813 H 0.07802 0.86212 0.22217 0.0
H814 H 0.07489 0.72008 0.22109 0.0
H815 H 0.15217 0.7177 0.20055 0.0
H816 H 0.0355 0.75846 0.17741 0.0
H817 H 0.0319 0.77405 0.319 0.0
H818 H 0.05055 0.80838 0.37204 0.0
H819 H 0.99411 0.93063 0.36335 0.0
H820 H 0.97567 0.89722 0.30974 0.0
H821 H 0.8061 0.72079 0.29316 0.0
H822 H 0.88399 0.72244 0.27004 0.0
H823 H 0.87844 0.86392 0.28366 0.0
H824 H 0.80041 0.86262 0.3073 0.0
H825 H 0.92273 0.82862 0.31989 0.0
H826 H 0.92894 0.81889 0.17878 0.0
H827 H 0.91153 0.79013 0.12263 0.0
H828 H 0.96474 0.66406 0.12656 0.0
H829 H 0.98188 0.692 0.18316 0.0
C830 C 0.13826 0.8293 0.20553 0.0
C831 C 0.15988 0.78874 0.19961 0.0
C832 C 0.09406 0.83051 0.21749 0.0
C833 C 0.07066 0.79125 0.22369 0.0
C834 C 0.09238 0.75075 0.21664 0.0
C835 C 0.13652 0.74947 0.20494 0.0
C836 C 0.0235 0.79232 0.23752 0.0
C837 C 0.01072 0.77325 0.20886 0.0
C838 C 0.99153 0.81309 0.27779 0.0
C839 C 0.00282 0.83323 0.30993 0.0
C840 C 0.02384 0.80837 0.32804 0.0
C841 C 0.03428 0.82764 0.3583 0.0
C842 C 0.02362 0.87169 0.37096 0.0
C843 C 0.0024 0.89653 0.35346 0.0
C844 C 0.99192 0.87743 0.32316 0.0
C845 C 0.82134 0.75228 0.29143 0.0
C846 C 0.79691 0.79156 0.3022 0.0
C847 C 0.86598 0.75318 0.27791 0.0
C848 C 0.88716 0.79336 0.27462 0.0
C849 C 0.86276 0.83256 0.28594 0.0
C850 C 0.81812 0.83171 0.29948 0.0
C851 C 0.93461 0.79432 0.26 0.0
C852 C 0.94748 0.81383 0.28844 0.0
C853 C 0.96683 0.77462 0.21919 0.0
C854 C 0.95608 0.75738 0.18565 0.0
C855 C 0.93637 0.7849 0.16806 0.0
C856 C 0.92671 0.7688 0.13606 0.0
C857 C 0.93686 0.72525 0.12118 0.0
C858 C 0.9568 0.69776 0.1382 0.0
C859 C 0.96652 0.71373 0.17021 0.0
H860 H 0.92942 0.71284 0.09636 0.0
H861 H 0.03169 0.88657 0.39439 0.0
H862 H 0.13061 0.18589 0.78154 0.0
H863 H 0.05754 0.17836 0.79145 0.0
H864 H 0.10646 0.22906 0.65696 0.0
H865 H 0.17898 0.23996 0.64855 0.0
H866 H 0.03621 0.26455 0.70327 0.0
H867 H 0.07408 0.11526 0.69137 0.0
H868 H 0.10007 0.04437 0.70418 0.0
H869 H 0.99402 0.04376 0.84175 0.0
H870 H 0.96789 0.11512 0.83011 0.0
H871 H 0.81443 0.1497 0.7631 0.0
H872 H 0.89171 0.14321 0.74153 0.0
H873 H 0.88444 0.26907 0.80311 0.0
H874 H 0.80743 0.27628 0.82378 0.0
H875 H 0.93667 0.13834 0.78092 0.0
H876 H 0.98086 0.32624 0.73965 0.0
H877 H 0.96099 0.38838 0.70774 0.0
H878 H 0.91082 0.29867 0.64834 0.0
H879 H 0.93197 0.23573 0.67851 0.0
C880 C 0.1258 0.19524 0.75401 0.0
C881 C 0.16037 0.21371 0.71434 0.0
C882 C 0.08402 0.19044 0.75949 0.0
C883 C 0.07624 0.20239 0.72472 0.0
C884 C 0.11129 0.2197 0.68447 0.0
C885 C 0.15281 0.22583 0.67956 0.0
C886 C 0.03093 0.2 0.73181 0.0
C887 C 0.01467 0.23675 0.72006 0.0
C888 C 0.00289 0.16315 0.75221 0.0
C889 C 0.0192 0.12081 0.75991 0.0
C890 C 0.05657 0.10029 0.72451 0.0
C891 C 0.07128 0.05995 0.73154 0.0
C892 C 0.04869 0.03957 0.77374 0.0
C893 C 0.01144 0.05957 0.80906 0.0
C894 C 0.9967 0.09999 0.80227 0.0
C895 C 0.82914 0.1758 0.77249 0.0
C896 C 0.80488 0.21367 0.7949 0.0
C897 C 0.87336 0.17202 0.76012 0.0
C898 C 0.89417 0.20599 0.76994 0.0
C899 C 0.86938 0.24285 0.79427 0.0
C900 C 0.82525 0.2468 0.80638 0.0
C901 C 0.94196 0.20352 0.75395 0.0
C902 C 0.95854 0.1659 0.76396 0.0
C903 C 0.97104 0.23846 0.72962 0.0
C904 C 0.95743 0.27623 0.712 0.0
C905 C 0.96564 0.31971 0.71975 0.0
C906 C 0.95417 0.35513 0.70187 0.0
C907 C 0.93421 0.34759 0.67636 0.0
C908 C 0.92601 0.30451 0.66837 0.0
C909 C 0.93778 0.26892 0.68582 0.0
H910 H 0.92526 0.37504 0.6626 0.0
H911 H 0.06007 0.00829 0.77909 0.0
loop_
_geom_bond_atom_site_label_1
_geom_bond_atom_site_label_2
_geom_bond_distance
_geom_bond_site_symmetry_2
_ccdc_geom_bond_type
C0 O1 1.306 . S
C0 O3 1.160 . S
O1 C0 1.306 . S
O1 Cd2 2.228 . S
Cd2 O1 2.228 . S
Cd2 O6 2.273 . S
Cd2 O10 2.277 . S
O3 C0 1.160 . S
O3 Cd4 2.203 . S
Cd4 O3 2.203 . S
Cd4 O6 2.411 . S
Cd4 O7 2.333 . S
Cd4 O8 2.352 . S
Cd4 O12 2.277 . S
Cd4 O13 2.356 . S
C5 O10 1.209 . S
C5 O12 1.226 . S
O6 Cd2 2.273 . S
O6 Cd4 2.411 . S
O6 C9 1.320 . S
O7 Cd4 2.333 . S
O7 C9 1.214 . S
O8 Cd4 2.352 . S
O8 C11 1.258 . S
C9 O6 1.320 . S
C9 O7 1.214 . S
O10 Cd2 2.277 . S
O10 C5 1.209 . S
C11 O8 1.258 . S
C11 O13 1.282 . S
O12 Cd4 2.277 . S
O12 C5 1.226 . S
O13 Cd4 2.356 . S
O13 C11 1.282 . S
C14 O15 1.306 . S
C14 O17 1.160 . S
O15 C14 1.306 . S
O15 Cd16 2.228 . S
Cd16 O15 2.228 . S
Cd16 O20 2.273 . S
Cd16 O24 2.277 . S
O17 C14 1.160 . S
O17 Cd18 2.203 . S
Cd18 O17 2.203 . S
Cd18 O20 2.411 . S
Cd18 O21 2.333 . S
Cd18 O22 2.352 . S
Cd18 O26 2.277 . S
Cd18 O27 2.356 . S
C19 O24 1.209 . S
C19 O26 1.226 . S
O20 Cd16 2.273 . S
O20 Cd18 2.411 . S
O20 C23 1.320 . S
O21 Cd18 2.333 . S
O21 C23 1.214 . S
O22 Cd18 2.352 . S
O22 C25 1.258 . S
C23 O20 1.320 . S
C23 O21 1.214 . S
O24 Cd16 2.277 . S
O24 C19 1.209 . S
C25 O22 1.258 . S
C25 O27 1.282 . S
O26 Cd18 2.277 . S
O26 C19 1.226 . S
O27 Cd18 2.356 . S
O27 C25 1.282 . S
C28 O29 1.306 . S
C28 O31 1.160 . S
O29 C28 1.306 . S
O29 Cd30 2.228 . S
Cd30 O29 2.228 . S
Cd30 O34 2.273 . S
Cd30 O38 2.277 . S
O31 C28 1.160 . S
O31 Cd32 2.203 . S
Cd32 O31 2.203 . S
Cd32 O34 2.411 . S
Cd32 O35 2.333 . S
Cd32 O36 2.352 . S
Cd32 O40 2.277 . S
Cd32 O41 2.356 . S
C33 O38 1.209 . S
C33 O40 1.226 . S
O34 Cd30 2.273 . S
O34 Cd32 2.411 . S
O34 C37 1.320 . S
O35 Cd32 2.333 . S
O35 C37 1.214 . S
O36 Cd32 2.352 . S
O36 C39 1.258 . S
C37 O34 1.320 . S
C37 O35 1.214 . S
O38 Cd30 2.277 . S
O38 C33 1.209 . S
C39 O36 1.258 . S
C39 O41 1.282 . S
O40 Cd32 2.277 . S
O40 C33 1.226 . S
O41 Cd32 2.356 . S
O41 C39 1.282 . S
C42 O43 1.306 . S
C42 O45 1.160 . S
O43 C42 1.306 . S
O43 Cd44 2.228 . S
Cd44 O43 2.228 . S
Cd44 O48 2.273 . S
Cd44 O52 2.277 . S
O45 C42 1.160 . S
O45 Cd46 2.203 . S
Cd46 O45 2.203 . S
Cd46 O48 2.411 . S
Cd46 O49 2.333 . S
Cd46 O50 2.352 . S
Cd46 O54 2.277 . S
Cd46 O55 2.356 . S
C47 O52 1.209 . S
C47 O54 1.226 . S
O48 Cd44 2.273 . S
O48 Cd46 2.411 . S
O48 C51 1.320 . S
O49 Cd46 2.333 . S
O49 C51 1.214 . S
O50 Cd46 2.352 . S
O50 C53 1.258 . S
C51 O48 1.320 . S
C51 O49 1.214 . S
O52 Cd44 2.277 . S
O52 C47 1.209 . S
C53 O50 1.258 . S
C53 O55 1.282 . S
O54 Cd46 2.277 . S
O54 C47 1.226 . S
O55 Cd46 2.356 . S
O55 C53 1.282 . S
C56 O57 1.306 . S
C56 O59 1.160 . S
O57 C56 1.306 . S
O57 Cd58 2.228 . S
Cd58 O57 2.228 . S
Cd58 O62 2.273 . S
Cd58 O66 2.277 . S
O59 C56 1.160 . S
O59 Cd60 2.203 . S
Cd60 O59 2.203 . S
Cd60 O62 2.411 . S
Cd60 O63 2.333 . S
Cd60 O64 2.352 . S
Cd60 O68 2.277 . S
Cd60 O69 2.356 . S
C61 O66 1.209 . S
C61 O68 1.226 . S
O62 Cd58 2.273 . S
O62 Cd60 2.411 . S
O62 C65 1.320 . S
O63 Cd60 2.333 . S
O63 C65 1.214 . S
O64 Cd60 2.352 . S
O64 C67 1.258 . S
C65 O62 1.320 . S
C65 O63 1.214 . S
O66 Cd58 2.277 . S
O66 C61 1.209 . S
C67 O64 1.258 . S
C67 O69 1.282 . S
O68 Cd60 2.277 . S
O68 C61 1.226 . S
O69 Cd60 2.356 . S
O69 C67 1.282 . S
C70 O71 1.306 . S
C70 O73 1.160 . S
O71 C70 1.306 . S
O71 Cd72 2.228 . S
Cd72 O71 2.228 . S
Cd72 O76 2.273 . S
Cd72 O80 2.277 . S
O73 C70 1.160 . S
O73 Cd74 2.203 . S
Cd74 O73 2.203 . S
Cd74 O76 2.411 . S
Cd74 O77 2.333 . S
Cd74 O78 2.352 . S
Cd74 O82 2.277 . S
Cd74 O83 2.356 . S
C75 O80 1.209 . S
C75 O82 1.226 . S
O76 Cd72 2.273 . S
O76 Cd74 2.411 . S
O76 C79 1.320 . S
O77 Cd74 2.333 . S
O77 C79 1.214 . S
O78 Cd74 2.352 . S
O78 C81 1.258 . S
C79 O76 1.320 . S
C79 O77 1.214 . S
O80 Cd72 2.277 . S
O80 C75 1.209 . S
C81 O78 1.258 . S
C81 O83 1.282 . S
O82 Cd74 2.277 . S
O82 C75 1.226 . S
O83 Cd74 2.356 . S
O83 C81 1.282 . S
C84 O85 1.306 . S
C84 O87 1.160 . S
O85 C84 1.306 . S
O85 Cd86 2.228 . S
Cd86 O85 2.228 . S
Cd86 O90 2.273 . S
Cd86 O94 2.277 . S
O87 C84 1.160 . S
O87 Cd88 2.203 . S
Cd88 O87 2.203 . S
Cd88 O90 2.411 . S
Cd88 O91 2.333 . S
Cd88 O92 2.352 . S
Cd88 O96 2.277 . S
Cd88 O97 2.356 . S
C89 O94 1.209 . S
C89 O96 1.226 . S
O90 Cd86 2.273 . S
O90 Cd88 2.411 . S
O90 C93 1.320 . S
O91 Cd88 2.333 . S
O91 C93 1.214 . S
O92 Cd88 2.352 . S
O92 C95 1.258 . S
C93 O90 1.320 . S
C93 O91 1.214 . S
O94 Cd86 2.277 . S
O94 C89 1.209 . S
C95 O92 1.258 . S
C95 O97 1.282 . S
O96 Cd88 2.277 . S
O96 C89 1.226 . S
O97 Cd88 2.356 . S
O97 C95 1.282 . S
C98 O99 1.306 . S
C98 O101 1.160 . S
O99 C98 1.306 . S
O99 Cd100 2.228 . S
Cd100 O99 2.228 . S
Cd100 O104 2.273 . S
Cd100 O108 2.277 . S
O101 C98 1.160 . S
O101 Cd102 2.203 . S
Cd102 O101 2.203 . S
Cd102 O104 2.411 . S
Cd102 O105 2.333 . S
Cd102 O106 2.352 . S
Cd102 O110 2.277 . S
Cd102 O111 2.356 . S
C103 O108 1.209 . S
C103 O110 1.226 . S
O104 Cd100 2.273 . S
O104 Cd102 2.411 . S
O104 C107 1.320 . S
O105 Cd102 2.333 . S
O105 C107 1.214 . S
O106 Cd102 2.352 . S
O106 C109 1.258 . S
C107 O104 1.320 . S
C107 O105 1.214 . S
O108 Cd100 2.277 . S
O108 C103 1.209 . S
C109 O106 1.258 . S
C109 O111 1.282 . S
O110 Cd102 2.277 . S
O110 C103 1.226 . S
O111 Cd102 2.356 . S
O111 C109 1.282 . S
H112 C130 0.951 . S
H113 C132 0.951 . S
H114 C134 0.950 . S
H115 C135 0.950 . S
H116 C137 0.950 . S
H117 C140 0.950 . S
H118 C141 0.950 . S
H119 C143 0.950 1_565 S
H120 C144 0.961 . S
H121 C145 0.951 . S
H122 C147 0.951 . S
H123 C149 0.950 . S
H124 C150 0.950 . S
H125 C152 0.950 . S
H126 C155 0.950 . S
H127 C156 0.950 . S
H128 C158 0.950 . S
H129 C159 0.950 1_545 S
C130 H112 0.951 . S
C130 C131 1.366 . S
C130 C132 1.388 . S
C131 C130 1.366 . S
C131 C135 1.385 . S
C132 H113 0.951 . S
C132 C130 1.388 . S
C132 C133 1.366 . S
C133 C132 1.366 . S
C133 C134 1.414 . S
C133 C136 1.499 . S
C134 H114 0.950 . S
C134 C133 1.414 . S
C134 C135 1.374 . S
C135 H115 0.950 . S
C135 C131 1.385 . S
C135 C134 1.374 . S
C136 C133 1.499 . S
C136 C137 1.373 . S
C136 C138 1.389 1_455 S
C137 H116 0.950 . S
C137 C136 1.373 . S
C137 C153 1.377 1_545 S
C138 C136 1.389 1_655 S
C138 C139 1.524 . S
C138 C152 1.377 1_545 S
C139 C138 1.524 . S
C139 C140 1.397 . S
C139 C144 1.356 1_545 S
C140 H117 0.950 . S
C140 C139 1.397 . S
C140 C141 1.334 . S
C141 H118 0.950 . S
C141 C140 1.334 . S
C141 C142 1.287 . S
C142 C141 1.287 . S
C142 C143 1.524 . S
C142 H161 0.913 . S
C143 H119 0.950 1_545 S
C143 C142 1.524 . S
C143 C144 1.411 1_545 S
C144 H120 0.961 . S
C144 C139 1.356 1_565 S
C144 C143 1.411 1_565 S
C145 H121 0.951 . S
C145 C146 1.366 . S
C145 C147 1.388 . S
C146 C145 1.366 . S
C146 C150 1.385 . S
C147 H122 0.951 . S
C147 C145 1.388 . S
C147 C148 1.366 . S
C148 C147 1.366 . S
C148 C149 1.414 . S
C148 C151 1.499 . S
C149 H123 0.950 . S
C149 C148 1.414 . S
C149 C150 1.374 . S
C150 H124 0.950 . S
C150 C146 1.385 . S
C150 C149 1.374 . S
C151 C148 1.499 . S
C151 C152 1.373 . S
C151 C153 1.389 1_655 S
C152 H125 0.950 . S
C152 C138 1.377 1_565 S
C152 C151 1.373 . S
C153 C137 1.377 1_565 S
C153 C151 1.389 1_455 S
C153 C154 1.524 . S
C154 C153 1.524 . S
C154 C155 1.397 . S
C154 C159 1.363 . S
C155 H126 0.950 . S
C155 C154 1.397 . S
C155 C156 1.334 . S
C156 H127 0.950 . S
C156 C155 1.334 . S
C156 C157 1.287 . S
C157 C156 1.287 . S
C157 C158 1.524 . S
C157 H160 0.999 . S
C158 H128 0.950 . S
C158 C157 1.524 . S
C158 C159 1.415 . S
C159 H129 0.950 1_565 S
C159 C154 1.363 . S
C159 C158 1.415 . S
H160 C157 0.999 . S
H161 C142 0.913 . S
H162 C180 0.951 . S
H163 C182 0.951 . S
H164 C184 0.950 . S
H165 C185 0.950 . S
H166 C187 0.950 . S
H167 C190 0.950 . S
H168 C191 0.950 . S
H169 C193 0.950 . S
H170 C194 0.950 . S
H171 C195 0.951 . S
H172 C197 0.951 . S
H173 C199 0.950 1_556 S
H174 C200 0.950 . S
H175 C202 0.950 . S
H176 C205 0.950 . S
H177 C206 0.951 . S
H178 C208 0.950 . S
H179 C209 0.950 . S
C180 H162 0.951 . S
C180 C181 1.366 . S
C180 C182 1.388 . S
C181 C180 1.366 . S
C181 C185 1.385 . S
C182 H163 0.951 . S
C182 C180 1.388 . S
C182 C183 1.366 . S
C183 C182 1.366 . S
C183 C184 1.414 . S
C183 C186 1.499 . S
C184 H164 0.950 . S
C184 C183 1.414 . S
C184 C185 1.374 . S
C185 H165 0.950 . S
C185 C181 1.385 . S
C185 C184 1.374 . S
C186 C183 1.499 . S
C186 C187 1.373 1_456 S
C186 C188 1.389 1_565 S
C187 H166 0.950 . S
C187 C186 1.373 1_654 S
C187 C203 1.377 . S
C188 C186 1.389 1_545 S
C188 C189 1.524 . S
C188 C202 1.377 . S
C189 C188 1.524 . S
C189 C190 1.397 1_545 S
C189 C194 1.363 . S
C190 H167 0.950 . S
C190 C189 1.397 1_565 S
C190 C191 1.334 . S
C191 H168 0.950 . S
C191 C190 1.334 . S
C191 C192 1.287 1_565 S
C192 C191 1.287 1_545 S
C192 C193 1.524 . S
C192 H211 0.913 . S
C193 H169 0.950 . S
C193 C192 1.524 . S
C193 C194 1.415 . S
C194 H170 0.950 . S
C194 C189 1.363 . S
C194 C193 1.415 . S
C195 H171 0.951 . S
C195 C196 1.366 . S
C195 C197 1.388 . S
C196 C195 1.366 . S
C196 C200 1.385 . S
C197 H172 0.951 . S
C197 C195 1.388 . S
C197 C198 1.366 . S
C198 C197 1.366 . S
C198 C199 1.414 . S
C198 C201 1.499 . S
C199 H173 0.950 1_554 S
C199 C198 1.414 . S
C199 C200 1.374 . S
C200 H174 0.950 . S
C200 C196 1.385 . S
C200 C199 1.374 . S
C201 C198 1.499 . S
C201 C202 1.373 1_654 S
C201 C203 1.389 1_545 S
C202 H175 0.950 . S
C202 C188 1.377 . S
C202 C201 1.373 1_456 S
C203 C187 1.377 . S
C203 C201 1.389 1_565 S
C203 C204 1.524 . S
C204 C203 1.524 . S
C204 C205 1.397 1_565 S
C204 C209 1.363 . S
C205 H176 0.950 . S
C205 C204 1.397 1_545 S
C205 C206 1.334 . S
C206 H177 0.951 . S
C206 C205 1.334 . S
C206 C207 1.286 1_545 S
C207 C206 1.286 1_565 S
C207 C208 1.524 . S
C207 H210 0.999 . S
C208 H178 0.950 . S
C208 C207 1.524 . S
C208 C209 1.415 . S
C209 H179 0.950 . S
C209 C204 1.363 . S
C209 C208 1.415 . S
H210 C207 0.999 . S
H211 C192 0.913 . S
H212 C230 0.951 . S
H213 C232 0.951 . S
H214 C234 0.950 . S
H215 C235 0.950 . S
H216 C237 0.950 . S
H217 C240 0.950 . S
H218 C241 0.950 . S
H219 C243 0.950 . S
H220 C244 0.950 . S
H221 C245 0.951 . S
H222 C247 0.951 . S
H223 C249 0.950 . S
H224 C250 0.950 . S
H225 C252 0.950 . S
H226 C255 0.950 . S
H227 C256 0.950 . S
H228 C258 0.950 . S
H229 C259 0.950 . S
C230 H212 0.951 . S
C230 C231 1.366 . S
C230 C232 1.388 . S
C231 C230 1.366 . S
C231 C235 1.385 . S
C232 H213 0.951 . S
C232 C230 1.388 . S
C232 C233 1.366 . S
C233 C232 1.366 . S
C233 C234 1.414 . S
C233 C236 1.499 . S
C234 H214 0.950 . S
C234 C233 1.414 . S
C234 C235 1.374 . S
C235 H215 0.950 . S
C235 C231 1.385 . S
C235 C234 1.374 . S
C236 C233 1.499 . S
C236 C237 1.373 . S
C236 C238 1.389 . S
C237 H216 0.950 . S
C237 C236 1.373 . S
C237 C253 1.377 . S
C238 C236 1.389 . S
C238 C239 1.524 . S
C238 C252 1.377 . S
C239 C238 1.524 . S
C239 C240 1.397 . S
C239 C244 1.363 . S
C240 H217 0.950 . S
C240 C239 1.397 . S
C240 C241 1.334 . S
C241 H218 0.950 . S
C241 C240 1.334 . S
C241 C242 1.287 . S
C242 C241 1.287 . S
C242 C243 1.524 . S
C242 H261 0.913 . S
C243 H219 0.950 . S
C243 C242 1.524 . S
C243 C244 1.415 . S
C244 H220 0.950 . S
C244 C239 1.363 . S
C244 C243 1.415 . S
C245 H221 0.951 . S
C245 C246 1.366 . S
C245 C247 1.388 . S
C246 C245 1.366 . S
C246 C250 1.385 . S
C247 H222 0.951 . S
C247 C245 1.388 . S
C247 C248 1.366 . S
C248 C247 1.366 . S
C248 C249 1.414 . S
C248 C251 1.499 . S
C249 H223 0.950 . S
C249 C248 1.414 . S
C249 C250 1.374 . S
C250 H224 0.950 . S
C250 C246 1.385 . S
C250 C249 1.374 . S
C251 C248 1.499 . S
C251 C252 1.373 . S
C251 C253 1.389 . S
C252 H225 0.950 . S
C252 C238 1.377 . S
C252 C251 1.373 . S
C253 C237 1.377 . S
C253 C251 1.389 . S
C253 C254 1.524 . S
C254 C253 1.524 . S
C254 C255 1.397 . S
C254 C259 1.363 . S
C255 H226 0.950 . S
C255 C254 1.397 . S
C255 C256 1.334 . S
C256 H227 0.950 . S
C256 C255 1.334 . S
C256 C257 1.287 . S
C257 C256 1.287 . S
C257 C258 1.524 . S
C257 H260 0.999 . S
C258 H228 0.950 . S
C258 C257 1.524 . S
C258 C259 1.415 . S
C259 H229 0.950 . S
C259 C254 1.363 . S
C259 C258 1.415 . S
H260 C257 0.999 . S
H261 C242 0.913 . S
H262 C280 0.951 . S
H263 C282 0.951 . S
H264 C284 0.941 1_556 S
H265 C285 0.950 . S
H266 C287 0.950 . S
H267 C290 0.950 . S
H268 C291 0.950 . S
H269 C293 0.950 . S
H270 C294 0.950 . S
H271 C295 0.951 . S
H272 C297 0.951 . S
H273 C299 0.950 . S
H274 C300 0.950 . S
H275 C302 0.950 . S
H276 C305 0.950 . S
H277 C306 0.950 . S
H278 C308 0.950 . S
H279 C309 0.950 . S
C280 H262 0.951 . S
C280 C281 1.366 . S
C280 C282 1.388 . S
C281 C280 1.366 . S
C281 C285 1.385 . S
C282 H263 0.951 . S
C282 C280 1.388 . S
C282 C283 1.366 . S
C283 C282 1.366 . S
C283 C284 1.414 . S
C283 C286 1.499 . S
C284 H264 0.941 1_554 S
C284 C283 1.414 . S
C284 C285 1.374 . S
C285 H265 0.950 . S
C285 C281 1.385 . S
C285 C284 1.374 . S
C286 C283 1.499 . S
C286 C287 1.373 1_554 S
C286 C288 1.389 . S
C287 H266 0.950 . S
C287 C286 1.373 1_556 S
C287 C303 1.377 . S
C288 C286 1.389 . S
C288 C289 1.524 . S
C288 C302 1.377 1_554 S
C289 C288 1.524 . S
C289 C290 1.397 . S
C289 C294 1.363 . S
C290 H267 0.950 . S
C290 C289 1.397 . S
C290 C291 1.334 . S
C291 H268 0.950 . S
C291 C290 1.334 . S
C291 C292 1.287 . S
C292 C291 1.287 . S
C292 C293 1.524 . S
C292 H311 0.913 . S
C293 H269 0.950 . S
C293 C292 1.524 . S
C293 C294 1.415 . S
C294 H270 0.950 . S
C294 C289 1.363 . S
C294 C293 1.415 . S
C295 H271 0.951 . S
C295 C296 1.366 . S
C295 C297 1.388 . S
C296 C295 1.366 . S
C296 C300 1.385 . S
C297 H272 0.951 . S
C297 C295 1.388 . S
C297 C298 1.366 . S
C298 C297 1.366 . S
C298 C299 1.414 . S
C298 C301 1.499 . S
C299 H273 0.950 . S
C299 C298 1.414 . S
C299 C300 1.374 . S
C300 H274 0.950 . S
C300 C296 1.385 . S
C300 C299 1.374 . S
C301 C298 1.499 . S
C301 C302 1.373 . S
C301 C303 1.389 . S
C302 H275 0.950 . S
C302 C288 1.377 1_556 S
C302 C301 1.373 . S
C303 C287 1.377 . S
C303 C301 1.389 . S
C303 C304 1.524 . S
C304 C303 1.524 . S
C304 C305 1.397 . S
C304 C309 1.363 . S
C305 H276 0.950 . S
C305 C304 1.397 . S
C305 C306 1.334 . S
C306 H277 0.950 . S
C306 C305 1.334 . S
C306 C307 1.287 . S
C307 C306 1.287 . S
C307 C308 1.524 . S
C307 H310 0.999 . S
C308 H278 0.950 . S
C308 C307 1.524 . S
C308 C309 1.415 . S
C309 H279 0.950 . S
C309 C304 1.363 . S
C309 C308 1.415 . S
H310 C307 0.999 . S
H311 C292 0.913 . S
H312 C330 0.951 . S
H313 C332 0.951 . S
H314 C334 0.950 . S
H315 C335 0.950 . S
H316 C337 0.950 . S
H317 C340 0.950 . S
H318 C341 0.950 . S
H319 C343 0.950 . S
H320 C344 0.950 . S
H321 C345 0.951 . S
H322 C347 0.962 . S
H323 C349 0.950 . S
H324 C350 0.950 . S
H325 C352 0.950 . S
H326 C355 0.950 . S
H327 C356 0.950 . S
H328 C358 0.950 . S
H329 C359 0.950 . S
C330 H312 0.951 . S
C330 C331 1.366 . S
C330 C332 1.388 . S
C331 C330 1.366 . S
C331 C335 1.385 . S
C332 H313 0.951 . S
C332 C330 1.388 . S
C332 C333 1.366 . S
C333 C332 1.366 . S
C333 C334 1.414 . S
C333 C336 1.499 . S
C334 H314 0.950 . S
C334 C333 1.414 . S
C334 C335 1.374 . S
C335 H315 0.950 . S
C335 C331 1.385 . S
C335 C334 1.374 . S
C336 C333 1.499 . S
C336 C337 1.373 . S
C336 C338 1.389 1_654 S
C337 H316 0.950 . S
C337 C336 1.373 . S
C337 C353 1.377 . S
C338 C336 1.389 1_456 S
C338 C339 1.524 . S
C338 C352 1.377 . S
C339 C338 1.524 . S
C339 C340 1.397 1_556 S
C339 C344 1.363 . S
C340 H317 0.950 . S
C340 C339 1.397 1_554 S
C340 C341 1.334 . S
C341 H318 0.950 . S
C341 C340 1.334 . S
C341 C342 1.287 1_554 S
C342 C341 1.287 1_556 S
C342 C343 1.524 . S
C342 H361 0.913 . S
C343 H319 0.950 . S
C343 C342 1.524 . S
C343 C344 1.415 . S
C344 H320 0.950 . S
C344 C339 1.363 . S
C344 C343 1.415 . S
C345 H321 0.951 . S
C345 C346 1.366 . S
C345 C347 1.388 . S
C346 C345 1.366 . S
C346 C350 1.385 . S
C347 H322 0.962 . S
C347 C345 1.388 . S
C347 C348 1.366 . S
C348 C347 1.366 . S
C348 C349 1.414 . S
C348 C351 1.499 . S
C349 H323 0.950 . S
C349 C348 1.414 . S
C349 C350 1.374 . S
C350 H324 0.950 . S
C350 C346 1.385 . S
C350 C349 1.374 . S
C351 C348 1.499 . S
C351 C352 1.373 . S
C351 C353 1.389 1_456 S
C352 H325 0.950 . S
C352 C338 1.377 . S
C352 C351 1.373 . S
C353 C337 1.377 . S
C353 C351 1.389 1_654 S
C353 C354 1.524 . S
C354 C353 1.524 . S
C354 C355 1.397 1_554 S
C354 C359 1.363 . S
C355 H326 0.950 . S
C355 C354 1.397 1_556 S
C355 C356 1.334 . S
C356 H327 0.950 . S
C356 C355 1.334 . S
C356 C357 1.287 1_556 S
C357 C356 1.287 1_554 S
C357 C358 1.524 . S
C357 H360 0.999 . S
C358 H328 0.950 . S
C358 C357 1.524 . S
C358 C359 1.415 . S
C359 H329 0.950 . S
C359 C354 1.363 . S
C359 C358 1.415 . S
H360 C357 0.999 . S
H361 C342 0.913 . S
H362 C380 0.951 . S
H363 C382 0.951 . S
H364 C384 0.950 . S
H365 C385 0.950 . S
H366 C387 0.950 1_655 S
H367 C390 0.950 . S
H368 C391 0.950 . S
H369 C393 0.950 . S
H370 C394 0.950 . S
H371 C395 0.951 . S
H372 C397 0.951 . S
H373 C399 0.950 . S
H374 C400 0.950 . S
H375 C402 0.950 . S
H376 C405 0.950 . S
H377 C406 0.950 . S
H378 C408 0.950 . S
H379 C409 0.950 . S
C380 H362 0.951 . S
C380 C381 1.366 . S
C380 C382 1.388 . S
C381 C380 1.366 . S
C381 C385 1.385 . S
C382 H363 0.951 . S
C382 C380 1.388 . S
C382 C383 1.366 . S
C383 C382 1.366 . S
C383 C384 1.414 . S
C383 C386 1.499 . S
C384 H364 0.950 . S
C384 C383 1.414 . S
C384 C385 1.374 . S
C385 H365 0.950 . S
C385 C381 1.385 . S
C385 C384 1.374 . S
C386 C383 1.499 . S
C386 C387 1.373 . S
C386 C388 1.389 . S
C387 H366 0.950 1_455 S
C387 C386 1.373 . S
C387 C403 1.377 1_455 S
C388 C386 1.389 . S
C388 C389 1.524 . S
C388 C402 1.377 . S
C389 C388 1.524 . S
C389 C390 1.397 . S
C389 C394 1.363 . S
C390 H367 0.950 . S
C390 C389 1.397 . S
C390 C391 1.334 . S
C391 H368 0.950 . S
C391 C390 1.334 . S
C391 C392 1.287 . S
C392 C391 1.287 . S
C392 C393 1.524 . S
C392 H411 0.913 . S
C393 H369 0.950 . S
C393 C392 1.524 . S
C393 C394 1.415 . S
C394 H370 0.950 . S
C394 C389 1.363 . S
C394 C393 1.415 . S
C395 H371 0.951 . S
C395 C396 1.366 . S
C395 C397 1.388 . S
C396 C395 1.366 . S
C396 C400 1.385 . S
C397 H372 0.951 . S
C397 C395 1.388 . S
C397 C398 1.366 . S
C398 C397 1.366 . S
C398 C399 1.414 . S
C398 C401 1.499 . S
C399 H373 0.950 . S
C399 C398 1.414 . S
C399 C400 1.374 . S
C400 H374 0.950 . S
C400 C396 1.385 . S
C400 C399 1.374 . S
C401 C398 1.499 . S
C401 C402 1.373 1_655 S
C401 C403 1.389 . S
C402 H375 0.950 . S
C402 C388 1.377 . S
C402 C401 1.373 1_455 S
C403 C387 1.377 1_655 S
C403 C401 1.389 . S
C403 C404 1.524 . S
C404 C403 1.524 . S
C404 C405 1.397 . S
C404 C409 1.363 . S
C405 H376 0.950 . S
C405 C404 1.397 . S
C405 C406 1.334 . S
C406 H377 0.950 . S
C406 C405 1.334 . S
C406 C407 1.287 . S
C407 C406 1.287 . S
C407 C408 1.524 . S
C407 H410 0.999 . S
C408 H378 0.950 . S
C408 C407 1.524 . S
C408 C409 1.415 . S
C409 H379 0.950 . S
C409 C404 1.363 . S
C409 C408 1.415 . S
H410 C407 0.999 . S
H411 C392 0.913 . S
H412 C430 0.951 . S
H413 C432 0.951 . S
H414 C434 0.950 . S
H415 C435 0.950 . S
H416 C437 0.950 . S
H417 C440 0.950 1_545 S
H418 C441 0.950 . S
H419 C443 0.950 . S
H420 C444 0.950 . S
H421 C445 0.951 . S
H422 C447 0.951 . S
H423 C449 0.950 . S
H424 C450 0.950 . S
H425 C452 0.950 . S
H426 C455 0.950 1_565 S
H427 C456 0.950 . S
H428 C458 0.950 . S
H429 C459 0.950 . S
C430 H412 0.951 . S
C430 C431 1.366 . S
C430 C432 1.388 . S
C431 C430 1.366 . S
C431 C435 1.385 . S
C432 H413 0.951 . S
C432 C430 1.388 . S
C432 C433 1.366 . S
C433 C432 1.366 . S
C433 C434 1.414 . S
C433 C436 1.499 . S
C434 H414 0.950 . S
C434 C433 1.414 . S
C434 C435 1.374 . S
C435 H415 0.950 . S
C435 C431 1.385 . S
C435 C434 1.374 . S
C436 C433 1.499 . S
C436 C437 1.373 1_556 S
C436 C438 1.389 1_545 S
C437 H416 0.950 . S
C437 C436 1.373 1_554 S
C437 C453 1.377 . S
C438 C436 1.389 1_565 S
C438 C439 1.524 . S
C438 C452 1.377 . S
C439 C438 1.524 . S
C439 C440 1.397 . S
C439 C444 1.363 . S
C440 H417 0.950 1_565 S
C440 C439 1.397 . S
C440 C441 1.334 . S
C441 H418 0.950 . S
C441 C440 1.334 . S
C441 C442 1.287 . S
C442 C441 1.287 . S
C442 C443 1.524 . S
C442 H461 0.913 . S
C443 H419 0.950 . S
C443 C442 1.524 . S
C443 C444 1.415 . S
C444 H420 0.950 . S
C444 C439 1.363 . S
C444 C443 1.415 . S
C445 H421 0.951 . S
C445 C446 1.366 . S
C445 C447 1.388 . S
C446 C445 1.366 . S
C446 C450 1.385 . S
C447 H422 0.951 . S
C447 C445 1.388 . S
C447 C448 1.366 . S
C448 C447 1.366 . S
C448 C449 1.414 . S
C448 C451 1.499 . S
C449 H423 0.950 . S
C449 C448 1.414 . S
C449 C450 1.374 . S
C450 H424 0.950 . S
C450 C446 1.385 . S
C450 C449 1.374 . S
C451 C448 1.499 . S
C451 C452 1.373 1_554 S
C451 C453 1.389 1_565 S
C452 H425 0.950 . S
C452 C438 1.377 . S
C452 C451 1.373 1_556 S
C453 C437 1.377 . S
C453 C451 1.389 1_545 S
C453 C454 1.524 . S
C454 C453 1.524 . S
C454 C455 1.397 . S
C454 C459 1.363 . S
C455 H426 0.950 1_545 S
C455 C454 1.397 . S
C455 C456 1.334 . S
C456 H427 0.950 . S
C456 C455 1.334 . S
C456 C457 1.287 . S
C457 C456 1.287 . S
C457 C458 1.524 . S
C457 H460 0.999 . S
C458 H428 0.950 . S
C458 C457 1.524 . S
C458 C459 1.415 . S
C459 H429 0.950 . S
C459 C454 1.363 . S
C459 C458 1.415 . S
H460 C457 0.999 . S
H461 C442 0.913 . S
H462 C480 0.951 . S
H463 C482 0.951 . S
H464 C484 0.950 . S
H465 C485 0.950 . S
H466 C487 0.950 . S
H467 C490 0.950 . S
H468 C491 0.950 . S
H469 C493 0.950 . S
H470 C494 0.950 . S
H471 C495 0.951 . S
H472 C497 0.951 . S
H473 C499 0.950 . S
H474 C500 0.950 . S
H475 C502 0.950 . S
H476 C505 0.950 . S
H477 C506 0.950 . S
H478 C508 0.950 . S
H479 C509 0.950 . S
C480 H462 0.951 . S
C480 C481 1.366 . S
C480 C482 1.388 . S
C481 C480 1.366 . S
C481 C485 1.385 . S
C482 H463 0.951 . S
C482 C480 1.388 . S
C482 C483 1.366 . S
C483 C482 1.366 . S
C483 C484 1.414 . S
C483 C486 1.499 . S
C484 H464 0.950 . S
C484 C483 1.414 . S
C484 C485 1.374 . S
C485 H465 0.950 . S
C485 C481 1.385 . S
C485 C484 1.374 . S
C486 C483 1.499 . S
C486 C487 1.373 1_565 S
C486 C488 1.389 . S
C487 H466 0.950 . S
C487 C486 1.373 1_545 S
C487 C503 1.377 . S
C488 C486 1.389 . S
C488 C489 1.524 . S
C488 C502 1.377 . S
C489 C488 1.524 . S
C489 C490 1.397 . S
C489 C494 1.363 . S
C490 H467 0.950 . S
C490 C489 1.397 . S
C490 C491 1.334 . S
C491 H468 0.950 . S
C491 C490 1.334 . S
C491 C492 1.287 . S
C492 C491 1.287 . S
C492 C493 1.524 . S
C492 H511 0.913 . S
C493 H469 0.950 . S
C493 C492 1.524 . S
C493 C494 1.415 . S
C494 H470 0.950 . S
C494 C489 1.363 . S
C494 C493 1.415 . S
C495 H471 0.951 . S
C495 C496 1.366 . S
C495 C497 1.388 . S
C496 C495 1.366 . S
C496 C500 1.385 . S
C497 H472 0.951 . S
C497 C495 1.388 . S
C497 C498 1.366 . S
C498 C497 1.366 . S
C498 C499 1.414 . S
C498 C501 1.499 . S
C499 H473 0.950 . S
C499 C498 1.414 . S
C499 C500 1.374 . S
C500 H474 0.950 . S
C500 C496 1.385 . S
C500 C499 1.374 . S
C501 C498 1.499 . S
C501 C502 1.373 1_545 S
C501 C503 1.389 . S
C502 H475 0.950 . S
C502 C488 1.377 . S
C502 C501 1.373 1_565 S
C503 C487 1.377 . S
C503 C501 1.389 . S
C503 C504 1.524 . S
C504 C503 1.524 . S
C504 C505 1.397 . S
C504 C509 1.363 . S
C505 H476 0.950 . S
C505 C504 1.397 . S
C505 C506 1.334 . S
C506 H477 0.950 . S
C506 C505 1.334 . S
C506 C507 1.287 . S
C507 C506 1.287 . S
C507 C508 1.524 . S
C507 H510 0.999 . S
C508 H478 0.950 . S
C508 C507 1.524 . S
C508 C509 1.415 . S
C509 H479 0.950 . S
C509 C504 1.363 . S
C509 C508 1.415 . S
H510 C507 0.999 . S
H511 C492 0.913 . S
H512 C530 0.951 . S
H513 C532 0.951 . S
H514 C534 0.950 . S
H515 C535 0.950 . S
H516 C537 0.950 . S
H517 C540 0.950 . S
H518 C541 0.950 . S
H519 C543 0.950 . S
H520 C544 0.950 . S
H521 C545 0.951 . S
H522 C547 0.951 . S
H523 C549 0.950 . S
H524 C550 0.950 . S
H525 C552 0.950 . S
H526 C555 0.950 . S
H527 C556 0.950 . S
H528 C558 0.950 . S
H529 C559 0.950 . S
C530 H512 0.951 . S
C530 C531 1.366 . S
C530 C532 1.388 . S
C531 C530 1.366 . S
C531 C535 1.385 . S
C532 H513 0.951 . S
C532 C530 1.388 . S
C532 C533 1.366 . S
C533 C532 1.366 . S
C533 C534 1.414 . S
C533 C536 1.499 . S
C534 H514 0.950 . S
C534 C533 1.414 . S
C534 C535 1.374 . S
C535 H515 0.950 . S
C535 C531 1.385 . S
C535 C534 1.374 . S
C536 C533 1.499 . S
C536 C537 1.373 . S
C536 C538 1.389 . S
C537 H516 0.950 . S
C537 C536 1.373 . S
C537 C553 1.377 . S
C538 C536 1.389 . S
C538 C539 1.524 . S
C538 C552 1.377 . S
C539 C538 1.524 . S
C539 C540 1.397 . S
C539 C544 1.363 . S
C540 H517 0.950 . S
C540 C539 1.397 . S
C540 C541 1.334 . S
C541 H518 0.950 . S
C541 C540 1.334 . S
C541 C542 1.287 . S
C542 C541 1.287 . S
C542 C543 1.524 . S
C542 H561 0.913 . S
C543 H519 0.950 . S
C543 C542 1.524 . S
C543 C544 1.415 . S
C544 H520 0.950 . S
C544 C539 1.363 . S
C544 C543 1.415 . S
C545 H521 0.951 . S
C545 C546 1.366 . S
C545 C547 1.388 . S
C546 C545 1.366 . S
C546 C550 1.385 . S
C547 H522 0.951 . S
C547 C545 1.388 . S
C547 C548 1.366 . S
C548 C547 1.366 . S
C548 C549 1.414 . S
C548 C551 1.499 . S
C549 H523 0.950 . S
C549 C548 1.414 . S
C549 C550 1.374 . S
C550 H524 0.950 . S
C550 C546 1.385 . S
C550 C549 1.374 . S
C551 C548 1.499 . S
C551 C552 1.373 . S
C551 C553 1.389 . S
C552 H525 0.950 . S
C552 C538 1.377 . S
C552 C551 1.373 . S
C553 C537 1.377 . S
C553 C551 1.389 . S
C553 C554 1.524 . S
C554 C553 1.524 . S
C554 C555 1.397 . S
C554 C559 1.363 . S
C555 H526 0.950 . S
C555 C554 1.397 . S
C555 C556 1.334 . S
C556 H527 0.950 . S
C556 C555 1.334 . S
C556 C557 1.287 . S
C557 C556 1.287 . S
C557 C558 1.524 . S
C557 H560 0.999 . S
C558 H528 0.950 . S
C558 C557 1.524 . S
C558 C559 1.415 . S
C559 H529 0.950 . S
C559 C554 1.363 . S
C559 C558 1.415 . S
H560 C557 0.999 . S
H561 C542 0.913 . S
H562 C580 0.951 . S
H563 C582 0.951 . S
H564 C584 0.950 . S
H565 C585 0.950 . S
H566 C587 0.950 . S
H567 C590 0.950 . S
H568 C591 0.950 . S
H569 C593 0.950 . S
H570 C594 0.950 . S
H571 C595 0.951 . S
H572 C597 0.951 . S
H573 C599 0.950 . S
H574 C600 0.950 . S
H575 C602 0.950 . S
H576 C605 0.950 . S
H577 C606 0.950 . S
H578 C608 0.950 . S
H579 C609 0.950 . S
C580 H562 0.951 . S
C580 C581 1.366 . S
C580 C582 1.388 . S
C581 C580 1.366 . S
C581 C585 1.385 . S
C582 H563 0.951 . S
C582 C580 1.388 . S
C582 C583 1.366 . S
C583 C582 1.366 . S
C583 C584 1.414 . S
C583 C586 1.499 . S
C584 H564 0.950 . S
C584 C583 1.414 . S
C584 C585 1.374 . S
C585 H565 0.950 . S
C585 C581 1.385 . S
C585 C584 1.374 . S
C586 C583 1.499 . S
C586 C587 1.373 . S
C586 C588 1.389 . S
C587 H566 0.950 . S
C587 C586 1.373 . S
C587 C603 1.377 1_556 S
C588 C586 1.389 . S
C588 C589 1.524 . S
C588 C602 1.377 1_556 S
C589 C588 1.524 . S
C589 C590 1.397 . S
C589 C594 1.363 1_556 S
C590 H567 0.950 . S
C590 C589 1.397 . S
C590 C591 1.334 . S
C591 H568 0.950 . S
C591 C590 1.334 . S
C591 C592 1.287 . S
C592 C591 1.287 . S
C592 C593 1.524 1_556 S
C592 H611 0.913 . S
C593 H569 0.950 . S
C593 C592 1.524 1_554 S
C593 C594 1.415 . S
C594 H570 0.950 . S
C594 C589 1.363 1_554 S
C594 C593 1.415 . S
C595 H571 0.951 . S
C595 C596 1.366 . S
C595 C597 1.388 . S
C596 C595 1.366 . S
C596 C600 1.385 . S
C597 H572 0.951 . S
C597 C595 1.388 . S
C597 C598 1.366 . S
C598 C597 1.366 . S
C598 C599 1.414 . S
C598 C601 1.499 . S
C599 H573 0.950 . S
C599 C598 1.414 . S
C599 C600 1.374 . S
C600 H574 0.950 . S
C600 C596 1.385 . S
C600 C599 1.374 . S
C601 C598 1.499 . S
C601 C602 1.373 . S
C601 C603 1.389 . S
C602 H575 0.950 . S
C602 C588 1.377 1_554 S
C602 C601 1.373 . S
C603 C587 1.377 1_554 S
C603 C601 1.389 . S
C603 C604 1.524 . S
C604 C603 1.524 . S
C604 C605 1.397 . S
C604 C609 1.363 1_554 S
C605 H576 0.950 . S
C605 C604 1.397 . S
C605 C606 1.334 . S
C606 H577 0.950 . S
C606 C605 1.334 . S
C606 C607 1.287 . S
C607 C606 1.287 . S
C607 C608 1.524 1_554 S
C607 H610 0.999 . S
C608 H578 0.950 . S
C608 C607 1.524 1_556 S
C608 C609 1.415 . S
C609 H579 0.950 . S
C609 C604 1.363 1_556 S
C609 C608 1.415 . S
H610 C607 0.999 . S
H611 C592 0.913 . S
H612 C630 0.951 . S
H613 C632 0.951 . S
H614 C634 0.950 . S
H615 C635 0.950 . S
H616 C637 0.950 . S
H617 C640 0.950 . S
H618 C641 0.950 . S
H619 C643 0.950 . S
H620 C644 0.950 . S
H621 C645 0.951 . S
H622 C647 0.951 . S
H623 C649 0.950 . S
H624 C650 0.950 . S
H625 C652 0.950 . S
H626 C655 0.950 . S
H627 C656 0.950 . S
H628 C658 0.950 . S
H629 C659 0.950 . S
C630 H612 0.951 . S
C630 C631 1.366 . S
C630 C632 1.388 . S
C631 C630 1.366 . S
C631 C635 1.385 . S
C632 H613 0.951 . S
C632 C630 1.388 . S
C632 C633 1.366 . S
C633 C632 1.366 . S
C633 C634 1.414 . S
C633 C636 1.499 . S
C634 H614 0.950 . S
C634 C633 1.414 . S
C634 C635 1.374 . S
C635 H615 0.950 . S
C635 C631 1.385 . S
C635 C634 1.374 . S
C636 C633 1.499 . S
C636 C637 1.373 . S
C636 C638 1.389 . S
C637 H616 0.950 . S
C637 C636 1.373 . S
C637 C653 1.377 . S
C638 C636 1.389 . S
C638 C639 1.524 . S
C638 C652 1.377 . S
C639 C638 1.524 . S
C639 C640 1.397 . S
C639 C644 1.363 . S
C640 H617 0.950 . S
C640 C639 1.397 . S
C640 C641 1.334 . S
C641 H618 0.950 . S
C641 C640 1.334 . S
C641 C642 1.287 . S
C642 C641 1.287 . S
C642 C643 1.524 . S
C642 H661 0.913 . S
C643 H619 0.950 . S
C643 C642 1.524 . S
C643 C644 1.415 . S
C644 H620 0.950 . S
C644 C639 1.363 . S
C644 C643 1.415 . S
C645 H621 0.951 . S
C645 C646 1.366 . S
C645 C647 1.388 . S
C646 C645 1.366 . S
C646 C650 1.385 . S
C647 H622 0.951 . S
C647 C645 1.388 . S
C647 C648 1.366 . S
C648 C647 1.366 . S
C648 C649 1.414 . S
C648 C651 1.499 . S
C649 H623 0.950 . S
C649 C648 1.414 . S
C649 C650 1.374 . S
C650 H624 0.950 . S
C650 C646 1.385 . S
C650 C649 1.374 . S
C651 C648 1.499 . S
C651 C652 1.373 . S
C651 C653 1.389 . S
C652 H625 0.950 . S
C652 C638 1.377 . S
C652 C651 1.373 . S
C653 C637 1.377 . S
C653 C651 1.389 . S
C653 C654 1.524 . S
C654 C653 1.524 . S
C654 C655 1.397 . S
C654 C659 1.363 . S
C655 H626 0.950 . S
C655 C654 1.397 . S
C655 C656 1.334 . S
C656 H627 0.950 . S
C656 C655 1.334 . S
C656 C657 1.287 . S
C657 C656 1.287 . S
C657 C658 1.524 . S
C657 H660 0.999 . S
C658 H628 0.950 . S
C658 C657 1.524 . S
C658 C659 1.415 . S
C659 H629 0.950 . S
C659 C654 1.363 . S
C659 C658 1.415 . S
H660 C657 0.999 . S
H661 C642 0.913 . S
H662 C680 0.951 . S
H663 C682 0.951 . S
H664 C684 0.950 . S
H665 C685 0.950 . S
H666 C687 0.950 . S
H667 C690 0.950 . S
H668 C691 0.950 . S
H669 C693 0.950 . S
H670 C694 0.950 . S
H671 C695 0.951 . S
H672 C697 0.951 . S
H673 C699 0.950 . S
H674 C700 0.950 . S
H675 C702 0.950 . S
H676 C705 0.950 . S
H677 C706 0.950 . S
H678 C708 0.950 . S
H679 C709 0.950 . S
C680 H662 0.951 . S
C680 C681 1.366 . S
C680 C682 1.388 . S
C681 C680 1.366 . S
C681 C685 1.385 . S
C682 H663 0.951 . S
C682 C680 1.388 . S
C682 C683 1.366 . S
C683 C682 1.366 . S
C683 C684 1.414 . S
C683 C686 1.499 . S
C684 H664 0.950 . S
C684 C683 1.414 . S
C684 C685 1.374 . S
C685 H665 0.950 . S
C685 C681 1.385 . S
C685 C684 1.374 . S
C686 C683 1.499 . S
C686 C687 1.373 . S
C686 C688 1.389 . S
C687 H666 0.950 . S
C687 C686 1.373 . S
C687 C703 1.377 1_554 S
C688 C686 1.389 . S
C688 C689 1.524 . S
C688 C702 1.377 1_554 S
C689 C688 1.524 . S
C689 C690 1.397 . S
C689 C694 1.363 . S
C690 H667 0.950 . S
C690 C689 1.397 . S
C690 C691 1.334 . S
C691 H668 0.950 . S
C691 C690 1.334 . S
C691 C692 1.287 . S
C692 C691 1.287 . S
C692 C693 1.524 . S
C692 H711 0.913 . S
C693 H669 0.950 . S
C693 C692 1.524 . S
C693 C694 1.415 . S
C694 H670 0.950 . S
C694 C689 1.363 . S
C694 C693 1.415 . S
C695 H671 0.951 . S
C695 C696 1.366 . S
C695 C697 1.388 . S
C696 C695 1.366 . S
C696 C700 1.385 . S
C697 H672 0.951 . S
C697 C695 1.388 . S
C697 C698 1.366 . S
C698 C697 1.366 . S
C698 C699 1.414 . S
C698 C701 1.499 . S
C699 H673 0.950 . S
C699 C698 1.414 . S
C699 C700 1.374 . S
C700 H674 0.950 . S
C700 C696 1.385 . S
C700 C699 1.374 . S
C701 C698 1.499 . S
C701 C702 1.373 . S
C701 C703 1.389 . S
C702 H675 0.950 . S
C702 C688 1.377 1_556 S
C702 C701 1.373 . S
C703 C687 1.377 1_556 S
C703 C701 1.389 . S
C703 C704 1.524 . S
C704 C703 1.524 . S
C704 C705 1.397 . S
C704 C709 1.363 . S
C705 H676 0.950 . S
C705 C704 1.397 . S
C705 C706 1.334 . S
C706 H677 0.950 . S
C706 C705 1.334 . S
C706 C707 1.287 . S
C707 C706 1.287 . S
C707 C708 1.524 . S
C707 H710 0.999 . S
C708 H678 0.950 . S
C708 C707 1.524 . S
C708 C709 1.415 . S
C709 H679 0.950 . S
C709 C704 1.363 . S
C709 C708 1.415 . S
H710 C707 0.999 . S
H711 C692 0.913 . S
H712 C730 0.951 . S
H713 C732 0.951 . S
H714 C734 0.950 . S
H715 C735 0.950 . S
H716 C737 0.950 . S
H717 C740 0.950 . S
H718 C741 0.950 . S
H719 C743 0.950 . S
H720 C744 0.950 . S
H721 C745 0.951 . S
H722 C747 0.951 . S
H723 C749 0.950 . S
H724 C750 0.950 . S
H725 C752 0.950 . S
H726 C755 0.950 . S
H727 C756 0.950 . S
H728 C758 0.950 . S
H729 C759 0.950 . S
C730 H712 0.951 . S
C730 C731 1.366 . S
C730 C732 1.388 . S
C731 C730 1.366 . S
C731 C735 1.385 . S
C732 H713 0.951 . S
C732 C730 1.388 . S
C732 C733 1.366 . S
C733 C732 1.366 . S
C733 C734 1.414 . S
C733 C736 1.499 . S
C734 H714 0.950 . S
C734 C733 1.414 . S
C734 C735 1.374 . S
C735 H715 0.950 . S
C735 C731 1.385 . S
C735 C734 1.374 . S
C736 C733 1.499 . S
C736 C737 1.373 . S
C736 C738 1.389 . S
C737 H716 0.950 . S
C737 C736 1.373 . S
C737 C753 1.377 . S
C738 C736 1.389 . S
C738 C739 1.524 . S
C738 C752 1.377 . S
C739 C738 1.524 . S
C739 C740 1.397 . S
C739 C744 1.363 . S
C740 H717 0.950 . S
C740 C739 1.397 . S
C740 C741 1.334 . S
C741 H718 0.950 . S
C741 C740 1.334 . S
C741 C742 1.287 . S
C742 C741 1.287 . S
C742 C743 1.524 . S
C742 H761 0.913 . S
C743 H719 0.950 . S
C743 C742 1.524 . S
C743 C744 1.415 . S
C744 H720 0.950 . S
C744 C739 1.363 . S
C744 C743 1.415 . S
C745 H721 0.951 . S
C745 C746 1.366 . S
C745 C747 1.388 . S
C746 C745 1.366 . S
C746 C750 1.385 . S
C747 H722 0.951 . S
C747 C745 1.388 . S
C747 C748 1.366 . S
C748 C747 1.366 . S
C748 C749 1.414 . S
C748 C751 1.499 . S
C749 H723 0.950 . S
C749 C748 1.414 . S
C749 C750 1.374 . S
C750 H724 0.950 . S
C750 C746 1.385 . S
C750 C749 1.374 . S
C751 C748 1.499 . S
C751 C752 1.373 . S
C751 C753 1.389 . S
C752 H725 0.950 . S
C752 C738 1.377 . S
C752 C751 1.373 . S
C753 C737 1.377 . S
C753 C751 1.389 . S
C753 C754 1.524 . S
C754 C753 1.524 . S
C754 C755 1.397 . S
C754 C759 1.363 . S
C755 H726 0.950 . S
C755 C754 1.397 . S
C755 C756 1.334 . S
C756 H727 0.950 . S
C756 C755 1.334 . S
C756 C757 1.287 . S
C757 C756 1.287 . S
C757 C758 1.524 . S
C757 H760 0.999 . S
C758 H728 0.950 . S
C758 C757 1.524 . S
C758 C759 1.415 . S
C759 H729 0.950 . S
C759 C754 1.363 . S
C759 C758 1.415 . S
H760 C757 0.999 . S
H761 C742 0.913 . S
H762 C780 0.951 . S
H763 C782 0.951 . S
H764 C784 0.950 . S
H765 C785 0.950 . S
H766 C787 0.950 . S
H767 C790 0.950 . S
H768 C791 0.950 . S
H769 C793 0.950 . S
H770 C794 0.950 . S
H771 C795 0.951 . S
H772 C797 0.951 . S
H773 C799 0.950 . S
H774 C800 0.950 . S
H775 C802 0.950 . S
H776 C805 0.950 . S
H777 C806 0.950 . S
H778 C808 0.950 . S
H779 C809 0.950 . S
C780 H762 0.951 . S
C780 C781 1.366 . S
C780 C782 1.388 . S
C781 C780 1.366 . S
C781 C785 1.385 . S
C782 H763 0.951 . S
C782 C780 1.388 . S
C782 C783 1.366 . S
C783 C782 1.366 . S
C783 C784 1.414 . S
C783 C786 1.499 . S
C784 H764 0.950 . S
C784 C783 1.414 . S
C784 C785 1.374 . S
C785 H765 0.950 . S
C785 C781 1.385 . S
C785 C784 1.374 . S
C786 C783 1.499 . S
C786 C787 1.373 . S
C786 C788 1.389 . S
C787 H766 0.950 . S
C787 C786 1.373 . S
C787 C803 1.377 . S
C788 C786 1.389 . S
C788 C789 1.524 . S
C788 C802 1.377 . S
C789 C788 1.524 . S
C789 C790 1.397 . S
C789 C794 1.363 . S
C790 H767 0.950 . S
C790 C789 1.397 . S
C790 C791 1.334 . S
C791 H768 0.950 . S
C791 C790 1.334 . S
C791 C792 1.287 . S
C792 C791 1.287 . S
C792 C793 1.524 . S
C792 H811 0.913 . S
C793 H769 0.950 . S
C793 C792 1.524 . S
C793 C794 1.415 . S
C794 H770 0.950 . S
C794 C789 1.363 . S
C794 C793 1.415 . S
C795 H771 0.951 . S
C795 C796 1.366 . S
C795 C797 1.388 . S
C796 C795 1.366 . S
C796 C800 1.385 . S
C797 H772 0.951 . S
C797 C795 1.388 . S
C797 C798 1.366 . S
C798 C797 1.366 . S
C798 C799 1.414 . S
C798 C801 1.499 . S
C799 H773 0.950 . S
C799 C798 1.414 . S
C799 C800 1.374 . S
C800 H774 0.950 . S
C800 C796 1.385 . S
C800 C799 1.374 . S
C801 C798 1.499 . S
C801 C802 1.373 . S
C801 C803 1.389 . S
C802 H775 0.950 . S
C802 C788 1.377 . S
C802 C801 1.373 . S
C803 C787 1.377 . S
C803 C801 1.389 . S
C803 C804 1.524 . S
C804 C803 1.524 . S
C804 C805 1.397 . S
C804 C809 1.363 . S
C805 H776 0.950 . S
C805 C804 1.397 . S
C805 C806 1.334 . S
C806 H777 0.950 . S
C806 C805 1.334 . S
C806 C807 1.287 . S
C807 C806 1.287 . S
C807 C808 1.524 . S
C807 H810 0.999 . S
C808 H778 0.950 . S
C808 C807 1.524 . S
C808 C809 1.415 . S
C809 H779 0.950 . S
C809 C804 1.363 . S
C809 C808 1.415 . S
H810 C807 0.999 . S
H811 C792 0.913 . S
H812 C830 0.951 . S
H813 C832 0.951 . S
H814 C834 0.950 . S
H815 C835 0.950 . S
H816 C837 0.950 . S
H817 C840 0.950 . S
H818 C841 0.950 . S
H819 C843 0.950 . S
H820 C844 0.950 . S
H821 C845 0.951 . S
H822 C847 0.951 . S
H823 C849 0.950 . S
H824 C850 0.950 . S
H825 C852 0.950 . S
H826 C855 0.950 . S
H827 C856 0.950 . S
H828 C858 0.950 . S
H829 C859 0.950 . S
C830 H812 0.951 . S
C830 C831 1.366 . S
C830 C832 1.388 . S
C831 C830 1.366 . S
C831 C835 1.385 . S
C832 H813 0.951 . S
C832 C830 1.388 . S
C832 C833 1.366 . S
C833 C832 1.366 . S
C833 C834 1.414 . S
C833 C836 1.499 . S
C834 H814 0.950 . S
C834 C833 1.414 . S
C834 C835 1.374 . S
C835 H815 0.950 . S
C835 C831 1.385 . S
C835 C834 1.374 . S
C836 C833 1.499 . S
C836 C837 1.373 . S
C836 C838 1.389 . S
C837 H816 0.950 . S
C837 C836 1.373 . S
C837 C853 1.377 1_455 S
C838 C836 1.389 . S
C838 C839 1.524 . S
C838 C852 1.377 1_455 S
C839 C838 1.524 . S
C839 C840 1.397 . S
C839 C844 1.363 1_455 S
C840 H817 0.950 . S
C840 C839 1.397 . S
C840 C841 1.334 . S
C841 H818 0.950 . S
C841 C840 1.334 . S
C841 C842 1.287 . S
C842 C841 1.287 . S
C842 C843 1.524 1_455 S
C842 H861 0.913 . S
C843 H819 0.950 . S
C843 C842 1.524 1_655 S
C843 C844 1.415 . S
C844 H820 0.950 . S
C844 C839 1.363 1_655 S
C844 C843 1.415 . S
C845 H821 0.951 . S
C845 C846 1.366 . S
C845 C847 1.388 . S
C846 C845 1.366 . S
C846 C850 1.385 . S
C847 H822 0.951 . S
C847 C845 1.388 . S
C847 C848 1.366 . S
C848 C847 1.366 . S
C848 C849 1.414 . S
C848 C851 1.499 . S
C849 H823 0.950 . S
C849 C848 1.414 . S
C849 C850 1.374 . S
C850 H824 0.950 . S
C850 C846 1.385 . S
C850 C849 1.374 . S
C851 C848 1.499 . S
C851 C852 1.373 . S
C851 C853 1.389 . S
C852 H825 0.950 . S
C852 C838 1.377 1_655 S
C852 C851 1.373 . S
C853 C837 1.377 1_655 S
C853 C851 1.389 . S
C853 C854 1.524 . S
C854 C853 1.524 . S
C854 C855 1.397 . S
C854 C859 1.363 1_655 S
C855 H826 0.950 . S
C855 C854 1.397 . S
C855 C856 1.334 . S
C856 H827 0.950 . S
C856 C855 1.334 . S
C856 C857 1.287 . S
C857 C856 1.287 . S
C857 C858 1.524 1_655 S
C857 H860 0.999 . S
C858 H828 0.950 . S
C858 C857 1.524 1_455 S
C858 C859 1.415 . S
C859 H829 0.950 . S
C859 C854 1.363 1_455 S
C859 C858 1.415 . S
H860 C857 0.999 . S
H861 C842 0.913 . S
H862 C880 0.951 . S
H863 C882 0.951 . S
H864 C884 0.950 . S
H865 C885 0.950 . S
H866 C887 0.950 . S
H867 C890 0.950 . S
H868 C891 0.950 . S
H869 C893 0.950 . S
H870 C894 0.950 . S
H871 C895 0.951 . S
H872 C897 0.951 . S
H873 C899 0.950 . S
H874 C900 0.950 . S
H875 C902 0.950 . S
H876 C905 0.950 . S
H877 C906 0.950 . S
H878 C908 0.950 . S
H879 C909 0.950 . S
C880 H862 0.951 . S
C880 C881 1.366 . S
C880 C882 1.388 . S
C881 C880 1.366 . S
C881 C885 1.385 . S
C882 H863 0.951 . S
C882 C880 1.388 . S
C882 C883 1.366 . S
C883 C882 1.366 . S
C883 C884 1.414 . S
C883 C886 1.499 . S
C884 H864 0.950 . S
C884 C883 1.414 . S
C884 C885 1.374 . S
C885 H865 0.950 . S
C885 C881 1.385 . S
C885 C884 1.374 . S
C886 C883 1.499 . S
C886 C887 1.373 . S
C886 C888 1.389 . S
C887 H866 0.950 . S
C887 C886 1.373 . S
C887 C903 1.377 1_455 S
C888 C886 1.389 . S
C888 C889 1.524 . S
C888 C902 1.377 1_455 S
C889 C888 1.524 . S
C889 C890 1.397 . S
C889 C894 1.363 1_455 S
C890 H867 0.950 . S
C890 C889 1.397 . S
C890 C891 1.334 . S
C891 H868 0.950 . S
C891 C890 1.334 . S
C891 C892 1.287 . S
C892 C891 1.287 . S
C892 C893 1.524 1_455 S
C892 H911 0.913 . S
C893 H869 0.950 . S
C893 C892 1.524 1_655 S
C893 C894 1.415 . S
C894 H870 0.950 . S
C894 C889 1.363 1_655 S
C894 C893 1.415 . S
C895 H871 0.951 . S
C895 C896 1.366 . S
C895 C897 1.388 . S
C896 C895 1.366 . S
C896 C900 1.385 . S
C897 H872 0.951 . S
C897 C895 1.388 . S
C897 C898 1.366 . S
C898 C897 1.366 . S
C898 C899 1.414 . S
C898 C901 1.499 . S
C899 H873 0.950 . S
C899 C898 1.414 . S
C899 C900 1.374 . S
C900 H874 0.950 . S
C900 C896 1.385 . S
C900 C899 1.374 . S
C901 C898 1.499 . S
C901 C902 1.373 . S
C901 C903 1.389 . S
C902 H875 0.950 . S
C902 C888 1.377 1_655 S
C902 C901 1.373 . S
C903 C887 1.377 1_655 S
C903 C901 1.389 . S
C903 C904 1.524 . S
C904 C903 1.524 . S
C904 C905 1.397 . S
C904 C909 1.363 1_655 S
C905 H876 0.950 . S
C905 C904 1.397 . S
C905 C906 1.334 . S
C906 H877 0.950 . S
C906 C905 1.334 . S
C906 C907 1.287 . S
C907 C906 1.287 . S
C907 C908 1.524 1_655 S
C907 H910 0.999 . S
C908 H878 0.950 . S
C908 C907 1.524 1_455 S
C908 C909 1.415 . S
C909 H879 0.950 . S
C909 C904 1.363 1_455 S
C909 C908 1.415 . S
H910 C907 0.999 . S
H911 C892 0.913 . S
C131 C11 1.914 . S
C146 C33 1.927 . S
C181 C47 1.927 . S
C196 C25 1.914 . S
C231 C89 1.927 . S
C246 C67 1.914 . S
C281 C81 1.914 . S
C296 C103 1.927 . S
C331 C23 1.154 . S
C346 C42 1.144 . S
C381 C9 1.153 . S
C396 C28 1.144 . S
C431 C98 1.144 . S
C446 C79 1.153 . S
C481 C65 1.154 . S
C496 C84 1.144 . S
C531 C70 1.511 . S
C546 C51 1.519 . S
C581 C37 1.519 . S
C596 C56 1.510 . S
C631 C14 1.510 . S
C646 C107 1.519 . S
C681 C0 1.510 . S
C696 C93 1.519 . S
C731 C5 1.528 . S
C746 C19 1.527 . S
C781 C39 1.592 . S
C796 C53 1.592 . S
C831 C75 1.528 . S
C846 C61 1.527 . S
C881 C95 1.592 . S
C896 C109 1.592 . S
