# Generated by pormake.
# Topology whz, (6)-cn, num edge types: 1
# Building blocks:
#     Node 0, Type 0, BuildingBlock: IZENUY_clean_sbu_0, # of connection points: 6
#     Node 1, Type 0, BuildingBlock: IZENUY_clean_sbu_0, # of connection points: 6
#     Node 2, Type 0, BuildingBlock: IZENUY_clean_sbu_0, # of connection points: 6
#     Node 3, Type 0, BuildingBlock: IZENUY_clean_sbu_0, # of connection points: 6
#     Node 4, Type 0, BuildingBlock: IZENUY_clean_sbu_0, # of connection points: 6
#     Node 5, Type 0, BuildingBlock: IZENUY_clean_sbu_0, # of connection points: 6
#     Node 6, Type 0, BuildingBlock: IZENUY_clean_sbu_0, # of connection points: 6
#     Node 7, Type 0, BuildingBlock: IZENUY_clean_sbu_0, # of connection points: 6
#     Node 8, Type 0, BuildingBlock: IZENUY_clean_sbu_0, # of connection points: 6
#     Node 9, Type 0, BuildingBlock: IZENUY_clean_sbu_0, # of connection points: 6
#     Node 10, Type 0, BuildingBlock: IZENUY_clean_sbu_0, # of connection points: 6
#     Node 11, Type 0, BuildingBlock: IZENUY_clean_sbu_0, # of connection points: 6
#     Node 12, Type 0, BuildingBlock: IZENUY_clean_sbu_0, # of connection points: 6
#     Node 13, Type 0, BuildingBlock: IZENUY_clean_sbu_0, # of connection points: 6
#     Node 14, Type 0, BuildingBlock: IZENUY_clean_sbu_0, # of connection points: 6
#     Node 15, Type 0, BuildingBlock: IZENUY_clean_sbu_0, # of connection points: 6
#     Edge 16, Type (0, 0), BuildingBlock: AJUNOK_clean_linker_0, # of connection points: 2
#     Edge 17, Type (0, 0), BuildingBlock: AJUNOK_clean_linker_0, # of connection points: 2
#     Edge 18, Type (0, 0), BuildingBlock: AJUNOK_clean_linker_0, # of connection points: 2
#     Edge 19, Type (0, 0), BuildingBlock: AJUNOK_clean_linker_0, # of connection points: 2
#     Edge 20, Type (0, 0), BuildingBlock: AJUNOK_clean_linker_0, # of connection points: 2
#     Edge 21, Type (0, 0), BuildingBlock: AJUNOK_clean_linker_0, # of connection points: 2
#     Edge 22, Type (0, 0), BuildingBlock: AJUNOK_clean_linker_0, # of connection points: 2
#     Edge 23, Type (0, 0), BuildingBlock: AJUNOK_clean_linker_0, # of connection points: 2
#     Edge 24, Type (0, 0), BuildingBlock: AJUNOK_clean_linker_0, # of connection points: 2
#     Edge 25, Type (0, 0), BuildingBlock: AJUNOK_clean_linker_0, # of connection points: 2
#     Edge 26, Type (0, 0), BuildingBlock: AJUNOK_clean_linker_0, # of connection points: 2
#     Edge 27, Type (0, 0), BuildingBlock: AJUNOK_clean_linker_0, # of connection points: 2
#     Edge 28, Type (0, 0), BuildingBlock: AJUNOK_clean_linker_0, # of connection points: 2
#     Edge 29, Type (0, 0), BuildingBlock: AJUNOK_clean_linker_0, # of connection points: 2
#     Edge 30, Type (0, 0), BuildingBlock: AJUNOK_clean_linker_0, # of connection points: 2
#     Edge 31, Type (0, 0), BuildingBlock: AJUNOK_clean_linker_0, # of connection points: 2
#     Edge 32, Type (0, 0), BuildingBlock: AJUNOK_clean_linker_0, # of connection points: 2
#     Edge 33, Type (0, 0), BuildingBlock: AJUNOK_clean_linker_0, # of connection points: 2
#     Edge 34, Type (0, 0), BuildingBlock: AJUNOK_clean_linker_0, # of connection points: 2
#     Edge 35, Type (0, 0), BuildingBlock: AJUNOK_clean_linker_0, # of connection points: 2
#     Edge 36, Type (0, 0), BuildingBlock: AJUNOK_clean_linker_0, # of connection points: 2
#     Edge 37, Type (0, 0), BuildingBlock: AJUNOK_clean_linker_0, # of connection points: 2
#     Edge 38, Type (0, 0), BuildingBlock: AJUNOK_clean_linker_0, # of connection points: 2
#     Edge 39, Type (0, 0), BuildingBlock: AJUNOK_clean_linker_0, # of connection points: 2
#     Edge 40, Type (0, 0), BuildingBlock: AJUNOK_clean_linker_0, # of connection points: 2
#     Edge 41, Type (0, 0), BuildingBlock: AJUNOK_clean_linker_0, # of connection points: 2
#     Edge 42, Type (0, 0), BuildingBlock: AJUNOK_clean_linker_0, # of connection points: 2
#     Edge 43, Type (0, 0), BuildingBlock: AJUNOK_clean_linker_0, # of connection points: 2
#     Edge 44, Type (0, 0), BuildingBlock: AJUNOK_clean_linker_0, # of connection points: 2
#     Edge 45, Type (0, 0), BuildingBlock: AJUNOK_clean_linker_0, # of connection points: 2
#     Edge 46, Type (0, 0), BuildingBlock: AJUNOK_clean_linker_0, # of connection points: 2
#     Edge 47, Type (0, 0), BuildingBlock: AJUNOK_clean_linker_0, # of connection points: 2
#     Edge 48, Type (0, 0), BuildingBlock: AJUNOK_clean_linker_0, # of connection points: 2
#     Edge 49, Type (0, 0), BuildingBlock: AJUNOK_clean_linker_0, # of connection points: 2
#     Edge 50, Type (0, 0), BuildingBlock: AJUNOK_clean_linker_0, # of connection points: 2
#     Edge 51, Type (0, 0), BuildingBlock: AJUNOK_clean_linker_0, # of connection points: 2
#     Edge 52, Type (0, 0), BuildingBlock: AJUNOK_clean_linker_0, # of connection points: 2
#     Edge 53, Type (0, 0), BuildingBlock: AJUNOK_clean_linker_0, # of connection points: 2
#     Edge 54, Type (0, 0), BuildingBlock: AJUNOK_clean_linker_0, # of connection points: 2
#     Edge 55, Type (0, 0), BuildingBlock: AJUNOK_clean_linker_0, # of connection points: 2
#     Edge 56, Type (0, 0), BuildingBlock: AJUNOK_clean_linker_0, # of connection points: 2
#     Edge 57, Type (0, 0), BuildingBlock: AJUNOK_clean_linker_0, # of connection points: 2
#     Edge 58, Type (0, 0), BuildingBlock: AJUNOK_clean_linker_0, # of connection points: 2
#     Edge 59, Type (0, 0), BuildingBlock: AJUNOK_clean_linker_0, # of connection points: 2
#     Edge 60, Type (0, 0), BuildingBlock: AJUNOK_clean_linker_0, # of connection points: 2
#     Edge 61, Type (0, 0), BuildingBlock: AJUNOK_clean_linker_0, # of connection points: 2
#     Edge 62, Type (0, 0), BuildingBlock: AJUNOK_clean_linker_0, # of connection points: 2
#     Edge 63, Type (0, 0), BuildingBlock: AJUNOK_clean_linker_0, # of connection points: 2
# Relax obj value: 0.408
# Max RMSD: 0.253
# Mean RMSD: 0.253
data_MOF--net-whz--node1-IZENUY_clean_sbu_0--edge1-AJUNOK_clean_linker_0
_symmetry_space_group_name_H-M    P1
_symmetry_Int_Tables_number       1
_symmetry_cell_setting            triclinic
loop_
_symmetry_equiv_pos_as_xyz
'x, y, z'
_cell_length_a     25.247295
_cell_length_b     25.349063
_cell_length_c     37.251268
_cell_angle_alpha  89.866495
_cell_angle_beta   90.03308
_cell_angle_gamma 89.917033
loop_
_atom_site_label
_atom_site_type_symbol
_atom_site_fract_x
_atom_site_fract_y
_atom_site_fract_z
_atom_type_partial_charge
Fe0 Fe 0.36467 0.2305 0.16479 0.0
Fe1 Fe 0.25243 0.21533 0.13765 0.0
O2 O 0.31914 0.19512 0.13797 0.0
Fe3 Fe 0.34088 0.13976 0.11296 0.0
O4 O 0.36565 0.10727 0.1538 0.0
O5 O 0.40974 0.17468 0.17318 0.0
O6 O 0.33027 0.21207 0.20513 0.0
C7 C 0.28363 0.22729 0.21091 0.0
C8 C 0.41902 0.22057 0.10242 0.0
O9 O 0.25313 0.23864 0.18479 0.0
C10 C 0.26815 0.18053 0.06467 0.0
O11 O 0.32948 0.29389 0.16211 0.0
O12 O 0.27024 0.27997 0.12049 0.0
O13 O 0.40609 0.1716 0.10142 0.0
O14 O 0.39941 0.25064 0.12562 0.0
C15 C 0.24316 0.10792 0.14398 0.0
O16 O 0.23893 0.19453 0.09078 0.0
O17 O 0.31548 0.16602 0.07041 0.0
C18 C 0.29735 0.3117 0.13902 0.0
O19 O 0.2316 0.15314 0.15534 0.0
O20 O 0.27943 0.10108 0.12069 0.0
C21 C 0.39678 0.12685 0.17658 0.0
Fe22 Fe 0.56651 0.61652 0.41631 0.0
Fe23 Fe 0.5911 0.50413 0.39402 0.0
O24 O 0.60538 0.57159 0.39123 0.0
Fe25 Fe 0.6586 0.5947 0.36453 0.0
O26 O 0.69037 0.62283 0.40438 0.0
O27 O 0.62044 0.66473 0.42283 0.0
O28 O 0.58708 0.5877 0.4581 0.0
C29 C 0.57716 0.54058 0.4659 0.0
C30 C 0.57336 0.6683 0.35296 0.0
O31 O 0.5686 0.50713 0.44123 0.0
C32 C 0.61943 0.51702 0.31982 0.0
O33 O 0.50533 0.57643 0.41539 0.0
O34 O 0.52514 0.51512 0.37658 0.0
O35 O 0.62309 0.65766 0.35222 0.0
O36 O 0.54393 0.64655 0.37572 0.0
C37 C 0.69904 0.50269 0.3985 0.0
O38 O 0.61195 0.48876 0.3476 0.0
O39 O 0.63153 0.5654 0.32323 0.0
C40 C 0.49091 0.5397 0.39458 0.0
O41 O 0.65526 0.49021 0.41199 0.0
O42 O 0.70161 0.53601 0.37289 0.0
C43 C 0.66893 0.65319 0.42689 0.0
Fe44 Fe 0.28604 0.81847 0.63671 0.0
Fe45 Fe 0.19846 0.89532 0.61238 0.0
O46 O 0.2194 0.83914 0.63706 0.0
Fe47 Fe 0.17356 0.80382 0.66366 0.0
O48 O 0.20881 0.82005 0.70398 0.0
O49 O 0.28537 0.79314 0.68335 0.0
O50 O 0.30697 0.88011 0.65532 0.0
C51 C 0.29645 0.92542 0.64349 0.0
C52 C 0.24048 0.72239 0.63669 0.0
O53 O 0.26084 0.93249 0.61975 0.0
C54 C 0.11712 0.81754 0.60242 0.0
O55 O 0.29966 0.84083 0.59026 0.0
O56 O 0.22297 0.86884 0.56963 0.0
O57 O 0.20772 0.73975 0.65958 0.0
O58 O 0.26803 0.75448 0.61866 0.0
C59 C 0.14431 0.90837 0.67674 0.0
O60 O 0.13208 0.86584 0.60141 0.0
O61 O 0.13725 0.78587 0.62452 0.0
C62 C 0.27047 0.85456 0.56402 0.0
O63 O 0.17494 0.92757 0.65342 0.0
O64 O 0.13023 0.8607 0.67363 0.0
C65 C 0.25507 0.80379 0.70956 0.0
Fe66 Fe 0.97915 0.41179 0.91737 0.0
Fe67 Fe 0.96909 0.52472 0.89221 0.0
O68 O 0.94597 0.4597 0.8911 0.0
Fe69 Fe 0.88929 0.44239 0.86548 0.0
O70 O 0.85541 0.41889 0.90615 0.0
O71 O 0.92034 0.37036 0.9255 0.0
O72 O 0.96281 0.44545 0.95824 0.0
C73 C 0.97919 0.49118 0.96466 0.0
C74 C 0.96608 0.36073 0.85411 0.0
O75 O 0.99292 0.52139 0.93908 0.0
C76 C 0.93405 0.51409 0.81881 0.0
O77 O 0.04466 0.44377 0.91482 0.0
O78 O 0.03295 0.50527 0.87441 0.0
O79 O 0.9175 0.37585 0.85352 0.0
O80 O 0.99719 0.37738 0.87777 0.0
C81 C 0.86336 0.54288 0.89546 0.0
O82 O 0.9485 0.54105 0.84582 0.0
O83 O 0.91753 0.46726 0.82322 0.0
C84 C 0.06379 0.47653 0.8926 0.0
O85 O 0.90758 0.54623 0.91062 0.0
O86 O 0.85397 0.5063 0.87294 0.0
C87 C 0.87331 0.38679 0.92913 0.0
Fe88 Fe 0.6628 0.80602 0.90092 0.0
Fe89 Fe 0.77547 0.82468 0.92521 0.0
O90 O 0.70876 0.84335 0.92607 0.0
Fe91 Fe 0.68759 0.89825 0.95146 0.0
O92 O 0.66187 0.93003 0.91112 0.0
O93 O 0.61758 0.86215 0.89206 0.0
O94 O 0.69442 0.82377 0.85976 0.0
C95 C 0.74058 0.80902 0.85281 0.0
C96 C 0.61009 0.81771 0.96369 0.0
O97 O 0.7729 0.79899 0.87823 0.0
C98 C 0.76223 0.859 0.99826 0.0
O99 O 0.70008 0.7426 0.90389 0.0
O100 O 0.75803 0.76193 0.94492 0.0
O101 O 0.62262 0.86674 0.96365 0.0
O102 O 0.63006 0.78679 0.94117 0.0
C103 C 0.78409 0.93114 0.91852 0.0
O104 O 0.79107 0.84767 0.97135 0.0
O105 O 0.71417 0.87158 0.99348 0.0
C106 C 0.73519 0.72771 0.92614 0.0
O107 O 0.79432 0.88641 0.90571 0.0
O108 O 0.74901 0.93692 0.94288 0.0
C109 C 0.63135 0.90999 0.88818 0.0
Fe110 Fe 0.39405 0.44331 0.70221 0.0
Fe111 Fe 0.48843 0.4189 0.65357 0.0
O112 O 0.4512 0.46461 0.67872 0.0
Fe113 Fe 0.47105 0.53123 0.67891 0.0
O114 O 0.40961 0.55113 0.6589 0.0
O115 O 0.35622 0.50509 0.69371 0.0
O116 O 0.36361 0.41919 0.66063 0.0
C117 C 0.38447 0.3883 0.63824 0.0
C118 C 0.43284 0.51531 0.75106 0.0
O119 O 0.43232 0.37483 0.6429 0.0
C120 C 0.56823 0.48736 0.68127 0.0
O121 O 0.42415 0.37755 0.71427 0.0
O122 O 0.50544 0.38413 0.69346 0.0
O123 O 0.44671 0.54486 0.72502 0.0
O124 O 0.41881 0.46809 0.74519 0.0
C125 C 0.49056 0.49828 0.6067 0.0
O126 O 0.5521 0.45377 0.65863 0.0
O127 O 0.53479 0.51446 0.69843 0.0
C128 C 0.47305 0.36367 0.71483 0.0
O129 O 0.47317 0.45287 0.61274 0.0
O130 O 0.49847 0.53007 0.63255 0.0
C131 C 0.36377 0.54031 0.66981 0.0
Fe132 Fe 0.84808 0.14455 0.44909 0.0
Fe133 Fe 0.86596 0.23984 0.399 0.0
O134 O 0.82296 0.20144 0.42656 0.0
Fe135 Fe 0.75534 0.21947 0.43075 0.0
O136 O 0.731 0.15187 0.43347 0.0
O137 O 0.80125 0.10135 0.42624 0.0
O138 O 0.89527 0.1263 0.4125 0.0
C139 C 0.89411 0.13902 0.37933 0.0
C140 C 0.77364 0.1875 0.50036 0.0
O141 O 0.87851 0.18418 0.36996 0.0
C142 C 0.80959 0.31863 0.43031 0.0
O143 O 0.89669 0.1852 0.47365 0.0
O144 O 0.92446 0.22649 0.42563 0.0
O145 O 0.75953 0.22449 0.47955 0.0
O146 O 0.80385 0.15095 0.48883 0.0
C147 C 0.77315 0.23807 0.35914 0.0
O148 O 0.85505 0.29917 0.42523 0.0
O149 O 0.76825 0.29049 0.42812 0.0
C150 C 0.92708 0.21852 0.4589 0.0
O151 O 0.81586 0.26002 0.36736 0.0
O152 O 0.74505 0.21511 0.38233 0.0
C153 C 0.75201 0.10905 0.42367 0.0
Fe154 Fe 0.06879 0.50405 0.18125 0.0
Fe155 Fe 0.14669 0.59222 0.20301 0.0
O156 O 0.08971 0.57027 0.17951 0.0
Fe157 Fe 0.05347 0.61513 0.15255 0.0
O158 O 0.07033 0.57943 0.11259 0.0
O159 O 0.0442 0.50332 0.13449 0.0
O160 O 0.13038 0.48196 0.16318 0.0
C161 C 0.17645 0.49382 0.17298 0.0
C162 C 0.97213 0.54876 0.17975 0.0
O163 O 0.1849 0.53066 0.19541 0.0
C164 C 0.06631 0.67094 0.21387 0.0
O165 O 0.09103 0.49214 0.22786 0.0
O166 O 0.12243 0.56823 0.24653 0.0
O167 O 0.98983 0.58068 0.1566 0.0
O168 O 1.00433 0.52281 0.19886 0.0
C169 C 0.15696 0.64549 0.13801 0.0
O170 O 0.11547 0.65775 0.21411 0.0
O171 O 0.03498 0.65116 0.19146 0.0
C172 C 0.10706 0.52158 0.25317 0.0
O173 O 0.17758 0.61537 0.16108 0.0
O174 O 0.10937 0.65928 0.14247 0.0
C175 C 0.05532 0.53269 0.10784 0.0
Fe176 Fe 0.86366 0.74074 0.6685 0.0
Fe177 Fe 0.75273 0.71904 0.63753 0.0
O178 O 0.82064 0.70164 0.64146 0.0
Fe179 Fe 0.84582 0.64467 0.61916 0.0
O180 O 0.89346 0.62671 0.65564 0.0
O181 O 0.87788 0.68533 0.69769 0.0
O182 O 0.81393 0.75999 0.70055 0.0
C183 C 0.7711 0.73835 0.70894 0.0
C184 C 0.92427 0.71921 0.60814 0.0
O185 O 0.74302 0.71472 0.68606 0.0
C186 C 0.77119 0.68765 0.56785 0.0
O187 O 0.8512 0.80001 0.64235 0.0
O188 O 0.76463 0.79001 0.63987 0.0
O189 O 0.89417 0.68501 0.59418 0.0
O190 O 0.9218 0.72866 0.64123 0.0
C191 C 0.75009 0.60874 0.645 0.0
O192 O 0.75648 0.7242 0.5887 0.0
O193 O 0.80136 0.65101 0.57947 0.0
C194 C 0.80542 0.8187 0.63727 0.0
O195 O 0.72892 0.65142 0.63501 0.0
O196 O 0.79935 0.60127 0.64235 0.0
C197 C 0.89338 0.64004 0.68866 0.0
Fe198 Fe 0.06811 1.00345 0.88721 0.0
Fe199 Fe 0.14417 0.09095 0.86167 0.0
O200 O 0.08891 0.0698 0.88719 0.0
Fe201 Fe 0.05465 0.1154 0.91453 0.0
O202 O 0.07399 0.08044 0.95425 0.0
O203 O 0.04551 1.00422 0.93452 0.0
O204 O 0.13084 0.98217 0.90439 0.0
C205 C 0.17594 0.99283 0.8921 0.0
C206 C 0.97172 0.04908 0.88972 0.0
O207 O 0.18257 0.02934 0.869 0.0
C208 C 0.06325 0.16919 0.85179 0.0
O209 O 0.08832 0.98992 0.84022 0.0
O210 O 0.1169 0.06598 0.81945 0.0
O211 O 0.99069 0.08112 0.9123 0.0
O212 O 1.00271 0.02163 0.87071 0.0
C213 C 0.15913 0.14536 0.92571 0.0
O214 O 0.1124 0.1562 0.85037 0.0
O215 O 0.0338 0.15085 0.87588 0.0
C216 C 0.1026 0.01877 0.81397 0.0
O217 O 0.17783 0.11495 0.9022 0.0
O218 O 0.11133 0.15946 0.92275 0.0
C219 C 0.05873 0.03419 0.96033 0.0
Fe220 Fe 0.66339 0.30429 0.16671 0.0
Fe221 Fe 0.77698 0.31636 0.14157 0.0
O222 O 0.71094 0.33842 0.14078 0.0
Fe223 Fe 0.69174 0.39468 0.11561 0.0
O224 O 0.66798 0.42779 0.15635 0.0
O225 O 0.62063 0.36205 0.17467 0.0
O226 O 0.69669 0.32133 0.20735 0.0
C227 C 0.74221 0.3044 0.21423 0.0
C228 C 0.61195 0.31669 0.10343 0.0
O229 O 0.77378 0.29223 0.18885 0.0
C230 C 0.76392 0.35204 0.06822 0.0
O231 O 0.69669 0.23955 0.16434 0.0
O232 O 0.75787 0.25259 0.12381 0.0
O233 O 0.62559 0.36547 0.10346 0.0
O234 O 0.62933 0.28576 0.12699 0.0
C235 C 0.78998 0.42322 0.14744 0.0
O236 O 0.79241 0.33744 0.09474 0.0
O237 O 0.71679 0.36743 0.07348 0.0
C238 C 0.72911 0.22132 0.14158 0.0
O239 O 0.79902 0.37789 0.15982 0.0
O240 O 0.75444 0.43085 0.12371 0.0
C241 C 0.63682 0.40872 0.17932 0.0
Fe242 Fe 0.48756 0.92309 0.41437 0.0
Fe243 Fe 0.47035 0.03453 0.38671 0.0
O244 O 0.45162 0.96757 0.38709 0.0
Fe245 Fe 0.39642 0.94516 0.36189 0.0
O246 O 0.3635 0.92139 0.40264 0.0
O247 O 0.43118 0.87906 0.42438 0.0
O248 O 0.46966 0.95847 0.45421 0.0
C249 C 0.48524 1.00472 0.45963 0.0
C250 C 0.47688 0.86562 0.35343 0.0
O251 O 0.49531 0.03495 0.43335 0.0
C252 C 0.43711 1.01741 0.31386 0.0
O253 O 0.55111 0.95842 0.41016 0.0
O254 O 0.53554 0.01852 0.36917 0.0
O255 O 0.42811 0.87965 0.35155 0.0
O256 O 0.50736 0.88652 0.37586 0.0
C257 C 0.3625 0.0421 0.39234 0.0
O258 O 0.44833 0.04709 0.3402 0.0
O259 O 0.42346 0.9699 0.31931 0.0
C260 C 0.56812 0.99145 0.38728 0.0
O261 O 0.40733 0.05353 0.40487 0.0
O262 O 0.3572 1.00642 0.36859 0.0
C263 C 0.38287 0.89212 0.42669 0.0
Fe264 Fe 0.16939 0.30577 0.40276 0.0
Fe265 Fe 0.2833 0.3144 0.42745 0.0
O266 O 0.21806 0.3381 0.42873 0.0
Fe267 Fe 0.20101 0.39444 0.4545 0.0
O268 O 0.17839 0.42905 0.41397 0.0
O269 O 0.12855 0.36521 0.39484 0.0
O270 O 0.20298 0.32178 0.36172 0.0
C271 C 0.2487 0.30506 0.35488 0.0
C272 C 0.11718 0.32008 0.46545 0.0
O273 O 0.27965 0.29154 0.38024 0.0
C274 C 0.27213 0.34816 0.50114 0.0
O275 O 0.2009 0.24003 0.40484 0.0
O276 O 0.2632 0.25066 0.44481 0.0
O277 O 0.1334 0.36799 0.4658 0.0
O278 O 0.13473 0.28806 0.4427 0.0
C279 C 0.30196 0.41978 0.42482 0.0
O280 O 0.29946 0.3339 0.47415 0.0
O281 O 0.22518 0.36508 0.49661 0.0
C282 C 0.2344 0.22037 0.42641 0.0
O283 O 0.30614 0.37584 0.40959 0.0
O284 O 0.26548 0.42847 0.4476 0.0
C285 C 0.14557 0.41193 0.39127 0.0
Fe286 Fe 0.96046 0.03216 0.17477 0.0
Fe287 Fe 0.88745 0.94322 0.20138 0.0
O288 O 0.94177 0.96536 0.17518 0.0
Fe289 Fe 0.97702 0.92064 0.14768 0.0
O290 O 0.95742 0.95532 0.10771 0.0
O291 O 0.98364 0.0319 0.12783 0.0
O292 O 0.89698 0.0511 0.15743 0.0
C293 C 0.85237 0.0393 0.17015 0.0
C294 C 0.05806 0.98848 0.17329 0.0
O295 O 0.84761 1.00408 0.19437 0.0
C296 C 0.96923 0.86531 0.21001 0.0
O297 O 0.94008 0.04545 0.22139 0.0
O298 O 0.91534 0.96888 0.24346 0.0
O299 O 0.04052 0.95612 0.15032 0.0
O300 O 0.02606 1.01593 0.1915 0.0
C301 C 0.87274 0.88959 0.13698 0.0
O302 O 0.92023 0.87841 0.21224 0.0
O303 O 0.9984 0.88505 0.18628 0.0
C304 C 0.92913 1.01647 0.24821 0.0
O305 O 0.85364 0.91866 0.16115 0.0
O306 O 0.92082 0.87613 0.13937 0.0
C307 C 0.97264 1.00163 0.10183 0.0
Fe308 Fe 0.34101 0.63747 0.9534 0.0
Fe309 Fe 0.36593 0.72568 0.89955 0.0
O310 O 0.31971 0.69121 0.92643 0.0
Fe311 Fe 0.25265 0.71003 0.92461 0.0
O312 O 0.23405 0.64634 0.90794 0.0
O313 O 0.28028 0.59797 0.946 0.0
O314 O 0.36704 0.60319 0.91378 0.0
C315 C 0.39772 0.6219 0.89033 0.0
C316 C 0.26588 0.6798 0.99889 0.0
O317 O 0.41136 0.66964 0.89309 0.0
C318 C 0.29612 0.80715 0.92196 0.0
O319 O 0.40555 0.67017 0.96501 0.0
O320 O 0.3993 0.74791 0.93876 0.0
O321 O 0.23765 0.69105 0.97161 0.0
O322 O 0.31379 0.66586 0.99477 0.0
C323 C 0.2868 0.71914 0.85196 0.0
O324 O 0.33 0.78875 0.90032 0.0
O325 O 0.26815 0.77601 0.9405 0.0
C326 C 0.41775 0.71921 0.96326 0.0
O327 O 0.33332 0.70512 0.85913 0.0
O328 O 0.25503 0.73145 0.87706 0.0
C329 C 0.24508 0.60233 0.92171 0.0
Fe330 Fe 0.562 0.11566 0.64862 0.0
Fe331 Fe 0.58059 1.00319 0.67391 0.0
O332 O 0.59797 0.07035 0.67534 0.0
Fe333 Fe 0.65164 0.09264 0.70185 0.0
O334 O 0.68518 0.11899 0.66192 0.0
O335 O 0.61716 0.16214 0.64185 0.0
O336 O 0.58324 0.08358 0.60827 0.0
C337 C 0.57047 0.03689 0.60135 0.0
C338 C 0.56805 0.16808 0.71181 0.0
O339 O 0.55862 1.00516 0.62656 0.0
C340 C 0.60989 0.01762 0.74783 0.0
O341 O 0.49945 0.07846 0.64976 0.0
O342 O 0.5144 1.01752 0.69025 0.0
O343 O 0.61753 0.1565 0.71334 0.0
O344 O 0.53919 0.14851 0.68787 0.0
C345 C 0.689 0.99849 0.66966 0.0
O346 O 0.6002 0.98863 0.72082 0.0
O347 O 0.62341 0.06536 0.74326 0.0
C348 C 0.4822 0.04502 0.67216 0.0
O349 O 0.64469 0.9859 0.65688 0.0
O350 O 0.69279 0.03279 0.69444 0.0
C351 C 0.66543 0.14971 0.63886 0.0
C352 C 0.2997 0.2249 0.27678 0.0
C353 C 0.27136 0.24585 0.24745 0.0
C354 C 0.2939 0.24574 0.31127 0.0
C355 C 0.25947 0.28826 0.31773 0.0
H356 H 0.3268 0.19217 0.27303 0.0
H357 H 0.31557 0.22744 0.33313 0.0
S358 S 0.17898 0.35991 0.24978 0.0
N359 N 0.2093 0.31309 0.22691 0.0
N360 N 0.19853 0.35238 0.29177 0.0
C361 C 0.23144 0.31012 0.28858 0.0
C362 C 0.23716 0.28876 0.25347 0.0
C363 C 0.52455 0.56016 0.56 0.0
C364 C 0.51432 0.50834 0.57119 0.0
C365 C 0.54739 0.5702 0.52649 0.0
C366 C 0.56089 0.52869 0.50302 0.0
H367 H 0.51392 0.59323 0.57692 0.0
H368 H 0.55282 0.61098 0.51855 0.0
S369 S 0.54976 0.38563 0.52192 0.0
N370 N 0.52467 0.41459 0.55769 0.0
N371 N 0.56766 0.43395 0.49484 0.0
C372 C 0.55336 0.47666 0.51464 0.0
C373 C 0.52995 0.46634 0.54864 0.0
C374 C 0.23716 0.80238 0.77505 0.0
C375 C 0.2667 0.7834 0.74575 0.0
C376 C 0.24181 0.77951 0.80903 0.0
C377 C 0.27636 0.73691 0.81501 0.0
H378 H 0.20995 0.83514 0.7717 0.0
H379 H 0.21932 0.79647 0.83093 0.0
S380 S 0.3607 0.67066 0.74704 0.0
N381 N 0.33059 0.71838 0.72473 0.0
N382 N 0.33922 0.67521 0.78876 0.0
C383 C 0.30577 0.7171 0.78592 0.0
C384 C 0.30119 0.74055 0.7513 0.0
C385 C 0.03773 0.53827 1.00752 0.0
C386 C 0.99572 0.50308 1.00159 0.0
C387 C 0.05818 0.54582 0.04192 0.0
C388 C 0.03724 0.51861 0.07163 0.0
H389 H 0.0559 0.55928 0.98536 0.0
H390 H 0.09054 0.57345 0.04527 0.0
S391 S 0.92468 0.42456 0.07062 0.0
N392 N 0.93223 0.4424 1.0283 0.0
N393 N 0.97083 0.45654 0.09314 0.0
C394 C 0.99492 0.48356 0.06615 0.0
C395 C 0.97397 0.476 1.03109 0.0
C396 C 0.72041 0.81261 0.78761 0.0
C397 C 0.7493 0.78959 0.81605 0.0
C398 C 0.72288 0.79202 0.75285 0.0
C399 C 0.75352 0.74722 0.74559 0.0
H400 H 0.69631 0.84738 0.79215 0.0
H401 H 0.70305 0.81286 0.73123 0.0
S402 S 0.83401 0.67027 0.81028 0.0
N403 N 0.80779 0.71815 0.83448 0.0
N404 N 0.81209 0.67946 0.76897 0.0
C405 C 0.78132 0.72293 0.77372 0.0
C406 C 0.77943 0.74418 0.80902 0.0
C407 C 0.72169 0.30935 0.27928 0.0
C408 C 0.7507 0.28571 0.25122 0.0
C409 C 0.7244 0.28986 0.31435 0.0
C410 C 0.75559 0.24571 0.32235 0.0
H411 H 0.69736 0.34384 0.27423 0.0
H412 H 0.70437 0.31114 0.3356 0.0
S413 S 0.83654 0.1674 0.25893 0.0
N414 N 0.80987 0.21429 0.23389 0.0
N415 N 0.81458 0.17761 0.30008 0.0
C416 C 0.78344 0.22067 0.29461 0.0
C417 C 0.78125 0.24077 0.25895 0.0
C418 C 0.97395 0.98442 0.03629 0.0
C419 C 0.99331 1.0131 0.06579 0.0
C420 C 0.99723 0.98915 1.00245 0.0
C421 C 0.04072 0.02271 0.99699 0.0
H422 H 0.94055 0.95797 0.03938 0.0
H423 H 0.97991 0.96763 0.98026 0.0
S424 S 0.10861 0.10391 0.06585 0.0
N425 N 0.05976 0.07485 0.08762 0.0
N426 N 0.10401 0.08314 1.02403 0.0
C427 C 0.06114 0.05086 1.02639 0.0
C428 C 0.03714 0.04646 0.06076 0.0
C429 C 0.48672 0.98747 0.52508 0.0
C430 C 0.50596 1.01646 0.4956 0.0
C431 C 0.50978 0.99212 0.55894 0.0
C432 C 0.55285 0.02609 0.56457 0.0
H433 H 0.45361 0.96068 0.52194 0.0
H434 H 0.4926 0.97014 0.58102 0.0
S435 S 0.62007 0.1088 0.49608 0.0
N436 N 0.57192 0.07907 0.474 0.0
N437 N 0.61531 0.08785 0.53794 0.0
C438 C 0.57301 0.0549 0.53532 0.0
C439 C 0.5494 0.0503 0.50078 0.0
C440 C 0.16785 0.18972 0.98669 0.0
C441 C 0.19086 0.15953 0.95891 0.0
C442 C 0.1937 0.19766 1.01996 0.0
C443 C 0.24414 0.17596 1.02745 0.0
H444 H 0.12856 0.20616 0.98324 0.0
H445 H 0.17316 0.22013 0.04037 0.0
S446 S 0.32326 0.0952 0.96367 0.0
N447 N 0.2686 0.10912 0.94123 0.0
N448 N 0.31676 0.12407 1.00311 0.0
C449 C 0.26843 0.14712 0.99948 0.0
C450 C 0.24202 0.13891 0.96559 0.0
C451 C 0.64111 0.51581 0.25281 0.0
C452 C 0.6189 0.49089 0.28322 0.0
C453 C 0.64476 0.48999 0.21919 0.0
C454 C 0.62578 0.43806 0.21395 0.0
H455 H 0.65739 0.55514 0.25517 0.0
H456 H 0.66391 0.51065 0.19729 0.0
S457 S 0.56102 0.35584 0.2841 0.0
N458 N 0.57542 0.41135 0.30497 0.0
N459 N 0.58179 0.3637 0.24245 0.0
C460 C 0.60177 0.41342 0.24382 0.0
C461 C 0.5985 0.43946 0.2781 0.0
C462 C 0.347 0.84016 0.52081 0.0
C463 C 0.2953 0.85961 0.52711 0.0
C464 C 0.37379 0.84868 0.48799 0.0
C465 C 0.35052 0.87724 0.45946 0.0
H466 H 0.3678 0.81897 0.54182 0.0
H467 H 0.4139 0.83396 0.48547 0.0
S468 S 0.2151 0.93549 0.46099 0.0
N469 N 0.22134 0.90764 0.50088 0.0
N470 N 0.27122 0.92373 0.43973 0.0
C471 C 0.29818 0.89564 0.46493 0.0
C472 C 0.27082 0.88682 0.49841 0.0
C473 C 0.93786 0.6246 0.74825 0.0
C474 C 0.91168 0.60351 0.71811 0.0
C475 C 0.94714 0.59451 0.77948 0.0
C476 C 0.92995 0.54167 0.78275 0.0
H477 H 0.94987 0.66562 0.7482 0.0
H478 H 0.96628 0.6139 0.80187 0.0
S479 S 0.86059 0.46673 0.71103 0.0
N480 N 0.87028 0.52554 0.693 0.0
N481 N 0.88681 0.46908 0.75166 0.0
C482 C 0.90533 0.51933 0.75223 0.0
C483 C 0.89645 0.5501 0.72007 0.0
C484 C 0.86493 0.84985 0.07461 0.0
C485 C 0.84104 0.87666 0.10362 0.0
C486 C 0.83882 0.8433 0.04133 0.0
C487 C 0.78721 0.86296 0.03513 0.0
H488 H 0.90499 0.83499 0.07716 0.0
H489 H 0.8599 0.82329 1.02 0.0
S490 S 0.706 0.93562 0.10211 0.0
N491 N 0.76165 0.92244 0.12363 0.0
N492 N 0.71291 0.90988 0.06172 0.0
C493 C 0.76226 0.88871 0.06419 0.0
C494 C 0.78896 0.8956 0.09808 0.0
C495 C 0.44309 0.61333 0.82968 0.0
C496 C 0.41189 0.59058 0.8571 0.0
C497 C 0.45086 0.58813 0.79626 0.0
C498 C 0.42794 0.5387 0.7883 0.0
H499 H 0.46047 0.65193 0.83354 0.0
H500 H 0.47423 0.60837 0.77614 0.0
S501 S 0.344 0.46072 0.85092 0.0
N502 N 0.35908 0.51422 0.87391 0.0
N503 N 0.37371 0.46727 0.8117 0.0
C504 C 0.39804 0.51464 0.81588 0.0
C505 C 0.39002 0.54036 0.84994 0.0
C506 C 0.76593 0.14316 0.56149 0.0
C507 C 0.74914 0.18291 0.53737 0.0
C508 C 0.74047 0.13462 0.5948 0.0
C509 C 0.6964 0.16497 0.60573 0.0
H510 H 0.79847 0.11739 0.5543 0.0
H511 H 0.75432 0.10237 0.61149 0.0
S512 S 0.63767 0.276 0.55393 0.0
N513 N 0.68643 0.25479 0.5282 0.0
N514 N 0.63858 0.23813 0.59003 0.0
C515 C 0.67999 0.20575 0.58239 0.0
C516 C 0.70627 0.21488 0.54861 0.0
C517 C 0.09771 0.42297 0.33169 0.0
C518 C 0.13095 0.44429 0.35847 0.0
C519 C 0.0889 0.44905 0.29865 0.0
C520 C 0.11264 0.49808 0.29042 0.0
H521 H 0.0795 0.38476 0.33571 0.0
H522 H 0.06406 0.42971 0.27897 0.0
S523 S 0.20161 0.57265 0.35152 0.0
N524 N 0.18646 0.51902 0.37453 0.0
N525 N 0.16977 0.56768 0.31295 0.0
C526 C 0.14453 0.52082 0.31742 0.0
C527 C 0.15369 0.49413 0.35111 0.0
C528 C 0.76621 0.64537 0.50611 0.0
C529 C 0.74787 0.68394 0.53044 0.0
C530 C 0.74221 0.63774 0.47224 0.0
C531 C 0.69808 0.66783 0.46088 0.0
H532 H 0.7989 0.61987 0.51353 0.0
H533 H 0.75729 0.60636 0.4554 0.0
S534 S 0.63578 0.77614 0.51302 0.0
N535 N 0.68383 0.75466 0.53937 0.0
N536 N 0.63859 0.73956 0.47645 0.0
C537 C 0.68013 0.70748 0.48444 0.0
C538 C 0.70498 0.71574 0.51883 0.0
C539 C 0.08938 0.94285 0.77031 0.0
C540 C 0.10864 0.99421 0.77711 0.0
C541 C 0.09899 0.91659 0.73748 0.0
C542 C 0.1286 0.94005 0.70953 0.0
H543 H 0.06749 0.92197 0.79089 0.0
H544 H 0.08427 0.87673 0.7345 0.0
S545 S 0.1874 0.07449 0.71273 0.0
N546 N 0.15802 0.06792 0.75206 0.0
N547 N 0.17617 0.01895 0.69101 0.0
C548 C 0.14701 0.99195 0.71557 0.0
C549 C 0.13704 0.0188 0.749 0.0
C550 C 0.8385 0.33444 1.02362 0.0
C551 C 0.78838 0.35672 1.03111 0.0
C552 C 0.86432 0.34222 0.99027 0.0
C553 C 0.84163 0.37292 0.96247 0.0
H554 H 0.85876 0.31156 0.04403 0.0
H555 H 0.90338 0.32528 0.98679 0.0
S556 S 0.7101 0.43887 0.96727 0.0
N557 N 0.71638 0.40972 1.00671 0.0
N558 N 0.76452 0.4244 0.94482 0.0
C559 C 0.79082 0.39419 0.96921 0.0
C560 C 0.76443 0.3861 1.00312 0.0
C561 C 0.38979 0.04673 0.21756 0.0
C562 C 0.41371 0.0957 0.20929 0.0
C563 C 0.39934 0.02036 0.25048 0.0
C564 C 0.43305 0.04175 0.27693 0.0
H565 H 0.36176 0.0294 0.19901 0.0
H566 H 0.37829 0.98398 0.2558 0.0
S567 S 0.51046 0.16573 0.26745 0.0
N568 N 0.4764 0.16197 0.22971 0.0
N569 N 0.49402 0.11296 0.29095 0.0
C570 C 0.45911 0.0894 0.26831 0.0
C571 C 0.44957 0.11611 0.23481 0.0
C572 C 0.30203 0.38997 0.59871 0.0
C573 C 0.35416 0.37155 0.60499 0.0
C574 C 0.2751 0.38049 0.56598 0.0
C575 C 0.29885 0.35229 0.53755 0.0
H576 H 0.28214 0.41342 0.6189 0.0
H577 H 0.23585 0.39706 0.5626 0.0
S578 S 0.43343 0.29211 0.54056 0.0
N579 N 0.42723 0.32103 0.57998 0.0
N580 N 0.37731 0.30344 0.51913 0.0
C581 C 0.3503 0.33206 0.54394 0.0
C582 C 0.37763 0.34157 0.5773 0.0
C583 C 0.94876 0.0929 0.28941 0.0
C584 C 0.92681 0.04211 0.28478 0.0
C585 C 0.94092 0.12223 0.32103 0.0
C586 C 0.91157 0.10216 0.35014 0.0
H587 H 0.97054 0.11142 0.26775 0.0
H588 H 0.95638 0.16205 0.32213 0.0
S589 S 0.8475 0.97062 0.35341 0.0
N590 N 0.87576 0.97237 0.31341 0.0
N591 N 0.86195 0.02732 0.37286 0.0
C592 C 0.89168 0.05048 0.34688 0.0
C593 C 0.89912 0.02057 0.31434 0.0
C594 C 0.23834 0.64126 0.09754 0.0
C595 C 0.18661 0.66042 0.10408 0.0
C596 C 0.26437 0.64933 0.06428 0.0
C597 C 0.23996 0.67664 0.03556 0.0
H598 H 0.25859 0.61842 0.11798 0.0
H599 H 0.30341 0.63238 0.06073 0.0
S600 S 0.10603 0.73792 0.03894 0.0
N601 N 0.11318 0.71052 0.07888 0.0
N602 N 0.16142 0.72531 1.01707 0.0
C603 C 0.18888 0.69741 0.04213 0.0
C604 C 0.16252 0.68945 0.07602 0.0
C605 C 0.59476 0.93988 0.78993 0.0
C606 C 0.61026 0.99303 0.78494 0.0
C607 C 0.59879 0.91429 0.82361 0.0
C608 C 0.61871 0.94034 0.8542 0.0
H609 H 0.58047 0.91713 0.76736 0.0
H610 H 0.58809 0.873 0.82524 0.0
S611 S 0.66172 0.08069 0.85682 0.0
N612 N 0.64387 0.07144 0.81467 0.0
N613 N 0.65157 0.02383 0.87735 0.0
C614 C 0.63256 0.99406 0.84993 0.0
C615 C 0.62831 0.02016 0.81564 0.0
C616 C 0.46955 0.29897 0.08148 0.0
C617 C 0.46592 0.24321 0.08379 0.0
C618 C 0.51872 0.32482 0.08191 0.0
C619 C 0.56571 0.29557 0.08349 0.0
H620 H 0.43424 0.32299 0.08427 0.0
H621 H 0.51948 0.36716 0.08574 0.0
S622 S 0.57797 0.14998 0.07529 0.0
N623 N 0.51349 0.16053 0.07783 0.0
N624 N 0.60591 0.20885 0.07607 0.0
C625 C 0.56241 0.24041 0.07794 0.0
C626 C 0.51238 0.21409 0.0787 0.0
C627 C 0.5796 0.76269 0.33349 0.0
C628 C 0.54986 0.71619 0.33595 0.0
C629 C 0.55435 0.81214 0.33348 0.0
C630 C 0.49858 0.8169 0.33658 0.0
H631 H 0.62236 0.76132 0.33578 0.0
H632 H 0.57909 0.84695 0.33521 0.0
S633 S 0.40296 0.70661 0.33245 0.0
N634 N 0.46164 0.67771 0.33202 0.0
N635 N 0.41468 0.77067 0.33378 0.0
C636 C 0.46848 0.77084 0.33326 0.0
C637 C 0.49412 0.72044 0.33254 0.0
C638 C 1.01416 0.71709 0.58106 0.0
C639 C 0.96767 0.74537 0.58822 0.0
C640 C 0.06322 0.7431 0.5793 0.0
C641 C 0.06752 0.79802 0.58559 0.0
H642 H 1.01361 0.67435 0.58112 0.0
H643 H 0.09868 0.71908 0.57764 0.0
S644 S 0.95529 0.89091 0.5952 0.0
N645 N 0.92731 0.83216 0.59285 0.0
N646 N 1.01966 0.88058 0.59137 0.0
C647 C 0.02055 0.82736 0.58721 0.0
C648 C 0.97053 0.80096 0.58833 0.0
C649 C 0.04281 0.31105 0.8298 0.0
C650 C 0.98709 0.31458 0.83406 0.0
C651 C 0.06903 0.26212 0.8297 0.0
C652 C 0.04007 0.21528 0.83266 0.0
H653 H 0.06689 0.34631 0.83167 0.0
H654 H 0.1118 0.26149 0.83204 0.0
S655 S 0.89344 0.20283 0.82972 0.0
N656 N 0.90395 0.26709 0.83145 0.0
N657 N 0.95265 0.17506 0.82855 0.0
C658 C 0.98428 0.21843 0.82901 0.0
C659 C 0.95771 0.26823 0.83033 0.0
C660 C 0.55961 0.74041 0.98639 0.0
C661 C 0.56286 0.79595 0.98235 0.0
C662 C 0.51069 0.71413 0.98594 0.0
C663 C 0.46351 0.74278 0.98243 0.0
H664 H 0.59524 0.71659 0.98504 0.0
H665 H 0.51044 0.67153 0.98368 0.0
S666 S 0.44973 0.88869 0.98521 0.0
N667 N 0.51437 0.87854 0.98445 0.0
N668 N 0.42229 0.82958 0.98584 0.0
C669 C 0.4661 0.79831 0.98597 0.0
C670 C 0.51593 0.82498 0.98543 0.0
C671 C 0.54858 0.30957 0.73703 0.0
C672 C 0.49307 0.31467 0.73228 0.0
C673 C 0.57382 0.26018 0.73562 0.0
C674 C 0.54413 0.2142 0.73043 0.0
H675 H 0.5734 0.34442 0.73715 0.0
H676 H 0.61666 0.25889 0.73426 0.0
S677 S 0.39717 0.20454 0.73048 0.0
N678 N 0.40898 0.26859 0.73158 0.0
N679 N 0.45578 0.17552 0.73127 0.0
C680 C 0.48827 0.21818 0.73296 0.0
C681 C 0.46272 0.26857 0.7334 0.0
C682 C 0.02056 0.32966 0.47569 0.0
C683 C 0.06764 0.30227 0.48301 0.0
C684 C 0.97217 0.30252 0.4733 0.0
C685 C 0.96925 0.24733 0.47831 0.0
H686 H 0.02199 0.37043 0.46696 0.0
H687 H 0.93801 0.32401 0.4635 0.0
S688 S 0.07916 0.16048 0.50697 0.0
N689 N 0.10661 0.21928 0.50263 0.0
N690 N 1.0157 0.16853 0.49751 0.0
C691 C 1.01442 0.22125 0.49095 0.0
C692 C 0.06364 0.24885 0.49362 0.0
C693 C 0.07464 0.76569 0.23088 0.0
C694 C 0.04518 0.71896 0.23164 0.0
C695 C 0.04884 0.8148 0.22977 0.0
C696 C 0.99282 0.8187 0.22848 0.0
H697 H 0.11706 0.76437 0.22659 0.0
H698 H 0.07299 0.84955 0.22544 0.0
S699 S 0.89918 0.70839 0.24208 0.0
N700 N 0.95816 0.68012 0.24138 0.0
N701 N 0.90988 0.77228 0.23721 0.0
C702 C 0.96362 0.77295 0.23547 0.0
C703 C 0.98992 0.72303 0.23755 0.0
C704 C 0.2875 0.39446 0.17515 0.0
C705 C 0.27866 0.36684 0.14275 0.0
C706 C 0.2579 0.43963 0.18381 0.0
C707 C 0.21894 0.45856 0.16022 0.0
H708 H 0.314 0.37865 0.19538 0.0
H709 H 0.26224 0.45675 0.21027 0.0
S710 S 0.18913 0.40787 0.06909 0.0
N711 N 0.23468 0.36724 0.08481 0.0
N712 N 0.17963 0.45227 0.10076 0.0
C713 C 0.2144 0.43509 0.12612 0.0
C714 C 0.24415 0.38916 0.11744 0.0
C715 C 0.34556 0.50726 0.41163 0.0
C716 C 0.34886 0.45397 0.42205 0.0
C717 C 0.39178 0.5358 0.40287 0.0
C718 C 0.44183 0.51113 0.40348 0.0
H719 H 0.30726 0.5262 0.40899 0.0
H720 H 0.38829 0.57665 0.39459 0.0
S721 S 0.47126 0.37456 0.43382 0.0
N722 N 0.40635 0.38003 0.43679 0.0
N723 N 0.49194 0.43207 0.41859 0.0
C724 C 0.4453 0.45861 0.41535 0.0
C725 C 0.39907 0.43046 0.42511 0.0
C726 C 0.25294 0.64025 0.6734 0.0
C727 C 0.25972 0.66727 0.64048 0.0
C728 C 0.2832 0.59534 0.68186 0.0
C729 C 0.32097 0.57597 0.6576 0.0
H730 H 0.22755 0.65636 0.6941 0.0
H731 H 0.28026 0.57868 0.70859 0.0
S732 S 0.34409 0.62385 0.56466 0.0
N733 N 0.2999 0.66522 0.58125 0.0
N734 N 0.35622 0.58071 0.59691 0.0
C735 C 0.32343 0.59878 0.62311 0.0
C736 C 0.29294 0.64447 0.61459 0.0
C737 C 0.14231 0.52627 0.87045 0.0
C738 C 0.11913 0.49484 0.89727 0.0
C739 C 0.18677 0.55728 0.87782 0.0
C740 C 0.20965 0.55818 0.9123 0.0
H741 H 0.12375 0.52986 0.84432 0.0
H742 H 0.20112 0.58356 0.85701 0.0
S743 S 0.16907 0.47753 0.99036 0.0
N744 N 0.12672 0.46145 0.95849 0.0
N745 N 0.21 0.52064 0.9722 0.0
C746 C 0.19036 0.52311 0.93828 0.0
C747 C 0.14509 0.49117 0.93078 0.0
C748 C 0.74203 0.63052 0.91086 0.0
C749 C 0.76614 0.67953 0.91805 0.0
C750 C 0.77291 0.5857 0.90227 0.0
C751 C 0.82843 0.58937 0.89986 0.0
H752 H 0.69939 0.62664 0.91259 0.0
H753 H 0.75353 0.54804 0.89842 0.0
S754 S 0.90929 0.71122 0.90896 0.0
N755 N 0.84831 0.7298 0.91821 0.0
N756 N 0.905 0.64776 0.90012 0.0
C757 C 0.85218 0.6391 0.9047 0.0
C758 C 0.82144 0.68359 0.91438 0.0
C759 C 0.6832 0.58152 0.68956 0.0
C760 C 0.71473 0.56816 0.65988 0.0
C761 C 0.63872 0.55155 0.69882 0.0
C762 C 0.62346 0.50757 0.67825 0.0
H763 H 0.69104 0.61742 0.70437 0.0
H764 H 0.61395 0.56549 0.72057 0.0
S765 S 0.69831 0.45207 0.60102 0.0
N766 N 0.73218 0.50509 0.61259 0.0
N767 N 0.64845 0.44818 0.62957 0.0
C768 C 0.65791 0.49097 0.65052 0.0
C769 C 0.70351 0.52157 0.64131 0.0
C770 C 0.80519 0.39896 0.39247 0.0
C771 C 0.80156 0.37589 0.42687 0.0
C772 C 0.77691 0.44524 0.38392 0.0
C773 C 0.74449 0.46957 0.40969 0.0
H774 H 0.82504 0.37801 0.371 0.0
H775 H 0.77589 0.45842 0.35625 0.0
S776 S 0.73056 0.43032 0.50525 0.0
N777 N 0.76937 0.38462 0.48776 0.0
N778 N 0.71805 0.47248 0.47246 0.0
C779 C 0.74629 0.45046 0.44525 0.0
C780 C 0.77423 0.40317 0.45366 0.0
C781 C 0.85352 0.46033 0.1916 0.0
C782 C 0.8271 0.46533 0.15842 0.0
C783 C 0.89775 0.49114 0.19984 0.0
C784 C 0.91738 0.52834 0.17525 0.0
H785 H 0.8418 0.43011 0.21062 0.0
H786 H 0.91866 0.48328 0.2247 0.0
S787 S 0.85676 0.56295 0.08711 0.0
N788 N 0.81932 0.51482 0.10281 0.0
N789 N 0.90211 0.57361 0.11818 0.0
C790 C 0.88791 0.53758 0.14349 0.0
C791 C 0.84283 0.50584 0.13508 0.0
C792 C 0.79964 0.89892 0.6746 0.0
C793 C 0.79622 0.87575 0.64031 0.0
C794 C 0.76912 0.94353 0.68342 0.0
C795 C 0.73454 0.96599 0.65806 0.0
H796 H 0.82113 0.87897 0.69587 0.0
H797 H 0.76843 0.9568 0.71104 0.0
S798 S 0.72066 0.9269 0.56257 0.0
N799 N 0.7623 0.88324 0.57969 0.0
N800 N 0.70637 0.9679 0.59559 0.0
C801 C 0.7363 0.94716 0.62252 0.0
C802 C 0.76677 0.90167 0.61378 0.0
C803 C 0.84599 0.9718 0.87479 0.0
C804 C 0.82154 0.97358 0.90879 0.0
C805 C 0.89246 0.99999 0.86768 0.0
C806 C 0.91606 0.03141 0.89422 0.0
H807 H 0.83115 0.94543 0.85426 0.0
H808 H 0.91175 0.99451 0.84198 0.0
S809 S 0.86317 0.05527 0.98594 0.0
N810 N 0.82084 1.01351 0.96786 0.0
N811 N 0.90757 0.06772 0.95458 0.0
C812 C 0.88892 0.03773 0.92715 0.0
C813 C 0.84171 1.00854 0.93442 0.0
C814 C 0.77273 0.0939 0.18539 0.0
C815 C 0.80788 0.07391 0.15958 0.0
C816 C 0.74221 0.13909 0.17803 0.0
C817 C 0.7464 0.16564 0.14477 0.0
H818 H 0.77238 0.07768 0.21232 0.0
H819 H 0.71919 0.15597 0.1997 0.0
S820 S 0.82203 0.12023 0.06555 0.0
N821 N 0.83678 0.07718 0.09735 0.0
N822 N 0.78013 0.16232 0.08384 0.0
C823 C 0.77626 0.14191 0.11751 0.0
C824 C 0.80687 0.09595 0.12486 0.0
C825 C 0.65218 0.99949 0.42269 0.0
C826 C 0.62352 1.01069 0.39093 0.0
C827 C 0.69772 0.02818 0.43187 0.0
C828 C 0.7166 0.06825 0.40933 0.0
H829 H 0.63702 0.97155 0.44217 0.0
H830 H 0.71567 0.02183 0.45796 0.0
S831 S 0.66347 0.10586 0.32012 0.0
N832 N 0.62269 0.05956 0.33461 0.0
N833 N 0.7086 0.11276 0.35187 0.0
C834 C 0.69181 0.07616 0.37601 0.0
C835 C 0.64526 0.0474 0.36672 0.0
C836 C 0.28727 0.14255 0.44631 0.0
C837 C 0.25346 0.16554 0.42069 0.0
C838 C 0.31895 0.09909 0.43765 0.0
C839 C 0.31816 0.07685 0.40305 0.0
H840 H 0.29217 0.16056 0.47245 0.0
H841 H 0.34694 0.08497 0.45757 0.0
S842 S 0.23049 0.11645 0.32801 0.0
N843 N 0.21579 0.158 0.36059 0.0
N844 N 0.27616 0.07649 0.34448 0.0
C845 C 0.28074 0.09576 0.37833 0.0
C846 C 0.24813 0.1401 0.38714 0.0
C847 C 0.14145 0.99978 0.13761 0.0
C848 C 0.11374 1.00635 0.17026 0.0
C849 C 0.1875 0.02887 0.13015 0.0
C850 C 0.20726 0.06505 0.15524 0.0
H851 H 0.12506 0.97566 0.11636 0.0
H852 H 0.20466 0.02656 0.10355 0.0
S853 S 0.15727 0.08667 0.24772 0.0
N854 N 0.11517 0.04432 0.23002 0.0
N855 N 0.2019 0.09832 0.21634 0.0
C856 C 0.18371 0.0669 0.18949 0.0
C857 C 0.13684 0.03773 0.19694 0.0
C858 C 0.21668 0.93141 0.93603 0.0
C859 C 0.21868 0.95573 0.90199 0.0
C860 C 0.2455 0.88549 0.94341 0.0
C861 C 0.27776 0.86233 0.91712 0.0
H862 H 0.18973 0.94597 0.95638 0.0
H863 H 0.2399 0.86627 0.96914 0.0
S864 S 0.30251 0.91522 0.82542 0.0
N865 N 0.25968 0.95692 0.84316 0.0
N866 N 0.31508 0.87109 0.85695 0.0
C867 C 0.28427 0.88934 0.88414 0.0
C868 C 0.25444 0.93604 0.8766 0.0
C869 C 0.35426 1.00222 0.62817 0.0
C870 C 0.3333 0.96776 0.65403 0.0
C871 C 0.40037 0.03125 0.6354 0.0
C872 C 0.42691 0.02641 0.66865 0.0
H873 H 0.33777 1.00337 0.60132 0.0
H874 H 0.41757 0.05412 0.61376 0.0
S875 S 0.38074 0.9504 0.74761 0.0
N876 N 0.33687 0.93739 0.71597 0.0
N877 N 0.42369 0.99147 0.72933 0.0
C878 C 0.40298 0.99642 0.6958 0.0
C879 C 0.35607 0.96723 0.68854 0.0
loop_
_geom_bond_atom_site_label_1
_geom_bond_atom_site_label_2
_geom_bond_distance
_geom_bond_site_symmetry_2
_ccdc_geom_bond_type
Fe0 O2 1.918 . S
Fe0 O5 1.997 . S
Fe0 O6 2.002 . S
Fe0 O11 1.976 . S
Fe0 O14 1.996 . S
Fe1 O2 1.918 . S
Fe1 O9 1.997 . S
Fe1 O12 1.996 . S
Fe1 O16 1.976 . S
Fe1 O19 2.002 . S
O2 Fe0 1.918 . S
O2 Fe1 1.918 . S
O2 Fe3 1.918 . S
Fe3 O2 1.918 . S
Fe3 O4 2.002 . S
Fe3 O13 1.976 . S
Fe3 O17 1.996 . S
Fe3 O20 1.997 . S
O4 Fe3 2.002 . S
O4 C21 1.295 . S
O5 Fe0 1.997 . S
O5 C21 1.235 . S
O6 Fe0 2.002 . S
O6 C7 1.295 . S
C7 O6 1.295 . S
C7 O9 1.235 . S
C8 O13 1.287 . S
C8 O14 1.255 . S
O9 Fe1 1.997 . S
O9 C7 1.235 . S
C10 O16 1.287 . S
C10 O17 1.255 . S
O11 Fe0 1.976 . S
O11 C18 1.287 . S
O12 Fe1 1.996 . S
O12 C18 1.255 . S
O13 Fe3 1.976 . S
O13 C8 1.287 . S
O14 Fe0 1.996 . S
O14 C8 1.255 . S
C15 O19 1.295 . S
C15 O20 1.235 . S
O16 Fe1 1.976 . S
O16 C10 1.287 . S
O17 Fe3 1.996 . S
O17 C10 1.255 . S
C18 O11 1.287 . S
C18 O12 1.255 . S
O19 Fe1 2.002 . S
O19 C15 1.295 . S
O20 Fe3 1.997 . S
O20 C15 1.235 . S
C21 O4 1.295 . S
C21 O5 1.235 . S
Fe22 O24 1.918 . S
Fe22 O27 1.997 . S
Fe22 O28 2.002 . S
Fe22 O33 1.976 . S
Fe22 O36 1.996 . S
Fe23 O24 1.918 . S
Fe23 O31 1.997 . S
Fe23 O34 1.996 . S
Fe23 O38 1.976 . S
Fe23 O41 2.002 . S
O24 Fe22 1.918 . S
O24 Fe23 1.918 . S
O24 Fe25 1.918 . S
Fe25 O24 1.918 . S
Fe25 O26 2.002 . S
Fe25 O35 1.976 . S
Fe25 O39 1.996 . S
Fe25 O42 1.997 . S
O26 Fe25 2.002 . S
O26 C43 1.295 . S
O27 Fe22 1.997 . S
O27 C43 1.235 . S
O28 Fe22 2.002 . S
O28 C29 1.295 . S
C29 O28 1.295 . S
C29 O31 1.235 . S
C30 O35 1.287 . S
C30 O36 1.255 . S
O31 Fe23 1.997 . S
O31 C29 1.235 . S
C32 O38 1.287 . S
C32 O39 1.255 . S
O33 Fe22 1.976 . S
O33 C40 1.287 . S
O34 Fe23 1.996 . S
O34 C40 1.255 . S
O35 Fe25 1.976 . S
O35 C30 1.287 . S
O36 Fe22 1.996 . S
O36 C30 1.255 . S
C37 O41 1.295 . S
C37 O42 1.235 . S
O38 Fe23 1.976 . S
O38 C32 1.287 . S
O39 Fe25 1.996 . S
O39 C32 1.255 . S
C40 O33 1.287 . S
C40 O34 1.255 . S
O41 Fe23 2.002 . S
O41 C37 1.295 . S
O42 Fe25 1.997 . S
O42 C37 1.235 . S
C43 O26 1.295 . S
C43 O27 1.235 . S
Fe44 O46 1.918 . S
Fe44 O49 1.997 . S
Fe44 O50 2.002 . S
Fe44 O55 1.976 . S
Fe44 O58 1.996 . S
Fe45 O46 1.918 . S
Fe45 O53 1.997 . S
Fe45 O56 1.996 . S
Fe45 O60 1.976 . S
Fe45 O63 2.002 . S
O46 Fe44 1.918 . S
O46 Fe45 1.918 . S
O46 Fe47 1.918 . S
Fe47 O46 1.918 . S
Fe47 O48 2.002 . S
Fe47 O57 1.976 . S
Fe47 O61 1.996 . S
Fe47 O64 1.997 . S
O48 Fe47 2.002 . S
O48 C65 1.295 . S
O49 Fe44 1.997 . S
O49 C65 1.235 . S
O50 Fe44 2.002 . S
O50 C51 1.295 . S
C51 O50 1.295 . S
C51 O53 1.235 . S
C52 O57 1.287 . S
C52 O58 1.255 . S
O53 Fe45 1.997 . S
O53 C51 1.235 . S
C54 O60 1.287 . S
C54 O61 1.255 . S
O55 Fe44 1.976 . S
O55 C62 1.287 . S
O56 Fe45 1.996 . S
O56 C62 1.255 . S
O57 Fe47 1.976 . S
O57 C52 1.287 . S
O58 Fe44 1.996 . S
O58 C52 1.255 . S
C59 O63 1.295 . S
C59 O64 1.235 . S
O60 Fe45 1.976 . S
O60 C54 1.287 . S
O61 Fe47 1.996 . S
O61 C54 1.255 . S
C62 O55 1.287 . S
C62 O56 1.255 . S
O63 Fe45 2.002 . S
O63 C59 1.295 . S
O64 Fe47 1.997 . S
O64 C59 1.235 . S
C65 O48 1.295 . S
C65 O49 1.235 . S
Fe66 O68 1.918 . S
Fe66 O71 1.997 . S
Fe66 O72 2.002 . S
Fe66 O77 1.976 1_655 S
Fe66 O80 1.996 . S
Fe67 O68 1.918 . S
Fe67 O75 1.997 . S
Fe67 O78 1.996 1_655 S
Fe67 O82 1.976 . S
Fe67 O85 2.002 . S
O68 Fe66 1.918 . S
O68 Fe67 1.918 . S
O68 Fe69 1.918 . S
Fe69 O68 1.918 . S
Fe69 O70 2.002 . S
Fe69 O79 1.976 . S
Fe69 O83 1.996 . S
Fe69 O86 1.997 . S
O70 Fe69 2.002 . S
O70 C87 1.295 . S
O71 Fe66 1.997 . S
O71 C87 1.235 . S
O72 Fe66 2.002 . S
O72 C73 1.295 . S
C73 O72 1.295 . S
C73 O75 1.235 . S
C74 O79 1.287 . S
C74 O80 1.255 . S
O75 Fe67 1.997 . S
O75 C73 1.235 . S
C76 O82 1.287 . S
C76 O83 1.255 . S
O77 Fe66 1.976 1_455 S
O77 C84 1.287 . S
O78 Fe67 1.996 1_455 S
O78 C84 1.255 . S
O79 Fe69 1.976 . S
O79 C74 1.287 . S
O80 Fe66 1.996 . S
O80 C74 1.255 . S
C81 O85 1.295 . S
C81 O86 1.235 . S
O82 Fe67 1.976 . S
O82 C76 1.287 . S
O83 Fe69 1.996 . S
O83 C76 1.255 . S
C84 O77 1.287 . S
C84 O78 1.255 . S
O85 Fe67 2.002 . S
O85 C81 1.295 . S
O86 Fe69 1.997 . S
O86 C81 1.235 . S
C87 O70 1.295 . S
C87 O71 1.235 . S
Fe88 O90 1.918 . S
Fe88 O93 1.997 . S
Fe88 O94 2.002 . S
Fe88 O99 1.976 . S
Fe88 O102 1.996 . S
Fe89 O90 1.918 . S
Fe89 O97 1.997 . S
Fe89 O100 1.996 . S
Fe89 O104 1.976 . S
Fe89 O107 2.002 . S
O90 Fe88 1.918 . S
O90 Fe89 1.918 . S
O90 Fe91 1.918 . S
Fe91 O90 1.918 . S
Fe91 O92 2.002 . S
Fe91 O101 1.976 . S
Fe91 O105 1.996 . S
Fe91 O108 1.997 . S
O92 Fe91 2.002 . S
O92 C109 1.295 . S
O93 Fe88 1.997 . S
O93 C109 1.235 . S
O94 Fe88 2.002 . S
O94 C95 1.295 . S
C95 O94 1.295 . S
C95 O97 1.235 . S
C96 O101 1.287 . S
C96 O102 1.255 . S
O97 Fe89 1.997 . S
O97 C95 1.235 . S
C98 O104 1.287 . S
C98 O105 1.255 . S
O99 Fe88 1.976 . S
O99 C106 1.287 . S
O100 Fe89 1.996 . S
O100 C106 1.255 . S
O101 Fe91 1.976 . S
O101 C96 1.287 . S
O102 Fe88 1.996 . S
O102 C96 1.255 . S
C103 O107 1.295 . S
C103 O108 1.235 . S
O104 Fe89 1.976 . S
O104 C98 1.287 . S
O105 Fe91 1.996 . S
O105 C98 1.255 . S
C106 O99 1.287 . S
C106 O100 1.255 . S
O107 Fe89 2.002 . S
O107 C103 1.295 . S
O108 Fe91 1.997 . S
O108 C103 1.235 . S
C109 O92 1.295 . S
C109 O93 1.235 . S
Fe110 O112 1.918 . S
Fe110 O115 1.997 . S
Fe110 O116 2.002 . S
Fe110 O121 1.976 . S
Fe110 O124 1.996 . S
Fe111 O112 1.918 . S
Fe111 O119 1.997 . S
Fe111 O122 1.996 . S
Fe111 O126 1.976 . S
Fe111 O129 2.002 . S
O112 Fe110 1.918 . S
O112 Fe111 1.918 . S
O112 Fe113 1.918 . S
Fe113 O112 1.918 . S
Fe113 O114 2.002 . S
Fe113 O123 1.976 . S
Fe113 O127 1.996 . S
Fe113 O130 1.997 . S
O114 Fe113 2.002 . S
O114 C131 1.295 . S
O115 Fe110 1.997 . S
O115 C131 1.235 . S
O116 Fe110 2.002 . S
O116 C117 1.295 . S
C117 O116 1.295 . S
C117 O119 1.235 . S
C118 O123 1.287 . S
C118 O124 1.255 . S
O119 Fe111 1.997 . S
O119 C117 1.235 . S
C120 O126 1.287 . S
C120 O127 1.255 . S
O121 Fe110 1.976 . S
O121 C128 1.287 . S
O122 Fe111 1.996 . S
O122 C128 1.255 . S
O123 Fe113 1.976 . S
O123 C118 1.287 . S
O124 Fe110 1.996 . S
O124 C118 1.255 . S
C125 O129 1.295 . S
C125 O130 1.235 . S
O126 Fe111 1.976 . S
O126 C120 1.287 . S
O127 Fe113 1.996 . S
O127 C120 1.255 . S
C128 O121 1.287 . S
C128 O122 1.255 . S
O129 Fe111 2.002 . S
O129 C125 1.295 . S
O130 Fe113 1.997 . S
O130 C125 1.235 . S
C131 O114 1.295 . S
C131 O115 1.235 . S
Fe132 O134 1.918 . S
Fe132 O137 1.997 . S
Fe132 O138 2.002 . S
Fe132 O143 1.976 . S
Fe132 O146 1.996 . S
Fe133 O134 1.918 . S
Fe133 O141 1.997 . S
Fe133 O144 1.996 . S
Fe133 O148 1.976 . S
Fe133 O151 2.002 . S
O134 Fe132 1.918 . S
O134 Fe133 1.918 . S
O134 Fe135 1.918 . S
Fe135 O134 1.918 . S
Fe135 O136 2.002 . S
Fe135 O145 1.976 . S
Fe135 O149 1.996 . S
Fe135 O152 1.997 . S
O136 Fe135 2.002 . S
O136 C153 1.295 . S
O137 Fe132 1.997 . S
O137 C153 1.235 . S
O138 Fe132 2.002 . S
O138 C139 1.295 . S
C139 O138 1.295 . S
C139 O141 1.235 . S
C140 O145 1.287 . S
C140 O146 1.255 . S
O141 Fe133 1.997 . S
O141 C139 1.235 . S
C142 O148 1.287 . S
C142 O149 1.255 . S
O143 Fe132 1.976 . S
O143 C150 1.287 . S
O144 Fe133 1.996 . S
O144 C150 1.255 . S
O145 Fe135 1.976 . S
O145 C140 1.287 . S
O146 Fe132 1.996 . S
O146 C140 1.255 . S
C147 O151 1.295 . S
C147 O152 1.235 . S
O148 Fe133 1.976 . S
O148 C142 1.287 . S
O149 Fe135 1.996 . S
O149 C142 1.255 . S
C150 O143 1.287 . S
C150 O144 1.255 . S
O151 Fe133 2.002 . S
O151 C147 1.295 . S
O152 Fe135 1.997 . S
O152 C147 1.235 . S
C153 O136 1.295 . S
C153 O137 1.235 . S
Fe154 O156 1.918 . S
Fe154 O159 1.997 . S
Fe154 O160 2.002 . S
Fe154 O165 1.976 . S
Fe154 O168 1.996 1_455 S
Fe155 O156 1.918 . S
Fe155 O163 1.997 . S
Fe155 O166 1.996 . S
Fe155 O170 1.976 . S
Fe155 O173 2.002 . S
O156 Fe154 1.918 . S
O156 Fe155 1.918 . S
O156 Fe157 1.918 . S
Fe157 O156 1.918 . S
Fe157 O158 2.002 . S
Fe157 O167 1.976 1_455 S
Fe157 O171 1.996 . S
Fe157 O174 1.997 . S
O158 Fe157 2.002 . S
O158 C175 1.295 . S
O159 Fe154 1.997 . S
O159 C175 1.235 . S
O160 Fe154 2.002 . S
O160 C161 1.295 . S
C161 O160 1.295 . S
C161 O163 1.235 . S
C162 O167 1.287 . S
C162 O168 1.255 . S
O163 Fe155 1.997 . S
O163 C161 1.235 . S
C164 O170 1.287 . S
C164 O171 1.255 . S
O165 Fe154 1.976 . S
O165 C172 1.287 . S
O166 Fe155 1.996 . S
O166 C172 1.255 . S
O167 Fe157 1.976 1_655 S
O167 C162 1.287 . S
O168 Fe154 1.996 1_655 S
O168 C162 1.255 . S
C169 O173 1.295 . S
C169 O174 1.235 . S
O170 Fe155 1.976 . S
O170 C164 1.287 . S
O171 Fe157 1.996 . S
O171 C164 1.255 . S
C172 O165 1.287 . S
C172 O166 1.255 . S
O173 Fe155 2.002 . S
O173 C169 1.295 . S
O174 Fe157 1.997 . S
O174 C169 1.235 . S
C175 O158 1.295 . S
C175 O159 1.235 . S
Fe176 O178 1.918 . S
Fe176 O181 1.997 . S
Fe176 O182 2.002 . S
Fe176 O187 1.976 . S
Fe176 O190 1.996 . S
Fe177 O178 1.918 . S
Fe177 O185 1.997 . S
Fe177 O188 1.996 . S
Fe177 O192 1.976 . S
Fe177 O195 2.002 . S
O178 Fe176 1.918 . S
O178 Fe177 1.918 . S
O178 Fe179 1.918 . S
Fe179 O178 1.918 . S
Fe179 O180 2.002 . S
Fe179 O189 1.976 . S
Fe179 O193 1.996 . S
Fe179 O196 1.997 . S
O180 Fe179 2.002 . S
O180 C197 1.295 . S
O181 Fe176 1.997 . S
O181 C197 1.235 . S
O182 Fe176 2.002 . S
O182 C183 1.295 . S
C183 O182 1.295 . S
C183 O185 1.235 . S
C184 O189 1.287 . S
C184 O190 1.255 . S
O185 Fe177 1.997 . S
O185 C183 1.235 . S
C186 O192 1.287 . S
C186 O193 1.255 . S
O187 Fe176 1.976 . S
O187 C194 1.287 . S
O188 Fe177 1.996 . S
O188 C194 1.255 . S
O189 Fe179 1.976 . S
O189 C184 1.287 . S
O190 Fe176 1.996 . S
O190 C184 1.255 . S
C191 O195 1.295 . S
C191 O196 1.235 . S
O192 Fe177 1.976 . S
O192 C186 1.287 . S
O193 Fe179 1.996 . S
O193 C186 1.255 . S
C194 O187 1.287 . S
C194 O188 1.255 . S
O195 Fe177 2.002 . S
O195 C191 1.295 . S
O196 Fe179 1.997 . S
O196 C191 1.235 . S
C197 O180 1.295 . S
C197 O181 1.235 . S
Fe198 O200 1.918 1_565 S
Fe198 O203 1.997 . S
Fe198 O204 2.002 . S
Fe198 O209 1.976 . S
Fe198 O212 1.996 1_465 S
Fe199 O200 1.918 . S
Fe199 O207 1.997 . S
Fe199 O210 1.996 . S
Fe199 O214 1.976 . S
Fe199 O217 2.002 . S
O200 Fe198 1.918 1_545 S
O200 Fe199 1.918 . S
O200 Fe201 1.918 . S
Fe201 O200 1.918 . S
Fe201 O202 2.002 . S
Fe201 O211 1.976 1_455 S
Fe201 O215 1.996 . S
Fe201 O218 1.997 . S
O202 Fe201 2.002 . S
O202 C219 1.295 . S
O203 Fe198 1.997 . S
O203 C219 1.235 1_565 S
O204 Fe198 2.002 . S
O204 C205 1.295 . S
C205 O204 1.295 . S
C205 O207 1.235 1_565 S
C206 O211 1.287 . S
C206 O212 1.255 . S
O207 Fe199 1.997 . S
O207 C205 1.235 1_545 S
C208 O214 1.287 . S
C208 O215 1.255 . S
O209 Fe198 1.976 . S
O209 C216 1.283 1_565 S
O210 Fe199 1.996 . S
O210 C216 1.255 . S
O211 Fe201 1.976 1_655 S
O211 C206 1.287 . S
O212 Fe198 1.996 1_645 S
O212 C206 1.255 . S
C213 O217 1.295 . S
C213 O218 1.235 . S
O214 Fe199 1.976 . S
O214 C208 1.287 . S
O215 Fe201 1.996 . S
O215 C208 1.255 . S
C216 O209 1.283 1_545 S
C216 O210 1.255 . S
O217 Fe199 2.002 . S
O217 C213 1.295 . S
O218 Fe201 1.997 . S
O218 C213 1.235 . S
C219 O202 1.295 . S
C219 O203 1.235 1_545 S
Fe220 O222 1.918 . S
Fe220 O225 1.997 . S
Fe220 O226 2.002 . S
Fe220 O231 1.976 . S
Fe220 O234 1.996 . S
Fe221 O222 1.918 . S
Fe221 O229 1.997 . S
Fe221 O232 1.996 . S
Fe221 O236 1.976 . S
Fe221 O239 2.002 . S
O222 Fe220 1.918 . S
O222 Fe221 1.918 . S
O222 Fe223 1.918 . S
Fe223 O222 1.918 . S
Fe223 O224 2.002 . S
Fe223 O233 1.976 . S
Fe223 O237 1.996 . S
Fe223 O240 1.997 . S
O224 Fe223 2.002 . S
O224 C241 1.295 . S
O225 Fe220 1.997 . S
O225 C241 1.235 . S
O226 Fe220 2.002 . S
O226 C227 1.295 . S
C227 O226 1.295 . S
C227 O229 1.235 . S
C228 O233 1.287 . S
C228 O234 1.255 . S
O229 Fe221 1.997 . S
O229 C227 1.235 . S
C230 O236 1.287 . S
C230 O237 1.255 . S
O231 Fe220 1.976 . S
O231 C238 1.287 . S
O232 Fe221 1.996 . S
O232 C238 1.255 . S
O233 Fe223 1.976 . S
O233 C228 1.287 . S
O234 Fe220 1.996 . S
O234 C228 1.255 . S
C235 O239 1.295 . S
C235 O240 1.235 . S
O236 Fe221 1.976 . S
O236 C230 1.287 . S
O237 Fe223 1.996 . S
O237 C230 1.255 . S
C238 O231 1.287 . S
C238 O232 1.255 . S
O239 Fe221 2.002 . S
O239 C235 1.295 . S
O240 Fe223 1.997 . S
O240 C235 1.235 . S
C241 O224 1.295 . S
C241 O225 1.235 . S
Fe242 O244 1.918 . S
Fe242 O247 1.997 . S
Fe242 O248 2.002 . S
Fe242 O253 1.976 . S
Fe242 O256 1.996 . S
Fe243 O244 1.918 1_545 S
Fe243 O251 1.997 . S
Fe243 O254 1.996 1_545 S
Fe243 O258 1.976 . S
Fe243 O261 2.002 . S
O244 Fe242 1.918 . S
O244 Fe243 1.918 1_565 S
O244 Fe245 1.918 . S
Fe245 O244 1.918 . S
Fe245 O246 2.002 . S
Fe245 O255 1.976 . S
Fe245 O259 1.996 . S
Fe245 O262 1.997 . S
O246 Fe245 2.002 . S
O246 C263 1.295 . S
O247 Fe242 1.997 . S
O247 C263 1.235 . S
O248 Fe242 2.002 . S
O248 C249 1.295 . S
C249 O248 1.295 . S
C249 O251 1.235 1_565 S
C250 O255 1.287 . S
C250 O256 1.255 . S
O251 Fe243 1.997 . S
O251 C249 1.235 1_545 S
C252 O258 1.283 1_565 S
C252 O259 1.255 . S
O253 Fe242 1.976 . S
O253 C260 1.287 . S
O254 Fe243 1.996 1_565 S
O254 C260 1.255 . S
O255 Fe245 1.976 . S
O255 C250 1.287 . S
O256 Fe242 1.996 . S
O256 C250 1.255 . S
C257 O261 1.295 . S
C257 O262 1.235 1_545 S
O258 Fe243 1.976 . S
O258 C252 1.283 1_545 S
O259 Fe245 1.996 . S
O259 C252 1.255 . S
C260 O253 1.287 . S
C260 O254 1.255 . S
O261 Fe243 2.002 . S
O261 C257 1.295 . S
O262 Fe245 1.997 . S
O262 C257 1.235 1_565 S
C263 O246 1.295 . S
C263 O247 1.235 . S
Fe264 O266 1.918 . S
Fe264 O269 1.997 . S
Fe264 O270 2.002 . S
Fe264 O275 1.976 . S
Fe264 O278 1.996 . S
Fe265 O266 1.918 . S
Fe265 O273 1.997 . S
Fe265 O276 1.996 . S
Fe265 O280 1.976 . S
Fe265 O283 2.002 . S
O266 Fe264 1.918 . S
O266 Fe265 1.918 . S
O266 Fe267 1.918 . S
Fe267 O266 1.918 . S
Fe267 O268 2.002 . S
Fe267 O277 1.976 . S
Fe267 O281 1.996 . S
Fe267 O284 1.997 . S
O268 Fe267 2.002 . S
O268 C285 1.295 . S
O269 Fe264 1.997 . S
O269 C285 1.235 . S
O270 Fe264 2.002 . S
O270 C271 1.295 . S
C271 O270 1.295 . S
C271 O273 1.235 . S
C272 O277 1.287 . S
C272 O278 1.255 . S
O273 Fe265 1.997 . S
O273 C271 1.235 . S
C274 O280 1.287 . S
C274 O281 1.255 . S
O275 Fe264 1.976 . S
O275 C282 1.287 . S
O276 Fe265 1.996 . S
O276 C282 1.255 . S
O277 Fe267 1.976 . S
O277 C272 1.287 . S
O278 Fe264 1.996 . S
O278 C272 1.255 . S
C279 O283 1.295 . S
C279 O284 1.235 . S
O280 Fe265 1.976 . S
O280 C274 1.287 . S
O281 Fe267 1.996 . S
O281 C274 1.255 . S
C282 O275 1.287 . S
C282 O276 1.255 . S
O283 Fe265 2.002 . S
O283 C279 1.295 . S
O284 Fe267 1.997 . S
O284 C279 1.235 . S
C285 O268 1.295 . S
C285 O269 1.235 . S
Fe286 O288 1.918 1_545 S
Fe286 O291 1.997 . S
Fe286 O292 2.002 . S
Fe286 O297 1.976 . S
Fe286 O300 1.996 1_645 S
Fe287 O288 1.918 . S
Fe287 O295 1.997 . S
Fe287 O298 1.996 . S
Fe287 O302 1.976 . S
Fe287 O305 2.002 . S
O288 Fe286 1.918 1_565 S
O288 Fe287 1.918 . S
O288 Fe289 1.918 . S
Fe289 O288 1.918 . S
Fe289 O290 2.002 . S
Fe289 O299 1.976 1_655 S
Fe289 O303 1.996 . S
Fe289 O306 1.997 . S
O290 Fe289 2.002 . S
O290 C307 1.295 . S
O291 Fe286 1.997 . S
O291 C307 1.235 1_545 S
O292 Fe286 2.002 . S
O292 C293 1.295 . S
C293 O292 1.295 . S
C293 O295 1.235 1_545 S
C294 O299 1.287 . S
C294 O300 1.255 . S
O295 Fe287 1.997 . S
O295 C293 1.235 1_565 S
C296 O302 1.287 . S
C296 O303 1.255 . S
O297 Fe286 1.976 . S
O297 C304 1.283 1_545 S
O298 Fe287 1.996 . S
O298 C304 1.255 . S
O299 Fe289 1.976 1_455 S
O299 C294 1.287 . S
O300 Fe286 1.996 1_465 S
O300 C294 1.255 . S
C301 O305 1.295 . S
C301 O306 1.235 . S
O302 Fe287 1.976 . S
O302 C296 1.287 . S
O303 Fe289 1.996 . S
O303 C296 1.255 . S
C304 O297 1.283 1_565 S
C304 O298 1.255 . S
O305 Fe287 2.002 . S
O305 C301 1.295 . S
O306 Fe289 1.997 . S
O306 C301 1.235 . S
C307 O290 1.295 . S
C307 O291 1.235 1_565 S
Fe308 O310 1.918 . S
Fe308 O313 1.997 . S
Fe308 O314 2.002 . S
Fe308 O319 1.976 . S
Fe308 O322 1.996 . S
Fe309 O310 1.918 . S
Fe309 O317 1.997 . S
Fe309 O320 1.996 . S
Fe309 O324 1.976 . S
Fe309 O327 2.002 . S
O310 Fe308 1.918 . S
O310 Fe309 1.918 . S
O310 Fe311 1.918 . S
Fe311 O310 1.918 . S
Fe311 O312 2.002 . S
Fe311 O321 1.976 . S
Fe311 O325 1.996 . S
Fe311 O328 1.997 . S
O312 Fe311 2.002 . S
O312 C329 1.295 . S
O313 Fe308 1.997 . S
O313 C329 1.235 . S
O314 Fe308 2.002 . S
O314 C315 1.295 . S
C315 O314 1.295 . S
C315 O317 1.235 . S
C316 O321 1.287 . S
C316 O322 1.255 . S
O317 Fe309 1.997 . S
O317 C315 1.235 . S
C318 O324 1.287 . S
C318 O325 1.255 . S
O319 Fe308 1.976 . S
O319 C326 1.287 . S
O320 Fe309 1.996 . S
O320 C326 1.255 . S
O321 Fe311 1.976 . S
O321 C316 1.287 . S
O322 Fe308 1.996 . S
O322 C316 1.255 . S
C323 O327 1.295 . S
C323 O328 1.235 . S
O324 Fe309 1.976 . S
O324 C318 1.287 . S
O325 Fe311 1.996 . S
O325 C318 1.255 . S
C326 O319 1.287 . S
C326 O320 1.255 . S
O327 Fe309 2.002 . S
O327 C323 1.295 . S
O328 Fe311 1.997 . S
O328 C323 1.235 . S
C329 O312 1.295 . S
C329 O313 1.235 . S
Fe330 O332 1.918 . S
Fe330 O335 1.997 . S
Fe330 O336 2.002 . S
Fe330 O341 1.976 . S
Fe330 O344 1.996 . S
Fe331 O332 1.918 1_565 S
Fe331 O339 1.997 . S
Fe331 O342 1.996 1_565 S
Fe331 O346 1.976 . S
Fe331 O349 2.002 . S
O332 Fe330 1.918 . S
O332 Fe331 1.918 1_545 S
O332 Fe333 1.918 . S
Fe333 O332 1.918 . S
Fe333 O334 2.002 . S
Fe333 O343 1.976 . S
Fe333 O347 1.996 . S
Fe333 O350 1.997 . S
O334 Fe333 2.002 . S
O334 C351 1.295 . S
O335 Fe330 1.997 . S
O335 C351 1.235 . S
O336 Fe330 2.002 . S
O336 C337 1.295 . S
C337 O336 1.295 . S
C337 O339 1.235 1_545 S
C338 O343 1.287 . S
C338 O344 1.255 . S
O339 Fe331 1.997 . S
O339 C337 1.235 1_565 S
C340 O346 1.283 1_545 S
C340 O347 1.255 . S
O341 Fe330 1.976 . S
O341 C348 1.287 . S
O342 Fe331 1.996 1_545 S
O342 C348 1.255 . S
O343 Fe333 1.976 . S
O343 C338 1.287 . S
O344 Fe330 1.996 . S
O344 C338 1.255 . S
C345 O349 1.295 . S
C345 O350 1.235 1_565 S
O346 Fe331 1.976 . S
O346 C340 1.283 1_565 S
O347 Fe333 1.996 . S
O347 C340 1.255 . S
C348 O341 1.287 . S
C348 O342 1.255 . S
O349 Fe331 2.002 . S
O349 C345 1.295 . S
O350 Fe333 1.997 . S
O350 C345 1.235 1_545 S
C351 O334 1.295 . S
C351 O335 1.235 . S
C352 C353 1.369 . S
C352 C354 1.419 . S
C352 H356 0.930 . S
C353 C352 1.369 . S
C353 C362 1.429 . S
C354 C352 1.419 . S
C354 C355 1.363 . S
C354 H357 0.929 . S
C355 C354 1.363 . S
C355 C361 1.428 . S
H356 C352 0.930 . S
H357 C354 0.929 . S
S358 N359 1.613 . S
S358 N360 1.610 . S
N359 S358 1.613 . S
N359 C362 1.350 . S
N360 S358 1.610 . S
N360 C361 1.351 . S
C361 C355 1.428 . S
C361 N360 1.351 . S
C361 C362 1.434 . S
C362 C353 1.429 . S
C362 N359 1.350 . S
C362 C361 1.434 . S
C363 C364 1.369 . S
C363 C365 1.419 . S
C363 H367 0.930 . S
C364 C363 1.369 . S
C364 C373 1.429 . S
C365 C363 1.419 . S
C365 C366 1.363 . S
C365 H368 0.929 . S
C366 C365 1.363 . S
C366 C372 1.428 . S
H367 C363 0.930 . S
H368 C365 0.929 . S
S369 N370 1.613 . S
S369 N371 1.610 . S
N370 S369 1.613 . S
N370 C373 1.350 . S
N371 S369 1.610 . S
N371 C372 1.351 . S
C372 C366 1.428 . S
C372 N371 1.351 . S
C372 C373 1.434 . S
C373 C364 1.429 . S
C373 N370 1.350 . S
C373 C372 1.434 . S
C374 C375 1.369 . S
C374 C376 1.419 . S
C374 H378 0.930 . S
C375 C374 1.369 . S
C375 C384 1.429 . S
C376 C374 1.419 . S
C376 C377 1.363 . S
C376 H379 0.929 . S
C377 C376 1.363 . S
C377 C383 1.428 . S
H378 C374 0.930 . S
H379 C376 0.929 . S
S380 N381 1.613 . S
S380 N382 1.610 . S
N381 S380 1.613 . S
N381 C384 1.350 . S
N382 S380 1.610 . S
N382 C383 1.351 . S
C383 C377 1.428 . S
C383 N382 1.351 . S
C383 C384 1.434 . S
C384 C375 1.429 . S
C384 N381 1.350 . S
C384 C383 1.434 . S
C385 C386 1.369 1_455 S
C385 C387 1.419 1_556 S
C385 H389 0.930 . S
C386 C385 1.369 1_655 S
C386 C395 1.429 . S
C387 C385 1.419 1_554 S
C387 C388 1.363 . S
C387 H390 0.929 . S
C388 C387 1.363 . S
C388 C394 1.428 1_455 S
H389 C385 0.930 . S
H390 C387 0.929 . S
S391 N392 1.613 1_554 S
S391 N393 1.610 . S
N392 S391 1.613 1_556 S
N392 C395 1.350 . S
N393 S391 1.610 . S
N393 C394 1.351 . S
C394 C388 1.428 1_655 S
C394 N393 1.351 . S
C394 C395 1.434 1_554 S
C395 C386 1.429 . S
C395 N392 1.350 . S
C395 C394 1.434 1_556 S
C396 C397 1.369 . S
C396 C398 1.419 . S
C396 H400 0.930 . S
C397 C396 1.369 . S
C397 C406 1.429 . S
C398 C396 1.419 . S
C398 C399 1.363 . S
C398 H401 0.929 . S
C399 C398 1.363 . S
C399 C405 1.428 . S
H400 C396 0.930 . S
H401 C398 0.929 . S
S402 N403 1.613 . S
S402 N404 1.610 . S
N403 S402 1.613 . S
N403 C406 1.350 . S
N404 S402 1.610 . S
N404 C405 1.351 . S
C405 C399 1.428 . S
C405 N404 1.351 . S
C405 C406 1.434 . S
C406 C397 1.429 . S
C406 N403 1.350 . S
C406 C405 1.434 . S
C407 C408 1.369 . S
C407 C409 1.419 . S
C407 H411 0.930 . S
C408 C407 1.369 . S
C408 C417 1.429 . S
C409 C407 1.419 . S
C409 C410 1.363 . S
C409 H412 0.929 . S
C410 C409 1.363 . S
C410 C416 1.428 . S
H411 C407 0.930 . S
H412 C409 0.929 . S
S413 N414 1.613 . S
S413 N415 1.610 . S
N414 S413 1.613 . S
N414 C417 1.350 . S
N415 S413 1.610 . S
N415 C416 1.351 . S
C416 C410 1.428 . S
C416 N415 1.351 . S
C416 C417 1.434 . S
C417 C408 1.429 . S
C417 N414 1.350 . S
C417 C416 1.434 . S
C418 C419 1.369 1_565 S
C418 C420 1.419 1_654 S
C418 H422 0.930 . S
C419 C418 1.369 1_545 S
C419 C428 1.429 . S
C420 C418 1.419 1_456 S
C420 C421 1.363 . S
C420 H423 0.929 . S
C421 C420 1.363 . S
C421 C427 1.428 1_565 S
H422 C418 0.930 . S
H423 C420 0.929 . S
S424 N425 1.613 1_556 S
S424 N426 1.610 1_655 S
N425 S424 1.613 1_554 S
N425 C428 1.350 . S
N426 S424 1.610 1_455 S
N426 C427 1.351 . S
C427 C421 1.428 1_545 S
C427 N426 1.351 . S
C427 C428 1.434 1_456 S
C428 C419 1.429 . S
C428 N425 1.350 . S
C428 C427 1.434 1_654 S
C429 C430 1.369 1_565 S
C429 C431 1.419 . S
C429 H433 0.930 . S
C430 C429 1.369 1_545 S
C430 C439 1.429 . S
C431 C429 1.419 . S
C431 C432 1.363 . S
C431 H434 0.929 . S
C432 C431 1.363 . S
C432 C438 1.428 1_565 S
H433 C429 0.930 . S
H434 C431 0.929 . S
S435 N436 1.613 . S
S435 N437 1.610 . S
N436 S435 1.613 . S
N436 C439 1.350 . S
N437 S435 1.610 . S
N437 C438 1.351 . S
C438 C432 1.428 1_545 S
C438 N437 1.351 . S
C438 C439 1.434 . S
C439 C430 1.429 . S
C439 N436 1.350 . S
C439 C438 1.434 . S
C440 C441 1.369 . S
C440 C442 1.419 . S
C440 H444 0.930 . S
C441 C440 1.369 . S
C441 C450 1.429 . S
C442 C440 1.419 . S
C442 C443 1.363 1_556 S
C442 H445 0.929 . S
C443 C442 1.363 1_554 S
C443 C449 1.428 . S
H444 C440 0.930 . S
H445 C442 0.929 . S
S446 N447 1.613 1_554 S
S446 N448 1.610 . S
N447 S446 1.613 1_556 S
N447 C450 1.350 . S
N448 S446 1.610 . S
N448 C449 1.351 . S
C449 C443 1.428 . S
C449 N448 1.351 . S
C449 C450 1.434 1_554 S
C450 C441 1.429 . S
C450 N447 1.350 . S
C450 C449 1.434 1_556 S
C451 C452 1.369 . S
C451 C453 1.419 . S
C451 H455 0.930 . S
C452 C451 1.369 . S
C452 C461 1.429 . S
C453 C451 1.419 . S
C453 C454 1.363 . S
C453 H456 0.929 . S
C454 C453 1.363 . S
C454 C460 1.428 . S
H455 C451 0.930 . S
H456 C453 0.929 . S
S457 N458 1.613 . S
S457 N459 1.610 . S
N458 S457 1.613 . S
N458 C461 1.350 . S
N459 S457 1.610 . S
N459 C460 1.351 . S
C460 C454 1.428 . S
C460 N459 1.351 . S
C460 C461 1.434 . S
C461 C452 1.429 . S
C461 N458 1.350 . S
C461 C460 1.434 . S
C462 C463 1.369 . S
C462 C464 1.419 . S
C462 H466 0.930 . S
C463 C462 1.369 . S
C463 C472 1.429 . S
C464 C462 1.419 . S
C464 C465 1.363 . S
C464 H467 0.929 . S
C465 C464 1.363 . S
C465 C471 1.428 . S
H466 C462 0.930 . S
H467 C464 0.929 . S
S468 N469 1.613 . S
S468 N470 1.610 . S
N469 S468 1.613 . S
N469 C472 1.350 . S
N470 S468 1.610 . S
N470 C471 1.351 . S
C471 C465 1.428 . S
C471 N470 1.351 . S
C471 C472 1.434 . S
C472 C463 1.429 . S
C472 N469 1.350 . S
C472 C471 1.434 . S
C473 C474 1.369 . S
C473 C475 1.419 . S
C473 H477 0.930 . S
C474 C473 1.369 . S
C474 C483 1.429 . S
C475 C473 1.419 . S
C475 C476 1.363 . S
C475 H478 0.929 . S
C476 C475 1.363 . S
C476 C482 1.428 . S
H477 C473 0.930 . S
H478 C475 0.929 . S
S479 N480 1.613 . S
S479 N481 1.610 . S
N480 S479 1.613 . S
N480 C483 1.350 . S
N481 S479 1.610 . S
N481 C482 1.351 . S
C482 C476 1.428 . S
C482 N481 1.351 . S
C482 C483 1.434 . S
C483 C474 1.429 . S
C483 N480 1.350 . S
C483 C482 1.434 . S
C484 C485 1.369 . S
C484 C486 1.419 1_554 S
C484 H488 0.930 . S
C485 C484 1.369 . S
C485 C494 1.429 . S
C486 C484 1.419 1_556 S
C486 C487 1.363 . S
C486 H489 0.929 . S
C487 C486 1.363 . S
C487 C493 1.428 1_556 S
H488 C484 0.930 . S
H489 C486 0.929 . S
S490 N491 1.613 . S
S490 N492 1.610 . S
N491 S490 1.613 . S
N491 C494 1.350 . S
N492 S490 1.610 . S
N492 C493 1.351 . S
C493 C487 1.428 1_554 S
C493 N492 1.351 . S
C493 C494 1.434 . S
C494 C485 1.429 . S
C494 N491 1.350 . S
C494 C493 1.434 . S
C495 C496 1.369 . S
C495 C497 1.419 . S
C495 H499 0.930 . S
C496 C495 1.369 . S
C496 C505 1.429 . S
C497 C495 1.419 . S
C497 C498 1.363 . S
C497 H500 0.929 . S
C498 C497 1.363 . S
C498 C504 1.428 . S
H499 C495 0.930 . S
H500 C497 0.929 . S
S501 N502 1.613 . S
S501 N503 1.610 . S
N502 S501 1.613 . S
N502 C505 1.350 . S
N503 S501 1.610 . S
N503 C504 1.351 . S
C504 C498 1.428 . S
C504 N503 1.351 . S
C504 C505 1.434 . S
C505 C496 1.429 . S
C505 N502 1.350 . S
C505 C504 1.434 . S
C506 C507 1.369 . S
C506 C508 1.419 . S
C506 H510 0.930 . S
C507 C506 1.369 . S
C507 C516 1.429 . S
C508 C506 1.419 . S
C508 C509 1.363 . S
C508 H511 0.929 . S
C509 C508 1.363 . S
C509 C515 1.428 . S
H510 C506 0.930 . S
H511 C508 0.929 . S
S512 N513 1.613 . S
S512 N514 1.610 . S
N513 S512 1.613 . S
N513 C516 1.350 . S
N514 S512 1.610 . S
N514 C515 1.351 . S
C515 C509 1.428 . S
C515 N514 1.351 . S
C515 C516 1.434 . S
C516 C507 1.429 . S
C516 N513 1.350 . S
C516 C515 1.434 . S
C517 C518 1.369 . S
C517 C519 1.419 . S
C517 H521 0.930 . S
C518 C517 1.369 . S
C518 C527 1.429 . S
C519 C517 1.419 . S
C519 C520 1.363 . S
C519 H522 0.929 . S
C520 C519 1.363 . S
C520 C526 1.428 . S
H521 C517 0.930 . S
H522 C519 0.929 . S
S523 N524 1.613 . S
S523 N525 1.610 . S
N524 S523 1.613 . S
N524 C527 1.350 . S
N525 S523 1.610 . S
N525 C526 1.351 . S
C526 C520 1.428 . S
C526 N525 1.351 . S
C526 C527 1.434 . S
C527 C518 1.429 . S
C527 N524 1.350 . S
C527 C526 1.434 . S
C528 C529 1.369 . S
C528 C530 1.419 . S
C528 H532 0.930 . S
C529 C528 1.369 . S
C529 C538 1.429 . S
C530 C528 1.419 . S
C530 C531 1.363 . S
C530 H533 0.929 . S
C531 C530 1.363 . S
C531 C537 1.428 . S
H532 C528 0.930 . S
H533 C530 0.929 . S
S534 N535 1.613 . S
S534 N536 1.610 . S
N535 S534 1.613 . S
N535 C538 1.350 . S
N536 S534 1.610 . S
N536 C537 1.351 . S
C537 C531 1.428 . S
C537 N536 1.351 . S
C537 C538 1.434 . S
C538 C529 1.429 . S
C538 N535 1.350 . S
C538 C537 1.434 . S
C539 C540 1.370 1_565 S
C539 C541 1.419 . S
C539 H543 0.930 . S
C540 C539 1.370 1_545 S
C540 C549 1.428 . S
C541 C539 1.419 . S
C541 C542 1.363 . S
C541 H544 0.929 . S
C542 C541 1.363 . S
C542 C548 1.428 . S
H543 C539 0.930 . S
H544 C541 0.929 . S
S545 N546 1.613 . S
S545 N547 1.610 1_545 S
N546 S545 1.613 . S
N546 C549 1.350 . S
N547 S545 1.610 1_565 S
N547 C548 1.351 . S
C548 C542 1.428 . S
C548 N547 1.351 . S
C548 C549 1.434 1_565 S
C549 C540 1.428 . S
C549 N546 1.350 . S
C549 C548 1.434 1_545 S
C550 C551 1.369 . S
C550 C552 1.419 1_554 S
C550 H554 0.930 . S
C551 C550 1.369 . S
C551 C560 1.429 1_554 S
C552 C550 1.419 1_556 S
C552 C553 1.363 . S
C552 H555 0.929 . S
C553 C552 1.363 . S
C553 C559 1.428 . S
H554 C550 0.930 . S
H555 C552 0.929 . S
S556 N557 1.613 . S
S556 N558 1.610 . S
N557 S556 1.613 . S
N557 C560 1.350 . S
N558 S556 1.610 . S
N558 C559 1.351 . S
C559 C553 1.428 . S
C559 N558 1.351 . S
C559 C560 1.434 . S
C560 C551 1.429 1_556 S
C560 N557 1.350 . S
C560 C559 1.434 . S
C561 C562 1.369 . S
C561 C563 1.419 . S
C561 H565 0.930 . S
C562 C561 1.369 . S
C562 C571 1.429 . S
C563 C561 1.419 . S
C563 C564 1.363 . S
C563 H566 0.929 . S
C564 C563 1.363 . S
C564 C570 1.428 1_545 S
H565 C561 0.930 . S
H566 C563 0.929 . S
S567 N568 1.613 1_565 S
S567 N569 1.610 . S
N568 S567 1.613 1_545 S
N568 C571 1.350 . S
N569 S567 1.610 . S
N569 C570 1.351 . S
C570 C564 1.428 1_565 S
C570 N569 1.351 . S
C570 C571 1.434 1_565 S
C571 C562 1.429 . S
C571 N568 1.350 . S
C571 C570 1.434 1_545 S
C572 C573 1.369 . S
C572 C574 1.419 . S
C572 H576 0.930 . S
C573 C572 1.369 . S
C573 C582 1.429 . S
C574 C572 1.419 . S
C574 C575 1.363 . S
C574 H577 0.929 . S
C575 C574 1.363 . S
C575 C581 1.428 . S
H576 C572 0.930 . S
H577 C574 0.929 . S
S578 N579 1.613 . S
S578 N580 1.610 . S
N579 S578 1.613 . S
N579 C582 1.350 . S
N580 S578 1.610 . S
N580 C581 1.351 . S
C581 C575 1.428 . S
C581 N580 1.351 . S
C581 C582 1.434 . S
C582 C573 1.429 . S
C582 N579 1.350 . S
C582 C581 1.434 . S
C583 C584 1.365 1_565 S
C583 C585 1.419 1_565 S
C583 H587 0.930 . S
C584 C583 1.365 1_545 S
C584 C593 1.448 . S
C585 C583 1.419 1_545 S
C585 C586 1.363 . S
C585 H588 0.929 . S
C586 C585 1.363 . S
C586 C592 1.428 . S
H587 C583 0.930 . S
H588 C585 0.929 . S
S589 N590 1.613 . S
S589 N591 1.610 . S
N590 S589 1.613 . S
N590 C593 1.350 . S
N591 S589 1.610 . S
N591 C592 1.351 . S
C592 C586 1.428 . S
C592 N591 1.351 . S
C592 C593 1.434 . S
C593 C584 1.448 . S
C593 N590 1.350 . S
C593 C592 1.434 . S
C594 C595 1.369 . S
C594 C596 1.419 . S
C594 H598 0.930 . S
C595 C594 1.369 . S
C595 C604 1.429 . S
C596 C594 1.419 . S
C596 C597 1.363 1_554 S
C596 H599 0.929 . S
C597 C596 1.363 1_556 S
C597 C603 1.428 . S
H598 C594 0.930 . S
H599 C596 0.929 . S
S600 N601 1.613 1_556 S
S600 N602 1.610 . S
N601 S600 1.613 1_554 S
N601 C604 1.350 . S
N602 S600 1.610 . S
N602 C603 1.351 . S
C603 C597 1.428 . S
C603 N602 1.351 . S
C603 C604 1.434 1_556 S
C604 C595 1.429 . S
C604 N601 1.350 . S
C604 C603 1.434 1_554 S
C605 C606 1.369 . S
C605 C607 1.419 . S
C605 H609 0.930 . S
C606 C605 1.369 . S
C606 C615 1.429 1_565 S
C607 C605 1.419 . S
C607 C608 1.363 . S
C607 H610 0.929 . S
C608 C607 1.363 . S
C608 C614 1.428 . S
H609 C605 0.930 . S
H610 C607 0.929 . S
S611 N612 1.613 . S
S611 N613 1.602 1_545 S
N612 S611 1.613 . S
N612 C615 1.350 . S
N613 S611 1.602 1_565 S
N613 C614 1.354 . S
C614 C608 1.428 . S
C614 N613 1.354 . S
C614 C615 1.434 1_565 S
C615 C606 1.429 1_545 S
C615 N612 1.350 . S
C615 C614 1.434 1_545 S
C616 C617 1.369 . S
C616 C618 1.419 . S
C616 H620 0.930 . S
C617 C616 1.369 . S
C617 C626 1.429 . S
C618 C616 1.419 . S
C618 C619 1.363 . S
C618 H621 0.929 . S
C619 C618 1.363 . S
C619 C625 1.428 . S
H620 C616 0.930 . S
H621 C618 0.929 . S
S622 N623 1.613 . S
S622 N624 1.610 . S
N623 S622 1.613 . S
N623 C626 1.350 . S
N624 S622 1.610 . S
N624 C625 1.351 . S
C625 C619 1.428 . S
C625 N624 1.351 . S
C625 C626 1.434 . S
C626 C617 1.429 . S
C626 N623 1.350 . S
C626 C625 1.434 . S
C627 C628 1.369 . S
C627 C629 1.419 . S
C627 H631 0.930 . S
C628 C627 1.369 . S
C628 C637 1.429 . S
C629 C627 1.419 . S
C629 C630 1.363 . S
C629 H632 0.929 . S
C630 C629 1.363 . S
C630 C636 1.428 . S
H631 C627 0.930 . S
H632 C629 0.929 . S
S633 N634 1.613 . S
S633 N635 1.610 . S
N634 S633 1.613 . S
N634 C637 1.350 . S
N635 S633 1.610 . S
N635 C636 1.351 . S
C636 C630 1.428 . S
C636 N635 1.351 . S
C636 C637 1.434 . S
C637 C628 1.429 . S
C637 N634 1.350 . S
C637 C636 1.434 . S
C638 C639 1.369 1_455 S
C638 C640 1.419 . S
C638 H642 0.930 . S
C639 C638 1.369 1_655 S
C639 C648 1.429 . S
C640 C638 1.419 . S
C640 C641 1.363 . S
C640 H643 0.929 . S
C641 C640 1.363 . S
C641 C647 1.428 1_455 S
H642 C638 0.930 . S
H643 C640 0.929 . S
S644 N645 1.613 . S
S644 N646 1.610 . S
N645 S644 1.613 . S
N645 C648 1.350 . S
N646 S644 1.610 . S
N646 C647 1.351 . S
C647 C641 1.428 1_655 S
C647 N646 1.351 . S
C647 C648 1.434 . S
C648 C639 1.429 . S
C648 N645 1.350 . S
C648 C647 1.434 . S
C649 C650 1.369 1_455 S
C649 C651 1.419 . S
C649 H653 0.930 . S
C650 C649 1.369 1_655 S
C650 C659 1.429 . S
C651 C649 1.419 . S
C651 C652 1.363 . S
C651 H654 0.929 . S
C652 C651 1.363 . S
C652 C658 1.428 1_455 S
H653 C649 0.930 . S
H654 C651 0.929 . S
S655 N656 1.613 . S
S655 N657 1.610 . S
N656 S655 1.613 . S
N656 C659 1.350 . S
N657 S655 1.610 . S
N657 C658 1.351 . S
C658 C652 1.428 1_655 S
C658 N657 1.351 . S
C658 C659 1.434 . S
C659 C650 1.429 . S
C659 N656 1.350 . S
C659 C658 1.434 . S
C660 C661 1.369 . S
C660 C662 1.419 . S
C660 H664 0.930 . S
C661 C660 1.369 . S
C661 C670 1.429 . S
C662 C660 1.419 . S
C662 C663 1.363 . S
C662 H665 0.929 . S
C663 C662 1.363 . S
C663 C669 1.428 . S
H664 C660 0.930 . S
H665 C662 0.929 . S
S666 N667 1.613 . S
S666 N668 1.610 . S
N667 S666 1.613 . S
N667 C670 1.350 . S
N668 S666 1.610 . S
N668 C669 1.351 . S
C669 C663 1.428 . S
C669 N668 1.351 . S
C669 C670 1.434 . S
C670 C661 1.429 . S
C670 N667 1.350 . S
C670 C669 1.434 . S
C671 C672 1.369 . S
C671 C673 1.419 . S
C671 H675 0.930 . S
C672 C671 1.369 . S
C672 C681 1.429 . S
C673 C671 1.419 . S
C673 C674 1.363 . S
C673 H676 0.929 . S
C674 C673 1.363 . S
C674 C680 1.428 . S
H675 C671 0.930 . S
H676 C673 0.929 . S
S677 N678 1.613 . S
S677 N679 1.610 . S
N678 S677 1.613 . S
N678 C681 1.350 . S
N679 S677 1.610 . S
N679 C680 1.351 . S
C680 C674 1.428 . S
C680 N679 1.351 . S
C680 C681 1.434 . S
C681 C672 1.429 . S
C681 N678 1.350 . S
C681 C680 1.434 . S
C682 C683 1.381 . S
C682 C684 1.407 1_455 S
C682 H686 0.930 1_455 S
C683 C682 1.381 . S
C683 C692 1.429 . S
C684 C682 1.407 1_655 S
C684 C685 1.363 . S
C684 H687 0.929 . S
C685 C684 1.363 . S
C685 C691 1.414 1_655 S
H686 C682 0.930 1_655 S
H687 C684 0.929 . S
S688 N689 1.613 . S
S688 N690 1.610 . S
N689 S688 1.613 . S
N689 C692 1.350 . S
N690 S688 1.610 . S
N690 C691 1.354 . S
C691 C685 1.414 1_455 S
C691 N690 1.354 . S
C691 C692 1.448 . S
C692 C683 1.429 . S
C692 N689 1.350 . S
C692 C691 1.448 . S
C693 C694 1.369 . S
C693 C695 1.419 1_455 S
C693 H697 0.930 . S
C694 C693 1.369 . S
C694 C703 1.429 . S
C695 C693 1.419 1_655 S
C695 C696 1.363 . S
C695 H698 0.929 . S
C696 C695 1.363 . S
C696 C702 1.428 . S
H697 C693 0.930 . S
H698 C695 0.929 . S
S699 N700 1.613 1_655 S
S699 N701 1.610 . S
N700 S699 1.613 1_455 S
N700 C703 1.350 . S
N701 S699 1.610 . S
N701 C702 1.351 . S
C702 C696 1.428 . S
C702 N701 1.351 . S
C702 C703 1.434 1_655 S
C703 C694 1.429 . S
C703 N700 1.350 . S
C703 C702 1.434 1_455 S
C704 C705 1.369 . S
C704 C706 1.419 . S
C704 H708 0.930 . S
C705 C704 1.369 . S
C705 C714 1.429 . S
C706 C704 1.419 . S
C706 C707 1.363 . S
C706 H709 0.929 . S
C707 C706 1.363 . S
C707 C713 1.428 . S
H708 C704 0.930 . S
H709 C706 0.929 . S
S710 N711 1.613 . S
S710 N712 1.610 . S
N711 S710 1.613 . S
N711 C714 1.350 . S
N712 S710 1.610 . S
N712 C713 1.351 . S
C713 C707 1.428 . S
C713 N712 1.351 . S
C713 C714 1.434 . S
C714 C705 1.429 . S
C714 N711 1.350 . S
C714 C713 1.434 . S
C715 C716 1.369 . S
C715 C717 1.419 . S
C715 H719 0.930 . S
C716 C715 1.369 . S
C716 C725 1.429 . S
C717 C715 1.419 . S
C717 C718 1.363 . S
C717 H720 0.929 . S
C718 C717 1.363 . S
C718 C724 1.428 . S
H719 C715 0.930 . S
H720 C717 0.929 . S
S721 N722 1.613 . S
S721 N723 1.610 . S
N722 S721 1.613 . S
N722 C725 1.350 . S
N723 S721 1.610 . S
N723 C724 1.351 . S
C724 C718 1.428 . S
C724 N723 1.351 . S
C724 C725 1.434 . S
C725 C716 1.429 . S
C725 N722 1.350 . S
C725 C724 1.434 . S
C726 C727 1.369 . S
C726 C728 1.419 . S
C726 H730 0.930 . S
C727 C726 1.369 . S
C727 C736 1.429 . S
C728 C726 1.419 . S
C728 C729 1.363 . S
C728 H731 0.929 . S
C729 C728 1.363 . S
C729 C735 1.428 . S
H730 C726 0.930 . S
H731 C728 0.929 . S
S732 N733 1.613 . S
S732 N734 1.610 . S
N733 S732 1.613 . S
N733 C736 1.350 . S
N734 S732 1.610 . S
N734 C735 1.351 . S
C735 C729 1.428 . S
C735 N734 1.351 . S
C735 C736 1.434 . S
C736 C727 1.429 . S
C736 N733 1.350 . S
C736 C735 1.434 . S
C737 C738 1.369 . S
C737 C739 1.419 . S
C737 H741 0.930 . S
C738 C737 1.369 . S
C738 C747 1.429 . S
C739 C737 1.419 . S
C739 C740 1.363 . S
C739 H742 0.929 . S
C740 C739 1.363 . S
C740 C746 1.428 . S
H741 C737 0.930 . S
H742 C739 0.929 . S
S743 N744 1.613 . S
S743 N745 1.610 . S
N744 S743 1.613 . S
N744 C747 1.350 . S
N745 S743 1.610 . S
N745 C746 1.351 . S
C746 C740 1.428 . S
C746 N745 1.351 . S
C746 C747 1.434 . S
C747 C738 1.429 . S
C747 N744 1.350 . S
C747 C746 1.434 . S
C748 C749 1.369 . S
C748 C750 1.419 . S
C748 H752 0.930 . S
C749 C748 1.369 . S
C749 C758 1.429 . S
C750 C748 1.419 . S
C750 C751 1.363 . S
C750 H753 0.929 . S
C751 C750 1.363 . S
C751 C757 1.428 . S
H752 C748 0.930 . S
H753 C750 0.929 . S
S754 N755 1.613 . S
S754 N756 1.610 . S
N755 S754 1.613 . S
N755 C758 1.350 . S
N756 S754 1.610 . S
N756 C757 1.351 . S
C757 C751 1.428 . S
C757 N756 1.351 . S
C757 C758 1.434 . S
C758 C749 1.429 . S
C758 N755 1.350 . S
C758 C757 1.434 . S
C759 C760 1.369 . S
C759 C761 1.419 . S
C759 H763 0.930 . S
C760 C759 1.369 . S
C760 C769 1.429 . S
C761 C759 1.419 . S
C761 C762 1.363 . S
C761 H764 0.929 . S
C762 C761 1.363 . S
C762 C768 1.428 . S
H763 C759 0.930 . S
H764 C761 0.929 . S
S765 N766 1.613 . S
S765 N767 1.610 . S
N766 S765 1.613 . S
N766 C769 1.350 . S
N767 S765 1.610 . S
N767 C768 1.351 . S
C768 C762 1.428 . S
C768 N767 1.351 . S
C768 C769 1.434 . S
C769 C760 1.429 . S
C769 N766 1.350 . S
C769 C768 1.434 . S
C770 C771 1.369 . S
C770 C772 1.419 . S
C770 H774 0.930 . S
C771 C770 1.369 . S
C771 C780 1.429 . S
C772 C770 1.419 . S
C772 C773 1.363 . S
C772 H775 0.929 . S
C773 C772 1.363 . S
C773 C779 1.428 . S
H774 C770 0.930 . S
H775 C772 0.929 . S
S776 N777 1.613 . S
S776 N778 1.610 . S
N777 S776 1.613 . S
N777 C780 1.350 . S
N778 S776 1.610 . S
N778 C779 1.351 . S
C779 C773 1.428 . S
C779 N778 1.351 . S
C779 C780 1.434 . S
C780 C771 1.429 . S
C780 N777 1.350 . S
C780 C779 1.434 . S
C781 C782 1.369 . S
C781 C783 1.419 . S
C781 H785 0.930 . S
C782 C781 1.369 . S
C782 C791 1.429 . S
C783 C781 1.419 . S
C783 C784 1.363 . S
C783 H786 0.929 . S
C784 C783 1.363 . S
C784 C790 1.428 . S
H785 C781 0.930 . S
H786 C783 0.929 . S
S787 N788 1.613 . S
S787 N789 1.610 . S
N788 S787 1.613 . S
N788 C791 1.350 . S
N789 S787 1.610 . S
N789 C790 1.351 . S
C790 C784 1.428 . S
C790 N789 1.351 . S
C790 C791 1.434 . S
C791 C782 1.429 . S
C791 N788 1.350 . S
C791 C790 1.434 . S
C792 C793 1.369 . S
C792 C794 1.419 . S
C792 H796 0.930 . S
C793 C792 1.369 . S
C793 C802 1.429 . S
C794 C792 1.419 . S
C794 C795 1.363 . S
C794 H797 0.929 . S
C795 C794 1.363 . S
C795 C801 1.428 . S
H796 C792 0.930 . S
H797 C794 0.929 . S
S798 N799 1.613 . S
S798 N800 1.610 . S
N799 S798 1.613 . S
N799 C802 1.350 . S
N800 S798 1.610 . S
N800 C801 1.351 . S
C801 C795 1.428 . S
C801 N800 1.351 . S
C801 C802 1.434 . S
C802 C793 1.429 . S
C802 N799 1.350 . S
C802 C801 1.434 . S
C803 C804 1.369 1_545 S
C803 C805 1.419 . S
C803 H807 0.930 . S
C804 C803 1.369 1_565 S
C804 C813 1.429 . S
C805 C803 1.419 . S
C805 C806 1.363 . S
C805 H808 0.929 . S
C806 C805 1.363 . S
C806 C812 1.428 1_545 S
H807 C803 0.930 . S
H808 C805 0.929 . S
S809 N810 1.613 . S
S809 N811 1.610 . S
N810 S809 1.613 . S
N810 C813 1.350 . S
N811 S809 1.610 . S
N811 C812 1.351 . S
C812 C806 1.428 1_565 S
C812 N811 1.351 . S
C812 C813 1.434 . S
C813 C804 1.429 . S
C813 N810 1.350 . S
C813 C812 1.434 . S
C814 C815 1.369 . S
C814 C816 1.419 . S
C814 H818 0.930 . S
C815 C814 1.369 . S
C815 C824 1.429 . S
C816 C814 1.419 . S
C816 C817 1.363 . S
C816 H819 0.929 . S
C817 C816 1.363 . S
C817 C823 1.428 . S
H818 C814 0.930 . S
H819 C816 0.929 . S
S820 N821 1.613 . S
S820 N822 1.610 . S
N821 S820 1.613 . S
N821 C824 1.350 . S
N822 S820 1.610 . S
N822 C823 1.351 . S
C823 C817 1.428 . S
C823 N822 1.351 . S
C823 C824 1.434 . S
C824 C815 1.429 . S
C824 N821 1.350 . S
C824 C823 1.434 . S
C825 C826 1.369 . S
C825 C827 1.419 1_565 S
C825 H829 0.930 . S
C826 C825 1.369 . S
C826 C835 1.429 . S
C827 C825 1.419 1_545 S
C827 C828 1.363 . S
C827 H830 0.929 . S
C828 C827 1.363 . S
C828 C834 1.428 . S
H829 C825 0.930 . S
H830 C827 0.929 . S
S831 N832 1.613 . S
S831 N833 1.610 1_565 S
N832 S831 1.613 . S
N832 C835 1.350 . S
N833 S831 1.610 1_545 S
N833 C834 1.351 . S
C834 C828 1.428 . S
C834 N833 1.351 . S
C834 C835 1.434 1_545 S
C835 C826 1.429 . S
C835 N832 1.350 . S
C835 C834 1.434 1_565 S
C836 C837 1.369 . S
C836 C838 1.419 . S
C836 H840 0.930 . S
C837 C836 1.369 . S
C837 C846 1.429 . S
C838 C836 1.419 . S
C838 C839 1.363 . S
C838 H841 0.929 . S
C839 C838 1.363 . S
C839 C845 1.428 . S
H840 C836 0.930 . S
H841 C838 0.929 . S
S842 N843 1.613 . S
S842 N844 1.610 . S
N843 S842 1.613 . S
N843 C846 1.350 . S
N844 S842 1.610 . S
N844 C845 1.351 . S
C845 C839 1.428 . S
C845 N844 1.351 . S
C845 C846 1.434 . S
C846 C837 1.429 . S
C846 N843 1.350 . S
C846 C845 1.434 . S
C847 C848 1.369 1_545 S
C847 C849 1.419 . S
C847 H851 0.930 . S
C848 C847 1.369 1_565 S
C848 C857 1.429 . S
C849 C847 1.419 . S
C849 C850 1.363 . S
C849 H852 0.929 . S
C850 C849 1.363 . S
C850 C856 1.428 1_545 S
H851 C847 0.930 . S
H852 C849 0.929 . S
S853 N854 1.613 . S
S853 N855 1.610 . S
N854 S853 1.613 . S
N854 C857 1.350 . S
N855 S853 1.610 . S
N855 C856 1.351 . S
C856 C850 1.428 1_565 S
C856 N855 1.351 . S
C856 C857 1.434 . S
C857 C848 1.429 . S
C857 N854 1.350 . S
C857 C856 1.434 . S
C858 C859 1.369 . S
C858 C860 1.419 . S
C858 H862 0.930 . S
C859 C858 1.369 . S
C859 C868 1.429 . S
C860 C858 1.419 . S
C860 C861 1.363 . S
C860 H863 0.929 . S
C861 C860 1.363 . S
C861 C867 1.428 . S
H862 C858 0.930 . S
H863 C860 0.929 . S
S864 N865 1.613 . S
S864 N866 1.610 . S
N865 S864 1.613 . S
N865 C868 1.350 . S
N866 S864 1.610 . S
N866 C867 1.351 . S
C867 C861 1.428 . S
C867 N866 1.351 . S
C867 C868 1.434 . S
C868 C859 1.429 . S
C868 N865 1.350 . S
C868 C867 1.434 . S
C869 C870 1.369 . S
C869 C871 1.419 . S
C869 H873 0.930 . S
C870 C869 1.369 . S
C870 C879 1.429 1_565 S
C871 C869 1.419 . S
C871 C872 1.363 1_565 S
C871 H874 0.929 . S
C872 C871 1.363 1_545 S
C872 C878 1.428 . S
H873 C869 0.930 . S
H874 C871 0.929 . S
S875 N876 1.613 . S
S875 N877 1.610 . S
N876 S875 1.613 . S
N876 C879 1.350 . S
N877 S875 1.610 . S
N877 C878 1.351 . S
C878 C872 1.428 . S
C878 N877 1.351 . S
C878 C879 1.434 . S
C879 C870 1.429 1_545 S
C879 N876 1.350 . S
C879 C878 1.434 . S
C353 C7 1.217 . S
C355 C271 1.212 . S
C364 C125 1.207 . S
C366 C29 1.219 . S
C375 C65 1.209 . S
C377 C323 1.218 . S
C386 C73 1.220 . S
C388 C175 1.210 . S
C397 C95 1.221 . S
C399 C183 1.209 . S
C408 C227 1.218 . S
C410 C147 1.211 . S
C419 C307 1.221 1_545 S
C421 C219 1.209 1_565 S
C430 C249 1.221 1_545 S
C432 C337 1.209 1_565 S
C441 C213 1.630 . S
C443 C10 1.612 . S
C452 C32 1.612 . S
C454 C241 1.634 . S
C463 C62 1.617 . S
C465 C263 1.631 . S
C474 C197 1.631 . S
C476 C76 1.612 . S
C485 C301 1.631 . S
C487 C98 1.616 . S
C496 C315 1.632 . S
C498 C118 1.617 . S
C507 C140 1.616 . S
C509 C351 1.633 . S
C518 C285 1.629 . S
C520 C172 1.613 . S
C529 C186 1.613 . S
C531 C43 1.634 . S
C540 C216 1.617 . S
C542 C59 1.631 . S
C551 C230 1.617 . S
C553 C87 1.631 . S
C562 C21 1.633 . S
C564 C252 1.616 1_545 S
C573 C117 1.631 . S
C575 C274 1.612 . S
C584 C304 1.600 1_545 S
C586 C139 1.632 . S
C595 C169 1.630 . S
C597 C316 1.613 . S
C606 C340 1.616 1_565 S
C608 C109 1.630 . S
C617 C8 1.135 . S
C619 C228 1.130 . S
C628 C30 1.120 . S
C630 C250 1.126 . S
C639 C184 1.123 . S
C641 C54 1.134 . S
C650 C74 1.131 . S
C652 C208 1.121 . S
C661 C96 1.130 . S
C663 C326 1.121 . S
C672 C128 1.133 . S
C674 C338 1.121 . S
C683 C272 1.125 . S
C685 C150 1.134 . S
C694 C164 1.124 . S
C696 C296 1.124 . S
C705 C18 1.562 . S
C707 C161 1.615 . S
C716 C279 1.612 . S
C718 C40 1.557 . S
C727 C52 1.561 . S
C729 C131 1.615 . S
C738 C84 1.564 . S
C740 C329 1.617 . S
C749 C106 1.556 . S
C751 C81 1.613 . S
C760 C191 1.617 . S
C762 C120 1.563 . S
C771 C142 1.564 . S
C773 C37 1.617 . S
C782 C235 1.617 . S
C784 C162 1.563 . S
C793 C194 1.558 . S
C795 C345 1.614 . S
C804 C103 1.613 . S
C806 C206 1.557 . S
C815 C293 1.617 . S
C817 C238 1.564 . S
C826 C260 1.565 . S
C828 C153 1.617 . S
C837 C282 1.565 . S
C839 C257 1.617 . S
C848 C294 1.565 . S
C850 C15 1.617 . S
C859 C205 1.616 . S
C861 C318 1.561 . S
C870 C51 1.618 . S
C872 C348 1.564 . S
