# Generated by pormake.
# Topology unm, (4)-cn, num edge types: 1
# Building blocks:
#     Node 0, Type 0, BuildingBlock: UXUYUI_clean_sbu_0, # of connection points: 4
#     Node 1, Type 0, BuildingBlock: UXUYUI_clean_sbu_0, # of connection points: 4
#     Node 2, Type 0, BuildingBlock: UXUYUI_clean_sbu_0, # of connection points: 4
#     Node 3, Type 0, BuildingBlock: UXUYUI_clean_sbu_0, # of connection points: 4
#     Node 4, Type 0, BuildingBlock: UXUYUI_clean_sbu_0, # of connection points: 4
#     Node 5, Type 0, BuildingBlock: UXUYUI_clean_sbu_0, # of connection points: 4
#     Node 6, Type 0, BuildingBlock: UXUYUI_clean_sbu_0, # of connection points: 4
#     Node 7, Type 0, BuildingBlock: UXUYUI_clean_sbu_0, # of connection points: 4
#     Edge 8, Type (0, 0), BuildingBlock: CIFDUS_clean_linker_0, # of connection points: 2
#     Edge 9, Type (0, 0), BuildingBlock: CIFDUS_clean_linker_0, # of connection points: 2
#     Edge 10, Type (0, 0), BuildingBlock: CIFDUS_clean_linker_0, # of connection points: 2
#     Edge 11, Type (0, 0), BuildingBlock: CIFDUS_clean_linker_0, # of connection points: 2
#     Edge 12, Type (0, 0), BuildingBlock: CIFDUS_clean_linker_0, # of connection points: 2
#     Edge 13, Type (0, 0), BuildingBlock: CIFDUS_clean_linker_0, # of connection points: 2
#     Edge 14, Type (0, 0), BuildingBlock: CIFDUS_clean_linker_0, # of connection points: 2
#     Edge 15, Type (0, 0), BuildingBlock: CIFDUS_clean_linker_0, # of connection points: 2
#     Edge 16, Type (0, 0), BuildingBlock: CIFDUS_clean_linker_0, # of connection points: 2
#     Edge 17, Type (0, 0), BuildingBlock: CIFDUS_clean_linker_0, # of connection points: 2
#     Edge 18, Type (0, 0), BuildingBlock: CIFDUS_clean_linker_0, # of connection points: 2
#     Edge 19, Type (0, 0), BuildingBlock: CIFDUS_clean_linker_0, # of connection points: 2
#     Edge 20, Type (0, 0), BuildingBlock: CIFDUS_clean_linker_0, # of connection points: 2
#     Edge 21, Type (0, 0), BuildingBlock: CIFDUS_clean_linker_0, # of connection points: 2
#     Edge 22, Type (0, 0), BuildingBlock: CIFDUS_clean_linker_0, # of connection points: 2
#     Edge 23, Type (0, 0), BuildingBlock: CIFDUS_clean_linker_0, # of connection points: 2
# Relax obj value: 0.260
# Max RMSD: 0.186
# Mean RMSD: 0.185
data_MOF--net-unm--node1-UXUYUI_clean_sbu_0--edge1-CIFDUS_clean_linker_0
_symmetry_space_group_name_H-M    P1
_symmetry_Int_Tables_number       1
_symmetry_cell_setting            triclinic
loop_
_symmetry_equiv_pos_as_xyz
'x, y, z'
_cell_length_a     34.876522
_cell_length_b     34.773568
_cell_length_c     56.896813
_cell_angle_alpha  90.057064
_cell_angle_beta   90.012255
_cell_angle_gamma 90.017484
loop_
_atom_site_label
_atom_site_type_symbol
_atom_site_fract_x
_atom_site_fract_y
_atom_site_fract_z
_atom_type_partial_charge
Li0 Li 0.07674 0.26972 0.1557 0.0
Li1 Li 0.11746 0.23008 0.17894 0.0
Li2 Li 0.08482 0.20453 0.14274 0.0
Li3 Li 0.04731 0.22152 0.17892 0.0
C4 C 0.14816 0.27007 0.1351 0.0
N5 N 0.19605 0.32255 0.11357 0.0
C6 C 0.1629 0.30107 0.14787 0.0
C7 C 0.15775 0.26569 0.11141 0.0
C8 C 0.18706 0.32733 0.13666 0.0
C9 C 0.18204 0.29255 0.10084 0.0
C10 C 0.07769 0.26599 0.21424 0.0
C11 C 0.08207 0.23209 0.25112 0.0
N12 N 0.0774 0.2659 0.26281 0.0
C13 C 0.07289 0.30037 0.22663 0.0
C14 C 0.08228 0.23152 0.22657 0.0
C15 C 0.07285 0.29974 0.25118 0.0
C16 C 0.04348 0.34025 0.16072 0.0
N17 N 0.06733 0.32119 0.14589 0.0
C18 C 0.06852 0.37482 0.11963 0.0
C19 C 0.07994 0.33754 0.12557 0.0
C20 C 0.04337 0.39474 0.13454 0.0
C21 C 0.03098 0.37714 0.15534 0.0
H22 H 0.0335 0.32636 0.17655 0.0
H23 H 0.09788 0.32146 0.11365 0.0
C24 C 0.18961 0.20068 0.19499 0.0
N25 N 0.16467 0.23067 0.19618 0.0
C26 C 0.22569 0.2033 0.20573 0.0
C27 C 0.20937 0.26727 0.21895 0.0
C28 C 0.17384 0.26348 0.20793 0.0
C29 C 0.23607 0.2371 0.21779 0.0
H30 H 0.1818 0.17507 0.18529 0.0
H31 H 0.154 0.28733 0.20817 0.0
C32 C 0.01603 0.25573 0.13048 0.0
N33 N 0.97658 0.30381 0.10034 0.0
C34 C 0.98137 0.27228 0.13752 0.0
C35 C 0.03051 0.26343 0.10806 0.0
C36 C 0.96191 0.2966 0.12205 0.0
C37 C 0.01013 0.28782 0.09309 0.0
C38 C 0.07221 0.1443 0.17521 0.0
C39 C 0.04149 0.13601 0.16025 0.0
C40 C 0.08665 0.11565 0.18995 0.0
C41 C 0.02572 0.09908 0.16029 0.0
C42 C 0.07005 0.07908 0.18951 0.0
N43 N 0.04019 0.07162 0.17481 0.0
C44 C 0.12554 0.15871 0.11021 0.0
C45 C 0.06012 0.16862 0.10062 0.0
C46 C 0.1319 0.14073 0.08856 0.0
N47 N 0.09028 0.17287 0.11556 0.0
C48 C 0.06533 0.15138 0.07868 0.0
C49 C 0.10177 0.13789 0.07225 0.0
H50 H 0.14907 0.16288 0.12233 0.0
H51 H 0.03234 0.18001 0.10534 0.0
C52 C 0.98466 0.24861 0.2025 0.0
N53 N 0.0017 0.21448 0.19739 0.0
C54 C 0.95014 0.24985 0.21477 0.0
C55 C 0.95096 0.18051 0.21675 0.0
C56 C 0.9859 0.18064 0.20452 0.0
C57 C 0.93233 0.21551 0.2218 0.0
H58 H 0.9978 0.27511 0.19673 0.0
H59 H 0.99996 0.15376 0.20056 0.0
O60 O 0.12444 0.24405 0.14569 0.0
O61 O 0.07748 0.26639 0.19017 0.0
O62 O 0.03605 0.23264 0.14559 0.0
O63 O 0.08849 0.18009 0.17537 0.0
H64 H 0.15526 0.30517 0.1661 0.0
H65 H 0.14643 0.24189 0.10127 0.0
H66 H 0.19854 0.35158 0.14628 0.0
H67 H 0.18969 0.28958 0.0825 0.0
H68 H 0.0856 0.20565 0.26088 0.0
H69 H 0.06925 0.32729 0.21735 0.0
H70 H 0.08594 0.20458 0.2174 0.0
H71 H 0.06918 0.32615 0.26098 0.0
H72 H 0.07839 0.38753 0.10335 0.0
H73 H 0.0119 0.39183 0.16739 0.0
H74 H 0.24527 0.17922 0.20454 0.0
H75 H 0.2163 0.2941 0.22764 0.0
H76 H 0.96967 0.26657 0.15475 0.0
H77 H 0.05763 0.25139 0.10247 0.0
H78 H 0.93515 0.30977 0.1273 0.0
H79 H 0.02117 0.29427 0.07577 0.0
H80 H 0.02963 0.15787 0.1489 0.0
H81 H 0.11046 0.12165 0.20161 0.0
H82 H 0.00189 0.09228 0.14885 0.0
H83 H 0.08092 0.05663 0.20084 0.0
H84 H 0.16049 0.13095 0.08415 0.0
H85 H 0.04135 0.14941 0.06663 0.0
H86 H 0.93762 0.27759 0.21873 0.0
H87 H 0.93834 0.15326 0.22173 0.0
Li88 Li 0.29607 0.59631 0.64196 0.0
Li89 Li 0.27074 0.62611 0.67645 0.0
Li90 Li 0.28312 0.55388 0.67575 0.0
Li91 Li 0.2304 0.58523 0.65288 0.0
C92 C 0.35907 0.59596 0.669 0.0
N93 N 0.43663 0.59291 0.65938 0.0
C94 C 0.37828 0.62879 0.66114 0.0
C95 C 0.37927 0.56162 0.67206 0.0
C96 C 0.41751 0.62664 0.65634 0.0
C97 C 0.41849 0.56066 0.66709 0.0
C98 C 0.25186 0.67316 0.64265 0.0
C99 C 0.21888 0.7325 0.65134 0.0
N100 N 0.24888 0.75262 0.64229 0.0
C101 C 0.28242 0.69447 0.63351 0.0
C102 C 0.21981 0.69234 0.65163 0.0
C103 C 0.28031 0.7346 0.63343 0.0
C104 C 0.30345 0.61785 0.59568 0.0
N105 N 0.3248 0.60164 0.61304 0.0
C106 C 0.37523 0.58821 0.58559 0.0
C107 C 0.36016 0.58679 0.60842 0.0
C108 C 0.35334 0.60435 0.56735 0.0
C109 C 0.31723 0.61972 0.57276 0.0
H110 H 0.27493 0.62825 0.59945 0.0
H111 H 0.37602 0.57232 0.62207 0.0
C112 C 0.24233 0.67587 0.71227 0.0
N113 N 0.27051 0.67147 0.69596 0.0
C114 C 0.23698 0.71124 0.72351 0.0
C115 C 0.29137 0.73624 0.70216 0.0
C116 C 0.29578 0.70032 0.69146 0.0
C117 C 0.26098 0.74238 0.71795 0.0
H118 H 0.22308 0.65236 0.71598 0.0
H119 H 0.31826 0.69608 0.67867 0.0
C120 C 0.27991 0.52887 0.62285 0.0
N121 N 0.30561 0.49623 0.58147 0.0
C122 C 0.2591 0.53376 0.60207 0.0
C123 C 0.31369 0.50726 0.62263 0.0
C124 C 0.27262 0.51709 0.58132 0.0
C125 C 0.3262 0.49097 0.60152 0.0
C126 C 0.20121 0.57243 0.69401 0.0
C127 C 0.19338 0.53391 0.6992 0.0
C128 C 0.17134 0.59926 0.69431 0.0
C129 C 0.15586 0.52289 0.70452 0.0
C130 C 0.13419 0.5871 0.69971 0.0
N131 N 0.12728 0.54948 0.70465 0.0
C132 C 0.29692 0.51087 0.71726 0.0
C133 C 0.28583 0.47394 0.68289 0.0
C134 C 0.29375 0.47796 0.73128 0.0
N135 N 0.29215 0.50834 0.69359 0.0
C136 C 0.28271 0.44035 0.69619 0.0
C137 C 0.28552 0.44223 0.72079 0.0
H138 H 0.30087 0.53874 0.72537 0.0
H139 H 0.28058 0.47286 0.6642 0.0
C140 C 0.15328 0.60013 0.63772 0.0
N141 N 0.18082 0.57327 0.64164 0.0
C142 C 0.11583 0.58867 0.63256 0.0
C143 C 0.13679 0.52241 0.63386 0.0
C144 C 0.17352 0.5351 0.63936 0.0
C145 C 0.10704 0.54926 0.63113 0.0
H146 H 0.15992 0.63028 0.63962 0.0
H147 H 0.19607 0.51443 0.64259 0.0
O148 O 0.32085 0.59756 0.67416 0.0
O149 O 0.25361 0.63382 0.64322 0.0
O150 O 0.26779 0.54601 0.64318 0.0
O151 O 0.23759 0.58357 0.68795 0.0
H152 H 0.36303 0.65552 0.65858 0.0
H153 H 0.36481 0.53599 0.6782 0.0
H154 H 0.43275 0.65176 0.65014 0.0
H155 H 0.43449 0.53428 0.66933 0.0
H156 H 0.1944 0.74768 0.65842 0.0
H157 H 0.30783 0.68029 0.62692 0.0
H158 H 0.19625 0.67647 0.65924 0.0
H159 H 0.30382 0.75141 0.62649 0.0
H160 H 0.40301 0.57555 0.58208 0.0
H161 H 0.29951 0.6328 0.55933 0.0
H162 H 0.21324 0.71462 0.73559 0.0
H163 H 0.31102 0.75922 0.69771 0.0
H164 H 0.2331 0.55074 0.60191 0.0
H165 H 0.33041 0.50365 0.6385 0.0
H166 H 0.25698 0.52088 0.56506 0.0
H167 H 0.35242 0.47438 0.60105 0.0
H168 H 0.21586 0.51258 0.69887 0.0
H169 H 0.17654 0.62902 0.68984 0.0
H170 H 0.14943 0.49315 0.70846 0.0
H171 H 0.11081 0.60753 0.69978 0.0
H172 H 0.29636 0.48067 0.75017 0.0
H173 H 0.27569 0.41363 0.68738 0.0
H174 H 0.09376 0.61037 0.63079 0.0
H175 H 0.13159 0.4918 0.63239 0.0
Li176 Li 0.88425 0.76822 0.18159 0.0
Li177 Li 0.92383 0.72721 0.15441 0.0
Li178 Li 0.95383 0.77724 0.17699 0.0
Li179 Li 0.91475 0.79313 0.14369 0.0
C180 C 0.94567 0.7201 0.20783 0.0
N181 N 0.99 0.69903 0.24591 0.0
C182 C 0.97564 0.69386 0.20497 0.0
C183 C 0.93796 0.73538 0.23006 0.0
C184 C 0.99782 0.68366 0.22444 0.0
C185 C 0.96076 0.72439 0.2491 0.0
C186 C 0.85518 0.72319 0.13765 0.0
C187 C 0.8458 0.68028 0.10479 0.0
N188 N 0.81911 0.6606 0.11739 0.0
C189 C 0.82751 0.70266 0.15022 0.0
C190 C 0.86427 0.71205 0.11469 0.0
C191 C 0.80964 0.67108 0.13968 0.0
C192 C 0.81433 0.79696 0.20051 0.0
N193 N 0.84003 0.76762 0.20132 0.0
C194 C 0.79947 0.73218 0.2274 0.0
C195 C 0.83345 0.73577 0.21457 0.0
C196 C 0.77201 0.76172 0.22665 0.0
C197 C 0.78004 0.79469 0.2132 0.0
H198 H 0.82011 0.82173 0.18958 0.0
H199 H 0.85418 0.71263 0.21464 0.0
C200 C 0.95356 0.66726 0.12604 0.0
N201 N 0.93012 0.67584 0.14436 0.0
C202 C 0.96082 0.62902 0.12016 0.0
C203 C 0.91939 0.60931 0.15204 0.0
C204 C 0.91273 0.64792 0.15718 0.0
C205 C 0.94426 0.59943 0.13355 0.0
H206 H 0.96751 0.69 0.11642 0.0
H207 H 0.89466 0.65574 0.17188 0.0
C208 C 0.92693 0.84642 0.18926 0.0
N209 N 0.95625 0.90486 0.21681 0.0
C210 C 0.95712 0.86906 0.18095 0.0
C211 C 0.91141 0.85363 0.21147 0.0
C212 C 0.97164 0.8984 0.19519 0.0
C213 C 0.92667 0.88332 0.22515 0.0
C214 C 0.9829 0.77942 0.12561 0.0
C215 C 0.01167 0.80661 0.1298 0.0
C216 C 0.97392 0.76918 0.10247 0.0
C217 C 0.03105 0.82296 0.11078 0.0
C218 C 0.99387 0.78629 0.08393 0.0
N219 N 0.0218 0.81258 0.08844 0.0
C220 C 0.03165 0.76543 0.1852 0.0
C221 C 0.00328 0.80132 0.21599 0.0
C222 C 0.06609 0.76293 0.19758 0.0
N223 N 0.00102 0.78436 0.19445 0.0
C224 C 0.03728 0.79945 0.22904 0.0
C225 C 0.06919 0.77964 0.21997 0.0
H226 H 0.02881 0.75067 0.16857 0.0
H227 H 0.9783 0.81468 0.22361 0.0
C228 C 0.87506 0.81537 0.10323 0.0
N229 N 0.90565 0.82525 0.11675 0.0
C230 C 0.86964 0.83222 0.08127 0.0
C231 C 0.92619 0.87087 0.08786 0.0
C232 C 0.93023 0.85355 0.10993 0.0
C233 C 0.89596 0.85961 0.07304 0.0
H234 H 0.85548 0.79338 0.10912 0.0
H235 H 0.95397 0.86149 0.12112 0.0
O236 O 0.92446 0.7314 0.18886 0.0
O237 O 0.87374 0.7536 0.14788 0.0
O238 O 0.91215 0.81775 0.17557 0.0
O239 O 0.96353 0.76307 0.14401 0.0
H240 H 0.98201 0.68193 0.18782 0.0
H241 H 0.915 0.75595 0.23249 0.0
H242 H 0.02133 0.66364 0.22247 0.0
H243 H 0.95535 0.73618 0.26638 0.0
H244 H 0.85278 0.67119 0.08711 0.0
H245 H 0.82001 0.71086 0.16795 0.0
H246 H 0.88573 0.72747 0.10474 0.0
H247 H 0.78828 0.65484 0.14925 0.0
H248 H 0.79469 0.70647 0.23772 0.0
H249 H 0.75954 0.81798 0.21193 0.0
H250 H 0.9799 0.62272 0.10565 0.0
H251 H 0.90656 0.58753 0.16312 0.0
H252 H 0.96932 0.86387 0.16377 0.0
H253 H 0.88798 0.83636 0.21811 0.0
H254 H 0.99514 0.91604 0.18906 0.0
H255 H 0.91507 0.88917 0.24242 0.0
H256 H 0.01868 0.81543 0.1475 0.0
H257 H 0.95131 0.74879 0.0988 0.0
H258 H 0.05328 0.8441 0.11379 0.0
H259 H 0.987 0.77883 0.06596 0.0
H260 H 0.08949 0.74653 0.19008 0.0
H261 H 0.0383 0.81273 0.24625 0.0
H262 H 0.84599 0.82259 0.07041 0.0
H263 H 0.9468 0.8923 0.08229 0.0
Li264 Li 0.71569 0.46005 0.67931 0.0
Li265 Li 0.77092 0.42983 0.65826 0.0
Li266 Li 0.70655 0.41635 0.64578 0.0
Li267 Li 0.73047 0.38805 0.68138 0.0
C268 C 0.72299 0.4829 0.62579 0.0
N269 N 0.70124 0.51154 0.58252 0.0
C270 C 0.74823 0.4811 0.60674 0.0
C271 C 0.68676 0.4994 0.62287 0.0
C272 C 0.73668 0.49572 0.585 0.0
C273 C 0.67629 0.51368 0.60084 0.0
C274 C 0.79687 0.44397 0.70017 0.0
C275 C 0.86355 0.43019 0.7078 0.0
N276 N 0.86956 0.46789 0.71298 0.0
C277 C 0.80375 0.4826 0.70558 0.0
C278 C 0.82702 0.41752 0.70132 0.0
C279 C 0.84066 0.4941 0.71205 0.0
C280 C 0.70301 0.50514 0.72022 0.0
N281 N 0.70343 0.50578 0.69631 0.0
C282 C 0.70211 0.57453 0.69628 0.0
C283 C 0.70243 0.5395 0.68427 0.0
C284 C 0.70356 0.57492 0.72095 0.0
C285 C 0.70319 0.5396 0.73297 0.0
H286 H 0.70485 0.47793 0.72935 0.0
H287 H 0.70416 0.53936 0.66533 0.0
C288 C 0.84663 0.41284 0.64314 0.0
N289 N 0.82132 0.44123 0.64843 0.0
C290 C 0.88505 0.42172 0.63912 0.0
C291 C 0.8699 0.48906 0.64454 0.0
C292 C 0.83187 0.47884 0.64862 0.0
C293 C 0.89713 0.46019 0.6403 0.0
H294 H 0.83729 0.38327 0.6428 0.0
H295 H 0.81095 0.50072 0.65289 0.0
C296 C 0.6417 0.41349 0.67197 0.0
N297 N 0.56423 0.41044 0.66208 0.0
C298 C 0.62455 0.37851 0.66595 0.0
C299 C 0.61949 0.44689 0.67307 0.0
C300 C 0.58533 0.37758 0.66097 0.0
C301 C 0.58035 0.44475 0.66798 0.0
C302 C 0.75268 0.34099 0.64764 0.0
C303 C 0.72387 0.31932 0.6368 0.0
C304 C 0.78419 0.32225 0.65763 0.0
C305 C 0.72721 0.2793 0.63601 0.0
C306 C 0.7864 0.28218 0.65655 0.0
N307 N 0.75812 0.26171 0.64583 0.0
C308 C 0.70515 0.39664 0.59927 0.0
C309 C 0.64305 0.41631 0.61095 0.0
C310 C 0.693 0.3919 0.57615 0.0
N311 N 0.68031 0.40837 0.61622 0.0
C312 C 0.62948 0.41158 0.58792 0.0
C313 C 0.65463 0.39911 0.57014 0.0
H314 H 0.73493 0.39182 0.60363 0.0
H315 H 0.62402 0.42723 0.62429 0.0
C316 C 0.75732 0.3434 0.71964 0.0
N317 N 0.73185 0.34353 0.70155 0.0
C318 C 0.76485 0.30951 0.73198 0.0
C319 C 0.71791 0.27694 0.70795 0.0
C320 C 0.71111 0.31157 0.69618 0.0
C321 C 0.74591 0.27531 0.72572 0.0
H322 H 0.77273 0.36933 0.72407 0.0
H323 H 0.69072 0.31236 0.6819 0.0
O324 O 0.73335 0.46771 0.64702 0.0
O325 O 0.76116 0.43233 0.69307 0.0
O326 O 0.67982 0.41492 0.67737 0.0
O327 O 0.74986 0.38024 0.64872 0.0
H328 H 0.77624 0.4681 0.60864 0.0
H329 H 0.66666 0.5005 0.63734 0.0
H330 H 0.75582 0.49433 0.57007 0.0
H331 H 0.64823 0.52625 0.59827 0.0
H332 H 0.88718 0.41008 0.70854 0.0
H333 H 0.78106 0.50365 0.70446 0.0
H334 H 0.82248 0.38766 0.69678 0.0
H335 H 0.84639 0.52393 0.71617 0.0
H336 H 0.703 0.60102 0.6863 0.0
H337 H 0.70416 0.53865 0.75198 0.0
H338 H 0.90525 0.39876 0.63564 0.0
H339 H 0.87822 0.519 0.64581 0.0
H340 H 0.64138 0.35244 0.66499 0.0
H341 H 0.63235 0.47415 0.6778 0.0
H342 H 0.57167 0.35075 0.6562 0.0
H343 H 0.56279 0.47037 0.66871 0.0
H344 H 0.69886 0.33309 0.62939 0.0
H345 H 0.80633 0.33836 0.66658 0.0
H346 H 0.70508 0.26221 0.62773 0.0
H347 H 0.81048 0.26733 0.66436 0.0
H348 H 0.71384 0.38346 0.56303 0.0
H349 H 0.59967 0.41765 0.58413 0.0
H350 H 0.78585 0.31 0.746 0.0
H351 H 0.70263 0.2514 0.7024 0.0
Li352 Li 0.54647 0.27267 0.33009 0.0
Li353 Li 0.58592 0.291 0.36321 0.0
Li354 Li 0.61499 0.26459 0.32488 0.0
Li355 Li 0.57627 0.22271 0.35282 0.0
C356 C 0.56669 0.34357 0.32106 0.0
N357 N 0.52443 0.40215 0.30109 0.0
C358 C 0.53677 0.36061 0.33364 0.0
C359 C 0.5754 0.35645 0.29843 0.0
C360 C 0.51563 0.39012 0.32319 0.0
C361 C 0.55363 0.38611 0.28862 0.0
C362 C 0.51946 0.26064 0.38449 0.0
C363 C 0.51298 0.23859 0.42448 0.0
N364 N 0.48161 0.26139 0.42717 0.0
C365 C 0.48694 0.28361 0.3876 0.0
C366 C 0.5324 0.2377 0.40302 0.0
C367 C 0.46829 0.28369 0.40933 0.0
C368 C 0.46752 0.26518 0.3254 0.0
N369 N 0.49826 0.28015 0.31389 0.0
C370 C 0.45906 0.29352 0.28025 0.0
C371 C 0.49468 0.29428 0.29167 0.0
C372 C 0.42691 0.27847 0.29195 0.0
C373 C 0.43146 0.26453 0.31488 0.0
H374 H 0.47122 0.25223 0.34246 0.0
H375 H 0.51964 0.3047 0.28243 0.0
C376 C 0.63503 0.32489 0.39585 0.0
N377 N 0.59731 0.32255 0.39004 0.0
C378 C 0.64596 0.33736 0.41817 0.0
C379 C 0.57935 0.34911 0.42726 0.0
C380 C 0.56971 0.33639 0.40468 0.0
C381 C 0.61779 0.34786 0.43462 0.0
H382 H 0.65653 0.31445 0.38373 0.0
H383 H 0.54005 0.33564 0.39942 0.0
C384 C 0.55614 0.21887 0.29756 0.0
N385 N 0.51694 0.20495 0.25623 0.0
C386 C 0.52404 0.1948 0.29752 0.0
C387 C 0.56851 0.23562 0.27657 0.0
C388 C 0.50451 0.18824 0.27645 0.0
C389 C 0.54829 0.22822 0.25585 0.0
C390 C 0.65045 0.23243 0.37325 0.0
C391 C 0.68388 0.21567 0.36438 0.0
C392 C 0.64314 0.23115 0.3974 0.0
C393 C 0.70924 0.19752 0.37981 0.0
C394 C 0.66923 0.2128 0.41225 0.0
N395 N 0.70145 0.19645 0.40322 0.0
C396 C 0.67909 0.29546 0.29976 0.0
C397 C 0.67105 0.22783 0.29796 0.0
C398 C 0.71282 0.29294 0.28652 0.0
N399 N 0.65918 0.2631 0.30527 0.0
C400 C 0.70474 0.22394 0.28491 0.0
C401 C 0.72626 0.25673 0.27913 0.0
H402 H 0.66909 0.32312 0.30595 0.0
H403 H 0.65462 0.2026 0.30269 0.0
C404 C 0.53149 0.16042 0.36318 0.0
N405 N 0.56864 0.17202 0.36375 0.0
C406 C 0.52188 0.12261 0.36858 0.0
C407 C 0.58886 0.1097 0.37617 0.0
C408 C 0.59725 0.14772 0.37023 0.0
C409 C 0.5508 0.09643 0.37491 0.0
H410 H 0.50942 0.18041 0.35778 0.0
H411 H 0.62663 0.15736 0.37024 0.0
O412 O 0.58744 0.31448 0.33092 0.0
O413 O 0.53793 0.26018 0.36325 0.0
O414 O 0.57504 0.22653 0.31809 0.0
O415 O 0.62538 0.25043 0.35836 0.0
H416 H 0.52977 0.35088 0.35119 0.0
H417 H 0.59851 0.34348 0.28851 0.0
H418 H 0.49222 0.40345 0.33264 0.0
H419 H 0.55988 0.39631 0.27108 0.0
H420 H 0.52278 0.22105 0.43898 0.0
H421 H 0.47656 0.30169 0.37349 0.0
H422 H 0.55698 0.21918 0.40086 0.0
H423 H 0.44328 0.30155 0.41202 0.0
H424 H 0.4567 0.30428 0.26246 0.0
H425 H 0.40759 0.25187 0.32429 0.0
H426 H 0.67604 0.33692 0.42291 0.0
H427 H 0.55672 0.35733 0.43929 0.0
H428 H 0.51403 0.18172 0.31362 0.0
H429 H 0.59314 0.25456 0.27633 0.0
H430 H 0.47942 0.16995 0.27619 0.0
H431 H 0.55738 0.24116 0.23949 0.0
H432 H 0.69018 0.21658 0.3458 0.0
H433 H 0.61785 0.24454 0.40467 0.0
H434 H 0.73515 0.18431 0.37317 0.0
H435 H 0.66392 0.21166 0.43097 0.0
H436 H 0.72871 0.31892 0.2826 0.0
H437 H 0.71379 0.19557 0.27934 0.0
H438 H 0.49227 0.11373 0.36681 0.0
H439 H 0.61206 0.09075 0.38122 0.0
Li440 Li 0.2352 0.12572 0.82653 0.0
Li441 Li 0.21016 0.09077 0.86408 0.0
Li442 Li 0.27671 0.08497 0.85024 0.0
Li443 Li 0.22766 0.0552 0.8287 0.0
C444 C 0.27837 0.15216 0.87148 0.0
N445 N 0.33738 0.19018 0.89415 0.0
C446 C 0.28257 0.14906 0.89583 0.0
C447 C 0.30416 0.17469 0.85867 0.0
C448 C 0.31261 0.16845 0.90696 0.0
C449 C 0.33378 0.19369 0.87045 0.0
C450 C 0.1575 0.07678 0.8204 0.0
C451 C 0.10118 0.03658 0.82041 0.0
N452 N 0.10111 0.037 0.79651 0.0
C453 C 0.1568 0.077 0.79585 0.0
C454 C 0.12947 0.05654 0.83283 0.0
C455 C 0.12808 0.05662 0.78408 0.0
C456 C 0.23488 0.16871 0.78419 0.0
N457 N 0.23342 0.1715 0.808 0.0
C458 C 0.24141 0.23974 0.80597 0.0
C459 C 0.23525 0.20621 0.81896 0.0
C460 C 0.24508 0.2377 0.78136 0.0
C461 C 0.24051 0.20158 0.77047 0.0
H462 H 0.23344 0.14072 0.77592 0.0
H463 H 0.23389 0.20766 0.83792 0.0
C464 C 0.19982 0.08272 0.91179 0.0
N465 N 0.18112 0.09481 0.89222 0.0
C466 C 0.18355 0.08774 0.93395 0.0
C467 C 0.1278 0.11562 0.91537 0.0
C468 C 0.14555 0.1106 0.89349 0.0
C469 C 0.14716 0.10482 0.93611 0.0
H470 H 0.22813 0.07026 0.9102 0.0
H471 H 0.13132 0.11999 0.87761 0.0
C472 C 0.30663 0.08323 0.80676 0.0
N473 N 0.38027 0.07858 0.78902 0.0
C474 C 0.32704 0.04868 0.80807 0.0
C475 C 0.32362 0.11534 0.79627 0.0
C476 C 0.36426 0.04694 0.79907 0.0
C477 C 0.36089 0.11241 0.78743 0.0
C478 C 0.23638 0.00674 0.86536 0.0
C479 C 0.2637 0.98005 0.85781 0.0
C480 C 0.20321 0.99397 0.87672 0.0
C481 C 0.25704 0.94087 0.86137 0.0
C482 C 0.19767 0.95454 0.88002 0.0
N483 N 0.22443 0.92904 0.8723 0.0
C484 C 0.3314 0.05202 0.87993 0.0
C485 C 0.35809 0.09778 0.85383 0.0
C486 C 0.36777 0.04208 0.88807 0.0
N487 N 0.32732 0.07847 0.86253 0.0
C488 C 0.395 0.08859 0.86131 0.0
C489 C 0.40025 0.0596 0.87819 0.0
H490 H 0.30645 0.03783 0.88709 0.0
H491 H 0.35427 0.11939 0.84047 0.0
C492 C 0.24031 0.0036 0.79127 0.0
N493 N 0.21732 0.0094 0.81023 0.0
C494 C 0.24096 0.96805 0.77987 0.0
C495 C 0.19143 0.94591 0.80619 0.0
C496 C 0.19196 0.98192 0.8172 0.0
C497 C 0.21716 0.93809 0.78775 0.0
H498 H 0.25949 0.02604 0.78553 0.0
H499 H 0.17329 0.9872 0.83198 0.0
O500 O 0.24941 0.13299 0.8602 0.0
O501 O 0.18574 0.09596 0.83222 0.0
O502 O 0.27005 0.08545 0.81537 0.0
O503 O 0.24227 0.04521 0.8619 0.0
H504 H 0.26295 0.13184 0.90605 0.0
H505 H 0.3019 0.17681 0.83976 0.0
H506 H 0.31623 0.16621 0.92579 0.0
H507 H 0.35408 0.21099 0.86072 0.0
H508 H 0.07939 0.02062 0.82978 0.0
H509 H 0.17843 0.09245 0.78601 0.0
H510 H 0.12982 0.0559 0.85185 0.0
H511 H 0.12727 0.05634 0.76508 0.0
H512 H 0.24504 0.26663 0.8153 0.0
H513 H 0.24217 0.19851 0.75157 0.0
H514 H 0.20016 0.0796 0.94922 0.0
H515 H 0.09948 0.12829 0.916 0.0
H516 H 0.31435 0.02355 0.81608 0.0
H517 H 0.30848 0.14238 0.79521 0.0
H518 H 0.38042 0.02045 0.80009 0.0
H519 H 0.37444 0.13709 0.77938 0.0
H520 H 0.28968 0.98948 0.8492 0.0
H521 H 0.18172 0.0142 0.88263 0.0
H522 H 0.27779 0.91988 0.85545 0.0
H523 H 0.17201 0.94421 0.88863 0.0
H524 H 0.37046 0.02021 0.9015 0.0
H525 H 0.41916 0.10275 0.85308 0.0
H526 H 0.26139 0.96365 0.7658 0.0
H527 H 0.17181 0.92414 0.81252 0.0
Li528 Li 0.45475 0.7156 0.3289 0.0
Li529 Li 0.41326 0.69882 0.3611 0.0
Li530 Li 0.38651 0.72866 0.32323 0.0
Li531 Li 0.4267 0.76586 0.35259 0.0
C532 C 0.42696 0.64689 0.31667 0.0
N533 N 0.45891 0.58548 0.29294 0.0
C534 C 0.45579 0.62503 0.32724 0.0
C535 C 0.41408 0.63739 0.29414 0.0
C536 C 0.4717 0.59415 0.31491 0.0
C537 C 0.43066 0.60622 0.28242 0.0
C538 C 0.48125 0.71286 0.38198 0.0
C539 C 0.48902 0.71183 0.42411 0.0
N540 N 0.5176 0.6855 0.42176 0.0
C541 C 0.5108 0.6859 0.37998 0.0
C542 C 0.47039 0.7261 0.40421 0.0
C543 C 0.52881 0.67242 0.4003 0.0
C544 C 0.53335 0.72378 0.32279 0.0
N545 N 0.50254 0.70662 0.31253 0.0
C546 C 0.54047 0.69042 0.27882 0.0
C547 C 0.50551 0.68991 0.29095 0.0
C548 C 0.57247 0.70882 0.28884 0.0
C549 C 0.56865 0.7251 0.31129 0.0
H550 H 0.53011 0.73804 0.33956 0.0
H551 H 0.48044 0.67795 0.28257 0.0
C552 C 0.36547 0.67275 0.39695 0.0
N553 N 0.40031 0.66599 0.38708 0.0
C554 C 0.35563 0.65581 0.41831 0.0
C555 C 0.4169 0.62346 0.41857 0.0
C556 C 0.42532 0.6406 0.39691 0.0
C557 C 0.38195 0.6317 0.42974 0.0
H558 H 0.34576 0.69249 0.38868 0.0
H559 H 0.45242 0.63476 0.38849 0.0
C560 C 0.45401 0.77685 0.30107 0.0
N561 N 0.50593 0.80014 0.2673 0.0
C562 C 0.48385 0.80187 0.30703 0.0
C563 C 0.45035 0.76392 0.27791 0.0
C564 C 0.50988 0.81322 0.28971 0.0
C565 C 0.47693 0.776 0.26109 0.0
C566 C 0.35423 0.76868 0.36834 0.0
C567 C 0.32637 0.78949 0.3561 0.0
C568 C 0.36024 0.77599 0.39222 0.0
C569 C 0.30529 0.81766 0.36792 0.0
C570 C 0.3386 0.80442 0.4034 0.0
N571 N 0.31182 0.82451 0.39112 0.0
C572 C 0.31238 0.70961 0.306 0.0
C573 C 0.34241 0.76235 0.28713 0.0
C574 C 0.27892 0.71534 0.29286 0.0
N575 N 0.34314 0.73312 0.30298 0.0
C576 C 0.30972 0.76893 0.27353 0.0
C577 C 0.27722 0.74549 0.27643 0.0
H578 H 0.31356 0.68694 0.31899 0.0
H579 H 0.36688 0.78125 0.28551 0.0
C580 C 0.46911 0.82036 0.3776 0.0
N581 N 0.43615 0.8153 0.36523 0.0
C582 C 0.48007 0.85698 0.38492 0.0
C583 C 0.42253 0.88252 0.36706 0.0
C584 C 0.41286 0.84538 0.35988 0.0
C585 C 0.45693 0.88864 0.37932 0.0
H586 H 0.48779 0.79622 0.3809 0.0
H587 H 0.38764 0.8408 0.34922 0.0
O588 O 0.41103 0.67716 0.32843 0.0
O589 O 0.4632 0.72637 0.36229 0.0
O590 O 0.42901 0.76441 0.31793 0.0
O591 O 0.37534 0.74113 0.35705 0.0
H592 H 0.46592 0.63202 0.3447 0.0
H593 H 0.39166 0.65404 0.2858 0.0
H594 H 0.4942 0.57709 0.3228 0.0
H595 H 0.42112 0.59858 0.26493 0.0
H596 H 0.48075 0.72168 0.44142 0.0
H597 H 0.51947 0.67512 0.36295 0.0
H598 H 0.44775 0.74709 0.40608 0.0
H599 H 0.55159 0.65142 0.39902 0.0
H600 H 0.54195 0.67806 0.26137 0.0
H601 H 0.59256 0.73933 0.31978 0.0
H602 H 0.3284 0.66303 0.42633 0.0
H603 H 0.43773 0.60456 0.42668 0.0
H604 H 0.48717 0.81197 0.32491 0.0
H605 H 0.42762 0.74424 0.27308 0.0
H606 H 0.53331 0.83231 0.29411 0.0
H607 H 0.47466 0.76599 0.24314 0.0
H608 H 0.32125 0.78419 0.33764 0.0
H609 H 0.3814 0.75991 0.40201 0.0
H610 H 0.28377 0.83412 0.35864 0.0
H611 H 0.34307 0.81049 0.42185 0.0
H612 H 0.25465 0.69641 0.29554 0.0
H613 H 0.3095 0.79285 0.26136 0.0
H614 H 0.50693 0.86068 0.39422 0.0
H615 H 0.40441 0.9064 0.36198 0.0
Li616 Li 0.77127 0.95477 0.82889 0.0
Li617 Li 0.72273 0.92469 0.85251 0.0
Li618 Li 0.78794 0.92339 0.86603 0.0
Li619 Li 0.76681 0.88133 0.83221 0.0
C620 C 0.75391 0.00753 0.86184 0.0
N621 N 0.75151 0.08699 0.86256 0.0
C622 C 0.72195 0.02701 0.85302 0.0
C623 C 0.78453 0.02852 0.87122 0.0
C624 C 0.72134 0.06717 0.85346 0.0
C625 C 0.78278 0.06866 0.87141 0.0
C626 C 0.69413 0.91705 0.80861 0.0
C627 C 0.64207 0.88096 0.79141 0.0
N628 N 0.62147 0.91397 0.78923 0.0
C629 C 0.67247 0.95063 0.80608 0.0
C630 C 0.67883 0.88191 0.80116 0.0
C631 C 0.63579 0.94846 0.79631 0.0
C632 C 0.75611 0.99765 0.78818 0.0
N633 N 0.77871 0.99738 0.80764 0.0
C634 C 0.79616 0.06311 0.80106 0.0
C635 C 0.80036 0.02855 0.81343 0.0
C636 C 0.76993 0.06523 0.78232 0.0
C637 C 0.75119 0.03137 0.77527 0.0
H638 H 0.7403 0.97218 0.78331 0.0
H639 H 0.81914 0.0274 0.8285 0.0
C640 C 0.66727 0.95774 0.88148 0.0
N641 N 0.67183 0.93067 0.86446 0.0
C642 C 0.63074 0.96743 0.88941 0.0
C643 C 0.6044 0.91899 0.86357 0.0
C644 C 0.64151 0.91 0.85633 0.0
C645 C 0.59858 0.94897 0.87976 0.0
H646 H 0.69198 0.97257 0.88849 0.0
H647 H 0.64587 0.88721 0.84378 0.0
C648 C 0.85082 0.91359 0.84102 0.0
N649 N 0.92597 0.90789 0.85584 0.0
C650 C 0.8697 0.87818 0.84019 0.0
C651 C 0.87013 0.94614 0.84923 0.0
C652 C 0.90774 0.8759 0.84779 0.0
C653 C 0.90812 0.94265 0.85671 0.0
C654 C 0.72369 0.86322 0.87884 0.0
C655 C 0.71905 0.87451 0.90225 0.0
C656 C 0.69908 0.83571 0.86916 0.0
C657 C 0.68967 0.85814 0.91559 0.0
C658 C 0.67008 0.81999 0.88309 0.0
N659 N 0.66599 0.83145 0.90582 0.0
C660 C 0.80165 0.94982 0.91124 0.0
C661 C 0.84049 0.89618 0.90165 0.0
C662 C 0.81265 0.94763 0.93473 0.0
N663 N 0.81518 0.92407 0.89527 0.0
C664 C 0.85237 0.89296 0.92511 0.0
C665 C 0.83735 0.91819 0.9421 0.0
H666 H 0.7801 0.97045 0.90613 0.0
H667 H 0.84953 0.87493 0.88895 0.0
C668 C 0.76783 0.83127 0.79284 0.0
N669 N 0.77097 0.8329 0.81663 0.0
C670 C 0.76433 0.79576 0.78147 0.0
C671 C 0.76965 0.76427 0.81918 0.0
C672 C 0.77286 0.80038 0.82982 0.0
C673 C 0.76439 0.76164 0.79472 0.0
H674 H 0.76626 0.85763 0.7828 0.0
H675 H 0.77526 0.80255 0.84873 0.0
O676 O 0.7552 0.96816 0.86134 0.0
O677 O 0.73027 0.9186 0.81801 0.0
O678 O 0.81357 0.91635 0.83382 0.0
O679 O 0.7517 0.87957 0.86535 0.0
H680 H 0.69784 0.01132 0.84594 0.0
H681 H 0.80973 0.01403 0.87788 0.0
H682 H 0.69685 0.08258 0.84659 0.0
H683 H 0.80639 0.08523 0.87845 0.0
H684 H 0.62983 0.85393 0.7857 0.0
H685 H 0.68383 0.97809 0.81158 0.0
H686 H 0.69479 0.85552 0.80323 0.0
H687 H 0.61872 0.97423 0.79433 0.0
H688 H 0.81152 0.08836 0.80702 0.0
H689 H 0.73173 0.03127 0.76043 0.0
H690 H 0.62769 0.98989 0.90247 0.0
H691 H 0.58054 0.90382 0.85567 0.0
H692 H 0.85505 0.85274 0.83386 0.0
H693 H 0.8558 0.97372 0.84998 0.0
H694 H 0.92273 0.84868 0.84733 0.0
H695 H 0.9234 0.96755 0.86323 0.0
H696 H 0.73771 0.89592 0.90997 0.0
H697 H 0.70193 0.82708 0.85097 0.0
H698 H 0.68563 0.86671 0.93371 0.0
H699 H 0.65067 0.79884 0.87579 0.0
H700 H 0.8004 0.96767 0.94724 0.0
H701 H 0.87097 0.86943 0.93014 0.0
H702 H 0.76095 0.79506 0.76255 0.0
H703 H 0.76962 0.7388 0.83011 0.0
H704 H 0.08212 0.17245 0.03137 0.0
H705 H 0.13859 0.07197 0.05907 0.0
H706 H 0.1545 0.05098 0.01913 0.0
H707 H 0.15477 0.06281 0.97664 0.0
H708 H 0.10336 0.16675 0.94947 0.0
H709 H 0.08179 0.18388 0.98877 0.0
C710 C 0.09743 0.14567 0.02861 0.0
C711 C 0.10907 0.12368 0.04808 0.0
C712 C 0.10722 0.13431 0.00568 0.0
C713 C 0.12947 0.08941 0.04432 0.0
C714 C 0.13851 0.07741 0.02152 0.0
C715 C 0.13911 0.08939 0.97923 0.0
C716 C 0.131 0.11341 0.95988 0.0
C717 C 0.12803 0.09996 1.00209 0.0
C718 C 0.10967 0.14721 0.96375 0.0
C719 C 0.09762 0.15734 0.98635 0.0
H720 H 0.31299 0.58656 0.52808 0.0
H721 H 0.42492 0.62335 0.55119 0.0
H722 H 0.44521 0.63107 0.51025 0.0
H723 H 0.42875 0.63359 0.46802 0.0
H724 H 0.31577 0.59902 0.44548 0.0
H725 H 0.29815 0.58444 0.48605 0.0
C726 C 0.34186 0.59625 0.52416 0.0
C727 C 0.36723 0.60495 0.54265 0.0
C728 C 0.35302 0.60125 0.50067 0.0
C729 C 0.40485 0.61647 0.53728 0.0
C730 C 0.41637 0.6211 0.51388 0.0
C731 C 0.40057 0.62208 0.47198 0.0
C732 C 0.37351 0.61758 0.45381 0.0
C733 C 0.39041 0.61439 0.49544 0.0
C734 C 0.33694 0.60309 0.4592 0.0
C735 C 0.32686 0.59476 0.48238 0.0
H736 H 0.83164 0.88446 0.05098 0.0
H737 H 0.95283 0.86749 0.0403 0.0
H738 H 0.94601 0.88525 0.99887 0.0
H739 H 0.90456 0.90209 0.96504 0.0
H740 H 0.78325 0.91805 0.97637 0.0
H741 H 0.79113 0.90409 0.01802 0.0
C742 C 0.85657 0.88479 0.03959 0.0
C743 C 0.89261 0.87451 0.04866 0.0
C744 C 0.85238 0.89465 0.01582 0.0
C745 C 0.9248 0.87562 0.03378 0.0
C746 C 0.92086 0.88546 0.01005 0.0
C747 C 0.87996 0.90259 0.97668 0.0
C748 C 0.84343 0.91127 0.9676 0.0
C749 C 0.88465 0.89444 1.00076 0.0
C750 C 0.81179 0.91204 0.98293 0.0
C751 C 0.81619 0.90383 0.00676 0.0
H752 H 0.59193 0.40291 0.46541 0.0
H753 H 0.66614 0.30387 0.46054 0.0
H754 H 0.68268 0.31022 0.50191 0.0
H755 H 0.676 0.34313 0.53947 0.0
H756 H 0.60401 0.44367 0.5449 0.0
H757 H 0.58563 0.43661 0.50362 0.0
C758 C 0.61168 0.38275 0.47345 0.0
C759 C 0.62814 0.35327 0.45977 0.0
C760 C 0.62112 0.38649 0.49743 0.0
C761 C 0.65372 0.32737 0.47046 0.0
C762 C 0.66295 0.33073 0.49421 0.0
C763 C 0.6566 0.36385 0.53164 0.0
C764 C 0.64166 0.39402 0.54535 0.0
C765 C 0.64692 0.36019 0.50782 0.0
C766 C 0.6157 0.41988 0.53492 0.0
C767 C 0.60543 0.41608 0.51122 0.0
H768 H 0.25381 0.26927 0.26008 0.0
H769 H 0.30549 0.2154 0.19954 0.0
H770 H 0.36918 0.22488 0.21657 0.0
H771 H 0.41039 0.24842 0.24889 0.0
H772 H 0.35815 0.30161 0.30941 0.0
H773 H 0.29463 0.29317 0.29198 0.0
C774 C 0.27901 0.25984 0.25051 0.0
C775 C 0.27478 0.24164 0.22854 0.0
C776 C 0.31553 0.26554 0.26034 0.0
C777 C 0.30779 0.22903 0.21661 0.0
C778 C 0.34428 0.23473 0.22625 0.0
C779 C 0.38507 0.25858 0.25806 0.0
C780 C 0.3889 0.27579 0.28033 0.0
C781 C 0.34853 0.25303 0.24809 0.0
C782 C 0.35586 0.28822 0.29226 0.0
C783 C 0.31957 0.28336 0.28233 0.0
H784 H 0.24116 0.76204 0.76287 0.0
H785 H 0.26256 0.81058 0.69435 0.0
H786 H 0.24918 0.87487 0.7095 0.0
H787 H 0.23159 0.91742 0.74214 0.0
H788 H 0.21251 0.8693 0.8111 0.0
H789 H 0.2233 0.80482 0.79561 0.0
C790 C 0.24268 0.78667 0.75123 0.0
C791 C 0.25317 0.78145 0.72754 0.0
C792 C 0.23489 0.82367 0.76006 0.0
C793 C 0.25529 0.81378 0.71275 0.0
C794 C 0.24732 0.85056 0.72136 0.0
C795 C 0.23 0.89293 0.75387 0.0
C796 C 0.22114 0.89852 0.7778 0.0
C797 C 0.23725 0.85588 0.745 0.0
C798 C 0.21854 0.8661 0.79253 0.0
C799 C 0.22515 0.82911 0.78374 0.0
H800 H 0.61814 0.77203 0.28527 0.0
H801 H 0.6092 0.65391 0.26264 0.0
H802 H 0.66994 0.65983 0.24143 0.0
H803 H 0.72584 0.69852 0.22952 0.0
H804 H 0.73476 0.81647 0.25253 0.0
H805 H 0.67386 0.81059 0.27343 0.0
C806 C 0.62966 0.74743 0.27589 0.0
C807 C 0.60923 0.71247 0.2757 0.0
C808 C 0.66459 0.75103 0.26378 0.0
C809 C 0.62418 0.6812 0.26298 0.0
C810 C 0.65901 0.68452 0.25094 0.0
C811 C 0.71464 0.72284 0.23929 0.0
C812 C 0.73497 0.75787 0.23949 0.0
C813 C 0.67953 0.71926 0.25128 0.0
C814 C 0.71961 0.78929 0.25188 0.0
C815 C 0.68485 0.7859 0.26394 0.0
H816 H 0.69857 0.21606 0.73822 0.0
H817 H 0.81756 0.25023 0.73813 0.0
H818 H 0.83556 0.18891 0.75571 0.0
H819 H 0.81778 0.12471 0.77047 0.0
H820 H 0.69877 0.09062 0.76999 0.0
H821 H 0.68087 0.1521 0.75271 0.0
C822 C 0.72849 0.21004 0.74185 0.0
C823 C 0.75654 0.238 0.73691 0.0
C824 C 0.7388 0.17442 0.75168 0.0
C825 C 0.79515 0.22969 0.74211 0.0
C826 C 0.80558 0.19442 0.752 0.0
C827 C 0.78793 0.1308 0.76667 0.0
C828 C 0.75979 0.10279 0.77134 0.0
C829 C 0.77766 0.1665 0.75683 0.0
C830 C 0.72122 0.1112 0.76614 0.0
C831 C 0.71085 0.14655 0.75643 0.0
H832 H 0.78377 0.20471 0.28572 0.0
H833 H 0.75055 0.30076 0.24231 0.0
H834 H 0.81056 0.29559 0.22039 0.0
H835 H 0.8723 0.26402 0.21358 0.0
H836 H 0.90708 0.16957 0.25793 0.0
H837 H 0.84608 0.17311 0.27891 0.0
C838 C 0.78955 0.22429 0.27133 0.0
C839 C 0.76269 0.25312 0.26568 0.0
C840 C 0.82425 0.22128 0.25885 0.0
C841 C 0.77087 0.27861 0.24719 0.0
C842 C 0.8051 0.27554 0.23457 0.0
C843 C 0.86686 0.24441 0.228 0.0
C844 C 0.89458 0.21668 0.23417 0.0
C845 C 0.83206 0.24712 0.24032 0.0
C846 C 0.8863 0.19094 0.25255 0.0
C847 C 0.85147 0.19314 0.26471 0.0
H848 H 0.30809 0.36793 0.71361 0.0
H849 H 0.24165 0.43917 0.7605 0.0
H850 H 0.22281 0.38254 0.78304 0.0
H851 H 0.22333 0.3126 0.78868 0.0
H852 H 0.2917 0.24154 0.74258 0.0
H853 H 0.31033 0.29804 0.72009 0.0
C854 C 0.28949 0.37105 0.72877 0.0
C855 C 0.27647 0.40783 0.73537 0.0
C856 C 0.27852 0.33829 0.7416 0.0
C857 C 0.25266 0.41135 0.75521 0.0
C858 C 0.24154 0.3789 0.768 0.0
C859 C 0.24264 0.30936 0.77389 0.0
C860 C 0.2557 0.27249 0.76736 0.0
C861 C 0.25411 0.34219 0.76128 0.0
C862 C 0.28029 0.2692 0.74782 0.0
C863 C 0.29139 0.30164 0.73503 0.0
H864 H 0.20326 0.7453 0.29212 0.0
H865 H 0.27137 0.763 0.22976 0.0
H866 H 0.21344 0.77656 0.20711 0.0
H867 H 0.1434 0.78291 0.20487 0.0
H868 H 0.07501 0.76385 0.26698 0.0
H869 H 0.13302 0.75179 0.28986 0.0
C870 C 0.20539 0.75178 0.27352 0.0
C871 C 0.24167 0.75302 0.26266 0.0
C872 C 0.17191 0.75963 0.26058 0.0
C873 C 0.2439 0.76216 0.23863 0.0
C874 C 0.21076 0.76981 0.22563 0.0
C875 C 0.14114 0.77595 0.22339 0.0
C876 C 0.10478 0.77437 0.23413 0.0
C877 C 0.17461 0.7686 0.23641 0.0
C878 C 0.10255 0.76588 0.25827 0.0
C879 C 0.13573 0.75862 0.27135 0.0
H880 H 0.75323 0.59082 0.75656 0.0
H881 H 0.66526 0.64243 0.71364 0.0
H882 H 0.67656 0.70464 0.73248 0.0
H883 H 0.71201 0.74457 0.76075 0.0
H884 H 0.80066 0.69322 0.8033 0.0
H885 H 0.78816 0.63066 0.78524 0.0
C886 C 0.73613 0.61556 0.75159 0.0
C887 C 0.70835 0.61194 0.73376 0.0
C888 C 0.74303 0.65134 0.76235 0.0
C889 C 0.68695 0.64448 0.72721 0.0
C890 C 0.69339 0.68005 0.73798 0.0
C891 C 0.7289 0.71979 0.76591 0.0
C892 C 0.75738 0.72371 0.7833 0.0
C893 C 0.72161 0.6839 0.75541 0.0
C894 C 0.7784 0.69104 0.79009 0.0
C895 C 0.77134 0.65525 0.77972 0.0
H896 H 0.0152 0.57174 0.12328 0.0
H897 H 0.89845 0.53557 0.13558 0.0
H898 H 0.91867 0.46837 0.13503 0.0
H899 H 0.97035 0.42047 0.13457 0.0
H900 H 0.08684 0.45653 0.12206 0.0
H901 H 0.06566 0.52338 0.11835 0.0
C902 C 0.99395 0.54921 0.12523 0.0
C903 C 0.95541 0.55873 0.12974 0.0
C904 C 0.00575 0.51069 0.1249 0.0
C905 C 0.92842 0.52905 0.13255 0.0
C906 C 0.93991 0.49063 0.13215 0.0
C907 C 0.99096 0.44303 0.13081 0.0
C908 C 0.03007 0.43393 0.12888 0.0
C909 C 0.97864 0.48122 0.12897 0.0
C910 C 0.05657 0.46304 0.12359 0.0
C911 C 0.0445 0.50119 0.12163 0.0
H912 H 0.93051 0.51742 0.61499 0.0
H913 H 0.95565 0.4252 0.66327 0.0
H914 H 0.02303 0.44403 0.66405 0.0
H915 H 0.07356 0.48881 0.65303 0.0
H916 H 0.04981 0.58033 0.6039 0.0
H917 H 0.9827 0.56022 0.6019 0.0
C918 C 0.95088 0.50143 0.62557 0.0
C919 C 0.93829 0.46998 0.63902 0.0
C920 C 0.98955 0.51252 0.62601 0.0
C921 C 0.96484 0.44921 0.65254 0.0
C922 C 0.00326 0.46013 0.65313 0.0
C923 C 0.05403 0.50392 0.64144 0.0
C924 C 0.06681 0.536 0.62859 0.0
C925 C 0.0158 0.49195 0.64014 0.0
C926 C 0.04067 0.55582 0.6142 0.0
C927 C 0.00235 0.54421 0.61294 0.0
H928 H 0.48663 0.06534 0.39488 0.0
H929 H 0.59382 0.03413 0.36188 0.0
H930 H 0.57566 0.96666 0.36301 0.0
H931 H 0.52681 0.91731 0.36929 0.0
H932 H 0.41731 0.94849 0.39885 0.0
H933 H 0.43851 0.01541 0.40258 0.0
C934 C 0.50603 0.04384 0.38787 0.0
C935 C 0.54148 0.05506 0.37819 0.0
C936 C 0.49478 0.00512 0.38767 0.0
C937 C 0.56659 0.02655 0.36976 0.0
C938 C 0.55607 0.98787 0.37013 0.0
C939 C 0.50788 0.93865 0.37698 0.0
C940 C 0.47065 0.92816 0.38386 0.0
C941 C 0.51991 0.97698 0.37852 0.0
C942 C 0.44607 0.9561 0.39336 0.0
C943 C 0.45818 0.99425 0.3955 0.0
H944 H 0.42246 0.98544 0.88419 0.0
H945 H 0.466 0.1017 0.88401 0.0
H946 H 0.53151 0.07736 0.88656 0.0
H947 H 0.57607 0.02326 0.88445 0.0
H948 H 0.53266 0.90696 0.88564 0.0
H949 H 0.46707 0.93136 0.88734 0.0
C950 C 0.44614 0.00556 0.88537 0.0
C951 C 0.43933 0.04535 0.88364 0.0
C952 C 0.48368 0.99139 0.88676 0.0
C953 C 0.4705 0.07092 0.88485 0.0
C954 C 0.50794 0.05704 0.88638 0.0
C955 C 0.55241 0.00314 0.88576 0.0
C956 C 0.55932 0.9633 0.88467 0.0
C957 C 0.51486 0.01733 0.88669 0.0
C958 C 0.52813 0.93776 0.88599 0.0
C959 C 0.49064 0.95168 0.88705 0.0
loop_
_geom_bond_atom_site_label_1
_geom_bond_atom_site_label_2
_geom_bond_distance
_geom_bond_site_symmetry_2
_ccdc_geom_bond_type
Li0 N17 1.990 . S
Li0 O60 1.956 . S
Li0 O61 1.970 . S
Li0 O62 1.961 . S
Li1 N25 1.990 . S
Li1 O60 1.970 . S
Li1 O61 1.956 . S
Li1 O63 1.961 . S
Li2 N47 1.990 . S
Li2 O60 1.961 . S
Li2 O62 1.956 . S
Li2 O63 1.970 . S
Li3 N53 1.990 1_455 S
Li3 O61 1.961 . S
Li3 O62 1.970 . S
Li3 O63 1.956 . S
C4 C6 1.348 . S
C4 C7 1.356 . S
C4 O60 1.325 . S
N5 C8 1.314 . S
N5 C9 1.279 . S
C6 C4 1.348 . S
C6 C8 1.353 . S
C6 H64 0.929 . S
C7 C4 1.356 . S
C7 C9 1.358 . S
C7 H65 0.930 . S
C8 N5 1.314 . S
C8 C6 1.353 . S
C8 H66 0.930 . S
C9 N5 1.279 . S
C9 C7 1.358 . S
C9 H67 0.930 . S
C10 C13 1.348 . S
C10 C14 1.356 . S
C10 O61 1.325 . S
C11 N12 1.279 . S
C11 C14 1.358 . S
C11 H68 0.930 . S
N12 C11 1.279 . S
N12 C15 1.314 . S
C13 C10 1.348 . S
C13 C15 1.353 . S
C13 H69 0.929 . S
C14 C10 1.356 . S
C14 C11 1.358 . S
C14 H70 0.930 . S
C15 N12 1.314 . S
C15 C13 1.353 . S
C15 H71 0.930 . S
C16 N17 1.314 . S
C16 C21 1.353 . S
C16 H22 0.930 1_455 S
N17 Li0 1.990 . S
N17 C16 1.314 . S
N17 C19 1.279 . S
C18 C19 1.358 . S
C18 C20 1.356 . S
C18 H72 0.930 . S
C19 N17 1.279 . S
C19 C18 1.358 . S
C19 H23 0.930 . S
C20 C18 1.356 . S
C20 C21 1.348 . S
C21 C16 1.353 . S
C21 C20 1.348 . S
C21 H73 0.929 1_455 S
H22 C16 0.930 1_655 S
H23 C19 0.930 . S
C24 N25 1.314 . S
C24 C26 1.353 . S
C24 H30 0.930 . S
N25 Li1 1.990 . S
N25 C24 1.314 . S
N25 C28 1.279 . S
C26 C24 1.353 . S
C26 C29 1.348 . S
C26 H74 0.929 . S
C27 C28 1.358 . S
C27 C29 1.356 . S
C27 H75 0.930 . S
C28 N25 1.279 . S
C28 C27 1.358 . S
C28 H31 0.930 . S
C29 C26 1.348 . S
C29 C27 1.356 . S
H30 C24 0.930 . S
H31 C28 0.930 . S
C32 C34 1.348 . S
C32 C35 1.356 . S
C32 O62 1.325 1_655 S
N33 C36 1.314 . S
N33 C37 1.279 . S
C34 C32 1.348 . S
C34 C36 1.353 . S
C34 H76 0.929 . S
C35 C32 1.356 . S
C35 C37 1.358 . S
C35 H77 0.930 1_655 S
C36 N33 1.314 . S
C36 C34 1.353 . S
C36 H78 0.930 . S
C37 N33 1.279 . S
C37 C35 1.358 . S
C37 H79 0.930 . S
C38 C39 1.348 . S
C38 C40 1.356 . S
C38 O63 1.325 . S
C39 C38 1.348 . S
C39 C41 1.353 . S
C39 H80 0.929 . S
C40 C38 1.356 . S
C40 C42 1.358 . S
C40 H81 0.930 . S
C41 C39 1.353 . S
C41 N43 1.314 . S
C41 H82 0.930 . S
C42 C40 1.358 . S
C42 N43 1.279 . S
C42 H83 0.930 . S
N43 C41 1.314 . S
N43 C42 1.279 . S
C44 C46 1.353 . S
C44 N47 1.314 . S
C44 H50 0.930 . S
C45 N47 1.279 . S
C45 C48 1.358 . S
C45 H51 0.930 . S
C46 C44 1.353 . S
C46 C49 1.348 . S
C46 H84 0.929 . S
N47 Li2 1.990 . S
N47 C44 1.314 . S
N47 C45 1.279 . S
C48 C45 1.358 . S
C48 C49 1.356 . S
C48 H85 0.930 . S
C49 C46 1.348 . S
C49 C48 1.356 . S
H50 C44 0.930 . S
H51 C45 0.930 . S
C52 N53 1.314 . S
C52 C54 1.353 . S
C52 H58 0.930 . S
N53 Li3 1.990 1_655 S
N53 C52 1.314 . S
N53 C56 1.279 . S
C54 C52 1.353 . S
C54 C57 1.348 . S
C54 H86 0.929 . S
C55 C56 1.358 . S
C55 C57 1.356 . S
C55 H87 0.930 . S
C56 N53 1.279 . S
C56 C55 1.358 . S
C56 H59 0.930 . S
C57 C54 1.348 . S
C57 C55 1.356 . S
H58 C52 0.930 . S
H59 C56 0.930 . S
O60 Li0 1.956 . S
O60 Li1 1.970 . S
O60 Li2 1.961 . S
O60 C4 1.325 . S
O61 Li0 1.970 . S
O61 Li1 1.956 . S
O61 Li3 1.961 . S
O61 C10 1.325 . S
O62 Li0 1.961 . S
O62 Li2 1.956 . S
O62 Li3 1.970 . S
O62 C32 1.325 1_455 S
O63 Li1 1.961 . S
O63 Li2 1.970 . S
O63 Li3 1.956 . S
O63 C38 1.325 . S
H64 C6 0.929 . S
H65 C7 0.930 . S
H66 C8 0.930 . S
H67 C9 0.930 . S
H68 C11 0.930 . S
H69 C13 0.929 . S
H70 C14 0.930 . S
H71 C15 0.930 . S
H72 C18 0.930 . S
H73 C21 0.929 1_655 S
H74 C26 0.929 . S
H75 C27 0.930 . S
H76 C34 0.929 . S
H77 C35 0.930 1_455 S
H78 C36 0.930 . S
H79 C37 0.930 . S
H80 C39 0.929 . S
H81 C40 0.930 . S
H82 C41 0.930 . S
H83 C42 0.930 . S
H84 C46 0.929 . S
H85 C48 0.930 . S
H86 C54 0.929 . S
H87 C55 0.930 . S
Li88 N105 1.990 . S
Li88 O148 1.956 . S
Li88 O149 1.970 . S
Li88 O150 1.961 . S
Li89 N113 1.990 . S
Li89 O148 1.970 . S
Li89 O149 1.956 . S
Li89 O151 1.961 . S
Li90 N135 1.990 . S
Li90 O148 1.961 . S
Li90 O150 1.956 . S
Li90 O151 1.970 . S
Li91 N141 1.990 . S
Li91 O149 1.961 . S
Li91 O150 1.970 . S
Li91 O151 1.956 . S
C92 C94 1.348 . S
C92 C95 1.356 . S
C92 O148 1.325 . S
N93 C96 1.314 . S
N93 C97 1.279 . S
C94 C92 1.348 . S
C94 C96 1.353 . S
C94 H152 0.929 . S
C95 C92 1.356 . S
C95 C97 1.358 . S
C95 H153 0.930 . S
C96 N93 1.314 . S
C96 C94 1.353 . S
C96 H154 0.930 . S
C97 N93 1.279 . S
C97 C95 1.358 . S
C97 H155 0.930 . S
C98 C101 1.348 . S
C98 C102 1.356 . S
C98 O149 1.325 . S
C99 N100 1.279 . S
C99 C102 1.358 . S
C99 H156 0.930 . S
N100 C99 1.279 . S
N100 C103 1.314 . S
C101 C98 1.348 . S
C101 C103 1.353 . S
C101 H157 0.929 . S
C102 C98 1.356 . S
C102 C99 1.358 . S
C102 H158 0.930 . S
C103 N100 1.314 . S
C103 C101 1.353 . S
C103 H159 0.930 . S
C104 N105 1.314 . S
C104 C109 1.353 . S
C104 H110 0.930 . S
N105 Li88 1.990 . S
N105 C104 1.314 . S
N105 C107 1.279 . S
C106 C107 1.358 . S
C106 C108 1.356 . S
C106 H160 0.930 . S
C107 N105 1.279 . S
C107 C106 1.358 . S
C107 H111 0.930 . S
C108 C106 1.356 . S
C108 C109 1.348 . S
C109 C104 1.353 . S
C109 C108 1.348 . S
C109 H161 0.929 . S
H110 C104 0.930 . S
H111 C107 0.930 . S
C112 N113 1.314 . S
C112 C114 1.353 . S
C112 H118 0.930 . S
N113 Li89 1.990 . S
N113 C112 1.314 . S
N113 C116 1.279 . S
C114 C112 1.353 . S
C114 C117 1.348 . S
C114 H162 0.929 . S
C115 C116 1.358 . S
C115 C117 1.356 . S
C115 H163 0.930 . S
C116 N113 1.279 . S
C116 C115 1.358 . S
C116 H119 0.930 . S
C117 C114 1.348 . S
C117 C115 1.356 . S
H118 C112 0.930 . S
H119 C116 0.930 . S
C120 C122 1.348 . S
C120 C123 1.356 . S
C120 O150 1.325 . S
N121 C124 1.314 . S
N121 C125 1.279 . S
C122 C120 1.348 . S
C122 C124 1.353 . S
C122 H164 0.929 . S
C123 C120 1.356 . S
C123 C125 1.358 . S
C123 H165 0.930 . S
C124 N121 1.314 . S
C124 C122 1.353 . S
C124 H166 0.930 . S
C125 N121 1.279 . S
C125 C123 1.358 . S
C125 H167 0.930 . S
C126 C127 1.348 . S
C126 C128 1.356 . S
C126 O151 1.325 . S
C127 C126 1.348 . S
C127 C129 1.353 . S
C127 H168 0.929 . S
C128 C126 1.356 . S
C128 C130 1.358 . S
C128 H169 0.930 . S
C129 C127 1.353 . S
C129 N131 1.314 . S
C129 H170 0.930 . S
C130 C128 1.358 . S
C130 N131 1.279 . S
C130 H171 0.930 . S
N131 C129 1.314 . S
N131 C130 1.279 . S
C132 C134 1.353 . S
C132 N135 1.314 . S
C132 H138 0.930 . S
C133 N135 1.279 . S
C133 C136 1.358 . S
C133 H139 0.930 . S
C134 C132 1.353 . S
C134 C137 1.348 . S
C134 H172 0.929 . S
N135 Li90 1.990 . S
N135 C132 1.314 . S
N135 C133 1.279 . S
C136 C133 1.358 . S
C136 C137 1.356 . S
C136 H173 0.930 . S
C137 C134 1.348 . S
C137 C136 1.356 . S
H138 C132 0.930 . S
H139 C133 0.930 . S
C140 N141 1.314 . S
C140 C142 1.353 . S
C140 H146 0.930 . S
N141 Li91 1.990 . S
N141 C140 1.314 . S
N141 C144 1.279 . S
C142 C140 1.353 . S
C142 C145 1.348 . S
C142 H174 0.929 . S
C143 C144 1.358 . S
C143 C145 1.356 . S
C143 H175 0.930 . S
C144 N141 1.279 . S
C144 C143 1.358 . S
C144 H147 0.930 . S
C145 C142 1.348 . S
C145 C143 1.356 . S
H146 C140 0.930 . S
H147 C144 0.930 . S
O148 Li88 1.956 . S
O148 Li89 1.970 . S
O148 Li90 1.961 . S
O148 C92 1.325 . S
O149 Li88 1.970 . S
O149 Li89 1.956 . S
O149 Li91 1.961 . S
O149 C98 1.325 . S
O150 Li88 1.961 . S
O150 Li90 1.956 . S
O150 Li91 1.970 . S
O150 C120 1.325 . S
O151 Li89 1.961 . S
O151 Li90 1.970 . S
O151 Li91 1.956 . S
O151 C126 1.325 . S
H152 C94 0.929 . S
H153 C95 0.930 . S
H154 C96 0.930 . S
H155 C97 0.930 . S
H156 C99 0.930 . S
H157 C101 0.929 . S
H158 C102 0.930 . S
H159 C103 0.930 . S
H160 C106 0.930 . S
H161 C109 0.929 . S
H162 C114 0.929 . S
H163 C115 0.930 . S
H164 C122 0.929 . S
H165 C123 0.930 . S
H166 C124 0.930 . S
H167 C125 0.930 . S
H168 C127 0.929 . S
H169 C128 0.930 . S
H170 C129 0.930 . S
H171 C130 0.930 . S
H172 C134 0.929 . S
H173 C136 0.930 . S
H174 C142 0.929 . S
H175 C143 0.930 . S
Li176 N193 1.990 . S
Li176 O236 1.956 . S
Li176 O237 1.970 . S
Li176 O238 1.961 . S
Li177 N201 1.990 . S
Li177 O236 1.970 . S
Li177 O237 1.956 . S
Li177 O239 1.961 . S
Li178 N223 1.990 1_655 S
Li178 O236 1.961 . S
Li178 O238 1.956 . S
Li178 O239 1.970 . S
Li179 N229 1.990 . S
Li179 O237 1.961 . S
Li179 O238 1.970 . S
Li179 O239 1.956 . S
C180 C182 1.348 . S
C180 C183 1.356 . S
C180 O236 1.325 . S
N181 C184 1.314 . S
N181 C185 1.279 . S
C182 C180 1.348 . S
C182 C184 1.353 . S
C182 H240 0.929 . S
C183 C180 1.356 . S
C183 C185 1.358 . S
C183 H241 0.930 . S
C184 N181 1.314 . S
C184 C182 1.353 . S
C184 H242 0.930 . S
C185 N181 1.279 . S
C185 C183 1.358 . S
C185 H243 0.930 . S
C186 C189 1.348 . S
C186 C190 1.356 . S
C186 O237 1.325 . S
C187 N188 1.279 . S
C187 C190 1.358 . S
C187 H244 0.930 . S
N188 C187 1.279 . S
N188 C191 1.314 . S
C189 C186 1.348 . S
C189 C191 1.353 . S
C189 H245 0.929 . S
C190 C186 1.356 . S
C190 C187 1.358 . S
C190 H246 0.930 . S
C191 N188 1.314 . S
C191 C189 1.353 . S
C191 H247 0.930 . S
C192 N193 1.314 . S
C192 C197 1.353 . S
C192 H198 0.930 . S
N193 Li176 1.990 . S
N193 C192 1.314 . S
N193 C195 1.279 . S
C194 C195 1.358 . S
C194 C196 1.356 . S
C194 H248 0.930 . S
C195 N193 1.279 . S
C195 C194 1.358 . S
C195 H199 0.930 . S
C196 C194 1.356 . S
C196 C197 1.348 . S
C197 C192 1.353 . S
C197 C196 1.348 . S
C197 H249 0.929 . S
H198 C192 0.930 . S
H199 C195 0.930 . S
C200 N201 1.314 . S
C200 C202 1.353 . S
C200 H206 0.930 1_655 S
N201 Li177 1.990 . S
N201 C200 1.314 . S
N201 C204 1.279 . S
C202 C200 1.353 . S
C202 C205 1.348 . S
C202 H250 0.929 1_655 S
C203 C204 1.358 . S
C203 C205 1.356 . S
C203 H251 0.930 . S
C204 N201 1.279 . S
C204 C203 1.358 . S
C204 H207 0.930 . S
C205 C202 1.348 . S
C205 C203 1.356 . S
H206 C200 0.930 1_455 S
H207 C204 0.930 . S
C208 C210 1.348 . S
C208 C211 1.356 . S
C208 O238 1.325 . S
N209 C212 1.314 . S
N209 C213 1.279 . S
C210 C208 1.348 . S
C210 C212 1.353 . S
C210 H252 0.929 . S
C211 C208 1.356 . S
C211 C213 1.358 . S
C211 H253 0.930 . S
C212 N209 1.314 . S
C212 C210 1.353 . S
C212 H254 0.930 . S
C213 N209 1.279 . S
C213 C211 1.358 . S
C213 H255 0.930 . S
C214 C215 1.348 . S
C214 C216 1.356 . S
C214 O239 1.325 1_455 S
C215 C214 1.348 . S
C215 C217 1.353 . S
C215 H256 0.929 . S
C216 C214 1.356 . S
C216 C218 1.358 . S
C216 H257 0.930 1_455 S
C217 C215 1.353 . S
C217 N219 1.314 . S
C217 H258 0.930 . S
C218 C216 1.358 . S
C218 N219 1.279 . S
C218 H259 0.930 . S
N219 C217 1.314 . S
N219 C218 1.279 . S
C220 C222 1.353 . S
C220 N223 1.314 . S
C220 H226 0.930 . S
C221 N223 1.279 . S
C221 C224 1.358 . S
C221 H227 0.930 . S
C222 C220 1.353 . S
C222 C225 1.348 . S
C222 H260 0.929 . S
N223 Li178 1.990 1_455 S
N223 C220 1.314 . S
N223 C221 1.279 . S
C224 C221 1.358 . S
C224 C225 1.356 . S
C224 H261 0.930 . S
C225 C222 1.348 . S
C225 C224 1.356 . S
H226 C220 0.930 . S
H227 C221 0.930 . S
C228 N229 1.314 . S
C228 C230 1.353 . S
C228 H234 0.930 . S
N229 Li179 1.990 . S
N229 C228 1.314 . S
N229 C232 1.279 . S
C230 C228 1.353 . S
C230 C233 1.348 . S
C230 H262 0.929 . S
C231 C232 1.358 . S
C231 C233 1.356 . S
C231 H263 0.930 . S
C232 N229 1.279 . S
C232 C231 1.358 . S
C232 H235 0.930 . S
C233 C230 1.348 . S
C233 C231 1.356 . S
H234 C228 0.930 . S
H235 C232 0.930 . S
O236 Li176 1.956 . S
O236 Li177 1.970 . S
O236 Li178 1.961 . S
O236 C180 1.325 . S
O237 Li176 1.970 . S
O237 Li177 1.956 . S
O237 Li179 1.961 . S
O237 C186 1.325 . S
O238 Li176 1.961 . S
O238 Li178 1.956 . S
O238 Li179 1.970 . S
O238 C208 1.325 . S
O239 Li177 1.961 . S
O239 Li178 1.970 . S
O239 Li179 1.956 . S
O239 C214 1.325 1_655 S
H240 C182 0.929 . S
H241 C183 0.930 . S
H242 C184 0.930 . S
H243 C185 0.930 . S
H244 C187 0.930 . S
H245 C189 0.929 . S
H246 C190 0.930 . S
H247 C191 0.930 . S
H248 C194 0.930 . S
H249 C197 0.929 . S
H250 C202 0.929 1_455 S
H251 C203 0.930 . S
H252 C210 0.929 . S
H253 C211 0.930 . S
H254 C212 0.930 . S
H255 C213 0.930 . S
H256 C215 0.929 . S
H257 C216 0.930 1_655 S
H258 C217 0.930 . S
H259 C218 0.930 . S
H260 C222 0.929 . S
H261 C224 0.930 . S
H262 C230 0.929 . S
H263 C231 0.930 . S
Li264 N281 1.990 . S
Li264 O324 1.956 . S
Li264 O325 1.970 . S
Li264 O326 1.961 . S
Li265 N289 1.990 . S
Li265 O324 1.970 . S
Li265 O325 1.956 . S
Li265 O327 1.961 . S
Li266 N311 1.990 . S
Li266 O324 1.961 . S
Li266 O326 1.956 . S
Li266 O327 1.970 . S
Li267 N317 1.990 . S
Li267 O325 1.961 . S
Li267 O326 1.970 . S
Li267 O327 1.956 . S
C268 C270 1.348 . S
C268 C271 1.356 . S
C268 O324 1.325 . S
N269 C272 1.314 . S
N269 C273 1.279 . S
C270 C268 1.348 . S
C270 C272 1.353 . S
C270 H328 0.929 . S
C271 C268 1.356 . S
C271 C273 1.358 . S
C271 H329 0.930 . S
C272 N269 1.314 . S
C272 C270 1.353 . S
C272 H330 0.930 . S
C273 N269 1.279 . S
C273 C271 1.358 . S
C273 H331 0.930 . S
C274 C277 1.348 . S
C274 C278 1.356 . S
C274 O325 1.325 . S
C275 N276 1.279 . S
C275 C278 1.358 . S
C275 H332 0.930 . S
N276 C275 1.279 . S
N276 C279 1.314 . S
C277 C274 1.348 . S
C277 C279 1.353 . S
C277 H333 0.929 . S
C278 C274 1.356 . S
C278 C275 1.358 . S
C278 H334 0.930 . S
C279 N276 1.314 . S
C279 C277 1.353 . S
C279 H335 0.930 . S
C280 N281 1.314 . S
C280 C285 1.353 . S
C280 H286 0.930 . S
N281 Li264 1.990 . S
N281 C280 1.314 . S
N281 C283 1.279 . S
C282 C283 1.358 . S
C282 C284 1.356 . S
C282 H336 0.930 . S
C283 N281 1.279 . S
C283 C282 1.358 . S
C283 H287 0.930 . S
C284 C282 1.356 . S
C284 C285 1.348 . S
C285 C280 1.353 . S
C285 C284 1.348 . S
C285 H337 0.929 . S
H286 C280 0.930 . S
H287 C283 0.930 . S
C288 N289 1.314 . S
C288 C290 1.353 . S
C288 H294 0.930 . S
N289 Li265 1.990 . S
N289 C288 1.314 . S
N289 C292 1.279 . S
C290 C288 1.353 . S
C290 C293 1.348 . S
C290 H338 0.929 . S
C291 C292 1.358 . S
C291 C293 1.356 . S
C291 H339 0.930 . S
C292 N289 1.279 . S
C292 C291 1.358 . S
C292 H295 0.930 . S
C293 C290 1.348 . S
C293 C291 1.356 . S
H294 C288 0.930 . S
H295 C292 0.930 . S
C296 C298 1.348 . S
C296 C299 1.356 . S
C296 O326 1.325 . S
N297 C300 1.314 . S
N297 C301 1.279 . S
C298 C296 1.348 . S
C298 C300 1.353 . S
C298 H340 0.929 . S
C299 C296 1.356 . S
C299 C301 1.358 . S
C299 H341 0.930 . S
C300 N297 1.314 . S
C300 C298 1.353 . S
C300 H342 0.930 . S
C301 N297 1.279 . S
C301 C299 1.358 . S
C301 H343 0.930 . S
C302 C303 1.348 . S
C302 C304 1.356 . S
C302 O327 1.325 . S
C303 C302 1.348 . S
C303 C305 1.353 . S
C303 H344 0.929 . S
C304 C302 1.356 . S
C304 C306 1.358 . S
C304 H345 0.930 . S
C305 C303 1.353 . S
C305 N307 1.314 . S
C305 H346 0.930 . S
C306 C304 1.358 . S
C306 N307 1.279 . S
C306 H347 0.930 . S
N307 C305 1.314 . S
N307 C306 1.279 . S
C308 C310 1.353 . S
C308 N311 1.314 . S
C308 H314 0.930 . S
C309 N311 1.279 . S
C309 C312 1.358 . S
C309 H315 0.930 . S
C310 C308 1.353 . S
C310 C313 1.348 . S
C310 H348 0.929 . S
N311 Li266 1.990 . S
N311 C308 1.314 . S
N311 C309 1.279 . S
C312 C309 1.358 . S
C312 C313 1.356 . S
C312 H349 0.930 . S
C313 C310 1.348 . S
C313 C312 1.356 . S
H314 C308 0.930 . S
H315 C309 0.930 . S
C316 N317 1.314 . S
C316 C318 1.353 . S
C316 H322 0.930 . S
N317 Li267 1.990 . S
N317 C316 1.314 . S
N317 C320 1.279 . S
C318 C316 1.353 . S
C318 C321 1.348 . S
C318 H350 0.929 . S
C319 C320 1.358 . S
C319 C321 1.356 . S
C319 H351 0.930 . S
C320 N317 1.279 . S
C320 C319 1.358 . S
C320 H323 0.930 . S
C321 C318 1.348 . S
C321 C319 1.356 . S
H322 C316 0.930 . S
H323 C320 0.930 . S
O324 Li264 1.956 . S
O324 Li265 1.970 . S
O324 Li266 1.961 . S
O324 C268 1.325 . S
O325 Li264 1.970 . S
O325 Li265 1.956 . S
O325 Li267 1.961 . S
O325 C274 1.325 . S
O326 Li264 1.961 . S
O326 Li266 1.956 . S
O326 Li267 1.970 . S
O326 C296 1.325 . S
O327 Li265 1.961 . S
O327 Li266 1.970 . S
O327 Li267 1.956 . S
O327 C302 1.325 . S
H328 C270 0.929 . S
H329 C271 0.930 . S
H330 C272 0.930 . S
H331 C273 0.930 . S
H332 C275 0.930 . S
H333 C277 0.929 . S
H334 C278 0.930 . S
H335 C279 0.930 . S
H336 C282 0.930 . S
H337 C285 0.929 . S
H338 C290 0.929 . S
H339 C291 0.930 . S
H340 C298 0.929 . S
H341 C299 0.930 . S
H342 C300 0.930 . S
H343 C301 0.930 . S
H344 C303 0.929 . S
H345 C304 0.930 . S
H346 C305 0.930 . S
H347 C306 0.930 . S
H348 C310 0.929 . S
H349 C312 0.930 . S
H350 C318 0.929 . S
H351 C319 0.930 . S
Li352 N369 1.990 . S
Li352 O412 1.956 . S
Li352 O413 1.970 . S
Li352 O414 1.961 . S
Li353 N377 1.990 . S
Li353 O412 1.970 . S
Li353 O413 1.956 . S
Li353 O415 1.961 . S
Li354 N399 1.990 . S
Li354 O412 1.961 . S
Li354 O414 1.956 . S
Li354 O415 1.970 . S
Li355 N405 1.990 . S
Li355 O413 1.961 . S
Li355 O414 1.970 . S
Li355 O415 1.956 . S
C356 C358 1.348 . S
C356 C359 1.356 . S
C356 O412 1.325 . S
N357 C360 1.314 . S
N357 C361 1.279 . S
C358 C356 1.348 . S
C358 C360 1.353 . S
C358 H416 0.929 . S
C359 C356 1.356 . S
C359 C361 1.358 . S
C359 H417 0.930 . S
C360 N357 1.314 . S
C360 C358 1.353 . S
C360 H418 0.930 . S
C361 N357 1.279 . S
C361 C359 1.358 . S
C361 H419 0.930 . S
C362 C365 1.348 . S
C362 C366 1.356 . S
C362 O413 1.325 . S
C363 N364 1.279 . S
C363 C366 1.358 . S
C363 H420 0.930 . S
N364 C363 1.279 . S
N364 C367 1.314 . S
C365 C362 1.348 . S
C365 C367 1.353 . S
C365 H421 0.929 . S
C366 C362 1.356 . S
C366 C363 1.358 . S
C366 H422 0.930 . S
C367 N364 1.314 . S
C367 C365 1.353 . S
C367 H423 0.930 . S
C368 N369 1.314 . S
C368 C373 1.353 . S
C368 H374 0.930 . S
N369 Li352 1.990 . S
N369 C368 1.314 . S
N369 C371 1.279 . S
C370 C371 1.358 . S
C370 C372 1.356 . S
C370 H424 0.930 . S
C371 N369 1.279 . S
C371 C370 1.358 . S
C371 H375 0.930 . S
C372 C370 1.356 . S
C372 C373 1.348 . S
C373 C368 1.353 . S
C373 C372 1.348 . S
C373 H425 0.929 . S
H374 C368 0.930 . S
H375 C371 0.930 . S
C376 N377 1.314 . S
C376 C378 1.353 . S
C376 H382 0.930 . S
N377 Li353 1.990 . S
N377 C376 1.314 . S
N377 C380 1.279 . S
C378 C376 1.353 . S
C378 C381 1.348 . S
C378 H426 0.929 . S
C379 C380 1.358 . S
C379 C381 1.356 . S
C379 H427 0.930 . S
C380 N377 1.279 . S
C380 C379 1.358 . S
C380 H383 0.930 . S
C381 C378 1.348 . S
C381 C379 1.356 . S
H382 C376 0.930 . S
H383 C380 0.930 . S
C384 C386 1.348 . S
C384 C387 1.356 . S
C384 O414 1.325 . S
N385 C388 1.314 . S
N385 C389 1.279 . S
C386 C384 1.348 . S
C386 C388 1.353 . S
C386 H428 0.929 . S
C387 C384 1.356 . S
C387 C389 1.358 . S
C387 H429 0.930 . S
C388 N385 1.314 . S
C388 C386 1.353 . S
C388 H430 0.930 . S
C389 N385 1.279 . S
C389 C387 1.358 . S
C389 H431 0.930 . S
C390 C391 1.348 . S
C390 C392 1.356 . S
C390 O415 1.325 . S
C391 C390 1.348 . S
C391 C393 1.353 . S
C391 H432 0.929 . S
C392 C390 1.356 . S
C392 C394 1.358 . S
C392 H433 0.930 . S
C393 C391 1.353 . S
C393 N395 1.314 . S
C393 H434 0.930 . S
C394 C392 1.358 . S
C394 N395 1.279 . S
C394 H435 0.930 . S
N395 C393 1.314 . S
N395 C394 1.279 . S
C396 C398 1.353 . S
C396 N399 1.314 . S
C396 H402 0.930 . S
C397 N399 1.279 . S
C397 C400 1.358 . S
C397 H403 0.930 . S
C398 C396 1.353 . S
C398 C401 1.348 . S
C398 H436 0.929 . S
N399 Li354 1.990 . S
N399 C396 1.314 . S
N399 C397 1.279 . S
C400 C397 1.358 . S
C400 C401 1.356 . S
C400 H437 0.930 . S
C401 C398 1.348 . S
C401 C400 1.356 . S
H402 C396 0.930 . S
H403 C397 0.930 . S
C404 N405 1.314 . S
C404 C406 1.353 . S
C404 H410 0.930 . S
N405 Li355 1.990 . S
N405 C404 1.314 . S
N405 C408 1.279 . S
C406 C404 1.353 . S
C406 C409 1.348 . S
C406 H438 0.929 . S
C407 C408 1.358 . S
C407 C409 1.356 . S
C407 H439 0.930 . S
C408 N405 1.279 . S
C408 C407 1.358 . S
C408 H411 0.930 . S
C409 C406 1.348 . S
C409 C407 1.356 . S
H410 C404 0.930 . S
H411 C408 0.930 . S
O412 Li352 1.956 . S
O412 Li353 1.970 . S
O412 Li354 1.961 . S
O412 C356 1.325 . S
O413 Li352 1.970 . S
O413 Li353 1.956 . S
O413 Li355 1.961 . S
O413 C362 1.325 . S
O414 Li352 1.961 . S
O414 Li354 1.956 . S
O414 Li355 1.970 . S
O414 C384 1.325 . S
O415 Li353 1.961 . S
O415 Li354 1.970 . S
O415 Li355 1.956 . S
O415 C390 1.325 . S
H416 C358 0.929 . S
H417 C359 0.930 . S
H418 C360 0.930 . S
H419 C361 0.930 . S
H420 C363 0.930 . S
H421 C365 0.929 . S
H422 C366 0.930 . S
H423 C367 0.930 . S
H424 C370 0.930 . S
H425 C373 0.929 . S
H426 C378 0.929 . S
H427 C379 0.930 . S
H428 C386 0.929 . S
H429 C387 0.930 . S
H430 C388 0.930 . S
H431 C389 0.930 . S
H432 C391 0.929 . S
H433 C392 0.930 . S
H434 C393 0.930 . S
H435 C394 0.930 . S
H436 C398 0.929 . S
H437 C400 0.930 . S
H438 C406 0.929 . S
H439 C407 0.930 . S
Li440 N457 1.990 . S
Li440 O500 1.956 . S
Li440 O501 1.970 . S
Li440 O502 1.961 . S
Li441 N465 1.990 . S
Li441 O500 1.970 . S
Li441 O501 1.956 . S
Li441 O503 1.961 . S
Li442 N487 1.990 . S
Li442 O500 1.961 . S
Li442 O502 1.956 . S
Li442 O503 1.970 . S
Li443 N493 1.990 1_545 S
Li443 O501 1.961 . S
Li443 O502 1.970 . S
Li443 O503 1.956 . S
C444 C446 1.348 . S
C444 C447 1.356 . S
C444 O500 1.325 . S
N445 C448 1.314 . S
N445 C449 1.279 . S
C446 C444 1.348 . S
C446 C448 1.353 . S
C446 H504 0.929 . S
C447 C444 1.356 . S
C447 C449 1.358 . S
C447 H505 0.930 . S
C448 N445 1.314 . S
C448 C446 1.353 . S
C448 H506 0.930 . S
C449 N445 1.279 . S
C449 C447 1.358 . S
C449 H507 0.930 . S
C450 C453 1.348 . S
C450 C454 1.356 . S
C450 O501 1.325 . S
C451 N452 1.279 . S
C451 C454 1.358 . S
C451 H508 0.930 . S
N452 C451 1.279 . S
N452 C455 1.314 . S
C453 C450 1.348 . S
C453 C455 1.353 . S
C453 H509 0.929 . S
C454 C450 1.356 . S
C454 C451 1.358 . S
C454 H510 0.930 . S
C455 N452 1.314 . S
C455 C453 1.353 . S
C455 H511 0.930 . S
C456 N457 1.314 . S
C456 C461 1.353 . S
C456 H462 0.930 . S
N457 Li440 1.990 . S
N457 C456 1.314 . S
N457 C459 1.279 . S
C458 C459 1.358 . S
C458 C460 1.356 . S
C458 H512 0.930 . S
C459 N457 1.279 . S
C459 C458 1.358 . S
C459 H463 0.930 . S
C460 C458 1.356 . S
C460 C461 1.348 . S
C461 C456 1.353 . S
C461 C460 1.348 . S
C461 H513 0.929 . S
H462 C456 0.930 . S
H463 C459 0.930 . S
C464 N465 1.314 . S
C464 C466 1.353 . S
C464 H470 0.930 . S
N465 Li441 1.990 . S
N465 C464 1.314 . S
N465 C468 1.279 . S
C466 C464 1.353 . S
C466 C469 1.348 . S
C466 H514 0.929 . S
C467 C468 1.358 . S
C467 C469 1.356 . S
C467 H515 0.930 . S
C468 N465 1.279 . S
C468 C467 1.358 . S
C468 H471 0.930 . S
C469 C466 1.348 . S
C469 C467 1.356 . S
H470 C464 0.930 . S
H471 C468 0.930 . S
C472 C474 1.348 . S
C472 C475 1.356 . S
C472 O502 1.325 . S
N473 C476 1.314 . S
N473 C477 1.279 . S
C474 C472 1.348 . S
C474 C476 1.353 . S
C474 H516 0.929 1_545 S
C475 C472 1.356 . S
C475 C477 1.358 . S
C475 H517 0.930 . S
C476 N473 1.314 . S
C476 C474 1.353 . S
C476 H518 0.930 1_545 S
C477 N473 1.279 . S
C477 C475 1.358 . S
C477 H519 0.930 . S
C478 C479 1.348 . S
C478 C480 1.356 . S
C478 O503 1.325 1_565 S
C479 C478 1.348 . S
C479 C481 1.353 . S
C479 H520 0.929 . S
C480 C478 1.356 . S
C480 C482 1.358 . S
C480 H521 0.930 . S
C481 C479 1.353 . S
C481 N483 1.314 . S
C481 H522 0.930 . S
C482 C480 1.358 . S
C482 N483 1.279 . S
C482 H523 0.930 . S
N483 C481 1.314 . S
N483 C482 1.279 . S
C484 C486 1.353 . S
C484 N487 1.314 . S
C484 H490 0.930 . S
C485 N487 1.279 . S
C485 C488 1.358 . S
C485 H491 0.930 . S
C486 C484 1.353 . S
C486 C489 1.348 . S
C486 H524 0.929 . S
N487 Li442 1.990 . S
N487 C484 1.314 . S
N487 C485 1.279 . S
C488 C485 1.358 . S
C488 C489 1.356 . S
C488 H525 0.930 . S
C489 C486 1.348 . S
C489 C488 1.356 . S
H490 C484 0.930 . S
H491 C485 0.930 . S
C492 N493 1.314 . S
C492 C494 1.353 . S
C492 H498 0.930 1_565 S
N493 Li443 1.990 1_565 S
N493 C492 1.314 . S
N493 C496 1.279 . S
C494 C492 1.353 . S
C494 C497 1.348 . S
C494 H526 0.929 . S
C495 C496 1.358 . S
C495 C497 1.356 . S
C495 H527 0.930 . S
C496 N493 1.279 . S
C496 C495 1.358 . S
C496 H499 0.930 . S
C497 C494 1.348 . S
C497 C495 1.356 . S
H498 C492 0.930 1_545 S
H499 C496 0.930 . S
O500 Li440 1.956 . S
O500 Li441 1.970 . S
O500 Li442 1.961 . S
O500 C444 1.325 . S
O501 Li440 1.970 . S
O501 Li441 1.956 . S
O501 Li443 1.961 . S
O501 C450 1.325 . S
O502 Li440 1.961 . S
O502 Li442 1.956 . S
O502 Li443 1.970 . S
O502 C472 1.325 . S
O503 Li441 1.961 . S
O503 Li442 1.970 . S
O503 Li443 1.956 . S
O503 C478 1.325 1_545 S
H504 C446 0.929 . S
H505 C447 0.930 . S
H506 C448 0.930 . S
H507 C449 0.930 . S
H508 C451 0.930 . S
H509 C453 0.929 . S
H510 C454 0.930 . S
H511 C455 0.930 . S
H512 C458 0.930 . S
H513 C461 0.929 . S
H514 C466 0.929 . S
H515 C467 0.930 . S
H516 C474 0.929 1_565 S
H517 C475 0.930 . S
H518 C476 0.930 1_565 S
H519 C477 0.930 . S
H520 C479 0.929 . S
H521 C480 0.930 . S
H522 C481 0.930 . S
H523 C482 0.930 . S
H524 C486 0.929 . S
H525 C488 0.930 . S
H526 C494 0.929 . S
H527 C495 0.930 . S
Li528 N545 1.990 . S
Li528 O588 1.956 . S
Li528 O589 1.970 . S
Li528 O590 1.961 . S
Li529 N553 1.990 . S
Li529 O588 1.970 . S
Li529 O589 1.956 . S
Li529 O591 1.961 . S
Li530 N575 1.990 . S
Li530 O588 1.961 . S
Li530 O590 1.956 . S
Li530 O591 1.970 . S
Li531 N581 1.990 . S
Li531 O589 1.961 . S
Li531 O590 1.970 . S
Li531 O591 1.956 . S
C532 C534 1.348 . S
C532 C535 1.356 . S
C532 O588 1.325 . S
N533 C536 1.314 . S
N533 C537 1.279 . S
C534 C532 1.348 . S
C534 C536 1.353 . S
C534 H592 0.929 . S
C535 C532 1.356 . S
C535 C537 1.358 . S
C535 H593 0.930 . S
C536 N533 1.314 . S
C536 C534 1.353 . S
C536 H594 0.930 . S
C537 N533 1.279 . S
C537 C535 1.358 . S
C537 H595 0.930 . S
C538 C541 1.348 . S
C538 C542 1.356 . S
C538 O589 1.325 . S
C539 N540 1.279 . S
C539 C542 1.358 . S
C539 H596 0.930 . S
N540 C539 1.279 . S
N540 C543 1.314 . S
C541 C538 1.348 . S
C541 C543 1.353 . S
C541 H597 0.929 . S
C542 C538 1.356 . S
C542 C539 1.358 . S
C542 H598 0.930 . S
C543 N540 1.314 . S
C543 C541 1.353 . S
C543 H599 0.930 . S
C544 N545 1.314 . S
C544 C549 1.353 . S
C544 H550 0.930 . S
N545 Li528 1.990 . S
N545 C544 1.314 . S
N545 C547 1.279 . S
C546 C547 1.358 . S
C546 C548 1.356 . S
C546 H600 0.930 . S
C547 N545 1.279 . S
C547 C546 1.358 . S
C547 H551 0.930 . S
C548 C546 1.356 . S
C548 C549 1.348 . S
C549 C544 1.353 . S
C549 C548 1.348 . S
C549 H601 0.929 . S
H550 C544 0.930 . S
H551 C547 0.930 . S
C552 N553 1.314 . S
C552 C554 1.353 . S
C552 H558 0.930 . S
N553 Li529 1.990 . S
N553 C552 1.314 . S
N553 C556 1.279 . S
C554 C552 1.353 . S
C554 C557 1.348 . S
C554 H602 0.929 . S
C555 C556 1.358 . S
C555 C557 1.356 . S
C555 H603 0.930 . S
C556 N553 1.279 . S
C556 C555 1.358 . S
C556 H559 0.930 . S
C557 C554 1.348 . S
C557 C555 1.356 . S
H558 C552 0.930 . S
H559 C556 0.930 . S
C560 C562 1.348 . S
C560 C563 1.356 . S
C560 O590 1.325 . S
N561 C564 1.314 . S
N561 C565 1.279 . S
C562 C560 1.348 . S
C562 C564 1.353 . S
C562 H604 0.929 . S
C563 C560 1.356 . S
C563 C565 1.358 . S
C563 H605 0.930 . S
C564 N561 1.314 . S
C564 C562 1.353 . S
C564 H606 0.930 . S
C565 N561 1.279 . S
C565 C563 1.358 . S
C565 H607 0.930 . S
C566 C567 1.348 . S
C566 C568 1.356 . S
C566 O591 1.325 . S
C567 C566 1.348 . S
C567 C569 1.353 . S
C567 H608 0.929 . S
C568 C566 1.356 . S
C568 C570 1.358 . S
C568 H609 0.930 . S
C569 C567 1.353 . S
C569 N571 1.314 . S
C569 H610 0.930 . S
C570 C568 1.358 . S
C570 N571 1.279 . S
C570 H611 0.930 . S
N571 C569 1.314 . S
N571 C570 1.279 . S
C572 C574 1.353 . S
C572 N575 1.314 . S
C572 H578 0.930 . S
C573 N575 1.279 . S
C573 C576 1.358 . S
C573 H579 0.930 . S
C574 C572 1.353 . S
C574 C577 1.348 . S
C574 H612 0.929 . S
N575 Li530 1.990 . S
N575 C572 1.314 . S
N575 C573 1.279 . S
C576 C573 1.358 . S
C576 C577 1.356 . S
C576 H613 0.930 . S
C577 C574 1.348 . S
C577 C576 1.356 . S
H578 C572 0.930 . S
H579 C573 0.930 . S
C580 N581 1.314 . S
C580 C582 1.353 . S
C580 H586 0.930 . S
N581 Li531 1.990 . S
N581 C580 1.314 . S
N581 C584 1.279 . S
C582 C580 1.353 . S
C582 C585 1.348 . S
C582 H614 0.929 . S
C583 C584 1.358 . S
C583 C585 1.356 . S
C583 H615 0.930 . S
C584 N581 1.279 . S
C584 C583 1.358 . S
C584 H587 0.930 . S
C585 C582 1.348 . S
C585 C583 1.356 . S
H586 C580 0.930 . S
H587 C584 0.930 . S
O588 Li528 1.956 . S
O588 Li529 1.970 . S
O588 Li530 1.961 . S
O588 C532 1.325 . S
O589 Li528 1.970 . S
O589 Li529 1.956 . S
O589 Li531 1.961 . S
O589 C538 1.325 . S
O590 Li528 1.961 . S
O590 Li530 1.956 . S
O590 Li531 1.970 . S
O590 C560 1.325 . S
O591 Li529 1.961 . S
O591 Li530 1.970 . S
O591 Li531 1.956 . S
O591 C566 1.325 . S
H592 C534 0.929 . S
H593 C535 0.930 . S
H594 C536 0.930 . S
H595 C537 0.930 . S
H596 C539 0.930 . S
H597 C541 0.929 . S
H598 C542 0.930 . S
H599 C543 0.930 . S
H600 C546 0.930 . S
H601 C549 0.929 . S
H602 C554 0.929 . S
H603 C555 0.930 . S
H604 C562 0.929 . S
H605 C563 0.930 . S
H606 C564 0.930 . S
H607 C565 0.930 . S
H608 C567 0.929 . S
H609 C568 0.930 . S
H610 C569 0.930 . S
H611 C570 0.930 . S
H612 C574 0.929 . S
H613 C576 0.930 . S
H614 C582 0.929 . S
H615 C583 0.930 . S
Li616 N633 1.990 1_565 S
Li616 O676 1.956 . S
Li616 O677 1.970 . S
Li616 O678 1.961 . S
Li617 N641 1.990 . S
Li617 O676 1.970 . S
Li617 O677 1.956 . S
Li617 O679 1.961 . S
Li618 N663 1.990 . S
Li618 O676 1.961 . S
Li618 O678 1.956 . S
Li618 O679 1.970 . S
Li619 N669 1.990 . S
Li619 O677 1.961 . S
Li619 O678 1.970 . S
Li619 O679 1.956 . S
C620 C622 1.348 . S
C620 C623 1.356 . S
C620 O676 1.325 1_545 S
N621 C624 1.314 . S
N621 C625 1.279 . S
C622 C620 1.348 . S
C622 C624 1.353 . S
C622 H680 0.929 . S
C623 C620 1.356 . S
C623 C625 1.358 . S
C623 H681 0.930 . S
C624 N621 1.314 . S
C624 C622 1.353 . S
C624 H682 0.930 . S
C625 N621 1.279 . S
C625 C623 1.358 . S
C625 H683 0.930 . S
C626 C629 1.348 . S
C626 C630 1.356 . S
C626 O677 1.325 . S
C627 N628 1.279 . S
C627 C630 1.358 . S
C627 H684 0.930 . S
N628 C627 1.279 . S
N628 C631 1.314 . S
C629 C626 1.348 . S
C629 C631 1.353 . S
C629 H685 0.929 1_565 S
C630 C626 1.356 . S
C630 C627 1.358 . S
C630 H686 0.930 . S
C631 N628 1.314 . S
C631 C629 1.353 . S
C631 H687 0.930 1_565 S
C632 N633 1.314 . S
C632 C637 1.353 . S
C632 H638 0.930 1_545 S
N633 Li616 1.990 1_545 S
N633 C632 1.314 . S
N633 C635 1.279 . S
C634 C635 1.358 . S
C634 C636 1.356 . S
C634 H688 0.930 . S
C635 N633 1.279 . S
C635 C634 1.358 . S
C635 H639 0.930 . S
C636 C634 1.356 . S
C636 C637 1.348 . S
C637 C632 1.353 . S
C637 C636 1.348 . S
C637 H689 0.929 . S
H638 C632 0.930 1_565 S
H639 C635 0.930 . S
C640 N641 1.314 . S
C640 C642 1.353 . S
C640 H646 0.930 . S
N641 Li617 1.990 . S
N641 C640 1.314 . S
N641 C644 1.279 . S
C642 C640 1.353 . S
C642 C645 1.348 . S
C642 H690 0.929 . S
C643 C644 1.358 . S
C643 C645 1.356 . S
C643 H691 0.930 . S
C644 N641 1.279 . S
C644 C643 1.358 . S
C644 H647 0.930 . S
C645 C642 1.348 . S
C645 C643 1.356 . S
H646 C640 0.930 . S
H647 C644 0.930 . S
C648 C650 1.348 . S
C648 C651 1.356 . S
C648 O678 1.325 . S
N649 C652 1.314 . S
N649 C653 1.279 . S
C650 C648 1.348 . S
C650 C652 1.353 . S
C650 H692 0.929 . S
C651 C648 1.356 . S
C651 C653 1.358 . S
C651 H693 0.930 . S
C652 N649 1.314 . S
C652 C650 1.353 . S
C652 H694 0.930 . S
C653 N649 1.279 . S
C653 C651 1.358 . S
C653 H695 0.930 . S
C654 C655 1.348 . S
C654 C656 1.356 . S
C654 O679 1.325 . S
C655 C654 1.348 . S
C655 C657 1.353 . S
C655 H696 0.929 . S
C656 C654 1.356 . S
C656 C658 1.358 . S
C656 H697 0.930 . S
C657 C655 1.353 . S
C657 N659 1.314 . S
C657 H698 0.930 . S
C658 C656 1.358 . S
C658 N659 1.279 . S
C658 H699 0.930 . S
N659 C657 1.314 . S
N659 C658 1.279 . S
C660 C662 1.353 . S
C660 N663 1.314 . S
C660 H666 0.930 . S
C661 N663 1.279 . S
C661 C664 1.358 . S
C661 H667 0.930 . S
C662 C660 1.353 . S
C662 C665 1.348 . S
C662 H700 0.929 . S
N663 Li618 1.990 . S
N663 C660 1.314 . S
N663 C661 1.279 . S
C664 C661 1.358 . S
C664 C665 1.356 . S
C664 H701 0.930 . S
C665 C662 1.348 . S
C665 C664 1.356 . S
H666 C660 0.930 . S
H667 C661 0.930 . S
C668 N669 1.314 . S
C668 C670 1.353 . S
C668 H674 0.930 . S
N669 Li619 1.990 . S
N669 C668 1.314 . S
N669 C672 1.279 . S
C670 C668 1.353 . S
C670 C673 1.348 . S
C670 H702 0.929 . S
C671 C672 1.358 . S
C671 C673 1.356 . S
C671 H703 0.930 . S
C672 N669 1.279 . S
C672 C671 1.358 . S
C672 H675 0.930 . S
C673 C670 1.348 . S
C673 C671 1.356 . S
H674 C668 0.930 . S
H675 C672 0.930 . S
O676 Li616 1.956 . S
O676 Li617 1.970 . S
O676 Li618 1.961 . S
O676 C620 1.325 1_565 S
O677 Li616 1.970 . S
O677 Li617 1.956 . S
O677 Li619 1.961 . S
O677 C626 1.325 . S
O678 Li616 1.961 . S
O678 Li618 1.956 . S
O678 Li619 1.970 . S
O678 C648 1.325 . S
O679 Li617 1.961 . S
O679 Li618 1.970 . S
O679 Li619 1.956 . S
O679 C654 1.325 . S
H680 C622 0.929 . S
H681 C623 0.930 . S
H682 C624 0.930 . S
H683 C625 0.930 . S
H684 C627 0.930 . S
H685 C629 0.929 1_545 S
H686 C630 0.930 . S
H687 C631 0.930 1_545 S
H688 C634 0.930 . S
H689 C637 0.929 . S
H690 C642 0.929 . S
H691 C643 0.930 . S
H692 C650 0.929 . S
H693 C651 0.930 . S
H694 C652 0.930 . S
H695 C653 0.930 . S
H696 C655 0.929 . S
H697 C656 0.930 . S
H698 C657 0.930 . S
H699 C658 0.930 . S
H700 C662 0.929 . S
H701 C664 0.930 . S
H702 C670 0.929 . S
H703 C671 0.930 . S
H704 C710 0.930 . S
H705 C713 0.930 . S
H706 C714 0.930 . S
H707 C715 0.930 . S
H708 C718 0.930 . S
H709 C719 0.930 . S
C710 H704 0.930 . S
C710 C711 1.355 . S
C710 C712 1.386 1_554 S
C711 C710 1.355 . S
C711 C713 1.419 . S
C712 C710 1.386 1_556 S
C712 C717 1.421 1_556 S
C712 C719 1.443 . S
C713 H705 0.930 . S
C713 C711 1.419 . S
C713 C714 1.362 . S
C714 H706 0.930 . S
C714 C713 1.362 . S
C714 C717 1.409 . S
C715 H707 0.930 . S
C715 C716 1.355 . S
C715 C717 1.415 1_556 S
C716 C715 1.355 . S
C716 C718 1.419 . S
C717 C712 1.421 1_554 S
C717 C714 1.409 . S
C717 C715 1.415 1_554 S
C718 H708 0.930 . S
C718 C716 1.419 . S
C718 C719 1.362 . S
C719 H709 0.930 . S
C719 C712 1.443 . S
C719 C718 1.362 . S
H720 C726 0.930 . S
H721 C729 0.930 . S
H722 C730 0.930 . S
H723 C731 0.930 . S
H724 C734 0.930 . S
H725 C735 0.930 . S
C726 H720 0.930 . S
C726 C727 1.355 . S
C726 C728 1.415 . S
C727 C726 1.355 . S
C727 C729 1.419 . S
C728 C726 1.415 . S
C728 C733 1.425 . S
C728 C735 1.409 . S
C729 H721 0.930 . S
C729 C727 1.419 . S
C729 C730 1.362 . S
C730 H722 0.930 . S
C730 C729 1.362 . S
C730 C733 1.409 . S
C731 H723 0.930 . S
C731 C732 1.355 . S
C731 C733 1.415 . S
C732 C731 1.355 . S
C732 C734 1.419 . S
C733 C728 1.425 . S
C733 C730 1.409 . S
C733 C731 1.415 . S
C734 H724 0.930 . S
C734 C732 1.419 . S
C734 C735 1.362 . S
C735 H725 0.930 . S
C735 C728 1.409 . S
C735 C734 1.362 . S
H736 C742 0.930 . S
H737 C745 0.930 . S
H738 C746 0.930 . S
H739 C747 0.930 . S
H740 C750 0.930 . S
H741 C751 0.930 . S
C742 H736 0.930 . S
C742 C743 1.355 . S
C742 C744 1.415 . S
C743 C742 1.355 . S
C743 C745 1.419 . S
C744 C742 1.415 . S
C744 C749 1.425 1_554 S
C744 C751 1.409 . S
C745 H737 0.930 . S
C745 C743 1.419 . S
C745 C746 1.362 1_554 S
C746 H738 0.930 . S
C746 C745 1.362 1_556 S
C746 C749 1.409 . S
C747 H739 0.930 . S
C747 C748 1.355 . S
C747 C749 1.415 . S
C748 C747 1.355 . S
C748 C750 1.419 . S
C749 C744 1.425 1_556 S
C749 C746 1.409 . S
C749 C747 1.415 . S
C750 H740 0.930 . S
C750 C748 1.419 . S
C750 C751 1.362 1_556 S
C751 H741 0.930 . S
C751 C744 1.409 . S
C751 C750 1.362 1_554 S
H752 C758 0.930 . S
H753 C761 0.930 . S
H754 C762 0.930 . S
H755 C763 0.930 . S
H756 C766 0.930 . S
H757 C767 0.930 . S
C758 H752 0.930 . S
C758 C759 1.355 . S
C758 C760 1.415 . S
C759 C758 1.355 . S
C759 C761 1.419 . S
C760 C758 1.415 . S
C760 C765 1.425 . S
C760 C767 1.409 . S
C761 H753 0.930 . S
C761 C759 1.419 . S
C761 C762 1.362 . S
C762 H754 0.930 . S
C762 C761 1.362 . S
C762 C765 1.409 . S
C763 H755 0.930 . S
C763 C764 1.355 . S
C763 C765 1.415 . S
C764 C763 1.355 . S
C764 C766 1.419 . S
C765 C760 1.425 . S
C765 C762 1.409 . S
C765 C763 1.415 . S
C766 H756 0.930 . S
C766 C764 1.419 . S
C766 C767 1.362 . S
C767 H757 0.930 . S
C767 C760 1.409 . S
C767 C766 1.362 . S
H768 C774 0.930 . S
H769 C777 0.930 . S
H770 C778 0.930 . S
H771 C779 0.930 . S
H772 C782 0.930 . S
H773 C783 0.930 . S
C774 H768 0.930 . S
C774 C775 1.355 . S
C774 C776 1.415 . S
C775 C774 1.355 . S
C775 C777 1.419 . S
C776 C774 1.415 . S
C776 C781 1.425 . S
C776 C783 1.409 . S
C777 H769 0.930 . S
C777 C775 1.419 . S
C777 C778 1.362 . S
C778 H770 0.930 . S
C778 C777 1.362 . S
C778 C781 1.409 . S
C779 H771 0.930 . S
C779 C780 1.355 . S
C779 C781 1.415 . S
C780 C779 1.355 . S
C780 C782 1.419 . S
C781 C776 1.425 . S
C781 C778 1.409 . S
C781 C779 1.415 . S
C782 H772 0.930 . S
C782 C780 1.419 . S
C782 C783 1.362 . S
C783 H773 0.930 . S
C783 C776 1.409 . S
C783 C782 1.362 . S
H784 C790 0.930 . S
H785 C793 0.930 . S
H786 C794 0.930 . S
H787 C795 0.930 . S
H788 C798 0.930 . S
H789 C799 0.930 . S
C790 H784 0.930 . S
C790 C791 1.355 . S
C790 C792 1.415 . S
C791 C790 1.355 . S
C791 C793 1.419 . S
C792 C790 1.415 . S
C792 C797 1.425 . S
C792 C799 1.409 . S
C793 H785 0.930 . S
C793 C791 1.419 . S
C793 C794 1.362 . S
C794 H786 0.930 . S
C794 C793 1.362 . S
C794 C797 1.409 . S
C795 H787 0.930 . S
C795 C796 1.355 . S
C795 C797 1.415 . S
C796 C795 1.355 . S
C796 C798 1.419 . S
C797 C792 1.425 . S
C797 C794 1.409 . S
C797 C795 1.415 . S
C798 H788 0.930 . S
C798 C796 1.419 . S
C798 C799 1.362 . S
C799 H789 0.930 . S
C799 C792 1.409 . S
C799 C798 1.362 . S
H800 C806 0.930 . S
H801 C809 0.930 . S
H802 C810 0.930 . S
H803 C811 0.930 . S
H804 C814 0.930 . S
H805 C815 0.930 . S
C806 H800 0.930 . S
C806 C807 1.355 . S
C806 C808 1.415 . S
C807 C806 1.355 . S
C807 C809 1.419 . S
C808 C806 1.415 . S
C808 C813 1.425 . S
C808 C815 1.409 . S
C809 H801 0.930 . S
C809 C807 1.419 . S
C809 C810 1.362 . S
C810 H802 0.930 . S
C810 C809 1.362 . S
C810 C813 1.409 . S
C811 H803 0.930 . S
C811 C812 1.355 . S
C811 C813 1.415 . S
C812 C811 1.355 . S
C812 C814 1.419 . S
C813 C808 1.425 . S
C813 C810 1.409 . S
C813 C811 1.415 . S
C814 H804 0.930 . S
C814 C812 1.419 . S
C814 C815 1.362 . S
C815 H805 0.930 . S
C815 C808 1.409 . S
C815 C814 1.362 . S
H816 C822 0.930 . S
H817 C825 0.930 . S
H818 C826 0.930 . S
H819 C827 0.930 . S
H820 C830 0.930 . S
H821 C831 0.930 . S
C822 H816 0.930 . S
C822 C823 1.355 . S
C822 C824 1.415 . S
C823 C822 1.355 . S
C823 C825 1.419 . S
C824 C822 1.415 . S
C824 C829 1.425 . S
C824 C831 1.409 . S
C825 H817 0.930 . S
C825 C823 1.419 . S
C825 C826 1.362 . S
C826 H818 0.930 . S
C826 C825 1.362 . S
C826 C829 1.409 . S
C827 H819 0.930 . S
C827 C828 1.355 . S
C827 C829 1.415 . S
C828 C827 1.355 . S
C828 C830 1.419 . S
C829 C824 1.425 . S
C829 C826 1.409 . S
C829 C827 1.415 . S
C830 H820 0.930 . S
C830 C828 1.419 . S
C830 C831 1.362 . S
C831 H821 0.930 . S
C831 C824 1.409 . S
C831 C830 1.362 . S
H832 C838 0.930 . S
H833 C841 0.930 . S
H834 C842 0.930 . S
H835 C843 0.930 . S
H836 C846 0.930 . S
H837 C847 0.930 . S
C838 H832 0.930 . S
C838 C839 1.355 . S
C838 C840 1.415 . S
C839 C838 1.355 . S
C839 C841 1.419 . S
C840 C838 1.415 . S
C840 C845 1.425 . S
C840 C847 1.409 . S
C841 H833 0.930 . S
C841 C839 1.419 . S
C841 C842 1.362 . S
C842 H834 0.930 . S
C842 C841 1.362 . S
C842 C845 1.409 . S
C843 H835 0.930 . S
C843 C844 1.355 . S
C843 C845 1.415 . S
C844 C843 1.355 . S
C844 C846 1.419 . S
C845 C840 1.425 . S
C845 C842 1.409 . S
C845 C843 1.415 . S
C846 H836 0.930 . S
C846 C844 1.419 . S
C846 C847 1.362 . S
C847 H837 0.930 . S
C847 C840 1.409 . S
C847 C846 1.362 . S
H848 C854 0.930 . S
H849 C857 0.930 . S
H850 C858 0.930 . S
H851 C859 0.930 . S
H852 C862 0.930 . S
H853 C863 0.930 . S
C854 H848 0.930 . S
C854 C855 1.355 . S
C854 C856 1.415 . S
C855 C854 1.355 . S
C855 C857 1.419 . S
C856 C854 1.415 . S
C856 C861 1.425 . S
C856 C863 1.409 . S
C857 H849 0.930 . S
C857 C855 1.419 . S
C857 C858 1.362 . S
C858 H850 0.930 . S
C858 C857 1.362 . S
C858 C861 1.409 . S
C859 H851 0.930 . S
C859 C860 1.355 . S
C859 C861 1.415 . S
C860 C859 1.355 . S
C860 C862 1.419 . S
C861 C856 1.425 . S
C861 C858 1.409 . S
C861 C859 1.415 . S
C862 H852 0.930 . S
C862 C860 1.419 . S
C862 C863 1.362 . S
C863 H853 0.930 . S
C863 C856 1.409 . S
C863 C862 1.362 . S
H864 C870 0.930 . S
H865 C873 0.930 . S
H866 C874 0.930 . S
H867 C875 0.930 . S
H868 C878 0.930 . S
H869 C879 0.930 . S
C870 H864 0.930 . S
C870 C871 1.355 . S
C870 C872 1.415 . S
C871 C870 1.355 . S
C871 C873 1.419 . S
C872 C870 1.415 . S
C872 C877 1.425 . S
C872 C879 1.409 . S
C873 H865 0.930 . S
C873 C871 1.419 . S
C873 C874 1.362 . S
C874 H866 0.930 . S
C874 C873 1.362 . S
C874 C877 1.409 . S
C875 H867 0.930 . S
C875 C876 1.355 . S
C875 C877 1.415 . S
C876 C875 1.355 . S
C876 C878 1.419 . S
C877 C872 1.425 . S
C877 C874 1.409 . S
C877 C875 1.415 . S
C878 H868 0.930 . S
C878 C876 1.419 . S
C878 C879 1.362 . S
C879 H869 0.930 . S
C879 C872 1.409 . S
C879 C878 1.362 . S
H880 C886 0.930 . S
H881 C889 0.930 . S
H882 C890 0.930 . S
H883 C891 0.930 . S
H884 C894 0.930 . S
H885 C895 0.930 . S
C886 H880 0.930 . S
C886 C887 1.355 . S
C886 C888 1.415 . S
C887 C886 1.355 . S
C887 C889 1.419 . S
C888 C886 1.415 . S
C888 C893 1.425 . S
C888 C895 1.409 . S
C889 H881 0.930 . S
C889 C887 1.419 . S
C889 C890 1.362 . S
C890 H882 0.930 . S
C890 C889 1.362 . S
C890 C893 1.409 . S
C891 H883 0.930 . S
C891 C892 1.355 . S
C891 C893 1.415 . S
C892 C891 1.355 . S
C892 C894 1.419 . S
C893 C888 1.425 . S
C893 C890 1.409 . S
C893 C891 1.415 . S
C894 H884 0.930 . S
C894 C892 1.419 . S
C894 C895 1.362 . S
C895 H885 0.930 . S
C895 C888 1.409 . S
C895 C894 1.362 . S
H896 C902 0.930 1_455 S
H897 C905 0.930 . S
H898 C906 0.930 . S
H899 C907 0.930 1_655 S
H900 C910 0.930 . S
H901 C911 0.930 . S
C902 H896 0.930 1_655 S
C902 C903 1.355 . S
C902 C904 1.415 1_655 S
C903 C902 1.355 . S
C903 C905 1.419 . S
C904 C902 1.415 1_455 S
C904 C909 1.425 1_455 S
C904 C911 1.409 . S
C905 H897 0.930 . S
C905 C903 1.419 . S
C905 C906 1.362 . S
C906 H898 0.930 . S
C906 C905 1.362 . S
C906 C909 1.409 . S
C907 H899 0.930 1_455 S
C907 C908 1.355 . S
C907 C909 1.415 1_455 S
C908 C907 1.355 . S
C908 C910 1.419 . S
C909 C904 1.425 1_655 S
C909 C906 1.409 . S
C909 C907 1.415 1_655 S
C910 H900 0.930 . S
C910 C908 1.419 . S
C910 C911 1.362 . S
C911 H901 0.930 . S
C911 C904 1.409 . S
C911 C910 1.362 . S
H912 C918 0.930 . S
H913 C921 0.930 . S
H914 C922 0.930 . S
H915 C923 0.930 . S
H916 C926 0.930 . S
H917 C927 0.930 . S
C918 H912 0.930 . S
C918 C919 1.355 . S
C918 C920 1.415 . S
C919 C918 1.355 . S
C919 C921 1.419 . S
C920 C918 1.415 . S
C920 C925 1.425 1_655 S
C920 C927 1.409 1_655 S
C921 H913 0.930 . S
C921 C919 1.419 . S
C921 C922 1.362 . S
C922 H914 0.930 . S
C922 C921 1.362 . S
C922 C925 1.409 1_655 S
C923 H915 0.930 . S
C923 C924 1.355 . S
C923 C925 1.415 . S
C924 C923 1.355 . S
C924 C926 1.419 . S
C925 C920 1.425 1_455 S
C925 C922 1.409 1_455 S
C925 C923 1.415 . S
C926 H916 0.930 . S
C926 C924 1.419 . S
C926 C927 1.362 . S
C927 H917 0.930 . S
C927 C920 1.409 1_455 S
C927 C926 1.362 . S
H928 C934 0.930 . S
H929 C937 0.930 . S
H930 C938 0.930 . S
H931 C939 0.930 . S
H932 C942 0.930 . S
H933 C943 0.930 . S
C934 H928 0.930 . S
C934 C935 1.355 . S
C934 C936 1.415 . S
C935 C934 1.355 . S
C935 C937 1.419 . S
C936 C934 1.415 . S
C936 C941 1.425 1_545 S
C936 C943 1.409 . S
C937 H929 0.930 . S
C937 C935 1.419 . S
C937 C938 1.362 1_545 S
C938 H930 0.930 . S
C938 C937 1.362 1_565 S
C938 C941 1.409 . S
C939 H931 0.930 . S
C939 C940 1.355 . S
C939 C941 1.415 . S
C940 C939 1.355 . S
C940 C942 1.419 . S
C941 C936 1.425 1_565 S
C941 C938 1.409 . S
C941 C939 1.415 . S
C942 H932 0.930 . S
C942 C940 1.419 . S
C942 C943 1.362 1_565 S
C943 H933 0.930 . S
C943 C936 1.409 . S
C943 C942 1.362 1_545 S
H944 C950 0.930 . S
H945 C953 0.930 . S
H946 C954 0.930 . S
H947 C955 0.930 . S
H948 C958 0.930 . S
H949 C959 0.930 . S
C950 H944 0.930 . S
C950 C951 1.355 . S
C950 C952 1.415 1_545 S
C951 C950 1.355 . S
C951 C953 1.419 . S
C952 C950 1.415 1_565 S
C952 C957 1.425 1_565 S
C952 C959 1.409 . S
C953 H945 0.930 . S
C953 C951 1.419 . S
C953 C954 1.362 . S
C954 H946 0.930 . S
C954 C953 1.362 . S
C954 C957 1.409 . S
C955 H947 0.930 . S
C955 C956 1.355 . S
C955 C957 1.415 1_565 S
C956 C955 1.355 . S
C956 C958 1.419 . S
C957 C952 1.425 1_545 S
C957 C954 1.409 . S
C957 C955 1.415 1_545 S
C958 H948 0.930 . S
C958 C956 1.419 . S
C958 C959 1.362 . S
C959 H949 0.930 . S
C959 C952 1.409 . S
C959 C958 1.362 . S
C711 C49 1.344 . S
C716 C469 1.320 . S
C727 C108 1.329 . S
C732 C557 1.327 . S
C743 C233 1.341 . S
C748 C665 1.339 . S
C759 C381 1.316 . S
C764 C313 1.341 . S
C775 C29 1.950 . S
C780 C372 1.852 . S
C791 C117 1.946 . S
C796 C497 1.863 . S
C807 C548 1.934 . S
C812 C196 2.010 . S
C823 C321 1.986 . S
C828 C636 1.907 . S
C839 C401 2.009 . S
C844 C57 1.933 . S
C855 C137 1.877 . S
C860 C460 1.962 . S
C871 C577 2.004 . S
C876 C225 1.921 . S
C887 C284 1.933 . S
C892 C673 1.998 . S
C903 C205 0.472 . S
C908 C20 0.434 . S
C919 C293 0.322 . S
C924 C145 0.423 . S
C935 C409 0.471 . S
C940 C585 0.486 . S
C951 C489 0.418 . S
C956 C645 0.476 . S
