# Generated by pormake.
# Topology bcs, (6)-cn, num edge types: 1
# Building blocks:
#     Node 0, Type 0, BuildingBlock: BETFEN_clean_sbu_0, # of connection points: 6
#     Node 1, Type 0, BuildingBlock: BETFEN_clean_sbu_0, # of connection points: 6
#     Node 2, Type 0, BuildingBlock: BETFEN_clean_sbu_0, # of connection points: 6
#     Node 3, Type 0, BuildingBlock: BETFEN_clean_sbu_0, # of connection points: 6
#     Node 4, Type 0, BuildingBlock: BETFEN_clean_sbu_0, # of connection points: 6
#     Node 5, Type 0, BuildingBlock: BETFEN_clean_sbu_0, # of connection points: 6
#     Node 6, Type 0, BuildingBlock: BETFEN_clean_sbu_0, # of connection points: 6
#     Node 7, Type 0, BuildingBlock: BETFEN_clean_sbu_0, # of connection points: 6
#     Node 8, Type 0, BuildingBlock: BETFEN_clean_sbu_0, # of connection points: 6
#     Node 9, Type 0, BuildingBlock: BETFEN_clean_sbu_0, # of connection points: 6
#     Node 10, Type 0, BuildingBlock: BETFEN_clean_sbu_0, # of connection points: 6
#     Node 11, Type 0, BuildingBlock: BETFEN_clean_sbu_0, # of connection points: 6
#     Node 12, Type 0, BuildingBlock: BETFEN_clean_sbu_0, # of connection points: 6
#     Node 13, Type 0, BuildingBlock: BETFEN_clean_sbu_0, # of connection points: 6
#     Node 14, Type 0, BuildingBlock: BETFEN_clean_sbu_0, # of connection points: 6
#     Node 15, Type 0, BuildingBlock: BETFEN_clean_sbu_0, # of connection points: 6
#     Edge 16, Type (0, 0), BuildingBlock: UVAHIK_clean_linker_0, # of connection points: 2
#     Edge 17, Type (0, 0), BuildingBlock: UVAHIK_clean_linker_0, # of connection points: 2
#     Edge 18, Type (0, 0), BuildingBlock: UVAHIK_clean_linker_0, # of connection points: 2
#     Edge 19, Type (0, 0), BuildingBlock: UVAHIK_clean_linker_0, # of connection points: 2
#     Edge 20, Type (0, 0), BuildingBlock: UVAHIK_clean_linker_0, # of connection points: 2
#     Edge 21, Type (0, 0), BuildingBlock: UVAHIK_clean_linker_0, # of connection points: 2
#     Edge 22, Type (0, 0), BuildingBlock: UVAHIK_clean_linker_0, # of connection points: 2
#     Edge 23, Type (0, 0), BuildingBlock: UVAHIK_clean_linker_0, # of connection points: 2
#     Edge 24, Type (0, 0), BuildingBlock: UVAHIK_clean_linker_0, # of connection points: 2
#     Edge 25, Type (0, 0), BuildingBlock: UVAHIK_clean_linker_0, # of connection points: 2
#     Edge 26, Type (0, 0), BuildingBlock: UVAHIK_clean_linker_0, # of connection points: 2
#     Edge 27, Type (0, 0), BuildingBlock: UVAHIK_clean_linker_0, # of connection points: 2
#     Edge 28, Type (0, 0), BuildingBlock: UVAHIK_clean_linker_0, # of connection points: 2
#     Edge 29, Type (0, 0), BuildingBlock: UVAHIK_clean_linker_0, # of connection points: 2
#     Edge 30, Type (0, 0), BuildingBlock: UVAHIK_clean_linker_0, # of connection points: 2
#     Edge 31, Type (0, 0), BuildingBlock: UVAHIK_clean_linker_0, # of connection points: 2
#     Edge 32, Type (0, 0), BuildingBlock: UVAHIK_clean_linker_0, # of connection points: 2
#     Edge 33, Type (0, 0), BuildingBlock: UVAHIK_clean_linker_0, # of connection points: 2
#     Edge 34, Type (0, 0), BuildingBlock: UVAHIK_clean_linker_0, # of connection points: 2
#     Edge 35, Type (0, 0), BuildingBlock: UVAHIK_clean_linker_0, # of connection points: 2
#     Edge 36, Type (0, 0), BuildingBlock: UVAHIK_clean_linker_0, # of connection points: 2
#     Edge 37, Type (0, 0), BuildingBlock: UVAHIK_clean_linker_0, # of connection points: 2
#     Edge 38, Type (0, 0), BuildingBlock: UVAHIK_clean_linker_0, # of connection points: 2
#     Edge 39, Type (0, 0), BuildingBlock: UVAHIK_clean_linker_0, # of connection points: 2
#     Edge 40, Type (0, 0), BuildingBlock: UVAHIK_clean_linker_0, # of connection points: 2
#     Edge 41, Type (0, 0), BuildingBlock: UVAHIK_clean_linker_0, # of connection points: 2
#     Edge 42, Type (0, 0), BuildingBlock: UVAHIK_clean_linker_0, # of connection points: 2
#     Edge 43, Type (0, 0), BuildingBlock: UVAHIK_clean_linker_0, # of connection points: 2
#     Edge 44, Type (0, 0), BuildingBlock: UVAHIK_clean_linker_0, # of connection points: 2
#     Edge 45, Type (0, 0), BuildingBlock: UVAHIK_clean_linker_0, # of connection points: 2
#     Edge 46, Type (0, 0), BuildingBlock: UVAHIK_clean_linker_0, # of connection points: 2
#     Edge 47, Type (0, 0), BuildingBlock: UVAHIK_clean_linker_0, # of connection points: 2
#     Edge 48, Type (0, 0), BuildingBlock: UVAHIK_clean_linker_0, # of connection points: 2
#     Edge 49, Type (0, 0), BuildingBlock: UVAHIK_clean_linker_0, # of connection points: 2
#     Edge 50, Type (0, 0), BuildingBlock: UVAHIK_clean_linker_0, # of connection points: 2
#     Edge 51, Type (0, 0), BuildingBlock: UVAHIK_clean_linker_0, # of connection points: 2
#     Edge 52, Type (0, 0), BuildingBlock: UVAHIK_clean_linker_0, # of connection points: 2
#     Edge 53, Type (0, 0), BuildingBlock: UVAHIK_clean_linker_0, # of connection points: 2
#     Edge 54, Type (0, 0), BuildingBlock: UVAHIK_clean_linker_0, # of connection points: 2
#     Edge 55, Type (0, 0), BuildingBlock: UVAHIK_clean_linker_0, # of connection points: 2
#     Edge 56, Type (0, 0), BuildingBlock: UVAHIK_clean_linker_0, # of connection points: 2
#     Edge 57, Type (0, 0), BuildingBlock: UVAHIK_clean_linker_0, # of connection points: 2
#     Edge 58, Type (0, 0), BuildingBlock: UVAHIK_clean_linker_0, # of connection points: 2
#     Edge 59, Type (0, 0), BuildingBlock: UVAHIK_clean_linker_0, # of connection points: 2
#     Edge 60, Type (0, 0), BuildingBlock: UVAHIK_clean_linker_0, # of connection points: 2
#     Edge 61, Type (0, 0), BuildingBlock: UVAHIK_clean_linker_0, # of connection points: 2
#     Edge 62, Type (0, 0), BuildingBlock: UVAHIK_clean_linker_0, # of connection points: 2
#     Edge 63, Type (0, 0), BuildingBlock: UVAHIK_clean_linker_0, # of connection points: 2
# Relax obj value: 0.137
# Max RMSD: 0.226
# Mean RMSD: 0.182
data_MOF--net-bcs--node1-BETFEN_clean_sbu_0--edge1-UVAHIK_clean_linker_0
_symmetry_space_group_name_H-M    P1
_symmetry_Int_Tables_number       1
_symmetry_cell_setting            triclinic
loop_
_symmetry_equiv_pos_as_xyz
'x, y, z'
_cell_length_a     58.954448
_cell_length_b     49.666311
_cell_length_c     50.101087
_cell_angle_alpha  107.63688
_cell_angle_beta   74.541967
_cell_angle_gamma 117.11494
loop_
_atom_site_label
_atom_site_type_symbol
_atom_site_fract_x
_atom_site_fract_y
_atom_site_fract_z
_atom_type_partial_charge
Pr0 Pr 0.02953 0.00403 0.03187 0.0
Pr1 Pr 1.01357 0.99679 0.97913 0.0
C2 C 0.03836 0.99306 0.07685 0.0
C3 C 0.05611 0.98491 0.08526 0.0
C4 C 0.07275 0.9731 0.065 0.0
C5 C 0.08869 0.96429 0.07357 0.0
C6 C 0.08829 0.96725 0.10254 0.0
C7 C 0.07173 0.97943 0.12268 0.0
C8 C 0.05581 0.98815 0.11409 0.0
C9 C 0.06252 0.05164 1.004 0.0
C10 C 0.0565 0.96315 0.96928 0.0
C11 C 1.00505 0.00771 0.93392 0.0
C12 C 0.98873 0.01842 0.92607 0.0
C13 C 0.96642 0.02 0.94408 0.0
C14 C 0.95152 0.03092 0.93627 0.0
C15 C 0.95885 0.04062 0.91044 0.0
C16 C 0.98124 0.03887 0.89254 0.0
C17 C 0.99601 0.02789 0.90031 0.0
C18 C 0.98064 0.94922 0.00704 0.0
C19 C 0.98654 0.03757 0.04157 0.0
O20 O 0.02318 0.97159 0.05903 0.0
O21 O 0.04745 0.02081 0.07187 0.0
O22 O 0.05343 0.02325 0.99257 0.0
O23 O 0.05495 0.05655 0.03122 0.0
O24 O 0.04292 0.96981 0.95639 0.0
O25 O 0.054 0.97313 0.99785 0.0
O26 O 0.02209 0.02843 0.95009 0.0
O27 O 0.99387 0.98055 0.94061 0.0
O28 O 0.98965 0.97763 0.01847 0.0
O29 O 0.98827 0.94432 0.97984 0.0
O30 O 0.99877 0.02908 0.05456 0.0
O31 O 0.9904 0.02936 0.01286 0.0
H32 H 0.07328 0.97049 0.04261 0.0
H33 H 0.10141 0.95532 0.05754 0.0
H34 H 0.07063 0.98162 0.14511 0.0
H35 H 0.04298 0.99709 0.13 0.0
H36 H 0.96063 0.01299 0.96419 0.0
H37 H 0.93454 0.03225 0.95064 0.0
H38 H 0.98723 0.04572 0.87234 0.0
H39 H 1.0132 0.02684 0.88618 0.0
Pr40 Pr 0.27219 0.78527 0.25725 0.0
Pr41 Pr 0.26915 0.72119 0.26012 0.0
C42 C 0.27743 0.83521 0.24126 0.0
C43 C 0.26241 0.84463 0.22964 0.0
C44 C 0.27158 0.87559 0.22795 0.0
C45 C 0.2575 0.88501 0.21709 0.0
C46 C 0.23394 0.86358 0.20767 0.0
C47 C 0.22488 0.83244 0.20931 0.0
C48 C 0.23897 0.82307 0.22028 0.0
C49 C 0.23491 0.75686 0.29901 0.0
C50 C 0.23391 0.71908 0.21863 0.0
C51 C 0.26453 0.67162 0.2763 0.0
C52 C 0.27975 0.66314 0.2886 0.0
C53 C 0.30469 0.68409 0.29412 0.0
C54 C 0.31902 0.67562 0.30569 0.0
C55 C 0.30862 0.6461 0.312 0.0
C56 C 0.28352 0.62534 0.30655 0.0
C57 C 0.26924 0.63381 0.29495 0.0
C58 C 0.3068 0.75019 0.21875 0.0
C59 C 0.30752 0.78693 0.29835 0.0
O60 O 0.28509 0.81405 0.22435 0.0
O61 O 0.26923 0.83127 0.26736 0.0
O62 O 0.24039 0.7435 0.27412 0.0
O63 O 0.24775 0.78672 0.30286 0.0
O64 O 0.23582 0.70316 0.23416 0.0
O65 O 0.24761 0.74935 0.22143 0.0
O66 O 0.25603 0.69215 0.2929 0.0
O67 O 0.2732 0.67589 0.25033 0.0
O68 O 0.30098 0.76312 0.24364 0.0
O69 O 0.29417 0.7203 0.21462 0.0
O70 O 0.30638 0.80257 0.28197 0.0
O71 O 0.2928 0.75703 0.29662 0.0
H72 H 0.28968 0.8925 0.23503 0.0
H73 H 0.26521 0.90905 0.21577 0.0
H74 H 0.20669 0.81542 0.20254 0.0
H75 H 0.23155 0.79907 0.22157 0.0
H76 H 0.31303 0.70694 0.28948 0.0
H77 H 0.33815 0.6923 0.30994 0.0
H78 H 0.27504 0.60231 0.31081 0.0
H79 H 0.25001 0.61737 0.2908 0.0
Pr80 Pr 0.52561 0.00921 0.47714 0.0
Pr81 Pr 0.51538 0.99112 0.53546 0.0
C82 C 0.52194 0.01914 0.42858 0.0
C83 C 0.50627 0.03028 0.41995 0.0
C84 C 0.51117 0.03447 0.39222 0.0
C85 C 0.49676 0.04575 0.38405 0.0
C86 C 0.47707 0.0529 0.40346 0.0
C87 C 0.47214 0.04842 0.43122 0.0
C88 C 0.4867 0.03738 0.43941 0.0
C89 C 0.55229 0.05605 0.51896 0.0
C90 C 0.47335 0.00943 0.52481 0.0
C91 C 0.5207 0.98322 0.58409 0.0
C92 C 0.5371 0.97241 0.59179 0.0
C93 C 0.55093 0.95716 0.57074 0.0
C94 C 0.56629 0.94663 0.57812 0.0
C95 C 0.56812 0.9511 0.60673 0.0
C96 C 0.55438 0.96669 0.62771 0.0
C97 C 0.53904 0.97726 0.62028 0.0
C98 C 0.4894 0.94358 0.4935 0.0
C99 C 0.56693 0.98918 0.4873 0.0
O100 O 0.5098 0.99223 0.43572 0.0
O101 O 0.53831 0.0396 0.44555 0.0
O102 O 0.52896 0.03731 0.52308 0.0
O103 O 0.5619 0.05208 0.49228 0.0
O104 O 0.48376 0.00988 0.54533 0.0
O105 O 0.48426 0.006 0.49806 0.0
O106 O 0.53247 0.00976 0.57623 0.0
O107 O 0.50345 0.96239 0.56824 0.0
O108 O 0.51249 0.963 0.4895 0.0
O109 O 0.47963 0.94713 0.52018 0.0
O110 O 0.55666 0.98938 0.46694 0.0
O111 O 0.55624 0.99289 0.51411 0.0
H112 H 0.52623 0.02916 0.37692 0.0
H113 H 0.50089 0.04863 0.36244 0.0
H114 H 0.45737 0.05405 0.44681 0.0
H115 H 0.48289 0.03471 0.46102 0.0
H116 H 0.54965 0.95316 0.5486 0.0
H117 H 0.57633 0.93445 0.5614 0.0
H118 H 0.55563 0.97096 0.6499 0.0
H119 H 0.52864 0.98916 0.6368 0.0
Pr120 Pr 0.26645 0.21802 0.73982 0.0
Pr121 Pr 0.27488 0.28563 0.77031 0.0
C122 C 0.25135 0.16118 0.70633 0.0
C123 C 0.25916 0.14335 0.67935 0.0
C124 C 0.27144 0.1564 0.65537 0.0
C125 C 0.28026 0.13942 0.63053 0.0
C126 C 0.2772 0.10932 0.62949 0.0
C127 C 0.26391 0.09604 0.6533 0.0
C128 C 0.25492 0.1129 0.67796 0.0
C129 C 0.30945 0.25095 0.7678 0.0
C130 C 0.30249 0.2748 0.70424 0.0
C131 C 0.28793 0.3418 0.80512 0.0
C132 C 0.27876 0.35458 0.83407 0.0
C133 C 0.26432 0.33527 0.85345 0.0
C134 C 0.2527 0.34661 0.87973 0.0
C135 C 0.25534 0.37741 0.88691 0.0
C136 C 0.27127 0.39719 0.86815 0.0
C137 C 0.28285 0.38578 0.84183 0.0
C138 C 0.23191 0.25209 0.74222 0.0
C139 C 0.24077 0.22892 0.80622 0.0
O140 O 0.24457 0.18242 0.70511 0.0
O141 O 0.26494 0.16955 0.72656 0.0
O142 O 0.30206 0.26119 0.7532 0.0
O143 O 0.29538 0.22159 0.76686 0.0
O144 O 0.3031 0.29487 0.72863 0.0
O145 O 0.28817 0.24477 0.70236 0.0
O146 O 0.29873 0.32312 0.80267 0.0
O147 O 0.27226 0.33204 0.78669 0.0
O148 O 0.23926 0.24237 0.75732 0.0
O149 O 0.24633 0.28122 0.74223 0.0
O150 O 0.23872 0.20899 0.78172 0.0
O151 O 0.25516 0.25886 0.80786 0.0
H152 H 0.27479 0.17992 0.65604 0.0
H153 H 0.29019 0.15018 0.61247 0.0
H154 H 0.26162 0.0732 0.65353 0.0
H155 H 0.2454 0.10251 0.69631 0.0
H156 H 0.26118 0.31115 0.84782 0.0
H157 H 0.24064 0.33094 0.89387 0.0
H158 H 0.27335 0.42092 0.87294 0.0
H159 H 0.29401 0.40095 0.82706 0.0
Pr160 Pr 1.01154 0.02185 0.50627 0.0
Pr161 Pr 0.03148 0.97397 0.50051 0.0
C162 C 0.9966 0.06268 0.49897 0.0
C163 C 0.97929 0.06459 0.48368 0.0
C164 C 0.95846 0.07195 0.4991 0.0
C165 C 0.94277 0.07573 0.48524 0.0
C166 C 0.94773 0.07253 0.45566 0.0
C167 C 0.96839 0.06477 0.44017 0.0
C168 C 0.98398 0.06077 0.45401 0.0
C169 C 0.98387 0.98184 0.54371 0.0
C170 C 0.98978 0.95493 0.45978 0.0
C171 C 0.04557 0.93226 0.50751 0.0
C172 C 0.06447 0.92985 0.51971 0.0
C173 C 0.07105 0.90446 0.50817 0.0
C174 C 0.08798 0.90068 0.52013 0.0
C175 C 0.09867 0.92227 0.54394 0.0
C176 C 0.09227 0.948 0.55527 0.0
C177 C 0.07535 0.95181 0.54319 0.0
C178 C 0.05925 0.0141 0.46313 0.0
C179 C 0.05354 0.04133 0.54695 0.0
O180 O 1.01688 0.05807 0.48399 0.0
O181 O 0.98589 0.04801 0.51981 0.0
O182 O 0.99141 0.9738 0.51774 0.0
O183 O 0.99032 0.01152 0.55129 0.0
O184 O 0.99832 0.94351 0.47356 0.0
O185 O 0.99528 0.98487 0.4657 0.0
O186 O 0.02827 0.94103 0.52535 0.0
O187 O 0.05408 0.94401 0.48487 0.0
O188 O 0.05166 0.02202 0.48908 0.0
O189 O 0.05309 0.98449 0.45559 0.0
O190 O 0.04392 0.05248 0.53415 0.0
O191 O 0.04902 0.01161 0.54026 0.0
H192 H 0.95456 0.07531 0.52199 0.0
H193 H 0.9272 0.08208 0.4978 0.0
H194 H 0.97253 0.06186 0.41732 0.0
H195 H 0.99989 0.0551 0.44147 0.0
H196 H 0.06274 0.88724 0.49012 0.0
H197 H 0.09219 0.8804 0.51113 0.0
H198 H 0.10039 0.96518 0.57341 0.0
H199 H 0.07057 0.97168 0.55234 0.0
Pr200 Pr 0.27897 0.7668 0.73325 0.0
Pr201 Pr 0.26342 0.73451 0.77795 0.0
C202 C 0.28159 0.79145 0.69076 0.0
C203 C 0.26888 0.80693 0.68308 0.0
C204 C 0.28196 0.82469 0.66235 0.0
C205 C 0.26962 0.83777 0.65319 0.0
C206 C 0.24389 0.83322 0.66457 0.0
C207 C 0.2311 0.81613 0.68603 0.0
C208 C 0.24351 0.80309 0.69522 0.0
C209 C 0.31503 0.79377 0.77013 0.0
C210 C 0.2346 0.7857 0.79199 0.0
C211 C 0.26103 0.70937 0.82001 0.0
C212 C 0.27562 0.69581 0.82713 0.0
C213 C 0.26493 0.67967 0.84914 0.0
C214 C 0.27889 0.66743 0.85673 0.0
C215 C 0.30383 0.67116 0.84241 0.0
C216 C 0.31434 0.68709 0.82008 0.0
C217 C 0.30034 0.6993 0.8125 0.0
C218 C 0.22769 0.70728 0.74067 0.0
C219 C 0.30772 0.71567 0.7192 0.0
O220 O 0.26794 0.7623 0.69182 0.0
O221 O 0.29553 0.80701 0.71114 0.0
O222 O 0.29097 0.78488 0.77761 0.0
O223 O 0.32128 0.78898 0.74275 0.0
O224 O 0.23766 0.76574 0.80238 0.0
O225 O 0.24781 0.78927 0.76574 0.0
O226 O 0.27268 0.73904 0.82047 0.0
O227 O 0.2485 0.69348 0.79853 0.0
O228 O 0.25178 0.71629 0.73349 0.0
O229 O 0.2212 0.71205 0.76801 0.0
O230 O 0.30324 0.73401 0.70814 0.0
O231 O 0.29588 0.71371 0.74616 0.0
H232 H 0.3016 0.82799 0.65286 0.0
H233 H 0.28017 0.85125 0.63701 0.0
H234 H 0.21123 0.81195 0.69507 0.0
H235 H 0.23312 0.78944 0.71131 0.0
H236 H 0.24589 0.67684 0.86069 0.0
H237 H 0.27036 0.65565 0.87425 0.0
H238 H 0.33335 0.69004 0.80839 0.0
H239 H 0.30887 0.71167 0.79538 0.0
Pr240 Pr 0.53442 0.97907 0.99116 0.0
Pr241 Pr 0.51097 0.0214 0.02157 0.0
C242 C 0.55929 0.94644 0.95333 0.0
C243 C 0.58681 0.95353 0.94372 0.0
C244 C 0.6045 0.96909 0.96309 0.0
C245 C 0.63068 0.97609 0.95372 0.0
C246 C 0.63961 0.96814 0.9248 0.0
C247 C 0.62198 0.95339 0.90538 0.0
C248 C 0.59575 0.94606 0.9148 0.0
C249 C 0.55429 0.01377 0.04177 0.0
C250 C 0.56138 0.04931 0.97867 0.0
C251 C 0.48638 0.05534 0.05786 0.0
C252 C 0.45925 0.05045 0.06625 0.0
C253 C 0.45274 0.07572 0.07272 0.0
C254 C 0.42692 0.07122 0.07875 0.0
C255 C 0.4072 0.04131 0.07841 0.0
C256 C 0.41378 0.01599 0.07217 0.0
C257 C 0.43966 0.0205 0.0659 0.0
C258 C 0.49099 0.9856 0.97112 0.0
C259 C 0.48517 0.95183 0.03551 0.0
O260 O 0.55052 0.96264 0.94601 0.0
O261 O 0.55052 0.94291 0.97947 0.0
O262 O 0.5503 0.02467 0.02467 0.0
O263 O 0.54848 0.98442 0.03277 0.0
O264 O 0.54998 0.05731 1.00417 0.0
O265 O 0.55517 0.01982 0.9668 0.0
O266 O 0.49344 0.0379 0.06583 0.0
O267 O 0.49598 0.05846 0.03176 0.0
O268 O 0.49491 0.97541 0.98877 0.0
O269 O 0.49724 0.01509 0.97923 0.0
O270 O 0.49606 0.94335 0.00983 0.0
O271 O 0.49109 0.98141 0.04683 0.0
H272 H 0.5981 0.9757 0.9855 0.0
H273 H 0.64393 0.98752 0.96905 0.0
H274 H 0.62835 0.94661 0.883 0.0
H275 H 0.58242 0.93441 0.89955 0.0
H276 H 0.46763 0.09892 0.07284 0.0
H277 H 0.42238 0.09121 0.084 0.0
H278 H 0.39894 0.99274 0.07174 0.0
H279 H 0.44437 0.0006 0.06048 0.0
Pr280 Pr 0.28224 0.25131 0.2793 0.0
Pr281 Pr 0.25802 0.2559 0.23465 0.0
C282 C 0.29578 0.23536 0.3178 0.0
C283 C 0.30821 0.21678 0.32084 0.0
C284 C 0.32741 0.21065 0.29977 0.0
C285 C 0.34013 0.19475 0.30413 0.0
C286 C 0.33383 0.18462 0.32961 0.0
C287 C 0.31416 0.19031 0.35034 0.0
C288 C 0.30152 0.20621 0.34597 0.0
C289 C 0.31748 0.28525 0.23922 0.0
C290 C 0.27002 0.19567 0.22102 0.0
C291 C 0.2448 0.27208 0.19608 0.0
C292 C 0.23241 0.29062 0.19272 0.0
C293 C 0.20944 0.2911 0.20997 0.0
C294 C 0.19708 0.30695 0.20477 0.0
C295 C 0.20746 0.32263 0.18224 0.0
C296 C 0.23087 0.32276 0.1656 0.0
C297 C 0.24315 0.3069 0.17077 0.0
C298 C 0.22281 0.2216 0.27446 0.0
C299 C 0.27007 0.31159 0.29319 0.0
O300 O 0.27307 0.22052 0.30969 0.0
O301 O 0.31055 0.25965 0.30677 0.0
O302 O 0.29841 0.25989 0.23369 0.0
O303 O 0.31957 0.29312 0.2659 0.0
O304 O 0.26951 0.21536 0.20875 0.0
O305 O 0.27172 0.20265 0.24823 0.0
O306 O 0.26741 0.28698 0.20446 0.0
O307 O 0.23005 0.24747 0.20669 0.0
O308 O 0.24172 0.24711 0.2802 0.0
O309 O 0.22082 0.21389 0.24774 0.0
O310 O 0.27151 0.29237 0.30527 0.0
O311 O 0.26761 0.30422 0.26617 0.0
H312 H 0.3328 0.2185 0.28013 0.0
H313 H 0.35492 0.19041 0.28756 0.0
H314 H 0.30899 0.18325 0.37034 0.0
H315 H 0.28681 0.21082 0.36252 0.0
H316 H 0.20077 0.27875 0.2271 0.0
H317 H 0.17901 0.30612 0.2179 0.0
H318 H 0.2397 0.33504 0.14843 0.0
H319 H 0.26089 0.30691 0.15726 0.0
Pr320 Pr 0.5118 0.52685 0.00861 0.0
Pr321 Pr 0.52956 0.4772 1.0042 0.0
C322 C 0.50011 0.57008 1.00047 0.0
C323 C 0.48307 0.57395 0.98664 0.0
C324 C 0.48292 0.6032 0.99192 0.0
C325 C 0.46782 0.60801 0.97813 0.0
C326 C 0.45258 0.58361 0.95874 0.0
C327 C 0.45246 0.55408 0.95385 0.0
C328 C 0.46766 0.5493 0.96767 0.0
C329 C 0.48285 0.48819 0.04704 0.0
C330 C 0.48768 0.45899 0.96383 0.0
C331 C 0.54203 0.43461 0.01229 0.0
C332 C 0.56078 0.43208 0.02464 0.0
C333 C 0.5652 0.40508 0.01534 0.0
C334 C 0.58225 0.40156 0.02737 0.0
C335 C 0.5952 0.42504 0.04898 0.0
C336 C 0.59086 0.45228 0.05811 0.0
C337 C 0.57382 0.4558 0.04596 0.0
C338 C 0.55847 0.516 0.96585 0.0
C339 C 0.55322 0.5448 0.04958 0.0
O340 O 0.51783 0.56129 0.98378 0.0
O341 O 0.48952 0.55706 0.02237 0.0
O342 O 0.49024 0.47935 0.02121 0.0
O343 O 0.4899 0.518 0.05389 0.0
O344 O 0.49594 0.44747 0.97782 0.0
O345 O 0.49388 0.48908 0.96912 0.0
O346 O 0.52536 0.44459 0.03003 0.0
O347 O 0.55064 0.44557 0.9892 0.0
O348 O 0.55117 0.52475 0.99172 0.0
O349 O 0.55141 0.48621 0.95893 0.0
O350 O 0.54471 0.55647 0.03602 0.0
O351 O 0.54749 0.5148 0.04367 0.0
H352 H 0.49467 0.62244 0.00656 0.0
H353 H 0.46801 0.63087 0.98276 0.0
H354 H 0.44107 0.53488 0.9389 0.0
H355 H 0.46763 0.52655 0.96333 0.0
H356 H 0.55521 0.3865 0.99897 0.0
H357 H 0.58486 0.38014 0.02013 0.0
H358 H 0.60074 0.47091 0.0745 0.0
H359 H 0.57071 0.47691 0.05333 0.0
Pr360 Pr 0.77746 0.26513 0.23075 0.0
Pr361 Pr 0.76678 0.23855 0.27896 0.0
C362 C 0.7749 0.28355 0.1866 0.0
C363 C 0.76336 0.30096 0.17983 0.0
C364 C 0.77557 0.31593 0.15707 0.0
C365 C 0.76413 0.33081 0.14892 0.0
C366 C 0.74014 0.33088 0.16336 0.0
C367 C 0.7283 0.31657 0.18676 0.0
C368 C 0.73982 0.30175 0.19494 0.0
C369 C 0.81436 0.29938 0.26669 0.0
C370 C 0.73565 0.28697 0.29098 0.0
C371 C 0.76946 0.22038 0.32323 0.0
C372 C 0.78112 0.20292 0.32961 0.0
C373 C 0.77432 0.19591 0.35645 0.0
C374 C 0.78622 0.18082 0.36352 0.0
C375 C 0.80517 0.17246 0.34382 0.0
C376 C 0.81161 0.17913 0.3167 0.0
C377 C 0.79968 0.19424 0.30966 0.0
C378 C 0.72994 0.20446 0.24303 0.0
C379 C 0.8084 0.21648 0.21859 0.0
O380 O 0.75902 0.25693 0.19331 0.0
O381 O 0.79352 0.29932 0.20191 0.0
O382 O 0.7903 0.28859 0.2745 0.0
O383 O 0.82029 0.29273 0.2393 0.0
O384 O 0.74214 0.27114 0.30302 0.0
O385 O 0.74558 0.28656 0.2632 0.0
O386 O 0.78545 0.24683 0.31628 0.0
O387 O 0.75082 0.20462 0.30796 0.0
O388 O 0.754 0.21512 0.23523 0.0
O389 O 0.72398 0.21106 0.27042 0.0
O390 O 0.802 0.23241 0.20658 0.0
O391 O 0.79848 0.2169 0.24636 0.0
H392 H 0.79381 0.31569 0.14526 0.0
H393 H 0.77402 0.34209 0.13117 0.0
H394 H 0.70974 0.31596 0.19821 0.0
H395 H 0.7301 0.29037 0.21266 0.0
H396 H 0.76011 0.2026 0.37213 0.0
H397 H 0.78106 0.17647 0.3847 0.0
H398 H 0.8259 0.1727 0.30093 0.0
H399 H 0.80517 0.19949 0.28882 0.0
Pr400 Pr 0.03245 0.48098 0.4886 0.0
Pr401 Pr 1.00806 0.52225 0.52042 0.0
C402 C 0.05801 0.44991 0.44947 0.0
C403 C 0.08556 0.45821 0.43961 0.0
C404 C 0.10373 0.4842 0.45481 0.0
C405 C 0.13003 0.49145 0.44621 0.0
C406 C 0.13849 0.47299 0.42213 0.0
C407 C 0.12018 0.44755 0.40649 0.0
C408 C 0.09388 0.4402 0.41522 0.0
C409 C 0.05187 0.5148 0.53963 0.0
C410 C 0.05846 0.55245 0.47845 0.0
C411 C 0.98171 0.55299 0.55847 0.0
C412 C 0.9539 0.54485 0.5682 0.0
C413 C 0.94149 0.55789 0.55889 0.0
C414 C 0.91493 0.54886 0.5661 0.0
C415 C 0.90023 0.52686 0.58305 0.0
C416 C 0.91261 0.51412 0.59279 0.0
C417 C 0.93922 0.5229 0.58531 0.0
C418 C 0.9892 0.48868 0.46909 0.0
C419 C 0.98233 0.45127 0.53137 0.0
O420 O 0.04842 0.46585 0.44307 0.0
O421 O 0.05012 0.4462 0.4756 0.0
O422 O 0.0476 0.52585 0.52293 0.0
O423 O 0.0465 0.48557 0.53007 0.0
O424 O 0.04643 0.55961 0.50383 0.0
O425 O 0.05312 0.52321 0.46603 0.0
O426 O 0.99193 0.53818 0.56564 0.0
O427 O 0.99001 0.5566 0.53232 0.0
O428 O 0.99295 0.47741 0.48605 0.0
O429 O 0.995 0.51799 0.47847 0.0
O430 O 0.99422 0.44382 0.50596 0.0
O431 O 0.98773 0.48056 0.54352 0.0
H432 H 0.09751 0.49854 0.47359 0.0
H433 H 0.14372 0.51122 0.45855 0.0
H434 H 0.12613 0.43261 0.38809 0.0
H435 H 0.08004 0.42016 0.40325 0.0
H436 H 0.95233 0.57493 0.54581 0.0
H437 H 0.90595 0.55964 0.5589 0.0
H438 H 0.90169 0.49729 0.60607 0.0
H439 H 0.94818 0.51233 0.59278 0.0
Pr440 Pr 0.76611 0.71569 0.23948 0.0
Pr441 Pr 0.77653 0.78382 0.27055 0.0
C442 C 0.74925 0.65924 0.20543 0.0
C443 C 0.75768 0.6429 0.17796 0.0
C444 C 0.78308 0.65579 0.1645 0.0
C445 C 0.79175 0.63884 0.13964 0.0
C446 C 0.77507 0.60879 0.12777 0.0
C447 C 0.74915 0.59679 0.14052 0.0
C448 C 0.74054 0.61376 0.16554 0.0
C449 C 0.81118 0.74793 0.26396 0.0
C450 C 0.79984 0.77209 0.20313 0.0
C451 C 0.79284 0.84071 0.30389 0.0
C452 C 0.78504 0.85796 0.33127 0.0
C453 C 0.77223 0.84388 0.3546 0.0
C454 C 0.7626 0.85992 0.37954 0.0
C455 C 0.76534 0.89005 0.38131 0.0
C456 C 0.77937 0.90448 0.35829 0.0
C457 C 0.78918 0.88856 0.33353 0.0
C458 C 0.73154 0.75131 0.2458 0.0
C459 C 0.74318 0.72758 0.30705 0.0
O460 O 0.74329 0.68135 0.20481 0.0
O461 O 0.76261 0.66648 0.22561 0.0
O462 O 0.80276 0.75836 0.25064 0.0
O463 O 0.7971 0.71861 0.26326 0.0
O464 O 0.80253 0.79219 0.22755 0.0
O465 O 0.7855 0.74216 0.20172 0.0
O466 O 0.79972 0.81928 0.3044 0.0
O467 O 0.77887 0.83264 0.28411 0.0
O468 O 0.73989 0.74115 0.25943 0.0
O469 O 0.74577 0.78053 0.24614 0.0
O470 O 0.74034 0.70743 0.28265 0.0
O471 O 0.75755 0.7575 0.3084 0.0
H472 H 0.79645 0.67846 0.17382 0.0
H473 H 0.81193 0.64865 0.13071 0.0
H474 H 0.73579 0.57389 0.13172 0.0
H475 H 0.72074 0.60377 0.17563 0.0
H476 H 0.76893 0.82022 0.35325 0.0
H477 H 0.75216 0.8483 0.39701 0.0
H478 H 0.78148 0.92741 0.35865 0.0
H479 H 0.79906 0.89971 0.31567 0.0
Pr480 Pr 0.77178 0.28182 0.75441 0.0
Pr481 Pr 0.77125 0.2181 0.75496 0.0
C482 C 0.77499 0.33173 0.74009 0.0
C483 C 0.75979 0.34117 0.7287 0.0
C484 C 0.76493 0.37259 0.73383 0.0
C485 C 0.75086 0.38209 0.72302 0.0
C486 C 0.73137 0.36029 0.70683 0.0
C487 C 0.72628 0.32872 0.70176 0.0
C488 C 0.74034 0.31926 0.71267 0.0
C489 C 0.73695 0.25234 0.79687 0.0
C490 C 0.73249 0.21522 0.71713 0.0
C491 C 0.76856 0.16821 0.76884 0.0
C492 C 0.78376 0.15956 0.781 0.0
C493 C 0.77696 0.12827 0.77952 0.0
C494 C 0.79099 0.1196 0.79128 0.0
C495 C 0.81209 0.14215 0.80484 0.0
C496 C 0.81888 0.17359 0.80614 0.0
C497 C 0.80486 0.1822 0.79427 0.0
C498 C 0.80603 0.24774 0.7125 0.0
C499 C 0.80943 0.28434 0.79336 0.0
O500 O 0.78368 0.31167 0.7227 0.0
O501 O 0.76658 0.32667 0.76582 0.0
O502 O 0.74178 0.23938 0.7716 0.0
O503 O 0.74903 0.2823 0.80083 0.0
O504 O 0.73638 0.19938 0.73111 0.0
O505 O 0.7453 0.24565 0.72025 0.0
O506 O 0.75877 0.18732 0.786 0.0
O507 O 0.77784 0.17418 0.74347 0.0
O508 O 0.80131 0.2606 0.73784 0.0
O509 O 0.79379 0.21781 0.70845 0.0
O510 O 0.80638 0.30027 0.77873 0.0
O511 O 0.79632 0.25398 0.79024 0.0
H512 H 0.77993 0.38983 0.74611 0.0
H513 H 0.7555 0.40659 0.72702 0.0
H514 H 0.71121 0.3113 0.68968 0.0
H515 H 0.73605 0.29488 0.70863 0.0
H516 H 0.76077 0.11049 0.76923 0.0
H517 H 0.78548 0.0952 0.78944 0.0
H518 H 0.83482 0.19159 0.81666 0.0
H519 H 0.8104 0.20649 0.79552 0.0
Pr520 Pr 0.78177 0.74425 0.77421 0.0
Pr521 Pr 0.75782 0.74623 0.72802 0.0
C522 C 0.79459 0.72989 0.81437 0.0
C523 C 0.80759 0.71224 0.81812 0.0
C524 C 0.8305 0.71189 0.80066 0.0
C525 C 0.84334 0.69667 0.80594 0.0
C526 C 0.83348 0.68143 0.82875 0.0
C527 C 0.81013 0.68119 0.84565 0.0
C528 C 0.79738 0.69648 0.84041 0.0
C529 C 0.81739 0.77685 0.73357 0.0
C530 C 0.76982 0.68631 0.71709 0.0
C531 C 0.74391 0.75949 0.68792 0.0
C532 C 0.73321 0.77926 0.68375 0.0
C533 C 0.73202 0.77905 0.65614 0.0
C534 C 0.72075 0.79632 0.65148 0.0
C535 C 0.7104 0.81418 0.67441 0.0
C536 C 0.71197 0.81465 0.70215 0.0
C537 C 0.72332 0.79735 0.70677 0.0
C538 C 0.7226 0.71371 0.76908 0.0
C539 C 0.77037 0.8043 0.7843 0.0
O540 O 0.77231 0.71408 0.80526 0.0
O541 O 0.809 0.75461 0.80384 0.0
O542 O 0.79841 0.75128 0.72813 0.0
O543 O 0.81924 0.78534 0.76035 0.0
O544 O 0.76791 0.70433 0.70396 0.0
O545 O 0.77278 0.69517 0.74406 0.0
O546 O 0.76737 0.7729 0.69399 0.0
O547 O 0.72835 0.73794 0.70205 0.0
O548 O 0.74135 0.73955 0.77419 0.0
O549 O 0.72095 0.7045 0.74225 0.0
O550 O 0.77049 0.78551 0.79798 0.0
O551 O 0.76877 0.79591 0.75701 0.0
H552 H 0.83874 0.72383 0.78324 0.0
H553 H 0.86136 0.6976 0.79262 0.0
H554 H 0.80167 0.66922 0.86304 0.0
H555 H 0.77966 0.69634 0.85407 0.0
H556 H 0.73945 0.76509 0.63812 0.0
H557 H 0.71957 0.795 0.62989 0.0
H558 H 0.70447 0.82841 0.72027 0.0
H559 H 0.72414 0.79782 0.72827 0.0
Pr560 Pr 0.52911 0.50392 0.53147 0.0
Pr561 Pr 0.51402 0.4988 0.47809 0.0
C562 C 0.53676 0.49141 0.57631 0.0
C563 C 0.55401 0.48266 0.5849 0.0
C564 C 0.57455 0.47749 0.56575 0.0
C565 C 0.59031 0.46844 0.57436 0.0
C566 C 0.58576 0.46447 0.60228 0.0
C567 C 0.56509 0.46974 0.62128 0.0
C568 C 0.5494 0.47875 0.61265 0.0
C569 C 0.56301 0.55199 0.50435 0.0
C570 C 0.55657 0.4644 0.46838 0.0
C571 C 0.50605 0.51122 0.43341 0.0
C572 C 0.48891 0.52087 0.42569 0.0
C573 C 0.49012 0.52002 0.39717 0.0
C574 C 0.47484 0.53031 0.38938 0.0
C575 C 0.45804 0.54171 0.41002 0.0
C576 C 0.45661 0.54207 0.43864 0.0
C577 C 0.47195 0.53175 0.4464 0.0
C578 C 0.48066 0.45062 0.50515 0.0
C579 C 0.48661 0.53831 0.54123 0.0
O580 O 0.52194 0.47042 0.55796 0.0
O581 O 0.54626 0.51941 0.57179 0.0
O582 O 0.55345 0.52377 0.49257 0.0
O583 O 0.5556 0.55646 0.53161 0.0
O584 O 0.54482 0.47368 0.45549 0.0
O585 O 0.55227 0.47172 0.49711 0.0
O586 O 0.52179 0.53196 0.45101 0.0
O587 O 0.49602 0.48333 0.43834 0.0
O588 O 0.48992 0.47887 0.5169 0.0
O589 O 0.48773 0.44613 0.47784 0.0
O590 O 0.49822 0.52885 0.55409 0.0
O591 O 0.49104 0.53116 0.5125 0.0
H592 H 0.57833 0.48037 0.54418 0.0
H593 H 0.60618 0.46484 0.55927 0.0
H594 H 0.56073 0.46639 0.64275 0.0
H595 H 0.53349 0.48243 0.62764 0.0
H596 H 0.50307 0.51161 0.3809 0.0
H597 H 0.47612 0.52922 0.36714 0.0
H598 H 0.44407 0.55095 0.45509 0.0
H599 H 0.4708 0.53262 0.46857 0.0
Pr600 Pr 0.02713 0.5113 0.97602 0.0
Pr601 Pr 1.01591 0.49725 0.03641 0.0
C602 C 0.02427 0.5188 0.92603 0.0
C603 C 1.00733 0.52672 0.91572 0.0
C604 C 1.01725 0.54278 0.89366 0.0
C605 C 1.00198 0.55269 0.88526 0.0
C606 C 0.97653 0.54691 0.89894 0.0
C607 C 0.96652 0.53025 0.92072 0.0
C608 C 0.98176 0.5202 0.92896 0.0
C609 C 0.05816 0.55739 0.0148 0.0
C610 C 0.97776 0.52047 0.02439 0.0
C611 C 1.01963 0.49002 0.08612 0.0
C612 C 0.03681 0.482 0.09589 0.0
C613 C 0.02752 0.46723 0.11879 0.0
C614 C 0.04284 0.45712 0.12683 0.0
C615 C 0.06775 0.46144 0.11198 0.0
C616 C 0.07716 0.47681 0.08931 0.0
C617 C 0.06184 0.487 0.08137 0.0
C618 C 0.98517 0.4509 0.99742 0.0
C619 C 0.06417 0.48636 0.988 0.0
O620 O 1.01418 0.49178 0.93285 0.0
O621 O 0.03876 0.54095 0.94405 0.0
O622 O 0.03415 0.54214 0.02039 0.0
O623 O 0.06663 0.55013 0.98806 0.0
O624 O 0.98793 0.52094 0.04512 0.0
O625 O 0.98755 0.51418 0.99745 0.0
O626 O 0.02959 0.517 0.07922 0.0
O627 O 1.00475 0.46785 0.06846 0.0
O628 O 1.00913 0.46644 0.99204 0.0
O629 O 0.97658 0.45781 0.02419 0.0
O630 O 0.05393 0.48582 0.9673 0.0
O631 O 0.0552 0.49402 0.01494 0.0
H632 H 0.037 0.54822 0.8833 0.0
H633 H 1.01039 0.56573 0.86863 0.0
H634 H 0.94691 0.52505 0.93147 0.0
H635 H 0.97373 0.50773 0.94594 0.0
H636 H 1.00817 0.46292 0.1301 0.0
H637 H 0.03484 0.44505 0.14413 0.0
H638 H 0.09635 0.48088 0.07763 0.0
H639 H 0.06942 0.49838 0.06363 0.0
C640 C 0.22164 0.23632 0.85796 0.0
C641 C 0.2262 0.21683 0.8321 0.0
C642 C 0.20706 0.22387 0.88185 0.0
C643 C 0.18449 0.15398 0.91055 0.0
H644 H 0.12517 0.172 0.95009 0.0
C645 C 0.09406 0.06597 0.96112 0.0
C646 C 0.083 0.07528 0.98883 0.0
C647 C 0.11402 0.08775 0.94668 0.0
C648 C 0.14195 0.1672 0.93961 0.0
H649 H 0.2195 0.16919 0.81123 0.0
H650 H 0.19437 0.1478 0.85244 0.0
H651 H 0.15686 0.20308 0.91623 0.0
H652 H 0.08363 0.11467 0.02299 0.0
H653 H 0.11852 0.1532 0.99719 0.0
H654 H 0.16899 0.11717 0.93268 0.0
C655 C 0.20208 0.17262 0.85449 0.0
C656 C 0.16008 0.18498 0.92031 0.0
C657 C 0.21631 0.1849 0.83074 0.0
C658 C 0.09195 0.10693 1.00167 0.0
C659 C 0.1118 0.12891 0.98696 0.0
C660 C 0.16639 0.13621 0.92962 0.0
C661 C 0.19722 0.19186 0.8803 0.0
C662 C 0.18098 0.1777 0.90479 0.0
C663 C 0.1232 0.11938 0.95947 0.0
C664 C 0.14447 0.1419 0.94353 0.0
H665 H 0.22892 0.261 0.85962 0.0
H666 H 0.20356 0.23922 0.9015 0.0
H667 H 0.20071 0.14827 0.89934 0.0
H668 H 0.08749 0.04175 0.95063 0.0
H669 H 0.12218 0.07985 0.92532 0.0
C670 C 0.11694 0.97473 0.13579 0.0
C671 C 0.10463 0.95718 0.11187 0.0
C672 C 0.13127 0.96459 0.14544 0.0
C673 C 0.16418 0.91138 0.12378 0.0
H674 H 0.15727 0.92043 0.20484 0.0
C675 C 0.20689 0.85566 0.17234 0.0
C676 C 0.21889 0.8738 0.19638 0.0
C677 C 0.19298 0.86553 0.16164 0.0
C678 C 0.15964 0.91801 0.18216 0.0
H679 H 0.09791 0.91521 0.07923 0.0
H680 H 0.12292 0.89749 0.09607 0.0
H681 H 0.13343 0.93845 0.18666 0.0
H682 H 0.22529 0.91632 0.22826 0.0
H683 H 0.20139 0.9337 0.2094 0.0
H684 H 0.19038 0.89085 0.11935 0.0
C685 C 0.12174 0.91932 0.10718 0.0
C686 C 0.14598 0.92839 0.17172 0.0
C687 C 0.10741 0.92949 0.09751 0.0
C688 C 0.21653 0.90194 0.20953 0.0
C689 C 0.20258 0.91175 0.1989 0.0
C690 C 0.17784 0.90097 0.13424 0.0
C691 C 0.13365 0.93661 0.13143 0.0
C692 C 0.14814 0.92532 0.14241 0.0
C693 C 0.19064 0.89369 0.17482 0.0
C694 C 0.17581 0.90426 0.16357 0.0
H695 H 0.11559 0.99644 0.14706 0.0
H696 H 0.14061 0.9788 0.16384 0.0
H697 H 0.16654 0.90899 0.10111 0.0
H698 H 0.20851 0.834 0.16155 0.0
H699 H 0.18382 0.85092 0.14321 0.0
C700 C 0.44762 0.90411 0.47821 0.0
C701 C 0.4737 0.92307 0.47091 0.0
C702 C 0.4317 0.88708 0.45741 0.0
C703 C 0.42036 0.89142 0.39325 0.0
H704 H 0.37974 0.8028 0.38176 0.0
C705 C 0.34982 0.82819 0.3114 0.0
C706 C 0.32719 0.80243 0.31739 0.0
C707 C 0.36909 0.84188 0.32854 0.0
C708 C 0.39058 0.82763 0.38497 0.0
H709 H 0.50404 0.93743 0.43602 0.0
H710 H 0.47566 0.90883 0.39958 0.0
H711 H 0.41123 0.82771 0.41441 0.0
H712 H 0.30665 0.77116 0.34632 0.0
H713 H 0.33947 0.79599 0.37717 0.0
H714 H 0.39888 0.89208 0.36544 0.0
C715 C 0.46773 0.90721 0.42146 0.0
C716 C 0.40883 0.84175 0.40342 0.0
C717 C 0.48385 0.92364 0.44226 0.0
C718 C 0.32399 0.79091 0.34111 0.0
C719 C 0.343 0.80501 0.35863 0.0
C720 C 0.40172 0.87746 0.37528 0.0
C721 C 0.44147 0.8891 0.42899 0.0
C722 C 0.42377 0.87374 0.40775 0.0
C723 C 0.36597 0.83054 0.35247 0.0
C724 C 0.38642 0.84535 0.37099 0.0
H725 H 0.4393 0.90302 0.50013 0.0
H726 H 0.41148 0.87329 0.46366 0.0
H727 H 0.43146 0.91625 0.39665 0.0
H728 H 0.35297 0.8373 0.29301 0.0
H729 H 0.38663 0.86103 0.32266 0.0
C730 C 0.31626 0.11025 0.59406 0.0
C731 C 0.29077 0.09338 0.60556 0.0
C732 C 0.33151 0.09494 0.57695 0.0
C733 C 0.33946 0.02725 0.57491 0.0
H734 H 0.39477 0.0542 0.51361 0.0
C735 C 0.4359 0.00677 0.50849 0.0
C736 C 0.44856 0.01229 0.53103 0.0
C737 C 0.41324 0.01095 0.5136 0.0
C738 C 0.37921 0.04608 0.53047 0.0
H739 H 0.26032 0.04727 0.60519 0.0
H740 H 0.28737 0.0205 0.57585 0.0
H741 H 0.35978 0.07129 0.52555 0.0
H742 H 0.44671 0.02515 0.5767 0.0
H743 H 0.40681 0.03256 0.58569 0.0
H744 H 0.35948 0.00315 0.58065 0.0
C745 C 0.29548 0.04556 0.58038 0.0
C746 C 0.35927 0.0559 0.53729 0.0
C747 C 0.2801 0.06089 0.59725 0.0
C748 C 0.43746 0.02088 0.55893 0.0
C749 C 0.4146 0.02493 0.56406 0.0
C750 C 0.35952 0.01766 0.56826 0.0
C751 C 0.32162 0.06251 0.57121 0.0
C752 C 0.33959 0.0472 0.56003 0.0
C753 C 0.40257 0.02049 0.54136 0.0
C754 C 0.37988 0.02763 0.54645 0.0
H755 H 0.32522 0.13526 0.60016 0.0
H756 H 0.35167 0.10857 0.57031 0.0
H757 H 0.32467 0.02054 0.5928 0.0
H758 H 0.44356 0.99942 0.48673 0.0
H759 H 0.40414 0.00696 0.49579 0.0
C760 C 0.11298 0.92195 0.58682 0.0
C761 C 0.1158 0.91728 0.5572 0.0
C762 C 0.1278 0.91494 0.59911 0.0
C763 C 0.16382 0.86613 0.582 0.0
H764 H 0.1925 0.91725 0.65068 0.0
C765 C 0.23357 0.84288 0.62382 0.0
C766 C 0.23017 0.84506 0.65314 0.0
C767 C 0.22016 0.853 0.61276 0.0
C768 C 0.18438 0.90258 0.63165 0.0
H769 H 0.13732 0.90306 0.51738 0.0
H770 H 0.16318 0.89094 0.53877 0.0
H771 H 0.16849 0.93316 0.63012 0.0
H772 H 0.21028 0.86016 0.69389 0.0
H773 H 0.18647 0.87739 0.67449 0.0
H774 H 0.1795 0.83548 0.5835 0.0
C775 C 0.14913 0.89939 0.55249 0.0
C776 C 0.17065 0.9117 0.61987 0.0
C777 C 0.13433 0.90637 0.54023 0.0
C778 C 0.21317 0.8579 0.67118 0.0
C779 C 0.19974 0.86808 0.6601 0.0
C780 C 0.1775 0.85703 0.59375 0.0
C781 C 0.14576 0.90311 0.58204 0.0
C782 C 0.16033 0.89364 0.59481 0.0
C783 C 0.20294 0.8655 0.63072 0.0
C784 C 0.18806 0.87519 0.61863 0.0
H785 H 0.09869 0.93002 0.60047 0.0
H786 H 0.12457 0.91782 0.62192 0.0
H787 H 0.15565 0.85133 0.56304 0.0
H788 H 0.24625 0.83276 0.60926 0.0
H789 H 0.22333 0.85103 0.59007 0.0
C790 C 0.3605 0.82342 0.77988 0.0
C791 C 0.33395 0.81179 0.79004 0.0
C792 C 0.3784 0.84134 0.79866 0.0
C793 C 0.4105 0.89434 0.84122 0.0
H794 H 0.39993 0.87311 0.91325 0.0
C795 C 0.46819 0.97823 0.93216 0.0
C796 C 0.47535 0.96549 0.94833 0.0
C797 C 0.45207 0.95898 0.91178 0.0
C798 C 0.40332 0.87922 0.89312 0.0
H799 H 0.30527 0.80932 0.82779 0.0
H800 H 0.33647 0.84077 0.86057 0.0
H801 H 0.36971 0.83977 0.87984 0.0
H802 H 0.47195 0.92273 0.95533 0.0
H803 H 0.44404 0.88914 0.91959 0.0
H804 H 0.44428 0.93363 0.8544 0.0
C805 C 0.34352 0.83587 0.83814 0.0
C806 C 0.38581 0.86029 0.87409 0.0
C807 C 0.32563 0.81799 0.81936 0.0
C808 C 0.46661 0.93319 0.94328 0.0
C809 C 0.45049 0.91395 0.92294 0.0
C810 C 0.428 0.91331 0.86027 0.0
C811 C 0.37013 0.84793 0.82801 0.0
C812 C 0.38912 0.86767 0.84796 0.0
C813 C 0.44278 0.92658 0.90715 0.0
C814 C 0.42458 0.90604 0.8865 0.0
H815 H 0.36746 0.81885 0.75739 0.0
H816 H 0.39875 0.84988 0.79018 0.0
H817 H 0.4135 0.90088 0.8214 0.0
H818 H 0.47465 0.00306 0.93561 0.0
H819 H 0.44632 0.96948 0.90019 0.0
C820 C 0.36309 0.01994 0.10607 0.0
C821 C 0.37997 0.03716 0.08573 0.0
C822 C 0.33916 0.02133 0.11719 0.0
C823 C 0.29542 0.05489 0.11229 0.0
H824 H 0.29791 0.08584 0.19281 0.0
C825 C 0.277 0.16124 0.17452 0.0
C826 C 0.26969 0.16559 0.20401 0.0
C827 C 0.27962 0.13401 0.15895 0.0
C828 C 0.29615 0.07652 0.17056 0.0
H829 H 0.38401 0.06623 0.05859 0.0
H830 H 0.34267 0.06928 0.07832 0.0
H831 H 0.32174 0.05529 0.16543 0.0
H832 H 0.25689 0.14383 0.24002 0.0
H833 H 0.26087 0.09601 0.21276 0.0
H834 H 0.27096 0.07792 0.11736 0.0
C835 C 0.34764 0.05458 0.08572 0.0
C836 C 0.30989 0.05885 0.15478 0.0
C837 C 0.37152 0.05324 0.07468 0.0
C838 C 0.26315 0.14135 0.21736 0.0
C839 C 0.26538 0.11395 0.20174 0.0
C840 C 0.28152 0.07249 0.12816 0.0
C841 C 0.33178 0.03993 0.10809 0.0
C842 C 0.31087 0.04937 0.12524 0.0
C843 C 0.27464 0.11044 0.17253 0.0
C844 C 0.28295 0.08497 0.15719 0.0
H845 H 0.36911 0.00722 0.11484 0.0
H846 H 0.32718 0.00952 0.1342 0.0
H847 H 0.29547 0.04738 0.0896 0.0
H848 H 0.28204 0.1795 0.16367 0.0
H849 H 0.28712 0.13237 0.13657 0.0
C850 C 0.08651 0.06819 0.45587 0.0
C851 C 0.0755 0.03624 0.44445 0.0
C852 C 0.10232 0.08909 0.43825 0.0
C853 C 0.11569 0.09877 0.36529 0.0
H854 H 0.18282 0.16033 0.38336 0.0
C855 C 0.18922 0.17105 0.28494 0.0
C856 C 0.20588 0.20171 0.29488 0.0
C857 C 0.17333 0.1517 0.3038 0.0
C858 C 0.16397 0.14369 0.37817 0.0
H859 H 0.072 0.00113 0.40566 0.0
H860 H 0.09919 0.03772 0.37477 0.0
H861 H 0.15474 0.12532 0.41521 0.0
H862 H 0.21902 0.23629 0.33237 0.0
H863 H 0.19054 0.2029 0.3656 0.0
H864 H 0.12434 0.11735 0.32875 0.0
C865 C 0.09575 0.04656 0.39737 0.0
C866 C 0.14794 0.12352 0.39641 0.0
C867 C 0.08029 0.02562 0.41504 0.0
C868 C 0.20633 0.21272 0.32415 0.0
C869 C 0.19012 0.19345 0.34314 0.0
C870 C 0.1315 0.1192 0.34728 0.0
C871 C 0.10705 0.0785 0.4088 0.0
C872 C 0.12374 0.10064 0.39 0.0
C873 C 0.17336 0.16261 0.33323 0.0
C874 C 0.15604 0.14175 0.35324 0.0
H875 H 0.08312 0.07703 0.47848 0.0
H876 H 0.11061 0.11359 0.44761 0.0
H877 H 0.09697 0.08166 0.36002 0.0
H878 H 0.18869 0.16179 0.26246 0.0
H879 H 0.16128 0.12798 0.29516 0.0
C880 C 0.8364 0.19578 0.17076 0.0
C881 C 0.82676 0.19798 0.20059 0.0
C882 C 0.85272 0.17926 0.15443 0.0
C883 C 0.8909 0.13071 0.15934 0.0
H884 H 0.90795 0.12132 0.07806 0.0
C885 C 0.96271 0.06359 0.08999 0.0
C886 C 0.96818 0.05607 0.05953 0.0
C887 C 0.94627 0.07995 0.10629 0.0
C888 C 0.90388 0.12313 0.10074 0.0
H889 H 0.82951 0.18159 0.23457 0.0
H890 H 0.85696 0.15405 0.20736 0.0
H891 H 0.88068 0.14869 0.10536 0.0
H892 H 0.95775 0.06269 0.0244 0.0
H893 H 0.93033 0.09027 0.05161 0.0
H894 H 0.91414 0.10523 0.15473 0.0
C895 C 0.8519 0.1653 0.19589 0.0
C896 C 0.88754 0.13964 0.11715 0.0
C897 C 0.83546 0.18172 0.2122 0.0
C898 C 0.95524 0.06694 0.04728 0.0
C899 C 0.93887 0.08345 0.0636 0.0
C900 C 0.90734 0.11434 0.14295 0.0
C901 C 0.86154 0.16299 0.16595 0.0
C902 C 0.87998 0.14446 0.1475 0.0
C903 C 0.93332 0.09097 0.09415 0.0
C904 C 0.91485 0.10947 0.11259 0.0
H905 H 0.83122 0.20709 0.15944 0.0
H906 H 0.85854 0.17956 0.13212 0.0
H907 H 0.88687 0.13259 0.18202 0.0
H908 H 0.97131 0.05663 0.10182 0.0
H909 H 0.9439 0.08404 0.12911 0.0
C910 C 0.09156 0.56912 0.43706 0.0
C911 C 0.07865 0.577 0.46411 0.0
C912 C 0.11074 0.59212 0.42337 0.0
C913 C 0.1335 0.67342 0.42081 0.0
H914 H 0.193 0.65973 0.37435 0.0
C915 C 0.21362 0.75581 0.34933 0.0
C916 C 0.21788 0.74005 0.32131 0.0
C917 C 0.19834 0.73918 0.37048 0.0
C918 C 0.17653 0.6639 0.38737 0.0
H919 H 0.07582 0.61518 0.49819 0.0
H920 H 0.10959 0.65551 0.47417 0.0
H921 H 0.16342 0.62449 0.40538 0.0
H922 H 0.20912 0.69487 0.29313 0.0
H923 H 0.18294 0.66602 0.32998 0.0
H924 H 0.14659 0.71264 0.40222 0.0
C925 C 0.10465 0.63148 0.46353 0.0
C926 C 0.15957 0.64372 0.40501 0.0
C927 C 0.08539 0.6084 0.47728 0.0
C928 C 0.20637 0.7076 0.31463 0.0
C929 C 0.1915 0.69108 0.3357 0.0
C930 C 0.15064 0.6938 0.40325 0.0
C931 C 0.11753 0.62354 0.43644 0.0
C932 C 0.13741 0.64764 0.42117 0.0
C933 C 0.18752 0.70668 0.36382 0.0
C934 C 0.17179 0.68854 0.38573 0.0
H935 H 0.08681 0.54515 0.42631 0.0
H936 H 0.11994 0.58524 0.40226 0.0
H937 H 0.11652 0.67695 0.43294 0.0
H938 H 0.22228 0.78086 0.35493 0.0
H939 H 0.19541 0.75163 0.39205 0.0
C940 C 0.60784 0.94079 0.59834 0.0
C941 C 0.58394 0.9391 0.61464 0.0
C942 C 0.62238 0.9289 0.60544 0.0
C943 C 0.6304 0.90517 0.66467 0.0
H944 H 0.66406 0.85905 0.60456 0.0
C945 C 0.67434 0.83185 0.6863 0.0
C946 C 0.69743 0.83144 0.66922 0.0
C947 C 0.66137 0.84648 0.68034 0.0
C948 C 0.65509 0.87222 0.62161 0.0
H949 H 0.55657 0.92324 0.65112 0.0
H950 H 0.5819 0.90262 0.66349 0.0
H951 H 0.63992 0.88164 0.59279 0.0
H952 H 0.72545 0.84726 0.63311 0.0
H953 H 0.7029 0.87277 0.62277 0.0
H954 H 0.64547 0.89557 0.69351 0.0
C955 C 0.58961 0.91356 0.64545 0.0
C956 C 0.64122 0.88519 0.61484 0.0
C957 C 0.57507 0.92542 0.63834 0.0
C958 C 0.70748 0.84663 0.64641 0.0
C959 C 0.69452 0.86124 0.64046 0.0
C960 C 0.64429 0.8922 0.67145 0.0
C961 C 0.61342 0.91503 0.62904 0.0
C962 C 0.62862 0.90176 0.63628 0.0
C963 C 0.67115 0.86109 0.65715 0.0
C964 C 0.65676 0.87548 0.65001 0.0
H965 H 0.61548 0.95159 0.5802 0.0
H966 H 0.6408 0.93088 0.59257 0.0
H967 H 0.62129 0.91818 0.68171 0.0
H968 H 0.66584 0.82005 0.7038 0.0
H969 H 0.64326 0.84555 0.69345 0.0
C970 C 0.46006 0.40537 0.94057 0.0
C971 C 0.47035 0.43753 0.94267 0.0
C972 C 0.4434 0.38493 0.92106 0.0
C973 C 0.42439 0.37762 0.85419 0.0
H974 H 0.36193 0.3106 0.87868 0.0
C975 C 0.34415 0.30218 0.7844 0.0
C976 C 0.32988 0.27086 0.78573 0.0
C977 C 0.3621 0.3219 0.80275 0.0
C978 C 0.37948 0.32883 0.87128 0.0
H979 H 0.47129 0.47336 0.92564 0.0
H980 H 0.4423 0.43752 0.8913 0.0
H981 H 0.39142 0.34639 0.91223 0.0
H982 H 0.3239 0.23527 0.80653 0.0
H983 H 0.35587 0.26946 0.83809 0.0
H984 H 0.41275 0.35993 0.81316 0.0
C985 C 0.44722 0.42822 0.90482 0.0
C986 C 0.39633 0.34945 0.8906 0.0
C987 C 0.46372 0.44874 0.92459 0.0
C988 C 0.33455 0.25936 0.80514 0.0
C989 C 0.3527 0.27906 0.82339 0.0
C990 C 0.40766 0.35683 0.83478 0.0
C991 C 0.43677 0.39608 0.90295 0.0
C992 C 0.41892 0.37416 0.88232 0.0
C993 C 0.3665 0.31073 0.8227 0.0
C994 C 0.38488 0.33222 0.84308 0.0
H995 H 0.4647 0.39587 0.95417 0.0
H996 H 0.4359 0.3603 0.91994 0.0
H997 H 0.44183 0.39616 0.84706 0.0
H998 H 0.34108 0.31168 0.76953 0.0
H999 H 0.37202 0.34613 0.80174 0.0
C1000 C 0.83756 0.75625 0.30002 0.0
C1001 C 0.83204 0.76784 0.28135 0.0
C1002 C 0.85587 0.77606 0.31809 0.0
C1003 C 0.88625 0.8581 0.35273 0.0
H1004 H 0.93681 0.83561 0.36545 0.0
C1005 C 0.966 0.94508 0.42057 0.0
C1006 C 0.97291 0.93359 0.43816 0.0
C1007 C 0.94969 0.9248 0.40058 0.0
C1008 C 0.92262 0.84214 0.36245 0.0
H1009 H 0.84205 0.8089 0.26607 0.0
H1010 H 0.87377 0.84339 0.29762 0.0
H1011 H 0.90677 0.79987 0.33232 0.0
H1012 H 0.96794 0.89168 0.44855 0.0
H1013 H 0.93912 0.8565 0.41434 0.0
H1014 H 0.90157 0.90001 0.38317 0.0
C1015 C 0.86379 0.81915 0.29861 0.0
C1016 C 0.90544 0.82164 0.34339 0.0
C1017 C 0.84571 0.79935 0.28045 0.0
C1018 C 0.96318 0.90137 0.43522 0.0
C1019 C 0.94672 0.88112 0.41542 0.0
C1020 C 0.90325 0.87848 0.37195 0.0
C1021 C 0.86886 0.80785 0.31791 0.0
C1022 C 0.88711 0.82943 0.33824 0.0
C1023 C 0.93969 0.89251 0.39783 0.0
C1024 C 0.92173 0.87084 0.37707 0.0
H1025 H 0.8273 0.73206 0.30116 0.0
H1026 H 0.85928 0.76669 0.33281 0.0
H1027 H 0.87208 0.86459 0.34957 0.0
H1028 H 0.97325 0.96976 0.42215 0.0
H1029 H 0.94509 0.93448 0.38713 0.0
C1030 C 0.45611 0.56874 0.54725 0.0
C1031 C 0.4682 0.55669 0.55935 0.0
C1032 C 0.43967 0.58513 0.56367 0.0
C1033 C 0.40581 0.61266 0.6428 0.0
H1034 H 0.38265 0.65171 0.60619 0.0
C1035 C 0.3332 0.67897 0.71207 0.0
C1036 C 0.32615 0.69732 0.70112 0.0
C1037 C 0.34974 0.6627 0.69569 0.0
C1038 C 0.3885 0.64129 0.6177 0.0
H1039 H 0.46974 0.5549 0.60147 0.0
H1040 H 0.44218 0.58207 0.62894 0.0
H1041 H 0.41006 0.62457 0.57874 0.0
H1042 H 0.33368 0.71042 0.66111 0.0
H1043 H 0.36113 0.68311 0.63364 0.0
H1044 H 0.38418 0.62929 0.68174 0.0
C1045 C 0.4453 0.57906 0.60616 0.0
C1046 C 0.4049 0.62492 0.6012 0.0
C1047 C 0.46183 0.56285 0.58976 0.0
C1048 C 0.33751 0.69739 0.67188 0.0
C1049 C 0.3539 0.68099 0.65546 0.0
C1050 C 0.38928 0.62887 0.65927 0.0
C1051 C 0.43319 0.59128 0.59417 0.0
C1052 C 0.41464 0.60961 0.6127 0.0
C1053 C 0.36109 0.66264 0.66632 0.0
C1054 C 0.37961 0.64427 0.64778 0.0
H1055 H 0.45935 0.56557 0.52442 0.0
H1056 H 0.43182 0.59294 0.5518 0.0
H1057 H 0.4116 0.60217 0.65429 0.0
H1058 H 0.32587 0.67705 0.73396 0.0
H1059 H 0.35346 0.64973 0.7066 0.0
C1060 C 0.5935 0.06444 0.93614 0.0
C1061 C 0.58172 0.07315 0.96364 0.0
C1062 C 0.61275 0.08683 0.9218 0.0
C1063 C 0.63751 0.16856 0.9192 0.0
H1064 H 0.69485 0.15201 0.86995 0.0
C1065 C 0.71685 0.25049 0.8474 0.0
C1066 C 0.72065 0.2351 0.81912 0.0
C1067 C 0.7019 0.23352 0.86838 0.0
C1068 C 0.67897 0.15695 0.8837 0.0
H1069 H 0.58105 0.11214 0.99785 0.0
H1070 H 0.61493 0.15134 0.97274 0.0
H1071 H 0.6652 0.11703 0.90117 0.0
H1072 H 0.71154 0.19022 0.79039 0.0
H1073 H 0.68586 0.16075 0.82692 0.0
H1074 H 0.65122 0.20831 0.90122 0.0
C1075 C 0.60903 0.12718 0.96222 0.0
C1076 C 0.66197 0.13691 0.90147 0.0
C1077 C 0.5897 0.10473 0.9766 0.0
C1078 C 0.70915 0.20266 0.81208 0.0
C1079 C 0.69456 0.18579 0.83299 0.0
C1080 C 0.65467 0.18876 0.90151 0.0
C1081 C 0.62074 0.11843 0.93466 0.0
C1082 C 0.64061 0.14197 0.91876 0.0
C1083 C 0.6909 0.20102 0.86132 0.0
C1084 C 0.67507 0.18257 0.88303 0.0
H1085 H 0.58776 0.04031 0.92555 0.0
H1086 H 0.62104 0.07935 0.90037 0.0
H1087 H 0.62115 0.17296 0.93217 0.0
H1088 H 0.72553 0.27552 0.85329 0.0
H1089 H 0.69927 0.24572 0.89012 0.0
C1090 C 0.09756 0.43426 0.09825 0.0
C1091 C 0.08343 0.44903 0.11954 0.0
C1092 C 0.1114 0.42143 0.10526 0.0
C1093 C 0.13993 0.42363 0.16391 0.0
H1094 H 0.13679 0.34314 0.12038 0.0
C1095 C 0.18089 0.35423 0.19716 0.0
C1096 C 0.1936 0.33796 0.1755 0.0
C1097 C 0.16768 0.36823 0.19064 0.0
C1098 C 0.13817 0.3658 0.13256 0.0
H1099 H 0.07339 0.46252 0.16499 0.0
H1100 H 0.0973 0.43984 0.17722 0.0
H1101 H 0.11386 0.36704 0.10833 0.0
H1102 H 0.202 0.32343 0.1299 0.0
H1103 H 0.17962 0.34838 0.11858 0.0
H1104 H 0.16431 0.42242 0.1881 0.0
C1105 C 0.09777 0.43831 0.15507 0.0
C1106 C 0.12499 0.37952 0.12563 0.0
C1107 C 0.08384 0.45104 0.14804 0.0
C1108 C 0.19276 0.3361 0.14717 0.0
C1109 C 0.17959 0.35008 0.14065 0.0
C1110 C 0.15318 0.40993 0.17081 0.0
C1111 C 0.11157 0.42311 0.13376 0.0
C1112 C 0.12572 0.40863 0.14118 0.0
C1113 C 0.1668 0.36627 0.16228 0.0
C1114 C 0.15251 0.38085 0.15519 0.0
H1115 H 0.0975 0.43201 0.07607 0.0
H1116 H 0.12205 0.41022 0.08831 0.0
H1117 H 0.14118 0.44624 0.17612 0.0
H1118 H 0.1813 0.35638 0.21921 0.0
H1119 H 0.15785 0.38024 0.20786 0.0
C1120 C 0.58635 0.56941 0.957 0.0
C1121 C 0.5749 0.5373 0.94645 0.0
C1122 C 0.60222 0.58949 0.93865 0.0
C1123 C 0.61515 0.59622 0.86468 0.0
H1124 H 0.68257 0.65816 0.88142 0.0
C1125 C 0.68883 0.66408 0.78142 0.0
C1126 C 0.70561 0.69497 0.79037 0.0
C1127 C 0.67288 0.64581 0.80113 0.0
C1128 C 0.66365 0.64139 0.87658 0.0
H1129 H 0.57074 0.50107 0.90847 0.0
H1130 H 0.59807 0.53619 0.87632 0.0
H1131 H 0.65448 0.62479 0.91466 0.0
H1132 H 0.7189 0.73108 0.82698 0.0
H1133 H 0.69037 0.69955 0.86164 0.0
H1134 H 0.62378 0.613 0.82706 0.0
C1135 C 0.5949 0.54581 0.89879 0.0
C1136 C 0.6476 0.62217 0.89563 0.0
C1137 C 0.57936 0.5257 0.91718 0.0
C1138 C 0.70612 0.7073 0.8195 0.0
C1139 C 0.68989 0.6891 0.83933 0.0
C1140 C 0.631 0.61568 0.84586 0.0
C1141 C 0.6066 0.57791 0.90933 0.0
C1142 C 0.62329 0.59915 0.88971 0.0
C1143 C 0.673 0.65805 0.83041 0.0
C1144 C 0.65564 0.63832 0.85131 0.0
H1145 H 0.58322 0.579 0.97948 0.0
H1146 H 0.61082 0.61413 0.94734 0.0
H1147 H 0.59635 0.57901 0.85977 0.0
H1148 H 0.68822 0.65381 0.75908 0.0
H1149 H 0.66072 0.62188 0.79326 0.0
C1150 C 0.7278 0.3407 0.12411 0.0
C1151 C 0.72712 0.34475 0.15329 0.0
C1152 C 0.71519 0.35302 0.11443 0.0
C1153 C 0.66242 0.37898 0.13614 0.0
H1154 H 0.6939 0.41489 0.06955 0.0
C1155 C 0.6122 0.42911 0.09172 0.0
C1156 C 0.61275 0.42068 0.06218 0.0
C1157 C 0.62763 0.42323 0.10419 0.0
C1158 C 0.68478 0.40476 0.08807 0.0
H1159 H 0.71284 0.36538 0.19519 0.0
H1160 H 0.69064 0.38678 0.17823 0.0
H1161 H 0.71804 0.39831 0.089 0.0
H1162 H 0.63063 0.40049 0.02254 0.0
H1163 H 0.65717 0.38981 0.04425 0.0
H1164 H 0.62899 0.38494 0.13491 0.0
C1165 C 0.70081 0.3738 0.16287 0.0
C1166 C 0.69861 0.39526 0.09921 0.0
C1167 C 0.71351 0.36152 0.17258 0.0
C1168 C 0.62952 0.40694 0.04537 0.0
C1169 C 0.64497 0.40114 0.05781 0.0
C1170 C 0.64856 0.38847 0.12497 0.0
C1171 C 0.70149 0.36965 0.13367 0.0
C1172 C 0.68746 0.38184 0.12313 0.0
C1173 C 0.64403 0.40892 0.08739 0.0
C1174 C 0.65945 0.40106 0.10055 0.0
H1175 H 0.73763 0.32737 0.10865 0.0
H1176 H 0.71568 0.34886 0.09182 0.0
H1177 H 0.65316 0.36842 0.15439 0.0
H1178 H 0.59935 0.43952 0.10528 0.0
H1179 H 0.62663 0.42978 0.12701 0.0
C1180 C 0.96641 0.43753 0.43819 0.0
C1181 C 0.97398 0.46974 0.44573 0.0
C1182 C 0.95061 0.41941 0.4173 0.0
C1183 C 0.90237 0.41958 0.38373 0.0
H1184 H 0.91315 0.35141 0.32744 0.0
C1185 C 0.85991 0.32878 0.27643 0.0
C1186 C 0.83334 0.3188 0.28637 0.0
C1187 C 0.87781 0.34718 0.29517 0.0
C1188 C 0.90998 0.37048 0.34292 0.0
H1189 H 0.97161 0.50836 0.43681 0.0
H1190 H 0.944 0.47675 0.40037 0.0
H1191 H 0.94384 0.38403 0.36076 0.0
H1192 H 0.80462 0.31997 0.32366 0.0
H1193 H 0.83583 0.35218 0.35634 0.0
H1194 H 0.86856 0.40611 0.36597 0.0
C1195 C 0.95005 0.46545 0.41078 0.0
C1196 C 0.92743 0.38898 0.36215 0.0
C1197 C 0.96597 0.48357 0.43153 0.0
C1198 C 0.825 0.32746 0.31538 0.0
C1199 C 0.84287 0.34601 0.33406 0.0
C1200 C 0.88485 0.40096 0.36468 0.0
C1201 C 0.94195 0.43312 0.40365 0.0
C1202 C 0.9238 0.41374 0.38278 0.0
C1203 C 0.86948 0.35615 0.32418 0.0
C1204 C 0.8884 0.37615 0.34411 0.0
H1205 H 0.97235 0.42626 0.44878 0.0
H1206 H 0.94455 0.39455 0.41243 0.0
H1207 H 0.89887 0.43826 0.39955 0.0
H1208 H 0.86687 0.32237 0.25417 0.0
H1209 H 0.89818 0.35481 0.28688 0.0
C1210 C 0.59346 0.60718 0.50266 0.0
C1211 C 0.58394 0.57562 0.48948 0.0
C1212 C 0.61374 0.62909 0.48821 0.0
C1213 C 0.66839 0.6357 0.43108 0.0
H1214 H 0.66051 0.70373 0.41774 0.0
C1215 C 0.71899 0.68391 0.33204 0.0
C1216 C 0.72912 0.71582 0.3332 0.0
C1217 C 0.70486 0.67189 0.35595 0.0
C1218 C 0.66329 0.68531 0.42182 0.0
H1219 H 0.58789 0.54222 0.45093 0.0
H1220 H 0.62334 0.58017 0.42609 0.0
H1221 H 0.62825 0.67295 0.45151 0.0
H1222 H 0.73262 0.7603 0.36059 0.0
H1223 H 0.70737 0.73896 0.40276 0.0
H1224 H 0.70281 0.64714 0.40086 0.0
C1225 C 0.61528 0.58805 0.44752 0.0
C1226 C 0.64482 0.6677 0.44107 0.0
C1227 C 0.59488 0.56636 0.46169 0.0
C1228 C 0.72506 0.7356 0.35907 0.0
C1229 C 0.71057 0.72342 0.38313 0.0
C1230 C 0.68683 0.65332 0.41207 0.0
C1231 C 0.62502 0.61957 0.46064 0.0
C1232 C 0.64672 0.64198 0.44494 0.0
C1233 C 0.70035 0.69139 0.38174 0.0
C1234 C 0.68391 0.67746 0.40631 0.0
H1235 H 0.58525 0.61488 0.52405 0.0
H1236 H 0.6209 0.6533 0.4987 0.0
H1237 H 0.6705 0.6163 0.43409 0.0
H1238 H 0.72182 0.66799 0.31253 0.0
H1239 H 0.69687 0.64706 0.35401 0.0
C1240 C 0.84285 0.33292 0.8172 0.0
C1241 C 0.82851 0.30071 0.8133 0.0
C1242 C 0.8607 0.34832 0.83619 0.0
C1243 C 0.87687 0.33993 0.89874 0.0
H1244 H 0.94189 0.40778 0.88125 0.0
C1245 C 0.97833 0.42448 0.94717 0.0
C1246 C 0.96813 0.43194 0.97574 0.0
C1247 C 0.96196 0.40768 0.92665 0.0
C1248 C 0.92393 0.38868 0.88634 0.0
H1249 H 0.82189 0.25947 0.82626 0.0
H1250 H 0.85321 0.28622 0.85893 0.0
H1251 H 0.91243 0.37969 0.84631 0.0
H1252 H 0.93295 0.42778 0.00534 0.0
H1253 H 0.90447 0.39874 0.96967 0.0
H1254 H 0.88847 0.34855 0.93855 0.0
C1255 C 0.85042 0.29966 0.84763 0.0
C1256 C 0.9069 0.37283 0.86646 0.0
C1257 C 0.83255 0.28427 0.82872 0.0
C1258 C 0.94134 0.4221 0.98349 0.0
C1259 C 0.92501 0.40537 0.96304 0.0
C1260 C 0.89387 0.35574 0.91858 0.0
C1261 C 0.86464 0.33189 0.85171 0.0
C1262 C 0.8831 0.34836 0.87249 0.0
C1263 C 0.93509 0.39798 0.93437 0.0
C1264 C 0.91753 0.38044 0.91271 0.0
H1265 H 0.84021 0.34634 0.80573 0.0
H1266 H 0.87106 0.37322 0.83909 0.0
H1267 H 0.8586 0.32144 0.90423 0.0
H1268 H 0.99894 0.43168 0.94069 0.0
H1269 H 0.97033 0.40207 0.90479 0.0
C1270 C 0.82377 0.81581 0.17824 0.0
C1271 C 0.81405 0.78395 0.17708 0.0
C1272 C 0.83811 0.82799 0.15446 0.0
C1273 C 0.88093 0.81555 0.0895 0.0
H1274 H 0.87301 0.8837 0.07639 0.0
C1275 C 0.95099 0.89395 0.00909 0.0
C1276 C 0.9599 0.92558 0.02202 0.0
C1277 C 0.9308 0.87194 0.02349 0.0
C1278 C 0.87534 0.86456 0.07965 0.0
H1279 H 0.81147 0.7397 0.14985 0.0
H1280 H 0.83708 0.76133 0.10789 0.0
H1281 H 0.84049 0.85242 0.10918 0.0
H1282 H 0.95501 0.95902 0.0601 0.0
H1283 H 0.91971 0.92086 0.08489 0.0
H1284 H 0.91636 0.82859 0.06047 0.0
C1285 C 0.8334 0.77671 0.12742 0.0
C1286 C 0.85677 0.84668 0.0984 0.0
C1287 C 0.8187 0.76436 0.15134 0.0
C1288 C 0.94848 0.93482 0.04954 0.0
C1289 C 0.92817 0.91301 0.06368 0.0
C1290 C 0.89952 0.83342 0.0705 0.0
C1291 C 0.84323 0.8087 0.12882 0.0
C1292 C 0.85991 0.82284 0.10446 0.0
C1293 C 0.91901 0.88141 0.05077 0.0
C1294 C 0.89735 0.85884 0.06634 0.0
H1295 H 0.82048 0.83158 0.19766 0.0
H1296 H 0.84578 0.85279 0.15642 0.0
H1297 H 0.88388 0.79738 0.09381 0.0
H1298 H 0.95957 0.88625 0.9879 0.0
H1299 H 0.92409 0.84768 0.01317 0.0
C1300 C 0.85402 0.14822 0.8148 0.0
C1301 C 0.82701 0.13284 0.81735 0.0
C1302 C 0.86805 0.13902 0.82601 0.0
C1303 C 0.86157 0.09489 0.87756 0.0
H1304 H 0.9256 0.09197 0.83333 0.0
C1305 C 0.91627 0.03781 0.90587 0.0
C1306 C 0.94335 0.05252 0.90198 0.0
C1307 C 0.90187 0.04824 0.89663 0.0
C1308 C 0.90793 0.09301 0.84613 0.0
H1309 H 0.79357 0.09608 0.83433 0.0
H1310 H 0.81808 0.07961 0.85327 0.0
H1311 H 0.90102 0.10898 0.81519 0.0
H1312 H 0.97644 0.09053 0.8864 0.0
H1313 H 0.95138 0.10876 0.87042 0.0
H1314 H 0.86848 0.07873 0.90844 0.0
C1315 C 0.82841 0.099 0.84284 0.0
C1316 C 0.89382 0.10278 0.83572 0.0
C1317 C 0.81438 0.10821 0.83165 0.0
C1318 C 0.95564 0.0783 0.88922 0.0
C1319 C 0.94127 0.08873 0.88003 0.0
C1320 C 0.87569 0.08508 0.88797 0.0
C1321 C 0.85544 0.11419 0.84004 0.0
C1322 C 0.87047 0.1039 0.8513 0.0
C1323 C 0.91422 0.07365 0.88333 0.0
C1324 C 0.89908 0.08407 0.8724 0.0
H1325 H 0.86442 0.16708 0.8037 0.0
H1326 H 0.88882 0.1515 0.82376 0.0
H1327 H 0.84384 0.09584 0.89029 0.0
H1328 H 0.90623 0.0177 0.91537 0.0
H1329 H 0.88108 0.03587 0.89923 0.0
C1330 C 0.70057 0.16603 0.69224 0.0
C1331 C 0.71234 0.19857 0.6985 0.0
C1332 C 0.68151 0.15024 0.67474 0.0
C1333 C 0.63412 0.15887 0.64643 0.0
H1334 H 0.64024 0.09093 0.58589 0.0
C1335 C 0.55815 0.07898 0.57007 0.0
C1336 C 0.56874 0.07403 0.54131 0.0
C1337 C 0.57428 0.09425 0.59094 0.0
C1338 C 0.63827 0.10983 0.60273 0.0
H1339 H 0.713 0.23995 0.69148 0.0
H1340 H 0.67972 0.21232 0.66093 0.0
H1341 H 0.67109 0.11746 0.61929 0.0
H1342 H 0.60439 0.08173 0.51174 0.0
H1343 H 0.63232 0.1081 0.54797 0.0
H1344 H 0.60141 0.15137 0.62943 0.0
C1345 C 0.68519 0.1991 0.66973 0.0
C1346 C 0.6558 0.12485 0.62197 0.0
C1347 C 0.70442 0.21492 0.68705 0.0
C1348 C 0.59564 0.08516 0.53374 0.0
C1349 C 0.61165 0.10006 0.55449 0.0
C1350 C 0.61638 0.1436 0.62729 0.0
C1351 C 0.67364 0.1666 0.66327 0.0
C1352 C 0.65412 0.14977 0.64381 0.0
C1353 C 0.60118 0.10445 0.58329 0.0
C1354 C 0.61855 0.11925 0.605 0.0
H1355 H 0.70615 0.15267 0.70072 0.0
H1356 H 0.67281 0.12517 0.67029 0.0
H1357 H 0.63224 0.17784 0.66323 0.0
H1358 H 0.53745 0.07067 0.57641 0.0
H1359 H 0.56574 0.09734 0.61304 0.0
C1360 C 0.60247 0.98702 0.50326 0.0
C1361 C 0.59112 0.98488 0.48085 0.0
C1362 C 0.62473 0.98192 0.49785 0.0
C1363 C 0.65881 0.94688 0.47881 0.0
H1364 H 0.7154 0.97751 0.41979 0.0
C1365 C 0.72483 0.88676 0.41487 0.0
C1366 C 0.75055 0.9047 0.40492 0.0
C1367 C 0.7087 0.90097 0.43173 0.0
C1368 C 0.7 0.96931 0.43676 0.0
H1369 H 0.59476 0.97668 0.43518 0.0
H1370 H 0.63389 0.96754 0.42565 0.0
H1371 H 0.68041 0.99465 0.43247 0.0
H1372 H 0.78031 0.95146 0.40766 0.0
H1373 H 0.75177 0.97633 0.43669 0.0
H1374 H 0.67798 0.92074 0.48242 0.0
C1375 C 0.62544 0.97336 0.44743 0.0
C1376 C 0.67984 0.97876 0.44368 0.0
C1377 C 0.60299 0.97838 0.45286 0.0
C1378 C 0.76041 0.93705 0.41444 0.0
C1379 C 0.74416 0.95129 0.43109 0.0
C1380 C 0.67889 0.93728 0.47175 0.0
C1381 C 0.63628 0.97471 0.46992 0.0
C1382 C 0.65879 0.96708 0.46432 0.0
C1383 C 0.71792 0.93336 0.43881 0.0
C1384 C 0.69935 0.94785 0.45021 0.0
H1385 H 0.59409 0.99242 0.52516 0.0
H1386 H 0.63287 0.9835 0.51556 0.0
H1387 H 0.64274 0.93741 0.49473 0.0
H1388 H 0.71648 0.86184 0.40777 0.0
H1389 H 0.6885 0.88658 0.43721 0.0
C1390 C 0.80516 0.13553 0.3688 0.0
C1391 C 0.81871 0.15786 0.35198 0.0
C1392 C 0.81815 0.12327 0.37798 0.0
C1393 C 0.87911 0.11355 0.3643 0.0
H1394 H 0.86195 0.10851 0.44343 0.0
C1395 C 0.94392 0.09655 0.42056 0.0
C1396 C 0.93199 0.07844 0.44122 0.0
C1397 C 0.92931 0.10368 0.40813 0.0
C1398 C 0.86673 0.10926 0.42117 0.0
H1399 H 0.85657 0.1845 0.33137 0.0
H1400 H 0.87921 0.16296 0.34727 0.0
H1401 H 0.83781 0.12524 0.42428 0.0
H1402 H 0.89529 0.05265 0.46429 0.0
H1403 H 0.86969 0.06472 0.44235 0.0
H1404 H 0.90814 0.09772 0.36123 0.0
C1405 C 0.85847 0.15471 0.3531 0.0
C1406 C 0.85289 0.1189 0.4102 0.0
C1407 C 0.84548 0.16703 0.34397 0.0
C1408 C 0.90506 0.06703 0.44872 0.0
C1409 C 0.89042 0.07401 0.43618 0.0
C1410 C 0.89291 0.10379 0.37525 0.0
C1411 C 0.845 0.13297 0.37051 0.0
C1412 C 0.85904 0.12137 0.3817 0.0
C1413 C 0.90239 0.09274 0.41598 0.0
C1414 C 0.88701 0.10174 0.40388 0.0
H1415 H 0.78446 0.12755 0.37494 0.0
H1416 H 0.80717 0.10618 0.39098 0.0
H1417 H 0.88409 0.11484 0.34216 0.0
H1418 H 0.96468 0.10604 0.41462 0.0
H1419 H 0.93922 0.11855 0.39299 0.0
C1420 C 0.71933 0.17642 0.19434 0.0
C1421 C 0.71097 0.18512 0.22334 0.0
C1422 C 0.70147 0.15789 0.17565 0.0
C1423 C 0.65945 0.10284 0.14521 0.0
H1424 H 0.60052 0.11978 0.14884 0.0
C1425 C 0.57792 0.01954 0.0792 0.0
C1426 C 0.56983 0.03309 0.06479 0.0
C1427 C 0.59401 0.03795 0.09972 0.0
C1428 C 0.61693 0.11483 0.14753 0.0
H1429 H 0.67745 0.18171 0.25551 0.0
H1430 H 0.64614 0.14931 0.22278 0.0
H1431 H 0.63129 0.15265 0.18205 0.0
H1432 H 0.57153 0.07636 0.0611 0.0
H1433 H 0.59965 0.10859 0.09707 0.0
H1434 H 0.64532 0.06527 0.11057 0.0
C1435 C 0.66652 0.15688 0.21451 0.0
C1436 C 0.63441 0.13347 0.16669 0.0
C1437 C 0.68441 0.17526 0.23326 0.0
C1438 C 0.57752 0.06532 0.07186 0.0
C1439 C 0.59351 0.08373 0.09254 0.0
C1440 C 0.64189 0.08408 0.12624 0.0
C1441 C 0.67486 0.14784 0.18552 0.0
C1442 C 0.65595 0.12778 0.16562 0.0
C1443 C 0.60222 0.07028 0.10642 0.0
C1444 C 0.62048 0.08992 0.1271 0.0
H1445 H 0.73971 0.18383 0.18608 0.0
H1446 H 0.70851 0.15166 0.15339 0.0
H1447 H 0.67572 0.09767 0.14402 0.0
H1448 H 0.57218 0.99474 0.07428 0.0
H1449 H 0.6001 0.02686 0.11033 0.0
C1450 C 0.77718 0.85766 0.7844 0.0
C1451 C 0.77132 0.83514 0.79961 0.0
C1452 C 0.77545 0.88572 0.79835 0.0
C1453 C 0.76339 0.93365 0.86952 0.0
H1454 H 0.71842 0.94345 0.83264 0.0
C1455 C 0.67784 0.96106 0.92818 0.0
C1456 C 0.66673 0.97235 0.91502 0.0
C1457 C 0.70104 0.95841 0.91545 0.0
C1458 C 0.73162 0.94206 0.84309 0.0
H1459 H 0.7609 0.82516 0.84152 0.0
H1460 H 0.75691 0.8737 0.86585 0.0
H1461 H 0.74101 0.91118 0.80668 0.0
H1462 H 0.67247 0.99333 0.88031 0.0
H1463 H 0.71347 0.98945 0.85829 0.0
H1464 H 0.75257 0.96327 0.90657 0.0
C1465 C 0.76334 0.86999 0.8432 0.0
C1466 C 0.74461 0.92333 0.8281 0.0
C1467 C 0.76533 0.84201 0.82924 0.0
C1468 C 0.68048 0.98397 0.89052 0.0
C1469 C 0.7039 0.98173 0.87797 0.0
C1470 C 0.75043 0.95259 0.88456 0.0
C1471 C 0.76752 0.89169 0.82777 0.0
C1472 C 0.75958 0.91765 0.84156 0.0
C1473 C 0.71366 0.96725 0.88941 0.0
C1474 C 0.7333 0.95561 0.87192 0.0
H1475 H 0.78242 0.85329 0.76156 0.0
H1476 H 0.77924 0.90219 0.78595 0.0
H1477 H 0.77526 0.9302 0.88025 0.0
H1478 H 0.66757 0.95189 0.94707 0.0
H1479 H 0.70776 0.9469 0.92482 0.0
C1480 C 0.96248 0.97041 0.59177 0.0
C1481 C 0.96738 0.95976 0.56238 0.0
C1482 C 0.94674 0.94952 0.60941 0.0
C1483 C 0.89412 0.87274 0.6102 0.0
H1484 H 0.91692 0.87905 0.67846 0.0
C1485 C 0.83433 0.78466 0.68352 0.0
C1486 C 0.83459 0.79616 0.71278 0.0
C1487 C 0.85085 0.8035 0.66426 0.0
C1488 C 0.90998 0.87716 0.65974 0.0
H1489 H 0.95965 0.91895 0.52836 0.0
H1490 H 0.9317 0.88248 0.55918 0.0
H1491 H 0.94479 0.91441 0.64705 0.0
H1492 H 0.85175 0.83653 0.74488 0.0
H1493 H 0.87968 0.86952 0.71172 0.0
H1494 H 0.85897 0.83619 0.62321 0.0
C1495 C 0.94011 0.90697 0.56855 0.0
C1496 C 0.92609 0.8974 0.64166 0.0
C1497 C 0.95619 0.92782 0.55095 0.0
C1498 C 0.85135 0.82687 0.72242 0.0
C1499 C 0.86755 0.84576 0.7033 0.0
C1500 C 0.8778 0.85274 0.6285 0.0
C1501 C 0.93527 0.91759 0.59798 0.0
C1502 C 0.91831 0.89552 0.61677 0.0
C1503 C 0.86775 0.83435 0.6739 0.0
C1504 C 0.88543 0.85479 0.65367 0.0
H1505 H 0.97088 0.99489 0.60115 0.0
H1506 H 0.94321 0.95839 0.63199 0.0
H1507 H 0.88754 0.87091 0.59124 0.0
H1508 H 0.82156 0.76106 0.67552 0.0
H1509 H 0.85058 0.7937 0.64183 0.0
C1510 C 0.22067 0.83464 0.80846 0.0
C1511 C 0.21619 0.80408 0.81 0.0
C1512 C 0.20454 0.8513 0.8253 0.0
C1513 C 0.1353 0.84305 0.86857 0.0
H1514 H 0.16551 0.93025 0.90247 0.0
C1515 C 0.06983 0.92202 0.92525 0.0
C1516 C 0.07486 0.94467 0.95135 0.0
C1517 C 0.08604 0.90527 0.90918 0.0
C1518 C 0.15601 0.90587 0.89338 0.0
H1519 H 0.18788 0.76893 0.83296 0.0
H1520 H 0.1599 0.79608 0.85984 0.0
H1521 H 0.19308 0.90302 0.87405 0.0
H1522 H 0.10432 0.96572 0.97846 0.0
H1523 H 0.13242 0.93897 0.9505 0.0
H1524 H 0.0982 0.84623 0.8867 0.0
C1525 C 0.17671 0.80803 0.84586 0.0
C1526 C 0.17243 0.88967 0.8764 0.0
C1527 C 0.19338 0.79187 0.82987 0.0
C1528 C 0.09832 0.94911 0.95918 0.0
C1529 C 0.11507 0.93323 0.9425 0.0
C1530 C 0.11886 0.85952 0.8846 0.0
C1531 C 0.18145 0.83885 0.84478 0.0
C1532 C 0.16306 0.85721 0.86325 0.0
C1533 C 0.10978 0.91013 0.91666 0.0
C1534 C 0.12823 0.89183 0.89822 0.0
H1535 H 0.23735 0.84645 0.79427 0.0
H1536 H 0.21023 0.87439 0.82247 0.0
H1537 H 0.1258 0.8186 0.85972 0.0
H1538 H 0.05267 0.91658 0.91705 0.0
H1539 H 0.07989 0.88847 0.89005 0.0
C1540 C 0.955 0.39549 0.53325 0.0
C1541 C 0.96224 0.42702 0.54615 0.0
C1542 C 0.93574 0.37278 0.54743 0.0
C1543 C 0.88167 0.36216 0.60704 0.0
H1544 H 0.89327 0.292 0.60913 0.0
C1545 C 0.83391 0.2974 0.69716 0.0
C1546 C 0.82255 0.26495 0.69027 0.0
C1547 C 0.84876 0.31415 0.67621 0.0
C1548 C 0.8896 0.31121 0.60833 0.0
H1549 H 0.95502 0.45945 0.58399 0.0
H1550 H 0.92194 0.42005 0.60875 0.0
H1551 H 0.92349 0.32726 0.57812 0.0
H1552 H 0.81823 0.2244 0.65635 0.0
H1553 H 0.84494 0.25398 0.6195 0.0
H1554 H 0.84845 0.34687 0.63814 0.0
C1555 C 0.93071 0.41277 0.58752 0.0
C1556 C 0.90684 0.33135 0.59059 0.0
C1557 C 0.94987 0.43538 0.5734 0.0
C1558 C 0.82677 0.24945 0.66213 0.0
C1559 C 0.84199 0.26628 0.64113 0.0
C1560 C 0.86462 0.34221 0.62486 0.0
C1561 C 0.92337 0.38123 0.57471 0.0
C1562 C 0.90342 0.35752 0.5904 0.0
C1563 C 0.85284 0.29878 0.64801 0.0
C1564 C 0.86883 0.31707 0.62622 0.0
H1565 H 0.96414 0.38835 0.5122 0.0
H1566 H 0.93038 0.34865 0.53697 0.0
H1567 H 0.87818 0.38169 0.60682 0.0
H1568 H 0.8312 0.30993 0.71875 0.0
H1569 H 0.85731 0.3392 0.68212 0.0
C1570 C 0.47434 0.08801 0.37839 0.0
C1571 C 0.46199 0.06535 0.39491 0.0
C1572 C 0.46026 0.10001 0.37064 0.0
C1573 C 0.39793 0.10812 0.39008 0.0
H1574 H 0.41584 0.12723 0.3157 0.0
C1575 C 0.33518 0.14436 0.34927 0.0
C1576 C 0.34813 0.16905 0.33505 0.0
C1577 C 0.34878 0.13083 0.35571 0.0
C1578 C 0.41073 0.12228 0.33665 0.0
H1579 H 0.42499 0.03715 0.41577 0.0
H1580 H 0.40037 0.05776 0.40199 0.0
H1581 H 0.43993 0.10532 0.32862 0.0
H1582 H 0.3857 0.19873 0.31641 0.0
H1583 H 0.40937 0.17503 0.3275 0.0
H1584 H 0.36868 0.12501 0.39805 0.0
C1585 C 0.42105 0.06677 0.39549 0.0
C1586 C 0.42458 0.10974 0.3441 0.0
C1587 C 0.43516 0.05488 0.40336 0.0
C1588 C 0.37501 0.17947 0.32699 0.0
C1589 C 0.38861 0.1659 0.3334 0.0
C1590 C 0.38403 0.12055 0.38259 0.0
C1591 C 0.43341 0.08957 0.37907 0.0
C1592 C 0.41843 0.10256 0.37096 0.0
C1593 C 0.3757 0.14158 0.34806 0.0
C1594 C 0.39028 0.12787 0.35581 0.0
H1595 H 0.49503 0.09694 0.37189 0.0
H1596 H 0.47055 0.11792 0.35844 0.0
H1597 H 0.39289 0.10342 0.41112 0.0
H1598 H 0.31444 0.13537 0.35537 0.0
H1599 H 0.33815 0.11179 0.36657 0.0
C1600 C 0.5803 0.59819 0.07394 0.0
C1601 C 0.57028 0.56596 0.07107 0.0
C1602 C 0.59678 0.61828 0.09375 0.0
C1603 C 0.63968 0.62044 0.13767 0.0
H1604 H 0.63639 0.69922 0.17704 0.0
C1605 C 0.69703 0.69981 0.22941 0.0
C1606 C 0.71078 0.73126 0.22834 0.0
C1607 C 0.67901 0.67992 0.21119 0.0
C1608 C 0.63765 0.6774 0.16606 0.0
H1609 H 0.56951 0.52959 0.08717 0.0
H1610 H 0.59774 0.5646 0.12219 0.0
H1611 H 0.60648 0.66361 0.14376 0.0
H1612 H 0.71574 0.76686 0.20814 0.0
H1613 H 0.68387 0.7321 0.17643 0.0
H1614 H 0.67066 0.63416 0.16031 0.0
C1615 C 0.59333 0.57441 0.10869 0.0
C1616 C 0.62056 0.65697 0.1469 0.0
C1617 C 0.57699 0.55429 0.08868 0.0
C1618 C 0.70542 0.74272 0.20942 0.0
C1619 C 0.68716 0.72283 0.19132 0.0
C1620 C 0.6566 0.64074 0.157 0.0
C1621 C 0.60354 0.60671 0.11143 0.0
C1622 C 0.62139 0.62824 0.13234 0.0
C1623 C 0.67408 0.69109 0.19169 0.0
C1624 C 0.65584 0.66949 0.17137 0.0
H1625 H 0.57571 0.60802 0.06059 0.0
H1626 H 0.60457 0.64292 0.09482 0.0
H1627 H 0.64129 0.59885 0.12652 0.0
H1628 H 0.70059 0.69037 0.24397 0.0
H1629 H 0.66897 0.65571 0.21231 0.0
C1630 C 0.20653 0.24264 0.70471 0.0
C1631 C 0.21157 0.23166 0.72427 0.0
C1632 C 0.18842 0.22241 0.68651 0.0
C1633 C 0.15789 0.14011 0.65313 0.0
H1634 H 0.10701 0.16171 0.63986 0.0
C1635 C 0.07804 0.05176 0.58571 0.0
C1636 C 0.07065 0.06291 0.56828 0.0
C1637 C 0.09451 0.07235 0.60548 0.0
C1638 C 0.12131 0.15541 0.64296 0.0
H1639 H 0.20099 0.19124 0.74084 0.0
H1640 H 0.16976 0.156 0.70893 0.0
H1641 H 0.13721 0.19813 0.67258 0.0
H1642 H 0.07502 0.1045 0.5578 0.0
H1643 H 0.10415 0.14017 0.5915 0.0
H1644 H 0.14258 0.09779 0.62313 0.0
C1645 C 0.1799 0.1801 0.70744 0.0
C1646 C 0.13856 0.17632 0.66182 0.0
C1647 C 0.19772 0.20032 0.72578 0.0
C1648 C 0.08012 0.09507 0.57106 0.0
C1649 C 0.09676 0.11561 0.59058 0.0
C1650 C 0.14084 0.11935 0.63405 0.0
C1651 C 0.17521 0.19081 0.6874 0.0
C1652 C 0.15699 0.16885 0.66718 0.0
C1653 C 0.10421 0.10459 0.6081 0.0
C1654 C 0.12225 0.12665 0.62871 0.0
H1655 H 0.21691 0.26668 0.7031 0.0
H1656 H 0.18527 0.23132 0.67121 0.0
H1657 H 0.17212 0.13387 0.65652 0.0
H1658 H 0.071 0.02713 0.58423 0.0
H1659 H 0.09942 0.06292 0.61888 0.0
C1660 C 0.70844 0.32155 0.2974 0.0
C1661 C 0.71718 0.30531 0.30897 0.0
C1662 C 0.69191 0.33784 0.31372 0.0
C1663 C 0.65581 0.36276 0.39242 0.0
H1664 H 0.62975 0.39799 0.35505 0.0
C1665 C 0.58752 0.43457 0.46246 0.0
C1666 C 0.57499 0.44602 0.45029 0.0
C1667 C 0.60398 0.4182 0.4461 0.0
C1668 C 0.63639 0.38863 0.36678 0.0
H1669 H 0.71269 0.29606 0.35007 0.0
H1670 H 0.68521 0.32334 0.37741 0.0
H1671 H 0.65718 0.37085 0.32771 0.0
H1672 H 0.57269 0.4467 0.40809 0.0
H1673 H 0.60024 0.41951 0.3807 0.0
H1674 H 0.63508 0.3806 0.43149 0.0
C1675 C 0.69107 0.32374 0.35512 0.0
C1676 C 0.65292 0.37239 0.35035 0.0
C1677 C 0.70748 0.30737 0.33878 0.0
C1678 C 0.58095 0.43925 0.41986 0.0
C1679 C 0.59747 0.42301 0.4035 0.0
C1680 C 0.63938 0.37912 0.40886 0.0
C1681 C 0.6822 0.34 0.34365 0.0
C1682 C 0.66366 0.35838 0.36212 0.0
C1683 C 0.61002 0.41141 0.41557 0.0
C1684 C 0.62859 0.39307 0.39708 0.0
H1685 H 0.71442 0.32176 0.27505 0.0
H1686 H 0.68682 0.34908 0.30229 0.0
H1687 H 0.6625 0.35347 0.40415 0.0
H1688 H 0.58462 0.43824 0.48532 0.0
H1689 H 0.61218 0.41089 0.45804 0.0
C1690 C 0.45874 0.89661 0.03956 0.0
C1691 C 0.46674 0.92834 0.05196 0.0
C1692 C 0.44209 0.87447 0.05563 0.0
C1693 C 0.42205 0.86489 0.12891 0.0
H1694 H 0.36025 0.79644 0.10321 0.0
C1695 C 0.33901 0.79963 0.20567 0.0
C1696 C 0.32615 0.76738 0.19773 0.0
C1697 C 0.35727 0.81656 0.18618 0.0
C1698 C 0.37768 0.81511 0.11043 0.0
H1699 H 0.46319 0.96178 0.09067 0.0
H1700 H 0.43427 0.92317 0.11864 0.0
H1701 H 0.3901 0.83151 0.07181 0.0
H1702 H 0.3221 0.72736 0.16329 0.0
H1703 H 0.35449 0.75721 0.12888 0.0
H1704 H 0.4097 0.84893 0.16754 0.0
C1705 C 0.44106 0.91544 0.0966 0.0
C1706 C 0.39468 0.83517 0.09252 0.0
C1707 C 0.45749 0.93752 0.08053 0.0
C1708 C 0.33184 0.75225 0.16987 0.0
C1709 C 0.35023 0.76929 0.15023 0.0
C1710 C 0.40521 0.84483 0.14668 0.0
C1711 C 0.43342 0.88375 0.08438 0.0
C1712 C 0.41665 0.86067 0.10194 0.0
C1713 C 0.36318 0.80162 0.15831 0.0
C1714 C 0.38251 0.82023 0.13793 0.0
H1715 H 0.46549 0.88885 0.01753 0.0
H1716 H 0.43648 0.85016 0.04577 0.0
H1717 H 0.43917 0.88402 0.13642 0.0
H1718 H 0.3349 0.81193 0.22698 0.0
H1719 H 0.36651 0.84149 0.19289 0.0
C1720 C 0.96112 0.55786 0.86268 0.0
C1721 C 0.96084 0.55914 0.8912 0.0
C1722 C 0.94698 0.57025 0.85555 0.0
C1723 C 0.91811 0.6273 0.88502 0.0
H1724 H 0.87916 0.58381 0.82228 0.0
C1725 C 0.84893 0.66873 0.86372 0.0
C1726 C 0.84778 0.66661 0.83541 0.0
C1727 C 0.86253 0.65523 0.87014 0.0
C1728 C 0.8902 0.59648 0.83964 0.0
H1729 H 0.94548 0.57458 0.93456 0.0
H1730 H 0.92069 0.59594 0.92212 0.0
H1731 H 0.9031 0.56089 0.83411 0.0
H1732 H 0.86 0.64817 0.79167 0.0
H1733 H 0.88428 0.62529 0.80284 0.0
H1734 H 0.90552 0.66303 0.89045 0.0
C1735 C 0.93195 0.58549 0.90526 0.0
C1736 C 0.90389 0.58329 0.84645 0.0
C1737 C 0.94594 0.57292 0.91238 0.0
C1738 C 0.86064 0.65055 0.81369 0.0
C1739 C 0.87433 0.63709 0.82012 0.0
C1740 C 0.90454 0.64056 0.87814 0.0
C1741 C 0.93238 0.58444 0.87677 0.0
C1742 C 0.91793 0.59848 0.8693 0.0
C1743 C 0.87551 0.63931 0.84845 0.0
C1744 C 0.89029 0.62528 0.85544 0.0
H1745 H 0.97222 0.54718 0.84583 0.0
H1746 H 0.94788 0.56925 0.83341 0.0
H1747 H 0.92909 0.6399 0.90244 0.0
H1748 H 0.83958 0.68124 0.88103 0.0
H1749 H 0.86269 0.6571 0.8922 0.0
C1750 C 0.45435 0.43485 0.05557 0.0
C1751 C 0.466 0.46687 0.0663 0.0
C1752 C 0.43795 0.4147 0.07367 0.0
C1753 C 0.39976 0.41404 0.14645 0.0
H1754 H 0.39737 0.3315 0.13115 0.0
C1755 C 0.35103 0.33568 0.22822 0.0
C1756 C 0.33425 0.30495 0.21859 0.0
C1757 C 0.36653 0.35487 0.20909 0.0
C1758 C 0.39769 0.3544 0.13553 0.0
H1759 H 0.47016 0.50287 0.10441 0.0
H1760 H 0.44241 0.46779 0.1362 0.0
H1761 H 0.42612 0.36625 0.09933 0.0
H1762 H 0.32059 0.27007 0.1814 0.0
H1763 H 0.34825 0.30354 0.14774 0.0
H1764 H 0.3719 0.40233 0.18322 0.0
C1765 C 0.44514 0.45814 0.11371 0.0
C1766 C 0.41411 0.37436 0.11724 0.0
C1767 C 0.46125 0.47831 0.09553 0.0
C1768 C 0.33342 0.29365 0.18938 0.0
C1769 C 0.34927 0.31275 0.17015 0.0
C1770 C 0.38366 0.39425 0.16493 0.0
C1771 C 0.43306 0.42602 0.10305 0.0
C1772 C 0.41543 0.40454 0.12244 0.0
C1773 C 0.36586 0.34363 0.17986 0.0
C1774 C 0.38248 0.36424 0.15971 0.0
H1775 H 0.4576 0.42538 0.03307 0.0
H1776 H 0.42877 0.39028 0.06448 0.0
H1777 H 0.39967 0.43673 0.15092 0.0
H1778 H 0.35202 0.34506 0.25062 0.0
H1779 H 0.37927 0.37846 0.21716 0.0
C1780 C 0.4477 0.61645 0.93308 0.0
C1781 C 0.43717 0.58927 0.94358 0.0
C1782 C 0.43305 0.62258 0.9198 0.0
C1783 C 0.36587 0.60363 0.91557 0.0
H1784 H 0.39701 0.64201 0.85044 0.0
C1785 C 0.3072 0.63018 0.85886 0.0
C1786 C 0.31904 0.65916 0.85126 0.0
C1787 C 0.32132 0.61947 0.86818 0.0
C1788 C 0.38808 0.63152 0.86875 0.0
H1789 H 0.40303 0.547 0.94801 0.0
H1790 H 0.37747 0.55754 0.92446 0.0
H1791 H 0.42214 0.62689 0.86996 0.0
H1792 H 0.35504 0.69961 0.8476 0.0
H1793 H 0.37964 0.68097 0.86385 0.0
H1794 H 0.33193 0.60865 0.91462 0.0
C1795 C 0.39703 0.57425 0.92678 0.0
C1796 C 0.40247 0.62283 0.87993 0.0
C1797 C 0.41175 0.56806 0.94002 0.0
C1798 C 0.34541 0.67698 0.85286 0.0
C1799 C 0.35953 0.66628 0.86218 0.0
C1800 C 0.35147 0.61234 0.9044 0.0
C1801 C 0.40747 0.60169 0.91668 0.0
C1802 C 0.39164 0.60909 0.90367 0.0
C1803 C 0.34763 0.63747 0.87011 0.0
C1804 C 0.36249 0.6267 0.88104 0.0
H1805 H 0.46733 0.63308 0.93513 0.0
H1806 H 0.44161 0.64408 0.91254 0.0
H1807 H 0.35704 0.59349 0.9341 0.0
H1808 H 0.28701 0.61567 0.85747 0.0
H1809 H 0.31165 0.59697 0.87372 0.0
C1810 C 0.07667 0.52104 0.57622 0.0
C1811 C 0.06752 0.53416 0.56257 0.0
C1812 C 0.09297 0.53976 0.59654 0.0
C1813 C 0.11464 0.61656 0.64495 0.0
H1814 H 0.17504 0.60208 0.64028 0.0
C1815 C 0.21755 0.68065 0.69152 0.0
C1816 C 0.20899 0.6888 0.72055 0.0
C1817 C 0.19983 0.66211 0.67265 0.0
C1818 C 0.15834 0.60654 0.64176 0.0
H1819 H 0.06758 0.57698 0.56 0.0
H1820 H 0.096 0.60968 0.5955 0.0
H1821 H 0.1445 0.56878 0.60712 0.0
H1822 H 0.17524 0.68459 0.75255 0.0
H1823 H 0.14424 0.65221 0.71957 0.0
H1824 H 0.12868 0.65457 0.67942 0.0
C1825 C 0.09055 0.58494 0.5906 0.0
C1826 C 0.14069 0.58723 0.62298 0.0
C1827 C 0.07437 0.56624 0.57017 0.0
C1828 C 0.18238 0.6786 0.73027 0.0
C1829 C 0.16464 0.6602 0.71137 0.0
C1830 C 0.13222 0.63576 0.66387 0.0
C1831 C 0.10031 0.57197 0.60375 0.0
C1832 C 0.11867 0.59207 0.62428 0.0
C1833 C 0.17316 0.6515 0.68238 0.0
C1834 C 0.15434 0.63105 0.66241 0.0
H1835 H 0.07162 0.49636 0.57085 0.0
H1836 H 0.09988 0.52901 0.60657 0.0
H1837 H 0.09777 0.62076 0.64662 0.0
H1838 H 0.23797 0.68833 0.68341 0.0
H1839 H 0.20701 0.65619 0.65038 0.0
C1840 C 0.31958 0.2673 0.65186 0.0
C1841 C 0.32016 0.28645 0.67915 0.0
C1842 C 0.33733 0.27881 0.62875 0.0
C1843 C 0.36828 0.32092 0.58414 0.0
H1844 H 0.43899 0.3706 0.59785 0.0
C1845 C 0.4587 0.43397 0.55068 0.0
C1846 C 0.46292 0.42624 0.52098 0.0
C1847 C 0.44225 0.41144 0.56624 0.0
C1848 C 0.41937 0.35664 0.59361 0.0
H1849 H 0.33968 0.33275 0.70339 0.0
H1850 H 0.37031 0.35236 0.66355 0.0
H1851 H 0.4078 0.34023 0.63197 0.0
H1852 H 0.45302 0.38896 0.48412 0.0
H1853 H 0.42353 0.34924 0.51163 0.0
H1854 H 0.37981 0.33864 0.54627 0.0
C1855 C 0.35636 0.3285 0.65993 0.0
C1856 C 0.40155 0.33926 0.6131 0.0
C1857 C 0.3386 0.31724 0.68277 0.0
C1858 C 0.45012 0.39547 0.50704 0.0
C1859 C 0.43327 0.37283 0.52271 0.0
C1860 C 0.38623 0.33842 0.56452 0.0
C1861 C 0.35612 0.30941 0.63277 0.0
C1862 C 0.37563 0.32225 0.60915 0.0
C1863 C 0.42939 0.38064 0.55248 0.0
C1864 C 0.41167 0.35739 0.56973 0.0
H1865 H 0.30557 0.24349 0.64838 0.0
H1866 H 0.33673 0.26371 0.60794 0.0
H1867 H 0.34839 0.308 0.58067 0.0
H1868 H 0.46819 0.45752 0.56203 0.0
H1869 H 0.43928 0.41826 0.58915 0.0
C1870 C 0.20992 0.71939 0.18423 0.0
C1871 C 0.2152 0.70278 0.19829 0.0
C1872 C 0.19206 0.70388 0.16525 0.0
C1873 C 0.16162 0.62832 0.11906 0.0
H1874 H 0.11125 0.65855 0.11975 0.0
C1875 C 0.0656 0.58457 0.06478 0.0
C1876 C 0.0754 0.5756 0.03636 0.0
C1877 C 0.08211 0.60052 0.08523 0.0
C1878 C 0.12511 0.64976 0.11944 0.0
H1879 H 0.20584 0.65679 0.20337 0.0
H1880 H 0.17486 0.62984 0.17018 0.0
H1881 H 0.14113 0.6856 0.15446 0.0
H1882 H 0.11003 0.57634 0.00693 0.0
H1883 H 0.13874 0.60406 0.04252 0.0
H1884 H 0.14567 0.59252 0.08409 0.0
C1885 C 0.18459 0.65484 0.17378 0.0
C1886 C 0.14235 0.66538 0.13911 0.0
C1887 C 0.20227 0.67033 0.1929 0.0
C1888 C 0.10195 0.58307 0.02868 0.0
C1889 C 0.11836 0.59871 0.04909 0.0
C1890 C 0.14456 0.61288 0.09928 0.0
C1891 C 0.17929 0.67143 0.15974 0.0
C1892 C 0.16081 0.65483 0.13909 0.0
C1893 C 0.10862 0.60746 0.0776 0.0
C1894 C 0.12619 0.6235 0.09919 0.0
H1895 H 0.21951 0.74439 0.18788 0.0
H1896 H 0.18856 0.71725 0.15452 0.0
H1897 H 0.17574 0.61976 0.11838 0.0
H1898 H 0.04519 0.57906 0.07122 0.0
H1899 H 0.07406 0.60683 0.10709 0.0
C1900 C 0.70822 0.3938 0.71206 0.0
C1901 C 0.7164 0.3705 0.6954 0.0
C1902 C 0.69434 0.40363 0.70135 0.0
C1903 C 0.68017 0.40529 0.6344 0.0
H1904 H 0.62275 0.42184 0.68331 0.0
C1905 C 0.61033 0.43162 0.59392 0.0
C1906 C 0.60222 0.45461 0.61167 0.0
C1907 C 0.62473 0.42138 0.60342 0.0
C1908 C 0.63891 0.41766 0.66945 0.0
H1909 H 0.71655 0.33947 0.65425 0.0
H1910 H 0.69196 0.35632 0.63569 0.0
H1911 H 0.64657 0.40357 0.70124 0.0
H1912 H 0.60386 0.48572 0.65294 0.0
H1913 H 0.62886 0.46788 0.66946 0.0
H1914 H 0.67243 0.4194 0.6026 0.0
C1915 C 0.69648 0.36716 0.65699 0.0
C1916 C 0.65258 0.40718 0.67974 0.0
C1917 C 0.71033 0.35726 0.66774 0.0
C1918 C 0.60932 0.46754 0.63891 0.0
C1919 C 0.62366 0.4573 0.64839 0.0
C1920 C 0.66647 0.41578 0.62408 0.0
C1921 C 0.68829 0.39045 0.67368 0.0
C1922 C 0.67346 0.401 0.66241 0.0
C1923 C 0.63133 0.43388 0.63089 0.0
C1924 C 0.64576 0.42226 0.64155 0.0
H1925 H 0.71233 0.40428 0.73355 0.0
H1926 H 0.68858 0.42185 0.71469 0.0
H1927 H 0.69635 0.40112 0.62059 0.0
H1928 H 0.60496 0.42091 0.57294 0.0
H1929 H 0.63011 0.4031 0.58949 0.0
C1930 C 0.80617 0.60163 0.08403 0.0
C1931 C 0.78586 0.58885 0.10492 0.0
C1932 C 0.82146 0.58589 0.06804 0.0
C1933 C 0.84286 0.53371 0.081 0.0
H1934 H 0.88695 0.54668 0.00916 0.0
C1935 C 0.94476 0.5377 0.05818 0.0
C1936 C 0.95339 0.52428 0.03082 0.0
C1937 C 0.92131 0.54046 0.06393 0.0
C1938 C 0.87458 0.54245 0.0291 0.0
H1939 H 0.76343 0.5477 0.1226 0.0
H1940 H 0.78942 0.5198 0.09385 0.0
H1941 H 0.84818 0.55663 0.0211 0.0
H1942 H 0.94382 0.50219 0.9883 0.0
H1943 H 0.9031 0.50701 0.99835 0.0
H1944 H 0.86929 0.51979 0.08914 0.0
C1945 C 0.79413 0.54246 0.09058 0.0
C1946 C 0.85247 0.54832 0.03598 0.0
C1947 C 0.77902 0.55835 0.10683 0.0
C1948 C 0.93805 0.51339 0.00944 0.0
C1949 C 0.91463 0.51603 0.01519 0.0
C1950 C 0.86485 0.52773 0.07407 0.0
C1951 C 0.81648 0.55693 0.07244 0.0
C1952 C 0.83678 0.54486 0.06236 0.0
C1953 C 0.90601 0.52962 0.04246 0.0
C1954 C 0.88134 0.53291 0.04844 0.0
H1955 H 0.81146 0.62477 0.08155 0.0
H1956 H 0.83846 0.5977 0.05414 0.0
H1957 H 0.83145 0.5312 0.10169 0.0
H1958 H 0.95618 0.54626 0.07505 0.0
H1959 H 0.91533 0.55148 0.08509 0.0
C1960 C 0.86242 0.52227 0.62124 0.0
C1961 C 0.87246 0.5196 0.59231 0.0
C1962 C 0.83838 0.52358 0.63092 0.0
C1963 C 0.80446 0.55643 0.60979 0.0
H1964 H 0.76353 0.54547 0.68346 0.0
C1965 C 0.76244 0.64351 0.67385 0.0
C1966 C 0.76908 0.65564 0.70127 0.0
C1967 C 0.76342 0.6154 0.65829 0.0
C1968 C 0.77461 0.54852 0.66272 0.0
H1969 H 0.86402 0.51174 0.5504 0.0
H1970 H 0.82179 0.51364 0.56727 0.0
H1971 H 0.78612 0.51204 0.65835 0.0
H1972 H 0.78049 0.64694 0.73452 0.0
H1973 H 0.78318 0.59876 0.70712 0.0
H1974 H 0.79485 0.59431 0.61488 0.0
C1975 C 0.83271 0.51554 0.58256 0.0
C1976 C 0.78746 0.52931 0.64832 0.0
C1977 C 0.85685 0.51452 0.57291 0.0
C1978 C 0.77543 0.63836 0.71336 0.0
C1979 C 0.77662 0.61043 0.69774 0.0
C1980 C 0.79172 0.57561 0.62416 0.0
C1981 C 0.82398 0.5221 0.61178 0.0
C1982 C 0.80376 0.53434 0.62248 0.0
C1983 C 0.7713 0.59901 0.66974 0.0
C1984 C 0.77793 0.57308 0.65152 0.0
H1985 H 0.87407 0.5262 0.63664 0.0
H1986 H 0.83238 0.52882 0.65358 0.0
H1987 H 0.81695 0.5612 0.59003 0.0
H1988 H 0.75698 0.65602 0.66415 0.0
H1989 H 0.75886 0.60703 0.63692 0.0
C1990 C 0.4166 0.54691 0.41419 0.0
C1991 C 0.44241 0.55354 0.40165 0.0
C1992 C 0.40191 0.5577 0.40588 0.0
C1993 C 0.4079 0.61658 0.3703 0.0
H1994 H 0.33747 0.5616 0.3586 0.0
C1995 C 0.35029 0.6445 0.31353 0.0
C1996 C 0.32394 0.63679 0.32388 0.0
C1997 C 0.36454 0.63509 0.32417 0.0
C1998 C 0.35699 0.57742 0.36212 0.0
H1999 H 0.47315 0.57736 0.37099 0.0
H2000 H 0.44747 0.59567 0.35621 0.0
H2001 H 0.36257 0.54392 0.37526 0.0
H2002 H 0.2921 0.61374 0.35411 0.0
H2003 H 0.31696 0.59741 0.37273 0.0
H2004 H 0.40238 0.65003 0.35706 0.0
C2005 C 0.43859 0.58231 0.3726 0.0
C2006 C 0.37139 0.56726 0.37168 0.0
C2007 C 0.45324 0.57148 0.38084 0.0
C2008 C 0.31226 0.61967 0.34534 0.0
C2009 C 0.32651 0.61028 0.35601 0.0
C2010 C 0.3935 0.62674 0.36078 0.0
C2011 C 0.41272 0.57549 0.38495 0.0
C2012 C 0.39708 0.58665 0.37571 0.0
C2013 C 0.35282 0.61776 0.34548 0.0
C2014 C 0.36791 0.60723 0.35639 0.0
H2015 H 0.4076 0.53298 0.43013 0.0
H2016 H 0.38211 0.55227 0.41602 0.0
H2017 H 0.42749 0.6323 0.37363 0.0
H2018 H 0.35981 0.65726 0.29671 0.0
H2019 H 0.38464 0.64085 0.31524 0.0
C2020 C 0.2472 0.41742 0.928 0.0
C2021 C 0.23819 0.38744 0.91111 0.0
C2022 C 0.22977 0.42933 0.94586 0.0
C2023 C 0.15915 0.40911 0.97085 0.0
H2024 H 0.17718 0.48989 0.95734 0.0
C2025 C 0.08892 0.45521 0.95862 0.0
C2026 C 0.08648 0.4786 0.98179 0.0
C2027 C 0.10863 0.44563 0.95515 0.0
C2028 C 0.17209 0.46747 0.96145 0.0
H2029 H 0.2041 0.34553 0.90132 0.0
H2030 H 0.1739 0.36625 0.93165 0.0
H2031 H 0.2101 0.46967 0.94586 0.0
H2032 H 0.10312 0.51145 0.01865 0.0
H2033 H 0.13806 0.49522 0.01188 0.0
H2034 H 0.12056 0.40635 0.98444 0.0
C2035 C 0.19427 0.3806 0.93182 0.0
C2036 C 0.19093 0.45597 0.95527 0.0
C2037 C 0.21166 0.36864 0.91428 0.0
C2038 C 0.10454 0.49315 1.00073 0.0
C2039 C 0.12445 0.48398 0.99694 0.0
C2040 C 0.14023 0.42041 0.97652 0.0
C2041 C 0.20305 0.41157 0.94675 0.0
C2042 C 0.18451 0.42624 0.95909 0.0
C2043 C 0.12628 0.45982 0.97446 0.0
C2044 C 0.14655 0.44928 0.97116 0.0
H2045 H 0.26763 0.4322 0.92621 0.0
H2046 H 0.23717 0.45302 0.95767 0.0
H2047 H 0.15366 0.38642 0.97459 0.0
H2048 H 0.0751 0.44359 0.94392 0.0
H2049 H 0.11001 0.42703 0.93755 0.0
C2050 C 0.26621 0.36097 0.29837 0.0
C2051 C 0.2705 0.34178 0.31026 0.0
C2052 C 0.26457 0.38836 0.31491 0.0
C2053 C 0.24413 0.41856 0.38829 0.0
H2054 H 0.25515 0.48628 0.35623 0.0
C2055 C 0.17977 0.48216 0.43547 0.0
C2056 C 0.16599 0.47821 0.4146 0.0
C2057 C 0.2035 0.47986 0.42769 0.0
C2058 C 0.25232 0.46785 0.36572 0.0
H2059 H 0.27839 0.33742 0.3483 0.0
H2060 H 0.27565 0.3855 0.37722 0.0
H2061 H 0.27833 0.45326 0.33238 0.0
H2062 H 0.16749 0.47263 0.36967 0.0
H2063 H 0.20857 0.46802 0.35598 0.0
H2064 H 0.21696 0.4317 0.42055 0.0
C2065 C 0.27312 0.37904 0.35519 0.0
C2066 C 0.26547 0.44887 0.35203 0.0
C2067 C 0.27462 0.35146 0.33864 0.0
C2068 C 0.17754 0.4752 0.38611 0.0
C2069 C 0.20127 0.47299 0.37834 0.0
C2070 C 0.23114 0.4376 0.40203 0.0
C2071 C 0.26734 0.39735 0.34371 0.0
C2072 C 0.26023 0.42283 0.36223 0.0
C2073 C 0.2138 0.47362 0.39894 0.0
C2074 C 0.23387 0.46121 0.38992 0.0
H2075 H 0.26315 0.35434 0.27651 0.0
H2076 H 0.25965 0.40153 0.30541 0.0
H2077 H 0.23952 0.39872 0.39676 0.0
H2078 H 0.17133 0.48458 0.45762 0.0
H2079 H 0.21288 0.48075 0.44401 0.0
loop_
_geom_bond_atom_site_label_1
_geom_bond_atom_site_label_2
_geom_bond_distance
_geom_bond_site_symmetry_2
_ccdc_geom_bond_type
Pr0 C2 2.880 1_545 S
Pr0 O20 2.562 1_545 S
Pr0 O21 2.490 . S
Pr0 O22 2.695 1_554 S
Pr0 O23 2.512 1_554 S
Pr0 O25 2.437 1_544 S
Pr0 O28 2.436 1_445 S
Pr0 O30 2.424 1_455 S
Pr1 C11 2.880 1_565 S
Pr1 O22 2.436 1_665 S
Pr1 O24 2.438 1_655 S
Pr1 O26 2.562 1_565 S
Pr1 O27 2.490 . S
Pr1 O28 2.695 1_556 S
Pr1 O29 2.512 1_556 S
Pr1 O31 2.437 1_566 S
C2 Pr0 2.880 1_565 S
C2 C3 1.491 . S
C2 O20 1.254 . S
C2 O21 1.225 1_565 S
C3 C2 1.491 . S
C3 C4 1.392 1_565 S
C3 C8 1.356 . S
C4 C3 1.392 1_545 S
C4 C5 1.368 1_545 S
C4 H32 0.929 . S
C5 C4 1.368 1_565 S
C5 C6 1.386 . S
C5 H33 0.929 1_565 S
C6 C5 1.386 . S
C6 C7 1.373 . S
C7 C6 1.373 . S
C7 C8 1.409 . S
C7 H34 0.931 . S
C8 C3 1.356 . S
C8 C7 1.409 . S
C8 H35 0.930 . S
C9 O22 1.270 . S
C9 O23 1.248 . S
C10 O24 1.267 . S
C10 O25 1.278 . S
C11 Pr1 2.880 1_545 S
C11 C12 1.491 . S
C11 O26 1.254 . S
C11 O27 1.225 1_545 S
C12 C11 1.491 . S
C12 C13 1.392 1_545 S
C12 C17 1.356 . S
C13 C12 1.392 1_565 S
C13 C14 1.368 1_565 S
C13 H36 0.929 . S
C14 C13 1.368 1_545 S
C14 C15 1.386 . S
C14 H37 0.929 1_545 S
C15 C14 1.386 . S
C15 C16 1.373 . S
C16 C15 1.373 . S
C16 C17 1.409 . S
C16 H38 0.931 . S
C17 C12 1.356 . S
C17 C16 1.409 . S
C17 H39 0.930 . S
C18 O28 1.270 . S
C18 O29 1.248 . S
C19 O30 1.281 . S
C19 O31 1.278 . S
O20 Pr0 2.562 1_565 S
O20 C2 1.254 . S
O21 Pr0 2.490 . S
O21 C2 1.225 1_545 S
O22 Pr0 2.695 1_556 S
O22 Pr1 2.436 1_445 S
O22 C9 1.270 . S
O23 Pr0 2.512 1_556 S
O23 C9 1.248 . S
O24 Pr1 2.438 1_455 S
O24 C10 1.267 . S
O25 Pr0 2.437 1_566 S
O25 C10 1.278 . S
O26 Pr1 2.562 1_545 S
O26 C11 1.254 . S
O27 Pr1 2.490 . S
O27 C11 1.225 1_565 S
O28 Pr0 2.436 1_665 S
O28 Pr1 2.695 1_554 S
O28 C18 1.270 . S
O29 Pr1 2.512 1_554 S
O29 C18 1.248 . S
O30 Pr0 2.424 1_655 S
O30 C19 1.281 . S
O31 Pr1 2.437 1_544 S
O31 C19 1.278 . S
H32 C4 0.929 . S
H33 C5 0.929 1_545 S
H34 C7 0.931 . S
H35 C8 0.930 . S
H36 C13 0.929 . S
H37 C14 0.929 1_565 S
H38 C16 0.931 . S
H39 C17 0.930 . S
Pr40 C42 2.880 . S
Pr40 O60 2.562 . S
Pr40 O61 2.490 . S
Pr40 O62 2.695 . S
Pr40 O63 2.512 . S
Pr40 O65 2.437 . S
Pr40 O68 2.436 . S
Pr40 O70 2.438 . S
Pr41 C51 2.880 . S
Pr41 O62 2.436 . S
Pr41 O64 2.438 . S
Pr41 O66 2.562 . S
Pr41 O67 2.490 . S
Pr41 O68 2.695 . S
Pr41 O69 2.512 . S
Pr41 O71 2.437 . S
C42 Pr40 2.880 . S
C42 C43 1.491 . S
C42 O60 1.254 . S
C42 O61 1.225 . S
C43 C42 1.491 . S
C43 C44 1.392 . S
C43 C48 1.356 . S
C44 C43 1.392 . S
C44 C45 1.368 . S
C44 H72 0.929 . S
C45 C44 1.368 . S
C45 C46 1.386 . S
C45 H73 0.929 . S
C46 C45 1.386 . S
C46 C47 1.373 . S
C47 C46 1.373 . S
C47 C48 1.409 . S
C47 H74 0.931 . S
C48 C43 1.356 . S
C48 C47 1.409 . S
C48 H75 0.930 . S
C49 O62 1.270 . S
C49 O63 1.248 . S
C50 O64 1.267 . S
C50 O65 1.278 . S
C51 Pr41 2.880 . S
C51 C52 1.491 . S
C51 O66 1.254 . S
C51 O67 1.225 . S
C52 C51 1.491 . S
C52 C53 1.392 . S
C52 C57 1.356 . S
C53 C52 1.392 . S
C53 C54 1.368 . S
C53 H76 0.929 . S
C54 C53 1.368 . S
C54 C55 1.386 . S
C54 H77 0.929 . S
C55 C54 1.386 . S
C55 C56 1.373 . S
C56 C55 1.373 . S
C56 C57 1.409 . S
C56 H78 0.931 . S
C57 C52 1.356 . S
C57 C56 1.409 . S
C57 H79 0.930 . S
C58 O68 1.270 . S
C58 O69 1.248 . S
C59 O70 1.267 . S
C59 O71 1.278 . S
O60 Pr40 2.562 . S
O60 C42 1.254 . S
O61 Pr40 2.490 . S
O61 C42 1.225 . S
O62 Pr40 2.695 . S
O62 Pr41 2.436 . S
O62 C49 1.270 . S
O63 Pr40 2.512 . S
O63 C49 1.248 . S
O64 Pr41 2.438 . S
O64 C50 1.267 . S
O65 Pr40 2.437 . S
O65 C50 1.278 . S
O66 Pr41 2.562 . S
O66 C51 1.254 . S
O67 Pr41 2.490 . S
O67 C51 1.225 . S
O68 Pr40 2.436 . S
O68 Pr41 2.695 . S
O68 C58 1.270 . S
O69 Pr41 2.512 . S
O69 C58 1.248 . S
O70 Pr40 2.438 . S
O70 C59 1.267 . S
O71 Pr41 2.437 . S
O71 C59 1.278 . S
H72 C44 0.929 . S
H73 C45 0.929 . S
H74 C47 0.931 . S
H75 C48 0.930 . S
H76 C53 0.929 . S
H77 C54 0.929 . S
H78 C56 0.931 . S
H79 C57 0.930 . S
Pr80 C82 2.880 . S
Pr80 O100 2.562 . S
Pr80 O101 2.490 . S
Pr80 O102 2.695 . S
Pr80 O103 2.512 . S
Pr80 O105 2.437 . S
Pr80 O108 2.436 1_545 S
Pr80 O110 2.436 . S
Pr81 C91 2.880 . S
Pr81 O102 2.436 1_565 S
Pr81 O104 2.438 1_565 S
Pr81 O106 2.562 . S
Pr81 O107 2.490 . S
Pr81 O108 2.695 . S
Pr81 O109 2.512 . S
Pr81 O111 2.437 . S
C82 Pr80 2.880 . S
C82 C83 1.491 . S
C82 O100 1.254 . S
C82 O101 1.225 . S
C83 C82 1.491 . S
C83 C84 1.392 . S
C83 C88 1.356 . S
C84 C83 1.392 . S
C84 C85 1.368 . S
C84 H112 0.929 . S
C85 C84 1.368 . S
C85 C86 1.386 . S
C85 H113 0.929 . S
C86 C85 1.386 . S
C86 C87 1.373 . S
C87 C86 1.373 . S
C87 C88 1.409 . S
C87 H114 0.931 . S
C88 C83 1.356 . S
C88 C87 1.409 . S
C88 H115 0.930 . S
C89 O102 1.270 . S
C89 O103 1.248 . S
C90 O104 1.267 . S
C90 O105 1.278 . S
C91 Pr81 2.880 . S
C91 C92 1.491 . S
C91 O106 1.254 . S
C91 O107 1.225 . S
C92 C91 1.491 . S
C92 C93 1.392 . S
C92 C97 1.356 . S
C93 C92 1.392 . S
C93 C94 1.368 . S
C93 H116 0.929 . S
C94 C93 1.368 . S
C94 C95 1.386 . S
C94 H117 0.929 . S
C95 C94 1.386 . S
C95 C96 1.373 . S
C96 C95 1.373 . S
C96 C97 1.409 . S
C96 H118 0.931 . S
C97 C92 1.356 . S
C97 C96 1.409 . S
C97 H119 0.930 . S
C98 O108 1.270 . S
C98 O109 1.248 . S
C99 O110 1.269 1_565 S
C99 O111 1.278 . S
O100 Pr80 2.562 . S
O100 C82 1.254 . S
O101 Pr80 2.490 . S
O101 C82 1.225 . S
O102 Pr80 2.695 . S
O102 Pr81 2.436 1_545 S
O102 C89 1.270 . S
O103 Pr80 2.512 . S
O103 C89 1.248 . S
O104 Pr81 2.438 1_545 S
O104 C90 1.267 . S
O105 Pr80 2.437 . S
O105 C90 1.278 . S
O106 Pr81 2.562 . S
O106 C91 1.254 . S
O107 Pr81 2.490 . S
O107 C91 1.225 . S
O108 Pr80 2.436 1_565 S
O108 Pr81 2.695 . S
O108 C98 1.270 . S
O109 Pr81 2.512 . S
O109 C98 1.248 . S
O110 Pr80 2.436 . S
O110 C99 1.269 1_545 S
O111 Pr81 2.437 . S
O111 C99 1.278 . S
H112 C84 0.929 . S
H113 C85 0.929 . S
H114 C87 0.931 . S
H115 C88 0.930 . S
H116 C93 0.929 . S
H117 C94 0.929 . S
H118 C96 0.931 . S
H119 C97 0.930 . S
Pr120 C122 2.880 . S
Pr120 O140 2.562 . S
Pr120 O141 2.490 . S
Pr120 O142 2.695 . S
Pr120 O143 2.512 . S
Pr120 O145 2.437 . S
Pr120 O148 2.436 . S
Pr120 O150 2.438 . S
Pr121 C131 2.880 . S
Pr121 O142 2.436 . S
Pr121 O144 2.438 . S
Pr121 O146 2.562 . S
Pr121 O147 2.490 . S
Pr121 O148 2.695 . S
Pr121 O149 2.512 . S
Pr121 O151 2.437 . S
C122 Pr120 2.880 . S
C122 C123 1.491 . S
C122 O140 1.254 . S
C122 O141 1.225 . S
C123 C122 1.491 . S
C123 C124 1.392 . S
C123 C128 1.356 . S
C124 C123 1.392 . S
C124 C125 1.368 . S
C124 H152 0.929 . S
C125 C124 1.368 . S
C125 C126 1.386 . S
C125 H153 0.929 . S
C126 C125 1.386 . S
C126 C127 1.373 . S
C127 C126 1.373 . S
C127 C128 1.409 . S
C127 H154 0.931 . S
C128 C123 1.356 . S
C128 C127 1.409 . S
C128 H155 0.930 . S
C129 O142 1.270 . S
C129 O143 1.248 . S
C130 O144 1.267 . S
C130 O145 1.278 . S
C131 Pr121 2.880 . S
C131 C132 1.491 . S
C131 O146 1.254 . S
C131 O147 1.225 . S
C132 C131 1.491 . S
C132 C133 1.392 . S
C132 C137 1.356 . S
C133 C132 1.392 . S
C133 C134 1.368 . S
C133 H156 0.929 . S
C134 C133 1.368 . S
C134 C135 1.386 . S
C134 H157 0.929 . S
C135 C134 1.386 . S
C135 C136 1.373 . S
C136 C135 1.373 . S
C136 C137 1.409 . S
C136 H158 0.931 . S
C137 C132 1.356 . S
C137 C136 1.409 . S
C137 H159 0.930 . S
C138 O148 1.270 . S
C138 O149 1.248 . S
C139 O150 1.267 . S
C139 O151 1.278 . S
O140 Pr120 2.562 . S
O140 C122 1.254 . S
O141 Pr120 2.490 . S
O141 C122 1.225 . S
O142 Pr120 2.695 . S
O142 Pr121 2.436 . S
O142 C129 1.270 . S
O143 Pr120 2.512 . S
O143 C129 1.248 . S
O144 Pr121 2.438 . S
O144 C130 1.267 . S
O145 Pr120 2.437 . S
O145 C130 1.278 . S
O146 Pr121 2.562 . S
O146 C131 1.254 . S
O147 Pr121 2.490 . S
O147 C131 1.225 . S
O148 Pr120 2.436 . S
O148 Pr121 2.695 . S
O148 C138 1.270 . S
O149 Pr121 2.512 . S
O149 C138 1.248 . S
O150 Pr120 2.438 . S
O150 C139 1.267 . S
O151 Pr121 2.437 . S
O151 C139 1.278 . S
H152 C124 0.929 . S
H153 C125 0.929 . S
H154 C127 0.931 . S
H155 C128 0.930 . S
H156 C133 0.929 . S
H157 C134 0.929 . S
H158 C136 0.931 . S
H159 C137 0.930 . S
Pr160 C162 2.880 . S
Pr160 O180 2.562 . S
Pr160 O181 2.490 . S
Pr160 O182 2.695 1_545 S
Pr160 O183 2.512 1_545 S
Pr160 O185 2.437 1_545 S
Pr160 O188 2.436 1_655 S
Pr160 O190 2.438 1_655 S
Pr161 C171 2.880 . S
Pr161 O182 2.436 1_455 S
Pr161 O184 2.438 1_455 S
Pr161 O186 2.562 . S
Pr161 O187 2.490 . S
Pr161 O188 2.695 1_565 S
Pr161 O189 2.512 1_565 S
Pr161 O191 2.437 1_565 S
C162 Pr160 2.880 . S
C162 C163 1.491 . S
C162 O180 1.254 . S
C162 O181 1.225 . S
C163 C162 1.491 . S
C163 C164 1.392 . S
C163 C168 1.356 . S
C164 C163 1.392 . S
C164 C165 1.368 . S
C164 H192 0.929 . S
C165 C164 1.368 . S
C165 C166 1.386 . S
C165 H193 0.929 . S
C166 C165 1.386 . S
C166 C167 1.373 . S
C167 C166 1.373 . S
C167 C168 1.409 . S
C167 H194 0.931 . S
C168 C163 1.356 . S
C168 C167 1.409 . S
C168 H195 0.930 . S
C169 O182 1.270 . S
C169 O183 1.248 . S
C170 O184 1.267 . S
C170 O185 1.278 . S
C171 Pr161 2.880 . S
C171 C172 1.491 . S
C171 O186 1.254 . S
C171 O187 1.225 . S
C172 C171 1.491 . S
C172 C173 1.392 . S
C172 C177 1.356 . S
C173 C172 1.392 . S
C173 C174 1.368 . S
C173 H196 0.929 . S
C174 C173 1.368 . S
C174 C175 1.386 . S
C174 H197 0.929 . S
C175 C174 1.386 . S
C175 C176 1.373 . S
C176 C175 1.373 . S
C176 C177 1.409 . S
C176 H198 0.931 . S
C177 C172 1.356 . S
C177 C176 1.409 . S
C177 H199 0.930 . S
C178 O188 1.270 . S
C178 O189 1.248 . S
C179 O190 1.267 . S
C179 O191 1.278 . S
O180 Pr160 2.562 . S
O180 C162 1.254 . S
O181 Pr160 2.490 . S
O181 C162 1.225 . S
O182 Pr160 2.695 1_565 S
O182 Pr161 2.436 1_655 S
O182 C169 1.270 . S
O183 Pr160 2.512 1_565 S
O183 C169 1.248 . S
O184 Pr161 2.438 1_655 S
O184 C170 1.267 . S
O185 Pr160 2.437 1_565 S
O185 C170 1.278 . S
O186 Pr161 2.562 . S
O186 C171 1.254 . S
O187 Pr161 2.490 . S
O187 C171 1.225 . S
O188 Pr160 2.436 1_455 S
O188 Pr161 2.695 1_545 S
O188 C178 1.270 . S
O189 Pr161 2.512 1_545 S
O189 C178 1.248 . S
O190 Pr160 2.438 1_455 S
O190 C179 1.267 . S
O191 Pr161 2.437 1_545 S
O191 C179 1.278 . S
H192 C164 0.929 . S
H193 C165 0.929 . S
H194 C167 0.931 . S
H195 C168 0.930 . S
H196 C173 0.929 . S
H197 C174 0.929 . S
H198 C176 0.931 . S
H199 C177 0.930 . S
Pr200 C202 2.880 . S
Pr200 O220 2.562 . S
Pr200 O221 2.490 . S
Pr200 O222 2.695 . S
Pr200 O223 2.512 . S
Pr200 O225 2.437 . S
Pr200 O228 2.436 . S
Pr200 O230 2.438 . S
Pr201 C211 2.880 . S
Pr201 O222 2.436 . S
Pr201 O224 2.438 . S
Pr201 O226 2.562 . S
Pr201 O227 2.490 . S
Pr201 O228 2.695 . S
Pr201 O229 2.512 . S
Pr201 O231 2.437 . S
C202 Pr200 2.880 . S
C202 C203 1.491 . S
C202 O220 1.254 . S
C202 O221 1.225 . S
C203 C202 1.491 . S
C203 C204 1.392 . S
C203 C208 1.356 . S
C204 C203 1.392 . S
C204 C205 1.368 . S
C204 H232 0.929 . S
C205 C204 1.368 . S
C205 C206 1.386 . S
C205 H233 0.929 . S
C206 C205 1.386 . S
C206 C207 1.373 . S
C207 C206 1.373 . S
C207 C208 1.409 . S
C207 H234 0.931 . S
C208 C203 1.356 . S
C208 C207 1.409 . S
C208 H235 0.930 . S
C209 O222 1.270 . S
C209 O223 1.248 . S
C210 O224 1.267 . S
C210 O225 1.278 . S
C211 Pr201 2.880 . S
C211 C212 1.491 . S
C211 O226 1.254 . S
C211 O227 1.225 . S
C212 C211 1.491 . S
C212 C213 1.392 . S
C212 C217 1.356 . S
C213 C212 1.392 . S
C213 C214 1.368 . S
C213 H236 0.929 . S
C214 C213 1.368 . S
C214 C215 1.386 . S
C214 H237 0.929 . S
C215 C214 1.386 . S
C215 C216 1.373 . S
C216 C215 1.373 . S
C216 C217 1.409 . S
C216 H238 0.931 . S
C217 C212 1.356 . S
C217 C216 1.409 . S
C217 H239 0.930 . S
C218 O228 1.270 . S
C218 O229 1.248 . S
C219 O230 1.267 . S
C219 O231 1.278 . S
O220 Pr200 2.562 . S
O220 C202 1.254 . S
O221 Pr200 2.490 . S
O221 C202 1.225 . S
O222 Pr200 2.695 . S
O222 Pr201 2.436 . S
O222 C209 1.270 . S
O223 Pr200 2.512 . S
O223 C209 1.248 . S
O224 Pr201 2.438 . S
O224 C210 1.267 . S
O225 Pr200 2.437 . S
O225 C210 1.278 . S
O226 Pr201 2.562 . S
O226 C211 1.254 . S
O227 Pr201 2.490 . S
O227 C211 1.225 . S
O228 Pr200 2.436 . S
O228 Pr201 2.695 . S
O228 C218 1.270 . S
O229 Pr201 2.512 . S
O229 C218 1.248 . S
O230 Pr200 2.438 . S
O230 C219 1.267 . S
O231 Pr201 2.437 . S
O231 C219 1.278 . S
H232 C204 0.929 . S
H233 C205 0.929 . S
H234 C207 0.931 . S
H235 C208 0.930 . S
H236 C213 0.929 . S
H237 C214 0.929 . S
H238 C216 0.931 . S
H239 C217 0.930 . S
Pr240 C242 2.880 . S
Pr240 O260 2.562 . S
Pr240 O261 2.490 . S
Pr240 O262 2.695 1_566 S
Pr240 O263 2.512 1_566 S
Pr240 O265 2.437 1_565 S
Pr240 O268 2.436 . S
Pr240 O270 2.438 1_556 S
Pr241 C251 2.880 . S
Pr241 O262 2.436 . S
Pr241 O264 2.438 1_554 S
Pr241 O266 2.562 . S
Pr241 O267 2.490 . S
Pr241 O268 2.695 1_544 S
Pr241 O269 2.512 1_544 S
Pr241 O271 2.437 1_545 S
C242 Pr240 2.880 . S
C242 C243 1.491 . S
C242 O260 1.254 . S
C242 O261 1.225 . S
C243 C242 1.491 . S
C243 C244 1.392 . S
C243 C248 1.356 . S
C244 C243 1.392 . S
C244 C245 1.368 . S
C244 H272 0.929 . S
C245 C244 1.368 . S
C245 C246 1.386 . S
C245 H273 0.929 . S
C246 C245 1.386 . S
C246 C247 1.373 . S
C247 C246 1.373 . S
C247 C248 1.409 . S
C247 H274 0.931 . S
C248 C243 1.356 . S
C248 C247 1.409 . S
C248 H275 0.930 . S
C249 O262 1.270 . S
C249 O263 1.248 . S
C250 O264 1.267 . S
C250 O265 1.278 . S
C251 Pr241 2.880 . S
C251 C252 1.491 . S
C251 O266 1.254 . S
C251 O267 1.225 . S
C252 C251 1.491 . S
C252 C253 1.392 . S
C252 C257 1.356 . S
C253 C252 1.392 . S
C253 C254 1.368 . S
C253 H276 0.929 . S
C254 C253 1.368 . S
C254 C255 1.386 . S
C254 H277 0.929 . S
C255 C254 1.386 . S
C255 C256 1.373 . S
C256 C255 1.373 . S
C256 C257 1.409 . S
C256 H278 0.931 . S
C257 C252 1.356 . S
C257 C256 1.409 . S
C257 H279 0.930 . S
C258 O268 1.270 . S
C258 O269 1.248 . S
C259 O270 1.267 . S
C259 O271 1.278 . S
O260 Pr240 2.562 . S
O260 C242 1.254 . S
O261 Pr240 2.490 . S
O261 C242 1.225 . S
O262 Pr240 2.695 1_544 S
O262 Pr241 2.436 . S
O262 C249 1.270 . S
O263 Pr240 2.512 1_544 S
O263 C249 1.248 . S
O264 Pr241 2.438 1_556 S
O264 C250 1.267 . S
O265 Pr240 2.437 1_545 S
O265 C250 1.278 . S
O266 Pr241 2.562 . S
O266 C251 1.254 . S
O267 Pr241 2.490 . S
O267 C251 1.225 . S
O268 Pr240 2.436 . S
O268 Pr241 2.695 1_566 S
O268 C258 1.270 . S
O269 Pr241 2.512 1_566 S
O269 C258 1.248 . S
O270 Pr240 2.438 1_554 S
O270 C259 1.267 . S
O271 Pr241 2.437 1_565 S
O271 C259 1.278 . S
H272 C244 0.929 . S
H273 C245 0.929 . S
H274 C247 0.931 . S
H275 C248 0.930 . S
H276 C253 0.929 . S
H277 C254 0.929 . S
H278 C256 0.931 . S
H279 C257 0.930 . S
Pr280 C282 2.880 . S
Pr280 O300 2.562 . S
Pr280 O301 2.490 . S
Pr280 O302 2.695 . S
Pr280 O303 2.512 . S
Pr280 O305 2.437 . S
Pr280 O308 2.436 . S
Pr280 O310 2.438 . S
Pr281 C291 2.880 . S
Pr281 O302 2.436 . S
Pr281 O304 2.438 . S
Pr281 O306 2.562 . S
Pr281 O307 2.490 . S
Pr281 O308 2.695 . S
Pr281 O309 2.512 . S
Pr281 O311 2.437 . S
C282 Pr280 2.880 . S
C282 C283 1.491 . S
C282 O300 1.254 . S
C282 O301 1.225 . S
C283 C282 1.491 . S
C283 C284 1.392 . S
C283 C288 1.356 . S
C284 C283 1.392 . S
C284 C285 1.368 . S
C284 H312 0.929 . S
C285 C284 1.368 . S
C285 C286 1.386 . S
C285 H313 0.929 . S
C286 C285 1.386 . S
C286 C287 1.373 . S
C287 C286 1.373 . S
C287 C288 1.409 . S
C287 H314 0.931 . S
C288 C283 1.356 . S
C288 C287 1.409 . S
C288 H315 0.930 . S
C289 O302 1.270 . S
C289 O303 1.248 . S
C290 O304 1.267 . S
C290 O305 1.278 . S
C291 Pr281 2.880 . S
C291 C292 1.491 . S
C291 O306 1.254 . S
C291 O307 1.225 . S
C292 C291 1.491 . S
C292 C293 1.392 . S
C292 C297 1.356 . S
C293 C292 1.392 . S
C293 C294 1.368 . S
C293 H316 0.929 . S
C294 C293 1.368 . S
C294 C295 1.386 . S
C294 H317 0.929 . S
C295 C294 1.386 . S
C295 C296 1.373 . S
C296 C295 1.373 . S
C296 C297 1.409 . S
C296 H318 0.931 . S
C297 C292 1.356 . S
C297 C296 1.409 . S
C297 H319 0.930 . S
C298 O308 1.270 . S
C298 O309 1.248 . S
C299 O310 1.267 . S
C299 O311 1.278 . S
O300 Pr280 2.562 . S
O300 C282 1.254 . S
O301 Pr280 2.490 . S
O301 C282 1.225 . S
O302 Pr280 2.695 . S
O302 Pr281 2.436 . S
O302 C289 1.270 . S
O303 Pr280 2.512 . S
O303 C289 1.248 . S
O304 Pr281 2.438 . S
O304 C290 1.267 . S
O305 Pr280 2.437 . S
O305 C290 1.278 . S
O306 Pr281 2.562 . S
O306 C291 1.254 . S
O307 Pr281 2.490 . S
O307 C291 1.225 . S
O308 Pr280 2.436 . S
O308 Pr281 2.695 . S
O308 C298 1.270 . S
O309 Pr281 2.512 . S
O309 C298 1.248 . S
O310 Pr280 2.438 . S
O310 C299 1.267 . S
O311 Pr281 2.437 . S
O311 C299 1.278 . S
H312 C284 0.929 . S
H313 C285 0.929 . S
H314 C287 0.931 . S
H315 C288 0.930 . S
H316 C293 0.929 . S
H317 C294 0.929 . S
H318 C296 0.931 . S
H319 C297 0.930 . S
Pr320 C322 2.880 1_554 S
Pr320 O340 2.562 1_554 S
Pr320 O341 2.490 . S
Pr320 O342 2.695 . S
Pr320 O343 2.512 . S
Pr320 O345 2.437 1_554 S
Pr320 O348 2.436 1_554 S
Pr320 O350 2.438 . S
Pr321 C331 2.880 1_556 S
Pr321 O342 2.436 1_556 S
Pr321 O344 2.438 . S
Pr321 O346 2.562 1_556 S
Pr321 O347 2.490 . S
Pr321 O348 2.695 . S
Pr321 O349 2.512 . S
Pr321 O351 2.437 1_556 S
C322 Pr320 2.880 1_556 S
C322 C323 1.491 . S
C322 O340 1.254 . S
C322 O341 1.225 1_556 S
C323 C322 1.491 . S
C323 C324 1.392 . S
C323 C328 1.356 . S
C324 C323 1.392 . S
C324 C325 1.368 . S
C324 H352 0.929 1_556 S
C325 C324 1.368 . S
C325 C326 1.386 . S
C325 H353 0.929 . S
C326 C325 1.386 . S
C326 C327 1.373 . S
C327 C326 1.373 . S
C327 C328 1.409 . S
C327 H354 0.931 . S
C328 C323 1.356 . S
C328 C327 1.409 . S
C328 H355 0.930 . S
C329 O342 1.270 . S
C329 O343 1.248 . S
C330 O344 1.267 . S
C330 O345 1.278 . S
C331 Pr321 2.880 1_554 S
C331 C332 1.491 . S
C331 O346 1.254 . S
C331 O347 1.225 1_554 S
C332 C331 1.491 . S
C332 C333 1.392 . S
C332 C337 1.356 . S
C333 C332 1.392 . S
C333 C334 1.368 . S
C333 H356 0.929 1_554 S
C334 C333 1.368 . S
C334 C335 1.386 . S
C334 H357 0.929 . S
C335 C334 1.386 . S
C335 C336 1.373 . S
C336 C335 1.373 . S
C336 C337 1.409 . S
C336 H358 0.931 . S
C337 C332 1.356 . S
C337 C336 1.409 . S
C337 H359 0.930 . S
C338 O348 1.270 . S
C338 O349 1.248 . S
C339 O350 1.267 . S
C339 O351 1.278 . S
O340 Pr320 2.562 1_556 S
O340 C322 1.254 . S
O341 Pr320 2.490 . S
O341 C322 1.225 1_554 S
O342 Pr320 2.695 . S
O342 Pr321 2.436 1_554 S
O342 C329 1.270 . S
O343 Pr320 2.512 . S
O343 C329 1.248 . S
O344 Pr321 2.438 . S
O344 C330 1.267 . S
O345 Pr320 2.437 1_556 S
O345 C330 1.278 . S
O346 Pr321 2.562 1_554 S
O346 C331 1.254 . S
O347 Pr321 2.490 . S
O347 C331 1.225 1_556 S
O348 Pr320 2.436 1_556 S
O348 Pr321 2.695 . S
O348 C338 1.270 . S
O349 Pr321 2.512 . S
O349 C338 1.248 . S
O350 Pr320 2.438 . S
O350 C339 1.267 . S
O351 Pr321 2.437 1_554 S
O351 C339 1.278 . S
H352 C324 0.929 1_554 S
H353 C325 0.929 . S
H354 C327 0.931 . S
H355 C328 0.930 . S
H356 C333 0.929 1_556 S
H357 C334 0.929 . S
H358 C336 0.931 . S
H359 C337 0.930 . S
Pr360 C362 2.880 . S
Pr360 O380 2.562 . S
Pr360 O381 2.490 . S
Pr360 O382 2.695 . S
Pr360 O383 2.512 . S
Pr360 O385 2.437 . S
Pr360 O388 2.436 . S
Pr360 O390 2.438 . S
Pr361 C371 2.880 . S
Pr361 O382 2.436 . S
Pr361 O384 2.438 . S
Pr361 O386 2.562 . S
Pr361 O387 2.490 . S
Pr361 O388 2.695 . S
Pr361 O389 2.512 . S
Pr361 O391 2.437 . S
C362 Pr360 2.880 . S
C362 C363 1.491 . S
C362 O380 1.254 . S
C362 O381 1.225 . S
C363 C362 1.491 . S
C363 C364 1.392 . S
C363 C368 1.356 . S
C364 C363 1.392 . S
C364 C365 1.368 . S
C364 H392 0.929 . S
C365 C364 1.368 . S
C365 C366 1.386 . S
C365 H393 0.929 . S
C366 C365 1.386 . S
C366 C367 1.373 . S
C367 C366 1.373 . S
C367 C368 1.409 . S
C367 H394 0.931 . S
C368 C363 1.356 . S
C368 C367 1.409 . S
C368 H395 0.930 . S
C369 O382 1.270 . S
C369 O383 1.248 . S
C370 O384 1.267 . S
C370 O385 1.278 . S
C371 Pr361 2.880 . S
C371 C372 1.491 . S
C371 O386 1.254 . S
C371 O387 1.225 . S
C372 C371 1.491 . S
C372 C373 1.392 . S
C372 C377 1.356 . S
C373 C372 1.392 . S
C373 C374 1.368 . S
C373 H396 0.929 . S
C374 C373 1.368 . S
C374 C375 1.386 . S
C374 H397 0.929 . S
C375 C374 1.386 . S
C375 C376 1.373 . S
C376 C375 1.373 . S
C376 C377 1.409 . S
C376 H398 0.931 . S
C377 C372 1.356 . S
C377 C376 1.409 . S
C377 H399 0.930 . S
C378 O388 1.270 . S
C378 O389 1.248 . S
C379 O390 1.267 . S
C379 O391 1.278 . S
O380 Pr360 2.562 . S
O380 C362 1.254 . S
O381 Pr360 2.490 . S
O381 C362 1.225 . S
O382 Pr360 2.695 . S
O382 Pr361 2.436 . S
O382 C369 1.270 . S
O383 Pr360 2.512 . S
O383 C369 1.248 . S
O384 Pr361 2.438 . S
O384 C370 1.267 . S
O385 Pr360 2.437 . S
O385 C370 1.278 . S
O386 Pr361 2.562 . S
O386 C371 1.254 . S
O387 Pr361 2.490 . S
O387 C371 1.225 . S
O388 Pr360 2.436 . S
O388 Pr361 2.695 . S
O388 C378 1.270 . S
O389 Pr361 2.512 . S
O389 C378 1.248 . S
O390 Pr360 2.438 . S
O390 C379 1.267 . S
O391 Pr361 2.437 . S
O391 C379 1.278 . S
H392 C364 0.929 . S
H393 C365 0.929 . S
H394 C367 0.931 . S
H395 C368 0.930 . S
H396 C373 0.929 . S
H397 C374 0.929 . S
H398 C376 0.931 . S
H399 C377 0.930 . S
Pr400 C402 2.880 . S
Pr400 O420 2.562 . S
Pr400 O421 2.490 . S
Pr400 O422 2.695 . S
Pr400 O423 2.512 . S
Pr400 O425 2.437 . S
Pr400 O428 2.436 1_455 S
Pr400 O430 2.438 1_455 S
Pr401 C411 2.880 . S
Pr401 O422 2.436 1_655 S
Pr401 O424 2.438 1_655 S
Pr401 O426 2.562 . S
Pr401 O427 2.490 . S
Pr401 O428 2.695 . S
Pr401 O429 2.512 . S
Pr401 O431 2.437 . S
C402 Pr400 2.880 . S
C402 C403 1.491 . S
C402 O420 1.254 . S
C402 O421 1.225 . S
C403 C402 1.491 . S
C403 C404 1.392 . S
C403 C408 1.356 . S
C404 C403 1.392 . S
C404 C405 1.368 . S
C404 H432 0.929 . S
C405 C404 1.368 . S
C405 C406 1.386 . S
C405 H433 0.929 . S
C406 C405 1.386 . S
C406 C407 1.373 . S
C407 C406 1.373 . S
C407 C408 1.409 . S
C407 H434 0.931 . S
C408 C403 1.356 . S
C408 C407 1.409 . S
C408 H435 0.930 . S
C409 O422 1.270 . S
C409 O423 1.248 . S
C410 O424 1.267 . S
C410 O425 1.278 . S
C411 Pr401 2.880 . S
C411 C412 1.491 . S
C411 O426 1.254 . S
C411 O427 1.225 . S
C412 C411 1.491 . S
C412 C413 1.392 . S
C412 C417 1.356 . S
C413 C412 1.392 . S
C413 C414 1.368 . S
C413 H436 0.929 . S
C414 C413 1.368 . S
C414 C415 1.386 . S
C414 H437 0.929 . S
C415 C414 1.386 . S
C415 C416 1.373 . S
C416 C415 1.373 . S
C416 C417 1.409 . S
C416 H438 0.931 . S
C417 C412 1.356 . S
C417 C416 1.409 . S
C417 H439 0.930 . S
C418 O428 1.270 . S
C418 O429 1.248 . S
C419 O430 1.267 . S
C419 O431 1.278 . S
O420 Pr400 2.562 . S
O420 C402 1.254 . S
O421 Pr400 2.490 . S
O421 C402 1.225 . S
O422 Pr400 2.695 . S
O422 Pr401 2.436 1_455 S
O422 C409 1.270 . S
O423 Pr400 2.512 . S
O423 C409 1.248 . S
O424 Pr401 2.438 1_455 S
O424 C410 1.267 . S
O425 Pr400 2.437 . S
O425 C410 1.278 . S
O426 Pr401 2.562 . S
O426 C411 1.254 . S
O427 Pr401 2.490 . S
O427 C411 1.225 . S
O428 Pr400 2.436 1_655 S
O428 Pr401 2.695 . S
O428 C418 1.270 . S
O429 Pr401 2.512 . S
O429 C418 1.248 . S
O430 Pr400 2.438 1_655 S
O430 C419 1.267 . S
O431 Pr401 2.437 . S
O431 C419 1.278 . S
H432 C404 0.929 . S
H433 C405 0.929 . S
H434 C407 0.931 . S
H435 C408 0.930 . S
H436 C413 0.929 . S
H437 C414 0.929 . S
H438 C416 0.931 . S
H439 C417 0.930 . S
Pr440 C442 2.880 . S
Pr440 O460 2.562 . S
Pr440 O461 2.490 . S
Pr440 O462 2.695 . S
Pr440 O463 2.512 . S
Pr440 O465 2.437 . S
Pr440 O468 2.436 . S
Pr440 O470 2.438 . S
Pr441 C451 2.880 . S
Pr441 O462 2.436 . S
Pr441 O464 2.438 . S
Pr441 O466 2.562 . S
Pr441 O467 2.490 . S
Pr441 O468 2.695 . S
Pr441 O469 2.512 . S
Pr441 O471 2.437 . S
C442 Pr440 2.880 . S
C442 C443 1.491 . S
C442 O460 1.254 . S
C442 O461 1.225 . S
C443 C442 1.491 . S
C443 C444 1.392 . S
C443 C448 1.356 . S
C444 C443 1.392 . S
C444 C445 1.368 . S
C444 H472 0.929 . S
C445 C444 1.368 . S
C445 C446 1.386 . S
C445 H473 0.929 . S
C446 C445 1.386 . S
C446 C447 1.373 . S
C447 C446 1.373 . S
C447 C448 1.409 . S
C447 H474 0.931 . S
C448 C443 1.356 . S
C448 C447 1.409 . S
C448 H475 0.930 . S
C449 O462 1.270 . S
C449 O463 1.248 . S
C450 O464 1.267 . S
C450 O465 1.278 . S
C451 Pr441 2.880 . S
C451 C452 1.491 . S
C451 O466 1.254 . S
C451 O467 1.225 . S
C452 C451 1.491 . S
C452 C453 1.392 . S
C452 C457 1.356 . S
C453 C452 1.392 . S
C453 C454 1.368 . S
C453 H476 0.929 . S
C454 C453 1.368 . S
C454 C455 1.386 . S
C454 H477 0.929 . S
C455 C454 1.386 . S
C455 C456 1.373 . S
C456 C455 1.373 . S
C456 C457 1.409 . S
C456 H478 0.931 . S
C457 C452 1.356 . S
C457 C456 1.409 . S
C457 H479 0.930 . S
C458 O468 1.270 . S
C458 O469 1.248 . S
C459 O470 1.267 . S
C459 O471 1.278 . S
O460 Pr440 2.562 . S
O460 C442 1.254 . S
O461 Pr440 2.490 . S
O461 C442 1.225 . S
O462 Pr440 2.695 . S
O462 Pr441 2.436 . S
O462 C449 1.270 . S
O463 Pr440 2.512 . S
O463 C449 1.248 . S
O464 Pr441 2.438 . S
O464 C450 1.267 . S
O465 Pr440 2.437 . S
O465 C450 1.278 . S
O466 Pr441 2.562 . S
O466 C451 1.254 . S
O467 Pr441 2.490 . S
O467 C451 1.225 . S
O468 Pr440 2.436 . S
O468 Pr441 2.695 . S
O468 C458 1.270 . S
O469 Pr441 2.512 . S
O469 C458 1.248 . S
O470 Pr440 2.438 . S
O470 C459 1.267 . S
O471 Pr441 2.437 . S
O471 C459 1.278 . S
H472 C444 0.929 . S
H473 C445 0.929 . S
H474 C447 0.931 . S
H475 C448 0.930 . S
H476 C453 0.929 . S
H477 C454 0.929 . S
H478 C456 0.931 . S
H479 C457 0.930 . S
Pr480 C482 2.880 . S
Pr480 O500 2.562 . S
Pr480 O501 2.490 . S
Pr480 O502 2.695 . S
Pr480 O503 2.512 . S
Pr480 O505 2.437 . S
Pr480 O508 2.436 . S
Pr480 O510 2.438 . S
Pr481 C491 2.880 . S
Pr481 O502 2.436 . S
Pr481 O504 2.438 . S
Pr481 O506 2.562 . S
Pr481 O507 2.490 . S
Pr481 O508 2.695 . S
Pr481 O509 2.512 . S
Pr481 O511 2.437 . S
C482 Pr480 2.880 . S
C482 C483 1.491 . S
C482 O500 1.254 . S
C482 O501 1.225 . S
C483 C482 1.491 . S
C483 C484 1.392 . S
C483 C488 1.356 . S
C484 C483 1.392 . S
C484 C485 1.368 . S
C484 H512 0.929 . S
C485 C484 1.368 . S
C485 C486 1.386 . S
C485 H513 0.929 . S
C486 C485 1.386 . S
C486 C487 1.373 . S
C487 C486 1.373 . S
C487 C488 1.409 . S
C487 H514 0.931 . S
C488 C483 1.356 . S
C488 C487 1.409 . S
C488 H515 0.930 . S
C489 O502 1.270 . S
C489 O503 1.248 . S
C490 O504 1.267 . S
C490 O505 1.278 . S
C491 Pr481 2.880 . S
C491 C492 1.491 . S
C491 O506 1.254 . S
C491 O507 1.225 . S
C492 C491 1.491 . S
C492 C493 1.392 . S
C492 C497 1.356 . S
C493 C492 1.392 . S
C493 C494 1.368 . S
C493 H516 0.929 . S
C494 C493 1.368 . S
C494 C495 1.386 . S
C494 H517 0.929 . S
C495 C494 1.386 . S
C495 C496 1.373 . S
C496 C495 1.373 . S
C496 C497 1.409 . S
C496 H518 0.931 . S
C497 C492 1.356 . S
C497 C496 1.409 . S
C497 H519 0.930 . S
C498 O508 1.270 . S
C498 O509 1.248 . S
C499 O510 1.267 . S
C499 O511 1.278 . S
O500 Pr480 2.562 . S
O500 C482 1.254 . S
O501 Pr480 2.490 . S
O501 C482 1.225 . S
O502 Pr480 2.695 . S
O502 Pr481 2.436 . S
O502 C489 1.270 . S
O503 Pr480 2.512 . S
O503 C489 1.248 . S
O504 Pr481 2.438 . S
O504 C490 1.267 . S
O505 Pr480 2.437 . S
O505 C490 1.278 . S
O506 Pr481 2.562 . S
O506 C491 1.254 . S
O507 Pr481 2.490 . S
O507 C491 1.225 . S
O508 Pr480 2.436 . S
O508 Pr481 2.695 . S
O508 C498 1.270 . S
O509 Pr481 2.512 . S
O509 C498 1.248 . S
O510 Pr480 2.438 . S
O510 C499 1.267 . S
O511 Pr481 2.437 . S
O511 C499 1.278 . S
H512 C484 0.929 . S
H513 C485 0.929 . S
H514 C487 0.931 . S
H515 C488 0.930 . S
H516 C493 0.929 . S
H517 C494 0.929 . S
H518 C496 0.931 . S
H519 C497 0.930 . S
Pr520 C522 2.880 . S
Pr520 O540 2.562 . S
Pr520 O541 2.490 . S
Pr520 O542 2.695 . S
Pr520 O543 2.512 . S
Pr520 O545 2.437 . S
Pr520 O548 2.436 . S
Pr520 O550 2.438 . S
Pr521 C531 2.880 . S
Pr521 O542 2.436 . S
Pr521 O544 2.438 . S
Pr521 O546 2.562 . S
Pr521 O547 2.490 . S
Pr521 O548 2.695 . S
Pr521 O549 2.512 . S
Pr521 O551 2.437 . S
C522 Pr520 2.880 . S
C522 C523 1.491 . S
C522 O540 1.254 . S
C522 O541 1.225 . S
C523 C522 1.491 . S
C523 C524 1.392 . S
C523 C528 1.356 . S
C524 C523 1.392 . S
C524 C525 1.368 . S
C524 H552 0.929 . S
C525 C524 1.368 . S
C525 C526 1.386 . S
C525 H553 0.929 . S
C526 C525 1.386 . S
C526 C527 1.373 . S
C527 C526 1.373 . S
C527 C528 1.409 . S
C527 H554 0.931 . S
C528 C523 1.356 . S
C528 C527 1.409 . S
C528 H555 0.930 . S
C529 O542 1.270 . S
C529 O543 1.248 . S
C530 O544 1.267 . S
C530 O545 1.278 . S
C531 Pr521 2.880 . S
C531 C532 1.491 . S
C531 O546 1.254 . S
C531 O547 1.225 . S
C532 C531 1.491 . S
C532 C533 1.392 . S
C532 C537 1.356 . S
C533 C532 1.392 . S
C533 C534 1.368 . S
C533 H556 0.929 . S
C534 C533 1.368 . S
C534 C535 1.386 . S
C534 H557 0.929 . S
C535 C534 1.386 . S
C535 C536 1.373 . S
C536 C535 1.373 . S
C536 C537 1.409 . S
C536 H558 0.931 . S
C537 C532 1.356 . S
C537 C536 1.409 . S
C537 H559 0.930 . S
C538 O548 1.270 . S
C538 O549 1.248 . S
C539 O550 1.267 . S
C539 O551 1.278 . S
O540 Pr520 2.562 . S
O540 C522 1.254 . S
O541 Pr520 2.490 . S
O541 C522 1.225 . S
O542 Pr520 2.695 . S
O542 Pr521 2.436 . S
O542 C529 1.270 . S
O543 Pr520 2.512 . S
O543 C529 1.248 . S
O544 Pr521 2.438 . S
O544 C530 1.267 . S
O545 Pr520 2.437 . S
O545 C530 1.278 . S
O546 Pr521 2.562 . S
O546 C531 1.254 . S
O547 Pr521 2.490 . S
O547 C531 1.225 . S
O548 Pr520 2.436 . S
O548 Pr521 2.695 . S
O548 C538 1.270 . S
O549 Pr521 2.512 . S
O549 C538 1.248 . S
O550 Pr520 2.438 . S
O550 C539 1.267 . S
O551 Pr521 2.437 . S
O551 C539 1.278 . S
H552 C524 0.929 . S
H553 C525 0.929 . S
H554 C527 0.931 . S
H555 C528 0.930 . S
H556 C533 0.929 . S
H557 C534 0.929 . S
H558 C536 0.931 . S
H559 C537 0.930 . S
Pr560 C562 2.880 . S
Pr560 O580 2.562 . S
Pr560 O581 2.490 . S
Pr560 O582 2.695 . S
Pr560 O583 2.512 . S
Pr560 O585 2.437 . S
Pr560 O588 2.436 . S
Pr560 O590 2.438 . S
Pr561 C571 2.880 . S
Pr561 O582 2.436 . S
Pr561 O584 2.438 . S
Pr561 O586 2.562 . S
Pr561 O587 2.490 . S
Pr561 O588 2.695 . S
Pr561 O589 2.512 . S
Pr561 O591 2.437 . S
C562 Pr560 2.880 . S
C562 C563 1.491 . S
C562 O580 1.254 . S
C562 O581 1.225 . S
C563 C562 1.491 . S
C563 C564 1.392 . S
C563 C568 1.356 . S
C564 C563 1.392 . S
C564 C565 1.368 . S
C564 H592 0.929 . S
C565 C564 1.368 . S
C565 C566 1.386 . S
C565 H593 0.929 . S
C566 C565 1.386 . S
C566 C567 1.373 . S
C567 C566 1.373 . S
C567 C568 1.409 . S
C567 H594 0.931 . S
C568 C563 1.356 . S
C568 C567 1.409 . S
C568 H595 0.930 . S
C569 O582 1.270 . S
C569 O583 1.248 . S
C570 O584 1.267 . S
C570 O585 1.278 . S
C571 Pr561 2.880 . S
C571 C572 1.491 . S
C571 O586 1.254 . S
C571 O587 1.225 . S
C572 C571 1.491 . S
C572 C573 1.392 . S
C572 C577 1.356 . S
C573 C572 1.392 . S
C573 C574 1.368 . S
C573 H596 0.929 . S
C574 C573 1.368 . S
C574 C575 1.386 . S
C574 H597 0.929 . S
C575 C574 1.386 . S
C575 C576 1.373 . S
C576 C575 1.373 . S
C576 C577 1.409 . S
C576 H598 0.931 . S
C577 C572 1.356 . S
C577 C576 1.409 . S
C577 H599 0.930 . S
C578 O588 1.270 . S
C578 O589 1.248 . S
C579 O590 1.267 . S
C579 O591 1.278 . S
O580 Pr560 2.562 . S
O580 C562 1.254 . S
O581 Pr560 2.490 . S
O581 C562 1.225 . S
O582 Pr560 2.695 . S
O582 Pr561 2.436 . S
O582 C569 1.270 . S
O583 Pr560 2.512 . S
O583 C569 1.248 . S
O584 Pr561 2.438 . S
O584 C570 1.267 . S
O585 Pr560 2.437 . S
O585 C570 1.278 . S
O586 Pr561 2.562 . S
O586 C571 1.254 . S
O587 Pr561 2.490 . S
O587 C571 1.225 . S
O588 Pr560 2.436 . S
O588 Pr561 2.695 . S
O588 C578 1.270 . S
O589 Pr561 2.512 . S
O589 C578 1.248 . S
O590 Pr560 2.438 . S
O590 C579 1.267 . S
O591 Pr561 2.437 . S
O591 C579 1.278 . S
H592 C564 0.929 . S
H593 C565 0.929 . S
H594 C567 0.931 . S
H595 C568 0.930 . S
H596 C573 0.929 . S
H597 C574 0.929 . S
H598 C576 0.931 . S
H599 C577 0.930 . S
Pr600 C602 2.880 1_455 S
Pr600 O620 2.562 1_455 S
Pr600 O621 2.490 . S
Pr600 O622 2.695 1_556 S
Pr600 O623 2.512 1_556 S
Pr600 O625 2.437 1_456 S
Pr600 O628 2.436 1_455 S
Pr600 O630 2.438 . S
Pr601 C611 2.880 1_655 S
Pr601 O622 2.436 1_655 S
Pr601 O624 2.438 . S
Pr601 O626 2.562 1_655 S
Pr601 O627 2.490 . S
Pr601 O628 2.695 1_554 S
Pr601 O629 2.512 1_554 S
Pr601 O631 2.437 1_654 S
C602 Pr600 2.880 1_655 S
C602 C603 1.491 . S
C602 O620 1.254 . S
C602 O621 1.225 1_655 S
C603 C602 1.491 . S
C603 C604 1.392 1_655 S
C603 C608 1.356 . S
C604 C603 1.392 1_455 S
C604 C605 1.368 1_455 S
C604 H632 0.929 . S
C605 C604 1.368 1_655 S
C605 C606 1.386 . S
C605 H633 0.929 1_655 S
C606 C605 1.386 . S
C606 C607 1.373 . S
C607 C606 1.373 . S
C607 C608 1.409 . S
C607 H634 0.931 . S
C608 C603 1.356 . S
C608 C607 1.409 . S
C608 H635 0.930 . S
C609 O622 1.270 . S
C609 O623 1.248 . S
C610 O624 1.267 . S
C610 O625 1.278 . S
C611 Pr601 2.880 1_455 S
C611 C612 1.491 . S
C611 O626 1.254 . S
C611 O627 1.225 1_455 S
C612 C611 1.491 . S
C612 C613 1.392 1_455 S
C612 C617 1.356 . S
C613 C612 1.392 1_655 S
C613 C614 1.368 1_655 S
C613 H636 0.929 . S
C614 C613 1.368 1_455 S
C614 C615 1.386 . S
C614 H637 0.929 1_455 S
C615 C614 1.386 . S
C615 C616 1.373 . S
C616 C615 1.373 . S
C616 C617 1.409 . S
C616 H638 0.931 . S
C617 C612 1.356 . S
C617 C616 1.409 . S
C617 H639 0.930 . S
C618 O628 1.270 . S
C618 O629 1.248 . S
C619 O630 1.267 . S
C619 O631 1.278 . S
O620 Pr600 2.562 1_655 S
O620 C602 1.254 . S
O621 Pr600 2.490 . S
O621 C602 1.225 1_455 S
O622 Pr600 2.695 1_554 S
O622 Pr601 2.436 1_455 S
O622 C609 1.270 . S
O623 Pr600 2.512 1_554 S
O623 C609 1.248 . S
O624 Pr601 2.438 . S
O624 C610 1.267 . S
O625 Pr600 2.437 1_654 S
O625 C610 1.278 . S
O626 Pr601 2.562 1_455 S
O626 C611 1.254 . S
O627 Pr601 2.490 . S
O627 C611 1.225 1_655 S
O628 Pr600 2.436 1_655 S
O628 Pr601 2.695 1_556 S
O628 C618 1.270 . S
O629 Pr601 2.512 1_556 S
O629 C618 1.248 . S
O630 Pr600 2.438 . S
O630 C619 1.267 . S
O631 Pr601 2.437 1_456 S
O631 C619 1.278 . S
H632 C604 0.929 . S
H633 C605 0.929 1_455 S
H634 C607 0.931 . S
H635 C608 0.930 . S
H636 C613 0.929 . S
H637 C614 0.929 1_655 S
H638 C616 0.931 . S
H639 C617 0.930 . S
C640 C641 1.349 . S
C640 C642 1.327 . S
C640 H665 0.950 . S
C641 C640 1.349 . S
C641 C657 1.349 . S
C642 C640 1.327 . S
C642 C661 1.429 . S
C642 H666 0.950 . S
C643 C660 1.574 . S
C643 C662 1.368 . S
C643 H667 0.949 . S
H644 C648 0.949 . S
C645 C646 1.349 . S
C645 C647 1.327 . S
C645 H668 0.950 . S
C646 C645 1.349 . S
C646 C658 1.349 . S
C647 C645 1.327 . S
C647 C663 1.429 . S
C647 H669 0.950 . S
C648 H644 0.949 . S
C648 C656 1.574 . S
C648 C664 1.368 . S
H649 C657 0.950 . S
H650 C655 0.950 . S
H651 C656 0.949 . S
H652 C658 0.950 . S
H653 C659 0.950 . S
H654 C660 0.949 . S
C655 H650 0.950 . S
C655 C657 1.327 . S
C655 C661 1.429 . S
C656 C648 1.574 . S
C656 H651 0.949 . S
C656 C662 1.368 . S
C657 C641 1.349 . S
C657 H649 0.950 . S
C657 C655 1.327 . S
C658 C646 1.349 . S
C658 H652 0.950 . S
C658 C659 1.327 . S
C659 H653 0.950 . S
C659 C658 1.327 . S
C659 C663 1.429 . S
C660 C643 1.574 . S
C660 H654 0.949 . S
C660 C664 1.368 . S
C661 C642 1.429 . S
C661 C655 1.429 . S
C661 C662 1.523 . S
C662 C643 1.368 . S
C662 C656 1.368 . S
C662 C661 1.523 . S
C663 C647 1.429 . S
C663 C659 1.429 . S
C663 C664 1.523 . S
C664 C648 1.368 . S
C664 C660 1.368 . S
C664 C663 1.523 . S
H665 C640 0.950 . S
H666 C642 0.950 . S
H667 C643 0.949 . S
H668 C645 0.950 . S
H669 C647 0.950 . S
C670 C671 1.349 . S
C670 C672 1.327 . S
C670 H695 0.950 . S
C671 C670 1.349 . S
C671 C687 1.349 . S
C672 C670 1.327 . S
C672 C691 1.429 . S
C672 H696 0.950 . S
C673 C690 1.574 . S
C673 C692 1.368 . S
C673 H697 0.949 . S
H674 C678 0.949 . S
C675 C676 1.349 . S
C675 C677 1.327 . S
C675 H698 0.950 . S
C676 C675 1.349 . S
C676 C688 1.349 . S
C677 C675 1.327 . S
C677 C693 1.429 . S
C677 H699 0.950 . S
C678 H674 0.949 . S
C678 C686 1.574 . S
C678 C694 1.368 . S
H679 C687 0.950 . S
H680 C685 0.950 . S
H681 C686 0.949 . S
H682 C688 0.950 . S
H683 C689 0.950 . S
H684 C690 0.949 . S
C685 H680 0.950 . S
C685 C687 1.327 . S
C685 C691 1.429 . S
C686 C678 1.574 . S
C686 H681 0.949 . S
C686 C692 1.368 . S
C687 C671 1.349 . S
C687 H679 0.950 . S
C687 C685 1.327 . S
C688 C676 1.349 . S
C688 H682 0.950 . S
C688 C689 1.327 . S
C689 H683 0.950 . S
C689 C688 1.327 . S
C689 C693 1.429 . S
C690 C673 1.574 . S
C690 H684 0.949 . S
C690 C694 1.368 . S
C691 C672 1.429 . S
C691 C685 1.429 . S
C691 C692 1.523 . S
C692 C673 1.368 . S
C692 C686 1.368 . S
C692 C691 1.523 . S
C693 C677 1.429 . S
C693 C689 1.429 . S
C693 C694 1.523 . S
C694 C678 1.368 . S
C694 C690 1.368 . S
C694 C693 1.523 . S
H695 C670 0.950 . S
H696 C672 0.950 . S
H697 C673 0.949 . S
H698 C675 0.950 . S
H699 C677 0.950 . S
C700 C701 1.349 . S
C700 C702 1.327 . S
C700 H725 0.950 . S
C701 C700 1.349 . S
C701 C717 1.349 . S
C702 C700 1.327 . S
C702 C721 1.429 . S
C702 H726 0.950 . S
C703 C720 1.574 . S
C703 C722 1.368 . S
C703 H727 0.949 . S
H704 C708 0.949 . S
C705 C706 1.349 . S
C705 C707 1.327 . S
C705 H728 0.950 . S
C706 C705 1.349 . S
C706 C718 1.349 . S
C707 C705 1.327 . S
C707 C723 1.429 . S
C707 H729 0.950 . S
C708 H704 0.949 . S
C708 C716 1.574 . S
C708 C724 1.368 . S
H709 C717 0.950 . S
H710 C715 0.950 . S
H711 C716 0.949 . S
H712 C718 0.950 . S
H713 C719 0.950 . S
H714 C720 0.949 . S
C715 H710 0.950 . S
C715 C717 1.327 . S
C715 C721 1.429 . S
C716 C708 1.574 . S
C716 H711 0.949 . S
C716 C722 1.368 . S
C717 C701 1.349 . S
C717 H709 0.950 . S
C717 C715 1.327 . S
C718 C706 1.349 . S
C718 H712 0.950 . S
C718 C719 1.327 . S
C719 H713 0.950 . S
C719 C718 1.327 . S
C719 C723 1.429 . S
C720 C703 1.574 . S
C720 H714 0.949 . S
C720 C724 1.368 . S
C721 C702 1.429 . S
C721 C715 1.429 . S
C721 C722 1.523 . S
C722 C703 1.368 . S
C722 C716 1.368 . S
C722 C721 1.523 . S
C723 C707 1.429 . S
C723 C719 1.429 . S
C723 C724 1.523 . S
C724 C708 1.368 . S
C724 C720 1.368 . S
C724 C723 1.523 . S
H725 C700 0.950 . S
H726 C702 0.950 . S
H727 C703 0.949 . S
H728 C705 0.950 . S
H729 C707 0.950 . S
C730 C731 1.349 . S
C730 C732 1.327 . S
C730 H755 0.950 . S
C731 C730 1.349 . S
C731 C747 1.349 . S
C732 C730 1.327 . S
C732 C751 1.429 . S
C732 H756 0.950 . S
C733 C750 1.574 . S
C733 C752 1.368 . S
C733 H757 0.949 . S
H734 C738 0.949 . S
C735 C736 1.349 . S
C735 C737 1.327 . S
C735 H758 0.950 . S
C736 C735 1.349 . S
C736 C748 1.349 . S
C737 C735 1.327 . S
C737 C753 1.429 . S
C737 H759 0.950 . S
C738 H734 0.949 . S
C738 C746 1.574 . S
C738 C754 1.368 . S
H739 C747 0.950 . S
H740 C745 0.950 . S
H741 C746 0.949 . S
H742 C748 0.950 . S
H743 C749 0.950 . S
H744 C750 0.949 . S
C745 H740 0.950 . S
C745 C747 1.327 . S
C745 C751 1.429 . S
C746 C738 1.574 . S
C746 H741 0.949 . S
C746 C752 1.368 . S
C747 C731 1.349 . S
C747 H739 0.950 . S
C747 C745 1.327 . S
C748 C736 1.349 . S
C748 H742 0.950 . S
C748 C749 1.327 . S
C749 H743 0.950 . S
C749 C748 1.327 . S
C749 C753 1.429 . S
C750 C733 1.574 . S
C750 H744 0.949 . S
C750 C754 1.368 . S
C751 C732 1.429 . S
C751 C745 1.429 . S
C751 C752 1.523 . S
C752 C733 1.368 . S
C752 C746 1.368 . S
C752 C751 1.523 . S
C753 C737 1.429 . S
C753 C749 1.429 . S
C753 C754 1.523 . S
C754 C738 1.368 . S
C754 C750 1.368 . S
C754 C753 1.523 . S
H755 C730 0.950 . S
H756 C732 0.950 . S
H757 C733 0.949 . S
H758 C735 0.950 . S
H759 C737 0.950 . S
C760 C761 1.349 . S
C760 C762 1.327 . S
C760 H785 0.950 . S
C761 C760 1.349 . S
C761 C777 1.349 . S
C762 C760 1.327 . S
C762 C781 1.429 . S
C762 H786 0.950 . S
C763 C780 1.574 . S
C763 C782 1.368 . S
C763 H787 0.949 . S
H764 C768 0.949 . S
C765 C766 1.349 . S
C765 C767 1.327 . S
C765 H788 0.950 . S
C766 C765 1.349 . S
C766 C778 1.349 . S
C767 C765 1.327 . S
C767 C783 1.429 . S
C767 H789 0.950 . S
C768 H764 0.949 . S
C768 C776 1.574 . S
C768 C784 1.368 . S
H769 C777 0.950 . S
H770 C775 0.950 . S
H771 C776 0.949 . S
H772 C778 0.950 . S
H773 C779 0.950 . S
H774 C780 0.949 . S
C775 H770 0.950 . S
C775 C777 1.327 . S
C775 C781 1.429 . S
C776 C768 1.574 . S
C776 H771 0.949 . S
C776 C782 1.368 . S
C777 C761 1.349 . S
C777 H769 0.950 . S
C777 C775 1.327 . S
C778 C766 1.349 . S
C778 H772 0.950 . S
C778 C779 1.327 . S
C779 H773 0.950 . S
C779 C778 1.327 . S
C779 C783 1.429 . S
C780 C763 1.574 . S
C780 H774 0.949 . S
C780 C784 1.368 . S
C781 C762 1.429 . S
C781 C775 1.429 . S
C781 C782 1.523 . S
C782 C763 1.368 . S
C782 C776 1.368 . S
C782 C781 1.523 . S
C783 C767 1.429 . S
C783 C779 1.429 . S
C783 C784 1.523 . S
C784 C768 1.368 . S
C784 C780 1.368 . S
C784 C783 1.523 . S
H785 C760 0.950 . S
H786 C762 0.950 . S
H787 C763 0.949 . S
H788 C765 0.950 . S
H789 C767 0.950 . S
C790 C791 1.349 . S
C790 C792 1.327 . S
C790 H815 0.950 . S
C791 C790 1.349 . S
C791 C807 1.349 . S
C792 C790 1.327 . S
C792 C811 1.429 . S
C792 H816 0.950 . S
C793 C810 1.574 . S
C793 C812 1.368 . S
C793 H817 0.949 . S
H794 C798 0.949 . S
C795 C796 1.349 . S
C795 C797 1.327 . S
C795 H818 0.950 . S
C796 C795 1.349 . S
C796 C808 1.349 . S
C797 C795 1.327 . S
C797 C813 1.429 . S
C797 H819 0.950 . S
C798 H794 0.949 . S
C798 C806 1.574 . S
C798 C814 1.368 . S
H799 C807 0.950 . S
H800 C805 0.950 . S
H801 C806 0.949 . S
H802 C808 0.950 . S
H803 C809 0.950 . S
H804 C810 0.949 . S
C805 H800 0.950 . S
C805 C807 1.327 . S
C805 C811 1.429 . S
C806 C798 1.574 . S
C806 H801 0.949 . S
C806 C812 1.368 . S
C807 C791 1.349 . S
C807 H799 0.950 . S
C807 C805 1.327 . S
C808 C796 1.349 . S
C808 H802 0.950 . S
C808 C809 1.327 . S
C809 H803 0.950 . S
C809 C808 1.327 . S
C809 C813 1.429 . S
C810 C793 1.574 . S
C810 H804 0.949 . S
C810 C814 1.368 . S
C811 C792 1.429 . S
C811 C805 1.429 . S
C811 C812 1.523 . S
C812 C793 1.368 . S
C812 C806 1.368 . S
C812 C811 1.523 . S
C813 C797 1.429 . S
C813 C809 1.429 . S
C813 C814 1.523 . S
C814 C798 1.368 . S
C814 C810 1.368 . S
C814 C813 1.523 . S
H815 C790 0.950 . S
H816 C792 0.950 . S
H817 C793 0.949 . S
H818 C795 0.950 . S
H819 C797 0.950 . S
C820 C821 1.349 . S
C820 C822 1.327 . S
C820 H845 0.950 . S
C821 C820 1.349 . S
C821 C837 1.349 . S
C822 C820 1.327 . S
C822 C841 1.429 . S
C822 H846 0.950 . S
C823 C840 1.574 . S
C823 C842 1.368 . S
C823 H847 0.949 . S
H824 C828 0.949 . S
C825 C826 1.349 . S
C825 C827 1.327 . S
C825 H848 0.950 . S
C826 C825 1.349 . S
C826 C838 1.349 . S
C827 C825 1.327 . S
C827 C843 1.429 . S
C827 H849 0.950 . S
C828 H824 0.949 . S
C828 C836 1.574 . S
C828 C844 1.368 . S
H829 C837 0.950 . S
H830 C835 0.950 . S
H831 C836 0.949 . S
H832 C838 0.950 . S
H833 C839 0.950 . S
H834 C840 0.949 . S
C835 H830 0.950 . S
C835 C837 1.327 . S
C835 C841 1.429 . S
C836 C828 1.574 . S
C836 H831 0.949 . S
C836 C842 1.368 . S
C837 C821 1.349 . S
C837 H829 0.950 . S
C837 C835 1.327 . S
C838 C826 1.349 . S
C838 H832 0.950 . S
C838 C839 1.327 . S
C839 H833 0.950 . S
C839 C838 1.327 . S
C839 C843 1.429 . S
C840 C823 1.574 . S
C840 H834 0.949 . S
C840 C844 1.368 . S
C841 C822 1.429 . S
C841 C835 1.429 . S
C841 C842 1.523 . S
C842 C823 1.368 . S
C842 C836 1.368 . S
C842 C841 1.523 . S
C843 C827 1.429 . S
C843 C839 1.429 . S
C843 C844 1.523 . S
C844 C828 1.368 . S
C844 C840 1.368 . S
C844 C843 1.523 . S
H845 C820 0.950 . S
H846 C822 0.950 . S
H847 C823 0.949 . S
H848 C825 0.950 . S
H849 C827 0.950 . S
C850 C851 1.349 . S
C850 C852 1.327 . S
C850 H875 0.950 . S
C851 C850 1.349 . S
C851 C867 1.349 . S
C852 C850 1.327 . S
C852 C871 1.429 . S
C852 H876 0.950 . S
C853 C870 1.574 . S
C853 C872 1.368 . S
C853 H877 0.949 . S
H854 C858 0.949 . S
C855 C856 1.349 . S
C855 C857 1.327 . S
C855 H878 0.950 . S
C856 C855 1.349 . S
C856 C868 1.349 . S
C857 C855 1.327 . S
C857 C873 1.429 . S
C857 H879 0.950 . S
C858 H854 0.949 . S
C858 C866 1.574 . S
C858 C874 1.368 . S
H859 C867 0.950 . S
H860 C865 0.950 . S
H861 C866 0.949 . S
H862 C868 0.950 . S
H863 C869 0.950 . S
H864 C870 0.949 . S
C865 H860 0.950 . S
C865 C867 1.327 . S
C865 C871 1.429 . S
C866 C858 1.574 . S
C866 H861 0.949 . S
C866 C872 1.368 . S
C867 C851 1.349 . S
C867 H859 0.950 . S
C867 C865 1.327 . S
C868 C856 1.349 . S
C868 H862 0.950 . S
C868 C869 1.327 . S
C869 H863 0.950 . S
C869 C868 1.327 . S
C869 C873 1.429 . S
C870 C853 1.574 . S
C870 H864 0.949 . S
C870 C874 1.368 . S
C871 C852 1.429 . S
C871 C865 1.429 . S
C871 C872 1.523 . S
C872 C853 1.368 . S
C872 C866 1.368 . S
C872 C871 1.523 . S
C873 C857 1.429 . S
C873 C869 1.429 . S
C873 C874 1.523 . S
C874 C858 1.368 . S
C874 C870 1.368 . S
C874 C873 1.523 . S
H875 C850 0.950 . S
H876 C852 0.950 . S
H877 C853 0.949 . S
H878 C855 0.950 . S
H879 C857 0.950 . S
C880 C881 1.349 . S
C880 C882 1.327 . S
C880 H905 0.950 . S
C881 C880 1.349 . S
C881 C897 1.349 . S
C882 C880 1.327 . S
C882 C901 1.429 . S
C882 H906 0.950 . S
C883 C900 1.574 . S
C883 C902 1.368 . S
C883 H907 0.949 . S
H884 C888 0.949 . S
C885 C886 1.349 . S
C885 C887 1.327 . S
C885 H908 0.950 . S
C886 C885 1.349 . S
C886 C898 1.349 . S
C887 C885 1.327 . S
C887 C903 1.429 . S
C887 H909 0.950 . S
C888 H884 0.949 . S
C888 C896 1.574 . S
C888 C904 1.368 . S
H889 C897 0.950 . S
H890 C895 0.950 . S
H891 C896 0.949 . S
H892 C898 0.950 . S
H893 C899 0.950 . S
H894 C900 0.949 . S
C895 H890 0.950 . S
C895 C897 1.327 . S
C895 C901 1.429 . S
C896 C888 1.574 . S
C896 H891 0.949 . S
C896 C902 1.368 . S
C897 C881 1.349 . S
C897 H889 0.950 . S
C897 C895 1.327 . S
C898 C886 1.349 . S
C898 H892 0.950 . S
C898 C899 1.327 . S
C899 H893 0.950 . S
C899 C898 1.327 . S
C899 C903 1.429 . S
C900 C883 1.574 . S
C900 H894 0.949 . S
C900 C904 1.368 . S
C901 C882 1.429 . S
C901 C895 1.429 . S
C901 C902 1.523 . S
C902 C883 1.368 . S
C902 C896 1.368 . S
C902 C901 1.523 . S
C903 C887 1.429 . S
C903 C899 1.429 . S
C903 C904 1.523 . S
C904 C888 1.368 . S
C904 C900 1.368 . S
C904 C903 1.523 . S
H905 C880 0.950 . S
H906 C882 0.950 . S
H907 C883 0.949 . S
H908 C885 0.950 . S
H909 C887 0.950 . S
C910 C911 1.349 . S
C910 C912 1.327 . S
C910 H935 0.950 . S
C911 C910 1.349 . S
C911 C927 1.349 . S
C912 C910 1.327 . S
C912 C931 1.429 . S
C912 H936 0.950 . S
C913 C930 1.574 . S
C913 C932 1.368 . S
C913 H937 0.949 . S
H914 C918 0.949 . S
C915 C916 1.349 . S
C915 C917 1.327 . S
C915 H938 0.950 . S
C916 C915 1.349 . S
C916 C928 1.349 . S
C917 C915 1.327 . S
C917 C933 1.429 . S
C917 H939 0.950 . S
C918 H914 0.949 . S
C918 C926 1.574 . S
C918 C934 1.368 . S
H919 C927 0.950 . S
H920 C925 0.950 . S
H921 C926 0.949 . S
H922 C928 0.950 . S
H923 C929 0.950 . S
H924 C930 0.949 . S
C925 H920 0.950 . S
C925 C927 1.327 . S
C925 C931 1.429 . S
C926 C918 1.574 . S
C926 H921 0.949 . S
C926 C932 1.368 . S
C927 C911 1.349 . S
C927 H919 0.950 . S
C927 C925 1.327 . S
C928 C916 1.349 . S
C928 H922 0.950 . S
C928 C929 1.327 . S
C929 H923 0.950 . S
C929 C928 1.327 . S
C929 C933 1.429 . S
C930 C913 1.574 . S
C930 H924 0.949 . S
C930 C934 1.368 . S
C931 C912 1.429 . S
C931 C925 1.429 . S
C931 C932 1.523 . S
C932 C913 1.368 . S
C932 C926 1.368 . S
C932 C931 1.523 . S
C933 C917 1.429 . S
C933 C929 1.429 . S
C933 C934 1.523 . S
C934 C918 1.368 . S
C934 C930 1.368 . S
C934 C933 1.523 . S
H935 C910 0.950 . S
H936 C912 0.950 . S
H937 C913 0.949 . S
H938 C915 0.950 . S
H939 C917 0.950 . S
C940 C941 1.349 . S
C940 C942 1.327 . S
C940 H965 0.950 . S
C941 C940 1.349 . S
C941 C957 1.349 . S
C942 C940 1.327 . S
C942 C961 1.429 . S
C942 H966 0.950 . S
C943 C960 1.574 . S
C943 C962 1.368 . S
C943 H967 0.949 . S
H944 C948 0.949 . S
C945 C946 1.349 . S
C945 C947 1.327 . S
C945 H968 0.950 . S
C946 C945 1.349 . S
C946 C958 1.349 . S
C947 C945 1.327 . S
C947 C963 1.429 . S
C947 H969 0.950 . S
C948 H944 0.949 . S
C948 C956 1.574 . S
C948 C964 1.368 . S
H949 C957 0.950 . S
H950 C955 0.950 . S
H951 C956 0.949 . S
H952 C958 0.950 . S
H953 C959 0.950 . S
H954 C960 0.949 . S
C955 H950 0.950 . S
C955 C957 1.327 . S
C955 C961 1.429 . S
C956 C948 1.574 . S
C956 H951 0.949 . S
C956 C962 1.368 . S
C957 C941 1.349 . S
C957 H949 0.950 . S
C957 C955 1.327 . S
C958 C946 1.349 . S
C958 H952 0.950 . S
C958 C959 1.327 . S
C959 H953 0.950 . S
C959 C958 1.327 . S
C959 C963 1.429 . S
C960 C943 1.574 . S
C960 H954 0.949 . S
C960 C964 1.368 . S
C961 C942 1.429 . S
C961 C955 1.429 . S
C961 C962 1.523 . S
C962 C943 1.368 . S
C962 C956 1.368 . S
C962 C961 1.523 . S
C963 C947 1.429 . S
C963 C959 1.429 . S
C963 C964 1.523 . S
C964 C948 1.368 . S
C964 C960 1.368 . S
C964 C963 1.523 . S
H965 C940 0.950 . S
H966 C942 0.950 . S
H967 C943 0.949 . S
H968 C945 0.950 . S
H969 C947 0.950 . S
C970 C971 1.349 . S
C970 C972 1.327 . S
C970 H995 0.950 . S
C971 C970 1.349 . S
C971 C987 1.349 . S
C972 C970 1.327 . S
C972 C991 1.429 . S
C972 H996 0.950 . S
C973 C990 1.574 . S
C973 C992 1.368 . S
C973 H997 0.949 . S
H974 C978 0.949 . S
C975 C976 1.349 . S
C975 C977 1.327 . S
C975 H998 0.950 . S
C976 C975 1.349 . S
C976 C988 1.349 . S
C977 C975 1.327 . S
C977 C993 1.429 . S
C977 H999 0.950 . S
C978 H974 0.949 . S
C978 C986 1.574 . S
C978 C994 1.368 . S
H979 C987 0.950 . S
H980 C985 0.950 . S
H981 C986 0.949 . S
H982 C988 0.950 . S
H983 C989 0.950 . S
H984 C990 0.949 . S
C985 H980 0.950 . S
C985 C987 1.327 . S
C985 C991 1.429 . S
C986 C978 1.574 . S
C986 H981 0.949 . S
C986 C992 1.368 . S
C987 C971 1.349 . S
C987 H979 0.950 . S
C987 C985 1.327 . S
C988 C976 1.349 . S
C988 H982 0.950 . S
C988 C989 1.327 . S
C989 H983 0.950 . S
C989 C988 1.327 . S
C989 C993 1.429 . S
C990 C973 1.574 . S
C990 H984 0.949 . S
C990 C994 1.368 . S
C991 C972 1.429 . S
C991 C985 1.429 . S
C991 C992 1.523 . S
C992 C973 1.368 . S
C992 C986 1.368 . S
C992 C991 1.523 . S
C993 C977 1.429 . S
C993 C989 1.429 . S
C993 C994 1.523 . S
C994 C978 1.368 . S
C994 C990 1.368 . S
C994 C993 1.523 . S
H995 C970 0.950 . S
H996 C972 0.950 . S
H997 C973 0.949 . S
H998 C975 0.950 . S
H999 C977 0.950 . S
C1000 C1001 1.349 . S
C1000 C1002 1.327 . S
C1000 H1025 0.950 . S
C1001 C1000 1.349 . S
C1001 C1017 1.349 . S
C1002 C1000 1.327 . S
C1002 C1021 1.429 . S
C1002 H1026 0.950 . S
C1003 C1020 1.574 . S
C1003 C1022 1.368 . S
C1003 H1027 0.949 . S
H1004 C1008 0.949 . S
C1005 C1006 1.349 . S
C1005 C1007 1.327 . S
C1005 H1028 0.950 . S
C1006 C1005 1.349 . S
C1006 C1018 1.349 . S
C1007 C1005 1.327 . S
C1007 C1023 1.429 . S
C1007 H1029 0.950 . S
C1008 H1004 0.949 . S
C1008 C1016 1.574 . S
C1008 C1024 1.368 . S
H1009 C1017 0.950 . S
H1010 C1015 0.950 . S
H1011 C1016 0.949 . S
H1012 C1018 0.950 . S
H1013 C1019 0.950 . S
H1014 C1020 0.949 . S
C1015 H1010 0.950 . S
C1015 C1017 1.327 . S
C1015 C1021 1.429 . S
C1016 C1008 1.574 . S
C1016 H1011 0.949 . S
C1016 C1022 1.368 . S
C1017 C1001 1.349 . S
C1017 H1009 0.950 . S
C1017 C1015 1.327 . S
C1018 C1006 1.349 . S
C1018 H1012 0.950 . S
C1018 C1019 1.327 . S
C1019 H1013 0.950 . S
C1019 C1018 1.327 . S
C1019 C1023 1.429 . S
C1020 C1003 1.574 . S
C1020 H1014 0.949 . S
C1020 C1024 1.368 . S
C1021 C1002 1.429 . S
C1021 C1015 1.429 . S
C1021 C1022 1.523 . S
C1022 C1003 1.368 . S
C1022 C1016 1.368 . S
C1022 C1021 1.523 . S
C1023 C1007 1.429 . S
C1023 C1019 1.429 . S
C1023 C1024 1.523 . S
C1024 C1008 1.368 . S
C1024 C1020 1.368 . S
C1024 C1023 1.523 . S
H1025 C1000 0.950 . S
H1026 C1002 0.950 . S
H1027 C1003 0.949 . S
H1028 C1005 0.950 . S
H1029 C1007 0.950 . S
C1030 C1031 1.349 . S
C1030 C1032 1.327 . S
C1030 H1055 0.950 . S
C1031 C1030 1.349 . S
C1031 C1047 1.349 . S
C1032 C1030 1.327 . S
C1032 C1051 1.429 . S
C1032 H1056 0.950 . S
C1033 C1050 1.574 . S
C1033 C1052 1.368 . S
C1033 H1057 0.949 . S
H1034 C1038 0.949 . S
C1035 C1036 1.349 . S
C1035 C1037 1.327 . S
C1035 H1058 0.950 . S
C1036 C1035 1.349 . S
C1036 C1048 1.349 . S
C1037 C1035 1.327 . S
C1037 C1053 1.429 . S
C1037 H1059 0.950 . S
C1038 H1034 0.949 . S
C1038 C1046 1.574 . S
C1038 C1054 1.368 . S
H1039 C1047 0.950 . S
H1040 C1045 0.950 . S
H1041 C1046 0.949 . S
H1042 C1048 0.950 . S
H1043 C1049 0.950 . S
H1044 C1050 0.949 . S
C1045 H1040 0.950 . S
C1045 C1047 1.327 . S
C1045 C1051 1.429 . S
C1046 C1038 1.574 . S
C1046 H1041 0.949 . S
C1046 C1052 1.368 . S
C1047 C1031 1.349 . S
C1047 H1039 0.950 . S
C1047 C1045 1.327 . S
C1048 C1036 1.349 . S
C1048 H1042 0.950 . S
C1048 C1049 1.327 . S
C1049 H1043 0.950 . S
C1049 C1048 1.327 . S
C1049 C1053 1.429 . S
C1050 C1033 1.574 . S
C1050 H1044 0.949 . S
C1050 C1054 1.368 . S
C1051 C1032 1.429 . S
C1051 C1045 1.429 . S
C1051 C1052 1.523 . S
C1052 C1033 1.368 . S
C1052 C1046 1.368 . S
C1052 C1051 1.523 . S
C1053 C1037 1.429 . S
C1053 C1049 1.429 . S
C1053 C1054 1.523 . S
C1054 C1038 1.368 . S
C1054 C1050 1.368 . S
C1054 C1053 1.523 . S
H1055 C1030 0.950 . S
H1056 C1032 0.950 . S
H1057 C1033 0.949 . S
H1058 C1035 0.950 . S
H1059 C1037 0.950 . S
C1060 C1061 1.349 . S
C1060 C1062 1.327 . S
C1060 H1085 0.950 . S
C1061 C1060 1.349 . S
C1061 C1077 1.349 . S
C1062 C1060 1.327 . S
C1062 C1081 1.429 . S
C1062 H1086 0.950 . S
C1063 C1080 1.574 . S
C1063 C1082 1.368 . S
C1063 H1087 0.949 . S
H1064 C1068 0.949 . S
C1065 C1066 1.349 . S
C1065 C1067 1.327 . S
C1065 H1088 0.950 . S
C1066 C1065 1.349 . S
C1066 C1078 1.349 . S
C1067 C1065 1.327 . S
C1067 C1083 1.429 . S
C1067 H1089 0.950 . S
C1068 H1064 0.949 . S
C1068 C1076 1.574 . S
C1068 C1084 1.368 . S
H1069 C1077 0.950 . S
H1070 C1075 0.950 . S
H1071 C1076 0.949 . S
H1072 C1078 0.950 . S
H1073 C1079 0.950 . S
H1074 C1080 0.949 . S
C1075 H1070 0.950 . S
C1075 C1077 1.327 . S
C1075 C1081 1.429 . S
C1076 C1068 1.574 . S
C1076 H1071 0.949 . S
C1076 C1082 1.368 . S
C1077 C1061 1.349 . S
C1077 H1069 0.950 . S
C1077 C1075 1.327 . S
C1078 C1066 1.349 . S
C1078 H1072 0.950 . S
C1078 C1079 1.327 . S
C1079 H1073 0.950 . S
C1079 C1078 1.327 . S
C1079 C1083 1.429 . S
C1080 C1063 1.574 . S
C1080 H1074 0.949 . S
C1080 C1084 1.368 . S
C1081 C1062 1.429 . S
C1081 C1075 1.429 . S
C1081 C1082 1.523 . S
C1082 C1063 1.368 . S
C1082 C1076 1.368 . S
C1082 C1081 1.523 . S
C1083 C1067 1.429 . S
C1083 C1079 1.429 . S
C1083 C1084 1.523 . S
C1084 C1068 1.368 . S
C1084 C1080 1.368 . S
C1084 C1083 1.523 . S
H1085 C1060 0.950 . S
H1086 C1062 0.950 . S
H1087 C1063 0.949 . S
H1088 C1065 0.950 . S
H1089 C1067 0.950 . S
C1090 C1091 1.349 . S
C1090 C1092 1.327 . S
C1090 H1115 0.950 . S
C1091 C1090 1.349 . S
C1091 C1107 1.349 . S
C1092 C1090 1.327 . S
C1092 C1111 1.429 . S
C1092 H1116 0.950 . S
C1093 C1110 1.574 . S
C1093 C1112 1.368 . S
C1093 H1117 0.949 . S
H1094 C1098 0.949 . S
C1095 C1096 1.349 . S
C1095 C1097 1.327 . S
C1095 H1118 0.950 . S
C1096 C1095 1.349 . S
C1096 C1108 1.349 . S
C1097 C1095 1.327 . S
C1097 C1113 1.429 . S
C1097 H1119 0.950 . S
C1098 H1094 0.949 . S
C1098 C1106 1.574 . S
C1098 C1114 1.368 . S
H1099 C1107 0.950 . S
H1100 C1105 0.950 . S
H1101 C1106 0.949 . S
H1102 C1108 0.950 . S
H1103 C1109 0.950 . S
H1104 C1110 0.949 . S
C1105 H1100 0.950 . S
C1105 C1107 1.327 . S
C1105 C1111 1.429 . S
C1106 C1098 1.574 . S
C1106 H1101 0.949 . S
C1106 C1112 1.368 . S
C1107 C1091 1.349 . S
C1107 H1099 0.950 . S
C1107 C1105 1.327 . S
C1108 C1096 1.349 . S
C1108 H1102 0.950 . S
C1108 C1109 1.327 . S
C1109 H1103 0.950 . S
C1109 C1108 1.327 . S
C1109 C1113 1.429 . S
C1110 C1093 1.574 . S
C1110 H1104 0.949 . S
C1110 C1114 1.368 . S
C1111 C1092 1.429 . S
C1111 C1105 1.429 . S
C1111 C1112 1.523 . S
C1112 C1093 1.368 . S
C1112 C1106 1.368 . S
C1112 C1111 1.523 . S
C1113 C1097 1.429 . S
C1113 C1109 1.429 . S
C1113 C1114 1.523 . S
C1114 C1098 1.368 . S
C1114 C1110 1.368 . S
C1114 C1113 1.523 . S
H1115 C1090 0.950 . S
H1116 C1092 0.950 . S
H1117 C1093 0.949 . S
H1118 C1095 0.950 . S
H1119 C1097 0.950 . S
C1120 C1121 1.349 . S
C1120 C1122 1.327 . S
C1120 H1145 0.950 . S
C1121 C1120 1.349 . S
C1121 C1137 1.349 . S
C1122 C1120 1.327 . S
C1122 C1141 1.429 . S
C1122 H1146 0.950 . S
C1123 C1140 1.574 . S
C1123 C1142 1.368 . S
C1123 H1147 0.949 . S
H1124 C1128 0.949 . S
C1125 C1126 1.349 . S
C1125 C1127 1.327 . S
C1125 H1148 0.950 . S
C1126 C1125 1.349 . S
C1126 C1138 1.349 . S
C1127 C1125 1.327 . S
C1127 C1143 1.429 . S
C1127 H1149 0.950 . S
C1128 H1124 0.949 . S
C1128 C1136 1.574 . S
C1128 C1144 1.368 . S
H1129 C1137 0.950 . S
H1130 C1135 0.950 . S
H1131 C1136 0.949 . S
H1132 C1138 0.950 . S
H1133 C1139 0.950 . S
H1134 C1140 0.949 . S
C1135 H1130 0.950 . S
C1135 C1137 1.327 . S
C1135 C1141 1.429 . S
C1136 C1128 1.574 . S
C1136 H1131 0.949 . S
C1136 C1142 1.368 . S
C1137 C1121 1.349 . S
C1137 H1129 0.950 . S
C1137 C1135 1.327 . S
C1138 C1126 1.349 . S
C1138 H1132 0.950 . S
C1138 C1139 1.327 . S
C1139 H1133 0.950 . S
C1139 C1138 1.327 . S
C1139 C1143 1.429 . S
C1140 C1123 1.574 . S
C1140 H1134 0.949 . S
C1140 C1144 1.368 . S
C1141 C1122 1.429 . S
C1141 C1135 1.429 . S
C1141 C1142 1.523 . S
C1142 C1123 1.368 . S
C1142 C1136 1.368 . S
C1142 C1141 1.523 . S
C1143 C1127 1.429 . S
C1143 C1139 1.429 . S
C1143 C1144 1.523 . S
C1144 C1128 1.368 . S
C1144 C1140 1.368 . S
C1144 C1143 1.523 . S
H1145 C1120 0.950 . S
H1146 C1122 0.950 . S
H1147 C1123 0.949 . S
H1148 C1125 0.950 . S
H1149 C1127 0.950 . S
C1150 C1151 1.349 . S
C1150 C1152 1.327 . S
C1150 H1175 0.950 . S
C1151 C1150 1.349 . S
C1151 C1167 1.349 . S
C1152 C1150 1.327 . S
C1152 C1171 1.429 . S
C1152 H1176 0.950 . S
C1153 C1170 1.574 . S
C1153 C1172 1.368 . S
C1153 H1177 0.949 . S
H1154 C1158 0.949 . S
C1155 C1156 1.349 . S
C1155 C1157 1.327 . S
C1155 H1178 0.950 . S
C1156 C1155 1.349 . S
C1156 C1168 1.349 . S
C1157 C1155 1.327 . S
C1157 C1173 1.429 . S
C1157 H1179 0.950 . S
C1158 H1154 0.949 . S
C1158 C1166 1.574 . S
C1158 C1174 1.368 . S
H1159 C1167 0.950 . S
H1160 C1165 0.950 . S
H1161 C1166 0.949 . S
H1162 C1168 0.950 . S
H1163 C1169 0.950 . S
H1164 C1170 0.949 . S
C1165 H1160 0.950 . S
C1165 C1167 1.327 . S
C1165 C1171 1.429 . S
C1166 C1158 1.574 . S
C1166 H1161 0.949 . S
C1166 C1172 1.368 . S
C1167 C1151 1.349 . S
C1167 H1159 0.950 . S
C1167 C1165 1.327 . S
C1168 C1156 1.349 . S
C1168 H1162 0.950 . S
C1168 C1169 1.327 . S
C1169 H1163 0.950 . S
C1169 C1168 1.327 . S
C1169 C1173 1.429 . S
C1170 C1153 1.574 . S
C1170 H1164 0.949 . S
C1170 C1174 1.368 . S
C1171 C1152 1.429 . S
C1171 C1165 1.429 . S
C1171 C1172 1.523 . S
C1172 C1153 1.368 . S
C1172 C1166 1.368 . S
C1172 C1171 1.523 . S
C1173 C1157 1.429 . S
C1173 C1169 1.429 . S
C1173 C1174 1.523 . S
C1174 C1158 1.368 . S
C1174 C1170 1.368 . S
C1174 C1173 1.523 . S
H1175 C1150 0.950 . S
H1176 C1152 0.950 . S
H1177 C1153 0.949 . S
H1178 C1155 0.950 . S
H1179 C1157 0.950 . S
C1180 C1181 1.349 . S
C1180 C1182 1.327 . S
C1180 H1205 0.950 . S
C1181 C1180 1.349 . S
C1181 C1197 1.349 . S
C1182 C1180 1.327 . S
C1182 C1201 1.429 . S
C1182 H1206 0.950 . S
C1183 C1200 1.574 . S
C1183 C1202 1.368 . S
C1183 H1207 0.949 . S
H1184 C1188 0.949 . S
C1185 C1186 1.349 . S
C1185 C1187 1.327 . S
C1185 H1208 0.950 . S
C1186 C1185 1.349 . S
C1186 C1198 1.349 . S
C1187 C1185 1.327 . S
C1187 C1203 1.429 . S
C1187 H1209 0.950 . S
C1188 H1184 0.949 . S
C1188 C1196 1.574 . S
C1188 C1204 1.368 . S
H1189 C1197 0.950 . S
H1190 C1195 0.950 . S
H1191 C1196 0.949 . S
H1192 C1198 0.950 . S
H1193 C1199 0.950 . S
H1194 C1200 0.949 . S
C1195 H1190 0.950 . S
C1195 C1197 1.327 . S
C1195 C1201 1.429 . S
C1196 C1188 1.574 . S
C1196 H1191 0.949 . S
C1196 C1202 1.368 . S
C1197 C1181 1.349 . S
C1197 H1189 0.950 . S
C1197 C1195 1.327 . S
C1198 C1186 1.349 . S
C1198 H1192 0.950 . S
C1198 C1199 1.327 . S
C1199 H1193 0.950 . S
C1199 C1198 1.327 . S
C1199 C1203 1.429 . S
C1200 C1183 1.574 . S
C1200 H1194 0.949 . S
C1200 C1204 1.368 . S
C1201 C1182 1.429 . S
C1201 C1195 1.429 . S
C1201 C1202 1.523 . S
C1202 C1183 1.368 . S
C1202 C1196 1.368 . S
C1202 C1201 1.523 . S
C1203 C1187 1.429 . S
C1203 C1199 1.429 . S
C1203 C1204 1.523 . S
C1204 C1188 1.368 . S
C1204 C1200 1.368 . S
C1204 C1203 1.523 . S
H1205 C1180 0.950 . S
H1206 C1182 0.950 . S
H1207 C1183 0.949 . S
H1208 C1185 0.950 . S
H1209 C1187 0.950 . S
C1210 C1211 1.349 . S
C1210 C1212 1.327 . S
C1210 H1235 0.950 . S
C1211 C1210 1.349 . S
C1211 C1227 1.349 . S
C1212 C1210 1.327 . S
C1212 C1231 1.429 . S
C1212 H1236 0.950 . S
C1213 C1230 1.574 . S
C1213 C1232 1.368 . S
C1213 H1237 0.949 . S
H1214 C1218 0.949 . S
C1215 C1216 1.349 . S
C1215 C1217 1.327 . S
C1215 H1238 0.950 . S
C1216 C1215 1.349 . S
C1216 C1228 1.349 . S
C1217 C1215 1.327 . S
C1217 C1233 1.429 . S
C1217 H1239 0.950 . S
C1218 H1214 0.949 . S
C1218 C1226 1.574 . S
C1218 C1234 1.368 . S
H1219 C1227 0.950 . S
H1220 C1225 0.950 . S
H1221 C1226 0.949 . S
H1222 C1228 0.950 . S
H1223 C1229 0.950 . S
H1224 C1230 0.949 . S
C1225 H1220 0.950 . S
C1225 C1227 1.327 . S
C1225 C1231 1.429 . S
C1226 C1218 1.574 . S
C1226 H1221 0.949 . S
C1226 C1232 1.368 . S
C1227 C1211 1.349 . S
C1227 H1219 0.950 . S
C1227 C1225 1.327 . S
C1228 C1216 1.349 . S
C1228 H1222 0.950 . S
C1228 C1229 1.327 . S
C1229 H1223 0.950 . S
C1229 C1228 1.327 . S
C1229 C1233 1.429 . S
C1230 C1213 1.574 . S
C1230 H1224 0.949 . S
C1230 C1234 1.368 . S
C1231 C1212 1.429 . S
C1231 C1225 1.429 . S
C1231 C1232 1.523 . S
C1232 C1213 1.368 . S
C1232 C1226 1.368 . S
C1232 C1231 1.523 . S
C1233 C1217 1.429 . S
C1233 C1229 1.429 . S
C1233 C1234 1.523 . S
C1234 C1218 1.368 . S
C1234 C1230 1.368 . S
C1234 C1233 1.523 . S
H1235 C1210 0.950 . S
H1236 C1212 0.950 . S
H1237 C1213 0.949 . S
H1238 C1215 0.950 . S
H1239 C1217 0.950 . S
C1240 C1241 1.349 . S
C1240 C1242 1.327 . S
C1240 H1265 0.950 . S
C1241 C1240 1.349 . S
C1241 C1257 1.349 . S
C1242 C1240 1.327 . S
C1242 C1261 1.429 . S
C1242 H1266 0.950 . S
C1243 C1260 1.574 . S
C1243 C1262 1.368 . S
C1243 H1267 0.949 . S
H1244 C1248 0.949 . S
C1245 C1246 1.349 . S
C1245 C1247 1.327 . S
C1245 H1268 0.950 . S
C1246 C1245 1.349 . S
C1246 C1258 1.349 . S
C1247 C1245 1.327 . S
C1247 C1263 1.429 . S
C1247 H1269 0.950 . S
C1248 H1244 0.949 . S
C1248 C1256 1.574 . S
C1248 C1264 1.368 . S
H1249 C1257 0.950 . S
H1250 C1255 0.950 . S
H1251 C1256 0.949 . S
H1252 C1258 0.950 . S
H1253 C1259 0.950 . S
H1254 C1260 0.949 . S
C1255 H1250 0.950 . S
C1255 C1257 1.327 . S
C1255 C1261 1.429 . S
C1256 C1248 1.574 . S
C1256 H1251 0.949 . S
C1256 C1262 1.368 . S
C1257 C1241 1.349 . S
C1257 H1249 0.950 . S
C1257 C1255 1.327 . S
C1258 C1246 1.349 . S
C1258 H1252 0.950 . S
C1258 C1259 1.327 . S
C1259 H1253 0.950 . S
C1259 C1258 1.327 . S
C1259 C1263 1.429 . S
C1260 C1243 1.574 . S
C1260 H1254 0.949 . S
C1260 C1264 1.368 . S
C1261 C1242 1.429 . S
C1261 C1255 1.429 . S
C1261 C1262 1.523 . S
C1262 C1243 1.368 . S
C1262 C1256 1.368 . S
C1262 C1261 1.523 . S
C1263 C1247 1.429 . S
C1263 C1259 1.429 . S
C1263 C1264 1.523 . S
C1264 C1248 1.368 . S
C1264 C1260 1.368 . S
C1264 C1263 1.523 . S
H1265 C1240 0.950 . S
H1266 C1242 0.950 . S
H1267 C1243 0.949 . S
H1268 C1245 0.950 . S
H1269 C1247 0.950 . S
C1270 C1271 1.349 . S
C1270 C1272 1.327 . S
C1270 H1295 0.950 . S
C1271 C1270 1.349 . S
C1271 C1287 1.349 . S
C1272 C1270 1.327 . S
C1272 C1291 1.429 . S
C1272 H1296 0.950 . S
C1273 C1290 1.574 . S
C1273 C1292 1.368 . S
C1273 H1297 0.949 . S
H1274 C1278 0.949 . S
C1275 C1276 1.349 . S
C1275 C1277 1.327 . S
C1275 H1298 0.950 . S
C1276 C1275 1.349 . S
C1276 C1288 1.349 . S
C1277 C1275 1.327 . S
C1277 C1293 1.429 . S
C1277 H1299 0.950 . S
C1278 H1274 0.949 . S
C1278 C1286 1.574 . S
C1278 C1294 1.368 . S
H1279 C1287 0.950 . S
H1280 C1285 0.950 . S
H1281 C1286 0.949 . S
H1282 C1288 0.950 . S
H1283 C1289 0.950 . S
H1284 C1290 0.949 . S
C1285 H1280 0.950 . S
C1285 C1287 1.327 . S
C1285 C1291 1.429 . S
C1286 C1278 1.574 . S
C1286 H1281 0.949 . S
C1286 C1292 1.368 . S
C1287 C1271 1.349 . S
C1287 H1279 0.950 . S
C1287 C1285 1.327 . S
C1288 C1276 1.349 . S
C1288 H1282 0.950 . S
C1288 C1289 1.327 . S
C1289 H1283 0.950 . S
C1289 C1288 1.327 . S
C1289 C1293 1.429 . S
C1290 C1273 1.574 . S
C1290 H1284 0.949 . S
C1290 C1294 1.368 . S
C1291 C1272 1.429 . S
C1291 C1285 1.429 . S
C1291 C1292 1.523 . S
C1292 C1273 1.368 . S
C1292 C1286 1.368 . S
C1292 C1291 1.523 . S
C1293 C1277 1.429 . S
C1293 C1289 1.429 . S
C1293 C1294 1.523 . S
C1294 C1278 1.368 . S
C1294 C1290 1.368 . S
C1294 C1293 1.523 . S
H1295 C1270 0.950 . S
H1296 C1272 0.950 . S
H1297 C1273 0.949 . S
H1298 C1275 0.950 . S
H1299 C1277 0.950 . S
C1300 C1301 1.349 . S
C1300 C1302 1.327 . S
C1300 H1325 0.950 . S
C1301 C1300 1.349 . S
C1301 C1317 1.349 . S
C1302 C1300 1.327 . S
C1302 C1321 1.429 . S
C1302 H1326 0.950 . S
C1303 C1320 1.574 . S
C1303 C1322 1.368 . S
C1303 H1327 0.949 . S
H1304 C1308 0.949 . S
C1305 C1306 1.349 . S
C1305 C1307 1.327 . S
C1305 H1328 0.950 . S
C1306 C1305 1.349 . S
C1306 C1318 1.349 . S
C1307 C1305 1.327 . S
C1307 C1323 1.429 . S
C1307 H1329 0.950 . S
C1308 H1304 0.949 . S
C1308 C1316 1.574 . S
C1308 C1324 1.368 . S
H1309 C1317 0.950 . S
H1310 C1315 0.950 . S
H1311 C1316 0.949 . S
H1312 C1318 0.950 . S
H1313 C1319 0.950 . S
H1314 C1320 0.949 . S
C1315 H1310 0.950 . S
C1315 C1317 1.327 . S
C1315 C1321 1.429 . S
C1316 C1308 1.574 . S
C1316 H1311 0.949 . S
C1316 C1322 1.368 . S
C1317 C1301 1.349 . S
C1317 H1309 0.950 . S
C1317 C1315 1.327 . S
C1318 C1306 1.349 . S
C1318 H1312 0.950 . S
C1318 C1319 1.327 . S
C1319 H1313 0.950 . S
C1319 C1318 1.327 . S
C1319 C1323 1.429 . S
C1320 C1303 1.574 . S
C1320 H1314 0.949 . S
C1320 C1324 1.368 . S
C1321 C1302 1.429 . S
C1321 C1315 1.429 . S
C1321 C1322 1.523 . S
C1322 C1303 1.368 . S
C1322 C1316 1.368 . S
C1322 C1321 1.523 . S
C1323 C1307 1.429 . S
C1323 C1319 1.429 . S
C1323 C1324 1.523 . S
C1324 C1308 1.368 . S
C1324 C1320 1.368 . S
C1324 C1323 1.523 . S
H1325 C1300 0.950 . S
H1326 C1302 0.950 . S
H1327 C1303 0.949 . S
H1328 C1305 0.950 . S
H1329 C1307 0.950 . S
C1330 C1331 1.349 . S
C1330 C1332 1.327 . S
C1330 H1355 0.950 . S
C1331 C1330 1.349 . S
C1331 C1347 1.349 . S
C1332 C1330 1.327 . S
C1332 C1351 1.429 . S
C1332 H1356 0.950 . S
C1333 C1350 1.574 . S
C1333 C1352 1.368 . S
C1333 H1357 0.949 . S
H1334 C1338 0.949 . S
C1335 C1336 1.349 . S
C1335 C1337 1.327 . S
C1335 H1358 0.950 . S
C1336 C1335 1.349 . S
C1336 C1348 1.349 . S
C1337 C1335 1.327 . S
C1337 C1353 1.429 . S
C1337 H1359 0.950 . S
C1338 H1334 0.949 . S
C1338 C1346 1.574 . S
C1338 C1354 1.368 . S
H1339 C1347 0.950 . S
H1340 C1345 0.950 . S
H1341 C1346 0.949 . S
H1342 C1348 0.950 . S
H1343 C1349 0.950 . S
H1344 C1350 0.949 . S
C1345 H1340 0.950 . S
C1345 C1347 1.327 . S
C1345 C1351 1.429 . S
C1346 C1338 1.574 . S
C1346 H1341 0.949 . S
C1346 C1352 1.368 . S
C1347 C1331 1.349 . S
C1347 H1339 0.950 . S
C1347 C1345 1.327 . S
C1348 C1336 1.349 . S
C1348 H1342 0.950 . S
C1348 C1349 1.327 . S
C1349 H1343 0.950 . S
C1349 C1348 1.327 . S
C1349 C1353 1.429 . S
C1350 C1333 1.574 . S
C1350 H1344 0.949 . S
C1350 C1354 1.368 . S
C1351 C1332 1.429 . S
C1351 C1345 1.429 . S
C1351 C1352 1.523 . S
C1352 C1333 1.368 . S
C1352 C1346 1.368 . S
C1352 C1351 1.523 . S
C1353 C1337 1.429 . S
C1353 C1349 1.429 . S
C1353 C1354 1.523 . S
C1354 C1338 1.368 . S
C1354 C1350 1.368 . S
C1354 C1353 1.523 . S
H1355 C1330 0.950 . S
H1356 C1332 0.950 . S
H1357 C1333 0.949 . S
H1358 C1335 0.950 . S
H1359 C1337 0.950 . S
C1360 C1361 1.349 . S
C1360 C1362 1.327 . S
C1360 H1385 0.950 . S
C1361 C1360 1.349 . S
C1361 C1377 1.349 . S
C1362 C1360 1.327 . S
C1362 C1381 1.429 . S
C1362 H1386 0.950 . S
C1363 C1380 1.574 . S
C1363 C1382 1.368 . S
C1363 H1387 0.949 . S
H1364 C1368 0.949 . S
C1365 C1366 1.349 . S
C1365 C1367 1.327 . S
C1365 H1388 0.950 . S
C1366 C1365 1.349 . S
C1366 C1378 1.349 . S
C1367 C1365 1.327 . S
C1367 C1383 1.429 . S
C1367 H1389 0.950 . S
C1368 H1364 0.949 . S
C1368 C1376 1.574 . S
C1368 C1384 1.368 . S
H1369 C1377 0.950 . S
H1370 C1375 0.950 . S
H1371 C1376 0.949 . S
H1372 C1378 0.950 . S
H1373 C1379 0.950 . S
H1374 C1380 0.949 . S
C1375 H1370 0.950 . S
C1375 C1377 1.327 . S
C1375 C1381 1.429 . S
C1376 C1368 1.574 . S
C1376 H1371 0.949 . S
C1376 C1382 1.368 . S
C1377 C1361 1.349 . S
C1377 H1369 0.950 . S
C1377 C1375 1.327 . S
C1378 C1366 1.349 . S
C1378 H1372 0.950 . S
C1378 C1379 1.327 . S
C1379 H1373 0.950 . S
C1379 C1378 1.327 . S
C1379 C1383 1.429 . S
C1380 C1363 1.574 . S
C1380 H1374 0.949 . S
C1380 C1384 1.368 . S
C1381 C1362 1.429 . S
C1381 C1375 1.429 . S
C1381 C1382 1.523 . S
C1382 C1363 1.368 . S
C1382 C1376 1.368 . S
C1382 C1381 1.523 . S
C1383 C1367 1.429 . S
C1383 C1379 1.429 . S
C1383 C1384 1.523 . S
C1384 C1368 1.368 . S
C1384 C1380 1.368 . S
C1384 C1383 1.523 . S
H1385 C1360 0.950 . S
H1386 C1362 0.950 . S
H1387 C1363 0.949 . S
H1388 C1365 0.950 . S
H1389 C1367 0.950 . S
C1390 C1391 1.349 . S
C1390 C1392 1.327 . S
C1390 H1415 0.950 . S
C1391 C1390 1.349 . S
C1391 C1407 1.349 . S
C1392 C1390 1.327 . S
C1392 C1411 1.429 . S
C1392 H1416 0.950 . S
C1393 C1410 1.574 . S
C1393 C1412 1.368 . S
C1393 H1417 0.949 . S
H1394 C1398 0.949 . S
C1395 C1396 1.349 . S
C1395 C1397 1.327 . S
C1395 H1418 0.950 . S
C1396 C1395 1.349 . S
C1396 C1408 1.349 . S
C1397 C1395 1.327 . S
C1397 C1413 1.429 . S
C1397 H1419 0.950 . S
C1398 H1394 0.949 . S
C1398 C1406 1.574 . S
C1398 C1414 1.368 . S
H1399 C1407 0.950 . S
H1400 C1405 0.950 . S
H1401 C1406 0.949 . S
H1402 C1408 0.950 . S
H1403 C1409 0.950 . S
H1404 C1410 0.949 . S
C1405 H1400 0.950 . S
C1405 C1407 1.327 . S
C1405 C1411 1.429 . S
C1406 C1398 1.574 . S
C1406 H1401 0.949 . S
C1406 C1412 1.368 . S
C1407 C1391 1.349 . S
C1407 H1399 0.950 . S
C1407 C1405 1.327 . S
C1408 C1396 1.349 . S
C1408 H1402 0.950 . S
C1408 C1409 1.327 . S
C1409 H1403 0.950 . S
C1409 C1408 1.327 . S
C1409 C1413 1.429 . S
C1410 C1393 1.574 . S
C1410 H1404 0.949 . S
C1410 C1414 1.368 . S
C1411 C1392 1.429 . S
C1411 C1405 1.429 . S
C1411 C1412 1.523 . S
C1412 C1393 1.368 . S
C1412 C1406 1.368 . S
C1412 C1411 1.523 . S
C1413 C1397 1.429 . S
C1413 C1409 1.429 . S
C1413 C1414 1.523 . S
C1414 C1398 1.368 . S
C1414 C1410 1.368 . S
C1414 C1413 1.523 . S
H1415 C1390 0.950 . S
H1416 C1392 0.950 . S
H1417 C1393 0.949 . S
H1418 C1395 0.950 . S
H1419 C1397 0.950 . S
C1420 C1421 1.349 . S
C1420 C1422 1.327 . S
C1420 H1445 0.950 . S
C1421 C1420 1.349 . S
C1421 C1437 1.349 . S
C1422 C1420 1.327 . S
C1422 C1441 1.429 . S
C1422 H1446 0.950 . S
C1423 C1440 1.574 . S
C1423 C1442 1.368 . S
C1423 H1447 0.949 . S
H1424 C1428 0.949 . S
C1425 C1426 1.349 . S
C1425 C1427 1.327 . S
C1425 H1448 0.950 . S
C1426 C1425 1.349 . S
C1426 C1438 1.349 . S
C1427 C1425 1.327 . S
C1427 C1443 1.429 . S
C1427 H1449 0.950 . S
C1428 H1424 0.949 . S
C1428 C1436 1.574 . S
C1428 C1444 1.368 . S
H1429 C1437 0.950 . S
H1430 C1435 0.950 . S
H1431 C1436 0.949 . S
H1432 C1438 0.950 . S
H1433 C1439 0.950 . S
H1434 C1440 0.949 . S
C1435 H1430 0.950 . S
C1435 C1437 1.327 . S
C1435 C1441 1.429 . S
C1436 C1428 1.574 . S
C1436 H1431 0.949 . S
C1436 C1442 1.368 . S
C1437 C1421 1.349 . S
C1437 H1429 0.950 . S
C1437 C1435 1.327 . S
C1438 C1426 1.349 . S
C1438 H1432 0.950 . S
C1438 C1439 1.327 . S
C1439 H1433 0.950 . S
C1439 C1438 1.327 . S
C1439 C1443 1.429 . S
C1440 C1423 1.574 . S
C1440 H1434 0.949 . S
C1440 C1444 1.368 . S
C1441 C1422 1.429 . S
C1441 C1435 1.429 . S
C1441 C1442 1.523 . S
C1442 C1423 1.368 . S
C1442 C1436 1.368 . S
C1442 C1441 1.523 . S
C1443 C1427 1.429 . S
C1443 C1439 1.429 . S
C1443 C1444 1.523 . S
C1444 C1428 1.368 . S
C1444 C1440 1.368 . S
C1444 C1443 1.523 . S
H1445 C1420 0.950 . S
H1446 C1422 0.950 . S
H1447 C1423 0.949 . S
H1448 C1425 0.950 . S
H1449 C1427 0.950 . S
C1450 C1451 1.349 . S
C1450 C1452 1.327 . S
C1450 H1475 0.950 . S
C1451 C1450 1.349 . S
C1451 C1467 1.349 . S
C1452 C1450 1.327 . S
C1452 C1471 1.429 . S
C1452 H1476 0.950 . S
C1453 C1470 1.574 . S
C1453 C1472 1.368 . S
C1453 H1477 0.949 . S
H1454 C1458 0.949 . S
C1455 C1456 1.349 . S
C1455 C1457 1.327 . S
C1455 H1478 0.950 . S
C1456 C1455 1.349 . S
C1456 C1468 1.349 . S
C1457 C1455 1.327 . S
C1457 C1473 1.429 . S
C1457 H1479 0.950 . S
C1458 H1454 0.949 . S
C1458 C1466 1.574 . S
C1458 C1474 1.368 . S
H1459 C1467 0.950 . S
H1460 C1465 0.950 . S
H1461 C1466 0.949 . S
H1462 C1468 0.950 . S
H1463 C1469 0.950 . S
H1464 C1470 0.949 . S
C1465 H1460 0.950 . S
C1465 C1467 1.327 . S
C1465 C1471 1.429 . S
C1466 C1458 1.574 . S
C1466 H1461 0.949 . S
C1466 C1472 1.368 . S
C1467 C1451 1.349 . S
C1467 H1459 0.950 . S
C1467 C1465 1.327 . S
C1468 C1456 1.349 . S
C1468 H1462 0.950 . S
C1468 C1469 1.327 . S
C1469 H1463 0.950 . S
C1469 C1468 1.327 . S
C1469 C1473 1.429 . S
C1470 C1453 1.574 . S
C1470 H1464 0.949 . S
C1470 C1474 1.368 . S
C1471 C1452 1.429 . S
C1471 C1465 1.429 . S
C1471 C1472 1.523 . S
C1472 C1453 1.368 . S
C1472 C1466 1.368 . S
C1472 C1471 1.523 . S
C1473 C1457 1.429 . S
C1473 C1469 1.429 . S
C1473 C1474 1.523 . S
C1474 C1458 1.368 . S
C1474 C1470 1.368 . S
C1474 C1473 1.523 . S
H1475 C1450 0.950 . S
H1476 C1452 0.950 . S
H1477 C1453 0.949 . S
H1478 C1455 0.950 . S
H1479 C1457 0.950 . S
C1480 C1481 1.349 . S
C1480 C1482 1.327 . S
C1480 H1505 0.950 . S
C1481 C1480 1.349 . S
C1481 C1497 1.349 . S
C1482 C1480 1.327 . S
C1482 C1501 1.429 . S
C1482 H1506 0.950 . S
C1483 C1500 1.574 . S
C1483 C1502 1.368 . S
C1483 H1507 0.949 . S
H1484 C1488 0.949 . S
C1485 C1486 1.349 . S
C1485 C1487 1.327 . S
C1485 H1508 0.950 . S
C1486 C1485 1.349 . S
C1486 C1498 1.349 . S
C1487 C1485 1.327 . S
C1487 C1503 1.429 . S
C1487 H1509 0.950 . S
C1488 H1484 0.949 . S
C1488 C1496 1.574 . S
C1488 C1504 1.368 . S
H1489 C1497 0.950 . S
H1490 C1495 0.950 . S
H1491 C1496 0.949 . S
H1492 C1498 0.950 . S
H1493 C1499 0.950 . S
H1494 C1500 0.949 . S
C1495 H1490 0.950 . S
C1495 C1497 1.327 . S
C1495 C1501 1.429 . S
C1496 C1488 1.574 . S
C1496 H1491 0.949 . S
C1496 C1502 1.368 . S
C1497 C1481 1.349 . S
C1497 H1489 0.950 . S
C1497 C1495 1.327 . S
C1498 C1486 1.349 . S
C1498 H1492 0.950 . S
C1498 C1499 1.327 . S
C1499 H1493 0.950 . S
C1499 C1498 1.327 . S
C1499 C1503 1.429 . S
C1500 C1483 1.574 . S
C1500 H1494 0.949 . S
C1500 C1504 1.368 . S
C1501 C1482 1.429 . S
C1501 C1495 1.429 . S
C1501 C1502 1.523 . S
C1502 C1483 1.368 . S
C1502 C1496 1.368 . S
C1502 C1501 1.523 . S
C1503 C1487 1.429 . S
C1503 C1499 1.429 . S
C1503 C1504 1.523 . S
C1504 C1488 1.368 . S
C1504 C1500 1.368 . S
C1504 C1503 1.523 . S
H1505 C1480 0.950 . S
H1506 C1482 0.950 . S
H1507 C1483 0.949 . S
H1508 C1485 0.950 . S
H1509 C1487 0.950 . S
C1510 C1511 1.349 . S
C1510 C1512 1.327 . S
C1510 H1535 0.950 . S
C1511 C1510 1.349 . S
C1511 C1527 1.349 . S
C1512 C1510 1.327 . S
C1512 C1531 1.429 . S
C1512 H1536 0.950 . S
C1513 C1530 1.574 . S
C1513 C1532 1.368 . S
C1513 H1537 0.949 . S
H1514 C1518 0.949 . S
C1515 C1516 1.349 . S
C1515 C1517 1.327 . S
C1515 H1538 0.950 . S
C1516 C1515 1.349 . S
C1516 C1528 1.349 . S
C1517 C1515 1.327 . S
C1517 C1533 1.429 . S
C1517 H1539 0.950 . S
C1518 H1514 0.949 . S
C1518 C1526 1.574 . S
C1518 C1534 1.368 . S
H1519 C1527 0.950 . S
H1520 C1525 0.950 . S
H1521 C1526 0.949 . S
H1522 C1528 0.950 . S
H1523 C1529 0.950 . S
H1524 C1530 0.949 . S
C1525 H1520 0.950 . S
C1525 C1527 1.327 . S
C1525 C1531 1.429 . S
C1526 C1518 1.574 . S
C1526 H1521 0.949 . S
C1526 C1532 1.368 . S
C1527 C1511 1.349 . S
C1527 H1519 0.950 . S
C1527 C1525 1.327 . S
C1528 C1516 1.349 . S
C1528 H1522 0.950 . S
C1528 C1529 1.327 . S
C1529 H1523 0.950 . S
C1529 C1528 1.327 . S
C1529 C1533 1.429 . S
C1530 C1513 1.574 . S
C1530 H1524 0.949 . S
C1530 C1534 1.368 . S
C1531 C1512 1.429 . S
C1531 C1525 1.429 . S
C1531 C1532 1.523 . S
C1532 C1513 1.368 . S
C1532 C1526 1.368 . S
C1532 C1531 1.523 . S
C1533 C1517 1.429 . S
C1533 C1529 1.429 . S
C1533 C1534 1.523 . S
C1534 C1518 1.368 . S
C1534 C1530 1.368 . S
C1534 C1533 1.523 . S
H1535 C1510 0.950 . S
H1536 C1512 0.950 . S
H1537 C1513 0.949 . S
H1538 C1515 0.950 . S
H1539 C1517 0.950 . S
C1540 C1541 1.349 . S
C1540 C1542 1.327 . S
C1540 H1565 0.950 . S
C1541 C1540 1.349 . S
C1541 C1557 1.349 . S
C1542 C1540 1.327 . S
C1542 C1561 1.429 . S
C1542 H1566 0.950 . S
C1543 C1560 1.574 . S
C1543 C1562 1.368 . S
C1543 H1567 0.949 . S
H1544 C1548 0.949 . S
C1545 C1546 1.349 . S
C1545 C1547 1.327 . S
C1545 H1568 0.950 . S
C1546 C1545 1.349 . S
C1546 C1558 1.349 . S
C1547 C1545 1.327 . S
C1547 C1563 1.429 . S
C1547 H1569 0.950 . S
C1548 H1544 0.949 . S
C1548 C1556 1.574 . S
C1548 C1564 1.368 . S
H1549 C1557 0.950 . S
H1550 C1555 0.950 . S
H1551 C1556 0.949 . S
H1552 C1558 0.950 . S
H1553 C1559 0.950 . S
H1554 C1560 0.949 . S
C1555 H1550 0.950 . S
C1555 C1557 1.327 . S
C1555 C1561 1.429 . S
C1556 C1548 1.574 . S
C1556 H1551 0.949 . S
C1556 C1562 1.368 . S
C1557 C1541 1.349 . S
C1557 H1549 0.950 . S
C1557 C1555 1.327 . S
C1558 C1546 1.349 . S
C1558 H1552 0.950 . S
C1558 C1559 1.327 . S
C1559 H1553 0.950 . S
C1559 C1558 1.327 . S
C1559 C1563 1.429 . S
C1560 C1543 1.574 . S
C1560 H1554 0.949 . S
C1560 C1564 1.368 . S
C1561 C1542 1.429 . S
C1561 C1555 1.429 . S
C1561 C1562 1.523 . S
C1562 C1543 1.368 . S
C1562 C1556 1.368 . S
C1562 C1561 1.523 . S
C1563 C1547 1.429 . S
C1563 C1559 1.429 . S
C1563 C1564 1.523 . S
C1564 C1548 1.368 . S
C1564 C1560 1.368 . S
C1564 C1563 1.523 . S
H1565 C1540 0.950 . S
H1566 C1542 0.950 . S
H1567 C1543 0.949 . S
H1568 C1545 0.950 . S
H1569 C1547 0.950 . S
C1570 C1571 1.349 . S
C1570 C1572 1.327 . S
C1570 H1595 0.950 . S
C1571 C1570 1.349 . S
C1571 C1587 1.349 . S
C1572 C1570 1.327 . S
C1572 C1591 1.429 . S
C1572 H1596 0.950 . S
C1573 C1590 1.574 . S
C1573 C1592 1.368 . S
C1573 H1597 0.949 . S
H1574 C1578 0.949 . S
C1575 C1576 1.349 . S
C1575 C1577 1.327 . S
C1575 H1598 0.950 . S
C1576 C1575 1.349 . S
C1576 C1588 1.349 . S
C1577 C1575 1.327 . S
C1577 C1593 1.429 . S
C1577 H1599 0.950 . S
C1578 H1574 0.949 . S
C1578 C1586 1.574 . S
C1578 C1594 1.368 . S
H1579 C1587 0.950 . S
H1580 C1585 0.950 . S
H1581 C1586 0.949 . S
H1582 C1588 0.950 . S
H1583 C1589 0.950 . S
H1584 C1590 0.949 . S
C1585 H1580 0.950 . S
C1585 C1587 1.327 . S
C1585 C1591 1.429 . S
C1586 C1578 1.574 . S
C1586 H1581 0.949 . S
C1586 C1592 1.368 . S
C1587 C1571 1.349 . S
C1587 H1579 0.950 . S
C1587 C1585 1.327 . S
C1588 C1576 1.349 . S
C1588 H1582 0.950 . S
C1588 C1589 1.327 . S
C1589 H1583 0.950 . S
C1589 C1588 1.327 . S
C1589 C1593 1.429 . S
C1590 C1573 1.574 . S
C1590 H1584 0.949 . S
C1590 C1594 1.368 . S
C1591 C1572 1.429 . S
C1591 C1585 1.429 . S
C1591 C1592 1.523 . S
C1592 C1573 1.368 . S
C1592 C1586 1.368 . S
C1592 C1591 1.523 . S
C1593 C1577 1.429 . S
C1593 C1589 1.429 . S
C1593 C1594 1.523 . S
C1594 C1578 1.368 . S
C1594 C1590 1.368 . S
C1594 C1593 1.523 . S
H1595 C1570 0.950 . S
H1596 C1572 0.950 . S
H1597 C1573 0.949 . S
H1598 C1575 0.950 . S
H1599 C1577 0.950 . S
C1600 C1601 1.349 . S
C1600 C1602 1.327 . S
C1600 H1625 0.950 . S
C1601 C1600 1.349 . S
C1601 C1617 1.349 . S
C1602 C1600 1.327 . S
C1602 C1621 1.429 . S
C1602 H1626 0.950 . S
C1603 C1620 1.574 . S
C1603 C1622 1.368 . S
C1603 H1627 0.949 . S
H1604 C1608 0.949 . S
C1605 C1606 1.349 . S
C1605 C1607 1.327 . S
C1605 H1628 0.950 . S
C1606 C1605 1.349 . S
C1606 C1618 1.349 . S
C1607 C1605 1.327 . S
C1607 C1623 1.429 . S
C1607 H1629 0.950 . S
C1608 H1604 0.949 . S
C1608 C1616 1.574 . S
C1608 C1624 1.368 . S
H1609 C1617 0.950 . S
H1610 C1615 0.950 . S
H1611 C1616 0.949 . S
H1612 C1618 0.950 . S
H1613 C1619 0.950 . S
H1614 C1620 0.949 . S
C1615 H1610 0.950 . S
C1615 C1617 1.327 . S
C1615 C1621 1.429 . S
C1616 C1608 1.574 . S
C1616 H1611 0.949 . S
C1616 C1622 1.368 . S
C1617 C1601 1.349 . S
C1617 H1609 0.950 . S
C1617 C1615 1.327 . S
C1618 C1606 1.349 . S
C1618 H1612 0.950 . S
C1618 C1619 1.327 . S
C1619 H1613 0.950 . S
C1619 C1618 1.327 . S
C1619 C1623 1.429 . S
C1620 C1603 1.574 . S
C1620 H1614 0.949 . S
C1620 C1624 1.368 . S
C1621 C1602 1.429 . S
C1621 C1615 1.429 . S
C1621 C1622 1.523 . S
C1622 C1603 1.368 . S
C1622 C1616 1.368 . S
C1622 C1621 1.523 . S
C1623 C1607 1.429 . S
C1623 C1619 1.429 . S
C1623 C1624 1.523 . S
C1624 C1608 1.368 . S
C1624 C1620 1.368 . S
C1624 C1623 1.523 . S
H1625 C1600 0.950 . S
H1626 C1602 0.950 . S
H1627 C1603 0.949 . S
H1628 C1605 0.950 . S
H1629 C1607 0.950 . S
C1630 C1631 1.349 . S
C1630 C1632 1.327 . S
C1630 H1655 0.950 . S
C1631 C1630 1.349 . S
C1631 C1647 1.349 . S
C1632 C1630 1.327 . S
C1632 C1651 1.429 . S
C1632 H1656 0.950 . S
C1633 C1650 1.574 . S
C1633 C1652 1.368 . S
C1633 H1657 0.949 . S
H1634 C1638 0.949 . S
C1635 C1636 1.349 . S
C1635 C1637 1.327 . S
C1635 H1658 0.950 . S
C1636 C1635 1.349 . S
C1636 C1648 1.349 . S
C1637 C1635 1.327 . S
C1637 C1653 1.429 . S
C1637 H1659 0.950 . S
C1638 H1634 0.949 . S
C1638 C1646 1.574 . S
C1638 C1654 1.368 . S
H1639 C1647 0.950 . S
H1640 C1645 0.950 . S
H1641 C1646 0.949 . S
H1642 C1648 0.950 . S
H1643 C1649 0.950 . S
H1644 C1650 0.949 . S
C1645 H1640 0.950 . S
C1645 C1647 1.327 . S
C1645 C1651 1.429 . S
C1646 C1638 1.574 . S
C1646 H1641 0.949 . S
C1646 C1652 1.368 . S
C1647 C1631 1.349 . S
C1647 H1639 0.950 . S
C1647 C1645 1.327 . S
C1648 C1636 1.349 . S
C1648 H1642 0.950 . S
C1648 C1649 1.327 . S
C1649 H1643 0.950 . S
C1649 C1648 1.327 . S
C1649 C1653 1.429 . S
C1650 C1633 1.574 . S
C1650 H1644 0.949 . S
C1650 C1654 1.368 . S
C1651 C1632 1.429 . S
C1651 C1645 1.429 . S
C1651 C1652 1.523 . S
C1652 C1633 1.368 . S
C1652 C1646 1.368 . S
C1652 C1651 1.523 . S
C1653 C1637 1.429 . S
C1653 C1649 1.429 . S
C1653 C1654 1.523 . S
C1654 C1638 1.368 . S
C1654 C1650 1.368 . S
C1654 C1653 1.523 . S
H1655 C1630 0.950 . S
H1656 C1632 0.950 . S
H1657 C1633 0.949 . S
H1658 C1635 0.950 . S
H1659 C1637 0.950 . S
C1660 C1661 1.349 . S
C1660 C1662 1.327 . S
C1660 H1685 0.950 . S
C1661 C1660 1.349 . S
C1661 C1677 1.349 . S
C1662 C1660 1.327 . S
C1662 C1681 1.429 . S
C1662 H1686 0.950 . S
C1663 C1680 1.574 . S
C1663 C1682 1.368 . S
C1663 H1687 0.949 . S
H1664 C1668 0.949 . S
C1665 C1666 1.349 . S
C1665 C1667 1.327 . S
C1665 H1688 0.950 . S
C1666 C1665 1.349 . S
C1666 C1678 1.349 . S
C1667 C1665 1.327 . S
C1667 C1683 1.429 . S
C1667 H1689 0.950 . S
C1668 H1664 0.949 . S
C1668 C1676 1.574 . S
C1668 C1684 1.368 . S
H1669 C1677 0.950 . S
H1670 C1675 0.950 . S
H1671 C1676 0.949 . S
H1672 C1678 0.950 . S
H1673 C1679 0.950 . S
H1674 C1680 0.949 . S
C1675 H1670 0.950 . S
C1675 C1677 1.327 . S
C1675 C1681 1.429 . S
C1676 C1668 1.574 . S
C1676 H1671 0.949 . S
C1676 C1682 1.368 . S
C1677 C1661 1.349 . S
C1677 H1669 0.950 . S
C1677 C1675 1.327 . S
C1678 C1666 1.349 . S
C1678 H1672 0.950 . S
C1678 C1679 1.327 . S
C1679 H1673 0.950 . S
C1679 C1678 1.327 . S
C1679 C1683 1.429 . S
C1680 C1663 1.574 . S
C1680 H1674 0.949 . S
C1680 C1684 1.368 . S
C1681 C1662 1.429 . S
C1681 C1675 1.429 . S
C1681 C1682 1.523 . S
C1682 C1663 1.368 . S
C1682 C1676 1.368 . S
C1682 C1681 1.523 . S
C1683 C1667 1.429 . S
C1683 C1679 1.429 . S
C1683 C1684 1.523 . S
C1684 C1668 1.368 . S
C1684 C1680 1.368 . S
C1684 C1683 1.523 . S
H1685 C1660 0.950 . S
H1686 C1662 0.950 . S
H1687 C1663 0.949 . S
H1688 C1665 0.950 . S
H1689 C1667 0.950 . S
C1690 C1691 1.349 . S
C1690 C1692 1.327 . S
C1690 H1715 0.950 . S
C1691 C1690 1.349 . S
C1691 C1707 1.349 . S
C1692 C1690 1.327 . S
C1692 C1711 1.429 . S
C1692 H1716 0.950 . S
C1693 C1710 1.574 . S
C1693 C1712 1.368 . S
C1693 H1717 0.949 . S
H1694 C1698 0.949 . S
C1695 C1696 1.349 . S
C1695 C1697 1.327 . S
C1695 H1718 0.950 . S
C1696 C1695 1.349 . S
C1696 C1708 1.349 . S
C1697 C1695 1.327 . S
C1697 C1713 1.429 . S
C1697 H1719 0.950 . S
C1698 H1694 0.949 . S
C1698 C1706 1.574 . S
C1698 C1714 1.368 . S
H1699 C1707 0.950 . S
H1700 C1705 0.950 . S
H1701 C1706 0.949 . S
H1702 C1708 0.950 . S
H1703 C1709 0.950 . S
H1704 C1710 0.949 . S
C1705 H1700 0.950 . S
C1705 C1707 1.327 . S
C1705 C1711 1.429 . S
C1706 C1698 1.574 . S
C1706 H1701 0.949 . S
C1706 C1712 1.368 . S
C1707 C1691 1.349 . S
C1707 H1699 0.950 . S
C1707 C1705 1.327 . S
C1708 C1696 1.349 . S
C1708 H1702 0.950 . S
C1708 C1709 1.327 . S
C1709 H1703 0.950 . S
C1709 C1708 1.327 . S
C1709 C1713 1.429 . S
C1710 C1693 1.574 . S
C1710 H1704 0.949 . S
C1710 C1714 1.368 . S
C1711 C1692 1.429 . S
C1711 C1705 1.429 . S
C1711 C1712 1.523 . S
C1712 C1693 1.368 . S
C1712 C1706 1.368 . S
C1712 C1711 1.523 . S
C1713 C1697 1.429 . S
C1713 C1709 1.429 . S
C1713 C1714 1.523 . S
C1714 C1698 1.368 . S
C1714 C1710 1.368 . S
C1714 C1713 1.523 . S
H1715 C1690 0.950 . S
H1716 C1692 0.950 . S
H1717 C1693 0.949 . S
H1718 C1695 0.950 . S
H1719 C1697 0.950 . S
C1720 C1721 1.349 . S
C1720 C1722 1.327 . S
C1720 H1745 0.950 . S
C1721 C1720 1.349 . S
C1721 C1737 1.349 . S
C1722 C1720 1.327 . S
C1722 C1741 1.429 . S
C1722 H1746 0.950 . S
C1723 C1740 1.574 . S
C1723 C1742 1.368 . S
C1723 H1747 0.949 . S
H1724 C1728 0.949 . S
C1725 C1726 1.349 . S
C1725 C1727 1.327 . S
C1725 H1748 0.950 . S
C1726 C1725 1.349 . S
C1726 C1738 1.349 . S
C1727 C1725 1.327 . S
C1727 C1743 1.429 . S
C1727 H1749 0.950 . S
C1728 H1724 0.949 . S
C1728 C1736 1.574 . S
C1728 C1744 1.368 . S
H1729 C1737 0.950 . S
H1730 C1735 0.950 . S
H1731 C1736 0.949 . S
H1732 C1738 0.950 . S
H1733 C1739 0.950 . S
H1734 C1740 0.949 . S
C1735 H1730 0.950 . S
C1735 C1737 1.327 . S
C1735 C1741 1.429 . S
C1736 C1728 1.574 . S
C1736 H1731 0.949 . S
C1736 C1742 1.368 . S
C1737 C1721 1.349 . S
C1737 H1729 0.950 . S
C1737 C1735 1.327 . S
C1738 C1726 1.349 . S
C1738 H1732 0.950 . S
C1738 C1739 1.327 . S
C1739 H1733 0.950 . S
C1739 C1738 1.327 . S
C1739 C1743 1.429 . S
C1740 C1723 1.574 . S
C1740 H1734 0.949 . S
C1740 C1744 1.368 . S
C1741 C1722 1.429 . S
C1741 C1735 1.429 . S
C1741 C1742 1.523 . S
C1742 C1723 1.368 . S
C1742 C1736 1.368 . S
C1742 C1741 1.523 . S
C1743 C1727 1.429 . S
C1743 C1739 1.429 . S
C1743 C1744 1.523 . S
C1744 C1728 1.368 . S
C1744 C1740 1.368 . S
C1744 C1743 1.523 . S
H1745 C1720 0.950 . S
H1746 C1722 0.950 . S
H1747 C1723 0.949 . S
H1748 C1725 0.950 . S
H1749 C1727 0.950 . S
C1750 C1751 1.349 . S
C1750 C1752 1.327 . S
C1750 H1775 0.950 . S
C1751 C1750 1.349 . S
C1751 C1767 1.349 . S
C1752 C1750 1.327 . S
C1752 C1771 1.429 . S
C1752 H1776 0.950 . S
C1753 C1770 1.574 . S
C1753 C1772 1.368 . S
C1753 H1777 0.949 . S
H1754 C1758 0.949 . S
C1755 C1756 1.349 . S
C1755 C1757 1.327 . S
C1755 H1778 0.950 . S
C1756 C1755 1.349 . S
C1756 C1768 1.349 . S
C1757 C1755 1.327 . S
C1757 C1773 1.429 . S
C1757 H1779 0.950 . S
C1758 H1754 0.949 . S
C1758 C1766 1.574 . S
C1758 C1774 1.368 . S
H1759 C1767 0.950 . S
H1760 C1765 0.950 . S
H1761 C1766 0.949 . S
H1762 C1768 0.950 . S
H1763 C1769 0.950 . S
H1764 C1770 0.949 . S
C1765 H1760 0.950 . S
C1765 C1767 1.327 . S
C1765 C1771 1.429 . S
C1766 C1758 1.574 . S
C1766 H1761 0.949 . S
C1766 C1772 1.368 . S
C1767 C1751 1.349 . S
C1767 H1759 0.950 . S
C1767 C1765 1.327 . S
C1768 C1756 1.349 . S
C1768 H1762 0.950 . S
C1768 C1769 1.327 . S
C1769 H1763 0.950 . S
C1769 C1768 1.327 . S
C1769 C1773 1.429 . S
C1770 C1753 1.574 . S
C1770 H1764 0.949 . S
C1770 C1774 1.368 . S
C1771 C1752 1.429 . S
C1771 C1765 1.429 . S
C1771 C1772 1.523 . S
C1772 C1753 1.368 . S
C1772 C1766 1.368 . S
C1772 C1771 1.523 . S
C1773 C1757 1.429 . S
C1773 C1769 1.429 . S
C1773 C1774 1.523 . S
C1774 C1758 1.368 . S
C1774 C1770 1.368 . S
C1774 C1773 1.523 . S
H1775 C1750 0.950 . S
H1776 C1752 0.950 . S
H1777 C1753 0.949 . S
H1778 C1755 0.950 . S
H1779 C1757 0.950 . S
C1780 C1781 1.349 . S
C1780 C1782 1.327 . S
C1780 H1805 0.950 . S
C1781 C1780 1.349 . S
C1781 C1797 1.349 . S
C1782 C1780 1.327 . S
C1782 C1801 1.429 . S
C1782 H1806 0.950 . S
C1783 C1800 1.574 . S
C1783 C1802 1.368 . S
C1783 H1807 0.949 . S
H1784 C1788 0.949 . S
C1785 C1786 1.349 . S
C1785 C1787 1.327 . S
C1785 H1808 0.950 . S
C1786 C1785 1.349 . S
C1786 C1798 1.349 . S
C1787 C1785 1.327 . S
C1787 C1803 1.429 . S
C1787 H1809 0.950 . S
C1788 H1784 0.949 . S
C1788 C1796 1.574 . S
C1788 C1804 1.368 . S
H1789 C1797 0.950 . S
H1790 C1795 0.950 . S
H1791 C1796 0.949 . S
H1792 C1798 0.950 . S
H1793 C1799 0.950 . S
H1794 C1800 0.949 . S
C1795 H1790 0.950 . S
C1795 C1797 1.327 . S
C1795 C1801 1.429 . S
C1796 C1788 1.574 . S
C1796 H1791 0.949 . S
C1796 C1802 1.368 . S
C1797 C1781 1.349 . S
C1797 H1789 0.950 . S
C1797 C1795 1.327 . S
C1798 C1786 1.349 . S
C1798 H1792 0.950 . S
C1798 C1799 1.327 . S
C1799 H1793 0.950 . S
C1799 C1798 1.327 . S
C1799 C1803 1.429 . S
C1800 C1783 1.574 . S
C1800 H1794 0.949 . S
C1800 C1804 1.368 . S
C1801 C1782 1.429 . S
C1801 C1795 1.429 . S
C1801 C1802 1.523 . S
C1802 C1783 1.368 . S
C1802 C1796 1.368 . S
C1802 C1801 1.523 . S
C1803 C1787 1.429 . S
C1803 C1799 1.429 . S
C1803 C1804 1.523 . S
C1804 C1788 1.368 . S
C1804 C1800 1.368 . S
C1804 C1803 1.523 . S
H1805 C1780 0.950 . S
H1806 C1782 0.950 . S
H1807 C1783 0.949 . S
H1808 C1785 0.950 . S
H1809 C1787 0.950 . S
C1810 C1811 1.349 . S
C1810 C1812 1.327 . S
C1810 H1835 0.950 . S
C1811 C1810 1.349 . S
C1811 C1827 1.349 . S
C1812 C1810 1.327 . S
C1812 C1831 1.429 . S
C1812 H1836 0.950 . S
C1813 C1830 1.574 . S
C1813 C1832 1.368 . S
C1813 H1837 0.949 . S
H1814 C1818 0.949 . S
C1815 C1816 1.349 . S
C1815 C1817 1.327 . S
C1815 H1838 0.950 . S
C1816 C1815 1.349 . S
C1816 C1828 1.349 . S
C1817 C1815 1.327 . S
C1817 C1833 1.429 . S
C1817 H1839 0.950 . S
C1818 H1814 0.949 . S
C1818 C1826 1.574 . S
C1818 C1834 1.368 . S
H1819 C1827 0.950 . S
H1820 C1825 0.950 . S
H1821 C1826 0.949 . S
H1822 C1828 0.950 . S
H1823 C1829 0.950 . S
H1824 C1830 0.949 . S
C1825 H1820 0.950 . S
C1825 C1827 1.327 . S
C1825 C1831 1.429 . S
C1826 C1818 1.574 . S
C1826 H1821 0.949 . S
C1826 C1832 1.368 . S
C1827 C1811 1.349 . S
C1827 H1819 0.950 . S
C1827 C1825 1.327 . S
C1828 C1816 1.349 . S
C1828 H1822 0.950 . S
C1828 C1829 1.327 . S
C1829 H1823 0.950 . S
C1829 C1828 1.327 . S
C1829 C1833 1.429 . S
C1830 C1813 1.574 . S
C1830 H1824 0.949 . S
C1830 C1834 1.368 . S
C1831 C1812 1.429 . S
C1831 C1825 1.429 . S
C1831 C1832 1.523 . S
C1832 C1813 1.368 . S
C1832 C1826 1.368 . S
C1832 C1831 1.523 . S
C1833 C1817 1.429 . S
C1833 C1829 1.429 . S
C1833 C1834 1.523 . S
C1834 C1818 1.368 . S
C1834 C1830 1.368 . S
C1834 C1833 1.523 . S
H1835 C1810 0.950 . S
H1836 C1812 0.950 . S
H1837 C1813 0.949 . S
H1838 C1815 0.950 . S
H1839 C1817 0.950 . S
C1840 C1841 1.349 . S
C1840 C1842 1.327 . S
C1840 H1865 0.950 . S
C1841 C1840 1.349 . S
C1841 C1857 1.349 . S
C1842 C1840 1.327 . S
C1842 C1861 1.429 . S
C1842 H1866 0.950 . S
C1843 C1860 1.574 . S
C1843 C1862 1.368 . S
C1843 H1867 0.949 . S
H1844 C1848 0.949 . S
C1845 C1846 1.349 . S
C1845 C1847 1.327 . S
C1845 H1868 0.950 . S
C1846 C1845 1.349 . S
C1846 C1858 1.349 . S
C1847 C1845 1.327 . S
C1847 C1863 1.429 . S
C1847 H1869 0.950 . S
C1848 H1844 0.949 . S
C1848 C1856 1.574 . S
C1848 C1864 1.368 . S
H1849 C1857 0.950 . S
H1850 C1855 0.950 . S
H1851 C1856 0.949 . S
H1852 C1858 0.950 . S
H1853 C1859 0.950 . S
H1854 C1860 0.949 . S
C1855 H1850 0.950 . S
C1855 C1857 1.327 . S
C1855 C1861 1.429 . S
C1856 C1848 1.574 . S
C1856 H1851 0.949 . S
C1856 C1862 1.368 . S
C1857 C1841 1.349 . S
C1857 H1849 0.950 . S
C1857 C1855 1.327 . S
C1858 C1846 1.349 . S
C1858 H1852 0.950 . S
C1858 C1859 1.327 . S
C1859 H1853 0.950 . S
C1859 C1858 1.327 . S
C1859 C1863 1.429 . S
C1860 C1843 1.574 . S
C1860 H1854 0.949 . S
C1860 C1864 1.368 . S
C1861 C1842 1.429 . S
C1861 C1855 1.429 . S
C1861 C1862 1.523 . S
C1862 C1843 1.368 . S
C1862 C1856 1.368 . S
C1862 C1861 1.523 . S
C1863 C1847 1.429 . S
C1863 C1859 1.429 . S
C1863 C1864 1.523 . S
C1864 C1848 1.368 . S
C1864 C1860 1.368 . S
C1864 C1863 1.523 . S
H1865 C1840 0.950 . S
H1866 C1842 0.950 . S
H1867 C1843 0.949 . S
H1868 C1845 0.950 . S
H1869 C1847 0.950 . S
C1870 C1871 1.349 . S
C1870 C1872 1.327 . S
C1870 H1895 0.950 . S
C1871 C1870 1.349 . S
C1871 C1887 1.349 . S
C1872 C1870 1.327 . S
C1872 C1891 1.429 . S
C1872 H1896 0.950 . S
C1873 C1890 1.574 . S
C1873 C1892 1.368 . S
C1873 H1897 0.949 . S
H1874 C1878 0.949 . S
C1875 C1876 1.349 . S
C1875 C1877 1.327 . S
C1875 H1898 0.950 . S
C1876 C1875 1.349 . S
C1876 C1888 1.349 . S
C1877 C1875 1.327 . S
C1877 C1893 1.429 . S
C1877 H1899 0.950 . S
C1878 H1874 0.949 . S
C1878 C1886 1.574 . S
C1878 C1894 1.368 . S
H1879 C1887 0.950 . S
H1880 C1885 0.950 . S
H1881 C1886 0.949 . S
H1882 C1888 0.950 . S
H1883 C1889 0.950 . S
H1884 C1890 0.949 . S
C1885 H1880 0.950 . S
C1885 C1887 1.327 . S
C1885 C1891 1.429 . S
C1886 C1878 1.574 . S
C1886 H1881 0.949 . S
C1886 C1892 1.368 . S
C1887 C1871 1.349 . S
C1887 H1879 0.950 . S
C1887 C1885 1.327 . S
C1888 C1876 1.349 . S
C1888 H1882 0.950 . S
C1888 C1889 1.327 . S
C1889 H1883 0.950 . S
C1889 C1888 1.327 . S
C1889 C1893 1.429 . S
C1890 C1873 1.574 . S
C1890 H1884 0.949 . S
C1890 C1894 1.368 . S
C1891 C1872 1.429 . S
C1891 C1885 1.429 . S
C1891 C1892 1.523 . S
C1892 C1873 1.368 . S
C1892 C1886 1.368 . S
C1892 C1891 1.523 . S
C1893 C1877 1.429 . S
C1893 C1889 1.429 . S
C1893 C1894 1.523 . S
C1894 C1878 1.368 . S
C1894 C1890 1.368 . S
C1894 C1893 1.523 . S
H1895 C1870 0.950 . S
H1896 C1872 0.950 . S
H1897 C1873 0.949 . S
H1898 C1875 0.950 . S
H1899 C1877 0.950 . S
C1900 C1901 1.349 . S
C1900 C1902 1.327 . S
C1900 H1925 0.950 . S
C1901 C1900 1.349 . S
C1901 C1917 1.349 . S
C1902 C1900 1.327 . S
C1902 C1921 1.429 . S
C1902 H1926 0.950 . S
C1903 C1920 1.574 . S
C1903 C1922 1.368 . S
C1903 H1927 0.949 . S
H1904 C1908 0.949 . S
C1905 C1906 1.349 . S
C1905 C1907 1.327 . S
C1905 H1928 0.950 . S
C1906 C1905 1.349 . S
C1906 C1918 1.349 . S
C1907 C1905 1.327 . S
C1907 C1923 1.429 . S
C1907 H1929 0.950 . S
C1908 H1904 0.949 . S
C1908 C1916 1.574 . S
C1908 C1924 1.368 . S
H1909 C1917 0.950 . S
H1910 C1915 0.950 . S
H1911 C1916 0.949 . S
H1912 C1918 0.950 . S
H1913 C1919 0.950 . S
H1914 C1920 0.949 . S
C1915 H1910 0.950 . S
C1915 C1917 1.327 . S
C1915 C1921 1.429 . S
C1916 C1908 1.574 . S
C1916 H1911 0.949 . S
C1916 C1922 1.368 . S
C1917 C1901 1.349 . S
C1917 H1909 0.950 . S
C1917 C1915 1.327 . S
C1918 C1906 1.349 . S
C1918 H1912 0.950 . S
C1918 C1919 1.327 . S
C1919 H1913 0.950 . S
C1919 C1918 1.327 . S
C1919 C1923 1.429 . S
C1920 C1903 1.574 . S
C1920 H1914 0.949 . S
C1920 C1924 1.368 . S
C1921 C1902 1.429 . S
C1921 C1915 1.429 . S
C1921 C1922 1.523 . S
C1922 C1903 1.368 . S
C1922 C1916 1.368 . S
C1922 C1921 1.523 . S
C1923 C1907 1.429 . S
C1923 C1919 1.429 . S
C1923 C1924 1.523 . S
C1924 C1908 1.368 . S
C1924 C1920 1.368 . S
C1924 C1923 1.523 . S
H1925 C1900 0.950 . S
H1926 C1902 0.950 . S
H1927 C1903 0.949 . S
H1928 C1905 0.950 . S
H1929 C1907 0.950 . S
C1930 C1931 1.349 . S
C1930 C1932 1.327 . S
C1930 H1955 0.950 . S
C1931 C1930 1.349 . S
C1931 C1947 1.349 . S
C1932 C1930 1.327 . S
C1932 C1951 1.429 . S
C1932 H1956 0.950 . S
C1933 C1950 1.574 . S
C1933 C1952 1.368 . S
C1933 H1957 0.949 . S
H1934 C1938 0.949 . S
C1935 C1936 1.349 . S
C1935 C1937 1.327 . S
C1935 H1958 0.950 . S
C1936 C1935 1.349 . S
C1936 C1948 1.349 . S
C1937 C1935 1.327 . S
C1937 C1953 1.429 . S
C1937 H1959 0.950 . S
C1938 H1934 0.949 . S
C1938 C1946 1.574 . S
C1938 C1954 1.368 . S
H1939 C1947 0.950 . S
H1940 C1945 0.950 . S
H1941 C1946 0.949 . S
H1942 C1948 0.950 . S
H1943 C1949 0.950 . S
H1944 C1950 0.949 . S
C1945 H1940 0.950 . S
C1945 C1947 1.327 . S
C1945 C1951 1.429 . S
C1946 C1938 1.574 . S
C1946 H1941 0.949 . S
C1946 C1952 1.368 . S
C1947 C1931 1.349 . S
C1947 H1939 0.950 . S
C1947 C1945 1.327 . S
C1948 C1936 1.349 . S
C1948 H1942 0.950 . S
C1948 C1949 1.327 . S
C1949 H1943 0.950 . S
C1949 C1948 1.327 . S
C1949 C1953 1.429 . S
C1950 C1933 1.574 . S
C1950 H1944 0.949 . S
C1950 C1954 1.368 . S
C1951 C1932 1.429 . S
C1951 C1945 1.429 . S
C1951 C1952 1.523 . S
C1952 C1933 1.368 . S
C1952 C1946 1.368 . S
C1952 C1951 1.523 . S
C1953 C1937 1.429 . S
C1953 C1949 1.429 . S
C1953 C1954 1.523 . S
C1954 C1938 1.368 . S
C1954 C1950 1.368 . S
C1954 C1953 1.523 . S
H1955 C1930 0.950 . S
H1956 C1932 0.950 . S
H1957 C1933 0.949 . S
H1958 C1935 0.950 . S
H1959 C1937 0.950 . S
C1960 C1961 1.349 . S
C1960 C1962 1.327 . S
C1960 H1985 0.950 . S
C1961 C1960 1.349 . S
C1961 C1977 1.349 . S
C1962 C1960 1.327 . S
C1962 C1981 1.429 . S
C1962 H1986 0.950 . S
C1963 C1980 1.574 . S
C1963 C1982 1.368 . S
C1963 H1987 0.949 . S
H1964 C1968 0.949 . S
C1965 C1966 1.349 . S
C1965 C1967 1.327 . S
C1965 H1988 0.950 . S
C1966 C1965 1.349 . S
C1966 C1978 1.349 . S
C1967 C1965 1.327 . S
C1967 C1983 1.429 . S
C1967 H1989 0.950 . S
C1968 H1964 0.949 . S
C1968 C1976 1.574 . S
C1968 C1984 1.368 . S
H1969 C1977 0.950 . S
H1970 C1975 0.950 . S
H1971 C1976 0.949 . S
H1972 C1978 0.950 . S
H1973 C1979 0.950 . S
H1974 C1980 0.949 . S
C1975 H1970 0.950 . S
C1975 C1977 1.327 . S
C1975 C1981 1.429 . S
C1976 C1968 1.574 . S
C1976 H1971 0.949 . S
C1976 C1982 1.368 . S
C1977 C1961 1.349 . S
C1977 H1969 0.950 . S
C1977 C1975 1.327 . S
C1978 C1966 1.349 . S
C1978 H1972 0.950 . S
C1978 C1979 1.327 . S
C1979 H1973 0.950 . S
C1979 C1978 1.327 . S
C1979 C1983 1.429 . S
C1980 C1963 1.574 . S
C1980 H1974 0.949 . S
C1980 C1984 1.368 . S
C1981 C1962 1.429 . S
C1981 C1975 1.429 . S
C1981 C1982 1.523 . S
C1982 C1963 1.368 . S
C1982 C1976 1.368 . S
C1982 C1981 1.523 . S
C1983 C1967 1.429 . S
C1983 C1979 1.429 . S
C1983 C1984 1.523 . S
C1984 C1968 1.368 . S
C1984 C1980 1.368 . S
C1984 C1983 1.523 . S
H1985 C1960 0.950 . S
H1986 C1962 0.950 . S
H1987 C1963 0.949 . S
H1988 C1965 0.950 . S
H1989 C1967 0.950 . S
C1990 C1991 1.349 . S
C1990 C1992 1.327 . S
C1990 H2015 0.950 . S
C1991 C1990 1.349 . S
C1991 C2007 1.349 . S
C1992 C1990 1.327 . S
C1992 C2011 1.429 . S
C1992 H2016 0.950 . S
C1993 C2010 1.574 . S
C1993 C2012 1.368 . S
C1993 H2017 0.949 . S
H1994 C1998 0.949 . S
C1995 C1996 1.349 . S
C1995 C1997 1.327 . S
C1995 H2018 0.950 . S
C1996 C1995 1.349 . S
C1996 C2008 1.349 . S
C1997 C1995 1.327 . S
C1997 C2013 1.429 . S
C1997 H2019 0.950 . S
C1998 H1994 0.949 . S
C1998 C2006 1.574 . S
C1998 C2014 1.368 . S
H1999 C2007 0.950 . S
H2000 C2005 0.950 . S
H2001 C2006 0.949 . S
H2002 C2008 0.950 . S
H2003 C2009 0.950 . S
H2004 C2010 0.949 . S
C2005 H2000 0.950 . S
C2005 C2007 1.327 . S
C2005 C2011 1.429 . S
C2006 C1998 1.574 . S
C2006 H2001 0.949 . S
C2006 C2012 1.368 . S
C2007 C1991 1.349 . S
C2007 H1999 0.950 . S
C2007 C2005 1.327 . S
C2008 C1996 1.349 . S
C2008 H2002 0.950 . S
C2008 C2009 1.327 . S
C2009 H2003 0.950 . S
C2009 C2008 1.327 . S
C2009 C2013 1.429 . S
C2010 C1993 1.574 . S
C2010 H2004 0.949 . S
C2010 C2014 1.368 . S
C2011 C1992 1.429 . S
C2011 C2005 1.429 . S
C2011 C2012 1.523 . S
C2012 C1993 1.368 . S
C2012 C2006 1.368 . S
C2012 C2011 1.523 . S
C2013 C1997 1.429 . S
C2013 C2009 1.429 . S
C2013 C2014 1.523 . S
C2014 C1998 1.368 . S
C2014 C2010 1.368 . S
C2014 C2013 1.523 . S
H2015 C1990 0.950 . S
H2016 C1992 0.950 . S
H2017 C1993 0.949 . S
H2018 C1995 0.950 . S
H2019 C1997 0.950 . S
C2020 C2021 1.349 . S
C2020 C2022 1.327 . S
C2020 H2045 0.950 . S
C2021 C2020 1.349 . S
C2021 C2037 1.349 . S
C2022 C2020 1.327 . S
C2022 C2041 1.429 . S
C2022 H2046 0.950 . S
C2023 C2040 1.574 . S
C2023 C2042 1.368 . S
C2023 H2047 0.949 . S
H2024 C2028 0.949 . S
C2025 C2026 1.349 . S
C2025 C2027 1.327 . S
C2025 H2048 0.950 . S
C2026 C2025 1.349 . S
C2026 C2038 1.349 . S
C2027 C2025 1.327 . S
C2027 C2043 1.429 . S
C2027 H2049 0.950 . S
C2028 H2024 0.949 . S
C2028 C2036 1.574 . S
C2028 C2044 1.368 . S
H2029 C2037 0.950 . S
H2030 C2035 0.950 . S
H2031 C2036 0.949 . S
H2032 C2038 0.975 . S
H2033 C2039 0.950 . S
H2034 C2040 0.949 . S
C2035 H2030 0.950 . S
C2035 C2037 1.327 . S
C2035 C2041 1.429 . S
C2036 C2028 1.574 . S
C2036 H2031 0.949 . S
C2036 C2042 1.368 . S
C2037 C2021 1.349 . S
C2037 H2029 0.950 . S
C2037 C2035 1.327 . S
C2038 C2026 1.349 . S
C2038 H2032 0.975 . S
C2038 C2039 1.327 . S
C2039 H2033 0.950 . S
C2039 C2038 1.327 . S
C2039 C2043 1.429 . S
C2040 C2023 1.574 . S
C2040 H2034 0.949 . S
C2040 C2044 1.368 . S
C2041 C2022 1.429 . S
C2041 C2035 1.429 . S
C2041 C2042 1.523 . S
C2042 C2023 1.368 . S
C2042 C2036 1.368 . S
C2042 C2041 1.523 . S
C2043 C2027 1.429 . S
C2043 C2039 1.429 . S
C2043 C2044 1.523 . S
C2044 C2028 1.368 . S
C2044 C2040 1.368 . S
C2044 C2043 1.523 . S
H2045 C2020 0.950 . S
H2046 C2022 0.950 . S
H2047 C2023 0.949 . S
H2048 C2025 0.950 . S
H2049 C2027 0.950 . S
C2050 C2051 1.349 . S
C2050 C2052 1.327 . S
C2050 H2075 0.950 . S
C2051 C2050 1.349 . S
C2051 C2067 1.349 . S
C2052 C2050 1.327 . S
C2052 C2071 1.429 . S
C2052 H2076 0.950 . S
C2053 C2070 1.574 . S
C2053 C2072 1.368 . S
C2053 H2077 0.949 . S
H2054 C2058 0.949 . S
C2055 C2056 1.349 . S
C2055 C2057 1.327 . S
C2055 H2078 0.950 . S
C2056 C2055 1.349 . S
C2056 C2068 1.349 . S
C2057 C2055 1.327 . S
C2057 C2073 1.429 . S
C2057 H2079 0.950 . S
C2058 H2054 0.949 . S
C2058 C2066 1.574 . S
C2058 C2074 1.368 . S
H2059 C2067 0.950 . S
H2060 C2065 0.950 . S
H2061 C2066 0.949 . S
H2062 C2068 0.950 . S
H2063 C2069 0.950 . S
H2064 C2070 0.949 . S
C2065 H2060 0.950 . S
C2065 C2067 1.327 . S
C2065 C2071 1.429 . S
C2066 C2058 1.574 . S
C2066 H2061 0.949 . S
C2066 C2072 1.368 . S
C2067 C2051 1.349 . S
C2067 H2059 0.950 . S
C2067 C2065 1.327 . S
C2068 C2056 1.349 . S
C2068 H2062 0.950 . S
C2068 C2069 1.327 . S
C2069 H2063 0.950 . S
C2069 C2068 1.327 . S
C2069 C2073 1.429 . S
C2070 C2053 1.574 . S
C2070 H2064 0.949 . S
C2070 C2074 1.368 . S
C2071 C2052 1.429 . S
C2071 C2065 1.429 . S
C2071 C2072 1.523 . S
C2072 C2053 1.368 . S
C2072 C2066 1.368 . S
C2072 C2071 1.523 . S
C2073 C2057 1.429 . S
C2073 C2069 1.429 . S
C2073 C2074 1.523 . S
C2074 C2058 1.368 . S
C2074 C2070 1.368 . S
C2074 C2073 1.523 . S
H2075 C2050 0.950 . S
H2076 C2052 0.950 . S
H2077 C2053 0.949 . S
H2078 C2055 0.950 . S
H2079 C2057 0.950 . S
C641 C139 1.073 . S
C646 C9 1.075 . S
C671 C6 1.282 . S
C676 C46 1.286 . S
C701 C98 1.195 . S
C706 C59 1.189 . S
C731 C126 1.033 . S
C736 C90 1.031 . S
C761 C175 1.307 . S
C766 C206 1.281 . S
C791 C209 1.322 . S
C796 C258 1.277 . S
C821 C255 1.030 . S
C826 C290 1.022 . S
C851 C178 1.185 . S
C856 C298 1.190 . S
C881 C379 3.914 . S
C886 C19 3.878 . S
C911 C410 1.063 . S
C916 C49 1.076 . S
C941 C95 1.267 . S
C946 C535 1.281 . S
C971 C330 1.154 . S
C976 C129 1.135 . S
C1001 C449 1.134 . S
C1006 C170 1.153 . S
C1031 C579 3.879 . S
C1036 C219 3.915 . S
C1061 C250 1.063 . S
C1066 C489 1.076 . S
C1091 C615 1.267 . S
C1096 C295 1.281 . S
C1121 C338 1.185 . S
C1126 C538 1.189 . S
C1151 C366 1.281 . S
C1156 C335 1.306 . S
C1181 C418 1.277 . S
C1186 C369 1.322 . S
C1211 C569 1.075 . S
C1216 C459 1.073 . S
C1241 C499 1.189 . S
C1246 C618 1.195 . S
C1271 C450 1.072 . S
C1276 C18 1.074 . S
C1301 C495 1.287 . S
C1306 C15 1.283 . S
C1331 C490 1.189 . S
C1336 C89 1.194 . S
C1361 C99 1.031 . S
C1366 C455 1.032 . S
C1391 C375 1.281 . S
C1396 C166 1.307 . S
C1421 C378 1.321 . S
C1426 C249 1.277 . S
C1451 C539 1.022 . S
C1456 C246 1.029 . S
C1481 C169 1.184 . S
C1486 C529 1.188 . S
C1511 C210 3.915 . S
C1516 C10 3.878 . S
C1541 C419 1.063 . S
C1546 C498 1.076 . S
C1571 C86 1.268 . S
C1576 C286 1.282 . S
C1601 C339 1.154 . S
C1606 C458 1.135 . S
C1631 C138 1.136 . S
C1636 C179 1.155 . S
C1661 C370 3.914 . S
C1666 C570 3.877 . S
C1691 C259 1.063 . S
C1696 C58 1.076 . S
C1721 C606 1.268 . S
C1726 C526 1.282 . S
C1751 C329 1.184 . S
C1756 C289 1.188 . S
C1781 C326 1.307 . S
C1786 C215 1.282 . S
C1811 C409 1.277 . S
C1816 C218 1.322 . S
C1841 C130 1.072 . S
C1846 C578 1.074 . S
C1871 C50 1.188 . S
C1876 C609 1.194 . S
C1901 C486 1.286 . S
C1906 C566 1.282 . S
C1931 C446 1.033 . S
C1936 C610 1.031 . S
C1961 C415 1.030 . S
C1966 C530 1.022 . S
C1991 C575 1.283 . S
C1996 C55 1.287 . S
C2021 C135 1.032 . S
C2026 C619 1.031 . S
C2051 C299 1.022 . S
C2056 C406 1.029 . S
