# Generated by pormake.
# Topology snp, (6)-cn, num edge types: 1
# Building blocks:
#     Node 0, Type 0, BuildingBlock: UKALOJ_clean_sbu_0, # of connection points: 6
#     Node 1, Type 0, BuildingBlock: UKALOJ_clean_sbu_0, # of connection points: 6
#     Node 2, Type 0, BuildingBlock: UKALOJ_clean_sbu_0, # of connection points: 6
#     Node 3, Type 0, BuildingBlock: UKALOJ_clean_sbu_0, # of connection points: 6
#     Edge 4, Type (0, 0), BuildingBlock: UVAHIK_clean_linker_0, # of connection points: 2
#     Edge 5, Type (0, 0), BuildingBlock: UVAHIK_clean_linker_0, # of connection points: 2
#     Edge 6, Type (0, 0), BuildingBlock: UVAHIK_clean_linker_0, # of connection points: 2
#     Edge 7, Type (0, 0), BuildingBlock: UVAHIK_clean_linker_0, # of connection points: 2
#     Edge 8, Type (0, 0), BuildingBlock: UVAHIK_clean_linker_0, # of connection points: 2
#     Edge 9, Type (0, 0), BuildingBlock: UVAHIK_clean_linker_0, # of connection points: 2
#     Edge 10, Type (0, 0), BuildingBlock: UVAHIK_clean_linker_0, # of connection points: 2
#     Edge 11, Type (0, 0), BuildingBlock: UVAHIK_clean_linker_0, # of connection points: 2
#     Edge 12, Type (0, 0), BuildingBlock: UVAHIK_clean_linker_0, # of connection points: 2
#     Edge 13, Type (0, 0), BuildingBlock: UVAHIK_clean_linker_0, # of connection points: 2
#     Edge 14, Type (0, 0), BuildingBlock: UVAHIK_clean_linker_0, # of connection points: 2
#     Edge 15, Type (0, 0), BuildingBlock: UVAHIK_clean_linker_0, # of connection points: 2
# Relax obj value: 0.805
# Max RMSD: 0.249
# Mean RMSD: 0.247
data_MOF--net-snp--node1-UKALOJ_clean_sbu_0--edge1-UVAHIK_clean_linker_0
_symmetry_space_group_name_H-M    P1
_symmetry_Int_Tables_number       1
_symmetry_cell_setting            triclinic
loop_
_symmetry_equiv_pos_as_xyz
'x, y, z'
_cell_length_a     40.537723
_cell_length_b     40.556367
_cell_length_c     29.308167
_cell_angle_alpha  97.711202
_cell_angle_beta   97.644926
_cell_angle_gamma 90.418024
loop_
_atom_site_label
_atom_site_type_symbol
_atom_site_fract_x
_atom_site_fract_y
_atom_site_fract_z
_atom_type_partial_charge
Zn0 Zn 0.26992 1.00337 0.08941 0.0
O1 O 0.25532 0.96987 0.02547 0.0
C2 C 0.25569 0.05994 0.03469 0.0
Zn3 Zn 0.2173 0.0191 0.08671 0.0
C4 C 0.22476 0.96695 0.0076 0.0
O5 O 0.20327 0.98437 0.0271 0.0
C6 C 0.26054 0.05571 0.16762 0.0
O7 O 0.20709 0.98349 0.12796 0.0
O8 O 0.25787 0.96485 0.12927 0.0
N9 N 0.16985 0.03584 0.08537 0.0
C10 C 0.15517 0.05454 0.11831 0.0
C11 C 0.12455 0.0556 0.05381 0.0
N12 N 0.15045 0.03614 0.04537 0.0
N13 N 0.12699 0.06743 0.09936 0.0
C14 C 0.34276 0.98956 0.06709 0.0
C15 C 0.36426 0.97186 0.1293 0.0
N16 N 0.31847 0.98845 0.09427 0.0
N17 N 0.33195 0.97735 0.13278 0.0
N18 N 0.37196 0.9795 0.08854 0.0
H19 H 0.31103 0.99279 1.00289 0.0
H20 H 0.35427 0.98528 0.99679 0.0
H21 H 0.3416 0.0259 0.02042 0.0
C22 C 0.3371 0.99873 0.01887 0.0
C23 C 0.16767 0.06018 0.1693 0.0
H24 H 0.14642 0.06394 0.18959 0.0
H25 H 0.18355 0.08316 0.17752 0.0
H26 H 0.18203 0.03865 0.17992 0.0
O27 O 0.23193 0.05345 0.14438 0.0
O28 O 0.28318 0.03676 0.1541 0.0
C29 C 0.2287 0.96288 0.14058 0.0
O30 O 0.27999 0.04235 0.04858 0.0
O31 O 0.22713 0.05461 0.04561 0.0
Zn32 Zn 0.04363 0.21911 0.59121 0.0
O33 O 0.08067 0.20924 0.54424 0.0
C34 C 0.99224 0.19136 0.5129 0.0
Zn35 Zn 0.03831 0.16406 0.58676 0.0
C36 C 0.08933 0.1797 0.53053 0.0
O37 O 0.0753 0.15509 0.54359 0.0
C38 C 0.99211 0.20196 0.64621 0.0
O39 O 0.07443 0.16223 0.64347 0.0
O40 O 0.08217 0.21642 0.64989 0.0
N41 N 0.02724 0.11452 0.58349 0.0
C42 C 0.01111 0.09978 0.61309 0.0
C43 C 1.00331 0.06897 0.54796 0.0
N44 N 0.02291 0.09493 0.54317 0.0
N45 N 0.99522 0.07159 0.59146 0.0
C46 C 0.05001 0.29277 0.56903 0.0
C47 C 0.06473 0.31804 0.63738 0.0
N48 N 0.05228 0.26961 0.59831 0.0
N49 N 0.06145 0.28546 0.64066 0.0
N50 N 0.05761 0.32351 0.59284 0.0
H51 H 0.05463 0.303 0.4998 0.0
H52 H 0.01487 0.28574 0.50725 0.0
H53 H 0.05018 0.25931 0.50553 0.0
C54 C 0.04218 0.28477 0.51733 0.0
C55 C 0.01065 0.11252 0.66352 0.0
H56 H 0.03132 0.13068 0.67698 0.0
H57 H 0.01272 0.09131 0.68397 0.0
H58 H 0.98661 0.12434 0.66859 0.0
O59 O 1.00091 0.17381 0.62858 0.0
O60 O 0.00678 0.22796 0.63833 0.0
C61 C 0.0899 0.18859 0.6635 0.0
O62 O 1.00477 0.21968 0.53187 0.0
O63 O 1.00273 0.16542 0.52927 0.0
Zn64 Zn 0.86978 1.00144 1.00351 0.0
O65 O 0.87147 0.96711 0.94488 0.0
C66 C 0.83317 0.05029 0.94739 0.0
Zn67 Zn 0.8146 0.99692 0.99792 0.0
C68 C 0.84509 0.95249 0.92332 0.0
O69 O 0.81719 0.96011 0.93694 0.0
C70 C 0.84252 0.04576 0.07928 0.0
O71 O 0.82361 0.9581 0.04211 0.0
O72 O 0.87798 0.96281 0.04406 0.0
N73 N 0.76395 0.989 0.9897 0.0
C74 C 0.7406 0.9886 0.0185 0.0
C75 C 0.71561 0.97955 0.94915 0.0
N76 N 0.74826 0.98338 0.94673 0.0
N77 N 0.70987 0.98277 0.99376 0.0
C78 C 0.93409 0.02916 0.97844 0.0
C79 C 0.96438 0.03693 0.04395 0.0
N80 N 0.91942 0.01236 0.00742 0.0
N81 N 0.93872 0.01668 0.04797 0.0
N82 N 0.96186 0.04545 1.00071 0.0
H83 H 0.90302 0.0102 0.91398 0.0
H84 H 0.94264 0.02856 0.90774 0.0
H85 H 0.90994 0.05484 0.92396 0.0
C86 C 0.9214 0.03051 0.92819 0.0
C87 C 0.74843 0.9923 0.07035 0.0
H88 H 0.77428 0.98489 0.08088 0.0
H89 H 0.73082 0.97701 0.08517 0.0
H90 H 0.74619 0.01881 0.08471 0.0
O91 O 0.8141 0.03404 0.05941 0.0
O92 O 0.86847 0.03534 0.06275 0.0
C93 C 0.85287 0.94868 0.05578 0.0
O94 O 0.86092 0.04044 0.96462 0.0
O95 O 0.80668 0.03571 0.95374 0.0
Zn96 Zn 0.01148 0.81558 0.49172 0.0
O97 O 0.0442 0.82141 0.44396 0.0
C98 C 0.97069 0.77267 0.41517 0.0
Zn99 Zn 0.02511 0.76275 0.49087 0.0
C100 C 0.06407 0.79872 0.43241 0.0
O101 O 0.06323 0.77127 0.44884 0.0
C102 C 0.9715 0.78173 0.54953 0.0
O103 O 0.05998 0.77678 0.55316 0.0
O104 O 0.04982 0.82939 0.5474 0.0
N105 N 0.0375 0.7135 0.48675 0.0
C106 C 0.03657 0.68988 0.51497 0.0
C107 C 0.0488 0.66597 0.45025 0.0
N108 N 0.04533 0.69854 0.44676 0.0
N109 N 0.0435 0.65983 0.49272 0.0
C110 C 0.97847 0.87815 0.45849 0.0
C111 C 0.98106 0.91112 0.52169 0.0
N112 N 0.99739 0.86375 0.49146 0.0
N113 N 0.99942 0.8846 0.5306 0.0
N114 N 0.96759 0.90762 0.47666 0.0
H115 H 0.96789 0.88466 0.38647 0.0
H116 H 0.94683 0.84983 0.40212 0.0
H117 H 0.9909 0.84778 0.39705 0.0
C118 C 0.97079 0.86413 0.40812 0.0
C119 C 0.026 0.69584 0.56236 0.0
H120 H 0.03266 0.72167 0.57888 0.0
H121 H 0.03763 0.67802 0.58482 0.0
H122 H 0.99858 0.69227 0.55906 0.0
O123 O 0.98647 0.75599 0.53378 0.0
O124 O 0.97843 0.80984 0.53843 0.0
C125 C 0.06571 0.80759 0.56831 0.0
O126 O 0.97355 0.80126 0.43848 0.0
O127 O 0.99025 0.75011 0.42734 0.0
C128 C 0.00832 0.08267 0.99412 0.0
C129 C 0.97412 0.07678 0.99144 0.0
C130 C 0.02087 0.11516 0.99768 0.0
C131 C 1.00335 0.18466 0.06884 0.0
H132 H 0.09557 0.19021 0.05081 0.0
C133 C 0.13017 0.12751 0.12561 0.0
C134 C 0.11171 0.09732 0.11696 0.0
C135 C 0.11387 0.15784 0.12779 0.0
C136 C 0.0698 0.19063 0.05697 0.0
H137 H 0.92583 0.09954 0.98734 0.0
H138 H 0.94777 0.15653 0.99471 0.0
H139 H 0.05324 0.18 0.98408 0.0
H140 H 0.0628 0.0746 0.10974 0.0
H141 H 0.03407 0.12688 0.11464 0.0
H142 H 0.02057 0.18967 0.14158 0.0
C143 C 0.96487 0.13615 0.99255 0.0
C144 C 0.04534 0.18476 0.0182 0.0
C145 C 0.95236 0.10354 0.98838 0.0
C146 C 0.07729 0.0977 0.11657 0.0
C147 C 0.06103 0.1279 0.11984 0.0
C148 C 0.02793 0.19048 0.10753 0.0
C149 C 0.99937 0.14247 1.00001 0.0
C150 C 0.01314 0.17503 0.02472 0.0
C151 C 0.07892 0.15822 0.1216 0.0
C152 C 0.06133 0.18575 0.10071 0.0
H153 H 0.02538 0.0624 0.99706 0.0
H154 H 0.04765 0.11891 1.00414 0.0
H155 H 0.97808 0.17994 0.07499 0.0
H156 H 0.15689 0.12751 0.12564 0.0
H157 H 0.12829 0.1806 0.12897 0.0
C158 C 0.90719 0.90579 0.45281 0.0
C159 C 0.93777 0.92361 0.46042 0.0
C160 C 0.8773 0.9227 0.45365 0.0
C161 C 0.84866 0.96432 0.53047 0.0
H162 H 0.86037 0.05743 0.52083 0.0
C163 C 0.95858 0.02427 0.59636 0.0
C164 C 0.96434 0.05863 0.60143 0.0
C165 C 0.92614 0.01142 0.59236 0.0
C166 C 0.85546 0.03175 0.52479 0.0
H167 H 0.96126 0.9722 0.46831 0.0
H168 H 0.90975 1.00198 0.4689 0.0
H169 H 0.84744 0.01806 0.45118 0.0
H170 H 0.9413 0.10668 0.60924 0.0
H171 H 0.88455 0.08433 0.6017 0.0
H172 H 0.86211 0.97727 0.60377 0.0
C173 C 0.90809 0.97506 0.46224 0.0
C174 C 0.84776 0.00899 0.48436 0.0
C175 C 0.93789 0.95816 0.46232 0.0
C176 C 0.93753 0.08005 0.60664 0.0
C177 C 0.905 0.06727 0.6022 0.0
C178 C 0.85639 0.98695 0.57099 0.0
C179 C 0.87774 0.95763 0.46217 0.0
C180 C 0.85194 0.97496 0.48742 0.0
C181 C 0.89876 0.03282 0.59216 0.0
C182 C 0.8661 0.01966 0.56707 0.0
H183 H 0.90667 0.87899 0.45173 0.0
H184 H 0.85448 0.90859 0.45348 0.0
H185 H 0.84876 0.93807 0.53402 0.0
H186 H 0.97885 0.00744 0.59165 0.0
H187 H 0.92244 0.98471 0.58386 0.0
C188 C 0.65268 0.95933 0.98013 0.0
C189 C 0.67725 0.98047 0.00804 0.0
C190 C 0.61987 0.95934 0.9898 0.0
C191 C 0.56686 0.97896 0.08073 0.0
H192 H 0.49728 0.98588 0.97804 0.0
C193 C 0.42739 0.95467 0.09064 0.0
C194 C 0.40508 0.97858 0.07535 0.0
C195 C 0.46059 0.95535 0.08255 0.0
C196 C 0.51644 0.98405 0.00706 0.0
H197 H 0.68606 0.01876 0.06781 0.0
H198 H 0.6289 0.01767 0.08601 0.0
H199 H 0.5557 0.98614 0.96516 0.0
H200 H 0.40098 0.02282 0.04099 0.0
H201 H 0.45852 0.02297 0.0248 0.0
H202 H 0.52751 0.97634 0.12246 0.0
C203 C 0.63536 1.00093 0.0567 0.0
C204 C 0.54983 0.98399 0.99965 0.0
C205 C 0.66823 1.00125 0.0466 0.0
C206 C 0.41686 1.00312 0.05142 0.0
C207 C 0.45002 1.0035 0.04271 0.0
C208 C 0.53341 0.97847 0.08798 0.0
C209 C 0.61074 0.98037 0.02787 0.0
C210 C 0.57539 0.98134 0.03636 0.0
C211 C 0.47232 0.97986 0.0587 0.0
C212 C 0.50785 0.98094 0.05118 0.0
H213 H 0.65879 0.94309 0.95014 0.0
H214 H 0.60154 0.94296 0.96727 0.0
H215 H 0.58603 0.97678 0.10959 0.0
H216 H 0.41915 0.93562 0.10946 0.0
H217 H 0.47711 0.93663 0.09495 0.0
C218 C 0.08092 0.38049 0.60055 0.0
C219 C 0.05752 0.35595 0.57774 0.0
C220 C 0.07894 0.41323 0.59074 0.0
C221 C 0.04385 0.4659 0.50418 0.0
H222 H 0.05425 0.53604 0.60932 0.0
C223 C 0.02031 0.60276 0.47938 0.0
C224 C 0.04173 0.62726 0.50654 0.0
C225 C 0.02088 0.56995 0.4891 0.0
C226 C 0.05169 0.51686 0.57949 0.0
H227 H 0.01322 0.34692 0.52713 0.0
H228 H 0.01028 0.40402 0.50885 0.0
H229 H 0.05878 0.47807 0.62249 0.0
H230 H 0.08086 0.63696 0.56461 0.0
H231 H 0.08244 0.57941 0.58167 0.0
H232 H 0.0374 0.50454 0.46106 0.0
C233 C 0.03047 0.39768 0.53401 0.0
C234 C 0.05423 0.48358 0.58707 0.0
C235 C 0.03233 0.36485 0.54412 0.0
C236 C 0.06358 0.61855 0.54399 0.0
C237 C 0.06444 0.58558 0.55355 0.0
C238 C 0.04158 0.4992 0.49655 0.0
C239 C 0.05344 0.42236 0.55781 0.0
C240 C 0.05041 0.4577 0.54951 0.0
C241 C 0.04337 0.56071 0.52582 0.0
C242 C 0.04546 0.52518 0.53411 0.0
H243 H 0.10052 0.37436 0.62671 0.0
H244 H 0.09731 0.4315 0.60921 0.0
H245 H 0.04115 0.44657 0.4745 0.0
H246 H 1.00339 0.60906 0.45019 0.0
H247 H 1.00381 0.55178 0.46754 0.0
C248 C 0.13062 0.14241 0.49485 0.0
C249 C 0.11543 0.17354 0.49958 0.0
C250 C 0.15424 0.1356 0.46443 0.0
C251 C 0.17754 0.15805 0.35666 0.0
H252 H 0.25686 0.10829 0.3877 0.0
C253 C 0.26612 0.06241 0.25355 0.0
C254 C 0.26431 0.07716 0.2127 0.0
C255 C 0.25575 0.07974 0.29365 0.0
C256 C 0.23477 0.12205 0.3783 0.0
H257 H 0.11364 0.22216 0.47653 0.0
H258 H 0.15461 0.20997 0.42243 0.0
H259 H 0.22248 0.12772 0.44788 0.0
H260 H 0.25297 0.12219 0.18245 0.0
H261 H 0.23714 0.1533 0.25299 0.0
H262 H 0.18839 0.15098 0.28682 0.0
C263 C 0.14823 0.19094 0.44262 0.0
C264 C 0.21513 0.13327 0.41288 0.0
C265 C 0.12487 0.19795 0.47366 0.0
C266 C 0.25513 0.11051 0.21384 0.0
C267 C 0.24534 0.12803 0.25404 0.0
C268 C 0.19691 0.14653 0.32201 0.0
C269 C 0.16303 0.15959 0.43749 0.0
C270 C 0.18598 0.15092 0.40226 0.0
C271 C 0.24364 0.11227 0.29367 0.0
C272 C 0.22556 0.12789 0.33209 0.0
H273 H 0.12407 0.12308 0.51445 0.0
H274 H 0.16485 0.1111 0.46092 0.0
H275 H 0.15501 0.17117 0.34719 0.0
H276 H 0.27218 0.0364 0.2531 0.0
H277 H 0.25465 0.06654 0.32317 0.0
C278 C 0.93795 0.18064 0.66169 0.0
C279 C 0.96526 0.20285 0.67569 0.0
C280 C 0.91623 0.17445 0.69286 0.0
C281 C 0.91905 0.17208 0.81703 0.0
H282 H 0.82571 0.14646 0.78317 0.0
C283 C 0.85215 0.10723 0.941 0.0
C284 C 0.8334 0.07852 0.92069 0.0
C285 C 0.86156 0.13037 0.91364 0.0
C286 C 0.85176 0.15345 0.79318 0.0
H287 H 0.99023 0.2377 0.73227 0.0
H288 H 0.95193 0.22711 0.78734 0.0
H289 H 0.85452 0.17436 0.73031 0.0
H290 H 0.80841 0.052 0.85636 0.0
H291 H 0.82514 0.09224 0.80792 0.0
H292 H 0.91702 0.1499 0.87865 0.0
C293 C 0.94747 0.21429 0.75213 0.0
C294 C 0.86825 0.16955 0.76296 0.0
C295 C 0.96916 0.22068 0.72058 0.0
C296 C 0.82226 0.07436 0.87286 0.0
C297 C 0.83204 0.0974 0.8452 0.0
C298 C 0.90265 0.15591 0.8471 0.0
C299 C 0.92142 0.19023 0.73902 0.0
C300 C 0.90232 0.17839 0.77406 0.0
C301 C 0.85299 0.12499 0.86508 0.0
C302 C 0.86894 0.14575 0.83522 0.0
H303 H 0.93443 0.16667 0.62713 0.0
H304 H 0.89676 0.15556 0.68154 0.0
H305 H 0.9454 0.1779 0.82639 0.0
H306 H 0.86123 0.11077 0.97786 0.0
H307 H 0.877 0.15163 0.93038 0.0
C308 C 0.96347 0.76673 0.32928 0.0
C309 C 0.94891 0.76934 0.37038 0.0
C310 C 0.94658 0.77772 0.2894 0.0
C311 C 0.88211 0.83918 0.26197 0.0
H312 H 0.90045 0.81311 0.1359 0.0
C313 C 0.83326 0.91281 0.11121 0.0
C314 C 0.85811 0.9219 0.08572 0.0
C315 C 0.83949 0.88909 0.14181 0.0
C316 C 0.89503 0.82061 0.17095 0.0
H317 H 0.90446 0.78267 0.4012 0.0
H318 H 0.87396 0.7995 0.33099 0.0
H319 H 0.91843 0.77798 0.19563 0.0
H320 H 0.90848 0.91224 0.07105 0.0
H321 H 0.91906 0.87072 0.12375 0.0
H322 H 0.85898 0.88192 0.23724 0.0
C323 C 0.89884 0.79026 0.32962 0.0
C324 C 0.90544 0.80054 0.20529 0.0
C325 C 0.91599 0.77988 0.36964 0.0
C326 C 0.88884 0.90594 0.09032 0.0
C327 C 0.89484 0.88193 0.12026 0.0
C328 C 0.87136 0.85896 0.22755 0.0
C329 C 0.91462 0.79122 0.28978 0.0
C330 C 0.89977 0.80989 0.25158 0.0
C331 C 0.87046 0.87356 0.1469 0.0
C332 C 0.87833 0.85032 0.18188 0.0
H333 H 0.9892 0.75963 0.3294 0.0
H334 H 0.9598 0.7782 0.25974 0.0
H335 H 0.87786 0.84785 0.29722 0.0
H336 H 0.80935 0.92466 0.10848 0.0
H337 H 0.82016 0.88305 0.16176 0.0
C338 C 0.09968 0.79639 0.64302 0.0
C339 C 0.08929 0.8185 0.61117 0.0
C340 C 0.11929 0.80791 0.68546 0.0
C341 C 0.17389 0.87869 0.74729 0.0
H342 H 0.14389 0.8537 0.85838 0.0
C343 C 0.23632 0.93195 0.93363 0.0
C344 C 0.21374 0.9442 0.96396 0.0
C345 C 0.22491 0.91251 0.89097 0.0
C346 C 0.15269 0.86083 0.82769 0.0
H347 H 0.09251 0.8698 0.59828 0.0
H348 H 0.12672 0.88965 0.67163 0.0
H349 H 0.11784 0.82753 0.78205 0.0
H350 H 0.16161 0.94465 0.97377 0.0
H351 H 0.14197 0.91074 0.90017 0.0
H352 H 0.20802 0.91277 0.793 0.0
C353 C 0.11983 0.86344 0.66401 0.0
C354 C 0.13796 0.84559 0.78392 0.0
C355 C 0.09998 0.85206 0.62199 0.0
C356 C 0.17973 0.93574 0.95127 0.0
C357 C 0.16844 0.91605 0.90912 0.0
C358 C 0.18884 0.89372 0.79111 0.0
C359 C 0.12931 0.84169 0.69666 0.0
C360 C 0.14783 0.85488 0.74312 0.0
C361 C 0.19076 0.90448 0.87813 0.0
C362 C 0.17788 0.88554 0.83184 0.0
H363 H 0.09182 0.77042 0.63583 0.0
H364 H 0.12636 0.79045 0.70971 0.0
H365 H 0.18233 0.88618 0.71658 0.0
H366 H 0.26265 0.93808 0.9423 0.0
H367 H 0.24277 0.90385 0.86796 0.0
C368 C 0.87752 0.90792 0.88443 0.0
C369 C 0.84798 0.92586 0.88438 0.0
C370 C 0.88211 0.88403 0.84711 0.0
C371 C 0.86124 0.86626 0.72314 0.0
H372 H 0.90258 0.78184 0.73907 0.0
C373 C 0.9154 0.79316 0.5712 0.0
C374 C 0.94719 0.78065 0.58232 0.0
C375 C 0.89543 0.80241 0.60591 0.0
C376 C 0.89119 0.80535 0.73391 0.0
H377 H 0.7997 0.93234 0.84557 0.0
H378 H 0.80827 0.89096 0.77882 0.0
H379 H 0.88192 0.81492 0.80481 0.0
H380 H 0.9827 0.76659 0.63763 0.0
H381 H 0.94851 0.78363 0.69879 0.0
H382 H 0.87244 0.8583 0.65353 0.0
C383 C 0.82761 0.89528 0.8084 0.0
C384 C 0.87914 0.82417 0.77155 0.0
C385 C 0.82268 0.91884 0.84648 0.0
C386 C 0.95792 0.77549 0.62819 0.0
C387 C 0.93822 0.78541 0.66322 0.0
C388 C 0.87369 0.84772 0.6857 0.0
C389 C 0.85752 0.87781 0.80832 0.0
C390 C 0.86479 0.8552 0.76682 0.0
C391 C 0.90728 0.80036 0.65281 0.0
C392 C 0.88962 0.81736 0.69079 0.0
H393 H 0.89739 0.9126 0.91331 0.0
H394 H 0.90555 0.87132 0.84784 0.0
H395 H 0.8507 0.89027 0.71863 0.0
H396 H 0.90682 0.79766 0.53599 0.0
H397 H 0.87143 0.81287 0.59618 0.0
C398 C 0.24251 0.91754 0.19086 0.0
C399 C 0.21889 0.93647 0.16678 0.0
C400 C 0.23213 0.89329 0.21632 0.0
C401 C 0.15795 0.84247 0.22707 0.0
H402 H 0.19112 0.84973 0.35848 0.0
C403 C 0.07656 0.82497 0.3648 0.0
C404 C 0.0867 0.80435 0.39861 0.0
C405 C 0.09775 0.83195 0.33348 0.0
C406 C 0.18219 0.84678 0.3216 0.0
H407 H 0.16598 0.94429 0.14978 0.0
H408 H 0.1482 0.90247 0.19345 0.0
H409 H 0.22042 0.87943 0.30756 0.0
H410 H 0.12686 0.77466 0.4262 0.0
H411 H 0.16488 0.78811 0.3718 0.0
H412 H 0.11837 0.81198 0.24165 0.0
C413 C 0.17463 0.906 0.19268 0.0
C414 C 0.19893 0.86374 0.29249 0.0
C415 C 0.1849 0.93028 0.16798 0.0
C416 C 0.11848 0.79054 0.40028 0.0
C417 C 0.14016 0.79825 0.36941 0.0
C418 C 0.1412 0.82579 0.2561 0.0
C419 C 0.19802 0.88725 0.21724 0.0
C420 C 0.18597 0.86301 0.24539 0.0
C421 C 0.12983 0.81899 0.33573 0.0
C422 C 0.15232 0.82901 0.30393 0.0
H423 H 0.26888 0.92181 0.19061 0.0
H424 H 0.25068 0.87926 0.23512 0.0
H425 H 0.14777 0.84094 0.19072 0.0
H426 H 0.05213 0.8358 0.36255 0.0
H427 H 0.08934 0.8483 0.30816 0.0
C428 C 0.1422 0.16158 0.68973 0.0
C429 C 0.11842 0.18555 0.69932 0.0
C430 C 0.16709 0.15467 0.72453 0.0
C431 C 0.20509 0.18127 0.84805 0.0
H432 H 0.22067 0.08673 0.84346 0.0
C433 C 0.23932 0.11317 0.00673 0.0
C434 C 0.25844 0.08445 1.00246 0.0
C435 C 0.23264 0.13154 0.96973 0.0
C436 C 0.21735 0.11331 0.8449 0.0
H437 H 0.10243 0.22205 0.75209 0.0
H438 H 0.14506 0.20892 0.81415 0.0
H439 H 0.18755 0.10706 0.77868 0.0
H440 H 0.28784 0.05383 0.95776 0.0
H441 H 0.276 0.08596 0.89245 0.0
H442 H 0.23336 0.18679 0.91612 0.0
C443 C 0.14524 0.19608 0.77934 0.0
C444 C 0.19823 0.12511 0.80757 0.0
C445 C 0.12069 0.20358 0.74396 0.0
C446 C 0.27331 0.07608 0.96203 0.0
C447 C 0.26622 0.09426 0.92457 0.0
C448 C 0.22398 0.16934 0.88578 0.0
C449 C 0.16823 0.17082 0.77033 0.0
C450 C 0.19132 0.15919 0.80878 0.0
C451 C 0.24454 0.12127 0.92736 0.0
C452 C 0.22983 0.13512 0.88491 0.0
H453 H 0.14111 0.14763 0.65529 0.0
H454 H 0.18488 0.1359 0.71566 0.0
H455 H 0.20082 0.20772 0.85005 0.0
H456 H 0.22747 0.12002 0.03757 0.0
H457 H 0.21572 0.15202 0.97303 0.0
C458 C 0.8221 0.07825 0.15002 0.0
C459 C 0.84697 0.07129 0.12121 0.0
C460 C 0.82895 0.10022 0.19184 0.0
C461 C 0.89387 0.16237 0.25803 0.0
H462 H 0.86534 0.13148 0.36618 0.0
C463 C 0.95833 0.21219 0.44366 0.0
C464 C 0.96602 0.18707 0.47177 0.0
C465 C 0.93579 0.20557 0.40241 0.0
C466 C 0.87365 0.1405 0.33639 0.0
H467 H 0.8979 0.08343 0.11265 0.0
H468 H 0.90981 0.12028 0.18453 0.0
H469 H 0.84113 0.10607 0.28907 0.0
H470 H 0.9546 0.13586 0.47966 0.0
H471 H 0.9168 0.12433 0.40863 0.0
H472 H 0.92844 0.19476 0.30525 0.0
C473 C 0.88489 0.10956 0.17534 0.0
C474 C 0.85929 0.1262 0.29194 0.0
C475 C 0.87812 0.08786 0.13405 0.0
C476 C 0.9496 0.15586 0.45883 0.0
C477 C 0.92735 0.1493 0.41803 0.0
C478 C 0.90861 0.17629 0.30246 0.0
C479 C 0.86071 0.11577 0.20538 0.0
C480 C 0.87026 0.13589 0.25208 0.0
C481 C 0.92041 0.17376 0.38865 0.0
C482 C 0.89977 0.1645 0.34227 0.0
H483 H 0.79784 0.06597 0.14106 0.0
H484 H 0.80957 0.10458 0.21387 0.0
H485 H 0.90227 0.17131 0.22823 0.0
H486 H 0.97047 0.23651 0.45271 0.0
H487 H 0.93085 0.22519 0.38095 0.0
loop_
_geom_bond_atom_site_label_1
_geom_bond_atom_site_label_2
_geom_bond_distance
_geom_bond_site_symmetry_2
_ccdc_geom_bond_type
Zn0 O1 2.050 1_545 S
Zn0 O8 2.038 1_545 S
Zn0 N16 2.037 . S
Zn0 O28 2.058 . S
Zn0 O30 2.074 . S
O1 Zn0 2.050 1_565 S
O1 C4 1.259 1_554 S
C2 O30 1.256 . S
C2 O31 1.244 . S
Zn3 O5 2.034 1_545 S
Zn3 O7 2.042 1_545 S
Zn3 N9 2.039 . S
Zn3 O27 2.078 . S
Zn3 O31 2.066 . S
C4 O1 1.259 1_556 S
C4 O5 1.254 1_556 S
O5 Zn3 2.034 1_565 S
O5 C4 1.254 1_554 S
C6 O27 1.256 . S
C6 O28 1.244 . S
O7 Zn3 2.042 1_565 S
O7 C29 1.259 . S
O8 Zn0 2.038 1_565 S
O8 C29 1.254 . S
N9 Zn3 2.039 . S
N9 C10 1.298 . S
N9 N12 1.398 . S
C10 N9 1.298 . S
C10 N13 1.367 . S
C10 C23 1.481 1_545 S
C11 N12 1.299 . S
C11 N13 1.379 . S
N12 N9 1.398 . S
N12 C11 1.299 . S
N13 C10 1.367 . S
N13 C11 1.379 . S
C14 N16 1.298 . S
C14 N18 1.367 . S
C14 C22 1.478 1_544 S
C15 N17 1.299 . S
C15 N18 1.379 . S
N16 Zn0 2.037 . S
N16 C14 1.298 . S
N16 N17 1.398 . S
N17 C15 1.299 . S
N17 N16 1.398 . S
N18 C14 1.367 . S
N18 C15 1.379 . S
H19 C22 0.980 . S
H20 C22 0.982 . S
H21 C22 0.983 1_545 S
C22 C14 1.478 1_566 S
C22 H19 0.980 . S
C22 H20 0.982 . S
C22 H21 0.983 1_565 S
C23 C10 1.481 1_565 S
C23 H24 0.980 . S
C23 H25 0.981 . S
C23 H26 0.981 1_565 S
H24 C23 0.980 . S
H25 C23 0.981 . S
H26 C23 0.981 1_545 S
O27 Zn3 2.078 . S
O27 C6 1.256 . S
O28 Zn0 2.058 . S
O28 C6 1.244 . S
C29 O7 1.259 . S
C29 O8 1.254 . S
O30 Zn0 2.074 . S
O30 C2 1.256 . S
O31 C2 1.244 . S
O31 Zn3 2.066 . S
Zn32 O33 2.055 . S
Zn32 O40 2.046 . S
Zn32 N48 2.036 . S
Zn32 O60 2.053 1_455 S
Zn32 O62 2.066 1_455 S
O33 Zn32 2.055 . S
O33 C36 1.259 . S
C34 O62 1.256 . S
C34 O63 1.244 . S
Zn35 O37 2.046 . S
Zn35 O39 2.055 . S
Zn35 N41 2.036 . S
Zn35 O59 2.066 1_455 S
Zn35 O63 2.053 1_455 S
C36 O33 1.259 . S
C36 O37 1.254 . S
O37 Zn35 2.046 . S
O37 C36 1.254 . S
C38 O59 1.256 . S
C38 O60 1.244 . S
O39 Zn35 2.055 . S
O39 C61 1.259 . S
O40 Zn32 2.046 . S
O40 C61 1.254 . S
N41 Zn35 2.036 . S
N41 C42 1.298 . S
N41 N44 1.398 . S
C42 N41 1.298 . S
C42 N45 1.367 . S
C42 C55 1.481 . S
C43 N44 1.299 . S
C43 N45 1.379 . S
N44 N41 1.398 . S
N44 C43 1.299 . S
N45 C42 1.367 . S
N45 C43 1.379 . S
C46 N48 1.298 . S
C46 N50 1.367 . S
C46 C54 1.481 . S
C47 N49 1.299 . S
C47 N50 1.379 . S
N48 Zn32 2.036 . S
N48 C46 1.298 . S
N48 N49 1.398 . S
N49 C47 1.299 . S
N49 N48 1.398 . S
N50 C46 1.367 . S
N50 C47 1.379 . S
H51 C54 0.980 . S
H52 C54 0.981 . S
H53 C54 0.981 . S
C54 C46 1.481 . S
C54 H51 0.980 . S
C54 H52 0.981 . S
C54 H53 0.981 . S
C55 C42 1.481 . S
C55 H56 0.980 . S
C55 H57 0.981 . S
C55 H58 0.981 . S
H56 C55 0.980 . S
H57 C55 0.981 . S
H58 C55 0.981 . S
O59 Zn35 2.066 1_655 S
O59 C38 1.256 . S
O60 Zn32 2.053 1_655 S
O60 C38 1.244 . S
C61 O39 1.259 . S
C61 O40 1.254 . S
O62 Zn32 2.066 1_655 S
O62 C34 1.256 . S
O63 C34 1.244 . S
O63 Zn35 2.053 1_655 S
Zn64 O65 2.055 1_554 S
Zn64 O72 2.046 . S
Zn64 N80 2.039 . S
Zn64 O92 2.053 1_565 S
Zn64 O94 2.066 1_564 S
O65 Zn64 2.055 1_556 S
O65 C68 1.259 . S
C66 O94 1.256 . S
C66 O95 1.244 . S
Zn67 O69 2.046 1_554 S
Zn67 O71 2.055 . S
Zn67 N73 2.036 1_554 S
Zn67 O91 2.066 1_565 S
Zn67 O95 2.053 1_564 S
C68 O65 1.259 . S
C68 O69 1.254 . S
O69 Zn67 2.046 1_556 S
O69 C68 1.254 . S
C70 O91 1.256 . S
C70 O92 1.244 . S
O71 Zn67 2.055 . S
O71 C93 1.259 . S
O72 Zn64 2.046 . S
O72 C93 1.254 . S
N73 Zn67 2.036 1_556 S
N73 C74 1.298 1_556 S
N73 N76 1.398 1_565 S
C74 N73 1.298 1_554 S
C74 N77 1.367 1_565 S
C74 C87 1.481 . S
C75 N76 1.299 . S
C75 N77 1.379 1_556 S
N76 N73 1.398 1_545 S
N76 C75 1.299 . S
N77 C74 1.367 1_545 S
N77 C75 1.379 1_554 S
C78 N80 1.297 . S
C78 N82 1.367 1_565 S
C78 C86 1.481 1_554 S
C79 N81 1.299 . S
C79 N82 1.379 . S
N80 Zn64 2.039 . S
N80 C78 1.297 . S
N80 N81 1.387 1_565 S
N81 C79 1.299 . S
N81 N80 1.387 1_545 S
N82 C78 1.367 1_545 S
N82 C79 1.379 . S
H83 C86 0.980 . S
H84 C86 0.981 . S
H85 C86 0.973 1_545 S
C86 C78 1.481 1_556 S
C86 H83 0.980 . S
C86 H84 0.981 . S
C86 H85 0.973 1_565 S
C87 C74 1.481 . S
C87 H88 0.980 . S
C87 H89 0.981 . S
C87 H90 0.992 . S
H88 C87 0.980 . S
H89 C87 0.981 . S
H90 C87 0.992 . S
O91 Zn67 2.066 1_545 S
O91 C70 1.256 . S
O92 Zn64 2.053 1_545 S
O92 C70 1.244 . S
C93 O71 1.259 . S
C93 O72 1.254 . S
O94 Zn64 2.066 1_546 S
O94 C66 1.256 . S
O95 C66 1.244 . S
O95 Zn67 2.053 1_546 S
Zn96 O97 2.055 . S
Zn96 O104 2.046 . S
Zn96 N112 2.036 . S
Zn96 O124 2.053 1_455 S
Zn96 O126 2.066 1_455 S
O97 Zn96 2.055 . S
O97 C100 1.259 . S
C98 O126 1.256 . S
C98 O127 1.244 . S
Zn99 O101 2.046 . S
Zn99 O103 2.055 . S
Zn99 N105 2.036 . S
Zn99 O123 2.066 1_455 S
Zn99 O127 2.053 1_455 S
C100 O97 1.259 . S
C100 O101 1.254 . S
O101 Zn99 2.046 . S
O101 C100 1.254 . S
C102 O123 1.256 . S
C102 O124 1.244 . S
O103 Zn99 2.055 . S
O103 C125 1.259 . S
O104 Zn96 2.046 . S
O104 C125 1.254 . S
N105 Zn99 2.036 . S
N105 C106 1.298 . S
N105 N108 1.398 . S
C106 N105 1.298 . S
C106 N109 1.367 . S
C106 C119 1.481 . S
C107 N108 1.299 1_655 S
C107 N109 1.379 1_655 S
N108 N105 1.398 . S
N108 C107 1.299 1_455 S
N109 C106 1.367 . S
N109 C107 1.379 1_455 S
C110 N112 1.298 . S
C110 N114 1.367 . S
C110 C118 1.481 . S
C111 N113 1.299 1_655 S
C111 N114 1.379 1_655 S
N112 Zn96 2.036 . S
N112 C110 1.298 . S
N112 N113 1.398 . S
N113 C111 1.299 1_455 S
N113 N112 1.398 . S
N114 C110 1.367 . S
N114 C111 1.379 1_455 S
H115 C118 0.980 . S
H116 C118 0.981 . S
H117 C118 0.981 . S
C118 C110 1.481 . S
C118 H115 0.980 . S
C118 H116 0.981 . S
C118 H117 0.981 . S
C119 C106 1.481 . S
C119 H120 0.980 . S
C119 H121 0.981 . S
C119 H122 0.981 . S
H120 C119 0.980 . S
H121 C119 0.981 . S
H122 C119 0.981 . S
O123 Zn99 2.066 1_655 S
O123 C102 1.256 . S
O124 Zn96 2.053 1_655 S
O124 C102 1.244 . S
C125 O103 1.259 . S
C125 O104 1.254 . S
O126 Zn96 2.066 1_655 S
O126 C98 1.256 . S
O127 C98 1.244 . S
O127 Zn99 2.053 1_655 S
C128 C129 1.349 1_565 S
C128 C130 1.327 . S
C128 H153 0.950 . S
C129 C128 1.349 1_545 S
C129 C145 1.337 1_556 S
C130 C128 1.327 . S
C130 C149 1.429 1_566 S
C130 H154 0.950 . S
C131 C148 1.574 . S
C131 C150 1.368 1_455 S
C131 H155 0.949 1_455 S
H132 C136 0.949 . S
C133 C134 1.349 . S
C133 C135 1.327 . S
C133 H156 0.950 . S
C134 C133 1.349 . S
C134 C146 1.349 1_545 S
C135 C133 1.327 . S
C135 C151 1.429 . S
C135 H157 0.950 . S
C136 H132 0.949 . S
C136 C144 1.574 . S
C136 C152 1.368 1_565 S
H137 C145 0.957 . S
H138 C143 0.950 . S
H139 C144 0.951 1_556 S
H140 C146 0.950 . S
H141 C147 0.950 . S
H142 C148 0.949 . S
C143 H138 0.950 . S
C143 C145 1.333 . S
C143 C149 1.429 . S
C144 C136 1.574 . S
C144 H139 0.951 1_554 S
C144 C150 1.368 1_465 S
C145 C129 1.337 1_554 S
C145 H137 0.957 . S
C145 C143 1.333 . S
C146 C134 1.349 1_565 S
C146 H140 0.950 . S
C146 C147 1.327 . S
C147 H141 0.950 . S
C147 C146 1.327 . S
C147 C151 1.429 1_565 S
C148 C131 1.574 . S
C148 H142 0.949 . S
C148 C152 1.368 . S
C149 C130 1.429 1_544 S
C149 C143 1.429 . S
C149 C150 1.523 . S
C150 C131 1.368 1_655 S
C150 C144 1.368 1_645 S
C150 C149 1.523 . S
C151 C135 1.429 . S
C151 C147 1.429 1_545 S
C151 C152 1.523 . S
C152 C136 1.368 1_545 S
C152 C148 1.368 . S
C152 C151 1.523 . S
H153 C128 0.950 . S
H154 C130 0.950 . S
H155 C131 0.949 1_655 S
H156 C133 0.950 . S
H157 C135 0.950 . S
C158 C159 1.349 1_655 S
C158 C160 1.327 . S
C158 H183 0.950 . S
C159 C158 1.349 1_455 S
C159 C175 1.349 . S
C160 C158 1.327 . S
C160 C179 1.429 1_655 S
C160 H184 0.950 . S
C161 C178 1.574 1_565 S
C161 C180 1.368 . S
C161 H185 0.949 . S
H162 C166 0.949 . S
C163 C164 1.349 . S
C163 C165 1.327 . S
C163 H186 0.950 . S
C164 C163 1.349 . S
C164 C176 1.349 1_455 S
C165 C163 1.327 . S
C165 C181 1.429 . S
C165 H187 0.950 . S
C166 H162 0.949 . S
C166 C174 1.574 1_545 S
C166 C182 1.368 1_655 S
H167 C175 0.950 . S
H168 C173 0.950 . S
H169 C174 0.949 . S
H170 C176 0.950 . S
H171 C177 0.950 . S
H172 C178 0.949 . S
C173 H168 0.950 . S
C173 C175 1.327 . S
C173 C179 1.429 . S
C174 C166 1.574 1_565 S
C174 H169 0.949 . S
C174 C180 1.368 1_655 S
C175 C159 1.349 . S
C175 H167 0.950 . S
C175 C173 1.327 . S
C176 C164 1.349 1_655 S
C176 H170 0.950 . S
C176 C177 1.327 . S
C177 H171 0.950 . S
C177 C176 1.327 . S
C177 C181 1.429 1_655 S
C178 C161 1.574 1_545 S
C178 H172 0.949 . S
C178 C182 1.368 . S
C179 C160 1.429 1_455 S
C179 C173 1.429 . S
C179 C180 1.523 . S
C180 C161 1.368 . S
C180 C174 1.368 1_455 S
C180 C179 1.523 . S
C181 C165 1.429 . S
C181 C177 1.429 1_455 S
C181 C182 1.523 . S
C182 C166 1.368 1_455 S
C182 C178 1.368 . S
C182 C181 1.523 . S
H183 C158 0.950 . S
H184 C160 0.950 . S
H185 C161 0.949 . S
H186 C163 0.950 . S
H187 C165 0.950 . S
C188 C189 1.349 1_556 S
C188 C190 1.327 . S
C188 H213 0.950 1_545 S
C189 C188 1.349 1_554 S
C189 C205 1.349 . S
C190 C188 1.327 . S
C190 C209 1.429 1_556 S
C190 H214 0.950 1_545 S
C191 C208 1.574 . S
C191 C210 1.368 . S
C191 H215 0.949 . S
H192 C196 0.949 . S
C193 C194 1.349 . S
C193 C195 1.327 . S
C193 H216 0.950 . S
C194 C193 1.349 . S
C194 C206 1.349 . S
C195 C193 1.327 . S
C195 C211 1.429 . S
C195 H217 0.950 . S
C196 H192 0.949 . S
C196 C204 1.574 . S
C196 C212 1.368 1_556 S
H197 C205 0.950 . S
H198 C203 0.950 . S
H199 C204 0.949 1_565 S
H200 C206 0.950 1_556 S
H201 C207 0.950 1_556 S
H202 C208 0.949 . S
C203 H198 0.950 . S
C203 C205 1.327 . S
C203 C209 1.429 . S
C204 C196 1.574 . S
C204 H199 0.949 1_545 S
C204 C210 1.368 1_556 S
C205 C189 1.349 . S
C205 H197 0.950 . S
C205 C203 1.327 . S
C206 C194 1.349 . S
C206 H200 0.950 1_554 S
C206 C207 1.327 . S
C207 H201 0.950 1_554 S
C207 C206 1.327 . S
C207 C211 1.429 . S
C208 C191 1.574 . S
C208 H202 0.949 . S
C208 C212 1.368 . S
C209 C190 1.429 1_554 S
C209 C203 1.429 . S
C209 C210 1.523 . S
C210 C191 1.368 . S
C210 C204 1.368 1_554 S
C210 C209 1.523 . S
C211 C195 1.429 . S
C211 C207 1.429 . S
C211 C212 1.523 . S
C212 C196 1.368 1_554 S
C212 C208 1.368 . S
C212 C211 1.523 . S
H213 C188 0.950 1_565 S
H214 C190 0.950 1_565 S
H215 C191 0.949 . S
H216 C193 0.950 . S
H217 C195 0.950 . S
C218 C219 1.349 . S
C218 C220 1.327 . S
C218 H243 0.950 . S
C219 C218 1.349 . S
C219 C235 1.349 1_455 S
C220 C218 1.327 . S
C220 C239 1.429 . S
C220 H244 0.950 . S
C221 C238 1.574 . S
C221 C240 1.368 1_655 S
C221 H245 0.949 . S
H222 C226 0.949 . S
C223 C224 1.349 1_655 S
C223 C225 1.327 . S
C223 H246 0.950 . S
C224 C223 1.349 1_455 S
C224 C236 1.349 . S
C225 C223 1.327 . S
C225 C241 1.429 1_655 S
C225 H247 0.950 . S
C226 H222 0.949 . S
C226 C234 1.574 . S
C226 C242 1.368 . S
H227 C235 0.950 . S
H228 C233 0.950 . S
H229 C234 0.949 . S
H230 C236 0.950 . S
H231 C237 0.950 . S
H232 C238 0.949 . S
C233 H228 0.950 . S
C233 C235 1.327 . S
C233 C239 1.429 1_655 S
C234 C226 1.574 . S
C234 H229 0.949 . S
C234 C240 1.368 . S
C235 C219 1.349 1_655 S
C235 H227 0.950 . S
C235 C233 1.327 . S
C236 C224 1.349 . S
C236 H230 0.950 . S
C236 C237 1.327 . S
C237 H231 0.950 . S
C237 C236 1.327 . S
C237 C241 1.429 . S
C238 C221 1.574 . S
C238 H232 0.949 . S
C238 C242 1.368 1_655 S
C239 C220 1.429 . S
C239 C233 1.429 1_455 S
C239 C240 1.523 . S
C240 C221 1.368 1_455 S
C240 C234 1.368 . S
C240 C239 1.523 . S
C241 C225 1.429 1_455 S
C241 C237 1.429 . S
C241 C242 1.523 . S
C242 C226 1.368 . S
C242 C238 1.368 1_455 S
C242 C241 1.523 . S
H243 C218 0.950 . S
H244 C220 0.950 . S
H245 C221 0.949 . S
H246 C223 0.950 . S
H247 C225 0.950 . S
C248 C249 1.349 . S
C248 C250 1.327 . S
C248 H273 0.950 . S
C249 C248 1.349 . S
C249 C265 1.349 . S
C250 C248 1.327 . S
C250 C269 1.429 . S
C250 H274 0.950 . S
C251 C268 1.574 . S
C251 C270 1.368 . S
C251 H275 0.949 . S
H252 C256 0.949 . S
C253 C254 1.349 . S
C253 C255 1.327 . S
C253 H276 0.950 . S
C254 C253 1.349 . S
C254 C266 1.349 . S
C255 C253 1.327 . S
C255 C271 1.429 . S
C255 H277 0.950 . S
C256 H252 0.949 . S
C256 C264 1.574 . S
C256 C272 1.368 . S
H257 C265 0.950 . S
H258 C263 0.950 . S
H259 C264 0.949 . S
H260 C266 0.950 . S
H261 C267 0.950 . S
H262 C268 0.949 . S
C263 H258 0.950 . S
C263 C265 1.327 . S
C263 C269 1.429 . S
C264 C256 1.574 . S
C264 H259 0.949 . S
C264 C270 1.368 . S
C265 C249 1.349 . S
C265 H257 0.950 . S
C265 C263 1.327 . S
C266 C254 1.349 . S
C266 H260 0.950 . S
C266 C267 1.327 . S
C267 H261 0.950 . S
C267 C266 1.327 . S
C267 C271 1.429 . S
C268 C251 1.574 . S
C268 H262 0.949 . S
C268 C272 1.368 . S
C269 C250 1.429 . S
C269 C263 1.429 . S
C269 C270 1.523 . S
C270 C251 1.368 . S
C270 C264 1.368 . S
C270 C269 1.523 . S
C271 C255 1.429 . S
C271 C267 1.429 . S
C271 C272 1.523 . S
C272 C256 1.368 . S
C272 C268 1.368 . S
C272 C271 1.523 . S
H273 C248 0.950 . S
H274 C250 0.950 . S
H275 C251 0.949 . S
H276 C253 0.950 . S
H277 C255 0.950 . S
C278 C279 1.349 . S
C278 C280 1.327 . S
C278 H303 0.950 . S
C279 C278 1.349 . S
C279 C295 1.349 . S
C280 C278 1.327 . S
C280 C299 1.429 . S
C280 H304 0.950 . S
C281 C298 1.574 . S
C281 C300 1.368 . S
C281 H305 0.949 . S
H282 C286 0.949 . S
C283 C284 1.349 . S
C283 C285 1.327 . S
C283 H306 0.950 . S
C284 C283 1.349 . S
C284 C296 1.349 . S
C285 C283 1.327 . S
C285 C301 1.429 . S
C285 H307 0.950 . S
C286 H282 0.949 . S
C286 C294 1.574 . S
C286 C302 1.368 . S
H287 C295 0.950 . S
H288 C293 0.950 . S
H289 C294 0.949 . S
H290 C296 0.950 . S
H291 C297 0.950 . S
H292 C298 0.949 . S
C293 H288 0.950 . S
C293 C295 1.327 . S
C293 C299 1.429 . S
C294 C286 1.574 . S
C294 H289 0.949 . S
C294 C300 1.368 . S
C295 C279 1.349 . S
C295 H287 0.950 . S
C295 C293 1.327 . S
C296 C284 1.349 . S
C296 H290 0.950 . S
C296 C297 1.327 . S
C297 H291 0.950 . S
C297 C296 1.327 . S
C297 C301 1.429 . S
C298 C281 1.574 . S
C298 H292 0.949 . S
C298 C302 1.368 . S
C299 C280 1.429 . S
C299 C293 1.429 . S
C299 C300 1.523 . S
C300 C281 1.368 . S
C300 C294 1.368 . S
C300 C299 1.523 . S
C301 C285 1.429 . S
C301 C297 1.429 . S
C301 C302 1.523 . S
C302 C286 1.368 . S
C302 C298 1.368 . S
C302 C301 1.523 . S
H303 C278 0.950 . S
H304 C280 0.950 . S
H305 C281 0.949 . S
H306 C283 0.950 . S
H307 C285 0.950 . S
C308 C309 1.349 . S
C308 C310 1.327 . S
C308 H333 0.950 . S
C309 C308 1.349 . S
C309 C325 1.349 . S
C310 C308 1.327 . S
C310 C329 1.429 . S
C310 H334 0.950 . S
C311 C328 1.574 . S
C311 C330 1.368 . S
C311 H335 0.949 . S
H312 C316 0.949 . S
C313 C314 1.349 . S
C313 C315 1.327 . S
C313 H336 0.950 . S
C314 C313 1.349 . S
C314 C326 1.349 . S
C315 C313 1.327 . S
C315 C331 1.429 . S
C315 H337 0.950 . S
C316 H312 0.949 . S
C316 C324 1.574 . S
C316 C332 1.368 . S
H317 C325 0.950 . S
H318 C323 0.950 . S
H319 C324 0.949 . S
H320 C326 0.950 . S
H321 C327 0.950 . S
H322 C328 0.949 . S
C323 H318 0.950 . S
C323 C325 1.327 . S
C323 C329 1.429 . S
C324 C316 1.574 . S
C324 H319 0.949 . S
C324 C330 1.368 . S
C325 C309 1.349 . S
C325 H317 0.950 . S
C325 C323 1.327 . S
C326 C314 1.349 . S
C326 H320 0.950 . S
C326 C327 1.327 . S
C327 H321 0.950 . S
C327 C326 1.327 . S
C327 C331 1.429 . S
C328 C311 1.574 . S
C328 H322 0.949 . S
C328 C332 1.368 . S
C329 C310 1.429 . S
C329 C323 1.429 . S
C329 C330 1.523 . S
C330 C311 1.368 . S
C330 C324 1.368 . S
C330 C329 1.523 . S
C331 C315 1.429 . S
C331 C327 1.429 . S
C331 C332 1.523 . S
C332 C316 1.368 . S
C332 C328 1.368 . S
C332 C331 1.523 . S
H333 C308 0.950 . S
H334 C310 0.950 . S
H335 C311 0.949 . S
H336 C313 0.950 . S
H337 C315 0.950 . S
C338 C339 1.349 . S
C338 C340 1.327 . S
C338 H363 0.950 . S
C339 C338 1.349 . S
C339 C355 1.349 . S
C340 C338 1.327 . S
C340 C359 1.429 . S
C340 H364 0.950 . S
C341 C358 1.574 . S
C341 C360 1.368 . S
C341 H365 0.949 . S
H342 C346 0.949 . S
C343 C344 1.349 . S
C343 C345 1.327 . S
C343 H366 0.950 . S
C344 C343 1.349 . S
C344 C356 1.349 . S
C345 C343 1.327 . S
C345 C361 1.429 . S
C345 H367 0.950 . S
C346 H342 0.949 . S
C346 C354 1.574 . S
C346 C362 1.368 . S
H347 C355 0.950 . S
H348 C353 0.950 . S
H349 C354 0.949 . S
H350 C356 0.950 . S
H351 C357 0.950 . S
H352 C358 0.949 . S
C353 H348 0.950 . S
C353 C355 1.327 . S
C353 C359 1.429 . S
C354 C346 1.574 . S
C354 H349 0.949 . S
C354 C360 1.368 . S
C355 C339 1.349 . S
C355 H347 0.950 . S
C355 C353 1.327 . S
C356 C344 1.349 . S
C356 H350 0.950 . S
C356 C357 1.327 . S
C357 H351 0.950 . S
C357 C356 1.327 . S
C357 C361 1.429 . S
C358 C341 1.574 . S
C358 H352 0.949 . S
C358 C362 1.368 . S
C359 C340 1.429 . S
C359 C353 1.429 . S
C359 C360 1.523 . S
C360 C341 1.368 . S
C360 C354 1.368 . S
C360 C359 1.523 . S
C361 C345 1.429 . S
C361 C357 1.429 . S
C361 C362 1.523 . S
C362 C346 1.368 . S
C362 C358 1.368 . S
C362 C361 1.523 . S
H363 C338 0.950 . S
H364 C340 0.950 . S
H365 C341 0.949 . S
H366 C343 0.950 . S
H367 C345 0.950 . S
C368 C369 1.349 . S
C368 C370 1.327 . S
C368 H393 0.950 . S
C369 C368 1.349 . S
C369 C385 1.349 . S
C370 C368 1.327 . S
C370 C389 1.429 . S
C370 H394 0.950 . S
C371 C388 1.574 . S
C371 C390 1.368 . S
C371 H395 0.949 . S
H372 C376 0.949 . S
C373 C374 1.349 . S
C373 C375 1.327 . S
C373 H396 0.950 . S
C374 C373 1.349 . S
C374 C386 1.349 . S
C375 C373 1.327 . S
C375 C391 1.429 . S
C375 H397 0.950 . S
C376 H372 0.949 . S
C376 C384 1.574 . S
C376 C392 1.368 . S
H377 C385 0.950 . S
H378 C383 0.950 . S
H379 C384 0.949 . S
H380 C386 0.950 . S
H381 C387 0.950 . S
H382 C388 0.949 . S
C383 H378 0.950 . S
C383 C385 1.327 . S
C383 C389 1.429 . S
C384 C376 1.574 . S
C384 H379 0.949 . S
C384 C390 1.368 . S
C385 C369 1.349 . S
C385 H377 0.950 . S
C385 C383 1.327 . S
C386 C374 1.349 . S
C386 H380 0.950 . S
C386 C387 1.327 . S
C387 H381 0.950 . S
C387 C386 1.327 . S
C387 C391 1.429 . S
C388 C371 1.574 . S
C388 H382 0.949 . S
C388 C392 1.368 . S
C389 C370 1.429 . S
C389 C383 1.429 . S
C389 C390 1.523 . S
C390 C371 1.368 . S
C390 C384 1.368 . S
C390 C389 1.523 . S
C391 C375 1.429 . S
C391 C387 1.429 . S
C391 C392 1.523 . S
C392 C376 1.368 . S
C392 C388 1.368 . S
C392 C391 1.523 . S
H393 C368 0.950 . S
H394 C370 0.950 . S
H395 C371 0.949 . S
H396 C373 0.950 . S
H397 C375 0.950 . S
C398 C399 1.349 . S
C398 C400 1.327 . S
C398 H423 0.950 . S
C399 C398 1.349 . S
C399 C415 1.349 . S
C400 C398 1.327 . S
C400 C419 1.429 . S
C400 H424 0.950 . S
C401 C418 1.574 . S
C401 C420 1.368 . S
C401 H425 0.949 . S
H402 C406 0.949 . S
C403 C404 1.349 . S
C403 C405 1.327 . S
C403 H426 0.950 . S
C404 C403 1.349 . S
C404 C416 1.349 . S
C405 C403 1.327 . S
C405 C421 1.429 . S
C405 H427 0.950 . S
C406 H402 0.949 . S
C406 C414 1.574 . S
C406 C422 1.368 . S
H407 C415 0.950 . S
H408 C413 0.950 . S
H409 C414 0.949 . S
H410 C416 0.950 . S
H411 C417 0.950 . S
H412 C418 0.949 . S
C413 H408 0.950 . S
C413 C415 1.327 . S
C413 C419 1.429 . S
C414 C406 1.574 . S
C414 H409 0.949 . S
C414 C420 1.368 . S
C415 C399 1.349 . S
C415 H407 0.950 . S
C415 C413 1.327 . S
C416 C404 1.349 . S
C416 H410 0.950 . S
C416 C417 1.327 . S
C417 H411 0.950 . S
C417 C416 1.327 . S
C417 C421 1.429 . S
C418 C401 1.574 . S
C418 H412 0.949 . S
C418 C422 1.368 . S
C419 C400 1.429 . S
C419 C413 1.429 . S
C419 C420 1.523 . S
C420 C401 1.368 . S
C420 C414 1.368 . S
C420 C419 1.523 . S
C421 C405 1.429 . S
C421 C417 1.429 . S
C421 C422 1.523 . S
C422 C406 1.368 . S
C422 C418 1.368 . S
C422 C421 1.523 . S
H423 C398 0.950 . S
H424 C400 0.950 . S
H425 C401 0.949 . S
H426 C403 0.950 . S
H427 C405 0.950 . S
C428 C429 1.349 . S
C428 C430 1.327 . S
C428 H453 0.950 . S
C429 C428 1.349 . S
C429 C445 1.349 . S
C430 C428 1.327 . S
C430 C449 1.429 . S
C430 H454 0.950 . S
C431 C448 1.574 . S
C431 C450 1.368 . S
C431 H455 0.949 . S
H432 C436 0.949 . S
C433 C434 1.349 . S
C433 C435 1.327 . S
C433 H456 0.950 1_556 S
C434 C433 1.349 . S
C434 C446 1.349 . S
C435 C433 1.327 . S
C435 C451 1.429 . S
C435 H457 0.950 . S
C436 H432 0.949 . S
C436 C444 1.574 . S
C436 C452 1.368 . S
H437 C445 0.950 . S
H438 C443 0.950 . S
H439 C444 0.949 . S
H440 C446 0.950 . S
H441 C447 0.950 . S
H442 C448 0.949 . S
C443 H438 0.950 . S
C443 C445 1.327 . S
C443 C449 1.429 . S
C444 C436 1.574 . S
C444 H439 0.949 . S
C444 C450 1.368 . S
C445 C429 1.349 . S
C445 H437 0.950 . S
C445 C443 1.327 . S
C446 C434 1.349 . S
C446 H440 0.950 . S
C446 C447 1.327 . S
C447 H441 0.950 . S
C447 C446 1.327 . S
C447 C451 1.429 . S
C448 C431 1.574 . S
C448 H442 0.949 . S
C448 C452 1.368 . S
C449 C430 1.429 . S
C449 C443 1.429 . S
C449 C450 1.523 . S
C450 C431 1.368 . S
C450 C444 1.368 . S
C450 C449 1.523 . S
C451 C435 1.429 . S
C451 C447 1.429 . S
C451 C452 1.523 . S
C452 C436 1.368 . S
C452 C448 1.368 . S
C452 C451 1.523 . S
H453 C428 0.950 . S
H454 C430 0.950 . S
H455 C431 0.949 . S
H456 C433 0.950 1_554 S
H457 C435 0.950 . S
C458 C459 1.349 . S
C458 C460 1.327 . S
C458 H483 0.950 . S
C459 C458 1.349 . S
C459 C475 1.349 . S
C460 C458 1.327 . S
C460 C479 1.429 . S
C460 H484 0.950 . S
C461 C478 1.574 . S
C461 C480 1.368 . S
C461 H485 0.949 . S
H462 C466 0.949 . S
C463 C464 1.349 . S
C463 C465 1.327 . S
C463 H486 0.950 . S
C464 C463 1.349 . S
C464 C476 1.349 . S
C465 C463 1.327 . S
C465 C481 1.429 . S
C465 H487 0.950 . S
C466 H462 0.949 . S
C466 C474 1.574 . S
C466 C482 1.368 . S
H467 C475 0.950 . S
H468 C473 0.950 . S
H469 C474 0.949 . S
H470 C476 0.950 . S
H471 C477 0.950 . S
H472 C478 0.949 . S
C473 H468 0.950 . S
C473 C475 1.327 . S
C473 C479 1.429 . S
C474 C466 1.574 . S
C474 H469 0.949 . S
C474 C480 1.368 . S
C475 C459 1.349 . S
C475 H467 0.950 . S
C475 C473 1.327 . S
C476 C464 1.349 . S
C476 H470 0.950 . S
C476 C477 1.327 . S
C477 H471 0.950 . S
C477 C476 1.327 . S
C477 C481 1.429 . S
C478 C461 1.574 . S
C478 H472 0.949 . S
C478 C482 1.368 . S
C479 C460 1.429 . S
C479 C473 1.429 . S
C479 C480 1.523 . S
C480 C461 1.368 . S
C480 C474 1.368 . S
C480 C479 1.523 . S
C481 C465 1.429 . S
C481 C477 1.429 . S
C481 C482 1.523 . S
C482 C466 1.368 . S
C482 C478 1.368 . S
C482 C481 1.523 . S
H483 C458 0.950 . S
H484 C460 0.950 . S
H485 C461 0.949 . S
H486 C463 0.950 . S
H487 C465 0.950 . S
C129 N82 2.916 1_556 S
C134 N13 2.924 . S
C159 N114 2.924 . S
C164 N45 2.916 . S
C189 N77 0.916 . S
C194 N18 0.915 . S
C219 N50 0.916 . S
C224 N109 0.915 . S
C249 C36 1.626 . S
C254 C6 1.618 . S
C279 C38 2.021 . S
C284 C66 2.018 . S
C309 C98 1.618 . S
C314 C93 1.629 . S
C339 C125 1.284 . S
C344 C4 1.284 . S
C369 C68 1.728 . S
C374 C102 1.732 . S
C399 C29 1.974 . S
C404 C100 1.974 . S
C429 C61 1.728 . S
C434 C2 1.731 1_556 S
C459 C70 1.515 . S
C464 C34 1.514 . S
