# Generated by pormake.
# Topology wli, (5)-cn, num edge types: 1
# Building blocks:
#     Node 0, Type 0, BuildingBlock: XOMCOT_clean_sbu_0, # of connection points: 5
#     Node 1, Type 0, BuildingBlock: XOMCOT_clean_sbu_0, # of connection points: 5
#     Node 2, Type 0, BuildingBlock: XOMCOT_clean_sbu_0, # of connection points: 5
#     Node 3, Type 0, BuildingBlock: XOMCOT_clean_sbu_0, # of connection points: 5
#     Node 4, Type 0, BuildingBlock: XOMCOT_clean_sbu_0, # of connection points: 5
#     Node 5, Type 0, BuildingBlock: XOMCOT_clean_sbu_0, # of connection points: 5
#     Edge 6, Type (0, 0), BuildingBlock: TEMPAE_clean_linker_10, # of connection points: 2
#     Edge 7, Type (0, 0), BuildingBlock: TEMPAE_clean_linker_10, # of connection points: 2
#     Edge 8, Type (0, 0), BuildingBlock: TEMPAE_clean_linker_10, # of connection points: 2
#     Edge 9, Type (0, 0), BuildingBlock: TEMPAE_clean_linker_10, # of connection points: 2
#     Edge 10, Type (0, 0), BuildingBlock: TEMPAE_clean_linker_10, # of connection points: 2
#     Edge 11, Type (0, 0), BuildingBlock: TEMPAE_clean_linker_10, # of connection points: 2
#     Edge 12, Type (0, 0), BuildingBlock: TEMPAE_clean_linker_10, # of connection points: 2
#     Edge 13, Type (0, 0), BuildingBlock: TEMPAE_clean_linker_10, # of connection points: 2
#     Edge 14, Type (0, 0), BuildingBlock: TEMPAE_clean_linker_10, # of connection points: 2
#     Edge 15, Type (0, 0), BuildingBlock: TEMPAE_clean_linker_10, # of connection points: 2
#     Edge 16, Type (0, 0), BuildingBlock: TEMPAE_clean_linker_10, # of connection points: 2
#     Edge 17, Type (0, 0), BuildingBlock: TEMPAE_clean_linker_10, # of connection points: 2
#     Edge 18, Type (0, 0), BuildingBlock: TEMPAE_clean_linker_10, # of connection points: 2
#     Edge 19, Type (0, 0), BuildingBlock: TEMPAE_clean_linker_10, # of connection points: 2
#     Edge 20, Type (0, 0), BuildingBlock: TEMPAE_clean_linker_10, # of connection points: 2
# Relax obj value: 0.131
# Max RMSD: 0.157
# Mean RMSD: 0.157
data_MOF--net-wli--node1-XOMCOT_clean_sbu_0--edge1-TEMPAE_clean_linker_10
_symmetry_space_group_name_H-M    P1
_symmetry_Int_Tables_number       1
_symmetry_cell_setting            triclinic
loop_
_symmetry_equiv_pos_as_xyz
'x, y, z'
_cell_length_a     36.991915
_cell_length_b     36.898373
_cell_length_c     26.748828
_cell_angle_alpha  89.880172
_cell_angle_beta   90.049043
_cell_angle_gamma 119.85324
loop_
_atom_site_label
_atom_site_type_symbol
_atom_site_fract_x
_atom_site_fract_y
_atom_site_fract_z
_atom_type_partial_charge
Co0 Co 0.21244 0.43359 0.10818 0.0
C1 C 0.14972 0.38225 0.18572 0.0
C2 C 0.20507 0.37796 0.19203 0.0
C3 C 0.17902 0.35631 0.23123 0.0
N4 N 0.18616 0.39312 0.16227 0.0
N5 N 0.14413 0.35903 0.22717 0.0
H6 H 0.12926 0.39403 0.17566 0.0
H7 H 0.23651 0.38376 0.18707 0.0
C8 C 0.23811 0.37063 0.08588 0.0
O9 O 0.1988 0.3425 0.09334 0.0
N10 N 0.23885 0.47511 0.05636 0.0
C11 C 0.21933 0.48927 0.02634 0.0
C12 C 0.24836 0.51968 0.9956 0.0
C13 C 0.2796 0.49741 0.04414 0.0
N14 N 0.28622 0.52481 1.00675 0.0
C15 C 0.13018 0.38422 0.06469 0.0
C16 C 0.15755 0.36812 0.97581 0.0
C17 C 0.11487 0.35341 0.98193 0.0
C18 C 0.10128 0.36156 0.0273 0.0
C19 C 0.18524 0.39029 0.01421 0.0
N20 N 0.1715 0.39725 0.05872 0.0
H21 H 0.11931 0.39302 0.09708 0.0
H22 H 0.21817 0.40342 1.00718 0.0
H23 H 0.18626 0.47844 0.02714 0.0
H24 H 0.30372 0.49361 0.06214 0.0
O25 O 0.1851 0.46338 0.13135 0.0
O26 O 0.24671 0.47471 0.15767 0.0
O27 O 0.24995 0.4095 0.09145 0.0
C28 C 0.2174 0.48452 0.15989 0.0
H29 H 0.18581 0.34071 0.261 0.0
H30 H 0.24217 0.53738 0.96798 0.0
H31 H 0.16988 0.36427 0.94075 0.0
H32 H 0.0687 0.35148 0.03352 0.0
Co33 Co 0.59409 0.78483 0.7768 0.0
C34 C 0.65038 0.77608 0.84954 0.0
C35 C 0.64482 0.83007 0.86439 0.0
C36 C 0.66856 0.8264 0.90167 0.0
N37 N 0.63433 0.79916 0.83079 0.0
N38 N 0.67175 0.79223 0.89236 0.0
H39 H 0.64507 0.74696 0.83401 0.0
H40 H 0.63449 0.8528 0.86299 0.0
C41 C 0.6549 0.87569 0.75917 0.0
O42 O 0.68508 0.86845 0.77168 0.0
N43 N 0.55316 0.76976 0.7245 0.0
C44 C 0.53939 0.73625 0.69442 0.0
C45 C 0.50962 0.73541 0.66293 0.0
C46 C 0.53137 0.78871 0.71141 0.0
N47 N 0.50457 0.76837 0.67355 0.0
C48 C 0.63578 0.74545 0.73074 0.0
C49 C 0.66438 0.7969 0.64774 0.0
C50 C 0.67009 0.76228 0.65039 0.0
C51 C 0.65567 0.73641 0.69249 0.0
C52 C 0.64353 0.8043 0.68631 0.0
N53 N 0.6306 0.77959 0.72818 0.0
H54 H 0.62185 0.72301 0.76048 0.0
H55 H 0.63539 0.82823 0.68035 0.0
H56 H 0.54991 0.71367 0.69573 0.0
H57 H 0.53514 0.81673 0.72912 0.0
O58 O 0.56458 0.728 0.80092 0.0
O59 O 0.5527 0.77834 0.82583 0.0
O60 O 0.61696 0.846 0.75961 0.0
C61 C 0.54324 0.73933 0.82887 0.0
H62 H 0.68056 0.84596 0.9345 0.0
H63 H 0.49228 0.7117 0.63517 0.0
H64 H 0.67352 0.81647 0.61465 0.0
H65 H 0.65838 0.70854 0.69495 0.0
Co66 Co 0.24274 0.81448 0.44378 0.0
C67 C 0.2515 0.87925 0.51759 0.0
C68 C 0.19697 0.82004 0.53065 0.0
C69 C 0.20042 0.84682 0.56849 0.0
N70 N 0.22832 0.84062 0.4977 0.0
N71 N 0.23486 0.88413 0.56035 0.0
H72 H 0.28167 0.9023 0.50388 0.0
H73 H 0.17395 0.78721 0.52845 0.0
C74 C 0.15274 0.78511 0.42618 0.0
O75 O 0.16143 0.82347 0.43619 0.0
N76 N 0.25797 0.78825 0.39186 0.0
C77 C 0.29125 0.80807 0.36153 0.0
C78 C 0.29246 0.77924 0.33021 0.0
C79 C 0.23952 0.7475 0.37911 0.0
N80 N 0.25996 0.74116 0.34117 0.0
C81 C 0.27679 0.89548 0.3964 0.0
C82 C 0.22848 0.86695 0.31109 0.0
C83 C 0.25976 0.9089 0.31344 0.0
C84 C 0.28375 0.92327 0.35709 0.0
C85 C 0.22259 0.84033 0.35109 0.0
N86 N 0.24584 0.85469 0.39383 0.0
H87 H 0.29853 0.90623 0.42695 0.0
H88 H 0.20102 0.80748 0.34592 0.0
H89 H 0.31331 0.84123 0.36241 0.0
H90 H 0.21174 0.72318 0.39699 0.0
O91 O 0.29988 0.84303 0.46641 0.0
O92 O 0.25086 0.78095 0.49335 0.0
O93 O 0.18155 0.77549 0.42818 0.0
C94 C 0.28959 0.81084 0.49514 0.0
H95 H 0.17966 0.83893 0.60018 0.0
H96 H 0.31604 0.78573 0.30222 0.0
H97 H 0.20972 0.8543 0.27773 0.0
H98 H 0.30943 0.95505 0.35961 0.0
Co99 Co 0.44244 0.20588 0.89546 0.0
C100 C 0.38639 0.14289 0.82401 0.0
C101 C 0.38033 0.19772 0.81983 0.0
C102 C 0.35521 0.16973 0.78369 0.0
N103 N 0.39971 0.18066 0.84497 0.0
N104 N 0.35931 0.13535 0.7862 0.0
H105 H 0.39693 0.12164 0.83588 0.0
H106 H 0.38509 0.22874 0.82617 0.0
C107 C 0.41483 0.24965 0.96671 0.0
O108 O 0.42811 0.23475 1.00254 0.0
N109 N 0.48671 0.23122 0.94514 0.0
C110 C 0.50475 0.213 0.97108 0.0
C111 C 0.53625 0.24255 0.99997 0.0
C112 C 0.50911 0.27225 0.95706 0.0
N113 N 0.53883 0.27973 0.99143 0.0
C114 C 0.41855 0.12973 0.9494 0.0
C115 C 0.34891 0.12364 0.99526 0.0
C116 C 0.36394 0.09738 0.01134 0.0
C117 C 0.3979 0.09921 0.98586 0.0
C118 C 0.37045 0.15349 0.95816 0.0
N119 N 0.40738 0.15914 0.93969 0.0
H120 H 0.44417 0.13012 0.92975 0.0
H121 H 0.35775 0.1726 0.9454 0.0
H122 H 0.49727 0.18096 0.96844 0.0
H123 H 0.50324 0.29594 0.94154 0.0
O124 O 0.47304 0.18283 0.86307 0.0
O125 O 0.48074 0.24509 0.8465 0.0
O126 O 0.41706 0.24037 0.92101 0.0
C127 C 0.49216 0.2175 0.83785 0.0
H128 H 0.3367 0.17505 0.75643 0.0
H129 H 0.55648 0.23725 0.02447 0.0
H130 H 0.3217 0.12227 0.01224 0.0
H131 H 0.4089 0.07765 0.99453 0.0
Co132 Co 0.82198 0.23885 0.56932 0.0
C133 C 0.88674 0.2536 0.49495 0.0
C134 C 0.83081 0.19494 0.48277 0.0
C135 C 0.8594 0.20018 0.4464 0.0
N136 N 0.84811 0.22838 0.51314 0.0
N137 N 0.89454 0.23711 0.45404 0.0
H138 H 0.9086 0.28333 0.51148 0.0
H139 H 0.79941 0.16892 0.48633 0.0
C140 C 0.75208 0.1557 0.59452 0.0
O141 O 0.72822 0.17247 0.58942 0.0
N142 N 0.79564 0.24888 0.6267 0.0
C143 C 0.7991 0.23908 0.67444 0.0
C144 C 0.77211 0.24488 0.70394 0.0
C145 C 0.76578 0.25995 0.62796 0.0
N146 N 0.75096 0.25777 0.67478 0.0
C147 C 0.892 0.28603 0.63191 0.0
C148 C 0.90717 0.22193 0.65661 0.0
C149 C 0.93035 0.26088 0.67995 0.0
C150 C 0.92317 0.29341 0.66629 0.0
C151 C 0.87659 0.21601 0.62158 0.0
N152 N 0.86835 0.24746 0.61123 0.0
H153 H 0.88543 0.31084 0.62371 0.0
H154 H 0.85904 0.18591 0.60375 0.0
H155 H 0.81806 0.22606 0.68688 0.0
H156 H 0.75362 0.2675 0.59524 0.0
O157 O 0.84364 0.29543 0.54674 0.0
O158 O 0.78277 0.24233 0.52364 0.0
O159 O 0.79108 0.17749 0.58587 0.0
C160 C 0.8101 0.28207 0.52008 0.0
H161 H 0.85423 0.17891 0.4159 0.0
H162 H 0.76642 0.2373 0.74331 0.0
H163 H 0.91231 0.19624 0.66581 0.0
H164 H 0.94017 0.32382 0.68382 0.0
Co165 Co 0.78893 0.58623 0.23019 0.0
C166 C 0.78211 0.64329 0.15661 0.0
C167 C 0.83507 0.6361 0.14232 0.0
C168 C 0.83213 0.66005 0.10469 0.0
N169 N 0.80433 0.62647 0.17576 0.0
N170 N 0.79861 0.66447 0.11356 0.0
H171 H 0.75271 0.63755 0.17142 0.0
H172 H 0.85736 0.62527 0.14425 0.0
C173 C 0.87908 0.64689 0.24814 0.0
O174 O 0.87109 0.67657 0.23522 0.0
N175 N 0.77228 0.54512 0.28289 0.0
C176 C 0.7383 0.5324 0.31184 0.0
C177 C 0.73491 0.50135 0.34314 0.0
C178 C 0.78897 0.52131 0.29647 0.0
N179 N 0.76671 0.49431 0.33359 0.0
C180 C 0.75068 0.62988 0.27503 0.0
C181 C 0.80202 0.65823 0.3578 0.0
C182 C 0.76829 0.66544 0.35505 0.0
C183 C 0.74255 0.65106 0.31268 0.0
C184 C 0.80832 0.63602 0.32005 0.0
N185 N 0.7839 0.62341 0.27813 0.0
H186 H 0.72824 0.61601 0.24538 0.0
H187 H 0.8315 0.62701 0.32655 0.0
H188 H 0.71692 0.54431 0.30962 0.0
H189 H 0.81659 0.52363 0.2795 0.0
O190 O 0.73255 0.55719 0.20501 0.0
O191 O 0.78281 0.54468 0.18183 0.0
O192 O 0.84978 0.60867 0.24827 0.0
C193 C 0.74412 0.53565 0.17769 0.0
H194 H 0.85266 0.67229 0.07273 0.0
H195 H 0.71016 0.48441 0.36992 0.0
H196 H 0.8227 0.66826 0.38976 0.0
H197 H 0.71492 0.65397 0.30973 0.0
C198 C 0.23116 0.6645 0.34403 0.0
C199 C 0.25034 0.70229 0.31735 0.0
C200 C 0.22399 0.627 0.32163 0.0
C201 C 0.23611 0.6273 0.27131 0.0
C202 C 0.2547 0.66521 0.24398 0.0
C203 C 0.26155 0.70211 0.26728 0.0
C204 C 0.2041 0.5872 0.35199 0.0
C205 C 0.26771 0.66691 0.1901 0.0
C206 C 0.25708 0.5434 0.21995 0.0
C207 C 0.221 0.519 0.19174 0.0
C208 C 0.26179 0.57788 0.24755 0.0
C209 C 0.22967 0.58823 0.24686 0.0
C210 C 0.19265 0.56289 0.21971 0.0
C211 C 0.18877 0.52862 0.1925 0.0
C212 C 0.30172 0.60407 0.27611 0.0
C213 C 0.15768 0.57281 0.21798 0.0
H214 H 0.22275 0.66444 0.38281 0.0
H215 H 0.27565 0.73099 0.24613 0.0
H216 H 0.17567 0.563 0.33288 0.0
H217 H 0.2259 0.57485 0.35518 0.0
H218 H 0.19548 0.59196 0.3902 0.0
H219 H 0.28136 0.69881 0.17393 0.0
H220 H 0.29107 0.6565 0.18722 0.0
H221 H 0.24044 0.64527 0.16716 0.0
H222 H 0.28206 0.53609 0.21967 0.0
H223 H 0.16069 0.50982 0.17098 0.0
H224 H 0.29472 0.60785 0.31544 0.0
H225 H 0.31893 0.63575 0.25931 0.0
H226 H 0.32233 0.59016 0.2759 0.0
H227 H 0.14847 0.57615 0.25641 0.0
H228 H 0.12977 0.54836 0.19817 0.0
H229 H 0.16845 0.60308 0.19856 0.0
C230 C 0.48415 0.72039 0.88842 0.0
C231 C 0.50886 0.70867 0.86079 0.0
C232 C 0.44962 0.69067 0.91585 0.0
C233 C 0.43958 0.64826 0.9155 0.0
C234 C 0.4653 0.63656 0.88906 0.0
C235 C 0.49961 0.66689 0.86207 0.0
C236 C 0.42303 0.70438 0.94374 0.0
C237 C 0.45567 0.5917 0.8877 0.0
C238 C 0.36242 0.57284 0.01126 0.0
C239 C 0.3252 0.55439 0.98376 0.0
C240 C 0.40002 0.60346 0.98963 0.0
C241 C 0.40036 0.61562 0.93928 0.0
C242 C 0.36301 0.59649 0.91115 0.0
C243 C 0.32598 0.5662 0.93373 0.0
C244 C 0.43923 0.62322 0.02081 0.0
C245 C 0.36206 0.60817 0.85719 0.0
H246 H 0.49121 0.75264 0.88775 0.0
H247 H 0.51869 0.6576 0.84102 0.0
H248 H 0.3917 0.69021 0.92628 0.0
H249 H 0.41863 0.69331 0.98304 0.0
H250 H 0.43688 0.73889 0.94365 0.0
H251 H 0.48047 0.58828 0.86862 0.0
H252 H 0.45178 0.57904 0.92619 0.0
H253 H 0.42583 0.57231 0.8677 0.0
H254 H 0.36193 0.56412 0.05004 0.0
H255 H 0.29749 0.55154 0.91203 0.0
H256 H 0.45134 0.65734 0.02386 0.0
H257 H 0.46376 0.61903 1.00242 0.0
H258 H 0.43393 0.60974 0.05906 0.0
H259 H 0.37234 0.64194 0.85434 0.0
H260 H 0.3305 0.59008 0.84043 0.0
H261 H 0.38407 0.60265 0.83476 0.0
C262 C 0.30984 0.77193 0.55531 0.0
C263 C 0.32097 0.80776 0.52649 0.0
C264 C 0.33998 0.76747 0.58234 0.0
C265 C 0.38226 0.79957 0.58043 0.0
C266 C 0.39344 0.83638 0.55268 0.0
C267 C 0.36266 0.84003 0.52606 0.0
C268 C 0.32679 0.72777 0.61157 0.0
C269 C 0.43814 0.87132 0.5497 0.0
C270 C 0.4577 0.79825 0.67655 0.0
C271 C 0.47555 0.77837 0.64986 0.0
C272 C 0.42755 0.80579 0.65438 0.0
C273 C 0.41512 0.79327 0.60433 0.0
C274 C 0.43372 0.77404 0.57694 0.0
C275 C 0.46364 0.76686 0.6 0.0
C276 C 0.40842 0.82638 0.68477 0.0
C277 C 0.42166 0.76055 0.52335 0.0
H278 H 0.27766 0.74693 0.55595 0.0
H279 H 0.37151 0.8679 0.50402 0.0
H280 H 0.34091 0.71026 0.59472 0.0
H281 H 0.33821 0.73524 0.65064 0.0
H282 H 0.2924 0.70714 0.61221 0.0
H283 H 0.44125 0.89911 0.5296 0.0
H284 H 0.45138 0.88096 0.58778 0.0
H285 H 0.45717 0.86021 0.52995 0.0
H286 H 0.46647 0.8069 0.71518 0.0
H287 H 0.47784 0.75221 0.57886 0.0
H288 H 0.37445 0.80468 0.68898 0.0
H289 H 0.4123 0.85461 0.66512 0.0
H290 H 0.42253 0.8356 0.72257 0.0
H291 H 0.38797 0.73714 0.52119 0.0
H292 H 0.43961 0.74668 0.50699 0.0
H293 H 0.42691 0.78769 0.50011 0.0
C294 C 0.53885 0.19533 0.79782 0.0
C295 C 0.52732 0.22593 0.80423 0.0
C296 C 0.57476 0.20385 0.77096 0.0
C297 C 0.5998 0.24395 0.74965 0.0
C298 C 0.58725 0.27437 0.75383 0.0
C299 C 0.55117 0.26504 0.78127 0.0
C300 C 0.58695 0.17046 0.76749 0.0
C301 C 0.61284 0.31729 0.73113 0.0
C302 C 0.71313 0.27283 0.73962 0.0
C303 C 0.71543 0.26116 0.69038 0.0
C304 C 0.67632 0.26968 0.75848 0.0
C305 C 0.64084 0.25469 0.72725 0.0
C306 C 0.64378 0.2456 0.67647 0.0
C307 C 0.68107 0.24888 0.65861 0.0
C308 C 0.6747 0.2799 0.8128 0.0
C309 C 0.60681 0.22998 0.64182 0.0
H310 H 0.52048 0.16493 0.81519 0.0
H311 H 0.54237 0.2888 0.78593 0.0
H312 H 0.59248 0.16557 0.72796 0.0
H313 H 0.61651 0.18065 0.78811 0.0
H314 H 0.56276 0.14011 0.78329 0.0
H315 H 0.5963 0.33547 0.73223 0.0
H316 H 0.64258 0.33487 0.75193 0.0
H317 H 0.6208 0.31488 0.69175 0.0
H318 H 0.73985 0.28311 0.76401 0.0
H319 H 0.68248 0.23961 0.6206 0.0
H320 H 0.65367 0.25081 0.83353 0.0
H321 H 0.66184 0.30124 0.81651 0.0
H322 H 0.70591 0.29469 0.83078 0.0
H323 H 0.58353 0.19734 0.65191 0.0
H324 H 0.61582 0.23056 0.60209 0.0
H325 H 0.59141 0.24906 0.64572 0.0
C326 C 0.76051 0.45124 0.4072 0.0
C327 C 0.77388 0.46343 0.3578 0.0
C328 C 0.76564 0.42025 0.43111 0.0
C329 C 0.78474 0.40085 0.40512 0.0
C330 C 0.79845 0.41299 0.35526 0.0
C331 C 0.79296 0.44425 0.33222 0.0
C332 C 0.75101 0.40863 0.48449 0.0
C333 C 0.81895 0.39299 0.32635 0.0
C334 C 0.83458 0.35383 0.48715 0.0
C335 C 0.80375 0.31146 0.48846 0.0
C336 C 0.82922 0.38292 0.45907 0.0
C337 C 0.79212 0.36943 0.43135 0.0
C338 C 0.76122 0.32653 0.4315 0.0
C339 C 0.76736 0.298 0.46019 0.0
C340 C 0.86286 0.42836 0.46021 0.0
C341 C 0.72131 0.31097 0.40226 0.0
H342 H 0.74639 0.46637 0.42754 0.0
H343 H 0.80292 0.45314 0.2939 0.0
H344 H 0.72872 0.37461 0.48732 0.0
H345 H 0.77791 0.41555 0.50899 0.0
H346 H 0.73562 0.42579 0.49892 0.0
H347 H 0.82681 0.40507 0.28748 0.0
H348 H 0.84797 0.39886 0.34555 0.0
H349 H 0.79802 0.35863 0.32503 0.0
H350 H 0.86291 0.36454 0.50871 0.0
H351 H 0.7435 0.2653 0.46089 0.0
H352 H 0.85048 0.44728 0.47752 0.0
H353 H 0.87268 0.44026 0.42162 0.0
H354 H 0.89073 0.43343 0.48164 0.0
H355 H 0.70305 0.32481 0.41763 0.0
H356 H 0.70168 0.27638 0.40352 0.0
H357 H 0.72836 0.32103 0.36265 0.0
C358 C 0.57969 0.31852 0.06489 0.0
C359 C 0.56705 0.31863 0.01549 0.0
C360 C 0.60824 0.35563 0.08876 0.0
C361 C 0.62482 0.39396 0.06253 0.0
C362 C 0.61181 0.39448 0.01282 0.0
C363 C 0.58286 0.35674 0.98991 0.0
C364 C 0.62086 0.35372 0.14202 0.0
C365 C 0.62898 0.43477 0.98365 0.0
C366 C 0.67203 0.49038 0.14486 0.0
C367 C 0.71428 0.50168 0.14484 0.0
C368 C 0.64274 0.45635 0.11661 0.0
C369 C 0.65606 0.4332 0.08748 0.0
C370 C 0.69892 0.44546 0.0858 0.0
C371 C 0.72752 0.4795 0.11464 0.0
C372 C 0.5973 0.44416 0.11959 0.0
C373 C 0.71437 0.42168 0.05496 0.0
H374 H 0.56693 0.28923 0.08511 0.0
H375 H 0.57336 0.35689 0.95163 0.0
H376 H 0.65492 0.36574 0.14392 0.0
H377 H 0.61404 0.37395 0.16626 0.0
H378 H 0.60445 0.32146 0.15742 0.0
H379 H 0.61494 0.43 0.94581 0.0
H380 H 0.6232 0.45749 1.00417 0.0
H381 H 0.66325 0.44899 0.97962 0.0
H382 H 0.66158 0.50748 0.16799 0.0
H383 H 0.76017 0.48825 0.11421 0.0
H384 H 0.57948 0.41337 0.13842 0.0
H385 H 0.58409 0.44083 0.08153 0.0
H386 H 0.59248 0.46735 0.14062 0.0
H387 H 0.70208 0.38982 0.07066 0.0
H388 H 0.74894 0.43736 0.05415 0.0
H389 H 0.70275 0.41812 0.01601 0.0
C390 C 0.99924 0.30326 0.72186 0.0
C391 C 0.95978 0.26733 0.72103 0.0
C392 C 0.02499 0.31322 0.76401 0.0
C393 C 1.01064 0.28683 0.80653 0.0
C394 C 0.97166 0.24942 0.80497 0.0
C395 C 0.94672 0.23999 0.76203 0.0
C396 C 0.06664 0.35307 0.76391 0.0
C397 C 0.95518 0.22066 0.84966 0.0
C398 C 0.09053 0.30575 0.90733 0.0
C399 C 0.08556 0.33296 0.93957 0.0
C400 C 0.06568 0.28955 0.86446 0.0
C401 C 0.03484 0.30047 0.85386 0.0
C402 C 0.02855 0.32656 0.88722 0.0
C403 C 0.05412 0.34268 0.92945 0.0
C404 C 0.07335 0.2619 0.82967 0.0
C405 C 0.99575 0.3387 0.87739 0.0
H406 H 1.00945 0.32421 0.68995 0.0
H407 H 0.91602 0.2124 0.7616 0.0
H408 H 0.06587 0.37561 0.79068 0.0
H409 H 0.0916 0.34677 0.77635 0.0
H410 H 0.07489 0.36796 0.72638 0.0
H411 H 0.92657 0.19075 0.84062 0.0
H412 H 0.97913 0.21367 0.86425 0.0
H413 H 0.94774 0.23632 0.88005 0.0
H414 H 0.11431 0.29754 0.91524 0.0
H415 H 0.0504 0.36417 0.95354 0.0
H416 H 0.08464 0.27781 0.79307 0.0
H417 H 0.04388 0.23235 0.82261 0.0
H418 H 0.09675 0.25427 0.8448 0.0
H419 H 1.00374 0.358 0.84296 0.0
H420 H 0.99281 0.35676 0.90877 0.0
H421 H 0.96499 0.3104 0.87112 0.0
C422 C 0.7396 0.70932 0.39009 0.0
C423 C 0.75785 0.68429 0.39799 0.0
C424 C 0.72681 0.72452 0.43046 0.0
C425 C 0.73327 0.71528 0.47993 0.0
C426 C 0.75305 0.69144 0.48826 0.0
C427 C 0.76451 0.67575 0.44731 0.0
C428 C 0.70518 0.74931 0.42016 0.0
C429 C 0.76102 0.68141 0.54051 0.0
C430 C 0.72612 0.7785 0.58759 0.0
C431 C 0.68672 0.75061 0.60703 0.0
C432 C 0.74184 0.76748 0.54612 0.0
C433 C 0.71699 0.72814 0.52306 0.0
C434 C 0.6768 0.70027 0.54213 0.0
C435 C 0.66235 0.71169 0.58428 0.0
C436 C 0.7852 0.79754 0.52751 0.0
C437 C 0.64903 0.6584 0.51798 0.0
H438 H 0.73487 0.71672 0.35228 0.0
H439 H 0.7776 0.65569 0.45423 0.0
H440 H 0.67288 0.73218 0.43495 0.0
H441 H 0.72145 0.77982 0.43968 0.0
H442 H 0.70383 0.75506 0.37959 0.0
H443 H 0.7803 0.66602 0.54061 0.0
H444 H 0.77707 0.71036 0.56317 0.0
H445 H 0.73093 0.66032 0.55917 0.0
H446 H 0.74482 0.80861 0.60538 0.0
H447 H 0.6316 0.69046 0.59906 0.0
H448 H 0.78412 0.8053 0.48766 0.0
H449 H 0.80487 0.78267 0.52979 0.0
H450 H 0.80036 0.82701 0.54939 0.0
H451 H 0.64472 0.66272 0.47778 0.0
H452 H 0.61789 0.64129 0.53603 0.0
H453 H 0.66391 0.63874 0.52021 0.0
C454 C 0.30254 0.04785 0.06409 0.0
C455 C 0.34569 0.06945 0.05544 0.0
C456 C 0.28561 0.02202 0.10628 0.0
C457 C 0.31246 0.01759 0.14039 0.0
C458 C 0.356 0.03952 0.13203 0.0
C459 C 0.37205 0.06527 0.08987 0.0
C460 C 0.23902 0.99915 0.1141 0.0
C461 C 0.3857 0.03557 0.16746 0.0
C462 C 0.27919 0.9777 0.27299 0.0
C463 C 0.27022 0.93617 0.26868 0.0
C464 C 0.29147 1.00423 0.2311 0.0
C465 C 0.29526 0.98892 0.18401 0.0
C466 C 0.28541 0.9468 0.1793 0.0
C467 C 0.27298 0.92095 0.22165 0.0
C468 C 0.30141 0.0489 0.23744 0.0
C469 C 0.28951 0.92941 0.1299 0.0
H470 H 0.28192 0.05066 0.03755 0.0
H471 H 0.40549 0.08258 0.08416 0.0
H472 H 0.22675 0.96494 0.11293 0.0
H473 H 0.23153 1.00654 0.15155 0.0
H474 H 0.22258 1.00734 0.08533 0.0
H475 H 0.41876 0.05507 0.15582 0.0
H476 H 0.38217 0.04501 0.20568 0.0
H477 H 0.37819 1.00251 0.16953 0.0
H478 H 0.27679 0.98946 0.30921 0.0
H479 H 0.26678 0.88909 0.21822 0.0
H480 H 0.28373 0.05648 0.20984 0.0
H481 H 0.33503 0.07037 0.23023 0.0
H482 H 0.29394 0.05507 0.27561 0.0
H483 H 0.27173 0.93505 0.10047 0.0
H484 H 0.27819 0.89534 0.13187 0.0
H485 H 0.32269 0.94568 0.11816 0.0
C486 C 0.39579 0.2869 0.03027 0.0
C487 C 0.39392 0.27373 0.98063 0.0
C488 C 0.37354 0.30651 0.04588 0.0
C489 C 0.34859 0.31322 0.01112 0.0
C490 C 0.34786 0.30159 0.96045 0.0
C491 C 0.37058 0.28202 0.94576 0.0
C492 C 0.37537 0.31843 0.1002 0.0
C493 C 0.32173 0.30826 0.92218 0.0
C494 C 0.2539 0.31395 0.06497 0.0
C495 C 0.26722 0.3568 0.06739 0.0
C496 C 0.27987 0.29955 0.04614 0.0
C497 C 0.32037 0.32862 0.02903 0.0
C498 C 0.33411 0.37197 0.03117 0.0
C499 C 0.3074 0.38558 0.05042 0.0
C500 C 0.26397 0.25308 0.04493 0.0
C501 C 0.37703 0.40394 0.01324 0.0
H502 H 0.41407 0.28111 0.05747 0.0
H503 H 0.369 0.27209 0.90733 0.0
H504 H 0.38298 0.35144 0.10349 0.0
H505 H 0.3444 0.29879 0.11778 0.0
H506 H 0.39885 0.31432 0.12158 0.0
H507 H 0.32761 0.30133 0.8836 0.0
H508 H 0.28821 0.28766 0.9309 0.0
H509 H 0.3281 0.34097 0.92353 0.0
H510 H 0.22295 0.29137 0.07793 0.0
H511 H 0.31789 0.41872 0.05177 0.0
H512 H 0.28406 0.24557 0.06853 0.0
H513 H 0.26543 0.2431 1.00624 0.0
H514 H 0.23135 0.23453 0.05853 0.0
H515 H 0.40103 0.40166 0.03575 0.0
H516 H 0.38258 0.43637 0.0159 0.0
H517 H 0.38132 0.39759 0.97381 0.0
C518 C 0.70288 0.09932 0.65208 0.0
C519 C 0.73478 0.11339 0.61634 0.0
C520 C 0.68825 0.06063 0.67623 0.0
C521 C 0.70497 0.03475 0.66312 0.0
C522 C 0.7363 0.04831 0.62584 0.0
C523 C 0.7514 0.08783 0.60358 0.0
C524 C 0.65588 0.04808 0.7169 0.0
C525 C 0.75408 0.02119 0.60966 0.0
C526 C 0.70066 0.95317 0.75411 0.0
C527 C 0.66564 0.91667 0.73716 0.0
C528 C 0.71298 0.99198 0.73137 0.0
C529 C 0.69064 0.99409 0.68944 0.0
C530 C 0.65514 0.95723 0.67223 0.0
C531 C 0.64265 0.91908 0.69686 0.0
C532 C 0.75011 0.03069 0.75201 0.0
C533 C 0.63121 0.95783 0.62679 0.0
H534 H 0.6904 0.11931 0.66255 0.0
H535 H 0.77602 0.09864 0.57588 0.0
H536 H 0.62797 0.01777 0.70764 0.0
H537 H 0.66855 0.04374 0.75263 0.0
H538 H 0.64604 0.07173 0.72266 0.0
H539 H 0.7759 0.03487 0.57762 0.0
H540 H 0.77103 0.01687 0.64124 0.0
H541 H 0.72853 0.98975 0.59885 0.0
H542 H 0.71838 0.95136 0.78537 0.0
H543 H 0.61585 0.89078 0.68325 0.0
H544 H 0.74158 0.05501 0.75979 0.0
H545 H 0.77558 0.04379 0.72397 0.0
H546 H 0.76218 0.02422 0.78695 0.0
H547 H 0.61959 0.98003 0.63242 0.0
H548 H 0.60425 0.92652 0.61829 0.0
H549 H 0.65221 0.96887 0.59382 0.0
C550 C 0.07685 0.76002 0.41715 0.0
C551 C 0.1113 0.7556 0.40508 0.0
C552 C 0.03855 0.73656 0.39254 0.0
C553 C 0.0348 0.7086 0.354 0.0
C554 C 0.06899 0.70267 0.34309 0.0
C555 C 0.10679 0.72598 0.36915 0.0
C556 C 1.0027 0.74325 0.4062 0.0
C557 C 0.06653 0.67365 0.30189 0.0
C558 C 0.92415 0.63507 0.30857 0.0
C559 C 0.92027 0.65895 0.27027 0.0
C560 C 0.96182 0.64994 0.33506 0.0
C561 C 0.99653 0.68916 0.32222 0.0
C562 C 0.99337 0.71201 0.28146 0.0
C563 C 0.95519 0.69687 0.25642 0.0
C564 C 0.96365 0.62486 0.37864 0.0
C565 C 0.02978 0.75352 0.26573 0.0
H566 H 0.08014 0.78266 0.44517 0.0
H567 H 0.13345 0.72268 0.35939 0.0
H568 H 0.99656 0.75933 0.37501 0.0
H569 H 0.97389 0.7128 0.41219 0.0
H570 H 1.00915 0.76245 0.44049 0.0
H571 H 0.09382 0.66874 0.30197 0.0
H572 H 0.03767 0.6429 0.30541 0.0
H573 H 0.06527 0.68708 0.2652 0.0
H574 H 0.89713 0.60587 0.31968 0.0
H575 H 0.9524 0.71526 0.22657 0.0
H576 H 0.96528 0.64126 0.41402 0.0
H577 H 0.99211 0.62207 0.37657 0.0
H578 H 0.93593 0.59302 0.38017 0.0
H579 H 0.03638 0.77713 0.29521 0.0
H580 H 0.02368 0.76509 0.23012 0.0
H581 H 0.0582 0.7509 0.26115 0.0
C582 C 0.94279 0.22992 0.39637 0.0
C583 C 0.93181 0.25546 0.42366 0.0
C584 C 0.97813 0.24718 0.36537 0.0
C585 C 1.00323 0.29114 0.36138 0.0
C586 C 0.99268 0.31716 0.38926 0.0
C587 C 0.95716 0.29902 0.42008 0.0
C588 C 0.98841 0.21832 0.33653 0.0
C589 C 0.01852 0.36417 0.3859 0.0
C590 C 0.11373 0.33502 0.31157 0.0
C591 C 0.10909 0.34271 0.26119 0.0
C592 C 0.0797 0.31867 0.34471 0.0
C593 C 0.03999 0.30978 0.32717 0.0
C594 C 0.03514 0.31778 0.27652 0.0
C595 C 0.06965 0.33404 0.24422 0.0
C596 C 0.0862 0.3107 0.39846 0.0
C597 C 0.99334 0.30869 0.25627 0.0
H598 H 0.92382 0.19629 0.39947 0.0
H599 H 0.9487 0.31902 0.44049 0.0
H600 H 0.9879 0.22386 0.29582 0.0
H601 H 0.02033 0.22495 0.346 0.0
H602 H 0.96618 0.18485 0.34443 0.0
H603 H 1.00689 0.38001 0.41111 0.0
H604 H 0.05143 0.37461 0.39562 0.0
H605 H 0.01824 0.37443 0.34695 0.0
H606 H 0.14408 0.34214 0.32535 0.0
H607 H 0.06554 0.33927 0.2053 0.0
H608 H 0.06616 0.27705 0.40743 0.0
H609 H 0.07685 0.32837 0.4238 0.0
H610 H 0.11913 0.31983 0.40644 0.0
H611 H 0.97059 0.27483 0.25981 0.0
H612 H 0.99502 0.31784 0.21637 0.0
H613 H 0.98111 0.32566 0.27841 0.0
C614 C 0.6729 0.73106 0.92834 0.0
C615 C 0.69069 0.77454 0.92396 0.0
C616 C 0.69069 0.71341 0.95947 0.0
C617 C 0.72751 0.73983 0.98648 0.0
C618 C 0.74577 0.78377 0.98196 0.0
C619 C 0.72695 0.80056 0.95106 0.0
C620 C 0.66984 0.66644 0.96383 0.0
C621 C 0.78531 0.81302 0.00955 0.0
C622 C 0.75319 0.69553 0.10118 0.0
C623 C 0.78171 0.68445 0.08194 0.0
C624 C 0.73537 0.71353 0.07063 0.0
C625 C 0.74677 0.72144 0.01959 0.0
C626 C 0.77608 0.71117 1.00003 0.0
C627 C 0.79295 0.69261 0.03124 0.0
C628 C 0.70399 0.72372 0.09291 0.0
C629 C 0.78935 0.71943 0.9459 0.0
H630 H 0.6445 0.7108 0.90817 0.0
H631 H 0.74095 0.83414 0.94743 0.0
H632 H 0.69171 0.6557 0.9521 0.0
H633 H 0.66138 0.65684 1.00338 0.0
H634 H 0.64121 0.65027 0.94062 0.0
H635 H 0.79584 0.84638 1.00156 0.0
H636 H 0.78042 0.80773 0.05042 0.0
H637 H 0.81055 0.80657 0.99894 0.0
H638 H 0.74473 0.6903 0.14031 0.0
H639 H 0.81448 0.68395 0.01545 0.0
H640 H 0.67397 0.70663 0.07253 0.0
H641 H 0.71508 0.75757 0.08875 0.0
H642 H 0.69821 0.71539 0.13319 0.0
H643 H 0.76206 0.70103 0.92133 0.0
H644 H 0.81371 0.71121 0.93689 0.0
H645 H 0.8016 0.75291 0.93689 0.0
C646 C 0.30293 0.08715 0.72926 0.0
C647 C 0.341 0.09942 0.75342 0.0
C648 C 0.28492 0.05231 0.69725 0.0
C649 C 0.30546 0.02911 0.68898 0.0
C650 C 0.34396 0.04141 0.71305 0.0
C651 C 0.36121 0.07631 0.74487 0.0
C652 C 0.24375 0.04015 0.67248 0.0
C653 C 0.36704 0.01773 0.70511 0.0
C654 C 0.24274 0.91652 0.64377 0.0
C655 C 0.25213 0.92052 0.59247 0.0
C656 C 0.25954 0.95155 0.67541 0.0
C657 C 0.2866 0.99176 0.6555 0.0
C658 C 0.29616 0.99611 0.6038 0.0
C659 C 0.27879 0.96054 0.57297 0.0
C660 C 0.24863 0.94547 0.73033 0.0
C661 C 0.32488 0.03839 0.58104 0.0
H662 H 0.28687 0.10448 0.73594 0.0
H663 H 0.39097 0.08586 0.76248 0.0
H664 H 0.24702 0.0401 0.63126 0.0
H665 H 0.22013 1.00797 0.6838 0.0
H666 H 0.23195 0.06165 0.6823 0.0
H667 H 0.39668 0.03132 0.72653 0.0
H668 H 0.34716 0.98465 0.71665 0.0
H669 H 0.37419 0.01776 0.66484 0.0
H670 H 0.22276 0.88586 0.65957 0.0
H671 H 0.28583 0.96418 0.53338 0.0
H672 H 0.23471 0.96483 0.74145 0.0
H673 H 0.27731 0.95601 0.75292 0.0
H674 H 0.22635 0.91234 0.73979 0.0
H675 H 0.3123 0.05971 0.58755 0.0
H676 H 0.32908 0.03656 0.54018 0.0
H677 H 0.35588 0.05254 0.59932 0.0
loop_
_geom_bond_atom_site_label_1
_geom_bond_atom_site_label_2
_geom_bond_distance
_geom_bond_site_symmetry_2
_ccdc_geom_bond_type
Co0 N4 2.148 . S
Co0 N10 2.128 . S
Co0 N20 2.194 . S
Co0 O25 2.351 . S
Co0 O26 2.155 . S
Co0 O27 2.096 . S
C1 N4 1.301 . S
C1 N5 1.328 . S
C1 H6 0.930 . S
C2 C3 1.333 . S
C2 N4 1.317 . S
C2 H7 0.930 . S
C3 C2 1.333 . S
C3 N5 1.350 . S
C3 H29 0.931 . S
N4 Co0 2.148 . S
N4 C1 1.301 . S
N4 C2 1.317 . S
N5 C1 1.328 . S
N5 C3 1.350 . S
H6 C1 0.930 . S
H7 C2 0.930 . S
C8 O9 1.224 . S
C8 O27 1.247 . S
O9 C8 1.224 . S
N10 Co0 2.128 . S
N10 C11 1.355 1_554 S
N10 C13 1.311 1_554 S
C11 N10 1.355 1_556 S
C11 C12 1.363 . S
C11 H23 0.929 . S
C12 C11 1.363 . S
C12 N14 1.375 . S
C12 H30 0.931 . S
C13 N10 1.311 1_556 S
C13 N14 1.347 . S
C13 H24 0.929 1_556 S
N14 C12 1.375 . S
N14 C13 1.347 . S
C15 C18 1.365 1_554 S
C15 N20 1.328 . S
C15 H21 0.929 . S
C16 C17 1.362 . S
C16 C19 1.378 . S
C16 H31 0.929 . S
C17 C16 1.362 . S
C17 C18 1.366 . S
C18 C15 1.365 1_556 S
C18 C17 1.366 . S
C18 H32 0.930 . S
C19 C16 1.378 . S
C19 N20 1.315 1_556 S
C19 H22 0.930 . S
N20 Co0 2.194 . S
N20 C15 1.328 . S
N20 C19 1.315 1_554 S
H21 C15 0.929 . S
H22 C19 0.930 . S
H23 C11 0.929 . S
H24 C13 0.929 1_554 S
O25 Co0 2.351 . S
O25 C28 1.244 . S
O26 Co0 2.155 . S
O26 C28 1.240 . S
O27 Co0 2.096 . S
O27 C8 1.247 . S
C28 O25 1.244 . S
C28 O26 1.240 . S
H29 C3 0.931 . S
H30 C12 0.931 . S
H31 C16 0.929 . S
H32 C18 0.930 . S
Co33 N37 2.148 . S
Co33 N43 2.128 . S
Co33 N53 2.194 . S
Co33 O58 2.351 . S
Co33 O59 2.155 . S
Co33 O60 2.096 . S
C34 N37 1.301 . S
C34 N38 1.328 . S
C34 H39 0.930 . S
C35 C36 1.333 . S
C35 N37 1.317 . S
C35 H40 0.930 . S
C36 C35 1.333 . S
C36 N38 1.350 . S
C36 H62 0.931 . S
N37 Co33 2.148 . S
N37 C34 1.301 . S
N37 C35 1.317 . S
N38 C34 1.328 . S
N38 C36 1.350 . S
H39 C34 0.930 . S
H40 C35 0.930 . S
C41 O42 1.224 . S
C41 O60 1.247 . S
O42 C41 1.224 . S
N43 Co33 2.128 . S
N43 C44 1.355 . S
N43 C46 1.311 . S
C44 N43 1.355 . S
C44 C45 1.363 . S
C44 H56 0.929 . S
C45 C44 1.363 . S
C45 N47 1.375 . S
C45 H63 0.931 . S
C46 N43 1.311 . S
C46 N47 1.347 . S
C46 H57 0.929 . S
N47 C45 1.375 . S
N47 C46 1.347 . S
C48 C51 1.365 . S
C48 N53 1.328 . S
C48 H54 0.929 . S
C49 C50 1.362 . S
C49 C52 1.378 . S
C49 H64 0.929 . S
C50 C49 1.362 . S
C50 C51 1.366 . S
C51 C48 1.365 . S
C51 C50 1.366 . S
C51 H65 0.930 . S
C52 C49 1.378 . S
C52 N53 1.315 . S
C52 H55 0.930 . S
N53 Co33 2.194 . S
N53 C48 1.328 . S
N53 C52 1.315 . S
H54 C48 0.929 . S
H55 C52 0.930 . S
H56 C44 0.929 . S
H57 C46 0.929 . S
O58 Co33 2.351 . S
O58 C61 1.244 . S
O59 Co33 2.155 . S
O59 C61 1.240 . S
O60 Co33 2.096 . S
O60 C41 1.247 . S
C61 O58 1.244 . S
C61 O59 1.240 . S
H62 C36 0.931 . S
H63 C45 0.931 . S
H64 C49 0.929 . S
H65 C51 0.930 . S
Co66 N70 2.148 . S
Co66 N76 2.128 . S
Co66 N86 2.194 . S
Co66 O91 2.351 . S
Co66 O92 2.155 . S
Co66 O93 2.096 . S
C67 N70 1.301 . S
C67 N71 1.328 . S
C67 H72 0.930 . S
C68 C69 1.333 . S
C68 N70 1.317 . S
C68 H73 0.930 . S
C69 C68 1.333 . S
C69 N71 1.350 . S
C69 H95 0.931 . S
N70 Co66 2.148 . S
N70 C67 1.301 . S
N70 C68 1.317 . S
N71 C67 1.328 . S
N71 C69 1.350 . S
H72 C67 0.930 . S
H73 C68 0.930 . S
C74 O75 1.224 . S
C74 O93 1.247 . S
O75 C74 1.224 . S
N76 Co66 2.128 . S
N76 C77 1.355 . S
N76 C79 1.311 . S
C77 N76 1.355 . S
C77 C78 1.363 . S
C77 H89 0.929 . S
C78 C77 1.363 . S
C78 N80 1.375 . S
C78 H96 0.931 . S
C79 N76 1.311 . S
C79 N80 1.347 . S
C79 H90 0.929 . S
N80 C78 1.375 . S
N80 C79 1.347 . S
C81 C84 1.365 . S
C81 N86 1.328 . S
C81 H87 0.929 . S
C82 C83 1.362 . S
C82 C85 1.378 . S
C82 H97 0.929 . S
C83 C82 1.362 . S
C83 C84 1.366 . S
C84 C81 1.365 . S
C84 C83 1.366 . S
C84 H98 0.930 . S
C85 C82 1.378 . S
C85 N86 1.315 . S
C85 H88 0.930 . S
N86 Co66 2.194 . S
N86 C81 1.328 . S
N86 C85 1.315 . S
H87 C81 0.929 . S
H88 C85 0.930 . S
H89 C77 0.929 . S
H90 C79 0.929 . S
O91 Co66 2.351 . S
O91 C94 1.244 . S
O92 Co66 2.155 . S
O92 C94 1.240 . S
O93 Co66 2.096 . S
O93 C74 1.247 . S
C94 O91 1.244 . S
C94 O92 1.240 . S
H95 C69 0.931 . S
H96 C78 0.931 . S
H97 C82 0.929 . S
H98 C84 0.930 . S
Co99 N103 2.148 . S
Co99 N109 2.128 . S
Co99 N119 2.194 . S
Co99 O124 2.351 . S
Co99 O125 2.155 . S
Co99 O126 2.096 . S
C100 N103 1.301 . S
C100 N104 1.328 . S
C100 H105 0.930 . S
C101 C102 1.333 . S
C101 N103 1.317 . S
C101 H106 0.930 . S
C102 C101 1.333 . S
C102 N104 1.350 . S
C102 H128 0.931 . S
N103 Co99 2.148 . S
N103 C100 1.301 . S
N103 C101 1.317 . S
N104 C100 1.328 . S
N104 C102 1.350 . S
H105 C100 0.930 . S
H106 C101 0.930 . S
C107 O108 1.224 . S
C107 O126 1.247 . S
O108 C107 1.224 . S
N109 Co99 2.128 . S
N109 C110 1.355 1_556 S
N109 C112 1.311 1_556 S
C110 N109 1.355 1_554 S
C110 C111 1.363 . S
C110 H122 0.929 . S
C111 C110 1.363 . S
C111 N113 1.375 . S
C111 H129 0.931 . S
C112 N109 1.311 1_554 S
C112 N113 1.347 . S
C112 H123 0.929 1_554 S
N113 C111 1.375 . S
N113 C112 1.347 . S
C114 C117 1.365 1_556 S
C114 N119 1.328 . S
C114 H120 0.929 . S
C115 C116 1.362 . S
C115 C118 1.378 . S
C115 H130 0.929 . S
C116 C115 1.362 . S
C116 C117 1.366 . S
C117 C114 1.365 1_554 S
C117 C116 1.366 . S
C117 H131 0.930 . S
C118 C115 1.378 . S
C118 N119 1.315 1_554 S
C118 H121 0.930 . S
N119 Co99 2.194 . S
N119 C114 1.328 . S
N119 C118 1.315 1_556 S
H120 C114 0.929 . S
H121 C118 0.930 . S
H122 C110 0.929 . S
H123 C112 0.929 1_556 S
O124 Co99 2.351 . S
O124 C127 1.244 . S
O125 Co99 2.155 . S
O125 C127 1.240 . S
O126 Co99 2.096 . S
O126 C107 1.247 . S
C127 O124 1.244 . S
C127 O125 1.240 . S
H128 C102 0.931 . S
H129 C111 0.931 . S
H130 C115 0.929 . S
H131 C117 0.930 . S
Co132 N136 2.148 . S
Co132 N142 2.128 . S
Co132 N152 2.194 . S
Co132 O157 2.351 . S
Co132 O158 2.155 . S
Co132 O159 2.096 . S
C133 N136 1.301 . S
C133 N137 1.328 . S
C133 H138 0.930 . S
C134 C135 1.333 . S
C134 N136 1.317 . S
C134 H139 0.930 . S
C135 C134 1.333 . S
C135 N137 1.350 . S
C135 H161 0.931 . S
N136 Co132 2.148 . S
N136 C133 1.301 . S
N136 C134 1.317 . S
N137 C133 1.328 . S
N137 C135 1.350 . S
H138 C133 0.930 . S
H139 C134 0.930 . S
C140 O141 1.224 . S
C140 O159 1.247 . S
O141 C140 1.224 . S
N142 Co132 2.128 . S
N142 C143 1.355 . S
N142 C145 1.311 . S
C143 N142 1.355 . S
C143 C144 1.363 . S
C143 H155 0.929 . S
C144 C143 1.363 . S
C144 N146 1.375 . S
C144 H162 0.931 . S
C145 N142 1.311 . S
C145 N146 1.347 . S
C145 H156 0.929 . S
N146 C144 1.375 . S
N146 C145 1.347 . S
C147 C150 1.365 . S
C147 N152 1.328 . S
C147 H153 0.929 . S
C148 C149 1.362 . S
C148 C151 1.378 . S
C148 H163 0.929 . S
C149 C148 1.362 . S
C149 C150 1.366 . S
C150 C147 1.365 . S
C150 C149 1.366 . S
C150 H164 0.930 . S
C151 C148 1.378 . S
C151 N152 1.315 . S
C151 H154 0.930 . S
N152 Co132 2.194 . S
N152 C147 1.328 . S
N152 C151 1.315 . S
H153 C147 0.929 . S
H154 C151 0.930 . S
H155 C143 0.929 . S
H156 C145 0.929 . S
O157 Co132 2.351 . S
O157 C160 1.244 . S
O158 Co132 2.155 . S
O158 C160 1.240 . S
O159 Co132 2.096 . S
O159 C140 1.247 . S
C160 O157 1.244 . S
C160 O158 1.240 . S
H161 C135 0.931 . S
H162 C144 0.931 . S
H163 C148 0.929 . S
H164 C150 0.930 . S
Co165 N169 2.148 . S
Co165 N175 2.128 . S
Co165 N185 2.194 . S
Co165 O190 2.351 . S
Co165 O191 2.155 . S
Co165 O192 2.096 . S
C166 N169 1.301 . S
C166 N170 1.328 . S
C166 H171 0.930 . S
C167 C168 1.333 . S
C167 N169 1.317 . S
C167 H172 0.930 . S
C168 C167 1.333 . S
C168 N170 1.350 . S
C168 H194 0.931 . S
N169 Co165 2.148 . S
N169 C166 1.301 . S
N169 C167 1.317 . S
N170 C166 1.328 . S
N170 C168 1.350 . S
H171 C166 0.930 . S
H172 C167 0.930 . S
C173 O174 1.224 . S
C173 O192 1.247 . S
O174 C173 1.224 . S
N175 Co165 2.128 . S
N175 C176 1.355 . S
N175 C178 1.311 . S
C176 N175 1.355 . S
C176 C177 1.363 . S
C176 H188 0.929 . S
C177 C176 1.363 . S
C177 N179 1.375 . S
C177 H195 0.931 . S
C178 N175 1.311 . S
C178 N179 1.347 . S
C178 H189 0.929 . S
N179 C177 1.375 . S
N179 C178 1.347 . S
C180 C183 1.365 . S
C180 N185 1.328 . S
C180 H186 0.929 . S
C181 C182 1.362 . S
C181 C184 1.378 . S
C181 H196 0.929 . S
C182 C181 1.362 . S
C182 C183 1.366 . S
C183 C180 1.365 . S
C183 C182 1.366 . S
C183 H197 0.930 . S
C184 C181 1.378 . S
C184 N185 1.315 . S
C184 H187 0.930 . S
N185 Co165 2.194 . S
N185 C180 1.328 . S
N185 C184 1.315 . S
H186 C180 0.929 . S
H187 C184 0.930 . S
H188 C176 0.929 . S
H189 C178 0.929 . S
O190 Co165 2.351 . S
O190 C193 1.244 . S
O191 Co165 2.155 . S
O191 C193 1.240 . S
O192 Co165 2.096 . S
O192 C173 1.247 . S
C193 O190 1.244 . S
C193 O191 1.240 . S
H194 C168 0.931 . S
H195 C177 0.931 . S
H196 C181 0.929 . S
H197 C183 0.930 . S
C198 C199 1.391 . S
C198 C200 1.394 . S
C198 H214 0.931 . S
C199 C198 1.391 . S
C199 C203 1.376 . S
C200 C198 1.394 . S
C200 C201 1.369 . S
C200 C204 1.531 . S
C201 C200 1.369 . S
C201 C202 1.410 . S
C201 C209 1.503 . S
C202 C201 1.410 . S
C202 C203 1.392 . S
C202 C205 1.511 . S
C203 C199 1.376 . S
C203 C202 1.392 . S
C203 H215 0.929 . S
C204 C200 1.531 . S
C204 H216 0.960 . S
C204 H217 0.962 . S
C204 H218 0.960 . S
C205 C202 1.511 . S
C205 H219 0.961 . S
C205 H220 0.961 . S
C205 H221 0.961 . S
C206 C207 1.370 . S
C206 C208 1.363 . S
C206 H222 0.931 . S
C207 C206 1.370 . S
C207 C211 1.408 . S
C208 C206 1.363 . S
C208 C209 1.370 . S
C208 C212 1.524 . S
C209 C201 1.503 . S
C209 C208 1.370 . S
C209 C210 1.403 . S
C210 C209 1.403 . S
C210 C211 1.404 . S
C210 C213 1.539 . S
C211 C207 1.408 . S
C211 C210 1.404 . S
C211 H223 0.930 . S
C212 C208 1.524 . S
C212 H224 0.956 . S
C212 H225 0.961 . S
C212 H226 0.961 . S
C213 C210 1.539 . S
C213 H227 0.958 . S
C213 H228 0.961 . S
C213 H229 0.960 . S
H214 C198 0.931 . S
H215 C203 0.929 . S
H216 C204 0.960 . S
H217 C204 0.962 . S
H218 C204 0.960 . S
H219 C205 0.961 . S
H220 C205 0.961 . S
H221 C205 0.961 . S
H222 C206 0.931 . S
H223 C211 0.930 . S
H224 C212 0.956 . S
H225 C212 0.961 . S
H226 C212 0.961 . S
H227 C213 0.958 . S
H228 C213 0.961 . S
H229 C213 0.960 . S
C230 C231 1.391 . S
C230 C232 1.394 . S
C230 H246 0.931 . S
C231 C230 1.391 . S
C231 C235 1.376 . S
C232 C230 1.394 . S
C232 C233 1.369 . S
C232 C236 1.531 . S
C233 C232 1.369 . S
C233 C234 1.410 . S
C233 C241 1.503 . S
C234 C233 1.410 . S
C234 C235 1.392 . S
C234 C237 1.511 . S
C235 C231 1.376 . S
C235 C234 1.392 . S
C235 H247 0.929 . S
C236 C232 1.531 . S
C236 H248 0.960 . S
C236 H249 0.962 . S
C236 H250 0.960 . S
C237 C234 1.511 . S
C237 H251 0.961 . S
C237 H252 0.961 . S
C237 H253 0.961 . S
C238 C239 1.370 . S
C238 C240 1.363 . S
C238 H254 0.931 . S
C239 C238 1.370 . S
C239 C243 1.408 . S
C240 C238 1.363 . S
C240 C241 1.370 . S
C240 C244 1.524 . S
C241 C233 1.503 . S
C241 C240 1.370 . S
C241 C242 1.403 . S
C242 C241 1.403 . S
C242 C243 1.404 . S
C242 C245 1.539 . S
C243 C239 1.408 . S
C243 C242 1.404 . S
C243 H255 0.930 . S
C244 C240 1.524 . S
C244 H256 0.956 . S
C244 H257 0.961 . S
C244 H258 0.961 . S
C245 C242 1.539 . S
C245 H259 0.958 . S
C245 H260 0.961 . S
C245 H261 0.960 . S
H246 C230 0.931 . S
H247 C235 0.929 . S
H248 C236 0.960 . S
H249 C236 0.962 . S
H250 C236 0.960 . S
H251 C237 0.961 . S
H252 C237 0.961 . S
H253 C237 0.961 . S
H254 C238 0.931 . S
H255 C243 0.930 . S
H256 C244 0.956 . S
H257 C244 0.961 . S
H258 C244 0.961 . S
H259 C245 0.958 . S
H260 C245 0.961 . S
H261 C245 0.960 . S
C262 C263 1.391 . S
C262 C264 1.394 . S
C262 H278 0.931 . S
C263 C262 1.391 . S
C263 C267 1.376 . S
C264 C262 1.394 . S
C264 C265 1.369 . S
C264 C268 1.531 . S
C265 C264 1.369 . S
C265 C266 1.410 . S
C265 C273 1.503 . S
C266 C265 1.410 . S
C266 C267 1.392 . S
C266 C269 1.511 . S
C267 C263 1.376 . S
C267 C266 1.392 . S
C267 H279 0.929 . S
C268 C264 1.531 . S
C268 H280 0.960 . S
C268 H281 0.962 . S
C268 H282 0.960 . S
C269 C266 1.511 . S
C269 H283 0.961 . S
C269 H284 0.961 . S
C269 H285 0.961 . S
C270 C271 1.370 . S
C270 C272 1.363 . S
C270 H286 0.931 . S
C271 C270 1.370 . S
C271 C275 1.408 . S
C272 C270 1.363 . S
C272 C273 1.370 . S
C272 C276 1.524 . S
C273 C265 1.503 . S
C273 C272 1.370 . S
C273 C274 1.403 . S
C274 C273 1.403 . S
C274 C275 1.404 . S
C274 C277 1.539 . S
C275 C271 1.408 . S
C275 C274 1.404 . S
C275 H287 0.930 . S
C276 C272 1.524 . S
C276 H288 0.956 . S
C276 H289 0.961 . S
C276 H290 0.961 . S
C277 C274 1.539 . S
C277 H291 0.958 . S
C277 H292 0.961 . S
C277 H293 0.960 . S
H278 C262 0.931 . S
H279 C267 0.929 . S
H280 C268 0.960 . S
H281 C268 0.962 . S
H282 C268 0.960 . S
H283 C269 0.961 . S
H284 C269 0.961 . S
H285 C269 0.961 . S
H286 C270 0.931 . S
H287 C275 0.930 . S
H288 C276 0.956 . S
H289 C276 0.961 . S
H290 C276 0.961 . S
H291 C277 0.958 . S
H292 C277 0.961 . S
H293 C277 0.960 . S
C294 C295 1.391 . S
C294 C296 1.394 . S
C294 H310 0.931 . S
C295 C294 1.391 . S
C295 C299 1.376 . S
C296 C294 1.394 . S
C296 C297 1.369 . S
C296 C300 1.531 . S
C297 C296 1.369 . S
C297 C298 1.410 . S
C297 C305 1.503 . S
C298 C297 1.410 . S
C298 C299 1.392 . S
C298 C301 1.511 . S
C299 C295 1.376 . S
C299 C298 1.392 . S
C299 H311 0.929 . S
C300 C296 1.531 . S
C300 H312 0.960 . S
C300 H313 0.962 . S
C300 H314 0.960 . S
C301 C298 1.511 . S
C301 H315 0.961 . S
C301 H316 0.961 . S
C301 H317 0.961 . S
C302 C303 1.370 . S
C302 C304 1.363 . S
C302 H318 0.931 . S
C303 C302 1.370 . S
C303 C307 1.408 . S
C304 C302 1.363 . S
C304 C305 1.370 . S
C304 C308 1.524 . S
C305 C297 1.503 . S
C305 C304 1.370 . S
C305 C306 1.403 . S
C306 C305 1.403 . S
C306 C307 1.404 . S
C306 C309 1.539 . S
C307 C303 1.408 . S
C307 C306 1.404 . S
C307 H319 0.930 . S
C308 C304 1.524 . S
C308 H320 0.956 . S
C308 H321 0.961 . S
C308 H322 0.961 . S
C309 C306 1.539 . S
C309 H323 0.958 . S
C309 H324 0.961 . S
C309 H325 0.960 . S
H310 C294 0.931 . S
H311 C299 0.929 . S
H312 C300 0.960 . S
H313 C300 0.962 . S
H314 C300 0.960 . S
H315 C301 0.961 . S
H316 C301 0.961 . S
H317 C301 0.961 . S
H318 C302 0.931 . S
H319 C307 0.930 . S
H320 C308 0.956 . S
H321 C308 0.961 . S
H322 C308 0.961 . S
H323 C309 0.958 . S
H324 C309 0.961 . S
H325 C309 0.960 . S
C326 C327 1.391 . S
C326 C328 1.394 . S
C326 H342 0.931 . S
C327 C326 1.391 . S
C327 C331 1.376 . S
C328 C326 1.394 . S
C328 C329 1.369 . S
C328 C332 1.531 . S
C329 C328 1.369 . S
C329 C330 1.410 . S
C329 C337 1.503 . S
C330 C329 1.410 . S
C330 C331 1.392 . S
C330 C333 1.511 . S
C331 C327 1.376 . S
C331 C330 1.392 . S
C331 H343 0.929 . S
C332 C328 1.531 . S
C332 H344 0.960 . S
C332 H345 0.962 . S
C332 H346 0.960 . S
C333 C330 1.511 . S
C333 H347 0.961 . S
C333 H348 0.961 . S
C333 H349 0.961 . S
C334 C335 1.370 . S
C334 C336 1.363 . S
C334 H350 0.931 . S
C335 C334 1.370 . S
C335 C339 1.408 . S
C336 C334 1.363 . S
C336 C337 1.370 . S
C336 C340 1.524 . S
C337 C329 1.503 . S
C337 C336 1.370 . S
C337 C338 1.403 . S
C338 C337 1.403 . S
C338 C339 1.404 . S
C338 C341 1.539 . S
C339 C335 1.408 . S
C339 C338 1.404 . S
C339 H351 0.930 . S
C340 C336 1.524 . S
C340 H352 0.956 . S
C340 H353 0.961 . S
C340 H354 0.961 . S
C341 C338 1.539 . S
C341 H355 0.958 . S
C341 H356 0.961 . S
C341 H357 0.960 . S
H342 C326 0.931 . S
H343 C331 0.929 . S
H344 C332 0.960 . S
H345 C332 0.962 . S
H346 C332 0.960 . S
H347 C333 0.961 . S
H348 C333 0.961 . S
H349 C333 0.961 . S
H350 C334 0.931 . S
H351 C339 0.930 . S
H352 C340 0.956 . S
H353 C340 0.961 . S
H354 C340 0.961 . S
H355 C341 0.958 . S
H356 C341 0.961 . S
H357 C341 0.960 . S
C358 C359 1.391 . S
C358 C360 1.394 . S
C358 H374 0.931 . S
C359 C358 1.391 . S
C359 C363 1.376 . S
C360 C358 1.394 . S
C360 C361 1.369 . S
C360 C364 1.531 . S
C361 C360 1.369 . S
C361 C362 1.410 . S
C361 C369 1.503 . S
C362 C361 1.410 . S
C362 C363 1.392 . S
C362 C365 1.511 . S
C363 C359 1.376 . S
C363 C362 1.392 . S
C363 H375 0.929 . S
C364 C360 1.531 . S
C364 H376 0.960 . S
C364 H377 0.962 . S
C364 H378 0.960 . S
C365 C362 1.511 . S
C365 H379 0.961 . S
C365 H380 0.961 . S
C365 H381 0.961 . S
C366 C367 1.370 . S
C366 C368 1.363 . S
C366 H382 0.931 . S
C367 C366 1.370 . S
C367 C371 1.408 . S
C368 C366 1.363 . S
C368 C369 1.370 . S
C368 C372 1.524 . S
C369 C361 1.503 . S
C369 C368 1.370 . S
C369 C370 1.403 . S
C370 C369 1.403 . S
C370 C371 1.404 . S
C370 C373 1.539 . S
C371 C367 1.408 . S
C371 C370 1.404 . S
C371 H383 0.930 . S
C372 C368 1.524 . S
C372 H384 0.956 . S
C372 H385 0.961 . S
C372 H386 0.961 . S
C373 C370 1.539 . S
C373 H387 0.958 . S
C373 H388 0.961 . S
C373 H389 0.960 . S
H374 C358 0.931 . S
H375 C363 0.929 . S
H376 C364 0.960 . S
H377 C364 0.962 . S
H378 C364 0.960 . S
H379 C365 0.961 . S
H380 C365 0.961 . S
H381 C365 0.961 . S
H382 C366 0.931 . S
H383 C371 0.930 . S
H384 C372 0.956 . S
H385 C372 0.961 . S
H386 C372 0.961 . S
H387 C373 0.958 . S
H388 C373 0.961 . S
H389 C373 0.960 . S
C390 C391 1.391 . S
C390 C392 1.394 . S
C390 H406 0.931 . S
C391 C390 1.391 . S
C391 C395 1.376 . S
C392 C390 1.394 . S
C392 C393 1.369 . S
C392 C396 1.531 1_655 S
C393 C392 1.369 . S
C393 C394 1.410 . S
C393 C401 1.503 1_655 S
C394 C393 1.410 . S
C394 C395 1.392 . S
C394 C397 1.511 . S
C395 C391 1.376 . S
C395 C394 1.392 . S
C395 H407 0.929 . S
C396 C392 1.531 1_455 S
C396 H408 0.960 . S
C396 H409 0.962 . S
C396 H410 0.960 . S
C397 C394 1.511 . S
C397 H411 0.961 . S
C397 H412 0.961 . S
C397 H413 0.961 . S
C398 C399 1.370 . S
C398 C400 1.363 . S
C398 H414 0.931 . S
C399 C398 1.370 . S
C399 C403 1.408 . S
C400 C398 1.363 . S
C400 C401 1.370 . S
C400 C404 1.523 1_455 S
C401 C393 1.503 1_455 S
C401 C400 1.370 . S
C401 C402 1.403 . S
C402 C401 1.403 . S
C402 C403 1.404 . S
C402 C405 1.539 . S
C403 C399 1.408 . S
C403 C402 1.404 . S
C403 H415 0.930 . S
C404 C400 1.523 1_655 S
C404 H416 0.945 1_655 S
C404 H417 0.991 . S
C404 H418 0.944 1_655 S
C405 C402 1.539 . S
C405 H419 0.958 . S
C405 H420 0.961 . S
C405 H421 0.960 . S
H406 C390 0.931 . S
H407 C395 0.929 . S
H408 C396 0.960 . S
H409 C396 0.962 . S
H410 C396 0.960 . S
H411 C397 0.961 . S
H412 C397 0.961 . S
H413 C397 0.961 . S
H414 C398 0.931 . S
H415 C403 0.930 . S
H416 C404 0.945 1_455 S
H417 C404 0.991 . S
H418 C404 0.944 1_455 S
H419 C405 0.958 . S
H420 C405 0.961 . S
H421 C405 0.960 . S
C422 C423 1.391 . S
C422 C424 1.394 . S
C422 H438 0.931 . S
C423 C422 1.391 . S
C423 C427 1.376 . S
C424 C422 1.394 . S
C424 C425 1.369 . S
C424 C428 1.531 . S
C425 C424 1.369 . S
C425 C426 1.410 . S
C425 C433 1.503 . S
C426 C425 1.410 . S
C426 C427 1.392 . S
C426 C429 1.511 . S
C427 C423 1.376 . S
C427 C426 1.392 . S
C427 H439 0.929 . S
C428 C424 1.531 . S
C428 H440 0.960 . S
C428 H441 0.962 . S
C428 H442 0.960 . S
C429 C426 1.511 . S
C429 H443 0.961 . S
C429 H444 0.961 . S
C429 H445 0.961 . S
C430 C431 1.370 . S
C430 C432 1.363 . S
C430 H446 0.931 . S
C431 C430 1.370 . S
C431 C435 1.408 . S
C432 C430 1.363 . S
C432 C433 1.370 . S
C432 C436 1.524 . S
C433 C425 1.503 . S
C433 C432 1.370 . S
C433 C434 1.403 . S
C434 C433 1.403 . S
C434 C435 1.404 . S
C434 C437 1.539 . S
C435 C431 1.408 . S
C435 C434 1.404 . S
C435 H447 0.930 . S
C436 C432 1.524 . S
C436 H448 0.956 . S
C436 H449 0.961 . S
C436 H450 0.961 . S
C437 C434 1.539 . S
C437 H451 0.958 . S
C437 H452 0.961 . S
C437 H453 0.960 . S
H438 C422 0.931 . S
H439 C427 0.929 . S
H440 C428 0.960 . S
H441 C428 0.962 . S
H442 C428 0.960 . S
H443 C429 0.961 . S
H444 C429 0.961 . S
H445 C429 0.961 . S
H446 C430 0.931 . S
H447 C435 0.930 . S
H448 C436 0.956 . S
H449 C436 0.961 . S
H450 C436 0.961 . S
H451 C437 0.958 . S
H452 C437 0.961 . S
H453 C437 0.960 . S
C454 C455 1.391 . S
C454 C456 1.394 . S
C454 H470 0.931 . S
C455 C454 1.391 . S
C455 C459 1.376 . S
C456 C454 1.394 . S
C456 C457 1.369 . S
C456 C460 1.531 . S
C457 C456 1.369 . S
C457 C458 1.410 . S
C457 C465 1.503 1_545 S
C458 C457 1.410 . S
C458 C459 1.392 . S
C458 C461 1.511 1_545 S
C459 C455 1.376 . S
C459 C458 1.392 . S
C459 H471 0.929 . S
C460 C456 1.531 . S
C460 H472 0.960 . S
C460 H473 0.962 . S
C460 H474 0.960 . S
C461 C458 1.511 1_565 S
C461 H475 0.961 . S
C461 H476 0.961 . S
C461 H477 0.961 . S
C462 C463 1.370 . S
C462 C464 1.363 . S
C462 H478 0.931 . S
C463 C462 1.370 . S
C463 C467 1.408 . S
C464 C462 1.363 . S
C464 C465 1.370 . S
C464 C468 1.524 1_565 S
C465 C457 1.503 1_565 S
C465 C464 1.370 . S
C465 C466 1.403 . S
C466 C465 1.403 . S
C466 C467 1.404 . S
C466 C469 1.539 . S
C467 C463 1.408 . S
C467 C466 1.404 . S
C467 H479 0.930 . S
C468 C464 1.524 1_545 S
C468 H480 0.956 . S
C468 H481 0.961 . S
C468 H482 0.961 . S
C469 C466 1.539 . S
C469 H483 0.958 . S
C469 H484 0.961 . S
C469 H485 0.960 . S
H470 C454 0.931 . S
H471 C459 0.929 . S
H472 C460 0.960 . S
H473 C460 0.962 . S
H474 C460 0.960 . S
H475 C461 0.961 . S
H476 C461 0.961 . S
H477 C461 0.961 . S
H478 C462 0.931 . S
H479 C467 0.930 . S
H480 C468 0.956 . S
H481 C468 0.961 . S
H482 C468 0.961 . S
H483 C469 0.958 . S
H484 C469 0.961 . S
H485 C469 0.960 . S
C486 C487 1.391 . S
C486 C488 1.394 . S
C486 H502 0.931 . S
C487 C486 1.391 . S
C487 C491 1.376 . S
C488 C486 1.394 . S
C488 C489 1.369 . S
C488 C492 1.530 1_556 S
C489 C488 1.369 . S
C489 C490 1.410 . S
C489 C497 1.503 1_556 S
C490 C489 1.410 . S
C490 C491 1.392 . S
C490 C493 1.511 . S
C491 C487 1.376 . S
C491 C490 1.392 . S
C491 H503 0.929 . S
C492 C488 1.530 1_554 S
C492 H504 0.959 1_554 S
C492 H505 0.965 . S
C492 H506 0.959 1_554 S
C493 C490 1.511 . S
C493 H507 0.961 . S
C493 H508 0.961 . S
C493 H509 0.961 . S
C494 C495 1.370 . S
C494 C496 1.363 . S
C494 H510 0.931 . S
C495 C494 1.370 . S
C495 C499 1.408 1_554 S
C496 C494 1.363 . S
C496 C497 1.370 . S
C496 C500 1.524 . S
C497 C489 1.503 1_554 S
C497 C496 1.370 . S
C497 C498 1.403 1_554 S
C498 C497 1.403 1_556 S
C498 C499 1.404 . S
C498 C501 1.539 . S
C499 C495 1.408 1_556 S
C499 C498 1.404 . S
C499 H511 0.930 . S
C500 C496 1.524 . S
C500 H512 0.956 . S
C500 H513 0.961 . S
C500 H514 0.961 . S
C501 C498 1.539 . S
C501 H515 0.958 . S
C501 H516 0.961 . S
C501 H517 0.960 . S
H502 C486 0.931 . S
H503 C491 0.929 . S
H504 C492 0.959 1_556 S
H505 C492 0.965 . S
H506 C492 0.959 1_556 S
H507 C493 0.961 . S
H508 C493 0.961 . S
H509 C493 0.961 . S
H510 C494 0.931 . S
H511 C499 0.930 . S
H512 C500 0.956 . S
H513 C500 0.961 . S
H514 C500 0.961 . S
H515 C501 0.958 . S
H516 C501 0.961 . S
H517 C501 0.960 . S
C518 C519 1.391 . S
C518 C520 1.394 . S
C518 H534 0.931 . S
C519 C518 1.391 . S
C519 C523 1.376 . S
C520 C518 1.394 . S
C520 C521 1.369 . S
C520 C524 1.531 . S
C521 C520 1.369 . S
C521 C522 1.410 . S
C521 C529 1.503 1_545 S
C522 C521 1.410 . S
C522 C523 1.392 . S
C522 C525 1.511 . S
C523 C519 1.376 . S
C523 C522 1.392 . S
C523 H535 0.929 . S
C524 C520 1.531 . S
C524 H536 0.960 1_545 S
C524 H537 0.962 . S
C524 H538 0.960 . S
C525 C522 1.511 . S
C525 H539 0.961 . S
C525 H540 0.961 1_545 S
C525 H541 0.977 . S
C526 C527 1.370 . S
C526 C528 1.363 . S
C526 H542 0.931 . S
C527 C526 1.370 . S
C527 C531 1.408 . S
C528 C526 1.363 . S
C528 C529 1.370 . S
C528 C532 1.524 1_565 S
C529 C521 1.503 1_565 S
C529 C528 1.370 . S
C529 C530 1.403 . S
C530 C529 1.403 . S
C530 C531 1.404 . S
C530 C533 1.539 . S
C531 C527 1.408 . S
C531 C530 1.404 . S
C531 H543 0.930 . S
C532 C528 1.524 1_545 S
C532 H544 0.956 . S
C532 H545 0.961 . S
C532 H546 0.961 . S
C533 C530 1.539 . S
C533 H547 0.958 . S
C533 H548 0.961 . S
C533 H549 0.960 . S
H534 C518 0.931 . S
H535 C523 0.929 . S
H536 C524 0.960 1_565 S
H537 C524 0.962 . S
H538 C524 0.960 . S
H539 C525 0.961 . S
H540 C525 0.961 1_565 S
H541 C525 0.977 . S
H542 C526 0.931 . S
H543 C531 0.930 . S
H544 C532 0.956 . S
H545 C532 0.961 . S
H546 C532 0.961 . S
H547 C533 0.958 . S
H548 C533 0.961 . S
H549 C533 0.960 . S
C550 C551 1.391 . S
C550 C552 1.394 . S
C550 H566 0.931 . S
C551 C550 1.391 . S
C551 C555 1.376 . S
C552 C550 1.394 . S
C552 C553 1.369 . S
C552 C556 1.531 . S
C553 C552 1.369 . S
C553 C554 1.410 . S
C553 C561 1.503 1_455 S
C554 C553 1.410 . S
C554 C555 1.392 . S
C554 C557 1.511 . S
C555 C551 1.376 . S
C555 C554 1.392 . S
C555 H567 0.929 . S
C556 C552 1.531 . S
C556 H568 0.960 1_455 S
C556 H569 0.962 1_455 S
C556 H570 0.960 . S
C557 C554 1.511 . S
C557 H571 0.961 . S
C557 H572 0.961 . S
C557 H573 0.961 . S
C558 C559 1.370 . S
C558 C560 1.363 . S
C558 H574 0.931 . S
C559 C558 1.370 . S
C559 C563 1.408 . S
C560 C558 1.363 . S
C560 C561 1.370 . S
C560 C564 1.524 . S
C561 C553 1.503 1_655 S
C561 C560 1.370 . S
C561 C562 1.403 . S
C562 C561 1.403 . S
C562 C563 1.404 . S
C562 C565 1.533 1_655 S
C563 C559 1.408 . S
C563 C562 1.404 . S
C563 H575 0.930 . S
C564 C560 1.524 . S
C564 H576 0.956 . S
C564 H577 0.961 . S
C564 H578 0.961 . S
C565 C562 1.533 1_455 S
C565 H579 0.949 . S
C565 H580 0.958 1_455 S
C565 H581 0.979 . S
H566 C550 0.931 . S
H567 C555 0.929 . S
H568 C556 0.960 1_655 S
H569 C556 0.962 1_655 S
H570 C556 0.960 . S
H571 C557 0.961 . S
H572 C557 0.961 . S
H573 C557 0.961 . S
H574 C558 0.931 . S
H575 C563 0.930 . S
H576 C564 0.956 . S
H577 C564 0.961 . S
H578 C564 0.961 . S
H579 C565 0.949 . S
H580 C565 0.958 1_655 S
H581 C565 0.979 . S
C582 C583 1.391 . S
C582 C584 1.394 . S
C582 H598 0.931 . S
C583 C582 1.391 . S
C583 C587 1.376 . S
C584 C582 1.394 . S
C584 C585 1.369 . S
C584 C588 1.531 1_655 S
C585 C584 1.369 . S
C585 C586 1.410 . S
C585 C593 1.503 1_655 S
C586 C585 1.410 . S
C586 C587 1.392 . S
C586 C589 1.511 . S
C587 C583 1.376 . S
C587 C586 1.392 . S
C587 H599 0.929 . S
C588 C584 1.531 1_455 S
C588 H600 0.960 . S
C588 H601 0.962 . S
C588 H602 0.960 . S
C589 C586 1.511 . S
C589 H603 0.961 . S
C589 H604 0.961 . S
C589 H605 0.961 . S
C590 C591 1.370 . S
C590 C592 1.363 . S
C590 H606 0.931 . S
C591 C590 1.370 . S
C591 C595 1.408 . S
C592 C590 1.363 . S
C592 C593 1.370 . S
C592 C596 1.524 . S
C593 C585 1.503 1_455 S
C593 C592 1.370 . S
C593 C594 1.403 . S
C594 C593 1.403 . S
C594 C595 1.404 . S
C594 C597 1.539 1_455 S
C595 C591 1.408 . S
C595 C594 1.404 . S
C595 H607 0.930 . S
C596 C592 1.524 . S
C596 H608 0.956 . S
C596 H609 0.961 . S
C596 H610 0.961 . S
C597 C594 1.539 1_655 S
C597 H611 0.958 . S
C597 H612 0.961 . S
C597 H613 0.960 . S
H598 C582 0.931 . S
H599 C587 0.929 . S
H600 C588 0.960 . S
H601 C588 0.962 . S
H602 C588 0.960 . S
H603 C589 0.961 . S
H604 C589 0.961 . S
H605 C589 0.961 . S
H606 C590 0.931 . S
H607 C595 0.930 . S
H608 C596 0.956 . S
H609 C596 0.961 . S
H610 C596 0.961 . S
H611 C597 0.958 . S
H612 C597 0.961 . S
H613 C597 0.960 . S
C614 C615 1.391 . S
C614 C616 1.394 . S
C614 H630 0.931 . S
C615 C614 1.391 . S
C615 C619 1.376 . S
C616 C614 1.394 . S
C616 C617 1.369 . S
C616 C620 1.531 1_556 S
C617 C616 1.369 . S
C617 C618 1.410 . S
C617 C625 1.503 1_556 S
C618 C617 1.410 . S
C618 C619 1.392 . S
C618 C621 1.511 . S
C619 C615 1.376 . S
C619 C618 1.392 . S
C619 H631 0.929 . S
C620 C616 1.531 1_554 S
C620 H632 0.960 . S
C620 H633 0.962 . S
C620 H634 0.960 . S
C621 C618 1.511 . S
C621 H635 0.961 . S
C621 H636 0.961 . S
C621 H637 0.961 . S
C622 C623 1.370 . S
C622 C624 1.363 . S
C622 H638 0.931 . S
C623 C622 1.370 . S
C623 C627 1.408 . S
C624 C622 1.363 . S
C624 C625 1.370 . S
C624 C628 1.524 . S
C625 C617 1.503 1_554 S
C625 C624 1.370 . S
C625 C626 1.403 . S
C626 C625 1.403 . S
C626 C627 1.404 . S
C626 C629 1.539 1_554 S
C627 C623 1.408 . S
C627 C626 1.404 . S
C627 H639 0.930 . S
C628 C624 1.524 . S
C628 H640 0.956 . S
C628 H641 0.961 . S
C628 H642 0.961 . S
C629 C626 1.539 1_556 S
C629 H643 0.958 . S
C629 H644 0.961 . S
C629 H645 0.960 . S
H630 C614 0.931 . S
H631 C619 0.929 . S
H632 C620 0.960 . S
H633 C620 0.962 . S
H634 C620 0.960 . S
H635 C621 0.961 . S
H636 C621 0.961 . S
H637 C621 0.961 . S
H638 C622 0.931 . S
H639 C627 0.930 . S
H640 C628 0.956 . S
H641 C628 0.961 . S
H642 C628 0.961 . S
H643 C629 0.958 . S
H644 C629 0.961 . S
H645 C629 0.960 . S
C646 C647 1.391 . S
C646 C648 1.394 . S
C646 H662 0.931 . S
C647 C646 1.391 . S
C647 C651 1.376 . S
C648 C646 1.394 . S
C648 C649 1.369 . S
C648 C652 1.531 . S
C649 C648 1.369 . S
C649 C650 1.410 . S
C649 C657 1.503 1_545 S
C650 C649 1.410 . S
C650 C651 1.392 . S
C650 C653 1.511 1_545 S
C651 C647 1.376 . S
C651 C650 1.392 . S
C651 H663 0.929 . S
C652 C648 1.531 . S
C652 H664 0.960 . S
C652 H665 0.962 . S
C652 H666 0.960 . S
C653 C650 1.511 1_565 S
C653 H667 0.961 . S
C653 H668 0.961 . S
C653 H669 0.961 . S
C654 C655 1.370 . S
C654 C656 1.363 . S
C654 H670 0.931 . S
C655 C654 1.370 . S
C655 C659 1.408 . S
C656 C654 1.363 . S
C656 C657 1.370 . S
C656 C660 1.524 . S
C657 C649 1.503 1_565 S
C657 C656 1.370 . S
C657 C658 1.403 . S
C658 C657 1.403 . S
C658 C659 1.404 . S
C658 C661 1.539 1_565 S
C659 C655 1.408 . S
C659 C658 1.404 . S
C659 H671 0.930 . S
C660 C656 1.524 . S
C660 H672 0.956 . S
C660 H673 0.961 . S
C660 H674 0.961 . S
C661 C658 1.539 1_545 S
C661 H675 0.958 . S
C661 H676 0.961 . S
C661 H677 0.960 . S
H662 C646 0.931 . S
H663 C651 0.929 . S
H664 C652 0.960 . S
H665 C652 0.962 . S
H666 C652 0.960 . S
H667 C653 0.961 . S
H668 C653 0.961 . S
H669 C653 0.961 . S
H670 C654 0.931 . S
H671 C659 0.930 . S
H672 C660 0.956 . S
H673 C660 0.961 . S
H674 C660 0.961 . S
H675 C661 0.958 . S
H676 C661 0.961 . S
H677 C661 0.960 . S
C199 N80 1.186 . S
C207 C28 1.193 . S
C231 C61 1.181 . S
C239 N14 1.158 . S
C263 C94 1.207 . S
C271 N47 1.125 . S
C295 C127 1.202 . S
C303 N146 1.150 . S
C327 N179 1.113 . S
C335 C160 1.206 . S
C359 N113 1.128 . S
C367 C193 1.205 . S
C391 C149 0.697 . S
C399 C17 0.693 . S
C423 C182 0.699 . S
C431 C50 0.692 . S
C455 C116 0.683 . S
C463 C83 0.690 . S
C487 C107 1.817 . S
C495 C8 1.790 . S
C519 C140 1.817 . S
C527 C41 1.789 . S
C551 C74 1.774 . S
C559 C173 1.806 . S
C583 N137 2.002 . S
C591 N5 2.022 . S
C615 N38 2.029 . S
C623 N170 2.019 . S
C647 N104 2.012 . S
C655 N71 2.026 . S
