# Generated by pormake.
# Topology und, (4)-cn, num edge types: 1
# Building blocks:
#     Node 0, Type 0, BuildingBlock: KUFVIS_clean_sbu_0, # of connection points: 4
#     Node 1, Type 0, BuildingBlock: KUFVIS_clean_sbu_0, # of connection points: 4
#     Node 2, Type 0, BuildingBlock: KUFVIS_clean_sbu_0, # of connection points: 4
#     Node 3, Type 0, BuildingBlock: KUFVIS_clean_sbu_0, # of connection points: 4
#     Node 4, Type 0, BuildingBlock: KUFVIS_clean_sbu_0, # of connection points: 4
#     Node 5, Type 0, BuildingBlock: KUFVIS_clean_sbu_0, # of connection points: 4
#     Node 6, Type 0, BuildingBlock: KUFVIS_clean_sbu_0, # of connection points: 4
#     Node 7, Type 0, BuildingBlock: KUFVIS_clean_sbu_0, # of connection points: 4
#     Node 8, Type 0, BuildingBlock: KUFVIS_clean_sbu_0, # of connection points: 4
#     Node 9, Type 0, BuildingBlock: KUFVIS_clean_sbu_0, # of connection points: 4
#     Node 10, Type 0, BuildingBlock: KUFVIS_clean_sbu_0, # of connection points: 4
#     Node 11, Type 0, BuildingBlock: KUFVIS_clean_sbu_0, # of connection points: 4
#     Node 12, Type 0, BuildingBlock: KUFVIS_clean_sbu_0, # of connection points: 4
#     Node 13, Type 0, BuildingBlock: KUFVIS_clean_sbu_0, # of connection points: 4
#     Node 14, Type 0, BuildingBlock: KUFVIS_clean_sbu_0, # of connection points: 4
#     Node 15, Type 0, BuildingBlock: KUFVIS_clean_sbu_0, # of connection points: 4
#     Edge 16, Type (0, 0), BuildingBlock: XUDNAN_clean_linker_2, # of connection points: 2
#     Edge 17, Type (0, 0), BuildingBlock: XUDNAN_clean_linker_2, # of connection points: 2
#     Edge 18, Type (0, 0), BuildingBlock: XUDNAN_clean_linker_2, # of connection points: 2
#     Edge 19, Type (0, 0), BuildingBlock: XUDNAN_clean_linker_2, # of connection points: 2
#     Edge 20, Type (0, 0), BuildingBlock: XUDNAN_clean_linker_2, # of connection points: 2
#     Edge 21, Type (0, 0), BuildingBlock: XUDNAN_clean_linker_2, # of connection points: 2
#     Edge 22, Type (0, 0), BuildingBlock: XUDNAN_clean_linker_2, # of connection points: 2
#     Edge 23, Type (0, 0), BuildingBlock: XUDNAN_clean_linker_2, # of connection points: 2
#     Edge 24, Type (0, 0), BuildingBlock: XUDNAN_clean_linker_2, # of connection points: 2
#     Edge 25, Type (0, 0), BuildingBlock: XUDNAN_clean_linker_2, # of connection points: 2
#     Edge 26, Type (0, 0), BuildingBlock: XUDNAN_clean_linker_2, # of connection points: 2
#     Edge 27, Type (0, 0), BuildingBlock: XUDNAN_clean_linker_2, # of connection points: 2
#     Edge 28, Type (0, 0), BuildingBlock: XUDNAN_clean_linker_2, # of connection points: 2
#     Edge 29, Type (0, 0), BuildingBlock: XUDNAN_clean_linker_2, # of connection points: 2
#     Edge 30, Type (0, 0), BuildingBlock: XUDNAN_clean_linker_2, # of connection points: 2
#     Edge 31, Type (0, 0), BuildingBlock: XUDNAN_clean_linker_2, # of connection points: 2
#     Edge 32, Type (0, 0), BuildingBlock: XUDNAN_clean_linker_2, # of connection points: 2
#     Edge 33, Type (0, 0), BuildingBlock: XUDNAN_clean_linker_2, # of connection points: 2
#     Edge 34, Type (0, 0), BuildingBlock: XUDNAN_clean_linker_2, # of connection points: 2
#     Edge 35, Type (0, 0), BuildingBlock: XUDNAN_clean_linker_2, # of connection points: 2
#     Edge 36, Type (0, 0), BuildingBlock: XUDNAN_clean_linker_2, # of connection points: 2
#     Edge 37, Type (0, 0), BuildingBlock: XUDNAN_clean_linker_2, # of connection points: 2
#     Edge 38, Type (0, 0), BuildingBlock: XUDNAN_clean_linker_2, # of connection points: 2
#     Edge 39, Type (0, 0), BuildingBlock: XUDNAN_clean_linker_2, # of connection points: 2
#     Edge 40, Type (0, 0), BuildingBlock: XUDNAN_clean_linker_2, # of connection points: 2
#     Edge 41, Type (0, 0), BuildingBlock: XUDNAN_clean_linker_2, # of connection points: 2
#     Edge 42, Type (0, 0), BuildingBlock: XUDNAN_clean_linker_2, # of connection points: 2
#     Edge 43, Type (0, 0), BuildingBlock: XUDNAN_clean_linker_2, # of connection points: 2
#     Edge 44, Type (0, 0), BuildingBlock: XUDNAN_clean_linker_2, # of connection points: 2
#     Edge 45, Type (0, 0), BuildingBlock: XUDNAN_clean_linker_2, # of connection points: 2
#     Edge 46, Type (0, 0), BuildingBlock: XUDNAN_clean_linker_2, # of connection points: 2
#     Edge 47, Type (0, 0), BuildingBlock: XUDNAN_clean_linker_2, # of connection points: 2
# Relax obj value: 0.020
# Max RMSD: 0.089
# Mean RMSD: 0.079
data_MOF--net-und--node1-KUFVIS_clean_sbu_0--edge1-XUDNAN_clean_linker_2
_symmetry_space_group_name_H-M    P1
_symmetry_Int_Tables_number       1
_symmetry_cell_setting            triclinic
loop_
_symmetry_equiv_pos_as_xyz
'x, y, z'
_cell_length_a     59.447915
_cell_length_b     59.467711
_cell_length_c     22.066948
_cell_angle_alpha  92.376554
_cell_angle_beta   92.363242
_cell_angle_gamma 90.091528
loop_
_atom_site_label
_atom_site_type_symbol
_atom_site_fract_x
_atom_site_fract_y
_atom_site_fract_z
_atom_type_partial_charge
Mn0 Mn 0.2615 0.34546 0.01132 0.0
Mn1 Mn 0.23285 0.365 0.88887 0.0
C2 C 0.26186 0.32537 0.91999 0.0
C3 C 0.26317 0.325 0.09994 0.0
C4 C 0.27943 0.38152 0.9288 0.0
O5 O 0.24119 0.36906 0.04911 0.0
O6 O 0.22392 0.38159 0.96474 0.0
C7 C 0.18765 0.34952 0.92114 0.0
N8 N 0.20442 0.34988 0.88091 0.0
C9 C 0.18152 0.32951 0.80471 0.0
C10 C 0.164 0.32896 0.84525 0.0
C11 C 0.16715 0.33886 0.9039 0.0
C12 C 0.20178 0.33986 0.82501 0.0
H13 H 0.18983 0.35743 0.96592 0.0
C14 C 0.22725 0.38197 0.0225 0.0
O15 O 0.27741 0.34101 0.09113 0.0
O16 O 0.24747 0.32135 0.05809 0.0
N17 N 0.23876 0.35094 0.81157 0.0
C18 C 0.25721 0.35311 0.77757 0.0
C19 C 0.25704 0.34349 0.71836 0.0
C20 C 0.23756 0.3326 0.69372 0.0
C21 C 0.21848 0.33133 0.72868 0.0
C22 C 0.2199 0.34056 0.78813 0.0
H23 H 0.27198 0.36203 0.79558 0.0
O24 O 0.27714 0.32228 0.96243 0.0
O25 O 0.24583 0.33958 0.93285 0.0
O26 O 0.28144 0.37004 0.97649 0.0
O27 O 0.2621 0.38085 0.89262 0.0
C28 C 0.19797 0.3216 0.70653 0.0
C29 C 0.17957 0.32048 0.74469 0.0
H30 H 0.14804 0.32105 0.83178 0.0
H31 H 0.15371 0.33851 0.93547 0.0
H32 H 0.27175 0.34478 0.69143 0.0
H33 H 0.23736 0.3255 0.64769 0.0
H34 H 0.19627 0.31459 0.66046 0.0
H35 H 0.16402 0.31261 0.72744 0.0
Mn36 Mn 0.93059 1.00226 0.23868 0.0
Mn37 Mn 0.90983 0.02826 0.3635 0.0
C38 C 0.95048 1.00102 0.33031 0.0
C39 C 0.95107 1.00263 0.15027 0.0
C40 C 0.89324 0.98276 0.3136 0.0
O41 O 0.90642 0.02279 0.20341 0.0
O42 O 0.89508 0.04037 0.28908 0.0
C43 C 0.92725 0.07421 0.34765 0.0
N44 N 0.92576 0.05578 0.38188 0.0
C45 C 0.94535 0.07479 0.46676 0.0
C46 C 0.9471 0.09401 0.43248 0.0
C47 C 0.93817 0.09364 0.37248 0.0
C48 C 0.93479 0.05575 0.43907 0.0
H49 H 0.92002 0.07414 0.30193 0.0
C50 C 0.89439 0.03731 0.23121 0.0
O51 O 0.93541 0.98785 0.15742 0.0
O52 O 0.95443 0.01774 0.19387 0.0
N53 N 0.92242 0.01861 0.43922 0.0
C54 C 0.91957 0.9986 0.46592 0.0
C55 C 0.92836 0.99587 0.52519 0.0
C56 C 0.93932 0.01394 0.5571 0.0
C57 C 0.9415 0.03456 0.52925 0.0
C58 C 0.93297 0.03609 0.4695 0.0
H59 H 0.91076 0.98479 0.44209 0.0
O60 O 0.95421 0.9865 0.28641 0.0
O61 O 0.93567 0.0166 0.31882 0.0
O62 O 0.90667 0.98093 0.26997 0.0
O63 O 0.89252 1.00002 0.34976 0.0
C64 C 0.95152 0.05374 0.55873 0.0
C65 C 0.95349 0.07384 0.52748 0.0
H66 H 0.95524 0.10912 0.45177 0.0
H67 H 0.93944 0.10841 0.34573 0.0
H68 H 0.92645 0.97995 0.54651 0.0
H69 H 0.94582 0.01187 0.6031 0.0
H70 H 0.95805 0.05315 0.6052 0.0
H71 H 0.96153 0.08837 0.55036 0.0
Mn72 Mn 0.25466 0.69226 0.53092 0.0
Mn73 Mn 0.23244 0.66359 0.64373 0.0
C74 C 0.25653 0.70717 0.62915 0.0
C75 C 0.24964 0.71826 0.45401 0.0
C76 C 0.27825 0.65301 0.59385 0.0
O77 O 0.23543 0.66852 0.48485 0.0
O78 O 0.22091 0.65126 0.5633 0.0
C79 C 0.18496 0.67749 0.62505 0.0
N80 N 0.20376 0.67596 0.66202 0.0
C81 C 0.18376 0.68924 0.74895 0.0
C82 C 0.16416 0.69095 0.71187 0.0
C83 C 0.16481 0.68522 0.64954 0.0
C84 C 0.20346 0.68198 0.72168 0.0
H85 H 0.1853 0.67267 0.57737 0.0
C86 C 0.22294 0.65361 0.50641 0.0
O87 O 0.2661 0.70388 0.45327 0.0
O88 O 0.23591 0.71685 0.49771 0.0
N89 N 0.24162 0.67323 0.72481 0.0
C90 C 0.26203 0.67082 0.75425 0.0
C91 C 0.26444 0.67664 0.8165 0.0
C92 C 0.2457 0.68413 0.84828 0.0
C93 C 0.22473 0.68587 0.81739 0.0
C94 C 0.22348 0.68042 0.75501 0.0
H95 H 0.27642 0.66481 0.73025 0.0
O96 O 0.26984 0.71427 0.58895 0.0
O97 O 0.24171 0.69202 0.61043 0.0
O98 O 0.27817 0.66793 0.55351 0.0
O99 O 0.26198 0.65018 0.62888 0.0
C100 C 0.20494 0.69248 0.84619 0.0
C101 C 0.18448 0.69422 0.81198 0.0
H102 H 0.14851 0.6966 0.73077 0.0
H103 H 0.14975 0.68648 0.62063 0.0
H104 H 0.28066 0.67511 0.84006 0.0
H105 H 0.24756 0.68834 0.89646 0.0
H106 H 0.20532 0.69654 0.89453 0.0
H107 H 0.16945 0.69964 0.83451 0.0
Mn108 Mn 0.58767 0.01144 0.78257 0.0
Mn109 Mn 0.60082 0.0303 0.64563 0.0
C110 C 0.56397 1.00443 0.69788 0.0
C111 C 0.5703 0.01466 0.87631 0.0
C112 C 0.62179 0.98878 0.6981 0.0
O113 O 0.61169 0.03524 0.80641 0.0
O114 O 0.61907 0.04543 0.71221 0.0
C115 C 0.5849 0.0772 0.662 0.0
N116 N 0.58455 0.0572 0.62961 0.0
C117 C 0.56404 0.07339 0.54605 0.0
C118 C 0.56409 0.09417 0.57852 0.0
C119 C 0.57434 0.09601 0.63707 0.0
C120 C 0.57401 0.05504 0.57426 0.0
H121 H 0.59345 0.07884 0.70611 0.0
C122 C 0.62257 0.04685 0.7698 0.0
O123 O 0.58696 1.00105 0.86708 0.0
O124 O 0.56444 0.02741 0.83202 0.0
N125 N 0.58475 0.01745 0.57571 0.0
C126 C 0.58637 0.99628 0.55018 0.0
C127 C 0.57607 0.99133 0.49275 0.0
C128 C 0.56514 0.00844 0.46097 0.0
C129 C 0.56443 0.03029 0.4872 0.0
C130 C 0.57414 0.03399 0.54565 0.0
H131 H 0.5954 0.98326 0.57357 0.0
O132 O 0.56345 0.99175 0.7442 0.0
O133 O 0.57812 0.02115 0.70205 0.0
O134 O 0.61209 0.99018 0.74872 0.0
O135 O 0.61828 1.00268 0.65635 0.0
C136 C 0.55507 0.0487 0.45698 0.0
C137 C 0.55484 0.07024 0.48641 0.0
H138 H 0.55642 0.10883 0.55886 0.0
H139 H 0.57453 0.112 0.66233 0.0
H140 H 0.57696 0.97449 0.47251 0.0
H141 H 0.55765 1.00468 0.4161 0.0
H142 H 0.54773 0.04643 0.41138 0.0
H143 H 0.54729 0.08419 0.46304 0.0
Mn144 Mn 0.74761 0.68341 0.99609 0.0
Mn145 Mn 0.77256 0.66388 0.12352 0.0
C146 C 0.74334 0.70243 0.08821 0.0
C147 C 0.74692 0.70474 0.90917 0.0
C148 C 0.72916 0.64446 0.06856 0.0
O149 O 0.77102 0.66215 0.96204 0.0
O150 O 0.78515 0.64876 0.04953 0.0
C151 C 0.81834 0.68182 0.1071 0.0
N152 N 0.7999 0.68023 0.14136 0.0
C153 C 0.81883 0.70003 0.22607 0.0
C154 C 0.83802 0.70188 0.19174 0.0
C155 C 0.8377 0.6929 0.1318 0.0
C156 C 0.79983 0.68935 0.19846 0.0
H157 H 0.81834 0.67453 0.06148 0.0
C158 C 0.78428 0.64933 0.99138 0.0
O159 O 0.73381 0.68748 0.91383 0.0
O160 O 0.76096 0.70937 0.95462 0.0
N161 N 0.76275 0.67679 0.19875 0.0
C162 C 0.74268 0.6741 0.22527 0.0
C163 C 0.73988 0.683 0.2844 0.0
C164 C 0.75796 0.69392 0.31637 0.0
C165 C 0.77861 0.69606 0.28862 0.0
C166 C 0.78018 0.68746 0.22893 0.0
H167 H 0.72885 0.6654 0.20126 0.0
O168 O 0.72876 0.70461 0.04349 0.0
O169 O 0.76041 0.68926 0.07791 0.0
O170 O 0.72874 0.65651 0.02192 0.0
O171 O 0.74448 0.6462 0.11067 0.0
C172 C 0.79778 0.70611 0.3181 0.0
C173 C 0.81786 0.70819 0.28677 0.0
H174 H 0.8531 0.71012 0.21094 0.0
H175 H 0.85245 0.69424 0.10501 0.0
H176 H 0.72391 0.6812 0.30556 0.0
H177 H 0.75585 0.7005 0.36229 0.0
H178 H 0.79717 0.71265 0.36455 0.0
H179 H 0.83236 0.71631 0.30959 0.0
Mn180 Mn 0.08514 0.01622 0.74836 0.0
Mn181 Mn 0.11236 0.99339 0.63015 0.0
C182 C 0.06792 0.01462 0.6522 0.0
C183 C 0.06096 0.00988 0.8277 0.0
C184 C 0.12271 0.04017 0.68538 0.0
O185 O 0.11076 0.99874 0.78901 0.0
O186 O 0.12553 0.98157 0.70681 0.0
C187 C 0.09784 0.94603 0.63869 0.0
N188 N 0.09889 0.965 0.60638 0.0
C189 C 0.07803 0.94724 0.52164 0.0
C190 C 0.07684 0.92747 0.55387 0.0
C191 C 0.08677 0.92688 0.61266 0.0
C192 C 0.08938 0.96576 0.54979 0.0
H193 H 0.10529 0.94555 0.68408 0.0
C194 C 0.12443 0.98488 0.76442 0.0
O195 O 0.07382 0.02766 0.82929 0.0
O196 O 0.06283 0.99596 0.78171 0.0
N197 N 0.1008 1.00326 0.5535 0.0
C198 C 0.10265 0.0239 0.52948 0.0
C199 C 0.09356 0.02732 0.47088 0.0
C200 C 0.08265 0.00953 0.43765 0.0
C201 C 0.0808 0.9885 0.46345 0.0
C202 C 0.09054 0.98596 0.52161 0.0
H203 H 0.11103 0.03764 0.55475 0.0
O204 O 0.06088 0.02868 0.6937 0.0
O205 O 0.08468 1.00205 0.6688 0.0
O206 O 0.10718 0.04088 0.72402 0.0
O207 O 0.12664 0.02293 0.65086 0.0
C208 C 0.0695 0.97001 0.43398 0.0
C209 C 0.06806 0.94942 0.46313 0.0
H210 H 0.0682 0.9127 0.53411 0.0
H211 H 0.08582 0.91172 0.63794 0.0
H212 H 0.09494 0.04364 0.45136 0.0
H213 H 0.07572 0.01223 0.3924 0.0
H214 H 0.06168 0.97152 0.38913 0.0
H215 H 0.05912 0.9354 0.44028 0.0
Mn216 Mn 0.76001 0.34159 0.51496 0.0
Mn217 Mn 0.77889 0.36146 0.38526 0.0
C218 C 0.75777 0.31986 0.42462 0.0
C219 C 0.76753 0.32088 0.6021 0.0
C220 C 0.73449 0.37587 0.4377 0.0
O221 O 0.77989 0.3681 0.5464 0.0
O222 O 0.79175 0.379 0.45641 0.0
C223 C 0.82657 0.34825 0.4044 0.0
N224 N 0.8071 0.34748 0.36959 0.0
C225 C 0.82416 0.32403 0.29286 0.0
C226 C 0.84443 0.32466 0.32773 0.0
C227 C 0.84561 0.33676 0.38383 0.0
C228 C 0.80571 0.33568 0.31591 0.0
H229 H 0.82754 0.3575 0.44757 0.0
C230 C 0.79137 0.38099 0.51433 0.0
O231 O 0.75054 0.33461 0.59923 0.0
O232 O 0.78024 0.32002 0.55594 0.0
N233 N 0.76792 0.34587 0.31239 0.0
C234 C 0.74704 0.34671 0.28474 0.0
C235 C 0.74326 0.33624 0.22704 0.0
C236 C 0.76094 0.32495 0.19856 0.0
C237 C 0.78213 0.32387 0.22846 0.0
C238 C 0.78506 0.33513 0.28518 0.0
H239 H 0.73345 0.35551 0.30621 0.0
O240 O 0.74471 0.3156 0.46835 0.0
O241 O 0.77139 0.33667 0.43514 0.0
O242 O 0.73573 0.36386 0.48467 0.0
O243 O 0.74959 0.37599 0.39806 0.0
C244 C 0.80053 0.31226 0.20395 0.0
C245 C 0.82148 0.31218 0.23638 0.0
H246 H 0.85916 0.31584 0.31199 0.0
H247 H 0.86117 0.33726 0.41111 0.0
H248 H 0.7268 0.33699 0.20439 0.0
H249 H 0.75807 0.31722 0.15361 0.0
H250 H 0.7987 0.30324 0.16035 0.0
H251 H 0.83544 0.30301 0.21738 0.0
Mn252 Mn 0.43328 0.01627 0.27497 0.0
Mn253 Mn 0.40539 0.99199 0.38566 0.0
C254 C 0.44913 0.01469 0.37266 0.0
C255 C 0.45916 0.01247 0.19713 0.0
C256 C 0.39403 0.03843 0.3406 0.0
O257 O 0.40891 0.99792 0.22749 0.0
O258 O 0.39288 0.98121 0.30506 0.0
C259 C 0.42035 0.94505 0.3627 0.0
N260 N 0.4187 0.96345 0.40111 0.0
C261 C 0.43765 0.94433 0.48245 0.0
C262 C 0.43944 0.92513 0.44386 0.0
C263 C 0.43078 0.92552 0.3837 0.0
C264 C 0.42705 0.96329 0.45899 0.0
H265 H 0.4138 0.94531 0.31635 0.0
C266 C 0.39462 0.98445 0.24842 0.0
O267 O 0.44503 0.02913 0.19886 0.0
O268 O 0.45745 0.99785 0.23851 0.0
N269 N 0.41604 1.00081 0.46617 0.0
C270 C 0.41369 0.02097 0.49683 0.0
C271 C 0.42128 0.02335 0.55784 0.0
C272 C 0.43125 0.00501 0.5866 0.0
C273 C 0.43374 0.98451 0.55395 0.0
C274 C 0.42544 0.983 0.49363 0.0
H275 H 0.40607 0.03513 0.47495 0.0
O276 O 0.45614 0.02949 0.33616 0.0
O277 O 0.43314 1.00155 0.35089 0.0
O278 O 0.40932 0.03936 0.30152 0.0
O279 O 0.39119 0.0215 0.37342 0.0
C280 C 0.44421 0.96555 0.57879 0.0
C281 C 0.44626 0.9455 0.54298 0.0
H282 H 0.44755 0.91006 0.45982 0.0
H283 H 0.43219 0.91081 0.35357 0.0
H284 H 0.41944 0.03928 0.58266 0.0
H285 H 0.43696 0.00687 0.63377 0.0
H286 H 0.45092 0.96627 0.62522 0.0
H287 H 0.45457 0.93111 0.56236 0.0
Mn288 Mn 0.75661 0.83808 0.50505 0.0
Mn289 Mn 0.73348 0.86541 0.38744 0.0
C290 C 0.7546 0.82085 0.40876 0.0
C291 C 0.75078 0.81401 0.58474 0.0
C292 C 0.78045 0.87558 0.4415 0.0
O293 O 0.7394 0.86376 0.54646 0.0
O294 O 0.72214 0.87865 0.46461 0.0
C295 C 0.68606 0.85126 0.39751 0.0
N296 N 0.7049 0.85217 0.36457 0.0
C297 C 0.68659 0.83155 0.28022 0.0
C298 C 0.66696 0.83052 0.31311 0.0
C299 C 0.66671 0.8404 0.37202 0.0
C300 C 0.70532 0.84272 0.30785 0.0
H301 H 0.68585 0.85869 0.44297 0.0
C302 C 0.72562 0.87757 0.52218 0.0
O303 O 0.76851 0.82691 0.58552 0.0
O304 O 0.73656 0.81578 0.5393 0.0
N305 N 0.74292 0.85381 0.31038 0.0
C306 C 0.76347 0.85546 0.28573 0.0
C307 C 0.76659 0.84632 0.22701 0.0
C308 C 0.74858 0.83558 0.1943 0.0
C309 C 0.72762 0.83396 0.22072 0.0
C310 C 0.72541 0.84372 0.27899 0.0
H311 H 0.77739 0.8637 0.31064 0.0
O312 O 0.76879 0.8138 0.4499 0.0
O313 O 0.7421 0.83764 0.42574 0.0
O314 O 0.78118 0.86005 0.48006 0.0
O315 O 0.76317 0.87955 0.40715 0.0
C316 C 0.70892 0.82286 0.19177 0.0
C317 C 0.68843 0.8216 0.22156 0.0
H318 H 0.65203 0.82203 0.29377 0.0
H319 H 0.65165 0.83957 0.3978 0.0
H320 H 0.78285 0.84752 0.20702 0.0
H321 H 0.75104 0.82858 0.14899 0.0
H322 H 0.71018 0.81503 0.14683 0.0
H323 H 0.67425 0.8128 0.19911 0.0
Mn324 Mn 0.43112 0.51661 0.76233 0.0
Mn325 Mn 0.40468 0.53789 0.8844 0.0
C326 C 0.44649 0.51174 0.85866 0.0
C327 C 0.45682 0.52264 0.68638 0.0
C328 C 0.39058 0.49401 0.81828 0.0
O329 O 0.40848 0.53819 0.72474 0.0
O330 O 0.39295 0.55219 0.80948 0.0
C331 C 0.42274 0.58429 0.88416 0.0
N332 N 0.41985 0.56482 0.9133 0.0
C333 C 0.438 0.58053 0.00493 0.0
C334 C 0.44111 0.60079 0.97601 0.0
C335 C 0.43357 0.60263 0.91523 0.0
C336 C 0.42747 0.56271 0.97133 0.0
H337 H 0.41677 0.58584 0.83765 0.0
C338 C 0.39484 0.55129 0.75179 0.0
O339 O 0.44179 0.5067 0.67983 0.0
O340 O 0.45644 0.53508 0.73579 0.0
N341 N 0.4141 0.52591 0.96047 0.0
C342 C 0.40952 0.50532 0.98207 0.0
C343 C 0.41643 0.50056 0.04178 0.0
C344 C 0.42743 0.5172 0.07916 0.0
C345 C 0.43129 0.53849 0.05657 0.0
C346 C 0.42431 0.54216 0.99642 0.0
H347 H 0.4008 0.49255 0.95385 0.0
O348 O 0.45258 0.49905 0.81312 0.0
O349 O 0.43212 0.52755 0.84623 0.0
O350 O 0.40556 0.49387 0.77791 0.0
O351 O 0.3887 0.50993 0.85845 0.0
C352 C 0.4415 0.55633 0.09163 0.0
C353 C 0.44485 0.57733 0.06584 0.0
H354 H 0.44929 0.61503 0.99999 0.0
H355 H 0.43594 0.61819 0.89256 0.0
H356 H 0.41317 0.48416 0.05906 0.0
H357 H 0.43263 0.51351 0.1253 0.0
H358 H 0.44698 0.55404 0.13839 0.0
H359 H 0.45292 0.59085 0.09311 0.0
Mn360 Mn 0.76602 0.18659 0.00582 0.0
Mn361 Mn 0.73924 0.16326 0.12043 0.0
C362 C 0.76798 0.20354 0.1018 0.0
C363 C 0.76786 0.20982 0.92267 0.0
C364 C 0.78401 0.14649 0.07737 0.0
O365 O 0.74435 0.16482 0.9609 0.0
O366 O 0.72802 0.15004 0.04047 0.0
C367 C 0.69339 0.18052 0.0933 0.0
N368 N 0.71138 0.17835 0.13286 0.0
C369 C 0.6905 0.1937 0.21591 0.0
C370 C 0.67174 0.19613 0.17609 0.0
C371 C 0.67328 0.18972 0.11438 0.0
C372 C 0.71029 0.18509 0.19189 0.0
H373 H 0.69431 0.17502 0.04621 0.0
C374 C 0.73048 0.1514 0.98336 0.0
O375 O 0.78128 0.19289 0.93 0.0
O376 O 0.75263 0.21292 0.96275 0.0
N377 N 0.74777 0.17407 0.20094 0.0
C378 C 0.76755 0.1711 0.23303 0.0
C379 C 0.7692 0.17773 0.29487 0.0
C380 C 0.75028 0.18651 0.32359 0.0
C381 C 0.72995 0.18887 0.28996 0.0
C382 C 0.72955 0.18276 0.228 0.0
H383 H 0.78198 0.16385 0.21147 0.0
O384 O 0.78303 0.20754 0.06266 0.0
O385 O 0.75153 0.19006 0.08352 0.0
O386 O 0.78544 0.16007 0.03441 0.0
O387 O 0.76763 0.14654 0.11288 0.0
C388 C 0.70997 0.19673 0.31564 0.0
C389 C 0.69026 0.1992 0.27862 0.0
H390 H 0.65608 0.20285 0.1924 0.0
H391 H 0.65886 0.19149 0.08339 0.0
H392 H 0.78492 0.17571 0.32058 0.0
H393 H 0.7515 0.19123 0.37156 0.0
H394 H 0.70966 0.20128 0.36364 0.0
H395 H 0.67511 0.20561 0.29871 0.0
Mn396 Mn 0.08632 0.51016 0.28892 0.0
Mn397 Mn 0.09944 0.53399 0.15851 0.0
C398 C 0.06162 0.50826 0.20474 0.0
C399 C 0.06944 0.51095 0.38333 0.0
C400 C 0.11909 0.48973 0.19667 0.0
O401 O 0.11165 0.53191 0.31795 0.0
O402 O 0.1193 0.54537 0.22702 0.0
C403 C 0.08508 0.58019 0.194 0.0
N404 N 0.08366 0.56192 0.15468 0.0
C405 C 0.05649 0.58038 0.0901 0.0
C406 C 0.05774 0.59943 0.12974 0.0
C407 C 0.07205 0.5993 0.182 0.0
C408 C 0.0698 0.5618 0.10458 0.0
H409 H 0.09603 0.58017 0.23425 0.0
C410 C 0.12308 0.54425 0.28431 0.0
O411 O 0.08516 0.49665 0.37006 0.0
O412 O 0.06431 0.52553 0.34294 0.0
N413 N 0.08143 0.52477 0.088 0.0
C414 C 0.08215 0.50503 0.05455 0.0
C415 C 0.06932 0.50267 0.9998 0.0
C416 C 0.0559 0.52059 0.98009 0.0
C417 C 0.05532 0.54067 0.01543 0.0
C418 C 0.06886 0.54224 0.06883 0.0
H419 H 0.09262 0.4913 0.0692 0.0
O420 O 0.06059 0.49339 0.24592 0.0
O421 O 0.07719 0.52345 0.21365 0.0
O422 O 0.10948 0.48959 0.24746 0.0
O423 O 0.11595 0.50516 0.1586 0.0
C424 C 0.04196 0.55924 0.99953 0.0
C425 C 0.04243 0.57903 0.03708 0.0
H426 H 0.04772 0.61421 0.12064 0.0
H427 H 0.07305 0.61391 0.21294 0.0
H428 H 0.06984 0.4871 0.97272 0.0
H429 H 0.04613 0.51879 0.93764 0.0
H430 H 0.03117 0.55842 0.95873 0.0
H431 H 0.03193 0.59313 0.02471 0.0
Mn432 Mn 0.25491 0.19039 0.50124 0.0
Mn433 Mn 0.27746 0.16479 0.62268 0.0
C434 C 0.25494 0.2082 0.59664 0.0
C435 C 0.261 0.21432 0.42122 0.0
C436 C 0.23151 0.15257 0.56511 0.0
O437 O 0.27374 0.16524 0.46291 0.0
O438 O 0.28994 0.15121 0.54748 0.0
C439 C 0.32452 0.18043 0.61492 0.0
N440 N 0.30542 0.17913 0.64664 0.0
C441 C 0.32232 0.20089 0.73099 0.0
C442 C 0.34222 0.20234 0.69937 0.0
C443 C 0.3433 0.19209 0.64106 0.0
C444 C 0.30417 0.18898 0.70271 0.0
H445 H 0.32537 0.17271 0.56991 0.0
C446 C 0.28735 0.15186 0.48961 0.0
O447 O 0.24373 0.20079 0.41919 0.0
O448 O 0.27464 0.21327 0.46811 0.0
N449 N 0.26694 0.17668 0.69827 0.0
C450 C 0.24627 0.17435 0.72184 0.0
C451 C 0.24242 0.18355 0.78009 0.0
C452 C 0.25982 0.19505 0.81342 0.0
C453 C 0.28088 0.1974 0.78804 0.0
C454 C 0.28386 0.18751 0.73027 0.0
H455 H 0.23285 0.16546 0.69652 0.0
O456 O 0.24102 0.21444 0.55382 0.0
O457 O 0.26832 0.19186 0.58183 0.0
O458 O 0.23081 0.16756 0.52494 0.0
O459 O 0.24841 0.14966 0.60167 0.0
C460 C 0.29899 0.20926 0.81766 0.0
C461 C 0.31967 0.21108 0.78906 0.0
H462 H 0.35671 0.21142 0.71925 0.0
H463 H 0.35856 0.19323 0.61624 0.0
H464 H 0.22608 0.18177 0.79929 0.0
H465 H 0.25682 0.20202 0.85846 0.0
H466 H 0.29713 0.21721 0.86223 0.0
H467 H 0.3334 0.22044 0.81201 0.0
Mn468 Mn 0.58533 0.51665 0.27198 0.0
Mn469 Mn 0.59857 0.48279 0.15245 0.0
C470 C 0.56166 0.51413 0.18616 0.0
C471 C 0.56692 0.52131 0.3638 0.0
C472 C 0.61973 0.52898 0.17756 0.0
O473 O 0.60908 0.49622 0.30932 0.0
O474 O 0.617 0.47496 0.22614 0.0
C475 C 0.58125 0.44021 0.1981 0.0
N476 N 0.58131 0.45567 0.15426 0.0
C477 C 0.55391 0.43435 0.09239 0.0
C478 C 0.55368 0.41813 0.1367 0.0
C479 C 0.56738 0.42111 0.18983 0.0
C480 C 0.56817 0.45299 0.103 0.0
H481 H 0.59168 0.44244 0.23914 0.0
C482 C 0.61984 0.48036 0.28281 0.0
O483 O 0.58297 0.53491 0.35022 0.0
O484 O 0.56227 0.50484 0.32523 0.0
N485 N 0.58188 0.48796 0.07825 0.0
C486 C 0.58297 0.5058 0.0417 0.0
C487 C 0.57015 0.50556 0.98685 0.0
C488 C 0.55609 0.48711 0.97043 0.0
C489 C 0.5551 0.46901 0.00893 0.0
C490 C 0.56864 0.46998 0.06245 0.0
H491 H 0.59323 0.52027 0.05479 0.0
O492 O 0.56097 0.53156 0.22332 0.0
O493 O 0.57619 0.4987 0.20033 0.0
O494 O 0.60986 0.53374 0.2271 0.0
O495 O 0.61646 0.51055 0.14642 0.0
C496 C 0.54089 0.45024 0.99684 0.0
C497 C 0.54026 0.43294 0.0386 0.0
H498 H 0.54291 0.40343 0.13063 0.0
H499 H 0.56722 0.40872 0.22438 0.0
H500 H 0.57095 0.51966 0.95756 0.0
H501 H 0.54597 0.48712 0.92848 0.0
H502 H 0.53015 0.44908 0.95595 0.0
H503 H 0.52906 0.41873 0.02918 0.0
Mn504 Mn 0.252 0.84566 0.03873 0.0
Mn505 Mn 0.27564 0.85814 0.90749 0.0
C506 C 0.25004 0.82058 0.95544 0.0
C507 C 0.25278 0.82918 0.13361 0.0
C508 C 0.23135 0.87782 0.94547 0.0
O509 O 0.27369 0.8712 0.06657 0.0
O510 O 0.28698 0.8784 0.97509 0.0
C511 C 0.32194 0.84413 0.94321 0.0
N512 N 0.30365 0.84248 0.904 0.0
C513 C 0.32219 0.81512 0.84014 0.0
C514 C 0.34126 0.81661 0.87967 0.0
C515 C 0.3411 0.83113 0.93151 0.0
C516 C 0.30355 0.82841 0.85432 0.0
H517 H 0.32189 0.85524 0.98315 0.0
C518 C 0.28587 0.88252 0.03223 0.0
O519 O 0.2385 0.84487 0.11993 0.0
O520 O 0.26743 0.82395 0.09347 0.0
N521 N 0.26645 0.8398 0.83761 0.0
C522 C 0.2467 0.84037 0.80412 0.0
C523 C 0.24436 0.82732 0.74973 0.0
C524 C 0.2623 0.81383 0.73042 0.0
C525 C 0.28241 0.81348 0.76568 0.0
C526 C 0.28396 0.82724 0.81869 0.0
H527 H 0.23295 0.85089 0.81846 0.0
O528 O 0.23523 0.81972 0.99683 0.0
O529 O 0.26524 0.83617 0.96362 0.0
O530 O 0.2313 0.86851 0.99665 0.0
O531 O 0.24675 0.87451 0.90734 0.0
C532 C 0.30103 0.80013 0.75009 0.0
C533 C 0.32086 0.80084 0.78753 0.0
H534 H 0.35607 0.80662 0.8708 0.0
H535 H 0.35572 0.83232 0.96236 0.0
H536 H 0.22878 0.82772 0.72262 0.0
H537 H 0.26049 0.80385 0.68833 0.0
H538 H 0.30023 0.78917 0.70961 0.0
H539 H 0.33499 0.79035 0.77541 0.0
Mn540 Mn 0.93283 0.51429 0.78246 0.0
Mn541 Mn 0.9039 0.49087 0.89285 0.0
C542 C 0.94711 0.51603 0.88121 0.0
C543 C 0.95936 0.50986 0.70655 0.0
C544 C 0.89251 0.53664 0.84394 0.0
O545 O 0.90983 0.49477 0.73493 0.0
O546 O 0.89224 0.47933 0.81151 0.0
C547 C 0.91901 0.44381 0.87361 0.0
N548 N 0.91688 0.46244 0.91091 0.0
C549 C 0.93057 0.44255 0.99761 0.0
C550 C 0.93289 0.42313 0.96019 0.0
C551 C 0.92725 0.42381 0.89783 0.0
C552 C 0.92277 0.46212 0.97065 0.0
H553 H 0.91431 0.44417 0.82587 0.0
C554 C 0.89503 0.48179 0.75493 0.0
O555 O 0.94476 0.52612 0.70547 0.0
O556 O 0.95797 0.49611 0.75017 0.0
N557 N 0.91298 0.5 0.97439 0.0
C558 C 0.91018 0.5203 0.00405 0.0
C559 C 0.91591 0.52271 0.06635 0.0
C560 C 0.92381 0.50407 0.09789 0.0
C561 C 0.92605 0.48322 0.06671 0.0
C562 C 0.92061 0.48198 0.00434 0.0
H563 H 0.90394 0.53463 0.98017 0.0
O564 O 0.95417 0.52971 0.84182 0.0
O565 O 0.93235 0.50099 0.86132 0.0
O566 O 0.90776 0.53713 0.80449 0.0
O567 O 0.88982 0.52015 0.87828 0.0
C568 C 0.93324 0.46356 0.09519 0.0
C569 C 0.93551 0.44324 0.06066 0.0
H570 H 0.93898 0.4076 0.97885 0.0
H571 H 0.92899 0.40889 0.86864 0.0
H572 H 0.91405 0.53884 0.09011 0.0
H573 H 0.92799 0.50593 0.14608 0.0
H574 H 0.93732 0.46394 0.14351 0.0
H575 H 0.94136 0.42832 0.08294 0.0
H576 H 0.23555 0.29035 0.13233 0.0
H577 H 0.29664 0.3271 0.18817 0.0
H578 H 0.30262 0.3022 0.27374 0.0
H579 H 0.21749 0.28097 0.28506 0.0
H580 H 0.2066 0.25315 0.266 0.0
H581 H 0.20684 0.27395 0.20893 0.0
H582 H 0.22943 0.24676 0.14 0.0
H583 H 0.22942 0.22594 0.19704 0.0
H584 H 0.25567 0.23538 0.1687 0.0
H585 H 0.30296 0.27316 0.35059 0.0
H586 H 0.29647 0.24296 0.42019 0.0
H587 H 0.23454 0.22452 0.3186 0.0
C588 C 0.2501 0.29324 0.16283 0.0
C589 C 0.26566 0.31073 0.15343 0.0
C590 C 0.28448 0.31391 0.19435 0.0
C591 C 0.28806 0.29979 0.24306 0.0
C592 C 0.27263 0.28258 0.2506 0.0
C593 C 0.2539 0.27931 0.21215 0.0
C594 C 0.2399 0.25957 0.23137 0.0
C595 C 0.21631 0.26738 0.24889 0.0
C596 C 0.23853 0.2408 0.18128 0.0
C597 C 0.25378 0.25227 0.28649 0.0
C598 C 0.27263 0.26579 0.29621 0.0
C599 C 0.28822 0.26252 0.34366 0.0
C600 C 0.28435 0.24521 0.38296 0.0
C601 C 0.26495 0.23129 0.37515 0.0
C602 C 0.24953 0.2348 0.32577 0.0
H603 H 0.97811 0.03434 0.38057 0.0
H604 H 0.95669 0.96546 0.40046 0.0
H605 H 0.98583 0.9611 0.48221 0.0
H606 H 0.03569 0.02105 0.39645 0.0
H607 H 0.045 0.04662 0.43689 0.0
H608 H 0.02073 0.04692 0.38521 0.0
H609 H 0.99433 0.06217 0.46848 0.0
H610 H 0.01955 0.06495 0.51617 0.0
H611 H 0.99607 0.04951 0.54184 0.0
H612 H 0.01763 0.96357 0.55846 0.0
H613 H 0.04876 0.97388 0.63194 0.0
H614 H 0.05105 0.04072 0.5614 0.0
C615 C 0.97912 0.01868 0.40391 0.0
C616 C 0.96476 1.00042 0.38613 0.0
C617 C 0.96726 0.97972 0.41485 0.0
C618 C 0.9838 0.97708 0.46092 0.0
C619 C 0.99808 0.99515 0.47657 0.0
C620 C 0.99587 0.01564 0.4495 0.0
C621 C 0.01469 0.03164 0.47169 0.0
C622 C 0.02995 0.03687 0.41949 0.0
C623 C 0.00553 0.05336 0.50125 0.0
C624 C 0.02683 0.01742 0.51814 0.0
C625 C 0.01727 0.99624 0.51894 0.0
C626 C 0.02528 0.98009 0.55826 0.0
C627 C 0.04301 0.98603 0.5995 0.0
C628 C 0.05243 0.00789 0.60116 0.0
C629 C 0.04432 0.02377 0.55993 0.0
H630 H 0.22266 0.72883 0.68796 0.0
H631 H 0.29346 0.71192 0.70272 0.0
H632 H 0.29798 0.73635 0.7955 0.0
H633 H 0.22889 0.78199 0.71476 0.0
H634 H 0.2066 0.79025 0.76413 0.0
H635 H 0.20325 0.76618 0.71235 0.0
H636 H 0.19629 0.73809 0.79108 0.0
H637 H 0.19531 0.76136 0.84565 0.0
H638 H 0.21371 0.73807 0.86041 0.0
H639 H 0.29607 0.76443 0.87925 0.0
H640 H 0.28843 0.79716 0.94743 0.0
H641 H 0.21958 0.79918 0.87505 0.0
C642 C 0.23877 0.72951 0.71274 0.0
C643 C 0.2576 0.71796 0.69008 0.0
C644 C 0.27883 0.72024 0.72079 0.0
C645 C 0.2815 0.73396 0.77349 0.0
C646 C 0.26281 0.74555 0.79421 0.0
C647 C 0.24176 0.74345 0.76531 0.0
C648 C 0.22542 0.76044 0.79203 0.0
C649 C 0.21549 0.77568 0.74308 0.0
C650 C 0.20657 0.74872 0.82422 0.0
C651 C 0.24096 0.77307 0.83794 0.0
C652 C 0.26219 0.7636 0.83966 0.0
C653 C 0.27951 0.77195 0.87858 0.0
C654 C 0.27507 0.79059 0.91673 0.0
C655 C 0.25368 0.80091 0.91479 0.0
C656 C 0.2362 0.79173 0.87619 0.0
H657 H 0.46562 0.03617 0.09249 0.0
H658 H 0.49504 0.98454 0.20438 0.0
H659 H 0.52708 0.98144 0.13794 0.0
H660 H 0.48182 0.01023 0.94913 0.0
H661 H 0.48777 0.03649 0.91496 0.0
H662 H 0.46717 0.03546 0.97241 0.0
H663 H 0.48877 0.06681 0.03568 0.0
H664 H 0.50954 0.0678 0.9786 0.0
H665 H 0.51814 0.06294 0.05624 0.0
H666 H 0.55616 0.98368 0.06161 0.0
H667 H 0.5793 0.98884 0.97333 0.0
H668 H 0.53155 0.038 0.90581 0.0
C669 C 0.47882 0.02424 0.10287 0.0
C670 C 0.47773 0.01063 0.15395 0.0
C671 C 0.49533 0.99513 0.16564 0.0
C672 C 0.51374 0.99329 0.12827 0.0
C673 C 0.51442 0.00694 0.07872 0.0
C674 C 0.49738 0.02195 0.06527 0.0
C675 C 0.50213 0.03389 0.00741 0.0
C676 C 0.48362 0.0287 0.95806 0.0
C677 C 0.50481 0.05938 0.02028 0.0
C678 C 0.52441 0.02316 0.99077 0.0
C679 C 0.5312 0.00785 0.03312 0.0
C680 C 0.55104 0.99562 0.02803 0.0
C681 C 0.56412 0.99872 0.97766 0.0
C682 C 0.55735 0.01384 0.93248 0.0
C683 C 0.5373 0.02643 0.9397 0.0
H684 H 0.27748 0.79228 0.16889 0.0
H685 H 0.22319 0.83639 0.22379 0.0
H686 H 0.21692 0.81283 0.3109 0.0
H687 H 0.25159 0.74095 0.20528 0.0
H688 H 0.27708 0.72794 0.23356 0.0
H689 H 0.27838 0.74884 0.17701 0.0
H690 H 0.30635 0.77249 0.24662 0.0
H691 H 0.30531 0.75155 0.30318 0.0
H692 H 0.29885 0.78048 0.32286 0.0
H693 H 0.21483 0.78359 0.38804 0.0
H694 H 0.21869 0.75187 0.45562 0.0
H695 H 0.27482 0.7263 0.35356 0.0
C696 C 0.26451 0.79718 0.1998 0.0
C697 C 0.25086 0.8163 0.1895 0.0
C698 C 0.23392 0.82195 0.23071 0.0
C699 C 0.23018 0.80861 0.2803 0.0
C700 C 0.24357 0.78967 0.2884 0.0
C701 C 0.26056 0.78403 0.24979 0.0
C702 C 0.27225 0.76252 0.26859 0.0
C703 C 0.26966 0.74397 0.2181 0.0
C704 C 0.29717 0.76704 0.28638 0.0
C705 C 0.25901 0.75686 0.32345 0.0
C706 C 0.24252 0.77277 0.33374 0.0
C707 C 0.22778 0.77112 0.38073 0.0
C708 C 0.23009 0.75292 0.4188 0.0
C709 C 0.24708 0.73652 0.41015 0.0
C710 C 0.26168 0.73853 0.36149 0.0
H711 H 0.46378 0.04092 0.47186 0.0
H712 H 0.46833 0.97428 0.38629 0.0
H713 H 0.49625 0.96349 0.46558 0.0
H714 H 0.51456 0.05022 0.50139 0.0
H715 H 0.51788 0.06192 0.57839 0.0
H716 H 0.492 0.06545 0.53464 0.0
H717 H 0.46574 0.04557 0.60232 0.0
H718 H 0.48928 0.04658 0.65654 0.0
H719 H 0.47514 0.02029 0.63819 0.0
H720 H 0.52465 0.96037 0.55035 0.0
H721 H 0.55426 0.96605 0.63184 0.0
H722 H 0.53435 0.03578 0.65646 0.0
C723 C 0.47022 0.02389 0.47127 0.0
C724 C 0.46367 0.00819 0.42426 0.0
C725 C 0.47285 0.98628 0.42311 0.0
C726 C 0.48861 0.97999 0.46796 0.0
C727 C 0.49489 0.99582 0.51375 0.0
C728 C 0.48569 0.01719 0.51666 0.0
C729 C 0.49698 0.03152 0.56768 0.0
C730 C 0.506 0.05359 0.54432 0.0
C731 C 0.48078 0.03626 0.61916 0.0
C732 C 0.51549 0.01568 0.5882 0.0
C733 C 0.51306 0.99476 0.55891 0.0
C734 C 0.52687 0.97669 0.57341 0.0
C735 C 0.5436 0.98003 0.61943 0.0
C736 C 0.54693 1.00149 0.64824 0.0
C737 C 0.5326 0.01948 0.63297 0.0
H738 H 0.22715 0.22439 0.6845 0.0
H739 H 0.29476 0.22894 0.61972 0.0
H740 H 0.30317 0.26051 0.6934 0.0
H741 H 0.21675 0.27973 0.70336 0.0
H742 H 0.20269 0.28014 0.77475 0.0
H743 H 0.2017 0.25532 0.72528 0.0
H744 H 0.21953 0.23017 0.80687 0.0
H745 H 0.21753 0.25425 0.85867 0.0
H746 H 0.24412 0.24033 0.85052 0.0
H747 H 0.30367 0.29252 0.76866 0.0
H748 H 0.29769 0.32121 0.85041 0.0
H749 H 0.22952 0.29698 0.86696 0.0
C750 C 0.24386 0.23174 0.68726 0.0
C751 C 0.26051 0.22413 0.64762 0.0
C752 C 0.28203 0.23432 0.65093 0.0
C753 C 0.2869 0.2523 0.69228 0.0
C754 C 0.27003 0.25976 0.73011 0.0
C755 C 0.24917 0.24944 0.72942 0.0
C756 C 0.23404 0.26114 0.77451 0.0
C757 C 0.2125 0.26965 0.74256 0.0
C758 C 0.22848 0.2455 0.82562 0.0
C759 C 0.24927 0.28032 0.79834 0.0
C760 C 0.27005 0.27892 0.7725 0.0
C761 C 0.28747 0.29386 0.78915 0.0
C762 C 0.2839 0.31015 0.83522 0.0
C763 C 0.26298 0.31164 0.86333 0.0
C764 C 0.24534 0.29671 0.84429 0.0
H765 H 0.05087 0.03521 0.93265 0.0
H766 H 0.0319 0.97474 0.82509 0.0
H767 H 1.00184 0.96736 0.89423 0.0
H768 H 0.04056 0.01174 0.07947 0.0
H769 H 0.02943 0.03752 0.1118 0.0
H770 H 0.04986 0.03848 0.05387 0.0
H771 H 0.02248 0.06237 0.98892 0.0
H772 H 1.00191 0.06135 0.04649 0.0
H773 H 0.99452 0.05187 0.96959 0.0
H774 H 0.97321 0.96646 0.97127 0.0
H775 H 0.94873 0.97082 0.05807 0.0
H776 H 0.98561 0.0311 0.12063 0.0
C777 C 0.04045 0.02038 0.92399 0.0
C778 C 0.04383 0.00561 0.87313 0.0
C779 C 0.02978 0.98637 0.86349 0.0
C780 C 0.01254 0.982 0.9025 0.0
C781 C 0.00945 0.9969 0.95157 0.0
C782 C 0.02305 0.01559 0.96311 0.0
C783 C 0.01597 0.02856 0.02009 0.0
C784 C 0.0351 0.0291 0.06922 0.0
C785 C 0.00826 0.05245 0.00537 0.0
C786 C 0.99631 0.0142 0.03818 0.0
C787 C 0.99287 0.99613 0.99755 0.0
C788 C 0.97575 0.98049 0.00365 0.0
C789 C 0.96188 0.98316 0.05313 0.0
C790 C 0.9652 1.00127 0.09631 0.0
C791 C 0.98261 0.01709 0.08838 0.0
H792 H 0.77384 0.74059 0.88027 0.0
H793 H 0.71525 0.7012 0.81689 0.0
H794 H 0.71007 0.72536 0.72972 0.0
H795 H 0.7525 0.79463 0.83744 0.0
H796 H 0.77901 0.8048 0.8125 0.0
H797 H 0.77855 0.78446 0.87073 0.0
H798 H 0.80351 0.75766 0.80715 0.0
H799 H 0.80415 0.77797 0.74886 0.0
H800 H 0.79463 0.74964 0.73016 0.0
H801 H 0.71007 0.75376 0.65202 0.0
H802 H 0.71664 0.78375 0.58198 0.0
H803 H 0.77611 0.80521 0.69049 0.0
C804 C 0.75999 0.73703 0.84786 0.0
C805 C 0.74491 0.71897 0.85557 0.0
C806 C 0.72704 0.71485 0.81208 0.0
C807 C 0.7239 0.72854 0.76241 0.0
C808 C 0.73885 0.74626 0.75637 0.0
C809 C 0.75668 0.7505 0.79734 0.0
C810 C 0.77039 0.77058 0.77893 0.0
C811 C 0.77009 0.78975 0.82782 0.0
C812 C 0.79461 0.76353 0.76547 0.0
C813 C 0.75735 0.77692 0.7214 0.0
C814 C 0.73916 0.76265 0.70988 0.0
C815 C 0.72431 0.76499 0.6603 0.0
C816 C 0.72821 0.7822 0.62079 0.0
C817 C 0.74694 0.79691 0.63046 0.0
C818 C 0.76167 0.79426 0.68179 0.0
H819 H 0.72882 0.29923 0.33863 0.0
H820 H 0.79774 0.29987 0.41095 0.0
H821 H 0.80689 0.26818 0.34072 0.0
H822 H 0.72325 0.24075 0.32109 0.0
H823 H 0.70705 0.24015 0.24957 0.0
H824 H 0.70546 0.26405 0.3018 0.0
H825 H 0.71868 0.29167 0.22043 0.0
H826 H 0.7162 0.26732 0.16929 0.0
H827 H 0.74206 0.28285 0.1752 0.0
H828 H 0.80903 0.23754 0.26283 0.0
H829 H 0.80458 0.21011 0.17614 0.0
H830 H 0.73406 0.22763 0.15449 0.0
C831 C 0.74584 0.29275 0.33886 0.0
C832 C 0.76274 0.30205 0.37915 0.0
C833 C 0.78475 0.2931 0.37942 0.0
C834 C 0.79006 0.27508 0.33998 0.0
C835 C 0.7731 0.26619 0.30072 0.0
C836 C 0.75155 0.27491 0.29882 0.0
C837 C 0.73656 0.26189 0.25232 0.0
C838 C 0.71691 0.25099 0.28309 0.0
C839 C 0.72787 0.27691 0.20145 0.0
C840 C 0.7531 0.24453 0.22855 0.0
C841 C 0.77408 0.24746 0.25728 0.0
C842 C 0.79267 0.23485 0.24037 0.0
C843 C 0.79 0.21934 0.19126 0.0
C844 C 0.76889 0.21641 0.16012 0.0
C845 C 0.75012 0.22894 0.17938 0.0
H846 H 0.73976 0.24411 0.88293 0.0
H847 H 0.80349 0.21109 0.84995 0.0
H848 H 0.8107 0.23742 0.77006 0.0
H849 H 0.72553 0.25361 0.72484 0.0
H850 H 0.71277 0.28067 0.73947 0.0
H851 H 0.71265 0.25974 0.7962 0.0
H852 H 0.73194 0.28806 0.87419 0.0
H853 H 0.73228 0.30902 0.81752 0.0
H854 H 0.75813 0.30112 0.8565 0.0
H855 H 0.8117 0.26676 0.69505 0.0
H856 H 0.80497 0.29586 0.62094 0.0
H857 H 0.73996 0.31037 0.69647 0.0
C858 C 0.75521 0.24247 0.85883 0.0
C859 C 0.7711 0.2255 0.87299 0.0
C860 C 0.79104 0.22384 0.84008 0.0
C861 C 0.79537 0.23882 0.7947 0.0
C862 C 0.77955 0.25539 0.78212 0.0
C863 C 0.75975 0.25725 0.81249 0.0
C864 C 0.74531 0.27618 0.78759 0.0
C865 C 0.72273 0.267 0.7604 0.0
C866 C 0.74171 0.29469 0.8369 0.0
C867 C 0.76014 0.28451 0.73847 0.0
C868 C 0.77989 0.27232 0.73695 0.0
C869 C 0.79629 0.27642 0.69565 0.0
C870 C 0.79227 0.29307 0.65367 0.0
C871 C 0.77193 0.30548 0.65263 0.0
C872 C 0.75576 0.30134 0.69638 0.0
H873 H 0.77585 0.731 0.13861 0.0
H874 H 0.70677 0.7095 0.15488 0.0
H875 H 0.7016 0.73914 0.23499 0.0
H876 H 0.78971 0.74956 0.29886 0.0
H877 H 0.80539 0.77295 0.27358 0.0
H878 H 0.80281 0.74768 0.22608 0.0
H879 H 0.78807 0.77408 0.14209 0.0
H880 H 0.78747 0.79836 0.1937 0.0
H881 H 0.76212 0.78904 0.15224 0.0
H882 H 0.7037 0.77097 0.31201 0.0
H883 H 0.71379 0.80179 0.38672 0.0
H884 H 0.78099 0.80418 0.31843 0.0
C885 C 0.75991 0.73217 0.16059 0.0
C886 C 0.74186 0.7176 0.14232 0.0
C887 C 0.72086 0.72026 0.16948 0.0
C888 C 0.71776 0.73709 0.21463 0.0
C889 C 0.73568 0.75151 0.23088 0.0
C890 C 0.75641 0.74924 0.20506 0.0
C891 C 0.77227 0.76806 0.22789 0.0
C892 C 0.79384 0.75893 0.25836 0.0
C893 C 0.77781 0.78331 0.17592 0.0
C894 C 0.75778 0.78021 0.27368 0.0
C895 C 0.73653 0.77071 0.27339 0.0
C896 C 0.72024 0.77861 0.31249 0.0
C897 C 0.72606 0.79616 0.35447 0.0
C898 C 0.74796 0.80555 0.35711 0.0
C899 C 0.76399 0.79753 0.31616 0.0
H900 H 0.54507 0.54274 0.10154 0.0
H901 H 0.53512 0.47707 0.17427 0.0
H902 H 0.50256 0.47026 0.1024 0.0
H903 H 0.48811 0.55622 0.08449 0.0
H904 H 0.48887 0.56998 0.01298 0.0
H905 H 0.51324 0.57039 0.06427 0.0
H906 H 0.53912 0.55142 0.98618 0.0
H907 H 0.51588 0.55437 0.93217 0.0
H908 H 0.52863 0.52729 0.94128 0.0
H909 H 0.47384 0.46921 0.01661 0.0
H910 H 0.44844 0.47513 0.92704 0.0
H911 H 0.47378 0.54312 0.91728 0.0
C912 C 0.53608 0.52688 0.10167 0.0
C913 C 0.54298 0.51 0.14139 0.0
C914 C 0.53051 0.48977 0.14224 0.0
C915 C 0.51193 0.48587 0.10207 0.0
C916 C 0.50582 0.50261 0.06231 0.0
C917 C 0.51747 0.52273 0.06175 0.0
C918 C 0.50706 0.53808 0.01524 0.0
C919 C 0.49877 0.55997 0.04602 0.0
C920 C 0.52369 0.54306 0.96588 0.0
C921 C 0.48773 0.52342 0.98971 0.0
C922 C 0.4876 0.50288 0.01693 0.0
C923 C 0.47327 0.48542 0.99608 0.0
C924 C 0.45893 0.4889 0.94541 0.0
C925 C 0.45852 0.50986 0.91758 0.0
C926 C 0.47299 0.52737 0.94013 0.0
H927 H 0.03247 0.53575 0.41788 0.0
H928 H 0.07684 0.48196 0.47477 0.0
H929 H 0.05363 0.47642 0.563 0.0
H930 H 0.02122 0.55837 0.5709 0.0
H931 H 0.99219 0.56464 0.55176 0.0
H932 H 0.01287 0.56519 0.49437 0.0
H933 H 0.989 0.53664 0.4272 0.0
H934 H 0.96835 0.53584 0.48455 0.0
H935 H 0.98127 0.51014 0.45747 0.0
H936 H 0.02483 0.47509 0.64137 0.0
H937 H 0.99335 0.47938 0.70956 0.0
H938 H 0.96711 0.53449 0.60474 0.0
C939 C 0.03749 0.52303 0.4494 0.0
C940 C 0.0566 0.50932 0.43939 0.0
C941 C 0.0624 0.49271 0.48143 0.0
C942 C 0.04926 0.4894 0.53169 0.0
C943 C 0.03036 0.50287 0.5396 0.0
C944 C 0.02453 0.5195 0.50006 0.0
C945 C 1.00308 0.53133 0.51884 0.0
C946 C 0.00762 0.55637 0.53493 0.0
C947 C 0.98432 0.5283 0.46905 0.0
C948 C 0.99768 0.5186 0.57481 0.0
C949 C 0.01368 0.50224 0.58563 0.0
C950 C 0.01229 0.48794 0.63363 0.0
C951 C 0.99422 0.4905 0.67207 0.0
C952 C 0.97767 0.5073 0.66278 0.0
C953 C 0.97947 0.52152 0.61321 0.0
H954 H 0.04016 0.47815 0.12336 0.0
H955 H 0.03835 0.54675 0.19754 0.0
H956 H 0.00545 0.55463 0.13025 0.0
H957 H 0.02282 0.48859 0.96422 0.0
H958 H 0.00719 0.46285 0.96023 0.0
H959 H 0.03122 0.46594 0.01223 0.0
H960 H 1.00273 0.45395 0.09353 0.0
H961 H 0.97937 0.45484 0.03922 0.0
H962 H 0.97915 0.47189 0.10913 0.0
H963 H 0.97656 0.55668 0.04852 0.0
H964 H 0.9516 0.55247 0.95668 0.0
H965 H 0.96911 0.48191 0.93811 0.0
C966 C 0.03272 0.49476 0.12508 0.0
C967 C 0.04199 0.5121 0.16405 0.0
C968 C 0.03171 0.5335 0.16661 0.0
C969 C 0.01296 0.53807 0.129 0.0
C970 C 1.00446 0.52088 0.08991 0.0
C971 C 0.01392 0.49965 0.08741 0.0
C972 C 1.00123 0.48433 0.041 0.0
C973 C 0.0166 0.47491 0.99169 0.0
C974 C 0.98988 0.46512 0.07265 0.0
C975 C 0.98409 0.50074 0.01542 0.0
C976 C 0.98619 0.52163 0.0451 0.0
C977 C 0.97422 0.54031 0.02586 0.0
C978 C 0.96016 0.5378 0.97376 0.0
C979 C 0.95792 0.51674 0.94214 0.0
C980 C 0.96977 0.49788 0.96354 0.0
H981 H 0.46624 0.4969 0.58287 0.0
H982 H 0.48748 0.55677 0.68948 0.0
H983 H 0.51813 0.56263 0.62013 0.0
H984 H 0.52176 0.4775 0.54964 0.0
H985 H 0.51418 0.46752 0.47327 0.0
H986 H 0.49341 0.46811 0.53048 0.0
H987 H 0.46733 0.4925 0.4631 0.0
H988 H 0.48796 0.49185 0.40553 0.0
H989 H 0.47793 0.51845 0.43567 0.0
H990 H 0.54707 0.56193 0.54 0.0
H991 H 0.57127 0.55508 0.45249 0.0
H992 H 0.53161 0.49573 0.39811 0.0
C993 C 0.47723 0.51132 0.59131 0.0
C994 C 0.47436 0.52636 0.64172 0.0
C995 C 0.48925 0.54497 0.65128 0.0
C996 C 0.50679 0.54846 0.61213 0.0
C997 C 0.50935 0.53323 0.56336 0.0
C998 C 0.49495 0.51507 0.55258 0.0
C999 C 0.50155 0.5012 0.4969 0.0
C1000 C 0.50811 0.47716 0.5136 0.0
C1001 C 0.48256 0.501 0.44737 0.0
C1002 C 0.52185 0.51439 0.4783 0.0
C1003 C 0.52609 0.5328 0.51727 0.0
C1004 C 0.54391 0.54755 0.50912 0.0
C1005 C 0.55761 0.54351 0.45941 0.0
C1006 C 0.55343 0.52487 0.4185 0.0
C1007 C 0.53536 0.5101 0.42862 0.0
H1008 H 0.13611 0.4782 0.08545 0.0
H1009 H 0.13916 0.46016 0.27431 0.0
H1010 H 0.16774 0.43136 0.25085 0.0
H1011 H 0.1417 0.42147 0.02215 0.0
H1012 H 0.15847 0.42995 0.96078 0.0
H1013 H 0.1383 0.44915 0.99269 0.0
H1014 H 0.16985 0.4789 0.0139 0.0
H1015 H 0.19015 0.45973 0.9825 0.0
H1016 H 0.19469 0.47165 0.05846 0.0
H1017 H 0.19704 0.40531 0.20735 0.0
H1018 H 0.22251 0.38195 0.14579 0.0
H1019 H 0.19949 0.4162 0.98467 0.0
C1020 C 0.14273 0.46818 0.12195 0.0
C1021 C 0.13537 0.47155 0.18186 0.0
C1022 C 0.1444 0.4579 0.22805 0.0
C1023 C 0.16074 0.44154 0.21522 0.0
C1024 C 0.16777 0.43885 0.15587 0.0
C1025 C 0.15887 0.45162 0.10985 0.0
C1026 C 0.16898 0.44509 0.04968 0.0
C1027 C 0.15078 0.43586 0.00362 0.0
C1028 C 0.18167 0.46503 0.02469 0.0
C1029 C 0.18507 0.42674 0.06909 0.0
C1030 C 0.18424 0.42351 0.13059 0.0
C1031 C 0.19776 0.40764 0.15909 0.0
C1032 C 0.21227 0.3945 0.12369 0.0
C1033 C 0.21309 0.39716 0.06022 0.0
C1034 C 0.19932 0.41366 0.03296 0.0
H1035 H 0.78363 0.9206 0.42282 0.0
H1036 H 0.82338 0.85976 0.43359 0.0
H1037 H 0.85648 0.88028 0.39873 0.0
H1038 H 0.80632 0.94163 0.29179 0.0
H1039 H 0.80659 0.97073 0.31818 0.0
H1040 H 0.78628 0.95157 0.34582 0.0
H1041 H 0.7999 0.96149 0.45678 0.0
H1042 H 0.81995 0.98103 0.42955 0.0
H1043 H 0.82936 0.959 0.47818 0.0
H1044 H 0.884 0.9068 0.35205 0.0
H1045 H 0.90587 0.93874 0.31571 0.0
H1046 H 0.84912 0.98299 0.34469 0.0
C1047 C 0.79945 0.91174 0.41889 0.0
C1048 C 0.80105 0.88863 0.43108 0.0
C1049 C 0.82193 0.87753 0.42528 0.0
C1050 C 0.84072 0.889 0.40493 0.0
C1051 C 0.83843 0.91167 0.39181 0.0
C1052 C 0.81848 0.92307 0.40019 0.0
C1053 C 0.82055 0.94754 0.38442 0.0
C1054 C 0.80395 0.95319 0.33193 0.0
C1055 C 0.81725 0.96319 0.44058 0.0
C1056 C 0.84466 0.94809 0.36482 0.0
C1057 C 0.85459 0.92715 0.3684 0.0
C1058 C 0.87647 0.92332 0.34986 0.0
C1059 C 0.88868 0.94147 0.3287 0.0
C1060 C 0.87914 0.96324 0.32733 0.0
C1061 C 0.85681 0.9665 0.3454 0.0
H1062 H 0.28805 0.62809 0.69222 0.0
H1063 H 0.31399 0.64494 0.51869 0.0
H1064 H 0.34683 0.62006 0.53826 0.0
H1065 H 0.34113 0.6286 0.77382 0.0
H1066 H 0.33342 0.60595 0.82075 0.0
H1067 H 0.31208 0.62442 0.79107 0.0
H1068 H 0.29027 0.58999 0.74228 0.0
H1069 H 0.31159 0.57142 0.77155 0.0
H1070 H 0.30437 0.57073 0.69136 0.0
H1071 H 0.3766 0.5918 0.57825 0.0
H1072 H 0.40105 0.56588 0.63647 0.0
H1073 H 0.35532 0.57049 0.78467 0.0
C1074 C 0.30053 0.6267 0.65794 0.0
C1075 C 0.29831 0.63849 0.60365 0.0
C1076 C 0.31528 0.63609 0.5606 0.0
C1077 C 0.33395 0.62196 0.57133 0.0
C1078 C 0.33549 0.61062 0.6256 0.0
C1079 C 0.31925 0.61312 0.66829 0.0
C1080 C 0.32479 0.5999 0.72393 0.0
C1081 C 0.32805 0.61566 0.78073 0.0
C1082 C 0.30668 0.58195 0.73276 0.0
C1083 C 0.34673 0.5893 0.70611 0.0
C1084 C 0.35265 0.59543 0.6491 0.0
C1085 C 0.37212 0.58708 0.62304 0.0
C1086 C 0.38586 0.57231 0.65634 0.0
C1087 C 0.38019 0.56627 0.71533 0.0
C1088 C 0.36031 0.57494 0.74004 0.0
H1089 H 0.69686 0.12231 0.01256 0.0
H1090 H 0.73187 0.14709 0.85941 0.0
H1091 H 0.70829 0.12265 0.78986 0.0
H1092 H 0.69082 0.06481 0.95525 0.0
H1093 H 0.66313 0.06131 0.98391 0.0
H1094 H 0.68282 0.08064 0.02237 0.0
H1095 H 0.65382 0.11289 0.01243 0.0
H1096 H 0.63402 0.09366 0.974 0.0
H1097 H 0.64196 0.11908 0.9385 0.0
H1098 H 0.68126 0.09627 0.73711 0.0
H1099 H 0.65196 0.06926 0.70236 0.0
H1100 H 0.63382 0.06086 0.8891 0.0
C1101 C 0.69966 0.12258 0.96442 0.0
C1102 C 0.71632 0.13666 0.94155 0.0
C1103 C 0.71927 0.13652 0.87816 0.0
C1104 C 0.70597 0.12267 0.83824 0.0
C1105 C 0.68978 0.10907 0.86235 0.0
C1106 C 0.68651 0.10887 0.92384 0.0
C1107 C 0.66774 0.09274 0.93755 0.0
C1108 C 0.67667 0.07375 0.97711 0.0
C1109 C 0.64823 0.10535 0.96738 0.0
C1110 C 0.66096 0.08391 0.87396 0.0
C1111 C 0.67397 0.09363 0.83153 0.0
C1112 C 0.67096 0.08852 0.76982 0.0
C1113 C 0.65415 0.07311 0.75064 0.0
C1114 C 0.64042 0.06284 0.79295 0.0
C1115 C 0.64401 0.06831 0.85561 0.0
H1116 H 0.12981 0.56072 0.40314 0.0
H1117 H 0.15818 0.56065 0.22475 0.0
H1118 H 0.1869 0.58793 0.26285 0.0
H1119 H 0.13679 0.61897 0.43734 0.0
H1120 H 0.14452 0.61628 0.51654 0.0
H1121 H 0.12683 0.59531 0.4773 0.0
H1122 H 0.15486 0.56406 0.50813 0.0
H1123 H 0.17252 0.58492 0.54809 0.0
H1124 H 0.18405 0.56655 0.49027 0.0
H1125 H 0.21069 0.6172 0.31638 0.0
H1126 H 0.2303 0.64495 0.38604 0.0
H1127 H 0.18752 0.6261 0.53082 0.0
C1128 C 0.14234 0.56613 0.37255 0.0
C1129 C 0.14164 0.55859 0.31091 0.0
C1130 C 0.15819 0.5663 0.27206 0.0
C1131 C 0.17466 0.5818 0.29321 0.0
C1132 C 0.17452 0.58942 0.3535 0.0
C1133 C 0.15902 0.58173 0.39297 0.0
C1134 C 0.16241 0.5933 0.45522 0.0
C1135 C 0.14139 0.60676 0.47259 0.0
C1136 C 0.16885 0.57618 0.50326 0.0
C1137 C 0.18198 0.60878 0.44399 0.0
C1138 C 0.18863 0.60627 0.38495 0.0
C1139 C 0.20582 0.61922 0.36301 0.0
C1140 C 0.21677 0.63503 0.40281 0.0
C1141 C 0.21055 0.63766 0.46394 0.0
C1142 C 0.19284 0.62436 0.48451 0.0
H1143 H 0.63888 0.9762 0.58889 0.0
H1144 H 0.64126 0.95924 0.77852 0.0
H1145 H 0.66891 0.92918 0.7556 0.0
H1146 H 0.64194 0.9198 0.52702 0.0
H1147 H 0.65884 0.92756 0.46516 0.0
H1148 H 0.63957 0.94757 0.49759 0.0
H1149 H 0.67233 0.97607 0.51804 0.0
H1150 H 0.69173 0.9561 0.48601 0.0
H1151 H 0.697 0.96785 0.56189 0.0
H1152 H 0.69722 0.90105 0.71005 0.0
H1153 H 0.72142 0.87674 0.64637 0.0
H1154 H 0.69909 0.91278 0.48776 0.0
C1155 C 0.64515 0.96626 0.62595 0.0
C1156 C 0.63791 0.97022 0.6857 0.0
C1157 C 0.64651 0.95656 0.73238 0.0
C1158 C 0.66228 0.93949 0.71979 0.0
C1159 C 0.66914 0.93623 0.66027 0.0
C1160 C 0.66066 0.94921 0.61419 0.0
C1161 C 0.67024 0.94231 0.55382 0.0
C1162 C 0.65153 0.9338 0.50823 0.0
C1163 C 0.68362 0.96174 0.52848 0.0
C1164 C 0.68557 0.92341 0.57284 0.0
C1165 C 0.68488 0.92012 0.63437 0.0
C1166 C 0.69782 0.90351 0.66182 0.0
C1167 C 0.71159 0.88982 0.62529 0.0
C1168 C 0.71222 0.89276 0.5619 0.0
C1169 C 0.69906 0.90994 0.53592 0.0
H1170 H 0.35555 0.49022 0.89429 0.0
H1171 H 0.39096 0.45291 0.75437 0.0
H1172 H 0.36714 0.41957 0.77016 0.0
H1173 H 0.35043 0.44518 0.99419 0.0
H1174 H 0.32284 0.45339 0.01769 0.0
H1175 H 0.34219 0.47433 0.99406 0.0
H1176 H 0.31269 0.48727 0.91314 0.0
H1177 H 0.29316 0.46655 0.93694 0.0
H1178 H 0.3005 0.46689 0.85853 0.0
H1179 H 0.33965 0.38998 0.80364 0.0
H1180 H 0.30956 0.36755 0.84711 0.0
H1181 H 0.29251 0.42449 0.96491 0.0
C1182 C 0.35832 0.47515 0.86638 0.0
C1183 C 0.37524 0.47432 0.82282 0.0
C1184 C 0.3781 0.45411 0.78772 0.0
C1185 C 0.36471 0.43504 0.79665 0.0
C1186 C 0.34853 0.43644 0.84083 0.0
C1187 C 0.34521 0.45607 0.87474 0.0
C1188 C 0.32678 0.45337 0.91944 0.0
C1189 C 0.33613 0.45677 0.98523 0.0
C1190 C 0.30712 0.46947 0.90619 0.0
C1191 C 0.32004 0.4291 0.90537 0.0
C1192 C 0.33287 0.41956 0.8601 0.0
C1193 C 0.32958 0.39732 0.83906 0.0
C1194 C 0.31252 0.3847 0.86406 0.0
C1195 C 0.29899 0.3943 0.90956 0.0
C1196 C 0.30291 0.41671 0.9308 0.0
H1197 H 0.79413 0.1243 0.18124 0.0
H1198 H 0.81532 0.13118 0.99701 0.0
H1199 H 0.84526 0.103 0.01473 0.0
H1200 H 0.84969 0.11988 0.24903 0.0
H1201 H 0.84141 0.10006 0.30366 0.0
H1202 H 0.82135 0.1201 0.27521 0.0
H1203 H 0.7941 0.0875 0.24106 0.0
H1204 H 0.81413 0.06734 0.26913 0.0
H1205 H 0.80375 0.06508 0.1912 0.0
H1206 H 0.87253 0.07314 0.05301 0.0
H1207 H 0.89651 0.04679 0.1106 0.0
H1208 H 0.85813 0.06134 0.27064 0.0
C1209 C 0.80498 0.11988 0.1444 0.0
C1210 C 0.80227 0.12989 0.08754 0.0
C1211 C 0.81707 0.12376 0.04095 0.0
C1212 C 0.83406 0.10771 0.05054 0.0
C1213 C 0.83619 0.09814 0.10717 0.0
C1214 C 0.82217 0.10421 0.15345 0.0
C1215 C 0.8284 0.09217 0.21085 0.0
C1216 C 0.83565 0.10906 0.26274 0.0
C1217 C 0.80894 0.07713 0.22911 0.0
C1218 C 0.84809 0.07826 0.18971 0.0
C1219 C 0.85223 0.08172 0.12963 0.0
C1220 C 0.86946 0.0704 0.10014 0.0
C1221 C 0.88294 0.05538 0.13316 0.0
C1222 C 0.87928 0.05202 0.19522 0.0
C1223 C 0.8615 0.0636 0.22342 0.0
H1224 H 0.80568 0.6113 0.02913 0.0
H1225 H 0.79861 0.65446 0.87577 0.0
H1226 H 0.82606 0.63097 0.82056 0.0
H1227 H 0.86461 0.60053 0.02015 0.0
H1228 H 0.8623 0.57157 0.0403 0.0
H1229 H 0.84238 0.59201 0.06752 0.0
H1230 H 0.80941 0.56765 0.02024 0.0
H1231 H 0.82923 0.54708 0.99325 0.0
H1232 H 0.80923 0.55935 0.94071 0.0
H1233 H 0.85604 0.60282 0.78377 0.0
H1234 H 0.88271 0.57127 0.76669 0.0
H1235 H 0.86751 0.54628 0.94253 0.0
C1236 C 0.80988 0.61586 0.98394 0.0
C1237 C 0.80003 0.63479 0.95695 0.0
C1238 C 0.80586 0.63999 0.89739 0.0
C1239 C 0.82153 0.6268 0.86575 0.0
C1240 C 0.83104 0.60831 0.89395 0.0
C1241 C 0.82518 0.60274 0.9515 0.0
C1242 C 0.83717 0.58174 0.97138 0.0
C1243 C 0.85253 0.58678 0.02819 0.0
C1244 C 0.82025 0.56284 0.98199 0.0
C1245 C 0.85079 0.57636 0.91627 0.0
C1246 C 0.84732 0.59191 0.87215 0.0
C1247 C 0.85873 0.59046 0.81796 0.0
C1248 C 0.87389 0.57254 0.80866 0.0
C1249 C 0.87723 0.55618 0.85301 0.0
C1250 C 0.86542 0.55833 0.90734 0.0
H1251 H 0.23029 0.10785 0.58717 0.0
H1252 H 0.18758 0.16627 0.56725 0.0
H1253 H 0.1551 0.14443 0.60099 0.0
H1254 H 0.18757 0.06655 0.53146 0.0
H1255 H 0.1976 0.0457 0.58296 0.0
H1256 H 0.21687 0.06605 0.55593 0.0
H1257 H 0.22842 0.07791 0.66724 0.0
H1258 H 0.20882 0.05797 0.69461 0.0
H1259 H 0.20711 0.08727 0.71827 0.0
H1260 H 0.12811 0.11658 0.64643 0.0
H1261 H 0.10742 0.08352 0.68105 0.0
H1262 H 0.16744 0.04291 0.66344 0.0
C1263 C 0.21398 0.1159 0.58886 0.0
C1264 C 0.21135 0.13869 0.57436 0.0
C1265 C 0.18983 0.14872 0.57731 0.0
C1266 C 0.17138 0.13651 0.59706 0.0
C1267 C 0.17469 0.11419 0.61263 0.0
C1268 C 0.19536 0.10384 0.60711 0.0
C1269 C 0.19447 0.07954 0.62491 0.0
C1270 C 0.19941 0.06352 0.57058 0.0
C1271 C 0.21067 0.07545 0.6795 0.0
C1272 C 0.17016 0.07783 0.64212 0.0
C1273 C 0.15907 0.09806 0.63576 0.0
C1274 C 0.13661 0.10063 0.65095 0.0
C1275 C 0.12505 0.08185 0.67121 0.0
C1276 C 0.13587 0.06074 0.6751 0.0
C1277 C 0.15877 0.05888 0.66095 0.0
H1278 H 0.71969 0.39329 0.33081 0.0
H1279 H 0.70509 0.39288 0.52183 0.0
H1280 H 0.67438 0.42037 0.5043 0.0
H1281 H 0.71038 0.45113 0.30944 0.0
H1282 H 0.69752 0.44684 0.23444 0.0
H1283 H 0.71792 0.42703 0.26235 0.0
H1284 H 0.68922 0.39444 0.24221 0.0
H1285 H 0.6688 0.4141 0.21355 0.0
H1286 H 0.66191 0.39644 0.27463 0.0
H1287 H 0.6463 0.44982 0.46489 0.0
H1288 H 0.62136 0.47512 0.40637 0.0
H1289 H 0.6542 0.45419 0.24141 0.0
C1290 C 0.71 0.39878 0.36913 0.0
C1291 C 0.71488 0.39092 0.42782 0.0
C1292 C 0.70162 0.39857 0.47642 0.0
C1293 C 0.68423 0.41427 0.46691 0.0
C1294 C 0.68016 0.4219 0.40844 0.0
C1295 C 0.69253 0.4141 0.36032 0.0
C1296 C 0.68478 0.42443 0.3016 0.0
C1297 C 0.70378 0.43818 0.27545 0.0
C1298 C 0.67563 0.40627 0.25528 0.0
C1299 C 0.66618 0.43952 0.32401 0.0
C1300 C 0.66382 0.43805 0.38579 0.0
C1301 C 0.64795 0.45094 0.41645 0.0
C1302 C 0.63394 0.46537 0.3829 0.0
C1303 C 0.63576 0.46661 0.31924 0.0
C1304 C 0.65224 0.45356 0.28989 0.0
H1305 H 0.36838 0.94831 0.27286 0.0
H1306 H 0.38482 0.99219 0.12825 0.0
H1307 H 0.35697 0.97202 0.05965 0.0
H1308 H 0.36189 0.89796 0.17947 0.0
H1309 H 0.33901 0.88728 0.22115 0.0
H1310 H 0.3598 0.90555 0.25899 0.0
H1311 H 0.32821 0.93264 0.29314 0.0
H1312 H 0.30731 0.91455 0.25489 0.0
H1313 H 0.30889 0.9438 0.23696 0.0
H1314 H 0.32773 0.94732 0.00741 0.0
H1315 H 0.30076 0.91795 0.97127 0.0
H1316 H 0.30333 0.88963 0.14975 0.0
C1317 C 0.36612 0.9538 0.22683 0.0
C1318 C 0.37873 0.97196 0.20598 0.0
C1319 C 0.37541 0.97834 0.14519 0.0
C1320 C 0.35954 0.96707 0.10605 0.0
C1321 C 0.34726 0.94944 0.12843 0.0
C1322 C 0.35048 0.94271 0.18719 0.0
C1323 C 0.33563 0.92276 0.19933 0.0
C1324 C 0.34994 0.90217 0.21568 0.0
C1325 C 0.31903 0.92881 0.24903 0.0
C1326 C 0.32356 0.91924 0.13794 0.0
C1327 C 0.33046 0.93495 0.09799 0.0
C1328 C 0.32221 0.93494 0.03822 0.0
C1329 C 0.3069 0.91812 0.01819 0.0
C1330 C 0.29997 0.90141 0.05769 0.0
C1331 C 0.30812 0.90228 0.11874 0.0
H1332 H 0.80631 0.38663 0.63503 0.0
H1333 H 0.80855 0.41686 0.45929 0.0
H1334 H 0.8345 0.44582 0.50259 0.0
H1335 H 0.80906 0.44002 0.72571 0.0
H1336 H 0.82678 0.42865 0.78513 0.0
H1337 H 0.80725 0.41058 0.7415 0.0
H1338 H 0.84001 0.38397 0.71333 0.0
H1339 H 0.85966 0.40204 0.75643 0.0
H1340 H 0.86409 0.39516 0.67751 0.0
H1341 H 0.86187 0.47003 0.56099 0.0
H1342 H 0.88776 0.48998 0.63484 0.0
H1343 H 0.86794 0.44535 0.77449 0.0
C1344 C 0.81201 0.39954 0.606 0.0
C1345 C 0.80541 0.39931 0.54364 0.0
C1346 C 0.81344 0.41644 0.50706 0.0
C1347 C 0.82819 0.43308 0.53118 0.0
C1348 C 0.83478 0.43255 0.59217 0.0
C1349 C 0.82687 0.41643 0.62944 0.0
C1350 C 0.8372 0.41967 0.69325 0.0
C1351 C 0.81898 0.42506 0.7391 0.0
C1352 C 0.85106 0.39898 0.71116 0.0
C1353 C 0.85224 0.43991 0.6854 0.0
C1354 C 0.85055 0.44697 0.62662 0.0
C1355 C 0.86325 0.46483 0.60741 0.0
C1356 C 0.878 0.47598 0.64965 0.0
C1357 C 0.87985 0.46932 0.71053 0.0
C1358 C 0.86677 0.45099 0.72843 0.0
H1359 H 0.30656 0.11257 0.52392 0.0
H1360 H 0.30081 0.15685 0.37275 0.0
H1361 H 0.32763 0.13278 0.31648 0.0
H1362 H 0.36467 0.10133 0.51667 0.0
H1363 H 0.3622 0.07229 0.53582 0.0
H1364 H 0.34211 0.09261 0.56263 0.0
H1365 H 0.30936 0.06854 0.51301 0.0
H1366 H 0.32933 0.04801 0.48659 0.0
H1367 H 0.30973 0.06049 0.43338 0.0
H1368 H 0.35762 0.10448 0.28016 0.0
H1369 H 0.38459 0.07319 0.26402 0.0
H1370 H 0.36844 0.04756 0.43841 0.0
C1371 C 0.31079 0.11718 0.47879 0.0
C1372 C 0.30165 0.13664 0.45281 0.0
C1373 C 0.30752 0.14194 0.39343 0.0
C1374 C 0.32283 0.12843 0.3613 0.0
C1375 C 0.33185 0.10956 0.38892 0.0
C1376 C 0.32573 0.10382 0.44605 0.0
C1377 C 0.33753 0.08274 0.46604 0.0
C1378 C 0.35252 0.08754 0.52369 0.0
C1379 C 0.32047 0.06383 0.47527 0.0
C1380 C 0.3515 0.07753 0.41159 0.0
C1381 C 0.34823 0.09319 0.36758 0.0
C1382 C 0.3601 0.09202 0.31418 0.0
C1383 C 0.37546 0.07426 0.3055 0.0
C1384 C 0.37862 0.05781 0.34974 0.0
C1385 C 0.36641 0.05968 0.40333 0.0
H1386 H 0.64527 0.56329 0.23712 0.0
H1387 H 0.62964 0.53215 0.0588 0.0
H1388 H 0.65377 0.55944 0.01262 0.0
H1389 H 0.65042 0.62124 0.19138 0.0
H1390 H 0.67458 0.6276 0.24122 0.0
H1391 H 0.65438 0.60683 0.2613 0.0
H1392 H 0.68621 0.57738 0.27153 0.0
H1393 H 0.70648 0.59808 0.25163 0.0
H1394 H 0.70406 0.57169 0.20864 0.0
H1395 H 0.67874 0.59046 0.9838 0.0
H1396 H 0.70713 0.62048 0.97619 0.0
H1397 H 0.71088 0.62936 0.17257 0.0
C1398 C 0.64676 0.56241 0.18834 0.0
C1399 C 0.63491 0.5458 0.15168 0.0
C1400 C 0.63794 0.54488 0.08812 0.0
C1401 C 0.65173 0.56035 0.06117 0.0
C1402 C 0.66304 0.57648 0.09823 0.0
C1403 C 0.66115 0.57742 0.16054 0.0
C1404 C 0.67672 0.59544 0.18983 0.0
C1405 C 0.66321 0.61387 0.22289 0.0
C1406 C 0.69442 0.58502 0.23295 0.0
C1407 C 0.68747 0.60438 0.13418 0.0
C1408 C 0.67896 0.59344 0.0818 0.0
C1409 C 0.68569 0.59907 0.02452 0.0
C1410 C 0.70176 0.61619 0.0206 0.0
C1411 C 0.71133 0.6272 0.07364 0.0
C1412 C 0.70402 0.62115 0.13117 0.0
H1413 H 0.22082 0.89525 0.83447 0.0
H1414 H 0.20057 0.89704 0.02145 0.0
H1415 H 0.17155 0.92528 0.99652 0.0
H1416 H 0.21399 0.95382 0.80954 0.0
H1417 H 0.20315 0.94951 0.73244 0.0
H1418 H 0.22218 0.92933 0.76494 0.0
H1419 H 0.19309 0.89744 0.73965 0.0
H1420 H 0.17404 0.91749 0.70664 0.0
H1421 H 0.16494 0.90026 0.76637 0.0
H1422 H 0.14526 0.95438 0.95109 0.0
H1423 H 0.12234 0.97972 0.88759 0.0
H1424 H 0.15965 0.95802 0.73056 0.0
C1425 C 0.21029 0.9015 0.8703 0.0
C1426 C 0.21308 0.8939 0.93004 0.0
C1427 C 0.19876 0.9025 0.9753 0.0
C1428 C 0.18227 0.91863 0.96164 0.0
C1429 C 0.18018 0.92592 0.90244 0.0
C1430 C 0.19368 0.91745 0.85741 0.0
C1431 C 0.18785 0.92776 0.79718 0.0
C1432 C 0.20799 0.94088 0.77473 0.0
C1433 C 0.17948 0.90966 0.74967 0.0
C1434 C 0.16903 0.94344 0.81533 0.0
C1435 C 0.1649 0.94227 0.87626 0.0
C1436 C 0.14832 0.95537 0.90328 0.0
C1437 C 0.13544 0.96981 0.86685 0.0
C1438 C 0.13911 0.97093 0.80395 0.0
C1439 C 0.1563 0.95761 0.77837 0.0
loop_
_geom_bond_atom_site_label_1
_geom_bond_atom_site_label_2
_geom_bond_distance
_geom_bond_site_symmetry_2
_ccdc_geom_bond_type
Mn0 O5 2.095 . S
Mn0 O15 2.162 . S
Mn0 O16 2.297 . S
Mn0 O24 2.385 1_554 S
Mn0 O25 2.209 1_554 S
Mn0 O26 2.094 . S
Mn1 O6 2.121 . S
Mn1 N8 2.257 . S
Mn1 N17 2.282 . S
Mn1 O25 2.215 . S
Mn1 O27 2.117 . S
C2 O24 1.234 . S
C2 O25 1.283 . S
C3 O15 1.281 . S
C3 O16 1.236 . S
C4 O26 1.240 1_556 S
C4 O27 1.264 . S
O5 Mn0 2.095 . S
O5 C14 1.250 . S
O6 Mn1 2.121 . S
O6 C14 1.258 1_556 S
C7 N8 1.326 . S
C7 C11 1.460 . S
C7 H13 0.929 . S
N8 Mn1 2.257 . S
N8 C7 1.326 . S
N8 C12 1.362 . S
C9 C10 1.258 . S
C9 C12 1.431 . S
C9 C29 1.449 . S
C10 C9 1.258 . S
C10 C11 1.477 . S
C10 H30 0.931 . S
C11 C7 1.460 . S
C11 C10 1.477 . S
C11 H31 0.930 . S
C12 N8 1.362 . S
C12 C9 1.431 . S
C12 C22 1.476 . S
H13 C7 0.929 . S
C14 O5 1.250 . S
C14 O6 1.258 1_554 S
O15 Mn0 2.162 . S
O15 C3 1.281 . S
O16 Mn0 2.297 . S
O16 C3 1.236 . S
N17 Mn1 2.282 . S
N17 C18 1.328 . S
N17 C22 1.318 . S
C18 N17 1.328 . S
C18 C19 1.457 . S
C18 H23 0.929 . S
C19 C18 1.457 . S
C19 C20 1.291 . S
C19 H32 0.931 . S
C20 C19 1.291 . S
C20 C21 1.373 . S
C20 H33 0.929 . S
C21 C20 1.373 . S
C21 C22 1.396 . S
C21 C28 1.403 . S
C22 C12 1.476 . S
C22 N17 1.318 . S
C22 C21 1.396 . S
H23 C18 0.929 . S
O24 Mn0 2.385 1_556 S
O24 C2 1.234 . S
O25 Mn0 2.209 1_556 S
O25 Mn1 2.215 . S
O25 C2 1.283 . S
O26 Mn0 2.094 . S
O26 C4 1.240 1_554 S
O27 Mn1 2.117 . S
O27 C4 1.264 . S
C28 C21 1.403 . S
C28 C29 1.399 . S
C28 H34 0.929 . S
C29 C9 1.449 . S
C29 C28 1.399 . S
C29 H35 0.930 . S
H30 C10 0.931 . S
H31 C11 0.930 . S
H32 C19 0.931 . S
H33 C20 0.929 . S
H34 C28 0.929 . S
H35 C29 0.930 . S
Mn36 O41 2.123 . S
Mn36 O51 2.146 1_545 S
Mn36 O52 2.322 . S
Mn36 O60 2.373 1_545 S
Mn36 O61 2.232 . S
Mn36 O62 2.058 1_545 S
Mn37 O42 2.121 . S
Mn37 N44 2.257 . S
Mn37 N53 2.282 . S
Mn37 O61 2.215 . S
Mn37 O63 2.117 1_545 S
C38 O60 1.234 1_545 S
C38 O61 1.283 . S
C39 O51 1.281 1_545 S
C39 O52 1.236 . S
C40 O62 1.240 . S
C40 O63 1.264 . S
O41 Mn36 2.123 . S
O41 C50 1.250 . S
O42 Mn37 2.121 . S
O42 C50 1.258 . S
C43 N44 1.326 . S
C43 C47 1.460 . S
C43 H49 0.929 . S
N44 Mn37 2.257 . S
N44 C43 1.326 . S
N44 C48 1.362 . S
C45 C46 1.258 . S
C45 C48 1.431 . S
C45 C65 1.449 . S
C46 C45 1.258 . S
C46 C47 1.477 . S
C46 H66 0.931 . S
C47 C43 1.460 . S
C47 C46 1.477 . S
C47 H67 0.930 . S
C48 N44 1.362 . S
C48 C45 1.431 . S
C48 C58 1.476 . S
H49 C43 0.929 . S
C50 O41 1.250 . S
C50 O42 1.258 . S
O51 Mn36 2.146 1_565 S
O51 C39 1.281 1_565 S
O52 Mn36 2.322 . S
O52 C39 1.236 . S
N53 Mn37 2.282 . S
N53 C54 1.328 1_545 S
N53 C58 1.318 . S
C54 N53 1.328 1_565 S
C54 C55 1.457 . S
C54 H59 0.929 . S
C55 C54 1.457 . S
C55 C56 1.307 . S
C55 H68 0.931 . S
C56 C55 1.307 . S
C56 C57 1.350 1_565 S
C56 H69 0.937 . S
C57 C56 1.350 1_545 S
C57 C58 1.396 . S
C57 C64 1.403 . S
C58 C48 1.476 . S
C58 N53 1.318 . S
C58 C57 1.396 . S
H59 C54 0.929 . S
O60 Mn36 2.373 1_565 S
O60 C38 1.234 1_565 S
O61 Mn36 2.232 . S
O61 Mn37 2.215 . S
O61 C38 1.283 . S
O62 Mn36 2.058 1_565 S
O62 C40 1.240 . S
O63 Mn37 2.117 1_565 S
O63 C40 1.264 . S
C64 C57 1.403 . S
C64 C65 1.399 . S
C64 H70 0.929 . S
C65 C45 1.449 . S
C65 C64 1.399 . S
C65 H71 0.930 . S
H66 C46 0.931 . S
H67 C47 0.930 . S
H68 C55 0.931 . S
H69 C56 0.937 . S
H70 C64 0.929 . S
H71 C65 0.930 . S
Mn72 O77 2.095 . S
Mn72 O87 2.162 . S
Mn72 O88 2.297 . S
Mn72 O96 2.385 . S
Mn72 O97 2.209 . S
Mn72 O98 2.094 . S
Mn73 O78 2.121 . S
Mn73 N80 2.257 . S
Mn73 N89 2.282 . S
Mn73 O97 2.215 . S
Mn73 O99 2.117 . S
C74 O96 1.234 . S
C74 O97 1.283 . S
C75 O87 1.281 . S
C75 O88 1.236 . S
C76 O98 1.240 . S
C76 O99 1.264 . S
O77 Mn72 2.095 . S
O77 C86 1.250 . S
O78 Mn73 2.121 . S
O78 C86 1.258 . S
C79 N80 1.326 . S
C79 C83 1.460 . S
C79 H85 0.929 . S
N80 Mn73 2.257 . S
N80 C79 1.326 . S
N80 C84 1.362 . S
C81 C82 1.258 . S
C81 C84 1.431 . S
C81 C101 1.449 . S
C82 C81 1.258 . S
C82 C83 1.477 . S
C82 H102 0.931 . S
C83 C79 1.460 . S
C83 C82 1.477 . S
C83 H103 0.930 . S
C84 N80 1.362 . S
C84 C81 1.431 . S
C84 C94 1.476 . S
H85 C79 0.929 . S
C86 O77 1.250 . S
C86 O78 1.258 . S
O87 Mn72 2.162 . S
O87 C75 1.281 . S
O88 Mn72 2.297 . S
O88 C75 1.236 . S
N89 Mn73 2.282 . S
N89 C90 1.328 . S
N89 C94 1.318 . S
C90 N89 1.328 . S
C90 C91 1.457 . S
C90 H95 0.929 . S
C91 C90 1.457 . S
C91 C92 1.291 . S
C91 H104 0.931 . S
C92 C91 1.291 . S
C92 C93 1.373 . S
C92 H105 0.929 . S
C93 C92 1.373 . S
C93 C94 1.396 . S
C93 C100 1.403 . S
C94 C84 1.476 . S
C94 N89 1.318 . S
C94 C93 1.396 . S
H95 C90 0.929 . S
O96 Mn72 2.385 . S
O96 C74 1.234 . S
O97 Mn72 2.209 . S
O97 Mn73 2.215 . S
O97 C74 1.283 . S
O98 Mn72 2.094 . S
O98 C76 1.240 . S
O99 Mn73 2.117 . S
O99 C76 1.264 . S
C100 C93 1.403 . S
C100 C101 1.399 . S
C100 H106 0.929 . S
C101 C81 1.449 . S
C101 C100 1.399 . S
C101 H107 0.930 . S
H102 C82 0.931 . S
H103 C83 0.930 . S
H104 C91 0.931 . S
H105 C92 0.929 . S
H106 C100 0.929 . S
H107 C101 0.930 . S
Mn108 O113 2.095 . S
Mn108 O123 2.162 1_545 S
Mn108 O124 2.297 . S
Mn108 O132 2.385 1_545 S
Mn108 O133 2.209 . S
Mn108 O134 2.094 1_545 S
Mn109 O114 2.121 . S
Mn109 N116 2.257 . S
Mn109 N125 2.282 . S
Mn109 O133 2.215 . S
Mn109 O135 2.117 1_545 S
C110 O132 1.234 1_545 S
C110 O133 1.283 . S
C111 O123 1.281 1_545 S
C111 O124 1.236 . S
C112 O134 1.240 . S
C112 O135 1.264 . S
O113 Mn108 2.095 . S
O113 C122 1.250 . S
O114 Mn109 2.121 . S
O114 C122 1.258 . S
C115 N116 1.326 . S
C115 C119 1.460 . S
C115 H121 0.929 . S
N116 Mn109 2.257 . S
N116 C115 1.326 . S
N116 C120 1.362 . S
C117 C118 1.258 . S
C117 C120 1.431 . S
C117 C137 1.449 . S
C118 C117 1.258 . S
C118 C119 1.477 . S
C118 H138 0.931 . S
C119 C115 1.460 . S
C119 C118 1.477 . S
C119 H139 0.930 . S
C120 N116 1.362 . S
C120 C117 1.431 . S
C120 C130 1.476 . S
H121 C115 0.929 . S
C122 O113 1.250 . S
C122 O114 1.258 . S
O123 Mn108 2.162 1_565 S
O123 C111 1.281 1_565 S
O124 Mn108 2.297 . S
O124 C111 1.236 . S
N125 Mn109 2.282 . S
N125 C126 1.328 1_545 S
N125 C130 1.318 . S
C126 N125 1.328 1_565 S
C126 C127 1.457 . S
C126 H131 0.929 . S
C127 C126 1.457 . S
C127 C128 1.291 . S
C127 H140 0.931 . S
C128 C127 1.291 . S
C128 C129 1.373 1_565 S
C128 H141 0.929 . S
C129 C128 1.373 1_545 S
C129 C130 1.396 . S
C129 C136 1.403 . S
C130 C120 1.476 . S
C130 N125 1.318 . S
C130 C129 1.396 . S
H131 C126 0.929 . S
O132 Mn108 2.385 1_565 S
O132 C110 1.234 1_565 S
O133 Mn108 2.209 . S
O133 Mn109 2.215 . S
O133 C110 1.283 . S
O134 Mn108 2.094 1_565 S
O134 C112 1.240 . S
O135 Mn109 2.117 1_565 S
O135 C112 1.264 . S
C136 C129 1.403 . S
C136 C137 1.399 . S
C136 H142 0.929 . S
C137 C117 1.449 . S
C137 C136 1.399 . S
C137 H143 0.930 . S
H138 C118 0.931 . S
H139 C119 0.930 . S
H140 C127 0.931 . S
H141 C128 0.929 . S
H142 C136 0.929 . S
H143 C137 0.930 . S
Mn144 O149 2.095 1_554 S
Mn144 O159 2.162 1_554 S
Mn144 O160 2.297 1_554 S
Mn144 O168 2.385 . S
Mn144 O169 2.209 . S
Mn144 O170 2.094 . S
Mn145 O150 2.121 . S
Mn145 N152 2.257 . S
Mn145 N161 2.282 . S
Mn145 O169 2.215 . S
Mn145 O171 2.117 . S
C146 O168 1.234 . S
C146 O169 1.283 . S
C147 O159 1.281 . S
C147 O160 1.236 . S
C148 O170 1.240 . S
C148 O171 1.264 . S
O149 Mn144 2.095 1_556 S
O149 C158 1.250 . S
O150 Mn145 2.121 . S
O150 C158 1.258 1_554 S
C151 N152 1.326 . S
C151 C155 1.460 . S
C151 H157 0.929 . S
N152 Mn145 2.257 . S
N152 C151 1.326 . S
N152 C156 1.362 . S
C153 C154 1.258 . S
C153 C156 1.431 . S
C153 C173 1.449 . S
C154 C153 1.258 . S
C154 C155 1.477 . S
C154 H174 0.931 . S
C155 C151 1.460 . S
C155 C154 1.477 . S
C155 H175 0.930 . S
C156 N152 1.362 . S
C156 C153 1.431 . S
C156 C166 1.476 . S
H157 C151 0.929 . S
C158 O149 1.250 . S
C158 O150 1.258 1_556 S
O159 Mn144 2.162 1_556 S
O159 C147 1.281 . S
O160 Mn144 2.297 1_556 S
O160 C147 1.236 . S
N161 Mn145 2.282 . S
N161 C162 1.328 . S
N161 C166 1.318 . S
C162 N161 1.328 . S
C162 C163 1.457 . S
C162 H167 0.929 . S
C163 C162 1.457 . S
C163 C164 1.291 . S
C163 H176 0.931 . S
C164 C163 1.291 . S
C164 C165 1.373 . S
C164 H177 0.929 . S
C165 C164 1.373 . S
C165 C166 1.396 . S
C165 C172 1.403 . S
C166 C156 1.476 . S
C166 N161 1.318 . S
C166 C165 1.396 . S
H167 C162 0.929 . S
O168 Mn144 2.385 . S
O168 C146 1.234 . S
O169 Mn144 2.209 . S
O169 Mn145 2.215 . S
O169 C146 1.283 . S
O170 Mn144 2.094 . S
O170 C148 1.240 . S
O171 Mn145 2.117 . S
O171 C148 1.264 . S
C172 C165 1.403 . S
C172 C173 1.399 . S
C172 H178 0.929 . S
C173 C153 1.449 . S
C173 C172 1.399 . S
C173 H179 0.930 . S
H174 C154 0.931 . S
H175 C155 0.930 . S
H176 C163 0.931 . S
H177 C164 0.929 . S
H178 C172 0.929 . S
H179 C173 0.930 . S
Mn180 O185 2.095 1_545 S
Mn180 O195 2.162 . S
Mn180 O196 2.297 1_545 S
Mn180 O204 2.385 . S
Mn180 O205 2.209 1_545 S
Mn180 O206 2.094 . S
Mn181 O186 2.121 . S
Mn181 N188 2.257 . S
Mn181 N197 2.282 1_565 S
Mn181 O205 2.215 . S
Mn181 O207 2.117 1_565 S
C182 O204 1.234 . S
C182 O205 1.283 1_545 S
C183 O195 1.281 . S
C183 O196 1.236 1_545 S
C184 O206 1.240 . S
C184 O207 1.264 . S
O185 Mn180 2.095 1_565 S
O185 C194 1.250 . S
O186 Mn181 2.121 . S
O186 C194 1.258 . S
C187 N188 1.326 . S
C187 C191 1.460 . S
C187 H193 0.929 . S
N188 Mn181 2.257 . S
N188 C187 1.326 . S
N188 C192 1.362 . S
C189 C190 1.258 . S
C189 C192 1.431 . S
C189 C209 1.449 . S
C190 C189 1.258 . S
C190 C191 1.477 . S
C190 H210 0.931 . S
C191 C187 1.460 . S
C191 C190 1.477 . S
C191 H211 0.930 . S
C192 N188 1.362 . S
C192 C189 1.431 . S
C192 C202 1.476 . S
H193 C187 0.929 . S
C194 O185 1.250 . S
C194 O186 1.258 . S
O195 Mn180 2.162 . S
O195 C183 1.281 . S
O196 Mn180 2.297 1_565 S
O196 C183 1.236 1_565 S
N197 Mn181 2.282 1_545 S
N197 C198 1.328 . S
N197 C202 1.318 1_545 S
C198 N197 1.328 . S
C198 C199 1.457 . S
C198 H203 0.929 . S
C199 C198 1.457 . S
C199 C200 1.291 . S
C199 H212 0.931 . S
C200 C199 1.291 . S
C200 C201 1.373 1_545 S
C200 H213 0.929 . S
C201 C200 1.373 1_565 S
C201 C202 1.396 . S
C201 C208 1.403 . S
C202 C192 1.476 . S
C202 N197 1.318 1_565 S
C202 C201 1.396 . S
H203 C198 0.929 . S
O204 Mn180 2.385 . S
O204 C182 1.234 . S
O205 Mn180 2.209 1_565 S
O205 Mn181 2.215 . S
O205 C182 1.283 1_565 S
O206 Mn180 2.094 . S
O206 C184 1.240 . S
O207 Mn181 2.117 1_545 S
O207 C184 1.264 . S
C208 C201 1.403 . S
C208 C209 1.399 . S
C208 H214 0.929 . S
C209 C189 1.449 . S
C209 C208 1.399 . S
C209 H215 0.930 . S
H210 C190 0.931 . S
H211 C191 0.930 . S
H212 C199 0.931 . S
H213 C200 0.929 . S
H214 C208 0.929 . S
H215 C209 0.930 . S
Mn216 O221 2.095 . S
Mn216 O231 2.162 . S
Mn216 O232 2.297 . S
Mn216 O240 2.385 . S
Mn216 O241 2.209 . S
Mn216 O242 2.094 . S
Mn217 O222 2.121 . S
Mn217 N224 2.257 . S
Mn217 N233 2.282 . S
Mn217 O241 2.215 . S
Mn217 O243 2.117 . S
C218 O240 1.234 . S
C218 O241 1.283 . S
C219 O231 1.281 . S
C219 O232 1.236 . S
C220 O242 1.240 . S
C220 O243 1.264 . S
O221 Mn216 2.095 . S
O221 C230 1.250 . S
O222 Mn217 2.121 . S
O222 C230 1.258 . S
C223 N224 1.326 . S
C223 C227 1.460 . S
C223 H229 0.929 . S
N224 Mn217 2.257 . S
N224 C223 1.326 . S
N224 C228 1.362 . S
C225 C226 1.258 . S
C225 C228 1.431 . S
C225 C245 1.449 . S
C226 C225 1.258 . S
C226 C227 1.477 . S
C226 H246 0.931 . S
C227 C223 1.460 . S
C227 C226 1.477 . S
C227 H247 0.930 . S
C228 N224 1.362 . S
C228 C225 1.431 . S
C228 C238 1.476 . S
H229 C223 0.929 . S
C230 O221 1.250 . S
C230 O222 1.258 . S
O231 Mn216 2.162 . S
O231 C219 1.281 . S
O232 Mn216 2.297 . S
O232 C219 1.236 . S
N233 Mn217 2.282 . S
N233 C234 1.328 . S
N233 C238 1.318 . S
C234 N233 1.328 . S
C234 C235 1.457 . S
C234 H239 0.929 . S
C235 C234 1.457 . S
C235 C236 1.291 . S
C235 H248 0.931 . S
C236 C235 1.291 . S
C236 C237 1.373 . S
C236 H249 0.929 . S
C237 C236 1.373 . S
C237 C238 1.396 . S
C237 C244 1.403 . S
C238 C228 1.476 . S
C238 N233 1.318 . S
C238 C237 1.396 . S
H239 C234 0.929 . S
O240 Mn216 2.385 . S
O240 C218 1.234 . S
O241 Mn216 2.209 . S
O241 Mn217 2.215 . S
O241 C218 1.283 . S
O242 Mn216 2.094 . S
O242 C220 1.240 . S
O243 Mn217 2.117 . S
O243 C220 1.264 . S
C244 C237 1.403 . S
C244 C245 1.399 . S
C244 H250 0.929 . S
C245 C225 1.449 . S
C245 C244 1.399 . S
C245 H251 0.930 . S
H246 C226 0.931 . S
H247 C227 0.930 . S
H248 C235 0.931 . S
H249 C236 0.929 . S
H250 C244 0.929 . S
H251 C245 0.930 . S
Mn252 O257 2.095 1_545 S
Mn252 O267 2.162 . S
Mn252 O268 2.297 1_545 S
Mn252 O276 2.385 . S
Mn252 O277 2.209 1_545 S
Mn252 O278 2.094 . S
Mn253 O258 2.121 . S
Mn253 N260 2.257 . S
Mn253 N269 2.282 1_565 S
Mn253 O277 2.215 . S
Mn253 O279 2.117 1_565 S
C254 O276 1.234 . S
C254 O277 1.283 1_545 S
C255 O267 1.281 . S
C255 O268 1.236 1_545 S
C256 O278 1.240 . S
C256 O279 1.264 . S
O257 Mn252 2.095 1_565 S
O257 C266 1.250 . S
O258 Mn253 2.121 . S
O258 C266 1.258 . S
C259 N260 1.326 . S
C259 C263 1.460 . S
C259 H265 0.929 . S
N260 Mn253 2.257 . S
N260 C259 1.326 . S
N260 C264 1.362 . S
C261 C262 1.258 . S
C261 C264 1.431 . S
C261 C281 1.449 . S
C262 C261 1.258 . S
C262 C263 1.477 . S
C262 H282 0.931 . S
C263 C259 1.460 . S
C263 C262 1.477 . S
C263 H283 0.930 . S
C264 N260 1.362 . S
C264 C261 1.431 . S
C264 C274 1.476 . S
H265 C259 0.929 . S
C266 O257 1.250 . S
C266 O258 1.258 . S
O267 Mn252 2.162 . S
O267 C255 1.281 . S
O268 Mn252 2.297 1_565 S
O268 C255 1.236 1_565 S
N269 Mn253 2.282 1_545 S
N269 C270 1.328 . S
N269 C274 1.318 1_545 S
C270 N269 1.328 . S
C270 C271 1.457 . S
C270 H275 0.929 . S
C271 C270 1.457 . S
C271 C272 1.291 . S
C271 H284 0.931 . S
C272 C271 1.291 . S
C272 C273 1.373 1_545 S
C272 H285 0.929 . S
C273 C272 1.373 1_565 S
C273 C274 1.396 . S
C273 C280 1.403 . S
C274 C264 1.476 . S
C274 N269 1.318 1_565 S
C274 C273 1.396 . S
H275 C270 0.929 . S
O276 Mn252 2.385 . S
O276 C254 1.234 . S
O277 Mn252 2.209 1_565 S
O277 Mn253 2.215 . S
O277 C254 1.283 1_565 S
O278 Mn252 2.094 . S
O278 C256 1.240 . S
O279 Mn253 2.117 1_545 S
O279 C256 1.264 . S
C280 C273 1.403 . S
C280 C281 1.399 . S
C280 H286 0.929 . S
C281 C261 1.449 . S
C281 C280 1.399 . S
C281 H287 0.930 . S
H282 C262 0.931 . S
H283 C263 0.930 . S
H284 C271 0.931 . S
H285 C272 0.929 . S
H286 C280 0.929 . S
H287 C281 0.930 . S
Mn288 O293 2.095 . S
Mn288 O303 2.162 . S
Mn288 O304 2.297 . S
Mn288 O312 2.385 . S
Mn288 O313 2.209 . S
Mn288 O314 2.094 . S
Mn289 O294 2.121 . S
Mn289 N296 2.257 . S
Mn289 N305 2.282 . S
Mn289 O313 2.215 . S
Mn289 O315 2.117 . S
C290 O312 1.234 . S
C290 O313 1.283 . S
C291 O303 1.281 . S
C291 O304 1.236 . S
C292 O314 1.240 . S
C292 O315 1.264 . S
O293 Mn288 2.095 . S
O293 C302 1.250 . S
O294 Mn289 2.121 . S
O294 C302 1.258 . S
C295 N296 1.326 . S
C295 C299 1.460 . S
C295 H301 0.929 . S
N296 Mn289 2.257 . S
N296 C295 1.326 . S
N296 C300 1.362 . S
C297 C298 1.258 . S
C297 C300 1.431 . S
C297 C317 1.449 . S
C298 C297 1.258 . S
C298 C299 1.477 . S
C298 H318 0.931 . S
C299 C295 1.460 . S
C299 C298 1.477 . S
C299 H319 0.930 . S
C300 N296 1.362 . S
C300 C297 1.431 . S
C300 C310 1.476 . S
H301 C295 0.929 . S
C302 O293 1.250 . S
C302 O294 1.258 . S
O303 Mn288 2.162 . S
O303 C291 1.281 . S
O304 Mn288 2.297 . S
O304 C291 1.236 . S
N305 Mn289 2.282 . S
N305 C306 1.328 . S
N305 C310 1.318 . S
C306 N305 1.328 . S
C306 C307 1.457 . S
C306 H311 0.929 . S
C307 C306 1.457 . S
C307 C308 1.291 . S
C307 H320 0.931 . S
C308 C307 1.291 . S
C308 C309 1.373 . S
C308 H321 0.929 . S
C309 C308 1.373 . S
C309 C310 1.396 . S
C309 C316 1.403 . S
C310 C300 1.476 . S
C310 N305 1.318 . S
C310 C309 1.396 . S
H311 C306 0.929 . S
O312 Mn288 2.385 . S
O312 C290 1.234 . S
O313 Mn288 2.209 . S
O313 Mn289 2.215 . S
O313 C290 1.283 . S
O314 Mn288 2.094 . S
O314 C292 1.240 . S
O315 Mn289 2.117 . S
O315 C292 1.264 . S
C316 C309 1.403 . S
C316 C317 1.399 . S
C316 H322 0.929 . S
C317 C297 1.449 . S
C317 C316 1.399 . S
C317 H323 0.930 . S
H318 C298 0.931 . S
H319 C299 0.930 . S
H320 C307 0.931 . S
H321 C308 0.929 . S
H322 C316 0.929 . S
H323 C317 0.930 . S
Mn324 O329 2.095 . S
Mn324 O339 2.162 . S
Mn324 O340 2.297 . S
Mn324 O348 2.385 . S
Mn324 O349 2.209 . S
Mn324 O350 2.094 . S
Mn325 O330 2.121 . S
Mn325 N332 2.257 . S
Mn325 N341 2.282 . S
Mn325 O349 2.215 . S
Mn325 O351 2.117 . S
C326 O348 1.234 . S
C326 O349 1.283 . S
C327 O339 1.281 . S
C327 O340 1.236 . S
C328 O350 1.240 . S
C328 O351 1.264 . S
O329 Mn324 2.095 . S
O329 C338 1.250 . S
O330 Mn325 2.121 . S
O330 C338 1.258 . S
C331 N332 1.326 . S
C331 C335 1.460 . S
C331 H337 0.929 . S
N332 Mn325 2.257 . S
N332 C331 1.326 . S
N332 C336 1.362 . S
C333 C334 1.258 . S
C333 C336 1.431 1_554 S
C333 C353 1.449 . S
C334 C333 1.258 . S
C334 C335 1.477 1_554 S
C334 H354 0.931 . S
C335 C331 1.460 . S
C335 C334 1.477 1_556 S
C335 H355 0.930 . S
C336 N332 1.362 . S
C336 C333 1.431 1_556 S
C336 C346 1.476 1_556 S
H337 C331 0.929 . S
C338 O329 1.250 . S
C338 O330 1.258 . S
O339 Mn324 2.162 . S
O339 C327 1.281 . S
O340 Mn324 2.297 . S
O340 C327 1.236 . S
N341 Mn325 2.282 . S
N341 C342 1.328 . S
N341 C346 1.318 1_556 S
C342 N341 1.328 . S
C342 C343 1.457 1_556 S
C342 H347 0.929 . S
C343 C342 1.457 1_554 S
C343 C344 1.291 . S
C343 H356 0.931 . S
C344 C343 1.291 . S
C344 C345 1.373 . S
C344 H357 0.929 . S
C345 C344 1.373 . S
C345 C346 1.396 . S
C345 C352 1.403 . S
C346 C336 1.476 1_554 S
C346 N341 1.318 1_554 S
C346 C345 1.396 . S
H347 C342 0.929 . S
O348 Mn324 2.385 . S
O348 C326 1.234 . S
O349 Mn324 2.209 . S
O349 Mn325 2.215 . S
O349 C326 1.283 . S
O350 Mn324 2.094 . S
O350 C328 1.240 . S
O351 Mn325 2.117 . S
O351 C328 1.264 . S
C352 C345 1.403 . S
C352 C353 1.399 . S
C352 H358 0.929 . S
C353 C333 1.449 . S
C353 C352 1.399 . S
C353 H359 0.930 . S
H354 C334 0.931 . S
H355 C335 0.930 . S
H356 C343 0.931 . S
H357 C344 0.929 . S
H358 C352 0.929 . S
H359 C353 0.930 . S
Mn360 O365 2.095 1_554 S
Mn360 O375 2.162 1_554 S
Mn360 O376 2.297 1_554 S
Mn360 O384 2.385 . S
Mn360 O385 2.209 . S
Mn360 O386 2.094 . S
Mn361 O366 2.121 . S
Mn361 N368 2.257 . S
Mn361 N377 2.282 . S
Mn361 O385 2.215 . S
Mn361 O387 2.117 . S
C362 O384 1.234 . S
C362 O385 1.283 . S
C363 O375 1.281 . S
C363 O376 1.236 . S
C364 O386 1.240 . S
C364 O387 1.264 . S
O365 Mn360 2.095 1_556 S
O365 C374 1.250 . S
O366 Mn361 2.121 . S
O366 C374 1.258 1_554 S
C367 N368 1.326 . S
C367 C371 1.460 . S
C367 H373 0.929 . S
N368 Mn361 2.257 . S
N368 C367 1.326 . S
N368 C372 1.362 . S
C369 C370 1.258 . S
C369 C372 1.431 . S
C369 C389 1.449 . S
C370 C369 1.258 . S
C370 C371 1.477 . S
C370 H390 0.931 . S
C371 C367 1.460 . S
C371 C370 1.477 . S
C371 H391 0.930 . S
C372 N368 1.362 . S
C372 C369 1.431 . S
C372 C382 1.476 . S
H373 C367 0.929 . S
C374 O365 1.250 . S
C374 O366 1.258 1_556 S
O375 Mn360 2.162 1_556 S
O375 C363 1.281 . S
O376 Mn360 2.297 1_556 S
O376 C363 1.236 . S
N377 Mn361 2.282 . S
N377 C378 1.328 . S
N377 C382 1.318 . S
C378 N377 1.328 . S
C378 C379 1.457 . S
C378 H383 0.929 . S
C379 C378 1.457 . S
C379 C380 1.291 . S
C379 H392 0.931 . S
C380 C379 1.291 . S
C380 C381 1.373 . S
C380 H393 0.929 . S
C381 C380 1.373 . S
C381 C382 1.396 . S
C381 C388 1.403 . S
C382 C372 1.476 . S
C382 N377 1.318 . S
C382 C381 1.396 . S
H383 C378 0.929 . S
O384 Mn360 2.385 . S
O384 C362 1.234 . S
O385 Mn360 2.209 . S
O385 Mn361 2.215 . S
O385 C362 1.283 . S
O386 Mn360 2.094 . S
O386 C364 1.240 . S
O387 Mn361 2.117 . S
O387 C364 1.264 . S
C388 C381 1.403 . S
C388 C389 1.399 . S
C388 H394 0.929 . S
C389 C369 1.449 . S
C389 C388 1.399 . S
C389 H395 0.930 . S
H390 C370 0.931 . S
H391 C371 0.930 . S
H392 C379 0.931 . S
H393 C380 0.929 . S
H394 C388 0.929 . S
H395 C389 0.930 . S
Mn396 O401 2.095 . S
Mn396 O411 2.162 . S
Mn396 O412 2.297 . S
Mn396 O420 2.385 . S
Mn396 O421 2.209 . S
Mn396 O422 2.094 . S
Mn397 O402 2.121 . S
Mn397 N404 2.257 . S
Mn397 N413 2.282 . S
Mn397 O421 2.215 . S
Mn397 O423 2.117 . S
C398 O420 1.234 . S
C398 O421 1.283 . S
C399 O411 1.281 . S
C399 O412 1.236 . S
C400 O422 1.240 . S
C400 O423 1.264 . S
O401 Mn396 2.095 . S
O401 C410 1.250 . S
O402 Mn397 2.121 . S
O402 C410 1.258 . S
C403 N404 1.326 . S
C403 C407 1.460 . S
C403 H409 0.929 . S
N404 Mn397 2.257 . S
N404 C403 1.326 . S
N404 C408 1.362 . S
C405 C406 1.258 . S
C405 C408 1.432 . S
C405 C425 1.447 1_554 S
C406 C405 1.258 . S
C406 C407 1.477 . S
C406 H426 0.931 1_554 S
C407 C403 1.460 . S
C407 C406 1.477 . S
C407 H427 0.930 . S
C408 N404 1.362 . S
C408 C405 1.432 . S
C408 C418 1.476 . S
H409 C403 0.929 . S
C410 O401 1.250 . S
C410 O402 1.258 . S
O411 Mn396 2.162 . S
O411 C399 1.281 . S
O412 Mn396 2.297 . S
O412 C399 1.236 . S
N413 Mn397 2.282 . S
N413 C414 1.328 . S
N413 C418 1.318 . S
C414 N413 1.328 . S
C414 C415 1.457 1_554 S
C414 H419 0.929 . S
C415 C414 1.457 1_556 S
C415 C416 1.291 . S
C415 H428 0.931 . S
C416 C415 1.291 . S
C416 C417 1.373 . S
C416 H429 0.929 . S
C417 C416 1.373 . S
C417 C418 1.396 1_556 S
C417 C424 1.403 . S
C418 C408 1.476 . S
C418 N413 1.318 . S
C418 C417 1.396 1_554 S
H419 C414 0.929 . S
O420 Mn396 2.385 . S
O420 C398 1.234 . S
O421 Mn396 2.209 . S
O421 Mn397 2.215 . S
O421 C398 1.283 . S
O422 Mn396 2.094 . S
O422 C400 1.240 . S
O423 Mn397 2.117 . S
O423 C400 1.264 . S
C424 C417 1.403 . S
C424 C425 1.399 . S
C424 H430 0.929 . S
C425 C405 1.447 1_556 S
C425 C424 1.399 . S
C425 H431 0.930 . S
H426 C406 0.931 1_556 S
H427 C407 0.930 . S
H428 C415 0.931 . S
H429 C416 0.929 . S
H430 C424 0.929 . S
H431 C425 0.930 . S
Mn432 O437 2.095 . S
Mn432 O447 2.162 . S
Mn432 O448 2.297 . S
Mn432 O456 2.385 . S
Mn432 O457 2.209 . S
Mn432 O458 2.094 . S
Mn433 O438 2.121 . S
Mn433 N440 2.257 . S
Mn433 N449 2.282 . S
Mn433 O457 2.215 . S
Mn433 O459 2.117 . S
C434 O456 1.234 . S
C434 O457 1.283 . S
C435 O447 1.281 . S
C435 O448 1.236 . S
C436 O458 1.240 . S
C436 O459 1.264 . S
O437 Mn432 2.095 . S
O437 C446 1.250 . S
O438 Mn433 2.121 . S
O438 C446 1.258 . S
C439 N440 1.326 . S
C439 C443 1.460 . S
C439 H445 0.929 . S
N440 Mn433 2.257 . S
N440 C439 1.326 . S
N440 C444 1.362 . S
C441 C442 1.258 . S
C441 C444 1.431 . S
C441 C461 1.449 . S
C442 C441 1.258 . S
C442 C443 1.477 . S
C442 H462 0.931 . S
C443 C439 1.460 . S
C443 C442 1.477 . S
C443 H463 0.930 . S
C444 N440 1.362 . S
C444 C441 1.431 . S
C444 C454 1.476 . S
H445 C439 0.929 . S
C446 O437 1.250 . S
C446 O438 1.258 . S
O447 Mn432 2.162 . S
O447 C435 1.281 . S
O448 Mn432 2.297 . S
O448 C435 1.236 . S
N449 Mn433 2.282 . S
N449 C450 1.328 . S
N449 C454 1.318 . S
C450 N449 1.328 . S
C450 C451 1.457 . S
C450 H455 0.929 . S
C451 C450 1.457 . S
C451 C452 1.291 . S
C451 H464 0.931 . S
C452 C451 1.291 . S
C452 C453 1.373 . S
C452 H465 0.929 . S
C453 C452 1.373 . S
C453 C454 1.396 . S
C453 C460 1.403 . S
C454 C444 1.476 . S
C454 N449 1.318 . S
C454 C453 1.396 . S
H455 C450 0.929 . S
O456 Mn432 2.385 . S
O456 C434 1.234 . S
O457 Mn432 2.209 . S
O457 Mn433 2.215 . S
O457 C434 1.283 . S
O458 Mn432 2.094 . S
O458 C436 1.240 . S
O459 Mn433 2.117 . S
O459 C436 1.264 . S
C460 C453 1.403 . S
C460 C461 1.399 . S
C460 H466 0.929 . S
C461 C441 1.449 . S
C461 C460 1.399 . S
C461 H467 0.930 . S
H462 C442 0.931 . S
H463 C443 0.930 . S
H464 C451 0.931 . S
H465 C452 0.929 . S
H466 C460 0.929 . S
H467 C461 0.930 . S
Mn468 O473 2.095 . S
Mn468 O483 2.162 . S
Mn468 O484 2.297 . S
Mn468 O492 2.385 . S
Mn468 O493 2.209 . S
Mn468 O494 2.094 . S
Mn469 O474 2.121 . S
Mn469 N476 2.257 . S
Mn469 N485 2.282 . S
Mn469 O493 2.215 . S
Mn469 O495 2.117 . S
C470 O492 1.234 . S
C470 O493 1.283 . S
C471 O483 1.281 . S
C471 O484 1.236 . S
C472 O494 1.240 . S
C472 O495 1.264 . S
O473 Mn468 2.095 . S
O473 C482 1.250 . S
O474 Mn469 2.121 . S
O474 C482 1.258 . S
C475 N476 1.326 . S
C475 C479 1.460 . S
C475 H481 0.929 . S
N476 Mn469 2.257 . S
N476 C475 1.326 . S
N476 C480 1.362 . S
C477 C478 1.258 1_556 S
C477 C480 1.431 1_556 S
C477 C497 1.449 . S
C478 C477 1.258 1_554 S
C478 C479 1.476 . S
C478 H498 0.931 1_554 S
C479 C475 1.460 . S
C479 C478 1.476 . S
C479 H499 0.930 . S
C480 N476 1.362 . S
C480 C477 1.431 1_554 S
C480 C490 1.476 . S
H481 C475 0.929 . S
C482 O473 1.250 . S
C482 O474 1.258 . S
O483 Mn468 2.162 . S
O483 C471 1.281 . S
O484 Mn468 2.297 . S
O484 C471 1.236 . S
N485 Mn469 2.282 . S
N485 C486 1.328 . S
N485 C490 1.318 . S
C486 N485 1.328 . S
C486 C487 1.457 1_554 S
C486 H491 0.929 . S
C487 C486 1.457 1_556 S
C487 C488 1.291 . S
C487 H500 0.931 . S
C488 C487 1.291 . S
C488 C489 1.373 . S
C488 H501 0.929 . S
C489 C488 1.373 . S
C489 C490 1.396 1_556 S
C489 C496 1.403 . S
C490 C480 1.476 . S
C490 N485 1.318 . S
C490 C489 1.396 1_554 S
H491 C486 0.929 . S
O492 Mn468 2.385 . S
O492 C470 1.234 . S
O493 Mn468 2.209 . S
O493 Mn469 2.215 . S
O493 C470 1.283 . S
O494 Mn468 2.094 . S
O494 C472 1.240 . S
O495 Mn469 2.117 . S
O495 C472 1.264 . S
C496 C489 1.403 . S
C496 C497 1.399 . S
C496 H502 0.929 . S
C497 C477 1.449 . S
C497 C496 1.399 . S
C497 H503 0.930 . S
H498 C478 0.931 1_556 S
H499 C479 0.930 . S
H500 C487 0.931 . S
H501 C488 0.929 . S
H502 C496 0.929 . S
H503 C497 0.930 . S
Mn504 O509 2.095 . S
Mn504 O519 2.162 . S
Mn504 O520 2.297 . S
Mn504 O528 2.385 1_554 S
Mn504 O529 2.209 1_554 S
Mn504 O530 2.089 1_554 S
Mn505 O510 2.121 . S
Mn505 N512 2.257 . S
Mn505 N521 2.282 . S
Mn505 O529 2.215 . S
Mn505 O531 2.117 . S
C506 O528 1.234 . S
C506 O529 1.283 . S
C507 O519 1.281 . S
C507 O520 1.236 . S
C508 O530 1.255 . S
C508 O531 1.264 . S
O509 Mn504 2.095 . S
O509 C518 1.250 . S
O510 Mn505 2.121 . S
O510 C518 1.258 1_556 S
C511 N512 1.326 . S
C511 C515 1.460 . S
C511 H517 0.929 . S
N512 Mn505 2.257 . S
N512 C511 1.326 . S
N512 C516 1.362 . S
C513 C514 1.258 . S
C513 C516 1.431 . S
C513 C533 1.449 . S
C514 C513 1.258 . S
C514 C515 1.477 . S
C514 H534 0.931 . S
C515 C511 1.460 . S
C515 C514 1.477 . S
C515 H535 0.930 . S
C516 N512 1.362 . S
C516 C513 1.431 . S
C516 C526 1.476 . S
H517 C511 0.929 . S
C518 O509 1.250 . S
C518 O510 1.258 1_554 S
O519 Mn504 2.162 . S
O519 C507 1.281 . S
O520 Mn504 2.297 . S
O520 C507 1.236 . S
N521 Mn505 2.282 . S
N521 C522 1.328 . S
N521 C526 1.318 . S
C522 N521 1.328 . S
C522 C523 1.457 . S
C522 H527 0.929 . S
C523 C522 1.457 . S
C523 C524 1.291 . S
C523 H536 0.931 . S
C524 C523 1.291 . S
C524 C525 1.373 . S
C524 H537 0.929 . S
C525 C524 1.373 . S
C525 C526 1.396 . S
C525 C532 1.403 . S
C526 C516 1.476 . S
C526 N521 1.318 . S
C526 C525 1.396 . S
H527 C522 0.929 . S
O528 Mn504 2.385 1_556 S
O528 C506 1.234 . S
O529 Mn504 2.209 1_556 S
O529 Mn505 2.215 . S
O529 C506 1.283 . S
O530 Mn504 2.089 1_556 S
O530 C508 1.255 . S
O531 Mn505 2.117 . S
O531 C508 1.264 . S
C532 C525 1.403 . S
C532 C533 1.399 . S
C532 H538 0.929 . S
C533 C513 1.449 . S
C533 C532 1.399 . S
C533 H539 0.930 . S
H534 C514 0.931 . S
H535 C515 0.930 . S
H536 C523 0.931 . S
H537 C524 0.929 . S
H538 C532 0.929 . S
H539 C533 0.930 . S
Mn540 O545 2.095 . S
Mn540 O555 2.162 . S
Mn540 O556 2.297 . S
Mn540 O564 2.385 . S
Mn540 O565 2.209 . S
Mn540 O566 2.094 . S
Mn541 O546 2.121 . S
Mn541 N548 2.257 . S
Mn541 N557 2.282 . S
Mn541 O565 2.215 . S
Mn541 O567 2.117 . S
C542 O564 1.234 . S
C542 O565 1.283 . S
C543 O555 1.281 . S
C543 O556 1.236 . S
C544 O566 1.240 . S
C544 O567 1.264 . S
O545 Mn540 2.095 . S
O545 C554 1.250 . S
O546 Mn541 2.121 . S
O546 C554 1.258 . S
C547 N548 1.326 . S
C547 C551 1.460 . S
C547 H553 0.929 . S
N548 Mn541 2.257 . S
N548 C547 1.326 . S
N548 C552 1.362 . S
C549 C550 1.258 . S
C549 C552 1.431 1_554 S
C549 C569 1.449 . S
C550 C549 1.258 . S
C550 C551 1.477 1_554 S
C550 H570 0.931 . S
C551 C547 1.460 . S
C551 C550 1.477 1_556 S
C551 H571 0.930 . S
C552 N548 1.362 . S
C552 C549 1.431 1_556 S
C552 C562 1.476 1_556 S
H553 C547 0.929 . S
C554 O545 1.250 . S
C554 O546 1.258 . S
O555 Mn540 2.162 . S
O555 C543 1.281 . S
O556 Mn540 2.297 . S
O556 C543 1.236 . S
N557 Mn541 2.282 . S
N557 C558 1.328 . S
N557 C562 1.318 1_556 S
C558 N557 1.328 . S
C558 C559 1.457 1_556 S
C558 H563 0.929 . S
C559 C558 1.457 1_554 S
C559 C560 1.291 . S
C559 H572 0.931 . S
C560 C559 1.291 . S
C560 C561 1.373 . S
C560 H573 0.929 . S
C561 C560 1.373 . S
C561 C562 1.396 . S
C561 C568 1.403 . S
C562 C552 1.476 1_554 S
C562 N557 1.318 1_554 S
C562 C561 1.396 . S
H563 C558 0.929 . S
O564 Mn540 2.385 . S
O564 C542 1.234 . S
O565 Mn540 2.209 . S
O565 Mn541 2.215 . S
O565 C542 1.283 . S
O566 Mn540 2.094 . S
O566 C544 1.240 . S
O567 Mn541 2.117 . S
O567 C544 1.264 . S
C568 C561 1.403 . S
C568 C569 1.399 . S
C568 H574 0.929 . S
C569 C549 1.449 . S
C569 C568 1.399 . S
C569 H575 0.930 . S
H570 C550 0.931 . S
H571 C551 0.930 . S
H572 C559 0.931 . S
H573 C560 0.929 . S
H574 C568 0.929 . S
H575 C569 0.930 . S
H576 C588 0.930 . S
H577 C590 0.930 . S
H578 C591 0.930 . S
H579 C595 0.959 . S
H580 C595 0.959 . S
H581 C595 0.961 . S
H582 C596 0.960 . S
H583 C596 0.961 . S
H584 C596 0.959 . S
H585 C599 0.929 . S
H586 C600 0.931 . S
H587 C602 0.930 . S
C588 H576 0.930 . S
C588 C589 1.399 . S
C588 C593 1.399 . S
C589 C588 1.399 . S
C589 C590 1.376 . S
C590 H577 0.930 . S
C590 C589 1.376 . S
C590 C591 1.388 . S
C591 H578 0.930 . S
C591 C590 1.388 . S
C591 C592 1.390 . S
C592 C591 1.390 . S
C592 C593 1.394 . S
C592 C598 1.465 . S
C593 C588 1.399 . S
C593 C592 1.394 . S
C593 C594 1.516 . S
C594 C593 1.516 . S
C594 C595 1.502 . S
C594 C596 1.561 . S
C594 C597 1.526 . S
C595 H579 0.959 . S
C595 H580 0.959 . S
C595 H581 0.961 . S
C595 C594 1.502 . S
C596 H582 0.960 . S
C596 H583 0.961 . S
C596 H584 0.959 . S
C596 C594 1.561 . S
C597 C594 1.526 . S
C597 C598 1.396 . S
C597 C602 1.390 . S
C598 C592 1.465 . S
C598 C597 1.396 . S
C598 C599 1.399 . S
C599 H585 0.929 . S
C599 C598 1.399 . S
C599 C600 1.385 . S
C600 H586 0.931 . S
C600 C599 1.385 . S
C600 C601 1.389 . S
C601 C600 1.389 . S
C601 C602 1.387 . S
C602 H587 0.930 . S
C602 C597 1.390 . S
C602 C601 1.387 . S
H603 C615 0.930 . S
H604 C617 0.930 1_565 S
H605 C618 0.930 . S
H606 C622 0.977 . S
H607 C622 0.959 . S
H608 C622 0.961 . S
H609 C623 0.960 . S
H610 C623 0.961 . S
H611 C623 0.959 . S
H612 C626 0.931 . S
H613 C627 0.931 . S
H614 C629 0.930 . S
C615 H603 0.930 . S
C615 C616 1.399 . S
C615 C620 1.399 . S
C616 C615 1.399 . S
C616 C617 1.376 . S
C617 H604 0.930 1_545 S
C617 C616 1.376 . S
C617 C618 1.388 1_545 S
C618 H605 0.930 . S
C618 C617 1.388 1_565 S
C618 C619 1.390 1_565 S
C619 C618 1.390 1_545 S
C619 C620 1.394 . S
C619 C625 1.448 1_655 S
C620 C615 1.399 . S
C620 C619 1.394 . S
C620 C621 1.516 1_655 S
C621 C620 1.516 1_455 S
C621 C622 1.502 . S
C621 C623 1.561 . S
C621 C624 1.526 . S
C622 H606 0.977 . S
C622 H607 0.959 . S
C622 H608 0.961 . S
C622 C621 1.502 . S
C623 H609 0.960 . S
C623 H610 0.961 . S
C623 H611 0.959 . S
C623 C621 1.561 . S
C624 C621 1.526 . S
C624 C625 1.418 . S
C624 C629 1.390 . S
C625 C619 1.448 1_455 S
C625 C624 1.418 . S
C625 C626 1.397 1_445 S
C626 H612 0.931 . S
C626 C625 1.397 1_665 S
C626 C627 1.383 1_655 S
C627 H613 0.931 . S
C627 C626 1.383 1_455 S
C627 C628 1.389 1_565 S
C628 C627 1.389 1_545 S
C628 C629 1.387 . S
C629 H614 0.930 . S
C629 C624 1.390 . S
C629 C628 1.387 . S
H630 C642 0.930 . S
H631 C644 0.930 . S
H632 C645 0.930 . S
H633 C649 0.959 . S
H634 C649 0.959 . S
H635 C649 0.961 . S
H636 C650 0.960 . S
H637 C650 0.961 . S
H638 C650 0.959 . S
H639 C653 0.929 . S
H640 C654 0.931 . S
H641 C656 0.930 . S
C642 H630 0.930 . S
C642 C643 1.399 . S
C642 C647 1.399 . S
C643 C642 1.399 . S
C643 C644 1.376 . S
C644 H631 0.930 . S
C644 C643 1.376 . S
C644 C645 1.388 . S
C645 H632 0.930 . S
C645 C644 1.388 . S
C645 C646 1.390 . S
C646 C645 1.390 . S
C646 C647 1.394 . S
C646 C652 1.465 . S
C647 C642 1.399 . S
C647 C646 1.394 . S
C647 C648 1.516 . S
C648 C647 1.516 . S
C648 C649 1.502 . S
C648 C650 1.561 . S
C648 C651 1.526 . S
C649 H633 0.959 . S
C649 H634 0.959 . S
C649 H635 0.961 . S
C649 C648 1.502 . S
C650 H636 0.960 . S
C650 H637 0.961 . S
C650 H638 0.959 . S
C650 C648 1.561 . S
C651 C648 1.526 . S
C651 C652 1.396 . S
C651 C656 1.390 . S
C652 C646 1.465 . S
C652 C651 1.396 . S
C652 C653 1.399 . S
C653 H639 0.929 . S
C653 C652 1.399 . S
C653 C654 1.385 . S
C654 H640 0.931 . S
C654 C653 1.385 . S
C654 C655 1.389 . S
C655 C654 1.389 . S
C655 C656 1.387 . S
C656 H641 0.930 . S
C656 C651 1.390 . S
C656 C655 1.387 . S
H657 C669 0.930 . S
H658 C671 0.930 . S
H659 C672 0.930 . S
H660 C676 0.959 . S
H661 C676 0.959 . S
H662 C676 0.961 . S
H663 C677 0.960 . S
H664 C677 0.961 . S
H665 C677 0.959 . S
H666 C680 0.929 . S
H667 C681 0.931 . S
H668 C683 0.930 . S
C669 H657 0.930 . S
C669 C670 1.399 . S
C669 C674 1.399 . S
C670 C669 1.399 . S
C670 C671 1.376 1_545 S
C671 H658 0.930 . S
C671 C670 1.376 1_565 S
C671 C672 1.388 . S
C672 H659 0.930 . S
C672 C671 1.388 . S
C672 C673 1.390 . S
C673 C672 1.390 . S
C673 C674 1.394 1_565 S
C673 C679 1.465 1_554 S
C674 C669 1.399 . S
C674 C673 1.394 1_545 S
C674 C675 1.516 . S
C675 C674 1.516 . S
C675 C676 1.502 1_554 S
C675 C677 1.561 . S
C675 C678 1.526 1_554 S
C676 H660 0.959 . S
C676 H661 0.959 . S
C676 H662 0.961 . S
C676 C675 1.502 1_556 S
C677 H663 0.960 . S
C677 H664 0.961 . S
C677 H665 0.959 . S
C677 C675 1.561 . S
C678 C675 1.526 1_556 S
C678 C679 1.396 1_545 S
C678 C683 1.390 . S
C679 C673 1.465 1_556 S
C679 C678 1.396 1_565 S
C679 C680 1.399 . S
C680 H666 0.929 . S
C680 C679 1.399 . S
C680 C681 1.385 . S
C681 H667 0.931 . S
C681 C680 1.385 . S
C681 C682 1.389 1_565 S
C682 C681 1.389 1_545 S
C682 C683 1.387 . S
C683 H668 0.930 . S
C683 C678 1.390 . S
C683 C682 1.387 . S
H684 C696 0.930 . S
H685 C698 0.930 . S
H686 C699 0.930 . S
H687 C703 0.959 . S
H688 C703 0.959 . S
H689 C703 0.961 . S
H690 C704 0.960 . S
H691 C704 0.961 . S
H692 C704 0.959 . S
H693 C707 0.929 . S
H694 C708 0.931 . S
H695 C710 0.930 . S
C696 H684 0.930 . S
C696 C697 1.399 . S
C696 C701 1.399 . S
C697 C696 1.399 . S
C697 C698 1.376 . S
C698 H685 0.930 . S
C698 C697 1.376 . S
C698 C699 1.388 . S
C699 H686 0.930 . S
C699 C698 1.388 . S
C699 C700 1.390 . S
C700 C699 1.390 . S
C700 C701 1.394 . S
C700 C706 1.465 . S
C701 C696 1.399 . S
C701 C700 1.394 . S
C701 C702 1.516 . S
C702 C701 1.516 . S
C702 C703 1.502 . S
C702 C704 1.561 . S
C702 C705 1.526 . S
C703 H687 0.959 . S
C703 H688 0.959 . S
C703 H689 0.961 . S
C703 C702 1.502 . S
C704 H690 0.960 . S
C704 H691 0.961 . S
C704 H692 0.959 . S
C704 C702 1.561 . S
C705 C702 1.526 . S
C705 C706 1.396 . S
C705 C710 1.390 . S
C706 C700 1.465 . S
C706 C705 1.396 . S
C706 C707 1.399 . S
C707 H693 0.929 . S
C707 C706 1.399 . S
C707 C708 1.385 . S
C708 H694 0.931 . S
C708 C707 1.385 . S
C708 C709 1.389 . S
C709 C708 1.389 . S
C709 C710 1.387 . S
C710 H695 0.930 . S
C710 C705 1.390 . S
C710 C709 1.387 . S
H711 C723 0.930 . S
H712 C725 0.930 . S
H713 C726 0.930 . S
H714 C730 0.959 . S
H715 C730 0.959 . S
H716 C730 0.961 . S
H717 C731 0.960 . S
H718 C731 0.961 . S
H719 C731 0.959 . S
H720 C734 0.929 . S
H721 C735 0.931 . S
H722 C737 0.930 . S
C723 H711 0.930 . S
C723 C724 1.399 . S
C723 C728 1.399 . S
C724 C723 1.399 . S
C724 C725 1.376 1_545 S
C725 H712 0.930 . S
C725 C724 1.376 1_565 S
C725 C726 1.388 . S
C726 H713 0.930 . S
C726 C725 1.388 . S
C726 C727 1.390 . S
C727 C726 1.390 . S
C727 C728 1.394 1_565 S
C727 C733 1.465 . S
C728 C723 1.399 . S
C728 C727 1.394 1_545 S
C728 C729 1.516 . S
C729 C728 1.516 . S
C729 C730 1.502 . S
C729 C731 1.561 . S
C729 C732 1.526 . S
C730 H714 0.959 . S
C730 H715 0.959 . S
C730 H716 0.961 . S
C730 C729 1.502 . S
C731 H717 0.960 . S
C731 H718 0.961 . S
C731 H719 0.959 . S
C731 C729 1.561 . S
C732 C729 1.526 . S
C732 C733 1.396 1_545 S
C732 C737 1.390 . S
C733 C727 1.465 . S
C733 C732 1.396 1_565 S
C733 C734 1.399 . S
C734 H720 0.929 . S
C734 C733 1.399 . S
C734 C735 1.385 . S
C735 H721 0.931 . S
C735 C734 1.385 . S
C735 C736 1.389 1_565 S
C736 C735 1.389 1_545 S
C736 C737 1.387 . S
C737 H722 0.930 . S
C737 C732 1.390 . S
C737 C736 1.387 . S
H738 C750 0.930 . S
H739 C752 0.930 . S
H740 C753 0.930 . S
H741 C757 0.959 . S
H742 C757 0.959 . S
H743 C757 0.961 . S
H744 C758 0.960 . S
H745 C758 0.961 . S
H746 C758 0.959 . S
H747 C761 0.929 . S
H748 C762 0.931 . S
H749 C764 0.930 . S
C750 H738 0.930 . S
C750 C751 1.399 . S
C750 C755 1.399 . S
C751 C750 1.399 . S
C751 C752 1.376 . S
C752 H739 0.930 . S
C752 C751 1.376 . S
C752 C753 1.388 . S
C753 H740 0.930 . S
C753 C752 1.388 . S
C753 C754 1.390 . S
C754 C753 1.390 . S
C754 C755 1.394 . S
C754 C760 1.465 . S
C755 C750 1.399 . S
C755 C754 1.394 . S
C755 C756 1.516 . S
C756 C755 1.516 . S
C756 C757 1.502 . S
C756 C758 1.561 . S
C756 C759 1.526 . S
C757 H741 0.959 . S
C757 H742 0.959 . S
C757 H743 0.961 . S
C757 C756 1.502 . S
C758 H744 0.960 . S
C758 H745 0.961 . S
C758 H746 0.959 . S
C758 C756 1.561 . S
C759 C756 1.526 . S
C759 C760 1.396 . S
C759 C764 1.390 . S
C760 C754 1.465 . S
C760 C759 1.396 . S
C760 C761 1.399 . S
C761 H747 0.929 . S
C761 C760 1.399 . S
C761 C762 1.385 . S
C762 H748 0.931 . S
C762 C761 1.385 . S
C762 C763 1.389 . S
C763 C762 1.389 . S
C763 C764 1.387 . S
C764 H749 0.930 . S
C764 C759 1.390 . S
C764 C763 1.387 . S
H765 C777 0.930 . S
H766 C779 0.930 . S
H767 C780 0.930 . S
H768 C784 0.930 1_565 S
H769 C784 0.963 . S
H770 C784 0.967 . S
H771 C785 0.960 . S
H772 C785 0.961 . S
H773 C785 0.959 . S
H774 C788 0.929 1_556 S
H775 C789 0.931 1_565 S
H776 C791 0.930 . S
C777 H765 0.930 . S
C777 C778 1.399 . S
C777 C782 1.399 . S
C778 C777 1.399 . S
C778 C779 1.376 . S
C779 H766 0.930 . S
C779 C778 1.376 . S
C779 C780 1.388 1_455 S
C780 H767 0.930 . S
C780 C779 1.388 1_655 S
C780 C781 1.390 . S
C781 C780 1.390 . S
C781 C782 1.394 1_655 S
C781 C787 1.465 1_556 S
C782 C777 1.399 . S
C782 C781 1.394 1_455 S
C782 C783 1.516 1_556 S
C783 C782 1.516 1_554 S
C783 C784 1.522 . S
C783 C785 1.561 . S
C783 C786 1.526 1_455 S
C784 H768 0.930 1_545 S
C784 H769 0.963 . S
C784 H770 0.967 . S
C784 C783 1.522 . S
C785 H771 0.960 . S
C785 H772 0.961 . S
C785 H773 0.959 . S
C785 C783 1.561 . S
C786 C783 1.526 1_655 S
C786 C787 1.396 . S
C786 C791 1.390 . S
C787 C781 1.465 1_554 S
C787 C786 1.396 . S
C787 C788 1.399 . S
C788 H774 0.929 1_554 S
C788 C787 1.399 . S
C788 C789 1.385 . S
C789 H775 0.931 1_545 S
C789 C788 1.385 . S
C789 C790 1.389 . S
C790 C789 1.389 . S
C790 C791 1.387 . S
C791 H776 0.930 . S
C791 C786 1.390 . S
C791 C790 1.387 . S
H792 C804 0.930 . S
H793 C806 0.930 . S
H794 C807 0.930 . S
H795 C811 0.959 . S
H796 C811 0.959 . S
H797 C811 0.961 . S
H798 C812 0.960 . S
H799 C812 0.961 . S
H800 C812 0.959 . S
H801 C815 0.929 . S
H802 C816 0.931 . S
H803 C818 0.930 . S
C804 H792 0.930 . S
C804 C805 1.399 . S
C804 C809 1.399 . S
C805 C804 1.399 . S
C805 C806 1.376 . S
C806 H793 0.930 . S
C806 C805 1.376 . S
C806 C807 1.388 . S
C807 H794 0.930 . S
C807 C806 1.388 . S
C807 C808 1.390 . S
C808 C807 1.390 . S
C808 C809 1.394 . S
C808 C814 1.465 . S
C809 C804 1.399 . S
C809 C808 1.394 . S
C809 C810 1.516 . S
C810 C809 1.516 . S
C810 C811 1.502 . S
C810 C812 1.561 . S
C810 C813 1.526 . S
C811 H795 0.959 . S
C811 H796 0.959 . S
C811 H797 0.961 . S
C811 C810 1.502 . S
C812 H798 0.960 . S
C812 H799 0.961 . S
C812 H800 0.959 . S
C812 C810 1.561 . S
C813 C810 1.526 . S
C813 C814 1.396 . S
C813 C818 1.390 . S
C814 C808 1.465 . S
C814 C813 1.396 . S
C814 C815 1.399 . S
C815 H801 0.929 . S
C815 C814 1.399 . S
C815 C816 1.385 . S
C816 H802 0.931 . S
C816 C815 1.385 . S
C816 C817 1.389 . S
C817 C816 1.389 . S
C817 C818 1.387 . S
C818 H803 0.930 . S
C818 C813 1.390 . S
C818 C817 1.387 . S
H819 C831 0.930 . S
H820 C833 0.930 . S
H821 C834 0.930 . S
H822 C838 0.959 . S
H823 C838 0.959 . S
H824 C838 0.961 . S
H825 C839 0.960 . S
H826 C839 0.961 . S
H827 C839 0.959 . S
H828 C842 0.929 . S
H829 C843 0.931 . S
H830 C845 0.930 . S
C831 H819 0.930 . S
C831 C832 1.399 . S
C831 C836 1.399 . S
C832 C831 1.399 . S
C832 C833 1.376 . S
C833 H820 0.930 . S
C833 C832 1.376 . S
C833 C834 1.388 . S
C834 H821 0.930 . S
C834 C833 1.388 . S
C834 C835 1.390 . S
C835 C834 1.390 . S
C835 C836 1.394 . S
C835 C841 1.465 . S
C836 C831 1.399 . S
C836 C835 1.394 . S
C836 C837 1.516 . S
C837 C836 1.516 . S
C837 C838 1.502 . S
C837 C839 1.561 . S
C837 C840 1.526 . S
C838 H822 0.959 . S
C838 H823 0.959 . S
C838 H824 0.961 . S
C838 C837 1.502 . S
C839 H825 0.960 . S
C839 H826 0.961 . S
C839 H827 0.959 . S
C839 C837 1.561 . S
C840 C837 1.526 . S
C840 C841 1.396 . S
C840 C845 1.390 . S
C841 C835 1.465 . S
C841 C840 1.396 . S
C841 C842 1.399 . S
C842 H828 0.929 . S
C842 C841 1.399 . S
C842 C843 1.385 . S
C843 H829 0.931 . S
C843 C842 1.385 . S
C843 C844 1.389 . S
C844 C843 1.389 . S
C844 C845 1.387 . S
C845 H830 0.930 . S
C845 C840 1.390 . S
C845 C844 1.387 . S
H846 C858 0.930 . S
H847 C860 0.930 . S
H848 C861 0.930 . S
H849 C865 0.959 . S
H850 C865 0.959 . S
H851 C865 0.961 . S
H852 C866 0.960 . S
H853 C866 0.961 . S
H854 C866 0.959 . S
H855 C869 0.929 . S
H856 C870 0.931 . S
H857 C872 0.930 . S
C858 H846 0.930 . S
C858 C859 1.399 . S
C858 C863 1.399 . S
C859 C858 1.399 . S
C859 C860 1.376 . S
C860 H847 0.930 . S
C860 C859 1.376 . S
C860 C861 1.388 . S
C861 H848 0.930 . S
C861 C860 1.388 . S
C861 C862 1.390 . S
C862 C861 1.390 . S
C862 C863 1.394 . S
C862 C868 1.465 . S
C863 C858 1.399 . S
C863 C862 1.394 . S
C863 C864 1.516 . S
C864 C863 1.516 . S
C864 C865 1.502 . S
C864 C866 1.561 . S
C864 C867 1.526 . S
C865 H849 0.959 . S
C865 H850 0.959 . S
C865 H851 0.961 . S
C865 C864 1.502 . S
C866 H852 0.960 . S
C866 H853 0.961 . S
C866 H854 0.959 . S
C866 C864 1.561 . S
C867 C864 1.526 . S
C867 C868 1.396 . S
C867 C872 1.390 . S
C868 C862 1.465 . S
C868 C867 1.396 . S
C868 C869 1.399 . S
C869 H855 0.929 . S
C869 C868 1.399 . S
C869 C870 1.385 . S
C870 H856 0.931 . S
C870 C869 1.385 . S
C870 C871 1.389 . S
C871 C870 1.389 . S
C871 C872 1.387 . S
C872 H857 0.930 . S
C872 C867 1.390 . S
C872 C871 1.387 . S
H873 C885 0.930 . S
H874 C887 0.930 . S
H875 C888 0.930 . S
H876 C892 0.959 . S
H877 C892 0.959 . S
H878 C892 0.961 . S
H879 C893 0.960 . S
H880 C893 0.961 . S
H881 C893 0.959 . S
H882 C896 0.929 . S
H883 C897 0.931 . S
H884 C899 0.930 . S
C885 H873 0.930 . S
C885 C886 1.399 . S
C885 C890 1.399 . S
C886 C885 1.399 . S
C886 C887 1.376 . S
C887 H874 0.930 . S
C887 C886 1.376 . S
C887 C888 1.388 . S
C888 H875 0.930 . S
C888 C887 1.388 . S
C888 C889 1.390 . S
C889 C888 1.390 . S
C889 C890 1.394 . S
C889 C895 1.465 . S
C890 C885 1.399 . S
C890 C889 1.394 . S
C890 C891 1.516 . S
C891 C890 1.516 . S
C891 C892 1.502 . S
C891 C893 1.561 . S
C891 C894 1.526 . S
C892 H876 0.959 . S
C892 H877 0.959 . S
C892 H878 0.961 . S
C892 C891 1.502 . S
C893 H879 0.960 . S
C893 H880 0.961 . S
C893 H881 0.959 . S
C893 C891 1.561 . S
C894 C891 1.526 . S
C894 C895 1.396 . S
C894 C899 1.390 . S
C895 C889 1.465 . S
C895 C894 1.396 . S
C895 C896 1.399 . S
C896 H882 0.929 . S
C896 C895 1.399 . S
C896 C897 1.385 . S
C897 H883 0.931 . S
C897 C896 1.385 . S
C897 C898 1.389 . S
C898 C897 1.389 . S
C898 C899 1.387 . S
C899 H884 0.930 . S
C899 C894 1.390 . S
C899 C898 1.387 . S
H900 C912 0.930 . S
H901 C914 0.930 . S
H902 C915 0.930 . S
H903 C919 0.959 . S
H904 C919 0.959 . S
H905 C919 0.961 . S
H906 C920 0.960 . S
H907 C920 0.961 . S
H908 C920 0.959 . S
H909 C923 0.942 . S
H910 C924 0.931 . S
H911 C926 0.930 . S
C912 H900 0.930 . S
C912 C913 1.399 . S
C912 C917 1.399 . S
C913 C912 1.399 . S
C913 C914 1.376 . S
C914 H901 0.930 . S
C914 C913 1.376 . S
C914 C915 1.388 . S
C915 H902 0.930 . S
C915 C914 1.388 . S
C915 C916 1.390 . S
C916 C915 1.390 . S
C916 C917 1.394 . S
C916 C922 1.465 . S
C917 C912 1.399 . S
C917 C916 1.394 . S
C917 C918 1.516 1_554 S
C918 C917 1.516 1_556 S
C918 C919 1.502 . S
C918 C920 1.561 . S
C918 C921 1.526 . S
C919 H903 0.959 . S
C919 H904 0.959 . S
C919 H905 0.961 . S
C919 C918 1.502 . S
C920 H906 0.960 . S
C920 H907 0.961 . S
C920 H908 0.959 . S
C920 C918 1.561 . S
C921 C918 1.526 . S
C921 C922 1.396 1_556 S
C921 C926 1.390 . S
C922 C916 1.465 . S
C922 C921 1.396 1_554 S
C922 C923 1.399 . S
C923 H909 0.942 . S
C923 C922 1.399 . S
C923 C924 1.373 1_554 S
C924 H910 0.931 . S
C924 C923 1.373 1_556 S
C924 C925 1.389 . S
C925 C924 1.389 . S
C925 C926 1.387 . S
C926 H911 0.930 . S
C926 C921 1.390 . S
C926 C925 1.387 . S
H927 C939 0.930 . S
H928 C941 0.930 . S
H929 C942 0.930 1_655 S
H930 C946 0.959 . S
H931 C946 0.959 . S
H932 C946 0.961 . S
H933 C947 0.960 1_455 S
H934 C947 0.961 . S
H935 C947 0.959 . S
H936 C950 0.929 . S
H937 C951 0.931 . S
H938 C953 0.930 . S
C939 H927 0.930 . S
C939 C940 1.399 . S
C939 C944 1.399 . S
C940 C939 1.399 . S
C940 C941 1.376 . S
C941 H928 0.930 . S
C941 C940 1.376 . S
C941 C942 1.388 . S
C942 H929 0.930 1_455 S
C942 C941 1.388 . S
C942 C943 1.390 . S
C943 C942 1.390 . S
C943 C944 1.394 . S
C943 C949 1.465 1_455 S
C944 C939 1.399 . S
C944 C943 1.394 . S
C944 C945 1.516 . S
C945 C944 1.516 . S
C945 C946 1.502 . S
C945 C947 1.561 1_455 S
C945 C948 1.526 1_455 S
C946 H930 0.959 . S
C946 H931 0.959 . S
C946 H932 0.961 . S
C946 C945 1.502 . S
C947 H933 0.960 1_655 S
C947 H934 0.961 . S
C947 H935 0.959 . S
C947 C945 1.561 1_655 S
C948 C945 1.526 1_655 S
C948 C949 1.396 . S
C948 C953 1.390 . S
C949 C943 1.465 1_655 S
C949 C948 1.396 . S
C949 C950 1.399 . S
C950 H936 0.929 . S
C950 C949 1.399 . S
C950 C951 1.385 . S
C951 H937 0.931 . S
C951 C950 1.385 . S
C951 C952 1.389 . S
C952 C951 1.389 . S
C952 C953 1.387 . S
C953 H938 0.930 . S
C953 C948 1.390 . S
C953 C952 1.387 . S
H954 C966 0.930 . S
H955 C968 0.930 . S
H956 C969 0.930 1_655 S
H957 C973 0.959 . S
H958 C973 0.959 . S
H959 C973 0.961 . S
H960 C974 0.960 1_455 S
H961 C974 0.961 1_556 S
H962 C974 0.959 . S
H963 C977 0.929 1_554 S
H964 C978 0.931 . S
H965 C980 0.930 . S
C966 H954 0.930 . S
C966 C967 1.399 . S
C966 C971 1.399 . S
C967 C966 1.399 . S
C967 C968 1.376 . S
C968 H955 0.930 . S
C968 C967 1.376 . S
C968 C969 1.388 . S
C969 H956 0.930 1_455 S
C969 C968 1.388 . S
C969 C970 1.390 . S
C970 C969 1.390 . S
C970 C971 1.394 . S
C970 C976 1.465 1_455 S
C971 C966 1.399 . S
C971 C970 1.394 . S
C971 C972 1.516 1_554 S
C972 C971 1.516 1_556 S
C972 C973 1.502 . S
C972 C974 1.561 1_456 S
C972 C975 1.526 1_455 S
C973 H957 0.959 . S
C973 H958 0.959 . S
C973 H959 0.961 . S
C973 C972 1.502 . S
C974 H960 0.960 1_655 S
C974 H961 0.961 1_554 S
C974 H962 0.959 . S
C974 C972 1.561 1_654 S
C975 C972 1.526 1_655 S
C975 C976 1.396 1_556 S
C975 C980 1.390 . S
C976 C970 1.465 1_655 S
C976 C975 1.396 1_554 S
C976 C977 1.399 1_554 S
C977 H963 0.929 1_556 S
C977 C976 1.399 1_556 S
C977 C978 1.385 . S
C978 H964 0.931 . S
C978 C977 1.385 . S
C978 C979 1.389 . S
C979 C978 1.389 . S
C979 C980 1.387 . S
C980 H965 0.930 . S
C980 C975 1.390 . S
C980 C979 1.387 . S
H981 C993 0.930 . S
H982 C995 0.930 . S
H983 C996 0.930 . S
H984 C1000 0.959 . S
H985 C1000 0.959 . S
H986 C1000 0.961 . S
H987 C1001 0.960 . S
H988 C1001 0.961 . S
H989 C1001 0.959 . S
H990 C1004 0.929 . S
H991 C1005 0.931 . S
H992 C1007 0.930 . S
C993 H981 0.930 . S
C993 C994 1.399 . S
C993 C998 1.399 . S
C994 C993 1.399 . S
C994 C995 1.376 . S
C995 H982 0.930 . S
C995 C994 1.376 . S
C995 C996 1.388 . S
C996 H983 0.930 . S
C996 C995 1.388 . S
C996 C997 1.390 . S
C997 C996 1.390 . S
C997 C998 1.394 . S
C997 C1003 1.465 . S
C998 C993 1.399 . S
C998 C997 1.394 . S
C998 C999 1.516 . S
C999 C998 1.516 . S
C999 C1000 1.502 . S
C999 C1001 1.561 . S
C999 C1002 1.526 . S
C1000 H984 0.959 . S
C1000 H985 0.959 . S
C1000 H986 0.961 . S
C1000 C999 1.502 . S
C1001 H987 0.960 . S
C1001 H988 0.961 . S
C1001 H989 0.959 . S
C1001 C999 1.561 . S
C1002 C999 1.526 . S
C1002 C1003 1.396 . S
C1002 C1007 1.390 . S
C1003 C997 1.465 . S
C1003 C1002 1.396 . S
C1003 C1004 1.399 . S
C1004 H990 0.929 . S
C1004 C1003 1.399 . S
C1004 C1005 1.385 . S
C1005 H991 0.931 . S
C1005 C1004 1.385 . S
C1005 C1006 1.389 . S
C1006 C1005 1.389 . S
C1006 C1007 1.387 . S
C1007 H992 0.930 . S
C1007 C1002 1.390 . S
C1007 C1006 1.387 . S
H1008 C1020 0.930 . S
H1009 C1022 0.930 . S
H1010 C1023 0.930 . S
H1011 C1027 0.959 . S
H1012 C1027 0.959 . S
H1013 C1027 0.961 . S
H1014 C1028 0.960 . S
H1015 C1028 0.961 . S
H1016 C1028 0.959 . S
H1017 C1031 0.929 . S
H1018 C1032 0.931 1_556 S
H1019 C1034 0.930 . S
C1020 H1008 0.930 . S
C1020 C1021 1.399 . S
C1020 C1025 1.399 . S
C1021 C1020 1.399 . S
C1021 C1022 1.376 . S
C1022 H1009 0.930 . S
C1022 C1021 1.376 . S
C1022 C1023 1.388 . S
C1023 H1010 0.930 . S
C1023 C1022 1.388 . S
C1023 C1024 1.390 . S
C1024 C1023 1.390 . S
C1024 C1025 1.394 . S
C1024 C1030 1.465 . S
C1025 C1020 1.399 . S
C1025 C1024 1.394 . S
C1025 C1026 1.516 . S
C1026 C1025 1.516 . S
C1026 C1027 1.502 . S
C1026 C1028 1.561 . S
C1026 C1029 1.526 . S
C1027 H1011 0.959 . S
C1027 H1012 0.959 . S
C1027 H1013 0.961 . S
C1027 C1026 1.502 . S
C1028 H1014 0.960 . S
C1028 H1015 0.961 . S
C1028 H1016 0.959 . S
C1028 C1026 1.561 . S
C1029 C1026 1.526 . S
C1029 C1030 1.396 . S
C1029 C1034 1.390 . S
C1030 C1024 1.465 . S
C1030 C1029 1.396 . S
C1030 C1031 1.399 . S
C1031 H1017 0.929 . S
C1031 C1030 1.399 . S
C1031 C1032 1.385 . S
C1032 H1018 0.931 1_554 S
C1032 C1031 1.385 . S
C1032 C1033 1.389 . S
C1033 C1032 1.389 . S
C1033 C1034 1.387 . S
C1034 H1019 0.930 . S
C1034 C1029 1.390 . S
C1034 C1033 1.387 . S
H1035 C1047 0.930 . S
H1036 C1049 0.930 . S
H1037 C1050 0.930 . S
H1038 C1054 0.959 . S
H1039 C1054 0.959 . S
H1040 C1054 0.961 . S
H1041 C1055 0.960 . S
H1042 C1055 0.961 . S
H1043 C1055 0.959 . S
H1044 C1058 0.929 . S
H1045 C1059 0.931 . S
H1046 C1061 0.930 . S
C1047 H1035 0.930 . S
C1047 C1048 1.399 . S
C1047 C1052 1.399 . S
C1048 C1047 1.399 . S
C1048 C1049 1.376 . S
C1049 H1036 0.930 . S
C1049 C1048 1.376 . S
C1049 C1050 1.388 . S
C1050 H1037 0.930 . S
C1050 C1049 1.388 . S
C1050 C1051 1.390 . S
C1051 C1050 1.390 . S
C1051 C1052 1.394 . S
C1051 C1057 1.465 . S
C1052 C1047 1.399 . S
C1052 C1051 1.394 . S
C1052 C1053 1.516 . S
C1053 C1052 1.516 . S
C1053 C1054 1.502 . S
C1053 C1055 1.561 . S
C1053 C1056 1.526 . S
C1054 H1038 0.959 . S
C1054 H1039 0.959 . S
C1054 H1040 0.961 . S
C1054 C1053 1.502 . S
C1055 H1041 0.960 . S
C1055 H1042 0.961 . S
C1055 H1043 0.959 . S
C1055 C1053 1.561 . S
C1056 C1053 1.526 . S
C1056 C1057 1.396 . S
C1056 C1061 1.390 . S
C1057 C1051 1.465 . S
C1057 C1056 1.396 . S
C1057 C1058 1.399 . S
C1058 H1044 0.929 . S
C1058 C1057 1.399 . S
C1058 C1059 1.385 . S
C1059 H1045 0.931 . S
C1059 C1058 1.385 . S
C1059 C1060 1.389 . S
C1060 C1059 1.389 . S
C1060 C1061 1.387 . S
C1061 H1046 0.930 . S
C1061 C1056 1.390 . S
C1061 C1060 1.387 . S
H1062 C1074 0.930 . S
H1063 C1076 0.930 . S
H1064 C1077 0.930 . S
H1065 C1081 0.959 . S
H1066 C1081 0.959 . S
H1067 C1081 0.961 . S
H1068 C1082 0.960 . S
H1069 C1082 0.961 . S
H1070 C1082 0.959 . S
H1071 C1085 0.929 . S
H1072 C1086 0.931 . S
H1073 C1088 0.930 . S
C1074 H1062 0.930 . S
C1074 C1075 1.399 . S
C1074 C1079 1.399 . S
C1075 C1074 1.399 . S
C1075 C1076 1.376 . S
C1076 H1063 0.930 . S
C1076 C1075 1.376 . S
C1076 C1077 1.388 . S
C1077 H1064 0.930 . S
C1077 C1076 1.388 . S
C1077 C1078 1.390 . S
C1078 C1077 1.390 . S
C1078 C1079 1.394 . S
C1078 C1084 1.465 . S
C1079 C1074 1.399 . S
C1079 C1078 1.394 . S
C1079 C1080 1.516 . S
C1080 C1079 1.516 . S
C1080 C1081 1.502 . S
C1080 C1082 1.561 . S
C1080 C1083 1.526 . S
C1081 H1065 0.959 . S
C1081 H1066 0.959 . S
C1081 H1067 0.961 . S
C1081 C1080 1.502 . S
C1082 H1068 0.960 . S
C1082 H1069 0.961 . S
C1082 H1070 0.959 . S
C1082 C1080 1.561 . S
C1083 C1080 1.526 . S
C1083 C1084 1.396 . S
C1083 C1088 1.390 . S
C1084 C1078 1.465 . S
C1084 C1083 1.396 . S
C1084 C1085 1.399 . S
C1085 H1071 0.929 . S
C1085 C1084 1.399 . S
C1085 C1086 1.385 . S
C1086 H1072 0.931 . S
C1086 C1085 1.385 . S
C1086 C1087 1.389 . S
C1087 C1086 1.389 . S
C1087 C1088 1.387 . S
C1088 H1073 0.930 . S
C1088 C1083 1.390 . S
C1088 C1087 1.387 . S
H1089 C1101 0.930 . S
H1090 C1103 0.930 . S
H1091 C1104 0.930 . S
H1092 C1108 0.959 . S
H1093 C1108 0.959 . S
H1094 C1108 0.961 . S
H1095 C1109 0.960 1_554 S
H1096 C1109 0.961 . S
H1097 C1109 0.956 1_554 S
H1098 C1112 0.929 . S
H1099 C1113 0.931 . S
H1100 C1115 0.930 . S
C1101 H1089 0.930 . S
C1101 C1102 1.399 . S
C1101 C1106 1.399 . S
C1102 C1101 1.399 . S
C1102 C1103 1.376 . S
C1103 H1090 0.930 . S
C1103 C1102 1.376 . S
C1103 C1104 1.388 . S
C1104 H1091 0.930 . S
C1104 C1103 1.388 . S
C1104 C1105 1.390 . S
C1105 C1104 1.390 . S
C1105 C1106 1.394 . S
C1105 C1111 1.465 . S
C1106 C1101 1.399 . S
C1106 C1105 1.394 . S
C1106 C1107 1.516 . S
C1107 C1106 1.516 . S
C1107 C1108 1.502 . S
C1107 C1109 1.561 . S
C1107 C1110 1.526 . S
C1108 H1092 0.959 . S
C1108 H1093 0.959 . S
C1108 H1094 0.961 . S
C1108 C1107 1.502 . S
C1109 H1095 0.960 1_556 S
C1109 H1096 0.961 . S
C1109 H1097 0.956 1_556 S
C1109 C1107 1.561 . S
C1110 C1107 1.526 . S
C1110 C1111 1.396 . S
C1110 C1115 1.390 . S
C1111 C1105 1.465 . S
C1111 C1110 1.396 . S
C1111 C1112 1.399 . S
C1112 H1098 0.929 . S
C1112 C1111 1.399 . S
C1112 C1113 1.385 . S
C1113 H1099 0.931 . S
C1113 C1112 1.385 . S
C1113 C1114 1.389 . S
C1114 C1113 1.389 . S
C1114 C1115 1.387 . S
C1115 H1100 0.930 . S
C1115 C1110 1.390 . S
C1115 C1114 1.387 . S
H1116 C1128 0.930 . S
H1117 C1130 0.930 . S
H1118 C1131 0.930 . S
H1119 C1135 0.959 . S
H1120 C1135 0.959 . S
H1121 C1135 0.961 . S
H1122 C1136 0.960 . S
H1123 C1136 0.961 . S
H1124 C1136 0.959 . S
H1125 C1139 0.929 . S
H1126 C1140 0.931 . S
H1127 C1142 0.930 . S
C1128 H1116 0.930 . S
C1128 C1129 1.399 . S
C1128 C1133 1.399 . S
C1129 C1128 1.399 . S
C1129 C1130 1.376 . S
C1130 H1117 0.930 . S
C1130 C1129 1.376 . S
C1130 C1131 1.388 . S
C1131 H1118 0.930 . S
C1131 C1130 1.388 . S
C1131 C1132 1.390 . S
C1132 C1131 1.390 . S
C1132 C1133 1.394 . S
C1132 C1138 1.465 . S
C1133 C1128 1.399 . S
C1133 C1132 1.394 . S
C1133 C1134 1.516 . S
C1134 C1133 1.516 . S
C1134 C1135 1.502 . S
C1134 C1136 1.561 . S
C1134 C1137 1.526 . S
C1135 H1119 0.959 . S
C1135 H1120 0.959 . S
C1135 H1121 0.961 . S
C1135 C1134 1.502 . S
C1136 H1122 0.960 . S
C1136 H1123 0.961 . S
C1136 H1124 0.959 . S
C1136 C1134 1.561 . S
C1137 C1134 1.526 . S
C1137 C1138 1.396 . S
C1137 C1142 1.390 . S
C1138 C1132 1.465 . S
C1138 C1137 1.396 . S
C1138 C1139 1.399 . S
C1139 H1125 0.929 . S
C1139 C1138 1.399 . S
C1139 C1140 1.385 . S
C1140 H1126 0.931 . S
C1140 C1139 1.385 . S
C1140 C1141 1.389 . S
C1141 C1140 1.389 . S
C1141 C1142 1.387 . S
C1142 H1127 0.930 . S
C1142 C1137 1.390 . S
C1142 C1141 1.387 . S
H1143 C1155 0.930 . S
H1144 C1157 0.930 . S
H1145 C1158 0.930 . S
H1146 C1162 0.959 . S
H1147 C1162 0.959 . S
H1148 C1162 0.961 . S
H1149 C1163 0.960 . S
H1150 C1163 0.961 . S
H1151 C1163 0.959 . S
H1152 C1166 0.929 . S
H1153 C1167 0.931 . S
H1154 C1169 0.930 . S
C1155 H1143 0.930 . S
C1155 C1156 1.399 . S
C1155 C1160 1.399 . S
C1156 C1155 1.399 . S
C1156 C1157 1.376 . S
C1157 H1144 0.930 . S
C1157 C1156 1.376 . S
C1157 C1158 1.388 . S
C1158 H1145 0.930 . S
C1158 C1157 1.388 . S
C1158 C1159 1.390 . S
C1159 C1158 1.390 . S
C1159 C1160 1.394 . S
C1159 C1165 1.465 . S
C1160 C1155 1.399 . S
C1160 C1159 1.394 . S
C1160 C1161 1.516 . S
C1161 C1160 1.516 . S
C1161 C1162 1.502 . S
C1161 C1163 1.561 . S
C1161 C1164 1.526 . S
C1162 H1146 0.959 . S
C1162 H1147 0.959 . S
C1162 H1148 0.961 . S
C1162 C1161 1.502 . S
C1163 H1149 0.960 . S
C1163 H1150 0.961 . S
C1163 H1151 0.959 . S
C1163 C1161 1.561 . S
C1164 C1161 1.526 . S
C1164 C1165 1.396 . S
C1164 C1169 1.390 . S
C1165 C1159 1.465 . S
C1165 C1164 1.396 . S
C1165 C1166 1.399 . S
C1166 H1152 0.929 . S
C1166 C1165 1.399 . S
C1166 C1167 1.385 . S
C1167 H1153 0.931 . S
C1167 C1166 1.385 . S
C1167 C1168 1.389 . S
C1168 C1167 1.389 . S
C1168 C1169 1.387 . S
C1169 H1154 0.930 . S
C1169 C1164 1.390 . S
C1169 C1168 1.387 . S
H1170 C1182 0.930 . S
H1171 C1184 0.930 . S
H1172 C1185 0.930 . S
H1173 C1189 0.959 . S
H1174 C1189 0.959 . S
H1175 C1189 0.961 . S
H1176 C1190 0.960 . S
H1177 C1190 0.961 . S
H1178 C1190 0.959 . S
H1179 C1193 0.929 . S
H1180 C1194 0.931 . S
H1181 C1196 0.930 . S
C1182 H1170 0.930 . S
C1182 C1183 1.399 . S
C1182 C1187 1.399 . S
C1183 C1182 1.399 . S
C1183 C1184 1.376 . S
C1184 H1171 0.930 . S
C1184 C1183 1.376 . S
C1184 C1185 1.388 . S
C1185 H1172 0.930 . S
C1185 C1184 1.388 . S
C1185 C1186 1.390 . S
C1186 C1185 1.390 . S
C1186 C1187 1.394 . S
C1186 C1192 1.465 . S
C1187 C1182 1.399 . S
C1187 C1186 1.394 . S
C1187 C1188 1.516 . S
C1188 C1187 1.516 . S
C1188 C1189 1.502 . S
C1188 C1190 1.561 1_556 S
C1188 C1191 1.526 . S
C1189 H1173 0.959 . S
C1189 H1174 0.959 . S
C1189 H1175 0.961 . S
C1189 C1188 1.502 . S
C1190 H1176 0.960 . S
C1190 H1177 0.961 . S
C1190 H1178 0.959 . S
C1190 C1188 1.561 1_554 S
C1191 C1188 1.526 . S
C1191 C1192 1.396 . S
C1191 C1196 1.390 . S
C1192 C1186 1.465 . S
C1192 C1191 1.396 . S
C1192 C1193 1.399 . S
C1193 H1179 0.929 . S
C1193 C1192 1.399 . S
C1193 C1194 1.385 . S
C1194 H1180 0.931 . S
C1194 C1193 1.385 . S
C1194 C1195 1.389 . S
C1195 C1194 1.389 . S
C1195 C1196 1.387 . S
C1196 H1181 0.930 . S
C1196 C1191 1.390 . S
C1196 C1195 1.387 . S
H1197 C1209 0.930 . S
H1198 C1211 0.930 . S
H1199 C1212 0.930 . S
H1200 C1216 0.959 . S
H1201 C1216 0.959 . S
H1202 C1216 0.961 . S
H1203 C1217 0.961 . S
H1204 C1217 0.961 . S
H1205 C1217 0.959 . S
H1206 C1220 0.929 . S
H1207 C1221 0.931 . S
H1208 C1223 0.930 . S
C1209 H1197 0.930 . S
C1209 C1210 1.399 . S
C1209 C1214 1.399 . S
C1210 C1209 1.399 . S
C1210 C1211 1.376 . S
C1211 H1198 0.930 . S
C1211 C1210 1.376 . S
C1211 C1212 1.388 . S
C1212 H1199 0.930 . S
C1212 C1211 1.388 . S
C1212 C1213 1.390 . S
C1213 C1212 1.390 . S
C1213 C1214 1.394 . S
C1213 C1219 1.465 . S
C1214 C1209 1.399 . S
C1214 C1213 1.394 . S
C1214 C1215 1.516 . S
C1215 C1214 1.516 . S
C1215 C1216 1.502 . S
C1215 C1217 1.561 . S
C1215 C1218 1.526 . S
C1216 H1200 0.959 . S
C1216 H1201 0.959 . S
C1216 H1202 0.961 . S
C1216 C1215 1.502 . S
C1217 H1203 0.961 . S
C1217 H1204 0.961 . S
C1217 H1205 0.959 . S
C1217 C1215 1.561 . S
C1218 C1215 1.526 . S
C1218 C1219 1.396 . S
C1218 C1223 1.390 . S
C1219 C1213 1.465 . S
C1219 C1218 1.396 . S
C1219 C1220 1.399 . S
C1220 H1206 0.929 . S
C1220 C1219 1.399 . S
C1220 C1221 1.385 . S
C1221 H1207 0.931 . S
C1221 C1220 1.385 . S
C1221 C1222 1.389 . S
C1222 C1221 1.389 . S
C1222 C1223 1.387 . S
C1223 H1208 0.930 . S
C1223 C1218 1.390 . S
C1223 C1222 1.387 . S
H1224 C1236 0.930 . S
H1225 C1238 0.930 . S
H1226 C1239 0.930 1_554 S
H1227 C1243 0.959 . S
H1228 C1243 0.959 . S
H1229 C1243 0.961 . S
H1230 C1244 0.960 . S
H1231 C1244 0.961 . S
H1232 C1244 0.959 . S
H1233 C1247 0.929 . S
H1234 C1248 0.931 . S
H1235 C1250 0.930 . S
C1236 H1224 0.930 . S
C1236 C1237 1.399 . S
C1236 C1241 1.399 . S
C1237 C1236 1.399 . S
C1237 C1238 1.376 1_556 S
C1238 H1225 0.930 . S
C1238 C1237 1.376 1_554 S
C1238 C1239 1.388 1_554 S
C1239 H1226 0.930 1_556 S
C1239 C1238 1.388 1_556 S
C1239 C1240 1.390 . S
C1240 C1239 1.390 . S
C1240 C1241 1.394 . S
C1240 C1246 1.465 . S
C1241 C1236 1.399 . S
C1241 C1240 1.394 . S
C1241 C1242 1.516 . S
C1242 C1241 1.516 . S
C1242 C1243 1.502 . S
C1242 C1244 1.561 . S
C1242 C1245 1.526 . S
C1243 H1227 0.959 . S
C1243 H1228 0.959 . S
C1243 H1229 0.961 . S
C1243 C1242 1.502 . S
C1244 H1230 0.960 . S
C1244 H1231 0.961 . S
C1244 H1232 0.959 . S
C1244 C1242 1.561 . S
C1245 C1242 1.526 . S
C1245 C1246 1.396 . S
C1245 C1250 1.390 . S
C1246 C1240 1.465 . S
C1246 C1245 1.396 . S
C1246 C1247 1.399 . S
C1247 H1233 0.929 . S
C1247 C1246 1.399 . S
C1247 C1248 1.385 . S
C1248 H1234 0.931 . S
C1248 C1247 1.385 . S
C1248 C1249 1.389 . S
C1249 C1248 1.389 . S
C1249 C1250 1.387 . S
C1250 H1235 0.930 . S
C1250 C1245 1.390 . S
C1250 C1249 1.387 . S
H1251 C1263 0.930 . S
H1252 C1265 0.930 . S
H1253 C1266 0.930 . S
H1254 C1270 0.959 . S
H1255 C1270 0.959 . S
H1256 C1270 0.961 . S
H1257 C1271 0.960 . S
H1258 C1271 0.961 . S
H1259 C1271 0.959 . S
H1260 C1274 0.929 . S
H1261 C1275 0.931 . S
H1262 C1277 0.930 . S
C1263 H1251 0.930 . S
C1263 C1264 1.399 . S
C1263 C1268 1.399 . S
C1264 C1263 1.399 . S
C1264 C1265 1.376 . S
C1265 H1252 0.930 . S
C1265 C1264 1.376 . S
C1265 C1266 1.388 . S
C1266 H1253 0.930 . S
C1266 C1265 1.388 . S
C1266 C1267 1.390 . S
C1267 C1266 1.390 . S
C1267 C1268 1.394 . S
C1267 C1273 1.465 . S
C1268 C1263 1.399 . S
C1268 C1267 1.394 . S
C1268 C1269 1.516 . S
C1269 C1268 1.516 . S
C1269 C1270 1.502 . S
C1269 C1271 1.561 . S
C1269 C1272 1.526 . S
C1270 H1254 0.959 . S
C1270 H1255 0.959 . S
C1270 H1256 0.961 . S
C1270 C1269 1.502 . S
C1271 H1257 0.960 . S
C1271 H1258 0.961 . S
C1271 H1259 0.959 . S
C1271 C1269 1.561 . S
C1272 C1269 1.526 . S
C1272 C1273 1.396 . S
C1272 C1277 1.390 . S
C1273 C1267 1.465 . S
C1273 C1272 1.396 . S
C1273 C1274 1.399 . S
C1274 H1260 0.929 . S
C1274 C1273 1.399 . S
C1274 C1275 1.385 . S
C1275 H1261 0.931 . S
C1275 C1274 1.385 . S
C1275 C1276 1.389 . S
C1276 C1275 1.389 . S
C1276 C1277 1.387 . S
C1277 H1262 0.930 . S
C1277 C1272 1.390 . S
C1277 C1276 1.387 . S
H1278 C1290 0.930 . S
H1279 C1292 0.930 . S
H1280 C1293 0.930 . S
H1281 C1297 0.959 . S
H1282 C1297 0.959 . S
H1283 C1297 0.961 . S
H1284 C1298 0.960 . S
H1285 C1298 0.961 . S
H1286 C1298 0.959 . S
H1287 C1301 0.929 . S
H1288 C1302 0.931 . S
H1289 C1304 0.930 . S
C1290 H1278 0.930 . S
C1290 C1291 1.399 . S
C1290 C1295 1.399 . S
C1291 C1290 1.399 . S
C1291 C1292 1.376 . S
C1292 H1279 0.930 . S
C1292 C1291 1.376 . S
C1292 C1293 1.388 . S
C1293 H1280 0.930 . S
C1293 C1292 1.388 . S
C1293 C1294 1.390 . S
C1294 C1293 1.390 . S
C1294 C1295 1.394 . S
C1294 C1300 1.465 . S
C1295 C1290 1.399 . S
C1295 C1294 1.394 . S
C1295 C1296 1.516 . S
C1296 C1295 1.516 . S
C1296 C1297 1.502 . S
C1296 C1298 1.561 . S
C1296 C1299 1.526 . S
C1297 H1281 0.959 . S
C1297 H1282 0.959 . S
C1297 H1283 0.961 . S
C1297 C1296 1.502 . S
C1298 H1284 0.960 . S
C1298 H1285 0.961 . S
C1298 H1286 0.959 . S
C1298 C1296 1.561 . S
C1299 C1296 1.526 . S
C1299 C1300 1.396 . S
C1299 C1304 1.390 . S
C1300 C1294 1.465 . S
C1300 C1299 1.396 . S
C1300 C1301 1.399 . S
C1301 H1287 0.929 . S
C1301 C1300 1.399 . S
C1301 C1302 1.385 . S
C1302 H1288 0.931 . S
C1302 C1301 1.385 . S
C1302 C1303 1.389 . S
C1303 C1302 1.389 . S
C1303 C1304 1.387 . S
C1304 H1289 0.930 . S
C1304 C1299 1.390 . S
C1304 C1303 1.387 . S
H1305 C1317 0.930 . S
H1306 C1319 0.930 . S
H1307 C1320 0.930 . S
H1308 C1324 0.959 . S
H1309 C1324 0.959 . S
H1310 C1324 0.961 . S
H1311 C1325 0.960 . S
H1312 C1325 0.961 . S
H1313 C1325 0.959 . S
H1314 C1328 0.929 . S
H1315 C1329 0.931 . S
H1316 C1331 0.930 . S
C1317 H1305 0.930 . S
C1317 C1318 1.399 . S
C1317 C1322 1.399 . S
C1318 C1317 1.399 . S
C1318 C1319 1.376 . S
C1319 H1306 0.930 . S
C1319 C1318 1.376 . S
C1319 C1320 1.388 . S
C1320 H1307 0.930 . S
C1320 C1319 1.388 . S
C1320 C1321 1.390 . S
C1321 C1320 1.390 . S
C1321 C1322 1.394 . S
C1321 C1327 1.465 . S
C1322 C1317 1.399 . S
C1322 C1321 1.394 . S
C1322 C1323 1.516 . S
C1323 C1322 1.516 . S
C1323 C1324 1.502 . S
C1323 C1325 1.561 . S
C1323 C1326 1.526 . S
C1324 H1308 0.959 . S
C1324 H1309 0.959 . S
C1324 H1310 0.961 . S
C1324 C1323 1.502 . S
C1325 H1311 0.960 . S
C1325 H1312 0.961 . S
C1325 H1313 0.959 . S
C1325 C1323 1.561 . S
C1326 C1323 1.526 . S
C1326 C1327 1.396 . S
C1326 C1331 1.390 . S
C1327 C1321 1.465 . S
C1327 C1326 1.396 . S
C1327 C1328 1.399 . S
C1328 H1314 0.929 . S
C1328 C1327 1.399 . S
C1328 C1329 1.385 . S
C1329 H1315 0.931 . S
C1329 C1328 1.385 . S
C1329 C1330 1.389 . S
C1330 C1329 1.389 . S
C1330 C1331 1.387 . S
C1331 H1316 0.930 . S
C1331 C1326 1.390 . S
C1331 C1330 1.387 . S
H1332 C1344 0.930 . S
H1333 C1346 0.930 . S
H1334 C1347 0.930 . S
H1335 C1351 0.959 . S
H1336 C1351 0.959 . S
H1337 C1351 0.961 . S
H1338 C1352 0.960 . S
H1339 C1352 0.961 . S
H1340 C1352 0.959 . S
H1341 C1355 0.929 . S
H1342 C1356 0.931 . S
H1343 C1358 0.930 . S
C1344 H1332 0.930 . S
C1344 C1345 1.399 . S
C1344 C1349 1.399 . S
C1345 C1344 1.399 . S
C1345 C1346 1.376 . S
C1346 H1333 0.930 . S
C1346 C1345 1.376 . S
C1346 C1347 1.388 . S
C1347 H1334 0.930 . S
C1347 C1346 1.388 . S
C1347 C1348 1.390 . S
C1348 C1347 1.390 . S
C1348 C1349 1.394 . S
C1348 C1354 1.465 . S
C1349 C1344 1.399 . S
C1349 C1348 1.394 . S
C1349 C1350 1.516 . S
C1350 C1349 1.516 . S
C1350 C1351 1.502 . S
C1350 C1352 1.561 . S
C1350 C1353 1.526 . S
C1351 H1335 0.959 . S
C1351 H1336 0.959 . S
C1351 H1337 0.961 . S
C1351 C1350 1.502 . S
C1352 H1338 0.960 . S
C1352 H1339 0.961 . S
C1352 H1340 0.959 . S
C1352 C1350 1.561 . S
C1353 C1350 1.526 . S
C1353 C1354 1.396 . S
C1353 C1358 1.390 . S
C1354 C1348 1.465 . S
C1354 C1353 1.396 . S
C1354 C1355 1.399 . S
C1355 H1341 0.929 . S
C1355 C1354 1.399 . S
C1355 C1356 1.385 . S
C1356 H1342 0.931 . S
C1356 C1355 1.385 . S
C1356 C1357 1.389 . S
C1357 C1356 1.389 . S
C1357 C1358 1.387 . S
C1358 H1343 0.930 . S
C1358 C1353 1.390 . S
C1358 C1357 1.387 . S
H1359 C1371 0.930 . S
H1360 C1373 0.930 . S
H1361 C1374 0.930 . S
H1362 C1378 0.959 . S
H1363 C1378 0.959 . S
H1364 C1378 0.961 . S
H1365 C1379 0.960 . S
H1366 C1379 0.961 . S
H1367 C1379 0.959 . S
H1368 C1382 0.929 . S
H1369 C1383 0.931 . S
H1370 C1385 0.930 . S
C1371 H1359 0.930 . S
C1371 C1372 1.399 . S
C1371 C1376 1.399 . S
C1372 C1371 1.399 . S
C1372 C1373 1.376 . S
C1373 H1360 0.930 . S
C1373 C1372 1.376 . S
C1373 C1374 1.388 . S
C1374 H1361 0.930 . S
C1374 C1373 1.388 . S
C1374 C1375 1.390 . S
C1375 C1374 1.390 . S
C1375 C1376 1.394 . S
C1375 C1381 1.465 . S
C1376 C1371 1.399 . S
C1376 C1375 1.394 . S
C1376 C1377 1.516 . S
C1377 C1376 1.516 . S
C1377 C1378 1.502 . S
C1377 C1379 1.561 . S
C1377 C1380 1.526 . S
C1378 H1362 0.959 . S
C1378 H1363 0.959 . S
C1378 H1364 0.961 . S
C1378 C1377 1.502 . S
C1379 H1365 0.960 . S
C1379 H1366 0.961 . S
C1379 H1367 0.959 . S
C1379 C1377 1.561 . S
C1380 C1377 1.526 . S
C1380 C1381 1.396 . S
C1380 C1385 1.390 . S
C1381 C1375 1.465 . S
C1381 C1380 1.396 . S
C1381 C1382 1.399 . S
C1382 H1368 0.929 . S
C1382 C1381 1.399 . S
C1382 C1383 1.385 . S
C1383 H1369 0.931 . S
C1383 C1382 1.385 . S
C1383 C1384 1.389 . S
C1384 C1383 1.389 . S
C1384 C1385 1.387 . S
C1385 H1370 0.930 . S
C1385 C1380 1.390 . S
C1385 C1384 1.387 . S
H1386 C1398 0.930 . S
H1387 C1400 0.930 . S
H1388 C1401 0.930 . S
H1389 C1405 0.959 . S
H1390 C1405 0.959 . S
H1391 C1405 0.961 . S
H1392 C1406 0.960 . S
H1393 C1406 0.961 . S
H1394 C1406 0.959 . S
H1395 C1409 0.929 . S
H1396 C1410 0.931 . S
H1397 C1412 0.930 . S
C1398 H1386 0.930 . S
C1398 C1399 1.399 . S
C1398 C1403 1.399 . S
C1399 C1398 1.399 . S
C1399 C1400 1.376 . S
C1400 H1387 0.930 . S
C1400 C1399 1.376 . S
C1400 C1401 1.388 . S
C1401 H1388 0.930 . S
C1401 C1400 1.388 . S
C1401 C1402 1.390 . S
C1402 C1401 1.390 . S
C1402 C1403 1.394 . S
C1402 C1408 1.465 . S
C1403 C1398 1.399 . S
C1403 C1402 1.394 . S
C1403 C1404 1.516 . S
C1404 C1403 1.516 . S
C1404 C1405 1.502 . S
C1404 C1406 1.561 . S
C1404 C1407 1.526 . S
C1405 H1389 0.959 . S
C1405 H1390 0.959 . S
C1405 H1391 0.961 . S
C1405 C1404 1.502 . S
C1406 H1392 0.960 . S
C1406 H1393 0.961 . S
C1406 H1394 0.959 . S
C1406 C1404 1.561 . S
C1407 C1404 1.526 . S
C1407 C1408 1.396 . S
C1407 C1412 1.390 . S
C1408 C1402 1.465 . S
C1408 C1407 1.396 . S
C1408 C1409 1.399 . S
C1409 H1395 0.929 . S
C1409 C1408 1.399 . S
C1409 C1410 1.385 . S
C1410 H1396 0.931 . S
C1410 C1409 1.385 . S
C1410 C1411 1.389 . S
C1411 C1410 1.389 . S
C1411 C1412 1.387 . S
C1412 H1397 0.930 . S
C1412 C1407 1.390 . S
C1412 C1411 1.387 . S
H1413 C1425 0.930 . S
H1414 C1427 0.930 . S
H1415 C1428 0.930 . S
H1416 C1432 0.959 . S
H1417 C1432 0.959 . S
H1418 C1432 0.961 1_554 S
H1419 C1433 0.960 1_554 S
H1420 C1433 0.961 . S
H1421 C1433 0.959 . S
H1422 C1436 0.929 . S
H1423 C1437 0.931 . S
H1424 C1439 0.930 . S
C1425 H1413 0.930 . S
C1425 C1426 1.399 . S
C1425 C1430 1.399 . S
C1426 C1425 1.399 . S
C1426 C1427 1.376 . S
C1427 H1414 0.930 . S
C1427 C1426 1.376 . S
C1427 C1428 1.388 . S
C1428 H1415 0.930 . S
C1428 C1427 1.388 . S
C1428 C1429 1.390 . S
C1429 C1428 1.390 . S
C1429 C1430 1.394 . S
C1429 C1435 1.465 . S
C1430 C1425 1.399 . S
C1430 C1429 1.394 . S
C1430 C1431 1.516 . S
C1431 C1430 1.516 . S
C1431 C1432 1.502 . S
C1431 C1433 1.561 . S
C1431 C1434 1.526 . S
C1432 H1416 0.959 . S
C1432 H1417 0.959 . S
C1432 H1418 0.961 1_556 S
C1432 C1431 1.502 . S
C1433 H1419 0.960 1_556 S
C1433 H1420 0.961 . S
C1433 H1421 0.959 . S
C1433 C1431 1.561 . S
C1434 C1431 1.526 . S
C1434 C1435 1.396 . S
C1434 C1439 1.390 . S
C1435 C1429 1.465 . S
C1435 C1434 1.396 . S
C1435 C1436 1.399 . S
C1436 H1422 0.929 . S
C1436 C1435 1.399 . S
C1436 C1437 1.385 . S
C1437 H1423 0.931 . S
C1437 C1436 1.385 . S
C1437 C1438 1.389 . S
C1438 C1437 1.389 . S
C1438 C1439 1.387 . S
C1439 H1424 0.930 . S
C1439 C1434 1.390 . S
C1439 C1438 1.387 . S
C589 C3 1.361 . S
C601 C435 1.352 . S
C616 C38 1.313 . S
C628 C182 1.308 . S
C643 C74 1.285 . S
C655 C506 1.334 . S
C670 C255 1.360 . S
C682 C111 1.365 . S
C697 C507 1.356 . S
C709 C75 1.365 . S
C724 C254 1.336 . S
C736 C110 1.277 . S
C751 C434 1.335 . S
C763 C2 1.282 . S
C778 C183 1.362 . S
C790 C39 1.352 . S
C805 C147 1.352 . S
C817 C291 1.356 . S
C832 C218 1.325 . S
C844 C362 1.298 . S
C859 C363 1.361 . S
C871 C219 1.363 . S
C886 C146 1.293 . S
C898 C290 1.326 . S
C913 C470 1.322 . S
C925 C326 1.297 . S
C940 C399 1.368 . S
C952 C543 1.356 . S
C967 C398 1.314 . S
C979 C542 1.291 . S
C994 C327 1.350 . S
C1006 C471 1.364 . S
C1021 C400 1.462 . S
C1033 C14 1.438 . S
C1048 C292 1.467 . S
C1060 C40 1.432 . S
C1075 C76 1.454 . S
C1087 C338 1.433 . S
C1102 C374 1.472 . S
C1114 C122 1.453 . S
C1129 C410 1.417 . S
C1141 C86 1.474 . S
C1156 C112 1.474 . S
C1168 C302 1.464 . S
C1183 C328 1.455 . S
C1195 C4 1.433 . S
C1210 C364 1.464 . S
C1222 C50 1.441 . S
C1237 C158 1.442 . S
C1249 C544 1.453 . S
C1264 C436 1.474 . S
C1276 C184 1.437 . S
C1291 C220 1.445 . S
C1303 C482 1.418 . S
C1318 C266 1.479 . S
C1330 C518 1.438 . S
C1345 C230 1.421 . S
C1357 C554 1.467 . S
C1372 C446 1.434 . S
C1384 C256 1.450 . S
C1399 C472 1.447 . S
C1411 C148 1.450 . S
C1426 C508 1.445 . S
C1438 C194 1.417 . S
