# Generated by pormake.
# Topology rkf, (6)-cn, num edge types: 1
# Building blocks:
#     Node 0, Type 0, BuildingBlock: NUHQIS_clean_sbu_0, # of connection points: 6
#     Node 1, Type 0, BuildingBlock: NUHQIS_clean_sbu_0, # of connection points: 6
#     Node 2, Type 0, BuildingBlock: NUHQIS_clean_sbu_0, # of connection points: 6
#     Node 3, Type 0, BuildingBlock: NUHQIS_clean_sbu_0, # of connection points: 6
#     Node 4, Type 0, BuildingBlock: NUHQIS_clean_sbu_0, # of connection points: 6
#     Node 5, Type 0, BuildingBlock: NUHQIS_clean_sbu_0, # of connection points: 6
#     Edge 6, Type (0, 0), BuildingBlock: UVAHIK_clean_linker_0, # of connection points: 2
#     Edge 7, Type (0, 0), BuildingBlock: UVAHIK_clean_linker_0, # of connection points: 2
#     Edge 8, Type (0, 0), BuildingBlock: UVAHIK_clean_linker_0, # of connection points: 2
#     Edge 9, Type (0, 0), BuildingBlock: UVAHIK_clean_linker_0, # of connection points: 2
#     Edge 10, Type (0, 0), BuildingBlock: UVAHIK_clean_linker_0, # of connection points: 2
#     Edge 11, Type (0, 0), BuildingBlock: UVAHIK_clean_linker_0, # of connection points: 2
#     Edge 12, Type (0, 0), BuildingBlock: UVAHIK_clean_linker_0, # of connection points: 2
#     Edge 13, Type (0, 0), BuildingBlock: UVAHIK_clean_linker_0, # of connection points: 2
#     Edge 14, Type (0, 0), BuildingBlock: UVAHIK_clean_linker_0, # of connection points: 2
#     Edge 15, Type (0, 0), BuildingBlock: UVAHIK_clean_linker_0, # of connection points: 2
#     Edge 16, Type (0, 0), BuildingBlock: UVAHIK_clean_linker_0, # of connection points: 2
#     Edge 17, Type (0, 0), BuildingBlock: UVAHIK_clean_linker_0, # of connection points: 2
#     Edge 18, Type (0, 0), BuildingBlock: UVAHIK_clean_linker_0, # of connection points: 2
#     Edge 19, Type (0, 0), BuildingBlock: UVAHIK_clean_linker_0, # of connection points: 2
#     Edge 20, Type (0, 0), BuildingBlock: UVAHIK_clean_linker_0, # of connection points: 2
#     Edge 21, Type (0, 0), BuildingBlock: UVAHIK_clean_linker_0, # of connection points: 2
#     Edge 22, Type (0, 0), BuildingBlock: UVAHIK_clean_linker_0, # of connection points: 2
#     Edge 23, Type (0, 0), BuildingBlock: UVAHIK_clean_linker_0, # of connection points: 2
# Relax obj value: 0.538
# Max RMSD: 0.255
# Mean RMSD: 0.255
data_MOF--net-rkf--node1-NUHQIS_clean_sbu_0--edge1-UVAHIK_clean_linker_0
_symmetry_space_group_name_H-M    P1
_symmetry_Int_Tables_number       1
_symmetry_cell_setting            triclinic
loop_
_symmetry_equiv_pos_as_xyz
'x, y, z'
_cell_length_a     31.273214
_cell_length_b     30.836962
_cell_length_c     57.882248
_cell_angle_alpha  89.705091
_cell_angle_beta   90.371581
_cell_angle_gamma 119.05673
loop_
_atom_site_label
_atom_site_type_symbol
_atom_site_fract_x
_atom_site_fract_y
_atom_site_fract_z
_atom_type_partial_charge
Tb0 Tb 0.31323 0.15638 0.12479 0.0
Eu1 Eu 0.37473 0.2726 0.11125 0.0
C2 C 0.26389 0.22331 0.12522 0.0
C3 C 0.33108 0.18671 1.07243 0.0
C4 C 0.22285 0.02339 0.14407 0.0
C5 C 0.13586 0.96449 0.14707 0.0
C6 C 0.17407 0.00768 0.13751 0.0
C7 C 0.2325 -0.00431 0.16052 0.0
C8 C 0.19447 0.9528 0.17004 0.0
C9 C 0.14586 0.93642 0.16321 0.0
C10 C 0.26455 0.06388 0.1319 0.0
O11 O 0.38939 0.17829 0.13198 0.0
O12 O 0.42499 0.24033 0.10543 0.0
O13 O 0.37888 0.2698 0.15099 0.0
O14 O 0.31366 0.19205 0.15782 0.0
C15 C 0.42686 0.20732 0.11911 0.0
O16 O 0.44403 0.34199 0.11003 0.0
O17 O 0.37796 0.33884 1.09619 0.0
O18 O 0.30626 0.26303 0.12793 0.0
O19 O 0.26145 0.18281 0.11664 0.0
O20 O 0.33524 0.15879 1.08859 0.0
O21 O 0.3361 0.23031 1.07819 0.0
C22 C 0.34668 0.23639 0.16539 0.0
O23 O 0.25557 0.08677 0.11518 0.0
O24 O 0.30231 0.09407 0.14421 0.0
C25 C 0.45103 0.38924 1.07679 0.0
C26 C 0.49021 0.43609 1.03425 0.0
C27 C 0.49928 0.46427 1.05456 0.0
C28 C 0.47963 0.44095 1.07567 0.0
C29 C 0.44408 0.36082 1.05692 0.0
C30 C 0.46326 0.38397 1.03584 0.0
C31 C 0.42546 0.36501 1.09814 0.0
H32 H 0.09866 0.95234 0.14148 0.0
H33 H 0.16549 0.02789 0.12461 0.0
H34 H 0.26976 0.00652 0.16562 0.0
H35 H 0.20314 0.93227 0.18274 0.0
H36 H 0.52036 0.50436 1.05404 0.0
H37 H 0.48549 0.46335 1.09095 0.0
H38 H 0.42202 0.32077 1.05751 0.0
H39 H 0.45458 0.36092 1.02061 0.0
Tb40 Tb 0.2792 0.33065 0.45703 0.0
Eu41 Eu 0.27048 0.42951 0.44629 0.0
C42 C 0.18685 0.32364 0.43025 0.0
C43 C 0.29416 0.36897 0.40544 0.0
C44 C 0.32588 0.24995 0.48168 0.0
C45 C 0.3402 0.19776 0.50857 0.0
C46 C 0.30846 0.20602 0.49447 0.0
C47 C 0.37567 0.28559 0.48308 0.0
C48 C 0.40756 0.27715 0.49699 0.0
C49 C 0.3902 0.23318 0.50999 0.0
C50 C 0.29189 0.25777 0.46682 0.0
O51 O 0.35355 0.39422 0.45778 0.0
O52 O 0.33235 0.45003 0.47092 0.0
O53 O 0.22825 0.39861 0.48006 0.0
O54 O 0.26494 0.35279 0.49088 0.0
C55 C 0.36571 0.43716 0.46737 0.0
O56 O 0.31089 0.5081 0.43772 0.0
O57 O 0.23247 0.47281 0.44289 0.0
O58 O 0.20956 0.37123 0.42609 0.0
O59 O 0.20321 0.30325 0.44561 0.0
O60 O 0.27785 0.33073 0.41949 0.0
O61 O 0.30173 0.41274 0.4131 0.0
C62 C 0.23698 0.37257 0.49579 0.0
O63 O 0.26021 0.26677 0.47722 0.0
O64 O 0.31125 0.28679 0.44909 0.0
C65 C 0.26603 0.5267 0.41067 0.0
C66 C 0.2671 0.5291 0.36221 0.0
C67 C 0.30872 0.56237 0.37469 0.0
C68 C 0.30812 0.56132 0.39884 0.0
C69 C 0.22254 0.49882 0.39809 0.0
C70 C 0.22315 0.49999 0.37403 0.0
C71 C 0.27103 0.51106 0.43426 0.0
H72 H 0.32524 0.164 0.51873 0.0
H73 H 0.27016 0.1782 0.49367 0.0
H74 H 0.39002 0.31996 0.4734 0.0
H75 H 0.44583 0.30503 0.49749 0.0
H76 H 0.34298 0.58534 0.36591 0.0
H77 H 0.342 0.58369 0.40813 0.0
H78 H 0.18918 0.47236 0.40661 0.0
H79 H 0.19035 0.47467 0.36467 0.0
Tb80 Tb 0.07946 0.28072 0.78555 0.0
Eu81 Eu 0.97462 0.27773 0.77731 0.0
C82 C 0.98047 0.17891 0.77614 0.0
C83 C 0.04722 0.28676 0.73485 0.0
C84 C 0.20762 0.32048 0.80348 0.0
C85 C 0.29395 0.35095 0.81094 0.0
C86 C 0.25129 0.32021 0.79862 0.0
C87 C 0.20708 0.35248 0.82043 0.0
C88 C 0.24962 0.38308 0.83283 0.0
C89 C 0.2935 0.38239 0.82836 0.0
C90 C 0.16306 0.28773 0.79059 0.0
O91 O 0.09451 0.35799 0.78426 0.0
O92 O 0.0212 0.34736 0.79695 0.0
O93 O 0.97149 0.24714 0.81376 0.0
O94 O 0.05346 0.27787 0.82114 0.0
C95 C 0.06773 0.37609 0.79294 0.0
O96 O 0.93326 0.30946 0.76041 0.0
O97 O 0.89734 0.24902 0.78472 0.0
O98 O 0.95897 0.20197 0.76677 0.0
O99 O 0.02414 0.20264 0.78576 0.0
O100 O 0.06468 0.26525 0.74874 0.0
O101 O 0.01698 0.30147 0.74298 0.0
C102 C 0.00748 0.25507 0.82819 0.0
O103 O 0.12502 0.2587 0.8029 0.0
O104 O 0.15162 0.30877 0.77395 0.0
C105 C 0.85211 0.24918 0.75201 0.0
C106 C 0.78498 0.20136 0.71582 0.0
C107 C 0.79858 0.25058 0.72176 0.0
C108 C 0.83184 0.27426 0.73978 0.0
C109 C 0.83707 0.19942 0.7467 0.0
C110 C 0.80367 0.17571 0.72888 0.0
C111 C 0.89159 0.27602 0.76891 0.0
H112 H 0.32721 0.34992 0.8069 0.0
H113 H 0.25232 0.296 0.78539 0.0
H114 H 0.1736 0.35329 0.82428 0.0
H115 H 0.24771 0.40618 0.84636 0.0
H116 H 0.7847 0.2712 0.712 0.0
H117 H 0.84306 0.31268 0.74361 0.0
H118 H 0.85251 0.17931 0.75572 0.0
H119 H 0.79477 0.13814 0.72447 0.0
Tb120 Tb 0.92344 0.10022 0.12054 0.0
Eu121 Eu 0.83028 0.99012 0.11092 0.0
C122 C 0.93617 0.00381 0.1185 0.0
C123 C 0.89144 0.06635 1.06833 0.0
C124 C 0.03937 0.2115 0.14086 0.0
C125 C 0.12646 0.26953 0.14312 0.0
C126 C 0.08459 0.24039 0.13003 0.0
C127 C 0.03695 0.21031 0.16506 0.0
C128 C 0.07877 0.23962 0.17816 0.0
C129 C 0.12372 0.27043 0.1673 0.0
C130 C -0.00476 0.18563 0.12643 0.0
O131 O 0.85978 0.10957 0.11297 0.0
O132 O 0.80365 0.03674 0.12867 0.0
O133 O 0.84763 0.98766 0.14924 0.0
O134 O 0.90526 0.06941 0.15601 0.0
C135 C 0.81627 0.08168 0.12174 0.0
O136 O 0.75318 0.94802 0.10156 0.0
O137 O 0.79316 0.90909 0.10994 0.0
O138 O 0.89532 0.9787 0.10694 0.0
O139 O 0.9497 0.04793 0.12717 0.0
O140 O 0.92648 0.09197 1.08326 0.0
O141 O 0.84948 0.02873 1.07526 0.0
C142 C 0.87723 0.02333 0.16345 0.0
O143 O -0.005 0.15345 0.11187 0.0
O144 O 0.95274 0.17009 0.13627 0.0
C145 C 0.73191 0.87371 1.08134 0.0
C146 C 0.70154 0.81443 1.04136 0.0
C147 C 0.71247 0.86433 1.04039 0.0
C148 C 0.72774 0.89376 1.06015 0.0
C149 C 0.71883 0.82332 1.0826 0.0
C150 C 0.70397 0.7939 1.06274 0.0
C151 C 0.75256 0.90541 0.10182 0.0
H152 H 0.16072 0.29222 0.13431 0.0
H153 H 0.08727 0.24147 0.11136 0.0
H154 H 0.00257 0.18796 0.17386 0.0
H155 H 0.07532 0.23976 0.19676 0.0
H156 H 0.71189 0.88146 1.02409 0.0
H157 H 0.73789 0.93261 1.05862 0.0
H158 H 0.72171 0.80715 1.09881 0.0
H159 H 0.69576 0.75556 1.06394 0.0
Tb160 Tb 0.94929 0.93852 0.45794 0.0
Eu161 Eu 0.96681 0.84523 0.44624 0.0
C162 C 0.04282 0.95414 0.43008 0.0
C163 C 0.93539 0.90171 0.40582 0.0
C164 C 0.90162 0.01573 0.48513 0.0
C165 C 0.85518 0.05704 0.49509 0.0
C166 C 0.88634 0.05054 0.48007 0.0
C167 C 0.88495 0.98688 0.50525 0.0
C168 C 0.85396 0.99353 0.52038 0.0
C169 C 0.83885 0.02885 0.51551 0.0
C170 C 0.9329 0.00844 0.46862 0.0
O171 O 0.87699 0.87221 0.45837 0.0
O172 O 0.90151 0.81676 0.46913 0.0
O173 O 0.0078 0.8773 0.48037 0.0
O174 O 0.96252 0.91357 0.49166 0.0
C175 C 0.86691 0.82843 0.46645 0.0
O176 O 0.93194 0.76686 0.43733 0.0
O177 O 0.01085 0.80855 0.44144 0.0
O178 O 0.02316 0.90689 0.42566 0.0
O179 O 0.02538 0.97136 0.44618 0.0
O180 O 0.94676 0.9386 0.42024 0.0
O181 O 0.9338 0.85997 0.413 0.0
C182 C -0.00572 0.89822 0.49658 0.0
O183 O 0.96886 0.00323 0.47714 0.0
O184 O 0.90963 0.97631 0.45243 0.0
C185 C 0.97826 0.75584 0.40919 0.0
C186 C 0.96823 0.7333 0.36178 0.0
C187 C 0.95131 0.69496 0.37828 0.0
C188 C 0.95592 0.70622 0.40192 0.0
C189 C -0.00266 0.79395 0.39265 0.0
C190 C -0.00755 0.78281 0.36923 0.0
C191 C 0.97364 0.76847 0.43313 0.0
H192 H 0.84369 0.08399 0.49065 0.0
H193 H 0.89834 0.07256 0.46441 0.0
H194 H 0.89598 0.95937 0.50928 0.0
H195 H 0.84263 0.97168 0.53609 0.0
H196 H 0.93264 0.65651 0.37289 0.0
H197 H 0.94014 0.67635 0.41444 0.0
H198 H 0.014 0.8325 0.39777 0.0
H199 H 0.00661 0.81308 0.35687 0.0
Tb200 Tb 0.13541 0.95502 0.79034 0.0
Eu201 Eu 0.25297 0.00537 0.78076 0.0
C202 C 0.19947 0.06522 0.78932 0.0
C203 C 0.17276 0.96586 0.73833 0.0
C204 C 0.00507 0.89773 0.81115 0.0
C205 C 0.97456 0.87139 0.84997 0.0
C206 C 0.01381 0.89623 0.83484 0.0
C207 C 0.95706 0.87328 0.80267 0.0
C208 C 0.9179 0.84807 0.8177 0.0
C209 C 0.92609 0.84721 0.84157 0.0
C210 C 0.04503 0.92451 0.79483 0.0
O211 O 0.15331 0.89813 0.80103 0.0
O212 O 0.2208 0.92212 0.77818 0.0
O213 O 0.24681 -0.00036 0.82021 0.0
O214 O 0.1659 0.97907 0.82551 0.0
C215 C 0.18497 0.88839 0.79068 0.0
O216 O 0.32154 0.00267 0.78159 0.0
O217 O 0.32037 0.06855 0.76905 0.0
O218 O 0.23773 0.06294 0.79661 0.0
O219 O 0.16985 0.02917 0.77588 0.0
O220 O 0.13964 0.93864 0.7538 0.0
O221 O 0.21733 -0.00065 0.74499 0.0
C222 C 0.21039 0.9934 0.83387 0.0
O223 O 0.07901 0.96874 0.80086 0.0
O224 O 0.06308 0.89874 0.78531 0.0
C225 C 0.3767 0.04935 0.75206 0.0
C226 C 0.43547 0.07013 0.71253 0.0
C227 C 0.38416 0.04153 0.71086 0.0
C228 C 0.35506 0.03119 0.73047 0.0
C229 C 0.42775 0.0752 0.75412 0.0
C230 C 0.45701 0.08541 0.73451 0.0
C231 C 0.34635 0.04615 0.77184 0.0
H232 H 0.98215 0.87212 0.86829 0.0
H233 H 0.05081 0.91492 0.84164 0.0
H234 H 0.94983 0.87382 0.78436 0.0
H235 H 0.88119 0.82922 0.8106 0.0
H236 H 0.36615 0.02981 0.69424 0.0
H237 H 0.31559 0.01127 0.72861 0.0
H238 H 0.44494 0.08936 0.77074 0.0
H239 H 0.49635 0.10697 0.73642 0.0
C240 C 0.9408 0.95285 0.1496 0.0
C241 C 0.96044 0.97788 0.12869 0.0
C242 C 0.97193 0.95933 0.16829 0.0
C243 C 0.03609 0.06029 0.1893 0.0
H244 H 0.17341 0.09909 0.18721 0.0
C245 C 0.17472 0.1834 0.13188 0.0
C246 C 0.22216 0.21728 0.13911 0.0
C247 C 0.13811 0.15904 0.14821 0.0
C248 C 0.13516 0.08869 0.18916 0.0
H249 H 0.02653 0.01738 0.10879 0.0
H250 H 0.0806 0.02597 0.14053 0.0
H251 H 0.11302 0.01218 0.18385 0.0
H252 H 0.26642 0.25949 0.16824 0.0
H253 H 0.20391 0.21196 0.19709 0.0
H254 H 0.05839 0.13768 0.18947 0.0
C255 C 0.04163 0.00285 0.14318 0.0
C256 C 0.10043 0.03856 0.18723 0.0
C257 C 0.0106 -0.00204 0.12479 0.0
C258 C 0.23038 0.23224 0.16238 0.0
C259 C 0.19464 0.20554 0.17891 0.0
C260 C 0.07076 0.11047 0.19044 0.0
C261 C 0.02261 0.98946 0.16568 0.0
C262 C 0.05098 0.02506 0.18413 0.0
C263 C 0.14929 0.16678 0.17192 0.0
C264 C 0.12023 0.12488 0.18744 0.0
H265 H 0.90197 0.93666 0.1529 0.0
H266 H 0.95628 0.94829 0.18537 0.0
H267 H -0.00181 0.05094 0.18731 0.0
H268 H 0.16739 0.17162 0.11401 0.0
H269 H 0.10317 0.1291 0.14245 0.0
C270 C 0.10563 0.03853 0.41734 0.0
C271 C 0.07484 0.98846 0.41222 0.0
C272 C 0.12368 0.07336 0.39952 0.0
C273 C 0.1539 0.14029 0.35713 0.0
H274 H 0.03014 0.14024 0.36031 0.0
C275 C 0.15885 0.3077 0.38945 0.0
C276 C 0.15165 0.29158 0.41266 0.0
C277 C 0.13923 0.27335 0.37153 0.0
C278 C 0.06476 0.14087 0.35787 0.0
H279 H 0.04276 0.93465 0.38442 0.0
H280 H 0.07142 -0.00378 0.35357 0.0
H281 H 0.03102 0.06197 0.35963 0.0
H282 H 0.1124 0.22873 0.43536 0.0
H283 H 0.07629 0.16896 0.40414 0.0
H284 H 0.18779 0.21916 0.3582 0.0
C285 C 0.08318 0.00818 0.37115 0.0
C286 C 0.06541 0.09597 0.35752 0.0
C287 C 0.06662 0.97314 0.38893 0.0
C288 C 0.11861 0.24197 0.41767 0.0
C289 C 0.09764 0.20793 0.39973 0.0
C290 C 0.1532 0.18516 0.35671 0.0
C291 C 0.10982 0.05869 0.37644 0.0
C292 C 0.11008 0.09596 0.36041 0.0
C293 C 0.1108 0.22285 0.37663 0.0
C294 C 0.10886 0.18531 0.36042 0.0
H295 H 0.11247 0.05118 0.43509 0.0
H296 H 0.14356 0.11234 0.40404 0.0
H297 H 0.18873 0.14098 0.35896 0.0
H298 H 0.18433 0.34587 0.38502 0.0
H299 H 0.15037 0.28552 0.35392 0.0
C300 C 0.18445 0.08996 0.82826 0.0
C301 C 0.17753 0.08789 0.80411 0.0
C302 C 0.14881 0.08957 0.84295 0.0
C303 C 0.02557 0.02571 0.84365 0.0
H304 H -0.00566 0.13187 0.84919 0.0
C305 C 0.96632 0.0934 0.77958 0.0
C306 C 0.95008 0.12758 0.78381 0.0
C307 C 0.96025 0.05842 0.79645 0.0
C308 C 0.00153 0.10088 0.84879 0.0
H309 H 0.1339 0.09389 0.77642 0.0
H310 H 0.07418 0.09754 0.80195 0.0
H311 H 0.0778 0.14926 0.85495 0.0
H312 H 0.90632 0.14605 0.80635 0.0
H313 H 0.89982 0.08825 0.83666 0.0
H314 H 0.95174 0.98011 0.83236 0.0
C315 C 0.10544 0.09648 0.80953 0.0
C316 C 0.0498 0.11115 0.85216 0.0
C317 C 0.13971 0.09475 0.79493 0.0
C318 C 0.91952 0.12012 0.80284 0.0
C319 C 0.91543 0.08669 0.82023 0.0
C320 C 0.97763 0.01589 0.83946 0.0
C321 C 0.10786 0.0902 0.83347 0.0
C322 C 0.06281 0.07495 0.84673 0.0
C323 C 0.94098 0.06 0.81822 0.0
C324 C 0.96755 0.05556 0.83858 0.0
H325 H 0.21439 0.08652 0.83577 0.0
H326 H 0.15149 0.08535 0.86141 0.0
H327 H 0.03492 -0.00298 0.83982 0.0
H328 H 0.9898 0.09839 0.76498 0.0
H329 H 0.97944 0.03749 0.79406 0.0
C330 C 0.49707 0.50165 1.00625 0.0
C331 C 0.50318 0.46024 1.01111 0.0
C332 C 0.4972 0.51679 0.98345 0.0
C333 C 0.50861 0.48619 0.92168 0.0
H334 H 0.39057 0.4966 0.91474 0.0
C335 C 0.36587 0.39066 0.85084 0.0
C336 C 0.33747 0.4118 0.84296 0.0
C337 C 0.40271 0.41506 0.86727 0.0
C338 C 0.42434 0.49503 0.91617 0.0
H339 H 0.52118 0.40689 0.99603 0.0
H340 H 0.5185 0.43112 0.95641 0.0
H341 H 0.42857 0.50874 0.9523 0.0
H342 H 0.32853 0.47722 0.84458 0.0
H343 H 0.39241 0.51945 0.87364 0.0
H344 H 0.50142 0.4684 0.88559 0.0
C345 C 0.51402 0.45245 0.97005 0.0
C346 C 0.44643 0.50217 0.93783 0.0
C347 C 0.51473 0.43789 0.99285 0.0
C348 C 0.349 0.45942 0.85071 0.0
C349 C 0.38575 0.48375 0.86722 0.0
C350 C 0.48613 0.47854 0.89998 0.0
C351 C 0.50254 0.49031 0.96499 0.0
C352 C 0.48758 0.49563 0.94112 0.0
C353 C 0.41185 0.46105 0.87624 0.0
C354 C 0.44257 0.48082 0.89727 0.0
H355 H 0.48835 0.52008 1.01982 0.0
H356 H 0.48975 0.54712 0.98024 0.0
H357 H 0.54094 0.48205 0.92344 0.0
H358 H 0.35774 0.35386 0.84543 0.0
H359 H 0.42166 0.39623 0.87409 0.0
C360 C 0.2572 0.46709 0.33274 0.0
C361 C 0.27189 0.51669 0.33812 0.0
C362 C 0.26323 0.45397 0.31058 0.0
C363 C 0.26206 0.4847 0.25146 0.0
H364 H 0.29943 0.38271 0.24351 0.0
C365 C 0.19345 0.35612 0.1736 0.0
C366 C 0.16604 0.30662 0.1811 0.0
C367 C 0.22733 0.39238 0.18837 0.0
C368 C 0.28966 0.41174 0.24531 0.0
H369 H 0.30536 0.59179 0.32482 0.0
H370 H 0.31441 0.56823 0.28521 0.0
H371 H 0.32068 0.43085 0.27925 0.0
H372 H 0.15564 0.25562 0.20913 0.0
H373 H 0.21465 0.31853 0.23482 0.0
H374 H 0.22747 0.46304 0.21838 0.0
C375 C 0.29872 0.53987 0.29844 0.0
C376 C 0.30186 0.43922 0.26568 0.0
C377 C 0.29336 0.55324 0.32092 0.0
C378 C 0.17593 0.29348 0.20294 0.0
C379 C 0.21016 0.32953 0.21757 0.0
C380 C 0.24978 0.45715 0.23106 0.0
C381 C 0.28393 0.49008 0.2932 0.0
C382 C 0.28557 0.47376 0.26945 0.0
C383 C 0.23471 0.37967 0.21079 0.0
C384 C 0.26095 0.4184 0.22843 0.0
H385 H 0.24148 0.43831 0.3458 0.0
H386 H 0.25065 0.41518 0.30692 0.0
H387 H 0.249 0.51106 0.25399 0.0
H388 H 0.18644 0.36754 0.15692 0.0
H389 H 0.24592 0.4307 0.1827 0.0
C390 C 0.77118 0.20597 0.67358 0.0
C391 C 0.7573 0.17874 0.69428 0.0
C392 C 0.75489 0.18199 0.65239 0.0
C393 C 0.72562 0.06162 0.62933 0.0
H394 H 0.7244 0.12486 0.57146 0.0
C395 C 0.77022 -0.00164 0.54429 0.0
C396 C 0.80808 0.03785 0.53216 0.0
C397 C 0.74454 0.00759 0.56151 0.0
C398 C 0.72423 0.10646 0.58748 0.0
H399 H 0.7107 0.10629 0.70922 0.0
H400 H 0.68183 0.06432 0.67213 0.0
H401 H 0.71003 0.15608 0.60766 0.0
H402 H 0.84739 0.11791 0.52813 0.0
H403 H 0.80283 0.13391 0.55802 0.0
H404 H 0.74256 0.01389 0.60943 0.0
C405 C 0.70626 0.104 0.67226 0.0
C406 C 0.71598 0.12429 0.60819 0.0
C407 C 0.72273 0.128 0.69348 0.0
C408 C 0.81807 0.08655 0.53689 0.0
C409 C 0.79234 0.09574 0.55401 0.0
C410 C 0.73369 0.04373 0.60866 0.0
C411 C 0.72426 0.13028 0.65147 0.0
C412 C 0.71901 0.10361 0.62943 0.0
C413 C 0.75609 0.05649 0.56689 0.0
C414 C 0.73546 0.06749 0.58764 0.0
H415 H 0.79801 0.24503 0.67359 0.0
H416 H 0.76989 0.20344 0.63678 0.0
H417 H 0.72874 0.04501 0.64533 0.0
H418 H 0.76098 0.96033 0.54074 0.0
H419 H 0.71649 0.97657 0.57102 0.0
C420 C 0.72261 0.76333 1.01544 0.0
C421 C 0.69453 0.78677 1.01958 0.0
C422 C 0.72678 0.74908 0.9931 0.0
C423 C 0.72941 0.79762 0.93582 0.0
H424 H 0.76945 0.70141 0.91852 0.0
C425 C 0.84188 0.82717 0.85422 0.0
C426 C 0.88419 0.82281 0.85768 0.0
C427 C 0.804 0.80765 0.87029 0.0
C428 C 0.75818 0.72838 0.92306 0.0
H429 H 0.64374 0.80774 1.00434 0.0
H430 H 0.65048 0.7822 0.96526 0.0
H431 H 0.72395 0.68988 0.9543 0.0
H432 H 0.91848 0.79187 0.88008 0.0
H433 H 0.8534 0.75971 0.90863 0.0
H434 H 0.76586 0.83775 0.90553 0.0
C435 C 0.6703 0.77604 0.97916 0.0
C436 C 0.73201 0.72168 0.94348 0.0
C437 C 0.66638 0.7906 1.00149 0.0
C438 C 0.8868 0.79667 0.87711 0.0
C439 C 0.84905 0.77744 0.89328 0.0
C440 C 0.75551 0.80431 0.91549 0.0
C441 C 0.7028 0.75787 0.97451 0.0
C442 C 0.71906 0.75733 0.95053 0.0
C443 C 0.80772 0.78373 0.89032 0.0
C444 C 0.77186 0.77084 0.90933 0.0
H445 H 0.7449 0.76009 1.02902 0.0
H446 H 0.75236 0.73549 0.99017 0.0
H447 H 0.72081 0.82629 0.94083 0.0
H448 H 0.83873 0.84737 0.83954 0.0
H449 H 0.77242 0.81265 0.86737 0.0
C450 C 0.94277 0.74908 0.32322 0.0
C451 C 0.96012 0.72293 0.33676 0.0
C452 C 0.94405 0.74757 0.29921 0.0
C453 C 0.02349 0.73895 0.25674 0.0
H454 H 0.94515 0.77059 0.21492 0.0
C455 C 0.1112 0.84799 0.17558 0.0
C456 C 0.10616 0.8907 0.17358 0.0
C457 C 0.07888 0.80812 0.18918 0.0
C458 C 0.96727 0.76148 0.2263 0.0
H459 H 0.9877 0.67074 0.336 0.0
H460 H 0.98984 0.6678 0.29375 0.0
H461 H 0.9113 0.73124 0.25206 0.0
H462 H 0.06079 0.92332 0.18236 0.0
H463 H 0.00545 0.85483 0.20682 0.0
H464 H 0.0806 0.77203 0.23202 0.0
C465 C 0.97587 0.69003 0.30176 0.0
C466 C 0.94784 0.73882 0.24754 0.0
C467 C 0.97447 0.6915 0.3259 0.0
C468 C 0.06574 0.89105 0.18375 0.0
C469 C 0.03375 0.85145 0.19764 0.0
C470 C 0.04287 0.76156 0.2356 0.0
C471 C 0.96276 0.71984 0.28819 0.0
C472 C 0.97671 0.72965 0.26347 0.0
C473 C 0.04132 0.81049 0.20136 0.0
C474 C 0.0159 0.77533 0.22061 0.0
H475 H 0.93072 0.77296 0.33124 0.0
H476 H 0.934 0.7713 0.28941 0.0
H477 H 0.04703 0.73296 0.26862 0.0
H478 H 0.14148 0.84637 0.16743 0.0
H479 H 0.08497 0.7766 0.19118 0.0
C480 C 0.50095 0.13992 0.68984 0.0
C481 C 0.46498 0.08968 0.69117 0.0
C482 C 0.51944 0.16205 0.66846 0.0
C483 C 0.51227 0.13881 0.60475 0.0
H484 H 0.48649 0.24968 0.60319 0.0
C485 C 0.4171 0.17724 0.52933 0.0
C486 C 0.42327 0.2251 0.52588 0.0
C487 C 0.44302 0.16831 0.54671 0.0
C488 C 0.49533 0.2198 0.60311 0.0
H489 H 0.42549 0.02179 0.67149 0.0
H490 H 0.45618 0.06068 0.63417 0.0
H491 H 0.49797 0.21935 0.63985 0.0
H492 H 0.46479 0.30192 0.53682 0.0
H493 H 0.51128 0.28665 0.56647 0.0
H494 H 0.50684 0.13792 0.56782 0.0
C495 C 0.47038 0.0831 0.64957 0.0
C496 C 0.50199 0.20229 0.62431 0.0
C497 C 0.4522 0.06087 0.67097 0.0
C498 C 0.45896 0.26454 0.53896 0.0
C499 C 0.48533 0.2557 0.55616 0.0
C500 C 0.50579 0.15655 0.58344 0.0
C501 C 0.50198 0.13454 0.64798 0.0
C502 C 0.5083 0.1602 0.62546 0.0
C503 C 0.47617 0.20716 0.5609 0.0
C504 C 0.49497 0.19582 0.58247 0.0
H505 H 0.51183 0.16334 0.70501 0.0
H506 H 0.54458 0.20157 0.66784 0.0
H507 H 0.51786 0.10679 0.60507 0.0
H508 H 0.39086 0.1462 0.51915 0.0
H509 H 0.43469 0.13038 0.54988 0.0
C510 C 0.48174 0.1827 0.1402 0.0
C511 C 0.47139 0.20186 0.12018 0.0
C512 C 0.52204 0.17469 0.14109 0.0
C513 C 0.6367 0.19964 0.10974 0.0
H514 H 0.6203 0.08658 0.14592 0.0
C515 C 0.72944 0.06393 0.12383 0.0
C516 C 0.77936 0.09881 0.12214 0.0
C517 C 0.69394 0.079 0.12367 0.0
C518 C 0.62554 0.11794 0.13544 0.0
H519 H 0.49555 0.22829 1.08543 0.0
H520 H 0.56465 0.21211 1.08646 0.0
H521 H 0.55521 0.10733 0.14457 0.0
H522 H 0.83116 0.17715 0.11903 0.0
H523 H 0.76926 0.20393 0.11976 0.0
H524 H 0.70608 0.20816 1.09953 0.0
C525 C 0.54262 0.20462 0.10183 0.0
C526 C 0.58827 0.13059 0.13504 0.0
C527 C 0.50278 0.21369 0.10115 0.0
C528 C 0.79297 0.14935 0.12034 0.0
C529 C 0.75734 0.16462 0.12059 0.0
C530 C 0.67378 0.18642 0.10983 0.0
C531 C 0.55254 0.18439 0.12175 0.0
C532 C 0.59315 0.17167 0.12223 0.0
C533 C 0.7072 0.12959 0.12227 0.0
C534 C 0.66865 0.14516 0.12261 0.0
H535 H 0.45864 0.17389 0.15529 0.0
H536 H 0.52902 0.16065 0.15703 0.0
H537 H 0.64239 0.23194 1.0999 0.0
H538 H 0.71753 0.0246 0.12486 0.0
H539 H 0.6559 0.0506 0.12431 0.0
C540 C 0.42955 0.52372 0.47698 0.0
C541 C 0.4177 0.47477 0.47133 0.0
C542 C 0.47817 0.56114 0.47836 0.0
C543 C 0.60428 0.58785 0.48713 0.0
H544 H 0.63711 0.70692 0.45162 0.0
C545 C 0.8045 0.7396 0.47291 0.0
C546 C 0.81553 0.78936 0.47036 0.0
C547 C 0.75611 0.70164 0.47462 0.0
C548 C 0.62863 0.67448 0.46203 0.0
H549 H 0.44813 0.42655 0.46367 0.0
H550 H 0.53379 0.49234 0.46661 0.0
H551 H 0.55321 0.63919 0.45187 0.0
H552 H 0.78413 0.83831 0.46843 0.0
H553 H 0.69952 0.77222 0.47232 0.0
H554 H 0.67923 0.62335 0.49784 0.0
C555 C 0.50494 0.50142 0.46973 0.0
C556 C 0.58049 0.63545 0.462 0.0
C557 C 0.45597 0.46382 0.46802 0.0
C558 C 0.7769 0.80037 0.47026 0.0
C559 C 0.72832 0.76231 0.47229 0.0
C560 C 0.65237 0.62724 0.48746 0.0
C561 C 0.51641 0.55066 0.47443 0.0
C562 C 0.56782 0.59166 0.47447 0.0
C563 C 0.71717 0.71225 0.47416 0.0
C564 C 0.66537 0.67107 0.47478 0.0
H565 H 0.4012 0.53372 0.4797 0.0
H566 H 0.4859 0.59857 0.48232 0.0
H567 H 0.5954 0.55476 0.49712 0.0
H568 H 0.83322 0.72955 0.47285 0.0
H569 H 0.74936 0.66376 0.47557 0.0
C570 C 0.06151 0.44896 0.80782 0.0
C571 C 0.08853 0.43044 0.79612 0.0
C572 C 0.07819 0.49995 0.80897 0.0
C573 C 0.15567 0.61633 0.77794 0.0
H574 H 0.13699 0.67671 0.8328 0.0
C575 C 0.21202 0.82554 0.78172 0.0
C576 C 0.17923 0.83771 0.79269 0.0
C577 C 0.20568 0.77738 0.78317 0.0
C578 C 0.1421 0.66039 0.81726 0.0
H579 H 0.15522 0.45143 0.77702 0.0
H580 H 0.18442 0.54078 0.77904 0.0
H581 H 0.11867 0.59035 0.83395 0.0
H582 H 0.11408 0.80843 0.81392 0.0
H583 H 0.10277 0.72474 0.81621 0.0
H584 H 0.1781 0.68606 0.76109 0.0
C585 C 0.15005 0.51558 0.78718 0.0
C586 C 0.13169 0.61085 0.81794 0.0
C587 C 0.1335 0.4644 0.78618 0.0
C588 C 0.14021 0.8006 0.8053 0.0
C589 C 0.13389 0.75253 0.80675 0.0
C590 C 0.16597 0.66591 0.77723 0.0
C591 C 0.12227 0.53393 0.79837 0.0
C592 C 0.13764 0.58793 0.7982 0.0
C593 C 0.16642 0.74016 0.79566 0.0
C594 C 0.15862 0.6884 0.79679 0.0
H595 H 0.02676 0.42398 0.81572 0.0
H596 H 0.05557 0.51262 0.81752 0.0
H597 H 0.16011 0.59972 0.76233 0.0
H598 H 0.24257 0.85315 0.7719 0.0
H599 H 0.23178 0.76942 0.77462 0.0
C600 C 0.37954 0.296 0.19987 0.0
C601 C 0.34397 0.25067 0.19025 0.0
C602 C 0.37508 0.31008 0.22263 0.0
C603 C 0.2972 0.25994 0.27768 0.0
H604 H 0.37144 0.39693 0.29705 0.0
C605 C 0.29615 0.31308 0.37401 0.0
C606 C 0.30196 0.35983 0.38038 0.0
C607 C 0.30173 0.30193 0.35106 0.0
C608 C 0.34969 0.35849 0.29202 0.0
H609 H 0.27521 0.18503 0.19782 0.0
H610 H 0.26573 0.21007 0.23607 0.0
H611 H 0.37887 0.37434 0.25772 0.0
H612 H 0.31848 0.43158 0.36648 0.0
H613 H 0.32788 0.41212 0.32627 0.0
H614 H 0.26595 0.2446 0.31152 0.0
C615 C 0.29867 0.23463 0.22682 0.0
C616 C 0.35469 0.34501 0.2692 0.0
C617 C 0.30385 0.22006 0.20437 0.0
C618 C 0.31386 0.39524 0.36256 0.0
C619 C 0.31937 0.38392 0.33933 0.0
C620 C 0.29158 0.27355 0.30025 0.0
C621 C 0.33424 0.27997 0.23673 0.0
C622 C 0.32873 0.29521 0.26139 0.0
C623 C 0.31306 0.33672 0.33303 0.0
C624 C 0.31799 0.32307 0.30813 0.0
H625 H 0.41115 0.32087 0.18979 0.0
H626 H 0.4043 0.34476 0.22905 0.0
H627 H 0.27679 0.22103 0.27338 0.0
H628 H 0.28724 0.28439 0.38689 0.0
H629 H 0.29768 0.26566 0.34766 0.0
C630 C 0.19905 0.39599 0.52945 0.0
C631 C 0.21535 0.36469 0.51982 0.0
C632 C 0.1801 0.38831 0.5522 0.0
C633 C 0.16808 0.31338 0.60727 0.0
H634 H 0.08321 0.36496 0.62646 0.0
C635 C 0.10746 0.29545 0.70365 0.0
C636 C 0.06421 0.29593 0.70995 0.0
C637 C 0.12491 0.30471 0.68077 0.0
C638 C 0.1063 0.34946 0.62158 0.0
H639 H 0.22225 0.29934 0.52689 0.0
H640 H 0.18753 0.28441 0.56524 0.0
H641 H 0.11285 0.37753 0.58701 0.0
H642 H 0.00548 0.30669 0.69628 0.0
H643 H 0.03417 0.32036 0.65628 0.0
H644 H 0.15941 0.28272 0.64118 0.0
C645 C 0.19115 0.31659 0.55603 0.0
C646 C 0.12432 0.35757 0.59865 0.0
C647 C 0.21094 0.32491 0.53359 0.0
C648 C 0.03892 0.30596 0.6923 0.0
C649 C 0.05589 0.31428 0.66916 0.0
C650 C 0.1494 0.30451 0.62995 0.0
C651 C 0.17575 0.34839 0.56614 0.0
C652 C 0.15585 0.33983 0.59089 0.0
C653 C 0.09943 0.31385 0.66279 0.0
C654 C 0.11835 0.32264 0.63786 0.0
H655 H 0.20182 0.42715 0.51956 0.0
H656 H 0.16968 0.4145 0.55889 0.0
H657 H 0.19278 0.29955 0.60285 0.0
H658 H 0.12873 0.28874 0.71661 0.0
H659 H 0.15919 0.30536 0.67747 0.0
C660 C 0.03075 0.23395 0.86746 0.0
C661 C -0.00453 0.23593 0.85285 0.0
C662 C 0.01883 0.21372 0.89001 0.0
C663 C 0.91024 0.13858 0.93021 0.0
H664 H 0.01251 0.18291 0.97649 0.0
C665 C 0.87136 0.05328 1.02472 0.0
C666 C 0.90082 0.08257 1.04316 0.0
C667 C 0.88198 0.06991 1.00145 0.0
C668 C 0.98284 0.1702 0.96411 0.0
H669 H 0.91927 0.21749 0.85126 0.0
H670 H 0.8991 0.18472 0.89041 0.0
H671 H 0.03187 0.21657 0.93784 0.0
H672 H 0.96412 0.15368 1.05082 0.0
H673 H 0.98113 0.1828 1.01138 0.0
H674 H 0.86082 0.09385 0.95693 0.0
C675 C 0.93601 0.19745 0.88444 0.0
C676 C -0.00562 0.18917 0.94137 0.0
C677 C 0.9478 0.21703 0.86179 0.0
C678 C 0.94064 0.12925 1.03738 0.0
C679 C 0.95082 0.14605 1.01434 0.0
C680 C 0.89856 0.12 0.95308 0.0
C681 C 0.97116 0.19512 0.89917 0.0
C682 C 0.95844 0.17399 0.92378 0.0
C683 C 0.92219 0.11677 0.99568 0.0
C684 C 0.93454 0.13553 0.97069 0.0
H685 H 0.06767 0.24712 0.86132 0.0
H686 H 0.04726 0.21202 0.90004 0.0
H687 H 0.88103 0.12457 0.91755 0.0
H688 H 0.84037 0.01715 1.02822 0.0
H689 H 0.85885 0.0454 0.98798 0.0
C690 C 0.85421 0.96155 0.197 0.0
C691 C 0.8814 0.0105 0.1885 0.0
C692 C 0.86 0.94904 0.21995 0.0
C693 C 0.91734 0.00686 0.27829 0.0
H694 H 0.88527 0.87206 0.29356 0.0
C695 C 0.91828 0.94947 0.37461 0.0
C696 C 0.92693 0.90999 0.38066 0.0
C697 C 0.91287 0.96024 0.35142 0.0
C698 C 0.89506 0.91017 0.28982 0.0
H699 H 0.93661 0.0845 0.19841 0.0
H700 H 0.94797 0.06296 0.23757 0.0
H701 H 0.87735 0.8936 0.25391 0.0
H702 H 0.93707 0.85116 0.36605 0.0
H703 H 0.9289 0.8704 0.32562 0.0
H704 H 0.93746 0.02417 0.31382 0.0
C705 C 0.92078 0.03385 0.22689 0.0
C706 C 0.88965 0.92259 0.26676 0.0
C707 C 0.91443 0.04644 0.20405 0.0
C708 C 0.92986 0.88148 0.36235 0.0
C709 C 0.92501 0.89269 0.33895 0.0
C710 C 0.92331 -0.00538 0.30122 0.0
C711 C 0.89369 0.98478 0.23551 0.0
C712 C 0.9003 0.97124 0.26039 0.0
C713 C 0.91662 0.93263 0.33288 0.0
C714 C 0.9118 0.94583 0.30772 0.0
H715 H 0.82833 0.93243 0.18583 0.0
H716 H 0.83737 0.91103 0.22544 0.0
H717 H 0.92564 0.04465 0.27484 0.0
H718 H 0.91547 0.97245 0.38795 0.0
H719 H 0.90516 0.99034 0.34822 0.0
C720 C 0.04924 0.89026 0.52771 0.0
C721 C 0.01421 0.90446 0.52113 0.0
C722 C 0.06786 0.89717 0.55062 0.0
C723 C 0.04137 0.92151 0.61177 0.0
H724 H 0.17486 0.9517 0.6242 0.0
C725 C 0.10922 0.92443 0.70648 0.0
C726 C 0.15771 0.95871 0.71296 0.0
C727 C 0.0935 0.91818 0.68323 0.0
C728 C 0.13752 0.94364 0.62121 0.0
H729 H 0.97217 0.93778 0.53435 0.0
H730 H 0.00425 0.94988 0.57357 0.0
H731 H 0.14484 0.94062 0.58435 0.0
H732 H 0.22763 0.01295 0.69897 0.0
H733 H 0.20036 0.00222 0.65849 0.0
H734 H 0.03406 0.92527 0.64844 0.0
C735 C 0.01713 0.9326 0.56125 0.0
C736 C 0.11992 0.93661 0.59812 0.0
C737 C -0.00129 0.92585 0.53842 0.0
C738 C 0.19007 0.98611 0.69497 0.0
C739 C 0.17429 0.9797 0.67155 0.0
C740 C 0.05884 0.92829 0.63478 0.0
C741 C 0.0521 0.91838 0.56797 0.0
C742 C 0.07139 0.92546 0.59284 0.0
C743 C 0.12542 0.94585 0.66517 0.0
C744 C 0.10729 0.93942 0.64012 0.0
H745 H 0.06244 0.87374 0.51513 0.0
H746 H 0.0942 0.88506 0.55477 0.0
H747 H 0.0037 0.91246 0.60894 0.0
H748 H 0.08279 0.90222 0.71949 0.0
H749 H 0.05597 0.89096 0.67946 0.0
C750 C 0.18565 0.00891 0.87383 0.0
C751 C 0.22135 0.00847 0.85914 0.0
C752 C 0.19725 0.02769 0.89663 0.0
C753 C 0.29221 0.06179 0.94413 0.0
H754 H 0.23124 0.13443 0.9694 0.0
C755 C 0.31771 0.12255 1.04152 0.0
C756 C 0.32015 0.16797 1.04767 0.0
C757 C 0.30617 0.10379 1.01877 0.0
C758 C 0.24906 0.11458 0.96271 0.0
H759 H 0.29773 0.02743 0.85791 0.0
H760 H 0.31759 0.05917 0.8973 0.0
H761 H 0.21042 0.10058 0.93032 0.0
H762 H 0.31194 0.22891 1.03381 0.0
H763 H 0.29191 0.19645 0.99432 0.0
H764 H 0.33119 0.07612 0.97637 0.0
C765 C 0.2803 0.04486 0.8913 0.0
C766 C 0.23654 0.09443 0.94017 0.0
C767 C 0.26882 0.02653 0.86845 0.0
C768 C 0.31058 0.19391 1.03001 0.0
C769 C 0.29865 0.17492 1.00722 0.0
C770 C 0.30441 0.08156 0.96671 0.0
C771 C 0.24495 0.04639 0.90587 0.0
C772 C 0.2579 0.06762 0.93032 0.0
C773 C 0.29617 0.12937 1.00107 0.0
C774 C 0.28318 0.10848 0.97656 0.0
H775 H 0.14868 -0.00434 0.86756 0.0
H776 H 0.16846 0.02727 0.90707 0.0
H777 H 0.30944 0.04122 0.93762 0.0
H778 H 0.32448 0.10099 1.0544 0.0
H779 H 0.30416 0.06842 1.01522 0.0
loop_
_geom_bond_atom_site_label_1
_geom_bond_atom_site_label_2
_geom_bond_distance
_geom_bond_site_symmetry_2
_ccdc_geom_bond_type
Tb0 C10 2.825 . S
Tb0 O11 2.347 . S
Tb0 O14 2.366 . S
Tb0 O19 2.418 . S
Tb0 O20 2.384 1_554 S
Tb0 O23 2.479 . S
Tb0 O24 2.471 . S
Eu1 O12 2.418 . S
Eu1 O13 2.390 . S
Eu1 O16 2.474 1_554 S
Eu1 O17 2.467 1_554 S
Eu1 O18 2.348 . S
Eu1 O21 2.362 1_554 S
Eu1 C31 2.820 1_554 S
C2 O18 1.259 . S
C2 O19 1.265 . S
C3 O20 1.255 . S
C3 O21 1.265 . S
C4 C6 1.380 . S
C4 C7 1.374 . S
C4 C10 1.507 . S
C5 C6 1.384 . S
C5 C9 1.387 . S
C5 H32 0.930 . S
C6 C4 1.380 . S
C6 C5 1.384 . S
C6 H33 0.931 . S
C7 C4 1.374 . S
C7 C8 1.390 . S
C7 H34 0.930 . S
C8 C7 1.390 . S
C8 C9 1.391 . S
C8 H35 0.930 . S
C9 C5 1.387 . S
C9 C8 1.391 . S
C10 Tb0 2.825 . S
C10 C4 1.507 . S
C10 O23 1.238 . S
C10 O24 1.247 . S
O11 Tb0 2.347 . S
O11 C15 1.259 . S
O12 Eu1 2.418 . S
O12 C15 1.265 . S
O13 Eu1 2.390 . S
O13 C22 1.255 . S
O14 Tb0 2.366 . S
O14 C22 1.265 . S
C15 O11 1.259 . S
C15 O12 1.265 . S
O16 Eu1 2.474 1_556 S
O16 C31 1.238 . S
O17 Eu1 2.467 1_556 S
O17 C31 1.247 . S
O18 Eu1 2.348 . S
O18 C2 1.259 . S
O19 Tb0 2.418 . S
O19 C2 1.265 . S
O20 Tb0 2.384 1_556 S
O20 C3 1.255 . S
O21 Eu1 2.362 1_556 S
O21 C3 1.265 . S
C22 O13 1.255 . S
C22 O14 1.265 . S
O23 Tb0 2.479 . S
O23 C10 1.238 . S
O24 Tb0 2.471 . S
O24 C10 1.247 . S
C25 C28 1.380 . S
C25 C29 1.374 . S
C25 C31 1.507 . S
C26 C27 1.387 . S
C26 C30 1.391 . S
C27 C26 1.387 . S
C27 C28 1.384 . S
C27 H36 0.930 . S
C28 C25 1.380 . S
C28 C27 1.384 . S
C28 H37 0.931 . S
C29 C25 1.374 . S
C29 C30 1.390 . S
C29 H38 0.930 . S
C30 C26 1.391 . S
C30 C29 1.390 . S
C30 H39 0.930 . S
C31 Eu1 2.820 1_556 S
C31 O16 1.238 . S
C31 O17 1.247 . S
C31 C25 1.507 . S
H32 C5 0.930 . S
H33 C6 0.931 . S
H34 C7 0.930 . S
H35 C8 0.930 . S
H36 C27 0.930 . S
H37 C28 0.931 . S
H38 C29 0.930 . S
H39 C30 0.930 . S
Tb40 C50 2.825 . S
Tb40 O51 2.347 . S
Tb40 O54 2.366 . S
Tb40 O59 2.418 . S
Tb40 O60 2.384 . S
Tb40 O63 2.479 . S
Tb40 O64 2.471 . S
Eu41 O52 2.418 . S
Eu41 O53 2.384 . S
Eu41 O56 2.479 . S
Eu41 O57 2.471 . S
Eu41 O58 2.347 . S
Eu41 O61 2.366 . S
Eu41 C71 2.825 . S
C42 O58 1.259 . S
C42 O59 1.265 . S
C43 O60 1.255 . S
C43 O61 1.265 . S
C44 C46 1.380 . S
C44 C47 1.374 . S
C44 C50 1.507 . S
C45 C46 1.384 . S
C45 C49 1.387 . S
C45 H72 0.930 . S
C46 C44 1.380 . S
C46 C45 1.384 . S
C46 H73 0.931 . S
C47 C44 1.374 . S
C47 C48 1.390 . S
C47 H74 0.930 . S
C48 C47 1.390 . S
C48 C49 1.391 . S
C48 H75 0.930 . S
C49 C45 1.387 . S
C49 C48 1.391 . S
C50 Tb40 2.825 . S
C50 C44 1.507 . S
C50 O63 1.238 . S
C50 O64 1.247 . S
O51 Tb40 2.347 . S
O51 C55 1.259 . S
O52 Eu41 2.418 . S
O52 C55 1.265 . S
O53 Eu41 2.384 . S
O53 C62 1.255 . S
O54 Tb40 2.366 . S
O54 C62 1.265 . S
C55 O51 1.259 . S
C55 O52 1.265 . S
O56 Eu41 2.479 . S
O56 C71 1.238 . S
O57 Eu41 2.471 . S
O57 C71 1.247 . S
O58 Eu41 2.347 . S
O58 C42 1.259 . S
O59 Tb40 2.418 . S
O59 C42 1.265 . S
O60 Tb40 2.384 . S
O60 C43 1.255 . S
O61 Eu41 2.366 . S
O61 C43 1.265 . S
C62 O53 1.255 . S
C62 O54 1.265 . S
O63 Tb40 2.479 . S
O63 C50 1.238 . S
O64 Tb40 2.471 . S
O64 C50 1.247 . S
C65 C68 1.380 . S
C65 C69 1.374 . S
C65 C71 1.507 . S
C66 C67 1.387 . S
C66 C70 1.391 . S
C67 C66 1.387 . S
C67 C68 1.384 . S
C67 H76 0.930 . S
C68 C65 1.380 . S
C68 C67 1.384 . S
C68 H77 0.931 . S
C69 C65 1.374 . S
C69 C70 1.390 . S
C69 H78 0.930 . S
C70 C66 1.391 . S
C70 C69 1.390 . S
C70 H79 0.930 . S
C71 Eu41 2.825 . S
C71 O56 1.238 . S
C71 O57 1.247 . S
C71 C65 1.507 . S
H72 C45 0.930 . S
H73 C46 0.931 . S
H74 C47 0.930 . S
H75 C48 0.930 . S
H76 C67 0.930 . S
H77 C68 0.931 . S
H78 C69 0.930 . S
H79 C70 0.930 . S
Tb80 C90 2.825 . S
Tb80 O91 2.347 . S
Tb80 O94 2.366 . S
Tb80 O99 2.418 . S
Tb80 O100 2.384 . S
Tb80 O103 2.479 . S
Tb80 O104 2.471 . S
Eu81 O92 2.418 . S
Eu81 O93 2.384 . S
Eu81 O96 2.479 . S
Eu81 O97 2.471 . S
Eu81 O98 2.347 . S
Eu81 O101 2.366 1_655 S
Eu81 C111 2.825 . S
C82 O98 1.259 1_455 S
C82 O99 1.265 . S
C83 O100 1.255 . S
C83 O101 1.265 . S
C84 C86 1.380 . S
C84 C87 1.374 . S
C84 C90 1.507 . S
C85 C86 1.384 . S
C85 C89 1.387 . S
C85 H112 0.930 . S
C86 C84 1.380 . S
C86 C85 1.384 . S
C86 H113 0.931 . S
C87 C84 1.374 . S
C87 C88 1.390 . S
C87 H114 0.930 . S
C88 C87 1.390 . S
C88 C89 1.391 . S
C88 H115 0.930 . S
C89 C85 1.387 . S
C89 C88 1.391 . S
C90 Tb80 2.825 . S
C90 C84 1.507 . S
C90 O103 1.238 . S
C90 O104 1.247 . S
O91 Tb80 2.347 . S
O91 C95 1.259 1_455 S
O92 Eu81 2.418 . S
O92 C95 1.265 . S
O93 Eu81 2.384 . S
O93 C102 1.255 . S
O94 Tb80 2.366 . S
O94 C102 1.265 1_455 S
C95 O91 1.259 1_655 S
C95 O92 1.265 . S
O96 Eu81 2.479 . S
O96 C111 1.238 . S
O97 Eu81 2.471 . S
O97 C111 1.247 . S
O98 Eu81 2.347 . S
O98 C82 1.259 1_655 S
O99 Tb80 2.418 . S
O99 C82 1.265 . S
O100 Tb80 2.384 . S
O100 C83 1.255 . S
O101 Eu81 2.366 1_455 S
O101 C83 1.265 . S
C102 O93 1.255 . S
C102 O94 1.265 1_655 S
O103 Tb80 2.479 . S
O103 C90 1.238 . S
O104 Tb80 2.471 . S
O104 C90 1.247 . S
C105 C108 1.380 . S
C105 C109 1.374 . S
C105 C111 1.507 . S
C106 C107 1.387 . S
C106 C110 1.391 . S
C107 C106 1.387 . S
C107 C108 1.384 . S
C107 H116 0.930 . S
C108 C105 1.380 . S
C108 C107 1.384 . S
C108 H117 0.931 . S
C109 C105 1.374 . S
C109 C110 1.390 . S
C109 H118 0.930 . S
C110 C106 1.391 . S
C110 C109 1.390 . S
C110 H119 0.930 . S
C111 Eu81 2.825 . S
C111 O96 1.238 . S
C111 O97 1.247 . S
C111 C105 1.507 . S
H112 C85 0.930 . S
H113 C86 0.931 . S
H114 C87 0.930 . S
H115 C88 0.930 . S
H116 C107 0.930 . S
H117 C108 0.931 . S
H118 C109 0.930 . S
H119 C110 0.930 . S
Tb120 C130 2.825 . S
Tb120 O131 2.347 . S
Tb120 O134 2.366 . S
Tb120 O139 2.418 . S
Tb120 O140 2.384 1_554 S
Tb120 O143 2.479 . S
Tb120 O144 2.471 . S
Eu121 O132 2.418 . S
Eu121 O133 2.390 . S
Eu121 O136 2.473 1_554 S
Eu121 O137 2.466 1_554 S
Eu121 O138 2.349 1_565 S
Eu121 O141 2.362 1_564 S
Eu121 C151 2.819 1_554 S
C122 O138 1.259 . S
C122 O139 1.265 . S
C123 O140 1.255 . S
C123 O141 1.265 . S
C124 C126 1.380 . S
C124 C127 1.374 . S
C124 C130 1.507 . S
C125 C126 1.384 . S
C125 C129 1.387 . S
C125 H152 0.930 . S
C126 C124 1.380 . S
C126 C125 1.384 . S
C126 H153 0.931 . S
C127 C124 1.374 . S
C127 C128 1.390 . S
C127 H154 0.930 . S
C128 C127 1.390 . S
C128 C129 1.391 . S
C128 H155 0.930 . S
C129 C125 1.387 . S
C129 C128 1.391 . S
C130 Tb120 2.825 . S
C130 C124 1.507 . S
C130 O143 1.238 . S
C130 O144 1.247 . S
O131 Tb120 2.347 . S
O131 C135 1.259 1_545 S
O132 Eu121 2.418 . S
O132 C135 1.265 . S
O133 Eu121 2.390 . S
O133 C142 1.255 . S
O134 Tb120 2.366 . S
O134 C142 1.265 1_545 S
C135 O131 1.259 1_565 S
C135 O132 1.265 . S
O136 Eu121 2.473 1_556 S
O136 C151 1.238 . S
O137 Eu121 2.466 1_556 S
O137 C151 1.247 . S
O138 Eu121 2.349 1_545 S
O138 C122 1.259 . S
O139 Tb120 2.418 . S
O139 C122 1.265 . S
O140 Tb120 2.384 1_556 S
O140 C123 1.255 . S
O141 Eu121 2.362 1_546 S
O141 C123 1.265 . S
C142 O133 1.255 . S
C142 O134 1.265 1_565 S
O143 Tb120 2.479 . S
O143 C130 1.238 . S
O144 Tb120 2.471 . S
O144 C130 1.247 . S
C145 C148 1.380 . S
C145 C149 1.374 . S
C145 C151 1.507 . S
C146 C147 1.387 . S
C146 C150 1.391 . S
C147 C146 1.387 . S
C147 C148 1.384 . S
C147 H156 0.930 . S
C148 C145 1.380 . S
C148 C147 1.384 . S
C148 H157 0.931 . S
C149 C145 1.374 . S
C149 C150 1.390 . S
C149 H158 0.930 . S
C150 C146 1.391 . S
C150 C149 1.390 . S
C150 H159 0.930 . S
C151 Eu121 2.819 1_556 S
C151 O136 1.238 . S
C151 O137 1.247 . S
C151 C145 1.507 . S
H152 C125 0.930 . S
H153 C126 0.931 . S
H154 C127 0.930 . S
H155 C128 0.930 . S
H156 C147 0.930 . S
H157 C148 0.931 . S
H158 C149 0.930 . S
H159 C150 0.930 . S
Tb160 C170 2.825 . S
Tb160 O171 2.347 . S
Tb160 O174 2.366 . S
Tb160 O179 2.418 1_655 S
Tb160 O180 2.384 . S
Tb160 O183 2.479 . S
Tb160 O184 2.471 . S
Eu161 O172 2.418 . S
Eu161 O173 2.384 . S
Eu161 O176 2.479 . S
Eu161 O177 2.471 1_655 S
Eu161 O178 2.347 1_655 S
Eu161 O181 2.366 . S
Eu161 C191 2.825 1_655 S
C162 O178 1.259 . S
C162 O179 1.265 . S
C163 O180 1.255 . S
C163 O181 1.265 . S
C164 C166 1.380 . S
C164 C167 1.374 . S
C164 C170 1.507 . S
C165 C166 1.384 . S
C165 C169 1.387 . S
C165 H192 0.930 . S
C166 C164 1.380 . S
C166 C165 1.384 . S
C166 H193 0.931 . S
C167 C164 1.374 . S
C167 C168 1.390 . S
C167 H194 0.930 . S
C168 C167 1.390 . S
C168 C169 1.391 . S
C168 H195 0.930 . S
C169 C165 1.387 . S
C169 C168 1.391 . S
C170 Tb160 2.825 . S
C170 C164 1.507 . S
C170 O183 1.238 . S
C170 O184 1.247 . S
O171 Tb160 2.347 . S
O171 C175 1.259 . S
O172 Eu161 2.418 . S
O172 C175 1.265 . S
O173 Eu161 2.384 . S
O173 C182 1.255 . S
O174 Tb160 2.366 . S
O174 C182 1.265 . S
C175 O171 1.259 . S
C175 O172 1.265 . S
O176 Eu161 2.479 . S
O176 C191 1.238 1_655 S
O177 Eu161 2.471 1_455 S
O177 C191 1.247 . S
O178 Eu161 2.347 1_455 S
O178 C162 1.259 . S
O179 Tb160 2.418 1_455 S
O179 C162 1.265 . S
O180 Tb160 2.384 . S
O180 C163 1.255 . S
O181 Eu161 2.366 . S
O181 C163 1.265 . S
C182 O173 1.255 . S
C182 O174 1.265 . S
O183 Tb160 2.479 . S
O183 C170 1.238 . S
O184 Tb160 2.471 . S
O184 C170 1.247 . S
C185 C188 1.380 . S
C185 C189 1.374 . S
C185 C191 1.507 . S
C186 C187 1.387 . S
C186 C190 1.391 . S
C187 C186 1.387 . S
C187 C188 1.384 . S
C187 H196 0.930 . S
C188 C185 1.380 . S
C188 C187 1.384 . S
C188 H197 0.931 . S
C189 C185 1.374 . S
C189 C190 1.390 . S
C189 H198 0.930 . S
C190 C186 1.391 . S
C190 C189 1.390 . S
C190 H199 0.930 . S
C191 Eu161 2.825 1_455 S
C191 O176 1.238 1_455 S
C191 O177 1.247 . S
C191 C185 1.507 . S
H192 C165 0.930 . S
H193 C166 0.931 . S
H194 C167 0.930 . S
H195 C168 0.930 . S
H196 C187 0.930 . S
H197 C188 0.931 . S
H198 C189 0.930 . S
H199 C190 0.930 . S
Tb200 C210 2.825 . S
Tb200 O211 2.347 . S
Tb200 O214 2.366 . S
Tb200 O219 2.418 1_565 S
Tb200 O220 2.384 . S
Tb200 O223 2.479 . S
Tb200 O224 2.471 . S
Eu201 O212 2.418 1_545 S
Eu201 O213 2.384 . S
Eu201 O216 2.479 . S
Eu201 O217 2.471 . S
Eu201 O218 2.347 . S
Eu201 O221 2.366 1_545 S
Eu201 C231 2.825 . S
C202 O218 1.259 . S
C202 O219 1.265 . S
C203 O220 1.255 . S
C203 O221 1.265 . S
C204 C206 1.380 . S
C204 C207 1.374 . S
C204 C210 1.507 . S
C205 C206 1.384 . S
C205 C209 1.387 . S
C205 H232 0.930 . S
C206 C204 1.380 . S
C206 C205 1.384 . S
C206 H233 0.931 . S
C207 C204 1.374 . S
C207 C208 1.390 . S
C207 H234 0.930 . S
C208 C207 1.390 . S
C208 C209 1.391 . S
C208 H235 0.930 . S
C209 C205 1.387 . S
C209 C208 1.391 . S
C210 Tb200 2.825 . S
C210 C204 1.507 . S
C210 O223 1.238 . S
C210 O224 1.247 . S
O211 Tb200 2.347 . S
O211 C215 1.259 . S
O212 Eu201 2.418 1_565 S
O212 C215 1.265 . S
O213 Eu201 2.384 . S
O213 C222 1.255 . S
O214 Tb200 2.366 . S
O214 C222 1.265 1_565 S
C215 O211 1.259 . S
C215 O212 1.265 . S
O216 Eu201 2.479 . S
O216 C231 1.238 . S
O217 Eu201 2.471 . S
O217 C231 1.247 . S
O218 Eu201 2.347 . S
O218 C202 1.259 . S
O219 Tb200 2.418 1_545 S
O219 C202 1.265 . S
O220 Tb200 2.384 . S
O220 C203 1.255 . S
O221 Eu201 2.366 1_565 S
O221 C203 1.265 . S
C222 O213 1.255 . S
C222 O214 1.265 1_545 S
O223 Tb200 2.479 . S
O223 C210 1.238 . S
O224 Tb200 2.471 . S
O224 C210 1.247 . S
C225 C228 1.380 . S
C225 C229 1.374 . S
C225 C231 1.507 . S
C226 C227 1.387 . S
C226 C230 1.391 . S
C227 C226 1.387 . S
C227 C228 1.384 . S
C227 H236 0.930 . S
C228 C225 1.380 . S
C228 C227 1.384 . S
C228 H237 0.931 . S
C229 C225 1.374 . S
C229 C230 1.390 . S
C229 H238 0.930 . S
C230 C226 1.391 . S
C230 C229 1.390 . S
C230 H239 0.930 . S
C231 Eu201 2.825 . S
C231 O216 1.238 . S
C231 O217 1.247 . S
C231 C225 1.507 . S
H232 C205 0.930 . S
H233 C206 0.931 . S
H234 C207 0.930 . S
H235 C208 0.930 . S
H236 C227 0.930 . S
H237 C228 0.931 . S
H238 C229 0.930 . S
H239 C230 0.930 . S
C240 C241 1.349 . S
C240 C242 1.327 1_565 S
C240 H265 0.950 . S
C241 C240 1.349 . S
C241 C257 1.348 1_564 S
C242 C240 1.327 1_545 S
C242 C261 1.429 1_655 S
C242 H266 0.950 1_655 S
C243 C260 1.574 . S
C243 C262 1.368 1_556 S
C243 H267 0.949 . S
H244 C248 0.949 . S
C245 C246 1.349 1_556 S
C245 C247 1.327 . S
C245 H268 0.950 . S
C246 C245 1.349 1_554 S
C246 C258 1.349 . S
C247 C245 1.327 . S
C247 C263 1.429 1_556 S
C247 H269 0.950 . S
C248 H244 0.949 . S
C248 C256 1.574 . S
C248 C264 1.368 . S
H249 C257 0.950 . S
H250 C255 0.950 . S
H251 C256 0.949 . S
H252 C258 0.950 . S
H253 C259 0.950 . S
H254 C260 0.949 . S
C255 H250 0.950 . S
C255 C257 1.327 . S
C255 C261 1.429 1_656 S
C256 C248 1.574 . S
C256 H251 0.949 . S
C256 C262 1.368 . S
C257 C241 1.348 1_546 S
C257 H249 0.950 . S
C257 C255 1.327 . S
C258 C246 1.349 . S
C258 H252 0.950 . S
C258 C259 1.327 . S
C259 H253 0.950 . S
C259 C258 1.327 . S
C259 C263 1.429 . S
C260 C243 1.574 . S
C260 H254 0.949 . S
C260 C264 1.368 1_556 S
C261 C242 1.429 1_455 S
C261 C255 1.429 1_454 S
C261 C262 1.523 . S
C262 C243 1.368 1_554 S
C262 C256 1.368 . S
C262 C261 1.523 . S
C263 C247 1.429 1_554 S
C263 C259 1.429 . S
C263 C264 1.523 . S
C264 C248 1.368 . S
C264 C260 1.368 1_554 S
C264 C263 1.523 . S
H265 C240 0.950 . S
H266 C242 0.950 1_455 S
H267 C243 0.949 . S
H268 C245 0.950 . S
H269 C247 0.950 . S
C270 C271 1.349 . S
C270 C272 1.327 . S
C270 H295 0.950 1_455 S
C271 C270 1.349 . S
C271 C287 1.349 . S
C272 C270 1.327 . S
C272 C291 1.429 1_565 S
C272 H296 0.950 1_565 S
C273 C290 1.574 . S
C273 C292 1.368 . S
C273 H297 0.949 . S
H274 C278 0.949 . S
C275 C276 1.349 . S
C275 C277 1.327 . S
C275 H298 0.950 . S
C276 C275 1.349 . S
C276 C288 1.349 . S
C277 C275 1.327 . S
C277 C293 1.429 . S
C277 H299 0.950 . S
C278 H274 0.949 . S
C278 C286 1.574 . S
C278 C294 1.368 . S
H279 C287 0.950 . S
H280 C285 0.950 . S
H281 C286 0.949 . S
H282 C288 0.950 . S
H283 C289 0.950 . S
H284 C290 0.949 . S
C285 H280 0.950 . S
C285 C287 1.327 1_545 S
C285 C291 1.429 . S
C286 C278 1.574 . S
C286 H281 0.949 . S
C286 C292 1.368 . S
C287 C271 1.349 . S
C287 H279 0.950 . S
C287 C285 1.327 1_565 S
C288 C276 1.349 . S
C288 H282 0.950 . S
C288 C289 1.327 . S
C289 H283 0.950 . S
C289 C288 1.327 . S
C289 C293 1.429 . S
C290 C273 1.574 . S
C290 H284 0.949 . S
C290 C294 1.368 . S
C291 C272 1.429 1_545 S
C291 C285 1.429 . S
C291 C292 1.523 . S
C292 C273 1.368 . S
C292 C286 1.368 . S
C292 C291 1.523 . S
C293 C277 1.429 . S
C293 C289 1.429 . S
C293 C294 1.523 . S
C294 C278 1.368 . S
C294 C290 1.368 . S
C294 C293 1.523 . S
H295 C270 0.950 1_655 S
H296 C272 0.950 1_545 S
H297 C273 0.949 . S
H298 C275 0.950 . S
H299 C277 0.950 . S
C300 C301 1.349 . S
C300 C302 1.327 . S
C300 H325 0.950 . S
C301 C300 1.349 . S
C301 C317 1.349 . S
C302 C300 1.327 . S
C302 C321 1.429 . S
C302 H326 0.950 . S
C303 C320 1.574 . S
C303 C322 1.368 . S
C303 H327 0.949 . S
H304 C308 0.949 . S
C305 C306 1.349 . S
C305 C307 1.327 1_655 S
C305 H328 0.950 . S
C306 C305 1.349 . S
C306 C318 1.349 1_655 S
C307 C305 1.327 1_455 S
C307 C323 1.429 . S
C307 H329 0.950 . S
C308 H304 0.949 . S
C308 C316 1.574 . S
C308 C324 1.368 . S
H309 C317 0.950 . S
H310 C315 0.950 . S
H311 C316 0.949 . S
H312 C318 0.950 . S
H313 C319 0.950 . S
H314 C320 0.949 . S
C315 H310 0.950 . S
C315 C317 1.327 . S
C315 C321 1.429 . S
C316 C308 1.574 . S
C316 H311 0.949 . S
C316 C322 1.368 . S
C317 C301 1.349 . S
C317 H309 0.950 . S
C317 C315 1.327 . S
C318 C306 1.349 1_455 S
C318 H312 0.950 . S
C318 C319 1.327 . S
C319 H313 0.950 . S
C319 C318 1.327 . S
C319 C323 1.429 . S
C320 C303 1.574 . S
C320 H314 0.949 . S
C320 C324 1.368 . S
C321 C302 1.429 . S
C321 C315 1.429 . S
C321 C322 1.523 . S
C322 C303 1.368 . S
C322 C316 1.368 . S
C322 C321 1.523 . S
C323 C307 1.429 . S
C323 C319 1.429 . S
C323 C324 1.523 . S
C324 C308 1.368 . S
C324 C320 1.368 . S
C324 C323 1.523 . S
H325 C300 0.950 . S
H326 C302 0.950 . S
H327 C303 0.949 . S
H328 C305 0.950 . S
H329 C307 0.950 . S
C330 C331 1.349 . S
C330 C332 1.327 . S
C330 H355 0.950 . S
C331 C330 1.349 . S
C331 C347 1.349 . S
C332 C330 1.327 . S
C332 C351 1.429 . S
C332 H356 0.950 . S
C333 C350 1.574 . S
C333 C352 1.368 . S
C333 H357 0.949 . S
H334 C338 0.949 . S
C335 C336 1.349 . S
C335 C337 1.327 . S
C335 H358 0.950 . S
C336 C335 1.349 . S
C336 C348 1.349 . S
C337 C335 1.327 . S
C337 C353 1.429 . S
C337 H359 0.950 . S
C338 H334 0.949 . S
C338 C346 1.574 . S
C338 C354 1.368 . S
H339 C347 0.950 . S
H340 C345 0.950 . S
H341 C346 0.949 . S
H342 C348 0.950 . S
H343 C349 0.950 . S
H344 C350 0.949 . S
C345 H340 0.950 . S
C345 C347 1.327 . S
C345 C351 1.429 . S
C346 C338 1.574 . S
C346 H341 0.949 . S
C346 C352 1.368 . S
C347 C331 1.349 . S
C347 H339 0.950 . S
C347 C345 1.327 . S
C348 C336 1.349 . S
C348 H342 0.950 . S
C348 C349 1.327 . S
C349 H343 0.950 . S
C349 C348 1.327 . S
C349 C353 1.429 . S
C350 C333 1.574 . S
C350 H344 0.949 . S
C350 C354 1.368 . S
C351 C332 1.429 . S
C351 C345 1.429 . S
C351 C352 1.523 . S
C352 C333 1.368 . S
C352 C346 1.368 . S
C352 C351 1.523 . S
C353 C337 1.429 . S
C353 C349 1.429 . S
C353 C354 1.523 . S
C354 C338 1.368 . S
C354 C350 1.368 . S
C354 C353 1.523 . S
H355 C330 0.950 . S
H356 C332 0.950 . S
H357 C333 0.949 . S
H358 C335 0.950 . S
H359 C337 0.950 . S
C360 C361 1.349 . S
C360 C362 1.327 . S
C360 H385 0.950 . S
C361 C360 1.349 . S
C361 C377 1.349 . S
C362 C360 1.327 . S
C362 C381 1.429 . S
C362 H386 0.950 . S
C363 C380 1.574 1_455 S
C363 C382 1.368 . S
C363 H387 0.959 . S
H364 C368 0.949 . S
C365 C366 1.349 . S
C365 C367 1.327 . S
C365 H388 0.950 . S
C366 C365 1.349 . S
C366 C378 1.349 . S
C367 C365 1.327 . S
C367 C383 1.429 . S
C367 H389 0.950 . S
C368 H364 0.949 . S
C368 C376 1.574 . S
C368 C384 1.368 1_455 S
H369 C377 0.950 . S
H370 C375 0.950 . S
H371 C376 0.949 . S
H372 C378 0.950 . S
H373 C379 0.950 . S
H374 C380 0.949 . S
C375 H370 0.950 . S
C375 C377 1.327 . S
C375 C381 1.429 . S
C376 C368 1.574 . S
C376 H371 0.949 . S
C376 C382 1.368 . S
C377 C361 1.349 . S
C377 H369 0.950 . S
C377 C375 1.327 . S
C378 C366 1.349 . S
C378 H372 0.950 . S
C378 C379 1.327 . S
C379 H373 0.950 . S
C379 C378 1.327 . S
C379 C383 1.429 . S
C380 C363 1.574 1_655 S
C380 H374 0.949 . S
C380 C384 1.368 . S
C381 C362 1.429 . S
C381 C375 1.429 . S
C381 C382 1.523 . S
C382 C363 1.368 . S
C382 C376 1.368 . S
C382 C381 1.523 . S
C383 C367 1.429 . S
C383 C379 1.429 . S
C383 C384 1.523 . S
C384 C368 1.368 1_655 S
C384 C380 1.368 . S
C384 C383 1.523 . S
H385 C360 0.950 . S
H386 C362 0.950 . S
H387 C363 0.959 . S
H388 C365 0.950 . S
H389 C367 0.950 . S
C390 C391 1.349 . S
C390 C392 1.327 . S
C390 H415 0.950 . S
C391 C390 1.349 . S
C391 C407 1.349 . S
C392 C390 1.327 . S
C392 C411 1.429 . S
C392 H416 0.950 . S
C393 C410 1.574 1_545 S
C393 C412 1.368 . S
C393 H417 0.949 . S
H394 C398 0.949 . S
C395 C396 1.349 . S
C395 C397 1.327 . S
C395 H418 0.950 . S
C396 C395 1.349 . S
C396 C408 1.349 . S
C397 C395 1.327 . S
C397 C413 1.429 . S
C397 H419 0.950 . S
C398 H394 0.949 . S
C398 C406 1.574 . S
C398 C414 1.368 1_545 S
H399 C407 0.950 . S
H400 C405 0.950 . S
H401 C406 0.949 . S
H402 C408 0.950 . S
H403 C409 0.950 1_545 S
H404 C410 0.949 . S
C405 H400 0.950 . S
C405 C407 1.327 . S
C405 C411 1.429 . S
C406 C398 1.574 . S
C406 H401 0.949 . S
C406 C412 1.368 . S
C407 C391 1.349 . S
C407 H399 0.950 . S
C407 C405 1.327 . S
C408 C396 1.349 . S
C408 H402 0.950 . S
C408 C409 1.327 . S
C409 H403 0.950 1_565 S
C409 C408 1.327 . S
C409 C413 1.429 . S
C410 C393 1.574 1_565 S
C410 H404 0.949 . S
C410 C414 1.368 . S
C411 C392 1.429 . S
C411 C405 1.429 . S
C411 C412 1.523 . S
C412 C393 1.368 . S
C412 C406 1.368 . S
C412 C411 1.523 . S
C413 C397 1.429 . S
C413 C409 1.429 . S
C413 C414 1.523 . S
C414 C398 1.368 1_565 S
C414 C410 1.368 . S
C414 C413 1.523 . S
H415 C390 0.950 . S
H416 C392 0.950 . S
H417 C393 0.949 . S
H418 C395 0.950 . S
H419 C397 0.950 . S
C420 C421 1.349 . S
C420 C422 1.327 . S
C420 H445 0.950 . S
C421 C420 1.349 . S
C421 C437 1.349 . S
C422 C420 1.327 . S
C422 C441 1.429 . S
C422 H446 0.950 . S
C423 C440 1.574 . S
C423 C442 1.368 . S
C423 H447 0.949 . S
H424 C428 0.933 1_455 S
C425 C426 1.349 . S
C425 C427 1.327 . S
C425 H448 0.950 . S
C426 C425 1.349 . S
C426 C438 1.349 . S
C427 C425 1.327 . S
C427 C443 1.429 . S
C427 H449 0.950 1_455 S
C428 H424 0.933 1_655 S
C428 C436 1.591 . S
C428 C444 1.369 . S
H429 C437 0.950 . S
H430 C435 0.950 . S
H431 C436 0.949 . S
H432 C438 0.950 . S
H433 C439 0.950 . S
H434 C440 0.949 . S
C435 H430 0.950 . S
C435 C437 1.327 . S
C435 C441 1.429 . S
C436 C428 1.591 . S
C436 H431 0.949 . S
C436 C442 1.368 . S
C437 C421 1.349 . S
C437 H429 0.950 . S
C437 C435 1.327 . S
C438 C426 1.349 . S
C438 H432 0.950 . S
C438 C439 1.327 . S
C439 H433 0.950 . S
C439 C438 1.327 . S
C439 C443 1.429 . S
C440 C423 1.574 . S
C440 H434 0.949 . S
C440 C444 1.368 . S
C441 C422 1.429 . S
C441 C435 1.429 . S
C441 C442 1.523 . S
C442 C423 1.368 . S
C442 C436 1.368 . S
C442 C441 1.523 . S
C443 C427 1.429 . S
C443 C439 1.429 . S
C443 C444 1.523 1_455 S
C444 C428 1.369 . S
C444 C440 1.368 . S
C444 C443 1.523 1_655 S
H445 C420 0.950 . S
H446 C422 0.950 . S
H447 C423 0.949 . S
H448 C425 0.950 . S
H449 C427 0.950 1_655 S
C450 C451 1.349 . S
C450 C452 1.327 . S
C450 H475 0.950 . S
C451 C450 1.349 . S
C451 C467 1.349 . S
C452 C450 1.327 . S
C452 C471 1.429 . S
C452 H476 0.950 . S
C453 C470 1.574 . S
C453 C472 1.368 . S
C453 H477 0.949 . S
H454 C458 0.945 1_545 S
C455 C456 1.349 . S
C455 C457 1.327 . S
C455 H478 0.950 . S
C456 C455 1.349 . S
C456 C468 1.349 . S
C457 C455 1.327 . S
C457 C473 1.429 . S
C457 H479 0.950 . S
C458 H454 0.945 1_565 S
C458 C466 1.574 . S
C458 C474 1.368 . S
H459 C467 0.950 . S
H460 C465 0.950 . S
H461 C466 0.949 . S
H462 C468 0.950 . S
H463 C469 0.950 . S
H464 C470 0.949 . S
C465 H460 0.950 . S
C465 C467 1.327 . S
C465 C471 1.429 . S
C466 C458 1.574 . S
C466 H461 0.949 . S
C466 C472 1.368 . S
C467 C451 1.349 . S
C467 H459 0.950 . S
C467 C465 1.327 . S
C468 C456 1.349 . S
C468 H462 0.950 . S
C468 C469 1.327 . S
C469 H463 0.950 . S
C469 C468 1.327 . S
C469 C473 1.429 . S
C470 C453 1.574 . S
C470 H464 0.949 . S
C470 C474 1.368 . S
C471 C452 1.429 . S
C471 C465 1.429 . S
C471 C472 1.523 . S
C472 C453 1.368 . S
C472 C466 1.368 . S
C472 C471 1.523 . S
C473 C457 1.429 . S
C473 C469 1.429 . S
C473 C474 1.523 1_545 S
C474 C458 1.368 . S
C474 C470 1.368 . S
C474 C473 1.523 1_565 S
H475 C450 0.950 . S
H476 C452 0.950 . S
H477 C453 0.949 . S
H478 C455 0.950 . S
H479 C457 0.950 . S
C480 C481 1.349 . S
C480 C482 1.327 . S
C480 H505 0.950 . S
C481 C480 1.349 . S
C481 C497 1.349 . S
C482 C480 1.327 . S
C482 C501 1.429 . S
C482 H506 0.950 . S
C483 C500 1.574 . S
C483 C502 1.368 . S
C483 H507 0.949 . S
H484 C488 0.949 . S
C485 C486 1.349 . S
C485 C487 1.327 . S
C485 H508 0.950 . S
C486 C485 1.349 . S
C486 C498 1.349 . S
C487 C485 1.327 . S
C487 C503 1.429 . S
C487 H509 0.950 . S
C488 H484 0.949 . S
C488 C496 1.574 . S
C488 C504 1.368 . S
H489 C497 0.950 . S
H490 C495 0.950 . S
H491 C496 0.949 . S
H492 C498 0.950 . S
H493 C499 0.950 . S
H494 C500 0.949 . S
C495 H490 0.950 . S
C495 C497 1.327 . S
C495 C501 1.429 . S
C496 C488 1.574 . S
C496 H491 0.949 . S
C496 C502 1.368 . S
C497 C481 1.349 . S
C497 H489 0.950 . S
C497 C495 1.327 . S
C498 C486 1.349 . S
C498 H492 0.950 . S
C498 C499 1.327 . S
C499 H493 0.950 . S
C499 C498 1.327 . S
C499 C503 1.429 . S
C500 C483 1.574 . S
C500 H494 0.949 . S
C500 C504 1.368 . S
C501 C482 1.429 . S
C501 C495 1.429 . S
C501 C502 1.523 . S
C502 C483 1.368 . S
C502 C496 1.368 . S
C502 C501 1.523 . S
C503 C487 1.429 . S
C503 C499 1.429 . S
C503 C504 1.523 . S
C504 C488 1.368 . S
C504 C500 1.368 . S
C504 C503 1.523 . S
H505 C480 0.950 . S
H506 C482 0.950 . S
H507 C483 0.949 . S
H508 C485 0.950 . S
H509 C487 0.950 . S
C510 C511 1.349 . S
C510 C512 1.327 . S
C510 H535 0.950 . S
C511 C510 1.349 . S
C511 C527 1.349 . S
C512 C510 1.327 . S
C512 C531 1.429 . S
C512 H536 0.950 . S
C513 C530 1.574 . S
C513 C532 1.387 . S
C513 H537 0.932 1_554 S
H514 C518 0.949 . S
C515 C516 1.349 . S
C515 C517 1.327 . S
C515 H538 0.950 1_554 S
C516 C515 1.349 . S
C516 C528 1.349 . S
C517 C515 1.327 . S
C517 C533 1.429 . S
C517 H539 0.950 1_554 S
C518 H514 0.949 . S
C518 C526 1.574 . S
C518 C534 1.368 . S
H519 C527 0.950 1_556 S
H520 C525 0.950 1_556 S
H521 C526 0.949 . S
H522 C528 0.950 1_565 S
H523 C529 0.950 . S
H524 C530 0.932 1_556 S
C525 H520 0.950 1_554 S
C525 C527 1.327 . S
C525 C531 1.429 . S
C526 C518 1.574 . S
C526 H521 0.949 . S
C526 C532 1.368 . S
C527 C511 1.349 . S
C527 H519 0.950 1_554 S
C527 C525 1.327 . S
C528 C516 1.349 . S
C528 H522 0.950 1_545 S
C528 C529 1.327 . S
C529 H523 0.950 . S
C529 C528 1.327 . S
C529 C533 1.429 . S
C530 C513 1.574 . S
C530 H524 0.932 1_554 S
C530 C534 1.387 . S
C531 C512 1.429 . S
C531 C525 1.429 . S
C531 C532 1.523 . S
C532 C513 1.387 . S
C532 C526 1.368 . S
C532 C531 1.523 . S
C533 C517 1.429 . S
C533 C529 1.429 . S
C533 C534 1.523 . S
C534 C518 1.368 . S
C534 C530 1.387 . S
C534 C533 1.523 . S
H535 C510 0.950 . S
H536 C512 0.950 . S
H537 C513 0.932 1_556 S
H538 C515 0.950 1_556 S
H539 C517 0.950 1_556 S
C540 C541 1.349 . S
C540 C542 1.327 . S
C540 H565 0.950 . S
C541 C540 1.349 . S
C541 C557 1.349 . S
C542 C540 1.327 . S
C542 C561 1.429 . S
C542 H566 0.950 . S
C543 C560 1.574 . S
C543 C562 1.368 . S
C543 H567 0.949 . S
H544 C548 0.949 . S
C545 C546 1.349 . S
C545 C547 1.327 . S
C545 H568 0.950 . S
C546 C545 1.349 . S
C546 C558 1.349 . S
C547 C545 1.327 . S
C547 C563 1.429 . S
C547 H569 0.950 . S
C548 H544 0.949 . S
C548 C556 1.574 . S
C548 C564 1.368 . S
H549 C557 0.950 . S
H550 C555 0.950 . S
H551 C556 0.949 . S
H552 C558 0.950 . S
H553 C559 0.950 . S
H554 C560 0.949 . S
C555 H550 0.950 . S
C555 C557 1.327 . S
C555 C561 1.429 . S
C556 C548 1.574 . S
C556 H551 0.949 . S
C556 C562 1.368 . S
C557 C541 1.349 . S
C557 H549 0.950 . S
C557 C555 1.327 . S
C558 C546 1.349 . S
C558 H552 0.950 . S
C558 C559 1.327 . S
C559 H553 0.950 . S
C559 C558 1.327 . S
C559 C563 1.429 . S
C560 C543 1.574 . S
C560 H554 0.949 . S
C560 C564 1.368 . S
C561 C542 1.429 . S
C561 C555 1.429 . S
C561 C562 1.523 . S
C562 C543 1.368 . S
C562 C556 1.368 . S
C562 C561 1.523 . S
C563 C547 1.429 . S
C563 C559 1.429 . S
C563 C564 1.523 . S
C564 C548 1.368 . S
C564 C560 1.368 . S
C564 C563 1.523 . S
H565 C540 0.950 . S
H566 C542 0.950 . S
H567 C543 0.949 . S
H568 C545 0.950 . S
H569 C547 0.950 . S
C570 C571 1.349 . S
C570 C572 1.327 . S
C570 H595 0.950 . S
C571 C570 1.349 . S
C571 C587 1.350 . S
C572 C570 1.327 . S
C572 C591 1.429 . S
C572 H596 0.950 . S
C573 C590 1.574 . S
C573 C592 1.368 . S
C573 H597 0.949 . S
H574 C578 0.949 . S
C575 C576 1.349 . S
C575 C577 1.327 . S
C575 H598 0.950 . S
C576 C575 1.349 . S
C576 C588 1.349 . S
C577 C575 1.327 . S
C577 C593 1.429 . S
C577 H599 0.950 . S
C578 H574 0.949 . S
C578 C586 1.574 . S
C578 C594 1.368 . S
H579 C587 0.948 1_655 S
H580 C585 0.950 . S
H581 C586 0.949 . S
H582 C588 0.950 . S
H583 C589 0.950 . S
H584 C590 0.949 . S
C585 H580 0.950 . S
C585 C587 1.327 . S
C585 C591 1.429 . S
C586 C578 1.574 . S
C586 H581 0.949 . S
C586 C592 1.368 . S
C587 C571 1.350 . S
C587 H579 0.948 1_455 S
C587 C585 1.327 . S
C588 C576 1.349 . S
C588 H582 0.950 . S
C588 C589 1.327 . S
C589 H583 0.950 . S
C589 C588 1.327 . S
C589 C593 1.429 . S
C590 C573 1.574 . S
C590 H584 0.949 . S
C590 C594 1.368 . S
C591 C572 1.429 . S
C591 C585 1.429 . S
C591 C592 1.523 . S
C592 C573 1.368 . S
C592 C586 1.368 . S
C592 C591 1.523 . S
C593 C577 1.429 . S
C593 C589 1.429 . S
C593 C594 1.523 . S
C594 C578 1.368 . S
C594 C590 1.368 . S
C594 C593 1.523 . S
H595 C570 0.950 . S
H596 C572 0.950 . S
H597 C573 0.949 . S
H598 C575 0.950 . S
H599 C577 0.950 . S
C600 C601 1.349 . S
C600 C602 1.327 . S
C600 H625 0.950 . S
C601 C600 1.349 . S
C601 C617 1.349 . S
C602 C600 1.327 . S
C602 C621 1.429 . S
C602 H626 0.950 . S
C603 C620 1.574 . S
C603 C622 1.368 . S
C603 H627 0.949 . S
H604 C608 0.949 . S
C605 C606 1.349 . S
C605 C607 1.327 . S
C605 H628 0.950 . S
C606 C605 1.349 . S
C606 C618 1.349 . S
C607 C605 1.327 . S
C607 C623 1.429 . S
C607 H629 0.950 . S
C608 H604 0.949 . S
C608 C616 1.574 . S
C608 C624 1.368 . S
H609 C617 0.950 . S
H610 C615 0.950 . S
H611 C616 0.949 . S
H612 C618 0.950 . S
H613 C619 0.950 . S
H614 C620 0.949 . S
C615 H610 0.950 . S
C615 C617 1.327 . S
C615 C621 1.429 . S
C616 C608 1.574 . S
C616 H611 0.949 . S
C616 C622 1.368 . S
C617 C601 1.349 . S
C617 H609 0.950 . S
C617 C615 1.327 . S
C618 C606 1.349 . S
C618 H612 0.950 . S
C618 C619 1.327 . S
C619 H613 0.950 . S
C619 C618 1.327 . S
C619 C623 1.429 . S
C620 C603 1.574 . S
C620 H614 0.949 . S
C620 C624 1.368 . S
C621 C602 1.429 . S
C621 C615 1.429 . S
C621 C622 1.523 . S
C622 C603 1.368 . S
C622 C616 1.368 . S
C622 C621 1.523 . S
C623 C607 1.429 . S
C623 C619 1.429 . S
C623 C624 1.523 . S
C624 C608 1.368 . S
C624 C620 1.368 . S
C624 C623 1.523 . S
H625 C600 0.950 . S
H626 C602 0.950 . S
H627 C603 0.949 . S
H628 C605 0.950 . S
H629 C607 0.950 . S
C630 C631 1.349 . S
C630 C632 1.327 . S
C630 H655 0.950 . S
C631 C630 1.349 . S
C631 C647 1.349 . S
C632 C630 1.327 . S
C632 C651 1.429 . S
C632 H656 0.950 . S
C633 C650 1.574 . S
C633 C652 1.368 . S
C633 H657 0.949 . S
H634 C638 0.949 . S
C635 C636 1.349 . S
C635 C637 1.327 . S
C635 H658 0.950 . S
C636 C635 1.349 . S
C636 C648 1.349 . S
C637 C635 1.327 . S
C637 C653 1.429 . S
C637 H659 0.950 . S
C638 H634 0.949 . S
C638 C646 1.574 . S
C638 C654 1.368 . S
H639 C647 0.950 . S
H640 C645 0.950 . S
H641 C646 0.949 . S
H642 C648 0.950 . S
H643 C649 0.950 . S
H644 C650 0.949 . S
C645 H640 0.950 . S
C645 C647 1.327 . S
C645 C651 1.429 . S
C646 C638 1.574 . S
C646 H641 0.949 . S
C646 C652 1.368 . S
C647 C631 1.349 . S
C647 H639 0.950 . S
C647 C645 1.327 . S
C648 C636 1.349 . S
C648 H642 0.950 . S
C648 C649 1.327 . S
C649 H643 0.950 . S
C649 C648 1.327 . S
C649 C653 1.429 . S
C650 C633 1.574 . S
C650 H644 0.949 . S
C650 C654 1.368 . S
C651 C632 1.429 . S
C651 C645 1.429 . S
C651 C652 1.523 . S
C652 C633 1.368 . S
C652 C646 1.368 . S
C652 C651 1.523 . S
C653 C637 1.429 . S
C653 C649 1.429 . S
C653 C654 1.523 . S
C654 C638 1.368 . S
C654 C650 1.368 . S
C654 C653 1.523 . S
H655 C630 0.950 . S
H656 C632 0.950 . S
H657 C633 0.949 . S
H658 C635 0.950 . S
H659 C637 0.950 . S
C660 C661 1.349 . S
C660 C662 1.327 . S
C660 H685 0.950 1_655 S
C661 C660 1.349 . S
C661 C677 1.349 . S
C662 C660 1.327 . S
C662 C681 1.429 . S
C662 H686 0.950 . S
C663 C680 1.574 . S
C663 C682 1.368 . S
C663 H687 0.949 . S
H664 C668 0.949 . S
C665 C666 1.349 . S
C665 C667 1.327 . S
C665 H688 0.950 . S
C666 C665 1.349 . S
C666 C678 1.349 . S
C667 C665 1.327 . S
C667 C683 1.429 . S
C667 H689 0.950 . S
C668 H664 0.949 . S
C668 C676 1.574 . S
C668 C684 1.368 . S
H669 C677 0.950 . S
H670 C675 0.950 . S
H671 C676 0.949 . S
H672 C678 0.950 . S
H673 C679 0.950 . S
H674 C680 0.949 . S
C675 H670 0.950 . S
C675 C677 1.327 . S
C675 C681 1.429 . S
C676 C668 1.574 . S
C676 H671 0.949 . S
C676 C682 1.368 . S
C677 C661 1.349 . S
C677 H669 0.950 . S
C677 C675 1.327 . S
C678 C666 1.349 . S
C678 H672 0.950 . S
C678 C679 1.327 . S
C679 H673 0.950 . S
C679 C678 1.327 . S
C679 C683 1.429 . S
C680 C663 1.574 . S
C680 H674 0.949 . S
C680 C684 1.368 . S
C681 C662 1.429 . S
C681 C675 1.429 . S
C681 C682 1.523 . S
C682 C663 1.368 . S
C682 C676 1.368 . S
C682 C681 1.523 . S
C683 C667 1.429 . S
C683 C679 1.429 . S
C683 C684 1.523 . S
C684 C668 1.368 . S
C684 C680 1.368 . S
C684 C683 1.523 . S
H685 C660 0.950 1_455 S
H686 C662 0.950 . S
H687 C663 0.949 . S
H688 C665 0.950 . S
H689 C667 0.950 . S
C690 C691 1.349 . S
C690 C692 1.327 . S
C690 H715 0.950 . S
C691 C690 1.349 . S
C691 C707 1.349 . S
C692 C690 1.327 . S
C692 C711 1.429 . S
C692 H716 0.950 . S
C693 C710 1.574 . S
C693 C712 1.368 . S
C693 H717 0.949 . S
H694 C698 0.949 . S
C695 C696 1.349 . S
C695 C697 1.327 . S
C695 H718 0.950 . S
C696 C695 1.349 . S
C696 C708 1.349 . S
C697 C695 1.327 . S
C697 C713 1.429 . S
C697 H719 0.950 . S
C698 H694 0.949 . S
C698 C706 1.574 . S
C698 C714 1.368 . S
H699 C707 0.950 1_545 S
H700 C705 0.950 . S
H701 C706 0.949 . S
H702 C708 0.950 . S
H703 C709 0.950 . S
H704 C710 0.949 . S
C705 H700 0.950 . S
C705 C707 1.327 . S
C705 C711 1.429 . S
C706 C698 1.574 . S
C706 H701 0.949 . S
C706 C712 1.368 . S
C707 C691 1.349 . S
C707 H699 0.950 1_565 S
C707 C705 1.327 . S
C708 C696 1.349 . S
C708 H702 0.950 . S
C708 C709 1.327 . S
C709 H703 0.950 . S
C709 C708 1.327 . S
C709 C713 1.429 . S
C710 C693 1.574 . S
C710 H704 0.949 . S
C710 C714 1.368 . S
C711 C692 1.429 . S
C711 C705 1.429 . S
C711 C712 1.523 . S
C712 C693 1.368 . S
C712 C706 1.368 . S
C712 C711 1.523 . S
C713 C697 1.429 . S
C713 C709 1.429 . S
C713 C714 1.523 . S
C714 C698 1.368 . S
C714 C710 1.368 . S
C714 C713 1.523 . S
H715 C690 0.950 . S
H716 C692 0.950 . S
H717 C693 0.949 . S
H718 C695 0.950 . S
H719 C697 0.950 . S
C720 C721 1.349 . S
C720 C722 1.327 . S
C720 H745 0.950 . S
C721 C720 1.349 . S
C721 C737 1.349 . S
C722 C720 1.327 . S
C722 C741 1.429 . S
C722 H746 0.950 . S
C723 C740 1.574 . S
C723 C742 1.368 . S
C723 H747 0.949 . S
H724 C728 0.949 . S
C725 C726 1.349 . S
C725 C727 1.327 . S
C725 H748 0.950 . S
C726 C725 1.349 . S
C726 C738 1.349 . S
C727 C725 1.327 . S
C727 C743 1.429 . S
C727 H749 0.950 . S
C728 H724 0.949 . S
C728 C736 1.574 . S
C728 C744 1.368 . S
H729 C737 0.950 . S
H730 C735 0.950 . S
H731 C736 0.949 . S
H732 C738 0.950 . S
H733 C739 0.950 . S
H734 C740 0.949 . S
C735 H730 0.950 . S
C735 C737 1.327 . S
C735 C741 1.429 . S
C736 C728 1.574 . S
C736 H731 0.949 . S
C736 C742 1.368 . S
C737 C721 1.349 . S
C737 H729 0.950 . S
C737 C735 1.327 . S
C738 C726 1.349 . S
C738 H732 0.950 . S
C738 C739 1.327 . S
C739 H733 0.950 . S
C739 C738 1.327 . S
C739 C743 1.429 . S
C740 C723 1.574 . S
C740 H734 0.949 . S
C740 C744 1.368 . S
C741 C722 1.429 . S
C741 C735 1.429 . S
C741 C742 1.523 . S
C742 C723 1.368 . S
C742 C736 1.368 . S
C742 C741 1.523 . S
C743 C727 1.429 . S
C743 C739 1.429 . S
C743 C744 1.523 . S
C744 C728 1.368 . S
C744 C740 1.368 . S
C744 C743 1.523 . S
H745 C720 0.950 . S
H746 C722 0.950 . S
H747 C723 0.949 . S
H748 C725 0.950 . S
H749 C727 0.950 . S
C750 C751 1.349 . S
C750 C752 1.327 . S
C750 H775 0.950 . S
C751 C750 1.349 . S
C751 C767 1.349 . S
C752 C750 1.327 . S
C752 C771 1.429 . S
C752 H776 0.950 . S
C753 C770 1.574 . S
C753 C772 1.368 . S
C753 H777 0.949 . S
H754 C758 0.949 . S
C755 C756 1.349 . S
C755 C757 1.327 . S
C755 H778 0.950 . S
C756 C755 1.349 . S
C756 C768 1.349 . S
C757 C755 1.327 . S
C757 C773 1.429 . S
C757 H779 0.950 . S
C758 H754 0.949 . S
C758 C766 1.574 . S
C758 C774 1.368 . S
H759 C767 0.950 1_565 S
H760 C765 0.950 . S
H761 C766 0.949 . S
H762 C768 0.950 . S
H763 C769 0.950 . S
H764 C770 0.949 . S
C765 H760 0.950 . S
C765 C767 1.327 . S
C765 C771 1.429 . S
C766 C758 1.574 . S
C766 H761 0.949 . S
C766 C772 1.368 . S
C767 C751 1.349 . S
C767 H759 0.950 1_545 S
C767 C765 1.327 . S
C768 C756 1.349 . S
C768 H762 0.950 . S
C768 C769 1.327 . S
C769 H763 0.950 . S
C769 C768 1.327 . S
C769 C773 1.429 . S
C770 C753 1.574 . S
C770 H764 0.949 . S
C770 C774 1.368 . S
C771 C752 1.429 . S
C771 C765 1.429 . S
C771 C772 1.523 . S
C772 C753 1.368 . S
C772 C766 1.368 . S
C772 C771 1.523 . S
C773 C757 1.429 . S
C773 C769 1.429 . S
C773 C774 1.523 . S
C774 C758 1.368 . S
C774 C770 1.368 . S
C774 C773 1.523 . S
H775 C750 0.950 . S
H776 C752 0.950 . S
H777 C753 0.949 . S
H778 C755 0.950 . S
H779 C757 0.950 . S
C241 C122 0.940 1_565 S
C246 C2 0.941 . S
C271 C162 0.939 . S
C276 C42 0.939 . S
C301 C202 0.940 . S
C306 C82 0.940 1_655 S
C331 C26 0.605 . S
C336 C89 0.614 . S
C361 C66 0.605 . S
C366 C129 0.615 . S
C391 C106 0.605 . S
C396 C169 0.615 . S
C421 C146 0.605 . S
C426 C209 0.614 . S
C451 C186 0.605 . S
C456 C9 0.615 . S
C481 C226 0.605 . S
C486 C49 0.615 . S
C511 C15 1.455 . S
C516 C135 1.455 1_545 S
C541 C55 1.459 . S
C546 C175 1.459 . S
C571 C95 1.456 1_455 S
C576 C215 1.456 . S
C601 C22 3.895 . S
C606 C43 3.917 . S
C631 C62 3.895 . S
C636 C83 3.917 . S
C661 C102 3.895 . S
C666 C123 3.918 . S
C691 C142 3.895 . S
C696 C163 3.918 . S
C721 C182 3.895 1_455 S
C726 C203 3.918 . S
C751 C222 3.895 . S
C756 C3 3.918 . S
