# Generated by pormake.
# Topology umn, (4)-cn, num edge types: 1
# Building blocks:
#     Node 0, Type 0, BuildingBlock: QUQFOY_clean_sbu_3, # of connection points: 4
#     Node 1, Type 0, BuildingBlock: QUQFOY_clean_sbu_3, # of connection points: 4
#     Node 2, Type 0, BuildingBlock: QUQFOY_clean_sbu_3, # of connection points: 4
#     Node 3, Type 0, BuildingBlock: QUQFOY_clean_sbu_3, # of connection points: 4
#     Node 4, Type 0, BuildingBlock: QUQFOY_clean_sbu_3, # of connection points: 4
#     Node 5, Type 0, BuildingBlock: QUQFOY_clean_sbu_3, # of connection points: 4
#     Node 6, Type 0, BuildingBlock: QUQFOY_clean_sbu_3, # of connection points: 4
#     Node 7, Type 0, BuildingBlock: QUQFOY_clean_sbu_3, # of connection points: 4
#     Node 8, Type 0, BuildingBlock: QUQFOY_clean_sbu_3, # of connection points: 4
#     Node 9, Type 0, BuildingBlock: QUQFOY_clean_sbu_3, # of connection points: 4
#     Node 10, Type 0, BuildingBlock: QUQFOY_clean_sbu_3, # of connection points: 4
#     Node 11, Type 0, BuildingBlock: QUQFOY_clean_sbu_3, # of connection points: 4
#     Node 12, Type 0, BuildingBlock: QUQFOY_clean_sbu_3, # of connection points: 4
#     Node 13, Type 0, BuildingBlock: QUQFOY_clean_sbu_3, # of connection points: 4
#     Node 14, Type 0, BuildingBlock: QUQFOY_clean_sbu_3, # of connection points: 4
#     Node 15, Type 0, BuildingBlock: QUQFOY_clean_sbu_3, # of connection points: 4
#     Node 16, Type 0, BuildingBlock: QUQFOY_clean_sbu_3, # of connection points: 4
#     Node 17, Type 0, BuildingBlock: QUQFOY_clean_sbu_3, # of connection points: 4
#     Node 18, Type 0, BuildingBlock: QUQFOY_clean_sbu_3, # of connection points: 4
#     Node 19, Type 0, BuildingBlock: QUQFOY_clean_sbu_3, # of connection points: 4
#     Node 20, Type 0, BuildingBlock: QUQFOY_clean_sbu_3, # of connection points: 4
#     Node 21, Type 0, BuildingBlock: QUQFOY_clean_sbu_3, # of connection points: 4
#     Node 22, Type 0, BuildingBlock: QUQFOY_clean_sbu_3, # of connection points: 4
#     Node 23, Type 0, BuildingBlock: QUQFOY_clean_sbu_3, # of connection points: 4
#     Node 24, Type 0, BuildingBlock: QUQFOY_clean_sbu_3, # of connection points: 4
#     Node 25, Type 0, BuildingBlock: QUQFOY_clean_sbu_3, # of connection points: 4
#     Node 26, Type 0, BuildingBlock: QUQFOY_clean_sbu_3, # of connection points: 4
#     Node 27, Type 0, BuildingBlock: QUQFOY_clean_sbu_3, # of connection points: 4
#     Node 28, Type 0, BuildingBlock: QUQFOY_clean_sbu_3, # of connection points: 4
#     Node 29, Type 0, BuildingBlock: QUQFOY_clean_sbu_3, # of connection points: 4
#     Node 30, Type 0, BuildingBlock: QUQFOY_clean_sbu_3, # of connection points: 4
#     Node 31, Type 0, BuildingBlock: QUQFOY_clean_sbu_3, # of connection points: 4
#     Node 32, Type 0, BuildingBlock: QUQFOY_clean_sbu_3, # of connection points: 4
#     Node 33, Type 0, BuildingBlock: QUQFOY_clean_sbu_3, # of connection points: 4
#     Node 34, Type 0, BuildingBlock: QUQFOY_clean_sbu_3, # of connection points: 4
#     Node 35, Type 0, BuildingBlock: QUQFOY_clean_sbu_3, # of connection points: 4
#     Edge 36, Type (0, 0), BuildingBlock: ZUJKAS_clean_linker_0, # of connection points: 2
#     Edge 37, Type (0, 0), BuildingBlock: ZUJKAS_clean_linker_0, # of connection points: 2
#     Edge 38, Type (0, 0), BuildingBlock: ZUJKAS_clean_linker_0, # of connection points: 2
#     Edge 39, Type (0, 0), BuildingBlock: ZUJKAS_clean_linker_0, # of connection points: 2
#     Edge 40, Type (0, 0), BuildingBlock: ZUJKAS_clean_linker_0, # of connection points: 2
#     Edge 41, Type (0, 0), BuildingBlock: ZUJKAS_clean_linker_0, # of connection points: 2
#     Edge 42, Type (0, 0), BuildingBlock: ZUJKAS_clean_linker_0, # of connection points: 2
#     Edge 43, Type (0, 0), BuildingBlock: ZUJKAS_clean_linker_0, # of connection points: 2
#     Edge 44, Type (0, 0), BuildingBlock: ZUJKAS_clean_linker_0, # of connection points: 2
#     Edge 45, Type (0, 0), BuildingBlock: ZUJKAS_clean_linker_0, # of connection points: 2
#     Edge 46, Type (0, 0), BuildingBlock: ZUJKAS_clean_linker_0, # of connection points: 2
#     Edge 47, Type (0, 0), BuildingBlock: ZUJKAS_clean_linker_0, # of connection points: 2
#     Edge 48, Type (0, 0), BuildingBlock: ZUJKAS_clean_linker_0, # of connection points: 2
#     Edge 49, Type (0, 0), BuildingBlock: ZUJKAS_clean_linker_0, # of connection points: 2
#     Edge 50, Type (0, 0), BuildingBlock: ZUJKAS_clean_linker_0, # of connection points: 2
#     Edge 51, Type (0, 0), BuildingBlock: ZUJKAS_clean_linker_0, # of connection points: 2
#     Edge 52, Type (0, 0), BuildingBlock: ZUJKAS_clean_linker_0, # of connection points: 2
#     Edge 53, Type (0, 0), BuildingBlock: ZUJKAS_clean_linker_0, # of connection points: 2
#     Edge 54, Type (0, 0), BuildingBlock: ZUJKAS_clean_linker_0, # of connection points: 2
#     Edge 55, Type (0, 0), BuildingBlock: ZUJKAS_clean_linker_0, # of connection points: 2
#     Edge 56, Type (0, 0), BuildingBlock: ZUJKAS_clean_linker_0, # of connection points: 2
#     Edge 57, Type (0, 0), BuildingBlock: ZUJKAS_clean_linker_0, # of connection points: 2
#     Edge 58, Type (0, 0), BuildingBlock: ZUJKAS_clean_linker_0, # of connection points: 2
#     Edge 59, Type (0, 0), BuildingBlock: ZUJKAS_clean_linker_0, # of connection points: 2
#     Edge 60, Type (0, 0), BuildingBlock: ZUJKAS_clean_linker_0, # of connection points: 2
#     Edge 61, Type (0, 0), BuildingBlock: ZUJKAS_clean_linker_0, # of connection points: 2
#     Edge 62, Type (0, 0), BuildingBlock: ZUJKAS_clean_linker_0, # of connection points: 2
#     Edge 63, Type (0, 0), BuildingBlock: ZUJKAS_clean_linker_0, # of connection points: 2
#     Edge 64, Type (0, 0), BuildingBlock: ZUJKAS_clean_linker_0, # of connection points: 2
#     Edge 65, Type (0, 0), BuildingBlock: ZUJKAS_clean_linker_0, # of connection points: 2
#     Edge 66, Type (0, 0), BuildingBlock: ZUJKAS_clean_linker_0, # of connection points: 2
#     Edge 67, Type (0, 0), BuildingBlock: ZUJKAS_clean_linker_0, # of connection points: 2
#     Edge 68, Type (0, 0), BuildingBlock: ZUJKAS_clean_linker_0, # of connection points: 2
#     Edge 69, Type (0, 0), BuildingBlock: ZUJKAS_clean_linker_0, # of connection points: 2
#     Edge 70, Type (0, 0), BuildingBlock: ZUJKAS_clean_linker_0, # of connection points: 2
#     Edge 71, Type (0, 0), BuildingBlock: ZUJKAS_clean_linker_0, # of connection points: 2
#     Edge 72, Type (0, 0), BuildingBlock: ZUJKAS_clean_linker_0, # of connection points: 2
#     Edge 73, Type (0, 0), BuildingBlock: ZUJKAS_clean_linker_0, # of connection points: 2
#     Edge 74, Type (0, 0), BuildingBlock: ZUJKAS_clean_linker_0, # of connection points: 2
#     Edge 75, Type (0, 0), BuildingBlock: ZUJKAS_clean_linker_0, # of connection points: 2
#     Edge 76, Type (0, 0), BuildingBlock: ZUJKAS_clean_linker_0, # of connection points: 2
#     Edge 77, Type (0, 0), BuildingBlock: ZUJKAS_clean_linker_0, # of connection points: 2
#     Edge 78, Type (0, 0), BuildingBlock: ZUJKAS_clean_linker_0, # of connection points: 2
#     Edge 79, Type (0, 0), BuildingBlock: ZUJKAS_clean_linker_0, # of connection points: 2
#     Edge 80, Type (0, 0), BuildingBlock: ZUJKAS_clean_linker_0, # of connection points: 2
#     Edge 81, Type (0, 0), BuildingBlock: ZUJKAS_clean_linker_0, # of connection points: 2
#     Edge 82, Type (0, 0), BuildingBlock: ZUJKAS_clean_linker_0, # of connection points: 2
#     Edge 83, Type (0, 0), BuildingBlock: ZUJKAS_clean_linker_0, # of connection points: 2
#     Edge 84, Type (0, 0), BuildingBlock: ZUJKAS_clean_linker_0, # of connection points: 2
#     Edge 85, Type (0, 0), BuildingBlock: ZUJKAS_clean_linker_0, # of connection points: 2
#     Edge 86, Type (0, 0), BuildingBlock: ZUJKAS_clean_linker_0, # of connection points: 2
#     Edge 87, Type (0, 0), BuildingBlock: ZUJKAS_clean_linker_0, # of connection points: 2
#     Edge 88, Type (0, 0), BuildingBlock: ZUJKAS_clean_linker_0, # of connection points: 2
#     Edge 89, Type (0, 0), BuildingBlock: ZUJKAS_clean_linker_0, # of connection points: 2
#     Edge 90, Type (0, 0), BuildingBlock: ZUJKAS_clean_linker_0, # of connection points: 2
#     Edge 91, Type (0, 0), BuildingBlock: ZUJKAS_clean_linker_0, # of connection points: 2
#     Edge 92, Type (0, 0), BuildingBlock: ZUJKAS_clean_linker_0, # of connection points: 2
#     Edge 93, Type (0, 0), BuildingBlock: ZUJKAS_clean_linker_0, # of connection points: 2
#     Edge 94, Type (0, 0), BuildingBlock: ZUJKAS_clean_linker_0, # of connection points: 2
#     Edge 95, Type (0, 0), BuildingBlock: ZUJKAS_clean_linker_0, # of connection points: 2
#     Edge 96, Type (0, 0), BuildingBlock: ZUJKAS_clean_linker_0, # of connection points: 2
#     Edge 97, Type (0, 0), BuildingBlock: ZUJKAS_clean_linker_0, # of connection points: 2
#     Edge 98, Type (0, 0), BuildingBlock: ZUJKAS_clean_linker_0, # of connection points: 2
#     Edge 99, Type (0, 0), BuildingBlock: ZUJKAS_clean_linker_0, # of connection points: 2
#     Edge 100, Type (0, 0), BuildingBlock: ZUJKAS_clean_linker_0, # of connection points: 2
#     Edge 101, Type (0, 0), BuildingBlock: ZUJKAS_clean_linker_0, # of connection points: 2
#     Edge 102, Type (0, 0), BuildingBlock: ZUJKAS_clean_linker_0, # of connection points: 2
#     Edge 103, Type (0, 0), BuildingBlock: ZUJKAS_clean_linker_0, # of connection points: 2
#     Edge 104, Type (0, 0), BuildingBlock: ZUJKAS_clean_linker_0, # of connection points: 2
#     Edge 105, Type (0, 0), BuildingBlock: ZUJKAS_clean_linker_0, # of connection points: 2
#     Edge 106, Type (0, 0), BuildingBlock: ZUJKAS_clean_linker_0, # of connection points: 2
#     Edge 107, Type (0, 0), BuildingBlock: ZUJKAS_clean_linker_0, # of connection points: 2
# Relax obj value: 0.163
# Max RMSD: 0.211
# Mean RMSD: 0.211
data_MOF--net-umn--node1-QUQFOY_clean_sbu_3--edge1-ZUJKAS_clean_linker_0
_symmetry_space_group_name_H-M    P1
_symmetry_Int_Tables_number       1
_symmetry_cell_setting            triclinic
loop_
_symmetry_equiv_pos_as_xyz
'x, y, z'
_cell_length_a     110.23119
_cell_length_b     110.40601
_cell_length_c     49.462216
_cell_angle_alpha  90.162868
_cell_angle_beta   89.924231
_cell_angle_gamma 119.98252
loop_
_atom_site_label
_atom_site_type_symbol
_atom_site_fract_x
_atom_site_fract_y
_atom_site_fract_z
_atom_type_partial_charge
C0 C 0.37811 0.09241 0.19594 0.0
O1 O 0.38187 0.09066 0.21914 0.0
Cd2 Cd 0.36562 0.08421 0.25695 0.0
O3 O 0.36663 0.09239 0.19339 0.0
Cd4 Cd 0.34769 0.09043 0.22322 0.0
C5 C 0.3365 0.0566 0.22994 0.0
O6 O 0.35466 0.09745 0.27168 0.0
O7 O 0.33293 0.08296 0.26146 0.0
O8 O 0.35065 0.11286 0.20984 0.0
C9 C 0.34182 0.09057 0.27911 0.0
O10 O 0.34668 0.06104 0.2465 0.0
C11 C 0.33876 0.10788 0.19856 0.0
O12 O 0.33451 0.06513 0.21597 0.0
O13 O 0.33115 0.09463 0.19786 0.0
C14 C 0.86528 0.27274 0.19716 0.0
O15 O 0.86174 0.27527 0.21995 0.0
Cd16 Cd 0.8698 0.26694 0.258 0.0
O17 O 0.86944 0.26392 0.19577 0.0
Cd18 Cd 0.87067 0.24702 0.22646 0.0
C19 C 0.90196 0.27338 0.23808 0.0
O20 O 0.86068 0.24309 0.2736 0.0
O21 O 0.87901 0.24113 0.26515 0.0
O22 O 0.84998 0.22735 0.20791 0.0
C23 C 0.86932 0.23925 0.28141 0.0
O24 O 0.89491 0.27682 0.25347 0.0
C25 C 0.85616 0.22116 0.19842 0.0
O26 O 0.89578 0.26274 0.22266 0.0
O27 O 0.86942 0.22737 0.20094 0.0
C28 C 0.67981 0.58088 0.1993 0.0
O29 O 0.67383 0.57808 0.22218 0.0
Cd30 Cd 0.68355 0.59565 0.25786 0.0
O31 O 0.69161 0.59195 0.19653 0.0
Cd32 Cd 0.70832 0.61158 0.2255 0.0
C33 C 0.68655 0.62402 0.225 0.0
O34 O 0.70737 0.60656 0.27512 0.0
O35 O 0.71438 0.62776 0.26162 0.0
O36 O 0.7288 0.60906 0.22079 0.0
C37 C 0.71313 0.61961 0.28078 0.0
O38 O 0.68003 0.61442 0.24237 0.0
C39 C 0.73532 0.61938 0.205 0.0
O40 O 0.69742 0.62532 0.21322 0.0
O41 O 0.72907 0.62589 0.19779 0.0
C42 C 0.08872 0.38575 0.29251 0.0
O43 O 0.09157 0.39167 0.26961 0.0
Cd44 Cd 0.0829 0.37492 0.23197 0.0
O45 O 0.085 0.37288 0.29381 0.0
Cd46 Cd 0.08371 0.35483 0.26267 0.0
C47 C 0.05176 0.34906 0.25533 0.0
O48 O 0.09206 0.36049 0.21438 0.0
O49 O 0.07479 0.33987 0.22506 0.0
O50 O 0.10533 0.35701 0.27901 0.0
C51 C 0.08366 0.34774 0.20762 0.0
O52 O 0.0581 0.35944 0.23946 0.0
C53 C 0.0998 0.34481 0.28903 0.0
O54 O 0.05864 0.34492 0.26946 0.0
O55 O 0.08652 0.33733 0.28774 0.0
C56 C 0.57704 0.69102 0.29057 0.0
O57 O 0.5744 0.6859 0.26688 0.0
Cd58 Cd 0.58967 0.69836 0.22852 0.0
O59 O 0.58742 0.70318 0.29441 0.0
Cd60 Cd 0.60593 0.72165 0.26649 0.0
C61 C 0.6207 0.70282 0.25081 0.0
O62 O 0.59852 0.72279 0.21873 0.0
O63 O 0.62056 0.73186 0.22881 0.0
O64 O 0.60157 0.73969 0.28371 0.0
C65 C 0.61136 0.73011 0.21152 0.0
O66 O 0.61101 0.69764 0.23318 0.0
C67 C 0.61332 0.74664 0.29548 0.0
O68 O 0.62082 0.71093 0.26933 0.0
O69 O 0.62147 0.74159 0.29476 0.0
C70 C 0.26986 0.87475 0.28907 0.0
O71 O 0.27504 0.8766 0.26551 0.0
Cd72 Cd 0.26425 0.88258 0.22872 0.0
O73 O 0.25844 0.87473 0.29262 0.0
Cd74 Cd 0.24117 0.87699 0.26462 0.0
C75 C 0.26378 0.9107 0.25538 0.0
O76 O 0.23965 0.86916 0.21624 0.0
O77 O 0.23279 0.88385 0.2274 0.0
O78 O 0.22183 0.85498 0.28005 0.0
C79 C 0.23341 0.87587 0.20968 0.0
O80 O 0.26898 0.906 0.23812 0.0
C81 C 0.21544 0.86033 0.29207 0.0
O82 O 0.25373 0.90237 0.27061 0.0
O83 O 0.22134 0.87359 0.29223 0.0
C84 C 0.57276 0.87361 0.792 0.0
O85 O 0.56888 0.87502 0.76866 0.0
Cd86 Cd 0.58466 0.88039 0.73025 0.0
O87 O 0.58418 0.87351 0.79464 0.0
Cd88 Cd 0.6029 0.87488 0.7651 0.0
C89 C 0.61383 0.90856 0.75532 0.0
O90 O 0.59559 0.86686 0.71718 0.0
O91 O 0.61751 0.88107 0.72683 0.0
O92 O 0.59994 0.8528 0.78075 0.0
C93 C 0.60842 0.87329 0.70963 0.0
O94 O 0.60361 0.90374 0.73882 0.0
C95 C 0.61192 0.85801 0.79174 0.0
O96 O 0.61591 0.90035 0.77019 0.0
O97 O 0.61957 0.87125 0.79132 0.0
C98 C 0.08651 0.68991 0.78801 0.0
O99 O 0.08598 0.6854 0.76417 0.0
Cd100 Cd 0.07972 0.69576 0.72694 0.0
O101 O 0.0855 0.70077 0.79162 0.0
Cd102 Cd 0.08319 0.7178 0.76304 0.0
C103 C 0.05016 0.69343 0.75293 0.0
O104 O 0.09133 0.72031 0.7147 0.0
O105 O 0.07525 0.72532 0.72608 0.0
O106 O 0.10495 0.73718 0.77922 0.0
C107 C 0.0837 0.72563 0.70834 0.0
O108 O 0.05569 0.68924 0.73537 0.0
C109 C 0.09944 0.74362 0.79051 0.0
O110 O 0.0578 0.70349 0.76886 0.0
O111 O 0.08614 0.73769 0.79008 0.0
C112 C 0.26737 0.38667 0.79149 0.0
O113 O 0.2715 0.39191 0.7682 0.0
Cd114 Cd 0.26154 0.37627 0.72908 0.0
O115 O 0.25707 0.37432 0.79346 0.0
Cd116 Cd 0.24038 0.35595 0.7628 0.0
C117 C 0.26555 0.34909 0.74819 0.0
O118 O 0.23706 0.36273 0.71584 0.0
O119 O 0.23279 0.34158 0.72427 0.0
O120 O 0.22078 0.3571 0.78156 0.0
C121 C 0.23199 0.35001 0.70804 0.0
O122 O 0.26927 0.35939 0.73228 0.0
C123 C 0.21472 0.34486 0.79145 0.0
O124 O 0.25555 0.3457 0.7649 0.0
O125 O 0.22096 0.33784 0.78901 0.0
C126 C 0.86557 0.58045 0.70033 0.0
O127 O 0.86548 0.57622 0.72419 0.0
Cd128 Cd 0.87047 0.59224 0.76228 0.0
O129 O 0.86658 0.59232 0.69686 0.0
Cd130 Cd 0.86789 0.61118 0.72583 0.0
C131 C 0.90061 0.62017 0.74029 0.0
O132 O 0.85853 0.60502 0.77339 0.0
O133 O 0.87471 0.62623 0.76342 0.0
O134 O 0.84641 0.60875 0.70794 0.0
C135 C 0.86593 0.61789 0.78043 0.0
O136 O 0.89456 0.61022 0.75716 0.0
C137 C 0.85202 0.62078 0.69718 0.0
O138 O 0.8935 0.62257 0.72299 0.0
O139 O 0.86529 0.62824 0.69862 0.0
C140 C 0.37775 0.2745 0.69601 0.0
O141 O 0.38333 0.2779 0.71924 0.0
Cd142 Cd 0.36632 0.26959 0.75635 0.0
O143 O 0.36498 0.26507 0.69412 0.0
Cd144 Cd 0.34652 0.24834 0.72472 0.0
C145 C 0.34022 0.27418 0.73161 0.0
O146 O 0.35208 0.24587 0.77321 0.0
O147 O 0.33144 0.24239 0.76221 0.0
O148 O 0.3485 0.22873 0.70871 0.0
C149 C 0.3393 0.2415 0.77984 0.0
O150 O 0.35049 0.27839 0.74788 0.0
C151 C 0.33635 0.22219 0.69829 0.0
O152 O 0.33637 0.2632 0.71746 0.0
O153 O 0.32899 0.22812 0.69927 0.0
C154 C 0.68344 0.09192 0.69959 0.0
O155 O 0.67916 0.09267 0.72299 0.0
Cd156 Cd 0.68767 0.08375 0.75893 0.0
O157 O 0.69364 0.08969 0.69733 0.0
Cd158 Cd 0.71063 0.08847 0.72831 0.0
C159 C 0.6873 0.05523 0.73156 0.0
O160 O 0.71121 0.09507 0.77736 0.0
O161 O 0.71638 0.07917 0.76583 0.0
O162 O 0.73013 0.11105 0.71574 0.0
C163 C 0.71619 0.0872 0.78396 0.0
O164 O 0.68156 0.05995 0.74752 0.0
C165 C 0.73733 0.10623 0.70506 0.0
O166 O 0.69844 0.06356 0.7189 0.0
O167 O 0.73183 0.093 0.70424 0.0
C168 C 0.04578 0.42652 0.52991 0.0
O169 O 0.05102 0.42781 0.55327 0.0
Cd170 Cd 0.03395 0.41931 0.59018 0.0
O171 O 0.03323 0.42391 0.52775 0.0
Cd172 Cd 0.01466 0.42226 0.5581 0.0
C173 C 0.00686 0.38953 0.56418 0.0
O174 O 0.02064 0.42992 0.6067 0.0
O175 O -0.00041 0.41364 0.59566 0.0
O176 O 0.01683 0.44408 0.54303 0.0
C177 C 0.00779 0.42201 0.61342 0.0
O178 O 0.01717 0.39502 0.58049 0.0
C179 C 0.00478 0.4386 0.5322 0.0
O180 O 0.00356 0.3972 0.55047 0.0
O181 O -0.00257 0.42532 0.53255 0.0
C182 C 0.5322 0.60806 0.53017 0.0
O183 O 0.53156 0.6123 0.55369 0.0
Cd184 Cd 0.53792 0.60262 0.592 0.0
O185 O 0.53407 0.59766 0.5276 0.0
Cd186 Cd 0.53606 0.58098 0.55772 0.0
C187 C 0.56846 0.60619 0.56846 0.0
O188 O 0.52739 0.57831 0.60566 0.0
O189 O 0.54454 0.57468 0.5956 0.0
O190 O 0.51458 0.56145 0.54128 0.0
C191 C 0.53564 0.57385 0.61285 0.0
O192 O 0.56233 0.61013 0.58517 0.0
C193 C 0.52021 0.55494 0.53086 0.0
O194 O 0.56138 0.59591 0.55258 0.0
O195 O 0.53351 0.56086 0.53197 0.0
C196 C 0.35056 0.91342 0.52995 0.0
O197 O 0.34549 0.90988 0.55352 0.0
Cd198 Cd 0.35475 0.92803 0.58796 0.0
O199 O 0.3616 0.92516 0.52649 0.0
Cd200 Cd 0.37873 0.94474 0.55494 0.0
C201 C 0.3555 0.95516 0.55371 0.0
O202 O 0.37869 0.94007 0.60469 0.0
O203 O 0.38502 0.96104 0.59067 0.0
O204 O 0.39799 0.94079 0.54445 0.0
C205 C 0.38417 0.95313 0.60998 0.0
O206 O 0.3495 0.94549 0.57116 0.0
C207 C 0.40524 0.9523 0.53211 0.0
O208 O 0.36678 0.9574 0.54225 0.0
O209 O 0.39992 0.96013 0.52961 0.0
C210 C 0.75397 0.72061 0.62586 0.0
O211 O 0.75393 0.72522 0.60242 0.0
Cd212 Cd 0.74828 0.70975 0.56321 0.0
O213 O 0.75276 0.70861 0.62834 0.0
Cd214 Cd 0.75078 0.68998 0.59785 0.0
C215 C 0.71812 0.682 0.58556 0.0
O216 O 0.75944 0.6965 0.54996 0.0
O217 O 0.7432 0.67527 0.55979 0.0
O218 O 0.77225 0.6917 0.61398 0.0
C219 C 0.75173 0.68373 0.54258 0.0
O220 O 0.72415 0.69215 0.56911 0.0
C221 C 0.76653 0.67956 0.62432 0.0
O222 O 0.72526 0.67911 0.60188 0.0
O223 O 0.75322 0.67237 0.62346 0.0
C224 C 0.2442 0.02592 0.6301 0.0
O225 O 0.23831 0.02294 0.60716 0.0
Cd226 Cd 0.2559 0.03077 0.57152 0.0
O227 O 0.25711 0.03508 0.63157 0.0
Cd228 Cd 0.27457 0.05242 0.59982 0.0
C229 C 0.2835 0.02856 0.59585 0.0
O230 O 0.26864 0.05372 0.55089 0.0
O231 O 0.28958 0.05829 0.56224 0.0
O232 O 0.27113 0.07152 0.61383 0.0
C233 C 0.28149 0.0585 0.54431 0.0
O234 O 0.27245 0.02292 0.58144 0.0
C235 C 0.28321 0.07882 0.62419 0.0
O236 O 0.28736 0.04018 0.60765 0.0
O237 O 0.29117 0.07355 0.62415 0.0
C238 C 0.93411 0.20574 0.6217 0.0
O239 O 0.93876 0.20647 0.59793 0.0
Cd240 Cd 0.92741 0.2106 0.55929 0.0
O241 O 0.92291 0.20615 0.6252 0.0
Cd242 Cd 0.90557 0.20803 0.59685 0.0
C243 C 0.92894 0.2406 0.57988 0.0
O244 O 0.90249 0.19772 0.55011 0.0
O245 O 0.89625 0.21319 0.55871 0.0
O246 O 0.88646 0.18726 0.61658 0.0
C247 C 0.8964 0.20441 0.54237 0.0
O248 O 0.93276 0.23449 0.56289 0.0
C249 C 0.88052 0.19339 0.62738 0.0
O250 O 0.91986 0.23366 0.59799 0.0
O251 O 0.88661 0.20662 0.62494 0.0
C252 C 0.23841 0.20434 0.12557 0.0
O253 O 0.23359 0.20426 0.10226 0.0
Cd254 Cd 0.24979 0.21143 0.06396 0.0
O255 O 0.25069 0.20616 0.12771 0.0
Cd256 Cd 0.26975 0.20905 0.09738 0.0
C257 C 0.27661 0.24156 0.08906 0.0
O258 O 0.26329 0.20066 0.04936 0.0
O259 O 0.28437 0.2173 0.05902 0.0
O260 O 0.26857 0.1878 0.11309 0.0
C261 C 0.276 0.20858 0.04188 0.0
O262 O 0.26658 0.23574 0.0722 0.0
C263 C 0.28074 0.19372 0.12346 0.0
O264 O 0.27987 0.23421 0.10395 0.0
O265 O 0.28772 0.20701 0.12266 0.0
C266 C 0.75068 0.02215 0.12771 0.0
O267 O 0.74868 0.01693 0.10414 0.0
Cd268 Cd 0.74194 0.02718 0.06777 0.0
O269 O 0.75088 0.03364 0.13129 0.0
Cd270 Cd 0.74916 0.05113 0.1027 0.0
C271 C 0.71503 0.02925 0.09693 0.0
O272 O 0.75547 0.05137 0.05363 0.0
O273 O 0.74153 0.05902 0.06571 0.0
O274 O 0.77207 0.07009 0.11563 0.0
C275 C 0.74878 0.05767 0.04733 0.0
O276 O 0.71907 0.02342 0.07973 0.0
C277 C 0.76754 0.07727 0.12749 0.0
O278 O 0.72391 0.0396 0.11097 0.0
O279 O 0.75433 0.07197 0.12885 0.0
C280 C 0.93181 0.71518 0.12658 0.0
O281 O 0.93601 0.72019 0.10316 0.0
Cd282 Cd 0.92633 0.70398 0.06513 0.0
O283 O 0.92139 0.70291 0.12889 0.0
Cd284 Cd 0.90421 0.68445 0.09856 0.0
C285 C 0.92871 0.67625 0.08793 0.0
O286 O 0.90187 0.69178 0.05142 0.0
O287 O 0.89709 0.67048 0.05928 0.0
O288 O 0.88518 0.68588 0.12036 0.0
C289 C 0.89666 0.67914 0.04314 0.0
O290 O 0.93332 0.68657 0.07177 0.0
C291 C 0.87847 0.67306 0.127 0.0
O292 O 0.9182 0.67321 0.103 0.0
O293 O 0.88398 0.66566 0.12123 0.0
C294 C 0.53443 0.91688 0.03375 0.0
O295 O 0.53577 0.91331 0.05742 0.0
Cd296 Cd 0.54112 0.92945 0.09514 0.0
O297 O 0.53437 0.92825 0.03031 0.0
Cd298 Cd 0.5355 0.94721 0.05898 0.0
C299 C 0.56927 0.9588 0.0704 0.0
O300 O 0.52706 0.93997 0.10669 0.0
O301 O 0.54111 0.96187 0.0972 0.0
O302 O 0.51337 0.94388 0.04243 0.0
C303 C 0.53326 0.95278 0.11426 0.0
O304 O 0.56445 0.94863 0.08695 0.0
C305 C 0.51852 0.95578 0.03123 0.0
O306 O 0.56107 0.96062 0.05496 0.0
O307 O 0.53177 0.96353 0.03193 0.0
C308 C 0.04555 0.60914 0.02994 0.0
O309 O 0.04981 0.61445 0.05318 0.0
Cd310 Cd 0.03391 0.60483 0.09157 0.0
O311 O 0.03381 0.59797 0.02765 0.0
Cd312 Cd 0.0151 0.5814 0.05831 0.0
C313 C 0.00566 0.60532 0.06595 0.0
O314 O 0.02246 0.58058 0.10634 0.0
O315 O 0.00085 0.57441 0.09717 0.0
O316 O 0.01685 0.56202 0.03887 0.0
C317 C 0.0097 0.57495 0.11414 0.0
O318 O 0.01574 0.61047 0.0828 0.0
C319 C 0.00406 0.55512 0.0319 0.0
O320 O 0.00328 0.59479 0.05152 0.0
O321 O -0.00343 0.56067 0.03636 0.0
C322 C 0.35051 0.42728 0.03189 0.0
O323 O 0.34622 0.42832 0.05511 0.0
Cd324 Cd 0.35575 0.4223 0.09432 0.0
O325 O 0.36072 0.42506 0.03008 0.0
Cd326 Cd 0.37703 0.4229 0.06102 0.0
C327 C 0.35155 0.39101 0.07496 0.0
O328 O 0.38018 0.43308 0.10792 0.0
O329 O 0.38409 0.41591 0.09998 0.0
O330 O 0.39688 0.44348 0.04274 0.0
C331 C 0.38499 0.42528 0.11607 0.0
O332 O 0.34782 0.39766 0.09077 0.0
C333 C 0.4029 0.4372 0.03299 0.0
O334 O 0.36169 0.39755 0.05853 0.0
O335 O 0.39654 0.42395 0.03532 0.0
C336 C 0.70906 0.75737 0.8677 0.0
O337 O 0.71271 0.75615 0.89139 0.0
Cd338 Cd 0.69678 0.75149 0.92955 0.0
O339 O 0.69757 0.75719 0.86426 0.0
Cd340 Cd 0.67833 0.75509 0.89303 0.0
C341 C 0.66814 0.72215 0.90703 0.0
O342 O 0.68472 0.76416 0.94077 0.0
O343 O 0.66341 0.7482 0.93086 0.0
O344 O 0.68049 0.77659 0.87617 0.0
C345 C 0.67187 0.75685 0.94796 0.0
O346 O 0.67793 0.72782 0.92439 0.0
C347 C 0.66854 0.77094 0.86493 0.0
O348 O 0.66642 0.72951 0.88927 0.0
O349 O 0.66124 0.75767 0.86577 0.0
C350 C 0.19823 0.94011 0.86545 0.0
O351 O 0.19576 0.94337 0.88858 0.0
Cd352 Cd 0.20277 0.93414 0.92676 0.0
O353 O 0.20122 0.93043 0.86355 0.0
Cd354 Cd 0.20194 0.91309 0.89363 0.0
C355 C 0.23399 0.93827 0.90577 0.0
O356 O 0.19238 0.90996 0.94096 0.0
O357 O 0.20961 0.90626 0.93185 0.0
O358 O 0.18068 0.89384 0.8756 0.0
C359 C 0.20042 0.90531 0.94849 0.0
O360 O 0.22748 0.94223 0.92149 0.0
C361 C 0.18643 0.88733 0.86569 0.0
O362 O 0.22727 0.92785 0.89002 0.0
O363 O 0.1997 0.89317 0.86768 0.0
C364 C 0.01639 0.24668 0.86245 0.0
O365 O 0.01161 0.24228 0.88593 0.0
Cd366 Cd 0.0211 0.25885 0.92331 0.0
O367 O 0.02723 0.25865 0.85982 0.0
Cd368 Cd 0.04416 0.27736 0.89015 0.0
C369 C 0.02031 0.28683 0.8967 0.0
O370 O 0.04526 0.27109 0.93866 0.0
O371 O 0.05064 0.29229 0.92814 0.0
O372 O 0.06374 0.27473 0.87602 0.0
C373 C 0.05046 0.2839 0.94577 0.0
O374 O 0.01511 0.27662 0.91316 0.0
C375 C 0.07062 0.28675 0.86535 0.0
O376 O 0.03111 0.28955 0.88278 0.0
O377 O 0.06487 0.29428 0.86521 0.0
C378 C 0.42018 0.0546 0.95278 0.0
O379 O 0.41956 0.05869 0.92914 0.0
Cd380 Cd 0.41341 0.04257 0.89097 0.0
O381 O 0.41922 0.04274 0.95592 0.0
Cd382 Cd 0.41677 0.02343 0.92694 0.0
C383 C 0.3838 0.01513 0.91627 0.0
O384 O 0.42539 0.02993 0.87919 0.0
O385 O 0.40948 0.00857 0.88885 0.0
O386 O 0.43815 0.02515 0.94372 0.0
C387 C 0.418 0.01714 0.87176 0.0
O388 O 0.38938 0.0249 0.8989 0.0
C389 C 0.43232 0.01308 0.95434 0.0
O390 O 0.39138 0.01264 0.93218 0.0
O391 O 0.41902 0.00595 0.95329 0.0
C392 C 0.90677 0.35765 0.96068 0.0
O393 O 0.90164 0.35321 0.93741 0.0
Cd394 Cd 0.91895 0.36144 0.90114 0.0
O395 O 0.91921 0.36784 0.96261 0.0
Cd396 Cd 0.9377 0.38446 0.93169 0.0
C397 C 0.9469 0.36052 0.92808 0.0
O398 O 0.93185 0.3849 0.88269 0.0
O399 O 0.95284 0.38973 0.89428 0.0
O400 O 0.93622 0.40527 0.93947 0.0
C401 C 0.94469 0.38964 0.87612 0.0
O402 O 0.93622 0.35482 0.91268 0.0
C403 C 0.94724 0.41149 0.9537 0.0
O404 O 0.95022 0.37195 0.94023 0.0
O405 O 0.95368 0.40489 0.95886 0.0
C406 C 0.60072 0.53814 0.9554 0.0
O407 O 0.60549 0.53871 0.93179 0.0
Cd408 Cd 0.59514 0.54473 0.89416 0.0
O409 O 0.58961 0.53878 0.95834 0.0
Cd410 Cd 0.57227 0.54012 0.92881 0.0
C411 C 0.59576 0.57351 0.92005 0.0
O412 O 0.57072 0.53226 0.88042 0.0
O413 O 0.56439 0.54741 0.8914 0.0
O414 O 0.55325 0.51798 0.94441 0.0
C415 C 0.56484 0.53931 0.87374 0.0
O416 O 0.60069 0.56843 0.90302 0.0
C417 C 0.54637 0.52309 0.95541 0.0
O418 O 0.58545 0.56548 0.93508 0.0
O419 O 0.55188 0.53633 0.95503 0.0
C420 C 0.9092 0.541 0.46067 0.0
O421 O 0.9052 0.54214 0.43728 0.0
Cd422 Cd 0.92223 0.54983 0.40068 0.0
O423 O 0.92105 0.5418 0.46343 0.0
Cd424 Cd 0.94026 0.54431 0.43355 0.0
C425 C 0.95001 0.57771 0.43049 0.0
O426 O 0.93462 0.53819 0.38432 0.0
O427 O 0.95565 0.55388 0.39635 0.0
O428 O 0.93772 0.52188 0.4455 0.0
C429 C 0.9475 0.54611 0.37789 0.0
O430 O 0.94001 0.57319 0.41349 0.0
C431 C 0.94955 0.52691 0.45706 0.0
O432 O 0.95249 0.56925 0.44355 0.0
O433 O 0.95693 0.54015 0.45851 0.0
C434 C 0.42076 0.3592 0.46017 0.0
O435 O 0.42406 0.35648 0.4373 0.0
Cd436 Cd 0.41588 0.36504 0.39971 0.0
O437 O 0.41691 0.36826 0.46159 0.0
Cd438 Cd 0.41629 0.38539 0.43058 0.0
C439 C 0.3844 0.35965 0.42106 0.0
O440 O 0.42516 0.38865 0.38249 0.0
O441 O 0.40782 0.39195 0.39318 0.0
O442 O 0.43785 0.40444 0.44799 0.0
C443 C 0.41685 0.39314 0.37588 0.0
O444 O 0.39098 0.35571 0.40549 0.0
C445 C 0.43237 0.41118 0.45808 0.0
O446 O 0.39109 0.37047 0.43586 0.0
O447 O 0.41911 0.40557 0.45636 0.0
C448 C 0.60011 0.05256 0.4623 0.0
O449 O 0.60262 0.05884 0.43981 0.0
Cd450 Cd 0.59452 0.04292 0.40076 0.0
O451 O 0.59151 0.03953 0.46306 0.0
Cd452 Cd 0.57514 0.02165 0.43143 0.0
C453 C 0.60202 0.01777 0.41825 0.0
O454 O 0.57087 0.02742 0.38429 0.0
O455 O 0.56979 0.00755 0.3929 0.0
O456 O 0.555 0.02184 0.44967 0.0
C457 C 0.56752 0.01503 0.37657 0.0
O458 O 0.60511 0.02833 0.40344 0.0
C459 C 0.54914 0.00948 0.45901 0.0
O460 O 0.59148 0.01296 0.43403 0.0
O461 O 0.55576 0.00283 0.45658 0.0
C462 C 0.1976 0.24673 0.36528 0.0
O463 O 0.19625 0.24153 0.38867 0.0
Cd464 Cd 0.20345 0.25798 0.42669 0.0
O465 O 0.20025 0.25927 0.3631 0.0
Cd466 Cd 0.20245 0.27801 0.39346 0.0
C467 C 0.23451 0.28429 0.40382 0.0
O468 O 0.19358 0.27229 0.44137 0.0
O469 O 0.21117 0.29279 0.43148 0.0
O470 O 0.18115 0.27641 0.37685 0.0
C471 C 0.20205 0.28495 0.44859 0.0
O472 O 0.2281 0.2742 0.42027 0.0
C473 C 0.18695 0.28855 0.36653 0.0
O474 O 0.22769 0.28787 0.38811 0.0
O475 O 0.20025 0.29576 0.36779 0.0
C476 C 0.71452 0.94249 0.36957 0.0
O477 O 0.71882 0.94735 0.39308 0.0
Cd478 Cd 0.70189 0.93863 0.43015 0.0
O479 O 0.70223 0.93218 0.3666 0.0
Cd480 Cd 0.68228 0.91684 0.39562 0.0
C481 C 0.67692 0.94358 0.40088 0.0
O482 O 0.68691 0.91453 0.44453 0.0
O483 O 0.66687 0.91209 0.43221 0.0
O484 O 0.68278 0.89611 0.38193 0.0
C485 C 0.67419 0.91079 0.45048 0.0
O486 O 0.68628 0.94726 0.41906 0.0
C487 C 0.67082 0.89018 0.3707 0.0
O488 O 0.67362 0.93287 0.38617 0.0
O489 O 0.66429 0.89697 0.37003 0.0
C490 C 0.01719 0.75948 0.36355 0.0
O491 O 0.01239 0.75927 0.38697 0.0
Cd492 Cd 0.02213 0.75248 0.42437 0.0
O493 O 0.02809 0.75842 0.36116 0.0
Cd494 Cd 0.04523 0.7571 0.39137 0.0
C495 C 0.0219 0.72378 0.3986 0.0
O496 O 0.04631 0.76464 0.43987 0.0
O497 O 0.05192 0.74895 0.42927 0.0
O498 O 0.06491 0.77914 0.37697 0.0
C499 C 0.05165 0.75714 0.44692 0.0
O500 O 0.0165 0.72873 0.41485 0.0
C501 C 0.07155 0.77379 0.36592 0.0
O502 O 0.0326 0.7319 0.38457 0.0
O503 O 0.06564 0.76052 0.36581 0.0
H504 H 0.25151 0.92441 0.27933 0.0
H505 H 0.25864 0.94923 0.27433 0.0
H506 H 0.29427 0.95576 0.22692 0.0
H507 H 0.28727 0.93121 0.23155 0.0
H508 H 0.28352 0.97327 0.2885 0.0
H509 H 0.27538 0.97135 0.17813 0.0
H510 H 0.26798 0.9558 0.19881 0.0
H511 H 0.28581 0.96367 0.18709 0.0
C512 C 0.26093 0.93119 0.26806 0.0
C513 C 0.26876 0.92584 0.25562 0.0
C514 C 0.26491 0.9453 0.26506 0.0
C515 C 0.27671 0.95417 0.24952 0.0
C516 C 0.28486 0.94897 0.23821 0.0
H517 H 0.34016 0.03578 0.24993 0.0
H518 H 0.32268 0.01119 0.25449 0.0
C519 C 0.28091 0.93495 0.24112 0.0
C520 C 0.28108 0.96905 0.24571 0.0
H521 H 0.29261 -0.006 0.19661 0.0
C522 C 0.28518 0.9778 0.26846 0.0
C523 C 0.2829 0.9749 0.21957 0.0
C524 C 0.27762 0.9659 0.19454 0.0
C525 C 0.29233 -0.00763 0.26559 0.0
C526 C 0.29563 -0.00179 0.23936 0.0
C527 C 0.2903 -0.01053 0.2167 0.0
C528 C 0.3061 0.01307 0.23517 0.0
C529 C 0.29686 0.00137 0.29068 0.0
C530 C 0.30275 0.02211 0.22141 0.0
C531 C 0.31282 0.03626 0.21847 0.0
C532 C 0.32635 0.04146 0.22919 0.0
C533 C 0.32979 0.03216 0.24174 0.0
C534 C 0.31978 0.01812 0.24459 0.0
H535 H 0.28971 -0.00408 0.30789 0.0
H536 H 0.30751 0.00365 0.29655 0.0
H537 H 0.29716 0.01145 0.28716 0.0
H538 H 0.29227 0.0183 0.21361 0.0
H539 H 0.30988 0.04318 0.20872 0.0
H540 H 0.03433 0.35187 0.22039 0.0
H541 H 0.00889 0.33883 0.2197 0.0
H542 H 0.00858 0.31615 0.29084 0.0
H543 H 0.03427 0.32895 0.29124 0.0
H544 H -0.00931 0.29903 0.25248 0.0
H545 H -0.01753 0.34406 0.26786 0.0
H546 H -0.00635 0.34667 0.23951 0.0
H547 H -0.00075 0.3453 0.273 0.0
C548 C 0.0289 0.34421 0.2361 0.0
C549 C 0.03632 0.34151 0.25603 0.0
C550 C 0.01433 0.33681 0.23572 0.0
C551 C 0.00686 0.32676 0.25555 0.0
C552 C 0.01419 0.32397 0.27548 0.0
H553 H 0.91778 0.29194 0.2771 0.0
H554 H 0.94313 0.30417 0.28185 0.0
C555 C 0.02883 0.33129 0.27571 0.0
C556 C -0.0086 0.31886 0.25468 0.0
H557 H 0.96285 0.32307 0.25093 0.0
C558 C -0.01544 0.30424 0.25244 0.0
C559 C -0.01655 0.3257 0.25496 0.0
C560 C -0.00992 0.34128 0.25925 0.0
C561 C 0.96996 0.29628 0.24979 0.0
C562 C 0.96209 0.30321 0.24857 0.0
C563 C 0.96893 0.3178 0.25144 0.0
C564 C 0.9467 0.29554 0.24535 0.0
C565 C 0.96312 0.28055 0.24876 0.0
C566 C 0.94029 0.28675 0.22301 0.0
C567 C 0.92571 0.27957 0.22037 0.0
C568 C 0.91738 0.28132 0.23977 0.0
C569 C 0.92389 0.2904 0.26172 0.0
C570 C 0.93839 0.2974 0.26452 0.0
H571 H 0.96994 0.27688 0.25773 0.0
H572 H 0.95295 0.2755 0.25965 0.0
H573 H 0.96115 0.27705 0.22736 0.0
H574 H 0.94655 0.28549 0.20758 0.0
H575 H 0.92098 0.2727 0.20316 0.0
H576 H 0.66109 0.62087 0.23667 0.0
H577 H 0.65419 0.63864 0.23503 0.0
H578 H 0.69458 0.66829 0.20232 0.0
H579 H 0.70168 0.65044 0.20395 0.0
H580 H 0.68529 0.67757 0.24958 0.0
H581 H 0.64544 0.65566 0.16833 0.0
H582 H 0.64339 0.64287 0.19299 0.0
H583 H 0.65887 0.65098 0.17228 0.0
C584 C 0.66846 0.63109 0.22875 0.0
C585 C 0.68192 0.63427 0.22042 0.0
C586 C 0.66449 0.64122 0.22775 0.0
C587 C 0.67386 0.65469 0.21841 0.0
C588 C 0.68722 0.65788 0.20948 0.0
H589 H 0.63489 0.70563 0.20502 0.0
H590 H 0.65157 0.69768 0.19624 0.0
C591 C 0.6912 0.64768 0.21026 0.0
C592 C 0.66971 0.66546 0.21955 0.0
H593 H 0.64343 0.67113 0.19986 0.0
C594 C 0.67633 0.67641 0.23832 0.0
C595 C 0.65815 0.66396 0.20461 0.0
C596 C 0.65113 0.65281 0.18322 0.0
C597 C 0.67109 0.68544 0.24373 0.0
C598 C 0.65883 0.68322 0.2303 0.0
C599 C 0.65277 0.67278 0.21036 0.0
C600 C 0.65148 0.69093 0.23733 0.0
C601 C 0.67858 0.69707 0.26402 0.0
C602 C 0.64632 0.6903 0.26364 0.0
C603 C 0.63694 0.6951 0.2688 0.0
C604 C 0.63242 0.70023 0.24753 0.0
C605 C 0.63818 0.70157 0.22166 0.0
C606 C 0.64772 0.69707 0.21664 0.0
H607 H 0.68987 0.70032 0.26531 0.0
H608 H 0.67762 0.70633 0.25882 0.0
H609 H 0.67391 0.69331 0.28431 0.0
H610 H 0.64883 0.68531 0.27978 0.0
H611 H 0.63251 0.69392 0.28885 0.0
H612 H 0.61032 0.92871 0.73149 0.0
H613 H 0.62738 0.95342 0.7271 0.0
H614 H 0.65709 0.94778 0.77418 0.0
H615 H 0.6399 0.92277 0.7789 0.0
H616 H 0.65502 0.97135 0.78885 0.0
H617 H 0.66223 0.96998 0.67855 0.0
H618 H 0.64403 0.96172 0.6874 0.0
H619 H 0.65446 0.9544 0.69915 0.0
C620 C 0.62045 0.93266 0.74101 0.0
C621 C 0.6238 0.92375 0.75536 0.0
C622 C 0.63024 0.94678 0.73826 0.0
C623 C 0.6436 0.95229 0.74961 0.0
C624 C 0.64687 0.94361 0.76491 0.0
H625 H 0.69989 0.04123 0.71053 0.0
H626 H 0.69184 0.0162 0.71503 0.0
C627 C 0.63702 0.92939 0.76772 0.0
C628 C 0.65378 0.96728 0.74604 0.0
H629 H 0.66727 -0.0076 0.69725 0.0
C630 C 0.658 0.97596 0.76888 0.0
C631 C 0.65791 0.97323 0.72 0.0
C632 C 0.65455 0.96432 0.69491 0.0
C633 C 0.6652 -0.00946 0.76619 0.0
C634 C 0.66797 -0.00354 0.74 0.0
C635 C 0.66488 -0.0122 0.71728 0.0
C636 C 0.67268 0.01139 0.73585 0.0
C637 C 0.66932 -0.00053 0.79137 0.0
C638 C 0.66424 0.01674 0.74497 0.0
C639 C 0.66874 0.0309 0.74237 0.0
C640 C 0.68172 0.03999 0.73036 0.0
C641 C 0.68983 0.03448 0.71987 0.0
C642 C 0.68531 0.02023 0.72257 0.0
H643 H 0.67074 -0.00604 0.8088 0.0
H644 H 0.67917 0.00954 0.78826 0.0
H645 H 0.66088 0.00175 0.79666 0.0
H646 H 0.65424 0.00996 0.75453 0.0
H647 H 0.66217 0.03478 0.75039 0.0
H648 H 0.03383 0.69826 0.78855 0.0
H649 H 0.00816 0.68702 0.78852 0.0
H650 H 0.00625 0.66288 0.71832 0.0
H651 H 0.0316 0.67371 0.71838 0.0
H652 H -0.01028 0.68602 0.74678 0.0
H653 H -0.01944 0.63331 0.773 0.0
H654 H -0.00261 0.64894 0.77712 0.0
H655 H -0.00809 0.64085 0.74439 0.0
C656 C 0.02791 0.6905 0.77323 0.0
C657 C 0.03474 0.68677 0.75368 0.0
C658 C 0.01329 0.68415 0.77318 0.0
C659 C 0.00538 0.674 0.75364 0.0
C660 C 0.01219 0.67049 0.73387 0.0
H661 H 0.91876 0.63849 0.70242 0.0
H662 H 0.94436 0.65272 0.70619 0.0
C663 C 0.0267 0.67673 0.73396 0.0
C664 C -0.01005 0.66689 0.7537 0.0
H665 H 0.96097 0.63449 0.75599 0.0
C666 C -0.01663 0.67477 0.74907 0.0
C667 C -0.01822 0.65225 0.75692 0.0
C668 C -0.01175 0.64335 0.7634 0.0
C669 C 0.96874 0.66829 0.7469 0.0
C670 C 0.96063 0.65357 0.74894 0.0
C671 C 0.96724 0.64577 0.75413 0.0
C672 C 0.94519 0.64592 0.74684 0.0
C673 C 0.96211 0.67724 0.74277 0.0
C674 C 0.93728 0.63728 0.76822 0.0
C675 C 0.92283 0.62901 0.7659 0.0
C676 C 0.91593 0.62924 0.74218 0.0
C677 C 0.92381 0.63813 0.72092 0.0
C678 C 0.93839 0.64633 0.72315 0.0
H679 H 0.9693 0.68829 0.74868 0.0
H680 H 0.9595 0.67707 0.72106 0.0
H681 H 0.95228 0.67319 0.75461 0.0
H682 H 0.94233 0.63681 0.78666 0.0
H683 H 0.91706 0.62241 0.78281 0.0
H684 H 0.31891 0.26986 0.69711 0.0
H685 H 0.30563 0.28226 0.69701 0.0
H686 H 0.3302 0.30752 0.76428 0.0
H687 H 0.34367 0.29556 0.76415 0.0
H688 H 0.28951 0.28426 0.73742 0.0
H689 H 0.33333 0.33674 0.71123 0.0
H690 H 0.33452 0.3211 0.70762 0.0
H691 H 0.33726 0.32951 0.74007 0.0
C692 C 0.32157 0.27816 0.71167 0.0
C693 C 0.33242 0.28182 0.73046 0.0
C694 C 0.31396 0.28519 0.71164 0.0
C695 C 0.31712 0.29595 0.73035 0.0
C696 C 0.32784 0.29949 0.74924 0.0
H697 H 0.26562 0.33039 0.7846 0.0
H698 H 0.27754 0.31677 0.7797 0.0
C699 C 0.33549 0.29259 0.74917 0.0
C700 C 0.30904 0.30331 0.73084 0.0
H701 H 0.3129 0.3359 0.72995 0.0
C702 C 0.29456 0.29553 0.73549 0.0
C703 C 0.31567 0.31798 0.728 0.0
C704 C 0.33102 0.3268 0.72117 0.0
C705 C 0.28655 0.30213 0.7381 0.0
C706 C 0.29333 0.31689 0.73669 0.0
C707 C 0.30776 0.32459 0.7314 0.0
C708 C 0.28569 0.32464 0.73974 0.0
C709 C 0.27093 0.29323 0.74197 0.0
C710 C 0.28665 0.33382 0.71926 0.0
C711 C 0.28018 0.34179 0.72228 0.0
C712 C 0.2725 0.34068 0.74577 0.0
C713 C 0.27142 0.3314 0.76625 0.0
C714 C 0.27811 0.32354 0.76336 0.0
H715 H 0.26697 0.28234 0.73485 0.0
H716 H 0.26844 0.29282 0.76381 0.0
H717 H 0.26526 0.29766 0.73099 0.0
H718 H 0.29246 0.33484 0.7009 0.0
H719 H 0.2811 0.34875 0.706 0.0
H720 H 0.01082 0.37055 0.59199 0.0
H721 H -0.00401 0.34525 0.5921 0.0
H722 H 0.96862 0.34814 0.53348 0.0
H723 H -0.01666 0.37369 0.53354 0.0
H724 H 0.95449 0.33038 0.57745 0.0
H725 H -0.0066 0.31845 0.53243 0.0
H726 H 8e-05 0.32981 0.56126 0.0
H727 H -0.00465 0.33567 0.53124 0.0
C728 C 0.00172 0.36586 0.57891 0.0
C729 C -0.0017 0.37415 0.56262 0.0
C730 C -0.00672 0.35138 0.57897 0.0
C731 C -0.01865 0.34486 0.56255 0.0
C732 C -0.02214 0.35303 0.5462 0.0
H733 H 0.93942 0.256 0.53456 0.0
H734 H 0.9504 0.28123 0.52975 0.0
C735 C -0.0137 0.36759 0.54617 0.0
C736 C 0.97248 0.3295 0.56301 0.0
H737 H 0.97377 0.29957 0.55423 0.0
C738 C 0.9586 0.32359 0.57211 0.0
C739 C -0.02211 0.32074 0.55577 0.0
C740 C -0.00755 0.32647 0.54437 0.0
C741 C 0.95006 0.30906 0.57483 0.0
C742 C 0.95572 0.30034 0.5688 0.0
C743 C 0.96949 0.30629 0.55912 0.0
C744 C 0.94756 0.28497 0.57164 0.0
C745 C 0.93509 0.30318 0.58385 0.0
C746 C 0.94211 0.27866 0.59677 0.0
C747 C 0.93563 0.26412 0.59954 0.0
C748 C 0.93484 0.25581 0.57733 0.0
C749 C 0.94006 0.26217 0.55215 0.0
C750 C 0.94629 0.27658 0.54932 0.0
H751 H 0.93132 0.31069 0.58026 0.0
H752 H 0.92803 0.29325 0.57317 0.0
H753 H 0.93436 0.30102 0.60587 0.0
H754 H 0.94325 0.28499 0.61439 0.0
H755 H 0.9317 0.25946 0.61916 0.0
H756 H 0.58585 0.62526 0.60524 0.0
H757 H 0.61124 0.63692 0.60707 0.0
H758 H 0.6117 0.61523 0.53475 0.0
H759 H 0.586 0.60312 0.53301 0.0
H760 H 0.62962 0.61572 0.57568 0.0
H761 H 0.63731 0.6686 0.5573 0.0
H762 H 0.62576 0.65989 0.58512 0.0
H763 H 0.62078 0.65287 0.55149 0.0
C764 C 0.59129 0.62298 0.58956 0.0
C765 C 0.5839 0.61337 0.56877 0.0
C766 C 0.60582 0.62969 0.59065 0.0
C767 C 0.61331 0.62711 0.57079 0.0
C768 C 0.60604 0.61739 0.55017 0.0
H769 H 0.70131 0.68132 0.545 0.0
H770 H 0.67605 0.66695 0.54144 0.0
C771 C 0.5914 0.61054 0.54915 0.0
C772 C 0.62874 0.63469 0.57181 0.0
H773 H 0.65706 0.66755 0.57375 0.0
C774 C 0.63568 0.62704 0.57502 0.0
C775 C 0.63655 0.64944 0.57072 0.0
C776 C 0.62974 0.65818 0.56569 0.0
C777 C 0.6503 0.63384 0.57768 0.0
C778 C 0.65804 0.64862 0.57768 0.0
C779 C 0.65107 0.65621 0.57409 0.0
C780 C 0.67347 0.65657 0.57981 0.0
C781 C 0.65733 0.62516 0.57998 0.0
C782 C 0.68043 0.65548 0.60265 0.0
C783 C 0.69502 0.66366 0.60469 0.0
C784 C 0.70275 0.67319 0.58412 0.0
C785 C 0.69567 0.6742 0.56137 0.0
C786 C 0.68122 0.66595 0.55921 0.0
H787 H 0.65042 0.61427 0.57278 0.0
H788 H 0.66723 0.62986 0.56819 0.0
H789 H 0.6599 0.62469 0.6015 0.0
H790 H 0.67458 0.64851 0.61905 0.0
H791 H 0.7002 0.6627 0.62246 0.0
H792 H 0.27578 0.00141 0.5865 0.0
H793 H 0.2912 -0.00804 0.57734 0.0
H794 H 0.32727 0.03241 0.59337 0.0
H795 H 0.31183 0.04186 0.60337 0.0
H796 H 0.3101 0.00124 0.5358 0.0
H797 H 0.33697 0.00646 0.63395 0.0
H798 H 0.32135 0.0078 0.63136 0.0
H799 H 0.338 0.02219 0.62134 0.0
C800 C 0.28698 0.00821 0.58874 0.0
C801 C 0.29262 0.02236 0.59564 0.0
C802 C 0.29578 0.00282 0.58337 0.0
C803 C 0.31036 0.01149 0.58462 0.0
C804 C 0.31604 0.02549 0.59269 0.0
H805 H 0.37008 0.9832 0.54356 0.0
H806 H 0.36083 -0.00065 0.54616 0.0
C807 C 0.3072 0.03086 0.59842 0.0
C808 C 0.31945 0.00598 0.57549 0.0
H809 H 0.34356 -0.0026 0.59715 0.0
C810 C 0.31752 0.00053 0.54914 0.0
C811 C 0.32923 0.00522 0.59284 0.0
C812 C 0.33149 0.01062 0.62152 0.0
C813 C 0.32462 -0.00627 0.54011 0.0
C814 C 0.3339 -0.00756 0.55784 0.0
C815 C 0.33646 -0.00145 0.58362 0.0
C816 C 0.33933 0.98298 0.5517 0.0
C817 C 0.32181 -0.01248 0.51206 0.0
C818 C 0.33021 0.96852 0.5534 0.0
C819 C 0.33543 0.95937 0.55228 0.0
C820 C 0.34985 0.96454 0.54915 0.0
C821 C 0.35889 0.97898 0.54568 0.0
C822 C 0.35366 -0.01182 0.5473 0.0
H823 H 0.31692 -0.00796 0.4989 0.0
H824 H 0.33167 -0.01076 0.50249 0.0
H825 H 0.31456 0.97607 0.51341 0.0
H826 H 0.31913 0.96437 0.55703 0.0
H827 H 0.32827 0.94829 0.55502 0.0
H828 H 0.33484 0.37506 0.1159 0.0
H829 H 0.32352 0.34984 0.12096 0.0
H830 H 0.34054 0.34676 0.0443 0.0
H831 H 0.35241 0.37226 0.03947 0.0
H832 H 0.30395 0.3303 0.09047 0.0
H833 H 0.35031 0.32321 0.09187 0.0
H834 H 0.35172 0.34016 0.09503 0.0
H835 H 0.34954 0.33218 0.06228 0.0
C836 C 0.33623 0.36906 0.10008 0.0
C837 C 0.3445 0.37565 0.07722 0.0
C838 C 0.32978 0.35463 0.10308 0.0
C839 C 0.33136 0.34645 0.08322 0.0
C840 C 0.33949 0.35294 0.0602 0.0
H841 H 0.27475 0.25974 0.05477 0.0
H842 H 0.28835 0.28511 0.05537 0.0
C843 C 0.34614 0.36747 0.05734 0.0
C844 C 0.32379 0.33107 0.08618 0.0
H845 H 0.32798 0.30247 0.08725 0.0
C846 C 0.30923 0.32424 0.08997 0.0
C847 C 0.33073 0.32322 0.08604 0.0
C848 C 0.34645 0.33007 0.08387 0.0
C849 C 0.30136 0.30972 0.09297 0.0
C850 C 0.30819 0.30179 0.09129 0.0
C851 C 0.32279 0.30861 0.08827 0.0
C852 C 0.3002 0.28636 0.09114 0.0
C853 C 0.28582 0.30304 0.09805 0.0
C854 C 0.30269 0.27864 0.11062 0.0
C855 C 0.295 0.26402 0.1102 0.0
C856 C 0.28473 0.25697 0.09025 0.0
C857 C 0.28243 0.26481 0.07065 0.0
C858 C 0.29016 0.27934 0.07099 0.0
H859 H 0.28312 0.31056 0.10737 0.0
H860 H 0.28016 0.29956 0.07851 0.0
H861 H 0.28201 0.2938 0.11149 0.0
H862 H 0.3105 0.28392 0.12622 0.0
H863 H 0.29705 0.25826 0.12546 0.0
H864 H 0.58955 0.95579 0.09525 0.0
H865 H 0.61411 0.97322 0.10072 0.0
H866 H 0.60814 0.00254 0.05328 0.0
H867 H 0.58328 -0.01504 0.04742 0.0
H868 H 0.632 0.00141 0.03935 0.0
H869 H 0.63025 0.00761 0.14976 0.0
H870 H 0.62228 -0.01052 0.14072 0.0
H871 H 0.61465 -0.00035 0.12905 0.0
C872 C 0.5934 0.96593 0.0859 0.0
C873 C 0.58443 0.96903 0.07106 0.0
C874 C 0.60743 0.97593 0.0893 0.0
C875 C 0.6128 -0.01071 0.07817 0.0
C876 C 0.60408 -0.00767 0.06243 0.0
H877 H 0.70244 0.04313 0.11889 0.0
H878 H 0.67769 0.03662 0.11446 0.0
C879 C 0.58994 0.98226 0.05895 0.0
C880 C 0.62777 -0.00036 0.08213 0.0
H881 H 0.65279 0.01235 0.13137 0.0
C882 C 0.63654 0.00415 0.05943 0.0
C883 C 0.63367 0.00349 0.10831 0.0
C884 C 0.62468 -7e-05 0.13331 0.0
C885 C 0.65113 0.0112 0.06237 0.0
C886 C 0.65697 0.01351 0.08863 0.0
C887 C 0.64825 0.0103 0.11126 0.0
C888 C 0.67173 0.01739 0.09279 0.0
C889 C 0.66015 0.0155 0.03734 0.0
C890 C 0.67632 0.0084 0.08321 0.0
C891 C 0.69028 0.01201 0.08581 0.0
C892 C 0.69996 0.02465 0.09826 0.0
C893 C 0.69521 0.03332 0.10922 0.0
C894 C 0.68114 0.02968 0.10654 0.0
H895 H 0.65485 0.01743 0.02018 0.0
H896 H 0.6704 0.02508 0.041 0.0
H897 H 0.66211 0.00694 0.0313 0.0
H898 H 0.66909 -0.00135 0.0733 0.0
H899 H 0.69355 0.00501 0.07744 0.0
H900 H 0.95316 0.68175 0.06396 0.0
H901 H 0.96265 0.66611 0.05937 0.0
H902 H 0.928 0.63454 0.10528 0.0
H903 H 0.91848 0.65028 0.11044 0.0
H904 H 0.95319 0.63764 0.12072 0.0
H905 H 0.94784 0.6323 0.00963 0.0
H906 H 0.95718 0.65032 0.01971 0.0
H907 H 0.93916 0.63944 0.02963 0.0
C908 C 0.94755 0.6715 0.07317 0.0
C909 C 0.93501 0.66721 0.08741 0.0
C910 C 0.95292 0.66253 0.07029 0.0
C911 C 0.94578 0.64904 0.08127 0.0
C912 C 0.93353 0.64486 0.09632 0.0
H913 H -0.02036 0.5937 0.04264 0.0
H914 H 0.96295 0.6022 0.04626 0.0
C915 C 0.92816 0.65388 0.09937 0.0
C916 C 0.95156 0.63963 0.07775 0.0
H917 H 0.96477 0.62714 0.02975 0.0
C918 C 0.95549 0.6351 0.10085 0.0
C919 C 0.95423 0.63605 0.0518 0.0
C920 C 0.94923 0.63965 0.0263 0.0
C921 C 0.96298 0.62798 0.09865 0.0
C922 C 0.96685 0.62564 0.07272 0.0
C923 C 0.962 0.62921 0.04961 0.0
C924 C -0.02308 0.62065 0.06936 0.0
C925 C 0.96698 0.62334 0.12414 0.0
C926 C -0.00959 0.62852 0.08022 0.0
C927 C -0.0001 0.62374 0.0782 0.0
C928 C -0.00387 0.61106 0.06501 0.0
C929 C -0.01717 0.60351 0.05294 0.0
C930 C 0.97328 0.6083 0.0551 0.0
H931 H 0.95956 0.62167 0.14086 0.0
H932 H 0.96723 0.61352 0.12081 0.0
H933 H -0.02244 0.6316 0.13066 0.0
H934 H -0.00645 0.63831 0.09057 0.0
H935 H 0.01013 0.6299 0.08742 0.0
H936 H 0.6178 0.59298 0.89093 0.0
H937 H 0.62771 0.61818 0.89137 0.0
H938 H 0.59772 0.61427 0.95178 0.0
H939 H 0.58747 0.58873 0.95134 0.0
H940 H 0.60169 0.63295 0.90632 0.0
H941 H 0.65146 0.6436 0.95465 0.0
H942 H 0.64675 0.63221 0.92582 0.0
H943 H 0.63583 0.62661 0.95545 0.0
C944 C 0.61328 0.5974 0.90444 0.0
C945 C 0.6019 0.58883 0.92128 0.0
C946 C 0.61898 0.61182 0.90463 0.0
C947 C 0.61352 0.61802 0.92179 0.0
C948 C 0.60207 0.60959 0.93847 0.0
H949 H 0.66171 0.70657 0.95231 0.0
H950 H 0.6465 0.68144 0.95675 0.0
C951 C 0.5963 0.59506 0.93829 0.0
C952 C 0.62007 0.63337 0.92225 0.0
H953 H 0.6514 0.66285 0.93321 0.0
C954 C 0.6125 0.63956 0.91251 0.0
C955 C 0.63411 0.64186 0.93056 0.0
C956 C 0.64249 0.63575 0.94246 0.0
C957 C 0.61882 0.65414 0.91008 0.0
C958 C 0.6331 0.66259 0.91714 0.0
C959 C 0.64049 0.65635 0.92757 0.0
C960 C 0.64071 0.67798 0.91446 0.0
C961 C 0.61018 0.66034 0.90014 0.0
C962 C 0.64232 0.68444 0.88921 0.0
C963 C 0.65095 0.69893 0.88665 0.0
C964 C 0.65829 0.70703 0.90919 0.0
C965 C 0.65636 0.70055 0.93447 0.0
C966 C 0.64761 0.6862 0.9371 0.0
H967 H 0.59879 0.65301 0.90298 0.0
H968 H 0.61306 0.67029 0.9108 0.0
H969 H 0.6121 0.66258 0.87821 0.0
H970 H 0.63732 0.67824 0.87137 0.0
H971 H 0.65227 0.70371 0.86696 0.0
H972 H 0.36544 0.01467 0.87918 0.0
H973 H 0.34005 0.00058 0.8796 0.0
H974 H 0.34163 0.98183 0.95494 0.0
H975 H 0.36732 -0.0042 0.95445 0.0
H976 H 0.32292 0.96258 0.91723 0.0
H977 H 0.31478 0.00795 0.92863 0.0
H978 H 0.32576 0.00973 0.90037 0.0
H979 H 0.33156 0.00923 0.93414 0.0
C980 C 0.36045 0.00762 0.89597 0.0
C981 C 0.36839 0.00647 0.91699 0.0
C982 C 0.34591 -0.00041 0.89617 0.0
C983 C 0.339 -0.00959 0.91756 0.0
C984 C 0.34684 -0.01103 0.93836 0.0
H985 H 0.25057 0.95648 0.94453 0.0
H986 H 0.27591 0.96804 0.94834 0.0
C987 C 0.36147 -0.00304 0.93808 0.0
C988 C 0.32355 0.9824 0.91792 0.0
H989 H 0.29491 -0.01355 0.91488 0.0
C990 C 0.31674 0.96775 0.917 0.0
C991 C 0.31559 -0.01079 0.91793 0.0
C992 C 0.32229 0.00489 0.9206 0.0
C993 C 0.30209 0.9597 0.91535 0.0
C994 C 0.29418 0.96657 0.91399 0.0
C995 C 0.30102 0.98121 0.91556 0.0
C996 C 0.27875 0.95888 0.91185 0.0
C997 C 0.29524 0.94397 0.91544 0.0
C998 C 0.27192 0.94992 0.88992 0.0
C999 C 0.25732 0.94315 0.88776 0.0
C1000 C 0.24941 0.94546 0.90727 0.0
C1001 C 0.25634 0.95454 0.92902 0.0
C1002 C 0.27084 0.96113 0.93132 0.0
H1003 H 0.30227 0.94046 0.92406 0.0
H1004 H 0.28535 0.93916 0.92723 0.0
H1005 H 0.29274 0.94004 0.89435 0.0
H1006 H 0.27787 0.94831 0.87432 0.0
H1007 H 0.25227 0.93625 0.87074 0.0
H1008 H -0.00501 0.28129 0.91595 0.0
H1009 H -0.01382 0.29747 0.9206 0.0
H1010 H 0.02319 0.32974 0.88134 0.0
H1011 H 0.03216 0.31348 0.87637 0.0
H1012 H 0.00117 0.32385 0.94946 0.0
H1013 H -0.01077 0.32919 0.84205 0.0
H1014 H -0.00892 0.31465 0.8533 0.0
H1015 H 0.00626 0.33166 0.84999 0.0
C1016 C 0.00122 0.29177 0.90797 0.0
C1017 C 0.0143 0.29613 0.89587 0.0
C1018 C -0.00382 0.301 0.91074 0.0
C1019 C 0.00409 0.31477 0.90146 0.0
C1020 C 0.01693 0.3191 0.8885 0.0
H1021 H 0.97406 0.37292 0.94603 0.0
H1022 H -0.00978 0.36384 0.94096 0.0
C1023 C 0.022 0.3098 0.88561 0.0
C1024 C -0.00119 0.32449 0.90636 0.0
H1025 H -0.01777 0.33966 0.87523 0.0
C1026 C -0.00276 0.32756 0.93326 0.0
C1027 C -0.00626 0.32923 0.88509 0.0
C1028 C -0.00494 0.32601 0.85593 0.0
C1029 C -0.00999 0.33464 0.93957 0.0
C1030 C -0.01564 0.3388 0.91835 0.0
C1031 C -0.01339 0.33641 0.89139 0.0
C1032 C 0.97468 0.3441 0.9236 0.0
C1033 C -0.0123 0.33686 0.96881 0.0
C1034 C 0.96063 0.33588 0.91595 0.0
C1035 C 0.95144 0.34099 0.91878 0.0
C1036 C 0.95615 0.35445 0.92928 0.0
C1037 C 0.97012 0.36247 0.93804 0.0
C1038 C -0.02064 0.35733 0.93509 0.0
H1039 H -0.00858 0.33156 0.98285 0.0
H1040 H -0.00655 0.34822 0.97345 0.0
H1041 H -0.02359 0.3329 0.97265 0.0
H1042 H 0.95684 0.32559 0.90723 0.0
H1043 H 0.94073 0.33452 0.91197 0.0
H1044 H 0.03463 0.70958 0.37928 0.0
H1045 H 0.02661 0.68463 0.38533 0.0
H1046 H -0.01101 0.67891 0.42391 0.0
H1047 H -0.00311 0.70366 0.41825 0.0
H1048 H 0.00437 0.66844 0.45352 0.0
H1049 H -0.00619 0.65047 0.34619 0.0
H1050 H 0.01062 0.66527 0.35444 0.0
H1051 H -0.00482 0.66677 0.35681 0.0
C1052 C 0.02454 0.70293 0.38861 0.0
C1053 C 0.0164 0.70856 0.39836 0.0
C1054 C 0.02002 0.68873 0.39213 0.0
C1055 C 0.00727 0.68003 0.40519 0.0
C1056 C -0.00107 0.68554 0.414 0.0
H1057 H 0.94439 0.59801 0.41567 0.0
H1058 H 0.96092 0.62295 0.41179 0.0
C1059 C 0.00343 0.69966 0.41063 0.0
C1060 C 0.00248 0.66518 0.41043 0.0
H1061 H -0.01323 0.63327 0.3797 0.0
C1062 C 0.00077 0.66072 0.43743 0.0
C1063 C -0.00214 0.65525 0.38928 0.0
C1064 C -0.00064 0.65958 0.36 0.0
C1065 C -0.00628 0.64646 0.44391 0.0
C1066 C -0.0116 0.63655 0.42278 0.0
C1067 C -0.00909 0.64101 0.39577 0.0
C1068 C -0.02154 0.62168 0.42802 0.0
C1069 C -0.00884 0.64207 0.47316 0.0
C1070 C -0.01717 0.61284 0.43928 0.0
C1071 C 0.97333 0.59851 0.44173 0.0
C1072 C 0.95945 0.59292 0.43269 0.0
C1073 C 0.95504 0.60198 0.42262 0.0
C1074 C 0.96447 0.61621 0.42031 0.0
H1075 H -0.00477 0.65116 0.48715 0.0
H1076 H -0.02023 0.63523 0.47683 0.0
H1077 H -0.00364 0.63595 0.47798 0.0
H1078 H -0.00636 0.61693 0.44523 0.0
H1079 H -0.02298 0.59174 0.4494 0.0
H1080 H 0.25134 0.28328 0.44263 0.0
H1081 H 0.2767 0.29692 0.44557 0.0
H1082 H 0.27824 0.31686 0.36973 0.0
H1083 H 0.25258 0.30348 0.36704 0.0
H1084 H 0.29577 0.29699 0.41313 0.0
H1085 H 0.30239 0.3502 0.41723 0.0
H1086 H 0.28555 0.33457 0.42094 0.0
H1087 H 0.29307 0.34033 0.38791 0.0
C1088 C 0.25702 0.29056 0.4265 0.0
C1089 C 0.24995 0.29231 0.40456 0.0
C1090 C 0.27154 0.29837 0.42828 0.0
C1091 C 0.27934 0.30804 0.40809 0.0
C1092 C 0.27237 0.3097 0.38587 0.0
H1093 H 0.36758 0.33992 0.38462 0.0
H1094 H 0.34216 0.32771 0.38211 0.0
C1095 C 0.25775 0.30197 0.38423 0.0
C1096 C 0.29478 0.31594 0.41022 0.0
H1097 H 0.32317 0.34883 0.41334 0.0
C1098 C 0.30176 0.30833 0.41324 0.0
C1099 C 0.30251 0.33072 0.41085 0.0
C1100 C 0.2955 0.33946 0.40933 0.0
C1101 C 0.31628 0.31507 0.41673 0.0
C1102 C 0.32409 0.32985 0.41626 0.0
C1103 C 0.31713 0.33749 0.41351 0.0
C1104 C 0.33953 0.33751 0.41786 0.0
C1105 C 0.32307 0.30628 0.4214 0.0
C1106 C 0.34651 0.34742 0.43836 0.0
C1107 C 0.36114 0.35461 0.43968 0.0
C1108 C 0.36895 0.35194 0.42053 0.0
C1109 C 0.36188 0.34208 0.39996 0.0
C1110 C 0.34733 0.33504 0.3985 0.0
H1111 H 0.31547 0.29583 0.42964 0.0
H1112 H 0.32699 0.30463 0.40186 0.0
H1113 H 0.33204 0.31149 0.4356 0.0
H1114 H 0.34064 0.34952 0.45339 0.0
H1115 H 0.36631 0.36221 0.45567 0.0
H1116 H 0.65737 0.94035 0.36279 0.0
H1117 H 0.64471 0.95336 0.36006 0.0
H1118 H 0.66679 0.97727 0.43059 0.0
H1119 H 0.67962 0.96475 0.43309 0.0
H1120 H 0.62725 0.95482 0.39731 0.0
H1121 H 0.67208 0.00771 0.37907 0.0
H1122 H 0.6734 -0.00786 0.37534 0.0
H1123 H 0.67505 -8e-05 0.40819 0.0
C1124 C 0.65963 0.94851 0.37748 0.0
C1125 C 0.66956 0.95158 0.39802 0.0
C1126 C 0.65239 0.95589 0.37591 0.0
C1127 C 0.65505 0.96645 0.39481 0.0
C1128 C 0.66489 0.96945 0.41534 0.0
H1129 H 0.60207 -0.00211 0.45131 0.0
H1130 H 0.61465 -0.0149 0.44396 0.0
C1131 C 0.67216 0.96219 0.41681 0.0
C1132 C 0.64708 0.97392 0.39432 0.0
H1133 H 0.65136 0.00665 0.3977 0.0
C1134 C 0.63247 0.96615 0.39696 0.0
C1135 C 0.65391 -0.01132 0.39345 0.0
C1136 C 0.66946 -0.00243 0.38855 0.0
C1137 C 0.62453 0.9728 0.39997 0.0
C1138 C 0.6315 -0.01243 0.40115 0.0
C1139 C 0.64605 -0.00468 0.39732 0.0
C1140 C 0.62395 -0.0047 0.40601 0.0
C1141 C 0.6088 0.96391 0.40171 0.0
C1142 C 0.62551 0.00566 0.38776 0.0
C1143 C 0.61867 0.0132 0.39227 0.0
C1144 C 0.61002 0.01044 0.41503 0.0
C1145 C 0.6086 0.00018 0.43353 0.0
C1146 C 0.61565 -0.00723 0.42919 0.0
H1147 H 0.60499 0.95352 0.3921 0.0
H1148 H 0.60562 0.96214 0.42329 0.0
H1149 H 0.60357 0.96911 0.39184 0.0
H1150 H 0.63193 0.00784 0.36984 0.0
H1151 H 0.61993 0.02098 0.37752 0.0
H1152 H 0.30889 0.0738 0.53088 0.0
H1153 H 0.31922 0.08156 0.48643 0.0
H1154 H 0.27803 0.0636 0.45118 0.0
H1155 H 0.26744 0.05584 0.49627 0.0
H1156 H 0.31555 0.0642 0.44348 0.0
H1157 H 0.29907 0.10269 0.41666 0.0
H1158 H 0.29825 0.09657 0.45081 0.0
H1159 H 0.28515 0.08573 0.42656 0.0
C1160 C 0.30194 0.07157 0.51379 0.0
C1161 C 0.28729 0.06411 0.51715 0.0
C1162 C 0.30792 0.07605 0.48833 0.0
C1163 C 0.29945 0.07324 0.46546 0.0
C1164 C 0.28479 0.06609 0.46864 0.0
H1165 H 0.31514 0.08134 0.29506 0.0
H1166 H 0.30603 0.07855 0.34076 0.0
C1167 C 0.27874 0.06161 0.49436 0.0
C1168 C 0.30616 0.07709 0.43835 0.0
H1169 H 0.31069 0.09713 0.3826 0.0
C1170 C 0.31455 0.07146 0.43022 0.0
C1171 C 0.30488 0.08659 0.42113 0.0
C1172 C 0.29646 0.09337 0.42922 0.0
C1173 C 0.32144 0.07482 0.40513 0.0
C1174 C 0.32014 0.08429 0.38784 0.0
C1175 C 0.3118 0.08998 0.39601 0.0
C1176 C 0.32625 0.08736 0.36018 0.0
C1177 C 0.32966 0.06782 0.39697 0.0
C1178 C 0.34078 0.09362 0.35574 0.0
C1179 C 0.34611 0.09525 0.32933 0.0
C1180 C 0.33695 0.09061 0.30708 0.0
C1181 C 0.3225 0.08491 0.31172 0.0
C1182 C 0.31724 0.08334 0.33789 0.0
H1183 H 0.32726 0.05873 0.41005 0.0
H1184 H 0.32742 0.06419 0.37565 0.0
H1185 H 0.34102 0.07545 0.39871 0.0
H1186 H 0.34796 0.09701 0.37268 0.0
H1187 H 0.35727 0.0997 0.3264 0.0
H1188 H 0.9047 0.19877 0.49349 0.0
H1189 H 0.89699 0.20171 0.44838 0.0
H1190 H 0.86648 0.21002 0.4855 0.0
H1191 H 0.87419 0.20734 0.53013 0.0
H1192 H 0.86966 0.18958 0.42078 0.0
H1193 H 0.89259 0.24619 0.44335 0.0
H1194 H 0.89657 0.2349 0.46313 0.0
H1195 H 0.88032 0.2347 0.46808 0.0
C1196 C 0.89612 0.20087 0.4919 0.0
C1197 C 0.89014 0.20297 0.51527 0.0
C1198 C 0.89177 0.20262 0.46619 0.0
C1199 C 0.88138 0.20641 0.46367 0.0
C1200 C 0.87471 0.2074 0.48698 0.0
H1201 H 0.85438 0.23837 0.32717 0.0
H1202 H 0.8553 0.22897 0.37183 0.0
C1203 C 0.87909 0.2058 0.51247 0.0
C1204 C 0.87812 0.21034 0.43708 0.0
H1205 H 0.8797 0.23795 0.4028 0.0
C1206 C 0.87187 0.20015 0.4168 0.0
C1207 C 0.8809 0.22413 0.432 0.0
C1208 C 0.88807 0.23566 0.45266 0.0
C1209 C 0.86827 0.20337 0.39161 0.0
C1210 C 0.87122 0.2172 0.38643 0.0
C1211 C 0.8773 0.22732 0.40686 0.0
C1212 C 0.86944 0.22176 0.35917 0.0
C1213 C 0.86127 0.19191 0.3708 0.0
C1214 C 0.87709 0.22087 0.33739 0.0
C1215 C 0.87663 0.22624 0.3122 0.0
C1216 C 0.86855 0.23272 0.30804 0.0
C1217 C 0.86063 0.23339 0.32969 0.0
C1218 C 0.86117 0.22804 0.35517 0.0
H1219 H 0.85573 0.18143 0.38042 0.0
H1220 H 0.85366 0.19332 0.35847 0.0
H1221 H 0.86936 0.19215 0.35706 0.0
H1222 H 0.88379 0.2164 0.34007 0.0
H1223 H 0.88287 0.22551 0.29601 0.0
H1224 H 0.74453 0.65727 0.52931 0.0
H1225 H 0.74039 0.64681 0.48449 0.0
H1226 H 0.75422 0.68716 0.44845 0.0
H1227 H 0.75859 0.69785 0.49381 0.0
H1228 H 0.72102 0.64689 0.44929 0.0
H1229 H 0.77369 0.67082 0.40183 0.0
H1230 H 0.77127 0.67116 0.43789 0.0
H1231 H 0.76908 0.68295 0.4162 0.0
C1232 C 0.74697 0.66402 0.51187 0.0
C1233 C 0.75184 0.6784 0.51509 0.0
C1234 C 0.74457 0.65799 0.48623 0.0
C1235 C 0.74697 0.66615 0.46308 0.0
C1236 C 0.75247 0.68067 0.46604 0.0
H1237 H 0.72644 0.64701 0.29506 0.0
H1238 H 0.7347 0.65739 0.33939 0.0
C1239 C 0.75497 0.68678 0.49193 0.0
C1240 C 0.74248 0.65909 0.43632 0.0
H1241 H 0.75422 0.65671 0.37367 0.0
C1242 C 0.72829 0.64898 0.43278 0.0
C1243 C 0.75197 0.66182 0.41484 0.0
C1244 C 0.76738 0.67219 0.41781 0.0
C1245 C 0.72329 0.64173 0.40824 0.0
C1246 C 0.73277 0.64446 0.38672 0.0
C1247 C 0.74697 0.65454 0.39026 0.0
C1248 C 0.72797 0.63774 0.35974 0.0
C1249 C 0.70782 0.63154 0.40529 0.0
C1250 C 0.7215 0.62315 0.35624 0.0
C1251 C 0.71665 0.61708 0.33063 0.0
C1252 C 0.71825 0.62553 0.30817 0.0
C1253 C 0.72494 0.64013 0.31185 0.0
C1254 C 0.72975 0.64613 0.33724 0.0
H1255 H 0.70159 0.63288 0.42149 0.0
H1256 H 0.70393 0.63279 0.38539 0.0
H1257 H 0.70596 0.62071 0.40649 0.0
H1258 H 0.7202 0.61647 0.37328 0.0
H1259 H 0.71163 0.60583 0.32846 0.0
H1260 H 0.07407 0.3205 0.19623 0.0
H1261 H 0.07112 0.30949 0.15223 0.0
H1262 H 0.08993 0.34993 0.11393 0.0
H1263 H 0.0932 0.36116 0.1585 0.0
H1264 H 0.05478 0.31026 0.11237 0.0
H1265 H 0.10915 0.33144 0.07498 0.0
H1266 H 0.10522 0.33274 0.10996 0.0
H1267 H 0.10494 0.34451 0.08529 0.0
C1268 C 0.0778 0.32713 0.17852 0.0
C1269 C 0.08382 0.34173 0.18085 0.0
C1270 C 0.07609 0.32079 0.15333 0.0
C1271 C 0.08032 0.32883 0.12971 0.0
C1272 C 0.0868 0.3435 0.13191 0.0
H1273 H 0.06574 0.31107 0.96081 0.0
H1274 H 0.07335 0.32074 0.00581 0.0
C1275 C 0.08864 0.34992 0.15735 0.0
C1276 C 0.07681 0.32161 0.103 0.0
H1277 H 0.09081 0.31846 0.04352 0.0
C1278 C 0.06268 0.31197 0.09741 0.0
C1279 C 0.0871 0.32382 0.08349 0.0
C1280 C 0.10247 0.33359 0.08873 0.0
C1281 C 0.05853 0.30475 0.07267 0.0
C1282 C 0.0688 0.30705 0.05304 0.0
C1283 C 0.08295 0.3166 0.05869 0.0
C1284 C 0.06492 0.3007 0.02559 0.0
C1285 C 0.04312 0.29512 0.06736 0.0
C1286 C 0.05785 0.28612 0.0215 0.0
C1287 C 0.0534 0.28045 -0.00452 0.0
C1288 C 0.05595 0.28931 0.97325 0.0
C1289 C 0.06346 0.30389 0.97745 0.0
C1290 C 0.0679 0.30949 0.00322 0.0
H1291 H 0.03645 0.29661 0.08232 0.0
H1292 H 0.04027 0.29684 0.04678 0.0
H1293 H 0.04073 0.28411 0.06863 0.0
H1294 H 0.05562 0.27913 0.03846 0.0
H1295 H 0.0477 0.2692 0.9929 0.0
H1296 H 0.59713 0.72067 0.16303 0.0
H1297 H 0.60736 0.7277 0.1174 0.0
H1298 H 0.64648 0.75875 0.15251 0.0
H1299 H 0.63648 0.7519 0.19759 0.0
H1300 H 0.62403 0.75734 0.09091 0.0
H1301 H 0.65426 0.73007 0.10845 0.0
H1302 H 0.63863 0.72597 0.12734 0.0
H1303 H 0.65484 0.74156 0.13492 0.0
C1304 C 0.60778 0.72921 0.16089 0.0
C1305 C 0.61603 0.73564 0.18388 0.0
C1306 C 0.61364 0.73317 0.1349 0.0
C1307 C 0.62775 0.74359 0.1317 0.0
C1308 C 0.63565 0.75057 0.15456 0.0
H1309 H 0.68659 0.76899 -0.00487 0.0
H1310 H 0.67655 0.76763 0.04038 0.0
C1311 C 0.62988 0.74663 0.18031 0.0
C1312 C 0.63469 0.7467 0.10488 0.0
H1313 H 0.65927 0.74338 0.06856 0.0
C1314 C 0.63169 0.75425 0.08592 0.0
C1315 C 0.64485 0.74286 0.09866 0.0
C1316 C 0.64833 0.73458 0.11827 0.0
C1317 C 0.63863 0.75808 0.06083 0.0
C1318 C 0.64862 0.75401 0.05437 0.0
C1319 C 0.65172 0.7466 0.07355 0.0
C1320 C 0.65496 0.75612 0.02698 0.0
C1321 C 0.63531 0.76663 0.04164 0.0
C1322 C 0.64622 0.75012 0.00454 0.0
C1323 C 0.65188 0.7509 0.97899 0.0
C1324 C 0.66648 0.75758 0.97509 0.0
C1325 C 0.67532 0.76386 -0.00256 0.0
C1326 C 0.66959 0.76304 0.02326 0.0
H1327 H 0.63143 0.77281 0.05265 0.0
H1328 H 0.64463 0.77388 0.02956 0.0
H1329 H 0.62693 0.75949 0.02753 0.0
H1330 H 0.63494 0.74442 0.0069 0.0
H1331 H 0.64471 0.74592 0.96229 0.0
H1332 H 0.23944 0.8679 0.16063 0.0
H1333 H 0.23115 0.87032 0.11572 0.0
H1334 H 0.20529 0.88465 0.15344 0.0
H1335 H 0.21346 0.88238 0.19775 0.0
H1336 H 0.20205 0.85931 0.09333 0.0
H1337 H 0.23258 0.9172 0.10283 0.0
H1338 H 0.23601 0.90579 0.12349 0.0
H1339 H 0.22144 0.90823 0.13107 0.0
C1340 C 0.23182 0.87134 0.15926 0.0
C1341 C 0.22726 0.87513 0.18268 0.0
C1342 C 0.22712 0.87275 0.13367 0.0
C1343 C 0.21781 0.87793 0.13131 0.0
C1344 C 0.21266 0.88089 0.15477 0.0
H1345 H 0.18922 0.90866 -0.00389 0.0
H1346 H 0.19137 0.90059 0.04135 0.0
C1347 C 0.21735 0.87956 0.18011 0.0
C1348 C 0.21391 0.88102 0.10457 0.0
H1349 H 0.21693 0.908 0.06592 0.0
C1350 C 0.20534 0.86994 0.08723 0.0
C1351 C 0.21809 0.8949 0.09684 0.0
C1352 C 0.22763 0.90725 0.11438 0.0
C1353 C 0.20074 0.87238 0.06239 0.0
C1354 C 0.20503 0.88629 0.05455 0.0
C1355 C 0.21351 0.89734 0.07205 0.0
C1356 C 0.20204 0.88977 0.02725 0.0
C1357 C 0.19119 0.86004 0.0449 0.0
C1358 C 0.20721 0.8863 0.00443 0.0
C1359 C 0.20604 0.8909 0.97888 0.0
C1360 C 0.19971 0.89915 0.97544 0.0
C1361 C 0.19405 0.90224 -0.00187 0.0
C1362 C 0.19533 0.89768 0.02392 0.0
H1363 H 0.1853 0.85038 0.0571 0.0
H1364 H 0.1836 0.86198 0.03373 0.0
H1365 H 0.19759 0.85816 0.02993 0.0
H1366 H 0.2127 0.88051 0.00647 0.0
H1367 H 0.21049 0.88829 0.96183 0.0
H1368 H 0.59431 0.86896 0.66131 0.0
H1369 H 0.60452 0.8723 0.61569 0.0
H1370 H 0.64359 0.87994 0.65047 0.0
H1371 H 0.63355 0.87661 0.69554 0.0
H1372 H 0.62815 0.89774 0.59991 0.0
H1373 H 0.63884 0.85405 0.5873 0.0
H1374 H 0.62662 0.85374 0.61206 0.0
H1375 H 0.64514 0.86327 0.61873 0.0
C1376 C 0.60493 0.87094 0.65907 0.0
C1377 C 0.61314 0.87254 0.68195 0.0
C1378 C 0.61078 0.87292 0.63307 0.0
C1379 C 0.6248 0.87624 0.62965 0.0
C1380 C 0.63271 0.87713 0.65248 0.0
H1381 H 0.68658 0.90915 0.49812 0.0
H1382 H 0.67493 0.90057 0.54224 0.0
C1383 C 0.62695 0.87531 0.67829 0.0
C1384 C 0.63178 0.88037 0.60284 0.0
H1385 H 0.65088 0.87342 0.55719 0.0
C1386 C 0.63297 0.89232 0.59042 0.0
C1387 C 0.63831 0.87345 0.59072 0.0
C1388 C 0.63708 0.86034 0.60275 0.0
C1389 C 0.64066 0.89767 0.56648 0.0
C1390 C 0.64716 0.89074 0.55429 0.0
C1391 C 0.64599 0.87878 0.56667 0.0
C1392 C 0.65433 0.89528 0.52773 0.0
C1393 C 0.642 0.91087 0.55468 0.0
C1394 C 0.64657 0.89481 0.505 0.0
C1395 C 0.65313 0.89969 0.48012 0.0
C1396 C 0.66765 0.90509 0.47717 0.0
C1397 C 0.67541 0.90513 0.49976 0.0
C1398 C 0.66877 0.90023 0.5249 0.0
H1399 H 0.6399 0.91696 0.57003 0.0
H1400 H 0.65261 0.91765 0.54612 0.0
H1401 H 0.63424 0.90808 0.53814 0.0
H1402 H 0.6354 0.89078 0.50655 0.0
H1403 H 0.64674 0.8993 0.46316 0.0
H1404 H 0.06739 0.74574 0.46163 0.0
H1405 H 0.0748 0.74348 0.5066 0.0
H1406 H 0.05618 0.76654 0.5399 0.0
H1407 H 0.04841 0.76869 0.49435 0.0
H1408 H 0.09168 0.7626 0.54502 0.0
H1409 H 0.03713 0.72981 0.58242 0.0
H1410 H 0.04114 0.7338 0.54707 0.0
H1411 H 0.04139 0.7467 0.56964 0.0
C1412 C 0.06487 0.75042 0.47842 0.0
C1413 C 0.05713 0.75727 0.47439 0.0
C1414 C 0.0692 0.74915 0.50418 0.0
C1415 C 0.06589 0.75464 0.52671 0.0
C1416 C 0.05864 0.762 0.52281 0.0
H1417 H 0.07489 0.7439 0.69703 0.0
H1418 H 0.07211 0.75199 0.65307 0.0
C1419 C 0.05429 0.76331 0.4968 0.0
C1420 C 0.06962 0.75199 0.55411 0.0
H1421 H 0.0553 0.73442 0.61287 0.0
C1422 C 0.08374 0.75652 0.55995 0.0
C1423 C 0.05924 0.74389 0.57343 0.0
C1424 C 0.04386 0.73814 0.56787 0.0
C1425 C 0.08776 0.75325 0.58464 0.0
C1426 C 0.07736 0.74508 0.60385 0.0
C1427 C 0.06327 0.74067 0.59809 0.0
C1428 C 0.08075 0.74127 0.63049 0.0
C1429 C 0.10308 0.75871 0.59012 0.0
C1430 C 0.08686 0.73274 0.63259 0.0
C1431 C 0.08856 0.72809 0.658 0.0
C1432 C 0.08401 0.73179 0.68156 0.0
C1433 C 0.0784 0.74073 0.67929 0.0
C1434 C 0.07679 0.7454 0.65413 0.0
H1435 H 0.10989 0.7674 0.57629 0.0
H1436 H 0.10577 0.76244 0.61132 0.0
H1437 H 0.10544 0.75013 0.58709 0.0
H1438 H 0.0898 0.72924 0.61456 0.0
H1439 H 0.09282 0.72114 0.6591 0.0
H1440 H 0.21657 0.31218 0.46359 0.0
H1441 H 0.21813 0.32237 0.50787 0.0
H1442 H 0.18869 0.28172 0.53947 0.0
H1443 H 0.18718 0.27123 0.49464 0.0
H1444 H 0.19837 0.32317 0.54127 0.0
H1445 H 0.22275 0.29504 0.58944 0.0
H1446 H 0.22098 0.29556 0.55327 0.0
H1447 H 0.20607 0.28418 0.57357 0.0
C1448 C 0.21035 0.30531 0.47984 0.0
C1449 C 0.20184 0.29081 0.47556 0.0
C1450 C 0.21123 0.31122 0.5052 0.0
C1451 C 0.20368 0.30283 0.52711 0.0
C1452 C 0.19479 0.28838 0.52291 0.0
H1453 H 0.21086 0.32405 0.69718 0.0
H1454 H 0.20252 0.31312 0.65314 0.0
C1455 C 0.19387 0.2824 0.49729 0.0
C1456 C 0.20575 0.30939 0.55432 0.0
H1457 H 0.21949 0.31061 0.61676 0.0
C1458 C 0.20288 0.32036 0.55788 0.0
C1459 C 0.21179 0.30583 0.57587 0.0
C1460 C 0.21571 0.2946 0.57294 0.0
C1461 C 0.20585 0.32782 0.5824 0.0
C1462 C 0.21204 0.32436 0.60382 0.0
C1463 C 0.21474 0.31327 0.60034 0.0
C1464 C 0.2157 0.33185 0.63026 0.0
C1465 C 0.20219 0.33922 0.58526 0.0
C1466 C 0.22562 0.34622 0.63223 0.0
C1467 C 0.23033 0.35261 0.65766 0.0
C1468 C 0.22534 0.34463 0.68137 0.0
C1469 C 0.21496 0.33046 0.67925 0.0
C1470 C 0.21019 0.32417 0.65406 0.0
H1471 H 0.19432 0.33816 0.57001 0.0
H1472 H 0.19804 0.33915 0.60576 0.0
H1473 H 0.21178 0.34952 0.58222 0.0
H1474 H 0.23021 0.35233 0.61415 0.0
H1475 H 0.23846 0.36349 0.6587 0.0
H1476 H 0.90131 0.69429 -0.00404 0.0
H1477 H 0.89313 0.68463 0.95028 0.0
H1478 H 0.87045 0.64308 0.98368 0.0
H1479 H 0.87834 0.65253 0.02872 0.0
H1480 H 0.89905 0.66556 0.92516 0.0
H1481 H 0.84162 0.6427 0.93248 0.0
H1482 H 0.85359 0.65542 0.95644 0.0
H1483 H 0.84858 0.63727 0.95963 0.0
C1484 C 0.89431 0.68316 0.99352 0.0
C1485 C 0.8905 0.67419 0.01592 0.0
C1486 C 0.88968 0.67763 0.96746 0.0
C1487 C 0.88101 0.66312 0.96358 0.0
C1488 C 0.87685 0.6543 0.98612 0.0
H1489 H 0.85673 0.60391 0.82919 0.0
H1490 H 0.85942 0.61475 0.87414 0.0
C1491 C 0.8815 0.65975 0.01191 0.0
C1492 C 0.87736 0.65686 0.93603 0.0
H1493 H 0.84989 0.63409 0.89636 0.0
C1494 C 0.8883 0.65885 0.91873 0.0
C1495 C 0.86332 0.64792 0.92775 0.0
C1496 C 0.85111 0.6458 0.94496 0.0
C1497 C 0.88561 0.65188 0.89376 0.0
C1498 C 0.87159 0.64282 0.88563 0.0
C1499 C 0.86062 0.64092 0.90275 0.0
C1500 C 0.86827 0.63584 0.85877 0.0
C1501 C 0.89782 0.65402 0.87648 0.0
C1502 C 0.87183 0.64401 0.83537 0.0
C1503 C 0.87033 0.63791 0.81 0.0
C1504 C 0.86514 0.62344 0.80732 0.0
C1505 C 0.86074 0.61506 0.83063 0.0
C1506 C 0.86231 0.62125 0.85626 0.0
H1507 H 0.90772 0.65851 0.88826 0.0
H1508 H 0.89582 0.64399 0.86727 0.0
H1509 H 0.89932 0.66137 0.85986 0.0
H1510 H 0.87619 0.65523 0.8368 0.0
H1511 H 0.87366 0.64465 0.79243 0.0
H1512 H 0.26136 0.19873 0.99392 0.0
H1513 H 0.27148 0.20119 0.94839 0.0
H1514 H 0.31288 0.22041 0.98306 0.0
H1515 H 0.30298 0.21798 0.028 0.0
H1516 H 0.29113 0.22732 0.92535 0.0
H1517 H 0.3135 0.19223 0.93001 0.0
H1518 H 0.30026 0.1909 0.95333 0.0
H1519 H 0.31831 0.20402 0.95821 0.0
C1520 C 0.27257 0.2032 0.99178 0.0
C1521 C 0.28136 0.20819 0.01454 0.0
C1522 C 0.27835 0.20464 0.96581 0.0
C1523 C 0.29294 0.21083 0.96235 0.0
C1524 C 0.3016 0.21536 0.98519 0.0
H1525 H 0.35288 0.24448 0.82862 0.0
H1526 H 0.34175 0.23648 0.87332 0.0
C1527 C 0.2959 0.21405 0.01091 0.0
C1528 C 0.2994 0.21386 0.93498 0.0
H1529 H 0.32188 0.20914 0.8944 0.0
C1530 C 0.2977 0.2232 0.91843 0.0
C1531 C 0.30818 0.20867 0.92617 0.0
C1532 C 0.3101 0.1983 0.94274 0.0
C1533 C 0.30476 0.22773 0.89362 0.0
C1534 C 0.31355 0.22256 0.88478 0.0
C1535 C 0.31521 0.21315 0.90125 0.0
C1536 C 0.32053 0.22637 0.85791 0.0
C1537 C 0.30301 0.23832 0.8774 0.0
C1538 C 0.31234 0.22291 0.83448 0.0
C1539 C 0.31861 0.22748 0.80925 0.0
C1540 C 0.33327 0.23551 0.80668 0.0
C1541 C 0.34157 0.23834 0.82997 0.0
C1542 C 0.33523 0.2338 0.85546 0.0
H1543 H 0.29926 0.24409 0.89015 0.0
H1544 H 0.31302 0.246 0.86769 0.0
H1545 H 0.29514 0.23284 0.86125 0.0
H1546 H 0.30102 0.2169 0.83576 0.0
H1547 H 0.31188 0.2249 0.7917 0.0
H1548 H 0.71361 0.09895 0.83166 0.0
H1549 H 0.72147 0.09653 0.87696 0.0
H1550 H 0.73826 0.07197 0.843 0.0
H1551 H 0.7307 0.0744 0.79832 0.0
H1552 H 0.71319 0.07115 0.90411 0.0
H1553 H 0.77069 0.09999 0.88948 0.0
H1554 H 0.75886 0.10183 0.86688 0.0
H1555 H 0.76156 0.0871 0.86374 0.0
C1556 C 0.71915 0.09322 0.83389 0.0
C1557 C 0.72152 0.08688 0.81136 0.0
C1558 C 0.72362 0.09182 0.85973 0.0
C1559 C 0.73067 0.08426 0.86329 0.0
C1560 C 0.73316 0.07812 0.84074 0.0
H1561 H 0.75524 0.05012 -0.00174 0.0
H1562 H 0.75154 0.05706 0.953 0.0
C1563 C 0.72869 0.07944 0.81515 0.0
C1564 C 0.73461 0.08178 0.89061 0.0
H1565 H 0.76212 0.08468 0.9277 0.0
C1566 C 0.7239 0.07427 0.9094 0.0
C1567 C 0.74858 0.08569 0.89735 0.0
C1568 C 0.7606 0.09421 0.87839 0.0
C1569 C 0.72674 0.07026 0.93447 0.0
C1570 C 0.7407 0.07408 0.94114 0.0
C1571 C 0.75143 0.08168 0.92246 0.0
C1572 C 0.74431 0.0708 0.96802 0.0
C1573 C 0.7147 0.06169 0.95339 0.0
C1574 C 0.74199 0.07662 0.99126 0.0
C1575 C 0.74405 0.07269 0.01682 0.0
C1576 C 0.74862 0.06292 0.01984 0.0
C1577 C 0.75172 0.05765 -0.00344 0.0
C1578 C 0.74957 0.06158 0.97076 0.0
H1579 H 0.70449 0.05659 0.94264 0.0
H1580 H 0.71607 0.05349 0.96353 0.0
H1581 H 0.71432 0.06863 0.96923 0.0
H1582 H 0.73824 0.08398 0.98963 0.0
H1583 H 0.74175 0.07712 0.03432 0.0
H1584 H 0.02169 0.43037 0.66246 0.0
H1585 H 0.0108 0.42678 0.70753 0.0
H1586 H 0.9702 0.41013 0.67026 0.0
H1587 H -0.01917 0.41344 0.62577 0.0
H1588 H -0.00731 0.43575 0.73197 0.0
H1589 H 0.96566 0.37813 0.71908 0.0
H1590 H -0.02012 0.38996 0.69752 0.0
H1591 H 0.96249 0.38704 0.69211 0.0
C1592 C 0.01048 0.42613 0.66397 0.0
C1593 C 0.0021 0.422 0.64061 0.0
C1594 C 0.00427 0.42405 0.68967 0.0
C1595 C -0.01037 0.41786 0.69222 0.0
C1596 C -0.01856 0.41458 0.66882 0.0
H1597 H 0.93046 0.38674 0.82828 0.0
H1598 H 0.94084 0.39462 0.78305 0.0
C1599 C -0.01243 0.41653 0.64337 0.0
C1600 C -0.01731 0.41426 0.71912 0.0
H1601 H 0.95883 0.38663 0.75679 0.0
C1602 C -0.01466 0.42502 0.73747 0.0
C1603 C 0.97301 0.40023 0.7262 0.0
C1604 C 0.97016 0.38815 0.70782 0.0
C1605 C -0.02156 0.42213 0.76259 0.0
C1606 C 0.96878 0.40811 0.76965 0.0
C1607 C 0.96609 0.39738 0.75122 0.0
C1608 C 0.96231 0.40421 0.79694 0.0
C1609 C -0.01856 0.43414 0.78126 0.0
C1610 C 0.9709 0.40691 0.81959 0.0
C1611 C 0.96505 0.40239 0.84514 0.0
C1612 C 0.95041 0.39499 0.84878 0.0
C1613 C 0.94175 0.39245 0.82616 0.0
C1614 C 0.94767 0.39693 0.80036 0.0
H1615 H -0.01438 0.44415 0.77004 0.0
H1616 H 0.97186 0.43219 0.79234 0.0
H1617 H -0.01058 0.43535 0.79632 0.0
H1618 H -0.01781 0.41221 0.81742 0.0
H1619 H 0.97207 0.40455 0.86207 0.0
H1620 H 0.54415 0.54478 0.86212 0.0
H1621 H 0.53629 0.54766 0.81791 0.0
H1622 H 0.56427 0.53617 0.77955 0.0
H1623 H 0.57208 0.53299 0.82428 0.0
H1624 H 0.55343 0.56707 0.78145 0.0
H1625 H 0.52835 0.51411 0.73541 0.0
H1626 H 0.53196 0.51704 0.77118 0.0
H1627 H 0.54578 0.52028 0.74787 0.0
C1628 C 0.54848 0.5426 0.8443 0.0
C1629 C 0.55879 0.53871 0.84668 0.0
C1630 C 0.54396 0.54428 0.81901 0.0
C1631 C 0.54964 0.54213 0.79535 0.0
C1632 C 0.55956 0.53767 0.79753 0.0
H1633 H 0.55011 0.56116 0.62826 0.0
H1634 H 0.55181 0.553 0.67279 0.0
C1635 C 0.56403 0.53587 0.82306 0.0
C1636 C 0.54601 0.54582 0.76882 0.0
H1637 H 0.53223 0.53291 0.70648 0.0
C1638 C 0.54868 0.55956 0.76512 0.0
C1639 C 0.53979 0.53603 0.74756 0.0
C1640 C 0.53617 0.521 0.75068 0.0
C1641 C 0.54569 0.56389 0.74056 0.0
C1642 C 0.53962 0.55415 0.71917 0.0
C1643 C 0.53677 0.54034 0.72297 0.0
C1644 C 0.53751 0.55843 0.69187 0.0
C1645 C 0.54958 0.579 0.73739 0.0
C1646 C 0.52866 0.56403 0.6875 0.0
C1647 C 0.52767 0.56883 0.66173 0.0
C1648 C 0.53551 0.56807 0.64002 0.0
C1649 C 0.54398 0.56204 0.64448 0.0
C1650 C 0.54494 0.55728 0.66999 0.0
H1651 H 0.55668 0.58571 0.75375 0.0
H1652 H 0.55478 0.58316 0.71763 0.0
H1653 H 0.53994 0.57979 0.73807 0.0
H1654 H 0.52264 0.56481 0.70403 0.0
H1655 H 0.52101 0.57335 0.65893 0.0
H1656 H 0.4108 -0.0093 0.85805 0.0
H1657 H 0.40789 0.98073 0.81301 0.0
H1658 H 0.42291 0.02149 0.77795 0.0
H1659 H 0.42583 0.03166 0.82356 0.0
H1660 H 0.39675 0.00042 0.75781 0.0
H1661 H 0.43527 0.98212 0.75575 0.0
H1662 H 0.42439 0.97667 0.78534 0.0
H1663 H 0.43631 -0.00502 0.77972 0.0
C1664 C 0.41375 -0.00236 0.84081 0.0
C1665 C 0.41852 0.01198 0.84435 0.0
C1666 C 0.41217 -0.00809 0.81503 0.0
C1667 C 0.41532 0.00036 0.79208 0.0
C1668 C 0.42053 0.0148 0.79545 0.0
H1669 H 0.39849 0.9807 0.62256 0.0
H1670 H 0.40614 -0.00839 0.66664 0.0
C1671 C 0.42225 0.02061 0.82145 0.0
C1672 C 0.41176 -0.00628 0.76489 0.0
H1673 H 0.41717 0.9724 0.72231 0.0
C1674 C 0.40134 -0.00556 0.7499 0.0
C1675 C 0.41758 -0.01429 0.7548 0.0
C1676 C 0.4291 -0.0151 0.76962 0.0
C1677 C 0.3964 -0.01283 0.72537 0.0
C1678 C 0.4022 0.97915 0.71527 0.0
C1679 C 0.41265 0.97845 0.73019 0.0
C1680 C 0.39809 0.97216 0.68846 0.0
C1681 C 0.38478 -0.0121 0.71073 0.0
C1682 C 0.39141 0.95752 0.68587 0.0
C1683 C 0.387 0.95113 0.66036 0.0
C1684 C 0.38928 0.95934 0.63716 0.0
C1685 C 0.39638 0.974 0.63995 0.0
C1686 C 0.40075 0.98031 0.66521 0.0
H1687 H 0.37893 -0.00883 0.72442 0.0
H1688 H 0.38934 -0.00429 0.69423 0.0
H1689 H 0.37728 0.97764 0.70159 0.0
H1690 H 0.38934 0.95105 0.70361 0.0
H1691 H 0.38162 0.93984 0.65888 0.0
H1692 H 0.53765 0.97825 0.12886 0.0
H1693 H 0.54042 -0.01215 0.17429 0.0
H1694 H 0.5299 0.9478 0.20805 0.0
H1695 H 0.52719 0.93805 0.16213 0.0
H1696 H 0.52321 0.98092 0.22054 0.0
H1697 H 0.56982 0.97483 0.23657 0.0
H1698 H 0.56194 0.97296 0.20374 0.0
H1699 H 0.55391 0.95907 0.22801 0.0
C1700 C 0.53572 0.97138 0.14593 0.0
C1701 C 0.53235 0.95742 0.14194 0.0
C1702 C 0.53727 0.9769 0.17191 0.0
C1703 C 0.53561 0.96863 0.19454 0.0
C1704 C 0.53143 0.95442 0.19078 0.0
H1705 H 0.55463 -0.01228 0.36256 0.0
H1706 H 0.54612 0.9772 0.3185 0.0
C1707 C 0.52977 0.94883 0.16461 0.0
C1708 C 0.53932 0.97532 0.22168 0.0
H1709 H 0.56328 -0.0156 0.27252 0.0
C1710 C 0.53194 0.98165 0.232 0.0
C1711 C 0.55088 0.97648 0.23633 0.0
C1712 C 0.55971 0.9706 0.2256 0.0
C1713 C 0.53561 -0.01117 0.25689 0.0
C1714 C 0.54708 -0.01014 0.27159 0.0
C1715 C 0.5545 -0.01639 0.26117 0.0
C1716 C 0.55111 -0.00344 0.29868 0.0
C1717 C 0.52704 -0.00501 0.26758 0.0
C1718 C 0.5566 0.01103 0.30241 0.0
C1719 C 0.56155 0.0172 0.32794 0.0
C1720 C 0.56116 0.00897 0.34992 0.0
C1721 C 0.55524 -0.00555 0.34608 0.0
C1722 C 0.55032 -0.01164 0.32085 0.0
H1723 H 0.51708 -0.00884 0.25624 0.0
H1724 H 0.52458 -0.00758 0.28931 0.0
H1725 H 0.53318 0.00654 0.26575 0.0
H1726 H 0.55746 0.01759 0.28544 0.0
H1727 H 0.56608 0.0284 0.33023 0.0
H1728 H 0.97466 0.56141 0.36246 0.0
H1729 H -0.01531 0.56391 0.31772 0.0
H1730 H 0.94386 0.53504 0.28558 0.0
H1731 H 0.93354 0.53259 0.33087 0.0
H1732 H -0.01453 0.54474 0.28328 0.0
H1733 H 0.95711 0.56928 0.23687 0.0
H1734 H 0.95759 0.56712 0.27293 0.0
H1735 H 0.94616 0.55248 0.25203 0.0
C1736 C 0.96771 0.55553 0.34599 0.0
C1737 C 0.95322 0.54685 0.35031 0.0
C1738 C 0.97353 0.55697 0.32035 0.0
C1739 C 0.96505 0.54981 0.29818 0.0
C1740 C 0.95059 0.54086 0.30234 0.0
H1741 H -0.01617 0.55444 0.12773 0.0
H1742 H 0.97375 0.54748 0.17268 0.0
C1743 C 0.9447 0.53941 0.32822 0.0
C1744 C 0.97155 0.5521 0.27089 0.0
H1745 H 0.97211 0.56555 0.20851 0.0
C1746 C -0.01748 0.54923 0.26687 0.0
C1747 C 0.96781 0.55811 0.24958 0.0
C1748 C 0.95662 0.56206 0.253 0.0
C1749 C -0.01029 0.55208 0.24207 0.0
C1750 C -0.01402 0.55813 0.22083 0.0
C1751 C 0.97498 0.56092 0.22482 0.0
C1752 C -0.00706 0.56128 0.19389 0.0
C1753 C 0.00108 0.54839 0.23868 0.0
C1754 C 0.00728 0.57113 0.19071 0.0
C1755 C 0.01318 0.57509 0.16474 0.0
C1756 C 0.00475 0.56939 0.14168 0.0
C1757 C -0.0094 0.55912 0.14509 0.0
C1758 C -0.01522 0.55512 0.17081 0.0
H1759 H 0.00044 0.5409 0.25436 0.0
H1760 H 0.00048 0.54377 0.21841 0.0
H1761 H 0.01145 0.55803 0.2405 0.0
H1762 H 0.01375 0.57618 0.20823 0.0
H1763 H 0.02407 0.58312 0.16272 0.0
H1764 H 0.38065 0.43574 0.16374 0.0
H1765 H 0.389 0.43407 0.20907 0.0
H1766 H 0.41163 0.41536 0.17411 0.0
H1767 H 0.40351 0.41707 0.12939 0.0
H1768 H 0.38304 0.40861 0.23272 0.0
H1769 H 0.44046 0.44356 0.22627 0.0
H1770 H 0.42844 0.44457 0.20283 0.0
H1771 H 0.4335 0.43151 0.19848 0.0
C1772 C 0.38768 0.43161 0.16576 0.0
C1773 C 0.39139 0.42651 0.14303 0.0
C1774 C 0.3924 0.43061 0.19162 0.0
C1775 C 0.4011 0.42474 0.19496 0.0
C1776 C 0.4052 0.42019 0.17208 0.0
H1777 H 0.42705 0.39005 0.32667 0.0
H1778 H 0.4241 0.39854 0.28241 0.0
C1779 C 0.40043 0.42108 0.14649 0.0
C1780 C 0.40473 0.4219 0.22229 0.0
H1781 H 0.4322 0.42648 0.26177 0.0
C1782 C 0.39379 0.41268 0.23923 0.0
C1783 C 0.41876 0.42703 0.2306 0.0
C1784 C 0.43097 0.43732 0.21369 0.0
C1785 C 0.39647 0.40818 0.26389 0.0
C1786 C 0.4105 0.41323 0.27214 0.0
C1787 C 0.42147 0.42255 0.25535 0.0
C1788 C 0.41382 0.40932 0.29873 0.0
C1789 C 0.38423 0.39774 0.28058 0.0
C1790 C 0.40954 0.41302 0.3225 0.0
C1791 C 0.41114 0.40817 0.34747 0.0
C1792 C 0.41722 0.39962 0.34942 0.0
C1793 C 0.42233 0.39661 0.32579 0.0
C1794 C 0.42061 0.40142 0.30056 0.0
H1795 H 0.37451 0.39214 0.26833 0.0
H1796 H 0.38647 0.3899 0.28978 0.0
H1797 H 0.38224 0.40332 0.29715 0.0
H1798 H 0.40458 0.41936 0.32167 0.0
H1799 H 0.40728 0.41089 0.36531 0.0
H1800 H 0.30715 0.20322 0.14346 0.0
H1801 H 0.31775 0.18913 0.15625 0.0
H1802 H 0.27869 0.15142 0.13996 0.0
H1803 H 0.26804 0.16535 0.12701 0.0
H1804 H 0.30919 0.16729 0.19617 0.0
H1805 H 0.30771 0.14827 0.09146 0.0
H1806 H 0.30561 0.16314 0.09895 0.0
H1807 H 0.29124 0.14569 0.10376 0.0
C1808 C 0.30079 0.19193 0.14285 0.0
C1809 C 0.2868 0.18539 0.13403 0.0
C1810 C 0.30686 0.18391 0.15011 0.0
C1811 C 0.29906 0.16928 0.14851 0.0
C1812 C 0.28495 0.16273 0.14079 0.0
H1813 H 0.31311 0.10026 0.1769 0.0
H1814 H 0.30403 0.11568 0.16437 0.0
C1815 C 0.27887 0.17071 0.13356 0.0
C1816 C 0.30567 0.16079 0.1545 0.0
H1817 H 0.31387 0.13755 0.12621 0.0
C1818 C 0.31032 0.16086 0.18088 0.0
C1819 C 0.3071 0.15244 0.13443 0.0
C1820 C 0.30277 0.15242 0.10548 0.0
C1821 C 0.31604 0.15244 0.18796 0.0
C1822 C 0.31734 0.14398 0.16794 0.0
C1823 C 0.31282 0.14404 0.14148 0.0
C1824 C 0.32314 0.13479 0.17419 0.0
C1825 C 0.32024 0.15237 0.21696 0.0
C1826 C 0.33701 0.14049 0.1831 0.0
C1827 C 0.34222 0.13173 0.19026 0.0
C1828 C 0.33367 0.11712 0.18846 0.0
C1829 C 0.31995 0.11147 0.17854 0.0
C1830 C 0.31474 0.12025 0.17142 0.0
H1831 H 0.31551 0.15678 0.23089 0.0
H1832 H 0.31709 0.14159 0.2236 0.0
H1833 H 0.3318 0.15884 0.21875 0.0
H1834 H 0.34375 0.15171 0.1848 0.0
H1835 H 0.35287 0.13641 0.19769 0.0
H1836 H 0.76091 0.09614 0.14851 0.0
H1837 H 0.77705 0.12071 0.15955 0.0
H1838 H 0.81216 0.11546 0.13887 0.0
H1839 H 0.79613 0.09087 0.12788 0.0
H1840 H 0.81513 0.13107 0.18818 0.0
H1841 H 0.79873 0.15032 0.09962 0.0
H1842 H 0.7847 0.13818 0.12094 0.0
H1843 H 0.79497 0.13246 0.10243 0.0
C1844 C 0.77207 0.10017 0.1466 0.0
C1845 C 0.77725 0.0916 0.13716 0.0
C1846 C 0.78125 0.11421 0.15274 0.0
C1847 C 0.79574 0.1199 0.14953 0.0
C1848 C 0.80099 0.11125 0.14127 0.0
H1849 H 0.86604 0.20429 0.17984 0.0
H1850 H 0.85213 0.17974 0.16589 0.0
C1851 C 0.79181 0.09722 0.13503 0.0
C1852 C 0.8054 0.13496 0.15422 0.0
H1853 H 0.81384 0.16736 0.13126 0.0
C1854 C 0.81495 0.13904 0.17568 0.0
C1855 C 0.80512 0.14525 0.13771 0.0
C1856 C 0.79542 0.14139 0.11372 0.0
C1857 C 0.82395 0.15322 0.18171 0.0
C1858 C 0.82353 0.16352 0.16543 0.0
C1859 C 0.81414 0.15942 0.14365 0.0
C1860 C 0.83212 0.17861 0.17167 0.0
C1861 C 0.83343 0.15703 0.20604 0.0
C1862 C 0.82548 0.18623 0.17835 0.0
C1863 C 0.83337 0.20023 0.18601 0.0
C1864 C 0.84806 0.2069 0.18711 0.0
C1865 C 0.85473 0.19942 0.1793 0.0
C1866 C 0.84681 0.18538 0.17155 0.0
H1867 H 0.83025 0.14797 0.21973 0.0
H1868 H 0.84429 0.16064 0.19917 0.0
H1869 H 0.83345 0.16565 0.2177 0.0
H1870 H 0.81416 0.18122 0.17839 0.0
H1871 H 0.8279 0.20571 0.19182 0.0
H1872 H 0.75502 0.6177 0.23466 0.0
H1873 H 0.77969 0.62708 0.22353 0.0
H1874 H 0.77286 0.64026 0.14566 0.0
H1875 H 0.74836 0.63183 0.15776 0.0
H1876 H 0.79273 0.62132 0.18916 0.0
H1877 H 0.80562 0.67558 0.16803 0.0
H1878 H 0.78897 0.66285 0.18195 0.0
H1879 H 0.79202 0.66357 0.14598 0.0
C1880 C 0.75883 0.62264 0.2152 0.0
C1881 C 0.74988 0.62416 0.19711 0.0
C1882 C 0.77292 0.628 0.20884 0.0
C1883 C 0.77828 0.6347 0.18399 0.0
C1884 C 0.76915 0.63565 0.16538 0.0
H1885 H 0.8566 0.64703 0.11811 0.0
H1886 H 0.83245 0.6376 0.13311 0.0
C1887 C 0.75513 0.6307 0.17213 0.0
C1888 C 0.79335 0.64044 0.17758 0.0
H1889 H 0.82243 0.66929 0.15365 0.0
C1890 C 0.79925 0.63188 0.18168 0.0
C1891 C 0.802 0.65431 0.16839 0.0
C1892 C 0.79686 0.66464 0.16615 0.0
C1893 C 0.81346 0.63671 0.17657 0.0
C1894 C 0.82186 0.65024 0.16557 0.0
C1895 C 0.816 0.65886 0.1618 0.0
C1896 C 0.83668 0.65566 0.15746 0.0
C1897 C 0.81931 0.62735 0.1838 0.0
C1898 C 0.84709 0.66917 0.16529 0.0
C1899 C 0.8608 0.67478 0.15578 0.0
C1900 C 0.86439 0.66684 0.13887 0.0
C1901 C 0.85412 0.65323 0.1316 0.0
C1902 C 0.84032 0.6478 0.14036 0.0
H1903 H 0.81334 0.62022 0.20069 0.0
H1904 H 0.81835 0.62073 0.1661 0.0
H1905 H 0.83049 0.63348 0.1898 0.0
H1906 H 0.84457 0.67548 0.1784 0.0
H1907 H 0.86856 0.68533 0.16154 0.0
H1908 H 0.12821 0.35874 0.29423 0.0
H1909 H 0.14302 0.34907 0.30726 0.0
H1910 H 0.10627 0.30891 0.32112 0.0
H1911 H 0.09132 0.31845 0.30778 0.0
H1912 H 0.14396 0.33582 0.35528 0.0
H1913 H 0.12926 0.30046 0.26616 0.0
H1914 H 0.1255 0.31459 0.26828 0.0
H1915 H 0.11479 0.29855 0.28616 0.0
C1916 C 0.12326 0.34787 0.30025 0.0
C1917 C 0.1086 0.33932 0.29978 0.0
C1918 C 0.13174 0.34237 0.30767 0.0
C1919 C 0.12573 0.32823 0.31464 0.0
C1920 C 0.11109 0.31979 0.31526 0.0
H1921 H 0.15859 0.27506 0.36083 0.0
H1922 H 0.14418 0.28509 0.34729 0.0
C1923 C 0.10258 0.32528 0.30784 0.0
C1924 C 0.13485 0.32233 0.3208 0.0
H1925 H 0.14371 0.2984 0.29905 0.0
C1926 C 0.14396 0.32767 0.34297 0.0
C1927 C 0.13482 0.31175 0.30457 0.0
C1928 C 0.12567 0.30606 0.27981 0.0
C1929 C 0.15287 0.3225 0.34973 0.0
C1930 C 0.15282 0.31188 0.33355 0.0
C1931 C 0.14374 0.30657 0.31133 0.0
C1932 C 0.16173 0.30578 0.34 0.0
C1933 C 0.16202 0.32817 0.37451 0.0
C1934 C 0.17639 0.31403 0.33961 0.0
C1935 C 0.18469 0.30833 0.34733 0.0
C1936 C 0.17842 0.29428 0.35546 0.0
C1937 C 0.16374 0.28593 0.35477 0.0
C1938 C 0.15548 0.29163 0.34705 0.0
H1939 H 0.15854 0.33391 0.388 0.0
H1940 H 0.16203 0.3196 0.3862 0.0
H1941 H 0.17294 0.33553 0.36817 0.0
H1942 H 0.1814 0.32492 0.3337 0.0
H1943 H 0.19597 0.315 0.34757 0.0
H1944 H 0.64444 0.87365 0.35021 0.0
H1945 H 0.63328 0.84875 0.33861 0.0
H1946 H 0.67158 0.84899 0.3575 0.0
H1947 H 0.68276 0.87375 0.36931 0.0
H1948 H 0.64131 0.8346 0.30037 0.0
H1949 H 0.64193 0.8177 0.4057 0.0
H1950 H 0.64467 0.83483 0.39759 0.0
H1951 H 0.65869 0.83109 0.39365 0.0
C1952 C 0.65051 0.86842 0.35166 0.0
C1953 C 0.66444 0.87563 0.36086 0.0
C1954 C 0.64412 0.85421 0.34511 0.0
C1955 C 0.65154 0.84702 0.3478 0.0
C1956 C 0.6656 0.85432 0.3559 0.0
H1957 H 0.63853 0.76473 0.3186 0.0
H1958 H 0.64685 0.78892 0.33252 0.0
C1959 C 0.67199 0.86848 0.36245 0.0
C1960 C 0.64464 0.83186 0.34224 0.0
H1961 H 0.63619 0.80059 0.37121 0.0
C1962 C 0.64005 0.82712 0.31587 0.0
C1963 C 0.64302 0.82219 0.36259 0.0
C1964 C 0.64721 0.82666 0.39154 0.0
C1965 C 0.63431 0.81296 0.30905 0.0
C1966 C 0.63293 0.80332 0.3293 0.0
C1967 C 0.6373 0.80803 0.35578 0.0
C1968 C 0.62742 0.78838 0.32311 0.0
C1969 C 0.6302 0.80849 0.28006 0.0
C1970 C 0.6136 0.77998 0.31413 0.0
C1971 C 0.60882 0.76618 0.30619 0.0
C1972 C 0.61777 0.76054 0.30724 0.0
C1973 C 0.6314 0.76879 0.31751 0.0
C1974 C 0.63617 0.7826 0.32543 0.0
H1975 H 0.63472 0.81755 0.26604 0.0
H1976 H 0.63368 0.80107 0.27358 0.0
H1977 H 0.61863 0.8031 0.27823 0.0
H1978 H 0.60662 0.7842 0.31272 0.0
H1979 H 0.59824 0.76007 0.29851 0.0
H1980 H 0.08671 0.80228 0.36476 0.0
H1981 H 0.11123 0.81695 0.3517 0.0
H1982 H 0.11352 0.78012 0.33144 0.0
H1983 H 0.08894 0.76534 0.3442 0.0
H1984 H 0.13386 0.81591 0.37564 0.0
H1985 H 0.13077 0.80547 0.26519 0.0
H1986 H 0.11555 0.80148 0.28535 0.0
H1987 H 0.12282 0.7901 0.28597 0.0
C1988 C 0.09236 0.7973 0.35715 0.0
C1989 C 0.08589 0.78265 0.35547 0.0
C1990 C 0.10637 0.8057 0.34977 0.0
C1991 C 0.11412 0.79961 0.34044 0.0
C1992 C 0.10763 0.78502 0.33819 0.0
H1993 H 0.20049 0.83185 0.29389 0.0
H1994 H 0.17612 0.81711 0.30783 0.0
C1995 C 0.09361 0.77659 0.34556 0.0
C1996 C 0.1292 0.80851 0.33452 0.0
H1997 H 0.1535 0.81809 0.28432 0.0
C1998 C 0.13817 0.81645 0.35566 0.0
C1999 C 0.13474 0.80912 0.30846 0.0
C2000 C 0.12548 0.80119 0.28485 0.0
C2001 C 0.15264 0.82487 0.3515 0.0
C2002 C 0.15817 0.82548 0.32544 0.0
C2003 C 0.14919 0.81754 0.30431 0.0
C2004 C 0.17324 0.83441 0.31944 0.0
C2005 C 0.1619 0.8328 0.37511 0.0
C2006 C 0.1797 0.84901 0.32168 0.0
C2007 C 0.19364 0.85747 0.31381 0.0
C2008 C 0.20129 0.85145 0.30339 0.0
C2009 C 0.19488 0.8368 0.30186 0.0
C2010 C 0.18096 0.82836 0.30975 0.0
H2011 H 0.15663 0.82848 0.39477 0.0
H2012 H 0.17185 0.83257 0.37454 0.0
H2013 H 0.16449 0.84388 0.37405 0.0
H2014 H 0.17383 0.85387 0.32869 0.0
H2015 H 0.19827 0.86872 0.31507 0.0
H2016 H 0.59788 0.82953 0.79419 0.0
H2017 H 0.6073 0.81448 0.80689 0.0
H2018 H 0.64706 0.85082 0.82581 0.0
H2019 H 0.63778 0.86601 0.81282 0.0
H2020 H 0.6488 0.83159 0.79076 0.0
H2021 H 0.61671 0.80514 0.88139 0.0
H2022 H 0.60675 0.80449 0.85215 0.0
H2023 H 0.61827 0.82104 0.86788 0.0
C2024 C 0.60857 0.83433 0.80146 0.0
C2025 C 0.6171 0.84896 0.8025 0.0
C2026 C 0.6139 0.8257 0.80881 0.0
C2027 C 0.62782 0.83155 0.81751 0.0
C2028 C 0.63627 0.84613 0.81922 0.0
H2029 H 0.68203 0.79933 0.86093 0.0
H2030 H 0.67211 0.81379 0.84724 0.0
C2031 C 0.63094 0.85478 0.81188 0.0
C2032 C 0.63381 0.82245 0.82308 0.0
H2033 H 0.63046 0.79596 0.86348 0.0
C2034 C 0.64485 0.82384 0.80674 0.0
C2035 C 0.62853 0.8123 0.84379 0.0
C2036 C 0.61699 0.81069 0.86249 0.0
C2037 C 0.65068 0.81522 0.81038 0.0
C2038 C 0.64546 0.80511 0.83118 0.0
C2039 C 0.63437 0.80368 0.84744 0.0
C2040 C 0.65172 0.79631 0.83724 0.0
C2041 C 0.66223 0.81684 0.79168 0.0
C2042 C 0.64351 0.78167 0.83624 0.0
C2043 C 0.64914 0.77335 0.84417 0.0
C2044 C 0.66303 0.77956 0.85345 0.0
C2045 C 0.67131 0.79423 0.85376 0.0
C2046 C 0.66568 0.80252 0.84583 0.0
H2047 H 0.66227 0.82209 0.77251 0.0
H2048 H 0.67249 0.82337 0.80174 0.0
H2049 H 0.66118 0.80654 0.78678 0.0
H2050 H 0.63268 0.77671 0.82977 0.0
H2051 H 0.64249 0.76209 0.84381 0.0
H2052 H 0.09091 0.76124 0.81082 0.0
H2053 H 0.10579 0.78577 0.82396 0.0
H2054 H 0.14264 0.78278 0.80755 0.0
H2055 H 0.1279 0.75827 0.79464 0.0
H2056 H 0.14386 0.79722 0.85619 0.0
H2057 H 0.12784 0.8168 0.76752 0.0
H2058 H 0.11371 0.80421 0.78807 0.0
H2059 H 0.12448 0.79906 0.7697 0.0
C2060 C 0.10218 0.76576 0.81032 0.0
C2061 C 0.10824 0.75786 0.80152 0.0
C2062 C 0.11065 0.77979 0.81763 0.0
C2063 C 0.12529 0.78611 0.81619 0.0
C2064 C 0.13136 0.77809 0.80859 0.0
H2065 H 0.1954 0.86979 0.84674 0.0
H2066 H 0.1808 0.84525 0.83335 0.0
C2067 C 0.12291 0.76409 0.80124 0.0
C2068 C 0.13432 0.80118 0.82197 0.0
H2069 H 0.14268 0.83365 0.79955 0.0
C2070 C 0.14365 0.80521 0.84381 0.0
C2071 C 0.13402 0.81152 0.80564 0.0
C2072 C 0.12457 0.80774 0.78126 0.0
C2073 C 0.15253 0.81937 0.85014 0.0
C2074 C 0.15222 0.82971 0.83381 0.0
C2075 C 0.14291 0.82567 0.81193 0.0
C2076 C 0.16115 0.84479 0.83972 0.0
C2077 C 0.16189 0.82312 0.87464 0.0
C2078 C 0.15492 0.85278 0.84653 0.0
C2079 C 0.1632 0.86679 0.85392 0.0
C2080 C 0.17788 0.87308 0.85455 0.0
C2081 C 0.18412 0.86522 0.84655 0.0
C2082 C 0.17581 0.85119 0.83912 0.0
H2083 H 0.1585 0.81408 0.88846 0.0
H2084 H 0.17275 0.82653 0.86798 0.0
H2085 H 0.16204 0.83186 0.88607 0.0
H2086 H 0.14362 0.84804 0.84691 0.0
H2087 H 0.15807 0.87256 0.8599 0.0
H2088 H 0.08512 0.27272 0.86287 0.0
H2089 H 0.10982 0.28226 0.85137 0.0
H2090 H 0.11354 0.32226 0.8344 0.0
H2091 H 0.08884 0.31286 0.84607 0.0
H2092 H 0.12475 0.29543 0.80294 0.0
H2093 H 0.14407 0.33083 0.89212 0.0
H2094 H 0.12627 0.31654 0.88945 0.0
H2095 H 0.13162 0.33253 0.87142 0.0
C2096 C 0.09115 0.28352 0.85647 0.0
C2097 C 0.08506 0.29208 0.85554 0.0
C2098 C 0.10525 0.28894 0.84995 0.0
C2099 C 0.11351 0.30301 0.84255 0.0
C2100 C 0.10736 0.31144 0.84058 0.0
H2101 H 0.19923 0.35762 0.79836 0.0
H2102 H 0.17477 0.34686 0.81227 0.0
C2103 C 0.09324 0.30603 0.84705 0.0
C2104 C 0.12862 0.30889 0.83727 0.0
H2105 H 0.16105 0.33323 0.85986 0.0
C2106 C 0.13271 0.30364 0.81543 0.0
C2107 C 0.13891 0.31954 0.85375 0.0
C2108 C 0.13505 0.32514 0.87816 0.0
C2109 C 0.14691 0.30907 0.80908 0.0
C2110 C 0.15722 0.31983 0.82541 0.0
C2111 C 0.1531 0.32496 0.84746 0.0
C2112 C 0.17231 0.3264 0.81908 0.0
C2113 C 0.15073 0.30358 0.78446 0.0
C2114 C 0.17913 0.31855 0.81914 0.0
C2115 C 0.19314 0.32467 0.81115 0.0
C2116 C 0.20053 0.33875 0.80313 0.0
C2117 C 0.19382 0.34673 0.80432 0.0
C2118 C 0.17984 0.34061 0.81226 0.0
H2119 H 0.14162 0.29766 0.77082 0.0
H2120 H 0.15926 0.31226 0.77287 0.0
H2121 H 0.1545 0.29642 0.79099 0.0
H2122 H 0.17355 0.30763 0.8249 0.0
H2123 H 0.19805 0.31827 0.81055 0.0
H2124 H 0.86064 0.64707 0.67788 0.0
H2125 H 0.84577 0.65678 0.665 0.0
H2126 H 0.80892 0.61664 0.67827 0.0
H2127 H 0.82363 0.60687 0.69138 0.0
H2128 H 0.82446 0.64843 0.62452 0.0
H2129 H 0.80349 0.64349 0.72866 0.0
H2130 H 0.81883 0.64216 0.72127 0.0
H2131 H 0.80166 0.62764 0.71458 0.0
C2132 C 0.84937 0.64027 0.67773 0.0
C2133 C 0.8433 0.62624 0.68587 0.0
C2134 C 0.84091 0.64584 0.67043 0.0
C2135 C 0.82627 0.63748 0.67127 0.0
C2136 C 0.8202 0.62331 0.67808 0.0
H2137 H 0.75754 0.65306 0.64284 0.0
H2138 H 0.77209 0.64283 0.6547 0.0
C2139 C 0.82863 0.61774 0.68538 0.0
C2140 C 0.81733 0.64365 0.66569 0.0
H2141 H 0.79338 0.6507 0.69464 0.0
C2142 C 0.81769 0.64898 0.63983 0.0
C2143 C 0.80852 0.64431 0.68578 0.0
C2144 C 0.80814 0.63921 0.71421 0.0
C2145 C 0.80929 0.65479 0.63336 0.0
C2146 C 0.80052 0.6555 0.65348 0.0
C2147 C 0.80012 0.65013 0.67931 0.0
C2148 C 0.79177 0.6619 0.64807 0.0
C2149 C 0.80967 0.65989 0.60493 0.0
C2150 C 0.79805 0.67609 0.64136 0.0
C2151 C 0.7898 0.68196 0.63464 0.0
C2152 C 0.77511 0.67373 0.63467 0.0
C2153 C 0.76883 0.65965 0.6426 0.0
C2154 C 0.77711 0.65379 0.64931 0.0
H2155 H 0.81413 0.65545 0.59043 0.0
H2156 H 0.79901 0.65713 0.598 0.0
H2157 H 0.81634 0.67145 0.60448 0.0
H2158 H 0.80935 0.68259 0.64089 0.0
H2159 H 0.79496 0.69286 0.62879 0.0
H2160 H 0.3101 0.20468 0.67822 0.0
H2161 H 0.30039 0.18023 0.66434 0.0
H2162 H 0.34012 0.18296 0.68047 0.0
H2163 H 0.34996 0.20737 0.69401 0.0
H2164 H 0.32751 0.1692 0.63177 0.0
H2165 H 0.2906 0.14839 0.71858 0.0
H2166 H 0.28924 0.1611 0.69819 0.0
H2167 H 0.3049 0.1662 0.71736 0.0
C2168 C 0.3168 0.2001 0.67855 0.0
C2169 C 0.33077 0.20791 0.68737 0.0
C2170 C 0.31121 0.18612 0.67081 0.0
C2171 C 0.31948 0.17975 0.6719 0.0
C2172 C 0.33355 0.18768 0.67968 0.0
H2173 H 0.30908 0.0976 0.64403 0.0
H2174 H 0.31769 0.12209 0.65608 0.0
C2175 C 0.33915 0.20163 0.6874 0.0
C2176 C 0.31349 0.16476 0.66539 0.0
H2177 H 0.28946 0.13194 0.68651 0.0
C2178 C 0.31919 0.16104 0.6437 0.0
C2179 C 0.30266 0.15418 0.68108 0.0
C2180 C 0.29654 0.1576 0.70526 0.0
C2181 C 0.31426 0.14697 0.63713 0.0
C2182 C 0.30352 0.1364 0.65298 0.0
C2183 C 0.29772 0.14011 0.67449 0.0
C2184 C 0.29812 0.12141 0.64739 0.0
C2185 C 0.32042 0.14355 0.61304 0.0
C2186 C 0.28413 0.11283 0.63957 0.0
C2187 C 0.27916 0.09884 0.63285 0.0
C2188 C 0.28809 0.09318 0.63399 0.0
C2189 C 0.30196 0.10167 0.64285 0.0
C2190 C 0.30692 0.11567 0.64955 0.0
H2191 H 0.32601 0.15265 0.59931 0.0
H2192 H 0.32806 0.1405 0.62018 0.0
H2193 H 0.31215 0.13465 0.60135 0.0
H2194 H 0.27716 0.11706 0.63799 0.0
H2195 H 0.26841 0.09255 0.62616 0.0
H2196 H 0.86526 0.16517 0.63418 0.0
H2197 H 0.84106 0.15145 0.64964 0.0
H2198 H 0.83998 0.18939 0.66477 0.0
H2199 H 0.8642 0.20326 0.64887 0.0
H2200 H 0.828 0.15123 0.69841 0.0
H2201 H 0.80734 0.16764 0.61195 0.0
H2202 H 0.82501 0.17065 0.61275 0.0
H2203 H 0.82048 0.18165 0.63198 0.0
C2204 C 0.85994 0.17063 0.64104 0.0
C2205 C 0.86659 0.1853 0.64007 0.0
C2206 C 0.84611 0.16276 0.64986 0.0
C2207 C 0.83868 0.16941 0.65782 0.0
C2208 C 0.84548 0.18407 0.65815 0.0
H2209 H 0.75148 0.13476 0.70439 0.0
H2210 H 0.77614 0.15033 0.69319 0.0
C2211 C 0.85933 0.19197 0.64927 0.0
C2212 C 0.82368 0.16089 0.66487 0.0
H2213 H 0.79091 0.15274 0.64426 0.0
C2214 C 0.81988 0.15157 0.68664 0.0
C2215 C 0.81315 0.16136 0.64936 0.0
C2216 C 0.81663 0.17077 0.62506 0.0
C2217 C 0.80577 0.14271 0.6934 0.0
C2218 C 0.79525 0.14305 0.67768 0.0
C2219 C 0.79904 0.15251 0.65617 0.0
C2220 C 0.78021 0.13361 0.6832 0.0
C2221 C 0.80225 0.13314 0.71745 0.0
C2222 C 0.77429 0.11909 0.68053 0.0
C2223 C 0.76021 0.11016 0.68682 0.0
C2224 C 0.75182 0.11563 0.69582 0.0
C2225 C 0.75768 0.13022 0.69758 0.0
C2226 C 0.77176 0.13913 0.69123 0.0
H2227 H 0.81139 0.13653 0.7311 0.0
H2228 H 0.79346 0.13272 0.72922 0.0
H2229 H 0.79897 0.12241 0.71025 0.0
H2230 H 0.78062 0.11466 0.67384 0.0
H2231 H 0.75598 0.09897 0.68519 0.0
H2232 H 0.01809 0.46706 0.53035 0.0
H2233 H 0.00822 0.48163 0.51688 0.0
H2234 H 0.96926 0.44468 0.49628 0.0
H2235 H -0.02102 0.42998 0.51009 0.0
H2236 H -0.00324 0.48361 0.4676 0.0
H2237 H 0.9575 0.46519 0.55056 0.0
H2238 H 0.97201 0.46194 0.5502 0.0
H2239 H 0.95687 0.4516 0.52952 0.0
C2240 C 0.00744 0.46202 0.52278 0.0
C2241 C -0.00074 0.44736 0.52147 0.0
C2242 C 0.00183 0.47036 0.51511 0.0
C2243 C -0.01205 0.46421 0.50609 0.0
C2244 C -0.02009 0.4496 0.50374 0.0
H2245 H 0.93589 0.49839 0.45637 0.0
H2246 H 0.94531 0.48325 0.46859 0.0
C2247 C -0.01449 0.44123 0.51145 0.0
C2248 C -0.01813 0.47313 0.49954 0.0
H2249 H 0.9565 0.48055 0.51854 0.0
C2250 C -0.01203 0.48298 0.47873 0.0
C2251 C 0.97044 0.47226 0.51421 0.0
C2252 C 0.96387 0.46227 0.53754 0.0
C2253 C -0.01719 0.49188 0.47192 0.0
C2254 C 0.97141 0.49104 0.48665 0.0
C2255 C 0.96526 0.48116 0.50737 0.0
C2256 C 0.9656 0.50024 0.48059 0.0
C2257 C -0.01057 0.50195 0.44873 0.0
C2258 C 0.9738 0.51477 0.48401 0.0
C2259 C 0.96845 0.52346 0.47709 0.0
C2260 C 0.9548 0.51773 0.46674 0.0
C2261 C 0.94646 0.50313 0.46422 0.0
C2262 C 0.95182 0.49446 0.47117 0.0
H2263 H -0.00423 0.49904 0.43563 0.0
H2264 H -0.01868 0.50237 0.43613 0.0
H2265 H -0.00355 0.51259 0.45689 0.0
H2266 H -0.01562 0.51939 0.49175 0.0
H2267 H 0.97511 0.53466 0.47935 0.0
H2268 H 0.52885 0.53701 0.51272 0.0
H2269 H 0.51398 0.5125 0.49929 0.0
H2270 H 0.47716 0.51605 0.51188 0.0
H2271 H 0.49186 0.54049 0.52499 0.0
H2272 H 0.49345 0.49156 0.5327 0.0
H2273 H 0.47019 0.49726 0.43749 0.0
H2274 H 0.48571 0.51153 0.45247 0.0
H2275 H 0.46869 0.50674 0.46564 0.0
C2276 C 0.5176 0.53263 0.51215 0.0
C2277 C 0.51152 0.54068 0.51987 0.0
C2278 C 0.50913 0.51863 0.50458 0.0
C2279 C 0.4945 0.51253 0.50437 0.0
C2280 C 0.48844 0.52064 0.51144 0.0
H2281 H 0.42409 0.42937 0.47626 0.0
H2282 H 0.43921 0.45381 0.48976 0.0
C2283 C 0.49687 0.53459 0.51904 0.0
C2284 C 0.48548 0.49746 0.4985 0.0
H2285 H 0.45976 0.47444 0.45633 0.0
C2286 C 0.48615 0.48779 0.51589 0.0
C2287 C 0.47592 0.49263 0.47669 0.0
C2288 C 0.47513 0.50257 0.45684 0.0
C2289 C 0.47729 0.47336 0.51232 0.0
C2290 C 0.4677 0.46852 0.49055 0.0
C2291 C 0.46707 0.4782 0.47312 0.0
C2292 C 0.45854 0.45346 0.48484 0.0
C2293 C 0.47807 0.46342 0.53219 0.0
C2294 C 0.46442 0.44518 0.47789 0.0
C2295 C 0.45584 0.43125 0.47026 0.0
C2296 C 0.44122 0.42537 0.46927 0.0
C2297 C 0.43532 0.43358 0.47694 0.0
C2298 C 0.44393 0.44754 0.48455 0.0
H2299 H 0.48307 0.46874 0.55149 0.0
H2300 H 0.46748 0.45449 0.53665 0.0
H2301 H 0.48445 0.45919 0.52335 0.0
H2302 H 0.47569 0.44962 0.47751 0.0
H2303 H 0.46072 0.42522 0.46436 0.0
H2304 H 0.53283 0.9826 0.47715 0.0
H2305 H 0.50803 0.97117 0.49006 0.0
H2306 H 0.50824 0.00994 0.47818 0.0
H2307 H 0.53289 0.02143 0.46533 0.0
H2308 H 0.49396 0.97954 0.53206 0.0
H2309 H 0.47702 0.98033 0.42664 0.0
H2310 H 0.49388 0.98227 0.43468 0.0
H2311 H 0.49094 -0.00325 0.43904 0.0
C2312 C 0.52763 -0.01128 0.47763 0.0
C2313 C 0.53478 0.00288 0.47003 0.0
C2314 C 0.51349 0.98218 0.48495 0.0
C2315 C 0.50633 -0.01031 0.48457 0.0
C2316 C 0.51358 0.00395 0.47815 0.0
H2317 H 0.424 0.9772 0.50911 0.0
H2318 H 0.4484 -0.01478 0.49728 0.0
C2319 C 0.52768 0.01049 0.47094 0.0
C2320 C 0.49116 0.98267 0.49015 0.0
H2321 H 0.45989 0.97427 0.46099 0.0
C2322 C 0.48645 0.97822 0.51654 0.0
C2323 C 0.48149 0.98102 0.46975 0.0
C2324 C 0.48602 -0.01477 0.44085 0.0
C2325 C 0.47228 0.97263 0.52336 0.0
C2326 C 0.46262 0.97123 0.50304 0.0
C2327 C 0.46733 0.97539 0.4765 0.0
C2328 C 0.44768 0.96601 0.50911 0.0
C2329 C 0.46787 0.9688 0.55242 0.0
C2330 C 0.43913 0.95243 0.519 0.0
C2331 C 0.4252 0.94783 0.52583 0.0
C2332 C 0.41957 0.95671 0.52266 0.0
C2333 C 0.42803 0.97013 0.51182 0.0
C2334 C 0.44197 0.97473 0.50508 0.0
H2335 H 0.47697 0.9735 0.56641 0.0
H2336 H 0.46039 0.97225 0.55865 0.0
H2337 H 0.46256 0.95726 0.55462 0.0
H2338 H 0.44327 0.94544 0.52167 0.0
H2339 H 0.41891 0.9374 0.53398 0.0
H2340 H 0.46074 0.02613 0.95878 0.0
H2341 H 0.47489 0.01573 0.97177 0.0
H2342 H 0.43736 0.97639 0.98692 0.0
H2343 H 0.42304 -0.01325 0.97414 0.0
H2344 H 0.45892 -0.01531 0.02697 0.0
H2345 H 0.47881 -0.01252 0.92261 0.0
H2346 H 0.48123 0.00376 0.93559 0.0
H2347 H 0.46382 -0.01059 0.92999 0.0
C2348 C 0.45547 0.0153 0.96513 0.0
C2349 C 0.44077 0.00722 0.96525 0.0
C2350 C 0.46358 0.00936 0.97236 0.0
C2351 C 0.45715 -0.00476 0.97971 0.0
C2352 C 0.44249 -0.01271 0.98105 0.0
H2353 H 0.49001 0.94138 0.02753 0.0
H2354 H 0.47477 0.95046 0.0139 0.0
C2355 C 0.43435 -0.00677 0.97381 0.0
C2356 C 0.46576 -0.01126 0.98556 0.0
H2357 H 0.48939 0.98106 0.95725 0.0
C2358 C 0.46551 -0.0162 0.01174 0.0
C2359 C 0.47432 -0.01239 0.96554 0.0
C2360 C 0.47451 -0.00777 0.93678 0.0
C2361 C 0.47394 0.97807 0.01868 0.0
C2362 C 0.4826 0.97706 -0.00129 0.0
C2363 C 0.48274 0.98188 0.97247 0.0
C2364 C 0.49178 0.97123 0.00487 0.0
C2365 C 0.47379 0.97352 0.04748 0.0
C2366 C 0.50637 0.97975 0.00312 0.0
C2367 C 0.51513 0.97457 0.01069 0.0
C2368 C 0.50939 0.96077 0.02003 0.0
C2369 C 0.49475 0.95208 0.02058 0.0
C2370 C 0.48602 0.95727 0.01299 0.0
H2371 H 0.46918 0.978 0.06154 0.0
H2372 H 0.46739 0.96195 0.04863 0.0
H2373 H 0.48455 0.97668 0.05443 0.0
H2374 H 0.51099 -0.00947 -0.00332 0.0
H2375 H 0.52636 0.9815 0.01 0.0
H2376 H 0.01646 0.54475 -0.0013 0.0
H2377 H 0.00649 0.52063 0.98255 0.0
H2378 H 0.96861 0.50907 0.02744 0.0
H2379 H -0.02187 0.53333 0.04164 0.0
H2380 H -0.00017 0.49829 0.00681 0.0
H2381 H 0.95109 0.49036 0.95964 0.0
H2382 H 0.9646 0.50735 0.97075 0.0
H2383 H 0.95166 0.49534 0.99427 0.0
C2384 C 0.00589 0.53706 0.00457 0.0
C2385 C -0.00205 0.54086 0.02101 0.0
C2386 C 0.00022 0.52328 -0.00452 0.0
C2387 C -0.01336 0.51301 0.00327 0.0
C2388 C -0.02116 0.51683 0.02017 0.0
H2389 H 0.96072 0.42414 0.00065 0.0
H2390 H 0.97013 0.44872 0.01332 0.0
C2391 C -0.01567 0.53069 0.02847 0.0
C2392 C -0.01904 0.49819 -0.00502 0.0
H2393 H 0.95166 0.46953 0.97099 0.0
C2394 C -0.01064 0.49206 -0.00141 0.0
C2395 C 0.96738 0.49005 0.98385 0.0
C2396 C 0.95826 0.49619 0.97663 0.0
C2397 C -0.01546 0.47805 0.99169 0.0
C2398 C 0.97061 0.46966 0.98238 0.0
C2399 C 0.96227 0.47584 0.97853 0.0
C2400 C 0.96456 0.45461 0.9755 0.0
C2401 C -0.00535 0.47262 0.99373 0.0
C2402 C 0.9576 0.44951 0.95073 0.0
C2403 C 0.95166 0.43539 0.94412 0.0
C2404 C 0.95288 0.42615 0.96182 0.0
C2405 C 0.9598 0.43115 0.9866 0.0
C2406 C 0.96532 0.44521 0.99366 0.0
H2407 H 0.00568 0.48123 0.99194 0.0
H2408 H -0.0065 0.4677 0.0138 0.0
H2409 H -0.00731 0.46476 0.97777 0.0
H2410 H 0.95684 0.45647 0.93633 0.0
H2411 H 0.94645 0.43177 0.92479 0.0
H2412 H 0.41957 0.42707 0.0144 0.0
H2413 H 0.44405 0.44075 -0.0002 0.0
H2414 H 0.44288 0.47887 0.01166 0.0
H2415 H 0.41846 0.46536 0.02582 0.0
H2416 H 0.45619 0.47839 0.96379 0.0
H2417 H 0.47643 0.46327 0.05282 0.0
H2418 H 0.46339 0.44898 0.03315 0.0
H2419 H 0.45876 0.46023 0.05122 0.0
C2420 C 0.42449 0.43836 0.01361 0.0
C2421 C 0.41712 0.44515 0.02143 0.0
C2422 C 0.43849 0.44615 0.00548 0.0
C2423 C 0.44531 0.46081 0.00519 0.0
C2424 C 0.43781 0.46756 0.01193 0.0
H2425 H 0.52809 0.53081 0.97546 0.0
H2426 H 0.50359 0.51538 0.98813 0.0
C2427 C 0.42385 0.45981 0.02001 0.0
C2428 C 0.46035 0.46926 -0.00159 0.0
H2429 H 0.49304 0.47775 0.0203 0.0
C2430 C 0.46426 0.47825 0.9761 0.0
C2431 C 0.47081 0.46903 0.0146 0.0
C2432 C 0.4672 0.45996 0.03943 0.0
C2433 C 0.47839 0.48702 0.96944 0.0
C2434 C 0.48884 0.48694 0.98583 0.0
C2435 C 0.48495 0.4778 0.0079 0.0
C2436 C 0.50389 0.49625 0.98022 0.0
C2437 C 0.48201 0.49621 0.94478 0.0
C2438 C 0.51226 0.49055 0.97267 0.0
C2439 C 0.52625 0.49931 0.96556 0.0
C2440 C 0.53212 0.51393 0.96605 0.0
C2441 C 0.52386 0.5196 0.97479 0.0
C2442 C 0.50985 0.51081 0.98185 0.0
H2443 H 0.47291 0.49267 0.93096 0.0
H2444 H 0.48536 0.50707 0.95123 0.0
H2445 H 0.49079 0.49638 0.93342 0.0
H2446 H 0.50784 0.47932 0.97151 0.0
H2447 H 0.53236 0.49462 0.959 0.0
H2448 H 0.42495 0.0506 0.00538 0.0
H2449 H 0.42099 0.06093 0.04587 0.0
H2450 H 0.411 0.08671 -0.00395 0.0
H2451 H 0.41499 0.07648 0.95529 0.0
H2452 H 0.43233 0.09138 0.06322 0.0
H2453 H 0.37496 0.06041 0.04356 0.0
H2454 H 0.38715 0.05594 0.02853 0.0
H2455 H 0.38606 0.07061 0.01609 0.0
C2456 C 0.42217 0.05866 0.00296 0.0
C2457 C 0.4202 0.06263 0.97701 0.0
C2458 C 0.41993 0.06457 0.02616 0.0
C2459 C 0.41556 0.07447 0.02396 0.0
C2460 C 0.41429 0.07901 -0.00183 0.0
H2461 H 0.37564 0.10045 0.14496 0.0
H2462 H 0.38629 0.09814 0.10336 0.0
C2463 C 0.41664 0.07319 0.97489 0.0
C2464 C 0.41122 0.0791 0.04854 0.0
H2465 H 0.38221 0.07454 0.08235 0.0
C2466 C 0.42139 0.08779 0.0674 0.0
C2467 C 0.39695 0.07438 0.05392 0.0
C2468 C 0.38558 0.06475 0.03463 0.0
C2469 C 0.41766 0.09197 0.09147 0.0
C2470 C 0.40332 0.08699 0.09717 0.0
C2471 C 0.3932 0.07841 0.07806 0.0
C2472 C 0.3984 0.09015 0.12299 0.0
C2473 C 0.42913 0.10184 0.1103 0.0
C2474 C 0.40183 0.08671 0.14811 0.0
C2475 C 0.39587 0.08821 0.17206 0.0
C2476 C 0.38615 0.09294 0.17135 0.0
C2477 C 0.38307 0.09677 0.14628 0.0
C2478 C 0.38914 0.09542 0.12242 0.0
H2479 H 0.43917 0.10817 0.09931 0.0
H2480 H 0.42631 0.10905 0.12058 0.0
H2481 H 0.43088 0.09569 0.12593 0.0
H2482 H 0.40864 0.08228 0.14915 0.0
H2483 H 0.39836 0.08501 0.19095 0.0
H2484 H 0.87867 0.27437 0.14996 0.0
H2485 H 0.88173 0.28885 0.11081 0.0
H2486 H 0.856 0.30346 0.14828 0.0
H2487 H 0.85348 0.28939 0.18852 0.0
H2488 H 0.86526 0.2895 0.0748 0.0
H2489 H 0.8891 0.34009 0.13003 0.0
H2490 H 0.8857 0.32406 0.14606 0.0
H2491 H 0.87169 0.32772 0.14086 0.0
C2492 C 0.87359 0.28062 0.14997 0.0
C2493 C 0.86589 0.28076 0.17255 0.0
C2494 C 0.87536 0.28892 0.12744 0.0
C2495 C 0.86933 0.29752 0.12658 0.0
C2496 C 0.86113 0.29728 0.14865 0.0
H2497 H 0.87888 0.3377 0.96656 0.0
H2498 H 0.86749 0.32358 0.0068 0.0
C2499 C 0.85957 0.28912 0.17157 0.0
C2500 C 0.87199 0.30673 0.10257 0.0
H2501 H 0.88633 0.34087 0.08309 0.0
C2502 C 0.8698 0.30073 0.07664 0.0
C2503 C 0.878 0.32143 0.10484 0.0
C2504 C 0.88139 0.32875 0.1319 0.0
C2505 C 0.87402 0.30898 0.05312 0.0
C2506 C 0.88006 0.32368 0.05537 0.0
C2507 C 0.88166 0.32962 0.08125 0.0
C2508 C 0.8862 0.33322 0.03162 0.0
C2509 C 0.87273 0.30184 0.02631 0.0
C2510 C 0.90025 0.34397 0.03251 0.0
C2511 C 0.90663 0.35231 0.00987 0.0
C2512 C 0.89919 0.35002 0.98552 0.0
C2513 C 0.88495 0.33965 0.98489 0.0
C2514 C 0.87847 0.33146 0.00784 0.0
H2515 H 0.87132 0.29122 0.02893 0.0
H2516 H 0.86344 0.3007 0.01535 0.0
H2517 H 0.88214 0.30805 0.01357 0.0
H2518 H 0.90649 0.34564 0.05051 0.0
H2519 H 0.91762 0.36017 0.01118 0.0
H2520 H 0.59197 0.53385 0.00806 0.0
H2521 H 0.6062 0.53798 0.04861 0.0
H2522 H 0.64205 0.54759 -0.00103 0.0
H2523 H 0.62787 0.54347 0.95814 0.0
H2524 H 0.62421 0.52652 0.0671 0.0
H2525 H 0.65309 0.58363 0.0456 0.0
H2526 H 0.63655 0.57181 0.02977 0.0
H2527 H 0.65227 0.57222 0.01874 0.0
C2528 C 0.60282 0.53662 0.00569 0.0
C2529 C 0.60879 0.53842 0.97976 0.0
C2530 C 0.61094 0.53896 0.02894 0.0
C2531 C 0.62522 0.54327 0.02683 0.0
C2532 C 0.63107 0.54441 0.00105 0.0
H2533 H 0.69073 0.58181 0.14911 0.0
H2534 H 0.67794 0.57102 0.10743 0.0
C2535 C 0.62292 0.54196 0.97773 0.0
C2536 C 0.63412 0.54749 0.05153 0.0
H2537 H 0.65941 0.57618 0.08477 0.0
C2538 C 0.63198 0.53736 0.07095 0.0
C2539 C 0.64423 0.56164 0.05652 0.0
C2540 C 0.64668 0.57302 0.03672 0.0
C2541 C 0.63974 0.54099 0.09518 0.0
C2542 C 0.64966 0.55521 0.10047 0.0
C2543 C 0.65188 0.56529 0.0808 0.0
C2544 C 0.65755 0.56007 0.12648 0.0
C2545 C 0.63737 0.52952 0.11464 0.0
C2546 C 0.65046 0.5573 0.15134 0.0
C2547 C 0.6578 0.56333 0.17535 0.0
C2548 C 0.67238 0.57247 0.17497 0.0
C2549 C 0.67951 0.57482 0.1502 0.0
C2550 C 0.67219 0.56869 0.12629 0.0
H2551 H 0.63326 0.51931 0.10409 0.0
H2552 H 0.64717 0.53192 0.12534 0.0
H2553 H 0.62948 0.52838 0.1299 0.0
H2554 H 0.63915 0.551 0.15208 0.0
H2555 H 0.65193 0.56141 0.19396 0.0
H2556 H 0.09891 0.41402 0.30048 0.0
H2557 H 0.09672 0.42544 0.34144 0.0
H2558 H 0.07459 0.38535 0.38095 0.0
H2559 H 0.07731 0.3741 0.34106 0.0
H2560 H 0.07511 0.42355 0.36533 0.0
H2561 H 0.10029 0.40663 0.44028 0.0
H2562 H 0.10168 0.40441 0.40449 0.0
H2563 H 0.08685 0.39149 0.42346 0.0
C2564 C 0.09383 0.40771 0.31813 0.0
C2565 C 0.08843 0.39316 0.31751 0.0
C2566 C 0.09255 0.41424 0.34153 0.0
C2567 C 0.08577 0.40634 0.36471 0.0
C2568 C 0.08035 0.39182 0.36392 0.0
H2569 H 0.03516 0.41785 0.47937 0.0
H2570 H 0.04683 0.41545 0.43978 0.0
C2571 C 0.08181 0.38536 0.34084 0.0
C2572 C 0.08332 0.41292 0.38903 0.0
H2573 H 0.08268 0.41172 0.45809 0.0
C2574 C 0.07703 0.42117 0.38559 0.0
C2575 C 0.08615 0.41026 0.41566 0.0
C2576 C 0.09427 0.40285 0.42113 0.0
C2577 C 0.07265 0.42599 0.40786 0.0
C2578 C 0.07407 0.42199 0.43438 0.0
C2579 C 0.08124 0.41457 0.43787 0.0
C2580 C 0.06731 0.42443 0.45842 0.0
C2581 C 0.06652 0.43529 0.40255 0.0
C2582 C 0.07472 0.42988 0.48274 0.0
C2583 C 0.06791 0.43094 0.50591 0.0
C2584 C 0.05356 0.42666 0.50516 0.0
C2585 C 0.04627 0.42146 0.48067 0.0
C2586 C 0.05299 0.42019 0.45778 0.0
H2587 H 0.07128 0.4418 0.38427 0.0
H2588 H 0.05512 0.4287 0.3987 0.0
H2589 H 0.06813 0.44233 0.41993 0.0
H2590 H 0.08575 0.43312 0.48394 0.0
H2591 H 0.07383 0.43492 0.52445 0.0
H2592 H 0.52981 0.5998 0.47734 0.0
H2593 H 0.5343 0.61416 0.43696 0.0
H2594 H 0.54033 0.64885 0.48668 0.0
H2595 H 0.5358 0.63453 0.52734 0.0
H2596 H 0.52189 0.63121 0.41656 0.0
H2597 H 0.57828 0.66196 0.44454 0.0
H2598 H 0.56658 0.64506 0.45904 0.0
H2599 H 0.56581 0.66016 0.46998 0.0
C2600 C 0.53184 0.61041 0.47974 0.0
C2601 C 0.53254 0.61603 0.50567 0.0
C2602 C 0.5344 0.6186 0.45658 0.0
C2603 C 0.53782 0.63262 0.45882 0.0
C2604 C 0.53782 0.63808 0.48452 0.0
H2605 H 0.57669 0.70023 0.34175 0.0
H2606 H 0.56566 0.68623 0.38199 0.0
C2607 C 0.53515 0.62985 0.50774 0.0
C2608 C 0.54241 0.64173 0.43448 0.0
H2609 H 0.57147 0.66818 0.40442 0.0
C2610 C 0.5327 0.63936 0.4139 0.0
C2611 C 0.55653 0.65232 0.43104 0.0
C2612 C 0.56748 0.65504 0.45216 0.0
C2613 C 0.53672 0.6474 0.39006 0.0
C2614 C 0.55093 0.65784 0.38638 0.0
C2615 C 0.56058 0.66024 0.40715 0.0
C2616 C 0.5562 0.66632 0.36113 0.0
C2617 C 0.52564 0.64478 0.36932 0.0
C2618 C 0.55442 0.65987 0.33573 0.0
C2619 C 0.5606 0.66791 0.31251 0.0
C2620 C 0.5689 0.68256 0.31427 0.0
C2621 C 0.57039 0.68899 0.33961 0.0
C2622 C 0.5641 0.68097 0.3627 0.0
H2623 H 0.51507 0.63995 0.37863 0.0
H2624 H 0.52782 0.65461 0.35913 0.0
H2625 H 0.52545 0.63742 0.35378 0.0
H2626 H 0.54871 0.64859 0.33396 0.0
H2627 H 0.55936 0.6626 0.2934 0.0
H2628 H 0.32333 0.89196 0.52748 0.0
H2629 H 0.30938 0.88135 0.48669 0.0
H2630 H 0.34589 0.90551 0.43726 0.0
H2631 H 0.35991 0.9162 0.47782 0.0
H2632 H 0.30715 0.89903 0.44609 0.0
H2633 H 0.32681 0.8656 0.40274 0.0
H2634 H 0.3289 0.87057 0.43802 0.0
H2635 H 0.34 0.88288 0.41298 0.0
C2636 C 0.3285 0.89474 0.50799 0.0
C2637 C 0.34275 0.90498 0.50596 0.0
C2638 C 0.32048 0.88869 0.48468 0.0
C2639 C 0.32661 0.89257 0.45893 0.0
C2640 C 0.34098 0.9022 0.45691 0.0
H2641 H 0.29795 0.88379 0.29313 0.0
H2642 H 0.3113 0.8868 0.33465 0.0
C2643 C 0.34897 0.90835 0.48016 0.0
C2644 C 0.31772 0.88792 0.43426 0.0
H2645 H 0.31208 0.87017 0.3746 0.0
C2646 C 0.3081 0.89258 0.43059 0.0
C2647 C 0.31915 0.87971 0.41389 0.0
C2648 C 0.32919 0.87428 0.41706 0.0
C2649 C 0.30011 0.88955 0.40685 0.0
C2650 C 0.30141 0.88121 0.38647 0.0
C2651 C 0.31099 0.87647 0.39023 0.0
C2652 C 0.29317 0.8777 0.3609 0.0
C2653 C 0.29078 0.89584 0.40345 0.0
C2654 C 0.27848 0.87101 0.3616 0.0
C2655 C 0.27085 0.86944 0.33799 0.0
C2656 C 0.27772 0.87424 0.31302 0.0
C2657 C 0.29233 0.87997 0.31201 0.0
C2658 C 0.29999 0.88172 0.33576 0.0
H2659 H 0.29399 0.90501 0.41695 0.0
H2660 H 0.29092 0.8992 0.38226 0.0
H2661 H 0.27986 0.8879 0.40873 0.0
H2662 H 0.27292 0.86742 0.38059 0.0
H2663 H 0.25959 0.86483 0.33944 0.0
H2664 H 0.55374 0.88264 0.79682 0.0
H2665 H 0.54456 0.88686 0.83876 0.0
H2666 H 0.56509 0.86912 0.88474 0.0
H2667 H 0.57467 0.86532 0.84307 0.0
H2668 H 0.52835 0.87141 0.88089 0.0
H2669 H 0.58221 0.90758 0.91743 0.0
H2670 H 0.57866 0.90081 0.8834 0.0
H2671 H 0.57914 0.89031 0.91069 0.0
C2672 C 0.55613 0.87944 0.81583 0.0
C2673 C 0.5651 0.87381 0.8166 0.0
C2674 C 0.5509 0.88189 0.83982 0.0
C2675 C 0.55446 0.87869 0.86503 0.0
C2676 C 0.56255 0.87211 0.86565 0.0
H2677 H 0.54124 0.89614 0.03159 0.0
H2678 H 0.54455 0.88528 0.99107 0.0
C2679 C 0.56794 0.86983 0.84175 0.0
C2680 C 0.55033 0.88287 0.89061 0.0
H2681 H 0.56378 0.90232 0.94815 0.0
C2682 C 0.5361 0.87817 0.89558 0.0
C2683 C 0.56045 0.8918 0.90978 0.0
C2684 C 0.57597 0.89804 0.90499 0.0
C2685 C 0.53173 0.88202 0.91926 0.0
C2686 C 0.54184 0.89082 0.93842 0.0
C2687 C 0.55603 0.89544 0.93357 0.0
C2688 C 0.5381 0.896 0.96306 0.0
C2689 C 0.51633 0.8766 0.92375 0.0
C2690 C 0.53322 0.90551 0.96079 0.0
C2691 C 0.53142 0.91181 0.98388 0.0
C2692 C 0.53442 0.9087 0.00977 0.0
C2693 C 0.53875 0.89872 0.01203 0.0
C2694 C 0.54068 0.89252 0.98888 0.0
H2695 H 0.50972 0.86762 0.91027 0.0
H2696 H 0.51343 0.87331 0.94509 0.0
H2697 H 0.51398 0.88508 0.91952 0.0
H2698 H 0.53136 0.9085 0.94107 0.0
H2699 H 0.5281 0.91946 0.98134 0.0
H2700 H 0.06552 0.63683 0.02474 0.0
H2701 H 0.07502 0.64988 0.9827 0.0
H2702 H 0.05272 0.6116 0.93698 0.0
H2703 H 0.04278 0.59859 0.97879 0.0
H2704 H 0.0907 0.64978 0.94099 0.0
H2705 H 0.0375 0.63423 0.90342 0.0
H2706 H 0.04064 0.63075 0.9375 0.0
H2707 H 0.03975 0.61953 0.91016 0.0
C2708 C 0.06278 0.63116 0.00577 0.0
C2709 C 0.05324 0.61668 0.00514 0.0
C2710 C 0.06821 0.63864 0.98169 0.0
C2711 C 0.06428 0.63181 0.95652 0.0
C2712 C 0.05555 0.61721 0.95602 0.0
H2713 H 0.08007 0.66248 0.78987 0.0
H2714 H 0.07622 0.64821 0.83035 0.0
C2715 C 0.04996 0.60975 0.98 0.0
C2716 C 0.06879 0.64 0.93086 0.0
H2717 H 0.05624 0.64665 0.87289 0.0
C2718 C 0.08315 0.64908 0.92612 0.0
C2719 C 0.05897 0.63923 0.91144 0.0
C2720 C 0.04336 0.63053 0.91595 0.0
C2721 C 0.08791 0.65724 0.90249 0.0
C2722 C 0.07808 0.65632 0.88308 0.0
C2723 C 0.06377 0.6472 0.88767 0.0
C2724 C 0.08226 0.66528 0.85855 0.0
C2725 C 0.1034 0.66679 0.89832 0.0
C2726 C 0.08712 0.67965 0.86095 0.0
C2727 C 0.08921 0.6878 0.83791 0.0
C2728 C 0.08655 0.68177 0.81191 0.0
C2729 C 0.08233 0.66749 0.80952 0.0
C2730 C 0.08007 0.6593 0.83264 0.0
H2731 H 0.10973 0.66433 0.91237 0.0
H2732 H 0.10638 0.66601 0.87719 0.0
H2733 H 0.10604 0.67776 0.90191 0.0
H2734 H 0.0887 0.68445 0.88074 0.0
H2735 H 0.09244 0.69875 0.84053 0.0
H2736 H 0.29253 0.41139 0.7956 0.0
H2737 H 0.30686 0.42125 0.83644 0.0
H2738 H 0.27451 0.38845 0.88433 0.0
H2739 H 0.26018 0.37854 0.84393 0.0
H2740 H 0.30073 0.42939 0.89141 0.0
H2741 H 0.31059 0.38469 0.89252 0.0
H2742 H 0.30428 0.38935 0.86289 0.0
H2743 H 0.29252 0.38011 0.89017 0.0
C2744 C 0.28835 0.40642 0.81489 0.0
C2745 C 0.27523 0.39408 0.81636 0.0
C2746 C 0.29656 0.41208 0.83822 0.0
C2747 C 0.29182 0.40547 0.86336 0.0
C2748 C 0.27844 0.39363 0.8651 0.0
H2749 H 0.32543 0.42699 0.02726 0.0
H2750 H 0.31168 0.42331 0.98597 0.0
C2751 C 0.27024 0.38799 0.84191 0.0
C2752 C 0.30117 0.4102 0.88743 0.0
H2753 H 0.31868 0.39995 0.9301 0.0
C2754 C 0.30471 0.423 0.89987 0.0
C2755 C 0.30645 0.40191 0.89828 0.0
C2756 C 0.3034 0.38829 0.88523 0.0
C2757 C 0.3132 0.42759 0.92321 0.0
C2758 C 0.31819 0.41911 0.93441 0.0
C2759 C 0.31481 0.40643 0.92163 0.0
C2760 C 0.32711 0.42313 0.95913 0.0
C2761 C 0.31691 0.44154 0.93548 0.0
C2762 C 0.34041 0.42437 0.95786 0.0
C2763 C 0.34824 0.42642 0.98136 0.0
C2764 C 0.34296 0.42721 0.00684 0.0
C2765 C 0.32987 0.42652 0.008 0.0
C2766 C 0.322 0.42446 0.98437 0.0
H2767 H 0.31511 0.44819 0.92109 0.0
H2768 H 0.31029 0.43982 0.95357 0.0
H2769 H 0.32804 0.44725 0.942 0.0
H2770 H 0.34458 0.42336 0.93866 0.0
H2771 H 0.35828 0.42692 0.97959 0.0
H2772 H 0.87084 0.55861 0.69918 0.0
H2773 H 0.87534 0.54821 0.65921 0.0
H2774 H 0.86633 0.57405 0.60745 0.0
H2775 H 0.86192 0.58458 0.64713 0.0
H2776 H 0.85459 0.54248 0.59221 0.0
H2777 H 0.91196 0.57479 0.61113 0.0
H2778 H 0.90074 0.56534 0.63908 0.0
H2779 H 0.89967 0.57959 0.62439 0.0
C2780 C 0.86954 0.56189 0.6793 0.0
C2781 C 0.86609 0.5725 0.67642 0.0
C2782 C 0.87216 0.55597 0.65648 0.0
C2783 C 0.87125 0.56044 0.63039 0.0
C2784 C 0.86709 0.57046 0.6274 0.0
H2785 H 0.88812 0.54728 0.46472 0.0
H2786 H 0.87779 0.55035 0.50609 0.0
C2787 C 0.86459 0.57647 0.65015 0.0
C2788 C 0.8757 0.55554 0.60631 0.0
H2789 H 0.90487 0.56032 0.57284 0.0
C2790 C 0.86557 0.54628 0.58798 0.0
C2791 C 0.89001 0.56051 0.6009 0.0
C2792 C 0.90131 0.57067 0.61974 0.0
C2793 C 0.86939 0.54182 0.56437 0.0
C2794 C 0.88377 0.54709 0.55856 0.0
C2795 C 0.89385 0.55623 0.57718 0.0
C2796 C 0.88876 0.54366 0.53309 0.0
C2797 C 0.85796 0.53134 0.54619 0.0
C2798 C 0.89845 0.53893 0.53422 0.0
C2799 C 0.90456 0.53739 0.51057 0.0
C2800 C 0.90108 0.54048 0.48514 0.0
C2801 C 0.89092 0.54463 0.4839 0.0
C2802 C 0.88494 0.54634 0.50762 0.0
H2803 H 0.84807 0.52497 0.55755 0.0
H2804 H 0.85582 0.537 0.53008 0.0
H2805 H 0.86105 0.5242 0.5365 0.0
H2806 H 0.90161 0.5368 0.55353 0.0
H2807 H 0.91234 0.53418 0.51232 0.0
H2808 H 0.36687 0.27294 0.64588 0.0
H2809 H 0.37837 0.28711 0.60645 0.0
H2810 H 0.41757 0.30779 0.64977 0.0
H2811 H 0.40584 0.29393 0.69014 0.0
H2812 H 0.41431 0.32638 0.62488 0.0
H2813 H 0.40251 0.28511 0.54985 0.0
H2814 H 0.38647 0.28211 0.56491 0.0
H2815 H 0.3996 0.28137 0.5855 0.0
C2816 C 0.37799 0.28032 0.64703 0.0
C2817 C 0.38543 0.28221 0.67127 0.0
C2818 C 0.38462 0.28838 0.62423 0.0
C2819 C 0.39897 0.29834 0.62467 0.0
C2820 C 0.40652 0.30011 0.64872 0.0
H2821 H 0.43083 0.34099 0.4677 0.0
H2822 H 0.42839 0.32713 0.50825 0.0
C2823 C 0.39981 0.29215 0.6718 0.0
C2824 C 0.40563 0.3076 0.60075 0.0
H2825 H 0.40651 0.3073 0.53165 0.0
C2826 C 0.41282 0.32217 0.60455 0.0
C2827 C 0.40411 0.30227 0.57408 0.0
C2828 C 0.3979 0.28685 0.56842 0.0
C2829 C 0.41767 0.33145 0.58252 0.0
C2830 C 0.4148 0.32606 0.55578 0.0
C2831 C 0.40847 0.31152 0.55202 0.0
C2832 C 0.41732 0.33517 0.53167 0.0
C2833 C 0.42577 0.34694 0.58829 0.0
C2834 C 0.41188 0.34427 0.53108 0.0
C2835 C 0.41347 0.35233 0.50822 0.0
C2836 C 0.42024 0.35128 0.48491 0.0
C2837 C 0.42563 0.34211 0.48533 0.0
C2838 C 0.42421 0.33416 0.5085 0.0
H2839 H 0.43175 0.34913 0.60749 0.0
H2840 H 0.43322 0.35281 0.57176 0.0
H2841 H 0.41834 0.35089 0.59068 0.0
H2842 H 0.40605 0.34491 0.54812 0.0
H2843 H 0.40897 0.35909 0.50859 0.0
H2844 H 0.6004 0.04057 0.51006 0.0
H2845 H 0.61432 0.05164 0.55004 0.0
H2846 H 0.63128 0.09207 0.51229 0.0
H2847 H 0.61767 0.08086 0.47123 0.0
H2848 H 0.65144 0.09033 0.53538 0.0
H2849 H 0.60916 0.072 0.61056 0.0
H2850 H 0.60774 0.05718 0.59287 0.0
H2851 H 0.60562 0.07017 0.57474 0.0
C2852 C 0.60691 0.05185 0.51024 0.0
C2853 C 0.60781 0.05982 0.48737 0.0
C2854 C 0.61482 0.05821 0.53337 0.0
C2855 C 0.62361 0.07277 0.53468 0.0
C2856 C 0.62447 0.08083 0.51197 0.0
H2857 H 0.66363 0.10007 0.69475 0.0
H2858 H 0.65004 0.09858 0.65436 0.0
C2859 C 0.61666 0.07442 0.48851 0.0
C2860 C 0.63259 0.07923 0.55904 0.0
H2861 H 0.63197 0.07731 0.62801 0.0
C2862 C 0.64713 0.08769 0.55564 0.0
C2863 C 0.62707 0.07622 0.58565 0.0
C2864 C 0.61152 0.06854 0.59112 0.0
C2865 C 0.65631 0.09238 0.57791 0.0
C2866 C 0.65087 0.08804 0.60434 0.0
C2867 C 0.63627 0.08042 0.60783 0.0
C2868 C 0.66006 0.09038 0.62829 0.0
C2869 C 0.67173 0.10189 0.57269 0.0
C2870 C 0.67028 0.08634 0.62729 0.0
C2871 C 0.67822 0.08743 0.65014 0.0
C2872 C 0.67591 0.09225 0.67491 0.0
C2873 C 0.66572 0.09637 0.67599 0.0
C2874 C 0.65792 0.09549 0.65289 0.0
H2875 H 0.67343 0.10854 0.55468 0.0
H2876 H 0.67708 0.10878 0.59027 0.0
H2877 H 0.67667 0.09546 0.56842 0.0
H2878 H 0.67185 0.08186 0.60903 0.0
H2879 H 0.68581 0.08397 0.64859 0.0
H2880 H 0.74826 0.74209 0.62941 0.0
H2881 H 0.74387 0.75172 0.67061 0.0
H2882 H 0.75415 0.72577 0.71924 0.0
H2883 H 0.75844 0.71601 0.67828 0.0
H2884 H 0.72266 0.73283 0.71021 0.0
H2885 H 0.77532 0.76564 0.7559 0.0
H2886 H 0.77283 0.76156 0.7202 0.0
H2887 H 0.77124 0.7486 0.74395 0.0
C2888 C 0.74992 0.73867 0.64886 0.0
C2889 C 0.75369 0.72825 0.65049 0.0
C2890 C 0.74736 0.74416 0.67239 0.0
C2891 C 0.74877 0.73953 0.69801 0.0
C2892 C 0.75317 0.72963 0.69973 0.0
H2893 H 0.72811 0.7483 0.86392 0.0
H2894 H 0.73841 0.74498 0.82256 0.0
C2895 C 0.75557 0.72403 0.67624 0.0
C2896 C 0.74422 0.74387 0.72274 0.0
H2897 H 0.75575 0.76122 0.78294 0.0
C2898 C 0.7299 0.73916 0.72601 0.0
C2899 C 0.75365 0.75192 0.7435 0.0
C2900 C 0.76915 0.75734 0.7408 0.0
C2901 C 0.72469 0.742 0.74969 0.0
C2902 C 0.73414 0.75024 0.77043 0.0
C2903 C 0.7485 0.755 0.76707 0.0
C2904 C 0.72919 0.75369 0.79587 0.0
C2905 C 0.70904 0.73563 0.75263 0.0
C2906 C 0.72106 0.76023 0.79492 0.0
C2907 C 0.71502 0.76196 0.81846 0.0
C2908 C 0.71724 0.7575 0.84365 0.0
C2909 C 0.7262 0.75186 0.84487 0.0
C2910 C 0.73207 0.74993 0.8212 0.0
H2911 H 0.70325 0.72643 0.73911 0.0
H2912 H 0.70563 0.73228 0.77376 0.0
H2913 H 0.70604 0.7435 0.74698 0.0
H2914 H 0.71904 0.76366 0.77581 0.0
H2915 H 0.70831 0.7665 0.81681 0.0
H2916 H 0.2557 0.02503 0.67816 0.0
H2917 H 0.24405 0.01063 0.7174 0.0
H2918 H 0.204 -0.00501 0.6782 0.0
H2919 H 0.21577 0.00895 0.63799 0.0
H2920 H 0.22609 0.00939 0.75257 0.0
H2921 H 0.20149 0.95889 0.69696 0.0
H2922 H 0.21404 0.9751 0.68135 0.0
H2923 H 0.1961 0.97085 0.68539 0.0
C2924 C 0.2444 0.01857 0.67782 0.0
C2925 C 0.23669 0.01807 0.65477 0.0
C2926 C 0.23772 0.01033 0.70039 0.0
C2927 C 0.22313 0.00145 0.70074 0.0
C2928 C 0.2153 0.00139 0.67822 0.0
H2929 H 0.18991 0.95976 0.85898 0.0
H2930 H 0.19338 0.97432 0.81907 0.0
C2931 C 0.22203 0.00948 0.65531 0.0
C2932 C 0.21643 -0.00784 0.72458 0.0
H2933 H 0.19709 0.9579 0.7436 0.0
C2934 C 0.21968 -0.00187 0.75059 0.0
C2935 C 0.20811 0.97743 0.72211 0.0
C2936 C 0.20482 0.97015 0.69499 0.0
C2937 C 0.21542 -0.01017 0.77405 0.0
C2938 C 0.20714 0.9751 0.77157 0.0
C2939 C 0.20336 0.96918 0.74558 0.0
C2940 C 0.20365 0.96554 0.79525 0.0
C2941 C 0.22057 -0.00306 0.8011 0.0
C2942 C 0.20753 0.95521 0.7948 0.0
C2943 C 0.20523 0.94667 0.81721 0.0
C2944 C 0.19909 0.94828 0.84092 0.0
C2945 C 0.19477 0.95831 0.84115 0.0
C2946 C 0.19688 0.96675 0.81841 0.0
H2947 H 0.22953 0.00776 0.79894 0.0
H2948 H 0.21198 -0.0024 0.81145 0.0
H2949 H 0.2239 -0.00903 0.81419 0.0
H2950 H 0.21275 0.954 0.77729 0.0
H2951 H 0.20872 0.93909 0.8162 0.0
H2952 H 0.96205 0.21388 0.62457 0.0
H2953 H -0.02398 0.2177 0.66546 0.0
H2954 H 0.93867 0.20184 0.71416 0.0
H2955 H 0.92477 0.19847 0.67352 0.0
H2956 H 0.95812 0.22593 0.73323 0.0
H2957 H -0.01751 0.19324 0.71581 0.0
H2958 H -0.01411 0.20531 0.68877 0.0
H2959 H 0.96821 0.19164 0.69537 0.0
C2960 C 0.95677 0.21091 0.64394 0.0
C2961 C 0.94228 0.20588 0.64574 0.0
C2962 C 0.96478 0.21304 0.66736 0.0
C2963 C 0.95842 0.20992 0.69303 0.0
C2964 C 0.94386 0.20434 0.69468 0.0
H2965 H -0.01032 0.22419 0.85944 0.0
H2966 H 0.9756 0.21399 0.81856 0.0
C2967 C 0.9359 0.20238 0.67137 0.0
C2968 C 0.96699 0.21368 0.71828 0.0
H2969 H -0.00767 0.2102 0.75149 0.0
C2970 C 0.96546 0.22232 0.73729 0.0
C2971 C -0.02334 0.20906 0.72369 0.0
C2972 C -0.02168 0.19919 0.70496 0.0
C2973 C 0.97345 0.22665 0.76114 0.0
C2974 C -0.01676 0.22223 0.7663 0.0
C2975 C -0.0152 0.21357 0.74747 0.0
C2976 C -0.00777 0.22699 0.79083 0.0
C2977 C 0.97161 0.23622 0.78046 0.0
C2978 C 0.00635 0.23737 0.78875 0.0
C2979 C 0.01442 0.24327 0.81204 0.0
C2980 C 0.00853 0.23883 0.83794 0.0
C2981 C -0.00543 0.22785 0.83988 0.0
C2982 C -0.01351 0.22203 0.81654 0.0
H2983 H 0.96501 0.24024 0.77178 0.0
H2984 H 0.96654 0.23042 0.79926 0.0
H2985 H -0.01805 0.24524 0.78606 0.0
H2986 H 0.01098 0.24134 0.76911 0.0
H2987 H 0.02513 0.25167 0.80975 0.0
H2988 H 0.24506 0.20225 0.17788 0.0
H2989 H 0.23493 0.20573 0.219 0.0
H2990 H 0.20455 0.20998 0.17138 0.0
H2991 H 0.21456 0.20635 0.12996 0.0
H2992 H 0.23482 0.23003 0.22967 0.0
H2993 H 0.18058 0.18501 0.23365 0.0
H2994 H 0.19404 0.18503 0.21274 0.0
H2995 H 0.18524 0.19419 0.202 0.0
C2996 C 0.23603 0.20362 0.17608 0.0
C2997 C 0.23067 0.20406 0.1505 0.0
C2998 C 0.23025 0.20563 0.19969 0.0
C2999 C 0.21893 0.20806 0.1984 0.0
C3000 C 0.21312 0.20788 0.173 0.0
H3001 H 0.19954 0.25504 0.31274 0.0
H3002 H 0.20347 0.24448 0.27272 0.0
C3003 C 0.2189 0.20584 0.14928 0.0
C3004 C 0.21428 0.21224 0.2233 0.0
H3005 H 0.18608 0.20387 0.26419 0.0
C3006 C 0.22418 0.22423 0.23726 0.0
C3007 C 0.2004 0.20467 0.23335 0.0
C3008 C 0.18946 0.19143 0.21984 0.0
C3009 C 0.22056 0.229 0.26058 0.0
C3010 C 0.20662 0.22167 0.27021 0.0
C3011 C 0.19674 0.20952 0.25667 0.0
C3012 C 0.20226 0.22685 0.294 0.0
C3013 C 0.23169 0.24189 0.27483 0.0
C3014 C 0.1998 0.22017 0.31919 0.0
C3015 C 0.19755 0.22621 0.34231 0.0
C3016 C 0.19771 0.23902 0.34058 0.0
C3017 C 0.19942 0.24522 0.31496 0.0
C3018 C 0.20168 0.23921 0.29198 0.0
H3019 H 0.2424 0.24476 0.268 0.0
H3020 H 0.23001 0.25081 0.27055 0.0
H3021 H 0.23102 0.24028 0.29705 0.0
H3022 H 0.20021 0.21061 0.32116 0.0
H3023 H 0.19628 0.22115 0.36167 0.0
H3024 H 0.75826 0.03157 0.17965 0.0
H3025 H 0.75573 0.0177 0.21996 0.0
H3026 H 0.74125 0.98081 0.17053 0.0
H3027 H 0.74384 -0.00538 0.12999 0.0
H3028 H 0.72287 0.97968 0.21511 0.0
H3029 H 0.77744 -0.00213 0.24862 0.0
H3030 H 0.77337 0.0112 0.23938 0.0
H3031 H 0.77311 -0.00059 0.21403 0.0
C3032 C 0.75481 0.02057 0.17723 0.0
C3033 C 0.75123 0.01422 0.15152 0.0
C3034 C 0.75343 0.01266 0.20032 0.0
C3035 C 0.74839 -0.00176 0.19824 0.0
C3036 C 0.74525 -0.00805 0.17256 0.0
H3037 H 0.71216 0.93185 0.31875 0.0
H3038 H 0.72179 0.94494 0.27692 0.0
C3039 C 0.74677 -0.00013 0.14939 0.0
C3040 C 0.74496 -0.01047 0.22301 0.0
H3041 H 0.75925 0.98333 0.27891 0.0
C3042 C 0.73082 0.98036 0.22894 0.0
C3043 C 0.75535 -0.00937 0.2412 0.0
C3044 C 0.7707 0.00023 0.23554 0.0
C3045 C 0.72673 0.97245 0.25283 0.0
C3046 C 0.73711 0.97335 0.27097 0.0
C3047 C 0.7513 0.98253 0.26497 0.0
C3048 C 0.7333 0.96513 0.29655 0.0
C3049 C 0.71127 0.96363 0.25885 0.0
C3050 C 0.73742 0.97193 0.32173 0.0
C3051 C 0.73219 0.96439 0.34582 0.0
C3052 C 0.72265 0.94992 0.34512 0.0
C3053 C 0.71937 0.94301 0.31998 0.0
C3054 C 0.72476 0.95051 0.29601 0.0
H3055 H 0.70501 0.96719 0.24723 0.0
H3056 H 0.70762 0.95263 0.253 0.0
H3057 H 0.70912 0.96391 0.28071 0.0
H3058 H 0.7441 0.98318 0.32273 0.0
H3059 H 0.73489 0.97004 0.36482 0.0
H3060 H 0.02518 0.76058 0.31088 0.0
H3061 H 0.011 0.75644 0.27038 0.0
H3062 H -0.02293 0.75311 0.31926 0.0
H3063 H -0.00875 0.75735 0.36008 0.0
H3064 H -0.01416 0.73174 0.26221 0.0
H3065 H -0.02187 0.77765 0.25541 0.0
H3066 H -0.00811 0.77776 0.27543 0.0
H3067 H 0.97421 0.76919 0.28783 0.0
C3068 C 0.0148 0.75926 0.31308 0.0
C3069 C 0.00936 0.75926 0.33885 0.0
C3070 C 0.0067 0.75687 0.28984 0.0
C3071 C -0.00702 0.75452 0.2917 0.0
C3072 C -0.0123 0.75512 0.31724 0.0
H3073 H 0.92547 0.70701 0.17927 0.0
H3074 H 0.94012 0.71756 0.2191 0.0
C3075 C -0.00418 0.75751 0.3406 0.0
C3076 C -0.01615 0.75004 0.26728 0.0
H3077 H 0.96436 0.75853 0.22587 0.0
C3078 C -0.0188 0.73764 0.25424 0.0
C3079 C -0.02216 0.75778 0.25677 0.0
C3080 C -0.01928 0.7714 0.26939 0.0
C3081 C 0.97258 0.73266 0.23129 0.0
C3082 C 0.9663 0.74019 0.22114 0.0
C3083 C 0.96911 0.75273 0.23382 0.0
C3084 C 0.9567 0.73495 0.19749 0.0
C3085 C 0.97027 0.71936 0.21794 0.0
C3086 C 0.96095 0.74151 0.17221 0.0
C3087 C 0.95258 0.73548 0.14922 0.0
C3088 C 0.93978 0.72281 0.15118 0.0
C3089 C 0.93527 0.71672 0.17688 0.0
C3090 C 0.94364 0.72272 0.19974 0.0
H3091 H -0.02204 0.71633 0.22489 0.0
H3092 H 0.95961 0.71073 0.22293 0.0
H3093 H 0.97102 0.72053 0.19561 0.0
H3094 H 0.971 0.75097 0.17005 0.0
H3095 H 0.95639 0.74047 0.1298 0.0
loop_
_geom_bond_atom_site_label_1
_geom_bond_atom_site_label_2
_geom_bond_distance
_geom_bond_site_symmetry_2
_ccdc_geom_bond_type
C0 O1 1.306 . S
C0 O3 1.160 . S
O1 C0 1.306 . S
O1 Cd2 2.228 . S
Cd2 O1 2.228 . S
Cd2 O6 2.273 . S
Cd2 O10 2.277 . S
O3 C0 1.160 . S
O3 Cd4 2.203 . S
Cd4 O3 2.203 . S
Cd4 O6 2.411 . S
Cd4 O7 2.333 . S
Cd4 O8 2.352 . S
Cd4 O12 2.277 . S
Cd4 O13 2.356 . S
C5 O10 1.209 . S
C5 O12 1.226 . S
O6 Cd2 2.273 . S
O6 Cd4 2.411 . S
O6 C9 1.320 . S
O7 Cd4 2.333 . S
O7 C9 1.214 . S
O8 Cd4 2.352 . S
O8 C11 1.258 . S
C9 O6 1.320 . S
C9 O7 1.214 . S
O10 Cd2 2.277 . S
O10 C5 1.209 . S
C11 O8 1.258 . S
C11 O13 1.282 . S
O12 Cd4 2.277 . S
O12 C5 1.226 . S
O13 Cd4 2.356 . S
O13 C11 1.282 . S
C14 O15 1.306 . S
C14 O17 1.160 . S
O15 C14 1.306 . S
O15 Cd16 2.228 . S
Cd16 O15 2.228 . S
Cd16 O20 2.273 . S
Cd16 O24 2.277 . S
O17 C14 1.160 . S
O17 Cd18 2.203 . S
Cd18 O17 2.203 . S
Cd18 O20 2.411 . S
Cd18 O21 2.333 . S
Cd18 O22 2.352 . S
Cd18 O26 2.277 . S
Cd18 O27 2.356 . S
C19 O24 1.209 . S
C19 O26 1.226 . S
O20 Cd16 2.273 . S
O20 Cd18 2.411 . S
O20 C23 1.320 . S
O21 Cd18 2.333 . S
O21 C23 1.214 . S
O22 Cd18 2.352 . S
O22 C25 1.258 . S
C23 O20 1.320 . S
C23 O21 1.214 . S
O24 Cd16 2.277 . S
O24 C19 1.209 . S
C25 O22 1.258 . S
C25 O27 1.282 . S
O26 Cd18 2.277 . S
O26 C19 1.226 . S
O27 Cd18 2.356 . S
O27 C25 1.282 . S
C28 O29 1.306 . S
C28 O31 1.160 . S
O29 C28 1.306 . S
O29 Cd30 2.228 . S
Cd30 O29 2.228 . S
Cd30 O34 2.273 . S
Cd30 O38 2.277 . S
O31 C28 1.160 . S
O31 Cd32 2.203 . S
Cd32 O31 2.203 . S
Cd32 O34 2.411 . S
Cd32 O35 2.333 . S
Cd32 O36 2.352 . S
Cd32 O40 2.277 . S
Cd32 O41 2.356 . S
C33 O38 1.209 . S
C33 O40 1.226 . S
O34 Cd30 2.273 . S
O34 Cd32 2.411 . S
O34 C37 1.320 . S
O35 Cd32 2.333 . S
O35 C37 1.214 . S
O36 Cd32 2.352 . S
O36 C39 1.258 . S
C37 O34 1.320 . S
C37 O35 1.214 . S
O38 Cd30 2.277 . S
O38 C33 1.209 . S
C39 O36 1.258 . S
C39 O41 1.282 . S
O40 Cd32 2.277 . S
O40 C33 1.226 . S
O41 Cd32 2.356 . S
O41 C39 1.282 . S
C42 O43 1.306 . S
C42 O45 1.160 . S
O43 C42 1.306 . S
O43 Cd44 2.228 . S
Cd44 O43 2.228 . S
Cd44 O48 2.273 . S
Cd44 O52 2.277 . S
O45 C42 1.160 . S
O45 Cd46 2.203 . S
Cd46 O45 2.203 . S
Cd46 O48 2.411 . S
Cd46 O49 2.333 . S
Cd46 O50 2.352 . S
Cd46 O54 2.277 . S
Cd46 O55 2.356 . S
C47 O52 1.209 . S
C47 O54 1.226 . S
O48 Cd44 2.273 . S
O48 Cd46 2.411 . S
O48 C51 1.320 . S
O49 Cd46 2.333 . S
O49 C51 1.214 . S
O50 Cd46 2.352 . S
O50 C53 1.258 . S
C51 O48 1.320 . S
C51 O49 1.214 . S
O52 Cd44 2.277 . S
O52 C47 1.209 . S
C53 O50 1.258 . S
C53 O55 1.282 . S
O54 Cd46 2.277 . S
O54 C47 1.226 . S
O55 Cd46 2.356 . S
O55 C53 1.282 . S
C56 O57 1.306 . S
C56 O59 1.160 . S
O57 C56 1.306 . S
O57 Cd58 2.228 . S
Cd58 O57 2.228 . S
Cd58 O62 2.273 . S
Cd58 O66 2.277 . S
O59 C56 1.160 . S
O59 Cd60 2.203 . S
Cd60 O59 2.203 . S
Cd60 O62 2.411 . S
Cd60 O63 2.333 . S
Cd60 O64 2.352 . S
Cd60 O68 2.277 . S
Cd60 O69 2.356 . S
C61 O66 1.209 . S
C61 O68 1.226 . S
O62 Cd58 2.273 . S
O62 Cd60 2.411 . S
O62 C65 1.320 . S
O63 Cd60 2.333 . S
O63 C65 1.214 . S
O64 Cd60 2.352 . S
O64 C67 1.258 . S
C65 O62 1.320 . S
C65 O63 1.214 . S
O66 Cd58 2.277 . S
O66 C61 1.209 . S
C67 O64 1.258 . S
C67 O69 1.282 . S
O68 Cd60 2.277 . S
O68 C61 1.226 . S
O69 Cd60 2.356 . S
O69 C67 1.282 . S
C70 O71 1.306 . S
C70 O73 1.160 . S
O71 C70 1.306 . S
O71 Cd72 2.228 . S
Cd72 O71 2.228 . S
Cd72 O76 2.273 . S
Cd72 O80 2.277 . S
O73 C70 1.160 . S
O73 Cd74 2.203 . S
Cd74 O73 2.203 . S
Cd74 O76 2.411 . S
Cd74 O77 2.333 . S
Cd74 O78 2.352 . S
Cd74 O82 2.277 . S
Cd74 O83 2.356 . S
C75 O80 1.209 . S
C75 O82 1.226 . S
O76 Cd72 2.273 . S
O76 Cd74 2.411 . S
O76 C79 1.320 . S
O77 Cd74 2.333 . S
O77 C79 1.214 . S
O78 Cd74 2.352 . S
O78 C81 1.258 . S
C79 O76 1.320 . S
C79 O77 1.214 . S
O80 Cd72 2.277 . S
O80 C75 1.209 . S
C81 O78 1.258 . S
C81 O83 1.282 . S
O82 Cd74 2.277 . S
O82 C75 1.226 . S
O83 Cd74 2.356 . S
O83 C81 1.282 . S
C84 O85 1.306 . S
C84 O87 1.160 . S
O85 C84 1.306 . S
O85 Cd86 2.228 . S
Cd86 O85 2.228 . S
Cd86 O90 2.273 . S
Cd86 O94 2.277 . S
O87 C84 1.160 . S
O87 Cd88 2.203 . S
Cd88 O87 2.203 . S
Cd88 O90 2.411 . S
Cd88 O91 2.333 . S
Cd88 O92 2.352 . S
Cd88 O96 2.277 . S
Cd88 O97 2.356 . S
C89 O94 1.209 . S
C89 O96 1.226 . S
O90 Cd86 2.273 . S
O90 Cd88 2.411 . S
O90 C93 1.320 . S
O91 Cd88 2.333 . S
O91 C93 1.214 . S
O92 Cd88 2.352 . S
O92 C95 1.258 . S
C93 O90 1.320 . S
C93 O91 1.214 . S
O94 Cd86 2.277 . S
O94 C89 1.209 . S
C95 O92 1.258 . S
C95 O97 1.282 . S
O96 Cd88 2.277 . S
O96 C89 1.226 . S
O97 Cd88 2.356 . S
O97 C95 1.282 . S
C98 O99 1.306 . S
C98 O101 1.160 . S
O99 C98 1.306 . S
O99 Cd100 2.228 . S
Cd100 O99 2.228 . S
Cd100 O104 2.273 . S
Cd100 O108 2.277 . S
O101 C98 1.160 . S
O101 Cd102 2.203 . S
Cd102 O101 2.203 . S
Cd102 O104 2.411 . S
Cd102 O105 2.333 . S
Cd102 O106 2.352 . S
Cd102 O110 2.277 . S
Cd102 O111 2.356 . S
C103 O108 1.209 . S
C103 O110 1.226 . S
O104 Cd100 2.273 . S
O104 Cd102 2.411 . S
O104 C107 1.320 . S
O105 Cd102 2.333 . S
O105 C107 1.214 . S
O106 Cd102 2.352 . S
O106 C109 1.258 . S
C107 O104 1.320 . S
C107 O105 1.214 . S
O108 Cd100 2.277 . S
O108 C103 1.209 . S
C109 O106 1.258 . S
C109 O111 1.282 . S
O110 Cd102 2.277 . S
O110 C103 1.226 . S
O111 Cd102 2.356 . S
O111 C109 1.282 . S
C112 O113 1.306 . S
C112 O115 1.160 . S
O113 C112 1.306 . S
O113 Cd114 2.228 . S
Cd114 O113 2.228 . S
Cd114 O118 2.273 . S
Cd114 O122 2.277 . S
O115 C112 1.160 . S
O115 Cd116 2.203 . S
Cd116 O115 2.203 . S
Cd116 O118 2.411 . S
Cd116 O119 2.333 . S
Cd116 O120 2.352 . S
Cd116 O124 2.277 . S
Cd116 O125 2.356 . S
C117 O122 1.209 . S
C117 O124 1.226 . S
O118 Cd114 2.273 . S
O118 Cd116 2.411 . S
O118 C121 1.320 . S
O119 Cd116 2.333 . S
O119 C121 1.214 . S
O120 Cd116 2.352 . S
O120 C123 1.258 . S
C121 O118 1.320 . S
C121 O119 1.214 . S
O122 Cd114 2.277 . S
O122 C117 1.209 . S
C123 O120 1.258 . S
C123 O125 1.282 . S
O124 Cd116 2.277 . S
O124 C117 1.226 . S
O125 Cd116 2.356 . S
O125 C123 1.282 . S
C126 O127 1.306 . S
C126 O129 1.160 . S
O127 C126 1.306 . S
O127 Cd128 2.228 . S
Cd128 O127 2.228 . S
Cd128 O132 2.273 . S
Cd128 O136 2.277 . S
O129 C126 1.160 . S
O129 Cd130 2.203 . S
Cd130 O129 2.203 . S
Cd130 O132 2.411 . S
Cd130 O133 2.333 . S
Cd130 O134 2.352 . S
Cd130 O138 2.277 . S
Cd130 O139 2.356 . S
C131 O136 1.209 . S
C131 O138 1.226 . S
O132 Cd128 2.273 . S
O132 Cd130 2.411 . S
O132 C135 1.320 . S
O133 Cd130 2.333 . S
O133 C135 1.214 . S
O134 Cd130 2.352 . S
O134 C137 1.258 . S
C135 O132 1.320 . S
C135 O133 1.214 . S
O136 Cd128 2.277 . S
O136 C131 1.209 . S
C137 O134 1.258 . S
C137 O139 1.282 . S
O138 Cd130 2.277 . S
O138 C131 1.226 . S
O139 Cd130 2.356 . S
O139 C137 1.282 . S
C140 O141 1.306 . S
C140 O143 1.160 . S
O141 C140 1.306 . S
O141 Cd142 2.228 . S
Cd142 O141 2.228 . S
Cd142 O146 2.273 . S
Cd142 O150 2.277 . S
O143 C140 1.160 . S
O143 Cd144 2.203 . S
Cd144 O143 2.203 . S
Cd144 O146 2.411 . S
Cd144 O147 2.333 . S
Cd144 O148 2.352 . S
Cd144 O152 2.277 . S
Cd144 O153 2.356 . S
C145 O150 1.209 . S
C145 O152 1.226 . S
O146 Cd142 2.273 . S
O146 Cd144 2.411 . S
O146 C149 1.320 . S
O147 Cd144 2.333 . S
O147 C149 1.214 . S
O148 Cd144 2.352 . S
O148 C151 1.258 . S
C149 O146 1.320 . S
C149 O147 1.214 . S
O150 Cd142 2.277 . S
O150 C145 1.209 . S
C151 O148 1.258 . S
C151 O153 1.282 . S
O152 Cd144 2.277 . S
O152 C145 1.226 . S
O153 Cd144 2.356 . S
O153 C151 1.282 . S
C154 O155 1.306 . S
C154 O157 1.160 . S
O155 C154 1.306 . S
O155 Cd156 2.228 . S
Cd156 O155 2.228 . S
Cd156 O160 2.273 . S
Cd156 O164 2.277 . S
O157 C154 1.160 . S
O157 Cd158 2.203 . S
Cd158 O157 2.203 . S
Cd158 O160 2.411 . S
Cd158 O161 2.333 . S
Cd158 O162 2.352 . S
Cd158 O166 2.277 . S
Cd158 O167 2.356 . S
C159 O164 1.209 . S
C159 O166 1.226 . S
O160 Cd156 2.273 . S
O160 Cd158 2.411 . S
O160 C163 1.320 . S
O161 Cd158 2.333 . S
O161 C163 1.214 . S
O162 Cd158 2.352 . S
O162 C165 1.258 . S
C163 O160 1.320 . S
C163 O161 1.214 . S
O164 Cd156 2.277 . S
O164 C159 1.209 . S
C165 O162 1.258 . S
C165 O167 1.282 . S
O166 Cd158 2.277 . S
O166 C159 1.226 . S
O167 Cd158 2.356 . S
O167 C165 1.282 . S
C168 O169 1.306 . S
C168 O171 1.160 . S
O169 C168 1.306 . S
O169 Cd170 2.228 . S
Cd170 O169 2.228 . S
Cd170 O174 2.273 . S
Cd170 O178 2.277 . S
O171 C168 1.160 . S
O171 Cd172 2.203 . S
Cd172 O171 2.203 . S
Cd172 O174 2.411 . S
Cd172 O175 2.333 . S
Cd172 O176 2.352 . S
Cd172 O180 2.277 . S
Cd172 O181 2.356 . S
C173 O178 1.209 . S
C173 O180 1.226 . S
O174 Cd170 2.273 . S
O174 Cd172 2.411 . S
O174 C177 1.320 . S
O175 Cd172 2.333 . S
O175 C177 1.214 . S
O176 Cd172 2.352 . S
O176 C179 1.258 . S
C177 O174 1.320 . S
C177 O175 1.214 . S
O178 Cd170 2.277 . S
O178 C173 1.209 . S
C179 O176 1.258 . S
C179 O181 1.282 . S
O180 Cd172 2.277 . S
O180 C173 1.226 . S
O181 Cd172 2.356 . S
O181 C179 1.282 . S
C182 O183 1.306 . S
C182 O185 1.160 . S
O183 C182 1.306 . S
O183 Cd184 2.228 . S
Cd184 O183 2.228 . S
Cd184 O188 2.273 . S
Cd184 O192 2.277 . S
O185 C182 1.160 . S
O185 Cd186 2.203 . S
Cd186 O185 2.203 . S
Cd186 O188 2.411 . S
Cd186 O189 2.333 . S
Cd186 O190 2.352 . S
Cd186 O194 2.277 . S
Cd186 O195 2.356 . S
C187 O192 1.209 . S
C187 O194 1.226 . S
O188 Cd184 2.273 . S
O188 Cd186 2.411 . S
O188 C191 1.320 . S
O189 Cd186 2.333 . S
O189 C191 1.214 . S
O190 Cd186 2.352 . S
O190 C193 1.258 . S
C191 O188 1.320 . S
C191 O189 1.214 . S
O192 Cd184 2.277 . S
O192 C187 1.209 . S
C193 O190 1.258 . S
C193 O195 1.282 . S
O194 Cd186 2.277 . S
O194 C187 1.226 . S
O195 Cd186 2.356 . S
O195 C193 1.282 . S
C196 O197 1.306 . S
C196 O199 1.160 . S
O197 C196 1.306 . S
O197 Cd198 2.228 . S
Cd198 O197 2.228 . S
Cd198 O202 2.273 . S
Cd198 O206 2.277 . S
O199 C196 1.160 . S
O199 Cd200 2.203 . S
Cd200 O199 2.203 . S
Cd200 O202 2.411 . S
Cd200 O203 2.333 . S
Cd200 O204 2.352 . S
Cd200 O208 2.277 . S
Cd200 O209 2.356 . S
C201 O206 1.209 . S
C201 O208 1.226 . S
O202 Cd198 2.273 . S
O202 Cd200 2.411 . S
O202 C205 1.320 . S
O203 Cd200 2.333 . S
O203 C205 1.214 . S
O204 Cd200 2.352 . S
O204 C207 1.258 . S
C205 O202 1.320 . S
C205 O203 1.214 . S
O206 Cd198 2.277 . S
O206 C201 1.209 . S
C207 O204 1.258 . S
C207 O209 1.282 . S
O208 Cd200 2.277 . S
O208 C201 1.226 . S
O209 Cd200 2.356 . S
O209 C207 1.282 . S
C210 O211 1.306 . S
C210 O213 1.160 . S
O211 C210 1.306 . S
O211 Cd212 2.228 . S
Cd212 O211 2.228 . S
Cd212 O216 2.273 . S
Cd212 O220 2.277 . S
O213 C210 1.160 . S
O213 Cd214 2.203 . S
Cd214 O213 2.203 . S
Cd214 O216 2.411 . S
Cd214 O217 2.333 . S
Cd214 O218 2.352 . S
Cd214 O222 2.277 . S
Cd214 O223 2.356 . S
C215 O220 1.209 . S
C215 O222 1.226 . S
O216 Cd212 2.273 . S
O216 Cd214 2.411 . S
O216 C219 1.320 . S
O217 Cd214 2.333 . S
O217 C219 1.214 . S
O218 Cd214 2.352 . S
O218 C221 1.258 . S
C219 O216 1.320 . S
C219 O217 1.214 . S
O220 Cd212 2.277 . S
O220 C215 1.209 . S
C221 O218 1.258 . S
C221 O223 1.282 . S
O222 Cd214 2.277 . S
O222 C215 1.226 . S
O223 Cd214 2.356 . S
O223 C221 1.282 . S
C224 O225 1.306 . S
C224 O227 1.160 . S
O225 C224 1.306 . S
O225 Cd226 2.228 . S
Cd226 O225 2.228 . S
Cd226 O230 2.273 . S
Cd226 O234 2.277 . S
O227 C224 1.160 . S
O227 Cd228 2.203 . S
Cd228 O227 2.203 . S
Cd228 O230 2.411 . S
Cd228 O231 2.333 . S
Cd228 O232 2.352 . S
Cd228 O236 2.277 . S
Cd228 O237 2.356 . S
C229 O234 1.209 . S
C229 O236 1.226 . S
O230 Cd226 2.273 . S
O230 Cd228 2.411 . S
O230 C233 1.320 . S
O231 Cd228 2.333 . S
O231 C233 1.214 . S
O232 Cd228 2.352 . S
O232 C235 1.258 . S
C233 O230 1.320 . S
C233 O231 1.214 . S
O234 Cd226 2.277 . S
O234 C229 1.209 . S
C235 O232 1.258 . S
C235 O237 1.282 . S
O236 Cd228 2.277 . S
O236 C229 1.226 . S
O237 Cd228 2.356 . S
O237 C235 1.282 . S
C238 O239 1.306 . S
C238 O241 1.160 . S
O239 C238 1.306 . S
O239 Cd240 2.228 . S
Cd240 O239 2.228 . S
Cd240 O244 2.273 . S
Cd240 O248 2.277 . S
O241 C238 1.160 . S
O241 Cd242 2.203 . S
Cd242 O241 2.203 . S
Cd242 O244 2.411 . S
Cd242 O245 2.333 . S
Cd242 O246 2.352 . S
Cd242 O250 2.277 . S
Cd242 O251 2.356 . S
C243 O248 1.209 . S
C243 O250 1.226 . S
O244 Cd240 2.273 . S
O244 Cd242 2.411 . S
O244 C247 1.320 . S
O245 Cd242 2.333 . S
O245 C247 1.214 . S
O246 Cd242 2.352 . S
O246 C249 1.258 . S
C247 O244 1.320 . S
C247 O245 1.214 . S
O248 Cd240 2.277 . S
O248 C243 1.209 . S
C249 O246 1.258 . S
C249 O251 1.282 . S
O250 Cd242 2.277 . S
O250 C243 1.226 . S
O251 Cd242 2.356 . S
O251 C249 1.282 . S
C252 O253 1.306 . S
C252 O255 1.160 . S
O253 C252 1.306 . S
O253 Cd254 2.228 . S
Cd254 O253 2.228 . S
Cd254 O258 2.273 . S
Cd254 O262 2.277 . S
O255 C252 1.160 . S
O255 Cd256 2.203 . S
Cd256 O255 2.203 . S
Cd256 O258 2.411 . S
Cd256 O259 2.333 . S
Cd256 O260 2.352 . S
Cd256 O264 2.277 . S
Cd256 O265 2.356 . S
C257 O262 1.209 . S
C257 O264 1.226 . S
O258 Cd254 2.273 . S
O258 Cd256 2.411 . S
O258 C261 1.320 . S
O259 Cd256 2.333 . S
O259 C261 1.214 . S
O260 Cd256 2.352 . S
O260 C263 1.258 . S
C261 O258 1.320 . S
C261 O259 1.214 . S
O262 Cd254 2.277 . S
O262 C257 1.209 . S
C263 O260 1.258 . S
C263 O265 1.282 . S
O264 Cd256 2.277 . S
O264 C257 1.226 . S
O265 Cd256 2.356 . S
O265 C263 1.282 . S
C266 O267 1.306 . S
C266 O269 1.160 . S
O267 C266 1.306 . S
O267 Cd268 2.228 . S
Cd268 O267 2.228 . S
Cd268 O272 2.273 . S
Cd268 O276 2.277 . S
O269 C266 1.160 . S
O269 Cd270 2.203 . S
Cd270 O269 2.203 . S
Cd270 O272 2.411 . S
Cd270 O273 2.333 . S
Cd270 O274 2.352 . S
Cd270 O278 2.277 . S
Cd270 O279 2.356 . S
C271 O276 1.209 . S
C271 O278 1.226 . S
O272 Cd268 2.273 . S
O272 Cd270 2.411 . S
O272 C275 1.320 . S
O273 Cd270 2.333 . S
O273 C275 1.214 . S
O274 Cd270 2.352 . S
O274 C277 1.258 . S
C275 O272 1.320 . S
C275 O273 1.214 . S
O276 Cd268 2.277 . S
O276 C271 1.209 . S
C277 O274 1.258 . S
C277 O279 1.282 . S
O278 Cd270 2.277 . S
O278 C271 1.226 . S
O279 Cd270 2.356 . S
O279 C277 1.282 . S
C280 O281 1.306 . S
C280 O283 1.160 . S
O281 C280 1.306 . S
O281 Cd282 2.228 . S
Cd282 O281 2.228 . S
Cd282 O286 2.273 . S
Cd282 O290 2.277 . S
O283 C280 1.160 . S
O283 Cd284 2.203 . S
Cd284 O283 2.203 . S
Cd284 O286 2.411 . S
Cd284 O287 2.333 . S
Cd284 O288 2.352 . S
Cd284 O292 2.277 . S
Cd284 O293 2.356 . S
C285 O290 1.209 . S
C285 O292 1.226 . S
O286 Cd282 2.273 . S
O286 Cd284 2.411 . S
O286 C289 1.320 . S
O287 Cd284 2.333 . S
O287 C289 1.214 . S
O288 Cd284 2.352 . S
O288 C291 1.258 . S
C289 O286 1.320 . S
C289 O287 1.214 . S
O290 Cd282 2.277 . S
O290 C285 1.209 . S
C291 O288 1.258 . S
C291 O293 1.282 . S
O292 Cd284 2.277 . S
O292 C285 1.226 . S
O293 Cd284 2.356 . S
O293 C291 1.282 . S
C294 O295 1.306 . S
C294 O297 1.160 . S
O295 C294 1.306 . S
O295 Cd296 2.228 . S
Cd296 O295 2.228 . S
Cd296 O300 2.273 . S
Cd296 O304 2.277 . S
O297 C294 1.160 . S
O297 Cd298 2.203 . S
Cd298 O297 2.203 . S
Cd298 O300 2.411 . S
Cd298 O301 2.333 . S
Cd298 O302 2.352 . S
Cd298 O306 2.277 . S
Cd298 O307 2.356 . S
C299 O304 1.209 . S
C299 O306 1.226 . S
O300 Cd296 2.273 . S
O300 Cd298 2.411 . S
O300 C303 1.320 . S
O301 Cd298 2.333 . S
O301 C303 1.214 . S
O302 Cd298 2.352 . S
O302 C305 1.258 . S
C303 O300 1.320 . S
C303 O301 1.214 . S
O304 Cd296 2.277 . S
O304 C299 1.209 . S
C305 O302 1.258 . S
C305 O307 1.282 . S
O306 Cd298 2.277 . S
O306 C299 1.226 . S
O307 Cd298 2.356 . S
O307 C305 1.282 . S
C308 O309 1.306 . S
C308 O311 1.160 . S
O309 C308 1.306 . S
O309 Cd310 2.228 . S
Cd310 O309 2.228 . S
Cd310 O314 2.273 . S
Cd310 O318 2.277 . S
O311 C308 1.160 . S
O311 Cd312 2.203 . S
Cd312 O311 2.203 . S
Cd312 O314 2.411 . S
Cd312 O315 2.333 . S
Cd312 O316 2.352 . S
Cd312 O320 2.277 . S
Cd312 O321 2.356 . S
C313 O318 1.209 . S
C313 O320 1.226 . S
O314 Cd310 2.273 . S
O314 Cd312 2.411 . S
O314 C317 1.320 . S
O315 Cd312 2.333 . S
O315 C317 1.214 . S
O316 Cd312 2.352 . S
O316 C319 1.258 . S
C317 O314 1.320 . S
C317 O315 1.214 . S
O318 Cd310 2.277 . S
O318 C313 1.209 . S
C319 O316 1.258 . S
C319 O321 1.282 . S
O320 Cd312 2.277 . S
O320 C313 1.226 . S
O321 Cd312 2.356 . S
O321 C319 1.282 . S
C322 O323 1.306 . S
C322 O325 1.160 . S
O323 C322 1.306 . S
O323 Cd324 2.228 . S
Cd324 O323 2.228 . S
Cd324 O328 2.273 . S
Cd324 O332 2.277 . S
O325 C322 1.160 . S
O325 Cd326 2.203 . S
Cd326 O325 2.203 . S
Cd326 O328 2.411 . S
Cd326 O329 2.333 . S
Cd326 O330 2.352 . S
Cd326 O334 2.277 . S
Cd326 O335 2.356 . S
C327 O332 1.209 . S
C327 O334 1.226 . S
O328 Cd324 2.273 . S
O328 Cd326 2.411 . S
O328 C331 1.320 . S
O329 Cd326 2.333 . S
O329 C331 1.214 . S
O330 Cd326 2.352 . S
O330 C333 1.258 . S
C331 O328 1.320 . S
C331 O329 1.214 . S
O332 Cd324 2.277 . S
O332 C327 1.209 . S
C333 O330 1.258 . S
C333 O335 1.282 . S
O334 Cd326 2.277 . S
O334 C327 1.226 . S
O335 Cd326 2.356 . S
O335 C333 1.282 . S
C336 O337 1.306 . S
C336 O339 1.160 . S
O337 C336 1.306 . S
O337 Cd338 2.228 . S
Cd338 O337 2.228 . S
Cd338 O342 2.273 . S
Cd338 O346 2.277 . S
O339 C336 1.160 . S
O339 Cd340 2.203 . S
Cd340 O339 2.203 . S
Cd340 O342 2.411 . S
Cd340 O343 2.333 . S
Cd340 O344 2.352 . S
Cd340 O348 2.277 . S
Cd340 O349 2.356 . S
C341 O346 1.209 . S
C341 O348 1.226 . S
O342 Cd338 2.273 . S
O342 Cd340 2.411 . S
O342 C345 1.320 . S
O343 Cd340 2.333 . S
O343 C345 1.214 . S
O344 Cd340 2.352 . S
O344 C347 1.258 . S
C345 O342 1.320 . S
C345 O343 1.214 . S
O346 Cd338 2.277 . S
O346 C341 1.209 . S
C347 O344 1.258 . S
C347 O349 1.282 . S
O348 Cd340 2.277 . S
O348 C341 1.226 . S
O349 Cd340 2.356 . S
O349 C347 1.282 . S
C350 O351 1.306 . S
C350 O353 1.160 . S
O351 C350 1.306 . S
O351 Cd352 2.228 . S
Cd352 O351 2.228 . S
Cd352 O356 2.273 . S
Cd352 O360 2.277 . S
O353 C350 1.160 . S
O353 Cd354 2.203 . S
Cd354 O353 2.203 . S
Cd354 O356 2.411 . S
Cd354 O357 2.333 . S
Cd354 O358 2.352 . S
Cd354 O362 2.277 . S
Cd354 O363 2.356 . S
C355 O360 1.209 . S
C355 O362 1.226 . S
O356 Cd352 2.273 . S
O356 Cd354 2.411 . S
O356 C359 1.320 . S
O357 Cd354 2.333 . S
O357 C359 1.214 . S
O358 Cd354 2.352 . S
O358 C361 1.258 . S
C359 O356 1.320 . S
C359 O357 1.214 . S
O360 Cd352 2.277 . S
O360 C355 1.209 . S
C361 O358 1.258 . S
C361 O363 1.282 . S
O362 Cd354 2.277 . S
O362 C355 1.226 . S
O363 Cd354 2.356 . S
O363 C361 1.282 . S
C364 O365 1.306 . S
C364 O367 1.160 . S
O365 C364 1.306 . S
O365 Cd366 2.228 . S
Cd366 O365 2.228 . S
Cd366 O370 2.273 . S
Cd366 O374 2.277 . S
O367 C364 1.160 . S
O367 Cd368 2.203 . S
Cd368 O367 2.203 . S
Cd368 O370 2.411 . S
Cd368 O371 2.333 . S
Cd368 O372 2.352 . S
Cd368 O376 2.277 . S
Cd368 O377 2.356 . S
C369 O374 1.209 . S
C369 O376 1.226 . S
O370 Cd366 2.273 . S
O370 Cd368 2.411 . S
O370 C373 1.320 . S
O371 Cd368 2.333 . S
O371 C373 1.214 . S
O372 Cd368 2.352 . S
O372 C375 1.258 . S
C373 O370 1.320 . S
C373 O371 1.214 . S
O374 Cd366 2.277 . S
O374 C369 1.209 . S
C375 O372 1.258 . S
C375 O377 1.282 . S
O376 Cd368 2.277 . S
O376 C369 1.226 . S
O377 Cd368 2.356 . S
O377 C375 1.282 . S
C378 O379 1.306 . S
C378 O381 1.160 . S
O379 C378 1.306 . S
O379 Cd380 2.228 . S
Cd380 O379 2.228 . S
Cd380 O384 2.273 . S
Cd380 O388 2.277 . S
O381 C378 1.160 . S
O381 Cd382 2.203 . S
Cd382 O381 2.203 . S
Cd382 O384 2.411 . S
Cd382 O385 2.333 . S
Cd382 O386 2.352 . S
Cd382 O390 2.277 . S
Cd382 O391 2.356 . S
C383 O388 1.209 . S
C383 O390 1.226 . S
O384 Cd380 2.273 . S
O384 Cd382 2.411 . S
O384 C387 1.320 . S
O385 Cd382 2.333 . S
O385 C387 1.214 . S
O386 Cd382 2.352 . S
O386 C389 1.258 . S
C387 O384 1.320 . S
C387 O385 1.214 . S
O388 Cd380 2.277 . S
O388 C383 1.209 . S
C389 O386 1.258 . S
C389 O391 1.282 . S
O390 Cd382 2.277 . S
O390 C383 1.226 . S
O391 Cd382 2.356 . S
O391 C389 1.282 . S
C392 O393 1.306 . S
C392 O395 1.160 . S
O393 C392 1.306 . S
O393 Cd394 2.228 . S
Cd394 O393 2.228 . S
Cd394 O398 2.273 . S
Cd394 O402 2.277 . S
O395 C392 1.160 . S
O395 Cd396 2.203 . S
Cd396 O395 2.203 . S
Cd396 O398 2.411 . S
Cd396 O399 2.333 . S
Cd396 O400 2.352 . S
Cd396 O404 2.277 . S
Cd396 O405 2.356 . S
C397 O402 1.209 . S
C397 O404 1.226 . S
O398 Cd394 2.273 . S
O398 Cd396 2.411 . S
O398 C401 1.320 . S
O399 Cd396 2.333 . S
O399 C401 1.214 . S
O400 Cd396 2.352 . S
O400 C403 1.258 . S
C401 O398 1.320 . S
C401 O399 1.214 . S
O402 Cd394 2.277 . S
O402 C397 1.209 . S
C403 O400 1.258 . S
C403 O405 1.282 . S
O404 Cd396 2.277 . S
O404 C397 1.226 . S
O405 Cd396 2.356 . S
O405 C403 1.282 . S
C406 O407 1.306 . S
C406 O409 1.160 . S
O407 C406 1.306 . S
O407 Cd408 2.228 . S
Cd408 O407 2.228 . S
Cd408 O412 2.273 . S
Cd408 O416 2.277 . S
O409 C406 1.160 . S
O409 Cd410 2.203 . S
Cd410 O409 2.203 . S
Cd410 O412 2.411 . S
Cd410 O413 2.333 . S
Cd410 O414 2.352 . S
Cd410 O418 2.277 . S
Cd410 O419 2.356 . S
C411 O416 1.209 . S
C411 O418 1.226 . S
O412 Cd408 2.273 . S
O412 Cd410 2.411 . S
O412 C415 1.320 . S
O413 Cd410 2.333 . S
O413 C415 1.214 . S
O414 Cd410 2.352 . S
O414 C417 1.258 . S
C415 O412 1.320 . S
C415 O413 1.214 . S
O416 Cd408 2.277 . S
O416 C411 1.209 . S
C417 O414 1.258 . S
C417 O419 1.282 . S
O418 Cd410 2.277 . S
O418 C411 1.226 . S
O419 Cd410 2.356 . S
O419 C417 1.282 . S
C420 O421 1.306 . S
C420 O423 1.160 . S
O421 C420 1.306 . S
O421 Cd422 2.228 . S
Cd422 O421 2.228 . S
Cd422 O426 2.273 . S
Cd422 O430 2.277 . S
O423 C420 1.160 . S
O423 Cd424 2.203 . S
Cd424 O423 2.203 . S
Cd424 O426 2.411 . S
Cd424 O427 2.333 . S
Cd424 O428 2.352 . S
Cd424 O432 2.277 . S
Cd424 O433 2.356 . S
C425 O430 1.209 . S
C425 O432 1.226 . S
O426 Cd422 2.273 . S
O426 Cd424 2.411 . S
O426 C429 1.320 . S
O427 Cd424 2.333 . S
O427 C429 1.214 . S
O428 Cd424 2.352 . S
O428 C431 1.258 . S
C429 O426 1.320 . S
C429 O427 1.214 . S
O430 Cd422 2.277 . S
O430 C425 1.209 . S
C431 O428 1.258 . S
C431 O433 1.282 . S
O432 Cd424 2.277 . S
O432 C425 1.226 . S
O433 Cd424 2.356 . S
O433 C431 1.282 . S
C434 O435 1.306 . S
C434 O437 1.160 . S
O435 C434 1.306 . S
O435 Cd436 2.228 . S
Cd436 O435 2.228 . S
Cd436 O440 2.273 . S
Cd436 O444 2.277 . S
O437 C434 1.160 . S
O437 Cd438 2.203 . S
Cd438 O437 2.203 . S
Cd438 O440 2.411 . S
Cd438 O441 2.333 . S
Cd438 O442 2.352 . S
Cd438 O446 2.277 . S
Cd438 O447 2.356 . S
C439 O444 1.209 . S
C439 O446 1.226 . S
O440 Cd436 2.273 . S
O440 Cd438 2.411 . S
O440 C443 1.320 . S
O441 Cd438 2.333 . S
O441 C443 1.214 . S
O442 Cd438 2.352 . S
O442 C445 1.258 . S
C443 O440 1.320 . S
C443 O441 1.214 . S
O444 Cd436 2.277 . S
O444 C439 1.209 . S
C445 O442 1.258 . S
C445 O447 1.282 . S
O446 Cd438 2.277 . S
O446 C439 1.226 . S
O447 Cd438 2.356 . S
O447 C445 1.282 . S
C448 O449 1.306 . S
C448 O451 1.160 . S
O449 C448 1.306 . S
O449 Cd450 2.228 . S
Cd450 O449 2.228 . S
Cd450 O454 2.273 . S
Cd450 O458 2.277 . S
O451 C448 1.160 . S
O451 Cd452 2.203 . S
Cd452 O451 2.203 . S
Cd452 O454 2.411 . S
Cd452 O455 2.333 . S
Cd452 O456 2.352 . S
Cd452 O460 2.277 . S
Cd452 O461 2.356 . S
C453 O458 1.209 . S
C453 O460 1.226 . S
O454 Cd450 2.273 . S
O454 Cd452 2.411 . S
O454 C457 1.320 . S
O455 Cd452 2.333 . S
O455 C457 1.214 . S
O456 Cd452 2.352 . S
O456 C459 1.258 . S
C457 O454 1.320 . S
C457 O455 1.214 . S
O458 Cd450 2.277 . S
O458 C453 1.209 . S
C459 O456 1.258 . S
C459 O461 1.282 . S
O460 Cd452 2.277 . S
O460 C453 1.226 . S
O461 Cd452 2.356 . S
O461 C459 1.282 . S
C462 O463 1.306 . S
C462 O465 1.160 . S
O463 C462 1.306 . S
O463 Cd464 2.228 . S
Cd464 O463 2.228 . S
Cd464 O468 2.273 . S
Cd464 O472 2.277 . S
O465 C462 1.160 . S
O465 Cd466 2.203 . S
Cd466 O465 2.203 . S
Cd466 O468 2.411 . S
Cd466 O469 2.333 . S
Cd466 O470 2.352 . S
Cd466 O474 2.277 . S
Cd466 O475 2.356 . S
C467 O472 1.209 . S
C467 O474 1.226 . S
O468 Cd464 2.273 . S
O468 Cd466 2.411 . S
O468 C471 1.320 . S
O469 Cd466 2.333 . S
O469 C471 1.214 . S
O470 Cd466 2.352 . S
O470 C473 1.258 . S
C471 O468 1.320 . S
C471 O469 1.214 . S
O472 Cd464 2.277 . S
O472 C467 1.209 . S
C473 O470 1.258 . S
C473 O475 1.282 . S
O474 Cd466 2.277 . S
O474 C467 1.226 . S
O475 Cd466 2.356 . S
O475 C473 1.282 . S
C476 O477 1.306 . S
C476 O479 1.160 . S
O477 C476 1.306 . S
O477 Cd478 2.228 . S
Cd478 O477 2.228 . S
Cd478 O482 2.273 . S
Cd478 O486 2.277 . S
O479 C476 1.160 . S
O479 Cd480 2.203 . S
Cd480 O479 2.203 . S
Cd480 O482 2.411 . S
Cd480 O483 2.333 . S
Cd480 O484 2.352 . S
Cd480 O488 2.277 . S
Cd480 O489 2.356 . S
C481 O486 1.209 . S
C481 O488 1.226 . S
O482 Cd478 2.273 . S
O482 Cd480 2.411 . S
O482 C485 1.320 . S
O483 Cd480 2.333 . S
O483 C485 1.214 . S
O484 Cd480 2.352 . S
O484 C487 1.258 . S
C485 O482 1.320 . S
C485 O483 1.214 . S
O486 Cd478 2.277 . S
O486 C481 1.209 . S
C487 O484 1.258 . S
C487 O489 1.282 . S
O488 Cd480 2.277 . S
O488 C481 1.226 . S
O489 Cd480 2.356 . S
O489 C487 1.282 . S
C490 O491 1.306 . S
C490 O493 1.160 . S
O491 C490 1.306 . S
O491 Cd492 2.228 . S
Cd492 O491 2.228 . S
Cd492 O496 2.273 . S
Cd492 O500 2.277 . S
O493 C490 1.160 . S
O493 Cd494 2.203 . S
Cd494 O493 2.203 . S
Cd494 O496 2.411 . S
Cd494 O497 2.333 . S
Cd494 O498 2.352 . S
Cd494 O502 2.277 . S
Cd494 O503 2.356 . S
C495 O500 1.209 . S
C495 O502 1.226 . S
O496 Cd492 2.273 . S
O496 Cd494 2.411 . S
O496 C499 1.320 . S
O497 Cd494 2.333 . S
O497 C499 1.214 . S
O498 Cd494 2.352 . S
O498 C501 1.258 . S
C499 O496 1.320 . S
C499 O497 1.214 . S
O500 Cd492 2.277 . S
O500 C495 1.209 . S
C501 O498 1.258 . S
C501 O503 1.282 . S
O502 Cd494 2.277 . S
O502 C495 1.226 . S
O503 Cd494 2.356 . S
O503 C501 1.282 . S
H504 C512 0.929 . S
H505 C514 0.930 . S
H506 C516 0.930 . S
H507 C519 0.929 . S
H508 C522 0.930 . S
H509 C524 0.960 . S
H510 C524 0.960 . S
H511 C524 0.960 . S
C512 H504 0.929 . S
C512 C513 1.377 . S
C512 C514 1.384 . S
C513 C512 1.377 . S
C513 C519 1.390 . S
C514 H505 0.930 . S
C514 C512 1.384 . S
C514 C515 1.372 . S
C515 C514 1.372 . S
C515 C516 1.400 . S
C515 C520 1.490 . S
C516 H506 0.930 . S
C516 C515 1.400 . S
C516 C519 1.386 . S
H517 C533 0.930 . S
H518 C534 0.931 . S
C519 H507 0.929 . S
C519 C513 1.390 . S
C519 C516 1.386 . S
C520 C515 1.490 . S
C520 C522 1.395 . S
C520 C523 1.403 . S
H521 C527 0.930 . S
C522 H508 0.930 . S
C522 C520 1.395 . S
C522 C525 1.403 1_565 S
C523 C520 1.403 . S
C523 C524 1.524 . S
C523 C527 1.400 1_565 S
C524 H509 0.960 . S
C524 H510 0.960 . S
C524 H511 0.960 . S
C524 C523 1.524 . S
C525 C522 1.403 1_545 S
C525 C526 1.392 . S
C525 C529 1.495 . S
C526 C525 1.392 . S
C526 C527 1.385 . S
C526 C528 1.478 . S
C527 H521 0.930 . S
C527 C523 1.400 1_545 S
C527 C526 1.385 . S
C528 C526 1.478 . S
C528 C530 1.381 . S
C528 C534 1.383 . S
C529 C525 1.495 . S
C529 H535 0.959 . S
C529 H536 0.961 . S
C529 H537 0.960 . S
C530 C528 1.381 . S
C530 C531 1.394 . S
C530 H538 0.930 . S
C531 C530 1.394 . S
C531 C532 1.383 . S
C531 H539 0.929 . S
C532 C531 1.383 . S
C532 C533 1.377 . S
C533 H517 0.930 . S
C533 C532 1.377 . S
C533 C534 1.379 . S
C534 H518 0.931 . S
C534 C528 1.383 . S
C534 C533 1.379 . S
H535 C529 0.959 . S
H536 C529 0.961 . S
H537 C529 0.960 . S
H538 C530 0.930 . S
H539 C531 0.929 . S
H540 C548 0.929 . S
H541 C550 0.930 . S
H542 C552 0.930 . S
H543 C555 0.929 . S
H544 C558 0.930 . S
H545 C560 0.960 . S
H546 C560 0.960 . S
H547 C560 0.960 . S
C548 H540 0.929 . S
C548 C549 1.377 . S
C548 C550 1.384 . S
C549 C548 1.377 . S
C549 C555 1.390 . S
C550 H541 0.930 . S
C550 C548 1.384 . S
C550 C551 1.372 . S
C551 C550 1.372 . S
C551 C552 1.400 . S
C551 C556 1.490 . S
C552 H542 0.930 . S
C552 C551 1.400 . S
C552 C555 1.386 . S
H553 C569 0.930 . S
H554 C570 0.931 . S
C555 H543 0.929 . S
C555 C549 1.390 . S
C555 C552 1.386 . S
C556 C551 1.490 . S
C556 C558 1.395 . S
C556 C559 1.403 . S
H557 C563 0.930 . S
C558 H544 0.930 . S
C558 C556 1.395 . S
C558 C561 1.403 1_455 S
C559 C556 1.403 . S
C559 C560 1.524 . S
C559 C563 1.400 1_455 S
C560 H545 0.960 . S
C560 H546 0.960 . S
C560 H547 0.960 . S
C560 C559 1.524 . S
C561 C558 1.403 1_655 S
C561 C562 1.392 . S
C561 C565 1.495 . S
C562 C561 1.392 . S
C562 C563 1.385 . S
C562 C564 1.478 . S
C563 H557 0.930 . S
C563 C559 1.400 1_655 S
C563 C562 1.385 . S
C564 C562 1.478 . S
C564 C566 1.381 . S
C564 C570 1.383 . S
C565 C561 1.495 . S
C565 H571 0.959 . S
C565 H572 0.961 . S
C565 H573 0.960 . S
C566 C564 1.381 . S
C566 C567 1.394 . S
C566 H574 0.930 . S
C567 C566 1.394 . S
C567 C568 1.383 . S
C567 H575 0.929 . S
C568 C567 1.383 . S
C568 C569 1.377 . S
C569 H553 0.930 . S
C569 C568 1.377 . S
C569 C570 1.379 . S
C570 H554 0.931 . S
C570 C564 1.383 . S
C570 C569 1.379 . S
H571 C565 0.959 . S
H572 C565 0.961 . S
H573 C565 0.960 . S
H574 C566 0.930 . S
H575 C567 0.929 . S
H576 C584 0.929 . S
H577 C586 0.930 . S
H578 C588 0.930 . S
H579 C591 0.929 . S
H580 C594 0.930 . S
H581 C596 0.960 . S
H582 C596 0.960 . S
H583 C596 0.960 . S
C584 H576 0.929 . S
C584 C585 1.377 . S
C584 C586 1.384 . S
C585 C584 1.377 . S
C585 C591 1.390 . S
C586 H577 0.930 . S
C586 C584 1.384 . S
C586 C587 1.372 . S
C587 C586 1.372 . S
C587 C588 1.400 . S
C587 C592 1.490 . S
C588 H578 0.930 . S
C588 C587 1.400 . S
C588 C591 1.386 . S
H589 C605 0.930 . S
H590 C606 0.931 . S
C591 H579 0.929 . S
C591 C585 1.390 . S
C591 C588 1.386 . S
C592 C587 1.490 . S
C592 C594 1.395 . S
C592 C595 1.403 . S
H593 C599 0.930 . S
C594 H580 0.930 . S
C594 C592 1.395 . S
C594 C597 1.403 . S
C595 C592 1.403 . S
C595 C596 1.524 . S
C595 C599 1.400 . S
C596 H581 0.960 . S
C596 H582 0.960 . S
C596 H583 0.960 . S
C596 C595 1.524 . S
C597 C594 1.403 . S
C597 C598 1.392 . S
C597 C601 1.495 . S
C598 C597 1.392 . S
C598 C599 1.385 . S
C598 C600 1.478 . S
C599 H593 0.930 . S
C599 C595 1.400 . S
C599 C598 1.385 . S
C600 C598 1.478 . S
C600 C602 1.381 . S
C600 C606 1.383 . S
C601 C597 1.495 . S
C601 H607 0.959 . S
C601 H608 0.961 . S
C601 H609 0.960 . S
C602 C600 1.381 . S
C602 C603 1.394 . S
C602 H610 0.930 . S
C603 C602 1.394 . S
C603 C604 1.383 . S
C603 H611 0.929 . S
C604 C603 1.383 . S
C604 C605 1.377 . S
C605 H589 0.930 . S
C605 C604 1.377 . S
C605 C606 1.379 . S
C606 H590 0.931 . S
C606 C600 1.383 . S
C606 C605 1.379 . S
H607 C601 0.959 . S
H608 C601 0.961 . S
H609 C601 0.960 . S
H610 C602 0.930 . S
H611 C603 0.929 . S
H612 C620 0.929 . S
H613 C622 0.930 . S
H614 C624 0.930 . S
H615 C627 0.929 . S
H616 C630 0.930 . S
H617 C632 0.960 . S
H618 C632 0.960 . S
H619 C632 0.960 . S
C620 H612 0.929 . S
C620 C621 1.377 . S
C620 C622 1.384 . S
C621 C620 1.377 . S
C621 C627 1.390 . S
C622 H613 0.930 . S
C622 C620 1.384 . S
C622 C623 1.372 . S
C623 C622 1.372 . S
C623 C624 1.400 . S
C623 C628 1.490 . S
C624 H614 0.930 . S
C624 C623 1.400 . S
C624 C627 1.386 . S
H625 C641 0.930 . S
H626 C642 0.931 . S
C627 H615 0.929 . S
C627 C621 1.390 . S
C627 C624 1.386 . S
C628 C623 1.490 . S
C628 C630 1.395 . S
C628 C631 1.403 . S
H629 C635 0.930 . S
C630 H616 0.930 . S
C630 C628 1.395 . S
C630 C633 1.403 1_565 S
C631 C628 1.403 . S
C631 C632 1.524 . S
C631 C635 1.400 1_565 S
C632 H617 0.960 . S
C632 H618 0.960 . S
C632 H619 0.960 . S
C632 C631 1.524 . S
C633 C630 1.403 1_545 S
C633 C634 1.392 . S
C633 C637 1.495 . S
C634 C633 1.392 . S
C634 C635 1.385 . S
C634 C636 1.478 . S
C635 H629 0.930 . S
C635 C631 1.400 1_545 S
C635 C634 1.385 . S
C636 C634 1.478 . S
C636 C638 1.381 . S
C636 C642 1.383 . S
C637 C633 1.495 . S
C637 H643 0.959 . S
C637 H644 0.961 . S
C637 H645 0.960 . S
C638 C636 1.381 . S
C638 C639 1.394 . S
C638 H646 0.930 . S
C639 C638 1.394 . S
C639 C640 1.383 . S
C639 H647 0.929 . S
C640 C639 1.383 . S
C640 C641 1.377 . S
C641 H625 0.930 . S
C641 C640 1.377 . S
C641 C642 1.379 . S
C642 H626 0.931 . S
C642 C636 1.383 . S
C642 C641 1.379 . S
H643 C637 0.959 . S
H644 C637 0.961 . S
H645 C637 0.960 . S
H646 C638 0.930 . S
H647 C639 0.929 . S
H648 C656 0.929 . S
H649 C658 0.930 . S
H650 C660 0.930 . S
H651 C663 0.929 . S
H652 C666 0.930 . S
H653 C668 0.960 . S
H654 C668 0.960 . S
H655 C668 0.960 . S
C656 H648 0.929 . S
C656 C657 1.377 . S
C656 C658 1.384 . S
C657 C656 1.377 . S
C657 C663 1.390 . S
C658 H649 0.930 . S
C658 C656 1.384 . S
C658 C659 1.372 . S
C659 C658 1.372 . S
C659 C660 1.400 . S
C659 C664 1.490 . S
C660 H650 0.930 . S
C660 C659 1.400 . S
C660 C663 1.386 . S
H661 C677 0.930 . S
H662 C678 0.931 . S
C663 H651 0.929 . S
C663 C657 1.390 . S
C663 C660 1.386 . S
C664 C659 1.490 . S
C664 C666 1.395 . S
C664 C667 1.403 . S
H665 C671 0.930 . S
C666 H652 0.930 . S
C666 C664 1.395 . S
C666 C669 1.403 1_455 S
C667 C664 1.403 . S
C667 C668 1.524 . S
C667 C671 1.400 1_455 S
C668 H653 0.960 . S
C668 H654 0.960 . S
C668 H655 0.960 . S
C668 C667 1.524 . S
C669 C666 1.403 1_655 S
C669 C670 1.392 . S
C669 C673 1.495 . S
C670 C669 1.392 . S
C670 C671 1.385 . S
C670 C672 1.478 . S
C671 H665 0.930 . S
C671 C667 1.400 1_655 S
C671 C670 1.385 . S
C672 C670 1.478 . S
C672 C674 1.381 . S
C672 C678 1.383 . S
C673 C669 1.495 . S
C673 H679 0.959 . S
C673 H680 0.961 . S
C673 H681 0.960 . S
C674 C672 1.381 . S
C674 C675 1.394 . S
C674 H682 0.930 . S
C675 C674 1.394 . S
C675 C676 1.383 . S
C675 H683 0.929 . S
C676 C675 1.383 . S
C676 C677 1.377 . S
C677 H661 0.930 . S
C677 C676 1.377 . S
C677 C678 1.379 . S
C678 H662 0.931 . S
C678 C672 1.383 . S
C678 C677 1.379 . S
H679 C673 0.959 . S
H680 C673 0.961 . S
H681 C673 0.960 . S
H682 C674 0.930 . S
H683 C675 0.929 . S
H684 C692 0.929 . S
H685 C694 0.930 . S
H686 C696 0.930 . S
H687 C699 0.929 . S
H688 C702 0.930 . S
H689 C704 0.960 . S
H690 C704 0.960 . S
H691 C704 0.960 . S
C692 H684 0.929 . S
C692 C693 1.377 . S
C692 C694 1.384 . S
C693 C692 1.377 . S
C693 C699 1.390 . S
C694 H685 0.930 . S
C694 C692 1.384 . S
C694 C695 1.372 . S
C695 C694 1.372 . S
C695 C696 1.400 . S
C695 C700 1.490 . S
C696 H686 0.930 . S
C696 C695 1.400 . S
C696 C699 1.386 . S
H697 C713 0.930 . S
H698 C714 0.931 . S
C699 H687 0.929 . S
C699 C693 1.390 . S
C699 C696 1.386 . S
C700 C695 1.490 . S
C700 C702 1.395 . S
C700 C703 1.403 . S
H701 C707 0.930 . S
C702 H688 0.930 . S
C702 C700 1.395 . S
C702 C705 1.403 . S
C703 C700 1.403 . S
C703 C704 1.524 . S
C703 C707 1.400 . S
C704 H689 0.960 . S
C704 H690 0.960 . S
C704 H691 0.960 . S
C704 C703 1.524 . S
C705 C702 1.403 . S
C705 C706 1.392 . S
C705 C709 1.495 . S
C706 C705 1.392 . S
C706 C707 1.385 . S
C706 C708 1.478 . S
C707 H701 0.930 . S
C707 C703 1.400 . S
C707 C706 1.385 . S
C708 C706 1.478 . S
C708 C710 1.381 . S
C708 C714 1.383 . S
C709 C705 1.495 . S
C709 H715 0.959 . S
C709 H716 0.961 . S
C709 H717 0.960 . S
C710 C708 1.381 . S
C710 C711 1.394 . S
C710 H718 0.930 . S
C711 C710 1.394 . S
C711 C712 1.383 . S
C711 H719 0.929 . S
C712 C711 1.383 . S
C712 C713 1.377 . S
C713 H697 0.930 . S
C713 C712 1.377 . S
C713 C714 1.379 . S
C714 H698 0.931 . S
C714 C708 1.383 . S
C714 C713 1.379 . S
H715 C709 0.959 . S
H716 C709 0.961 . S
H717 C709 0.960 . S
H718 C710 0.930 . S
H719 C711 0.929 . S
H720 C728 0.929 . S
H721 C730 0.930 . S
H722 C732 0.930 . S
H723 C735 0.929 . S
H724 C738 0.930 . S
H725 C740 0.960 . S
H726 C740 0.960 . S
H727 C740 0.960 . S
C728 H720 0.929 . S
C728 C729 1.377 . S
C728 C730 1.384 . S
C729 C728 1.377 . S
C729 C735 1.390 . S
C730 H721 0.930 . S
C730 C728 1.384 . S
C730 C731 1.372 1_455 S
C731 C730 1.372 1_655 S
C731 C732 1.400 . S
C731 C736 1.490 . S
C732 H722 0.930 . S
C732 C731 1.400 . S
C732 C735 1.386 1_655 S
H733 C749 0.930 . S
H734 C750 0.931 . S
C735 H723 0.929 . S
C735 C729 1.390 . S
C735 C732 1.386 1_455 S
C736 C731 1.490 . S
C736 C738 1.395 . S
C736 C739 1.403 . S
H737 C743 0.930 . S
C738 H724 0.930 . S
C738 C736 1.395 . S
C738 C741 1.403 . S
C739 C736 1.403 . S
C739 C740 1.524 1_655 S
C739 C743 1.400 . S
C740 H725 0.960 . S
C740 H726 0.960 . S
C740 H727 0.960 . S
C740 C739 1.524 1_455 S
C741 C738 1.403 . S
C741 C742 1.392 . S
C741 C745 1.495 . S
C742 C741 1.392 . S
C742 C743 1.385 . S
C742 C744 1.478 . S
C743 H737 0.930 . S
C743 C739 1.400 . S
C743 C742 1.385 . S
C744 C742 1.478 . S
C744 C746 1.381 . S
C744 C750 1.383 . S
C745 C741 1.495 . S
C745 H751 0.959 . S
C745 H752 0.961 . S
C745 H753 0.960 . S
C746 C744 1.381 . S
C746 C747 1.394 . S
C746 H754 0.930 . S
C747 C746 1.394 . S
C747 C748 1.383 . S
C747 H755 0.929 . S
C748 C747 1.383 . S
C748 C749 1.377 . S
C749 H733 0.930 . S
C749 C748 1.377 . S
C749 C750 1.379 . S
C750 H734 0.931 . S
C750 C744 1.383 . S
C750 C749 1.379 . S
H751 C745 0.959 . S
H752 C745 0.961 . S
H753 C745 0.960 . S
H754 C746 0.930 . S
H755 C747 0.929 . S
H756 C764 0.929 . S
H757 C766 0.930 . S
H758 C768 0.930 . S
H759 C771 0.929 . S
H760 C774 0.930 . S
H761 C776 0.960 . S
H762 C776 0.960 . S
H763 C776 0.960 . S
C764 H756 0.929 . S
C764 C765 1.377 . S
C764 C766 1.384 . S
C765 C764 1.377 . S
C765 C771 1.390 . S
C766 H757 0.930 . S
C766 C764 1.384 . S
C766 C767 1.372 . S
C767 C766 1.372 . S
C767 C768 1.400 . S
C767 C772 1.490 . S
C768 H758 0.930 . S
C768 C767 1.400 . S
C768 C771 1.386 . S
H769 C785 0.930 . S
H770 C786 0.931 . S
C771 H759 0.929 . S
C771 C765 1.390 . S
C771 C768 1.386 . S
C772 C767 1.490 . S
C772 C774 1.395 . S
C772 C775 1.403 . S
H773 C779 0.930 . S
C774 H760 0.930 . S
C774 C772 1.395 . S
C774 C777 1.403 . S
C775 C772 1.403 . S
C775 C776 1.524 . S
C775 C779 1.400 . S
C776 H761 0.960 . S
C776 H762 0.960 . S
C776 H763 0.960 . S
C776 C775 1.524 . S
C777 C774 1.403 . S
C777 C778 1.392 . S
C777 C781 1.495 . S
C778 C777 1.392 . S
C778 C779 1.385 . S
C778 C780 1.478 . S
C779 H773 0.930 . S
C779 C775 1.400 . S
C779 C778 1.385 . S
C780 C778 1.478 . S
C780 C782 1.381 . S
C780 C786 1.383 . S
C781 C777 1.495 . S
C781 H787 0.959 . S
C781 H788 0.961 . S
C781 H789 0.960 . S
C782 C780 1.381 . S
C782 C783 1.394 . S
C782 H790 0.930 . S
C783 C782 1.394 . S
C783 C784 1.383 . S
C783 H791 0.929 . S
C784 C783 1.383 . S
C784 C785 1.377 . S
C785 H769 0.930 . S
C785 C784 1.377 . S
C785 C786 1.379 . S
C786 H770 0.931 . S
C786 C780 1.383 . S
C786 C785 1.379 . S
H787 C781 0.959 . S
H788 C781 0.961 . S
H789 C781 0.960 . S
H790 C782 0.930 . S
H791 C783 0.929 . S
H792 C800 0.929 . S
H793 C802 0.930 . S
H794 C804 0.930 . S
H795 C807 0.929 . S
H796 C810 0.930 . S
H797 C812 0.960 . S
H798 C812 0.960 . S
H799 C812 0.960 . S
C800 H792 0.929 . S
C800 C801 1.377 . S
C800 C802 1.384 . S
C801 C800 1.377 . S
C801 C807 1.390 . S
C802 H793 0.930 . S
C802 C800 1.384 . S
C802 C803 1.372 . S
C803 C802 1.372 . S
C803 C804 1.400 . S
C803 C808 1.490 . S
C804 H794 0.930 . S
C804 C803 1.400 . S
C804 C807 1.386 . S
H805 C821 0.932 . S
H806 C822 0.931 . S
C807 H795 0.929 . S
C807 C801 1.390 . S
C807 C804 1.386 . S
C808 C803 1.490 . S
C808 C810 1.395 . S
C808 C811 1.403 . S
H809 C815 0.930 . S
C810 H796 0.930 . S
C810 C808 1.395 . S
C810 C813 1.403 . S
C811 C808 1.403 . S
C811 C812 1.524 . S
C811 C815 1.400 . S
C812 H797 0.960 . S
C812 H798 0.960 . S
C812 H799 0.960 . S
C812 C811 1.524 . S
C813 C810 1.403 . S
C813 C814 1.392 . S
C813 C817 1.495 1_545 S
C814 C813 1.392 . S
C814 C815 1.385 . S
C814 C816 1.508 . S
C815 H809 0.930 . S
C815 C811 1.400 . S
C815 C814 1.385 . S
C816 C814 1.508 . S
C816 C818 1.351 1_545 S
C816 C822 1.383 . S
C817 C813 1.495 1_565 S
C817 H823 0.959 . S
C817 H824 0.961 . S
C817 H825 0.960 . S
C818 C816 1.351 1_565 S
C818 C819 1.394 . S
C818 H826 0.930 . S
C819 C818 1.394 . S
C819 C820 1.383 . S
C819 H827 0.929 . S
C820 C819 1.383 . S
C820 C821 1.337 1_565 S
C821 H805 0.932 . S
C821 C820 1.337 1_545 S
C821 C822 1.418 . S
C822 H806 0.931 . S
C822 C816 1.383 . S
C822 C821 1.418 . S
H823 C817 0.959 . S
H824 C817 0.961 . S
H825 C817 0.960 . S
H826 C818 0.930 . S
H827 C819 0.929 . S
H828 C836 0.929 . S
H829 C838 0.930 . S
H830 C840 0.930 . S
H831 C843 0.929 . S
H832 C846 0.930 . S
H833 C848 0.960 . S
H834 C848 0.960 . S
H835 C848 0.960 . S
C836 H828 0.929 . S
C836 C837 1.377 . S
C836 C838 1.384 . S
C837 C836 1.377 . S
C837 C843 1.390 . S
C838 H829 0.930 . S
C838 C836 1.384 . S
C838 C839 1.372 . S
C839 C838 1.372 . S
C839 C840 1.400 . S
C839 C844 1.490 . S
C840 H830 0.930 . S
C840 C839 1.400 . S
C840 C843 1.386 . S
H841 C857 0.930 . S
H842 C858 0.931 . S
C843 H831 0.929 . S
C843 C837 1.390 . S
C843 C840 1.386 . S
C844 C839 1.490 . S
C844 C846 1.395 . S
C844 C847 1.403 . S
H845 C851 0.930 . S
C846 H832 0.930 . S
C846 C844 1.395 . S
C846 C849 1.403 . S
C847 C844 1.403 . S
C847 C848 1.524 . S
C847 C851 1.400 . S
C848 H833 0.960 . S
C848 H834 0.960 . S
C848 H835 0.960 . S
C848 C847 1.524 . S
C849 C846 1.403 . S
C849 C850 1.392 . S
C849 C853 1.495 . S
C850 C849 1.392 . S
C850 C851 1.385 . S
C850 C852 1.478 . S
C851 H845 0.930 . S
C851 C847 1.400 . S
C851 C850 1.385 . S
C852 C850 1.478 . S
C852 C854 1.381 . S
C852 C858 1.383 . S
C853 C849 1.495 . S
C853 H859 0.959 . S
C853 H860 0.961 . S
C853 H861 0.960 . S
C854 C852 1.381 . S
C854 C855 1.394 . S
C854 H862 0.930 . S
C855 C854 1.394 . S
C855 C856 1.383 . S
C855 H863 0.929 . S
C856 C855 1.383 . S
C856 C857 1.377 . S
C857 H841 0.930 . S
C857 C856 1.377 . S
C857 C858 1.379 . S
C858 H842 0.931 . S
C858 C852 1.383 . S
C858 C857 1.379 . S
H859 C853 0.959 . S
H860 C853 0.961 . S
H861 C853 0.960 . S
H862 C854 0.930 . S
H863 C855 0.929 . S
H864 C872 0.929 . S
H865 C874 0.930 . S
H866 C876 0.930 . S
H867 C879 0.929 . S
H868 C882 0.930 1_565 S
H869 C884 0.960 . S
H870 C884 0.960 . S
H871 C884 0.960 . S
C872 H864 0.929 . S
C872 C873 1.377 . S
C872 C874 1.384 . S
C873 C872 1.377 . S
C873 C879 1.390 1_565 S
C874 H865 0.930 . S
C874 C872 1.384 . S
C874 C875 1.372 1_565 S
C875 C874 1.372 1_545 S
C875 C876 1.400 . S
C875 C880 1.490 . S
C876 H866 0.930 . S
C876 C875 1.400 . S
C876 C879 1.386 . S
H877 C893 0.930 . S
H878 C894 0.931 . S
C879 H867 0.929 . S
C879 C873 1.390 1_545 S
C879 C876 1.386 . S
C880 C875 1.490 . S
C880 C882 1.395 . S
C880 C883 1.403 . S
H881 C887 0.930 . S
C882 H868 0.930 1_545 S
C882 C880 1.395 . S
C882 C885 1.403 . S
C883 C880 1.403 . S
C883 C884 1.524 . S
C883 C887 1.400 . S
C884 H869 0.960 . S
C884 H870 0.960 . S
C884 H871 0.960 . S
C884 C883 1.524 . S
C885 C882 1.403 . S
C885 C886 1.392 . S
C885 C889 1.495 . S
C886 C885 1.392 . S
C886 C887 1.385 . S
C886 C888 1.478 . S
C887 H881 0.930 . S
C887 C883 1.400 . S
C887 C886 1.385 . S
C888 C886 1.478 . S
C888 C890 1.381 . S
C888 C894 1.383 . S
C889 C885 1.495 . S
C889 H895 0.965 . S
C889 H896 0.961 . S
C889 H897 0.960 . S
C890 C888 1.381 . S
C890 C891 1.394 . S
C890 H898 0.930 . S
C891 C890 1.394 . S
C891 C892 1.383 . S
C891 H899 0.929 . S
C892 C891 1.383 . S
C892 C893 1.377 . S
C893 H877 0.930 . S
C893 C892 1.377 . S
C893 C894 1.379 . S
C894 H878 0.931 . S
C894 C888 1.383 . S
C894 C893 1.379 . S
H895 C889 0.965 . S
H896 C889 0.961 . S
H897 C889 0.960 . S
H898 C890 0.930 . S
H899 C891 0.929 . S
H900 C908 0.929 . S
H901 C910 0.930 . S
H902 C912 0.930 . S
H903 C915 0.929 . S
H904 C918 0.930 . S
H905 C920 0.960 . S
H906 C920 0.960 . S
H907 C920 0.960 . S
C908 H900 0.929 . S
C908 C909 1.377 . S
C908 C910 1.384 . S
C909 C908 1.377 . S
C909 C915 1.390 . S
C910 H901 0.930 . S
C910 C908 1.384 . S
C910 C911 1.372 . S
C911 C910 1.372 . S
C911 C912 1.400 . S
C911 C916 1.490 . S
C912 H902 0.930 . S
C912 C911 1.400 . S
C912 C915 1.386 . S
H913 C929 0.930 . S
H914 C930 0.931 . S
C915 H903 0.929 . S
C915 C909 1.390 . S
C915 C912 1.386 . S
C916 C911 1.490 . S
C916 C918 1.395 . S
C916 C919 1.403 . S
H917 C923 0.930 . S
C918 H904 0.930 . S
C918 C916 1.395 . S
C918 C921 1.403 . S
C919 C916 1.403 . S
C919 C920 1.524 . S
C919 C923 1.400 . S
C920 H905 0.960 . S
C920 H906 0.960 . S
C920 H907 0.960 . S
C920 C919 1.524 . S
C921 C918 1.403 . S
C921 C922 1.392 . S
C921 C925 1.495 1_655 S
C922 C921 1.392 . S
C922 C923 1.385 . S
C922 C924 1.478 . S
C923 H917 0.930 . S
C923 C919 1.400 . S
C923 C922 1.385 . S
C924 C922 1.478 . S
C924 C926 1.381 1_655 S
C924 C930 1.383 . S
C925 C921 1.495 1_455 S
C925 H931 0.959 . S
C925 H932 0.961 1_455 S
C925 H933 0.960 . S
C926 C924 1.381 1_455 S
C926 C927 1.394 . S
C926 H934 0.930 . S
C927 C926 1.394 . S
C927 C928 1.383 . S
C927 H935 0.929 . S
C928 C927 1.383 . S
C928 C929 1.377 1_455 S
C929 H913 0.930 . S
C929 C928 1.377 1_655 S
C929 C930 1.379 . S
C930 H914 0.931 . S
C930 C924 1.383 . S
C930 C929 1.379 . S
H931 C925 0.959 . S
H932 C925 0.961 1_655 S
H933 C925 0.960 . S
H934 C926 0.930 . S
H935 C927 0.929 . S
H936 C944 0.929 . S
H937 C946 0.930 . S
H938 C948 0.930 . S
H939 C951 0.929 . S
H940 C954 0.930 . S
H941 C956 0.960 . S
H942 C956 0.960 . S
H943 C956 0.960 . S
C944 H936 0.929 . S
C944 C945 1.377 . S
C944 C946 1.384 . S
C945 C944 1.377 . S
C945 C951 1.390 . S
C946 H937 0.930 . S
C946 C944 1.384 . S
C946 C947 1.372 . S
C947 C946 1.372 . S
C947 C948 1.400 . S
C947 C952 1.490 . S
C948 H938 0.930 . S
C948 C947 1.400 . S
C948 C951 1.386 . S
H949 C965 0.930 . S
H950 C966 0.931 . S
C951 H939 0.929 . S
C951 C945 1.390 . S
C951 C948 1.386 . S
C952 C947 1.490 . S
C952 C954 1.395 . S
C952 C955 1.403 . S
H953 C959 0.930 . S
C954 H940 0.930 . S
C954 C952 1.395 . S
C954 C957 1.403 . S
C955 C952 1.403 . S
C955 C956 1.524 . S
C955 C959 1.400 . S
C956 H941 0.960 . S
C956 H942 0.960 . S
C956 H943 0.960 . S
C956 C955 1.524 . S
C957 C954 1.403 . S
C957 C958 1.392 . S
C957 C961 1.495 . S
C958 C957 1.392 . S
C958 C959 1.385 . S
C958 C960 1.478 . S
C959 H953 0.930 . S
C959 C955 1.400 . S
C959 C958 1.385 . S
C960 C958 1.478 . S
C960 C962 1.381 . S
C960 C966 1.383 . S
C961 C957 1.495 . S
C961 H967 0.959 . S
C961 H968 0.961 . S
C961 H969 0.960 . S
C962 C960 1.381 . S
C962 C963 1.394 . S
C962 H970 0.930 . S
C963 C962 1.394 . S
C963 C964 1.383 . S
C963 H971 0.929 . S
C964 C963 1.383 . S
C964 C965 1.377 . S
C965 H949 0.930 . S
C965 C964 1.377 . S
C965 C966 1.379 . S
C966 H950 0.931 . S
C966 C960 1.383 . S
C966 C965 1.379 . S
H967 C961 0.959 . S
H968 C961 0.961 . S
H969 C961 0.960 . S
H970 C962 0.930 . S
H971 C963 0.929 . S
H972 C980 0.929 . S
H973 C982 0.930 . S
H974 C984 0.930 . S
H975 C987 0.929 . S
H976 C990 0.930 . S
H977 C992 0.960 . S
H978 C992 0.960 . S
H979 C992 0.960 . S
C980 H972 0.929 . S
C980 C981 1.377 . S
C980 C982 1.384 1_545 S
C981 C980 1.377 . S
C981 C987 1.390 . S
C982 H973 0.930 . S
C982 C980 1.384 1_565 S
C982 C983 1.372 . S
C983 C982 1.372 . S
C983 C984 1.400 1_565 S
C983 C988 1.490 . S
C984 H974 0.930 . S
C984 C983 1.400 1_545 S
C984 C987 1.386 . S
H985 C1001 0.930 . S
H986 C1002 0.931 . S
C987 H975 0.929 . S
C987 C981 1.390 . S
C987 C984 1.386 . S
C988 C983 1.490 . S
C988 C990 1.395 . S
C988 C991 1.403 . S
H989 C995 0.930 . S
C990 H976 0.930 . S
C990 C988 1.395 . S
C990 C993 1.403 . S
C991 C988 1.403 . S
C991 C992 1.524 1_565 S
C991 C995 1.400 . S
C992 H977 0.960 . S
C992 H978 0.960 . S
C992 H979 0.960 . S
C992 C991 1.524 1_545 S
C993 C990 1.403 . S
C993 C994 1.392 . S
C993 C997 1.495 . S
C994 C993 1.392 . S
C994 C995 1.385 . S
C994 C996 1.478 . S
C995 H989 0.930 . S
C995 C991 1.400 . S
C995 C994 1.385 . S
C996 C994 1.478 . S
C996 C998 1.381 . S
C996 C1002 1.383 . S
C997 C993 1.495 . S
C997 H1003 0.959 . S
C997 H1004 0.961 . S
C997 H1005 0.960 . S
C998 C996 1.381 . S
C998 C999 1.394 . S
C998 H1006 0.930 . S
C999 C998 1.394 . S
C999 C1000 1.383 . S
C999 H1007 0.929 . S
C1000 C999 1.383 . S
C1000 C1001 1.377 . S
C1001 H985 0.930 . S
C1001 C1000 1.377 . S
C1001 C1002 1.379 . S
C1002 H986 0.931 . S
C1002 C996 1.383 . S
C1002 C1001 1.379 . S
H1003 C997 0.959 . S
H1004 C997 0.961 . S
H1005 C997 0.960 . S
H1006 C998 0.930 . S
H1007 C999 0.929 . S
H1008 C1016 0.929 . S
H1009 C1018 0.930 . S
H1010 C1020 0.930 . S
H1011 C1023 0.929 . S
H1012 C1026 0.930 . S
H1013 C1028 0.960 . S
H1014 C1028 0.960 . S
H1015 C1028 0.960 . S
C1016 H1008 0.929 . S
C1016 C1017 1.377 . S
C1016 C1018 1.384 . S
C1017 C1016 1.377 . S
C1017 C1023 1.390 . S
C1018 H1009 0.930 . S
C1018 C1016 1.384 . S
C1018 C1019 1.372 . S
C1019 C1018 1.372 . S
C1019 C1020 1.400 . S
C1019 C1024 1.490 . S
C1020 H1010 0.930 . S
C1020 C1019 1.400 . S
C1020 C1023 1.386 . S
H1021 C1037 0.944 1_455 S
H1022 C1038 0.931 . S
C1023 H1011 0.929 . S
C1023 C1017 1.390 . S
C1023 C1020 1.386 . S
C1024 C1019 1.490 . S
C1024 C1026 1.395 . S
C1024 C1027 1.403 . S
H1025 C1031 0.930 . S
C1026 H1012 0.930 . S
C1026 C1024 1.395 . S
C1026 C1029 1.403 . S
C1027 C1024 1.403 . S
C1027 C1028 1.524 . S
C1027 C1031 1.400 . S
C1028 H1013 0.960 . S
C1028 H1014 0.960 . S
C1028 H1015 0.960 . S
C1028 C1027 1.524 . S
C1029 C1026 1.403 . S
C1029 C1030 1.392 . S
C1029 C1033 1.495 . S
C1030 C1029 1.392 . S
C1030 C1031 1.385 . S
C1030 C1032 1.478 . S
C1031 H1025 0.930 . S
C1031 C1027 1.400 . S
C1031 C1030 1.385 . S
C1032 C1030 1.478 . S
C1032 C1034 1.381 1_455 S
C1032 C1038 1.383 . S
C1033 C1029 1.495 . S
C1033 H1039 0.959 . S
C1033 H1040 0.961 . S
C1033 H1041 0.960 . S
C1034 C1032 1.381 1_655 S
C1034 C1035 1.394 . S
C1034 H1042 0.930 . S
C1035 C1034 1.394 . S
C1035 C1036 1.383 . S
C1035 H1043 0.929 . S
C1036 C1035 1.383 . S
C1036 C1037 1.377 . S
C1037 H1021 0.944 1_655 S
C1037 C1036 1.377 . S
C1037 C1038 1.379 1_655 S
C1038 H1022 0.931 . S
C1038 C1032 1.383 . S
C1038 C1037 1.379 1_455 S
H1039 C1033 0.959 . S
H1040 C1033 0.961 . S
H1041 C1033 0.960 . S
H1042 C1034 0.930 . S
H1043 C1035 0.929 . S
H1044 C1052 0.929 . S
H1045 C1054 0.930 . S
H1046 C1056 0.930 . S
H1047 C1059 0.929 . S
H1048 C1062 0.930 . S
H1049 C1064 0.960 . S
H1050 C1064 0.960 . S
H1051 C1064 0.960 . S
C1052 H1044 0.929 . S
C1052 C1053 1.377 . S
C1052 C1054 1.384 . S
C1053 C1052 1.377 . S
C1053 C1059 1.390 . S
C1054 H1045 0.930 . S
C1054 C1052 1.384 . S
C1054 C1055 1.372 . S
C1055 C1054 1.372 . S
C1055 C1056 1.400 . S
C1055 C1060 1.490 . S
C1056 H1046 0.930 . S
C1056 C1055 1.400 . S
C1056 C1059 1.386 . S
H1057 C1073 0.930 . S
H1058 C1074 0.931 . S
C1059 H1047 0.929 . S
C1059 C1053 1.390 . S
C1059 C1056 1.386 . S
C1060 C1055 1.490 . S
C1060 C1062 1.395 . S
C1060 C1063 1.403 . S
H1061 C1067 0.930 . S
C1062 H1048 0.930 . S
C1062 C1060 1.395 . S
C1062 C1065 1.403 . S
C1063 C1060 1.403 . S
C1063 C1064 1.524 . S
C1063 C1067 1.400 . S
C1064 H1049 0.960 . S
C1064 H1050 0.960 . S
C1064 H1051 0.960 . S
C1064 C1063 1.524 . S
C1065 C1062 1.403 . S
C1065 C1066 1.392 . S
C1065 C1069 1.495 . S
C1066 C1065 1.392 . S
C1066 C1067 1.385 . S
C1066 C1068 1.478 . S
C1067 H1061 0.930 . S
C1067 C1063 1.400 . S
C1067 C1066 1.385 . S
C1068 C1066 1.478 . S
C1068 C1070 1.381 . S
C1068 C1074 1.383 1_455 S
C1069 C1065 1.495 . S
C1069 H1075 0.959 . S
C1069 H1076 0.961 1_455 S
C1069 H1077 0.960 . S
C1070 C1068 1.381 . S
C1070 C1071 1.400 1_455 S
C1070 H1078 0.930 . S
C1071 C1070 1.400 1_655 S
C1071 C1072 1.442 . S
C1071 H1079 0.873 1_655 S
C1072 C1071 1.442 . S
C1072 C1073 1.377 . S
C1073 H1057 0.930 . S
C1073 C1072 1.377 . S
C1073 C1074 1.379 . S
C1074 H1058 0.931 . S
C1074 C1068 1.383 1_655 S
C1074 C1073 1.379 . S
H1075 C1069 0.959 . S
H1076 C1069 0.961 1_655 S
H1077 C1069 0.960 . S
H1078 C1070 0.930 . S
H1079 C1071 0.873 1_455 S
H1080 C1088 0.929 . S
H1081 C1090 0.930 . S
H1082 C1092 0.930 . S
H1083 C1095 0.929 . S
H1084 C1098 0.930 . S
H1085 C1100 0.960 . S
H1086 C1100 0.960 . S
H1087 C1100 0.960 . S
C1088 H1080 0.929 . S
C1088 C1089 1.377 . S
C1088 C1090 1.384 . S
C1089 C1088 1.377 . S
C1089 C1095 1.390 . S
C1090 H1081 0.930 . S
C1090 C1088 1.384 . S
C1090 C1091 1.372 . S
C1091 C1090 1.372 . S
C1091 C1092 1.400 . S
C1091 C1096 1.490 . S
C1092 H1082 0.930 . S
C1092 C1091 1.400 . S
C1092 C1095 1.386 . S
H1093 C1109 0.930 . S
H1094 C1110 0.931 . S
C1095 H1083 0.929 . S
C1095 C1089 1.390 . S
C1095 C1092 1.386 . S
C1096 C1091 1.490 . S
C1096 C1098 1.395 . S
C1096 C1099 1.403 . S
H1097 C1103 0.930 . S
C1098 H1084 0.930 . S
C1098 C1096 1.395 . S
C1098 C1101 1.403 . S
C1099 C1096 1.403 . S
C1099 C1100 1.524 . S
C1099 C1103 1.400 . S
C1100 H1085 0.960 . S
C1100 H1086 0.960 . S
C1100 H1087 0.960 . S
C1100 C1099 1.524 . S
C1101 C1098 1.403 . S
C1101 C1102 1.392 . S
C1101 C1105 1.495 . S
C1102 C1101 1.392 . S
C1102 C1103 1.385 . S
C1102 C1104 1.478 . S
C1103 H1097 0.930 . S
C1103 C1099 1.400 . S
C1103 C1102 1.385 . S
C1104 C1102 1.478 . S
C1104 C1106 1.381 . S
C1104 C1110 1.383 . S
C1105 C1101 1.495 . S
C1105 H1111 0.959 . S
C1105 H1112 0.961 . S
C1105 H1113 0.960 . S
C1106 C1104 1.381 . S
C1106 C1107 1.394 . S
C1106 H1114 0.930 . S
C1107 C1106 1.394 . S
C1107 C1108 1.383 . S
C1107 H1115 0.929 . S
C1108 C1107 1.383 . S
C1108 C1109 1.377 . S
C1109 H1093 0.930 . S
C1109 C1108 1.377 . S
C1109 C1110 1.379 . S
C1110 H1094 0.931 . S
C1110 C1104 1.383 . S
C1110 C1109 1.379 . S
H1111 C1105 0.959 . S
H1112 C1105 0.961 . S
H1113 C1105 0.960 . S
H1114 C1106 0.930 . S
H1115 C1107 0.929 . S
H1116 C1124 0.929 . S
H1117 C1126 0.930 . S
H1118 C1128 0.930 . S
H1119 C1131 0.929 . S
H1120 C1134 0.930 . S
H1121 C1136 0.960 1_545 S
H1122 C1136 0.960 . S
H1123 C1136 0.960 . S
C1124 H1116 0.929 . S
C1124 C1125 1.377 . S
C1124 C1126 1.384 . S
C1125 C1124 1.377 . S
C1125 C1131 1.390 . S
C1126 H1117 0.930 . S
C1126 C1124 1.384 . S
C1126 C1127 1.372 . S
C1127 C1126 1.372 . S
C1127 C1128 1.400 . S
C1127 C1132 1.490 . S
C1128 H1118 0.930 . S
C1128 C1127 1.400 . S
C1128 C1131 1.386 . S
H1129 C1145 0.930 . S
H1130 C1146 0.931 . S
C1131 H1119 0.929 . S
C1131 C1125 1.390 . S
C1131 C1128 1.386 . S
C1132 C1127 1.490 . S
C1132 C1134 1.395 . S
C1132 C1135 1.403 . S
H1133 C1139 0.930 1_545 S
C1134 H1120 0.930 . S
C1134 C1132 1.395 . S
C1134 C1137 1.403 . S
C1135 C1132 1.403 . S
C1135 C1136 1.524 . S
C1135 C1139 1.400 . S
C1136 H1121 0.960 1_565 S
C1136 H1122 0.960 . S
C1136 H1123 0.960 . S
C1136 C1135 1.524 . S
C1137 C1134 1.403 . S
C1137 C1138 1.392 . S
C1137 C1141 1.495 . S
C1138 C1137 1.392 . S
C1138 C1139 1.385 . S
C1138 C1140 1.478 . S
C1139 H1133 0.930 1_565 S
C1139 C1135 1.400 . S
C1139 C1138 1.385 . S
C1140 C1138 1.478 . S
C1140 C1142 1.381 . S
C1140 C1146 1.383 1_565 S
C1141 C1137 1.495 . S
C1141 H1147 0.959 . S
C1141 H1148 0.961 . S
C1141 H1149 0.960 . S
C1142 C1140 1.381 . S
C1142 C1143 1.394 1_565 S
C1142 H1150 0.930 . S
C1143 C1142 1.394 1_545 S
C1143 C1144 1.383 . S
C1143 H1151 0.929 . S
C1144 C1143 1.383 . S
C1144 C1145 1.377 . S
C1145 H1129 0.930 . S
C1145 C1144 1.377 . S
C1145 C1146 1.379 . S
C1146 H1130 0.931 . S
C1146 C1140 1.383 1_545 S
C1146 C1145 1.379 . S
H1147 C1141 0.959 . S
H1148 C1141 0.961 . S
H1149 C1141 0.960 . S
H1150 C1142 0.930 . S
H1151 C1143 0.929 . S
H1152 C1160 0.929 . S
H1153 C1162 0.930 . S
H1154 C1164 0.930 . S
H1155 C1167 0.929 . S
H1156 C1170 0.930 . S
H1157 C1172 0.960 . S
H1158 C1172 0.960 . S
H1159 C1172 0.960 . S
C1160 H1152 0.929 . S
C1160 C1161 1.377 . S
C1160 C1162 1.384 . S
C1161 C1160 1.377 . S
C1161 C1167 1.390 . S
C1162 H1153 0.930 . S
C1162 C1160 1.384 . S
C1162 C1163 1.372 . S
C1163 C1162 1.372 . S
C1163 C1164 1.400 . S
C1163 C1168 1.490 . S
C1164 H1154 0.930 . S
C1164 C1163 1.400 . S
C1164 C1167 1.386 . S
H1165 C1181 0.930 . S
H1166 C1182 0.931 . S
C1167 H1155 0.929 . S
C1167 C1161 1.390 . S
C1167 C1164 1.386 . S
C1168 C1163 1.490 . S
C1168 C1170 1.395 . S
C1168 C1171 1.403 . S
H1169 C1175 0.930 . S
C1170 H1156 0.930 . S
C1170 C1168 1.395 . S
C1170 C1173 1.403 . S
C1171 C1168 1.403 . S
C1171 C1172 1.524 . S
C1171 C1175 1.400 . S
C1172 H1157 0.960 . S
C1172 H1158 0.960 . S
C1172 H1159 0.960 . S
C1172 C1171 1.524 . S
C1173 C1170 1.403 . S
C1173 C1174 1.392 . S
C1173 C1177 1.495 . S
C1174 C1173 1.392 . S
C1174 C1175 1.385 . S
C1174 C1176 1.478 . S
C1175 H1169 0.930 . S
C1175 C1171 1.400 . S
C1175 C1174 1.385 . S
C1176 C1174 1.478 . S
C1176 C1178 1.381 . S
C1176 C1182 1.383 . S
C1177 C1173 1.495 . S
C1177 H1183 0.959 . S
C1177 H1184 0.961 . S
C1177 H1185 0.960 . S
C1178 C1176 1.381 . S
C1178 C1179 1.394 . S
C1178 H1186 0.930 . S
C1179 C1178 1.394 . S
C1179 C1180 1.383 . S
C1179 H1187 0.929 . S
C1180 C1179 1.383 . S
C1180 C1181 1.377 . S
C1181 H1165 0.930 . S
C1181 C1180 1.377 . S
C1181 C1182 1.379 . S
C1182 H1166 0.931 . S
C1182 C1176 1.383 . S
C1182 C1181 1.379 . S
H1183 C1177 0.959 . S
H1184 C1177 0.961 . S
H1185 C1177 0.960 . S
H1186 C1178 0.930 . S
H1187 C1179 0.929 . S
H1188 C1196 0.929 . S
H1189 C1198 0.930 . S
H1190 C1200 0.930 . S
H1191 C1203 0.929 . S
H1192 C1206 0.930 . S
H1193 C1208 0.960 . S
H1194 C1208 0.960 . S
H1195 C1208 0.960 . S
C1196 H1188 0.929 . S
C1196 C1197 1.377 . S
C1196 C1198 1.384 . S
C1197 C1196 1.377 . S
C1197 C1203 1.390 . S
C1198 H1189 0.930 . S
C1198 C1196 1.384 . S
C1198 C1199 1.372 . S
C1199 C1198 1.372 . S
C1199 C1200 1.400 . S
C1199 C1204 1.490 . S
C1200 H1190 0.930 . S
C1200 C1199 1.400 . S
C1200 C1203 1.386 . S
H1201 C1217 0.930 . S
H1202 C1218 0.931 . S
C1203 H1191 0.929 . S
C1203 C1197 1.390 . S
C1203 C1200 1.386 . S
C1204 C1199 1.490 . S
C1204 C1206 1.395 . S
C1204 C1207 1.403 . S
H1205 C1211 0.930 . S
C1206 H1192 0.930 . S
C1206 C1204 1.395 . S
C1206 C1209 1.403 . S
C1207 C1204 1.403 . S
C1207 C1208 1.524 . S
C1207 C1211 1.400 . S
C1208 H1193 0.960 . S
C1208 H1194 0.960 . S
C1208 H1195 0.960 . S
C1208 C1207 1.524 . S
C1209 C1206 1.403 . S
C1209 C1210 1.392 . S
C1209 C1213 1.495 . S
C1210 C1209 1.392 . S
C1210 C1211 1.385 . S
C1210 C1212 1.478 . S
C1211 H1205 0.930 . S
C1211 C1207 1.400 . S
C1211 C1210 1.385 . S
C1212 C1210 1.478 . S
C1212 C1214 1.381 . S
C1212 C1218 1.383 . S
C1213 C1209 1.495 . S
C1213 H1219 0.959 . S
C1213 H1220 0.961 . S
C1213 H1221 0.960 . S
C1214 C1212 1.381 . S
C1214 C1215 1.394 . S
C1214 H1222 0.930 . S
C1215 C1214 1.394 . S
C1215 C1216 1.383 . S
C1215 H1223 0.929 . S
C1216 C1215 1.383 . S
C1216 C1217 1.377 . S
C1217 H1201 0.930 . S
C1217 C1216 1.377 . S
C1217 C1218 1.379 . S
C1218 H1202 0.931 . S
C1218 C1212 1.383 . S
C1218 C1217 1.379 . S
H1219 C1213 0.959 . S
H1220 C1213 0.961 . S
H1221 C1213 0.960 . S
H1222 C1214 0.930 . S
H1223 C1215 0.929 . S
H1224 C1232 0.929 . S
H1225 C1234 0.930 . S
H1226 C1236 0.930 . S
H1227 C1239 0.929 . S
H1228 C1242 0.930 . S
H1229 C1244 0.960 . S
H1230 C1244 0.960 . S
H1231 C1244 0.960 . S
C1232 H1224 0.929 . S
C1232 C1233 1.377 . S
C1232 C1234 1.384 . S
C1233 C1232 1.377 . S
C1233 C1239 1.390 . S
C1234 H1225 0.930 . S
C1234 C1232 1.384 . S
C1234 C1235 1.372 . S
C1235 C1234 1.372 . S
C1235 C1236 1.400 . S
C1235 C1240 1.490 . S
C1236 H1226 0.930 . S
C1236 C1235 1.400 . S
C1236 C1239 1.386 . S
H1237 C1253 0.930 . S
H1238 C1254 0.931 . S
C1239 H1227 0.929 . S
C1239 C1233 1.390 . S
C1239 C1236 1.386 . S
C1240 C1235 1.490 . S
C1240 C1242 1.395 . S
C1240 C1243 1.403 . S
H1241 C1247 0.930 . S
C1242 H1228 0.930 . S
C1242 C1240 1.395 . S
C1242 C1245 1.403 . S
C1243 C1240 1.403 . S
C1243 C1244 1.524 . S
C1243 C1247 1.400 . S
C1244 H1229 0.960 . S
C1244 H1230 0.960 . S
C1244 H1231 0.960 . S
C1244 C1243 1.524 . S
C1245 C1242 1.403 . S
C1245 C1246 1.392 . S
C1245 C1249 1.495 . S
C1246 C1245 1.392 . S
C1246 C1247 1.385 . S
C1246 C1248 1.478 . S
C1247 H1241 0.930 . S
C1247 C1243 1.400 . S
C1247 C1246 1.385 . S
C1248 C1246 1.478 . S
C1248 C1250 1.381 . S
C1248 C1254 1.383 . S
C1249 C1245 1.495 . S
C1249 H1255 0.959 . S
C1249 H1256 0.961 . S
C1249 H1257 0.960 . S
C1250 C1248 1.381 . S
C1250 C1251 1.394 . S
C1250 H1258 0.930 . S
C1251 C1250 1.394 . S
C1251 C1252 1.383 . S
C1251 H1259 0.929 . S
C1252 C1251 1.383 . S
C1252 C1253 1.377 . S
C1253 H1237 0.930 . S
C1253 C1252 1.377 . S
C1253 C1254 1.379 . S
C1254 H1238 0.931 . S
C1254 C1248 1.383 . S
C1254 C1253 1.379 . S
H1255 C1249 0.959 . S
H1256 C1249 0.961 . S
H1257 C1249 0.960 . S
H1258 C1250 0.930 . S
H1259 C1251 0.929 . S
H1260 C1268 0.929 . S
H1261 C1270 0.930 . S
H1262 C1272 0.930 . S
H1263 C1275 0.929 . S
H1264 C1278 0.930 . S
H1265 C1280 0.960 . S
H1266 C1280 0.960 . S
H1267 C1280 0.960 . S
C1268 H1260 0.929 . S
C1268 C1269 1.377 . S
C1268 C1270 1.384 . S
C1269 C1268 1.377 . S
C1269 C1275 1.390 . S
C1270 H1261 0.930 . S
C1270 C1268 1.384 . S
C1270 C1271 1.372 . S
C1271 C1270 1.372 . S
C1271 C1272 1.400 . S
C1271 C1276 1.490 . S
C1272 H1262 0.930 . S
C1272 C1271 1.400 . S
C1272 C1275 1.386 . S
H1273 C1289 0.930 . S
H1274 C1290 0.931 . S
C1275 H1263 0.929 . S
C1275 C1269 1.390 . S
C1275 C1272 1.386 . S
C1276 C1271 1.490 . S
C1276 C1278 1.395 . S
C1276 C1279 1.403 . S
H1277 C1283 0.930 . S
C1278 H1264 0.930 . S
C1278 C1276 1.395 . S
C1278 C1281 1.403 . S
C1279 C1276 1.403 . S
C1279 C1280 1.524 . S
C1279 C1283 1.400 . S
C1280 H1265 0.960 . S
C1280 H1266 0.960 . S
C1280 H1267 0.960 . S
C1280 C1279 1.524 . S
C1281 C1278 1.403 . S
C1281 C1282 1.392 . S
C1281 C1285 1.495 . S
C1282 C1281 1.392 . S
C1282 C1283 1.385 . S
C1282 C1284 1.478 . S
C1283 H1277 0.930 . S
C1283 C1279 1.400 . S
C1283 C1282 1.385 . S
C1284 C1282 1.478 . S
C1284 C1286 1.381 . S
C1284 C1290 1.383 . S
C1285 C1281 1.495 . S
C1285 H1291 0.959 . S
C1285 H1292 0.961 . S
C1285 H1293 0.960 . S
C1286 C1284 1.381 . S
C1286 C1287 1.433 . S
C1286 H1294 0.930 . S
C1287 C1286 1.433 . S
C1287 C1288 1.359 1_554 S
C1287 H1295 0.916 1_554 S
C1288 C1287 1.359 1_556 S
C1288 C1289 1.377 . S
C1289 H1273 0.930 . S
C1289 C1288 1.377 . S
C1289 C1290 1.379 1_556 S
C1290 H1274 0.931 . S
C1290 C1284 1.383 . S
C1290 C1289 1.379 1_554 S
H1291 C1285 0.959 . S
H1292 C1285 0.961 . S
H1293 C1285 0.960 . S
H1294 C1286 0.930 . S
H1295 C1287 0.916 1_556 S
H1296 C1304 0.929 . S
H1297 C1306 0.930 . S
H1298 C1308 0.930 . S
H1299 C1311 0.929 . S
H1300 C1314 0.930 . S
H1301 C1316 0.960 . S
H1302 C1316 0.960 . S
H1303 C1316 0.960 . S
C1304 H1296 0.929 . S
C1304 C1305 1.377 . S
C1304 C1306 1.384 . S
C1305 C1304 1.377 . S
C1305 C1311 1.390 . S
C1306 H1297 0.930 . S
C1306 C1304 1.384 . S
C1306 C1307 1.372 . S
C1307 C1306 1.372 . S
C1307 C1308 1.400 . S
C1307 C1312 1.490 . S
C1308 H1298 0.930 . S
C1308 C1307 1.400 . S
C1308 C1311 1.386 . S
H1309 C1325 0.930 . S
H1310 C1326 0.931 . S
C1311 H1299 0.929 . S
C1311 C1305 1.390 . S
C1311 C1308 1.386 . S
C1312 C1307 1.490 . S
C1312 C1314 1.395 . S
C1312 C1315 1.403 . S
H1313 C1319 0.930 . S
C1314 H1300 0.930 . S
C1314 C1312 1.395 . S
C1314 C1317 1.403 . S
C1315 C1312 1.403 . S
C1315 C1316 1.524 . S
C1315 C1319 1.400 . S
C1316 H1301 0.960 . S
C1316 H1302 0.960 . S
C1316 H1303 0.960 . S
C1316 C1315 1.524 . S
C1317 C1314 1.403 . S
C1317 C1318 1.392 . S
C1317 C1321 1.495 . S
C1318 C1317 1.392 . S
C1318 C1319 1.385 . S
C1318 C1320 1.478 . S
C1319 H1313 0.930 . S
C1319 C1315 1.400 . S
C1319 C1318 1.385 . S
C1320 C1318 1.478 . S
C1320 C1322 1.381 . S
C1320 C1326 1.383 . S
C1321 C1317 1.495 . S
C1321 H1327 0.959 . S
C1321 H1328 0.961 . S
C1321 H1329 0.960 . S
C1322 C1320 1.381 . S
C1322 C1323 1.394 1_554 S
C1322 H1330 0.930 . S
C1323 C1322 1.394 1_556 S
C1323 C1324 1.383 . S
C1323 H1331 0.929 . S
C1324 C1323 1.383 . S
C1324 C1325 1.377 . S
C1325 H1309 0.930 . S
C1325 C1324 1.377 . S
C1325 C1326 1.379 1_556 S
C1326 H1310 0.931 . S
C1326 C1320 1.383 . S
C1326 C1325 1.379 1_554 S
H1327 C1321 0.959 . S
H1328 C1321 0.961 . S
H1329 C1321 0.960 . S
H1330 C1322 0.930 . S
H1331 C1323 0.929 . S
H1332 C1340 0.929 . S
H1333 C1342 0.930 . S
H1334 C1344 0.930 . S
H1335 C1347 0.929 . S
H1336 C1350 0.930 . S
H1337 C1352 0.960 . S
H1338 C1352 0.960 . S
H1339 C1352 0.960 . S
C1340 H1332 0.929 . S
C1340 C1341 1.377 . S
C1340 C1342 1.384 . S
C1341 C1340 1.377 . S
C1341 C1347 1.390 . S
C1342 H1333 0.930 . S
C1342 C1340 1.384 . S
C1342 C1343 1.372 . S
C1343 C1342 1.372 . S
C1343 C1344 1.400 . S
C1343 C1348 1.490 . S
C1344 H1334 0.930 . S
C1344 C1343 1.400 . S
C1344 C1347 1.386 . S
H1345 C1361 0.930 . S
H1346 C1362 0.931 . S
C1347 H1335 0.929 . S
C1347 C1341 1.390 . S
C1347 C1344 1.386 . S
C1348 C1343 1.490 . S
C1348 C1350 1.395 . S
C1348 C1351 1.403 . S
H1349 C1355 0.930 . S
C1350 H1336 0.930 . S
C1350 C1348 1.395 . S
C1350 C1353 1.403 . S
C1351 C1348 1.403 . S
C1351 C1352 1.524 . S
C1351 C1355 1.400 . S
C1352 H1337 0.960 . S
C1352 H1338 0.960 . S
C1352 H1339 0.960 . S
C1352 C1351 1.524 . S
C1353 C1350 1.403 . S
C1353 C1354 1.392 . S
C1353 C1357 1.495 . S
C1354 C1353 1.392 . S
C1354 C1355 1.385 . S
C1354 C1356 1.478 . S
C1355 H1349 0.930 . S
C1355 C1351 1.400 . S
C1355 C1354 1.385 . S
C1356 C1354 1.478 . S
C1356 C1358 1.381 . S
C1356 C1362 1.383 . S
C1357 C1353 1.495 . S
C1357 H1363 0.959 . S
C1357 H1364 0.961 . S
C1357 H1365 0.960 . S
C1358 C1356 1.381 . S
C1358 C1359 1.394 1_554 S
C1358 H1366 0.930 . S
C1359 C1358 1.394 1_556 S
C1359 C1360 1.383 . S
C1359 H1367 0.929 . S
C1360 C1359 1.383 . S
C1360 C1361 1.377 1_556 S
C1361 H1345 0.930 . S
C1361 C1360 1.377 1_554 S
C1361 C1362 1.379 . S
C1362 H1346 0.931 . S
C1362 C1356 1.383 . S
C1362 C1361 1.379 . S
H1363 C1357 0.959 . S
H1364 C1357 0.961 . S
H1365 C1357 0.960 . S
H1366 C1358 0.930 . S
H1367 C1359 0.929 . S
H1368 C1376 0.929 . S
H1369 C1378 0.930 . S
H1370 C1380 0.930 . S
H1371 C1383 0.929 . S
H1372 C1386 0.930 . S
H1373 C1388 0.960 . S
H1374 C1388 0.960 . S
H1375 C1388 0.960 . S
C1376 H1368 0.929 . S
C1376 C1377 1.377 . S
C1376 C1378 1.384 . S
C1377 C1376 1.377 . S
C1377 C1383 1.390 . S
C1378 H1369 0.930 . S
C1378 C1376 1.384 . S
C1378 C1379 1.372 . S
C1379 C1378 1.372 . S
C1379 C1380 1.400 . S
C1379 C1384 1.490 . S
C1380 H1370 0.930 . S
C1380 C1379 1.400 . S
C1380 C1383 1.386 . S
H1381 C1397 0.930 . S
H1382 C1398 0.931 . S
C1383 H1371 0.929 . S
C1383 C1377 1.390 . S
C1383 C1380 1.386 . S
C1384 C1379 1.490 . S
C1384 C1386 1.395 . S
C1384 C1387 1.403 . S
H1385 C1391 0.930 . S
C1386 H1372 0.930 . S
C1386 C1384 1.395 . S
C1386 C1389 1.403 . S
C1387 C1384 1.403 . S
C1387 C1388 1.524 . S
C1387 C1391 1.400 . S
C1388 H1373 0.960 . S
C1388 H1374 0.960 . S
C1388 H1375 0.960 . S
C1388 C1387 1.524 . S
C1389 C1386 1.403 . S
C1389 C1390 1.392 . S
C1389 C1393 1.495 . S
C1390 C1389 1.392 . S
C1390 C1391 1.385 . S
C1390 C1392 1.478 . S
C1391 H1385 0.930 . S
C1391 C1387 1.400 . S
C1391 C1390 1.385 . S
C1392 C1390 1.478 . S
C1392 C1394 1.381 . S
C1392 C1398 1.383 . S
C1393 C1389 1.495 . S
C1393 H1399 0.959 . S
C1393 H1400 0.961 . S
C1393 H1401 0.960 . S
C1394 C1392 1.381 . S
C1394 C1395 1.394 . S
C1394 H1402 0.930 . S
C1395 C1394 1.394 . S
C1395 C1396 1.383 . S
C1395 H1403 0.929 . S
C1396 C1395 1.383 . S
C1396 C1397 1.377 . S
C1397 H1381 0.930 . S
C1397 C1396 1.377 . S
C1397 C1398 1.379 . S
C1398 H1382 0.931 . S
C1398 C1392 1.383 . S
C1398 C1397 1.379 . S
H1399 C1393 0.959 . S
H1400 C1393 0.961 . S
H1401 C1393 0.960 . S
H1402 C1394 0.930 . S
H1403 C1395 0.929 . S
H1404 C1412 0.929 . S
H1405 C1414 0.930 . S
H1406 C1416 0.930 . S
H1407 C1419 0.929 . S
H1408 C1422 0.930 . S
H1409 C1424 0.960 . S
H1410 C1424 0.960 . S
H1411 C1424 0.960 . S
C1412 H1404 0.929 . S
C1412 C1413 1.377 . S
C1412 C1414 1.384 . S
C1413 C1412 1.377 . S
C1413 C1419 1.390 . S
C1414 H1405 0.930 . S
C1414 C1412 1.384 . S
C1414 C1415 1.372 . S
C1415 C1414 1.372 . S
C1415 C1416 1.400 . S
C1415 C1420 1.490 . S
C1416 H1406 0.930 . S
C1416 C1415 1.400 . S
C1416 C1419 1.386 . S
H1417 C1433 0.930 . S
H1418 C1434 0.931 . S
C1419 H1407 0.929 . S
C1419 C1413 1.390 . S
C1419 C1416 1.386 . S
C1420 C1415 1.490 . S
C1420 C1422 1.395 . S
C1420 C1423 1.403 . S
H1421 C1427 0.930 . S
C1422 H1408 0.930 . S
C1422 C1420 1.395 . S
C1422 C1425 1.403 . S
C1423 C1420 1.403 . S
C1423 C1424 1.524 . S
C1423 C1427 1.400 . S
C1424 H1409 0.960 . S
C1424 H1410 0.960 . S
C1424 H1411 0.960 . S
C1424 C1423 1.524 . S
C1425 C1422 1.403 . S
C1425 C1426 1.392 . S
C1425 C1429 1.495 . S
C1426 C1425 1.392 . S
C1426 C1427 1.385 . S
C1426 C1428 1.478 . S
C1427 H1421 0.930 . S
C1427 C1423 1.400 . S
C1427 C1426 1.385 . S
C1428 C1426 1.478 . S
C1428 C1430 1.381 . S
C1428 C1434 1.383 . S
C1429 C1425 1.495 . S
C1429 H1435 0.959 . S
C1429 H1436 0.961 . S
C1429 H1437 0.960 . S
C1430 C1428 1.381 . S
C1430 C1431 1.394 . S
C1430 H1438 0.930 . S
C1431 C1430 1.394 . S
C1431 C1432 1.383 . S
C1431 H1439 0.929 . S
C1432 C1431 1.383 . S
C1432 C1433 1.377 . S
C1433 H1417 0.930 . S
C1433 C1432 1.377 . S
C1433 C1434 1.379 . S
C1434 H1418 0.931 . S
C1434 C1428 1.383 . S
C1434 C1433 1.379 . S
H1435 C1429 0.959 . S
H1436 C1429 0.961 . S
H1437 C1429 0.960 . S
H1438 C1430 0.930 . S
H1439 C1431 0.929 . S
H1440 C1448 0.929 . S
H1441 C1450 0.930 . S
H1442 C1452 0.930 . S
H1443 C1455 0.929 . S
H1444 C1458 0.930 . S
H1445 C1460 0.960 . S
H1446 C1460 0.960 . S
H1447 C1460 0.960 . S
C1448 H1440 0.929 . S
C1448 C1449 1.377 . S
C1448 C1450 1.384 . S
C1449 C1448 1.377 . S
C1449 C1455 1.390 . S
C1450 H1441 0.930 . S
C1450 C1448 1.384 . S
C1450 C1451 1.372 . S
C1451 C1450 1.372 . S
C1451 C1452 1.400 . S
C1451 C1456 1.490 . S
C1452 H1442 0.930 . S
C1452 C1451 1.400 . S
C1452 C1455 1.386 . S
H1453 C1469 0.930 . S
H1454 C1470 0.931 . S
C1455 H1443 0.929 . S
C1455 C1449 1.390 . S
C1455 C1452 1.386 . S
C1456 C1451 1.490 . S
C1456 C1458 1.395 . S
C1456 C1459 1.403 . S
H1457 C1463 0.930 . S
C1458 H1444 0.930 . S
C1458 C1456 1.395 . S
C1458 C1461 1.403 . S
C1459 C1456 1.403 . S
C1459 C1460 1.524 . S
C1459 C1463 1.400 . S
C1460 H1445 0.960 . S
C1460 H1446 0.960 . S
C1460 H1447 0.960 . S
C1460 C1459 1.524 . S
C1461 C1458 1.403 . S
C1461 C1462 1.392 . S
C1461 C1465 1.495 . S
C1462 C1461 1.392 . S
C1462 C1463 1.385 . S
C1462 C1464 1.478 . S
C1463 H1457 0.930 . S
C1463 C1459 1.400 . S
C1463 C1462 1.385 . S
C1464 C1462 1.478 . S
C1464 C1466 1.381 . S
C1464 C1470 1.383 . S
C1465 C1461 1.495 . S
C1465 H1471 0.959 . S
C1465 H1472 0.961 . S
C1465 H1473 0.960 . S
C1466 C1464 1.381 . S
C1466 C1467 1.394 . S
C1466 H1474 0.930 . S
C1467 C1466 1.394 . S
C1467 C1468 1.383 . S
C1467 H1475 0.929 . S
C1468 C1467 1.383 . S
C1468 C1469 1.377 . S
C1469 H1453 0.930 . S
C1469 C1468 1.377 . S
C1469 C1470 1.379 . S
C1470 H1454 0.931 . S
C1470 C1464 1.383 . S
C1470 C1469 1.379 . S
H1471 C1465 0.959 . S
H1472 C1465 0.961 . S
H1473 C1465 0.960 . S
H1474 C1466 0.930 . S
H1475 C1467 0.929 . S
H1476 C1484 0.929 . S
H1477 C1486 0.930 . S
H1478 C1488 0.930 . S
H1479 C1491 0.929 . S
H1480 C1494 0.930 . S
H1481 C1496 0.960 . S
H1482 C1496 0.960 . S
H1483 C1496 0.960 . S
C1484 H1476 0.929 . S
C1484 C1485 1.377 1_556 S
C1484 C1486 1.384 . S
C1485 C1484 1.377 1_554 S
C1485 C1491 1.390 . S
C1486 H1477 0.930 . S
C1486 C1484 1.384 . S
C1486 C1487 1.372 . S
C1487 C1486 1.372 . S
C1487 C1488 1.400 . S
C1487 C1492 1.490 . S
C1488 H1478 0.930 . S
C1488 C1487 1.400 . S
C1488 C1491 1.386 1_556 S
H1489 C1505 0.930 . S
H1490 C1506 0.931 . S
C1491 H1479 0.929 . S
C1491 C1485 1.390 . S
C1491 C1488 1.386 1_554 S
C1492 C1487 1.490 . S
C1492 C1494 1.395 . S
C1492 C1495 1.403 . S
H1493 C1499 0.930 . S
C1494 H1480 0.930 . S
C1494 C1492 1.395 . S
C1494 C1497 1.403 . S
C1495 C1492 1.403 . S
C1495 C1496 1.524 . S
C1495 C1499 1.400 . S
C1496 H1481 0.960 . S
C1496 H1482 0.960 . S
C1496 H1483 0.960 . S
C1496 C1495 1.524 . S
C1497 C1494 1.403 . S
C1497 C1498 1.392 . S
C1497 C1501 1.495 . S
C1498 C1497 1.392 . S
C1498 C1499 1.385 . S
C1498 C1500 1.478 . S
C1499 H1493 0.930 . S
C1499 C1495 1.400 . S
C1499 C1498 1.385 . S
C1500 C1498 1.478 . S
C1500 C1502 1.381 . S
C1500 C1506 1.383 . S
C1501 C1497 1.495 . S
C1501 H1507 0.959 . S
C1501 H1508 0.961 . S
C1501 H1509 0.960 . S
C1502 C1500 1.381 . S
C1502 C1503 1.394 . S
C1502 H1510 0.930 . S
C1503 C1502 1.394 . S
C1503 C1504 1.383 . S
C1503 H1511 0.929 . S
C1504 C1503 1.383 . S
C1504 C1505 1.377 . S
C1505 H1489 0.930 . S
C1505 C1504 1.377 . S
C1505 C1506 1.379 . S
C1506 H1490 0.931 . S
C1506 C1500 1.383 . S
C1506 C1505 1.379 . S
H1507 C1501 0.959 . S
H1508 C1501 0.961 . S
H1509 C1501 0.960 . S
H1510 C1502 0.930 . S
H1511 C1503 0.929 . S
H1512 C1520 0.929 . S
H1513 C1522 0.930 . S
H1514 C1524 0.930 . S
H1515 C1527 0.929 . S
H1516 C1530 0.930 . S
H1517 C1532 0.960 . S
H1518 C1532 0.960 . S
H1519 C1532 0.960 . S
C1520 H1512 0.929 . S
C1520 C1521 1.377 1_556 S
C1520 C1522 1.384 . S
C1521 C1520 1.377 1_554 S
C1521 C1527 1.390 . S
C1522 H1513 0.930 . S
C1522 C1520 1.384 . S
C1522 C1523 1.372 . S
C1523 C1522 1.372 . S
C1523 C1524 1.400 . S
C1523 C1528 1.490 . S
C1524 H1514 0.930 . S
C1524 C1523 1.400 . S
C1524 C1527 1.386 1_556 S
H1525 C1541 0.930 . S
H1526 C1542 0.931 . S
C1527 H1515 0.929 . S
C1527 C1521 1.390 . S
C1527 C1524 1.386 1_554 S
C1528 C1523 1.490 . S
C1528 C1530 1.395 . S
C1528 C1531 1.403 . S
H1529 C1535 0.930 . S
C1530 H1516 0.930 . S
C1530 C1528 1.395 . S
C1530 C1533 1.403 . S
C1531 C1528 1.403 . S
C1531 C1532 1.524 . S
C1531 C1535 1.400 . S
C1532 H1517 0.960 . S
C1532 H1518 0.960 . S
C1532 H1519 0.960 . S
C1532 C1531 1.524 . S
C1533 C1530 1.403 . S
C1533 C1534 1.392 . S
C1533 C1537 1.495 . S
C1534 C1533 1.392 . S
C1534 C1535 1.385 . S
C1534 C1536 1.478 . S
C1535 H1529 0.930 . S
C1535 C1531 1.400 . S
C1535 C1534 1.385 . S
C1536 C1534 1.478 . S
C1536 C1538 1.381 . S
C1536 C1542 1.383 . S
C1537 C1533 1.495 . S
C1537 H1543 0.959 . S
C1537 H1544 0.961 . S
C1537 H1545 0.960 . S
C1538 C1536 1.381 . S
C1538 C1539 1.394 . S
C1538 H1546 0.930 . S
C1539 C1538 1.394 . S
C1539 C1540 1.383 . S
C1539 H1547 0.929 . S
C1540 C1539 1.383 . S
C1540 C1541 1.377 . S
C1541 H1525 0.930 . S
C1541 C1540 1.377 . S
C1541 C1542 1.379 . S
C1542 H1526 0.931 . S
C1542 C1536 1.383 . S
C1542 C1541 1.379 . S
H1543 C1537 0.959 . S
H1544 C1537 0.961 . S
H1545 C1537 0.960 . S
H1546 C1538 0.930 . S
H1547 C1539 0.929 . S
H1548 C1556 0.929 . S
H1549 C1558 0.930 . S
H1550 C1560 0.930 . S
H1551 C1563 0.929 . S
H1552 C1566 0.930 . S
H1553 C1568 0.960 . S
H1554 C1568 0.960 . S
H1555 C1568 0.960 . S
C1556 H1548 0.929 . S
C1556 C1557 1.377 . S
C1556 C1558 1.384 . S
C1557 C1556 1.377 . S
C1557 C1563 1.390 . S
C1558 H1549 0.930 . S
C1558 C1556 1.384 . S
C1558 C1559 1.372 . S
C1559 C1558 1.372 . S
C1559 C1560 1.400 . S
C1559 C1564 1.490 . S
C1560 H1550 0.930 . S
C1560 C1559 1.400 . S
C1560 C1563 1.386 . S
H1561 C1577 0.930 . S
H1562 C1578 0.931 . S
C1563 H1551 0.929 . S
C1563 C1557 1.390 . S
C1563 C1560 1.386 . S
C1564 C1559 1.490 . S
C1564 C1566 1.395 . S
C1564 C1567 1.403 . S
H1565 C1571 0.930 . S
C1566 H1552 0.930 . S
C1566 C1564 1.395 . S
C1566 C1569 1.403 . S
C1567 C1564 1.403 . S
C1567 C1568 1.524 . S
C1567 C1571 1.400 . S
C1568 H1553 0.960 . S
C1568 H1554 0.960 . S
C1568 H1555 0.960 . S
C1568 C1567 1.524 . S
C1569 C1566 1.403 . S
C1569 C1570 1.392 . S
C1569 C1573 1.495 . S
C1570 C1569 1.392 . S
C1570 C1571 1.385 . S
C1570 C1572 1.478 . S
C1571 H1565 0.930 . S
C1571 C1567 1.400 . S
C1571 C1570 1.385 . S
C1572 C1570 1.478 . S
C1572 C1574 1.381 . S
C1572 C1578 1.383 . S
C1573 C1569 1.495 . S
C1573 H1579 0.959 . S
C1573 H1580 0.961 . S
C1573 H1581 0.960 . S
C1574 C1572 1.381 . S
C1574 C1575 1.394 1_556 S
C1574 H1582 0.930 . S
C1575 C1574 1.394 1_554 S
C1575 C1576 1.383 . S
C1575 H1583 0.929 . S
C1576 C1575 1.383 . S
C1576 C1577 1.377 . S
C1577 H1561 0.930 . S
C1577 C1576 1.377 . S
C1577 C1578 1.379 1_554 S
C1578 H1562 0.931 . S
C1578 C1572 1.383 . S
C1578 C1577 1.379 1_556 S
H1579 C1573 0.959 . S
H1580 C1573 0.961 . S
H1581 C1573 0.960 . S
H1582 C1574 0.930 . S
H1583 C1575 0.929 . S
H1584 C1592 0.929 . S
H1585 C1594 0.930 . S
H1586 C1596 0.930 . S
H1587 C1599 0.929 . S
H1588 C1602 0.930 . S
H1589 C1604 0.960 . S
H1590 C1604 0.960 . S
H1591 C1604 0.960 . S
C1592 H1584 0.929 . S
C1592 C1593 1.377 . S
C1592 C1594 1.384 . S
C1593 C1592 1.377 . S
C1593 C1599 1.390 . S
C1594 H1585 0.930 . S
C1594 C1592 1.384 . S
C1594 C1595 1.372 . S
C1595 C1594 1.372 . S
C1595 C1596 1.400 . S
C1595 C1600 1.490 . S
C1596 H1586 0.930 . S
C1596 C1595 1.400 . S
C1596 C1599 1.386 . S
H1597 C1613 0.930 . S
H1598 C1614 0.931 . S
C1599 H1587 0.929 . S
C1599 C1593 1.390 . S
C1599 C1596 1.386 . S
C1600 C1595 1.490 . S
C1600 C1602 1.395 . S
C1600 C1603 1.403 1_455 S
H1601 C1607 0.930 . S
C1602 H1588 0.930 . S
C1602 C1600 1.395 . S
C1602 C1605 1.403 . S
C1603 C1600 1.403 1_655 S
C1603 C1604 1.524 . S
C1603 C1607 1.400 . S
C1604 H1589 0.960 . S
C1604 H1590 0.960 . S
C1604 H1591 0.960 . S
C1604 C1603 1.524 . S
C1605 C1602 1.403 . S
C1605 C1606 1.392 1_455 S
C1605 C1609 1.495 . S
C1606 C1605 1.392 1_655 S
C1606 C1607 1.385 . S
C1606 C1608 1.478 . S
C1607 H1601 0.930 . S
C1607 C1603 1.400 . S
C1607 C1606 1.385 . S
C1608 C1606 1.478 . S
C1608 C1610 1.381 . S
C1608 C1614 1.383 . S
C1609 C1605 1.495 . S
C1609 H1615 0.959 . S
C1609 H1616 0.961 . S
C1609 H1617 0.960 . S
C1610 C1608 1.381 . S
C1610 C1611 1.394 . S
C1610 H1618 0.930 . S
C1611 C1610 1.394 . S
C1611 C1612 1.383 . S
C1611 H1619 0.929 . S
C1612 C1611 1.383 . S
C1612 C1613 1.377 . S
C1613 H1597 0.930 . S
C1613 C1612 1.377 . S
C1613 C1614 1.379 . S
C1614 H1598 0.931 . S
C1614 C1608 1.383 . S
C1614 C1613 1.379 . S
H1615 C1609 0.959 . S
H1616 C1609 0.961 . S
H1617 C1609 0.960 . S
H1618 C1610 0.930 . S
H1619 C1611 0.929 . S
H1620 C1628 0.929 . S
H1621 C1630 0.930 . S
H1622 C1632 0.930 . S
H1623 C1635 0.929 . S
H1624 C1638 0.930 . S
H1625 C1640 0.960 . S
H1626 C1640 0.960 . S
H1627 C1640 0.960 . S
C1628 H1620 0.929 . S
C1628 C1629 1.377 . S
C1628 C1630 1.384 . S
C1629 C1628 1.377 . S
C1629 C1635 1.390 . S
C1630 H1621 0.930 . S
C1630 C1628 1.384 . S
C1630 C1631 1.372 . S
C1631 C1630 1.372 . S
C1631 C1632 1.400 . S
C1631 C1636 1.490 . S
C1632 H1622 0.930 . S
C1632 C1631 1.400 . S
C1632 C1635 1.386 . S
H1633 C1649 0.930 . S
H1634 C1650 0.931 . S
C1635 H1623 0.929 . S
C1635 C1629 1.390 . S
C1635 C1632 1.386 . S
C1636 C1631 1.490 . S
C1636 C1638 1.395 . S
C1636 C1639 1.403 . S
H1637 C1643 0.930 . S
C1638 H1624 0.930 . S
C1638 C1636 1.395 . S
C1638 C1641 1.403 . S
C1639 C1636 1.403 . S
C1639 C1640 1.524 . S
C1639 C1643 1.400 . S
C1640 H1625 0.960 . S
C1640 H1626 0.960 . S
C1640 H1627 0.960 . S
C1640 C1639 1.524 . S
C1641 C1638 1.403 . S
C1641 C1642 1.392 . S
C1641 C1645 1.495 . S
C1642 C1641 1.392 . S
C1642 C1643 1.385 . S
C1642 C1644 1.478 . S
C1643 H1637 0.930 . S
C1643 C1639 1.400 . S
C1643 C1642 1.385 . S
C1644 C1642 1.478 . S
C1644 C1646 1.381 . S
C1644 C1650 1.383 . S
C1645 C1641 1.495 . S
C1645 H1651 0.959 . S
C1645 H1652 0.961 . S
C1645 H1653 0.960 . S
C1646 C1644 1.381 . S
C1646 C1647 1.394 . S
C1646 H1654 0.930 . S
C1647 C1646 1.394 . S
C1647 C1648 1.383 . S
C1647 H1655 0.929 . S
C1648 C1647 1.383 . S
C1648 C1649 1.377 . S
C1649 H1633 0.930 . S
C1649 C1648 1.377 . S
C1649 C1650 1.379 . S
C1650 H1634 0.931 . S
C1650 C1644 1.383 . S
C1650 C1649 1.379 . S
H1651 C1645 0.959 . S
H1652 C1645 0.961 . S
H1653 C1645 0.960 . S
H1654 C1646 0.930 . S
H1655 C1647 0.929 . S
H1656 C1664 0.929 . S
H1657 C1666 0.848 1_565 S
H1658 C1668 0.930 . S
H1659 C1671 0.929 . S
H1660 C1674 0.930 . S
H1661 C1676 0.960 . S
H1662 C1676 0.960 . S
H1663 C1676 0.960 . S
C1664 H1656 0.929 . S
C1664 C1665 1.377 . S
C1664 C1666 1.384 . S
C1665 C1664 1.377 . S
C1665 C1671 1.390 . S
C1666 H1657 0.848 1_545 S
C1666 C1664 1.384 . S
C1666 C1667 1.372 . S
C1667 C1666 1.372 . S
C1667 C1668 1.400 . S
C1667 C1672 1.490 . S
C1668 H1658 0.930 . S
C1668 C1667 1.400 . S
C1668 C1671 1.386 . S
H1669 C1685 0.930 . S
H1670 C1686 0.931 . S
C1671 H1659 0.929 . S
C1671 C1665 1.390 . S
C1671 C1668 1.386 . S
C1672 C1667 1.490 . S
C1672 C1674 1.395 1_545 S
C1672 C1675 1.403 . S
H1673 C1679 0.930 . S
C1674 H1660 0.930 . S
C1674 C1672 1.395 1_565 S
C1674 C1677 1.403 . S
C1675 C1672 1.403 . S
C1675 C1676 1.524 . S
C1675 C1679 1.400 . S
C1676 H1661 0.960 . S
C1676 H1662 0.960 . S
C1676 H1663 0.960 . S
C1676 C1675 1.524 . S
C1677 C1674 1.403 . S
C1677 C1678 1.392 . S
C1677 C1681 1.495 . S
C1678 C1677 1.392 . S
C1678 C1679 1.385 1_565 S
C1678 C1680 1.478 . S
C1679 H1673 0.930 . S
C1679 C1675 1.400 . S
C1679 C1678 1.385 1_545 S
C1680 C1678 1.478 . S
C1680 C1682 1.381 . S
C1680 C1686 1.383 . S
C1681 C1677 1.495 . S
C1681 H1687 0.959 . S
C1681 H1688 0.961 . S
C1681 H1689 0.960 . S
C1682 C1680 1.381 . S
C1682 C1683 1.394 . S
C1682 H1690 0.930 . S
C1683 C1682 1.394 . S
C1683 C1684 1.383 . S
C1683 H1691 0.929 . S
C1684 C1683 1.383 . S
C1684 C1685 1.377 . S
C1685 H1669 0.930 . S
C1685 C1684 1.377 . S
C1685 C1686 1.379 . S
C1686 H1670 0.931 . S
C1686 C1680 1.383 . S
C1686 C1685 1.379 . S
H1687 C1681 0.959 . S
H1688 C1681 0.961 . S
H1689 C1681 0.960 . S
H1690 C1682 0.930 . S
H1691 C1683 0.929 . S
H1692 C1700 0.929 . S
H1693 C1702 0.930 . S
H1694 C1704 0.930 . S
H1695 C1707 0.929 . S
H1696 C1710 0.930 . S
H1697 C1712 0.960 . S
H1698 C1712 0.960 . S
H1699 C1712 0.960 . S
C1700 H1692 0.929 . S
C1700 C1701 1.377 . S
C1700 C1702 1.384 . S
C1701 C1700 1.377 . S
C1701 C1707 1.390 . S
C1702 H1693 0.930 . S
C1702 C1700 1.384 . S
C1702 C1703 1.372 . S
C1703 C1702 1.372 . S
C1703 C1704 1.400 . S
C1703 C1708 1.490 . S
C1704 H1694 0.930 . S
C1704 C1703 1.400 . S
C1704 C1707 1.386 . S
H1705 C1721 0.930 . S
H1706 C1722 0.931 . S
C1707 H1695 0.929 . S
C1707 C1701 1.390 . S
C1707 C1704 1.386 . S
C1708 C1703 1.490 . S
C1708 C1710 1.395 . S
C1708 C1711 1.403 1_565 S
H1709 C1715 0.930 . S
C1710 H1696 0.930 . S
C1710 C1708 1.395 . S
C1710 C1713 1.403 . S
C1711 C1708 1.403 1_545 S
C1711 C1712 1.524 . S
C1711 C1715 1.400 . S
C1712 H1697 0.960 . S
C1712 H1698 0.960 . S
C1712 H1699 0.960 . S
C1712 C1711 1.524 . S
C1713 C1710 1.403 . S
C1713 C1714 1.392 1_565 S
C1713 C1717 1.495 . S
C1714 C1713 1.392 1_545 S
C1714 C1715 1.385 . S
C1714 C1716 1.478 . S
C1715 H1709 0.930 . S
C1715 C1711 1.400 . S
C1715 C1714 1.385 . S
C1716 C1714 1.478 . S
C1716 C1718 1.381 . S
C1716 C1722 1.383 . S
C1717 C1713 1.495 . S
C1717 H1723 0.959 . S
C1717 H1724 0.961 . S
C1717 H1725 0.960 . S
C1718 C1716 1.381 . S
C1718 C1719 1.394 . S
C1718 H1726 0.930 . S
C1719 C1718 1.394 . S
C1719 C1720 1.383 . S
C1719 H1727 0.929 . S
C1720 C1719 1.383 . S
C1720 C1721 1.377 . S
C1721 H1705 0.930 . S
C1721 C1720 1.377 . S
C1721 C1722 1.379 . S
C1722 H1706 0.931 . S
C1722 C1716 1.383 . S
C1722 C1721 1.379 . S
H1723 C1717 0.959 . S
H1724 C1717 0.961 . S
H1725 C1717 0.960 . S
H1726 C1718 0.930 . S
H1727 C1719 0.929 . S
H1728 C1736 0.929 . S
H1729 C1738 0.973 . S
H1730 C1740 0.930 . S
H1731 C1743 0.929 . S
H1732 C1746 0.930 . S
H1733 C1748 0.960 . S
H1734 C1748 0.960 . S
H1735 C1748 0.960 . S
C1736 H1728 0.929 . S
C1736 C1737 1.377 . S
C1736 C1738 1.384 . S
C1737 C1736 1.377 . S
C1737 C1743 1.390 . S
C1738 H1729 0.973 . S
C1738 C1736 1.384 . S
C1738 C1739 1.372 . S
C1739 C1738 1.372 . S
C1739 C1740 1.400 . S
C1739 C1744 1.490 . S
C1740 H1730 0.930 . S
C1740 C1739 1.400 . S
C1740 C1743 1.386 . S
H1741 C1757 0.930 . S
H1742 C1758 0.931 . S
C1743 H1731 0.929 . S
C1743 C1737 1.390 . S
C1743 C1740 1.386 . S
C1744 C1739 1.490 . S
C1744 C1746 1.395 1_655 S
C1744 C1747 1.403 . S
H1745 C1751 0.930 . S
C1746 H1732 0.930 . S
C1746 C1744 1.395 1_455 S
C1746 C1749 1.403 . S
C1747 C1744 1.403 . S
C1747 C1748 1.524 . S
C1747 C1751 1.400 . S
C1748 H1733 0.960 . S
C1748 H1734 0.960 . S
C1748 H1735 0.960 . S
C1748 C1747 1.524 . S
C1749 C1746 1.403 . S
C1749 C1750 1.392 . S
C1749 C1753 1.495 . S
C1750 C1749 1.392 . S
C1750 C1751 1.385 1_455 S
C1750 C1752 1.478 . S
C1751 H1745 0.930 . S
C1751 C1747 1.400 . S
C1751 C1750 1.385 1_655 S
C1752 C1750 1.478 . S
C1752 C1754 1.381 . S
C1752 C1758 1.383 . S
C1753 C1749 1.495 . S
C1753 H1759 0.959 . S
C1753 H1760 0.961 . S
C1753 H1761 0.960 . S
C1754 C1752 1.381 . S
C1754 C1755 1.394 . S
C1754 H1762 0.930 . S
C1755 C1754 1.394 . S
C1755 C1756 1.383 . S
C1755 H1763 0.929 . S
C1756 C1755 1.383 . S
C1756 C1757 1.377 . S
C1757 H1741 0.930 . S
C1757 C1756 1.377 . S
C1757 C1758 1.379 . S
C1758 H1742 0.931 . S
C1758 C1752 1.383 . S
C1758 C1757 1.379 . S
H1759 C1753 0.959 . S
H1760 C1753 0.961 . S
H1761 C1753 0.960 . S
H1762 C1754 0.930 . S
H1763 C1755 0.929 . S
H1764 C1772 0.929 . S
H1765 C1774 0.930 . S
H1766 C1776 0.930 . S
H1767 C1779 0.929 . S
H1768 C1782 0.930 . S
H1769 C1784 0.960 . S
H1770 C1784 0.960 . S
H1771 C1784 0.960 . S
C1772 H1764 0.929 . S
C1772 C1773 1.377 . S
C1772 C1774 1.384 . S
C1773 C1772 1.377 . S
C1773 C1779 1.390 . S
C1774 H1765 0.930 . S
C1774 C1772 1.384 . S
C1774 C1775 1.372 . S
C1775 C1774 1.372 . S
C1775 C1776 1.400 . S
C1775 C1780 1.490 . S
C1776 H1766 0.930 . S
C1776 C1775 1.400 . S
C1776 C1779 1.386 . S
H1777 C1793 0.930 . S
H1778 C1794 0.931 . S
C1779 H1767 0.929 . S
C1779 C1773 1.390 . S
C1779 C1776 1.386 . S
C1780 C1775 1.490 . S
C1780 C1782 1.395 . S
C1780 C1783 1.403 . S
H1781 C1787 0.930 . S
C1782 H1768 0.930 . S
C1782 C1780 1.395 . S
C1782 C1785 1.403 . S
C1783 C1780 1.403 . S
C1783 C1784 1.524 . S
C1783 C1787 1.400 . S
C1784 H1769 0.960 . S
C1784 H1770 0.960 . S
C1784 H1771 0.960 . S
C1784 C1783 1.524 . S
C1785 C1782 1.403 . S
C1785 C1786 1.392 . S
C1785 C1789 1.495 . S
C1786 C1785 1.392 . S
C1786 C1787 1.385 . S
C1786 C1788 1.478 . S
C1787 H1781 0.930 . S
C1787 C1783 1.400 . S
C1787 C1786 1.385 . S
C1788 C1786 1.478 . S
C1788 C1790 1.381 . S
C1788 C1794 1.383 . S
C1789 C1785 1.495 . S
C1789 H1795 0.959 . S
C1789 H1796 0.961 . S
C1789 H1797 0.960 . S
C1790 C1788 1.381 . S
C1790 C1791 1.394 . S
C1790 H1798 0.930 . S
C1791 C1790 1.394 . S
C1791 C1792 1.383 . S
C1791 H1799 0.929 . S
C1792 C1791 1.383 . S
C1792 C1793 1.377 . S
C1793 H1777 0.930 . S
C1793 C1792 1.377 . S
C1793 C1794 1.379 . S
C1794 H1778 0.931 . S
C1794 C1788 1.383 . S
C1794 C1793 1.379 . S
H1795 C1789 0.959 . S
H1796 C1789 0.961 . S
H1797 C1789 0.960 . S
H1798 C1790 0.930 . S
H1799 C1791 0.929 . S
H1800 C1808 0.929 . S
H1801 C1810 0.930 . S
H1802 C1812 0.930 . S
H1803 C1815 0.929 . S
H1804 C1818 0.930 . S
H1805 C1820 0.960 . S
H1806 C1820 0.960 . S
H1807 C1820 0.960 . S
C1808 H1800 0.929 . S
C1808 C1809 1.377 . S
C1808 C1810 1.384 . S
C1809 C1808 1.377 . S
C1809 C1815 1.390 . S
C1810 H1801 0.930 . S
C1810 C1808 1.384 . S
C1810 C1811 1.372 . S
C1811 C1810 1.372 . S
C1811 C1812 1.400 . S
C1811 C1816 1.490 . S
C1812 H1802 0.930 . S
C1812 C1811 1.400 . S
C1812 C1815 1.386 . S
H1813 C1829 0.930 . S
H1814 C1830 0.931 . S
C1815 H1803 0.929 . S
C1815 C1809 1.390 . S
C1815 C1812 1.386 . S
C1816 C1811 1.490 . S
C1816 C1818 1.395 . S
C1816 C1819 1.403 . S
H1817 C1823 0.930 . S
C1818 H1804 0.930 . S
C1818 C1816 1.395 . S
C1818 C1821 1.403 . S
C1819 C1816 1.403 . S
C1819 C1820 1.524 . S
C1819 C1823 1.400 . S
C1820 H1805 0.960 . S
C1820 H1806 0.960 . S
C1820 H1807 0.960 . S
C1820 C1819 1.524 . S
C1821 C1818 1.403 . S
C1821 C1822 1.392 . S
C1821 C1825 1.495 . S
C1822 C1821 1.392 . S
C1822 C1823 1.385 . S
C1822 C1824 1.478 . S
C1823 H1817 0.930 . S
C1823 C1819 1.400 . S
C1823 C1822 1.385 . S
C1824 C1822 1.478 . S
C1824 C1826 1.381 . S
C1824 C1830 1.383 . S
C1825 C1821 1.495 . S
C1825 H1831 0.959 . S
C1825 H1832 0.961 . S
C1825 H1833 0.960 . S
C1826 C1824 1.381 . S
C1826 C1827 1.394 . S
C1826 H1834 0.930 . S
C1827 C1826 1.394 . S
C1827 C1828 1.383 . S
C1827 H1835 0.929 . S
C1828 C1827 1.383 . S
C1828 C1829 1.377 . S
C1829 H1813 0.930 . S
C1829 C1828 1.377 . S
C1829 C1830 1.379 . S
C1830 H1814 0.931 . S
C1830 C1824 1.383 . S
C1830 C1829 1.379 . S
H1831 C1825 0.959 . S
H1832 C1825 0.961 . S
H1833 C1825 0.960 . S
H1834 C1826 0.930 . S
H1835 C1827 0.929 . S
H1836 C1844 0.929 . S
H1837 C1846 0.930 . S
H1838 C1848 0.930 . S
H1839 C1851 0.929 . S
H1840 C1854 0.930 . S
H1841 C1856 0.960 . S
H1842 C1856 0.960 . S
H1843 C1856 0.960 . S
C1844 H1836 0.929 . S
C1844 C1845 1.377 . S
C1844 C1846 1.384 . S
C1845 C1844 1.377 . S
C1845 C1851 1.390 . S
C1846 H1837 0.930 . S
C1846 C1844 1.384 . S
C1846 C1847 1.372 . S
C1847 C1846 1.372 . S
C1847 C1848 1.400 . S
C1847 C1852 1.490 . S
C1848 H1838 0.930 . S
C1848 C1847 1.400 . S
C1848 C1851 1.386 . S
H1849 C1865 0.930 . S
H1850 C1866 0.931 . S
C1851 H1839 0.929 . S
C1851 C1845 1.390 . S
C1851 C1848 1.386 . S
C1852 C1847 1.490 . S
C1852 C1854 1.395 . S
C1852 C1855 1.403 . S
H1853 C1859 0.930 . S
C1854 H1840 0.930 . S
C1854 C1852 1.395 . S
C1854 C1857 1.403 . S
C1855 C1852 1.403 . S
C1855 C1856 1.524 . S
C1855 C1859 1.400 . S
C1856 H1841 0.960 . S
C1856 H1842 0.960 . S
C1856 H1843 0.960 . S
C1856 C1855 1.524 . S
C1857 C1854 1.403 . S
C1857 C1858 1.392 . S
C1857 C1861 1.495 . S
C1858 C1857 1.392 . S
C1858 C1859 1.385 . S
C1858 C1860 1.478 . S
C1859 H1853 0.930 . S
C1859 C1855 1.400 . S
C1859 C1858 1.385 . S
C1860 C1858 1.478 . S
C1860 C1862 1.381 . S
C1860 C1866 1.383 . S
C1861 C1857 1.495 . S
C1861 H1867 0.959 . S
C1861 H1868 0.961 . S
C1861 H1869 0.960 . S
C1862 C1860 1.381 . S
C1862 C1863 1.394 . S
C1862 H1870 0.930 . S
C1863 C1862 1.394 . S
C1863 C1864 1.383 . S
C1863 H1871 0.929 . S
C1864 C1863 1.383 . S
C1864 C1865 1.377 . S
C1865 H1849 0.930 . S
C1865 C1864 1.377 . S
C1865 C1866 1.379 . S
C1866 H1850 0.931 . S
C1866 C1860 1.383 . S
C1866 C1865 1.379 . S
H1867 C1861 0.959 . S
H1868 C1861 0.961 . S
H1869 C1861 0.960 . S
H1870 C1862 0.930 . S
H1871 C1863 0.929 . S
H1872 C1880 0.929 . S
H1873 C1882 0.930 . S
H1874 C1884 0.930 . S
H1875 C1887 0.929 . S
H1876 C1890 0.930 . S
H1877 C1892 0.960 . S
H1878 C1892 0.960 . S
H1879 C1892 0.960 . S
C1880 H1872 0.929 . S
C1880 C1881 1.377 . S
C1880 C1882 1.384 . S
C1881 C1880 1.377 . S
C1881 C1887 1.390 . S
C1882 H1873 0.930 . S
C1882 C1880 1.384 . S
C1882 C1883 1.372 . S
C1883 C1882 1.372 . S
C1883 C1884 1.400 . S
C1883 C1888 1.490 . S
C1884 H1874 0.930 . S
C1884 C1883 1.400 . S
C1884 C1887 1.386 . S
H1885 C1901 0.930 . S
H1886 C1902 0.931 . S
C1887 H1875 0.929 . S
C1887 C1881 1.390 . S
C1887 C1884 1.386 . S
C1888 C1883 1.490 . S
C1888 C1890 1.395 . S
C1888 C1891 1.403 . S
H1889 C1895 0.930 . S
C1890 H1876 0.930 . S
C1890 C1888 1.395 . S
C1890 C1893 1.403 . S
C1891 C1888 1.403 . S
C1891 C1892 1.524 . S
C1891 C1895 1.400 . S
C1892 H1877 0.960 . S
C1892 H1878 0.960 . S
C1892 H1879 0.960 . S
C1892 C1891 1.524 . S
C1893 C1890 1.403 . S
C1893 C1894 1.392 . S
C1893 C1897 1.495 . S
C1894 C1893 1.392 . S
C1894 C1895 1.385 . S
C1894 C1896 1.478 . S
C1895 H1889 0.930 . S
C1895 C1891 1.400 . S
C1895 C1894 1.385 . S
C1896 C1894 1.478 . S
C1896 C1898 1.381 . S
C1896 C1902 1.383 . S
C1897 C1893 1.495 . S
C1897 H1903 0.959 . S
C1897 H1904 0.961 . S
C1897 H1905 0.960 . S
C1898 C1896 1.381 . S
C1898 C1899 1.394 . S
C1898 H1906 0.930 . S
C1899 C1898 1.394 . S
C1899 C1900 1.383 . S
C1899 H1907 0.929 . S
C1900 C1899 1.383 . S
C1900 C1901 1.377 . S
C1901 H1885 0.930 . S
C1901 C1900 1.377 . S
C1901 C1902 1.379 . S
C1902 H1886 0.931 . S
C1902 C1896 1.383 . S
C1902 C1901 1.379 . S
H1903 C1897 0.959 . S
H1904 C1897 0.961 . S
H1905 C1897 0.960 . S
H1906 C1898 0.930 . S
H1907 C1899 0.929 . S
H1908 C1916 0.929 . S
H1909 C1918 0.930 . S
H1910 C1920 0.930 . S
H1911 C1923 0.929 . S
H1912 C1926 0.930 . S
H1913 C1928 0.960 . S
H1914 C1928 0.960 . S
H1915 C1928 0.960 . S
C1916 H1908 0.929 . S
C1916 C1917 1.377 . S
C1916 C1918 1.384 . S
C1917 C1916 1.377 . S
C1917 C1923 1.390 . S
C1918 H1909 0.930 . S
C1918 C1916 1.384 . S
C1918 C1919 1.372 . S
C1919 C1918 1.372 . S
C1919 C1920 1.400 . S
C1919 C1924 1.490 . S
C1920 H1910 0.930 . S
C1920 C1919 1.400 . S
C1920 C1923 1.386 . S
H1921 C1937 0.930 . S
H1922 C1938 0.931 . S
C1923 H1911 0.929 . S
C1923 C1917 1.390 . S
C1923 C1920 1.386 . S
C1924 C1919 1.490 . S
C1924 C1926 1.395 . S
C1924 C1927 1.403 . S
H1925 C1931 0.930 . S
C1926 H1912 0.930 . S
C1926 C1924 1.395 . S
C1926 C1929 1.403 . S
C1927 C1924 1.403 . S
C1927 C1928 1.524 . S
C1927 C1931 1.400 . S
C1928 H1913 0.960 . S
C1928 H1914 0.960 . S
C1928 H1915 0.960 . S
C1928 C1927 1.524 . S
C1929 C1926 1.403 . S
C1929 C1930 1.392 . S
C1929 C1933 1.495 . S
C1930 C1929 1.392 . S
C1930 C1931 1.385 . S
C1930 C1932 1.478 . S
C1931 H1925 0.930 . S
C1931 C1927 1.400 . S
C1931 C1930 1.385 . S
C1932 C1930 1.478 . S
C1932 C1934 1.381 . S
C1932 C1938 1.383 . S
C1933 C1929 1.495 . S
C1933 H1939 0.959 . S
C1933 H1940 0.961 . S
C1933 H1941 0.960 . S
C1934 C1932 1.381 . S
C1934 C1935 1.394 . S
C1934 H1942 0.930 . S
C1935 C1934 1.394 . S
C1935 C1936 1.383 . S
C1935 H1943 0.929 . S
C1936 C1935 1.383 . S
C1936 C1937 1.377 . S
C1937 H1921 0.930 . S
C1937 C1936 1.377 . S
C1937 C1938 1.379 . S
C1938 H1922 0.931 . S
C1938 C1932 1.383 . S
C1938 C1937 1.379 . S
H1939 C1933 0.959 . S
H1940 C1933 0.961 . S
H1941 C1933 0.960 . S
H1942 C1934 0.930 . S
H1943 C1935 0.929 . S
H1944 C1952 0.929 . S
H1945 C1954 0.930 . S
H1946 C1956 0.930 . S
H1947 C1959 0.929 . S
H1948 C1962 0.930 . S
H1949 C1964 0.960 . S
H1950 C1964 0.960 . S
H1951 C1964 0.960 . S
C1952 H1944 0.929 . S
C1952 C1953 1.377 . S
C1952 C1954 1.384 . S
C1953 C1952 1.377 . S
C1953 C1959 1.390 . S
C1954 H1945 0.930 . S
C1954 C1952 1.384 . S
C1954 C1955 1.372 . S
C1955 C1954 1.372 . S
C1955 C1956 1.400 . S
C1955 C1960 1.490 . S
C1956 H1946 0.930 . S
C1956 C1955 1.400 . S
C1956 C1959 1.386 . S
H1957 C1973 0.930 . S
H1958 C1974 0.931 . S
C1959 H1947 0.929 . S
C1959 C1953 1.390 . S
C1959 C1956 1.386 . S
C1960 C1955 1.490 . S
C1960 C1962 1.395 . S
C1960 C1963 1.403 . S
H1961 C1967 0.930 . S
C1962 H1948 0.930 . S
C1962 C1960 1.395 . S
C1962 C1965 1.403 . S
C1963 C1960 1.403 . S
C1963 C1964 1.524 . S
C1963 C1967 1.400 . S
C1964 H1949 0.960 . S
C1964 H1950 0.960 . S
C1964 H1951 0.960 . S
C1964 C1963 1.524 . S
C1965 C1962 1.403 . S
C1965 C1966 1.392 . S
C1965 C1969 1.495 . S
C1966 C1965 1.392 . S
C1966 C1967 1.385 . S
C1966 C1968 1.478 . S
C1967 H1961 0.930 . S
C1967 C1963 1.400 . S
C1967 C1966 1.385 . S
C1968 C1966 1.478 . S
C1968 C1970 1.381 . S
C1968 C1974 1.383 . S
C1969 C1965 1.495 . S
C1969 H1975 0.959 . S
C1969 H1976 0.961 . S
C1969 H1977 0.960 . S
C1970 C1968 1.381 . S
C1970 C1971 1.394 . S
C1970 H1978 0.930 . S
C1971 C1970 1.394 . S
C1971 C1972 1.383 . S
C1971 H1979 0.929 . S
C1972 C1971 1.383 . S
C1972 C1973 1.377 . S
C1973 H1957 0.930 . S
C1973 C1972 1.377 . S
C1973 C1974 1.379 . S
C1974 H1958 0.931 . S
C1974 C1968 1.383 . S
C1974 C1973 1.379 . S
H1975 C1969 0.959 . S
H1976 C1969 0.961 . S
H1977 C1969 0.960 . S
H1978 C1970 0.930 . S
H1979 C1971 0.929 . S
H1980 C1988 0.929 . S
H1981 C1990 0.930 . S
H1982 C1992 0.930 . S
H1983 C1995 0.929 . S
H1984 C1998 0.930 . S
H1985 C2000 0.960 . S
H1986 C2000 0.960 . S
H1987 C2000 0.960 . S
C1988 H1980 0.929 . S
C1988 C1989 1.377 . S
C1988 C1990 1.384 . S
C1989 C1988 1.377 . S
C1989 C1995 1.390 . S
C1990 H1981 0.930 . S
C1990 C1988 1.384 . S
C1990 C1991 1.372 . S
C1991 C1990 1.372 . S
C1991 C1992 1.400 . S
C1991 C1996 1.490 . S
C1992 H1982 0.930 . S
C1992 C1991 1.400 . S
C1992 C1995 1.386 . S
H1993 C2009 0.930 . S
H1994 C2010 0.931 . S
C1995 H1983 0.929 . S
C1995 C1989 1.390 . S
C1995 C1992 1.386 . S
C1996 C1991 1.490 . S
C1996 C1998 1.395 . S
C1996 C1999 1.403 . S
H1997 C2003 0.930 . S
C1998 H1984 0.930 . S
C1998 C1996 1.395 . S
C1998 C2001 1.403 . S
C1999 C1996 1.403 . S
C1999 C2000 1.524 . S
C1999 C2003 1.400 . S
C2000 H1985 0.960 . S
C2000 H1986 0.960 . S
C2000 H1987 0.960 . S
C2000 C1999 1.524 . S
C2001 C1998 1.403 . S
C2001 C2002 1.392 . S
C2001 C2005 1.495 . S
C2002 C2001 1.392 . S
C2002 C2003 1.385 . S
C2002 C2004 1.478 . S
C2003 H1997 0.930 . S
C2003 C1999 1.400 . S
C2003 C2002 1.385 . S
C2004 C2002 1.478 . S
C2004 C2006 1.381 . S
C2004 C2010 1.383 . S
C2005 C2001 1.495 . S
C2005 H2011 0.959 . S
C2005 H2012 0.961 . S
C2005 H2013 0.960 . S
C2006 C2004 1.381 . S
C2006 C2007 1.394 . S
C2006 H2014 0.930 . S
C2007 C2006 1.394 . S
C2007 C2008 1.383 . S
C2007 H2015 0.929 . S
C2008 C2007 1.383 . S
C2008 C2009 1.377 . S
C2009 H1993 0.930 . S
C2009 C2008 1.377 . S
C2009 C2010 1.379 . S
C2010 H1994 0.931 . S
C2010 C2004 1.383 . S
C2010 C2009 1.379 . S
H2011 C2005 0.959 . S
H2012 C2005 0.961 . S
H2013 C2005 0.960 . S
H2014 C2006 0.930 . S
H2015 C2007 0.929 . S
H2016 C2024 0.929 . S
H2017 C2026 0.930 . S
H2018 C2028 0.930 . S
H2019 C2031 0.929 . S
H2020 C2034 0.930 . S
H2021 C2036 0.960 . S
H2022 C2036 0.960 . S
H2023 C2036 0.960 . S
C2024 H2016 0.929 . S
C2024 C2025 1.377 . S
C2024 C2026 1.384 . S
C2025 C2024 1.377 . S
C2025 C2031 1.390 . S
C2026 H2017 0.930 . S
C2026 C2024 1.384 . S
C2026 C2027 1.372 . S
C2027 C2026 1.372 . S
C2027 C2028 1.400 . S
C2027 C2032 1.490 . S
C2028 H2018 0.930 . S
C2028 C2027 1.400 . S
C2028 C2031 1.386 . S
H2029 C2045 0.930 . S
H2030 C2046 0.931 . S
C2031 H2019 0.929 . S
C2031 C2025 1.390 . S
C2031 C2028 1.386 . S
C2032 C2027 1.490 . S
C2032 C2034 1.395 . S
C2032 C2035 1.403 . S
H2033 C2039 0.930 . S
C2034 H2020 0.930 . S
C2034 C2032 1.395 . S
C2034 C2037 1.403 . S
C2035 C2032 1.403 . S
C2035 C2036 1.524 . S
C2035 C2039 1.400 . S
C2036 H2021 0.960 . S
C2036 H2022 0.960 . S
C2036 H2023 0.960 . S
C2036 C2035 1.524 . S
C2037 C2034 1.403 . S
C2037 C2038 1.392 . S
C2037 C2041 1.495 . S
C2038 C2037 1.392 . S
C2038 C2039 1.385 . S
C2038 C2040 1.478 . S
C2039 H2033 0.930 . S
C2039 C2035 1.400 . S
C2039 C2038 1.385 . S
C2040 C2038 1.478 . S
C2040 C2042 1.381 . S
C2040 C2046 1.383 . S
C2041 C2037 1.495 . S
C2041 H2047 0.959 . S
C2041 H2048 0.961 . S
C2041 H2049 0.960 . S
C2042 C2040 1.381 . S
C2042 C2043 1.394 . S
C2042 H2050 0.930 . S
C2043 C2042 1.394 . S
C2043 C2044 1.383 . S
C2043 H2051 0.929 . S
C2044 C2043 1.383 . S
C2044 C2045 1.377 . S
C2045 H2029 0.930 . S
C2045 C2044 1.377 . S
C2045 C2046 1.379 . S
C2046 H2030 0.931 . S
C2046 C2040 1.383 . S
C2046 C2045 1.379 . S
H2047 C2041 0.959 . S
H2048 C2041 0.961 . S
H2049 C2041 0.960 . S
H2050 C2042 0.930 . S
H2051 C2043 0.929 . S
H2052 C2060 0.929 . S
H2053 C2062 0.930 . S
H2054 C2064 0.930 . S
H2055 C2067 0.929 . S
H2056 C2070 0.930 . S
H2057 C2072 0.960 . S
H2058 C2072 0.960 . S
H2059 C2072 0.960 . S
C2060 H2052 0.929 . S
C2060 C2061 1.377 . S
C2060 C2062 1.384 . S
C2061 C2060 1.377 . S
C2061 C2067 1.390 . S
C2062 H2053 0.930 . S
C2062 C2060 1.384 . S
C2062 C2063 1.372 . S
C2063 C2062 1.372 . S
C2063 C2064 1.400 . S
C2063 C2068 1.490 . S
C2064 H2054 0.930 . S
C2064 C2063 1.400 . S
C2064 C2067 1.386 . S
H2065 C2081 0.930 . S
H2066 C2082 0.931 . S
C2067 H2055 0.929 . S
C2067 C2061 1.390 . S
C2067 C2064 1.386 . S
C2068 C2063 1.490 . S
C2068 C2070 1.395 . S
C2068 C2071 1.403 . S
H2069 C2075 0.930 . S
C2070 H2056 0.930 . S
C2070 C2068 1.395 . S
C2070 C2073 1.403 . S
C2071 C2068 1.403 . S
C2071 C2072 1.524 . S
C2071 C2075 1.400 . S
C2072 H2057 0.960 . S
C2072 H2058 0.960 . S
C2072 H2059 0.960 . S
C2072 C2071 1.524 . S
C2073 C2070 1.403 . S
C2073 C2074 1.392 . S
C2073 C2077 1.495 . S
C2074 C2073 1.392 . S
C2074 C2075 1.385 . S
C2074 C2076 1.478 . S
C2075 H2069 0.930 . S
C2075 C2071 1.400 . S
C2075 C2074 1.385 . S
C2076 C2074 1.478 . S
C2076 C2078 1.381 . S
C2076 C2082 1.383 . S
C2077 C2073 1.495 . S
C2077 H2083 0.959 . S
C2077 H2084 0.961 . S
C2077 H2085 0.960 . S
C2078 C2076 1.381 . S
C2078 C2079 1.394 . S
C2078 H2086 0.930 . S
C2079 C2078 1.394 . S
C2079 C2080 1.383 . S
C2079 H2087 0.929 . S
C2080 C2079 1.383 . S
C2080 C2081 1.377 . S
C2081 H2065 0.930 . S
C2081 C2080 1.377 . S
C2081 C2082 1.379 . S
C2082 H2066 0.931 . S
C2082 C2076 1.383 . S
C2082 C2081 1.379 . S
H2083 C2077 0.959 . S
H2084 C2077 0.961 . S
H2085 C2077 0.960 . S
H2086 C2078 0.930 . S
H2087 C2079 0.929 . S
H2088 C2096 0.929 . S
H2089 C2098 0.930 . S
H2090 C2100 0.930 . S
H2091 C2103 0.929 . S
H2092 C2106 0.930 . S
H2093 C2108 0.960 . S
H2094 C2108 0.960 . S
H2095 C2108 0.960 . S
C2096 H2088 0.929 . S
C2096 C2097 1.377 . S
C2096 C2098 1.384 . S
C2097 C2096 1.377 . S
C2097 C2103 1.390 . S
C2098 H2089 0.930 . S
C2098 C2096 1.384 . S
C2098 C2099 1.372 . S
C2099 C2098 1.372 . S
C2099 C2100 1.400 . S
C2099 C2104 1.490 . S
C2100 H2090 0.930 . S
C2100 C2099 1.400 . S
C2100 C2103 1.386 . S
H2101 C2117 0.930 . S
H2102 C2118 0.931 . S
C2103 H2091 0.929 . S
C2103 C2097 1.390 . S
C2103 C2100 1.386 . S
C2104 C2099 1.490 . S
C2104 C2106 1.395 . S
C2104 C2107 1.403 . S
H2105 C2111 0.930 . S
C2106 H2092 0.930 . S
C2106 C2104 1.395 . S
C2106 C2109 1.403 . S
C2107 C2104 1.403 . S
C2107 C2108 1.524 . S
C2107 C2111 1.400 . S
C2108 H2093 0.960 . S
C2108 H2094 0.960 . S
C2108 H2095 0.960 . S
C2108 C2107 1.524 . S
C2109 C2106 1.403 . S
C2109 C2110 1.392 . S
C2109 C2113 1.495 . S
C2110 C2109 1.392 . S
C2110 C2111 1.385 . S
C2110 C2112 1.478 . S
C2111 H2105 0.930 . S
C2111 C2107 1.400 . S
C2111 C2110 1.385 . S
C2112 C2110 1.478 . S
C2112 C2114 1.381 . S
C2112 C2118 1.383 . S
C2113 C2109 1.495 . S
C2113 H2119 0.959 . S
C2113 H2120 0.961 . S
C2113 H2121 0.960 . S
C2114 C2112 1.381 . S
C2114 C2115 1.394 . S
C2114 H2122 0.930 . S
C2115 C2114 1.394 . S
C2115 C2116 1.383 . S
C2115 H2123 0.929 . S
C2116 C2115 1.383 . S
C2116 C2117 1.377 . S
C2117 H2101 0.930 . S
C2117 C2116 1.377 . S
C2117 C2118 1.379 . S
C2118 H2102 0.931 . S
C2118 C2112 1.383 . S
C2118 C2117 1.379 . S
H2119 C2113 0.959 . S
H2120 C2113 0.961 . S
H2121 C2113 0.960 . S
H2122 C2114 0.930 . S
H2123 C2115 0.929 . S
H2124 C2132 0.929 . S
H2125 C2134 0.930 . S
H2126 C2136 0.930 . S
H2127 C2139 0.929 . S
H2128 C2142 0.930 . S
H2129 C2144 0.960 . S
H2130 C2144 0.960 . S
H2131 C2144 0.960 . S
C2132 H2124 0.929 . S
C2132 C2133 1.377 . S
C2132 C2134 1.384 . S
C2133 C2132 1.377 . S
C2133 C2139 1.390 . S
C2134 H2125 0.930 . S
C2134 C2132 1.384 . S
C2134 C2135 1.372 . S
C2135 C2134 1.372 . S
C2135 C2136 1.400 . S
C2135 C2140 1.490 . S
C2136 H2126 0.930 . S
C2136 C2135 1.400 . S
C2136 C2139 1.386 . S
H2137 C2153 0.930 . S
H2138 C2154 0.931 . S
C2139 H2127 0.929 . S
C2139 C2133 1.390 . S
C2139 C2136 1.386 . S
C2140 C2135 1.490 . S
C2140 C2142 1.395 . S
C2140 C2143 1.403 . S
H2141 C2147 0.930 . S
C2142 H2128 0.930 . S
C2142 C2140 1.395 . S
C2142 C2145 1.403 . S
C2143 C2140 1.403 . S
C2143 C2144 1.524 . S
C2143 C2147 1.400 . S
C2144 H2129 0.960 . S
C2144 H2130 0.960 . S
C2144 H2131 0.960 . S
C2144 C2143 1.524 . S
C2145 C2142 1.403 . S
C2145 C2146 1.392 . S
C2145 C2149 1.495 . S
C2146 C2145 1.392 . S
C2146 C2147 1.385 . S
C2146 C2148 1.478 . S
C2147 H2141 0.930 . S
C2147 C2143 1.400 . S
C2147 C2146 1.385 . S
C2148 C2146 1.478 . S
C2148 C2150 1.381 . S
C2148 C2154 1.383 . S
C2149 C2145 1.495 . S
C2149 H2155 0.959 . S
C2149 H2156 0.961 . S
C2149 H2157 0.960 . S
C2150 C2148 1.381 . S
C2150 C2151 1.394 . S
C2150 H2158 0.930 . S
C2151 C2150 1.394 . S
C2151 C2152 1.383 . S
C2151 H2159 0.929 . S
C2152 C2151 1.383 . S
C2152 C2153 1.377 . S
C2153 H2137 0.930 . S
C2153 C2152 1.377 . S
C2153 C2154 1.379 . S
C2154 H2138 0.931 . S
C2154 C2148 1.383 . S
C2154 C2153 1.379 . S
H2155 C2149 0.959 . S
H2156 C2149 0.961 . S
H2157 C2149 0.960 . S
H2158 C2150 0.930 . S
H2159 C2151 0.929 . S
H2160 C2168 0.929 . S
H2161 C2170 0.930 . S
H2162 C2172 0.930 . S
H2163 C2175 0.929 . S
H2164 C2178 0.930 . S
H2165 C2180 0.960 . S
H2166 C2180 0.960 . S
H2167 C2180 0.960 . S
C2168 H2160 0.929 . S
C2168 C2169 1.377 . S
C2168 C2170 1.384 . S
C2169 C2168 1.377 . S
C2169 C2175 1.390 . S
C2170 H2161 0.930 . S
C2170 C2168 1.384 . S
C2170 C2171 1.372 . S
C2171 C2170 1.372 . S
C2171 C2172 1.400 . S
C2171 C2176 1.490 . S
C2172 H2162 0.930 . S
C2172 C2171 1.400 . S
C2172 C2175 1.386 . S
H2173 C2189 0.930 . S
H2174 C2190 0.931 . S
C2175 H2163 0.929 . S
C2175 C2169 1.390 . S
C2175 C2172 1.386 . S
C2176 C2171 1.490 . S
C2176 C2178 1.395 . S
C2176 C2179 1.403 . S
H2177 C2183 0.930 . S
C2178 H2164 0.930 . S
C2178 C2176 1.395 . S
C2178 C2181 1.403 . S
C2179 C2176 1.403 . S
C2179 C2180 1.524 . S
C2179 C2183 1.400 . S
C2180 H2165 0.960 . S
C2180 H2166 0.960 . S
C2180 H2167 0.960 . S
C2180 C2179 1.524 . S
C2181 C2178 1.403 . S
C2181 C2182 1.392 . S
C2181 C2185 1.495 . S
C2182 C2181 1.392 . S
C2182 C2183 1.385 . S
C2182 C2184 1.478 . S
C2183 H2177 0.930 . S
C2183 C2179 1.400 . S
C2183 C2182 1.385 . S
C2184 C2182 1.478 . S
C2184 C2186 1.381 . S
C2184 C2190 1.383 . S
C2185 C2181 1.495 . S
C2185 H2191 0.959 . S
C2185 H2192 0.961 . S
C2185 H2193 0.960 . S
C2186 C2184 1.381 . S
C2186 C2187 1.394 . S
C2186 H2194 0.930 . S
C2187 C2186 1.394 . S
C2187 C2188 1.383 . S
C2187 H2195 0.929 . S
C2188 C2187 1.383 . S
C2188 C2189 1.377 . S
C2189 H2173 0.930 . S
C2189 C2188 1.377 . S
C2189 C2190 1.379 . S
C2190 H2174 0.931 . S
C2190 C2184 1.383 . S
C2190 C2189 1.379 . S
H2191 C2185 0.959 . S
H2192 C2185 0.961 . S
H2193 C2185 0.960 . S
H2194 C2186 0.930 . S
H2195 C2187 0.929 . S
H2196 C2204 0.929 . S
H2197 C2206 0.930 . S
H2198 C2208 0.930 . S
H2199 C2211 0.929 . S
H2200 C2214 0.930 . S
H2201 C2216 0.960 . S
H2202 C2216 0.960 . S
H2203 C2216 0.960 . S
C2204 H2196 0.929 . S
C2204 C2205 1.377 . S
C2204 C2206 1.384 . S
C2205 C2204 1.377 . S
C2205 C2211 1.390 . S
C2206 H2197 0.930 . S
C2206 C2204 1.384 . S
C2206 C2207 1.372 . S
C2207 C2206 1.372 . S
C2207 C2208 1.400 . S
C2207 C2212 1.490 . S
C2208 H2198 0.930 . S
C2208 C2207 1.400 . S
C2208 C2211 1.386 . S
H2209 C2225 0.930 . S
H2210 C2226 0.931 . S
C2211 H2199 0.929 . S
C2211 C2205 1.390 . S
C2211 C2208 1.386 . S
C2212 C2207 1.490 . S
C2212 C2214 1.395 . S
C2212 C2215 1.403 . S
H2213 C2219 0.930 . S
C2214 H2200 0.930 . S
C2214 C2212 1.395 . S
C2214 C2217 1.403 . S
C2215 C2212 1.403 . S
C2215 C2216 1.524 . S
C2215 C2219 1.400 . S
C2216 H2201 0.960 . S
C2216 H2202 0.960 . S
C2216 H2203 0.960 . S
C2216 C2215 1.524 . S
C2217 C2214 1.403 . S
C2217 C2218 1.392 . S
C2217 C2221 1.495 . S
C2218 C2217 1.392 . S
C2218 C2219 1.385 . S
C2218 C2220 1.478 . S
C2219 H2213 0.930 . S
C2219 C2215 1.400 . S
C2219 C2218 1.385 . S
C2220 C2218 1.478 . S
C2220 C2222 1.381 . S
C2220 C2226 1.383 . S
C2221 C2217 1.495 . S
C2221 H2227 0.959 . S
C2221 H2228 0.961 . S
C2221 H2229 0.960 . S
C2222 C2220 1.381 . S
C2222 C2223 1.394 . S
C2222 H2230 0.930 . S
C2223 C2222 1.394 . S
C2223 C2224 1.383 . S
C2223 H2231 0.929 . S
C2224 C2223 1.383 . S
C2224 C2225 1.377 . S
C2225 H2209 0.930 . S
C2225 C2224 1.377 . S
C2225 C2226 1.379 . S
C2226 H2210 0.931 . S
C2226 C2220 1.383 . S
C2226 C2225 1.379 . S
H2227 C2221 0.959 . S
H2228 C2221 0.961 . S
H2229 C2221 0.960 . S
H2230 C2222 0.930 . S
H2231 C2223 0.929 . S
H2232 C2240 0.929 . S
H2233 C2242 0.930 . S
H2234 C2244 0.930 1_655 S
H2235 C2247 0.929 . S
H2236 C2250 0.930 . S
H2237 C2252 0.960 . S
H2238 C2252 0.960 . S
H2239 C2252 0.960 . S
C2240 H2232 0.929 . S
C2240 C2241 1.377 . S
C2240 C2242 1.384 . S
C2241 C2240 1.377 . S
C2241 C2247 1.390 . S
C2242 H2233 0.930 . S
C2242 C2240 1.384 . S
C2242 C2243 1.372 . S
C2243 C2242 1.372 . S
C2243 C2244 1.400 . S
C2243 C2248 1.490 . S
C2244 H2234 0.930 1_455 S
C2244 C2243 1.400 . S
C2244 C2247 1.386 . S
H2245 C2261 0.930 . S
H2246 C2262 0.931 . S
C2247 H2235 0.929 . S
C2247 C2241 1.390 . S
C2247 C2244 1.386 . S
C2248 C2243 1.490 . S
C2248 C2250 1.395 . S
C2248 C2251 1.403 1_455 S
H2249 C2255 0.930 . S
C2250 H2236 0.930 . S
C2250 C2248 1.395 . S
C2250 C2253 1.403 . S
C2251 C2248 1.403 1_655 S
C2251 C2252 1.524 . S
C2251 C2255 1.400 . S
C2252 H2237 0.960 . S
C2252 H2238 0.960 . S
C2252 H2239 0.960 . S
C2252 C2251 1.524 . S
C2253 C2250 1.403 . S
C2253 C2254 1.392 1_455 S
C2253 C2257 1.495 . S
C2254 C2253 1.392 1_655 S
C2254 C2255 1.385 . S
C2254 C2256 1.478 . S
C2255 H2249 0.930 . S
C2255 C2251 1.400 . S
C2255 C2254 1.385 . S
C2256 C2254 1.478 . S
C2256 C2258 1.381 . S
C2256 C2262 1.383 . S
C2257 C2253 1.495 . S
C2257 H2263 0.959 . S
C2257 H2264 0.961 . S
C2257 H2265 0.960 . S
C2258 C2256 1.381 . S
C2258 C2259 1.394 . S
C2258 H2266 0.930 1_655 S
C2259 C2258 1.394 . S
C2259 C2260 1.383 . S
C2259 H2267 0.929 . S
C2260 C2259 1.383 . S
C2260 C2261 1.377 . S
C2261 H2245 0.930 . S
C2261 C2260 1.377 . S
C2261 C2262 1.379 . S
C2262 H2246 0.931 . S
C2262 C2256 1.383 . S
C2262 C2261 1.379 . S
H2263 C2257 0.959 . S
H2264 C2257 0.961 . S
H2265 C2257 0.960 . S
H2266 C2258 0.930 1_455 S
H2267 C2259 0.929 . S
H2268 C2276 0.929 . S
H2269 C2278 0.930 . S
H2270 C2280 0.930 . S
H2271 C2283 0.929 . S
H2272 C2286 0.930 . S
H2273 C2288 0.960 . S
H2274 C2288 0.960 . S
H2275 C2288 0.960 . S
C2276 H2268 0.929 . S
C2276 C2277 1.377 . S
C2276 C2278 1.384 . S
C2277 C2276 1.377 . S
C2277 C2283 1.390 . S
C2278 H2269 0.930 . S
C2278 C2276 1.384 . S
C2278 C2279 1.372 . S
C2279 C2278 1.372 . S
C2279 C2280 1.400 . S
C2279 C2284 1.490 . S
C2280 H2270 0.930 . S
C2280 C2279 1.400 . S
C2280 C2283 1.386 . S
H2281 C2297 0.930 . S
H2282 C2298 0.931 . S
C2283 H2271 0.929 . S
C2283 C2277 1.390 . S
C2283 C2280 1.386 . S
C2284 C2279 1.490 . S
C2284 C2286 1.395 . S
C2284 C2287 1.403 . S
H2285 C2291 0.930 . S
C2286 H2272 0.930 . S
C2286 C2284 1.395 . S
C2286 C2289 1.403 . S
C2287 C2284 1.403 . S
C2287 C2288 1.524 . S
C2287 C2291 1.400 . S
C2288 H2273 0.960 . S
C2288 H2274 0.960 . S
C2288 H2275 0.960 . S
C2288 C2287 1.524 . S
C2289 C2286 1.403 . S
C2289 C2290 1.392 . S
C2289 C2293 1.495 . S
C2290 C2289 1.392 . S
C2290 C2291 1.385 . S
C2290 C2292 1.478 . S
C2291 H2285 0.930 . S
C2291 C2287 1.400 . S
C2291 C2290 1.385 . S
C2292 C2290 1.478 . S
C2292 C2294 1.381 . S
C2292 C2298 1.383 . S
C2293 C2289 1.495 . S
C2293 H2299 0.959 . S
C2293 H2300 0.961 . S
C2293 H2301 0.960 . S
C2294 C2292 1.381 . S
C2294 C2295 1.394 . S
C2294 H2302 0.930 . S
C2295 C2294 1.394 . S
C2295 C2296 1.383 . S
C2295 H2303 0.929 . S
C2296 C2295 1.383 . S
C2296 C2297 1.377 . S
C2297 H2281 0.930 . S
C2297 C2296 1.377 . S
C2297 C2298 1.379 . S
C2298 H2282 0.931 . S
C2298 C2292 1.383 . S
C2298 C2297 1.379 . S
H2299 C2293 0.959 . S
H2300 C2293 0.961 . S
H2301 C2293 0.960 . S
H2302 C2294 0.930 . S
H2303 C2295 0.929 . S
H2304 C2312 0.929 . S
H2305 C2314 0.928 1_565 S
H2306 C2316 0.930 . S
H2307 C2319 0.929 . S
H2308 C2322 0.930 . S
H2309 C2324 0.960 . S
H2310 C2324 0.960 . S
H2311 C2324 0.960 . S
C2312 H2304 0.929 . S
C2312 C2313 1.377 . S
C2312 C2314 1.384 . S
C2313 C2312 1.377 . S
C2313 C2319 1.390 . S
C2314 H2305 0.928 1_545 S
C2314 C2312 1.384 . S
C2314 C2315 1.372 . S
C2315 C2314 1.372 . S
C2315 C2316 1.400 . S
C2315 C2320 1.490 . S
C2316 H2306 0.930 . S
C2316 C2315 1.400 . S
C2316 C2319 1.386 . S
H2317 C2333 0.930 . S
H2318 C2334 0.931 . S
C2319 H2307 0.929 . S
C2319 C2313 1.390 . S
C2319 C2316 1.386 . S
C2320 C2315 1.490 . S
C2320 C2322 1.395 1_545 S
C2320 C2323 1.403 . S
H2321 C2327 0.930 . S
C2322 H2308 0.930 . S
C2322 C2320 1.395 1_565 S
C2322 C2325 1.403 . S
C2323 C2320 1.403 . S
C2323 C2324 1.524 . S
C2323 C2327 1.400 . S
C2324 H2309 0.960 . S
C2324 H2310 0.960 . S
C2324 H2311 0.960 . S
C2324 C2323 1.524 . S
C2325 C2322 1.403 . S
C2325 C2326 1.392 . S
C2325 C2329 1.495 . S
C2326 C2325 1.392 . S
C2326 C2327 1.385 1_565 S
C2326 C2328 1.478 . S
C2327 H2321 0.930 . S
C2327 C2323 1.400 . S
C2327 C2326 1.385 1_545 S
C2328 C2326 1.478 . S
C2328 C2330 1.381 . S
C2328 C2334 1.383 . S
C2329 C2325 1.495 . S
C2329 H2335 0.959 . S
C2329 H2336 0.961 . S
C2329 H2337 0.960 . S
C2330 C2328 1.381 . S
C2330 C2331 1.394 . S
C2330 H2338 0.930 . S
C2331 C2330 1.394 . S
C2331 C2332 1.383 . S
C2331 H2339 0.929 . S
C2332 C2331 1.383 . S
C2332 C2333 1.377 . S
C2333 H2317 0.930 . S
C2333 C2332 1.377 . S
C2333 C2334 1.379 . S
C2334 H2318 0.931 . S
C2334 C2328 1.383 . S
C2334 C2333 1.379 . S
H2335 C2329 0.959 . S
H2336 C2329 0.961 . S
H2337 C2329 0.960 . S
H2338 C2330 0.930 . S
H2339 C2331 0.929 . S
H2340 C2348 0.929 . S
H2341 C2350 0.930 1_554 S
H2342 C2352 0.930 . S
H2343 C2355 0.929 . S
H2344 C2358 0.930 . S
H2345 C2360 0.960 . S
H2346 C2360 0.960 . S
H2347 C2360 0.960 . S
C2348 H2340 0.929 . S
C2348 C2349 1.377 . S
C2348 C2350 1.384 . S
C2349 C2348 1.377 . S
C2349 C2355 1.390 . S
C2350 H2341 0.930 1_556 S
C2350 C2348 1.384 . S
C2350 C2351 1.372 . S
C2351 C2350 1.372 . S
C2351 C2352 1.400 . S
C2351 C2356 1.490 . S
C2352 H2342 0.930 . S
C2352 C2351 1.400 . S
C2352 C2355 1.386 . S
H2353 C2369 0.930 . S
H2354 C2370 0.931 1_556 S
C2355 H2343 0.929 . S
C2355 C2349 1.390 . S
C2355 C2352 1.386 . S
C2356 C2351 1.490 . S
C2356 C2358 1.395 1_546 S
C2356 C2359 1.403 . S
H2357 C2363 0.930 . S
C2358 H2344 0.930 . S
C2358 C2356 1.395 1_564 S
C2358 C2361 1.403 . S
C2359 C2356 1.403 . S
C2359 C2360 1.524 . S
C2359 C2363 1.400 . S
C2360 H2345 0.960 . S
C2360 H2346 0.960 . S
C2360 H2347 0.960 . S
C2360 C2359 1.524 . S
C2361 C2358 1.403 . S
C2361 C2362 1.392 . S
C2361 C2365 1.495 . S
C2362 C2361 1.392 . S
C2362 C2363 1.385 1_564 S
C2362 C2364 1.478 . S
C2363 H2357 0.930 . S
C2363 C2359 1.400 . S
C2363 C2362 1.385 1_546 S
C2364 C2362 1.478 . S
C2364 C2366 1.381 . S
C2364 C2370 1.383 . S
C2365 C2361 1.495 . S
C2365 H2371 0.959 . S
C2365 H2372 0.961 . S
C2365 H2373 0.960 . S
C2366 C2364 1.381 . S
C2366 C2367 1.394 . S
C2366 H2374 0.930 . S
C2367 C2366 1.394 . S
C2367 C2368 1.383 . S
C2367 H2375 0.929 . S
C2368 C2367 1.383 . S
C2368 C2369 1.377 . S
C2369 H2353 0.930 . S
C2369 C2368 1.377 . S
C2369 C2370 1.379 . S
C2370 H2354 0.931 1_554 S
C2370 C2364 1.383 . S
C2370 C2369 1.379 . S
H2371 C2365 0.959 . S
H2372 C2365 0.961 . S
H2373 C2365 0.960 . S
H2374 C2366 0.930 . S
H2375 C2367 0.929 . S
H2376 C2384 0.926 1_556 S
H2377 C2386 0.930 1_556 S
H2378 C2388 0.930 . S
H2379 C2391 0.929 . S
H2380 C2394 0.930 . S
H2381 C2396 0.960 . S
H2382 C2396 0.960 . S
H2383 C2396 0.960 . S
C2384 H2376 0.926 1_554 S
C2384 C2385 1.377 . S
C2384 C2386 1.384 . S
C2385 C2384 1.377 . S
C2385 C2391 1.390 . S
C2386 H2377 0.930 1_554 S
C2386 C2384 1.384 . S
C2386 C2387 1.372 . S
C2387 C2386 1.372 . S
C2387 C2388 1.400 . S
C2387 C2392 1.490 . S
C2388 H2378 0.930 . S
C2388 C2387 1.400 . S
C2388 C2391 1.386 . S
H2389 C2405 0.918 1_554 S
H2390 C2406 0.931 1_554 S
C2391 H2379 0.929 . S
C2391 C2385 1.390 . S
C2391 C2388 1.386 . S
C2392 C2387 1.490 . S
C2392 C2394 1.395 1_554 S
C2392 C2395 1.403 1_455 S
H2393 C2399 0.929 1_554 S
C2394 H2380 0.930 . S
C2394 C2392 1.395 1_556 S
C2394 C2397 1.403 . S
C2395 C2392 1.403 1_655 S
C2395 C2396 1.524 . S
C2395 C2399 1.390 1_554 S
C2396 H2381 0.960 . S
C2396 H2382 0.960 . S
C2396 H2383 0.960 . S
C2396 C2395 1.524 . S
C2397 C2394 1.403 . S
C2397 C2398 1.392 1_455 S
C2397 C2401 1.495 . S
C2398 C2397 1.392 1_655 S
C2398 C2399 1.397 . S
C2398 C2400 1.478 . S
C2399 H2393 0.929 1_556 S
C2399 C2395 1.390 1_556 S
C2399 C2398 1.397 . S
C2400 C2398 1.478 . S
C2400 C2402 1.381 . S
C2400 C2406 1.383 . S
C2401 C2397 1.495 . S
C2401 H2407 0.959 . S
C2401 H2408 0.961 . S
C2401 H2409 0.960 . S
C2402 C2400 1.381 . S
C2402 C2403 1.394 . S
C2402 H2410 0.930 . S
C2403 C2402 1.394 . S
C2403 C2404 1.383 . S
C2403 H2411 0.929 . S
C2404 C2403 1.383 . S
C2404 C2405 1.377 . S
C2405 H2389 0.918 1_556 S
C2405 C2404 1.377 . S
C2405 C2406 1.379 . S
C2406 H2390 0.931 1_556 S
C2406 C2400 1.383 . S
C2406 C2405 1.379 . S
H2407 C2401 0.959 . S
H2408 C2401 0.961 . S
H2409 C2401 0.960 . S
H2410 C2402 0.930 . S
H2411 C2403 0.929 . S
H2412 C2420 0.929 . S
H2413 C2422 0.930 1_556 S
H2414 C2424 0.930 . S
H2415 C2427 0.929 . S
H2416 C2430 0.930 . S
H2417 C2432 0.960 . S
H2418 C2432 0.960 . S
H2419 C2432 0.960 . S
C2420 H2412 0.929 . S
C2420 C2421 1.377 . S
C2420 C2422 1.384 . S
C2421 C2420 1.377 . S
C2421 C2427 1.390 . S
C2422 H2413 0.930 1_554 S
C2422 C2420 1.384 . S
C2422 C2423 1.372 . S
C2423 C2422 1.372 . S
C2423 C2424 1.400 . S
C2423 C2428 1.490 . S
C2424 H2414 0.930 . S
C2424 C2423 1.400 . S
C2424 C2427 1.386 . S
H2425 C2441 0.930 . S
H2426 C2442 0.931 1_554 S
C2427 H2415 0.929 . S
C2427 C2421 1.390 . S
C2427 C2424 1.386 . S
C2428 C2423 1.490 . S
C2428 C2430 1.395 1_554 S
C2428 C2431 1.403 . S
H2429 C2435 0.930 . S
C2430 H2416 0.930 . S
C2430 C2428 1.395 1_556 S
C2430 C2433 1.403 . S
C2431 C2428 1.403 . S
C2431 C2432 1.524 . S
C2431 C2435 1.400 . S
C2432 H2417 0.960 . S
C2432 H2418 0.960 . S
C2432 H2419 0.960 . S
C2432 C2431 1.524 . S
C2433 C2430 1.403 . S
C2433 C2434 1.392 . S
C2433 C2437 1.495 . S
C2434 C2433 1.392 . S
C2434 C2435 1.385 1_556 S
C2434 C2436 1.478 . S
C2435 H2429 0.930 . S
C2435 C2431 1.400 . S
C2435 C2434 1.385 1_554 S
C2436 C2434 1.478 . S
C2436 C2438 1.381 . S
C2436 C2442 1.383 . S
C2437 C2433 1.495 . S
C2437 H2443 0.959 . S
C2437 H2444 0.961 . S
C2437 H2445 0.960 . S
C2438 C2436 1.381 . S
C2438 C2439 1.394 . S
C2438 H2446 0.930 . S
C2439 C2438 1.394 . S
C2439 C2440 1.383 . S
C2439 H2447 0.929 . S
C2440 C2439 1.383 . S
C2440 C2441 1.377 . S
C2441 H2425 0.930 . S
C2441 C2440 1.377 . S
C2441 C2442 1.379 . S
C2442 H2426 0.931 1_556 S
C2442 C2436 1.383 . S
C2442 C2441 1.379 . S
H2443 C2437 0.959 . S
H2444 C2437 0.961 . S
H2445 C2437 0.960 . S
H2446 C2438 0.930 . S
H2447 C2439 0.929 . S
H2448 C2456 0.929 . S
H2449 C2458 0.930 . S
H2450 C2460 0.930 . S
H2451 C2463 0.929 . S
H2452 C2466 0.930 . S
H2453 C2468 0.960 . S
H2454 C2468 0.960 . S
H2455 C2468 0.960 . S
C2456 H2448 0.929 . S
C2456 C2457 1.377 1_554 S
C2456 C2458 1.384 . S
C2457 C2456 1.377 1_556 S
C2457 C2463 1.390 . S
C2458 H2449 0.930 . S
C2458 C2456 1.384 . S
C2458 C2459 1.372 . S
C2459 C2458 1.372 . S
C2459 C2460 1.400 . S
C2459 C2464 1.490 . S
C2460 H2450 0.930 . S
C2460 C2459 1.400 . S
C2460 C2463 1.386 1_554 S
H2461 C2477 0.930 . S
H2462 C2478 0.931 . S
C2463 H2451 0.929 . S
C2463 C2457 1.390 . S
C2463 C2460 1.386 1_556 S
C2464 C2459 1.490 . S
C2464 C2466 1.395 . S
C2464 C2467 1.403 . S
H2465 C2471 0.930 . S
C2466 H2452 0.930 . S
C2466 C2464 1.395 . S
C2466 C2469 1.403 . S
C2467 C2464 1.403 . S
C2467 C2468 1.524 . S
C2467 C2471 1.400 . S
C2468 H2453 0.960 . S
C2468 H2454 0.960 . S
C2468 H2455 0.960 . S
C2468 C2467 1.524 . S
C2469 C2466 1.403 . S
C2469 C2470 1.392 . S
C2469 C2473 1.495 . S
C2470 C2469 1.392 . S
C2470 C2471 1.385 . S
C2470 C2472 1.478 . S
C2471 H2465 0.930 . S
C2471 C2467 1.400 . S
C2471 C2470 1.385 . S
C2472 C2470 1.478 . S
C2472 C2474 1.381 . S
C2472 C2478 1.383 . S
C2473 C2469 1.495 . S
C2473 H2479 0.959 . S
C2473 H2480 0.961 . S
C2473 H2481 0.960 . S
C2474 C2472 1.381 . S
C2474 C2475 1.394 . S
C2474 H2482 0.930 . S
C2475 C2474 1.394 . S
C2475 C2476 1.383 . S
C2475 H2483 0.929 . S
C2476 C2475 1.383 . S
C2476 C2477 1.377 . S
C2477 H2461 0.930 . S
C2477 C2476 1.377 . S
C2477 C2478 1.379 . S
C2478 H2462 0.931 . S
C2478 C2472 1.383 . S
C2478 C2477 1.379 . S
H2479 C2473 0.959 . S
H2480 C2473 0.961 . S
H2481 C2473 0.960 . S
H2482 C2474 0.930 . S
H2483 C2475 0.929 . S
H2484 C2492 0.929 . S
H2485 C2494 0.930 . S
H2486 C2496 0.930 . S
H2487 C2499 0.929 . S
H2488 C2502 0.930 . S
H2489 C2504 0.960 . S
H2490 C2504 0.960 . S
H2491 C2504 0.960 . S
C2492 H2484 0.929 . S
C2492 C2493 1.377 . S
C2492 C2494 1.384 . S
C2493 C2492 1.377 . S
C2493 C2499 1.390 . S
C2494 H2485 0.930 . S
C2494 C2492 1.384 . S
C2494 C2495 1.372 . S
C2495 C2494 1.372 . S
C2495 C2496 1.400 . S
C2495 C2500 1.490 . S
C2496 H2486 0.930 . S
C2496 C2495 1.400 . S
C2496 C2499 1.386 . S
H2497 C2513 0.931 . S
H2498 C2514 0.931 . S
C2499 H2487 0.929 . S
C2499 C2493 1.390 . S
C2499 C2496 1.386 . S
C2500 C2495 1.490 . S
C2500 C2502 1.395 . S
C2500 C2503 1.403 . S
H2501 C2507 0.930 . S
C2502 H2488 0.930 . S
C2502 C2500 1.395 . S
C2502 C2505 1.403 . S
C2503 C2500 1.403 . S
C2503 C2504 1.524 . S
C2503 C2507 1.400 . S
C2504 H2489 0.960 . S
C2504 H2490 0.960 . S
C2504 H2491 0.960 . S
C2504 C2503 1.524 . S
C2505 C2502 1.403 . S
C2505 C2506 1.392 . S
C2505 C2509 1.495 . S
C2506 C2505 1.392 . S
C2506 C2507 1.385 . S
C2506 C2508 1.478 . S
C2507 H2501 0.930 . S
C2507 C2503 1.400 . S
C2507 C2506 1.385 . S
C2508 C2506 1.478 . S
C2508 C2510 1.381 . S
C2508 C2514 1.383 . S
C2509 C2505 1.495 . S
C2509 H2515 0.959 . S
C2509 H2516 0.961 . S
C2509 H2517 0.960 . S
C2510 C2508 1.381 . S
C2510 C2511 1.394 1_554 S
C2510 H2518 0.930 . S
C2511 C2510 1.394 1_556 S
C2511 C2512 1.383 . S
C2511 H2519 0.929 . S
C2512 C2511 1.383 . S
C2512 C2513 1.379 . S
C2513 H2497 0.931 . S
C2513 C2512 1.379 . S
C2513 C2514 1.376 1_556 S
C2514 H2498 0.931 . S
C2514 C2508 1.383 . S
C2514 C2513 1.376 1_554 S
H2515 C2509 0.959 . S
H2516 C2509 0.961 . S
H2517 C2509 0.960 . S
H2518 C2510 0.930 . S
H2519 C2511 0.929 . S
H2520 C2528 0.929 . S
H2521 C2530 0.930 . S
H2522 C2532 0.930 . S
H2523 C2535 0.929 . S
H2524 C2538 0.930 . S
H2525 C2540 0.960 . S
H2526 C2540 0.960 . S
H2527 C2540 0.960 . S
C2528 H2520 0.929 . S
C2528 C2529 1.377 1_554 S
C2528 C2530 1.384 . S
C2529 C2528 1.377 1_556 S
C2529 C2535 1.390 . S
C2530 H2521 0.930 . S
C2530 C2528 1.384 . S
C2530 C2531 1.372 . S
C2531 C2530 1.372 . S
C2531 C2532 1.400 . S
C2531 C2536 1.490 . S
C2532 H2522 0.930 . S
C2532 C2531 1.400 . S
C2532 C2535 1.386 1_554 S
H2533 C2549 0.930 . S
H2534 C2550 0.931 . S
C2535 H2523 0.929 . S
C2535 C2529 1.390 . S
C2535 C2532 1.386 1_556 S
C2536 C2531 1.490 . S
C2536 C2538 1.395 . S
C2536 C2539 1.403 . S
H2537 C2543 0.930 . S
C2538 H2524 0.930 . S
C2538 C2536 1.395 . S
C2538 C2541 1.403 . S
C2539 C2536 1.403 . S
C2539 C2540 1.524 . S
C2539 C2543 1.400 . S
C2540 H2525 0.960 . S
C2540 H2526 0.960 . S
C2540 H2527 0.960 . S
C2540 C2539 1.524 . S
C2541 C2538 1.403 . S
C2541 C2542 1.392 . S
C2541 C2545 1.495 . S
C2542 C2541 1.392 . S
C2542 C2543 1.385 . S
C2542 C2544 1.478 . S
C2543 H2537 0.930 . S
C2543 C2539 1.400 . S
C2543 C2542 1.385 . S
C2544 C2542 1.478 . S
C2544 C2546 1.381 . S
C2544 C2550 1.383 . S
C2545 C2541 1.495 . S
C2545 H2551 0.959 . S
C2545 H2552 0.961 . S
C2545 H2553 0.960 . S
C2546 C2544 1.381 . S
C2546 C2547 1.394 . S
C2546 H2554 0.930 . S
C2547 C2546 1.394 . S
C2547 C2548 1.383 . S
C2547 H2555 0.929 . S
C2548 C2547 1.383 . S
C2548 C2549 1.377 . S
C2549 H2533 0.930 . S
C2549 C2548 1.377 . S
C2549 C2550 1.379 . S
C2550 H2534 0.931 . S
C2550 C2544 1.383 . S
C2550 C2549 1.379 . S
H2551 C2545 0.959 . S
H2552 C2545 0.961 . S
H2553 C2545 0.960 . S
H2554 C2546 0.930 . S
H2555 C2547 0.929 . S
H2556 C2564 0.929 . S
H2557 C2566 0.930 . S
H2558 C2568 0.930 . S
H2559 C2571 0.929 . S
H2560 C2574 0.930 . S
H2561 C2576 0.960 . S
H2562 C2576 0.960 . S
H2563 C2576 0.960 . S
C2564 H2556 0.929 . S
C2564 C2565 1.377 . S
C2564 C2566 1.384 . S
C2565 C2564 1.377 . S
C2565 C2571 1.390 . S
C2566 H2557 0.930 . S
C2566 C2564 1.384 . S
C2566 C2567 1.372 . S
C2567 C2566 1.372 . S
C2567 C2568 1.400 . S
C2567 C2572 1.490 . S
C2568 H2558 0.930 . S
C2568 C2567 1.400 . S
C2568 C2571 1.386 . S
H2569 C2585 0.930 . S
H2570 C2586 0.931 . S
C2571 H2559 0.929 . S
C2571 C2565 1.390 . S
C2571 C2568 1.386 . S
C2572 C2567 1.490 . S
C2572 C2574 1.395 . S
C2572 C2575 1.403 . S
H2573 C2579 0.930 . S
C2574 H2560 0.930 . S
C2574 C2572 1.395 . S
C2574 C2577 1.403 . S
C2575 C2572 1.403 . S
C2575 C2576 1.524 . S
C2575 C2579 1.400 . S
C2576 H2561 0.960 . S
C2576 H2562 0.960 . S
C2576 H2563 0.960 . S
C2576 C2575 1.524 . S
C2577 C2574 1.403 . S
C2577 C2578 1.392 . S
C2577 C2581 1.495 . S
C2578 C2577 1.392 . S
C2578 C2579 1.385 . S
C2578 C2580 1.478 . S
C2579 H2573 0.930 . S
C2579 C2575 1.400 . S
C2579 C2578 1.385 . S
C2580 C2578 1.478 . S
C2580 C2582 1.381 . S
C2580 C2586 1.383 . S
C2581 C2577 1.495 . S
C2581 H2587 0.959 . S
C2581 H2588 0.961 . S
C2581 H2589 0.960 . S
C2582 C2580 1.381 . S
C2582 C2583 1.394 . S
C2582 H2590 0.930 . S
C2583 C2582 1.394 . S
C2583 C2584 1.383 . S
C2583 H2591 0.929 . S
C2584 C2583 1.383 . S
C2584 C2585 1.377 . S
C2585 H2569 0.930 . S
C2585 C2584 1.377 . S
C2585 C2586 1.379 . S
C2586 H2570 0.931 . S
C2586 C2580 1.383 . S
C2586 C2585 1.379 . S
H2587 C2581 0.959 . S
H2588 C2581 0.961 . S
H2589 C2581 0.960 . S
H2590 C2582 0.930 . S
H2591 C2583 0.929 . S
H2592 C2600 0.929 . S
H2593 C2602 0.930 . S
H2594 C2604 0.930 . S
H2595 C2607 0.929 . S
H2596 C2610 0.930 . S
H2597 C2612 0.960 . S
H2598 C2612 0.960 . S
H2599 C2612 0.960 . S
C2600 H2592 0.929 . S
C2600 C2601 1.377 . S
C2600 C2602 1.384 . S
C2601 C2600 1.377 . S
C2601 C2607 1.390 . S
C2602 H2593 0.930 . S
C2602 C2600 1.384 . S
C2602 C2603 1.372 . S
C2603 C2602 1.372 . S
C2603 C2604 1.400 . S
C2603 C2608 1.490 . S
C2604 H2594 0.930 . S
C2604 C2603 1.400 . S
C2604 C2607 1.386 . S
H2605 C2621 0.930 . S
H2606 C2622 0.931 . S
C2607 H2595 0.929 . S
C2607 C2601 1.390 . S
C2607 C2604 1.386 . S
C2608 C2603 1.490 . S
C2608 C2610 1.395 . S
C2608 C2611 1.403 . S
H2609 C2615 0.930 . S
C2610 H2596 0.930 . S
C2610 C2608 1.395 . S
C2610 C2613 1.403 . S
C2611 C2608 1.403 . S
C2611 C2612 1.524 . S
C2611 C2615 1.400 . S
C2612 H2597 0.960 . S
C2612 H2598 0.960 . S
C2612 H2599 0.960 . S
C2612 C2611 1.524 . S
C2613 C2610 1.403 . S
C2613 C2614 1.392 . S
C2613 C2617 1.495 . S
C2614 C2613 1.392 . S
C2614 C2615 1.385 . S
C2614 C2616 1.478 . S
C2615 H2609 0.930 . S
C2615 C2611 1.400 . S
C2615 C2614 1.385 . S
C2616 C2614 1.478 . S
C2616 C2618 1.381 . S
C2616 C2622 1.383 . S
C2617 C2613 1.495 . S
C2617 H2623 0.959 . S
C2617 H2624 0.961 . S
C2617 H2625 0.960 . S
C2618 C2616 1.381 . S
C2618 C2619 1.394 . S
C2618 H2626 0.930 . S
C2619 C2618 1.394 . S
C2619 C2620 1.383 . S
C2619 H2627 0.929 . S
C2620 C2619 1.383 . S
C2620 C2621 1.377 . S
C2621 H2605 0.930 . S
C2621 C2620 1.377 . S
C2621 C2622 1.379 . S
C2622 H2606 0.931 . S
C2622 C2616 1.383 . S
C2622 C2621 1.379 . S
H2623 C2617 0.959 . S
H2624 C2617 0.961 . S
H2625 C2617 0.960 . S
H2626 C2618 0.930 . S
H2627 C2619 0.929 . S
H2628 C2636 0.929 . S
H2629 C2638 0.930 . S
H2630 C2640 0.930 . S
H2631 C2643 0.929 . S
H2632 C2646 0.930 . S
H2633 C2648 0.960 . S
H2634 C2648 0.960 . S
H2635 C2648 0.960 . S
C2636 H2628 0.929 . S
C2636 C2637 1.377 . S
C2636 C2638 1.384 . S
C2637 C2636 1.377 . S
C2637 C2643 1.390 . S
C2638 H2629 0.930 . S
C2638 C2636 1.384 . S
C2638 C2639 1.372 . S
C2639 C2638 1.372 . S
C2639 C2640 1.400 . S
C2639 C2644 1.490 . S
C2640 H2630 0.930 . S
C2640 C2639 1.400 . S
C2640 C2643 1.386 . S
H2641 C2657 0.930 . S
H2642 C2658 0.931 . S
C2643 H2631 0.929 . S
C2643 C2637 1.390 . S
C2643 C2640 1.386 . S
C2644 C2639 1.490 . S
C2644 C2646 1.395 . S
C2644 C2647 1.403 . S
H2645 C2651 0.930 . S
C2646 H2632 0.930 . S
C2646 C2644 1.395 . S
C2646 C2649 1.403 . S
C2647 C2644 1.403 . S
C2647 C2648 1.524 . S
C2647 C2651 1.400 . S
C2648 H2633 0.960 . S
C2648 H2634 0.960 . S
C2648 H2635 0.960 . S
C2648 C2647 1.524 . S
C2649 C2646 1.403 . S
C2649 C2650 1.392 . S
C2649 C2653 1.495 . S
C2650 C2649 1.392 . S
C2650 C2651 1.385 . S
C2650 C2652 1.478 . S
C2651 H2645 0.930 . S
C2651 C2647 1.400 . S
C2651 C2650 1.385 . S
C2652 C2650 1.478 . S
C2652 C2654 1.381 . S
C2652 C2658 1.383 . S
C2653 C2649 1.495 . S
C2653 H2659 0.959 . S
C2653 H2660 0.961 . S
C2653 H2661 0.960 . S
C2654 C2652 1.381 . S
C2654 C2655 1.394 . S
C2654 H2662 0.930 . S
C2655 C2654 1.394 . S
C2655 C2656 1.383 . S
C2655 H2663 0.929 . S
C2656 C2655 1.383 . S
C2656 C2657 1.377 . S
C2657 H2641 0.930 . S
C2657 C2656 1.377 . S
C2657 C2658 1.379 . S
C2658 H2642 0.931 . S
C2658 C2652 1.383 . S
C2658 C2657 1.379 . S
H2659 C2653 0.959 . S
H2660 C2653 0.961 . S
H2661 C2653 0.960 . S
H2662 C2654 0.930 . S
H2663 C2655 0.929 . S
H2664 C2672 0.929 . S
H2665 C2674 0.930 . S
H2666 C2676 0.930 . S
H2667 C2679 0.929 . S
H2668 C2682 0.930 . S
H2669 C2684 0.960 . S
H2670 C2684 0.960 . S
H2671 C2684 0.960 . S
C2672 H2664 0.929 . S
C2672 C2673 1.377 . S
C2672 C2674 1.384 . S
C2673 C2672 1.377 . S
C2673 C2679 1.390 . S
C2674 H2665 0.930 . S
C2674 C2672 1.384 . S
C2674 C2675 1.372 . S
C2675 C2674 1.372 . S
C2675 C2676 1.400 . S
C2675 C2680 1.490 . S
C2676 H2666 0.930 . S
C2676 C2675 1.400 . S
C2676 C2679 1.386 . S
H2677 C2693 0.930 . S
H2678 C2694 0.931 . S
C2679 H2667 0.929 . S
C2679 C2673 1.390 . S
C2679 C2676 1.386 . S
C2680 C2675 1.490 . S
C2680 C2682 1.395 . S
C2680 C2683 1.403 . S
H2681 C2687 0.930 . S
C2682 H2668 0.930 . S
C2682 C2680 1.395 . S
C2682 C2685 1.403 . S
C2683 C2680 1.403 . S
C2683 C2684 1.524 . S
C2683 C2687 1.400 . S
C2684 H2669 0.960 . S
C2684 H2670 0.960 . S
C2684 H2671 0.960 . S
C2684 C2683 1.524 . S
C2685 C2682 1.403 . S
C2685 C2686 1.392 . S
C2685 C2689 1.495 . S
C2686 C2685 1.392 . S
C2686 C2687 1.385 . S
C2686 C2688 1.478 . S
C2687 H2681 0.930 . S
C2687 C2683 1.400 . S
C2687 C2686 1.385 . S
C2688 C2686 1.478 . S
C2688 C2690 1.381 . S
C2688 C2694 1.383 . S
C2689 C2685 1.495 . S
C2689 H2695 0.959 . S
C2689 H2696 0.961 . S
C2689 H2697 0.960 . S
C2690 C2688 1.381 . S
C2690 C2691 1.394 . S
C2690 H2698 0.930 . S
C2691 C2690 1.394 . S
C2691 C2692 1.383 1_556 S
C2691 H2699 0.929 . S
C2692 C2691 1.383 1_554 S
C2692 C2693 1.377 . S
C2693 H2677 0.930 . S
C2693 C2692 1.377 . S
C2693 C2694 1.379 1_554 S
C2694 H2678 0.931 . S
C2694 C2688 1.383 . S
C2694 C2693 1.379 1_556 S
H2695 C2689 0.959 . S
H2696 C2689 0.961 . S
H2697 C2689 0.960 . S
H2698 C2690 0.930 . S
H2699 C2691 0.929 . S
H2700 C2708 0.929 . S
H2701 C2710 0.930 . S
H2702 C2712 0.930 . S
H2703 C2715 0.929 . S
H2704 C2718 0.930 . S
H2705 C2720 0.960 . S
H2706 C2720 0.960 . S
H2707 C2720 0.960 . S
C2708 H2700 0.929 . S
C2708 C2709 1.377 . S
C2708 C2710 1.384 1_554 S
C2709 C2708 1.377 . S
C2709 C2715 1.390 1_554 S
C2710 H2701 0.930 . S
C2710 C2708 1.384 1_556 S
C2710 C2711 1.372 . S
C2711 C2710 1.372 . S
C2711 C2712 1.400 . S
C2711 C2716 1.490 . S
C2712 H2702 0.930 . S
C2712 C2711 1.400 . S
C2712 C2715 1.386 . S
H2713 C2729 0.930 . S
H2714 C2730 0.931 . S
C2715 H2703 0.929 . S
C2715 C2709 1.390 1_556 S
C2715 C2712 1.386 . S
C2716 C2711 1.490 . S
C2716 C2718 1.395 . S
C2716 C2719 1.403 . S
H2717 C2723 0.930 . S
C2718 H2704 0.930 . S
C2718 C2716 1.395 . S
C2718 C2721 1.403 . S
C2719 C2716 1.403 . S
C2719 C2720 1.524 . S
C2719 C2723 1.400 . S
C2720 H2705 0.960 . S
C2720 H2706 0.960 . S
C2720 H2707 0.960 . S
C2720 C2719 1.524 . S
C2721 C2718 1.403 . S
C2721 C2722 1.392 . S
C2721 C2725 1.495 . S
C2722 C2721 1.392 . S
C2722 C2723 1.385 . S
C2722 C2724 1.478 . S
C2723 H2717 0.930 . S
C2723 C2719 1.400 . S
C2723 C2722 1.385 . S
C2724 C2722 1.478 . S
C2724 C2726 1.381 . S
C2724 C2730 1.383 . S
C2725 C2721 1.495 . S
C2725 H2731 0.959 . S
C2725 H2732 0.961 . S
C2725 H2733 0.960 . S
C2726 C2724 1.381 . S
C2726 C2727 1.394 . S
C2726 H2734 0.930 . S
C2727 C2726 1.394 . S
C2727 C2728 1.383 . S
C2727 H2735 0.929 . S
C2728 C2727 1.383 . S
C2728 C2729 1.377 . S
C2729 H2713 0.930 . S
C2729 C2728 1.377 . S
C2729 C2730 1.379 . S
C2730 H2714 0.931 . S
C2730 C2724 1.383 . S
C2730 C2729 1.379 . S
H2731 C2725 0.959 . S
H2732 C2725 0.961 . S
H2733 C2725 0.960 . S
H2734 C2726 0.930 . S
H2735 C2727 0.929 . S
H2736 C2744 0.929 . S
H2737 C2746 0.930 . S
H2738 C2748 0.930 . S
H2739 C2751 0.929 . S
H2740 C2754 0.930 . S
H2741 C2756 0.960 . S
H2742 C2756 0.960 . S
H2743 C2756 0.960 . S
C2744 H2736 0.929 . S
C2744 C2745 1.377 . S
C2744 C2746 1.384 . S
C2745 C2744 1.377 . S
C2745 C2751 1.390 . S
C2746 H2737 0.930 . S
C2746 C2744 1.384 . S
C2746 C2747 1.372 . S
C2747 C2746 1.372 . S
C2747 C2748 1.400 . S
C2747 C2752 1.490 . S
C2748 H2738 0.930 . S
C2748 C2747 1.400 . S
C2748 C2751 1.386 . S
H2749 C2765 0.930 . S
H2750 C2766 0.931 . S
C2751 H2739 0.929 . S
C2751 C2745 1.390 . S
C2751 C2748 1.386 . S
C2752 C2747 1.490 . S
C2752 C2754 1.395 . S
C2752 C2755 1.403 . S
H2753 C2759 0.930 . S
C2754 H2740 0.930 . S
C2754 C2752 1.395 . S
C2754 C2757 1.403 . S
C2755 C2752 1.403 . S
C2755 C2756 1.524 . S
C2755 C2759 1.400 . S
C2756 H2741 0.960 . S
C2756 H2742 0.960 . S
C2756 H2743 0.960 . S
C2756 C2755 1.524 . S
C2757 C2754 1.403 . S
C2757 C2758 1.392 . S
C2757 C2761 1.495 . S
C2758 C2757 1.392 . S
C2758 C2759 1.385 . S
C2758 C2760 1.478 . S
C2759 H2753 0.930 . S
C2759 C2755 1.400 . S
C2759 C2758 1.385 . S
C2760 C2758 1.478 . S
C2760 C2762 1.381 . S
C2760 C2766 1.383 . S
C2761 C2757 1.495 . S
C2761 H2767 0.959 . S
C2761 H2768 0.961 . S
C2761 H2769 0.960 . S
C2762 C2760 1.381 . S
C2762 C2763 1.394 . S
C2762 H2770 0.930 . S
C2763 C2762 1.394 . S
C2763 C2764 1.383 1_556 S
C2763 H2771 0.929 . S
C2764 C2763 1.383 1_554 S
C2764 C2765 1.377 . S
C2765 H2749 0.930 . S
C2765 C2764 1.377 . S
C2765 C2766 1.379 1_554 S
C2766 H2750 0.931 . S
C2766 C2760 1.383 . S
C2766 C2765 1.379 1_556 S
H2767 C2761 0.959 . S
H2768 C2761 0.961 . S
H2769 C2761 0.960 . S
H2770 C2762 0.930 . S
H2771 C2763 0.929 . S
H2772 C2780 0.929 . S
H2773 C2782 0.930 . S
H2774 C2784 0.930 . S
H2775 C2787 0.929 . S
H2776 C2790 0.930 . S
H2777 C2792 0.960 . S
H2778 C2792 0.960 . S
H2779 C2792 0.960 . S
C2780 H2772 0.929 . S
C2780 C2781 1.377 . S
C2780 C2782 1.384 . S
C2781 C2780 1.377 . S
C2781 C2787 1.390 . S
C2782 H2773 0.930 . S
C2782 C2780 1.384 . S
C2782 C2783 1.372 . S
C2783 C2782 1.372 . S
C2783 C2784 1.400 . S
C2783 C2788 1.490 . S
C2784 H2774 0.930 . S
C2784 C2783 1.400 . S
C2784 C2787 1.386 . S
H2785 C2801 0.930 . S
H2786 C2802 0.931 . S
C2787 H2775 0.929 . S
C2787 C2781 1.390 . S
C2787 C2784 1.386 . S
C2788 C2783 1.490 . S
C2788 C2790 1.395 . S
C2788 C2791 1.403 . S
H2789 C2795 0.930 . S
C2790 H2776 0.930 . S
C2790 C2788 1.395 . S
C2790 C2793 1.403 . S
C2791 C2788 1.403 . S
C2791 C2792 1.524 . S
C2791 C2795 1.400 . S
C2792 H2777 0.960 . S
C2792 H2778 0.960 . S
C2792 H2779 0.960 . S
C2792 C2791 1.524 . S
C2793 C2790 1.403 . S
C2793 C2794 1.392 . S
C2793 C2797 1.495 . S
C2794 C2793 1.392 . S
C2794 C2795 1.385 . S
C2794 C2796 1.478 . S
C2795 H2789 0.930 . S
C2795 C2791 1.400 . S
C2795 C2794 1.385 . S
C2796 C2794 1.478 . S
C2796 C2798 1.381 . S
C2796 C2802 1.383 . S
C2797 C2793 1.495 . S
C2797 H2803 0.959 . S
C2797 H2804 0.961 . S
C2797 H2805 0.960 . S
C2798 C2796 1.381 . S
C2798 C2799 1.394 . S
C2798 H2806 0.930 . S
C2799 C2798 1.394 . S
C2799 C2800 1.383 . S
C2799 H2807 0.929 . S
C2800 C2799 1.383 . S
C2800 C2801 1.377 . S
C2801 H2785 0.930 . S
C2801 C2800 1.377 . S
C2801 C2802 1.379 . S
C2802 H2786 0.931 . S
C2802 C2796 1.383 . S
C2802 C2801 1.379 . S
H2803 C2797 0.959 . S
H2804 C2797 0.961 . S
H2805 C2797 0.960 . S
H2806 C2798 0.930 . S
H2807 C2799 0.929 . S
H2808 C2816 0.929 . S
H2809 C2818 0.930 . S
H2810 C2820 0.930 . S
H2811 C2823 0.929 . S
H2812 C2826 0.930 . S
H2813 C2828 0.960 . S
H2814 C2828 0.960 . S
H2815 C2828 0.960 . S
C2816 H2808 0.929 . S
C2816 C2817 1.377 . S
C2816 C2818 1.384 . S
C2817 C2816 1.377 . S
C2817 C2823 1.390 . S
C2818 H2809 0.930 . S
C2818 C2816 1.384 . S
C2818 C2819 1.372 . S
C2819 C2818 1.372 . S
C2819 C2820 1.400 . S
C2819 C2824 1.490 . S
C2820 H2810 0.930 . S
C2820 C2819 1.400 . S
C2820 C2823 1.386 . S
H2821 C2837 0.930 . S
H2822 C2838 0.931 . S
C2823 H2811 0.929 . S
C2823 C2817 1.390 . S
C2823 C2820 1.386 . S
C2824 C2819 1.490 . S
C2824 C2826 1.395 . S
C2824 C2827 1.403 . S
H2825 C2831 0.930 . S
C2826 H2812 0.930 . S
C2826 C2824 1.395 . S
C2826 C2829 1.403 . S
C2827 C2824 1.403 . S
C2827 C2828 1.524 . S
C2827 C2831 1.400 . S
C2828 H2813 0.960 . S
C2828 H2814 0.960 . S
C2828 H2815 0.960 . S
C2828 C2827 1.524 . S
C2829 C2826 1.403 . S
C2829 C2830 1.392 . S
C2829 C2833 1.495 . S
C2830 C2829 1.392 . S
C2830 C2831 1.385 . S
C2830 C2832 1.478 . S
C2831 H2825 0.930 . S
C2831 C2827 1.400 . S
C2831 C2830 1.385 . S
C2832 C2830 1.478 . S
C2832 C2834 1.381 . S
C2832 C2838 1.383 . S
C2833 C2829 1.495 . S
C2833 H2839 0.959 . S
C2833 H2840 0.961 . S
C2833 H2841 0.960 . S
C2834 C2832 1.381 . S
C2834 C2835 1.394 . S
C2834 H2842 0.930 . S
C2835 C2834 1.394 . S
C2835 C2836 1.383 . S
C2835 H2843 0.929 . S
C2836 C2835 1.383 . S
C2836 C2837 1.377 . S
C2837 H2821 0.930 . S
C2837 C2836 1.377 . S
C2837 C2838 1.379 . S
C2838 H2822 0.931 . S
C2838 C2832 1.383 . S
C2838 C2837 1.379 . S
H2839 C2833 0.959 . S
H2840 C2833 0.961 . S
H2841 C2833 0.960 . S
H2842 C2834 0.930 . S
H2843 C2835 0.929 . S
H2844 C2852 0.929 . S
H2845 C2854 0.930 . S
H2846 C2856 0.930 . S
H2847 C2859 0.929 . S
H2848 C2862 0.930 . S
H2849 C2864 0.960 . S
H2850 C2864 0.960 . S
H2851 C2864 0.960 . S
C2852 H2844 0.929 . S
C2852 C2853 1.377 . S
C2852 C2854 1.384 . S
C2853 C2852 1.377 . S
C2853 C2859 1.390 . S
C2854 H2845 0.930 . S
C2854 C2852 1.384 . S
C2854 C2855 1.372 . S
C2855 C2854 1.372 . S
C2855 C2856 1.400 . S
C2855 C2860 1.490 . S
C2856 H2846 0.930 . S
C2856 C2855 1.400 . S
C2856 C2859 1.386 . S
H2857 C2873 0.930 . S
H2858 C2874 0.931 . S
C2859 H2847 0.929 . S
C2859 C2853 1.390 . S
C2859 C2856 1.386 . S
C2860 C2855 1.490 . S
C2860 C2862 1.395 . S
C2860 C2863 1.403 . S
H2861 C2867 0.930 . S
C2862 H2848 0.930 . S
C2862 C2860 1.395 . S
C2862 C2865 1.403 . S
C2863 C2860 1.403 . S
C2863 C2864 1.524 . S
C2863 C2867 1.400 . S
C2864 H2849 0.960 . S
C2864 H2850 0.960 . S
C2864 H2851 0.960 . S
C2864 C2863 1.524 . S
C2865 C2862 1.403 . S
C2865 C2866 1.392 . S
C2865 C2869 1.495 . S
C2866 C2865 1.392 . S
C2866 C2867 1.385 . S
C2866 C2868 1.478 . S
C2867 H2861 0.930 . S
C2867 C2863 1.400 . S
C2867 C2866 1.385 . S
C2868 C2866 1.478 . S
C2868 C2870 1.381 . S
C2868 C2874 1.383 . S
C2869 C2865 1.495 . S
C2869 H2875 0.959 . S
C2869 H2876 0.961 . S
C2869 H2877 0.960 . S
C2870 C2868 1.381 . S
C2870 C2871 1.394 . S
C2870 H2878 0.930 . S
C2871 C2870 1.394 . S
C2871 C2872 1.383 . S
C2871 H2879 0.929 . S
C2872 C2871 1.383 . S
C2872 C2873 1.377 . S
C2873 H2857 0.930 . S
C2873 C2872 1.377 . S
C2873 C2874 1.379 . S
C2874 H2858 0.931 . S
C2874 C2868 1.383 . S
C2874 C2873 1.379 . S
H2875 C2869 0.959 . S
H2876 C2869 0.961 . S
H2877 C2869 0.960 . S
H2878 C2870 0.930 . S
H2879 C2871 0.929 . S
H2880 C2888 0.929 . S
H2881 C2890 0.930 . S
H2882 C2892 0.930 . S
H2883 C2895 0.929 . S
H2884 C2898 0.930 . S
H2885 C2900 0.960 . S
H2886 C2900 0.960 . S
H2887 C2900 0.960 . S
C2888 H2880 0.929 . S
C2888 C2889 1.377 . S
C2888 C2890 1.384 . S
C2889 C2888 1.377 . S
C2889 C2895 1.390 . S
C2890 H2881 0.930 . S
C2890 C2888 1.384 . S
C2890 C2891 1.372 . S
C2891 C2890 1.372 . S
C2891 C2892 1.400 . S
C2891 C2896 1.490 . S
C2892 H2882 0.930 . S
C2892 C2891 1.400 . S
C2892 C2895 1.386 . S
H2893 C2909 0.930 . S
H2894 C2910 0.931 . S
C2895 H2883 0.929 . S
C2895 C2889 1.390 . S
C2895 C2892 1.386 . S
C2896 C2891 1.490 . S
C2896 C2898 1.395 . S
C2896 C2899 1.403 . S
H2897 C2903 0.930 . S
C2898 H2884 0.930 . S
C2898 C2896 1.395 . S
C2898 C2901 1.403 . S
C2899 C2896 1.403 . S
C2899 C2900 1.524 . S
C2899 C2903 1.400 . S
C2900 H2885 0.960 . S
C2900 H2886 0.960 . S
C2900 H2887 0.960 . S
C2900 C2899 1.524 . S
C2901 C2898 1.403 . S
C2901 C2902 1.392 . S
C2901 C2905 1.495 . S
C2902 C2901 1.392 . S
C2902 C2903 1.385 . S
C2902 C2904 1.478 . S
C2903 H2897 0.930 . S
C2903 C2899 1.400 . S
C2903 C2902 1.385 . S
C2904 C2902 1.478 . S
C2904 C2906 1.381 . S
C2904 C2910 1.383 . S
C2905 C2901 1.495 . S
C2905 H2911 0.959 . S
C2905 H2912 0.961 . S
C2905 H2913 0.960 . S
C2906 C2904 1.381 . S
C2906 C2907 1.394 . S
C2906 H2914 0.930 . S
C2907 C2906 1.394 . S
C2907 C2908 1.383 . S
C2907 H2915 0.929 . S
C2908 C2907 1.383 . S
C2908 C2909 1.377 . S
C2909 H2893 0.930 . S
C2909 C2908 1.377 . S
C2909 C2910 1.379 . S
C2910 H2894 0.931 . S
C2910 C2904 1.383 . S
C2910 C2909 1.379 . S
H2911 C2905 0.959 . S
H2912 C2905 0.961 . S
H2913 C2905 0.960 . S
H2914 C2906 0.930 . S
H2915 C2907 0.929 . S
H2916 C2924 0.929 . S
H2917 C2926 0.930 . S
H2918 C2928 0.930 . S
H2919 C2931 0.929 . S
H2920 C2934 0.930 . S
H2921 C2936 0.960 . S
H2922 C2936 0.960 . S
H2923 C2936 0.960 . S
C2924 H2916 0.929 . S
C2924 C2925 1.377 . S
C2924 C2926 1.384 . S
C2925 C2924 1.377 . S
C2925 C2931 1.390 . S
C2926 H2917 0.930 . S
C2926 C2924 1.384 . S
C2926 C2927 1.372 . S
C2927 C2926 1.372 . S
C2927 C2928 1.400 . S
C2927 C2932 1.490 . S
C2928 H2918 0.930 . S
C2928 C2927 1.400 . S
C2928 C2931 1.386 . S
H2929 C2945 0.930 . S
H2930 C2946 0.931 . S
C2931 H2919 0.929 . S
C2931 C2925 1.390 . S
C2931 C2928 1.386 . S
C2932 C2927 1.490 . S
C2932 C2934 1.395 . S
C2932 C2935 1.403 1_545 S
H2933 C2939 0.930 . S
C2934 H2920 0.930 . S
C2934 C2932 1.395 . S
C2934 C2937 1.403 . S
C2935 C2932 1.403 1_565 S
C2935 C2936 1.524 . S
C2935 C2939 1.400 . S
C2936 H2921 0.960 . S
C2936 H2922 0.960 . S
C2936 H2923 0.960 . S
C2936 C2935 1.524 . S
C2937 C2934 1.403 . S
C2937 C2938 1.392 1_545 S
C2937 C2941 1.495 . S
C2938 C2937 1.392 1_565 S
C2938 C2939 1.385 . S
C2938 C2940 1.478 . S
C2939 H2933 0.930 . S
C2939 C2935 1.400 . S
C2939 C2938 1.385 . S
C2940 C2938 1.478 . S
C2940 C2942 1.381 . S
C2940 C2946 1.383 . S
C2941 C2937 1.495 . S
C2941 H2947 0.959 . S
C2941 H2948 0.961 . S
C2941 H2949 0.960 . S
C2942 C2940 1.381 . S
C2942 C2943 1.394 . S
C2942 H2950 0.930 . S
C2943 C2942 1.394 . S
C2943 C2944 1.383 . S
C2943 H2951 0.929 . S
C2944 C2943 1.383 . S
C2944 C2945 1.377 . S
C2945 H2929 0.930 . S
C2945 C2944 1.377 . S
C2945 C2946 1.379 . S
C2946 H2930 0.931 . S
C2946 C2940 1.383 . S
C2946 C2945 1.379 . S
H2947 C2941 0.959 . S
H2948 C2941 0.961 . S
H2949 C2941 0.960 . S
H2950 C2942 0.930 . S
H2951 C2943 0.929 . S
H2952 C2960 0.929 . S
H2953 C2962 0.930 . S
H2954 C2964 0.930 . S
H2955 C2967 0.929 . S
H2956 C2970 0.930 . S
H2957 C2972 0.960 . S
H2958 C2972 0.960 . S
H2959 C2972 0.951 1_655 S
C2960 H2952 0.929 . S
C2960 C2961 1.377 . S
C2960 C2962 1.384 . S
C2961 C2960 1.377 . S
C2961 C2967 1.390 . S
C2962 H2953 0.930 . S
C2962 C2960 1.384 . S
C2962 C2963 1.372 . S
C2963 C2962 1.372 . S
C2963 C2964 1.400 . S
C2963 C2968 1.490 . S
C2964 H2954 0.930 . S
C2964 C2963 1.400 . S
C2964 C2967 1.386 . S
H2965 C2981 0.930 . S
H2966 C2982 0.931 . S
C2967 H2955 0.929 . S
C2967 C2961 1.390 . S
C2967 C2964 1.386 . S
C2968 C2963 1.490 . S
C2968 C2970 1.395 . S
C2968 C2971 1.403 1_655 S
H2969 C2975 0.930 . S
C2970 H2956 0.930 . S
C2970 C2968 1.395 . S
C2970 C2973 1.403 . S
C2971 C2968 1.403 1_455 S
C2971 C2972 1.524 . S
C2971 C2975 1.400 . S
C2972 H2957 0.960 . S
C2972 H2958 0.960 . S
C2972 H2959 0.951 1_455 S
C2972 C2971 1.524 . S
C2973 C2970 1.403 . S
C2973 C2974 1.392 1_655 S
C2973 C2977 1.495 . S
C2974 C2973 1.392 1_455 S
C2974 C2975 1.385 . S
C2974 C2976 1.478 . S
C2975 H2969 0.930 . S
C2975 C2971 1.400 . S
C2975 C2974 1.385 . S
C2976 C2974 1.478 . S
C2976 C2978 1.381 . S
C2976 C2982 1.383 . S
C2977 C2973 1.495 . S
C2977 H2983 0.959 . S
C2977 H2984 0.961 . S
C2977 H2985 0.951 1_655 S
C2978 C2976 1.381 . S
C2978 C2979 1.394 . S
C2978 H2986 0.930 . S
C2979 C2978 1.394 . S
C2979 C2980 1.383 . S
C2979 H2987 0.929 . S
C2980 C2979 1.383 . S
C2980 C2981 1.377 . S
C2981 H2965 0.930 . S
C2981 C2980 1.377 . S
C2981 C2982 1.379 . S
C2982 H2966 0.931 . S
C2982 C2976 1.383 . S
C2982 C2981 1.379 . S
H2983 C2977 0.959 . S
H2984 C2977 0.961 . S
H2985 C2977 0.951 1_455 S
H2986 C2978 0.930 . S
H2987 C2979 0.929 . S
H2988 C2996 0.929 . S
H2989 C2998 0.930 . S
H2990 C3000 0.930 . S
H2991 C3003 0.929 . S
H2992 C3006 0.930 . S
H2993 C3008 0.960 . S
H2994 C3008 0.960 . S
H2995 C3008 0.960 . S
C2996 H2988 0.929 . S
C2996 C2997 1.377 . S
C2996 C2998 1.384 . S
C2997 C2996 1.377 . S
C2997 C3003 1.390 . S
C2998 H2989 0.930 . S
C2998 C2996 1.384 . S
C2998 C2999 1.372 . S
C2999 C2998 1.372 . S
C2999 C3000 1.400 . S
C2999 C3004 1.490 . S
C3000 H2990 0.930 . S
C3000 C2999 1.400 . S
C3000 C3003 1.386 . S
H3001 C3017 0.930 . S
H3002 C3018 0.931 . S
C3003 H2991 0.929 . S
C3003 C2997 1.390 . S
C3003 C3000 1.386 . S
C3004 C2999 1.490 . S
C3004 C3006 1.395 . S
C3004 C3007 1.403 . S
H3005 C3011 0.930 . S
C3006 H2992 0.930 . S
C3006 C3004 1.395 . S
C3006 C3009 1.403 . S
C3007 C3004 1.403 . S
C3007 C3008 1.524 . S
C3007 C3011 1.400 . S
C3008 H2993 0.960 . S
C3008 H2994 0.960 . S
C3008 H2995 0.960 . S
C3008 C3007 1.524 . S
C3009 C3006 1.403 . S
C3009 C3010 1.392 . S
C3009 C3013 1.495 . S
C3010 C3009 1.392 . S
C3010 C3011 1.385 . S
C3010 C3012 1.478 . S
C3011 H3005 0.930 . S
C3011 C3007 1.400 . S
C3011 C3010 1.385 . S
C3012 C3010 1.478 . S
C3012 C3014 1.381 . S
C3012 C3018 1.383 . S
C3013 C3009 1.495 . S
C3013 H3019 0.959 . S
C3013 H3020 0.961 . S
C3013 H3021 0.960 . S
C3014 C3012 1.381 . S
C3014 C3015 1.394 . S
C3014 H3022 0.930 . S
C3015 C3014 1.394 . S
C3015 C3016 1.383 . S
C3015 H3023 0.929 . S
C3016 C3015 1.383 . S
C3016 C3017 1.377 . S
C3017 H3001 0.930 . S
C3017 C3016 1.377 . S
C3017 C3018 1.379 . S
C3018 H3002 0.931 . S
C3018 C3012 1.383 . S
C3018 C3017 1.379 . S
H3019 C3013 0.959 . S
H3020 C3013 0.961 . S
H3021 C3013 0.960 . S
H3022 C3014 0.930 . S
H3023 C3015 0.929 . S
H3024 C3032 0.929 . S
H3025 C3034 0.930 . S
H3026 C3036 0.930 . S
H3027 C3039 0.929 . S
H3028 C3042 0.930 . S
H3029 C3044 0.960 . S
H3030 C3044 0.960 . S
H3031 C3044 0.960 . S
C3032 H3024 0.929 . S
C3032 C3033 1.377 . S
C3032 C3034 1.384 . S
C3033 C3032 1.377 . S
C3033 C3039 1.390 . S
C3034 H3025 0.930 . S
C3034 C3032 1.384 . S
C3034 C3035 1.372 . S
C3035 C3034 1.372 . S
C3035 C3036 1.400 . S
C3035 C3040 1.490 . S
C3036 H3026 0.930 . S
C3036 C3035 1.400 . S
C3036 C3039 1.386 . S
H3037 C3053 0.930 . S
H3038 C3054 0.931 . S
C3039 H3027 0.929 . S
C3039 C3033 1.390 . S
C3039 C3036 1.386 . S
C3040 C3035 1.490 . S
C3040 C3042 1.395 1_545 S
C3040 C3043 1.403 . S
H3041 C3047 0.915 . S
C3042 H3028 0.930 . S
C3042 C3040 1.395 1_565 S
C3042 C3045 1.403 . S
C3043 C3040 1.403 . S
C3043 C3044 1.524 . S
C3043 C3047 1.444 . S
C3044 H3029 0.960 . S
C3044 H3030 0.960 . S
C3044 H3031 0.960 . S
C3044 C3043 1.524 . S
C3045 C3042 1.403 . S
C3045 C3046 1.392 . S
C3045 C3049 1.495 . S
C3046 C3045 1.392 . S
C3046 C3047 1.363 1_565 S
C3046 C3048 1.478 . S
C3047 H3041 0.915 . S
C3047 C3043 1.444 . S
C3047 C3046 1.363 1_545 S
C3048 C3046 1.478 . S
C3048 C3050 1.381 . S
C3048 C3054 1.383 . S
C3049 C3045 1.495 . S
C3049 H3055 0.959 . S
C3049 H3056 0.961 . S
C3049 H3057 0.960 . S
C3050 C3048 1.381 . S
C3050 C3051 1.394 . S
C3050 H3058 0.930 . S
C3051 C3050 1.394 . S
C3051 C3052 1.383 . S
C3051 H3059 0.929 . S
C3052 C3051 1.383 . S
C3052 C3053 1.377 . S
C3053 H3037 0.930 . S
C3053 C3052 1.377 . S
C3053 C3054 1.379 . S
C3054 H3038 0.931 . S
C3054 C3048 1.383 . S
C3054 C3053 1.379 . S
H3055 C3049 0.959 . S
H3056 C3049 0.961 . S
H3057 C3049 0.960 . S
H3058 C3050 0.930 . S
H3059 C3051 0.929 . S
H3060 C3068 0.929 . S
H3061 C3070 0.930 . S
H3062 C3072 0.930 . S
H3063 C3075 0.929 . S
H3064 C3078 0.930 . S
H3065 C3080 0.960 . S
H3066 C3080 0.960 . S
H3067 C3080 0.960 . S
C3068 H3060 0.929 . S
C3068 C3069 1.377 . S
C3068 C3070 1.384 . S
C3069 C3068 1.377 . S
C3069 C3075 1.390 . S
C3070 H3061 0.930 . S
C3070 C3068 1.384 . S
C3070 C3071 1.372 . S
C3071 C3070 1.372 . S
C3071 C3072 1.400 . S
C3071 C3076 1.490 . S
C3072 H3062 0.930 . S
C3072 C3071 1.400 . S
C3072 C3075 1.386 . S
H3073 C3089 0.930 . S
H3074 C3090 0.931 . S
C3075 H3063 0.929 . S
C3075 C3069 1.390 . S
C3075 C3072 1.386 . S
C3076 C3071 1.490 . S
C3076 C3078 1.395 . S
C3076 C3079 1.403 . S
H3077 C3083 0.930 . S
C3078 H3064 0.930 . S
C3078 C3076 1.395 . S
C3078 C3081 1.403 1_455 S
C3079 C3076 1.403 . S
C3079 C3080 1.524 . S
C3079 C3083 1.400 1_455 S
C3080 H3065 0.960 . S
C3080 H3066 0.960 . S
C3080 H3067 0.960 . S
C3080 C3079 1.524 . S
C3081 C3078 1.403 1_655 S
C3081 C3082 1.392 . S
C3081 C3085 1.495 . S
C3082 C3081 1.392 . S
C3082 C3083 1.385 . S
C3082 C3084 1.478 . S
C3083 H3077 0.930 . S
C3083 C3079 1.400 1_655 S
C3083 C3082 1.385 . S
C3084 C3082 1.478 . S
C3084 C3086 1.381 . S
C3084 C3090 1.383 . S
C3085 C3081 1.495 . S
C3085 H3091 0.959 . S
C3085 H3092 0.961 . S
C3085 H3093 0.960 . S
C3086 C3084 1.381 . S
C3086 C3087 1.394 . S
C3086 H3094 0.930 . S
C3087 C3086 1.394 . S
C3087 C3088 1.383 . S
C3087 H3095 0.929 . S
C3088 C3087 1.383 . S
C3088 C3089 1.377 . S
C3089 H3073 0.930 . S
C3089 C3088 1.377 . S
C3089 C3090 1.379 . S
C3090 H3074 0.931 . S
C3090 C3084 1.383 . S
C3090 C3089 1.379 . S
H3091 C3085 0.959 . S
H3092 C3085 0.961 . S
H3093 C3085 0.960 . S
H3094 C3086 0.930 . S
H3095 C3087 0.929 . S
C513 C75 0.621 . S
C532 C5 0.614 . S
C549 C47 0.617 . S
C568 C19 0.634 . S
C585 C33 0.617 . S
C604 C61 0.634 . S
C621 C89 0.617 . S
C640 C159 0.608 . S
C657 C103 0.620 . S
C676 C131 0.631 . S
C693 C145 0.620 . S
C712 C117 0.633 . S
C729 C173 0.617 . S
C748 C243 0.636 . S
C765 C187 0.617 . S
C784 C215 0.632 . S
C801 C229 0.621 . S
C820 C201 0.619 . S
C837 C327 0.619 . S
C856 C257 0.608 . S
C873 C299 0.617 . S
C892 C271 0.608 . S
C909 C285 0.617 . S
C928 C313 0.609 . S
C945 C411 0.617 . S
C964 C341 0.635 . S
C981 C383 0.618 . S
C1000 C355 0.631 . S
C1017 C369 0.617 . S
C1036 C397 0.634 . S
C1053 C495 0.623 . S
C1072 C425 0.624 . S
C1089 C467 0.620 . S
C1108 C439 0.612 . S
C1125 C481 0.621 . S
C1144 C453 0.634 . S
C1161 C233 1.439 . S
C1180 C9 1.452 . S
C1197 C247 1.440 . S
C1216 C23 1.405 . S
C1233 C219 1.436 . S
C1252 C37 1.421 . S
C1269 C51 1.448 . S
C1288 C373 1.476 . S
C1305 C65 1.439 . S
C1324 C345 1.405 . S
C1341 C79 1.447 . S
C1360 C359 1.426 . S
C1377 C93 1.450 . S
C1396 C485 1.467 . S
C1413 C499 1.436 . S
C1432 C107 1.438 . S
C1449 C471 1.448 . S
C1468 C121 1.474 . S
C1485 C289 1.449 . S
C1504 C135 1.425 . S
C1521 C261 1.446 . S
C1540 C149 1.413 . S
C1557 C163 1.440 . S
C1576 C275 1.405 . S
C1593 C177 1.441 . S
C1612 C401 1.406 . S
C1629 C415 1.448 . S
C1648 C191 1.476 . S
C1665 C387 1.441 . S
C1684 C205 1.459 . S
C1701 C303 1.438 . S
C1720 C457 1.410 . S
C1737 C429 1.441 . S
C1756 C317 1.470 . S
C1773 C331 1.443 . S
C1792 C443 1.406 . S
C1809 C263 1.565 . S
C1828 C11 1.571 . S
C1845 C277 1.563 . S
C1864 C25 1.555 . S
C1881 C39 1.563 . S
C1900 C291 1.553 . S
C1917 C53 1.565 . S
C1936 C473 1.551 . S
C1953 C487 1.565 . S
C1972 C67 1.571 . S
C1989 C501 1.566 . S
C2008 C81 1.556 . S
C2025 C95 1.567 . S
C2044 C347 1.574 . S
C2061 C109 1.564 . S
C2080 C361 1.550 . S
C2097 C375 1.565 . S
C2116 C123 1.551 . S
C2133 C137 1.565 . S
C2152 C221 1.570 . S
C2169 C151 1.564 . S
C2188 C235 1.550 . S
C2205 C249 1.566 . S
C2224 C165 1.553 . S
C2241 C179 1.565 . S
C2260 C431 1.551 . S
C2277 C193 1.563 . S
C2296 C445 1.567 . S
C2313 C459 1.566 . S
C2332 C207 1.573 . S
C2349 C389 1.568 . S
C2368 C305 1.569 . S
C2385 C319 1.564 . S
C2404 C403 1.550 . S
C2421 C333 1.563 . S
C2440 C417 1.553 . S
C2457 C378 1.561 . S
C2476 C0 1.583 . S
C2493 C14 1.559 . S
C2512 C392 1.549 . S
C2529 C406 1.558 . S
C2548 C28 1.562 . S
C2565 C42 1.566 . S
C2584 C168 1.574 . S
C2601 C182 1.558 . S
C2620 C56 1.572 . S
C2637 C196 1.567 . S
C2656 C70 1.557 . S
C2673 C84 1.558 . S
C2692 C294 1.578 . S
C2709 C308 1.558 . S
C2728 C98 1.578 . S
C2745 C112 1.560 . S
C2764 C322 1.581 . S
C2781 C126 1.563 . S
C2800 C420 1.579 . S
C2817 C140 1.560 . S
C2836 C434 1.552 . S
C2853 C448 1.559 . S
C2872 C154 1.556 . S
C2889 C210 1.567 . S
C2908 C336 1.555 . S
C2925 C224 1.558 . S
C2944 C350 1.550 . S
C2961 C238 1.560 . S
C2980 C364 1.541 . S
C2997 C252 1.567 . S
C3016 C462 1.545 . S
C3033 C266 1.561 . S
C3052 C476 1.545 . S
C3069 C490 1.565 . S
C3088 C280 1.536 . S
