# Generated by pormake.
# Topology snx, (6)-cn, num edge types: 1
# Building blocks:
#     Node 0, Type 0, BuildingBlock: IZENUY_clean_sbu_0, # of connection points: 6
#     Node 1, Type 0, BuildingBlock: IZENUY_clean_sbu_0, # of connection points: 6
#     Node 2, Type 0, BuildingBlock: IZENUY_clean_sbu_0, # of connection points: 6
#     Node 3, Type 0, BuildingBlock: IZENUY_clean_sbu_0, # of connection points: 6
#     Node 4, Type 0, BuildingBlock: IZENUY_clean_sbu_0, # of connection points: 6
#     Node 5, Type 0, BuildingBlock: IZENUY_clean_sbu_0, # of connection points: 6
#     Edge 6, Type (0, 0), BuildingBlock: UVAHIK_clean_linker_0, # of connection points: 2
#     Edge 7, Type (0, 0), BuildingBlock: UVAHIK_clean_linker_0, # of connection points: 2
#     Edge 8, Type (0, 0), BuildingBlock: UVAHIK_clean_linker_0, # of connection points: 2
#     Edge 9, Type (0, 0), BuildingBlock: UVAHIK_clean_linker_0, # of connection points: 2
#     Edge 10, Type (0, 0), BuildingBlock: UVAHIK_clean_linker_0, # of connection points: 2
#     Edge 11, Type (0, 0), BuildingBlock: UVAHIK_clean_linker_0, # of connection points: 2
#     Edge 12, Type (0, 0), BuildingBlock: UVAHIK_clean_linker_0, # of connection points: 2
#     Edge 13, Type (0, 0), BuildingBlock: UVAHIK_clean_linker_0, # of connection points: 2
#     Edge 14, Type (0, 0), BuildingBlock: UVAHIK_clean_linker_0, # of connection points: 2
#     Edge 15, Type (0, 0), BuildingBlock: UVAHIK_clean_linker_0, # of connection points: 2
#     Edge 16, Type (0, 0), BuildingBlock: UVAHIK_clean_linker_0, # of connection points: 2
#     Edge 17, Type (0, 0), BuildingBlock: UVAHIK_clean_linker_0, # of connection points: 2
#     Edge 18, Type (0, 0), BuildingBlock: UVAHIK_clean_linker_0, # of connection points: 2
#     Edge 19, Type (0, 0), BuildingBlock: UVAHIK_clean_linker_0, # of connection points: 2
#     Edge 20, Type (0, 0), BuildingBlock: UVAHIK_clean_linker_0, # of connection points: 2
#     Edge 21, Type (0, 0), BuildingBlock: UVAHIK_clean_linker_0, # of connection points: 2
#     Edge 22, Type (0, 0), BuildingBlock: UVAHIK_clean_linker_0, # of connection points: 2
#     Edge 23, Type (0, 0), BuildingBlock: UVAHIK_clean_linker_0, # of connection points: 2
# Relax obj value: 0.026
# Max RMSD: 0.068
# Mean RMSD: 0.067
data_MOF--net-snx--node1-IZENUY_clean_sbu_0--edge1-UVAHIK_clean_linker_0
_symmetry_space_group_name_H-M    P1
_symmetry_Int_Tables_number       1
_symmetry_cell_setting            triclinic
loop_
_symmetry_equiv_pos_as_xyz
'x, y, z'
_cell_length_a     46.048263
_cell_length_b     46.116496
_cell_length_c     27.702396
_cell_angle_alpha  89.926918
_cell_angle_beta   90.104464
_cell_angle_gamma 120.10644
loop_
_atom_site_label
_atom_site_type_symbol
_atom_site_fract_x
_atom_site_fract_y
_atom_site_fract_z
_atom_type_partial_charge
Fe0 Fe 0.17384 0.33607 0.25934 0.0
Fe1 Fe 0.20722 0.40295 0.31464 0.0
O2 O 0.19558 0.38054 0.25935 0.0
Fe3 Fe 0.20586 0.40281 0.20389 0.0
O4 O 0.16212 0.38353 0.18681 0.0
O5 O 0.14882 0.33184 0.20501 0.0
O6 O 0.13946 0.33365 0.29447 0.0
C7 C 0.14258 0.34762 0.33478 0.0
C8 C 0.21641 0.34857 0.18346 0.0
O9 O 0.17069 0.37154 0.34837 0.0
C10 C 0.26373 0.44095 0.25464 0.0
O11 O 0.19486 0.33239 0.31364 0.0
O12 O 0.23212 0.38438 0.33255 0.0
O13 O 0.211 0.37162 0.16986 0.0
O14 O 0.20663 0.33503 0.22428 0.0
C15 C 0.18719 0.44059 0.26358 0.0
O16 O 0.24605 0.43842 0.2911 0.0
O17 O 0.25044 0.42361 0.2173 0.0
C18 C 0.22145 0.35335 0.33541 0.0
O19 O 0.18308 0.42322 0.30085 0.0
O20 O 0.20243 0.43815 0.22722 0.0
C21 C 0.14232 0.35235 0.18378 0.0
Fe22 Fe 0.80869 0.20297 0.70228 0.0
Fe23 Fe 0.80973 0.20445 0.81299 0.0
O24 O 0.82017 0.19233 0.7579 0.0
Fe25 Fe 0.84189 0.1696 0.75861 0.0
O26 O 0.87632 0.20143 0.7232 0.0
O27 O 0.84526 0.20806 0.66894 0.0
O28 O 0.83277 0.24751 0.71562 0.0
C29 C 0.82841 0.26074 0.75263 0.0
C30 C 0.79442 0.13901 0.68246 0.0
O31 O 0.81309 0.24304 0.78898 0.0
C32 C 0.79943 0.13986 0.83479 0.0
O33 O 0.76979 0.19959 0.72539 0.0
O34 O 0.76516 0.18045 0.79936 0.0
O35 O 0.82086 0.14458 0.70459 0.0
O36 O 0.78385 0.15944 0.68472 0.0
C37 C 0.87328 0.21781 0.83366 0.0
O38 O 0.80464 0.16836 0.8477 0.0
O39 O 0.80911 0.13587 0.79407 0.0
C40 C 0.75198 0.18445 0.7618 0.0
O41 O 0.85345 0.22913 0.83026 0.0
O42 O 0.86688 0.19075 0.81275 0.0
C43 C 0.87331 0.21225 0.68276 0.0
Fe44 Fe 0.67897 0.84111 0.2603 0.0
Fe45 Fe 0.61276 0.807 0.2033 0.0
O46 O 0.63444 0.81821 0.25927 0.0
Fe47 Fe 0.61144 0.80647 0.31408 0.0
O48 O 0.62981 0.8497 0.33313 0.0
O49 O 0.68207 0.86483 0.31526 0.0
O50 O 0.68044 0.87554 0.22607 0.0
C51 C 0.6673 0.87229 0.18497 0.0
C52 C 0.66652 0.79699 0.33453 0.0
O53 O 0.64426 0.844 0.1706 0.0
C54 C 0.57451 0.7495 0.26112 0.0
O55 O 0.68384 0.82147 0.20545 0.0
O56 O 0.63238 0.78303 0.18573 0.0
O57 O 0.64261 0.80114 0.34799 0.0
O58 O 0.68091 0.80844 0.29458 0.0
C59 C 0.57397 0.82565 0.25424 0.0
O60 O 0.57728 0.76772 0.22527 0.0
O61 O 0.59126 0.76221 0.29911 0.0
C62 C 0.66368 0.79482 0.18316 0.0
O63 O 0.59163 0.83032 0.21709 0.0
O64 O 0.57612 0.8099 0.29026 0.0
C65 C 0.66086 0.8701 0.33674 0.0
Fe66 Fe 0.84531 0.67695 0.76098 0.0
Fe67 Fe 0.81213 0.61014 0.81609 0.0
O68 O 0.82269 0.63247 0.76079 0.0
Fe69 Fe 0.8107 0.61036 0.70533 0.0
O70 O 0.84768 0.64151 0.67209 0.0
O71 O 0.87964 0.67824 0.72683 0.0
O72 O 0.86933 0.68077 0.8161 0.0
C73 C 0.87556 0.66016 0.83742 0.0
C74 C 0.79851 0.66112 0.68435 0.0
O75 O 0.85584 0.62903 0.83349 0.0
C76 C 0.75411 0.57226 0.76552 0.0
O77 O 0.8125 0.67864 0.79515 0.0
O78 O 0.807 0.64153 0.84962 0.0
O79 O 0.78657 0.62991 0.68789 0.0
O80 O 0.82547 0.68137 0.70592 0.0
C81 C 0.8298 0.57169 0.75575 0.0
O82 O 0.76757 0.58955 0.80279 0.0
O83 O 0.77153 0.57519 0.72856 0.0
C84 C 0.80178 0.66466 0.83558 0.0
O85 O 0.81532 0.57468 0.79264 0.0
O86 O 0.83399 0.58914 0.71856 0.0
C87 C 0.87625 0.66428 0.68637 0.0
Fe88 Fe 0.17506 0.84106 0.26178 0.0
Fe89 Fe 0.20862 0.80795 0.20667 0.0
O90 O 0.19746 0.81903 0.262 0.0
Fe91 Fe 0.20874 0.8081 0.31752 0.0
O92 O 0.16522 0.78358 0.33608 0.0
O93 O 0.15148 0.82148 0.31729 0.0
O94 O 0.14029 0.80773 0.22851 0.0
C95 C 0.14309 0.79652 0.1883 0.0
C96 C 0.21882 0.87307 0.33597 0.0
O97 O 0.17139 0.80181 0.17377 0.0
C98 C 0.26601 0.82776 0.2652 0.0
O99 O 0.19446 0.8646 0.20612 0.0
O100 O 0.23286 0.85145 0.18808 0.0
O101 O 0.21421 0.845 0.35024 0.0
O102 O 0.20823 0.87599 0.2952 0.0
C103 C 0.18962 0.7509 0.25913 0.0
O104 O 0.24788 0.81212 0.22932 0.0
O105 O 0.2532 0.83187 0.30298 0.0
C106 C 0.22123 0.87096 0.18446 0.0
O107 O 0.18526 0.76358 0.22136 0.0
O108 O 0.20507 0.76906 0.29509 0.0
C109 C 0.14544 0.79493 0.33934 0.0
Fe110 Fe 0.40559 0.20555 0.70649 0.0
Fe111 Fe 0.40455 0.20245 0.8172 0.0
O112 O 0.38279 0.19323 0.7614 0.0
Fe113 Fe 0.3383 0.17162 0.76064 0.0
O114 O 0.33631 0.13761 0.7249 0.0
O115 O 0.37409 0.16981 0.67151 0.0
O116 O 0.42561 0.18098 0.71938 0.0
C117 C 0.44236 0.18412 0.75709 0.0
C118 C 0.35625 0.22018 0.68606 0.0
O119 O 0.43983 0.19896 0.79384 0.0
C120 C 0.35042 0.21335 0.83736 0.0
O121 O 0.44109 0.24367 0.73143 0.0
O122 O 0.42597 0.24726 0.8054 0.0
O123 O 0.33514 0.19317 0.70665 0.0
O124 O 0.38734 0.23096 0.68959 0.0
C125 C 0.35354 0.13892 0.83525 0.0
O126 O 0.37316 0.20744 0.85113 0.0
O127 O 0.33715 0.2041 0.79623 0.0
C128 C 0.44366 0.26089 0.76846 0.0
O129 O 0.38482 0.1584 0.83261 0.0
O130 O 0.3334 0.14619 0.81462 0.0
C131 C 0.35022 0.14148 0.68432 0.0
C132 C 0.1712 0.47803 0.30788 0.0
C133 C 0.17832 0.46733 0.26426 0.0
C134 C 0.16621 0.50556 0.30863 0.0
C135 C 0.14745 0.56002 0.23219 0.0
H136 H 0.20102 0.62835 0.32637 0.0
C137 C 0.17624 0.69731 0.21716 0.0
C138 C 0.18032 0.71519 0.26005 0.0
C139 C 0.17101 0.66467 0.21876 0.0
C140 C 0.18533 0.60935 0.30039 0.0
H141 H 0.18396 0.47601 0.18694 0.0
H142 H 0.17514 0.52384 0.18835 0.0
H143 H 0.19975 0.57506 0.32795 0.0
H144 H 0.17985 0.71217 0.3382 0.0
H145 H 0.16971 0.65514 0.34104 0.0
H146 H 0.13315 0.59444 0.20443 0.0
C147 C 0.17348 0.51103 0.22193 0.0
C148 C 0.18467 0.57877 0.3013 0.0
C149 C 0.17878 0.48376 0.22121 0.0
C150 C 0.17736 0.69923 0.30449 0.0
C151 C 0.17173 0.66656 0.3061 0.0
C152 C 0.14787 0.59058 0.2315 0.0
C153 C 0.16784 0.52267 0.26575 0.0
C154 C 0.16604 0.55391 0.26692 0.0
C155 C 0.16936 0.64914 0.2633 0.0
C156 C 0.16711 0.61579 0.26532 0.0
H157 H 0.17056 0.46586 0.34165 0.0
H158 H 0.16156 0.51379 0.34289 0.0
H159 H 0.13264 0.54119 0.20546 0.0
H160 H 0.17844 0.70898 0.18236 0.0
H161 H 0.16959 0.65218 0.18504 0.0
C162 C 0.7006 0.17643 0.71891 0.0
C163 C 0.71624 0.17543 0.76206 0.0
C164 C 0.66785 0.17081 0.71922 0.0
C165 C 0.60955 0.17932 0.79883 0.0
H166 H 0.54402 0.13008 0.69884 0.0
C167 C 0.48073 0.16986 0.80131 0.0
C168 C 0.46852 0.17446 0.75716 0.0
C169 C 0.50789 0.1644 0.80253 0.0
C170 C 0.56213 0.14413 0.72681 0.0
H171 H 0.70913 0.16635 0.83915 0.0
H172 H 0.65186 0.15671 0.83967 0.0
H173 H 0.59722 0.1303 0.70022 0.0
H174 H 0.4743 0.17552 0.67945 0.0
H175 H 0.52247 0.16686 0.68152 0.0
H176 H 0.57535 0.1942 0.82459 0.0
C177 C 0.66517 0.16209 0.80566 0.0
C178 C 0.59254 0.14415 0.72768 0.0
C179 C 0.69789 0.16746 0.80532 0.0
C180 C 0.48314 0.17202 0.71403 0.0
C181 C 0.51068 0.16693 0.71526 0.0
C182 C 0.57934 0.17949 0.79779 0.0
C183 C 0.65 0.16424 0.76271 0.0
C184 C 0.61667 0.16195 0.76354 0.0
C185 C 0.52387 0.16382 0.75965 0.0
C186 C 0.55528 0.16207 0.76163 0.0
H187 H 0.71392 0.18226 0.68487 0.0
H188 H 0.65699 0.17292 0.6856 0.0
H189 H 0.62788 0.1938 0.82637 0.0
H190 H 0.46962 0.17106 0.83516 0.0
H191 H 0.51674 0.16121 0.83728 0.0
C192 C 0.31753 0.47821 0.21056 0.0
C193 C 0.2995 0.46761 0.25408 0.0
C194 C 0.35033 0.50548 0.20998 0.0
C195 C 0.42378 0.55909 0.28695 0.0
H196 H 0.44036 0.62778 0.19253 0.0
C197 C 0.5338 0.69585 0.30278 0.0
C198 C 0.54805 0.71376 0.26 0.0
C199 C 0.50613 0.66329 0.30093 0.0
C200 C 0.43655 0.60867 0.21858 0.0
H201 H 0.30242 0.47625 0.3314 0.0
H202 H 0.35954 0.52366 0.33027 0.0
H203 H 0.38764 0.57494 0.19062 0.0
H204 H 0.54607 0.71082 0.18184 0.0
H205 H 0.49871 0.65391 0.17859 0.0
H206 H 0.47268 0.59297 0.31514 0.0
C207 C 0.34835 0.51095 0.29665 0.0
C208 C 0.40622 0.57834 0.21747 0.0
C209 C 0.31551 0.48393 0.2972 0.0
C210 C 0.53527 0.69785 0.21546 0.0
C211 C 0.50797 0.66526 0.21361 0.0
C212 C 0.45432 0.58939 0.28784 0.0
C213 C 0.36588 0.52244 0.25293 0.0
C214 C 0.39932 0.55337 0.25195 0.0
C215 C 0.49243 0.64787 0.25626 0.0
C216 C 0.46094 0.61472 0.25395 0.0
H217 H 0.30599 0.46611 0.17675 0.0
H218 H 0.36339 0.5136 0.1758 0.0
H219 H 0.41925 0.54016 0.31374 0.0
H220 H 0.54307 0.70747 0.33765 0.0
H221 H 0.49468 0.6508 0.33454 0.0
C222 C 0.8355 0.52659 0.79695 0.0
C223 C 0.83755 0.54416 0.75442 0.0
C224 C 0.83924 0.49842 0.79556 0.0
C225 C 0.86841 0.45113 0.7217 0.0
H226 H 0.80231 0.37622 0.79727 0.0
C227 C 0.84402 0.31429 0.70813 0.0
C228 C 0.8367 0.2962 0.75165 0.0
C229 C 0.84793 0.34645 0.70731 0.0
C230 C 0.82125 0.39699 0.77645 0.0
H231 H 0.84683 0.54682 0.67732 0.0
H232 H 0.85295 0.49714 0.67488 0.0
H233 H 0.80243 0.42889 0.79799 0.0
H234 H 0.83014 0.29864 0.82882 0.0
H235 H 0.83736 0.35453 0.8274 0.0
H236 H 0.88691 0.41869 0.6999 0.0
C237 C 0.84864 0.50539 0.70933 0.0
C238 C 0.82133 0.42724 0.77688 0.0
C239 C 0.845 0.53378 0.71073 0.0
C240 C 0.83518 0.31161 0.79454 0.0
C241 C 0.83919 0.34363 0.79372 0.0
C242 C 0.86831 0.42068 0.72125 0.0
C243 C 0.84496 0.48694 0.75161 0.0
C244 C 0.84509 0.4548 0.74996 0.0
C245 C 0.84467 0.36107 0.74998 0.0
C246 C 0.84491 0.3934 0.74907 0.0
H247 H 0.8303 0.53417 0.83135 0.0
H248 H 0.83707 0.48524 0.82897 0.0
H249 H 0.88708 0.47195 0.70068 0.0
H250 H 0.84544 0.30314 0.67448 0.0
H251 H 0.85209 0.35925 0.67302 0.0
C252 C 0.53703 0.84295 0.21093 0.0
C253 C 0.5475 0.83494 0.25411 0.0
C254 C 0.50993 0.84869 0.21084 0.0
C255 C 0.45666 0.86786 0.28936 0.0
H256 H 0.38771 0.81719 0.19431 0.0
C257 C 0.31971 0.84045 0.3067 0.0
C258 C 0.30186 0.83748 0.26407 0.0
C259 C 0.35234 0.84556 0.30452 0.0
C260 C 0.40691 0.83209 0.22057 0.0
H261 H 0.53888 0.82844 0.33139 0.0
H262 H 0.49179 0.83847 0.33113 0.0
H263 H 0.44047 0.81729 0.19139 0.0
H264 H 0.30498 0.84001 0.18594 0.0
H265 H 0.36199 0.84993 0.18216 0.0
H266 H 0.4229 0.88243 0.31884 0.0
C267 C 0.50444 0.8403 0.29738 0.0
C268 C 0.43719 0.83209 0.21887 0.0
C269 C 0.53127 0.83427 0.29742 0.0
C270 C 0.31791 0.84161 0.21943 0.0
C271 C 0.35055 0.84711 0.21726 0.0
C272 C 0.4264 0.86808 0.29088 0.0
C273 C 0.49305 0.84693 0.25399 0.0
C274 C 0.46225 0.84962 0.25355 0.0
C275 C 0.36786 0.84818 0.25967 0.0
C276 C 0.40098 0.84989 0.25678 0.0
H277 H 0.54907 0.84379 0.17699 0.0
H278 H 0.50187 0.85408 0.17691 0.0
H279 H 0.47567 0.88185 0.31635 0.0
H280 H 0.30795 0.83733 0.34163 0.0
H281 H 0.36479 0.84601 0.33794 0.0
C282 C 0.70098 0.53427 0.81082 0.0
C283 C 0.71866 0.54485 0.76696 0.0
C284 C 0.66887 0.50583 0.81235 0.0
C285 C 0.61756 0.42793 0.74441 0.0
H286 H 0.54377 0.41849 0.8232 0.0
C287 C 0.48768 0.31223 0.72706 0.0
C288 C 0.47099 0.29634 0.76994 0.0
C289 C 0.51578 0.34427 0.7281 0.0
C290 C 0.56427 0.42073 0.80135 0.0
H291 H 0.71552 0.53523 0.68992 0.0
H292 H 0.65961 0.48623 0.69253 0.0
H293 H 0.59691 0.47195 0.82218 0.0
H294 H 0.46973 0.30246 0.8474 0.0
H295 H 0.51937 0.35867 0.84924 0.0
H296 H 0.58541 0.37697 0.72371 0.0
C297 C 0.67083 0.49927 0.72594 0.0
C298 C 0.59465 0.4513 0.80074 0.0
C299 C 0.70285 0.52749 0.72443 0.0
C300 C 0.48211 0.31398 0.81375 0.0
C301 C 0.51046 0.34619 0.8148 0.0
C302 C 0.58737 0.39758 0.74497 0.0
C303 C 0.65383 0.48755 0.77005 0.0
C304 C 0.62151 0.45529 0.77182 0.0
C305 C 0.52807 0.36128 0.77206 0.0
C306 C 0.56024 0.39367 0.773 0.0
H307 H 0.71242 0.54714 0.84424 0.0
H308 H 0.65645 0.4974 0.84691 0.0
H309 H 0.63802 0.42981 0.72278 0.0
H310 H 0.47947 0.29961 0.69257 0.0
H311 H 0.52829 0.35553 0.69441 0.0
C312 C 0.3171 0.24144 0.85672 0.0
C313 C 0.3368 0.22777 0.87224 0.0
C314 C 0.30425 0.2548 0.89022 0.0
C315 C 0.2799 0.24947 0.01691 0.0
H316 H 0.29268 0.3384 0.99784 0.0
C317 C 0.24398 0.31479 0.164 0.0
C318 C 0.23092 0.335 0.14863 0.0
C319 C 0.25737 0.30195 0.1305 0.0
C320 C 0.28837 0.3133 1.00347 0.0
H321 H 0.35817 0.21714 0.93511 0.0
H322 H 0.33527 0.23993 0.99331 0.0
H323 H 0.3138 0.31495 0.93788 0.0
H324 H 0.22116 0.35714 0.08596 0.0
H325 H 0.24324 0.33394 0.02778 0.0
H326 H 0.25373 0.24724 0.08171 0.0
C327 C 0.32992 0.24043 0.95531 0.0
C328 C 0.30061 0.29997 0.9691 0.0
C329 C 0.34319 0.22759 0.92189 0.0
C330 C 0.23136 0.34194 0.09913 0.0
C331 C 0.24426 0.32876 0.06568 0.0
C332 C 0.26722 0.26258 0.05095 0.0
C333 C 0.31038 0.25421 0.93984 0.0
C334 C 0.29661 0.26799 0.97559 0.0
C335 C 0.25758 0.30868 0.08082 0.0
C336 C 0.27134 0.29473 0.04479 0.0
H337 H 0.3118 0.24199 0.81872 0.0
H338 H 0.28912 0.26518 0.87741 0.0
H339 H 0.27622 0.22459 0.02253 0.0
H340 H 0.24417 0.30915 0.20193 0.0
H341 H 0.26788 0.28705 0.14369 0.0
C342 C 0.93117 0.2256 0.65742 0.0
C343 C 0.90196 0.22727 0.6487 0.0
C344 C 0.95728 0.23832 0.62364 0.0
C345 C 0.97455 0.26217 0.49432 0.0
H346 H 0.06744 0.30843 0.53603 0.0
C347 C 0.08483 0.30296 0.36044 0.0
C348 C 0.11403 0.33392 0.36902 0.0
C349 C 0.05881 0.28947 0.39435 0.0
C350 C 0.04164 0.29582 0.52371 0.0
H351 H 0.87781 0.24465 0.59831 0.0
H352 H 0.92344 0.2674 0.54025 0.0
H353 H 0.02286 0.2868 0.59604 0.0
H354 H 0.13827 0.37543 0.41935 0.0
H355 H 0.09276 0.35234 0.47766 0.0
H356 H 0.99331 0.27213 0.42201 0.0
C357 C 0.9259 0.25547 0.57247 0.0
C358 C 0.01605 0.283 0.5582 0.0
C359 C 0.89979 0.24261 0.606 0.0
C360 C 0.11629 0.35137 0.41175 0.0
C361 C 0.09025 0.338 0.44543 0.0
C362 C 1.00014 0.27511 0.45985 0.0
C363 C 0.95483 0.25318 0.58054 0.0
C364 C 0.98217 0.26617 0.54395 0.0
C365 C 0.06132 0.30673 0.43745 0.0
C366 C 0.03402 0.29227 0.47409 0.0
H367 H 0.93362 0.21386 0.68987 0.0
H368 H 0.97906 0.23586 0.63086 0.0
H369 H 0.94875 0.24889 0.48199 0.0
H370 H 0.08231 0.28881 0.32798 0.0
H371 H 0.03705 0.26517 0.3872 0.0
C372 C 0.77274 0.07874 0.85614 0.0
C373 C 0.78549 0.11218 0.87044 0.0
C374 C 0.76002 0.05297 0.8905 0.0
C375 C 0.73039 0.03469 0.01839 0.0
H376 H 0.74301 0.95835 1.00077 0.0
C377 C 0.70142 0.93395 0.16621 0.0
C378 C 0.68146 0.90066 0.15047 0.0
C379 C 0.71464 0.96036 0.13281 0.0
C380 C 0.73925 0.97951 1.00605 0.0
H381 H 0.79537 0.14483 0.93215 0.0
H382 H 0.77447 0.10038 0.99176 0.0
H383 H 0.76487 1.00299 0.94063 0.0
H384 H 0.66009 0.86901 0.0873 0.0
H385 H 0.68359 0.91491 0.02944 0.0
H386 H 0.70543 0.0113 0.08453 0.0
C387 C 0.77317 0.09368 0.95406 0.0
C388 C 0.75155 1.00501 0.97143 0.0
C389 C 0.78539 0.11929 0.91976 0.0
C390 C 0.67524 0.89436 0.10074 0.0
C391 C 0.68887 0.9206 0.06748 0.0
C392 C 0.71855 0.00941 0.05335 0.0
C393 C 0.76019 0.06012 0.94 0.0
C394 C 0.74713 0.03289 0.97695 0.0
C395 C 0.70865 0.95384 0.08311 0.0
C396 C 0.72266 0.98148 0.04733 0.0
H397 H 0.77232 0.07245 0.81839 0.0
H398 H 0.74973 0.02741 0.87811 0.0
H399 H 0.7259 0.05537 0.0236 0.0
H400 H 0.70661 0.93959 0.20426 0.0
H401 H 0.72993 0.98582 0.14574 0.0
C402 C 0.70619 0.7762 0.35595 0.0
C403 C 0.67957 0.78138 0.36865 0.0
C404 C 0.71886 0.76246 0.38933 0.0
C405 C 0.72453 0.7522 0.52031 0.0
H406 H 0.745 0.68319 0.48435 0.0
C407 C 0.79539 0.70899 0.64682 0.0
C408 C 0.78338 0.67435 0.64973 0.0
C409 C 0.78253 0.72178 0.61243 0.0
C410 C 0.73922 0.70233 0.49496 0.0
H411 H 0.64501 0.77547 0.42622 0.0
H412 H 0.66707 0.75168 0.48389 0.0
H413 H 0.72303 0.70579 0.42362 0.0
H414 H 0.74802 0.62595 0.61898 0.0
H415 H 0.72556 0.64837 0.559 0.0
H416 H 0.74039 0.74863 0.59164 0.0
C417 C 0.67841 0.75857 0.44843 0.0
C418 C 0.72699 0.7155 0.46009 0.0
C419 C 0.66566 0.77206 0.41515 0.0
C420 C 0.75786 0.65277 0.61778 0.0
C421 C 0.74517 0.66561 0.58314 0.0
C422 C 0.73696 0.73923 0.55503 0.0
C423 C 0.70532 0.75386 0.43612 0.0
C424 C 0.71931 0.74044 0.47248 0.0
C425 C 0.75748 0.70028 0.57993 0.0
C426 C 0.74432 0.71405 0.54283 0.0
H427 H 0.71743 0.78302 0.32043 0.0
H428 H 0.73974 0.75925 0.37888 0.0
H429 H 0.71918 0.77165 0.53088 0.0
H430 H 0.81501 0.72636 0.67083 0.0
H431 H 0.79272 0.74864 0.61064 0.0
C432 C 0.92489 0.70742 0.8794 0.0
C433 C 0.90366 0.67277 0.87255 0.0
C434 C 0.94996 0.71941 0.91473 0.0
C435 C 1.0002 0.69488 0.99074 0.0
H436 H 0.01566 0.77184 0.067 0.0
C437 C 0.11732 0.76765 0.11033 0.0
C438 C 0.11388 0.77982 0.15523 0.0
C439 C 0.09049 0.75297 0.07798 0.0
C440 C 0.01142 0.75011 0.04641 0.0
H441 H 0.89268 0.62357 0.89704 0.0
H442 H 0.93625 0.64452 0.95885 0.0
H443 H 0.97136 0.74942 1.00616 0.0
H444 H 0.0791 0.78545 0.20159 0.0
H445 H 0.03202 0.7595 0.145 0.0
H446 H 0.03997 0.6953 0.03137 0.0
C447 C 0.93367 0.66243 0.93661 0.0
C448 C 0.98633 0.73752 0.01106 0.0
C449 C 0.90859 0.65041 0.90124 0.0
C450 C 0.08267 0.77646 0.16726 0.0
C451 C 0.05575 0.76176 0.13473 0.0
C452 C 0.02529 0.70746 0.02605 0.0
C453 C 0.95444 0.69708 0.94411 0.0
C454 C 0.98059 0.70993 0.98252 0.0
C455 C 0.05943 0.74999 0.0896 0.0
C456 C 0.03142 0.73542 0.05403 0.0
H457 H 0.92195 0.72539 0.85781 0.0
H458 H 0.96592 0.74625 0.91891 0.0
H459 H 0.99662 0.67374 0.96922 0.0
H460 H 0.14095 0.76976 0.09976 0.0
H461 H 0.09438 0.74463 0.0433 0.0
C462 C 0.34298 0.12073 0.59938 0.0
C463 C 0.33636 0.11372 0.64888 0.0
C464 C 0.32983 0.0949 0.56542 0.0
C465 C 0.30153 0.00648 0.55014 0.0
H466 H 0.25455 0.01197 0.43726 0.0
C467 C 0.23367 0.89522 0.41999 0.0
C468 C 0.23299 0.90145 0.37043 0.0
C469 C 0.24626 0.92139 0.4533 0.0
C470 C 0.26809 0.01024 0.46809 0.0
H471 H 0.31096 0.07405 0.70158 0.0
H472 H 0.28854 0.02862 0.64195 0.0
H473 H 0.27629 0.05687 0.49707 0.0
H474 H 0.24535 0.94021 0.31692 0.0
H475 H 0.2686 0.98633 0.37501 0.0
H476 H 0.29452 0.96059 0.5209 0.0
C477 C 0.30373 0.05427 0.62967 0.0
C478 C 0.28032 0.03588 0.5025 0.0
C479 C 0.31643 0.08022 0.6637 0.0
C480 C 0.24542 0.93461 0.35489 0.0
C481 C 0.25854 0.96099 0.38829 0.0
C482 C 0.28979 0.98111 0.51543 0.0
C483 C 0.31022 0.06143 0.58021 0.0
C484 C 0.29697 0.03413 0.54397 0.0
C485 C 0.25908 0.9547 0.43801 0.0
C486 C 0.27266 0.98247 0.47407 0.0
H487 H 0.35811 0.14629 0.5867 0.0
H488 H 0.33541 0.10107 0.52756 0.0
H489 H 0.31476 1.0048 0.58143 0.0
H490 H 0.2239 0.86992 0.43336 0.0
H491 H 0.2454 0.91532 0.49122 0.0
C492 C 0.65571 0.75418 0.11707 0.0
C493 C 0.67718 0.77987 0.14884 0.0
C494 C 0.66877 0.74162 0.08272 0.0
C495 C 0.74314 0.73448 0.0551 0.0
H496 H 0.70909 0.7194 0.92384 0.0
C497 C 0.77717 0.6639 0.91631 0.0
C498 C 0.78599 0.6775 0.86956 0.0
C499 C 0.76345 0.67645 0.94942 0.0
C500 C 0.71898 0.72369 0.96026 0.0
H501 H 0.72921 0.81198 0.1699 0.0
H502 H 0.75188 0.78996 0.11015 0.0
H503 H 0.68614 0.74111 0.98417 0.0
H504 H 0.78651 0.71457 0.82072 0.0
H505 H 0.7624 0.73653 0.87888 0.0
H506 H 0.77613 0.71735 0.03128 0.0
C507 C 0.72494 0.7795 0.1119 0.0
C508 C 0.70561 0.73577 0.99492 0.0
C509 C 0.71193 0.7922 0.14604 0.0
C510 C 0.7801 0.70359 0.85645 0.0
C511 C 0.76615 0.71606 0.88966 0.0
C512 C 0.75634 0.72223 0.02059 0.0
C513 C 0.70355 0.75426 0.07959 0.0
C514 C 0.71754 0.74128 0.04273 0.0
C515 C 0.75803 0.70283 0.93668 0.0
C516 C 0.74436 0.7166 0.97282 0.0
H517 H 0.62881 0.74406 0.11822 0.0
H518 H 0.65161 0.72185 0.05874 0.0
H519 H 0.75271 0.73823 0.09168 0.0
H520 H 0.78112 0.64366 0.92769 0.0
H521 H 0.75694 0.66534 0.98507 0.0
C522 C 0.93707 0.70305 0.66548 0.0
C523 C 0.90506 0.67669 0.65266 0.0
C524 C 0.96363 0.71519 0.63242 0.0
C525 C 0.97966 0.71973 0.50163 0.0
H526 H 0.06939 0.74092 0.53898 0.0
C527 C 0.094 0.79103 0.37635 0.0
C528 C 0.1171 0.77958 0.37392 0.0
C529 C 0.06824 0.77793 0.41049 0.0
C530 C 0.0444 0.7349 0.52798 0.0
H531 H 0.87621 0.64189 0.59533 0.0
H532 H 0.9223 0.66296 0.53823 0.0
H533 H 0.02454 0.71906 0.59925 0.0
H534 H 0.13087 0.74498 0.40526 0.0
H535 H 0.08572 0.72204 0.46484 0.0
H536 H 0.99929 0.73525 0.4304 0.0
C537 C 0.92682 0.67458 0.57349 0.0
C538 C 0.01883 0.72274 0.56258 0.0
C539 C 0.90041 0.6624 0.60644 0.0
C540 C 0.11353 0.75438 0.40612 0.0
C541 C 0.08784 0.74142 0.44051 0.0
C542 C 1.0052 0.73205 0.46718 0.0
C543 C 0.95864 0.70131 0.58586 0.0
C544 C 0.98615 0.71489 0.5497 0.0
C545 C 0.06499 0.75315 0.44318 0.0
C546 C 0.03785 0.73973 0.47991 0.0
H547 H 0.94155 0.71456 0.70081 0.0
H548 H 0.98786 0.73594 0.6429 0.0
H549 H 0.95483 0.71426 0.49066 0.0
H550 H 0.09597 0.8104 0.35214 0.0
H551 H 0.05123 0.78771 0.4119 0.0
C552 C 0.21894 0.91531 0.13504 0.0
C553 C 0.23657 0.89921 0.14973 0.0
C554 C 0.23238 0.94063 0.10023 0.0
C555 C 0.31091 1.00361 0.04413 0.0
H556 H 0.25331 0.99907 0.93862 0.0
C557 C 0.3614 0.09824 0.88607 0.0
C558 C 0.34025 0.10951 0.86789 0.0
C559 C 0.34918 0.07154 0.91875 0.0
C560 C 0.26966 1.00104 0.96811 0.0
H561 H 0.28261 0.89781 0.14025 0.0
H562 H 0.30629 0.94252 0.07981 0.0
H563 H 0.23154 0.95549 1.00023 0.0
H564 H 0.2896 0.10137 0.86966 0.0
H565 H 0.26859 0.05558 0.92745 0.0
H566 H 0.34879 0.04959 0.01296 0.0
C567 C 0.28197 0.93529 0.09517 0.0
C568 C 0.25717 0.97596 1.00333 0.0
C569 C 0.26834 0.90962 0.12962 0.0
C570 C 0.30653 0.09319 0.88267 0.0
C571 C 0.29442 0.06675 0.91571 0.0
C572 C 0.32333 0.02894 1.00918 0.0
C573 C 0.26392 0.95075 0.07971 0.0
C574 C 0.2776 0.97706 0.04183 0.0
C575 C 0.3156 0.05564 0.93442 0.0
C576 C 0.30281 0.02808 0.97079 0.0
H577 H 0.19442 0.90795 0.14975 0.0
H578 H 0.21809 0.9524 0.08942 0.0
H579 H 0.32712 1.00524 0.07365 0.0
H580 H 0.38746 0.11011 0.87513 0.0
H581 H 0.3661 0.06332 0.93162 0.0
C582 C 0.36553 0.25953 0.61744 0.0
C583 C 0.34409 0.23685 0.65249 0.0
C584 C 0.3533 0.27321 0.58341 0.0
C585 C 0.27329 0.2583 0.52802 0.0
H586 H 0.32924 0.34845 0.47898 0.0
C587 C 0.23034 0.30753 0.36764 0.0
C588 C 0.23801 0.3411 0.36906 0.0
C589 C 0.24457 0.2955 0.40109 0.0
C590 C 0.3131 0.32332 0.49255 0.0
H591 H 0.2933 0.21189 0.68052 0.0
H592 H 0.27226 0.23658 0.6224 0.0
H593 H 0.35081 0.32735 0.54174 0.0
H594 H 0.267 0.38847 0.40652 0.0
H595 H 0.29097 0.36734 0.46559 0.0
H596 H 0.23508 0.25471 0.4804 0.0
C597 C 0.29828 0.243 0.62004 0.0
C598 C 0.32568 0.31102 0.52818 0.0
C599 C 0.31041 0.22901 0.65368 0.0
C600 C 0.26067 0.3625 0.40422 0.0
C601 C 0.27458 0.35038 0.43802 0.0
C602 C 0.26059 0.27071 0.49279 0.0
C603 C 0.31941 0.26489 0.58393 0.0
C604 C 0.30596 0.27831 0.54639 0.0
C605 C 0.26653 0.31663 0.43719 0.0
C606 C 0.28033 0.30337 0.47445 0.0
H607 H 0.39158 0.26598 0.61532 0.0
H608 H 0.37028 0.2896 0.55587 0.0
H609 H 0.25747 0.23281 0.54045 0.0
H610 H 0.21323 0.29045 0.34073 0.0
H611 H 0.23831 0.26957 0.39854 0.0
C612 C 0.90349 0.25656 0.90271 0.0
C613 C 0.90208 0.23397 0.86748 0.0
C614 C 0.92943 0.27005 0.93675 0.0
C615 C 0.99492 0.25548 0.99152 0.0
H616 H 0.02884 0.34547 0.04062 0.0
C617 C 0.08791 0.30574 0.15139 0.0
C618 C 0.11343 0.33953 0.1501 0.0
C619 C 0.06156 0.2933 0.11797 0.0
C620 C 0.01997 0.3204 0.02702 0.0
H621 H 0.92752 0.2088 0.83932 0.0
H622 H 0.97341 0.23323 0.89745 0.0
H623 H 0.98603 0.32412 0.97811 0.0
H624 H 0.13114 0.38684 0.11276 0.0
H625 H 0.08599 0.36504 0.05372 0.0
H626 H 0.02991 0.25228 0.03883 0.0
C627 C 0.95391 0.23974 0.89991 0.0
C628 C 0.99496 0.30793 0.99153 0.0
C629 C 0.92771 0.2259 0.86626 0.0
C630 C 0.11178 0.36071 0.11501 0.0
C631 C 0.08569 0.3482 0.08122 0.0
C632 C 0.0202 0.26809 0.02658 0.0
C633 C 0.95491 0.26167 0.93605 0.0
C634 C 0.98201 0.27525 0.97334 0.0
C635 C 0.0603 0.31426 0.082 0.0
C636 C 0.03305 0.30071 0.04494 0.0
H637 H 0.88402 0.26315 0.90491 0.0
H638 H 0.92895 0.2864 0.96436 0.0
H639 H 0.9853 0.23002 0.97908 0.0
H640 H 0.08829 0.28882 0.17823 0.0
H641 H 0.04214 0.26722 0.12046 0.0
C642 C 0.7059 0.9257 0.36785 0.0
C643 C 0.67286 0.89857 0.3708 0.0
C644 C 0.71771 0.95189 0.4013 0.0
C645 C 0.70579 0.97049 0.52494 0.0
H646 H 0.7523 0.06346 0.48381 0.0
C647 C 0.78396 0.0832 0.65269 0.0
C648 C 0.77789 0.11013 0.64904 0.0
C649 C 0.76959 0.05674 0.6196 0.0
C650 C 0.73926 0.0376 0.49576 0.0
H651 H 0.62627 0.87776 0.4111 0.0
H652 H 0.64722 0.92328 0.47005 0.0
H653 H 0.7302 0.01874 0.42328 0.0
H654 H 0.75173 0.1302 0.60799 0.0
H655 H 0.72723 0.08427 0.54978 0.0
H656 H 0.71538 0.98938 0.59744 0.0
C657 C 0.66383 0.92425 0.44166 0.0
C658 C 0.72683 0.01207 0.4612 0.0
C659 C 0.65182 0.89834 0.40773 0.0
C660 C 0.75686 0.10982 0.6119 0.0
C661 C 0.74298 0.08366 0.57838 0.0
C662 C 0.71873 0.99603 0.55953 0.0
C663 C 0.69691 0.95121 0.43885 0.0
C664 C 0.7099 0.97829 0.47546 0.0
C665 C 0.74934 0.05696 0.58177 0.0
C666 C 0.73549 0.02982 0.54525 0.0
H667 H 0.72268 0.92665 0.33973 0.0
H668 H 0.74337 0.97232 0.39848 0.0
H669 H 0.69304 0.94463 0.53687 0.0
H670 H 0.79995 0.08266 0.68098 0.0
H671 H 0.775 0.03651 0.62287 0.0
loop_
_geom_bond_atom_site_label_1
_geom_bond_atom_site_label_2
_geom_bond_distance
_geom_bond_site_symmetry_2
_ccdc_geom_bond_type
Fe0 O2 1.918 . S
Fe0 O5 1.997 . S
Fe0 O6 2.002 . S
Fe0 O11 1.976 . S
Fe0 O14 1.996 . S
Fe1 O2 1.918 . S
Fe1 O9 1.997 . S
Fe1 O12 1.996 . S
Fe1 O16 1.976 . S
Fe1 O19 2.002 . S
O2 Fe0 1.918 . S
O2 Fe1 1.918 . S
O2 Fe3 1.918 . S
Fe3 O2 1.918 . S
Fe3 O4 2.002 . S
Fe3 O13 1.976 . S
Fe3 O17 1.996 . S
Fe3 O20 1.997 . S
O4 Fe3 2.002 . S
O4 C21 1.295 . S
O5 Fe0 1.997 . S
O5 C21 1.235 . S
O6 Fe0 2.002 . S
O6 C7 1.295 . S
C7 O6 1.295 . S
C7 O9 1.235 . S
C8 O13 1.287 . S
C8 O14 1.255 . S
O9 Fe1 1.997 . S
O9 C7 1.235 . S
C10 O16 1.287 . S
C10 O17 1.255 . S
O11 Fe0 1.976 . S
O11 C18 1.287 . S
O12 Fe1 1.996 . S
O12 C18 1.255 . S
O13 Fe3 1.976 . S
O13 C8 1.287 . S
O14 Fe0 1.996 . S
O14 C8 1.255 . S
C15 O19 1.295 . S
C15 O20 1.235 . S
O16 Fe1 1.976 . S
O16 C10 1.287 . S
O17 Fe3 1.996 . S
O17 C10 1.255 . S
C18 O11 1.287 . S
C18 O12 1.255 . S
O19 Fe1 2.002 . S
O19 C15 1.295 . S
O20 Fe3 1.997 . S
O20 C15 1.235 . S
C21 O4 1.295 . S
C21 O5 1.235 . S
Fe22 O24 1.918 . S
Fe22 O27 1.997 . S
Fe22 O28 2.002 . S
Fe22 O33 1.976 . S
Fe22 O36 1.996 . S
Fe23 O24 1.918 . S
Fe23 O31 1.997 . S
Fe23 O34 1.996 . S
Fe23 O38 1.976 . S
Fe23 O41 2.002 . S
O24 Fe22 1.918 . S
O24 Fe23 1.918 . S
O24 Fe25 1.918 . S
Fe25 O24 1.918 . S
Fe25 O26 2.002 . S
Fe25 O35 1.976 . S
Fe25 O39 1.996 . S
Fe25 O42 1.997 . S
O26 Fe25 2.002 . S
O26 C43 1.295 . S
O27 Fe22 1.997 . S
O27 C43 1.235 . S
O28 Fe22 2.002 . S
O28 C29 1.295 . S
C29 O28 1.295 . S
C29 O31 1.235 . S
C30 O35 1.287 . S
C30 O36 1.255 . S
O31 Fe23 1.997 . S
O31 C29 1.235 . S
C32 O38 1.287 . S
C32 O39 1.255 . S
O33 Fe22 1.976 . S
O33 C40 1.287 . S
O34 Fe23 1.996 . S
O34 C40 1.255 . S
O35 Fe25 1.976 . S
O35 C30 1.287 . S
O36 Fe22 1.996 . S
O36 C30 1.255 . S
C37 O41 1.295 . S
C37 O42 1.235 . S
O38 Fe23 1.976 . S
O38 C32 1.287 . S
O39 Fe25 1.996 . S
O39 C32 1.255 . S
C40 O33 1.287 . S
C40 O34 1.255 . S
O41 Fe23 2.002 . S
O41 C37 1.295 . S
O42 Fe25 1.997 . S
O42 C37 1.235 . S
C43 O26 1.295 . S
C43 O27 1.235 . S
Fe44 O46 1.918 . S
Fe44 O49 1.997 . S
Fe44 O50 2.002 . S
Fe44 O55 1.976 . S
Fe44 O58 1.996 . S
Fe45 O46 1.918 . S
Fe45 O53 1.997 . S
Fe45 O56 1.996 . S
Fe45 O60 1.976 . S
Fe45 O63 2.002 . S
O46 Fe44 1.918 . S
O46 Fe45 1.918 . S
O46 Fe47 1.918 . S
Fe47 O46 1.918 . S
Fe47 O48 2.002 . S
Fe47 O57 1.976 . S
Fe47 O61 1.996 . S
Fe47 O64 1.997 . S
O48 Fe47 2.002 . S
O48 C65 1.295 . S
O49 Fe44 1.997 . S
O49 C65 1.235 . S
O50 Fe44 2.002 . S
O50 C51 1.295 . S
C51 O50 1.295 . S
C51 O53 1.235 . S
C52 O57 1.287 . S
C52 O58 1.255 . S
O53 Fe45 1.997 . S
O53 C51 1.235 . S
C54 O60 1.287 . S
C54 O61 1.255 . S
O55 Fe44 1.976 . S
O55 C62 1.287 . S
O56 Fe45 1.996 . S
O56 C62 1.255 . S
O57 Fe47 1.976 . S
O57 C52 1.287 . S
O58 Fe44 1.996 . S
O58 C52 1.255 . S
C59 O63 1.295 . S
C59 O64 1.235 . S
O60 Fe45 1.976 . S
O60 C54 1.287 . S
O61 Fe47 1.996 . S
O61 C54 1.255 . S
C62 O55 1.287 . S
C62 O56 1.255 . S
O63 Fe45 2.002 . S
O63 C59 1.295 . S
O64 Fe47 1.997 . S
O64 C59 1.235 . S
C65 O48 1.295 . S
C65 O49 1.235 . S
Fe66 O68 1.918 . S
Fe66 O71 1.997 . S
Fe66 O72 2.002 . S
Fe66 O77 1.976 . S
Fe66 O80 1.996 . S
Fe67 O68 1.918 . S
Fe67 O75 1.997 . S
Fe67 O78 1.996 . S
Fe67 O82 1.976 . S
Fe67 O85 2.002 . S
O68 Fe66 1.918 . S
O68 Fe67 1.918 . S
O68 Fe69 1.918 . S
Fe69 O68 1.918 . S
Fe69 O70 2.002 . S
Fe69 O79 1.976 . S
Fe69 O83 1.996 . S
Fe69 O86 1.997 . S
O70 Fe69 2.002 . S
O70 C87 1.295 . S
O71 Fe66 1.997 . S
O71 C87 1.235 . S
O72 Fe66 2.002 . S
O72 C73 1.295 . S
C73 O72 1.295 . S
C73 O75 1.235 . S
C74 O79 1.287 . S
C74 O80 1.255 . S
O75 Fe67 1.997 . S
O75 C73 1.235 . S
C76 O82 1.287 . S
C76 O83 1.255 . S
O77 Fe66 1.976 . S
O77 C84 1.287 . S
O78 Fe67 1.996 . S
O78 C84 1.255 . S
O79 Fe69 1.976 . S
O79 C74 1.287 . S
O80 Fe66 1.996 . S
O80 C74 1.255 . S
C81 O85 1.295 . S
C81 O86 1.235 . S
O82 Fe67 1.976 . S
O82 C76 1.287 . S
O83 Fe69 1.996 . S
O83 C76 1.255 . S
C84 O77 1.287 . S
C84 O78 1.255 . S
O85 Fe67 2.002 . S
O85 C81 1.295 . S
O86 Fe69 1.997 . S
O86 C81 1.235 . S
C87 O70 1.295 . S
C87 O71 1.235 . S
Fe88 O90 1.918 . S
Fe88 O93 1.997 . S
Fe88 O94 2.002 . S
Fe88 O99 1.976 . S
Fe88 O102 1.996 . S
Fe89 O90 1.918 . S
Fe89 O97 1.997 . S
Fe89 O100 1.996 . S
Fe89 O104 1.976 . S
Fe89 O107 2.002 . S
O90 Fe88 1.918 . S
O90 Fe89 1.918 . S
O90 Fe91 1.918 . S
Fe91 O90 1.918 . S
Fe91 O92 2.002 . S
Fe91 O101 1.976 . S
Fe91 O105 1.996 . S
Fe91 O108 1.997 . S
O92 Fe91 2.002 . S
O92 C109 1.295 . S
O93 Fe88 1.997 . S
O93 C109 1.235 . S
O94 Fe88 2.002 . S
O94 C95 1.295 . S
C95 O94 1.295 . S
C95 O97 1.235 . S
C96 O101 1.287 . S
C96 O102 1.255 . S
O97 Fe89 1.997 . S
O97 C95 1.235 . S
C98 O104 1.287 . S
C98 O105 1.255 . S
O99 Fe88 1.976 . S
O99 C106 1.287 . S
O100 Fe89 1.996 . S
O100 C106 1.255 . S
O101 Fe91 1.976 . S
O101 C96 1.287 . S
O102 Fe88 1.996 . S
O102 C96 1.255 . S
C103 O107 1.295 . S
C103 O108 1.235 . S
O104 Fe89 1.976 . S
O104 C98 1.287 . S
O105 Fe91 1.996 . S
O105 C98 1.255 . S
C106 O99 1.287 . S
C106 O100 1.255 . S
O107 Fe89 2.002 . S
O107 C103 1.295 . S
O108 Fe91 1.997 . S
O108 C103 1.235 . S
C109 O92 1.295 . S
C109 O93 1.235 . S
Fe110 O112 1.918 . S
Fe110 O115 1.997 . S
Fe110 O116 2.002 . S
Fe110 O121 1.976 . S
Fe110 O124 1.996 . S
Fe111 O112 1.918 . S
Fe111 O119 1.997 . S
Fe111 O122 1.996 . S
Fe111 O126 1.976 . S
Fe111 O129 2.002 . S
O112 Fe110 1.918 . S
O112 Fe111 1.918 . S
O112 Fe113 1.918 . S
Fe113 O112 1.918 . S
Fe113 O114 2.002 . S
Fe113 O123 1.976 . S
Fe113 O127 1.996 . S
Fe113 O130 1.997 . S
O114 Fe113 2.002 . S
O114 C131 1.295 . S
O115 Fe110 1.997 . S
O115 C131 1.235 . S
O116 Fe110 2.002 . S
O116 C117 1.295 . S
C117 O116 1.295 . S
C117 O119 1.235 . S
C118 O123 1.287 . S
C118 O124 1.255 . S
O119 Fe111 1.997 . S
O119 C117 1.235 . S
C120 O126 1.287 . S
C120 O127 1.255 . S
O121 Fe110 1.976 . S
O121 C128 1.287 . S
O122 Fe111 1.996 . S
O122 C128 1.255 . S
O123 Fe113 1.976 . S
O123 C118 1.287 . S
O124 Fe110 1.996 . S
O124 C118 1.255 . S
C125 O129 1.295 . S
C125 O130 1.235 . S
O126 Fe111 1.976 . S
O126 C120 1.287 . S
O127 Fe113 1.996 . S
O127 C120 1.255 . S
C128 O121 1.287 . S
C128 O122 1.255 . S
O129 Fe111 2.002 . S
O129 C125 1.295 . S
O130 Fe113 1.997 . S
O130 C125 1.235 . S
C131 O114 1.295 . S
C131 O115 1.235 . S
C132 C133 1.349 . S
C132 C134 1.327 . S
C132 H157 0.950 . S
C133 C132 1.349 . S
C133 C149 1.349 . S
C134 C132 1.327 . S
C134 C153 1.429 . S
C134 H158 0.950 . S
C135 C152 1.574 . S
C135 C154 1.368 . S
C135 H159 0.949 . S
H136 C140 0.949 . S
C137 C138 1.349 . S
C137 C139 1.327 . S
C137 H160 0.950 . S
C138 C137 1.349 . S
C138 C150 1.349 . S
C139 C137 1.327 . S
C139 C155 1.429 . S
C139 H161 0.950 . S
C140 H136 0.949 . S
C140 C148 1.574 . S
C140 C156 1.368 . S
H141 C149 0.950 . S
H142 C147 0.950 . S
H143 C148 0.949 . S
H144 C150 0.950 . S
H145 C151 0.950 . S
H146 C152 0.949 . S
C147 H142 0.950 . S
C147 C149 1.327 . S
C147 C153 1.429 . S
C148 C140 1.574 . S
C148 H143 0.949 . S
C148 C154 1.368 . S
C149 C133 1.349 . S
C149 H141 0.950 . S
C149 C147 1.327 . S
C150 C138 1.349 . S
C150 H144 0.950 . S
C150 C151 1.327 . S
C151 H145 0.950 . S
C151 C150 1.327 . S
C151 C155 1.429 . S
C152 C135 1.574 . S
C152 H146 0.949 . S
C152 C156 1.368 . S
C153 C134 1.429 . S
C153 C147 1.429 . S
C153 C154 1.523 . S
C154 C135 1.368 . S
C154 C148 1.368 . S
C154 C153 1.523 . S
C155 C139 1.429 . S
C155 C151 1.429 . S
C155 C156 1.523 . S
C156 C140 1.368 . S
C156 C152 1.368 . S
C156 C155 1.523 . S
H157 C132 0.950 . S
H158 C134 0.950 . S
H159 C135 0.949 . S
H160 C137 0.950 . S
H161 C139 0.950 . S
C162 C163 1.349 . S
C162 C164 1.327 . S
C162 H187 0.950 . S
C163 C162 1.349 . S
C163 C179 1.349 . S
C164 C162 1.327 . S
C164 C183 1.429 . S
C164 H188 0.950 . S
C165 C182 1.574 . S
C165 C184 1.368 . S
C165 H189 0.949 . S
H166 C170 0.949 . S
C167 C168 1.349 . S
C167 C169 1.327 . S
C167 H190 0.950 . S
C168 C167 1.349 . S
C168 C180 1.349 . S
C169 C167 1.327 . S
C169 C185 1.429 . S
C169 H191 0.950 . S
C170 H166 0.949 . S
C170 C178 1.574 . S
C170 C186 1.368 . S
H171 C179 0.950 . S
H172 C177 0.950 . S
H173 C178 0.949 . S
H174 C180 0.950 . S
H175 C181 0.950 . S
H176 C182 0.949 . S
C177 H172 0.950 . S
C177 C179 1.327 . S
C177 C183 1.429 . S
C178 C170 1.574 . S
C178 H173 0.949 . S
C178 C184 1.368 . S
C179 C163 1.349 . S
C179 H171 0.950 . S
C179 C177 1.327 . S
C180 C168 1.349 . S
C180 H174 0.950 . S
C180 C181 1.327 . S
C181 H175 0.950 . S
C181 C180 1.327 . S
C181 C185 1.429 . S
C182 C165 1.574 . S
C182 H176 0.949 . S
C182 C186 1.368 . S
C183 C164 1.429 . S
C183 C177 1.429 . S
C183 C184 1.523 . S
C184 C165 1.368 . S
C184 C178 1.368 . S
C184 C183 1.523 . S
C185 C169 1.429 . S
C185 C181 1.429 . S
C185 C186 1.523 . S
C186 C170 1.368 . S
C186 C182 1.368 . S
C186 C185 1.523 . S
H187 C162 0.950 . S
H188 C164 0.950 . S
H189 C165 0.949 . S
H190 C167 0.950 . S
H191 C169 0.950 . S
C192 C193 1.349 . S
C192 C194 1.327 . S
C192 H217 0.950 . S
C193 C192 1.349 . S
C193 C209 1.349 . S
C194 C192 1.327 . S
C194 C213 1.429 . S
C194 H218 0.950 . S
C195 C212 1.574 . S
C195 C214 1.368 . S
C195 H219 0.949 . S
H196 C200 0.949 . S
C197 C198 1.349 . S
C197 C199 1.327 . S
C197 H220 0.950 . S
C198 C197 1.349 . S
C198 C210 1.349 . S
C199 C197 1.327 . S
C199 C215 1.429 . S
C199 H221 0.950 . S
C200 H196 0.949 . S
C200 C208 1.574 . S
C200 C216 1.368 . S
H201 C209 0.950 . S
H202 C207 0.950 . S
H203 C208 0.949 . S
H204 C210 0.950 . S
H205 C211 0.950 . S
H206 C212 0.949 . S
C207 H202 0.950 . S
C207 C209 1.327 . S
C207 C213 1.429 . S
C208 C200 1.574 . S
C208 H203 0.949 . S
C208 C214 1.368 . S
C209 C193 1.349 . S
C209 H201 0.950 . S
C209 C207 1.327 . S
C210 C198 1.349 . S
C210 H204 0.950 . S
C210 C211 1.327 . S
C211 H205 0.950 . S
C211 C210 1.327 . S
C211 C215 1.429 . S
C212 C195 1.574 . S
C212 H206 0.949 . S
C212 C216 1.368 . S
C213 C194 1.429 . S
C213 C207 1.429 . S
C213 C214 1.523 . S
C214 C195 1.368 . S
C214 C208 1.368 . S
C214 C213 1.523 . S
C215 C199 1.429 . S
C215 C211 1.429 . S
C215 C216 1.523 . S
C216 C200 1.368 . S
C216 C212 1.368 . S
C216 C215 1.523 . S
H217 C192 0.950 . S
H218 C194 0.950 . S
H219 C195 0.949 . S
H220 C197 0.950 . S
H221 C199 0.950 . S
C222 C223 1.349 . S
C222 C224 1.327 . S
C222 H247 0.950 . S
C223 C222 1.349 . S
C223 C239 1.349 . S
C224 C222 1.327 . S
C224 C243 1.429 . S
C224 H248 0.950 . S
C225 C242 1.574 . S
C225 C244 1.368 . S
C225 H249 0.949 . S
H226 C230 0.949 . S
C227 C228 1.349 . S
C227 C229 1.327 . S
C227 H250 0.950 . S
C228 C227 1.349 . S
C228 C240 1.349 . S
C229 C227 1.327 . S
C229 C245 1.429 . S
C229 H251 0.950 . S
C230 H226 0.949 . S
C230 C238 1.574 . S
C230 C246 1.368 . S
H231 C239 0.950 . S
H232 C237 0.950 . S
H233 C238 0.949 . S
H234 C240 0.950 . S
H235 C241 0.950 . S
H236 C242 0.949 . S
C237 H232 0.950 . S
C237 C239 1.327 . S
C237 C243 1.429 . S
C238 C230 1.574 . S
C238 H233 0.949 . S
C238 C244 1.368 . S
C239 C223 1.349 . S
C239 H231 0.950 . S
C239 C237 1.327 . S
C240 C228 1.349 . S
C240 H234 0.950 . S
C240 C241 1.327 . S
C241 H235 0.950 . S
C241 C240 1.327 . S
C241 C245 1.429 . S
C242 C225 1.574 . S
C242 H236 0.949 . S
C242 C246 1.368 . S
C243 C224 1.429 . S
C243 C237 1.429 . S
C243 C244 1.523 . S
C244 C225 1.368 . S
C244 C238 1.368 . S
C244 C243 1.523 . S
C245 C229 1.429 . S
C245 C241 1.429 . S
C245 C246 1.523 . S
C246 C230 1.368 . S
C246 C242 1.368 . S
C246 C245 1.523 . S
H247 C222 0.950 . S
H248 C224 0.950 . S
H249 C225 0.949 . S
H250 C227 0.950 . S
H251 C229 0.950 . S
C252 C253 1.349 . S
C252 C254 1.327 . S
C252 H277 0.950 . S
C253 C252 1.349 . S
C253 C269 1.349 . S
C254 C252 1.327 . S
C254 C273 1.429 . S
C254 H278 0.950 . S
C255 C272 1.574 . S
C255 C274 1.368 . S
C255 H279 0.949 . S
H256 C260 0.949 . S
C257 C258 1.349 . S
C257 C259 1.327 . S
C257 H280 0.950 . S
C258 C257 1.349 . S
C258 C270 1.349 . S
C259 C257 1.327 . S
C259 C275 1.429 . S
C259 H281 0.950 . S
C260 H256 0.949 . S
C260 C268 1.574 . S
C260 C276 1.368 . S
H261 C269 0.950 . S
H262 C267 0.950 . S
H263 C268 0.949 . S
H264 C270 0.950 . S
H265 C271 0.950 . S
H266 C272 0.949 . S
C267 H262 0.950 . S
C267 C269 1.327 . S
C267 C273 1.429 . S
C268 C260 1.574 . S
C268 H263 0.949 . S
C268 C274 1.368 . S
C269 C253 1.349 . S
C269 H261 0.950 . S
C269 C267 1.327 . S
C270 C258 1.349 . S
C270 H264 0.950 . S
C270 C271 1.327 . S
C271 H265 0.950 . S
C271 C270 1.327 . S
C271 C275 1.429 . S
C272 C255 1.574 . S
C272 H266 0.949 . S
C272 C276 1.368 . S
C273 C254 1.429 . S
C273 C267 1.429 . S
C273 C274 1.523 . S
C274 C255 1.368 . S
C274 C268 1.368 . S
C274 C273 1.523 . S
C275 C259 1.429 . S
C275 C271 1.429 . S
C275 C276 1.523 . S
C276 C260 1.368 . S
C276 C272 1.368 . S
C276 C275 1.523 . S
H277 C252 0.950 . S
H278 C254 0.950 . S
H279 C255 0.949 . S
H280 C257 0.950 . S
H281 C259 0.950 . S
C282 C283 1.349 . S
C282 C284 1.327 . S
C282 H307 0.950 . S
C283 C282 1.349 . S
C283 C299 1.349 . S
C284 C282 1.327 . S
C284 C303 1.429 . S
C284 H308 0.950 . S
C285 C302 1.574 . S
C285 C304 1.368 . S
C285 H309 0.949 . S
H286 C290 0.949 . S
C287 C288 1.349 . S
C287 C289 1.327 . S
C287 H310 0.950 . S
C288 C287 1.349 . S
C288 C300 1.349 . S
C289 C287 1.327 . S
C289 C305 1.429 . S
C289 H311 0.950 . S
C290 H286 0.949 . S
C290 C298 1.574 . S
C290 C306 1.368 . S
H291 C299 0.950 . S
H292 C297 0.950 . S
H293 C298 0.949 . S
H294 C300 0.950 . S
H295 C301 0.950 . S
H296 C302 0.949 . S
C297 H292 0.950 . S
C297 C299 1.327 . S
C297 C303 1.429 . S
C298 C290 1.574 . S
C298 H293 0.949 . S
C298 C304 1.368 . S
C299 C283 1.349 . S
C299 H291 0.950 . S
C299 C297 1.327 . S
C300 C288 1.349 . S
C300 H294 0.950 . S
C300 C301 1.327 . S
C301 H295 0.950 . S
C301 C300 1.327 . S
C301 C305 1.429 . S
C302 C285 1.574 . S
C302 H296 0.949 . S
C302 C306 1.368 . S
C303 C284 1.429 . S
C303 C297 1.429 . S
C303 C304 1.523 . S
C304 C285 1.368 . S
C304 C298 1.368 . S
C304 C303 1.523 . S
C305 C289 1.429 . S
C305 C301 1.429 . S
C305 C306 1.523 . S
C306 C290 1.368 . S
C306 C302 1.368 . S
C306 C305 1.523 . S
H307 C282 0.950 . S
H308 C284 0.950 . S
H309 C285 0.949 . S
H310 C287 0.950 . S
H311 C289 0.950 . S
C312 C313 1.349 . S
C312 C314 1.327 . S
C312 H337 0.950 . S
C313 C312 1.349 . S
C313 C329 1.349 . S
C314 C312 1.327 . S
C314 C333 1.429 . S
C314 H338 0.950 . S
C315 C332 1.574 . S
C315 C334 1.368 1_554 S
C315 H339 0.949 . S
H316 C320 0.949 . S
C317 C318 1.349 . S
C317 C319 1.327 . S
C317 H340 0.950 . S
C318 C317 1.349 . S
C318 C330 1.349 . S
C319 C317 1.327 . S
C319 C335 1.429 . S
C319 H341 0.950 . S
C320 H316 0.949 . S
C320 C328 1.574 . S
C320 C336 1.368 1_556 S
H321 C329 0.950 . S
H322 C327 0.950 . S
H323 C328 0.949 . S
H324 C330 0.950 . S
H325 C331 0.950 . S
H326 C332 0.949 . S
C327 H322 0.950 . S
C327 C329 1.327 . S
C327 C333 1.429 . S
C328 C320 1.574 . S
C328 H323 0.949 . S
C328 C334 1.368 . S
C329 C313 1.349 . S
C329 H321 0.950 . S
C329 C327 1.327 . S
C330 C318 1.349 . S
C330 H324 0.950 . S
C330 C331 1.327 . S
C331 H325 0.950 . S
C331 C330 1.327 . S
C331 C335 1.429 . S
C332 C315 1.574 . S
C332 H326 0.949 . S
C332 C336 1.368 . S
C333 C314 1.429 . S
C333 C327 1.429 . S
C333 C334 1.523 . S
C334 C315 1.368 1_556 S
C334 C328 1.368 . S
C334 C333 1.523 . S
C335 C319 1.429 . S
C335 C331 1.429 . S
C335 C336 1.523 . S
C336 C320 1.368 1_554 S
C336 C332 1.368 . S
C336 C335 1.523 . S
H337 C312 0.950 . S
H338 C314 0.950 . S
H339 C315 0.949 . S
H340 C317 0.950 . S
H341 C319 0.950 . S
C342 C343 1.349 . S
C342 C344 1.327 . S
C342 H367 0.950 . S
C343 C342 1.349 . S
C343 C359 1.349 . S
C344 C342 1.327 . S
C344 C363 1.429 . S
C344 H368 0.950 . S
C345 C362 1.574 . S
C345 C364 1.368 . S
C345 H369 0.949 . S
H346 C350 0.949 . S
C347 C348 1.349 . S
C347 C349 1.327 . S
C347 H370 0.950 . S
C348 C347 1.349 . S
C348 C360 1.349 . S
C349 C347 1.327 . S
C349 C365 1.429 . S
C349 H371 0.950 . S
C350 H346 0.949 . S
C350 C358 1.574 . S
C350 C366 1.368 . S
H351 C359 0.950 . S
H352 C357 0.950 . S
H353 C358 0.949 . S
H354 C360 0.950 . S
H355 C361 0.950 . S
H356 C362 0.949 . S
C357 H352 0.950 . S
C357 C359 1.327 . S
C357 C363 1.429 . S
C358 C350 1.574 . S
C358 H353 0.949 . S
C358 C364 1.368 1_455 S
C359 C343 1.349 . S
C359 H351 0.950 . S
C359 C357 1.327 . S
C360 C348 1.349 . S
C360 H354 0.950 . S
C360 C361 1.327 . S
C361 H355 0.950 . S
C361 C360 1.327 . S
C361 C365 1.429 . S
C362 C345 1.574 . S
C362 H356 0.949 . S
C362 C366 1.368 1_655 S
C363 C344 1.429 . S
C363 C357 1.429 . S
C363 C364 1.523 . S
C364 C345 1.368 . S
C364 C358 1.368 1_655 S
C364 C363 1.523 . S
C365 C349 1.429 . S
C365 C361 1.429 . S
C365 C366 1.523 . S
C366 C350 1.368 . S
C366 C362 1.368 1_455 S
C366 C365 1.523 . S
H367 C342 0.950 . S
H368 C344 0.950 . S
H369 C345 0.949 . S
H370 C347 0.950 . S
H371 C349 0.950 . S
C372 C373 1.349 . S
C372 C374 1.327 . S
C372 H397 0.950 . S
C373 C372 1.349 . S
C373 C389 1.349 . S
C374 C372 1.327 . S
C374 C393 1.429 . S
C374 H398 0.950 . S
C375 C392 1.574 . S
C375 C394 1.368 1_554 S
C375 H399 0.949 . S
H376 C380 0.949 . S
C377 C378 1.349 . S
C377 C379 1.327 . S
C377 H400 0.950 . S
C378 C377 1.349 . S
C378 C390 1.349 . S
C379 C377 1.327 . S
C379 C395 1.429 . S
C379 H401 0.950 . S
C380 H376 0.949 . S
C380 C388 1.574 . S
C380 C396 1.368 1_556 S
H381 C389 0.950 . S
H382 C387 0.950 . S
H383 C388 0.949 . S
H384 C390 0.950 . S
H385 C391 0.950 . S
H386 C392 0.949 . S
C387 H382 0.950 . S
C387 C389 1.327 . S
C387 C393 1.429 . S
C388 C380 1.574 . S
C388 H383 0.949 . S
C388 C394 1.368 1_565 S
C389 C373 1.349 . S
C389 H381 0.950 . S
C389 C387 1.327 . S
C390 C378 1.349 . S
C390 H384 0.950 . S
C390 C391 1.327 . S
C391 H385 0.950 . S
C391 C390 1.327 . S
C391 C395 1.429 . S
C392 C375 1.574 . S
C392 H386 0.949 . S
C392 C396 1.368 1_545 S
C393 C374 1.429 . S
C393 C387 1.429 . S
C393 C394 1.523 . S
C394 C375 1.368 1_556 S
C394 C388 1.368 1_545 S
C394 C393 1.523 . S
C395 C379 1.429 . S
C395 C391 1.429 . S
C395 C396 1.523 . S
C396 C380 1.368 1_554 S
C396 C392 1.368 1_565 S
C396 C395 1.523 . S
H397 C372 0.950 . S
H398 C374 0.950 . S
H399 C375 0.949 . S
H400 C377 0.950 . S
H401 C379 0.950 . S
C402 C403 1.349 . S
C402 C404 1.327 . S
C402 H427 0.950 . S
C403 C402 1.349 . S
C403 C419 1.349 . S
C404 C402 1.327 . S
C404 C423 1.429 . S
C404 H428 0.950 . S
C405 C422 1.574 . S
C405 C424 1.368 . S
C405 H429 0.949 . S
H406 C410 0.949 . S
C407 C408 1.349 . S
C407 C409 1.327 . S
C407 H430 0.950 . S
C408 C407 1.349 . S
C408 C420 1.349 . S
C409 C407 1.327 . S
C409 C425 1.429 . S
C409 H431 0.950 . S
C410 H406 0.949 . S
C410 C418 1.574 . S
C410 C426 1.368 . S
H411 C419 0.950 . S
H412 C417 0.950 . S
H413 C418 0.949 . S
H414 C420 0.950 . S
H415 C421 0.950 . S
H416 C422 0.949 . S
C417 H412 0.950 . S
C417 C419 1.327 . S
C417 C423 1.429 . S
C418 C410 1.574 . S
C418 H413 0.949 . S
C418 C424 1.368 . S
C419 C403 1.349 . S
C419 H411 0.950 . S
C419 C417 1.327 . S
C420 C408 1.349 . S
C420 H414 0.950 . S
C420 C421 1.327 . S
C421 H415 0.950 . S
C421 C420 1.327 . S
C421 C425 1.429 . S
C422 C405 1.574 . S
C422 H416 0.949 . S
C422 C426 1.368 . S
C423 C404 1.429 . S
C423 C417 1.429 . S
C423 C424 1.523 . S
C424 C405 1.368 . S
C424 C418 1.368 . S
C424 C423 1.523 . S
C425 C409 1.429 . S
C425 C421 1.429 . S
C425 C426 1.523 . S
C426 C410 1.368 . S
C426 C422 1.368 . S
C426 C425 1.523 . S
H427 C402 0.950 . S
H428 C404 0.950 . S
H429 C405 0.949 . S
H430 C407 0.950 . S
H431 C409 0.950 . S
C432 C433 1.349 . S
C432 C434 1.327 . S
C432 H457 0.950 . S
C433 C432 1.349 . S
C433 C449 1.349 . S
C434 C432 1.327 . S
C434 C453 1.429 . S
C434 H458 0.950 . S
C435 C452 1.574 1_656 S
C435 C454 1.368 . S
C435 H459 0.949 . S
H436 C440 0.949 . S
C437 C438 1.349 . S
C437 C439 1.327 . S
C437 H460 0.950 . S
C438 C437 1.349 . S
C438 C450 1.349 . S
C439 C437 1.327 . S
C439 C455 1.429 . S
C439 H461 0.950 . S
C440 H436 0.949 . S
C440 C448 1.574 1_454 S
C440 C456 1.368 . S
H441 C449 0.950 . S
H442 C447 0.950 . S
H443 C448 0.949 . S
H444 C450 0.950 . S
H445 C451 0.950 . S
H446 C452 0.949 . S
C447 H442 0.950 . S
C447 C449 1.327 . S
C447 C453 1.429 . S
C448 C440 1.574 1_656 S
C448 H443 0.949 . S
C448 C454 1.368 . S
C449 C433 1.349 . S
C449 H441 0.950 . S
C449 C447 1.327 . S
C450 C438 1.349 . S
C450 H444 0.950 . S
C450 C451 1.327 . S
C451 H445 0.950 . S
C451 C450 1.327 . S
C451 C455 1.429 . S
C452 C435 1.574 1_454 S
C452 H446 0.949 . S
C452 C456 1.368 . S
C453 C434 1.429 . S
C453 C447 1.429 . S
C453 C454 1.523 . S
C454 C435 1.368 . S
C454 C448 1.368 . S
C454 C453 1.523 . S
C455 C439 1.429 . S
C455 C451 1.429 . S
C455 C456 1.523 . S
C456 C440 1.368 . S
C456 C452 1.368 . S
C456 C455 1.523 . S
H457 C432 0.950 . S
H458 C434 0.950 . S
H459 C435 0.949 . S
H460 C437 0.950 . S
H461 C439 0.950 . S
C462 C463 1.349 . S
C462 C464 1.327 . S
C462 H487 0.950 . S
C463 C462 1.349 . S
C463 C479 1.349 . S
C464 C462 1.327 . S
C464 C483 1.429 . S
C464 H488 0.950 . S
C465 C482 1.574 1_545 S
C465 C484 1.368 . S
C465 H489 0.949 . S
H466 C470 0.949 . S
C467 C468 1.349 . S
C467 C469 1.327 . S
C467 H490 0.950 . S
C468 C467 1.349 . S
C468 C480 1.349 . S
C469 C467 1.327 . S
C469 C485 1.429 . S
C469 H491 0.950 . S
C470 H466 0.949 . S
C470 C478 1.574 1_565 S
C470 C486 1.368 . S
H471 C479 0.950 . S
H472 C477 0.950 . S
H473 C478 0.949 . S
H474 C480 0.950 . S
H475 C481 0.950 . S
H476 C482 0.949 . S
C477 H472 0.950 . S
C477 C479 1.327 . S
C477 C483 1.429 . S
C478 C470 1.574 1_545 S
C478 H473 0.949 . S
C478 C484 1.368 . S
C479 C463 1.349 . S
C479 H471 0.950 . S
C479 C477 1.327 . S
C480 C468 1.349 . S
C480 H474 0.950 . S
C480 C481 1.327 . S
C481 H475 0.950 . S
C481 C480 1.327 . S
C481 C485 1.429 . S
C482 C465 1.574 1_565 S
C482 H476 0.949 . S
C482 C486 1.368 . S
C483 C464 1.429 . S
C483 C477 1.429 . S
C483 C484 1.523 . S
C484 C465 1.368 . S
C484 C478 1.368 . S
C484 C483 1.523 . S
C485 C469 1.429 . S
C485 C481 1.429 . S
C485 C486 1.523 . S
C486 C470 1.368 . S
C486 C482 1.368 . S
C486 C485 1.523 . S
H487 C462 0.950 . S
H488 C464 0.950 . S
H489 C465 0.949 . S
H490 C467 0.950 . S
H491 C469 0.950 . S
C492 C493 1.349 . S
C492 C494 1.327 . S
C492 H517 0.950 . S
C493 C492 1.349 . S
C493 C509 1.349 . S
C494 C492 1.327 . S
C494 C513 1.429 . S
C494 H518 0.950 . S
C495 C512 1.574 . S
C495 C514 1.368 . S
C495 H519 0.949 . S
H496 C500 0.949 . S
C497 C498 1.349 . S
C497 C499 1.327 . S
C497 H520 0.950 . S
C498 C497 1.349 . S
C498 C510 1.349 . S
C499 C497 1.327 . S
C499 C515 1.429 . S
C499 H521 0.950 . S
C500 H496 0.949 . S
C500 C508 1.574 . S
C500 C516 1.368 . S
H501 C509 0.950 . S
H502 C507 0.950 . S
H503 C508 0.949 . S
H504 C510 0.950 . S
H505 C511 0.950 . S
H506 C512 0.949 . S
C507 H502 0.950 . S
C507 C509 1.327 . S
C507 C513 1.429 . S
C508 C500 1.574 . S
C508 H503 0.949 . S
C508 C514 1.368 1_556 S
C509 C493 1.349 . S
C509 H501 0.950 . S
C509 C507 1.327 . S
C510 C498 1.349 . S
C510 H504 0.950 . S
C510 C511 1.327 . S
C511 H505 0.950 . S
C511 C510 1.327 . S
C511 C515 1.429 . S
C512 C495 1.574 . S
C512 H506 0.949 . S
C512 C516 1.368 1_554 S
C513 C494 1.429 . S
C513 C507 1.429 . S
C513 C514 1.523 . S
C514 C495 1.368 . S
C514 C508 1.368 1_554 S
C514 C513 1.523 . S
C515 C499 1.429 . S
C515 C511 1.429 . S
C515 C516 1.523 . S
C516 C500 1.368 . S
C516 C512 1.368 1_556 S
C516 C515 1.523 . S
H517 C492 0.950 . S
H518 C494 0.950 . S
H519 C495 0.949 . S
H520 C497 0.950 . S
H521 C499 0.950 . S
C522 C523 1.349 . S
C522 C524 1.327 . S
C522 H547 0.950 . S
C523 C522 1.349 . S
C523 C539 1.349 . S
C524 C522 1.327 . S
C524 C543 1.429 . S
C524 H548 0.950 . S
C525 C542 1.574 . S
C525 C544 1.368 . S
C525 H549 0.949 . S
H526 C530 0.949 . S
C527 C528 1.349 . S
C527 C529 1.327 . S
C527 H550 0.950 . S
C528 C527 1.349 . S
C528 C540 1.349 . S
C529 C527 1.327 . S
C529 C545 1.429 . S
C529 H551 0.950 . S
C530 H526 0.949 . S
C530 C538 1.574 . S
C530 C546 1.368 . S
H531 C539 0.950 . S
H532 C537 0.950 . S
H533 C538 0.949 . S
H534 C540 0.950 . S
H535 C541 0.950 . S
H536 C542 0.949 . S
C537 H532 0.950 . S
C537 C539 1.327 . S
C537 C543 1.429 . S
C538 C530 1.574 . S
C538 H533 0.949 . S
C538 C544 1.368 1_455 S
C539 C523 1.349 . S
C539 H531 0.950 . S
C539 C537 1.327 . S
C540 C528 1.349 . S
C540 H534 0.950 . S
C540 C541 1.327 . S
C541 H535 0.950 . S
C541 C540 1.327 . S
C541 C545 1.429 . S
C542 C525 1.574 . S
C542 H536 0.949 . S
C542 C546 1.368 1_655 S
C543 C524 1.429 . S
C543 C537 1.429 . S
C543 C544 1.523 . S
C544 C525 1.368 . S
C544 C538 1.368 1_655 S
C544 C543 1.523 . S
C545 C529 1.429 . S
C545 C541 1.429 . S
C545 C546 1.523 . S
C546 C530 1.368 . S
C546 C542 1.368 1_455 S
C546 C545 1.523 . S
H547 C522 0.950 . S
H548 C524 0.950 . S
H549 C525 0.949 . S
H550 C527 0.950 . S
H551 C529 0.950 . S
C552 C553 1.349 . S
C552 C554 1.327 . S
C552 H577 0.950 . S
C553 C552 1.349 . S
C553 C569 1.349 . S
C554 C552 1.327 . S
C554 C573 1.429 . S
C554 H578 0.950 . S
C555 C572 1.574 1_564 S
C555 C574 1.368 . S
C555 H579 0.949 . S
H556 C560 0.949 . S
C557 C558 1.349 . S
C557 C559 1.327 . S
C557 H580 0.950 . S
C558 C557 1.349 . S
C558 C570 1.349 . S
C559 C557 1.327 . S
C559 C575 1.429 . S
C559 H581 0.950 . S
C560 H556 0.949 . S
C560 C568 1.574 1_546 S
C560 C576 1.368 . S
H561 C569 0.950 . S
H562 C567 0.950 . S
H563 C568 0.949 . S
H564 C570 0.950 . S
H565 C571 0.950 . S
H566 C572 0.949 . S
C567 H562 0.950 . S
C567 C569 1.327 . S
C567 C573 1.429 . S
C568 C560 1.574 1_564 S
C568 H563 0.949 . S
C568 C574 1.368 . S
C569 C553 1.349 . S
C569 H561 0.950 . S
C569 C567 1.327 . S
C570 C558 1.349 . S
C570 H564 0.950 . S
C570 C571 1.327 . S
C571 H565 0.950 . S
C571 C570 1.327 . S
C571 C575 1.429 . S
C572 C555 1.574 1_546 S
C572 H566 0.949 . S
C572 C576 1.368 . S
C573 C554 1.429 . S
C573 C567 1.429 . S
C573 C574 1.523 . S
C574 C555 1.368 . S
C574 C568 1.368 . S
C574 C573 1.523 . S
C575 C559 1.429 . S
C575 C571 1.429 . S
C575 C576 1.523 . S
C576 C560 1.368 . S
C576 C572 1.368 . S
C576 C575 1.523 . S
H577 C552 0.950 . S
H578 C554 0.950 . S
H579 C555 0.949 . S
H580 C557 0.950 . S
H581 C559 0.950 . S
C582 C583 1.349 . S
C582 C584 1.327 . S
C582 H607 0.950 . S
C583 C582 1.349 . S
C583 C599 1.349 . S
C584 C582 1.327 . S
C584 C603 1.429 . S
C584 H608 0.950 . S
C585 C602 1.574 . S
C585 C604 1.368 . S
C585 H609 0.949 . S
H586 C590 0.949 . S
C587 C588 1.349 . S
C587 C589 1.327 . S
C587 H610 0.950 . S
C588 C587 1.349 . S
C588 C600 1.349 . S
C589 C587 1.327 . S
C589 C605 1.429 . S
C589 H611 0.950 . S
C590 H586 0.949 . S
C590 C598 1.574 . S
C590 C606 1.368 . S
H591 C599 0.950 . S
H592 C597 0.950 . S
H593 C598 0.949 . S
H594 C600 0.950 . S
H595 C601 0.950 . S
H596 C602 0.949 . S
C597 H592 0.950 . S
C597 C599 1.327 . S
C597 C603 1.429 . S
C598 C590 1.574 . S
C598 H593 0.949 . S
C598 C604 1.368 . S
C599 C583 1.349 . S
C599 H591 0.950 . S
C599 C597 1.327 . S
C600 C588 1.349 . S
C600 H594 0.950 . S
C600 C601 1.327 . S
C601 H595 0.950 . S
C601 C600 1.327 . S
C601 C605 1.429 . S
C602 C585 1.574 . S
C602 H596 0.949 . S
C602 C606 1.368 . S
C603 C584 1.429 . S
C603 C597 1.429 . S
C603 C604 1.523 . S
C604 C585 1.368 . S
C604 C598 1.368 . S
C604 C603 1.523 . S
C605 C589 1.429 . S
C605 C601 1.429 . S
C605 C606 1.523 . S
C606 C590 1.368 . S
C606 C602 1.368 . S
C606 C605 1.523 . S
H607 C582 0.950 . S
H608 C584 0.950 . S
H609 C585 0.949 . S
H610 C587 0.950 . S
H611 C589 0.950 . S
C612 C613 1.349 . S
C612 C614 1.327 . S
C612 H637 0.950 . S
C613 C612 1.349 . S
C613 C629 1.349 . S
C614 C612 1.327 . S
C614 C633 1.429 . S
C614 H638 0.950 . S
C615 C632 1.574 1_656 S
C615 C634 1.368 . S
C615 H639 0.949 . S
H616 C620 0.949 . S
C617 C618 1.349 . S
C617 C619 1.327 . S
C617 H640 0.950 . S
C618 C617 1.349 . S
C618 C630 1.349 . S
C619 C617 1.327 . S
C619 C635 1.429 . S
C619 H641 0.950 . S
C620 H616 0.949 . S
C620 C628 1.574 1_454 S
C620 C636 1.368 . S
H621 C629 0.950 . S
H622 C627 0.950 . S
H623 C628 0.949 . S
H624 C630 0.950 . S
H625 C631 0.950 . S
H626 C632 0.949 . S
C627 H622 0.950 . S
C627 C629 1.327 . S
C627 C633 1.429 . S
C628 C620 1.574 1_656 S
C628 H623 0.949 . S
C628 C634 1.368 . S
C629 C613 1.349 . S
C629 H621 0.950 . S
C629 C627 1.327 . S
C630 C618 1.349 . S
C630 H624 0.950 . S
C630 C631 1.327 . S
C631 H625 0.950 . S
C631 C630 1.327 . S
C631 C635 1.429 . S
C632 C615 1.574 1_454 S
C632 H626 0.949 . S
C632 C636 1.368 . S
C633 C614 1.429 . S
C633 C627 1.429 . S
C633 C634 1.523 . S
C634 C615 1.368 . S
C634 C628 1.368 . S
C634 C633 1.523 . S
C635 C619 1.429 . S
C635 C631 1.429 . S
C635 C636 1.523 . S
C636 C620 1.368 . S
C636 C632 1.368 . S
C636 C635 1.523 . S
H637 C612 0.950 . S
H638 C614 0.950 . S
H639 C615 0.949 . S
H640 C617 0.950 . S
H641 C619 0.950 . S
C642 C643 1.349 . S
C642 C644 1.327 . S
C642 H667 0.950 . S
C643 C642 1.349 . S
C643 C659 1.349 . S
C644 C642 1.327 . S
C644 C663 1.429 . S
C644 H668 0.950 . S
C645 C662 1.574 . S
C645 C664 1.368 . S
C645 H669 0.949 . S
H646 C650 0.949 . S
C647 C648 1.349 . S
C647 C649 1.327 . S
C647 H670 0.950 . S
C648 C647 1.349 . S
C648 C660 1.349 . S
C649 C647 1.327 . S
C649 C665 1.429 . S
C649 H671 0.950 . S
C650 H646 0.949 . S
C650 C658 1.574 . S
C650 C666 1.368 . S
H651 C659 0.950 . S
H652 C657 0.950 . S
H653 C658 0.949 . S
H654 C660 0.950 . S
H655 C661 0.950 . S
H656 C662 0.949 . S
C657 H652 0.950 . S
C657 C659 1.327 . S
C657 C663 1.429 . S
C658 C650 1.574 . S
C658 H653 0.949 . S
C658 C664 1.368 1_545 S
C659 C643 1.349 . S
C659 H651 0.950 . S
C659 C657 1.327 . S
C660 C648 1.349 . S
C660 H654 0.950 . S
C660 C661 1.327 . S
C661 H655 0.950 . S
C661 C660 1.327 . S
C661 C665 1.429 . S
C662 C645 1.574 . S
C662 H656 0.949 . S
C662 C666 1.368 1_565 S
C663 C644 1.429 . S
C663 C657 1.429 . S
C663 C664 1.523 . S
C664 C645 1.368 . S
C664 C658 1.368 1_565 S
C664 C663 1.523 . S
C665 C649 1.429 . S
C665 C661 1.429 . S
C665 C666 1.523 . S
C666 C650 1.368 . S
C666 C662 1.368 1_545 S
C666 C665 1.523 . S
H667 C642 0.950 . S
H668 C644 0.950 . S
H669 C645 0.949 . S
H670 C647 0.950 . S
H671 C649 0.950 . S
C133 C15 1.438 . S
C138 C103 1.439 . S
C163 C40 1.417 . S
C168 C117 1.399 . S
C193 C10 1.379 . S
C198 C54 1.378 . S
C223 C81 1.438 . S
C228 C29 1.439 . S
C253 C59 1.399 . S
C258 C98 1.417 . S
C283 C76 1.379 . S
C288 C128 1.378 . S
C313 C120 1.484 . S
C318 C8 1.484 . S
C343 C43 1.563 . S
C348 C7 1.563 . S
C373 C32 1.528 . S
C378 C51 1.520 . S
C403 C52 1.484 . S
C408 C74 1.484 . S
C433 C73 1.563 . S
C438 C95 1.563 . S
C463 C131 1.520 . S
C468 C96 1.528 . S
C493 C62 1.483 . S
C498 C84 1.483 . S
C523 C87 1.562 . S
C528 C109 1.562 . S
C553 C106 1.527 . S
C558 C125 1.519 . S
C583 C118 1.483 . S
C588 C18 1.483 . S
C613 C37 1.562 . S
C618 C21 1.562 . S
C643 C65 1.519 . S
C648 C30 1.527 . S
