# Generated by pormake.
# Topology flu-e, (6)-cn, num edge types: 1
# Building blocks:
#     Node 0, Type 0, BuildingBlock: OJICUG_clean_sbu_0, # of connection points: 6
#     Node 1, Type 0, BuildingBlock: OJICUG_clean_sbu_0, # of connection points: 6
#     Node 2, Type 0, BuildingBlock: OJICUG_clean_sbu_0, # of connection points: 6
#     Node 3, Type 0, BuildingBlock: OJICUG_clean_sbu_0, # of connection points: 6
#     Node 4, Type 0, BuildingBlock: OJICUG_clean_sbu_0, # of connection points: 6
#     Node 5, Type 0, BuildingBlock: OJICUG_clean_sbu_0, # of connection points: 6
#     Node 6, Type 0, BuildingBlock: OJICUG_clean_sbu_0, # of connection points: 6
#     Node 7, Type 0, BuildingBlock: OJICUG_clean_sbu_0, # of connection points: 6
#     Node 8, Type 0, BuildingBlock: OJICUG_clean_sbu_0, # of connection points: 6
#     Node 9, Type 0, BuildingBlock: OJICUG_clean_sbu_0, # of connection points: 6
#     Node 10, Type 0, BuildingBlock: OJICUG_clean_sbu_0, # of connection points: 6
#     Node 11, Type 0, BuildingBlock: OJICUG_clean_sbu_0, # of connection points: 6
#     Node 12, Type 0, BuildingBlock: OJICUG_clean_sbu_0, # of connection points: 6
#     Node 13, Type 0, BuildingBlock: OJICUG_clean_sbu_0, # of connection points: 6
#     Node 14, Type 0, BuildingBlock: OJICUG_clean_sbu_0, # of connection points: 6
#     Node 15, Type 0, BuildingBlock: OJICUG_clean_sbu_0, # of connection points: 6
#     Node 16, Type 0, BuildingBlock: OJICUG_clean_sbu_0, # of connection points: 6
#     Node 17, Type 0, BuildingBlock: OJICUG_clean_sbu_0, # of connection points: 6
#     Node 18, Type 0, BuildingBlock: OJICUG_clean_sbu_0, # of connection points: 6
#     Node 19, Type 0, BuildingBlock: OJICUG_clean_sbu_0, # of connection points: 6
#     Node 20, Type 0, BuildingBlock: OJICUG_clean_sbu_0, # of connection points: 6
#     Node 21, Type 0, BuildingBlock: OJICUG_clean_sbu_0, # of connection points: 6
#     Node 22, Type 0, BuildingBlock: OJICUG_clean_sbu_0, # of connection points: 6
#     Node 23, Type 0, BuildingBlock: OJICUG_clean_sbu_0, # of connection points: 6
#     Node 24, Type 0, BuildingBlock: OJICUG_clean_sbu_0, # of connection points: 6
#     Node 25, Type 0, BuildingBlock: OJICUG_clean_sbu_0, # of connection points: 6
#     Node 26, Type 0, BuildingBlock: OJICUG_clean_sbu_0, # of connection points: 6
#     Node 27, Type 0, BuildingBlock: OJICUG_clean_sbu_0, # of connection points: 6
#     Node 28, Type 0, BuildingBlock: OJICUG_clean_sbu_0, # of connection points: 6
#     Node 29, Type 0, BuildingBlock: OJICUG_clean_sbu_0, # of connection points: 6
#     Node 30, Type 0, BuildingBlock: OJICUG_clean_sbu_0, # of connection points: 6
#     Node 31, Type 0, BuildingBlock: OJICUG_clean_sbu_0, # of connection points: 6
#     Edge 32, Type (0, 0), BuildingBlock: XIVTED_clean_linker_0, # of connection points: 2
#     Edge 33, Type (0, 0), BuildingBlock: XIVTED_clean_linker_0, # of connection points: 2
#     Edge 34, Type (0, 0), BuildingBlock: XIVTED_clean_linker_0, # of connection points: 2
#     Edge 35, Type (0, 0), BuildingBlock: XIVTED_clean_linker_0, # of connection points: 2
#     Edge 36, Type (0, 0), BuildingBlock: XIVTED_clean_linker_0, # of connection points: 2
#     Edge 37, Type (0, 0), BuildingBlock: XIVTED_clean_linker_0, # of connection points: 2
#     Edge 38, Type (0, 0), BuildingBlock: XIVTED_clean_linker_0, # of connection points: 2
#     Edge 39, Type (0, 0), BuildingBlock: XIVTED_clean_linker_0, # of connection points: 2
#     Edge 40, Type (0, 0), BuildingBlock: XIVTED_clean_linker_0, # of connection points: 2
#     Edge 41, Type (0, 0), BuildingBlock: XIVTED_clean_linker_0, # of connection points: 2
#     Edge 42, Type (0, 0), BuildingBlock: XIVTED_clean_linker_0, # of connection points: 2
#     Edge 43, Type (0, 0), BuildingBlock: XIVTED_clean_linker_0, # of connection points: 2
#     Edge 44, Type (0, 0), BuildingBlock: XIVTED_clean_linker_0, # of connection points: 2
#     Edge 45, Type (0, 0), BuildingBlock: XIVTED_clean_linker_0, # of connection points: 2
#     Edge 46, Type (0, 0), BuildingBlock: XIVTED_clean_linker_0, # of connection points: 2
#     Edge 47, Type (0, 0), BuildingBlock: XIVTED_clean_linker_0, # of connection points: 2
#     Edge 48, Type (0, 0), BuildingBlock: XIVTED_clean_linker_0, # of connection points: 2
#     Edge 49, Type (0, 0), BuildingBlock: XIVTED_clean_linker_0, # of connection points: 2
#     Edge 50, Type (0, 0), BuildingBlock: XIVTED_clean_linker_0, # of connection points: 2
#     Edge 51, Type (0, 0), BuildingBlock: XIVTED_clean_linker_0, # of connection points: 2
#     Edge 52, Type (0, 0), BuildingBlock: XIVTED_clean_linker_0, # of connection points: 2
#     Edge 53, Type (0, 0), BuildingBlock: XIVTED_clean_linker_0, # of connection points: 2
#     Edge 54, Type (0, 0), BuildingBlock: XIVTED_clean_linker_0, # of connection points: 2
#     Edge 55, Type (0, 0), BuildingBlock: XIVTED_clean_linker_0, # of connection points: 2
#     Edge 56, Type (0, 0), BuildingBlock: XIVTED_clean_linker_0, # of connection points: 2
#     Edge 57, Type (0, 0), BuildingBlock: XIVTED_clean_linker_0, # of connection points: 2
#     Edge 58, Type (0, 0), BuildingBlock: XIVTED_clean_linker_0, # of connection points: 2
#     Edge 59, Type (0, 0), BuildingBlock: XIVTED_clean_linker_0, # of connection points: 2
#     Edge 60, Type (0, 0), BuildingBlock: XIVTED_clean_linker_0, # of connection points: 2
#     Edge 61, Type (0, 0), BuildingBlock: XIVTED_clean_linker_0, # of connection points: 2
#     Edge 62, Type (0, 0), BuildingBlock: XIVTED_clean_linker_0, # of connection points: 2
#     Edge 63, Type (0, 0), BuildingBlock: XIVTED_clean_linker_0, # of connection points: 2
#     Edge 64, Type (0, 0), BuildingBlock: XIVTED_clean_linker_0, # of connection points: 2
#     Edge 65, Type (0, 0), BuildingBlock: XIVTED_clean_linker_0, # of connection points: 2
#     Edge 66, Type (0, 0), BuildingBlock: XIVTED_clean_linker_0, # of connection points: 2
#     Edge 67, Type (0, 0), BuildingBlock: XIVTED_clean_linker_0, # of connection points: 2
#     Edge 68, Type (0, 0), BuildingBlock: XIVTED_clean_linker_0, # of connection points: 2
#     Edge 69, Type (0, 0), BuildingBlock: XIVTED_clean_linker_0, # of connection points: 2
#     Edge 70, Type (0, 0), BuildingBlock: XIVTED_clean_linker_0, # of connection points: 2
#     Edge 71, Type (0, 0), BuildingBlock: XIVTED_clean_linker_0, # of connection points: 2
#     Edge 72, Type (0, 0), BuildingBlock: XIVTED_clean_linker_0, # of connection points: 2
#     Edge 73, Type (0, 0), BuildingBlock: XIVTED_clean_linker_0, # of connection points: 2
#     Edge 74, Type (0, 0), BuildingBlock: XIVTED_clean_linker_0, # of connection points: 2
#     Edge 75, Type (0, 0), BuildingBlock: XIVTED_clean_linker_0, # of connection points: 2
#     Edge 76, Type (0, 0), BuildingBlock: XIVTED_clean_linker_0, # of connection points: 2
#     Edge 77, Type (0, 0), BuildingBlock: XIVTED_clean_linker_0, # of connection points: 2
#     Edge 78, Type (0, 0), BuildingBlock: XIVTED_clean_linker_0, # of connection points: 2
#     Edge 79, Type (0, 0), BuildingBlock: XIVTED_clean_linker_0, # of connection points: 2
#     Edge 80, Type (0, 0), BuildingBlock: XIVTED_clean_linker_0, # of connection points: 2
#     Edge 81, Type (0, 0), BuildingBlock: XIVTED_clean_linker_0, # of connection points: 2
#     Edge 82, Type (0, 0), BuildingBlock: XIVTED_clean_linker_0, # of connection points: 2
#     Edge 83, Type (0, 0), BuildingBlock: XIVTED_clean_linker_0, # of connection points: 2
#     Edge 84, Type (0, 0), BuildingBlock: XIVTED_clean_linker_0, # of connection points: 2
#     Edge 85, Type (0, 0), BuildingBlock: XIVTED_clean_linker_0, # of connection points: 2
#     Edge 86, Type (0, 0), BuildingBlock: XIVTED_clean_linker_0, # of connection points: 2
#     Edge 87, Type (0, 0), BuildingBlock: XIVTED_clean_linker_0, # of connection points: 2
#     Edge 88, Type (0, 0), BuildingBlock: XIVTED_clean_linker_0, # of connection points: 2
#     Edge 89, Type (0, 0), BuildingBlock: XIVTED_clean_linker_0, # of connection points: 2
#     Edge 90, Type (0, 0), BuildingBlock: XIVTED_clean_linker_0, # of connection points: 2
#     Edge 91, Type (0, 0), BuildingBlock: XIVTED_clean_linker_0, # of connection points: 2
#     Edge 92, Type (0, 0), BuildingBlock: XIVTED_clean_linker_0, # of connection points: 2
#     Edge 93, Type (0, 0), BuildingBlock: XIVTED_clean_linker_0, # of connection points: 2
#     Edge 94, Type (0, 0), BuildingBlock: XIVTED_clean_linker_0, # of connection points: 2
#     Edge 95, Type (0, 0), BuildingBlock: XIVTED_clean_linker_0, # of connection points: 2
#     Edge 96, Type (0, 0), BuildingBlock: XIVTED_clean_linker_0, # of connection points: 2
#     Edge 97, Type (0, 0), BuildingBlock: XIVTED_clean_linker_0, # of connection points: 2
#     Edge 98, Type (0, 0), BuildingBlock: XIVTED_clean_linker_0, # of connection points: 2
#     Edge 99, Type (0, 0), BuildingBlock: XIVTED_clean_linker_0, # of connection points: 2
#     Edge 100, Type (0, 0), BuildingBlock: XIVTED_clean_linker_0, # of connection points: 2
#     Edge 101, Type (0, 0), BuildingBlock: XIVTED_clean_linker_0, # of connection points: 2
#     Edge 102, Type (0, 0), BuildingBlock: XIVTED_clean_linker_0, # of connection points: 2
#     Edge 103, Type (0, 0), BuildingBlock: XIVTED_clean_linker_0, # of connection points: 2
#     Edge 104, Type (0, 0), BuildingBlock: XIVTED_clean_linker_0, # of connection points: 2
#     Edge 105, Type (0, 0), BuildingBlock: XIVTED_clean_linker_0, # of connection points: 2
#     Edge 106, Type (0, 0), BuildingBlock: XIVTED_clean_linker_0, # of connection points: 2
#     Edge 107, Type (0, 0), BuildingBlock: XIVTED_clean_linker_0, # of connection points: 2
#     Edge 108, Type (0, 0), BuildingBlock: XIVTED_clean_linker_0, # of connection points: 2
#     Edge 109, Type (0, 0), BuildingBlock: XIVTED_clean_linker_0, # of connection points: 2
#     Edge 110, Type (0, 0), BuildingBlock: XIVTED_clean_linker_0, # of connection points: 2
#     Edge 111, Type (0, 0), BuildingBlock: XIVTED_clean_linker_0, # of connection points: 2
#     Edge 112, Type (0, 0), BuildingBlock: XIVTED_clean_linker_0, # of connection points: 2
#     Edge 113, Type (0, 0), BuildingBlock: XIVTED_clean_linker_0, # of connection points: 2
#     Edge 114, Type (0, 0), BuildingBlock: XIVTED_clean_linker_0, # of connection points: 2
#     Edge 115, Type (0, 0), BuildingBlock: XIVTED_clean_linker_0, # of connection points: 2
#     Edge 116, Type (0, 0), BuildingBlock: XIVTED_clean_linker_0, # of connection points: 2
#     Edge 117, Type (0, 0), BuildingBlock: XIVTED_clean_linker_0, # of connection points: 2
#     Edge 118, Type (0, 0), BuildingBlock: XIVTED_clean_linker_0, # of connection points: 2
#     Edge 119, Type (0, 0), BuildingBlock: XIVTED_clean_linker_0, # of connection points: 2
#     Edge 120, Type (0, 0), BuildingBlock: XIVTED_clean_linker_0, # of connection points: 2
#     Edge 121, Type (0, 0), BuildingBlock: XIVTED_clean_linker_0, # of connection points: 2
#     Edge 122, Type (0, 0), BuildingBlock: XIVTED_clean_linker_0, # of connection points: 2
#     Edge 123, Type (0, 0), BuildingBlock: XIVTED_clean_linker_0, # of connection points: 2
#     Edge 124, Type (0, 0), BuildingBlock: XIVTED_clean_linker_0, # of connection points: 2
#     Edge 125, Type (0, 0), BuildingBlock: XIVTED_clean_linker_0, # of connection points: 2
#     Edge 126, Type (0, 0), BuildingBlock: XIVTED_clean_linker_0, # of connection points: 2
#     Edge 127, Type (0, 0), BuildingBlock: XIVTED_clean_linker_0, # of connection points: 2
# Relax obj value: 0.101
# Max RMSD: 0.123
# Mean RMSD: 0.123
data_MOF--net-flu-e--node1-OJICUG_clean_sbu_0--edge1-XIVTED_clean_linker_0
_symmetry_space_group_name_H-M    P1
_symmetry_Int_Tables_number       1
_symmetry_cell_setting            triclinic
loop_
_symmetry_equiv_pos_as_xyz
'x, y, z'
_cell_length_a     56.642059
_cell_length_b     56.618043
_cell_length_c     56.630265
_cell_angle_alpha  90.005451
_cell_angle_beta   90.000069
_cell_angle_gamma 90.03872
loop_
_atom_site_label
_atom_site_type_symbol
_atom_site_fract_x
_atom_site_fract_y
_atom_site_fract_z
_atom_type_partial_charge
Sc0 Sc 0.11904 0.16509 0.35264 0.0
Sc1 Sc 0.11873 0.11985 0.30995 0.0
Sc2 Sc 0.16266 0.12086 0.35401 0.0
O3 O 0.1335 0.13529 0.33884 0.0
C4 C 0.17402 0.17588 0.35686 0.0
C5 C 0.114 0.17438 0.29738 0.0
C6 C 0.17364 0.11459 0.29911 0.0
C7 C 0.07356 0.13477 0.33985 0.0
C8 C 0.13309 0.13676 0.39907 0.0
C9 C 0.13236 0.07531 0.34137 0.0
O10 O 0.15261 0.18242 0.35546 0.0
O11 O 0.11512 0.15277 0.29151 0.0
O12 O 0.18 0.11605 0.32058 0.0
O13 O 0.08403 0.15087 0.35142 0.0
O14 O 0.14865 0.12407 0.3891 0.0
O15 O 0.12056 0.08524 0.32511 0.0
O16 O 0.12123 0.15233 0.38816 0.0
O17 O 0.08372 0.12238 0.32416 0.0
O18 O 0.14822 0.08589 0.35317 0.0
O19 O 0.11508 0.18132 0.31867 0.0
O20 O 0.18025 0.15434 0.35665 0.0
O21 O 0.15219 0.11563 0.29264 0.0
Sc22 Sc 0.8101 0.11478 0.35897 0.0
Sc23 Sc 0.85344 0.15946 0.35863 0.0
Sc24 Sc 0.85366 0.11552 0.31462 0.0
O25 O 0.83904 0.12995 0.34405 0.0
C26 C 0.84035 0.06978 0.34439 0.0
C27 C 0.84041 0.12904 0.40403 0.0
C28 C 0.89912 0.13018 0.34407 0.0
C29 C 0.7984 0.16954 0.36423 0.0
C30 C 0.79871 0.10999 0.30415 0.0
C31 C 0.85766 0.17063 0.30369 0.0
O32 O 0.82456 0.0799 0.35665 0.0
O33 O 0.85208 0.14512 0.39363 0.0
O34 O 0.88874 0.11789 0.32847 0.0
O35 O 0.7923 0.14798 0.36309 0.0
O36 O 0.8201 0.11143 0.29758 0.0
O37 O 0.8565 0.17703 0.32516 0.0
O38 O 0.79243 0.11097 0.32566 0.0
O39 O 0.81974 0.17629 0.36287 0.0
O40 O 0.85691 0.14913 0.29731 0.0
O41 O 0.82463 0.11681 0.39382 0.0
O42 O 0.85216 0.08036 0.32855 0.0
O43 O 0.88872 0.14595 0.35614 0.0
Sc44 Sc 0.85073 0.806 0.34858 0.0
Sc45 Sc 0.85114 0.85066 0.3053 0.0
Sc46 Sc 0.80687 0.85005 0.34906 0.0
O47 O 0.83622 0.83555 0.33429 0.0
C48 C 0.79573 0.79507 0.35272 0.0
C49 C 0.85555 0.79584 0.29346 0.0
C50 C 0.79626 0.85558 0.29402 0.0
C51 C 0.89627 0.83614 0.33543 0.0
C52 C 0.83664 0.83529 0.39442 0.0
C53 C 0.83718 0.89555 0.33606 0.0
O54 O 0.81721 0.78871 0.35187 0.0
O55 O 0.85483 0.81743 0.2874 0.0
O56 O 0.78976 0.85435 0.31546 0.0
O57 O 0.88581 0.82003 0.34697 0.0
O58 O 0.82074 0.84739 0.38425 0.0
O59 O 0.84914 0.88547 0.32001 0.0
O60 O 0.84876 0.8197 0.38382 0.0
O61 O 0.8861 0.8485 0.31973 0.0
O62 O 0.82125 0.88506 0.34785 0.0
O63 O 0.85433 0.78911 0.31482 0.0
O64 O 0.78932 0.81654 0.35191 0.0
O65 O 0.81776 0.85456 0.28772 0.0
Sc66 Sc 0.11546 0.85539 0.31491 0.0
Sc67 Sc 0.1602 0.85621 0.35799 0.0
Sc68 Sc 0.11642 0.812 0.35951 0.0
O69 O 0.13071 0.84116 0.34411 0.0
C70 C 0.07051 0.84115 0.34547 0.0
C71 C 0.12955 0.90119 0.34416 0.0
C72 C 0.13112 0.84278 0.40411 0.0
C73 C 0.17013 0.86064 0.30287 0.0
C74 C 0.11096 0.80025 0.30477 0.0
C75 C 0.17159 0.80145 0.36354 0.0
O76 O 0.08066 0.85311 0.32947 0.0
O77 O 0.14578 0.89112 0.35587 0.0
O78 O 0.11879 0.82681 0.39431 0.0
O79 O 0.14856 0.85937 0.29688 0.0
O80 O 0.11239 0.79409 0.3263 0.0
O81 O 0.17785 0.82292 0.36177 0.0
O82 O 0.11186 0.82165 0.29808 0.0
O83 O 0.17694 0.85968 0.32421 0.0
O84 O 0.15013 0.79491 0.3631 0.0
O85 O 0.11725 0.89059 0.3287 0.0
O86 O 0.08111 0.82564 0.3577 0.0
O87 O 0.14679 0.85454 0.39324 0.0
Sc88 Sc 0.16736 0.86419 0.62353 0.0
Sc89 Sc 0.12511 0.81867 0.62446 0.0
Sc90 Sc 0.12299 0.86367 0.66731 0.0
O91 O 0.13852 0.84884 0.63848 0.0
C92 C 0.17774 0.87047 0.67848 0.0
C93 C 0.1804 0.8096 0.62026 0.0
C94 C 0.11998 0.80882 0.67953 0.0
C95 C 0.13815 0.848 0.57842 0.0
C96 C 0.13587 0.90887 0.63643 0.0
C97 C 0.0785 0.84727 0.63711 0.0
O98 O 0.18424 0.86924 0.65705 0.0
O99 O 0.15917 0.80252 0.62148 0.0
O100 O 0.12011 0.83044 0.68554 0.0
O101 O 0.1535 0.86094 0.58841 0.0
O102 O 0.12407 0.89852 0.65245 0.0
O103 O 0.08966 0.8315 0.62578 0.0
O104 O 0.15201 0.89872 0.62467 0.0
O105 O 0.12681 0.83196 0.58919 0.0
O106 O 0.08808 0.86021 0.65275 0.0
O107 O 0.18609 0.8313 0.62069 0.0
O108 O 0.15629 0.86876 0.68487 0.0
O109 O 0.12172 0.80207 0.65823 0.0
Sc110 Sc 0.1211 0.17228 0.61925 0.0
Sc111 Sc 0.12305 0.12883 0.66378 0.0
Sc112 Sc 0.16601 0.12913 0.61896 0.0
O113 O 0.13674 0.14345 0.634 0.0
C114 C 0.13505 0.14209 0.5739 0.0
C115 C 0.07667 0.14143 0.63465 0.0
C116 C 0.13711 0.08335 0.63399 0.0
C117 C 0.11733 0.18378 0.67423 0.0
C118 C 0.17578 0.18432 0.61353 0.0
C119 C 0.17829 0.12514 0.67369 0.0
O120 O 0.12286 0.15786 0.58418 0.0
O121 O 0.08772 0.13 0.65044 0.0
O122 O 0.15256 0.09379 0.62153 0.0
O123 O 0.1176 0.19 0.65267 0.0
O124 O 0.18254 0.16296 0.61463 0.0
O125 O 0.15694 0.12591 0.6805 0.0
O126 O 0.15422 0.19039 0.61489 0.0
O127 O 0.11917 0.16241 0.68079 0.0
O128 O 0.18423 0.1261 0.65209 0.0
O129 O 0.08632 0.15729 0.62203 0.0
O130 O 0.15118 0.13047 0.58423 0.0
O131 O 0.1253 0.09369 0.64998 0.0
Sc132 Sc 0.85531 0.16102 0.62391 0.0
Sc133 Sc 0.81246 0.11605 0.6242 0.0
Sc134 Sc 0.85764 0.11622 0.66705 0.0
O135 O 0.84179 0.13111 0.63843 0.0
C136 C 0.90197 0.13235 0.63647 0.0
C137 C 0.84119 0.13135 0.57843 0.0
C138 C 0.84382 0.07113 0.63649 0.0
C139 C 0.79997 0.17067 0.62048 0.0
C140 C 0.86111 0.17113 0.67889 0.0
C141 C 0.80304 0.11 0.6793 0.0
O142 O 0.89078 0.14805 0.62506 0.0
O143 O 0.82569 0.11896 0.58887 0.0
O144 O 0.85611 0.08132 0.65224 0.0
O145 O 0.82131 0.17753 0.62104 0.0
O146 O 0.86094 0.14953 0.68499 0.0
O147 O 0.79611 0.11138 0.65802 0.0
O148 O 0.85913 0.17784 0.65759 0.0
O149 O 0.79407 0.14907 0.62153 0.0
O150 O 0.82464 0.11135 0.68522 0.0
O151 O 0.85314 0.14726 0.58877 0.0
O152 O 0.89239 0.11948 0.65215 0.0
O153 O 0.82747 0.08143 0.62518 0.0
Sc154 Sc 0.8595 0.80832 0.61337 0.0
Sc155 Sc 0.85869 0.85013 0.6594 0.0
Sc156 Sc 0.81467 0.85152 0.61563 0.0
O157 O 0.84426 0.83662 0.62947 0.0
C158 C 0.84411 0.83953 0.56922 0.0
C159 C 0.90428 0.83865 0.62868 0.0
C160 C 0.84413 0.89663 0.63146 0.0
C161 C 0.8649 0.79489 0.6677 0.0
C162 C 0.80462 0.79658 0.60868 0.0
C163 C 0.80387 0.85389 0.67093 0.0
O164 O 0.8568 0.8238 0.5789 0.0
O165 O 0.89357 0.84954 0.64506 0.0
O166 O 0.82856 0.88667 0.61876 0.0
O167 O 0.86392 0.78939 0.64598 0.0
O168 O 0.79786 0.81787 0.61089 0.0
O169 O 0.82534 0.85239 0.67716 0.0
O170 O 0.82621 0.79049 0.60918 0.0
O171 O 0.86319 0.816 0.67505 0.0
O172 O 0.79741 0.85395 0.64943 0.0
O173 O 0.89441 0.82316 0.61577 0.0
O174 O 0.82823 0.85087 0.58024 0.0
O175 O 0.85601 0.88572 0.64701 0.0
Sc176 Sc 0.3546 0.16606 0.11956 0.0
Sc177 Sc 0.31012 0.12248 0.11876 0.0
Sc178 Sc 0.3531 0.12233 0.16372 0.0
O179 O 0.33924 0.13698 0.13403 0.0
C180 C 0.39926 0.13551 0.13454 0.0
C181 C 0.34106 0.13626 0.07388 0.0
C182 C 0.33916 0.0768 0.13381 0.0
C183 C 0.29988 0.17761 0.11367 0.0
C184 C 0.35855 0.17729 0.17451 0.0
C185 C 0.2979 0.11802 0.17355 0.0
O186 O 0.38942 0.15138 0.12214 0.0
O187 O 0.325 0.12421 0.0839 0.0
O188 O 0.35095 0.08718 0.1498 0.0
O189 O 0.32138 0.18383 0.1153 0.0
O190 O 0.35688 0.15589 0.18103 0.0
O191 O 0.29192 0.11903 0.15194 0.0
O192 O 0.35806 0.18355 0.15299 0.0
O193 O 0.29325 0.15619 0.11454 0.0
O194 O 0.31924 0.11907 0.18036 0.0
O195 O 0.35296 0.15199 0.08452 0.0
O196 O 0.38842 0.12383 0.1503 0.0
O197 O 0.32378 0.08723 0.12126 0.0
Sc198 Sc 0.85461 0.30631 0.12439 0.0
Sc199 Sc 0.85389 0.35105 0.16771 0.0
Sc200 Sc 0.80965 0.34916 0.12403 0.0
O201 O 0.83938 0.33549 0.13874 0.0
C202 C 0.83974 0.33542 0.07866 0.0
C203 C 0.89944 0.33752 0.13766 0.0
C204 C 0.83855 0.39558 0.13707 0.0
C205 C 0.85979 0.29635 0.17956 0.0
C206 C 0.79997 0.29386 0.12011 0.0
C207 C 0.79884 0.35444 0.17894 0.0
O208 O 0.85208 0.31987 0.08909 0.0
O209 O 0.88899 0.34952 0.15347 0.0
O210 O 0.82279 0.38458 0.12555 0.0
O211 O 0.85889 0.28963 0.15817 0.0
O212 O 0.79313 0.3152 0.12077 0.0
O213 O 0.82037 0.35432 0.18524 0.0
O214 O 0.82156 0.28795 0.12124 0.0
O215 O 0.85827 0.31789 0.18567 0.0
O216 O 0.79237 0.35268 0.15754 0.0
O217 O 0.88929 0.32136 0.12589 0.0
O218 O 0.82374 0.34724 0.08898 0.0
O219 O 0.85114 0.38586 0.15289 0.0
Sc220 Sc 0.6585 0.84886 0.11544 0.0
Sc221 Sc 0.61357 0.80566 0.11456 0.0
Sc222 Sc 0.61487 0.8484 0.1597 0.0
O223 O 0.629 0.83428 0.1299 0.0
C224 C 0.66986 0.85232 0.1705 0.0
C225 C 0.66838 0.79382 0.10929 0.0
C226 C 0.60886 0.79328 0.16924 0.0
C227 C 0.62836 0.83615 0.06968 0.0
C228 C 0.62937 0.89435 0.13075 0.0
C229 C 0.5689 0.83613 0.12987 0.0
O230 O 0.67608 0.85193 0.14896 0.0
O231 O 0.64677 0.7878 0.11003 0.0
O232 O 0.61045 0.81458 0.17609 0.0
O233 O 0.6446 0.84746 0.08022 0.0
O234 O 0.61755 0.88373 0.14656 0.0
O235 O 0.57872 0.82037 0.11729 0.0
O236 O 0.64477 0.88413 0.11806 0.0
O237 O 0.6156 0.82074 0.07983 0.0
O238 O 0.57975 0.84756 0.1458 0.0
O239 O 0.67523 0.81511 0.1112 0.0
O240 O 0.64845 0.85098 0.17702 0.0
O241 O 0.60977 0.78731 0.14763 0.0
Sc242 Sc 0.11415 0.66534 0.12427 0.0
Sc243 Sc 0.11367 0.62135 0.16845 0.0
Sc244 Sc 0.15809 0.62143 0.12504 0.0
O245 O 0.12863 0.63607 0.13927 0.0
C246 C 0.12909 0.6355 0.07905 0.0
C247 C 0.06866 0.63505 0.13775 0.0
C248 C 0.12819 0.57596 0.13866 0.0
C249 C 0.10848 0.67632 0.17915 0.0
C250 C 0.16919 0.6764 0.12044 0.0
C251 C 0.1684 0.61674 0.18019 0.0
O252 O 0.11677 0.65127 0.08916 0.0
O253 O 0.07887 0.62311 0.15373 0.0
O254 O 0.14395 0.58647 0.1267 0.0
O255 O 0.10986 0.6827 0.15769 0.0
O256 O 0.17537 0.65489 0.12175 0.0
O257 O 0.1469 0.61793 0.18644 0.0
O258 O 0.14774 0.68298 0.12103 0.0
O259 O 0.10954 0.65487 0.18562 0.0
O260 O 0.17493 0.61765 0.15875 0.0
O261 O 0.07907 0.65094 0.1258 0.0
O262 O 0.14466 0.62348 0.08976 0.0
O263 O 0.11605 0.58616 0.15451 0.0
Sc264 Sc 0.31401 0.86429 0.85817 0.0
Sc265 Sc 0.35715 0.8195 0.8581 0.0
Sc266 Sc 0.35733 0.86293 0.81358 0.0
O267 O 0.34281 0.84887 0.84326 0.0
C268 C 0.30233 0.86899 0.80339 0.0
C269 C 0.30199 0.80968 0.86388 0.0
C270 C 0.36095 0.80778 0.80322 0.0
C271 C 0.34423 0.85013 0.90334 0.0
C272 C 0.34483 0.90885 0.84334 0.0
C273 C 0.40303 0.84808 0.84269 0.0
O274 O 0.29624 0.8682 0.82495 0.0
O275 O 0.32334 0.8029 0.86271 0.0
O276 O 0.36008 0.82918 0.79658 0.0
O277 O 0.32842 0.86221 0.89305 0.0
O278 O 0.35636 0.89811 0.8274 0.0
O279 O 0.39252 0.83273 0.85522 0.0
O280 O 0.32896 0.89897 0.85571 0.0
O281 O 0.35604 0.83413 0.89301 0.0
O282 O 0.39261 0.86025 0.82701 0.0
O283 O 0.29593 0.83122 0.86238 0.0
O284 O 0.32365 0.86727 0.79666 0.0
O285 O 0.36 0.80162 0.82478 0.0
Sc286 Sc 0.12244 0.3638 0.81127 0.0
Sc287 Sc 0.1672 0.36401 0.85459 0.0
Sc288 Sc 0.12474 0.31865 0.85396 0.0
O289 O 0.13815 0.34882 0.8399 0.0
C290 C 0.07809 0.34729 0.84156 0.0
C291 C 0.13583 0.40891 0.84197 0.0
C292 C 0.13815 0.34806 0.89991 0.0
C293 C 0.17712 0.37038 0.79961 0.0
C294 C 0.11929 0.309 0.79883 0.0
C295 C 0.18 0.30937 0.85801 0.0
O296 O 0.08763 0.36029 0.82596 0.0
O297 O 0.15214 0.39868 0.85344 0.0
O298 O 0.12668 0.332 0.88927 0.0
O299 O 0.15557 0.36898 0.79349 0.0
O300 O 0.12115 0.30209 0.82008 0.0
O301 O 0.18577 0.33104 0.85748 0.0
O302 O 0.1194 0.33066 0.79299 0.0
O303 O 0.1839 0.36885 0.82094 0.0
O304 O 0.15874 0.30237 0.85682 0.0
O305 O 0.12366 0.39859 0.82621 0.0
O306 O 0.08928 0.3315 0.85282 0.0
O307 O 0.15347 0.36092 0.88977 0.0
Sc308 Sc 0.62478 0.16103 0.86025 0.0
Sc309 Sc 0.62342 0.11797 0.81542 0.0
Sc310 Sc 0.66766 0.11598 0.85914 0.0
O311 O 0.63864 0.13168 0.84491 0.0
C312 C 0.68003 0.17057 0.86516 0.0
C313 C 0.61998 0.17331 0.8056 0.0
C314 C 0.67823 0.11198 0.80407 0.0
C315 C 0.57843 0.1328 0.84565 0.0
C316 C 0.63812 0.12966 0.90489 0.0
C317 C 0.63657 0.07152 0.84417 0.0
O318 O 0.6587 0.17742 0.86429 0.0
O319 O 0.62047 0.15193 0.79878 0.0
O320 O 0.68479 0.11261 0.82551 0.0
O321 O 0.5893 0.14805 0.85798 0.0
O322 O 0.65368 0.11751 0.89428 0.0
O323 O 0.62458 0.08255 0.82878 0.0
O324 O 0.62645 0.14598 0.8949 0.0
O325 O 0.58842 0.12065 0.82967 0.0
O326 O 0.65273 0.08123 0.85633 0.0
O327 O 0.62145 0.17928 0.82717 0.0
O328 O 0.68596 0.14899 0.86355 0.0
O329 O 0.65675 0.11368 0.79782 0.0
Sc330 Sc 0.81495 0.61691 0.8469 0.0
Sc331 Sc 0.85881 0.66083 0.84737 0.0
Sc332 Sc 0.86063 0.61556 0.80461 0.0
O333 O 0.84479 0.63112 0.83291 0.0
C334 C 0.84527 0.57106 0.83536 0.0
C335 C 0.84331 0.63199 0.89295 0.0
C336 C 0.90486 0.63082 0.83584 0.0
C337 C 0.80377 0.67193 0.84997 0.0
C338 C 0.80603 0.61065 0.79171 0.0
C339 C 0.86572 0.67023 0.79235 0.0
O340 O 0.82901 0.58188 0.84632 0.0
O341 O 0.85564 0.64764 0.88269 0.0
O342 O 0.89529 0.61814 0.81998 0.0
O343 O 0.79742 0.65044 0.84918 0.0
O344 O 0.82773 0.61132 0.786 0.0
O345 O 0.86372 0.67713 0.8136 0.0
O346 O 0.79894 0.61245 0.81291 0.0
O347 O 0.82525 0.67833 0.84946 0.0
O348 O 0.86495 0.64861 0.78638 0.0
O349 O 0.82784 0.61971 0.88235 0.0
O350 O 0.85808 0.58083 0.81974 0.0
O351 O 0.89384 0.64682 0.84698 0.0
Sc352 Sc 0.16351 0.35652 0.12001 0.0
Sc353 Sc 0.11942 0.31255 0.11895 0.0
Sc354 Sc 0.11969 0.35537 0.16405 0.0
O355 O 0.13423 0.34144 0.13435 0.0
C356 C 0.17467 0.36009 0.17501 0.0
C357 C 0.17442 0.30172 0.11371 0.0
C358 C 0.11494 0.30015 0.1736 0.0
C359 C 0.13339 0.34366 0.07433 0.0
C360 C 0.13345 0.40147 0.13514 0.0
C361 C 0.07404 0.342 0.13418 0.0
O362 O 0.181 0.35962 0.1535 0.0
O363 O 0.15292 0.29536 0.11443 0.0
O364 O 0.11599 0.32149 0.18045 0.0
O365 O 0.1494 0.3552 0.08496 0.0
O366 O 0.12163 0.39069 0.15083 0.0
O367 O 0.08429 0.32645 0.12169 0.0
O368 O 0.14924 0.39151 0.12272 0.0
O369 O 0.12113 0.32773 0.08428 0.0
O370 O 0.08456 0.35375 0.1501 0.0
O371 O 0.18091 0.32312 0.11561 0.0
O372 O 0.15323 0.35866 0.18143 0.0
O373 O 0.11603 0.29417 0.152 0.0
Sc374 Sc 0.12341 0.67223 0.85971 0.0
Sc375 Sc 0.12575 0.62941 0.81472 0.0
Sc376 Sc 0.16832 0.62903 0.85998 0.0
O377 O 0.13919 0.64359 0.84479 0.0
C378 C 0.17805 0.68408 0.86645 0.0
C379 C 0.12023 0.68455 0.80498 0.0
C380 C 0.18108 0.62584 0.80524 0.0
C381 C 0.07909 0.64167 0.84342 0.0
C382 C 0.13655 0.64132 0.90475 0.0
C383 C 0.13953 0.5835 0.84397 0.0
O384 O 0.15652 0.69019 0.86484 0.0
O385 O 0.12204 0.66327 0.79811 0.0
O386 O 0.18699 0.62653 0.82688 0.0
O387 O 0.08859 0.65741 0.85629 0.0
O388 O 0.15298 0.62984 0.89467 0.0
O389 O 0.12782 0.59407 0.82806 0.0
O390 O 0.12461 0.65719 0.89437 0.0
O391 O 0.09032 0.63039 0.82766 0.0
O392 O 0.1549 0.59376 0.85668 0.0
O393 O 0.12039 0.69045 0.82661 0.0
O394 O 0.18481 0.66274 0.86508 0.0
O395 O 0.15974 0.62668 0.79842 0.0
Sc396 Sc 0.31431 0.12887 0.85365 0.0
Sc397 Sc 0.35908 0.17207 0.85405 0.0
Sc398 Sc 0.35827 0.12825 0.80978 0.0
O399 O 0.34387 0.1431 0.83914 0.0
C400 C 0.34362 0.0831 0.83978 0.0
C401 C 0.34425 0.1422 0.89929 0.0
C402 C 0.4039 0.14124 0.83993 0.0
C403 C 0.30429 0.18398 0.85851 0.0
C404 C 0.30329 0.12439 0.79865 0.0
C405 C 0.36399 0.18314 0.79909 0.0
O406 O 0.32797 0.09369 0.85182 0.0
O407 O 0.35677 0.15781 0.88914 0.0
O408 O 0.3933 0.12954 0.82401 0.0
O409 O 0.29758 0.16261 0.85722 0.0
O410 O 0.32476 0.12522 0.79223 0.0
O411 O 0.36311 0.18951 0.82059 0.0
O412 O 0.29696 0.1254 0.82014 0.0
O413 O 0.32587 0.19009 0.85773 0.0
O414 O 0.36254 0.16172 0.79262 0.0
O415 O 0.32823 0.13063 0.88872 0.0
O416 O 0.35568 0.0932 0.82381 0.0
O417 O 0.3939 0.15724 0.85205 0.0
Sc418 Sc 0.85906 0.3076 0.85913 0.0
Sc419 Sc 0.8578 0.35029 0.81398 0.0
Sc420 Sc 0.81462 0.35129 0.85862 0.0
O421 O 0.84379 0.33636 0.84391 0.0
C422 C 0.8042 0.29625 0.86472 0.0
C423 C 0.86323 0.29516 0.80447 0.0
C424 C 0.80277 0.35447 0.80365 0.0
C425 C 0.90377 0.33796 0.84373 0.0
C426 C 0.84506 0.33832 0.90407 0.0
C427 C 0.84403 0.39649 0.84282 0.0
O428 O 0.82571 0.28996 0.86352 0.0
O429 O 0.86163 0.31643 0.79756 0.0
O430 O 0.79665 0.35415 0.82524 0.0
O431 O 0.89399 0.32225 0.85644 0.0
O432 O 0.82911 0.3501 0.89362 0.0
O433 O 0.85567 0.38565 0.82705 0.0
O434 O 0.85716 0.32245 0.89388 0.0
O435 O 0.89292 0.34919 0.82769 0.0
O436 O 0.82853 0.38649 0.8556 0.0
O437 O 0.86268 0.28929 0.8261 0.0
O438 O 0.79764 0.31766 0.86328 0.0
O439 O 0.82413 0.35311 0.79702 0.0
Sc440 Sc 0.62324 0.85255 0.80581 0.0
Sc441 Sc 0.66678 0.85062 0.85033 0.0
Sc442 Sc 0.62255 0.80697 0.84807 0.0
O443 O 0.63754 0.83672 0.83472 0.0
C444 C 0.57754 0.83793 0.83511 0.0
C445 C 0.63742 0.89681 0.83749 0.0
C446 C 0.63626 0.83499 0.89487 0.0
C447 C 0.6784 0.85693 0.79554 0.0
C448 C 0.61805 0.79811 0.79272 0.0
C449 C 0.6773 0.79535 0.85281 0.0
O450 O 0.58801 0.85023 0.81955 0.0
O451 O 0.65312 0.88591 0.8492 0.0
O452 O 0.62468 0.81944 0.88363 0.0
O453 O 0.65695 0.8566 0.78901 0.0
O454 O 0.61863 0.7911 0.81399 0.0
O455 O 0.68375 0.81684 0.8532 0.0
O456 O 0.6196 0.81975 0.78696 0.0
O457 O 0.68466 0.85498 0.81702 0.0
O458 O 0.65585 0.78908 0.85088 0.0
O459 O 0.62531 0.8871 0.8213 0.0
O460 O 0.58772 0.8217 0.84675 0.0
O461 O 0.65205 0.84775 0.88529 0.0
Sc462 Sc 0.8487 0.65986 0.1134 0.0
Sc463 Sc 0.80557 0.61505 0.11109 0.0
Sc464 Sc 0.84717 0.61591 0.15735 0.0
O465 O 0.8338 0.63029 0.1273 0.0
C466 C 0.89385 0.63077 0.12968 0.0
C467 C 0.83749 0.62964 0.06733 0.0
C468 C 0.83537 0.57011 0.12703 0.0
C469 C 0.79395 0.66993 0.10588 0.0
C470 C 0.8508 0.67088 0.16856 0.0
C471 C 0.7917 0.61024 0.16532 0.0
O472 O 0.88377 0.64624 0.11698 0.0
O473 O 0.82158 0.6171 0.07692 0.0
O474 O 0.8465 0.58086 0.14324 0.0
O475 O 0.8152 0.67667 0.10828 0.0
O476 O 0.84945 0.6494 0.17487 0.0
O477 O 0.78648 0.61129 0.14354 0.0
O478 O 0.85076 0.6773 0.14706 0.0
O479 O 0.78785 0.64833 0.10632 0.0
O480 O 0.81278 0.61157 0.17292 0.0
O481 O 0.8485 0.64587 0.07821 0.0
O482 O 0.88299 0.61862 0.14511 0.0
O483 O 0.81998 0.58007 0.1141 0.0
Sc484 Sc 0.34838 0.81253 0.12197 0.0
Sc485 Sc 0.34927 0.85638 0.16601 0.0
Sc486 Sc 0.30461 0.85661 0.12259 0.0
O487 O 0.33405 0.84182 0.1369 0.0
C488 C 0.3348 0.84317 0.07708 0.0
C489 C 0.39434 0.8417 0.13605 0.0
C490 C 0.33505 0.9019 0.13627 0.0
C491 C 0.35302 0.80117 0.17677 0.0
C492 C 0.2933 0.8019 0.11704 0.0
C493 C 0.29446 0.86143 0.17766 0.0
O494 O 0.3471 0.82748 0.08731 0.0
O495 O 0.38425 0.85435 0.15156 0.0
O496 O 0.31906 0.89158 0.12441 0.0
O497 O 0.35124 0.79479 0.15533 0.0
O498 O 0.28674 0.82324 0.11916 0.0
O499 O 0.316 0.86018 0.18378 0.0
O500 O 0.31482 0.79568 0.11738 0.0
O501 O 0.35294 0.82269 0.18318 0.0
O502 O 0.28774 0.86043 0.15629 0.0
O503 O 0.38366 0.82577 0.12449 0.0
O504 O 0.31848 0.8546 0.08737 0.0
O505 O 0.34723 0.89153 0.15198 0.0
Sc506 Sc 0.61968 0.15815 0.12469 0.0
Sc507 Sc 0.61849 0.11395 0.16847 0.0
Sc508 Sc 0.66344 0.1142 0.12532 0.0
O509 O 0.63389 0.12878 0.13953 0.0
C510 C 0.63448 0.12865 0.07938 0.0
C511 C 0.57373 0.12866 0.13791 0.0
C512 C 0.63273 0.06889 0.13794 0.0
C513 C 0.61423 0.16893 0.17966 0.0
C514 C 0.67481 0.16903 0.1212 0.0
C515 C 0.67312 0.10847 0.18042 0.0
O516 O 0.62198 0.14414 0.08966 0.0
O517 O 0.58364 0.11638 0.15382 0.0
O518 O 0.64883 0.07938 0.1264 0.0
O519 O 0.61577 0.17522 0.15819 0.0
O520 O 0.68122 0.14759 0.12263 0.0
O521 O 0.65157 0.10974 0.18647 0.0
O522 O 0.65331 0.17537 0.12148 0.0
O523 O 0.61481 0.14745 0.18618 0.0
O524 O 0.67991 0.10976 0.15909 0.0
O525 O 0.5845 0.14439 0.12613 0.0
O526 O 0.65033 0.11682 0.0899 0.0
O527 O 0.6205 0.07896 0.15383 0.0
Sc528 Sc 0.36001 0.6727 0.62302 0.0
Sc529 Sc 0.31534 0.62949 0.6249 0.0
Sc530 Sc 0.36083 0.62879 0.66723 0.0
O531 O 0.34539 0.64369 0.63841 0.0
C532 C 0.40537 0.64204 0.63558 0.0
C533 C 0.34379 0.64281 0.57828 0.0
C534 C 0.3451 0.58366 0.63769 0.0
C535 C 0.30511 0.68456 0.6203 0.0
C536 C 0.36662 0.68374 0.67779 0.0
C537 C 0.30627 0.62499 0.6803 0.0
O538 O 0.39489 0.658 0.62384 0.0
O539 O 0.32811 0.63119 0.58932 0.0
O540 O 0.35784 0.5937 0.65318 0.0
O541 O 0.32669 0.69071 0.6204 0.0
O542 O 0.36552 0.6623 0.68431 0.0
O543 O 0.2992 0.62613 0.65904 0.0
O544 O 0.36504 0.69009 0.65633 0.0
O545 O 0.29848 0.66319 0.62183 0.0
O546 O 0.32796 0.62564 0.68597 0.0
O547 O 0.35658 0.65843 0.58806 0.0
O548 O 0.39537 0.63025 0.65182 0.0
O549 O 0.32901 0.59432 0.62633 0.0
Sc550 Sc 0.6656 0.35117 0.625 0.0
Sc551 Sc 0.62073 0.30812 0.62543 0.0
Sc552 Sc 0.62157 0.35275 0.66887 0.0
O553 O 0.63598 0.33732 0.63979 0.0
C554 C 0.67655 0.35633 0.67998 0.0
C555 C 0.67545 0.29594 0.621 0.0
C556 C 0.61566 0.29799 0.68054 0.0
C557 C 0.63552 0.33715 0.57964 0.0
C558 C 0.63669 0.39743 0.63825 0.0
C559 C 0.576 0.33938 0.63883 0.0
O560 O 0.683 0.35479 0.65854 0.0
O561 O 0.65389 0.28984 0.62221 0.0
O562 O 0.61722 0.3195 0.68675 0.0
O563 O 0.65147 0.34912 0.58989 0.0
O564 O 0.62431 0.38769 0.65423 0.0
O565 O 0.58598 0.32315 0.627 0.0
O566 O 0.65229 0.38646 0.62652 0.0
O567 O 0.62323 0.32162 0.59016 0.0
O568 O 0.58658 0.35129 0.65461 0.0
O569 O 0.68215 0.31733 0.62168 0.0
O570 O 0.65504 0.35597 0.6863 0.0
O571 O 0.61649 0.29139 0.65913 0.0
Sc572 Sc 0.35337 0.31193 0.35514 0.0
Sc573 Sc 0.35503 0.35631 0.31151 0.0
Sc574 Sc 0.30988 0.35621 0.35435 0.0
O575 O 0.33942 0.34147 0.34029 0.0
C576 C 0.29829 0.30139 0.35859 0.0
C577 C 0.35944 0.30128 0.30029 0.0
C578 C 0.30035 0.36129 0.29915 0.0
C579 C 0.39947 0.34147 0.34253 0.0
C580 C 0.3388 0.34193 0.40028 0.0
C581 C 0.34035 0.4016 0.34141 0.0
O582 O 0.31971 0.29483 0.35805 0.0
O583 O 0.35899 0.32283 0.294 0.0
O584 O 0.29348 0.36012 0.32046 0.0
O585 O 0.38854 0.3256 0.35396 0.0
O586 O 0.32319 0.35402 0.38969 0.0
O587 O 0.35282 0.39143 0.32578 0.0
O588 O 0.35089 0.32601 0.39015 0.0
O589 O 0.38976 0.35397 0.32664 0.0
O590 O 0.32424 0.39111 0.35291 0.0
O591 O 0.35754 0.29476 0.32166 0.0
O592 O 0.2921 0.3229 0.35745 0.0
O593 O 0.32197 0.36025 0.29321 0.0
Sc594 Sc 0.61578 0.6582 0.34796 0.0
Sc595 Sc 0.61343 0.61288 0.30531 0.0
Sc596 Sc 0.66044 0.61514 0.34601 0.0
O597 O 0.62989 0.62876 0.33306 0.0
C598 C 0.67061 0.67034 0.34928 0.0
C599 C 0.6077 0.66747 0.29299 0.0
C600 C 0.66771 0.60881 0.29073 0.0
C601 C 0.56979 0.62775 0.33751 0.0
C602 C 0.63311 0.62929 0.39293 0.0
C603 C 0.63034 0.56877 0.33553 0.0
O604 O 0.64902 0.67632 0.3492 0.0
O605 O 0.60869 0.64584 0.28705 0.0
O606 O 0.67561 0.61145 0.31155 0.0
O607 O 0.58092 0.64372 0.3486 0.0
O608 O 0.64843 0.61732 0.3818 0.0
O609 O 0.61649 0.57837 0.32073 0.0
O610 O 0.62025 0.64484 0.38314 0.0
O611 O 0.57912 0.61537 0.32131 0.0
O612 O 0.64714 0.57977 0.34546 0.0
O613 O 0.60978 0.67444 0.31423 0.0
O614 O 0.67732 0.64898 0.34826 0.0
O615 O 0.6458 0.6085 0.28593 0.0
Sc616 Sc 0.30705 0.62124 0.35924 0.0
Sc617 Sc 0.3509 0.66552 0.35763 0.0
Sc618 Sc 0.34893 0.62205 0.31329 0.0
O619 O 0.33559 0.63629 0.34339 0.0
C620 C 0.33667 0.57621 0.34341 0.0
C621 C 0.33848 0.63557 0.40358 0.0
C622 C 0.39555 0.63545 0.34165 0.0
C623 C 0.29608 0.67624 0.36437 0.0
C624 C 0.29363 0.61692 0.30473 0.0
C625 C 0.35352 0.67703 0.3026 0.0
O626 O 0.32137 0.58622 0.35641 0.0
O627 O 0.34995 0.65148 0.39274 0.0
O628 O 0.38445 0.62396 0.32593 0.0
O629 O 0.28977 0.6547 0.36377 0.0
O630 O 0.31478 0.61839 0.29746 0.0
O631 O 0.35366 0.68317 0.32416 0.0
O632 O 0.28813 0.61758 0.32647 0.0
O633 O 0.31745 0.68282 0.36234 0.0
O634 O 0.35177 0.65566 0.29604 0.0
O635 O 0.32253 0.6232 0.3938 0.0
O636 O 0.34772 0.58691 0.32711 0.0
O637 O 0.38588 0.65113 0.35447 0.0
Sc638 Sc 0.61951 0.34821 0.31499 0.0
Sc639 Sc 0.66274 0.3492 0.35953 0.0
Sc640 Sc 0.61871 0.305 0.35968 0.0
O641 O 0.63369 0.33409 0.34473 0.0
C642 C 0.57378 0.33544 0.34479 0.0
C643 C 0.6334 0.39434 0.34396 0.0
C644 C 0.63232 0.33568 0.40483 0.0
C645 C 0.67451 0.35245 0.30453 0.0
C646 C 0.61389 0.29309 0.30501 0.0
C647 C 0.67367 0.29429 0.36531 0.0
O648 O 0.58458 0.34736 0.32919 0.0
O649 O 0.64864 0.38431 0.35697 0.0
O650 O 0.62025 0.3198 0.39456 0.0
O651 O 0.65318 0.35066 0.2978 0.0
O652 O 0.61548 0.28673 0.32646 0.0
O653 O 0.68003 0.31577 0.36383 0.0
O654 O 0.61485 0.31452 0.29852 0.0
O655 O 0.68053 0.35253 0.32614 0.0
O656 O 0.65222 0.28777 0.3642 0.0
O657 O 0.62207 0.38356 0.32793 0.0
O658 O 0.5836 0.31924 0.35683 0.0
O659 O 0.64828 0.34753 0.39446 0.0
Sc660 Sc 0.35512 0.31954 0.62022 0.0
Sc661 Sc 0.35686 0.36375 0.66387 0.0
Sc662 Sc 0.3125 0.36483 0.62025 0.0
O663 O 0.34146 0.34935 0.6348 0.0
C664 C 0.34157 0.34955 0.57472 0.0
C665 C 0.40162 0.34795 0.63378 0.0
C666 C 0.34407 0.40936 0.63378 0.0
C667 C 0.3601 0.30882 0.67521 0.0
C668 C 0.2998 0.31017 0.61581 0.0
C669 C 0.30215 0.37038 0.67522 0.0
O670 O 0.35321 0.33347 0.58511 0.0
O671 O 0.39179 0.36043 0.6496 0.0
O672 O 0.32773 0.39951 0.62199 0.0
O673 O 0.35865 0.30228 0.6538 0.0
O674 O 0.29397 0.33182 0.6168 0.0
O675 O 0.32363 0.36875 0.68146 0.0
O676 O 0.32109 0.30323 0.61688 0.0
O677 O 0.35961 0.33034 0.68148 0.0
O678 O 0.29553 0.36923 0.65383 0.0
O679 O 0.39063 0.3325 0.62182 0.0
O680 O 0.32624 0.36219 0.58509 0.0
O681 O 0.35596 0.39867 0.64947 0.0
Sc682 Sc 0.62573 0.66147 0.6123 0.0
Sc683 Sc 0.62539 0.61884 0.65746 0.0
Sc684 Sc 0.66853 0.61624 0.6127 0.0
O685 O 0.63992 0.6322 0.6275 0.0
C686 C 0.63792 0.62981 0.56755 0.0
C687 C 0.57974 0.63332 0.62818 0.0
C688 C 0.63772 0.57206 0.62889 0.0
C689 C 0.62221 0.67428 0.66685 0.0
C690 C 0.68092 0.67071 0.60606 0.0
C691 C 0.6804 0.61283 0.6676 0.0
O692 O 0.62643 0.64608 0.5778 0.0
O693 O 0.59014 0.62119 0.6439 0.0
O694 O 0.65345 0.58156 0.61602 0.0
O695 O 0.62336 0.68013 0.64523 0.0
O696 O 0.68685 0.64914 0.60779 0.0
O697 O 0.6591 0.61491 0.6743 0.0
O698 O 0.65962 0.67762 0.60723 0.0
O699 O 0.62266 0.65294 0.67376 0.0
O700 O 0.68647 0.61292 0.646 0.0
O701 O 0.59025 0.64864 0.61564 0.0
O702 O 0.65381 0.61774 0.57778 0.0
O703 O 0.62636 0.58332 0.64458 0.0
H704 H 0.10976 0.3058 0.22126 0.0
H705 H 0.11375 0.16763 0.24938 0.0
H706 H 0.11505 0.25207 0.1673 0.0
H707 H 0.10956 0.2222 0.3026 0.0
H708 H 0.11207 0.19801 0.21884 0.0
H709 H 0.10752 0.27502 0.25109 0.0
C710 C 0.1104 0.28752 0.21564 0.0
C711 C 0.11273 0.28154 0.1917 0.0
C712 C 0.11143 0.20329 0.23721 0.0
C713 C 0.11019 0.24614 0.22589 0.0
C714 C 0.11237 0.18596 0.25467 0.0
C715 C 0.11193 0.19236 0.27863 0.0
C716 C 0.11004 0.22715 0.24377 0.0
C717 C 0.11008 0.2164 0.28439 0.0
C718 C 0.1091 0.26994 0.23272 0.0
C719 C 0.11333 0.25752 0.18554 0.0
N720 N 0.10929 0.2329 0.26708 0.0
N721 N 0.11217 0.24068 0.20256 0.0
H722 H 0.66655 0.10667 0.22837 0.0
H723 H 0.80473 0.10582 0.25637 0.0
H724 H 0.72098 0.10487 0.1749 0.0
H725 H 0.75071 0.10832 0.31024 0.0
H726 H 0.77407 0.10308 0.22639 0.0
H727 H 0.69701 0.10481 0.25875 0.0
C728 C 0.68487 0.10577 0.22299 0.0
C729 C 0.6912 0.10609 0.19902 0.0
C730 C 0.76892 0.10414 0.24478 0.0
C731 C 0.72612 0.10401 0.23371 0.0
C732 C 0.78643 0.10573 0.26194 0.0
C733 C 0.7803 0.10745 0.28589 0.0
C734 C 0.7451 0.10433 0.25157 0.0
C735 C 0.75628 0.10712 0.29199 0.0
C736 C 0.70226 0.10472 0.24036 0.0
C737 C 0.71524 0.1048 0.19313 0.0
N738 N 0.73954 0.10571 0.27492 0.0
N739 N 0.73182 0.10393 0.21037 0.0
H740 H 0.8576 0.8025 0.24553 0.0
H741 H 0.85216 0.6645 0.21647 0.0
H742 H 0.85643 0.74775 0.2987 0.0
H743 H 0.85354 0.71894 0.16298 0.0
H744 H 0.85491 0.69485 0.24678 0.0
H745 H 0.8576 0.77215 0.21499 0.0
C746 C 0.85747 0.78412 0.25082 0.0
C747 C 0.85693 0.7777 0.27476 0.0
C748 C 0.85466 0.70016 0.22841 0.0
C749 C 0.85682 0.74288 0.23983 0.0
C750 C 0.85306 0.68283 0.21106 0.0
C751 C 0.85256 0.68915 0.18709 0.0
C752 C 0.85574 0.72403 0.22181 0.0
C753 C 0.85382 0.71321 0.18121 0.0
C754 C 0.85744 0.76679 0.23334 0.0
C755 C 0.8568 0.75357 0.2805 0.0
N756 N 0.85531 0.72978 0.19847 0.0
N757 N 0.85665 0.73706 0.26315 0.0
H758 H 0.16327 0.863 0.25501 0.0
H759 H 0.30118 0.86431 0.2255 0.0
H760 H 0.21812 0.86337 0.30808 0.0
H761 H 0.24641 0.86337 0.17235 0.0
H762 H 0.2709 0.8661 0.25599 0.0
H763 H 0.19348 0.86523 0.22445 0.0
C764 C 0.18164 0.86363 0.26027 0.0
C765 C 0.18815 0.86287 0.28418 0.0
C766 C 0.26552 0.86559 0.23765 0.0
C767 C 0.22281 0.8654 0.24924 0.0
C768 C 0.28281 0.86457 0.2202 0.0
C769 C 0.27635 0.86356 0.19629 0.0
C770 C 0.2416 0.86556 0.23117 0.0
C771 C 0.25224 0.86403 0.19054 0.0
C772 C 0.19889 0.86491 0.24279 0.0
C773 C 0.21225 0.86382 0.28989 0.0
N774 N 0.23574 0.8649 0.20787 0.0
N775 N 0.2287 0.86494 0.27253 0.0
H776 H 0.11704 0.76098 0.67366 0.0
H777 H 0.11819 0.7325 0.81179 0.0
H778 H 0.11874 0.81494 0.72764 0.0
H779 H 0.11798 0.67934 0.757 0.0
H780 H 0.11644 0.76306 0.78145 0.0
H781 H 0.1154 0.73097 0.70428 0.0
C782 C 0.11702 0.76657 0.69196 0.0
C783 C 0.11815 0.79057 0.69806 0.0
C784 C 0.1167 0.7447 0.77611 0.0
C785 C 0.1163 0.75615 0.73328 0.0
C786 C 0.11769 0.72722 0.79341 0.0
C787 C 0.11833 0.70328 0.78695 0.0
C788 C 0.11636 0.73819 0.7522 0.0
C789 C 0.11761 0.69754 0.76286 0.0
C790 C 0.11607 0.74937 0.70945 0.0
C791 C 0.11794 0.79666 0.72209 0.0
N792 N 0.11673 0.71487 0.74638 0.0
N793 N 0.11713 0.77953 0.73885 0.0
H794 H 0.22624 0.12386 0.66691 0.0
H795 H 0.25543 0.12157 0.80498 0.0
H796 H 0.17315 0.12256 0.72172 0.0
H797 H 0.30887 0.12347 0.75053 0.0
H798 H 0.22511 0.12031 0.77454 0.0
H799 H 0.25681 0.12216 0.69719 0.0
C800 C 0.22097 0.12314 0.68528 0.0
C801 C 0.19704 0.12343 0.69175 0.0
C802 C 0.24347 0.12093 0.76924 0.0
C803 C 0.23201 0.12151 0.72648 0.0
C804 C 0.26083 0.12165 0.78663 0.0
C805 C 0.28478 0.12272 0.78034 0.0
C806 C 0.25005 0.12132 0.74535 0.0
C807 C 0.29064 0.12271 0.75624 0.0
C808 C 0.23847 0.12218 0.70256 0.0
C809 C 0.19134 0.12244 0.71586 0.0
N810 N 0.27338 0.1221 0.73962 0.0
N811 N 0.2087 0.12158 0.73233 0.0
H812 H 0.86498 0.24718 0.81121 0.0
H813 H 0.86414 0.21898 0.67301 0.0
H814 H 0.86579 0.30044 0.75654 0.0
H815 H 0.86323 0.16495 0.72693 0.0
H816 H 0.86661 0.24893 0.70366 0.0
H817 H 0.86628 0.21666 0.78079 0.0
C818 C 0.86555 0.25249 0.79285 0.0
C819 C 0.86515 0.27644 0.78644 0.0
C820 C 0.86595 0.23053 0.70881 0.0
C821 C 0.86659 0.2416 0.75159 0.0
C822 C 0.86451 0.21337 0.6913 0.0
C823 C 0.86336 0.18937 0.69738 0.0
C824 C 0.86618 0.2237 0.73263 0.0
C825 C 0.86402 0.18323 0.7214 0.0
C826 C 0.86627 0.23504 0.77549 0.0
C827 C 0.86595 0.28223 0.76235 0.0
N828 N 0.8653 0.20032 0.73817 0.0
N829 N 0.86655 0.26493 0.74583 0.0
H830 H 0.81027 0.85388 0.71891 0.0
H831 H 0.67238 0.86164 0.74777 0.0
H832 H 0.75589 0.85786 0.66552 0.0
H833 H 0.72654 0.85604 0.80124 0.0
H834 H 0.70291 0.8622 0.71751 0.0
H835 H 0.77996 0.85631 0.74934 0.0
C836 C 0.79197 0.8553 0.71354 0.0
C837 C 0.78565 0.85561 0.68955 0.0
C838 C 0.70813 0.86094 0.73586 0.0
C839 C 0.75084 0.85842 0.72442 0.0
C840 C 0.69069 0.86064 0.7532 0.0
C841 C 0.69686 0.85869 0.77715 0.0
C842 C 0.73195 0.85923 0.74245 0.0
C843 C 0.72091 0.85752 0.78303 0.0
C844 C 0.77467 0.8567 0.73097 0.0
C845 C 0.76163 0.85751 0.68375 0.0
N846 N 0.73757 0.85772 0.76578 0.0
N847 N 0.7451 0.8588 0.70107 0.0
H848 H 0.24992 0.11574 0.16699 0.0
H849 H 0.22156 0.11172 0.30524 0.0
H850 H 0.30332 0.11502 0.22151 0.0
H851 H 0.16783 0.11296 0.25105 0.0
H852 H 0.25174 0.11079 0.27461 0.0
H853 H 0.21956 0.11282 0.19742 0.0
C854 C 0.2553 0.11491 0.18533 0.0
C855 C 0.27925 0.11572 0.19167 0.0
C856 C 0.23334 0.11117 0.26942 0.0
C857 C 0.24455 0.11237 0.22658 0.0
C858 C 0.21606 0.11168 0.28691 0.0
C859 C 0.19208 0.11255 0.28075 0.0
C860 C 0.22663 0.11158 0.24556 0.0
C861 C 0.18609 0.11238 0.25668 0.0
C862 C 0.23793 0.11323 0.2027 0.0
C863 C 0.28511 0.11453 0.21574 0.0
N864 N 0.20326 0.11203 0.23996 0.0
N865 N 0.26787 0.11298 0.2323 0.0
H866 H 0.86128 0.16451 0.25583 0.0
H867 H 0.86105 0.30282 0.22756 0.0
H868 H 0.85885 0.2187 0.30953 0.0
H869 H 0.8631 0.24839 0.17408 0.0
H870 H 0.86224 0.27231 0.25793 0.0
H871 H 0.86378 0.19513 0.22572 0.0
C872 C 0.86132 0.18284 0.26133 0.0
C873 C 0.85976 0.18901 0.28529 0.0
C874 C 0.86253 0.26707 0.23955 0.0
C875 C 0.86261 0.22419 0.25082 0.0
C876 C 0.86187 0.28448 0.22217 0.0
C877 C 0.86185 0.27819 0.19818 0.0
C878 C 0.86313 0.24318 0.23292 0.0
C879 C 0.86298 0.25412 0.19232 0.0
C880 C 0.86277 0.20032 0.2441 0.0
C881 C 0.85996 0.21308 0.2913 0.0
N882 N 0.86348 0.2375 0.20957 0.0
N883 N 0.86129 0.22979 0.27416 0.0
H884 H 0.66399 0.85455 0.21848 0.0
H885 H 0.80236 0.85764 0.24601 0.0
H886 H 0.71787 0.85468 0.16443 0.0
H887 H 0.74826 0.85741 0.29982 0.0
H888 H 0.77167 0.85834 0.21583 0.0
H889 H 0.6947 0.85717 0.24846 0.0
C890 C 0.68227 0.85516 0.21287 0.0
C891 C 0.68832 0.85431 0.18885 0.0
C892 C 0.76653 0.85823 0.23424 0.0
C893 C 0.72361 0.85731 0.22319 0.0
C894 C 0.78405 0.85786 0.25152 0.0
C895 C 0.77792 0.85736 0.27554 0.0
C896 C 0.74269 0.85807 0.24101 0.0
C897 C 0.75387 0.85771 0.28155 0.0
C898 C 0.69981 0.85668 0.23004 0.0
C899 C 0.71233 0.85523 0.18272 0.0
N900 N 0.73715 0.85795 0.2644 0.0
N901 N 0.7291 0.85662 0.19979 0.0
H902 H 0.10852 0.7523 0.31121 0.0
H903 H 0.1054 0.72422 0.17299 0.0
H904 H 0.1077 0.8059 0.25686 0.0
H905 H 0.10665 0.67045 0.22715 0.0
H906 H 0.10395 0.75438 0.20363 0.0
H907 H 0.10568 0.72203 0.28072 0.0
C908 C 0.10768 0.75774 0.29289 0.0
C909 C 0.10848 0.78171 0.28661 0.0
C910 C 0.10444 0.73598 0.2088 0.0
C911 C 0.10524 0.74711 0.25164 0.0
C912 C 0.10526 0.71872 0.19131 0.0
C913 C 0.1063 0.69473 0.19748 0.0
C914 C 0.10471 0.72923 0.23265 0.0
C915 C 0.10597 0.68871 0.22153 0.0
C916 C 0.10604 0.74043 0.27549 0.0
C917 C 0.10724 0.78766 0.26257 0.0
N918 N 0.10532 0.70587 0.23824 0.0
N919 N 0.10576 0.77046 0.24596 0.0
H920 H 0.22544 0.87521 0.67218 0.0
H921 H 0.25449 0.87185 0.81015 0.0
H922 H 0.17204 0.87176 0.72659 0.0
H923 H 0.30764 0.87213 0.75539 0.0
H924 H 0.22401 0.87472 0.77991 0.0
H925 H 0.2557 0.87716 0.70263 0.0
C926 C 0.22003 0.87498 0.69052 0.0
C927 C 0.19611 0.87315 0.6968 0.0
C928 C 0.24234 0.87424 0.77453 0.0
C929 C 0.23078 0.8753 0.73178 0.0
C930 C 0.25979 0.8726 0.79179 0.0
C931 C 0.2837 0.8716 0.78532 0.0
C932 C 0.24883 0.87489 0.75063 0.0
C933 C 0.28946 0.87272 0.76124 0.0
C934 C 0.23736 0.87608 0.70791 0.0
C935 C 0.19023 0.87305 0.72089 0.0
N936 N 0.27213 0.87422 0.74477 0.0
N937 N 0.20747 0.87398 0.73751 0.0
H938 H 0.11648 0.31585 0.75092 0.0
H939 H 0.11491 0.17769 0.7221 0.0
H940 H 0.11734 0.26098 0.80397 0.0
H941 H 0.11557 0.23188 0.66835 0.0
H942 H 0.11369 0.20824 0.75226 0.0
H943 H 0.11415 0.28553 0.72036 0.0
C944 C 0.1161 0.29746 0.75618 0.0
C945 C 0.1172 0.29098 0.78009 0.0
C946 C 0.11402 0.21347 0.73387 0.0
C947 C 0.11455 0.25624 0.74517 0.0
C948 C 0.11472 0.19601 0.7166 0.0
C949 C 0.11546 0.2022 0.6926 0.0
C950 C 0.11412 0.23733 0.72718 0.0
C951 C 0.11507 0.22627 0.68661 0.0
C952 C 0.11478 0.28017 0.7387 0.0
C953 C 0.11662 0.26686 0.7858 0.0
N954 N 0.11452 0.24297 0.70381 0.0
N955 N 0.1154 0.25039 0.76846 0.0
H956 H 0.80984 0.10775 0.72723 0.0
H957 H 0.67177 0.10884 0.75622 0.0
H958 H 0.75509 0.10684 0.67407 0.0
H959 H 0.72623 0.10944 0.80967 0.0
H960 H 0.70218 0.10602 0.72594 0.0
H961 H 0.7795 0.10614 0.75777 0.0
C962 C 0.79147 0.10708 0.72195 0.0
C963 C 0.78503 0.10758 0.69801 0.0
C964 C 0.70747 0.10669 0.7443 0.0
C965 C 0.75024 0.10582 0.73291 0.0
C966 C 0.69011 0.10832 0.76163 0.0
C967 C 0.69643 0.10951 0.78556 0.0
C968 C 0.73135 0.1063 0.75091 0.0
C969 C 0.7205 0.10865 0.79146 0.0
C970 C 0.77416 0.10618 0.73941 0.0
C971 C 0.76093 0.10661 0.69227 0.0
N972 N 0.73709 0.1072 0.77423 0.0
N973 N 0.74443 0.10589 0.7096 0.0
H974 H 0.87204 0.71772 0.79817 0.0
H975 H 0.86564 0.74693 0.66035 0.0
H976 H 0.86565 0.66408 0.74424 0.0
H977 H 0.87049 0.79959 0.7154 0.0
H978 H 0.86841 0.71606 0.69036 0.0
H979 H 0.87437 0.74767 0.76754 0.0
C980 C 0.87119 0.7122 0.77988 0.0
C981 C 0.86845 0.68833 0.77379 0.0
C982 C 0.86898 0.73438 0.69581 0.0
C983 C 0.87106 0.72267 0.73855 0.0
C984 C 0.86741 0.75203 0.6787 0.0
C985 C 0.86766 0.77592 0.68536 0.0
C986 C 0.87082 0.7407 0.71971 0.0
C987 C 0.87004 0.78144 0.7094 0.0
C988 C 0.87255 0.72935 0.76237 0.0
C989 C 0.86767 0.68227 0.74976 0.0
N990 N 0.87143 0.76397 0.72568 0.0
N991 N 0.86883 0.69938 0.73299 0.0
H992 H 0.30634 0.22557 0.1116 0.0
H993 H 0.16818 0.2539 0.10937 0.0
H994 H 0.25195 0.17202 0.11019 0.0
H995 H 0.22246 0.30751 0.11231 0.0
H996 H 0.19874 0.22373 0.10711 0.0
H997 H 0.2759 0.25589 0.10934 0.0
C998 C 0.28802 0.22015 0.11072 0.0
C999 C 0.28172 0.19617 0.11123 0.0
C1000 C 0.20396 0.2421 0.10816 0.0
C1001 C 0.24677 0.23085 0.10868 0.0
C1002 C 0.18651 0.25937 0.10945 0.0
C1003 C 0.19273 0.28332 0.11118 0.0
C1004 C 0.22782 0.24878 0.10865 0.0
C1005 C 0.2168 0.28929 0.1111 0.0
C1006 C 0.27064 0.2375 0.10943 0.0
C1007 C 0.25767 0.19026 0.10996 0.0
N1008 N 0.23346 0.27212 0.10997 0.0
N1009 N 0.24108 0.20749 0.10884 0.0
H1010 H 0.22568 0.67828 0.87217 0.0
H1011 H 0.25405 0.81634 0.86565 0.0
H1012 H 0.17194 0.73217 0.86676 0.0
H1013 H 0.30737 0.76185 0.86869 0.0
H1014 H 0.22361 0.78602 0.86891 0.0
H1015 H 0.25567 0.709 0.87396 0.0
C1016 C 0.22013 0.69657 0.87147 0.0
C1017 C 0.19621 0.70262 0.86912 0.0
C1018 C 0.24198 0.78073 0.86896 0.0
C1019 C 0.23059 0.73793 0.87109 0.0
C1020 C 0.2594 0.79803 0.86709 0.0
C1021 C 0.28335 0.79165 0.86674 0.0
C1022 C 0.24854 0.75688 0.87048 0.0
C1023 C 0.28916 0.76763 0.86875 0.0
C1024 C 0.23731 0.71412 0.87249 0.0
C1025 C 0.19016 0.72666 0.86846 0.0
N1026 N 0.27187 0.75113 0.87044 0.0
N1027 N 0.20727 0.74344 0.8693 0.0
H1028 H 0.2565 0.17811 0.86224 0.0
H1029 H 0.22799 0.31627 0.85904 0.0
H1030 H 0.31041 0.23209 0.85907 0.0
H1031 H 0.17491 0.26143 0.86097 0.0
H1032 H 0.25859 0.28596 0.86086 0.0
H1033 H 0.22652 0.20876 0.8637 0.0
C1034 C 0.26208 0.19641 0.86192 0.0
C1035 C 0.28606 0.20251 0.86042 0.0
C1036 C 0.24023 0.28061 0.86095 0.0
C1037 C 0.25167 0.23776 0.86204 0.0
C1038 C 0.22274 0.2979 0.85992 0.0
C1039 C 0.19881 0.29141 0.85976 0.0
C1040 C 0.23374 0.25669 0.86183 0.0
C1041 C 0.19309 0.26731 0.86096 0.0
C1042 C 0.2449 0.21393 0.86276 0.0
C1043 C 0.29215 0.22655 0.86017 0.0
N1044 N 0.21043 0.25085 0.86188 0.0
N1045 N 0.27504 0.24333 0.86088 0.0
H1046 H 0.72803 0.16394 0.86628 0.0
H1047 H 0.75643 0.3022 0.8693 0.0
H1048 H 0.67474 0.21845 0.86938 0.0
H1049 H 0.81018 0.24816 0.86591 0.0
H1050 H 0.7264 0.27152 0.8716 0.0
H1051 H 0.75851 0.19436 0.86837 0.0
C1052 C 0.7227 0.18227 0.86751 0.0
C1053 C 0.69874 0.18862 0.86752 0.0
C1054 C 0.74477 0.26636 0.87044 0.0
C1055 C 0.73357 0.22351 0.86987 0.0
C1056 C 0.76197 0.28389 0.86912 0.0
C1057 C 0.78591 0.27779 0.86727 0.0
C1058 C 0.7515 0.24251 0.86984 0.0
C1059 C 0.79195 0.25373 0.86724 0.0
C1060 C 0.74013 0.19963 0.86869 0.0
C1061 C 0.69295 0.21267 0.8692 0.0
N1062 N 0.77484 0.23697 0.86839 0.0
N1063 N 0.71024 0.22922 0.87021 0.0
H1064 H 0.67126 0.74729 0.85238 0.0
H1065 H 0.80968 0.71992 0.85262 0.0
H1066 H 0.72524 0.80119 0.85566 0.0
H1067 H 0.75575 0.66591 0.85061 0.0
H1068 H 0.77891 0.74991 0.85452 0.0
H1069 H 0.70198 0.71717 0.85266 0.0
C1070 C 0.68954 0.75282 0.85325 0.0
C1071 C 0.69564 0.77685 0.85394 0.0
C1072 C 0.77382 0.73149 0.85372 0.0
C1073 C 0.7309 0.7424 0.85419 0.0
C1074 C 0.79139 0.71433 0.85261 0.0
C1075 C 0.78533 0.69031 0.85142 0.0
C1076 C 0.75 0.72463 0.85359 0.0
C1077 C 0.7613 0.68418 0.85149 0.0
C1078 C 0.70708 0.73559 0.8534 0.0
C1079 C 0.71967 0.7829 0.85507 0.0
N1080 N 0.74452 0.70125 0.85252 0.0
N1081 N 0.73641 0.76579 0.85509 0.0
H1082 H 0.79984 0.71777 0.10217 0.0
H1083 H 0.6617 0.74589 0.10611 0.0
H1084 H 0.74589 0.66378 0.10404 0.0
H1085 H 0.71629 0.79927 0.10587 0.0
H1086 H 0.69206 0.71552 0.10275 0.0
H1087 H 0.76917 0.74778 0.10071 0.0
C1088 C 0.78155 0.71218 0.10216 0.0
C1089 C 0.77547 0.68817 0.1034 0.0
C1090 C 0.69736 0.73389 0.10334 0.0
C1091 C 0.7402 0.72257 0.10182 0.0
C1092 C 0.68003 0.75126 0.10527 0.0
C1093 C 0.68643 0.77521 0.10642 0.0
C1094 C 0.72123 0.74049 0.10257 0.0
C1095 C 0.71049 0.78106 0.10517 0.0
C1096 C 0.76402 0.72937 0.10134 0.0
C1097 C 0.75143 0.68206 0.10319 0.0
N1098 N 0.72699 0.76382 0.1034 0.0
N1099 N 0.73466 0.69918 0.10256 0.0
H1100 H 0.21686 0.66941 0.12149 0.0
H1101 H 0.29968 0.7564 0.10256 0.0
H1102 H 0.16446 0.72448 0.11509 0.0
H1103 H 0.24572 0.80496 0.12588 0.0
H1104 H 0.27038 0.72521 0.10079 0.0
H1105 H 0.24766 0.69892 0.11907 0.0
C1106 C 0.2118 0.68772 0.11922 0.0
C1107 C 0.18796 0.69441 0.11834 0.0
C1108 C 0.26492 0.7425 0.10677 0.0
C1109 C 0.22344 0.72851 0.11474 0.0
C1110 C 0.28167 0.76045 0.10754 0.0
C1111 C 0.27523 0.78326 0.11474 0.0
C1112 C 0.24157 0.74724 0.11364 0.0
C1113 C 0.25149 0.78758 0.1204 0.0
C1114 C 0.22951 0.70463 0.11755 0.0
C1115 C 0.18259 0.71849 0.11574 0.0
N1116 N 0.23552 0.76967 0.11987 0.0
N1117 N 0.20022 0.73469 0.11411 0.0
H1118 H 0.6686 0.21686 0.1176 0.0
H1119 H 0.8067 0.24587 0.11972 0.0
H1120 H 0.72291 0.16337 0.12098 0.0
H1121 H 0.75201 0.29901 0.11702 0.0
H1122 H 0.77637 0.21529 0.11862 0.0
H1123 H 0.69912 0.24711 0.11586 0.0
C1124 C 0.68694 0.21144 0.11792 0.0
C1125 C 0.69317 0.1875 0.1195 0.0
C1126 C 0.77103 0.23365 0.11819 0.0
C1127 C 0.72823 0.22213 0.11755 0.0
C1128 C 0.78834 0.25114 0.1188 0.0
C1129 C 0.78192 0.27509 0.11853 0.0
C1130 C 0.74713 0.24013 0.11733 0.0
C1131 C 0.75783 0.2808 0.11732 0.0
C1132 C 0.70437 0.22875 0.11692 0.0
C1133 C 0.71724 0.18159 0.11981 0.0
N1134 N 0.74133 0.26345 0.11683 0.0
N1135 N 0.7339 0.19881 0.1189 0.0
H1136 H 0.67462 0.60948 0.71545 0.0
H1137 H 0.81287 0.60926 0.74367 0.0
H1138 H 0.72845 0.61084 0.66138 0.0
H1139 H 0.75815 0.60719 0.79683 0.0
H1140 H 0.78246 0.6079 0.7131 0.0
H1141 H 0.70531 0.60683 0.74535 0.0
C1142 C 0.69289 0.60918 0.70982 0.0
C1143 C 0.69893 0.6105 0.68582 0.0
C1144 C 0.77717 0.60763 0.73147 0.0
C1145 C 0.73425 0.60749 0.7201 0.0
C1146 C 0.79451 0.60838 0.74895 0.0
C1147 C 0.78809 0.60847 0.7729 0.0
C1148 C 0.75326 0.607 0.73799 0.0
C1149 C 0.764 0.60729 0.77863 0.0
C1150 C 0.71044 0.60763 0.72694 0.0
C1151 C 0.72295 0.60992 0.67966 0.0
N1152 N 0.74749 0.6067 0.76131 0.0
N1153 N 0.73975 0.60855 0.69672 0.0
H1154 H 0.17051 0.37355 0.75173 0.0
H1155 H 0.30862 0.37377 0.72307 0.0
H1156 H 0.22506 0.37359 0.80511 0.0
H1157 H 0.25418 0.3732 0.66958 0.0
H1158 H 0.27817 0.37631 0.75335 0.0
H1159 H 0.20091 0.37605 0.72136 0.0
C1160 C 0.18885 0.3742 0.7571 0.0
C1161 C 0.19522 0.3732 0.78104 0.0
C1162 C 0.2729 0.37573 0.73498 0.0
C1163 C 0.2301 0.376 0.74632 0.0
C1164 C 0.29028 0.37428 0.71765 0.0
C1165 C 0.28397 0.37311 0.69371 0.0
C1166 C 0.24902 0.37597 0.72835 0.0
C1167 C 0.25991 0.37395 0.6878 0.0
C1168 C 0.20621 0.37562 0.73973 0.0
C1169 C 0.21929 0.37419 0.7869 0.0
N1170 N 0.24331 0.37521 0.70502 0.0
N1171 N 0.23585 0.37542 0.76964 0.0
H1172 H 0.24567 0.61619 0.31203 0.0
H1173 H 0.2161 0.61231 0.17407 0.0
H1174 H 0.29828 0.61303 0.25684 0.0
H1175 H 0.16262 0.61664 0.22834 0.0
H1176 H 0.24626 0.61053 0.20456 0.0
H1177 H 0.2148 0.61435 0.28194 0.0
C1178 C 0.25076 0.615 0.29363 0.0
C1179 C 0.27464 0.61487 0.28697 0.0
C1180 C 0.22793 0.6118 0.20983 0.0
C1181 C 0.23941 0.61281 0.25252 0.0
C1182 C 0.21065 0.61282 0.1924 0.0
C1183 C 0.18675 0.61473 0.19862 0.0
C1184 C 0.22133 0.61275 0.2337 0.0
C1185 C 0.18082 0.61522 0.2227 0.0
C1186 C 0.23311 0.61398 0.27647 0.0
C1187 C 0.28014 0.61329 0.26285 0.0
N1188 N 0.19803 0.61433 0.23938 0.0
N1189 N 0.26267 0.6124 0.24653 0.0
H1190 H 0.72241 0.35553 0.31108 0.0
H1191 H 0.7509 0.35568 0.17285 0.0
H1192 H 0.66913 0.35341 0.25648 0.0
H1193 H 0.80466 0.3567 0.22701 0.0
H1194 H 0.72073 0.35657 0.20343 0.0
H1195 H 0.75281 0.35757 0.28063 0.0
C1196 C 0.71707 0.35556 0.29271 0.0
C1197 C 0.69314 0.35423 0.28636 0.0
C1198 C 0.73912 0.35667 0.20863 0.0
C1199 C 0.72789 0.35655 0.25144 0.0
C1200 C 0.7564 0.35618 0.19116 0.0
C1201 C 0.78041 0.35603 0.19734 0.0
C1202 C 0.74583 0.35699 0.23248 0.0
C1203 C 0.78639 0.35675 0.22139 0.0
C1204 C 0.73446 0.35672 0.27534 0.0
C1205 C 0.68733 0.35435 0.26226 0.0
N1206 N 0.76921 0.35712 0.2381 0.0
N1207 N 0.70459 0.35543 0.24569 0.0
H1208 H 0.17532 0.62239 0.75744 0.0
H1209 H 0.31337 0.62455 0.72831 0.0
H1210 H 0.22929 0.62573 0.81129 0.0
H1211 H 0.25829 0.62198 0.67556 0.0
H1212 H 0.28319 0.62349 0.75913 0.0
H1213 H 0.20589 0.62079 0.72743 0.0
C1214 C 0.19361 0.62275 0.76301 0.0
C1215 C 0.19969 0.62427 0.787 0.0
C1216 C 0.27776 0.62309 0.7408 0.0
C1217 C 0.23493 0.62246 0.75251 0.0
C1218 C 0.29497 0.62366 0.72318 0.0
C1219 C 0.28838 0.62342 0.69926 0.0
C1220 C 0.25381 0.62227 0.73446 0.0
C1221 C 0.26426 0.62227 0.69371 0.0
C1222 C 0.21109 0.62182 0.7458 0.0
C1223 C 0.22375 0.6246 0.79303 0.0
N1224 N 0.24789 0.62179 0.71117 0.0
N1225 N 0.24051 0.62376 0.77588 0.0
H1226 H 0.80863 0.3563 0.75571 0.0
H1227 H 0.67037 0.35886 0.72794 0.0
H1228 H 0.75473 0.35668 0.80974 0.0
H1229 H 0.72459 0.35734 0.67426 0.0
H1230 H 0.70098 0.3598 0.75818 0.0
H1231 H 0.77796 0.35831 0.7257 0.0
C1232 C 0.79035 0.35685 0.76131 0.0
C1233 C 0.78428 0.35625 0.78534 0.0
C1234 C 0.70616 0.35934 0.73978 0.0
C1235 C 0.74903 0.35854 0.75094 0.0
C1236 C 0.68869 0.35882 0.72247 0.0
C1237 C 0.69489 0.35794 0.69847 0.0
C1238 C 0.73001 0.35895 0.73307 0.0
C1239 C 0.71894 0.35795 0.69251 0.0
C1240 C 0.77283 0.35801 0.74412 0.0
C1241 C 0.76027 0.35707 0.79145 0.0
N1242 N 0.73561 0.35837 0.7097 0.0
N1243 N 0.74351 0.35811 0.77434 0.0
H1244 H 0.30693 0.36275 0.25112 0.0
H1245 H 0.16865 0.36273 0.22293 0.0
H1246 H 0.25243 0.36419 0.30452 0.0
H1247 H 0.22269 0.36187 0.16905 0.0
H1248 H 0.19931 0.36483 0.25299 0.0
H1249 H 0.27644 0.36409 0.2207 0.0
C1250 C 0.28859 0.36346 0.25648 0.0
C1251 C 0.28226 0.36325 0.28045 0.0
C1252 C 0.20446 0.36425 0.23459 0.0
C1253 C 0.24731 0.36472 0.2457 0.0
C1254 C 0.18695 0.36304 0.21738 0.0
C1255 C 0.19307 0.36203 0.19339 0.0
C1256 C 0.2283 0.36441 0.22781 0.0
C1257 C 0.21712 0.36256 0.18732 0.0
C1258 C 0.27119 0.36421 0.23908 0.0
C1259 C 0.25819 0.36423 0.28629 0.0
N1260 N 0.23386 0.36364 0.20444 0.0
N1261 N 0.24161 0.36484 0.26904 0.0
H1262 H 0.65879 0.59894 0.24416 0.0
H1263 H 0.74413 0.61147 0.15678 0.0
H1264 H 0.71576 0.61351 0.29277 0.0
H1265 H 0.79491 0.60401 0.21321 0.0
H1266 H 0.71247 0.60954 0.18549 0.0
H1267 H 0.68724 0.59666 0.21215 0.0
C1268 C 0.67728 0.60184 0.24807 0.0
C1269 C 0.68483 0.60666 0.27118 0.0
C1270 C 0.73042 0.60775 0.19169 0.0
C1271 C 0.71762 0.60481 0.23438 0.0
C1272 C 0.74863 0.60907 0.17521 0.0
C1273 C 0.77228 0.60789 0.18256 0.0
C1274 C 0.73588 0.60503 0.21574 0.0
C1275 C 0.77697 0.60503 0.20671 0.0
C1276 C 0.69359 0.60076 0.22967 0.0
C1277 C 0.70906 0.60988 0.27524 0.0
N1278 N 0.75893 0.6038 0.22242 0.0
N1279 N 0.72455 0.60897 0.25701 0.0
H1280 H 0.25727 0.67856 0.61786 0.0
H1281 H 0.22838 0.81667 0.61912 0.0
H1282 H 0.3111 0.7327 0.61921 0.0
H1283 H 0.17548 0.76162 0.61791 0.0
H1284 H 0.25908 0.78643 0.61777 0.0
H1285 H 0.2272 0.70911 0.61649 0.0
C1286 C 0.26281 0.69688 0.61782 0.0
C1287 C 0.2868 0.70304 0.61873 0.0
C1288 C 0.24074 0.78102 0.61773 0.0
C1289 C 0.25231 0.73819 0.61719 0.0
C1290 C 0.22319 0.79826 0.61849 0.0
C1291 C 0.19928 0.7917 0.6187 0.0
C1292 C 0.23432 0.75707 0.61719 0.0
C1293 C 0.19364 0.76757 0.61785 0.0
C1294 C 0.24558 0.71434 0.61702 0.0
C1295 C 0.29283 0.72711 0.61855 0.0
N1296 N 0.21104 0.75116 0.61719 0.0
N1297 N 0.27567 0.74383 0.61787 0.0
H1298 H 0.25035 0.30777 0.35965 0.0
H1299 H 0.22188 0.16955 0.35976 0.0
H1300 H 0.30386 0.25338 0.36075 0.0
H1301 H 0.16838 0.22393 0.35776 0.0
H1302 H 0.25214 0.20008 0.36164 0.0
H1303 H 0.22002 0.27726 0.36055 0.0
C1304 C 0.25576 0.28943 0.36017 0.0
C1305 C 0.27973 0.28315 0.36005 0.0
C1306 C 0.23377 0.20532 0.36085 0.0
C1307 C 0.24505 0.24814 0.36102 0.0
C1308 C 0.21646 0.1879 0.35977 0.0
C1309 C 0.19252 0.19416 0.35854 0.0
C1310 C 0.22713 0.2292 0.36067 0.0
C1311 C 0.1866 0.21824 0.35864 0.0
C1312 C 0.2384 0.27201 0.36066 0.0
C1313 C 0.28562 0.25908 0.36077 0.0
N1314 N 0.20381 0.23488 0.35963 0.0
N1315 N 0.26838 0.24245 0.36116 0.0
H1316 H 0.21951 0.80793 0.3651 0.0
H1317 H 0.24829 0.66984 0.36873 0.0
H1318 H 0.16606 0.75345 0.36707 0.0
H1319 H 0.30165 0.72435 0.36535 0.0
H1320 H 0.21798 0.70031 0.3705 0.0
H1321 H 0.24987 0.77757 0.36744 0.0
C1322 C 0.21412 0.7896 0.3661 0.0
C1323 C 0.19015 0.78326 0.36577 0.0
C1324 C 0.23633 0.70559 0.36947 0.0
C1325 C 0.22491 0.74838 0.36843 0.0
C1326 C 0.25368 0.6882 0.36847 0.0
C1327 C 0.2776 0.69451 0.36676 0.0
C1328 C 0.2429 0.72948 0.36871 0.0
C1329 C 0.28346 0.71861 0.36657 0.0
C1330 C 0.2315 0.77226 0.36744 0.0
C1331 C 0.18429 0.75919 0.36719 0.0
N1332 N 0.26621 0.73521 0.36743 0.0
N1333 N 0.20156 0.74263 0.36837 0.0
H1334 H 0.66395 0.71827 0.3511 0.0
H1335 H 0.80199 0.74716 0.35464 0.0
H1336 H 0.71863 0.66505 0.35071 0.0
H1337 H 0.74765 0.80072 0.3534 0.0
H1338 H 0.7715 0.71685 0.35478 0.0
H1339 H 0.69428 0.74875 0.35327 0.0
C1340 C 0.68231 0.71296 0.35149 0.0
C1341 C 0.68873 0.68903 0.35068 0.0
C1342 C 0.76625 0.73523 0.35454 0.0
C1343 C 0.72352 0.72387 0.35319 0.0
C1344 C 0.78366 0.75259 0.35449 0.0
C1345 C 0.7774 0.77657 0.35393 0.0
C1346 C 0.74239 0.74186 0.354 0.0
C1347 C 0.75333 0.78247 0.35379 0.0
C1348 C 0.69962 0.7304 0.35274 0.0
C1349 C 0.71282 0.68325 0.35125 0.0
N1350 N 0.73669 0.76522 0.35376 0.0
N1351 N 0.72933 0.70057 0.35245 0.0
H1352 H 0.72146 0.30078 0.36891 0.0
H1353 H 0.75055 0.16277 0.36714 0.0
H1354 H 0.66809 0.24621 0.36726 0.0
H1355 H 0.80373 0.21755 0.36717 0.0
H1356 H 0.72008 0.19303 0.36974 0.0
H1357 H 0.75179 0.2704 0.3709 0.0
C1358 C 0.71607 0.28243 0.36906 0.0
C1359 C 0.69215 0.27607 0.36776 0.0
C1360 C 0.73842 0.19841 0.36927 0.0
C1361 C 0.72688 0.24117 0.36999 0.0
C1362 C 0.75586 0.18114 0.36778 0.0
C1363 C 0.77978 0.18761 0.36679 0.0
C1364 C 0.74492 0.22233 0.36974 0.0
C1365 C 0.78554 0.21171 0.36777 0.0
C1366 C 0.73344 0.26508 0.3702 0.0
C1367 C 0.6863 0.25197 0.36814 0.0
N1368 N 0.76822 0.22819 0.3691 0.0
N1369 N 0.70356 0.23539 0.36911 0.0
H1370 H 0.752 0.16382 0.62048 0.0
H1371 H 0.72317 0.30187 0.61656 0.0
H1372 H 0.80504 0.21863 0.61704 0.0
H1373 H 0.66948 0.24779 0.62134 0.0
H1374 H 0.75322 0.27129 0.61497 0.0
H1375 H 0.72138 0.19408 0.6191 0.0
C1376 C 0.75724 0.18219 0.61936 0.0
C1377 C 0.78118 0.18868 0.61895 0.0
C1378 C 0.73487 0.26608 0.6163 0.0
C1379 C 0.74618 0.22336 0.6174 0.0
C1380 C 0.71765 0.28356 0.61722 0.0
C1381 C 0.69371 0.27742 0.61918 0.0
C1382 C 0.72819 0.24225 0.6174 0.0
C1383 C 0.68771 0.25336 0.61987 0.0
C1384 C 0.73972 0.19945 0.61858 0.0
C1385 C 0.78685 0.21276 0.61747 0.0
N1386 N 0.70486 0.23664 0.61906 0.0
N1387 N 0.76948 0.22921 0.61681 0.0
H1388 H 0.25178 0.31689 0.61484 0.0
H1389 H 0.22352 0.17869 0.60862 0.0
H1390 H 0.30501 0.26232 0.61162 0.0
H1391 H 0.16958 0.23243 0.61362 0.0
H1392 H 0.25344 0.20949 0.60732 0.0
H1393 H 0.22126 0.28651 0.6122 0.0
C1394 C 0.25708 0.29856 0.6135 0.0
C1395 C 0.28104 0.29217 0.61356 0.0
C1396 C 0.23506 0.21457 0.60861 0.0
C1397 C 0.24618 0.25736 0.61054 0.0
C1398 C 0.21792 0.19697 0.60935 0.0
C1399 C 0.19395 0.20294 0.61137 0.0
C1400 C 0.22826 0.23837 0.60996 0.0
C1401 C 0.18783 0.22697 0.61213 0.0
C1402 C 0.23963 0.28123 0.612 0.0
C1403 C 0.28681 0.26812 0.61175 0.0
N1404 N 0.20491 0.24381 0.61153 0.0
N1405 N 0.2695 0.25162 0.61038 0.0
H1406 H 0.75687 0.80239 0.60409 0.0
H1407 H 0.72893 0.66408 0.60483 0.0
H1408 H 0.81087 0.74855 0.60662 0.0
H1409 H 0.67558 0.71853 0.60151 0.0
H1410 H 0.75937 0.69457 0.60309 0.0
H1411 H 0.72702 0.77164 0.60086 0.0
C1412 C 0.76249 0.78411 0.60391 0.0
C1413 C 0.78645 0.77807 0.60578 0.0
C1414 C 0.74099 0.6998 0.60262 0.0
C1415 C 0.75225 0.74272 0.60211 0.0
C1416 C 0.72358 0.68241 0.60359 0.0
C1417 C 0.69961 0.68873 0.60349 0.0
C1418 C 0.73439 0.72367 0.60158 0.0
C1419 C 0.69379 0.71277 0.60179 0.0
C1420 C 0.7454 0.76654 0.60203 0.0
C1421 C 0.79262 0.75405 0.6053 0.0
N1422 N 0.71106 0.72935 0.60102 0.0
N1423 N 0.7756 0.73724 0.60363 0.0
H1424 H 0.61911 0.22129 0.8124 0.0
H1425 H 0.61086 0.25025 0.67456 0.0
H1426 H 0.61558 0.16815 0.75771 0.0
H1427 H 0.61624 0.30383 0.72866 0.0
H1428 H 0.61021 0.22006 0.70512 0.0
H1429 H 0.61599 0.25186 0.78222 0.0
C1430 C 0.61763 0.21601 0.79407 0.0
C1431 C 0.6177 0.19206 0.7876 0.0
C1432 C 0.61144 0.23842 0.71032 0.0
C1433 C 0.6141 0.22703 0.75299 0.0
C1434 C 0.61179 0.25572 0.69287 0.0
C1435 C 0.61374 0.27967 0.69901 0.0
C1436 C 0.6131 0.24506 0.73414 0.0
C1437 C 0.61478 0.28561 0.72307 0.0
C1438 C 0.61583 0.2335 0.77686 0.0
C1439 C 0.61569 0.18635 0.76356 0.0
N1440 N 0.61456 0.2684 0.73976 0.0
N1441 N 0.61403 0.20371 0.74715 0.0
H1442 H 0.36359 0.75986 0.80968 0.0
H1443 H 0.36932 0.73167 0.67157 0.0
H1444 H 0.36387 0.8134 0.75528 0.0
H1445 H 0.36833 0.67797 0.72581 0.0
H1446 H 0.36966 0.7619 0.70216 0.0
H1447 H 0.36726 0.72962 0.77926 0.0
C1448 C 0.36444 0.76529 0.79136 0.0
C1449 C 0.36333 0.78924 0.78505 0.0
C1450 C 0.36948 0.7435 0.70736 0.0
C1451 C 0.36757 0.75468 0.75016 0.0
C1452 C 0.36932 0.7262 0.68989 0.0
C1453 C 0.36864 0.7022 0.6961 0.0
C1454 C 0.3689 0.73679 0.73122 0.0
C1455 C 0.36876 0.69623 0.72016 0.0
C1456 C 0.36658 0.74799 0.774 0.0
C1457 C 0.36458 0.79518 0.76101 0.0
N1458 N 0.36874 0.71342 0.73684 0.0
N1459 N 0.36659 0.778 0.74444 0.0
H1460 H 0.60557 0.66073 0.24501 0.0
H1461 H 0.60411 0.79899 0.21697 0.0
H1462 H 0.60357 0.71533 0.29831 0.0
H1463 H 0.60751 0.74519 0.16293 0.0
H1464 H 0.60126 0.76825 0.2468 0.0
H1465 H 0.60352 0.69115 0.21452 0.0
C1466 C 0.60455 0.67907 0.25034 0.0
C1467 C 0.60491 0.68547 0.2743 0.0
C1468 C 0.60254 0.76314 0.22842 0.0
C1469 C 0.60264 0.72032 0.23947 0.0
C1470 C 0.6042 0.78071 0.21133 0.0
C1471 C 0.60621 0.7747 0.18736 0.0
C1472 C 0.60296 0.73933 0.22158 0.0
C1473 C 0.60608 0.75067 0.18119 0.0
C1474 C 0.60341 0.69643 0.2329 0.0
C1475 C 0.6035 0.70953 0.2801 0.0
N1476 N 0.60461 0.73384 0.19822 0.0
N1477 N 0.60254 0.72606 0.26281 0.0
H1478 H 0.36186 0.25337 0.3064 0.0
H1479 H 0.36179 0.22519 0.16817 0.0
H1480 H 0.36191 0.30717 0.25226 0.0
H1481 H 0.36027 0.17164 0.22254 0.0
H1482 H 0.36402 0.25546 0.19869 0.0
H1483 H 0.36354 0.22321 0.27581 0.0
C1484 C 0.36231 0.25888 0.28809 0.0
C1485 C 0.36161 0.28289 0.28191 0.0
C1486 C 0.36328 0.23708 0.20393 0.0
C1487 C 0.36349 0.24834 0.24677 0.0
C1488 C 0.362 0.21975 0.18651 0.0
C1489 C 0.36073 0.19579 0.19278 0.0
C1490 C 0.36326 0.23042 0.2278 0.0
C1491 C 0.36114 0.18986 0.21685 0.0
C1492 C 0.36327 0.24161 0.27062 0.0
C1493 C 0.36235 0.2889 0.25787 0.0
N1494 N 0.36229 0.20708 0.23347 0.0
N1495 N 0.36315 0.27173 0.24117 0.0
H1496 H 0.36649 0.17699 0.75119 0.0
H1497 H 0.36322 0.31519 0.72308 0.0
H1498 H 0.36569 0.23119 0.80495 0.0
H1499 H 0.36221 0.2608 0.66951 0.0
H1500 H 0.36623 0.2847 0.75329 0.0
H1501 H 0.36726 0.20759 0.72101 0.0
C1502 C 0.36659 0.19532 0.75669 0.0
C1503 C 0.36589 0.20151 0.78069 0.0
C1504 C 0.36541 0.27946 0.73492 0.0
C1505 C 0.36669 0.23664 0.74613 0.0
C1506 C 0.36367 0.29685 0.71763 0.0
C1507 C 0.36236 0.29057 0.69369 0.0
C1508 C 0.36582 0.25559 0.72824 0.0
C1509 C 0.36309 0.26651 0.68774 0.0
C1510 C 0.36701 0.21279 0.73941 0.0
C1511 C 0.36614 0.22556 0.78669 0.0
N1512 N 0.36471 0.2499 0.70492 0.0
N1513 N 0.36641 0.24226 0.7695 0.0
H1514 H 0.612 0.75051 0.79794 0.0
H1515 H 0.62268 0.72231 0.66012 0.0
H1516 H 0.62034 0.80454 0.74467 0.0
H1517 H 0.61717 0.66913 0.7146 0.0
H1518 H 0.61984 0.7529 0.6904 0.0
H1519 H 0.61154 0.72071 0.76709 0.0
C1520 C 0.61365 0.75616 0.77974 0.0
C1521 C 0.61634 0.78011 0.77393 0.0
C1522 C 0.6192 0.73453 0.69568 0.0
C1523 C 0.61592 0.74591 0.73843 0.0
C1524 C 0.62083 0.71704 0.67841 0.0
C1525 C 0.62024 0.69308 0.68482 0.0
C1526 C 0.61694 0.728 0.71948 0.0
C1527 C 0.61779 0.68734 0.7088 0.0
C1528 C 0.6134 0.73908 0.76211 0.0
C1529 C 0.61827 0.78629 0.74999 0.0
N1530 N 0.61627 0.70467 0.72523 0.0
N1531 N 0.61813 0.76926 0.7331 0.0
H1532 H 0.59824 0.29936 0.25999 0.0
H1533 H 0.61488 0.21663 0.17275 0.0
H1534 H 0.62268 0.24545 0.30805 0.0
H1535 H 0.6094 0.16405 0.2278 0.0
H1536 H 0.61312 0.24734 0.20234 0.0
H1537 H 0.59538 0.26998 0.22899 0.0
C1538 C 0.60327 0.28134 0.26395 0.0
C1539 C 0.61111 0.27494 0.28654 0.0
C1540 C 0.61163 0.22918 0.20805 0.0
C1541 C 0.60876 0.24118 0.25072 0.0
C1542 C 0.61292 0.21151 0.19107 0.0
C1543 C 0.61214 0.18765 0.19773 0.0
C1544 C 0.60931 0.22305 0.23197 0.0
C1545 C 0.60995 0.18221 0.22183 0.0
C1546 C 0.60186 0.26454 0.24611 0.0
C1547 C 0.61675 0.25118 0.29081 0.0
N1548 N 0.6087 0.19981 0.23811 0.0
N1549 N 0.61561 0.23515 0.27297 0.0
H1550 H 0.35381 0.75317 0.17063 0.0
H1551 H 0.35675 0.72496 0.30889 0.0
H1552 H 0.3561 0.80696 0.22476 0.0
H1553 H 0.3537 0.67143 0.25455 0.0
H1554 H 0.35807 0.75525 0.27831 0.0
H1555 H 0.35532 0.72298 0.20121 0.0
C1556 C 0.35471 0.75867 0.18893 0.0
C1557 C 0.35476 0.78269 0.19511 0.0
C1558 C 0.35717 0.73687 0.2731 0.0
C1559 C 0.35645 0.74812 0.23023 0.0
C1560 C 0.35643 0.71954 0.29055 0.0
C1561 C 0.35504 0.69557 0.28431 0.0
C1562 C 0.35651 0.73021 0.24923 0.0
C1563 C 0.35471 0.68966 0.26023 0.0
C1564 C 0.35557 0.74139 0.2064 0.0
C1565 C 0.35598 0.78868 0.21914 0.0
N1566 N 0.35538 0.70687 0.24358 0.0
N1567 N 0.35671 0.7715 0.23583 0.0
H1568 H 0.09684 0.92958 0.32266 0.0
H1569 H 0.15393 0.04723 0.37431 0.0
H1570 H 0.15292 0.93077 0.37443 0.0
H1571 H 0.10075 0.04593 0.31957 0.0
H1572 H 0.14911 0.00478 0.37931 0.0
H1573 H 0.0934 0.97232 0.32616 0.0
C1574 C 0.10832 0.93878 0.3349 0.0
C1575 C 0.12553 0.92662 0.34792 0.0
C1576 C 0.13836 0.01383 0.36634 0.0
C1577 C 0.12168 0.97551 0.35195 0.0
C1578 C 0.14112 0.03808 0.36344 0.0
C1579 C 0.12805 0.0501 0.34616 0.0
C1580 C 0.1225 0.00153 0.35181 0.0
C1581 C 0.11148 0.03735 0.33286 0.0
C1582 C 0.10631 0.96319 0.3369 0.0
C1583 C 0.13965 0.93944 0.36376 0.0
N1584 N 0.10936 0.01369 0.33579 0.0
N1585 N 0.13758 0.96325 0.36512 0.0
H1586 H 0.92782 0.09786 0.32245 0.0
H1587 H 0.0453 0.15712 0.37208 0.0
H1588 H 0.92874 0.15461 0.3735 0.0
H1589 H 0.04415 0.10305 0.31819 0.0
H1590 H 0.00288 0.15233 0.37711 0.0
H1591 H 0.97064 0.09537 0.32516 0.0
C1592 C 0.93698 0.10969 0.33437 0.0
C1593 C 0.92469 0.12678 0.34745 0.0
C1594 C 0.01195 0.1414 0.36431 0.0
C1595 C 0.9737 0.12403 0.35056 0.0
C1596 C 0.03618 0.14415 0.36138 0.0
C1597 C 0.04826 0.13075 0.34439 0.0
C1598 C -0.0003 0.1252 0.35011 0.0
C1599 C 0.03553 0.11399 0.33128 0.0
C1600 C 0.96145 0.10823 0.33591 0.0
C1601 C 0.93749 0.14138 0.36284 0.0
N1602 N 0.01188 0.11186 0.33427 0.0
N1603 N 0.96136 0.13984 0.36378 0.0
H1604 H 0.81854 0.04035 0.37601 0.0
H1605 H 0.86986 0.92445 0.31516 0.0
H1606 H 0.87082 0.04091 0.32041 0.0
H1607 H 0.81481 0.92412 0.36803 0.0
H1608 H 0.87479 0.96675 0.32121 0.0
H1609 H 0.82157 -0.00252 0.3778 0.0
C1610 C 0.83082 0.03151 0.36431 0.0
C1611 C 0.84411 0.04423 0.3477 0.0
C1612 C 0.86176 0.95738 0.33161 0.0
C1613 C 0.84757 -0.00483 0.34963 0.0
C1614 C 0.85888 0.93322 0.32813 0.0
C1615 C 0.8416 0.92077 0.34081 0.0
C1616 C 0.8472 0.96919 0.34781 0.0
C1617 C 0.82814 0.93304 0.35761 0.0
C1618 C 0.83253 0.00702 0.36536 0.0
C1619 C 0.85996 0.03182 0.33325 0.0
N1620 N 0.83107 0.95663 0.36046 0.0
N1621 N 0.86105 0.00793 0.33437 0.0
H1622 H 0.92518 0.86945 0.3155 0.0
H1623 H 0.04109 0.81706 0.37547 0.0
H1624 H 0.92485 0.81276 0.36662 0.0
H1625 H 0.04145 0.87253 0.32302 0.0
H1626 H -0.00186 0.81922 0.37675 0.0
H1627 H 0.96739 0.87448 0.32206 0.0
C1628 C 0.93394 0.85811 0.32817 0.0
C1629 C 0.9215 0.84039 0.34024 0.0
C1630 C 0.00765 0.83107 0.36513 0.0
C1631 C 0.96981 0.84611 0.34785 0.0
C1632 C 0.03219 0.82987 0.3644 0.0
C1633 C 0.04489 0.84432 0.34878 0.0
C1634 C -0.00425 0.84677 0.35009 0.0
C1635 C 0.03239 0.86076 0.33507 0.0
C1636 C 0.95804 0.86105 0.33196 0.0
C1637 C 0.93374 0.82645 0.35668 0.0
N1638 N 0.00849 0.86134 0.33585 0.0
N1639 N 0.95728 0.82948 0.35984 0.0
H1640 H 0.15877 0.05429 0.60193 0.0
H1641 H 0.10379 0.93774 0.65833 0.0
H1642 H 0.10639 0.0543 0.65743 0.0
H1643 H 0.15798 0.93774 0.60458 0.0
H1644 H 0.10016 0.98039 0.65393 0.0
H1645 H 0.15442 0.01162 0.59852 0.0
C1646 C 0.14625 0.04537 0.61331 0.0
C1647 C 0.13324 0.05786 0.63029 0.0
C1648 C 0.11269 0.97101 0.64296 0.0
C1649 C 0.1282 0.00903 0.62647 0.0
C1650 C 0.11479 0.94665 0.64546 0.0
C1651 C 0.13154 0.93418 0.63212 0.0
C1652 C 0.1275 0.98299 0.62708 0.0
C1653 C 0.14508 0.94665 0.6155 0.0
C1654 C 0.14375 0.021 0.61131 0.0
C1655 C 0.11705 0.04538 0.64432 0.0
N1656 N 0.14294 0.97042 0.61365 0.0
N1657 N 0.11517 0.0216 0.64225 0.0
H1658 H 0.9289 0.15592 0.60394 0.0
H1659 H 0.05001 0.10774 0.6568 0.0
H1660 H 0.93342 0.10328 0.65903 0.0
H1661 H 0.04542 0.1637 0.6051 0.0
H1662 H 0.00755 0.10193 0.65369 0.0
H1663 H 0.97168 0.15484 0.59998 0.0
C1664 C 0.93884 0.14399 0.6151 0.0
C1665 C 0.92755 0.12995 0.63214 0.0
C1666 C 0.01586 0.11537 0.6429 0.0
C1667 C 0.97657 0.12871 0.62768 0.0
C1668 C 0.04012 0.11874 0.64469 0.0
C1669 C 0.05129 0.13651 0.63145 0.0
C1670 C 0.00261 0.12989 0.62784 0.0
C1671 C 0.03756 0.14997 0.61583 0.0
C1672 C 0.96329 0.14339 0.6128 0.0
C1673 C 0.94137 0.11462 0.64585 0.0
N1674 N 0.01388 0.14652 0.61462 0.0
N1675 N 0.9652 0.11459 0.64348 0.0
H1676 H 0.82317 0.04367 0.60253 0.0
H1677 H 0.87609 0.92439 0.65482 0.0
H1678 H 0.87389 0.04098 0.6595 0.0
H1679 H 0.82149 0.92717 0.60155 0.0
H1680 H 0.88005 0.96714 0.65238 0.0
H1681 H 0.82706 0.00116 0.5976 0.0
C1682 C 0.83525 0.03419 0.61392 0.0
C1683 C 0.8479 0.04586 0.63177 0.0
C1684 C 0.86733 0.95837 0.64111 0.0
C1685 C 0.85238 -0.00283 0.62619 0.0
C1686 C 0.86501 0.93395 0.6425 0.0
C1687 C 0.84812 0.9222 0.62866 0.0
C1688 C 0.85262 0.97114 0.62582 0.0
C1689 C 0.83453 0.9355 0.61279 0.0
C1690 C 0.83748 0.0099 0.61106 0.0
C1691 C 0.86357 0.03268 0.64571 0.0
N1692 N 0.83692 0.95931 0.61198 0.0
N1693 N 0.86517 0.00897 0.64279 0.0
H1694 H 0.93532 0.81686 0.5985 0.0
H1695 H 0.04732 0.87795 0.65792 0.0
H1696 H 0.93111 0.87176 0.65137 0.0
H1697 H 0.05165 0.82293 0.60517 0.0
H1698 H 0.00473 0.87959 0.6519 0.0
H1699 H 0.97797 0.8226 0.59675 0.0
C1700 C 0.9433 0.83026 0.60958 0.0
C1701 C 0.92965 0.84354 0.62542 0.0
C1702 C 0.01505 0.86729 0.64152 0.0
C1703 C 0.97841 0.85012 0.62357 0.0
C1704 C 0.03937 0.86632 0.64497 0.0
C1705 C 0.05305 0.84999 0.63233 0.0
C1706 C 0.00434 0.85177 0.6254 0.0
C1707 C 0.04179 0.83557 0.61557 0.0
C1708 C 0.96766 0.83353 0.60858 0.0
C1709 C 0.94095 0.86083 0.63917 0.0
N1710 N 0.01806 0.83664 0.61277 0.0
N1711 N 0.9647 0.86344 0.6381 0.0
H1712 H 0.31884 0.10539 0.04388 0.0
H1713 H 0.3757 0.16376 0.92917 0.0
H1714 H 0.37302 0.15916 0.04576 0.0
H1715 H 0.32105 0.11047 0.9274 0.0
H1716 H 0.37872 0.15851 0.97179 0.0
H1717 H 0.32328 0.10314 0.00113 0.0
C1718 C 0.3318 0.11659 0.03536 0.0
C1719 C 0.34528 0.13279 0.04841 0.0
C1720 C 0.36621 0.14783 0.96203 0.0
C1721 C 0.35037 0.13034 -0.00051 0.0
C1722 C 0.36445 0.15085 0.93769 0.0
C1723 C 0.34781 0.13783 0.92472 0.0
C1724 C 0.35117 0.13176 0.97348 0.0
C1725 C 0.3339 0.12115 0.93669 0.0
C1726 C 0.33434 0.11528 0.01094 0.0
C1727 C 0.362 0.14664 0.03641 0.0
N1728 N 0.33574 0.11877 0.96043 0.0
N1729 N 0.36389 0.14527 0.01259 0.0
H1730 H 0.87727 0.31684 0.93305 0.0
H1731 H 0.81772 0.36751 0.04998 0.0
H1732 H 0.82104 0.36842 0.93336 0.0
H1733 H 0.87122 0.31311 0.04948 0.0
H1734 H 0.82279 0.37224 0.00754 0.0
H1735 H 0.87951 0.31973 0.9759 0.0
C1736 C 0.86553 0.32894 0.94208 0.0
C1737 C 0.84863 0.34209 0.92959 0.0
C1738 C 0.83353 0.35938 0.01675 0.0
C1739 C 0.85108 0.34537 0.97866 0.0
C1740 C 0.83062 0.35662 0.041 0.0
C1741 C 0.8438 0.3396 0.05328 0.0
C1742 C 0.84967 0.34498 0.00468 0.0
C1743 C 0.86046 0.32624 0.04071 0.0
C1744 C 0.86683 0.33057 0.96656 0.0
C1745 C 0.83413 0.35771 0.94224 0.0
N1746 N 0.86277 0.32908 0.01705 0.0
N1747 N 0.83551 0.35871 0.96613 0.0
H1748 H 0.60421 0.8107 0.92151 0.0
H1749 H 0.59121 0.8224 0.04198 0.0
H1750 H 0.65699 0.86563 0.92631 0.0
H1751 H 0.6582 0.85877 0.03913 0.0
H1752 H 0.58836 0.82515 -0.00073 0.0
H1753 H 0.59807 0.81331 0.96363 0.0
C1754 C 0.6143 0.82361 0.9314 0.0
C1755 C 0.6313 0.83784 0.92031 0.0
C1756 C 0.60389 0.83224 0.00782 0.0
C1757 C 0.62379 0.84151 0.96892 0.0
C1758 C 0.60538 0.83088 0.03233 0.0
C1759 C 0.62521 0.83991 0.04411 0.0
C1760 C 0.6226 0.84229 -0.00503 0.0
C1761 C 0.64272 0.85129 0.03077 0.0
C1762 C 0.61054 0.82531 0.9556 0.0
C1763 C 0.64379 0.8542 0.93411 0.0
N1764 N 0.64113 0.8519 0.00688 0.0
N1765 N 0.63993 0.85543 0.95774 0.0
H1766 H 0.15231 0.60394 0.05069 0.0
H1767 H 0.10225 0.6612 0.93239 0.0
H1768 H 0.09918 0.65868 0.0489 0.0
H1769 H 0.15934 0.61062 0.93443 0.0
H1770 H 0.09652 0.65576 0.97464 0.0
H1771 H 0.15051 0.60143 0.00781 0.0
C1772 C 0.14011 0.61531 0.04133 0.0
C1773 C 0.12618 0.63188 0.05342 0.0
C1774 C 0.11018 0.64573 0.96581 0.0
C1775 C 0.12412 0.62908 0.0043 0.0
C1776 C 0.11351 0.64884 0.94167 0.0
C1777 C 0.1316 0.63665 0.92989 0.0
C1778 C 0.12508 0.63038 0.9783 0.0
C1779 C 0.14538 0.62062 0.94281 0.0
C1780 C 0.1391 0.61384 0.01682 0.0
C1781 C 0.11049 0.64588 0.04033 0.0
N1782 N 0.14198 0.61813 0.96639 0.0
N1783 N 0.11007 0.64434 0.01644 0.0
H1784 H 0.37569 0.82765 0.93241 0.0
H1785 H 0.31349 0.87604 0.04869 0.0
H1786 H 0.32093 0.8808 0.93253 0.0
H1787 H 0.36733 0.82196 0.04834 0.0
H1788 H 0.3201 0.8822 0.00663 0.0
H1789 H 0.37729 0.82991 0.97532 0.0
C1790 C 0.36417 0.83998 0.94141 0.0
C1791 C 0.34779 0.85368 0.92887 0.0
C1792 C 0.33058 0.86911 0.01581 0.0
C1793 C 0.34946 0.85623 0.97797 0.0
C1794 C 0.32676 0.86551 0.03982 0.0
C1795 C 0.33957 0.84815 0.05199 0.0
C1796 C 0.34725 0.85518 0.00389 0.0
C1797 C 0.35679 0.83531 0.03963 0.0
C1798 C 0.3651 0.84125 0.96593 0.0
C1799 C 0.33357 0.86959 0.94148 0.0
N1800 N 0.35996 0.83893 0.01619 0.0
N1801 N 0.33452 0.8702 0.96538 0.0
H1802 H 0.10182 0.32227 0.04452 0.0
H1803 H 0.15956 0.3796 0.92976 0.0
H1804 H 0.15656 0.37548 0.04626 0.0
H1805 H 0.1069 0.32432 0.92811 0.0
H1806 H 0.15449 0.38247 0.9724 0.0
H1807 H 0.09918 0.3271 0.00185 0.0
C1808 C 0.11316 0.3351 0.03599 0.0
C1809 C 0.12975 0.34817 0.04895 0.0
C1810 C 0.14392 0.36984 0.96266 0.0
C1811 C 0.12685 0.35371 0.00014 0.0
C1812 C 0.14683 0.36816 0.93831 0.0
C1813 C 0.13394 0.3514 0.92538 0.0
C1814 C 0.12807 0.35462 0.97414 0.0
C1815 C 0.11748 0.33727 0.93739 0.0
C1816 C 0.11162 0.33786 0.01161 0.0
C1817 C 0.14375 0.36476 0.03696 0.0
N1818 N 0.11519 0.33905 0.96114 0.0
N1819 N 0.14215 0.36687 0.01318 0.0
H1820 H 0.60213 0.14981 0.05038 0.0
H1821 H 0.6604 0.09763 0.93351 0.0
H1822 H 0.65892 0.09884 0.05019 0.0
H1823 H 0.60639 0.15154 0.93402 0.0
H1824 H 0.65589 0.09339 0.97608 0.0
H1825 H 0.59931 0.14612 0.00764 0.0
C1826 C 0.61392 0.13772 0.04139 0.0
C1827 C 0.63108 0.12493 0.05386 0.0
C1828 C 0.6449 0.10601 0.96683 0.0
C1829 C 0.62794 0.12068 0.00494 0.0
C1830 C 0.64747 0.10846 0.94251 0.0
C1831 C 0.63405 0.12528 0.93022 0.0
C1832 C 0.62885 0.1205 0.97892 0.0
C1833 C 0.61737 0.13859 0.9428 0.0
C1834 C 0.61226 0.13561 0.01698 0.0
C1835 C 0.64563 0.10929 0.04129 0.0
N1836 N 0.61541 0.13607 0.96652 0.0
N1837 N 0.64388 0.1078 0.01746 0.0
H1838 H 0.8735 0.65542 0.92264 0.0
H1839 H 0.81865 0.59626 0.03785 0.0
H1840 H 0.82087 0.6001 0.92151 0.0
H1841 H 0.86799 0.65453 0.0392 0.0
H1842 H 0.82405 0.59327 -0.00469 0.0
H1843 H 0.87629 0.65121 0.96537 0.0
C1844 C 0.86262 0.64229 0.93133 0.0
C1845 C 0.84661 0.62837 0.91851 0.0
C1846 C 0.83384 0.60658 0.00495 0.0
C1847 C 0.84977 0.6235 0.96737 0.0
C1848 C 0.83076 0.60833 0.02925 0.0
C1849 C 0.84254 0.62598 0.04206 0.0
C1850 C 0.84873 0.62265 -0.00663 0.0
C1851 C 0.85828 0.64086 0.03001 0.0
C1852 C 0.86427 0.63988 0.95573 0.0
C1853 C 0.83321 0.61145 0.93069 0.0
N1854 N 0.86071 0.63903 0.00626 0.0
N1855 N 0.83494 0.60965 0.95449 0.0
H1856 H 0.04533 0.37318 0.1575 0.0
H1857 H 0.92783 0.31695 0.10437 0.0
H1858 H 0.04437 0.31933 0.10339 0.0
H1859 H 0.92877 0.36824 0.16091 0.0
H1860 H 0.97027 0.32192 0.0998 0.0
H1861 H 0.0025 0.37592 0.15485 0.0
C1862 C 0.03617 0.36205 0.14492 0.0
C1863 C 0.04846 0.34568 0.13094 0.0
C1864 C 0.96116 0.33222 0.11309 0.0
C1865 C -0.00058 0.34873 0.12789 0.0
C1866 C 0.93691 0.32937 0.11575 0.0
C1867 C 0.92475 0.34191 0.13334 0.0
C1868 C 0.97338 0.34763 0.12816 0.0
C1869 C 0.93743 0.35798 0.14731 0.0
C1870 C 0.01169 0.36365 0.14342 0.0
C1871 C 0.03563 0.33197 0.11475 0.0
N1872 N 0.96112 0.36021 0.14457 0.0
N1873 N 0.01177 0.33364 0.11386 0.0
H1874 H 0.04778 0.66236 0.87407 0.0
H1875 H 0.93622 0.60095 0.8141 0.0
H1876 H 0.05246 0.60931 0.81938 0.0
H1877 H 0.93152 0.65399 0.8688 0.0
H1878 H 0.97891 0.59992 0.81954 0.0
H1879 H 0.00526 0.65582 0.87599 0.0
C1880 C 0.03992 0.64924 0.86257 0.0
C1881 C 0.05368 0.63665 0.84626 0.0
C1882 C 0.96849 0.61162 0.8305 0.0
C1883 C 0.00505 0.62911 0.84836 0.0
C1884 C 0.9441 0.61222 0.8274 0.0
C1885 C 0.93028 0.62789 0.8407 0.0
C1886 C 0.97912 0.62687 0.84693 0.0
C1887 C 0.94148 0.64189 0.85786 0.0
C1888 C 0.01564 0.64549 0.8637 0.0
C1889 C 0.04254 0.61968 0.832 0.0
N1890 N 0.96527 0.64122 0.8603 0.0
N1891 N 0.01885 0.61657 0.83323 0.0
H1892 H 0.37686 0.93686 0.82033 0.0
H1893 H 0.32263 0.05521 0.87323 0.0
H1894 H 0.32298 0.93878 0.87436 0.0
H1895 H 0.37381 0.05328 0.81663 0.0
H1896 H 0.32714 0.01275 0.87815 0.0
H1897 H 0.38064 0.97961 0.82323 0.0
C1898 C 0.36595 0.94622 0.83294 0.0
C1899 C 0.34923 0.93426 0.84679 0.0
C1900 C 0.33751 0.02165 0.86477 0.0
C1901 C 0.35346 0.98316 0.85012 0.0
C1902 C 0.33491 0.0459 0.8619 0.0
C1903 C 0.34754 0.05777 0.84418 0.0
C1904 C 0.35277 0.00917 0.84977 0.0
C1905 C 0.36346 0.04483 0.8303 0.0
C1906 C 0.36814 0.97064 0.83459 0.0
C1907 C 0.33585 0.94729 0.86307 0.0
N1908 N 0.36544 0.02116 0.83323 0.0
N1909 N 0.33807 0.9711 0.86409 0.0
H1910 H 0.05142 0.32373 0.87426 0.0
H1911 H 0.93018 0.37225 0.82232 0.0
H1912 H 0.04656 0.37651 0.81933 0.0
H1913 H 0.93502 0.31547 0.87312 0.0
H1914 H 0.97256 0.37831 0.82564 0.0
H1915 H 0.00869 0.32495 0.87865 0.0
C1916 C 0.04141 0.33572 0.86322 0.0
C1917 C 0.05258 0.34974 0.84608 0.0
C1918 C 0.96433 0.36464 0.83618 0.0
C1919 C 0.00365 0.35116 0.85105 0.0
C1920 C 0.94011 0.3611 0.83427 0.0
C1921 C 0.92907 0.34302 0.84716 0.0
C1922 C 0.97764 0.34994 0.851 0.0
C1923 C 0.94282 0.32943 0.86263 0.0
C1924 C 0.017 0.3364 0.86577 0.0
C1925 C 0.0387 0.36516 0.83256 0.0
N1926 N 0.96647 0.33302 0.86394 0.0
N1927 N 0.0149 0.36527 0.83517 0.0
H1928 H 0.65936 0.92421 0.8708 0.0
H1929 H 0.60415 0.04378 0.8213 0.0
H1930 H 0.60691 0.92721 0.81545 0.0
H1931 H 0.65951 0.04088 0.87376 0.0
H1932 H 0.60068 0.00094 0.82325 0.0
H1933 H 0.65542 0.96669 0.87624 0.0
C1934 C 0.6469 0.93374 0.85987 0.0
C1935 C 0.63373 0.92215 0.84236 0.0
C1936 C 0.61344 0.00971 0.83447 0.0
C1937 C 0.62916 0.97082 0.84853 0.0
C1938 C 0.61545 0.03419 0.83338 0.0
C1939 C 0.63245 0.04594 0.84709 0.0
C1940 C 0.62857 -0.00312 0.84931 0.0
C1941 C 0.64637 0.03257 0.86263 0.0
C1942 C 0.64464 0.95802 0.86303 0.0
C1943 C 0.61765 0.93542 0.82897 0.0
N1944 N 0.64429 0.00871 0.86313 0.0
N1945 N 0.61599 0.9591 0.83218 0.0
H1946 H 0.92337 0.65248 0.09814 0.0
H1947 H 0.03982 0.60298 0.15968 0.0
H1948 H 0.92307 0.60196 0.15536 0.0
H1949 H 0.03971 0.65712 0.10587 0.0
H1950 H -0.0026 0.59831 0.15446 0.0
H1951 H 0.96626 0.65013 0.09686 0.0
C1952 C 0.93228 0.64076 0.11034 0.0
C1953 C 0.91959 0.62768 0.12716 0.0
C1954 C 0.0067 0.6111 0.14369 0.0
C1955 C 0.96873 0.62499 0.12577 0.0
C1956 C 0.03094 0.61381 0.14666 0.0
C1957 C 0.04333 0.63074 0.13344 0.0
C1958 C -0.00526 0.62543 0.12741 0.0
C1959 C 0.03087 0.64405 0.11666 0.0
C1960 C 0.9568 0.63943 0.10958 0.0
C1961 C 0.93212 0.61257 0.14228 0.0
N1962 N 0.00721 0.64124 0.11427 0.0
N1963 N 0.95604 0.61182 0.14138 0.0
H1964 H 0.31348 0.93053 0.10379 0.0
H1965 H 0.37043 0.04788 0.15671 0.0
H1966 H 0.36595 0.93125 0.15922 0.0
H1967 H 0.3159 0.04727 0.10332 0.0
H1968 H 0.37298 0.00503 0.15388 0.0
H1969 H 0.31808 0.97309 0.09956 0.0
C1970 C 0.32607 0.93958 0.11499 0.0
C1971 C 0.33908 0.92732 0.13216 0.0
C1972 C 0.3606 0.0143 0.14265 0.0
C1973 C 0.34438 0.97607 0.12738 0.0
C1974 C 0.3591 0.03878 0.14425 0.0
C1975 C 0.34263 0.05119 0.13051 0.0
C1976 C 0.34546 0.00212 0.12727 0.0
C1977 C 0.32865 0.03845 0.11448 0.0
C1978 C 0.32871 0.9639 0.11253 0.0
C1979 C 0.35534 0.93999 0.14594 0.0
N1980 N 0.33022 0.01457 0.11348 0.0
N1981 N 0.35736 0.96372 0.14339 0.0
H1982 H 0.59718 0.9224 0.15338 0.0
H1983 H 0.65403 0.04139 0.1044 0.0
H1984 H 0.65316 0.92478 0.10155 0.0
H1985 H 0.60198 0.03879 0.16017 0.0
H1986 H 0.64948 -0.00098 0.0988 0.0
H1987 H 0.59429 0.96525 0.15155 0.0
C1988 C 0.60877 0.93189 0.14148 0.0
C1989 C 0.62575 0.91998 0.1279 0.0
C1990 C 0.63894 0.00775 0.11214 0.0
C1991 C 0.6225 0.96906 0.12579 0.0
C1992 C 0.64154 0.03196 0.11541 0.0
C1993 C 0.62865 0.04362 0.13308 0.0
C1994 C 0.6234 -0.00492 0.12669 0.0
C1995 C 0.6125 0.0305 0.14654 0.0
C1996 C 0.60707 0.95637 0.14044 0.0
C1997 C 0.64001 0.93322 0.11256 0.0
N1998 N 0.6105 0.00686 0.14321 0.0
N1999 N 0.63823 0.9571 0.11211 0.0
H2000 H 0.16069 0.55416 0.87609 0.0
H2001 H 0.10428 0.43815 0.81983 0.0
H2002 H 0.10899 0.55472 0.81993 0.0
H2003 H 0.15829 0.4376 0.87375 0.0
H2004 H 0.10142 0.4809 0.82386 0.0
H2005 H 0.15581 0.51154 0.87946 0.0
C2006 C 0.14822 0.54537 0.86454 0.0
C2007 C 0.13552 0.558 0.84743 0.0
C2008 C 0.11374 0.47138 0.83495 0.0
C2009 C 0.12987 0.50923 0.85123 0.0
C2010 C 0.11539 0.44696 0.83267 0.0
C2011 C 0.13187 0.4343 0.84616 0.0
C2012 C 0.12873 0.48321 0.85077 0.0
C2013 C 0.14558 0.44665 0.86272 0.0
C2014 C 0.14541 0.52103 0.86652 0.0
C2015 C 0.11939 0.54569 0.83318 0.0
N2016 N 0.14388 0.47047 0.86436 0.0
N2017 N 0.1172 0.52193 0.83525 0.0
H2018 H 0.82264 0.54419 0.86854 0.0
H2019 H 0.8772 0.42376 0.82068 0.0
H2020 H 0.87584 0.54021 0.81397 0.0
H2021 H 0.82033 0.42754 0.87143 0.0
H2022 H 0.88117 0.46652 0.82255 0.0
H2023 H 0.82588 0.50171 0.87423 0.0
C2024 C 0.83512 0.53444 0.85783 0.0
C2025 C 0.8487 0.54575 0.84044 0.0
C2026 C 0.86794 0.45797 0.83341 0.0
C2027 C 0.85246 0.49709 0.84692 0.0
C2028 C 0.86562 0.43354 0.83234 0.0
C2029 C 0.8481 0.42206 0.84561 0.0
C2030 C 0.85259 0.47104 0.84778 0.0
C2031 C 0.83389 0.43565 0.86067 0.0
C2032 C 0.83697 0.51016 0.86114 0.0
C2033 C 0.86481 0.53221 0.82737 0.0
N2034 N 0.83629 0.45949 0.86116 0.0
N2035 N 0.86606 0.50853 0.83072 0.0
H2036 H 0.15458 0.43135 0.10347 0.0
H2037 H 0.09764 0.5461 0.16146 0.0
H2038 H 0.10224 0.42956 0.15901 0.0
H2039 H 0.15055 0.54778 0.10646 0.0
H2040 H 0.0951 0.50335 0.15701 0.0
H2041 H 0.14939 0.47397 0.10062 0.0
C2042 C 0.14189 0.43987 0.11497 0.0
C2043 C 0.12912 0.42691 0.13179 0.0
C2044 C 0.10712 0.51312 0.14579 0.0
C2045 C 0.12314 0.47565 0.12862 0.0
C2046 C 0.10859 0.53753 0.14832 0.0
C2047 C 0.12465 0.5505 0.13461 0.0
C2048 C 0.12185 0.50164 0.1295 0.0
C2049 C 0.13817 0.53848 0.11768 0.0
C2050 C 0.13891 0.46421 0.1133 0.0
C2051 C 0.11271 0.43887 0.146 0.0
N2052 N 0.13664 0.51468 0.11578 0.0
N2053 N 0.11037 0.46262 0.14425 0.0
H2054 H 0.86991 0.42607 0.1579 0.0
H2055 H 0.81335 0.53945 0.09665 0.0
H2056 H 0.8149 0.42301 0.10508 0.0
H2057 H 0.86714 0.54249 0.1507 0.0
H2058 H 0.81761 0.49661 0.09552 0.0
H2059 H 0.87287 0.46856 0.15165 0.0
C2060 C 0.85854 0.43427 0.1449 0.0
C2061 C 0.84186 0.42098 0.13228 0.0
C2062 C 0.82862 0.5067 0.10747 0.0
C2063 C 0.84518 0.4696 0.12505 0.0
C2064 C 0.82621 0.53117 0.10812 0.0
C2065 C 0.8396 0.54457 0.1241 0.0
C2066 C 0.84448 0.49557 0.12294 0.0
C2067 C 0.85617 0.53287 0.13835 0.0
C2068 C 0.86027 0.45854 0.14131 0.0
C2069 C 0.8278 0.43256 0.11545 0.0
N2070 N 0.85796 0.50901 0.1376 0.0
N2071 N 0.82964 0.45625 0.1125 0.0
H2072 H 0.37488 0.66397 0.54779 0.0
H2073 H 0.31667 0.60486 0.43404 0.0
H2074 H 0.31954 0.61145 0.55057 0.0
H2075 H 0.37058 0.65886 0.43125 0.0
H2076 H 0.32136 0.6031 0.47679 0.0
H2077 H 0.37724 0.65851 0.50517 0.0
C2078 C 0.36331 0.65119 0.53949 0.0
C2079 C 0.34672 0.63842 0.55276 0.0
C2080 C 0.3323 0.61518 0.46678 0.0
C2081 C 0.34935 0.6321 0.50397 0.0
C2082 C 0.32964 0.6162 0.44235 0.0
C2083 C 0.34296 0.63233 0.42905 0.0
C2084 C 0.34833 0.63044 0.47798 0.0
C2085 C 0.35968 0.64638 0.4408 0.0
C2086 C 0.3647 0.64806 0.51514 0.0
C2087 C 0.33239 0.62191 0.54104 0.0
N2088 N 0.36171 0.64528 0.46462 0.0
N2089 N 0.3339 0.61939 0.51728 0.0
H2090 H 0.87034 0.81468 0.42229 0.0
H2091 H 0.81921 0.87009 0.54111 0.0
H2092 H 0.81307 0.86504 0.42448 0.0
H2093 H 0.87499 0.81809 0.5388 0.0
H2094 H 0.82042 0.87259 0.49817 0.0
H2095 H 0.87567 0.8196 0.46466 0.0
C2096 C 0.85892 0.82684 0.43163 0.0
C2097 C 0.84099 0.8392 0.41982 0.0
C2098 C 0.83254 0.8608 0.50708 0.0
C2099 C 0.84706 0.84492 0.46839 0.0
C2100 C 0.83189 0.85937 0.53163 0.0
C2101 C 0.84675 0.84354 0.54359 0.0
C2102 C 0.8481 0.84626 0.49442 0.0
C2103 C 0.86297 0.8303 0.53034 0.0
C2104 C 0.86204 0.82968 0.45585 0.0
C2105 C 0.82696 0.85495 0.43286 0.0
N2106 N 0.86303 0.83178 0.50644 0.0
N2107 N 0.83017 0.85719 0.45649 0.0
H2108 H 0.65777 0.36864 0.55036 0.0
H2109 H 0.60058 0.31373 0.43409 0.0
H2110 H 0.60421 0.31422 0.55076 0.0
H2111 H 0.65544 0.36683 0.43372 0.0
H2112 H 0.59776 0.31765 0.47685 0.0
H2113 H 0.6533 0.37204 0.50771 0.0
C2114 C 0.64496 0.3575 0.54153 0.0
C2115 C 0.63162 0.34084 0.55414 0.0
C2116 C 0.61027 0.32859 0.46737 0.0
C2117 C 0.62645 0.34466 0.50531 0.0
C2118 C 0.61191 0.32635 0.44294 0.0
C2119 C 0.62857 0.33968 0.43031 0.0
C2120 C 0.62546 0.34417 0.47926 0.0
C2121 C 0.64255 0.35596 0.44273 0.0
C2122 C 0.6424 0.35949 0.51716 0.0
C2123 C 0.6151 0.3271 0.54176 0.0
N2124 N 0.64085 0.35756 0.46656 0.0
N2125 N 0.61315 0.32917 0.51798 0.0
H2126 H 0.15571 0.1084 0.5461 0.0
H2127 H 0.10186 0.16074 0.42715 0.0
H2128 H 0.10515 0.1655 0.54386 0.0
H2129 H 0.15561 0.10664 0.4295 0.0
H2130 H 0.09862 0.15875 0.46998 0.0
H2131 H 0.15159 0.10365 0.50359 0.0
C2132 C 0.14363 0.11987 0.53672 0.0
C2133 C 0.13104 0.13765 0.54855 0.0
C2134 C 0.11099 0.14719 0.4611 0.0
C2135 C 0.1263 0.13228 0.49982 0.0
C2136 C 0.11287 0.14831 0.43662 0.0
C2137 C 0.12932 0.1341 0.42471 0.0
C2138 C 0.12568 0.1318 0.47377 0.0
C2139 C 0.1429 0.11815 0.43794 0.0
C2140 C 0.14127 0.11711 0.51242 0.0
C2141 C 0.11541 0.15173 0.53546 0.0
N2142 N 0.14092 0.11759 0.4618 0.0
N2143 N 0.11365 0.14889 0.51174 0.0
H2144 H 0.31922 0.38083 0.54535 0.0
H2145 H 0.37111 0.3207 0.42929 0.0
H2146 H 0.37195 0.32567 0.54572 0.0
H2147 H 0.31587 0.37335 0.42899 0.0
H2148 H 0.37566 0.3264 0.47166 0.0
H2149 H 0.32204 0.38257 0.50247 0.0
C2150 C 0.33154 0.36922 0.53646 0.0
C2151 C 0.34505 0.35276 0.54913 0.0
C2152 C 0.36265 0.33681 0.46229 0.0
C2153 C 0.34828 0.35464 0.50008 0.0
C2154 C 0.35999 0.33353 0.43809 0.0
C2155 C 0.3428 0.34628 0.42562 0.0
C2156 C 0.34797 0.35289 0.47411 0.0
C2157 C 0.32914 0.3629 0.43793 0.0
C2158 C 0.33314 0.37024 0.51196 0.0
C2159 C 0.36093 0.3384 0.53667 0.0
N2160 N 0.33189 0.36557 0.46155 0.0
N2161 N 0.36192 0.3395 0.51279 0.0
H2162 H 0.10045 0.82092 0.4345 0.0
H2163 H 0.1594 0.87922 0.54812 0.0
H2164 H 0.15437 0.87492 0.43169 0.0
H2165 H 0.10651 0.8242 0.55078 0.0
H2166 H 0.15384 0.88178 0.50552 0.0
H2167 H 0.09842 0.82589 0.47718 0.0
C2168 C 0.11174 0.83395 0.44281 0.0
C2169 C 0.12792 0.84721 0.42954 0.0
C2170 C 0.14333 0.86928 0.51547 0.0
C2171 C 0.12572 0.85293 0.47835 0.0
C2172 C 0.14652 0.86778 0.5398 0.0
C2173 C 0.13371 0.85118 0.553 0.0
C2174 C 0.12729 0.85402 0.5043 0.0
C2175 C 0.11705 0.83702 0.54129 0.0
C2176 C 0.11055 0.83679 0.46719 0.0
C2177 C 0.14188 0.86404 0.44124 0.0
N2178 N 0.11449 0.83862 0.51756 0.0
N2179 N 0.14063 0.86624 0.46503 0.0
H2180 H 0.65759 0.59823 0.42076 0.0
H2181 H 0.60369 0.64981 0.53997 0.0
H2182 H 0.60277 0.65124 0.42352 0.0
H2183 H 0.66157 0.60015 0.53748 0.0
H2184 H 0.59909 0.6459 0.49743 0.0
H2185 H 0.65529 0.59429 0.46353 0.0
C2186 C 0.64497 0.60896 0.43031 0.0
C2187 C 0.63062 0.6254 0.41855 0.0
C2188 C 0.61267 0.63571 0.50622 0.0
C2189 C 0.62793 0.62092 0.4675 0.0
C2190 C 0.61535 0.63795 0.53052 0.0
C2191 C 0.63334 0.62562 0.54227 0.0
C2192 C 0.62816 0.62113 0.49354 0.0
C2193 C 0.64764 0.61023 0.52913 0.0
C2194 C 0.64365 0.60665 0.45474 0.0
C2195 C 0.61441 0.63858 0.43185 0.0
N2196 N 0.6449 0.60862 0.5054 0.0
N2197 N 0.61366 0.63619 0.45566 0.0
H2198 H 0.87293 0.15368 0.54958 0.0
H2199 H 0.81942 0.09638 0.43287 0.0
H2200 H 0.81854 0.10008 0.54932 0.0
H2201 H 0.87097 0.15272 0.43308 0.0
H2202 H 0.82346 0.09316 0.47555 0.0
H2203 H 0.87683 0.14926 0.507 0.0
C2204 C 0.86188 0.14089 0.54062 0.0
C2205 C 0.84507 0.12754 0.553 0.0
C2206 C 0.83403 0.10609 0.46622 0.0
C2207 C 0.84949 0.12241 0.50427 0.0
C2208 C 0.83172 0.10797 0.44184 0.0
C2209 C 0.84454 0.12517 0.42942 0.0
C2210 C 0.84918 0.12158 0.47826 0.0
C2211 C 0.86047 0.13943 0.44196 0.0
C2212 C 0.86417 0.13834 0.51629 0.0
C2213 C 0.8315 0.111 0.54047 0.0
N2214 N 0.86214 0.13749 0.46575 0.0
N2215 N 0.83386 0.10907 0.51673 0.0
H2216 H 0.36914 0.54878 0.32044 0.0
H2217 H 0.31904 0.42916 0.37487 0.0
H2218 H 0.3149 0.54568 0.37406 0.0
H2219 H 0.36975 0.4321 0.31791 0.0
H2220 H 0.32192 0.47183 0.37905 0.0
H2221 H 0.37403 0.50619 0.32358 0.0
C2222 C 0.35833 0.53919 0.33299 0.0
C2223 C 0.34127 0.5508 0.34672 0.0
C2224 C 0.33256 0.46312 0.36576 0.0
C2225 C 0.34684 0.50201 0.35036 0.0
C2226 C 0.33091 0.43873 0.36332 0.0
C2227 C 0.34386 0.42705 0.3457 0.0
C2228 C 0.34718 0.47595 0.35043 0.0
C2229 C 0.35922 0.44038 0.33154 0.0
C2230 C 0.36119 0.51486 0.33478 0.0
C2231 C 0.32807 0.53746 0.36291 0.0
N2232 N 0.36026 0.46418 0.33405 0.0
N2233 N 0.33097 0.51372 0.3641 0.0
H2234 H 0.65486 0.54231 0.36765 0.0
H2235 H 0.5995 0.42119 0.32258 0.0
H2236 H 0.59904 0.53753 0.31582 0.0
H2237 H 0.65758 0.42567 0.37189 0.0
H2238 H 0.59526 0.4639 0.32436 0.0
H2239 H 0.65222 0.49984 0.37375 0.0
C2240 C 0.64194 0.53238 0.35763 0.0
C2241 C 0.62741 0.54346 0.34088 0.0
C2242 C 0.60881 0.45553 0.33494 0.0
C2243 C 0.62435 0.49482 0.34782 0.0
C2244 C 0.6113 0.43113 0.3339 0.0
C2245 C 0.62922 0.41986 0.34679 0.0
C2246 C 0.62443 0.4688 0.34885 0.0
C2247 C 0.64369 0.43363 0.36145 0.0
C2248 C 0.64043 0.50811 0.36117 0.0
C2249 C 0.61078 0.52971 0.3287 0.0
N2250 N 0.64114 0.45744 0.36188 0.0
N2251 N 0.60987 0.50604 0.33226 0.0
H2252 H 0.32274 0.55614 0.60485 0.0
H2253 H 0.37765 0.43691 0.65504 0.0
H2254 H 0.37572 0.55337 0.65973 0.0
H2255 H 0.321 0.43966 0.60397 0.0
H2256 H 0.38182 0.4796 0.65208 0.0
H2257 H 0.3265 0.51364 0.59966 0.0
C2258 C 0.33527 0.54664 0.61575 0.0
C2259 C 0.34864 0.55829 0.63307 0.0
C2260 C 0.36862 0.47083 0.64137 0.0
C2261 C 0.35299 0.50963 0.62716 0.0
C2262 C 0.3662 0.44644 0.64305 0.0
C2263 C 0.34862 0.43472 0.63008 0.0
C2264 C 0.35331 0.48359 0.62669 0.0
C2265 C 0.33457 0.44798 0.61457 0.0
C2266 C 0.33743 0.52236 0.61272 0.0
C2267 C 0.36483 0.54509 0.64638 0.0
N2268 N 0.33704 0.47177 0.61351 0.0
N2269 N 0.36637 0.52139 0.6433 0.0
H2270 H 0.65801 0.42411 0.60408 0.0
H2271 H 0.60556 0.54512 0.65296 0.0
H2272 H 0.60753 0.42859 0.66115 0.0
H2273 H 0.65977 0.54063 0.59943 0.0
H2274 H 0.60167 0.50231 0.652 0.0
H2275 H 0.65452 0.46652 0.5982 0.0
C2276 C 0.6461 0.43397 0.61533 0.0
C2277 C 0.63332 0.4228 0.63341 0.0
C2278 C 0.61427 0.51071 0.64033 0.0
C2279 C 0.62927 0.47142 0.6267 0.0
C2280 C 0.61653 0.53518 0.64085 0.0
C2281 C 0.63333 0.54649 0.62653 0.0
C2282 C 0.62895 0.49745 0.62544 0.0
C2283 C 0.6468 0.53268 0.611 0.0
C2284 C 0.64409 0.45821 0.61191 0.0
C2285 C 0.61792 0.43648 0.64717 0.0
N2286 N 0.64448 0.50884 0.61104 0.0
N2287 N 0.61649 0.46014 0.64367 0.0
H2288 H 0.43161 0.10792 0.8185 0.0
H2289 H 0.5501 0.15601 0.87726 0.0
H2290 H 0.43377 0.16333 0.87098 0.0
H2291 H 0.54812 0.10351 0.82187 0.0
H2292 H 0.50717 0.15469 0.87937 0.0
H2293 H 0.47389 0.10211 0.82359 0.0
C2294 C 0.44092 0.1188 0.83118 0.0
C2295 C 0.42915 0.13641 0.84407 0.0
C2296 C 0.51615 0.14331 0.8669 0.0
C2297 C 0.47759 0.12979 0.84995 0.0
C2298 C 0.54069 0.14404 0.86568 0.0
C2299 C 0.55274 0.13015 0.84906 0.0
C2300 C 0.50358 0.12865 0.85137 0.0
C2301 C 0.53958 0.11478 0.83473 0.0
C2302 C 0.46508 0.11543 0.8341 0.0
C2303 C 0.44213 0.14974 0.86045 0.0
N2304 N 0.51568 0.11463 0.83605 0.0
N2305 N 0.46571 0.14629 0.86277 0.0
H2306 H 0.5489 0.81648 0.86767 0.0
H2307 H 0.43236 0.87857 0.81919 0.0
H2308 H 0.5486 0.86977 0.81301 0.0
H2309 H 0.43252 0.82378 0.87233 0.0
H2310 H 0.47533 0.87937 0.82053 0.0
H2311 H 0.50669 0.82251 0.87314 0.0
C2312 C 0.54001 0.82952 0.85687 0.0
C2313 C 0.55228 0.8424 0.8396 0.0
C2314 C 0.46595 0.86732 0.83204 0.0
C2315 C 0.50394 0.84938 0.84584 0.0
C2316 C 0.44139 0.86685 0.8313 0.0
C2317 C 0.42879 0.85079 0.84538 0.0
C2318 C 0.478 0.85157 0.84689 0.0
C2319 C 0.44147 0.83624 0.86093 0.0
C2320 C 0.5159 0.83299 0.86006 0.0
C2321 C 0.53984 0.85925 0.82635 0.0
N2322 N 0.4654 0.83681 0.86108 0.0
N2323 N 0.5163 0.8621 0.82962 0.0
H2324 H 0.42928 0.1567 0.10303 0.0
H2325 H 0.5436 0.09776 0.15987 0.0
H2326 H 0.42716 0.1038 0.15803 0.0
H2327 H 0.54572 0.15201 0.1062 0.0
H2328 H 0.50086 0.09569 0.15541 0.0
H2329 H 0.47183 0.15121 0.10006 0.0
C2330 C 0.43771 0.14382 0.11439 0.0
C2331 C 0.42466 0.13098 0.13109 0.0
C2332 C 0.51072 0.1079 0.14447 0.0
C2333 C 0.47336 0.12465 0.12777 0.0
C2334 C 0.53514 0.10911 0.14701 0.0
C2335 C 0.54824 0.12539 0.13369 0.0
C2336 C 0.49935 0.12314 0.12857 0.0
C2337 C 0.53632 0.13943 0.1171 0.0
C2338 C 0.46202 0.14068 0.11264 0.0
C2339 C 0.43652 0.11433 0.14511 0.0
N2340 N 0.5125 0.13815 0.1152 0.0
N2341 N 0.46025 0.11182 0.14329 0.0
H2342 H 0.53851 0.81492 0.09868 0.0
H2343 H 0.42468 0.8723 0.15822 0.0
H2344 H 0.54124 0.86776 0.15372 0.0
H2345 H 0.42212 0.81863 0.10399 0.0
H2346 H 0.46736 0.87471 0.15311 0.0
H2347 H 0.49584 0.81996 0.09664 0.0
C2348 C 0.5302 0.82772 0.11021 0.0
C2349 C 0.54345 0.84064 0.12668 0.0
C2350 C 0.45741 0.86255 0.1422 0.0
C2351 C 0.49462 0.84643 0.12447 0.0
C2352 C 0.43304 0.86114 0.14512 0.0
C2353 C 0.41983 0.84496 0.13179 0.0
C2354 C 0.46863 0.84761 0.1259 0.0
C2355 C 0.4316 0.83114 0.11491 0.0
C2356 C 0.50581 0.83059 0.10903 0.0
C2357 C 0.53172 0.85716 0.14097 0.0
N2358 N 0.45537 0.83263 0.11261 0.0
N2359 N 0.50793 0.8594 0.1397 0.0
H2360 H 0.42969 0.32396 0.60252 0.0
H2361 H 0.54851 0.37344 0.65932 0.0
H2362 H 0.43209 0.37785 0.65655 0.0
H2363 H 0.54603 0.31665 0.60836 0.0
H2364 H 0.50625 0.37928 0.65417 0.0
H2365 H 0.4726 0.32529 0.59999 0.0
C2366 C 0.43919 0.33623 0.61372 0.0
C2367 C 0.42727 0.35052 0.63009 0.0
C2368 C 0.51499 0.36565 0.64399 0.0
C2369 C 0.47639 0.35202 0.6273 0.0
C2370 C 0.53913 0.36226 0.64695 0.0
C2371 C 0.55079 0.34425 0.63454 0.0
C2372 C 0.50238 0.35089 0.62858 0.0
C2373 C 0.53774 0.33055 0.61852 0.0
C2374 C 0.46371 0.33696 0.61225 0.0
C2375 C 0.44053 0.36627 0.6439 0.0
N2376 N 0.51417 0.33402 0.61617 0.0
N2377 N 0.46441 0.36641 0.64237 0.0
H2378 H 0.42199 0.60161 0.31958 0.0
H2379 H 0.5434 0.6503 0.37115 0.0
H2380 H 0.42699 0.65794 0.37087 0.0
H2381 H 0.53836 0.59803 0.31574 0.0
H2382 H 0.50073 0.64859 0.37602 0.0
H2383 H 0.46441 0.59567 0.32261 0.0
C2384 C 0.43197 0.61269 0.33157 0.0
C2385 C 0.42094 0.6306 0.3447 0.0
C2386 C 0.50899 0.63734 0.36295 0.0
C2387 C 0.46956 0.62381 0.34823 0.0
C2388 C 0.53338 0.63829 0.36014 0.0
C2389 C 0.54446 0.62461 0.34268 0.0
C2390 C 0.49559 0.62267 0.34815 0.0
C2391 C 0.53057 0.60914 0.3292 0.0
C2392 C 0.45621 0.60922 0.33332 0.0
C2393 C 0.43476 0.64412 0.3602 0.0
N2394 N 0.50679 0.60879 0.33204 0.0
N2395 N 0.45842 0.64059 0.36136 0.0
H2396 H 0.54693 0.36974 0.32395 0.0
H2397 H 0.42645 0.31889 0.37564 0.0
H2398 H 0.54287 0.31225 0.37401 0.0
H2399 H 0.43048 0.37125 0.32023 0.0
H2400 H 0.46912 0.32109 0.3802 0.0
H2401 H 0.50447 0.37515 0.32739 0.0
C2402 C 0.53716 0.35832 0.33578 0.0
C2403 C 0.54845 0.34021 0.3484 0.0
C2404 C 0.46064 0.33223 0.36718 0.0
C2405 C 0.49979 0.34638 0.35237 0.0
C2406 C 0.43626 0.331 0.36453 0.0
C2407 C 0.42489 0.34459 0.3472 0.0
C2408 C 0.47376 0.34712 0.35237 0.0
C2409 C 0.43851 0.3602 0.3336 0.0
C2410 C 0.51289 0.36147 0.33775 0.0
C2411 C 0.53488 0.32623 0.36372 0.0
N2412 N 0.46229 0.36085 0.33631 0.0
N2413 N 0.51119 0.32946 0.36509 0.0
H2414 H 0.43364 0.66354 0.60269 0.0
H2415 H 0.55059 0.60219 0.65105 0.0
H2416 H 0.43445 0.6099 0.657 0.0
H2417 H 0.55018 0.65776 0.59872 0.0
H2418 H 0.50766 0.6008 0.64925 0.0
H2419 H 0.47589 0.65777 0.59701 0.0
C2420 C 0.44264 0.65045 0.61334 0.0
C2421 C 0.43052 0.63746 0.63063 0.0
C2422 C 0.51698 0.61316 0.63802 0.0
C2423 C 0.47888 0.63079 0.62418 0.0
C2424 C 0.54152 0.61398 0.63904 0.0
C2425 C 0.55401 0.63042 0.62532 0.0
C2426 C 0.50485 0.62894 0.62327 0.0
C2427 C 0.54129 0.64501 0.60985 0.0
C2428 C 0.46677 0.64714 0.61004 0.0
C2429 C 0.44309 0.62055 0.64367 0.0
N2430 N 0.51737 0.6441 0.60944 0.0
N2431 N 0.46664 0.61786 0.64032 0.0
loop_
_geom_bond_atom_site_label_1
_geom_bond_atom_site_label_2
_geom_bond_distance
_geom_bond_site_symmetry_2
_ccdc_geom_bond_type
Sc0 O3 2.025 . S
Sc0 O10 2.105 . S
Sc0 O13 2.105 . S
Sc0 O16 2.105 . S
Sc0 O19 2.105 . S
Sc1 O3 2.025 . S
Sc1 O11 2.105 . S
Sc1 O15 2.105 . S
Sc1 O17 2.105 . S
Sc1 O21 2.105 . S
Sc2 O3 2.025 . S
Sc2 O12 2.105 . S
Sc2 O14 2.105 . S
Sc2 O18 2.105 . S
Sc2 O20 2.105 . S
O3 Sc0 2.025 . S
O3 Sc1 2.025 . S
O3 Sc2 2.025 . S
C4 O10 1.268 . S
C4 O20 1.268 . S
C5 O11 1.268 . S
C5 O19 1.268 . S
C6 O12 1.268 . S
C6 O21 1.268 . S
C7 O13 1.268 . S
C7 O17 1.268 . S
C8 O14 1.268 . S
C8 O16 1.268 . S
C9 O15 1.268 . S
C9 O18 1.268 . S
O10 Sc0 2.105 . S
O10 C4 1.268 . S
O11 Sc1 2.105 . S
O11 C5 1.268 . S
O12 Sc2 2.105 . S
O12 C6 1.268 . S
O13 Sc0 2.105 . S
O13 C7 1.268 . S
O14 Sc2 2.105 . S
O14 C8 1.268 . S
O15 Sc1 2.105 . S
O15 C9 1.268 . S
O16 Sc0 2.105 . S
O16 C8 1.268 . S
O17 Sc1 2.105 . S
O17 C7 1.268 . S
O18 Sc2 2.105 . S
O18 C9 1.268 . S
O19 Sc0 2.105 . S
O19 C5 1.268 . S
O20 Sc2 2.105 . S
O20 C4 1.268 . S
O21 Sc1 2.105 . S
O21 C6 1.268 . S
Sc22 O25 2.025 . S
Sc22 O32 2.105 . S
Sc22 O35 2.105 . S
Sc22 O38 2.105 . S
Sc22 O41 2.105 . S
Sc23 O25 2.025 . S
Sc23 O33 2.105 . S
Sc23 O37 2.105 . S
Sc23 O39 2.105 . S
Sc23 O43 2.105 . S
Sc24 O25 2.025 . S
Sc24 O34 2.105 . S
Sc24 O36 2.105 . S
Sc24 O40 2.105 . S
Sc24 O42 2.105 . S
O25 Sc22 2.025 . S
O25 Sc23 2.025 . S
O25 Sc24 2.025 . S
C26 O32 1.268 . S
C26 O42 1.268 . S
C27 O33 1.268 . S
C27 O41 1.268 . S
C28 O34 1.268 . S
C28 O43 1.268 . S
C29 O35 1.268 . S
C29 O39 1.268 . S
C30 O36 1.268 . S
C30 O38 1.268 . S
C31 O37 1.268 . S
C31 O40 1.268 . S
O32 Sc22 2.105 . S
O32 C26 1.268 . S
O33 Sc23 2.105 . S
O33 C27 1.268 . S
O34 Sc24 2.105 . S
O34 C28 1.268 . S
O35 Sc22 2.105 . S
O35 C29 1.268 . S
O36 Sc24 2.105 . S
O36 C30 1.268 . S
O37 Sc23 2.105 . S
O37 C31 1.268 . S
O38 Sc22 2.105 . S
O38 C30 1.268 . S
O39 Sc23 2.105 . S
O39 C29 1.268 . S
O40 Sc24 2.105 . S
O40 C31 1.268 . S
O41 Sc22 2.105 . S
O41 C27 1.268 . S
O42 Sc24 2.105 . S
O42 C26 1.268 . S
O43 Sc23 2.105 . S
O43 C28 1.268 . S
Sc44 O47 2.025 . S
Sc44 O54 2.105 . S
Sc44 O57 2.105 . S
Sc44 O60 2.105 . S
Sc44 O63 2.105 . S
Sc45 O47 2.025 . S
Sc45 O55 2.105 . S
Sc45 O59 2.105 . S
Sc45 O61 2.105 . S
Sc45 O65 2.105 . S
Sc46 O47 2.025 . S
Sc46 O56 2.105 . S
Sc46 O58 2.105 . S
Sc46 O62 2.105 . S
Sc46 O64 2.105 . S
O47 Sc44 2.025 . S
O47 Sc45 2.025 . S
O47 Sc46 2.025 . S
C48 O54 1.268 . S
C48 O64 1.268 . S
C49 O55 1.268 . S
C49 O63 1.268 . S
C50 O56 1.268 . S
C50 O65 1.268 . S
C51 O57 1.268 . S
C51 O61 1.268 . S
C52 O58 1.268 . S
C52 O60 1.268 . S
C53 O59 1.268 . S
C53 O62 1.268 . S
O54 Sc44 2.105 . S
O54 C48 1.268 . S
O55 Sc45 2.105 . S
O55 C49 1.268 . S
O56 Sc46 2.105 . S
O56 C50 1.268 . S
O57 Sc44 2.105 . S
O57 C51 1.268 . S
O58 Sc46 2.105 . S
O58 C52 1.268 . S
O59 Sc45 2.105 . S
O59 C53 1.268 . S
O60 Sc44 2.105 . S
O60 C52 1.268 . S
O61 Sc45 2.105 . S
O61 C51 1.268 . S
O62 Sc46 2.105 . S
O62 C53 1.268 . S
O63 Sc44 2.105 . S
O63 C49 1.268 . S
O64 Sc46 2.105 . S
O64 C48 1.268 . S
O65 Sc45 2.105 . S
O65 C50 1.268 . S
Sc66 O69 2.025 . S
Sc66 O76 2.105 . S
Sc66 O79 2.105 . S
Sc66 O82 2.105 . S
Sc66 O85 2.105 . S
Sc67 O69 2.025 . S
Sc67 O77 2.105 . S
Sc67 O81 2.105 . S
Sc67 O83 2.105 . S
Sc67 O87 2.105 . S
Sc68 O69 2.025 . S
Sc68 O78 2.105 . S
Sc68 O80 2.105 . S
Sc68 O84 2.105 . S
Sc68 O86 2.105 . S
O69 Sc66 2.025 . S
O69 Sc67 2.025 . S
O69 Sc68 2.025 . S
C70 O76 1.268 . S
C70 O86 1.268 . S
C71 O77 1.268 . S
C71 O85 1.268 . S
C72 O78 1.268 . S
C72 O87 1.268 . S
C73 O79 1.268 . S
C73 O83 1.268 . S
C74 O80 1.268 . S
C74 O82 1.268 . S
C75 O81 1.268 . S
C75 O84 1.268 . S
O76 Sc66 2.105 . S
O76 C70 1.268 . S
O77 Sc67 2.105 . S
O77 C71 1.268 . S
O78 Sc68 2.105 . S
O78 C72 1.268 . S
O79 Sc66 2.105 . S
O79 C73 1.268 . S
O80 Sc68 2.105 . S
O80 C74 1.268 . S
O81 Sc67 2.105 . S
O81 C75 1.268 . S
O82 Sc66 2.105 . S
O82 C74 1.268 . S
O83 Sc67 2.105 . S
O83 C73 1.268 . S
O84 Sc68 2.105 . S
O84 C75 1.268 . S
O85 Sc66 2.105 . S
O85 C71 1.268 . S
O86 Sc68 2.105 . S
O86 C70 1.268 . S
O87 Sc67 2.105 . S
O87 C72 1.268 . S
Sc88 O91 2.025 . S
Sc88 O98 2.105 . S
Sc88 O101 2.105 . S
Sc88 O104 2.105 . S
Sc88 O107 2.105 . S
Sc89 O91 2.025 . S
Sc89 O99 2.105 . S
Sc89 O103 2.105 . S
Sc89 O105 2.105 . S
Sc89 O109 2.105 . S
Sc90 O91 2.025 . S
Sc90 O100 2.105 . S
Sc90 O102 2.105 . S
Sc90 O106 2.105 . S
Sc90 O108 2.105 . S
O91 Sc88 2.025 . S
O91 Sc89 2.025 . S
O91 Sc90 2.025 . S
C92 O98 1.268 . S
C92 O108 1.268 . S
C93 O99 1.268 . S
C93 O107 1.268 . S
C94 O100 1.268 . S
C94 O109 1.268 . S
C95 O101 1.268 . S
C95 O105 1.268 . S
C96 O102 1.268 . S
C96 O104 1.268 . S
C97 O103 1.268 . S
C97 O106 1.268 . S
O98 Sc88 2.105 . S
O98 C92 1.268 . S
O99 Sc89 2.105 . S
O99 C93 1.268 . S
O100 Sc90 2.105 . S
O100 C94 1.268 . S
O101 Sc88 2.105 . S
O101 C95 1.268 . S
O102 Sc90 2.105 . S
O102 C96 1.268 . S
O103 Sc89 2.105 . S
O103 C97 1.268 . S
O104 Sc88 2.105 . S
O104 C96 1.268 . S
O105 Sc89 2.105 . S
O105 C95 1.268 . S
O106 Sc90 2.105 . S
O106 C97 1.268 . S
O107 Sc88 2.105 . S
O107 C93 1.268 . S
O108 Sc90 2.105 . S
O108 C92 1.268 . S
O109 Sc89 2.105 . S
O109 C94 1.268 . S
Sc110 O113 2.025 . S
Sc110 O120 2.105 . S
Sc110 O123 2.105 . S
Sc110 O126 2.105 . S
Sc110 O129 2.105 . S
Sc111 O113 2.025 . S
Sc111 O121 2.105 . S
Sc111 O125 2.105 . S
Sc111 O127 2.105 . S
Sc111 O131 2.105 . S
Sc112 O113 2.025 . S
Sc112 O122 2.105 . S
Sc112 O124 2.105 . S
Sc112 O128 2.105 . S
Sc112 O130 2.105 . S
O113 Sc110 2.025 . S
O113 Sc111 2.025 . S
O113 Sc112 2.025 . S
C114 O120 1.268 . S
C114 O130 1.268 . S
C115 O121 1.268 . S
C115 O129 1.268 . S
C116 O122 1.268 . S
C116 O131 1.268 . S
C117 O123 1.268 . S
C117 O127 1.268 . S
C118 O124 1.268 . S
C118 O126 1.268 . S
C119 O125 1.268 . S
C119 O128 1.268 . S
O120 Sc110 2.105 . S
O120 C114 1.268 . S
O121 Sc111 2.105 . S
O121 C115 1.268 . S
O122 Sc112 2.105 . S
O122 C116 1.268 . S
O123 Sc110 2.105 . S
O123 C117 1.268 . S
O124 Sc112 2.105 . S
O124 C118 1.268 . S
O125 Sc111 2.105 . S
O125 C119 1.268 . S
O126 Sc110 2.105 . S
O126 C118 1.268 . S
O127 Sc111 2.105 . S
O127 C117 1.268 . S
O128 Sc112 2.105 . S
O128 C119 1.268 . S
O129 Sc110 2.105 . S
O129 C115 1.268 . S
O130 Sc112 2.105 . S
O130 C114 1.268 . S
O131 Sc111 2.105 . S
O131 C116 1.268 . S
Sc132 O135 2.025 . S
Sc132 O142 2.105 . S
Sc132 O145 2.105 . S
Sc132 O148 2.105 . S
Sc132 O151 2.105 . S
Sc133 O135 2.025 . S
Sc133 O143 2.105 . S
Sc133 O147 2.105 . S
Sc133 O149 2.105 . S
Sc133 O153 2.105 . S
Sc134 O135 2.025 . S
Sc134 O144 2.105 . S
Sc134 O146 2.105 . S
Sc134 O150 2.105 . S
Sc134 O152 2.105 . S
O135 Sc132 2.025 . S
O135 Sc133 2.025 . S
O135 Sc134 2.025 . S
C136 O142 1.268 . S
C136 O152 1.268 . S
C137 O143 1.268 . S
C137 O151 1.268 . S
C138 O144 1.268 . S
C138 O153 1.268 . S
C139 O145 1.268 . S
C139 O149 1.268 . S
C140 O146 1.268 . S
C140 O148 1.268 . S
C141 O147 1.268 . S
C141 O150 1.268 . S
O142 Sc132 2.105 . S
O142 C136 1.268 . S
O143 Sc133 2.105 . S
O143 C137 1.268 . S
O144 Sc134 2.105 . S
O144 C138 1.268 . S
O145 Sc132 2.105 . S
O145 C139 1.268 . S
O146 Sc134 2.105 . S
O146 C140 1.268 . S
O147 Sc133 2.105 . S
O147 C141 1.268 . S
O148 Sc132 2.105 . S
O148 C140 1.268 . S
O149 Sc133 2.105 . S
O149 C139 1.268 . S
O150 Sc134 2.105 . S
O150 C141 1.268 . S
O151 Sc132 2.105 . S
O151 C137 1.268 . S
O152 Sc134 2.105 . S
O152 C136 1.268 . S
O153 Sc133 2.105 . S
O153 C138 1.268 . S
Sc154 O157 2.025 . S
Sc154 O164 2.105 . S
Sc154 O167 2.105 . S
Sc154 O170 2.105 . S
Sc154 O173 2.105 . S
Sc155 O157 2.025 . S
Sc155 O165 2.105 . S
Sc155 O169 2.105 . S
Sc155 O171 2.105 . S
Sc155 O175 2.105 . S
Sc156 O157 2.025 . S
Sc156 O166 2.105 . S
Sc156 O168 2.105 . S
Sc156 O172 2.105 . S
Sc156 O174 2.105 . S
O157 Sc154 2.025 . S
O157 Sc155 2.025 . S
O157 Sc156 2.025 . S
C158 O164 1.268 . S
C158 O174 1.268 . S
C159 O165 1.268 . S
C159 O173 1.268 . S
C160 O166 1.268 . S
C160 O175 1.268 . S
C161 O167 1.268 . S
C161 O171 1.268 . S
C162 O168 1.268 . S
C162 O170 1.268 . S
C163 O169 1.268 . S
C163 O172 1.268 . S
O164 Sc154 2.105 . S
O164 C158 1.268 . S
O165 Sc155 2.105 . S
O165 C159 1.268 . S
O166 Sc156 2.105 . S
O166 C160 1.268 . S
O167 Sc154 2.105 . S
O167 C161 1.268 . S
O168 Sc156 2.105 . S
O168 C162 1.268 . S
O169 Sc155 2.105 . S
O169 C163 1.268 . S
O170 Sc154 2.105 . S
O170 C162 1.268 . S
O171 Sc155 2.105 . S
O171 C161 1.268 . S
O172 Sc156 2.105 . S
O172 C163 1.268 . S
O173 Sc154 2.105 . S
O173 C159 1.268 . S
O174 Sc156 2.105 . S
O174 C158 1.268 . S
O175 Sc155 2.105 . S
O175 C160 1.268 . S
Sc176 O179 2.025 . S
Sc176 O186 2.105 . S
Sc176 O189 2.105 . S
Sc176 O192 2.105 . S
Sc176 O195 2.105 . S
Sc177 O179 2.025 . S
Sc177 O187 2.105 . S
Sc177 O191 2.105 . S
Sc177 O193 2.105 . S
Sc177 O197 2.105 . S
Sc178 O179 2.025 . S
Sc178 O188 2.105 . S
Sc178 O190 2.105 . S
Sc178 O194 2.105 . S
Sc178 O196 2.105 . S
O179 Sc176 2.025 . S
O179 Sc177 2.025 . S
O179 Sc178 2.025 . S
C180 O186 1.268 . S
C180 O196 1.268 . S
C181 O187 1.268 . S
C181 O195 1.268 . S
C182 O188 1.268 . S
C182 O197 1.268 . S
C183 O189 1.268 . S
C183 O193 1.268 . S
C184 O190 1.268 . S
C184 O192 1.268 . S
C185 O191 1.268 . S
C185 O194 1.268 . S
O186 Sc176 2.105 . S
O186 C180 1.268 . S
O187 Sc177 2.105 . S
O187 C181 1.268 . S
O188 Sc178 2.105 . S
O188 C182 1.268 . S
O189 Sc176 2.105 . S
O189 C183 1.268 . S
O190 Sc178 2.105 . S
O190 C184 1.268 . S
O191 Sc177 2.105 . S
O191 C185 1.268 . S
O192 Sc176 2.105 . S
O192 C184 1.268 . S
O193 Sc177 2.105 . S
O193 C183 1.268 . S
O194 Sc178 2.105 . S
O194 C185 1.268 . S
O195 Sc176 2.105 . S
O195 C181 1.268 . S
O196 Sc178 2.105 . S
O196 C180 1.268 . S
O197 Sc177 2.105 . S
O197 C182 1.268 . S
Sc198 O201 2.025 . S
Sc198 O208 2.105 . S
Sc198 O211 2.105 . S
Sc198 O214 2.105 . S
Sc198 O217 2.105 . S
Sc199 O201 2.025 . S
Sc199 O209 2.105 . S
Sc199 O213 2.105 . S
Sc199 O215 2.105 . S
Sc199 O219 2.105 . S
Sc200 O201 2.025 . S
Sc200 O210 2.105 . S
Sc200 O212 2.105 . S
Sc200 O216 2.105 . S
Sc200 O218 2.105 . S
O201 Sc198 2.025 . S
O201 Sc199 2.025 . S
O201 Sc200 2.025 . S
C202 O208 1.268 . S
C202 O218 1.268 . S
C203 O209 1.268 . S
C203 O217 1.268 . S
C204 O210 1.268 . S
C204 O219 1.268 . S
C205 O211 1.268 . S
C205 O215 1.268 . S
C206 O212 1.268 . S
C206 O214 1.268 . S
C207 O213 1.268 . S
C207 O216 1.268 . S
O208 Sc198 2.105 . S
O208 C202 1.268 . S
O209 Sc199 2.105 . S
O209 C203 1.268 . S
O210 Sc200 2.105 . S
O210 C204 1.268 . S
O211 Sc198 2.105 . S
O211 C205 1.268 . S
O212 Sc200 2.105 . S
O212 C206 1.268 . S
O213 Sc199 2.105 . S
O213 C207 1.268 . S
O214 Sc198 2.105 . S
O214 C206 1.268 . S
O215 Sc199 2.105 . S
O215 C205 1.268 . S
O216 Sc200 2.105 . S
O216 C207 1.268 . S
O217 Sc198 2.105 . S
O217 C203 1.268 . S
O218 Sc200 2.105 . S
O218 C202 1.268 . S
O219 Sc199 2.105 . S
O219 C204 1.268 . S
Sc220 O223 2.025 . S
Sc220 O230 2.105 . S
Sc220 O233 2.105 . S
Sc220 O236 2.105 . S
Sc220 O239 2.105 . S
Sc221 O223 2.025 . S
Sc221 O231 2.105 . S
Sc221 O235 2.105 . S
Sc221 O237 2.105 . S
Sc221 O241 2.105 . S
Sc222 O223 2.025 . S
Sc222 O232 2.105 . S
Sc222 O234 2.105 . S
Sc222 O238 2.105 . S
Sc222 O240 2.105 . S
O223 Sc220 2.025 . S
O223 Sc221 2.025 . S
O223 Sc222 2.025 . S
C224 O230 1.268 . S
C224 O240 1.268 . S
C225 O231 1.268 . S
C225 O239 1.268 . S
C226 O232 1.268 . S
C226 O241 1.268 . S
C227 O233 1.268 . S
C227 O237 1.268 . S
C228 O234 1.268 . S
C228 O236 1.268 . S
C229 O235 1.268 . S
C229 O238 1.268 . S
O230 Sc220 2.105 . S
O230 C224 1.268 . S
O231 Sc221 2.105 . S
O231 C225 1.268 . S
O232 Sc222 2.105 . S
O232 C226 1.268 . S
O233 Sc220 2.105 . S
O233 C227 1.268 . S
O234 Sc222 2.105 . S
O234 C228 1.268 . S
O235 Sc221 2.105 . S
O235 C229 1.268 . S
O236 Sc220 2.105 . S
O236 C228 1.268 . S
O237 Sc221 2.105 . S
O237 C227 1.268 . S
O238 Sc222 2.105 . S
O238 C229 1.268 . S
O239 Sc220 2.105 . S
O239 C225 1.268 . S
O240 Sc222 2.105 . S
O240 C224 1.268 . S
O241 Sc221 2.105 . S
O241 C226 1.268 . S
Sc242 O245 2.025 . S
Sc242 O252 2.105 . S
Sc242 O255 2.105 . S
Sc242 O258 2.105 . S
Sc242 O261 2.105 . S
Sc243 O245 2.025 . S
Sc243 O253 2.105 . S
Sc243 O257 2.105 . S
Sc243 O259 2.105 . S
Sc243 O263 2.105 . S
Sc244 O245 2.025 . S
Sc244 O254 2.105 . S
Sc244 O256 2.105 . S
Sc244 O260 2.105 . S
Sc244 O262 2.105 . S
O245 Sc242 2.025 . S
O245 Sc243 2.025 . S
O245 Sc244 2.025 . S
C246 O252 1.268 . S
C246 O262 1.268 . S
C247 O253 1.268 . S
C247 O261 1.268 . S
C248 O254 1.268 . S
C248 O263 1.268 . S
C249 O255 1.268 . S
C249 O259 1.268 . S
C250 O256 1.268 . S
C250 O258 1.268 . S
C251 O257 1.268 . S
C251 O260 1.268 . S
O252 Sc242 2.105 . S
O252 C246 1.268 . S
O253 Sc243 2.105 . S
O253 C247 1.268 . S
O254 Sc244 2.105 . S
O254 C248 1.268 . S
O255 Sc242 2.105 . S
O255 C249 1.268 . S
O256 Sc244 2.105 . S
O256 C250 1.268 . S
O257 Sc243 2.105 . S
O257 C251 1.268 . S
O258 Sc242 2.105 . S
O258 C250 1.268 . S
O259 Sc243 2.105 . S
O259 C249 1.268 . S
O260 Sc244 2.105 . S
O260 C251 1.268 . S
O261 Sc242 2.105 . S
O261 C247 1.268 . S
O262 Sc244 2.105 . S
O262 C246 1.268 . S
O263 Sc243 2.105 . S
O263 C248 1.268 . S
Sc264 O267 2.025 . S
Sc264 O274 2.105 . S
Sc264 O277 2.105 . S
Sc264 O280 2.105 . S
Sc264 O283 2.105 . S
Sc265 O267 2.025 . S
Sc265 O275 2.105 . S
Sc265 O279 2.105 . S
Sc265 O281 2.105 . S
Sc265 O285 2.105 . S
Sc266 O267 2.025 . S
Sc266 O276 2.105 . S
Sc266 O278 2.105 . S
Sc266 O282 2.105 . S
Sc266 O284 2.105 . S
O267 Sc264 2.025 . S
O267 Sc265 2.025 . S
O267 Sc266 2.025 . S
C268 O274 1.268 . S
C268 O284 1.268 . S
C269 O275 1.268 . S
C269 O283 1.268 . S
C270 O276 1.268 . S
C270 O285 1.268 . S
C271 O277 1.268 . S
C271 O281 1.268 . S
C272 O278 1.268 . S
C272 O280 1.268 . S
C273 O279 1.268 . S
C273 O282 1.268 . S
O274 Sc264 2.105 . S
O274 C268 1.268 . S
O275 Sc265 2.105 . S
O275 C269 1.268 . S
O276 Sc266 2.105 . S
O276 C270 1.268 . S
O277 Sc264 2.105 . S
O277 C271 1.268 . S
O278 Sc266 2.105 . S
O278 C272 1.268 . S
O279 Sc265 2.105 . S
O279 C273 1.268 . S
O280 Sc264 2.105 . S
O280 C272 1.268 . S
O281 Sc265 2.105 . S
O281 C271 1.268 . S
O282 Sc266 2.105 . S
O282 C273 1.268 . S
O283 Sc264 2.105 . S
O283 C269 1.268 . S
O284 Sc266 2.105 . S
O284 C268 1.268 . S
O285 Sc265 2.105 . S
O285 C270 1.268 . S
Sc286 O289 2.025 . S
Sc286 O296 2.105 . S
Sc286 O299 2.105 . S
Sc286 O302 2.105 . S
Sc286 O305 2.105 . S
Sc287 O289 2.025 . S
Sc287 O297 2.105 . S
Sc287 O301 2.105 . S
Sc287 O303 2.105 . S
Sc287 O307 2.105 . S
Sc288 O289 2.025 . S
Sc288 O298 2.105 . S
Sc288 O300 2.105 . S
Sc288 O304 2.105 . S
Sc288 O306 2.105 . S
O289 Sc286 2.025 . S
O289 Sc287 2.025 . S
O289 Sc288 2.025 . S
C290 O296 1.268 . S
C290 O306 1.268 . S
C291 O297 1.268 . S
C291 O305 1.268 . S
C292 O298 1.268 . S
C292 O307 1.268 . S
C293 O299 1.268 . S
C293 O303 1.268 . S
C294 O300 1.268 . S
C294 O302 1.268 . S
C295 O301 1.268 . S
C295 O304 1.268 . S
O296 Sc286 2.105 . S
O296 C290 1.268 . S
O297 Sc287 2.105 . S
O297 C291 1.268 . S
O298 Sc288 2.105 . S
O298 C292 1.268 . S
O299 Sc286 2.105 . S
O299 C293 1.268 . S
O300 Sc288 2.105 . S
O300 C294 1.268 . S
O301 Sc287 2.105 . S
O301 C295 1.268 . S
O302 Sc286 2.105 . S
O302 C294 1.268 . S
O303 Sc287 2.105 . S
O303 C293 1.268 . S
O304 Sc288 2.105 . S
O304 C295 1.268 . S
O305 Sc286 2.105 . S
O305 C291 1.268 . S
O306 Sc288 2.105 . S
O306 C290 1.268 . S
O307 Sc287 2.105 . S
O307 C292 1.268 . S
Sc308 O311 2.025 . S
Sc308 O318 2.105 . S
Sc308 O321 2.105 . S
Sc308 O324 2.105 . S
Sc308 O327 2.105 . S
Sc309 O311 2.025 . S
Sc309 O319 2.105 . S
Sc309 O323 2.105 . S
Sc309 O325 2.105 . S
Sc309 O329 2.105 . S
Sc310 O311 2.025 . S
Sc310 O320 2.105 . S
Sc310 O322 2.105 . S
Sc310 O326 2.105 . S
Sc310 O328 2.105 . S
O311 Sc308 2.025 . S
O311 Sc309 2.025 . S
O311 Sc310 2.025 . S
C312 O318 1.268 . S
C312 O328 1.268 . S
C313 O319 1.268 . S
C313 O327 1.268 . S
C314 O320 1.268 . S
C314 O329 1.268 . S
C315 O321 1.268 . S
C315 O325 1.268 . S
C316 O322 1.268 . S
C316 O324 1.268 . S
C317 O323 1.268 . S
C317 O326 1.268 . S
O318 Sc308 2.105 . S
O318 C312 1.268 . S
O319 Sc309 2.105 . S
O319 C313 1.268 . S
O320 Sc310 2.105 . S
O320 C314 1.268 . S
O321 Sc308 2.105 . S
O321 C315 1.268 . S
O322 Sc310 2.105 . S
O322 C316 1.268 . S
O323 Sc309 2.105 . S
O323 C317 1.268 . S
O324 Sc308 2.105 . S
O324 C316 1.268 . S
O325 Sc309 2.105 . S
O325 C315 1.268 . S
O326 Sc310 2.105 . S
O326 C317 1.268 . S
O327 Sc308 2.105 . S
O327 C313 1.268 . S
O328 Sc310 2.105 . S
O328 C312 1.268 . S
O329 Sc309 2.105 . S
O329 C314 1.268 . S
Sc330 O333 2.025 . S
Sc330 O340 2.105 . S
Sc330 O343 2.105 . S
Sc330 O346 2.105 . S
Sc330 O349 2.105 . S
Sc331 O333 2.025 . S
Sc331 O341 2.105 . S
Sc331 O345 2.105 . S
Sc331 O347 2.105 . S
Sc331 O351 2.105 . S
Sc332 O333 2.025 . S
Sc332 O342 2.105 . S
Sc332 O344 2.105 . S
Sc332 O348 2.105 . S
Sc332 O350 2.105 . S
O333 Sc330 2.025 . S
O333 Sc331 2.025 . S
O333 Sc332 2.025 . S
C334 O340 1.268 . S
C334 O350 1.268 . S
C335 O341 1.268 . S
C335 O349 1.268 . S
C336 O342 1.268 . S
C336 O351 1.268 . S
C337 O343 1.268 . S
C337 O347 1.268 . S
C338 O344 1.268 . S
C338 O346 1.268 . S
C339 O345 1.268 . S
C339 O348 1.268 . S
O340 Sc330 2.105 . S
O340 C334 1.268 . S
O341 Sc331 2.105 . S
O341 C335 1.268 . S
O342 Sc332 2.105 . S
O342 C336 1.268 . S
O343 Sc330 2.105 . S
O343 C337 1.268 . S
O344 Sc332 2.105 . S
O344 C338 1.268 . S
O345 Sc331 2.105 . S
O345 C339 1.268 . S
O346 Sc330 2.105 . S
O346 C338 1.268 . S
O347 Sc331 2.105 . S
O347 C337 1.268 . S
O348 Sc332 2.105 . S
O348 C339 1.268 . S
O349 Sc330 2.105 . S
O349 C335 1.268 . S
O350 Sc332 2.105 . S
O350 C334 1.268 . S
O351 Sc331 2.105 . S
O351 C336 1.268 . S
Sc352 O355 2.025 . S
Sc352 O362 2.105 . S
Sc352 O365 2.105 . S
Sc352 O368 2.105 . S
Sc352 O371 2.105 . S
Sc353 O355 2.025 . S
Sc353 O363 2.105 . S
Sc353 O367 2.105 . S
Sc353 O369 2.105 . S
Sc353 O373 2.105 . S
Sc354 O355 2.025 . S
Sc354 O364 2.105 . S
Sc354 O366 2.105 . S
Sc354 O370 2.105 . S
Sc354 O372 2.105 . S
O355 Sc352 2.025 . S
O355 Sc353 2.025 . S
O355 Sc354 2.025 . S
C356 O362 1.268 . S
C356 O372 1.268 . S
C357 O363 1.268 . S
C357 O371 1.268 . S
C358 O364 1.268 . S
C358 O373 1.268 . S
C359 O365 1.268 . S
C359 O369 1.268 . S
C360 O366 1.268 . S
C360 O368 1.268 . S
C361 O367 1.268 . S
C361 O370 1.268 . S
O362 Sc352 2.105 . S
O362 C356 1.268 . S
O363 Sc353 2.105 . S
O363 C357 1.268 . S
O364 Sc354 2.105 . S
O364 C358 1.268 . S
O365 Sc352 2.105 . S
O365 C359 1.268 . S
O366 Sc354 2.105 . S
O366 C360 1.268 . S
O367 Sc353 2.105 . S
O367 C361 1.268 . S
O368 Sc352 2.105 . S
O368 C360 1.268 . S
O369 Sc353 2.105 . S
O369 C359 1.268 . S
O370 Sc354 2.105 . S
O370 C361 1.268 . S
O371 Sc352 2.105 . S
O371 C357 1.268 . S
O372 Sc354 2.105 . S
O372 C356 1.268 . S
O373 Sc353 2.105 . S
O373 C358 1.268 . S
Sc374 O377 2.025 . S
Sc374 O384 2.105 . S
Sc374 O387 2.105 . S
Sc374 O390 2.105 . S
Sc374 O393 2.105 . S
Sc375 O377 2.025 . S
Sc375 O385 2.105 . S
Sc375 O389 2.105 . S
Sc375 O391 2.105 . S
Sc375 O395 2.105 . S
Sc376 O377 2.025 . S
Sc376 O386 2.105 . S
Sc376 O388 2.105 . S
Sc376 O392 2.105 . S
Sc376 O394 2.105 . S
O377 Sc374 2.025 . S
O377 Sc375 2.025 . S
O377 Sc376 2.025 . S
C378 O384 1.268 . S
C378 O394 1.268 . S
C379 O385 1.268 . S
C379 O393 1.268 . S
C380 O386 1.268 . S
C380 O395 1.268 . S
C381 O387 1.268 . S
C381 O391 1.268 . S
C382 O388 1.268 . S
C382 O390 1.268 . S
C383 O389 1.268 . S
C383 O392 1.268 . S
O384 Sc374 2.105 . S
O384 C378 1.268 . S
O385 Sc375 2.105 . S
O385 C379 1.268 . S
O386 Sc376 2.105 . S
O386 C380 1.268 . S
O387 Sc374 2.105 . S
O387 C381 1.268 . S
O388 Sc376 2.105 . S
O388 C382 1.268 . S
O389 Sc375 2.105 . S
O389 C383 1.268 . S
O390 Sc374 2.105 . S
O390 C382 1.268 . S
O391 Sc375 2.105 . S
O391 C381 1.268 . S
O392 Sc376 2.105 . S
O392 C383 1.268 . S
O393 Sc374 2.105 . S
O393 C379 1.268 . S
O394 Sc376 2.105 . S
O394 C378 1.268 . S
O395 Sc375 2.105 . S
O395 C380 1.268 . S
Sc396 O399 2.025 . S
Sc396 O406 2.105 . S
Sc396 O409 2.105 . S
Sc396 O412 2.105 . S
Sc396 O415 2.105 . S
Sc397 O399 2.025 . S
Sc397 O407 2.105 . S
Sc397 O411 2.105 . S
Sc397 O413 2.105 . S
Sc397 O417 2.105 . S
Sc398 O399 2.025 . S
Sc398 O408 2.105 . S
Sc398 O410 2.105 . S
Sc398 O414 2.105 . S
Sc398 O416 2.105 . S
O399 Sc396 2.025 . S
O399 Sc397 2.025 . S
O399 Sc398 2.025 . S
C400 O406 1.268 . S
C400 O416 1.268 . S
C401 O407 1.268 . S
C401 O415 1.268 . S
C402 O408 1.268 . S
C402 O417 1.268 . S
C403 O409 1.268 . S
C403 O413 1.268 . S
C404 O410 1.268 . S
C404 O412 1.268 . S
C405 O411 1.268 . S
C405 O414 1.268 . S
O406 Sc396 2.105 . S
O406 C400 1.268 . S
O407 Sc397 2.105 . S
O407 C401 1.268 . S
O408 Sc398 2.105 . S
O408 C402 1.268 . S
O409 Sc396 2.105 . S
O409 C403 1.268 . S
O410 Sc398 2.105 . S
O410 C404 1.268 . S
O411 Sc397 2.105 . S
O411 C405 1.268 . S
O412 Sc396 2.105 . S
O412 C404 1.268 . S
O413 Sc397 2.105 . S
O413 C403 1.268 . S
O414 Sc398 2.105 . S
O414 C405 1.268 . S
O415 Sc396 2.105 . S
O415 C401 1.268 . S
O416 Sc398 2.105 . S
O416 C400 1.268 . S
O417 Sc397 2.105 . S
O417 C402 1.268 . S
Sc418 O421 2.025 . S
Sc418 O428 2.105 . S
Sc418 O431 2.105 . S
Sc418 O434 2.105 . S
Sc418 O437 2.105 . S
Sc419 O421 2.025 . S
Sc419 O429 2.105 . S
Sc419 O433 2.105 . S
Sc419 O435 2.105 . S
Sc419 O439 2.105 . S
Sc420 O421 2.025 . S
Sc420 O430 2.105 . S
Sc420 O432 2.105 . S
Sc420 O436 2.105 . S
Sc420 O438 2.105 . S
O421 Sc418 2.025 . S
O421 Sc419 2.025 . S
O421 Sc420 2.025 . S
C422 O428 1.268 . S
C422 O438 1.268 . S
C423 O429 1.268 . S
C423 O437 1.268 . S
C424 O430 1.268 . S
C424 O439 1.268 . S
C425 O431 1.268 . S
C425 O435 1.268 . S
C426 O432 1.268 . S
C426 O434 1.268 . S
C427 O433 1.268 . S
C427 O436 1.268 . S
O428 Sc418 2.105 . S
O428 C422 1.268 . S
O429 Sc419 2.105 . S
O429 C423 1.268 . S
O430 Sc420 2.105 . S
O430 C424 1.268 . S
O431 Sc418 2.105 . S
O431 C425 1.268 . S
O432 Sc420 2.105 . S
O432 C426 1.268 . S
O433 Sc419 2.105 . S
O433 C427 1.268 . S
O434 Sc418 2.105 . S
O434 C426 1.268 . S
O435 Sc419 2.105 . S
O435 C425 1.268 . S
O436 Sc420 2.105 . S
O436 C427 1.268 . S
O437 Sc418 2.105 . S
O437 C423 1.268 . S
O438 Sc420 2.105 . S
O438 C422 1.268 . S
O439 Sc419 2.105 . S
O439 C424 1.268 . S
Sc440 O443 2.025 . S
Sc440 O450 2.105 . S
Sc440 O453 2.105 . S
Sc440 O456 2.105 . S
Sc440 O459 2.105 . S
Sc441 O443 2.025 . S
Sc441 O451 2.105 . S
Sc441 O455 2.105 . S
Sc441 O457 2.105 . S
Sc441 O461 2.105 . S
Sc442 O443 2.025 . S
Sc442 O452 2.105 . S
Sc442 O454 2.105 . S
Sc442 O458 2.105 . S
Sc442 O460 2.105 . S
O443 Sc440 2.025 . S
O443 Sc441 2.025 . S
O443 Sc442 2.025 . S
C444 O450 1.268 . S
C444 O460 1.268 . S
C445 O451 1.268 . S
C445 O459 1.268 . S
C446 O452 1.268 . S
C446 O461 1.268 . S
C447 O453 1.268 . S
C447 O457 1.268 . S
C448 O454 1.268 . S
C448 O456 1.268 . S
C449 O455 1.268 . S
C449 O458 1.268 . S
O450 Sc440 2.105 . S
O450 C444 1.268 . S
O451 Sc441 2.105 . S
O451 C445 1.268 . S
O452 Sc442 2.105 . S
O452 C446 1.268 . S
O453 Sc440 2.105 . S
O453 C447 1.268 . S
O454 Sc442 2.105 . S
O454 C448 1.268 . S
O455 Sc441 2.105 . S
O455 C449 1.268 . S
O456 Sc440 2.105 . S
O456 C448 1.268 . S
O457 Sc441 2.105 . S
O457 C447 1.268 . S
O458 Sc442 2.105 . S
O458 C449 1.268 . S
O459 Sc440 2.105 . S
O459 C445 1.268 . S
O460 Sc442 2.105 . S
O460 C444 1.268 . S
O461 Sc441 2.105 . S
O461 C446 1.268 . S
Sc462 O465 2.025 . S
Sc462 O472 2.105 . S
Sc462 O475 2.105 . S
Sc462 O478 2.105 . S
Sc462 O481 2.105 . S
Sc463 O465 2.025 . S
Sc463 O473 2.105 . S
Sc463 O477 2.105 . S
Sc463 O479 2.105 . S
Sc463 O483 2.105 . S
Sc464 O465 2.025 . S
Sc464 O474 2.105 . S
Sc464 O476 2.105 . S
Sc464 O480 2.105 . S
Sc464 O482 2.105 . S
O465 Sc462 2.025 . S
O465 Sc463 2.025 . S
O465 Sc464 2.025 . S
C466 O472 1.268 . S
C466 O482 1.268 . S
C467 O473 1.268 . S
C467 O481 1.268 . S
C468 O474 1.268 . S
C468 O483 1.268 . S
C469 O475 1.268 . S
C469 O479 1.268 . S
C470 O476 1.268 . S
C470 O478 1.268 . S
C471 O477 1.268 . S
C471 O480 1.268 . S
O472 Sc462 2.105 . S
O472 C466 1.268 . S
O473 Sc463 2.105 . S
O473 C467 1.268 . S
O474 Sc464 2.105 . S
O474 C468 1.268 . S
O475 Sc462 2.105 . S
O475 C469 1.268 . S
O476 Sc464 2.105 . S
O476 C470 1.268 . S
O477 Sc463 2.105 . S
O477 C471 1.268 . S
O478 Sc462 2.105 . S
O478 C470 1.268 . S
O479 Sc463 2.105 . S
O479 C469 1.268 . S
O480 Sc464 2.105 . S
O480 C471 1.268 . S
O481 Sc462 2.105 . S
O481 C467 1.268 . S
O482 Sc464 2.105 . S
O482 C466 1.268 . S
O483 Sc463 2.105 . S
O483 C468 1.268 . S
Sc484 O487 2.025 . S
Sc484 O494 2.105 . S
Sc484 O497 2.105 . S
Sc484 O500 2.105 . S
Sc484 O503 2.105 . S
Sc485 O487 2.025 . S
Sc485 O495 2.105 . S
Sc485 O499 2.105 . S
Sc485 O501 2.105 . S
Sc485 O505 2.105 . S
Sc486 O487 2.025 . S
Sc486 O496 2.105 . S
Sc486 O498 2.105 . S
Sc486 O502 2.105 . S
Sc486 O504 2.105 . S
O487 Sc484 2.025 . S
O487 Sc485 2.025 . S
O487 Sc486 2.025 . S
C488 O494 1.268 . S
C488 O504 1.268 . S
C489 O495 1.268 . S
C489 O503 1.268 . S
C490 O496 1.268 . S
C490 O505 1.268 . S
C491 O497 1.268 . S
C491 O501 1.268 . S
C492 O498 1.268 . S
C492 O500 1.268 . S
C493 O499 1.268 . S
C493 O502 1.268 . S
O494 Sc484 2.105 . S
O494 C488 1.268 . S
O495 Sc485 2.105 . S
O495 C489 1.268 . S
O496 Sc486 2.105 . S
O496 C490 1.268 . S
O497 Sc484 2.105 . S
O497 C491 1.268 . S
O498 Sc486 2.105 . S
O498 C492 1.268 . S
O499 Sc485 2.105 . S
O499 C493 1.268 . S
O500 Sc484 2.105 . S
O500 C492 1.268 . S
O501 Sc485 2.105 . S
O501 C491 1.268 . S
O502 Sc486 2.105 . S
O502 C493 1.268 . S
O503 Sc484 2.105 . S
O503 C489 1.268 . S
O504 Sc486 2.105 . S
O504 C488 1.268 . S
O505 Sc485 2.105 . S
O505 C490 1.268 . S
Sc506 O509 2.025 . S
Sc506 O516 2.105 . S
Sc506 O519 2.105 . S
Sc506 O522 2.105 . S
Sc506 O525 2.105 . S
Sc507 O509 2.025 . S
Sc507 O517 2.105 . S
Sc507 O521 2.105 . S
Sc507 O523 2.105 . S
Sc507 O527 2.105 . S
Sc508 O509 2.025 . S
Sc508 O518 2.105 . S
Sc508 O520 2.105 . S
Sc508 O524 2.105 . S
Sc508 O526 2.105 . S
O509 Sc506 2.025 . S
O509 Sc507 2.025 . S
O509 Sc508 2.025 . S
C510 O516 1.268 . S
C510 O526 1.268 . S
C511 O517 1.268 . S
C511 O525 1.268 . S
C512 O518 1.268 . S
C512 O527 1.268 . S
C513 O519 1.268 . S
C513 O523 1.268 . S
C514 O520 1.268 . S
C514 O522 1.268 . S
C515 O521 1.268 . S
C515 O524 1.268 . S
O516 Sc506 2.105 . S
O516 C510 1.268 . S
O517 Sc507 2.105 . S
O517 C511 1.268 . S
O518 Sc508 2.105 . S
O518 C512 1.268 . S
O519 Sc506 2.105 . S
O519 C513 1.268 . S
O520 Sc508 2.105 . S
O520 C514 1.268 . S
O521 Sc507 2.105 . S
O521 C515 1.268 . S
O522 Sc506 2.105 . S
O522 C514 1.268 . S
O523 Sc507 2.105 . S
O523 C513 1.268 . S
O524 Sc508 2.105 . S
O524 C515 1.268 . S
O525 Sc506 2.105 . S
O525 C511 1.268 . S
O526 Sc508 2.105 . S
O526 C510 1.268 . S
O527 Sc507 2.105 . S
O527 C512 1.268 . S
Sc528 O531 2.025 . S
Sc528 O538 2.105 . S
Sc528 O541 2.105 . S
Sc528 O544 2.105 . S
Sc528 O547 2.105 . S
Sc529 O531 2.025 . S
Sc529 O539 2.105 . S
Sc529 O543 2.105 . S
Sc529 O545 2.105 . S
Sc529 O549 2.105 . S
Sc530 O531 2.025 . S
Sc530 O540 2.105 . S
Sc530 O542 2.105 . S
Sc530 O546 2.105 . S
Sc530 O548 2.105 . S
O531 Sc528 2.025 . S
O531 Sc529 2.025 . S
O531 Sc530 2.025 . S
C532 O538 1.268 . S
C532 O548 1.268 . S
C533 O539 1.268 . S
C533 O547 1.268 . S
C534 O540 1.268 . S
C534 O549 1.268 . S
C535 O541 1.268 . S
C535 O545 1.268 . S
C536 O542 1.268 . S
C536 O544 1.268 . S
C537 O543 1.268 . S
C537 O546 1.268 . S
O538 Sc528 2.105 . S
O538 C532 1.268 . S
O539 Sc529 2.105 . S
O539 C533 1.268 . S
O540 Sc530 2.105 . S
O540 C534 1.268 . S
O541 Sc528 2.105 . S
O541 C535 1.268 . S
O542 Sc530 2.105 . S
O542 C536 1.268 . S
O543 Sc529 2.105 . S
O543 C537 1.268 . S
O544 Sc528 2.105 . S
O544 C536 1.268 . S
O545 Sc529 2.105 . S
O545 C535 1.268 . S
O546 Sc530 2.105 . S
O546 C537 1.268 . S
O547 Sc528 2.105 . S
O547 C533 1.268 . S
O548 Sc530 2.105 . S
O548 C532 1.268 . S
O549 Sc529 2.105 . S
O549 C534 1.268 . S
Sc550 O553 2.025 . S
Sc550 O560 2.105 . S
Sc550 O563 2.105 . S
Sc550 O566 2.105 . S
Sc550 O569 2.105 . S
Sc551 O553 2.025 . S
Sc551 O561 2.105 . S
Sc551 O565 2.105 . S
Sc551 O567 2.105 . S
Sc551 O571 2.105 . S
Sc552 O553 2.025 . S
Sc552 O562 2.105 . S
Sc552 O564 2.105 . S
Sc552 O568 2.105 . S
Sc552 O570 2.105 . S
O553 Sc550 2.025 . S
O553 Sc551 2.025 . S
O553 Sc552 2.025 . S
C554 O560 1.268 . S
C554 O570 1.268 . S
C555 O561 1.268 . S
C555 O569 1.268 . S
C556 O562 1.268 . S
C556 O571 1.268 . S
C557 O563 1.268 . S
C557 O567 1.268 . S
C558 O564 1.268 . S
C558 O566 1.268 . S
C559 O565 1.268 . S
C559 O568 1.268 . S
O560 Sc550 2.105 . S
O560 C554 1.268 . S
O561 Sc551 2.105 . S
O561 C555 1.268 . S
O562 Sc552 2.105 . S
O562 C556 1.268 . S
O563 Sc550 2.105 . S
O563 C557 1.268 . S
O564 Sc552 2.105 . S
O564 C558 1.268 . S
O565 Sc551 2.105 . S
O565 C559 1.268 . S
O566 Sc550 2.105 . S
O566 C558 1.268 . S
O567 Sc551 2.105 . S
O567 C557 1.268 . S
O568 Sc552 2.105 . S
O568 C559 1.268 . S
O569 Sc550 2.105 . S
O569 C555 1.268 . S
O570 Sc552 2.105 . S
O570 C554 1.268 . S
O571 Sc551 2.105 . S
O571 C556 1.268 . S
Sc572 O575 2.025 . S
Sc572 O582 2.105 . S
Sc572 O585 2.105 . S
Sc572 O588 2.105 . S
Sc572 O591 2.105 . S
Sc573 O575 2.025 . S
Sc573 O583 2.105 . S
Sc573 O587 2.105 . S
Sc573 O589 2.105 . S
Sc573 O593 2.105 . S
Sc574 O575 2.025 . S
Sc574 O584 2.105 . S
Sc574 O586 2.105 . S
Sc574 O590 2.105 . S
Sc574 O592 2.105 . S
O575 Sc572 2.025 . S
O575 Sc573 2.025 . S
O575 Sc574 2.025 . S
C576 O582 1.268 . S
C576 O592 1.268 . S
C577 O583 1.268 . S
C577 O591 1.268 . S
C578 O584 1.268 . S
C578 O593 1.268 . S
C579 O585 1.268 . S
C579 O589 1.268 . S
C580 O586 1.268 . S
C580 O588 1.268 . S
C581 O587 1.268 . S
C581 O590 1.268 . S
O582 Sc572 2.105 . S
O582 C576 1.268 . S
O583 Sc573 2.105 . S
O583 C577 1.268 . S
O584 Sc574 2.105 . S
O584 C578 1.268 . S
O585 Sc572 2.105 . S
O585 C579 1.268 . S
O586 Sc574 2.105 . S
O586 C580 1.268 . S
O587 Sc573 2.105 . S
O587 C581 1.268 . S
O588 Sc572 2.105 . S
O588 C580 1.268 . S
O589 Sc573 2.105 . S
O589 C579 1.268 . S
O590 Sc574 2.105 . S
O590 C581 1.268 . S
O591 Sc572 2.105 . S
O591 C577 1.268 . S
O592 Sc574 2.105 . S
O592 C576 1.268 . S
O593 Sc573 2.105 . S
O593 C578 1.268 . S
Sc594 O597 2.025 . S
Sc594 O604 2.105 . S
Sc594 O607 2.105 . S
Sc594 O610 2.105 . S
Sc594 O613 2.105 . S
Sc595 O597 2.025 . S
Sc595 O605 2.105 . S
Sc595 O609 2.105 . S
Sc595 O611 2.105 . S
Sc595 O615 2.105 . S
Sc596 O597 2.025 . S
Sc596 O606 2.105 . S
Sc596 O608 2.105 . S
Sc596 O612 2.105 . S
Sc596 O614 2.105 . S
O597 Sc594 2.025 . S
O597 Sc595 2.025 . S
O597 Sc596 2.025 . S
C598 O604 1.268 . S
C598 O614 1.268 . S
C599 O605 1.268 . S
C599 O613 1.268 . S
C600 O606 1.268 . S
C600 O615 1.268 . S
C601 O607 1.268 . S
C601 O611 1.268 . S
C602 O608 1.268 . S
C602 O610 1.268 . S
C603 O609 1.268 . S
C603 O612 1.268 . S
O604 Sc594 2.105 . S
O604 C598 1.268 . S
O605 Sc595 2.105 . S
O605 C599 1.268 . S
O606 Sc596 2.105 . S
O606 C600 1.268 . S
O607 Sc594 2.105 . S
O607 C601 1.268 . S
O608 Sc596 2.105 . S
O608 C602 1.268 . S
O609 Sc595 2.105 . S
O609 C603 1.268 . S
O610 Sc594 2.105 . S
O610 C602 1.268 . S
O611 Sc595 2.105 . S
O611 C601 1.268 . S
O612 Sc596 2.105 . S
O612 C603 1.268 . S
O613 Sc594 2.105 . S
O613 C599 1.268 . S
O614 Sc596 2.105 . S
O614 C598 1.268 . S
O615 Sc595 2.105 . S
O615 C600 1.268 . S
Sc616 O619 2.025 . S
Sc616 O626 2.105 . S
Sc616 O629 2.105 . S
Sc616 O632 2.105 . S
Sc616 O635 2.105 . S
Sc617 O619 2.025 . S
Sc617 O627 2.105 . S
Sc617 O631 2.105 . S
Sc617 O633 2.105 . S
Sc617 O637 2.105 . S
Sc618 O619 2.025 . S
Sc618 O628 2.105 . S
Sc618 O630 2.105 . S
Sc618 O634 2.105 . S
Sc618 O636 2.105 . S
O619 Sc616 2.025 . S
O619 Sc617 2.025 . S
O619 Sc618 2.025 . S
C620 O626 1.268 . S
C620 O636 1.268 . S
C621 O627 1.268 . S
C621 O635 1.268 . S
C622 O628 1.268 . S
C622 O637 1.268 . S
C623 O629 1.268 . S
C623 O633 1.268 . S
C624 O630 1.268 . S
C624 O632 1.268 . S
C625 O631 1.268 . S
C625 O634 1.268 . S
O626 Sc616 2.105 . S
O626 C620 1.268 . S
O627 Sc617 2.105 . S
O627 C621 1.268 . S
O628 Sc618 2.105 . S
O628 C622 1.268 . S
O629 Sc616 2.105 . S
O629 C623 1.268 . S
O630 Sc618 2.105 . S
O630 C624 1.268 . S
O631 Sc617 2.105 . S
O631 C625 1.268 . S
O632 Sc616 2.105 . S
O632 C624 1.268 . S
O633 Sc617 2.105 . S
O633 C623 1.268 . S
O634 Sc618 2.105 . S
O634 C625 1.268 . S
O635 Sc616 2.105 . S
O635 C621 1.268 . S
O636 Sc618 2.105 . S
O636 C620 1.268 . S
O637 Sc617 2.105 . S
O637 C622 1.268 . S
Sc638 O641 2.025 . S
Sc638 O648 2.105 . S
Sc638 O651 2.105 . S
Sc638 O654 2.105 . S
Sc638 O657 2.105 . S
Sc639 O641 2.025 . S
Sc639 O649 2.105 . S
Sc639 O653 2.105 . S
Sc639 O655 2.105 . S
Sc639 O659 2.105 . S
Sc640 O641 2.025 . S
Sc640 O650 2.105 . S
Sc640 O652 2.105 . S
Sc640 O656 2.105 . S
Sc640 O658 2.105 . S
O641 Sc638 2.025 . S
O641 Sc639 2.025 . S
O641 Sc640 2.025 . S
C642 O648 1.268 . S
C642 O658 1.268 . S
C643 O649 1.268 . S
C643 O657 1.268 . S
C644 O650 1.268 . S
C644 O659 1.268 . S
C645 O651 1.268 . S
C645 O655 1.268 . S
C646 O652 1.268 . S
C646 O654 1.268 . S
C647 O653 1.268 . S
C647 O656 1.268 . S
O648 Sc638 2.105 . S
O648 C642 1.268 . S
O649 Sc639 2.105 . S
O649 C643 1.268 . S
O650 Sc640 2.105 . S
O650 C644 1.268 . S
O651 Sc638 2.105 . S
O651 C645 1.268 . S
O652 Sc640 2.105 . S
O652 C646 1.268 . S
O653 Sc639 2.105 . S
O653 C647 1.268 . S
O654 Sc638 2.105 . S
O654 C646 1.268 . S
O655 Sc639 2.105 . S
O655 C645 1.268 . S
O656 Sc640 2.105 . S
O656 C647 1.268 . S
O657 Sc638 2.105 . S
O657 C643 1.268 . S
O658 Sc640 2.105 . S
O658 C642 1.268 . S
O659 Sc639 2.105 . S
O659 C644 1.268 . S
Sc660 O663 2.025 . S
Sc660 O670 2.105 . S
Sc660 O673 2.105 . S
Sc660 O676 2.105 . S
Sc660 O679 2.105 . S
Sc661 O663 2.025 . S
Sc661 O671 2.105 . S
Sc661 O675 2.105 . S
Sc661 O677 2.105 . S
Sc661 O681 2.105 . S
Sc662 O663 2.025 . S
Sc662 O672 2.105 . S
Sc662 O674 2.105 . S
Sc662 O678 2.105 . S
Sc662 O680 2.105 . S
O663 Sc660 2.025 . S
O663 Sc661 2.025 . S
O663 Sc662 2.025 . S
C664 O670 1.268 . S
C664 O680 1.268 . S
C665 O671 1.268 . S
C665 O679 1.268 . S
C666 O672 1.268 . S
C666 O681 1.268 . S
C667 O673 1.268 . S
C667 O677 1.268 . S
C668 O674 1.268 . S
C668 O676 1.268 . S
C669 O675 1.268 . S
C669 O678 1.268 . S
O670 Sc660 2.105 . S
O670 C664 1.268 . S
O671 Sc661 2.105 . S
O671 C665 1.268 . S
O672 Sc662 2.105 . S
O672 C666 1.268 . S
O673 Sc660 2.105 . S
O673 C667 1.268 . S
O674 Sc662 2.105 . S
O674 C668 1.268 . S
O675 Sc661 2.105 . S
O675 C669 1.268 . S
O676 Sc660 2.105 . S
O676 C668 1.268 . S
O677 Sc661 2.105 . S
O677 C667 1.268 . S
O678 Sc662 2.105 . S
O678 C669 1.268 . S
O679 Sc660 2.105 . S
O679 C665 1.268 . S
O680 Sc662 2.105 . S
O680 C664 1.268 . S
O681 Sc661 2.105 . S
O681 C666 1.268 . S
Sc682 O685 2.025 . S
Sc682 O692 2.105 . S
Sc682 O695 2.105 . S
Sc682 O698 2.105 . S
Sc682 O701 2.105 . S
Sc683 O685 2.025 . S
Sc683 O693 2.105 . S
Sc683 O697 2.105 . S
Sc683 O699 2.105 . S
Sc683 O703 2.105 . S
Sc684 O685 2.025 . S
Sc684 O694 2.105 . S
Sc684 O696 2.105 . S
Sc684 O700 2.105 . S
Sc684 O702 2.105 . S
O685 Sc682 2.025 . S
O685 Sc683 2.025 . S
O685 Sc684 2.025 . S
C686 O692 1.268 . S
C686 O702 1.268 . S
C687 O693 1.268 . S
C687 O701 1.268 . S
C688 O694 1.268 . S
C688 O703 1.268 . S
C689 O695 1.268 . S
C689 O699 1.268 . S
C690 O696 1.268 . S
C690 O698 1.268 . S
C691 O697 1.268 . S
C691 O700 1.268 . S
O692 Sc682 2.105 . S
O692 C686 1.268 . S
O693 Sc683 2.105 . S
O693 C687 1.268 . S
O694 Sc684 2.105 . S
O694 C688 1.268 . S
O695 Sc682 2.105 . S
O695 C689 1.268 . S
O696 Sc684 2.105 . S
O696 C690 1.268 . S
O697 Sc683 2.105 . S
O697 C691 1.268 . S
O698 Sc682 2.105 . S
O698 C690 1.268 . S
O699 Sc683 2.105 . S
O699 C689 1.268 . S
O700 Sc684 2.105 . S
O700 C691 1.268 . S
O701 Sc682 2.105 . S
O701 C687 1.268 . S
O702 Sc684 2.105 . S
O702 C686 1.268 . S
O703 Sc683 2.105 . S
O703 C688 1.268 . S
H704 C710 0.930 . S
H705 C714 0.930 . S
H706 C719 0.929 . S
H707 C717 0.929 . S
H708 C712 0.929 . S
H709 C718 0.929 . S
C710 H704 0.930 . S
C710 C711 1.367 . S
C710 C718 1.378 . S
C711 C710 1.367 . S
C711 C719 1.433 . S
C712 H708 0.929 . S
C712 C714 1.378 . S
C712 C716 1.350 . S
C713 C716 1.463 . S
C713 C718 1.350 . S
C713 N721 1.427 . S
C714 H705 0.930 . S
C714 C712 1.378 . S
C714 C715 1.367 . S
C715 C714 1.367 . S
C715 C717 1.433 . S
C716 C712 1.350 . S
C716 C713 1.463 . S
C716 N720 1.427 . S
C717 H707 0.929 . S
C717 C715 1.433 . S
C717 N720 1.384 . S
C718 H709 0.929 . S
C718 C710 1.378 . S
C718 C713 1.350 . S
C719 H706 0.929 . S
C719 C711 1.433 . S
C719 N721 1.384 . S
N720 C716 1.427 . S
N720 C717 1.384 . S
N721 C713 1.427 . S
N721 C719 1.384 . S
H722 C728 0.930 . S
H723 C732 0.930 . S
H724 C737 0.929 . S
H725 C735 0.929 . S
H726 C730 0.929 . S
H727 C736 0.929 . S
C728 H722 0.930 . S
C728 C729 1.367 . S
C728 C736 1.378 . S
C729 C728 1.367 . S
C729 C737 1.433 . S
C730 H726 0.929 . S
C730 C732 1.378 . S
C730 C734 1.350 . S
C731 C734 1.463 . S
C731 C736 1.350 . S
C731 N739 1.427 . S
C732 H723 0.930 . S
C732 C730 1.378 . S
C732 C733 1.367 . S
C733 C732 1.367 . S
C733 C735 1.433 . S
C734 C730 1.350 . S
C734 C731 1.463 . S
C734 N738 1.427 . S
C735 H725 0.929 . S
C735 C733 1.433 . S
C735 N738 1.384 . S
C736 H727 0.929 . S
C736 C728 1.378 . S
C736 C731 1.350 . S
C737 H724 0.929 . S
C737 C729 1.433 . S
C737 N739 1.384 . S
N738 C734 1.427 . S
N738 C735 1.384 . S
N739 C731 1.427 . S
N739 C737 1.384 . S
H740 C746 0.930 . S
H741 C750 0.930 . S
H742 C755 0.929 . S
H743 C753 0.929 . S
H744 C748 0.929 . S
H745 C754 0.929 . S
C746 H740 0.930 . S
C746 C747 1.367 . S
C746 C754 1.378 . S
C747 C746 1.367 . S
C747 C755 1.433 . S
C748 H744 0.929 . S
C748 C750 1.378 . S
C748 C752 1.350 . S
C749 C752 1.463 . S
C749 C754 1.350 . S
C749 N757 1.427 . S
C750 H741 0.930 . S
C750 C748 1.378 . S
C750 C751 1.367 . S
C751 C750 1.367 . S
C751 C753 1.433 . S
C752 C748 1.350 . S
C752 C749 1.463 . S
C752 N756 1.427 . S
C753 H743 0.929 . S
C753 C751 1.433 . S
C753 N756 1.384 . S
C754 H745 0.929 . S
C754 C746 1.378 . S
C754 C749 1.350 . S
C755 H742 0.929 . S
C755 C747 1.433 . S
C755 N757 1.384 . S
N756 C752 1.427 . S
N756 C753 1.384 . S
N757 C749 1.427 . S
N757 C755 1.384 . S
H758 C764 0.930 . S
H759 C768 0.930 . S
H760 C773 0.929 . S
H761 C771 0.929 . S
H762 C766 0.929 . S
H763 C772 0.929 . S
C764 H758 0.930 . S
C764 C765 1.367 . S
C764 C772 1.378 . S
C765 C764 1.367 . S
C765 C773 1.433 . S
C766 H762 0.929 . S
C766 C768 1.378 . S
C766 C770 1.350 . S
C767 C770 1.463 . S
C767 C772 1.350 . S
C767 N775 1.427 . S
C768 H759 0.930 . S
C768 C766 1.378 . S
C768 C769 1.367 . S
C769 C768 1.367 . S
C769 C771 1.433 . S
C770 C766 1.350 . S
C770 C767 1.463 . S
C770 N774 1.427 . S
C771 H761 0.929 . S
C771 C769 1.433 . S
C771 N774 1.384 . S
C772 H763 0.929 . S
C772 C764 1.378 . S
C772 C767 1.350 . S
C773 H760 0.929 . S
C773 C765 1.433 . S
C773 N775 1.384 . S
N774 C770 1.427 . S
N774 C771 1.384 . S
N775 C767 1.427 . S
N775 C773 1.384 . S
H776 C782 0.930 . S
H777 C786 0.930 . S
H778 C791 0.929 . S
H779 C789 0.929 . S
H780 C784 0.929 . S
H781 C790 0.929 . S
C782 H776 0.930 . S
C782 C783 1.367 . S
C782 C790 1.378 . S
C783 C782 1.367 . S
C783 C791 1.433 . S
C784 H780 0.929 . S
C784 C786 1.378 . S
C784 C788 1.350 . S
C785 C788 1.463 . S
C785 C790 1.350 . S
C785 N793 1.427 . S
C786 H777 0.930 . S
C786 C784 1.378 . S
C786 C787 1.367 . S
C787 C786 1.367 . S
C787 C789 1.433 . S
C788 C784 1.350 . S
C788 C785 1.463 . S
C788 N792 1.427 . S
C789 H779 0.929 . S
C789 C787 1.433 . S
C789 N792 1.384 . S
C790 H781 0.929 . S
C790 C782 1.378 . S
C790 C785 1.350 . S
C791 H778 0.929 . S
C791 C783 1.433 . S
C791 N793 1.384 . S
N792 C788 1.427 . S
N792 C789 1.384 . S
N793 C785 1.427 . S
N793 C791 1.384 . S
H794 C800 0.930 . S
H795 C804 0.930 . S
H796 C809 0.929 . S
H797 C807 0.929 . S
H798 C802 0.929 . S
H799 C808 0.929 . S
C800 H794 0.930 . S
C800 C801 1.367 . S
C800 C808 1.378 . S
C801 C800 1.367 . S
C801 C809 1.433 . S
C802 H798 0.929 . S
C802 C804 1.378 . S
C802 C806 1.350 . S
C803 C806 1.463 . S
C803 C808 1.350 . S
C803 N811 1.427 . S
C804 H795 0.930 . S
C804 C802 1.378 . S
C804 C805 1.367 . S
C805 C804 1.367 . S
C805 C807 1.433 . S
C806 C802 1.350 . S
C806 C803 1.463 . S
C806 N810 1.427 . S
C807 H797 0.929 . S
C807 C805 1.433 . S
C807 N810 1.384 . S
C808 H799 0.929 . S
C808 C800 1.378 . S
C808 C803 1.350 . S
C809 H796 0.929 . S
C809 C801 1.433 . S
C809 N811 1.384 . S
N810 C806 1.427 . S
N810 C807 1.384 . S
N811 C803 1.427 . S
N811 C809 1.384 . S
H812 C818 0.930 . S
H813 C822 0.930 . S
H814 C827 0.929 . S
H815 C825 0.929 . S
H816 C820 0.929 . S
H817 C826 0.929 . S
C818 H812 0.930 . S
C818 C819 1.367 . S
C818 C826 1.378 . S
C819 C818 1.367 . S
C819 C827 1.433 . S
C820 H816 0.929 . S
C820 C822 1.378 . S
C820 C824 1.350 . S
C821 C824 1.463 . S
C821 C826 1.350 . S
C821 N829 1.427 . S
C822 H813 0.930 . S
C822 C820 1.378 . S
C822 C823 1.367 . S
C823 C822 1.367 . S
C823 C825 1.433 . S
C824 C820 1.350 . S
C824 C821 1.463 . S
C824 N828 1.427 . S
C825 H815 0.929 . S
C825 C823 1.433 . S
C825 N828 1.384 . S
C826 H817 0.929 . S
C826 C818 1.378 . S
C826 C821 1.350 . S
C827 H814 0.929 . S
C827 C819 1.433 . S
C827 N829 1.384 . S
N828 C824 1.427 . S
N828 C825 1.384 . S
N829 C821 1.427 . S
N829 C827 1.384 . S
H830 C836 0.930 . S
H831 C840 0.930 . S
H832 C845 0.929 . S
H833 C843 0.929 . S
H834 C838 0.929 . S
H835 C844 0.929 . S
C836 H830 0.930 . S
C836 C837 1.367 . S
C836 C844 1.378 . S
C837 C836 1.367 . S
C837 C845 1.433 . S
C838 H834 0.929 . S
C838 C840 1.378 . S
C838 C842 1.350 . S
C839 C842 1.463 . S
C839 C844 1.350 . S
C839 N847 1.427 . S
C840 H831 0.930 . S
C840 C838 1.378 . S
C840 C841 1.367 . S
C841 C840 1.367 . S
C841 C843 1.433 . S
C842 C838 1.350 . S
C842 C839 1.463 . S
C842 N846 1.427 . S
C843 H833 0.929 . S
C843 C841 1.433 . S
C843 N846 1.384 . S
C844 H835 0.929 . S
C844 C836 1.378 . S
C844 C839 1.350 . S
C845 H832 0.929 . S
C845 C837 1.433 . S
C845 N847 1.384 . S
N846 C842 1.427 . S
N846 C843 1.384 . S
N847 C839 1.427 . S
N847 C845 1.384 . S
H848 C854 0.930 . S
H849 C858 0.930 . S
H850 C863 0.929 . S
H851 C861 0.929 . S
H852 C856 0.929 . S
H853 C862 0.929 . S
C854 H848 0.930 . S
C854 C855 1.367 . S
C854 C862 1.378 . S
C855 C854 1.367 . S
C855 C863 1.433 . S
C856 H852 0.929 . S
C856 C858 1.378 . S
C856 C860 1.350 . S
C857 C860 1.463 . S
C857 C862 1.350 . S
C857 N865 1.427 . S
C858 H849 0.930 . S
C858 C856 1.378 . S
C858 C859 1.367 . S
C859 C858 1.367 . S
C859 C861 1.433 . S
C860 C856 1.350 . S
C860 C857 1.463 . S
C860 N864 1.427 . S
C861 H851 0.929 . S
C861 C859 1.433 . S
C861 N864 1.384 . S
C862 H853 0.929 . S
C862 C854 1.378 . S
C862 C857 1.350 . S
C863 H850 0.929 . S
C863 C855 1.433 . S
C863 N865 1.384 . S
N864 C860 1.427 . S
N864 C861 1.384 . S
N865 C857 1.427 . S
N865 C863 1.384 . S
H866 C872 0.930 . S
H867 C876 0.930 . S
H868 C881 0.929 . S
H869 C879 0.929 . S
H870 C874 0.929 . S
H871 C880 0.929 . S
C872 H866 0.930 . S
C872 C873 1.367 . S
C872 C880 1.378 . S
C873 C872 1.367 . S
C873 C881 1.433 . S
C874 H870 0.929 . S
C874 C876 1.378 . S
C874 C878 1.350 . S
C875 C878 1.463 . S
C875 C880 1.350 . S
C875 N883 1.427 . S
C876 H867 0.930 . S
C876 C874 1.378 . S
C876 C877 1.367 . S
C877 C876 1.367 . S
C877 C879 1.433 . S
C878 C874 1.350 . S
C878 C875 1.463 . S
C878 N882 1.427 . S
C879 H869 0.929 . S
C879 C877 1.433 . S
C879 N882 1.384 . S
C880 H871 0.929 . S
C880 C872 1.378 . S
C880 C875 1.350 . S
C881 H868 0.929 . S
C881 C873 1.433 . S
C881 N883 1.384 . S
N882 C878 1.427 . S
N882 C879 1.384 . S
N883 C875 1.427 . S
N883 C881 1.384 . S
H884 C890 0.930 . S
H885 C894 0.930 . S
H886 C899 0.929 . S
H887 C897 0.929 . S
H888 C892 0.929 . S
H889 C898 0.929 . S
C890 H884 0.930 . S
C890 C891 1.367 . S
C890 C898 1.378 . S
C891 C890 1.367 . S
C891 C899 1.433 . S
C892 H888 0.929 . S
C892 C894 1.378 . S
C892 C896 1.350 . S
C893 C896 1.463 . S
C893 C898 1.350 . S
C893 N901 1.427 . S
C894 H885 0.930 . S
C894 C892 1.378 . S
C894 C895 1.367 . S
C895 C894 1.367 . S
C895 C897 1.433 . S
C896 C892 1.350 . S
C896 C893 1.463 . S
C896 N900 1.427 . S
C897 H887 0.929 . S
C897 C895 1.433 . S
C897 N900 1.384 . S
C898 H889 0.929 . S
C898 C890 1.378 . S
C898 C893 1.350 . S
C899 H886 0.929 . S
C899 C891 1.433 . S
C899 N901 1.384 . S
N900 C896 1.427 . S
N900 C897 1.384 . S
N901 C893 1.427 . S
N901 C899 1.384 . S
H902 C908 0.930 . S
H903 C912 0.930 . S
H904 C917 0.929 . S
H905 C915 0.929 . S
H906 C910 0.929 . S
H907 C916 0.929 . S
C908 H902 0.930 . S
C908 C909 1.367 . S
C908 C916 1.378 . S
C909 C908 1.367 . S
C909 C917 1.433 . S
C910 H906 0.929 . S
C910 C912 1.378 . S
C910 C914 1.350 . S
C911 C914 1.463 . S
C911 C916 1.350 . S
C911 N919 1.427 . S
C912 H903 0.930 . S
C912 C910 1.378 . S
C912 C913 1.367 . S
C913 C912 1.367 . S
C913 C915 1.433 . S
C914 C910 1.350 . S
C914 C911 1.463 . S
C914 N918 1.427 . S
C915 H905 0.929 . S
C915 C913 1.433 . S
C915 N918 1.384 . S
C916 H907 0.929 . S
C916 C908 1.378 . S
C916 C911 1.350 . S
C917 H904 0.929 . S
C917 C909 1.433 . S
C917 N919 1.384 . S
N918 C914 1.427 . S
N918 C915 1.384 . S
N919 C911 1.427 . S
N919 C917 1.384 . S
H920 C926 0.930 . S
H921 C930 0.930 . S
H922 C935 0.929 . S
H923 C933 0.929 . S
H924 C928 0.929 . S
H925 C934 0.929 . S
C926 H920 0.930 . S
C926 C927 1.367 . S
C926 C934 1.378 . S
C927 C926 1.367 . S
C927 C935 1.433 . S
C928 H924 0.929 . S
C928 C930 1.378 . S
C928 C932 1.350 . S
C929 C932 1.463 . S
C929 C934 1.350 . S
C929 N937 1.427 . S
C930 H921 0.930 . S
C930 C928 1.378 . S
C930 C931 1.367 . S
C931 C930 1.367 . S
C931 C933 1.433 . S
C932 C928 1.350 . S
C932 C929 1.463 . S
C932 N936 1.427 . S
C933 H923 0.929 . S
C933 C931 1.433 . S
C933 N936 1.384 . S
C934 H925 0.929 . S
C934 C926 1.378 . S
C934 C929 1.350 . S
C935 H922 0.929 . S
C935 C927 1.433 . S
C935 N937 1.384 . S
N936 C932 1.427 . S
N936 C933 1.384 . S
N937 C929 1.427 . S
N937 C935 1.384 . S
H938 C944 0.930 . S
H939 C948 0.930 . S
H940 C953 0.929 . S
H941 C951 0.929 . S
H942 C946 0.929 . S
H943 C952 0.929 . S
C944 H938 0.930 . S
C944 C945 1.367 . S
C944 C952 1.378 . S
C945 C944 1.367 . S
C945 C953 1.433 . S
C946 H942 0.929 . S
C946 C948 1.378 . S
C946 C950 1.350 . S
C947 C950 1.463 . S
C947 C952 1.350 . S
C947 N955 1.427 . S
C948 H939 0.930 . S
C948 C946 1.378 . S
C948 C949 1.367 . S
C949 C948 1.367 . S
C949 C951 1.433 . S
C950 C946 1.350 . S
C950 C947 1.463 . S
C950 N954 1.427 . S
C951 H941 0.929 . S
C951 C949 1.433 . S
C951 N954 1.384 . S
C952 H943 0.929 . S
C952 C944 1.378 . S
C952 C947 1.350 . S
C953 H940 0.929 . S
C953 C945 1.433 . S
C953 N955 1.384 . S
N954 C950 1.427 . S
N954 C951 1.384 . S
N955 C947 1.427 . S
N955 C953 1.384 . S
H956 C962 0.930 . S
H957 C966 0.930 . S
H958 C971 0.929 . S
H959 C969 0.929 . S
H960 C964 0.929 . S
H961 C970 0.929 . S
C962 H956 0.930 . S
C962 C963 1.367 . S
C962 C970 1.378 . S
C963 C962 1.367 . S
C963 C971 1.433 . S
C964 H960 0.929 . S
C964 C966 1.378 . S
C964 C968 1.350 . S
C965 C968 1.463 . S
C965 C970 1.350 . S
C965 N973 1.427 . S
C966 H957 0.930 . S
C966 C964 1.378 . S
C966 C967 1.367 . S
C967 C966 1.367 . S
C967 C969 1.433 . S
C968 C964 1.350 . S
C968 C965 1.463 . S
C968 N972 1.427 . S
C969 H959 0.929 . S
C969 C967 1.433 . S
C969 N972 1.384 . S
C970 H961 0.929 . S
C970 C962 1.378 . S
C970 C965 1.350 . S
C971 H958 0.929 . S
C971 C963 1.433 . S
C971 N973 1.384 . S
N972 C968 1.427 . S
N972 C969 1.384 . S
N973 C965 1.427 . S
N973 C971 1.384 . S
H974 C980 0.930 . S
H975 C984 0.930 . S
H976 C989 0.929 . S
H977 C987 0.929 . S
H978 C982 0.929 . S
H979 C988 0.929 . S
C980 H974 0.930 . S
C980 C981 1.367 . S
C980 C988 1.378 . S
C981 C980 1.367 . S
C981 C989 1.433 . S
C982 H978 0.929 . S
C982 C984 1.378 . S
C982 C986 1.350 . S
C983 C986 1.463 . S
C983 C988 1.350 . S
C983 N991 1.427 . S
C984 H975 0.930 . S
C984 C982 1.378 . S
C984 C985 1.367 . S
C985 C984 1.367 . S
C985 C987 1.433 . S
C986 C982 1.350 . S
C986 C983 1.463 . S
C986 N990 1.427 . S
C987 H977 0.929 . S
C987 C985 1.433 . S
C987 N990 1.384 . S
C988 H979 0.929 . S
C988 C980 1.378 . S
C988 C983 1.350 . S
C989 H976 0.929 . S
C989 C981 1.433 . S
C989 N991 1.384 . S
N990 C986 1.427 . S
N990 C987 1.384 . S
N991 C983 1.427 . S
N991 C989 1.384 . S
H992 C998 0.930 . S
H993 C1002 0.930 . S
H994 C1007 0.929 . S
H995 C1005 0.929 . S
H996 C1000 0.929 . S
H997 C1006 0.929 . S
C998 H992 0.930 . S
C998 C999 1.367 . S
C998 C1006 1.378 . S
C999 C998 1.367 . S
C999 C1007 1.433 . S
C1000 H996 0.929 . S
C1000 C1002 1.378 . S
C1000 C1004 1.350 . S
C1001 C1004 1.463 . S
C1001 C1006 1.350 . S
C1001 N1009 1.427 . S
C1002 H993 0.930 . S
C1002 C1000 1.378 . S
C1002 C1003 1.367 . S
C1003 C1002 1.367 . S
C1003 C1005 1.433 . S
C1004 C1000 1.350 . S
C1004 C1001 1.463 . S
C1004 N1008 1.427 . S
C1005 H995 0.929 . S
C1005 C1003 1.433 . S
C1005 N1008 1.384 . S
C1006 H997 0.929 . S
C1006 C998 1.378 . S
C1006 C1001 1.350 . S
C1007 H994 0.929 . S
C1007 C999 1.433 . S
C1007 N1009 1.384 . S
N1008 C1004 1.427 . S
N1008 C1005 1.384 . S
N1009 C1001 1.427 . S
N1009 C1007 1.384 . S
H1010 C1016 0.930 . S
H1011 C1020 0.930 . S
H1012 C1025 0.929 . S
H1013 C1023 0.929 . S
H1014 C1018 0.929 . S
H1015 C1024 0.929 . S
C1016 H1010 0.930 . S
C1016 C1017 1.367 . S
C1016 C1024 1.378 . S
C1017 C1016 1.367 . S
C1017 C1025 1.433 . S
C1018 H1014 0.929 . S
C1018 C1020 1.378 . S
C1018 C1022 1.350 . S
C1019 C1022 1.463 . S
C1019 C1024 1.350 . S
C1019 N1027 1.427 . S
C1020 H1011 0.930 . S
C1020 C1018 1.378 . S
C1020 C1021 1.367 . S
C1021 C1020 1.367 . S
C1021 C1023 1.433 . S
C1022 C1018 1.350 . S
C1022 C1019 1.463 . S
C1022 N1026 1.427 . S
C1023 H1013 0.929 . S
C1023 C1021 1.433 . S
C1023 N1026 1.384 . S
C1024 H1015 0.929 . S
C1024 C1016 1.378 . S
C1024 C1019 1.350 . S
C1025 H1012 0.929 . S
C1025 C1017 1.433 . S
C1025 N1027 1.384 . S
N1026 C1022 1.427 . S
N1026 C1023 1.384 . S
N1027 C1019 1.427 . S
N1027 C1025 1.384 . S
H1028 C1034 0.930 . S
H1029 C1038 0.930 . S
H1030 C1043 0.929 . S
H1031 C1041 0.929 . S
H1032 C1036 0.929 . S
H1033 C1042 0.929 . S
C1034 H1028 0.930 . S
C1034 C1035 1.367 . S
C1034 C1042 1.378 . S
C1035 C1034 1.367 . S
C1035 C1043 1.433 . S
C1036 H1032 0.929 . S
C1036 C1038 1.378 . S
C1036 C1040 1.350 . S
C1037 C1040 1.463 . S
C1037 C1042 1.350 . S
C1037 N1045 1.427 . S
C1038 H1029 0.930 . S
C1038 C1036 1.378 . S
C1038 C1039 1.367 . S
C1039 C1038 1.367 . S
C1039 C1041 1.433 . S
C1040 C1036 1.350 . S
C1040 C1037 1.463 . S
C1040 N1044 1.427 . S
C1041 H1031 0.929 . S
C1041 C1039 1.433 . S
C1041 N1044 1.384 . S
C1042 H1033 0.929 . S
C1042 C1034 1.378 . S
C1042 C1037 1.350 . S
C1043 H1030 0.929 . S
C1043 C1035 1.433 . S
C1043 N1045 1.384 . S
N1044 C1040 1.427 . S
N1044 C1041 1.384 . S
N1045 C1037 1.427 . S
N1045 C1043 1.384 . S
H1046 C1052 0.930 . S
H1047 C1056 0.930 . S
H1048 C1061 0.929 . S
H1049 C1059 0.929 . S
H1050 C1054 0.929 . S
H1051 C1060 0.929 . S
C1052 H1046 0.930 . S
C1052 C1053 1.367 . S
C1052 C1060 1.378 . S
C1053 C1052 1.367 . S
C1053 C1061 1.433 . S
C1054 H1050 0.929 . S
C1054 C1056 1.378 . S
C1054 C1058 1.350 . S
C1055 C1058 1.463 . S
C1055 C1060 1.350 . S
C1055 N1063 1.427 . S
C1056 H1047 0.930 . S
C1056 C1054 1.378 . S
C1056 C1057 1.367 . S
C1057 C1056 1.367 . S
C1057 C1059 1.433 . S
C1058 C1054 1.350 . S
C1058 C1055 1.463 . S
C1058 N1062 1.427 . S
C1059 H1049 0.929 . S
C1059 C1057 1.433 . S
C1059 N1062 1.384 . S
C1060 H1051 0.929 . S
C1060 C1052 1.378 . S
C1060 C1055 1.350 . S
C1061 H1048 0.929 . S
C1061 C1053 1.433 . S
C1061 N1063 1.384 . S
N1062 C1058 1.427 . S
N1062 C1059 1.384 . S
N1063 C1055 1.427 . S
N1063 C1061 1.384 . S
H1064 C1070 0.930 . S
H1065 C1074 0.930 . S
H1066 C1079 0.929 . S
H1067 C1077 0.929 . S
H1068 C1072 0.929 . S
H1069 C1078 0.929 . S
C1070 H1064 0.930 . S
C1070 C1071 1.367 . S
C1070 C1078 1.378 . S
C1071 C1070 1.367 . S
C1071 C1079 1.433 . S
C1072 H1068 0.929 . S
C1072 C1074 1.378 . S
C1072 C1076 1.350 . S
C1073 C1076 1.463 . S
C1073 C1078 1.350 . S
C1073 N1081 1.427 . S
C1074 H1065 0.930 . S
C1074 C1072 1.378 . S
C1074 C1075 1.367 . S
C1075 C1074 1.367 . S
C1075 C1077 1.433 . S
C1076 C1072 1.350 . S
C1076 C1073 1.463 . S
C1076 N1080 1.427 . S
C1077 H1067 0.929 . S
C1077 C1075 1.433 . S
C1077 N1080 1.384 . S
C1078 H1069 0.929 . S
C1078 C1070 1.378 . S
C1078 C1073 1.350 . S
C1079 H1066 0.929 . S
C1079 C1071 1.433 . S
C1079 N1081 1.384 . S
N1080 C1076 1.427 . S
N1080 C1077 1.384 . S
N1081 C1073 1.427 . S
N1081 C1079 1.384 . S
H1082 C1088 0.930 . S
H1083 C1092 0.930 . S
H1084 C1097 0.929 . S
H1085 C1095 0.929 . S
H1086 C1090 0.929 . S
H1087 C1096 0.929 . S
C1088 H1082 0.930 . S
C1088 C1089 1.367 . S
C1088 C1096 1.378 . S
C1089 C1088 1.367 . S
C1089 C1097 1.433 . S
C1090 H1086 0.929 . S
C1090 C1092 1.378 . S
C1090 C1094 1.350 . S
C1091 C1094 1.463 . S
C1091 C1096 1.350 . S
C1091 N1099 1.427 . S
C1092 H1083 0.930 . S
C1092 C1090 1.378 . S
C1092 C1093 1.367 . S
C1093 C1092 1.367 . S
C1093 C1095 1.433 . S
C1094 C1090 1.350 . S
C1094 C1091 1.463 . S
C1094 N1098 1.427 . S
C1095 H1085 0.929 . S
C1095 C1093 1.433 . S
C1095 N1098 1.384 . S
C1096 H1087 0.929 . S
C1096 C1088 1.378 . S
C1096 C1091 1.350 . S
C1097 H1084 0.929 . S
C1097 C1089 1.433 . S
C1097 N1099 1.384 . S
N1098 C1094 1.427 . S
N1098 C1095 1.384 . S
N1099 C1091 1.427 . S
N1099 C1097 1.384 . S
H1100 C1106 0.930 . S
H1101 C1110 0.930 . S
H1102 C1115 0.929 . S
H1103 C1113 0.929 . S
H1104 C1108 0.929 . S
H1105 C1114 0.929 . S
C1106 H1100 0.930 . S
C1106 C1107 1.367 . S
C1106 C1114 1.378 . S
C1107 C1106 1.367 . S
C1107 C1115 1.433 . S
C1108 H1104 0.929 . S
C1108 C1110 1.378 . S
C1108 C1112 1.350 . S
C1109 C1112 1.463 . S
C1109 C1114 1.350 . S
C1109 N1117 1.427 . S
C1110 H1101 0.930 . S
C1110 C1108 1.378 . S
C1110 C1111 1.367 . S
C1111 C1110 1.367 . S
C1111 C1113 1.433 . S
C1112 C1108 1.350 . S
C1112 C1109 1.463 . S
C1112 N1116 1.427 . S
C1113 H1103 0.929 . S
C1113 C1111 1.433 . S
C1113 N1116 1.384 . S
C1114 H1105 0.929 . S
C1114 C1106 1.378 . S
C1114 C1109 1.350 . S
C1115 H1102 0.929 . S
C1115 C1107 1.433 . S
C1115 N1117 1.384 . S
N1116 C1112 1.427 . S
N1116 C1113 1.384 . S
N1117 C1109 1.427 . S
N1117 C1115 1.384 . S
H1118 C1124 0.930 . S
H1119 C1128 0.930 . S
H1120 C1133 0.929 . S
H1121 C1131 0.929 . S
H1122 C1126 0.929 . S
H1123 C1132 0.929 . S
C1124 H1118 0.930 . S
C1124 C1125 1.367 . S
C1124 C1132 1.378 . S
C1125 C1124 1.367 . S
C1125 C1133 1.433 . S
C1126 H1122 0.929 . S
C1126 C1128 1.378 . S
C1126 C1130 1.350 . S
C1127 C1130 1.463 . S
C1127 C1132 1.350 . S
C1127 N1135 1.427 . S
C1128 H1119 0.930 . S
C1128 C1126 1.378 . S
C1128 C1129 1.367 . S
C1129 C1128 1.367 . S
C1129 C1131 1.433 . S
C1130 C1126 1.350 . S
C1130 C1127 1.463 . S
C1130 N1134 1.427 . S
C1131 H1121 0.929 . S
C1131 C1129 1.433 . S
C1131 N1134 1.384 . S
C1132 H1123 0.929 . S
C1132 C1124 1.378 . S
C1132 C1127 1.350 . S
C1133 H1120 0.929 . S
C1133 C1125 1.433 . S
C1133 N1135 1.384 . S
N1134 C1130 1.427 . S
N1134 C1131 1.384 . S
N1135 C1127 1.427 . S
N1135 C1133 1.384 . S
H1136 C1142 0.930 . S
H1137 C1146 0.930 . S
H1138 C1151 0.929 . S
H1139 C1149 0.929 . S
H1140 C1144 0.929 . S
H1141 C1150 0.929 . S
C1142 H1136 0.930 . S
C1142 C1143 1.367 . S
C1142 C1150 1.378 . S
C1143 C1142 1.367 . S
C1143 C1151 1.433 . S
C1144 H1140 0.929 . S
C1144 C1146 1.378 . S
C1144 C1148 1.350 . S
C1145 C1148 1.463 . S
C1145 C1150 1.350 . S
C1145 N1153 1.427 . S
C1146 H1137 0.930 . S
C1146 C1144 1.378 . S
C1146 C1147 1.367 . S
C1147 C1146 1.367 . S
C1147 C1149 1.433 . S
C1148 C1144 1.350 . S
C1148 C1145 1.463 . S
C1148 N1152 1.427 . S
C1149 H1139 0.929 . S
C1149 C1147 1.433 . S
C1149 N1152 1.384 . S
C1150 H1141 0.929 . S
C1150 C1142 1.378 . S
C1150 C1145 1.350 . S
C1151 H1138 0.929 . S
C1151 C1143 1.433 . S
C1151 N1153 1.384 . S
N1152 C1148 1.427 . S
N1152 C1149 1.384 . S
N1153 C1145 1.427 . S
N1153 C1151 1.384 . S
H1154 C1160 0.930 . S
H1155 C1164 0.930 . S
H1156 C1169 0.929 . S
H1157 C1167 0.929 . S
H1158 C1162 0.929 . S
H1159 C1168 0.929 . S
C1160 H1154 0.930 . S
C1160 C1161 1.367 . S
C1160 C1168 1.378 . S
C1161 C1160 1.367 . S
C1161 C1169 1.433 . S
C1162 H1158 0.929 . S
C1162 C1164 1.378 . S
C1162 C1166 1.350 . S
C1163 C1166 1.463 . S
C1163 C1168 1.350 . S
C1163 N1171 1.427 . S
C1164 H1155 0.930 . S
C1164 C1162 1.378 . S
C1164 C1165 1.367 . S
C1165 C1164 1.367 . S
C1165 C1167 1.433 . S
C1166 C1162 1.350 . S
C1166 C1163 1.463 . S
C1166 N1170 1.427 . S
C1167 H1157 0.929 . S
C1167 C1165 1.433 . S
C1167 N1170 1.384 . S
C1168 H1159 0.929 . S
C1168 C1160 1.378 . S
C1168 C1163 1.350 . S
C1169 H1156 0.929 . S
C1169 C1161 1.433 . S
C1169 N1171 1.384 . S
N1170 C1166 1.427 . S
N1170 C1167 1.384 . S
N1171 C1163 1.427 . S
N1171 C1169 1.384 . S
H1172 C1178 0.930 . S
H1173 C1182 0.930 . S
H1174 C1187 0.929 . S
H1175 C1185 0.929 . S
H1176 C1180 0.929 . S
H1177 C1186 0.929 . S
C1178 H1172 0.930 . S
C1178 C1179 1.367 . S
C1178 C1186 1.378 . S
C1179 C1178 1.367 . S
C1179 C1187 1.433 . S
C1180 H1176 0.929 . S
C1180 C1182 1.378 . S
C1180 C1184 1.350 . S
C1181 C1184 1.463 . S
C1181 C1186 1.350 . S
C1181 N1189 1.427 . S
C1182 H1173 0.930 . S
C1182 C1180 1.378 . S
C1182 C1183 1.367 . S
C1183 C1182 1.367 . S
C1183 C1185 1.433 . S
C1184 C1180 1.350 . S
C1184 C1181 1.463 . S
C1184 N1188 1.427 . S
C1185 H1175 0.929 . S
C1185 C1183 1.433 . S
C1185 N1188 1.384 . S
C1186 H1177 0.929 . S
C1186 C1178 1.378 . S
C1186 C1181 1.350 . S
C1187 H1174 0.929 . S
C1187 C1179 1.433 . S
C1187 N1189 1.384 . S
N1188 C1184 1.427 . S
N1188 C1185 1.384 . S
N1189 C1181 1.427 . S
N1189 C1187 1.384 . S
H1190 C1196 0.930 . S
H1191 C1200 0.930 . S
H1192 C1205 0.929 . S
H1193 C1203 0.929 . S
H1194 C1198 0.929 . S
H1195 C1204 0.929 . S
C1196 H1190 0.930 . S
C1196 C1197 1.367 . S
C1196 C1204 1.378 . S
C1197 C1196 1.367 . S
C1197 C1205 1.433 . S
C1198 H1194 0.929 . S
C1198 C1200 1.378 . S
C1198 C1202 1.350 . S
C1199 C1202 1.463 . S
C1199 C1204 1.350 . S
C1199 N1207 1.427 . S
C1200 H1191 0.930 . S
C1200 C1198 1.378 . S
C1200 C1201 1.367 . S
C1201 C1200 1.367 . S
C1201 C1203 1.433 . S
C1202 C1198 1.350 . S
C1202 C1199 1.463 . S
C1202 N1206 1.427 . S
C1203 H1193 0.929 . S
C1203 C1201 1.433 . S
C1203 N1206 1.384 . S
C1204 H1195 0.929 . S
C1204 C1196 1.378 . S
C1204 C1199 1.350 . S
C1205 H1192 0.929 . S
C1205 C1197 1.433 . S
C1205 N1207 1.384 . S
N1206 C1202 1.427 . S
N1206 C1203 1.384 . S
N1207 C1199 1.427 . S
N1207 C1205 1.384 . S
H1208 C1214 0.930 . S
H1209 C1218 0.930 . S
H1210 C1223 0.929 . S
H1211 C1221 0.929 . S
H1212 C1216 0.929 . S
H1213 C1222 0.929 . S
C1214 H1208 0.930 . S
C1214 C1215 1.367 . S
C1214 C1222 1.378 . S
C1215 C1214 1.367 . S
C1215 C1223 1.433 . S
C1216 H1212 0.929 . S
C1216 C1218 1.378 . S
C1216 C1220 1.350 . S
C1217 C1220 1.463 . S
C1217 C1222 1.350 . S
C1217 N1225 1.427 . S
C1218 H1209 0.930 . S
C1218 C1216 1.378 . S
C1218 C1219 1.367 . S
C1219 C1218 1.367 . S
C1219 C1221 1.433 . S
C1220 C1216 1.350 . S
C1220 C1217 1.463 . S
C1220 N1224 1.427 . S
C1221 H1211 0.929 . S
C1221 C1219 1.433 . S
C1221 N1224 1.384 . S
C1222 H1213 0.929 . S
C1222 C1214 1.378 . S
C1222 C1217 1.350 . S
C1223 H1210 0.929 . S
C1223 C1215 1.433 . S
C1223 N1225 1.384 . S
N1224 C1220 1.427 . S
N1224 C1221 1.384 . S
N1225 C1217 1.427 . S
N1225 C1223 1.384 . S
H1226 C1232 0.930 . S
H1227 C1236 0.930 . S
H1228 C1241 0.929 . S
H1229 C1239 0.929 . S
H1230 C1234 0.929 . S
H1231 C1240 0.929 . S
C1232 H1226 0.930 . S
C1232 C1233 1.367 . S
C1232 C1240 1.378 . S
C1233 C1232 1.367 . S
C1233 C1241 1.433 . S
C1234 H1230 0.929 . S
C1234 C1236 1.378 . S
C1234 C1238 1.350 . S
C1235 C1238 1.463 . S
C1235 C1240 1.350 . S
C1235 N1243 1.427 . S
C1236 H1227 0.930 . S
C1236 C1234 1.378 . S
C1236 C1237 1.367 . S
C1237 C1236 1.367 . S
C1237 C1239 1.433 . S
C1238 C1234 1.350 . S
C1238 C1235 1.463 . S
C1238 N1242 1.427 . S
C1239 H1229 0.929 . S
C1239 C1237 1.433 . S
C1239 N1242 1.384 . S
C1240 H1231 0.929 . S
C1240 C1232 1.378 . S
C1240 C1235 1.350 . S
C1241 H1228 0.929 . S
C1241 C1233 1.433 . S
C1241 N1243 1.384 . S
N1242 C1238 1.427 . S
N1242 C1239 1.384 . S
N1243 C1235 1.427 . S
N1243 C1241 1.384 . S
H1244 C1250 0.930 . S
H1245 C1254 0.930 . S
H1246 C1259 0.929 . S
H1247 C1257 0.929 . S
H1248 C1252 0.929 . S
H1249 C1258 0.929 . S
C1250 H1244 0.930 . S
C1250 C1251 1.367 . S
C1250 C1258 1.378 . S
C1251 C1250 1.367 . S
C1251 C1259 1.433 . S
C1252 H1248 0.929 . S
C1252 C1254 1.378 . S
C1252 C1256 1.350 . S
C1253 C1256 1.463 . S
C1253 C1258 1.350 . S
C1253 N1261 1.427 . S
C1254 H1245 0.930 . S
C1254 C1252 1.378 . S
C1254 C1255 1.367 . S
C1255 C1254 1.367 . S
C1255 C1257 1.433 . S
C1256 C1252 1.350 . S
C1256 C1253 1.463 . S
C1256 N1260 1.427 . S
C1257 H1247 0.929 . S
C1257 C1255 1.433 . S
C1257 N1260 1.384 . S
C1258 H1249 0.929 . S
C1258 C1250 1.378 . S
C1258 C1253 1.350 . S
C1259 H1246 0.929 . S
C1259 C1251 1.433 . S
C1259 N1261 1.384 . S
N1260 C1256 1.427 . S
N1260 C1257 1.384 . S
N1261 C1253 1.427 . S
N1261 C1259 1.384 . S
H1262 C1268 0.930 . S
H1263 C1272 0.930 . S
H1264 C1277 0.929 . S
H1265 C1275 0.929 . S
H1266 C1270 0.929 . S
H1267 C1276 0.929 . S
C1268 H1262 0.930 . S
C1268 C1269 1.367 . S
C1268 C1276 1.378 . S
C1269 C1268 1.367 . S
C1269 C1277 1.433 . S
C1270 H1266 0.929 . S
C1270 C1272 1.378 . S
C1270 C1274 1.350 . S
C1271 C1274 1.463 . S
C1271 C1276 1.350 . S
C1271 N1279 1.427 . S
C1272 H1263 0.930 . S
C1272 C1270 1.378 . S
C1272 C1273 1.367 . S
C1273 C1272 1.367 . S
C1273 C1275 1.433 . S
C1274 C1270 1.350 . S
C1274 C1271 1.463 . S
C1274 N1278 1.427 . S
C1275 H1265 0.929 . S
C1275 C1273 1.433 . S
C1275 N1278 1.384 . S
C1276 H1267 0.929 . S
C1276 C1268 1.378 . S
C1276 C1271 1.350 . S
C1277 H1264 0.929 . S
C1277 C1269 1.433 . S
C1277 N1279 1.384 . S
N1278 C1274 1.427 . S
N1278 C1275 1.384 . S
N1279 C1271 1.427 . S
N1279 C1277 1.384 . S
H1280 C1286 0.930 . S
H1281 C1290 0.930 . S
H1282 C1295 0.929 . S
H1283 C1293 0.929 . S
H1284 C1288 0.929 . S
H1285 C1294 0.929 . S
C1286 H1280 0.930 . S
C1286 C1287 1.367 . S
C1286 C1294 1.378 . S
C1287 C1286 1.367 . S
C1287 C1295 1.433 . S
C1288 H1284 0.929 . S
C1288 C1290 1.378 . S
C1288 C1292 1.350 . S
C1289 C1292 1.463 . S
C1289 C1294 1.350 . S
C1289 N1297 1.427 . S
C1290 H1281 0.930 . S
C1290 C1288 1.378 . S
C1290 C1291 1.367 . S
C1291 C1290 1.367 . S
C1291 C1293 1.433 . S
C1292 C1288 1.350 . S
C1292 C1289 1.463 . S
C1292 N1296 1.427 . S
C1293 H1283 0.929 . S
C1293 C1291 1.433 . S
C1293 N1296 1.384 . S
C1294 H1285 0.929 . S
C1294 C1286 1.378 . S
C1294 C1289 1.350 . S
C1295 H1282 0.929 . S
C1295 C1287 1.433 . S
C1295 N1297 1.384 . S
N1296 C1292 1.427 . S
N1296 C1293 1.384 . S
N1297 C1289 1.427 . S
N1297 C1295 1.384 . S
H1298 C1304 0.930 . S
H1299 C1308 0.930 . S
H1300 C1313 0.929 . S
H1301 C1311 0.929 . S
H1302 C1306 0.929 . S
H1303 C1312 0.929 . S
C1304 H1298 0.930 . S
C1304 C1305 1.367 . S
C1304 C1312 1.378 . S
C1305 C1304 1.367 . S
C1305 C1313 1.433 . S
C1306 H1302 0.929 . S
C1306 C1308 1.378 . S
C1306 C1310 1.350 . S
C1307 C1310 1.463 . S
C1307 C1312 1.350 . S
C1307 N1315 1.427 . S
C1308 H1299 0.930 . S
C1308 C1306 1.378 . S
C1308 C1309 1.367 . S
C1309 C1308 1.367 . S
C1309 C1311 1.433 . S
C1310 C1306 1.350 . S
C1310 C1307 1.463 . S
C1310 N1314 1.427 . S
C1311 H1301 0.929 . S
C1311 C1309 1.433 . S
C1311 N1314 1.384 . S
C1312 H1303 0.929 . S
C1312 C1304 1.378 . S
C1312 C1307 1.350 . S
C1313 H1300 0.929 . S
C1313 C1305 1.433 . S
C1313 N1315 1.384 . S
N1314 C1310 1.427 . S
N1314 C1311 1.384 . S
N1315 C1307 1.427 . S
N1315 C1313 1.384 . S
H1316 C1322 0.930 . S
H1317 C1326 0.930 . S
H1318 C1331 0.929 . S
H1319 C1329 0.929 . S
H1320 C1324 0.929 . S
H1321 C1330 0.929 . S
C1322 H1316 0.930 . S
C1322 C1323 1.367 . S
C1322 C1330 1.378 . S
C1323 C1322 1.367 . S
C1323 C1331 1.433 . S
C1324 H1320 0.929 . S
C1324 C1326 1.378 . S
C1324 C1328 1.350 . S
C1325 C1328 1.463 . S
C1325 C1330 1.350 . S
C1325 N1333 1.427 . S
C1326 H1317 0.930 . S
C1326 C1324 1.378 . S
C1326 C1327 1.367 . S
C1327 C1326 1.367 . S
C1327 C1329 1.433 . S
C1328 C1324 1.350 . S
C1328 C1325 1.463 . S
C1328 N1332 1.427 . S
C1329 H1319 0.929 . S
C1329 C1327 1.433 . S
C1329 N1332 1.384 . S
C1330 H1321 0.929 . S
C1330 C1322 1.378 . S
C1330 C1325 1.350 . S
C1331 H1318 0.929 . S
C1331 C1323 1.433 . S
C1331 N1333 1.384 . S
N1332 C1328 1.427 . S
N1332 C1329 1.384 . S
N1333 C1325 1.427 . S
N1333 C1331 1.384 . S
H1334 C1340 0.930 . S
H1335 C1344 0.930 . S
H1336 C1349 0.929 . S
H1337 C1347 0.929 . S
H1338 C1342 0.929 . S
H1339 C1348 0.929 . S
C1340 H1334 0.930 . S
C1340 C1341 1.367 . S
C1340 C1348 1.378 . S
C1341 C1340 1.367 . S
C1341 C1349 1.433 . S
C1342 H1338 0.929 . S
C1342 C1344 1.378 . S
C1342 C1346 1.350 . S
C1343 C1346 1.463 . S
C1343 C1348 1.350 . S
C1343 N1351 1.427 . S
C1344 H1335 0.930 . S
C1344 C1342 1.378 . S
C1344 C1345 1.367 . S
C1345 C1344 1.367 . S
C1345 C1347 1.433 . S
C1346 C1342 1.350 . S
C1346 C1343 1.463 . S
C1346 N1350 1.427 . S
C1347 H1337 0.929 . S
C1347 C1345 1.433 . S
C1347 N1350 1.384 . S
C1348 H1339 0.929 . S
C1348 C1340 1.378 . S
C1348 C1343 1.350 . S
C1349 H1336 0.929 . S
C1349 C1341 1.433 . S
C1349 N1351 1.384 . S
N1350 C1346 1.427 . S
N1350 C1347 1.384 . S
N1351 C1343 1.427 . S
N1351 C1349 1.384 . S
H1352 C1358 0.930 . S
H1353 C1362 0.930 . S
H1354 C1367 0.929 . S
H1355 C1365 0.929 . S
H1356 C1360 0.929 . S
H1357 C1366 0.929 . S
C1358 H1352 0.930 . S
C1358 C1359 1.367 . S
C1358 C1366 1.378 . S
C1359 C1358 1.367 . S
C1359 C1367 1.433 . S
C1360 H1356 0.929 . S
C1360 C1362 1.378 . S
C1360 C1364 1.350 . S
C1361 C1364 1.463 . S
C1361 C1366 1.350 . S
C1361 N1369 1.427 . S
C1362 H1353 0.930 . S
C1362 C1360 1.378 . S
C1362 C1363 1.367 . S
C1363 C1362 1.367 . S
C1363 C1365 1.433 . S
C1364 C1360 1.350 . S
C1364 C1361 1.463 . S
C1364 N1368 1.427 . S
C1365 H1355 0.929 . S
C1365 C1363 1.433 . S
C1365 N1368 1.384 . S
C1366 H1357 0.929 . S
C1366 C1358 1.378 . S
C1366 C1361 1.350 . S
C1367 H1354 0.929 . S
C1367 C1359 1.433 . S
C1367 N1369 1.384 . S
N1368 C1364 1.427 . S
N1368 C1365 1.384 . S
N1369 C1361 1.427 . S
N1369 C1367 1.384 . S
H1370 C1376 0.930 . S
H1371 C1380 0.930 . S
H1372 C1385 0.929 . S
H1373 C1383 0.929 . S
H1374 C1378 0.929 . S
H1375 C1384 0.929 . S
C1376 H1370 0.930 . S
C1376 C1377 1.367 . S
C1376 C1384 1.378 . S
C1377 C1376 1.367 . S
C1377 C1385 1.433 . S
C1378 H1374 0.929 . S
C1378 C1380 1.378 . S
C1378 C1382 1.350 . S
C1379 C1382 1.463 . S
C1379 C1384 1.350 . S
C1379 N1387 1.427 . S
C1380 H1371 0.930 . S
C1380 C1378 1.378 . S
C1380 C1381 1.367 . S
C1381 C1380 1.367 . S
C1381 C1383 1.433 . S
C1382 C1378 1.350 . S
C1382 C1379 1.463 . S
C1382 N1386 1.427 . S
C1383 H1373 0.929 . S
C1383 C1381 1.433 . S
C1383 N1386 1.384 . S
C1384 H1375 0.929 . S
C1384 C1376 1.378 . S
C1384 C1379 1.350 . S
C1385 H1372 0.929 . S
C1385 C1377 1.433 . S
C1385 N1387 1.384 . S
N1386 C1382 1.427 . S
N1386 C1383 1.384 . S
N1387 C1379 1.427 . S
N1387 C1385 1.384 . S
H1388 C1394 0.930 . S
H1389 C1398 0.930 . S
H1390 C1403 0.929 . S
H1391 C1401 0.929 . S
H1392 C1396 0.929 . S
H1393 C1402 0.929 . S
C1394 H1388 0.930 . S
C1394 C1395 1.367 . S
C1394 C1402 1.378 . S
C1395 C1394 1.367 . S
C1395 C1403 1.433 . S
C1396 H1392 0.929 . S
C1396 C1398 1.378 . S
C1396 C1400 1.350 . S
C1397 C1400 1.463 . S
C1397 C1402 1.350 . S
C1397 N1405 1.427 . S
C1398 H1389 0.930 . S
C1398 C1396 1.378 . S
C1398 C1399 1.367 . S
C1399 C1398 1.367 . S
C1399 C1401 1.433 . S
C1400 C1396 1.350 . S
C1400 C1397 1.463 . S
C1400 N1404 1.427 . S
C1401 H1391 0.929 . S
C1401 C1399 1.433 . S
C1401 N1404 1.384 . S
C1402 H1393 0.929 . S
C1402 C1394 1.378 . S
C1402 C1397 1.350 . S
C1403 H1390 0.929 . S
C1403 C1395 1.433 . S
C1403 N1405 1.384 . S
N1404 C1400 1.427 . S
N1404 C1401 1.384 . S
N1405 C1397 1.427 . S
N1405 C1403 1.384 . S
H1406 C1412 0.930 . S
H1407 C1416 0.930 . S
H1408 C1421 0.929 . S
H1409 C1419 0.929 . S
H1410 C1414 0.929 . S
H1411 C1420 0.929 . S
C1412 H1406 0.930 . S
C1412 C1413 1.367 . S
C1412 C1420 1.378 . S
C1413 C1412 1.367 . S
C1413 C1421 1.433 . S
C1414 H1410 0.929 . S
C1414 C1416 1.378 . S
C1414 C1418 1.350 . S
C1415 C1418 1.463 . S
C1415 C1420 1.350 . S
C1415 N1423 1.427 . S
C1416 H1407 0.930 . S
C1416 C1414 1.378 . S
C1416 C1417 1.367 . S
C1417 C1416 1.367 . S
C1417 C1419 1.433 . S
C1418 C1414 1.350 . S
C1418 C1415 1.463 . S
C1418 N1422 1.427 . S
C1419 H1409 0.929 . S
C1419 C1417 1.433 . S
C1419 N1422 1.384 . S
C1420 H1411 0.929 . S
C1420 C1412 1.378 . S
C1420 C1415 1.350 . S
C1421 H1408 0.929 . S
C1421 C1413 1.433 . S
C1421 N1423 1.384 . S
N1422 C1418 1.427 . S
N1422 C1419 1.384 . S
N1423 C1415 1.427 . S
N1423 C1421 1.384 . S
H1424 C1430 0.930 . S
H1425 C1434 0.930 . S
H1426 C1439 0.929 . S
H1427 C1437 0.929 . S
H1428 C1432 0.929 . S
H1429 C1438 0.929 . S
C1430 H1424 0.930 . S
C1430 C1431 1.367 . S
C1430 C1438 1.378 . S
C1431 C1430 1.367 . S
C1431 C1439 1.433 . S
C1432 H1428 0.929 . S
C1432 C1434 1.378 . S
C1432 C1436 1.350 . S
C1433 C1436 1.463 . S
C1433 C1438 1.350 . S
C1433 N1441 1.427 . S
C1434 H1425 0.930 . S
C1434 C1432 1.378 . S
C1434 C1435 1.367 . S
C1435 C1434 1.367 . S
C1435 C1437 1.433 . S
C1436 C1432 1.350 . S
C1436 C1433 1.463 . S
C1436 N1440 1.427 . S
C1437 H1427 0.929 . S
C1437 C1435 1.433 . S
C1437 N1440 1.384 . S
C1438 H1429 0.929 . S
C1438 C1430 1.378 . S
C1438 C1433 1.350 . S
C1439 H1426 0.929 . S
C1439 C1431 1.433 . S
C1439 N1441 1.384 . S
N1440 C1436 1.427 . S
N1440 C1437 1.384 . S
N1441 C1433 1.427 . S
N1441 C1439 1.384 . S
H1442 C1448 0.930 . S
H1443 C1452 0.930 . S
H1444 C1457 0.929 . S
H1445 C1455 0.929 . S
H1446 C1450 0.929 . S
H1447 C1456 0.929 . S
C1448 H1442 0.930 . S
C1448 C1449 1.367 . S
C1448 C1456 1.378 . S
C1449 C1448 1.367 . S
C1449 C1457 1.433 . S
C1450 H1446 0.929 . S
C1450 C1452 1.378 . S
C1450 C1454 1.350 . S
C1451 C1454 1.463 . S
C1451 C1456 1.350 . S
C1451 N1459 1.427 . S
C1452 H1443 0.930 . S
C1452 C1450 1.378 . S
C1452 C1453 1.367 . S
C1453 C1452 1.367 . S
C1453 C1455 1.433 . S
C1454 C1450 1.350 . S
C1454 C1451 1.463 . S
C1454 N1458 1.427 . S
C1455 H1445 0.929 . S
C1455 C1453 1.433 . S
C1455 N1458 1.384 . S
C1456 H1447 0.929 . S
C1456 C1448 1.378 . S
C1456 C1451 1.350 . S
C1457 H1444 0.929 . S
C1457 C1449 1.433 . S
C1457 N1459 1.384 . S
N1458 C1454 1.427 . S
N1458 C1455 1.384 . S
N1459 C1451 1.427 . S
N1459 C1457 1.384 . S
H1460 C1466 0.930 . S
H1461 C1470 0.930 . S
H1462 C1475 0.929 . S
H1463 C1473 0.929 . S
H1464 C1468 0.929 . S
H1465 C1474 0.929 . S
C1466 H1460 0.930 . S
C1466 C1467 1.367 . S
C1466 C1474 1.378 . S
C1467 C1466 1.367 . S
C1467 C1475 1.433 . S
C1468 H1464 0.929 . S
C1468 C1470 1.378 . S
C1468 C1472 1.350 . S
C1469 C1472 1.463 . S
C1469 C1474 1.350 . S
C1469 N1477 1.427 . S
C1470 H1461 0.930 . S
C1470 C1468 1.378 . S
C1470 C1471 1.367 . S
C1471 C1470 1.367 . S
C1471 C1473 1.433 . S
C1472 C1468 1.350 . S
C1472 C1469 1.463 . S
C1472 N1476 1.427 . S
C1473 H1463 0.929 . S
C1473 C1471 1.433 . S
C1473 N1476 1.384 . S
C1474 H1465 0.929 . S
C1474 C1466 1.378 . S
C1474 C1469 1.350 . S
C1475 H1462 0.929 . S
C1475 C1467 1.433 . S
C1475 N1477 1.384 . S
N1476 C1472 1.427 . S
N1476 C1473 1.384 . S
N1477 C1469 1.427 . S
N1477 C1475 1.384 . S
H1478 C1484 0.930 . S
H1479 C1488 0.930 . S
H1480 C1493 0.929 . S
H1481 C1491 0.929 . S
H1482 C1486 0.929 . S
H1483 C1492 0.929 . S
C1484 H1478 0.930 . S
C1484 C1485 1.367 . S
C1484 C1492 1.378 . S
C1485 C1484 1.367 . S
C1485 C1493 1.433 . S
C1486 H1482 0.929 . S
C1486 C1488 1.378 . S
C1486 C1490 1.350 . S
C1487 C1490 1.463 . S
C1487 C1492 1.350 . S
C1487 N1495 1.427 . S
C1488 H1479 0.930 . S
C1488 C1486 1.378 . S
C1488 C1489 1.367 . S
C1489 C1488 1.367 . S
C1489 C1491 1.433 . S
C1490 C1486 1.350 . S
C1490 C1487 1.463 . S
C1490 N1494 1.427 . S
C1491 H1481 0.929 . S
C1491 C1489 1.433 . S
C1491 N1494 1.384 . S
C1492 H1483 0.929 . S
C1492 C1484 1.378 . S
C1492 C1487 1.350 . S
C1493 H1480 0.929 . S
C1493 C1485 1.433 . S
C1493 N1495 1.384 . S
N1494 C1490 1.427 . S
N1494 C1491 1.384 . S
N1495 C1487 1.427 . S
N1495 C1493 1.384 . S
H1496 C1502 0.930 . S
H1497 C1506 0.930 . S
H1498 C1511 0.929 . S
H1499 C1509 0.929 . S
H1500 C1504 0.929 . S
H1501 C1510 0.929 . S
C1502 H1496 0.930 . S
C1502 C1503 1.367 . S
C1502 C1510 1.378 . S
C1503 C1502 1.367 . S
C1503 C1511 1.433 . S
C1504 H1500 0.929 . S
C1504 C1506 1.378 . S
C1504 C1508 1.350 . S
C1505 C1508 1.463 . S
C1505 C1510 1.350 . S
C1505 N1513 1.427 . S
C1506 H1497 0.930 . S
C1506 C1504 1.378 . S
C1506 C1507 1.367 . S
C1507 C1506 1.367 . S
C1507 C1509 1.433 . S
C1508 C1504 1.350 . S
C1508 C1505 1.463 . S
C1508 N1512 1.427 . S
C1509 H1499 0.929 . S
C1509 C1507 1.433 . S
C1509 N1512 1.384 . S
C1510 H1501 0.929 . S
C1510 C1502 1.378 . S
C1510 C1505 1.350 . S
C1511 H1498 0.929 . S
C1511 C1503 1.433 . S
C1511 N1513 1.384 . S
N1512 C1508 1.427 . S
N1512 C1509 1.384 . S
N1513 C1505 1.427 . S
N1513 C1511 1.384 . S
H1514 C1520 0.930 . S
H1515 C1524 0.930 . S
H1516 C1529 0.929 . S
H1517 C1527 0.929 . S
H1518 C1522 0.929 . S
H1519 C1528 0.929 . S
C1520 H1514 0.930 . S
C1520 C1521 1.367 . S
C1520 C1528 1.378 . S
C1521 C1520 1.367 . S
C1521 C1529 1.433 . S
C1522 H1518 0.929 . S
C1522 C1524 1.378 . S
C1522 C1526 1.350 . S
C1523 C1526 1.463 . S
C1523 C1528 1.350 . S
C1523 N1531 1.427 . S
C1524 H1515 0.930 . S
C1524 C1522 1.378 . S
C1524 C1525 1.367 . S
C1525 C1524 1.367 . S
C1525 C1527 1.433 . S
C1526 C1522 1.350 . S
C1526 C1523 1.463 . S
C1526 N1530 1.427 . S
C1527 H1517 0.929 . S
C1527 C1525 1.433 . S
C1527 N1530 1.384 . S
C1528 H1519 0.929 . S
C1528 C1520 1.378 . S
C1528 C1523 1.350 . S
C1529 H1516 0.929 . S
C1529 C1521 1.433 . S
C1529 N1531 1.384 . S
N1530 C1526 1.427 . S
N1530 C1527 1.384 . S
N1531 C1523 1.427 . S
N1531 C1529 1.384 . S
H1532 C1538 0.930 . S
H1533 C1542 0.930 . S
H1534 C1547 0.929 . S
H1535 C1545 0.929 . S
H1536 C1540 0.929 . S
H1537 C1546 0.929 . S
C1538 H1532 0.930 . S
C1538 C1539 1.367 . S
C1538 C1546 1.378 . S
C1539 C1538 1.367 . S
C1539 C1547 1.433 . S
C1540 H1536 0.929 . S
C1540 C1542 1.378 . S
C1540 C1544 1.350 . S
C1541 C1544 1.463 . S
C1541 C1546 1.350 . S
C1541 N1549 1.427 . S
C1542 H1533 0.930 . S
C1542 C1540 1.378 . S
C1542 C1543 1.367 . S
C1543 C1542 1.367 . S
C1543 C1545 1.433 . S
C1544 C1540 1.350 . S
C1544 C1541 1.463 . S
C1544 N1548 1.427 . S
C1545 H1535 0.929 . S
C1545 C1543 1.433 . S
C1545 N1548 1.384 . S
C1546 H1537 0.929 . S
C1546 C1538 1.378 . S
C1546 C1541 1.350 . S
C1547 H1534 0.929 . S
C1547 C1539 1.433 . S
C1547 N1549 1.384 . S
N1548 C1544 1.427 . S
N1548 C1545 1.384 . S
N1549 C1541 1.427 . S
N1549 C1547 1.384 . S
H1550 C1556 0.930 . S
H1551 C1560 0.930 . S
H1552 C1565 0.929 . S
H1553 C1563 0.929 . S
H1554 C1558 0.929 . S
H1555 C1564 0.929 . S
C1556 H1550 0.930 . S
C1556 C1557 1.367 . S
C1556 C1564 1.378 . S
C1557 C1556 1.367 . S
C1557 C1565 1.433 . S
C1558 H1554 0.929 . S
C1558 C1560 1.378 . S
C1558 C1562 1.350 . S
C1559 C1562 1.463 . S
C1559 C1564 1.350 . S
C1559 N1567 1.427 . S
C1560 H1551 0.930 . S
C1560 C1558 1.378 . S
C1560 C1561 1.367 . S
C1561 C1560 1.367 . S
C1561 C1563 1.433 . S
C1562 C1558 1.350 . S
C1562 C1559 1.463 . S
C1562 N1566 1.427 . S
C1563 H1553 0.929 . S
C1563 C1561 1.433 . S
C1563 N1566 1.384 . S
C1564 H1555 0.929 . S
C1564 C1556 1.378 . S
C1564 C1559 1.350 . S
C1565 H1552 0.929 . S
C1565 C1557 1.433 . S
C1565 N1567 1.384 . S
N1566 C1562 1.427 . S
N1566 C1563 1.384 . S
N1567 C1559 1.427 . S
N1567 C1565 1.384 . S
H1568 C1574 0.930 . S
H1569 C1578 0.930 . S
H1570 C1583 0.929 . S
H1571 C1581 0.929 . S
H1572 C1576 0.929 . S
H1573 C1582 0.929 . S
C1574 H1568 0.930 . S
C1574 C1575 1.367 . S
C1574 C1582 1.378 . S
C1575 C1574 1.367 . S
C1575 C1583 1.433 . S
C1576 H1572 0.929 . S
C1576 C1578 1.378 . S
C1576 C1580 1.350 . S
C1577 C1580 1.463 1_565 S
C1577 C1582 1.350 . S
C1577 N1585 1.427 . S
C1578 H1569 0.930 . S
C1578 C1576 1.378 . S
C1578 C1579 1.367 . S
C1579 C1578 1.367 . S
C1579 C1581 1.433 . S
C1580 C1576 1.350 . S
C1580 C1577 1.463 1_545 S
C1580 N1584 1.427 . S
C1581 H1571 0.929 . S
C1581 C1579 1.433 . S
C1581 N1584 1.384 . S
C1582 H1573 0.929 . S
C1582 C1574 1.378 . S
C1582 C1577 1.350 . S
C1583 H1570 0.929 . S
C1583 C1575 1.433 . S
C1583 N1585 1.384 . S
N1584 C1580 1.427 . S
N1584 C1581 1.384 . S
N1585 C1577 1.427 . S
N1585 C1583 1.384 . S
H1586 C1592 0.930 . S
H1587 C1596 0.930 . S
H1588 C1601 0.929 . S
H1589 C1599 0.929 . S
H1590 C1594 0.929 . S
H1591 C1600 0.929 . S
C1592 H1586 0.930 . S
C1592 C1593 1.367 . S
C1592 C1600 1.378 . S
C1593 C1592 1.367 . S
C1593 C1601 1.433 . S
C1594 H1590 0.929 . S
C1594 C1596 1.378 . S
C1594 C1598 1.350 . S
C1595 C1598 1.463 1_655 S
C1595 C1600 1.350 . S
C1595 N1603 1.427 . S
C1596 H1587 0.930 . S
C1596 C1594 1.378 . S
C1596 C1597 1.367 . S
C1597 C1596 1.367 . S
C1597 C1599 1.433 . S
C1598 C1594 1.350 . S
C1598 C1595 1.463 1_455 S
C1598 N1602 1.427 . S
C1599 H1589 0.929 . S
C1599 C1597 1.433 . S
C1599 N1602 1.384 . S
C1600 H1591 0.929 . S
C1600 C1592 1.378 . S
C1600 C1595 1.350 . S
C1601 H1588 0.929 . S
C1601 C1593 1.433 . S
C1601 N1603 1.384 . S
N1602 C1598 1.427 . S
N1602 C1599 1.384 . S
N1603 C1595 1.427 . S
N1603 C1601 1.384 . S
H1604 C1610 0.930 . S
H1605 C1614 0.930 . S
H1606 C1619 0.929 . S
H1607 C1617 0.929 . S
H1608 C1612 0.929 . S
H1609 C1618 0.929 . S
C1610 H1604 0.930 . S
C1610 C1611 1.367 . S
C1610 C1618 1.378 . S
C1611 C1610 1.367 . S
C1611 C1619 1.433 . S
C1612 H1608 0.929 . S
C1612 C1614 1.378 . S
C1612 C1616 1.350 . S
C1613 C1616 1.463 1_545 S
C1613 C1618 1.350 . S
C1613 N1621 1.427 . S
C1614 H1605 0.930 . S
C1614 C1612 1.378 . S
C1614 C1615 1.367 . S
C1615 C1614 1.367 . S
C1615 C1617 1.433 . S
C1616 C1612 1.350 . S
C1616 C1613 1.463 1_565 S
C1616 N1620 1.427 . S
C1617 H1607 0.929 . S
C1617 C1615 1.433 . S
C1617 N1620 1.384 . S
C1618 H1609 0.929 . S
C1618 C1610 1.378 . S
C1618 C1613 1.350 . S
C1619 H1606 0.929 . S
C1619 C1611 1.433 . S
C1619 N1621 1.384 . S
N1620 C1616 1.427 . S
N1620 C1617 1.384 . S
N1621 C1613 1.427 . S
N1621 C1619 1.384 . S
H1622 C1628 0.930 . S
H1623 C1632 0.930 . S
H1624 C1637 0.929 . S
H1625 C1635 0.929 . S
H1626 C1630 0.929 . S
H1627 C1636 0.929 . S
C1628 H1622 0.930 . S
C1628 C1629 1.367 . S
C1628 C1636 1.378 . S
C1629 C1628 1.367 . S
C1629 C1637 1.433 . S
C1630 H1626 0.929 . S
C1630 C1632 1.378 . S
C1630 C1634 1.350 . S
C1631 C1634 1.463 1_655 S
C1631 C1636 1.350 . S
C1631 N1639 1.427 . S
C1632 H1623 0.930 . S
C1632 C1630 1.378 . S
C1632 C1633 1.367 . S
C1633 C1632 1.367 . S
C1633 C1635 1.433 . S
C1634 C1630 1.350 . S
C1634 C1631 1.463 1_455 S
C1634 N1638 1.427 . S
C1635 H1625 0.929 . S
C1635 C1633 1.433 . S
C1635 N1638 1.384 . S
C1636 H1627 0.929 . S
C1636 C1628 1.378 . S
C1636 C1631 1.350 . S
C1637 H1624 0.929 . S
C1637 C1629 1.433 . S
C1637 N1639 1.384 . S
N1638 C1634 1.427 . S
N1638 C1635 1.384 . S
N1639 C1631 1.427 . S
N1639 C1637 1.384 . S
H1640 C1646 0.930 . S
H1641 C1650 0.930 . S
H1642 C1655 0.929 . S
H1643 C1653 0.929 . S
H1644 C1648 0.929 . S
H1645 C1654 0.929 . S
C1646 H1640 0.930 . S
C1646 C1647 1.367 . S
C1646 C1654 1.378 . S
C1647 C1646 1.367 . S
C1647 C1655 1.433 . S
C1648 H1644 0.929 . S
C1648 C1650 1.378 . S
C1648 C1652 1.350 . S
C1649 C1652 1.463 1_545 S
C1649 C1654 1.350 . S
C1649 N1657 1.427 . S
C1650 H1641 0.930 . S
C1650 C1648 1.378 . S
C1650 C1651 1.367 . S
C1651 C1650 1.367 . S
C1651 C1653 1.433 . S
C1652 C1648 1.350 . S
C1652 C1649 1.463 1_565 S
C1652 N1656 1.427 . S
C1653 H1643 0.929 . S
C1653 C1651 1.433 . S
C1653 N1656 1.384 . S
C1654 H1645 0.929 . S
C1654 C1646 1.378 . S
C1654 C1649 1.350 . S
C1655 H1642 0.929 . S
C1655 C1647 1.433 . S
C1655 N1657 1.384 . S
N1656 C1652 1.427 . S
N1656 C1653 1.384 . S
N1657 C1649 1.427 . S
N1657 C1655 1.384 . S
H1658 C1664 0.930 . S
H1659 C1668 0.930 . S
H1660 C1673 0.929 . S
H1661 C1671 0.929 . S
H1662 C1666 0.929 . S
H1663 C1672 0.929 . S
C1664 H1658 0.930 . S
C1664 C1665 1.367 . S
C1664 C1672 1.378 . S
C1665 C1664 1.367 . S
C1665 C1673 1.433 . S
C1666 H1662 0.929 . S
C1666 C1668 1.378 . S
C1666 C1670 1.350 . S
C1667 C1670 1.463 1_655 S
C1667 C1672 1.350 . S
C1667 N1675 1.427 . S
C1668 H1659 0.930 . S
C1668 C1666 1.378 . S
C1668 C1669 1.367 . S
C1669 C1668 1.367 . S
C1669 C1671 1.433 . S
C1670 C1666 1.350 . S
C1670 C1667 1.463 1_455 S
C1670 N1674 1.427 . S
C1671 H1661 0.929 . S
C1671 C1669 1.433 . S
C1671 N1674 1.384 . S
C1672 H1663 0.929 . S
C1672 C1664 1.378 . S
C1672 C1667 1.350 . S
C1673 H1660 0.929 . S
C1673 C1665 1.433 . S
C1673 N1675 1.384 . S
N1674 C1670 1.427 . S
N1674 C1671 1.384 . S
N1675 C1667 1.427 . S
N1675 C1673 1.384 . S
H1676 C1682 0.930 . S
H1677 C1686 0.930 . S
H1678 C1691 0.929 . S
H1679 C1689 0.929 . S
H1680 C1684 0.929 . S
H1681 C1690 0.929 . S
C1682 H1676 0.930 . S
C1682 C1683 1.367 . S
C1682 C1690 1.378 . S
C1683 C1682 1.367 . S
C1683 C1691 1.433 . S
C1684 H1680 0.929 . S
C1684 C1686 1.378 . S
C1684 C1688 1.350 . S
C1685 C1688 1.463 1_545 S
C1685 C1690 1.350 . S
C1685 N1693 1.427 . S
C1686 H1677 0.930 . S
C1686 C1684 1.378 . S
C1686 C1687 1.367 . S
C1687 C1686 1.367 . S
C1687 C1689 1.433 . S
C1688 C1684 1.350 . S
C1688 C1685 1.463 1_565 S
C1688 N1692 1.427 . S
C1689 H1679 0.929 . S
C1689 C1687 1.433 . S
C1689 N1692 1.384 . S
C1690 H1681 0.929 . S
C1690 C1682 1.378 . S
C1690 C1685 1.350 . S
C1691 H1678 0.929 . S
C1691 C1683 1.433 . S
C1691 N1693 1.384 . S
N1692 C1688 1.427 . S
N1692 C1689 1.384 . S
N1693 C1685 1.427 . S
N1693 C1691 1.384 . S
H1694 C1700 0.930 . S
H1695 C1704 0.930 . S
H1696 C1709 0.929 . S
H1697 C1707 0.929 . S
H1698 C1702 0.929 . S
H1699 C1708 0.929 . S
C1700 H1694 0.930 . S
C1700 C1701 1.367 . S
C1700 C1708 1.378 . S
C1701 C1700 1.367 . S
C1701 C1709 1.433 . S
C1702 H1698 0.929 . S
C1702 C1704 1.378 . S
C1702 C1706 1.350 . S
C1703 C1706 1.463 1_655 S
C1703 C1708 1.350 . S
C1703 N1711 1.427 . S
C1704 H1695 0.930 . S
C1704 C1702 1.378 . S
C1704 C1705 1.367 . S
C1705 C1704 1.367 . S
C1705 C1707 1.433 . S
C1706 C1702 1.350 . S
C1706 C1703 1.463 1_455 S
C1706 N1710 1.427 . S
C1707 H1697 0.929 . S
C1707 C1705 1.433 . S
C1707 N1710 1.384 . S
C1708 H1699 0.929 . S
C1708 C1700 1.378 . S
C1708 C1703 1.350 . S
C1709 H1696 0.929 . S
C1709 C1701 1.433 . S
C1709 N1711 1.384 . S
N1710 C1706 1.427 . S
N1710 C1707 1.384 . S
N1711 C1703 1.427 . S
N1711 C1709 1.384 . S
H1712 C1718 0.930 . S
H1713 C1722 0.930 . S
H1714 C1727 0.929 . S
H1715 C1725 0.929 . S
H1716 C1720 0.929 . S
H1717 C1726 0.929 . S
C1718 H1712 0.930 . S
C1718 C1719 1.367 . S
C1718 C1726 1.378 . S
C1719 C1718 1.367 . S
C1719 C1727 1.433 . S
C1720 H1716 0.929 . S
C1720 C1722 1.378 . S
C1720 C1724 1.350 . S
C1721 C1724 1.463 1_554 S
C1721 C1726 1.350 . S
C1721 N1729 1.427 . S
C1722 H1713 0.930 . S
C1722 C1720 1.378 . S
C1722 C1723 1.367 . S
C1723 C1722 1.367 . S
C1723 C1725 1.433 . S
C1724 C1720 1.350 . S
C1724 C1721 1.463 1_556 S
C1724 N1728 1.427 . S
C1725 H1715 0.929 . S
C1725 C1723 1.433 . S
C1725 N1728 1.384 . S
C1726 H1717 0.929 . S
C1726 C1718 1.378 . S
C1726 C1721 1.350 . S
C1727 H1714 0.929 . S
C1727 C1719 1.433 . S
C1727 N1729 1.384 . S
N1728 C1724 1.427 . S
N1728 C1725 1.384 . S
N1729 C1721 1.427 . S
N1729 C1727 1.384 . S
H1730 C1736 0.930 . S
H1731 C1740 0.930 . S
H1732 C1745 0.929 . S
H1733 C1743 0.929 . S
H1734 C1738 0.929 . S
H1735 C1744 0.929 . S
C1736 H1730 0.930 . S
C1736 C1737 1.367 . S
C1736 C1744 1.378 . S
C1737 C1736 1.367 . S
C1737 C1745 1.433 . S
C1738 H1734 0.929 . S
C1738 C1740 1.378 . S
C1738 C1742 1.350 . S
C1739 C1742 1.463 1_556 S
C1739 C1744 1.350 . S
C1739 N1747 1.427 . S
C1740 H1731 0.930 . S
C1740 C1738 1.378 . S
C1740 C1741 1.367 . S
C1741 C1740 1.367 . S
C1741 C1743 1.433 . S
C1742 C1738 1.350 . S
C1742 C1739 1.463 1_554 S
C1742 N1746 1.427 . S
C1743 H1733 0.929 . S
C1743 C1741 1.433 . S
C1743 N1746 1.384 . S
C1744 H1735 0.929 . S
C1744 C1736 1.378 . S
C1744 C1739 1.350 . S
C1745 H1732 0.929 . S
C1745 C1737 1.433 . S
C1745 N1747 1.384 . S
N1746 C1742 1.427 . S
N1746 C1743 1.384 . S
N1747 C1739 1.427 . S
N1747 C1745 1.384 . S
H1748 C1754 0.930 . S
H1749 C1758 0.930 . S
H1750 C1763 0.929 . S
H1751 C1761 0.929 . S
H1752 C1756 0.929 . S
H1753 C1762 0.929 . S
C1754 H1748 0.930 . S
C1754 C1755 1.367 . S
C1754 C1762 1.378 . S
C1755 C1754 1.367 . S
C1755 C1763 1.433 . S
C1756 H1752 0.929 . S
C1756 C1758 1.378 . S
C1756 C1760 1.350 . S
C1757 C1760 1.463 1_556 S
C1757 C1762 1.350 . S
C1757 N1765 1.427 . S
C1758 H1749 0.930 . S
C1758 C1756 1.378 . S
C1758 C1759 1.367 . S
C1759 C1758 1.367 . S
C1759 C1761 1.433 . S
C1760 C1756 1.350 . S
C1760 C1757 1.463 1_554 S
C1760 N1764 1.427 . S
C1761 H1751 0.929 . S
C1761 C1759 1.433 . S
C1761 N1764 1.384 . S
C1762 H1753 0.929 . S
C1762 C1754 1.378 . S
C1762 C1757 1.350 . S
C1763 H1750 0.929 . S
C1763 C1755 1.433 . S
C1763 N1765 1.384 . S
N1764 C1760 1.427 . S
N1764 C1761 1.384 . S
N1765 C1757 1.427 . S
N1765 C1763 1.384 . S
H1766 C1772 0.930 . S
H1767 C1776 0.930 . S
H1768 C1781 0.929 . S
H1769 C1779 0.929 . S
H1770 C1774 0.929 . S
H1771 C1780 0.929 . S
C1772 H1766 0.930 . S
C1772 C1773 1.367 . S
C1772 C1780 1.378 . S
C1773 C1772 1.367 . S
C1773 C1781 1.433 . S
C1774 H1770 0.929 . S
C1774 C1776 1.378 . S
C1774 C1778 1.350 . S
C1775 C1778 1.463 1_554 S
C1775 C1780 1.350 . S
C1775 N1783 1.427 . S
C1776 H1767 0.930 . S
C1776 C1774 1.378 . S
C1776 C1777 1.367 . S
C1777 C1776 1.367 . S
C1777 C1779 1.433 . S
C1778 C1774 1.350 . S
C1778 C1775 1.463 1_556 S
C1778 N1782 1.427 . S
C1779 H1769 0.929 . S
C1779 C1777 1.433 . S
C1779 N1782 1.384 . S
C1780 H1771 0.929 . S
C1780 C1772 1.378 . S
C1780 C1775 1.350 . S
C1781 H1768 0.929 . S
C1781 C1773 1.433 . S
C1781 N1783 1.384 . S
N1782 C1778 1.427 . S
N1782 C1779 1.384 . S
N1783 C1775 1.427 . S
N1783 C1781 1.384 . S
H1784 C1790 0.930 . S
H1785 C1794 0.930 . S
H1786 C1799 0.929 . S
H1787 C1797 0.929 . S
H1788 C1792 0.929 . S
H1789 C1798 0.929 . S
C1790 H1784 0.930 . S
C1790 C1791 1.367 . S
C1790 C1798 1.378 . S
C1791 C1790 1.367 . S
C1791 C1799 1.433 . S
C1792 H1788 0.929 . S
C1792 C1794 1.378 . S
C1792 C1796 1.350 . S
C1793 C1796 1.463 1_556 S
C1793 C1798 1.350 . S
C1793 N1801 1.427 . S
C1794 H1785 0.930 . S
C1794 C1792 1.378 . S
C1794 C1795 1.367 . S
C1795 C1794 1.367 . S
C1795 C1797 1.433 . S
C1796 C1792 1.350 . S
C1796 C1793 1.463 1_554 S
C1796 N1800 1.427 . S
C1797 H1787 0.929 . S
C1797 C1795 1.433 . S
C1797 N1800 1.384 . S
C1798 H1789 0.929 . S
C1798 C1790 1.378 . S
C1798 C1793 1.350 . S
C1799 H1786 0.929 . S
C1799 C1791 1.433 . S
C1799 N1801 1.384 . S
N1800 C1796 1.427 . S
N1800 C1797 1.384 . S
N1801 C1793 1.427 . S
N1801 C1799 1.384 . S
H1802 C1808 0.930 . S
H1803 C1812 0.930 . S
H1804 C1817 0.929 . S
H1805 C1815 0.929 . S
H1806 C1810 0.929 . S
H1807 C1816 0.929 . S
C1808 H1802 0.930 . S
C1808 C1809 1.367 . S
C1808 C1816 1.378 . S
C1809 C1808 1.367 . S
C1809 C1817 1.433 . S
C1810 H1806 0.929 . S
C1810 C1812 1.378 . S
C1810 C1814 1.350 . S
C1811 C1814 1.463 1_554 S
C1811 C1816 1.350 . S
C1811 N1819 1.427 . S
C1812 H1803 0.930 . S
C1812 C1810 1.378 . S
C1812 C1813 1.367 . S
C1813 C1812 1.367 . S
C1813 C1815 1.433 . S
C1814 C1810 1.350 . S
C1814 C1811 1.463 1_556 S
C1814 N1818 1.427 . S
C1815 H1805 0.929 . S
C1815 C1813 1.433 . S
C1815 N1818 1.384 . S
C1816 H1807 0.929 . S
C1816 C1808 1.378 . S
C1816 C1811 1.350 . S
C1817 H1804 0.929 . S
C1817 C1809 1.433 . S
C1817 N1819 1.384 . S
N1818 C1814 1.427 . S
N1818 C1815 1.384 . S
N1819 C1811 1.427 . S
N1819 C1817 1.384 . S
H1820 C1826 0.930 . S
H1821 C1830 0.930 . S
H1822 C1835 0.929 . S
H1823 C1833 0.929 . S
H1824 C1828 0.929 . S
H1825 C1834 0.929 . S
C1826 H1820 0.930 . S
C1826 C1827 1.367 . S
C1826 C1834 1.378 . S
C1827 C1826 1.367 . S
C1827 C1835 1.433 . S
C1828 H1824 0.929 . S
C1828 C1830 1.378 . S
C1828 C1832 1.350 . S
C1829 C1832 1.463 1_554 S
C1829 C1834 1.350 . S
C1829 N1837 1.427 . S
C1830 H1821 0.930 . S
C1830 C1828 1.378 . S
C1830 C1831 1.367 . S
C1831 C1830 1.367 . S
C1831 C1833 1.433 . S
C1832 C1828 1.350 . S
C1832 C1829 1.463 1_556 S
C1832 N1836 1.427 . S
C1833 H1823 0.929 . S
C1833 C1831 1.433 . S
C1833 N1836 1.384 . S
C1834 H1825 0.929 . S
C1834 C1826 1.378 . S
C1834 C1829 1.350 . S
C1835 H1822 0.929 . S
C1835 C1827 1.433 . S
C1835 N1837 1.384 . S
N1836 C1832 1.427 . S
N1836 C1833 1.384 . S
N1837 C1829 1.427 . S
N1837 C1835 1.384 . S
H1838 C1844 0.930 . S
H1839 C1848 0.930 . S
H1840 C1853 0.929 . S
H1841 C1851 0.929 . S
H1842 C1846 0.929 . S
H1843 C1852 0.929 . S
C1844 H1838 0.930 . S
C1844 C1845 1.367 . S
C1844 C1852 1.378 . S
C1845 C1844 1.367 . S
C1845 C1853 1.433 . S
C1846 H1842 0.929 . S
C1846 C1848 1.378 . S
C1846 C1850 1.350 . S
C1847 C1850 1.463 1_556 S
C1847 C1852 1.350 . S
C1847 N1855 1.427 . S
C1848 H1839 0.930 . S
C1848 C1846 1.378 . S
C1848 C1849 1.367 . S
C1849 C1848 1.367 . S
C1849 C1851 1.433 . S
C1850 C1846 1.350 . S
C1850 C1847 1.463 1_554 S
C1850 N1854 1.427 . S
C1851 H1841 0.929 . S
C1851 C1849 1.433 . S
C1851 N1854 1.384 . S
C1852 H1843 0.929 . S
C1852 C1844 1.378 . S
C1852 C1847 1.350 . S
C1853 H1840 0.929 . S
C1853 C1845 1.433 . S
C1853 N1855 1.384 . S
N1854 C1850 1.427 . S
N1854 C1851 1.384 . S
N1855 C1847 1.427 . S
N1855 C1853 1.384 . S
H1856 C1862 0.930 . S
H1857 C1866 0.930 . S
H1858 C1871 0.929 . S
H1859 C1869 0.929 . S
H1860 C1864 0.929 . S
H1861 C1870 0.929 . S
C1862 H1856 0.930 . S
C1862 C1863 1.367 . S
C1862 C1870 1.378 . S
C1863 C1862 1.367 . S
C1863 C1871 1.433 . S
C1864 H1860 0.929 . S
C1864 C1866 1.378 . S
C1864 C1868 1.350 . S
C1865 C1868 1.463 1_455 S
C1865 C1870 1.350 . S
C1865 N1873 1.427 . S
C1866 H1857 0.930 . S
C1866 C1864 1.378 . S
C1866 C1867 1.367 . S
C1867 C1866 1.367 . S
C1867 C1869 1.433 . S
C1868 C1864 1.350 . S
C1868 C1865 1.463 1_655 S
C1868 N1872 1.427 . S
C1869 H1859 0.929 . S
C1869 C1867 1.433 . S
C1869 N1872 1.384 . S
C1870 H1861 0.929 . S
C1870 C1862 1.378 . S
C1870 C1865 1.350 . S
C1871 H1858 0.929 . S
C1871 C1863 1.433 . S
C1871 N1873 1.384 . S
N1872 C1868 1.427 . S
N1872 C1869 1.384 . S
N1873 C1865 1.427 . S
N1873 C1871 1.384 . S
H1874 C1880 0.930 . S
H1875 C1884 0.930 . S
H1876 C1889 0.929 . S
H1877 C1887 0.929 . S
H1878 C1882 0.929 . S
H1879 C1888 0.929 . S
C1880 H1874 0.930 . S
C1880 C1881 1.367 . S
C1880 C1888 1.378 . S
C1881 C1880 1.367 . S
C1881 C1889 1.433 . S
C1882 H1878 0.929 . S
C1882 C1884 1.378 . S
C1882 C1886 1.350 . S
C1883 C1886 1.463 1_455 S
C1883 C1888 1.350 . S
C1883 N1891 1.427 . S
C1884 H1875 0.930 . S
C1884 C1882 1.378 . S
C1884 C1885 1.367 . S
C1885 C1884 1.367 . S
C1885 C1887 1.433 . S
C1886 C1882 1.350 . S
C1886 C1883 1.463 1_655 S
C1886 N1890 1.427 . S
C1887 H1877 0.929 . S
C1887 C1885 1.433 . S
C1887 N1890 1.384 . S
C1888 H1879 0.929 . S
C1888 C1880 1.378 . S
C1888 C1883 1.350 . S
C1889 H1876 0.929 . S
C1889 C1881 1.433 . S
C1889 N1891 1.384 . S
N1890 C1886 1.427 . S
N1890 C1887 1.384 . S
N1891 C1883 1.427 . S
N1891 C1889 1.384 . S
H1892 C1898 0.930 . S
H1893 C1902 0.930 . S
H1894 C1907 0.929 . S
H1895 C1905 0.929 . S
H1896 C1900 0.929 . S
H1897 C1906 0.929 . S
C1898 H1892 0.930 . S
C1898 C1899 1.367 . S
C1898 C1906 1.378 . S
C1899 C1898 1.367 . S
C1899 C1907 1.433 . S
C1900 H1896 0.929 . S
C1900 C1902 1.378 . S
C1900 C1904 1.350 . S
C1901 C1904 1.463 1_565 S
C1901 C1906 1.350 . S
C1901 N1909 1.427 . S
C1902 H1893 0.930 . S
C1902 C1900 1.378 . S
C1902 C1903 1.367 . S
C1903 C1902 1.367 . S
C1903 C1905 1.433 . S
C1904 C1900 1.350 . S
C1904 C1901 1.463 1_545 S
C1904 N1908 1.427 . S
C1905 H1895 0.929 . S
C1905 C1903 1.433 . S
C1905 N1908 1.384 . S
C1906 H1897 0.929 . S
C1906 C1898 1.378 . S
C1906 C1901 1.350 . S
C1907 H1894 0.929 . S
C1907 C1899 1.433 . S
C1907 N1909 1.384 . S
N1908 C1904 1.427 . S
N1908 C1905 1.384 . S
N1909 C1901 1.427 . S
N1909 C1907 1.384 . S
H1910 C1916 0.930 . S
H1911 C1920 0.930 . S
H1912 C1925 0.929 . S
H1913 C1923 0.929 . S
H1914 C1918 0.929 . S
H1915 C1924 0.929 . S
C1916 H1910 0.930 . S
C1916 C1917 1.367 . S
C1916 C1924 1.378 . S
C1917 C1916 1.367 . S
C1917 C1925 1.433 . S
C1918 H1914 0.929 . S
C1918 C1920 1.378 . S
C1918 C1922 1.350 . S
C1919 C1922 1.463 1_455 S
C1919 C1924 1.350 . S
C1919 N1927 1.427 . S
C1920 H1911 0.930 . S
C1920 C1918 1.378 . S
C1920 C1921 1.367 . S
C1921 C1920 1.367 . S
C1921 C1923 1.433 . S
C1922 C1918 1.350 . S
C1922 C1919 1.463 1_655 S
C1922 N1926 1.427 . S
C1923 H1913 0.929 . S
C1923 C1921 1.433 . S
C1923 N1926 1.384 . S
C1924 H1915 0.929 . S
C1924 C1916 1.378 . S
C1924 C1919 1.350 . S
C1925 H1912 0.929 . S
C1925 C1917 1.433 . S
C1925 N1927 1.384 . S
N1926 C1922 1.427 . S
N1926 C1923 1.384 . S
N1927 C1919 1.427 . S
N1927 C1925 1.384 . S
H1928 C1934 0.930 . S
H1929 C1938 0.930 . S
H1930 C1943 0.929 . S
H1931 C1941 0.929 . S
H1932 C1936 0.929 . S
H1933 C1942 0.929 . S
C1934 H1928 0.930 . S
C1934 C1935 1.367 . S
C1934 C1942 1.378 . S
C1935 C1934 1.367 . S
C1935 C1943 1.433 . S
C1936 H1932 0.929 . S
C1936 C1938 1.378 . S
C1936 C1940 1.350 . S
C1937 C1940 1.463 1_565 S
C1937 C1942 1.350 . S
C1937 N1945 1.427 . S
C1938 H1929 0.930 . S
C1938 C1936 1.378 . S
C1938 C1939 1.367 . S
C1939 C1938 1.367 . S
C1939 C1941 1.433 . S
C1940 C1936 1.350 . S
C1940 C1937 1.463 1_545 S
C1940 N1944 1.427 . S
C1941 H1931 0.929 . S
C1941 C1939 1.433 . S
C1941 N1944 1.384 . S
C1942 H1933 0.929 . S
C1942 C1934 1.378 . S
C1942 C1937 1.350 . S
C1943 H1930 0.929 . S
C1943 C1935 1.433 . S
C1943 N1945 1.384 . S
N1944 C1940 1.427 . S
N1944 C1941 1.384 . S
N1945 C1937 1.427 . S
N1945 C1943 1.384 . S
H1946 C1952 0.930 . S
H1947 C1956 0.930 . S
H1948 C1961 0.929 . S
H1949 C1959 0.929 . S
H1950 C1954 0.929 . S
H1951 C1960 0.929 . S
C1952 H1946 0.930 . S
C1952 C1953 1.367 . S
C1952 C1960 1.378 . S
C1953 C1952 1.367 . S
C1953 C1961 1.433 . S
C1954 H1950 0.929 . S
C1954 C1956 1.378 . S
C1954 C1958 1.350 . S
C1955 C1958 1.463 1_655 S
C1955 C1960 1.350 . S
C1955 N1963 1.427 . S
C1956 H1947 0.930 . S
C1956 C1954 1.378 . S
C1956 C1957 1.367 . S
C1957 C1956 1.367 . S
C1957 C1959 1.433 . S
C1958 C1954 1.350 . S
C1958 C1955 1.463 1_455 S
C1958 N1962 1.427 . S
C1959 H1949 0.929 . S
C1959 C1957 1.433 . S
C1959 N1962 1.384 . S
C1960 H1951 0.929 . S
C1960 C1952 1.378 . S
C1960 C1955 1.350 . S
C1961 H1948 0.929 . S
C1961 C1953 1.433 . S
C1961 N1963 1.384 . S
N1962 C1958 1.427 . S
N1962 C1959 1.384 . S
N1963 C1955 1.427 . S
N1963 C1961 1.384 . S
H1964 C1970 0.930 . S
H1965 C1974 0.930 . S
H1966 C1979 0.929 . S
H1967 C1977 0.929 . S
H1968 C1972 0.929 . S
H1969 C1978 0.929 . S
C1970 H1964 0.930 . S
C1970 C1971 1.367 . S
C1970 C1978 1.378 . S
C1971 C1970 1.367 . S
C1971 C1979 1.433 . S
C1972 H1968 0.929 . S
C1972 C1974 1.378 . S
C1972 C1976 1.350 . S
C1973 C1976 1.463 1_565 S
C1973 C1978 1.350 . S
C1973 N1981 1.427 . S
C1974 H1965 0.930 . S
C1974 C1972 1.378 . S
C1974 C1975 1.367 . S
C1975 C1974 1.367 . S
C1975 C1977 1.433 . S
C1976 C1972 1.350 . S
C1976 C1973 1.463 1_545 S
C1976 N1980 1.427 . S
C1977 H1967 0.929 . S
C1977 C1975 1.433 . S
C1977 N1980 1.384 . S
C1978 H1969 0.929 . S
C1978 C1970 1.378 . S
C1978 C1973 1.350 . S
C1979 H1966 0.929 . S
C1979 C1971 1.433 . S
C1979 N1981 1.384 . S
N1980 C1976 1.427 . S
N1980 C1977 1.384 . S
N1981 C1973 1.427 . S
N1981 C1979 1.384 . S
H1982 C1988 0.930 . S
H1983 C1992 0.930 . S
H1984 C1997 0.929 . S
H1985 C1995 0.929 . S
H1986 C1990 0.929 . S
H1987 C1996 0.929 . S
C1988 H1982 0.930 . S
C1988 C1989 1.367 . S
C1988 C1996 1.378 . S
C1989 C1988 1.367 . S
C1989 C1997 1.433 . S
C1990 H1986 0.929 . S
C1990 C1992 1.378 . S
C1990 C1994 1.350 . S
C1991 C1994 1.463 1_565 S
C1991 C1996 1.350 . S
C1991 N1999 1.427 . S
C1992 H1983 0.930 . S
C1992 C1990 1.378 . S
C1992 C1993 1.367 . S
C1993 C1992 1.367 . S
C1993 C1995 1.433 . S
C1994 C1990 1.350 . S
C1994 C1991 1.463 1_545 S
C1994 N1998 1.427 . S
C1995 H1985 0.929 . S
C1995 C1993 1.433 . S
C1995 N1998 1.384 . S
C1996 H1987 0.929 . S
C1996 C1988 1.378 . S
C1996 C1991 1.350 . S
C1997 H1984 0.929 . S
C1997 C1989 1.433 . S
C1997 N1999 1.384 . S
N1998 C1994 1.427 . S
N1998 C1995 1.384 . S
N1999 C1991 1.427 . S
N1999 C1997 1.384 . S
H2000 C2006 0.930 . S
H2001 C2010 0.930 . S
H2002 C2015 0.929 . S
H2003 C2013 0.929 . S
H2004 C2008 0.929 . S
H2005 C2014 0.929 . S
C2006 H2000 0.930 . S
C2006 C2007 1.367 . S
C2006 C2014 1.378 . S
C2007 C2006 1.367 . S
C2007 C2015 1.433 . S
C2008 H2004 0.929 . S
C2008 C2010 1.378 . S
C2008 C2012 1.350 . S
C2009 C2012 1.463 . S
C2009 C2014 1.350 . S
C2009 N2017 1.427 . S
C2010 H2001 0.930 . S
C2010 C2008 1.378 . S
C2010 C2011 1.367 . S
C2011 C2010 1.367 . S
C2011 C2013 1.433 . S
C2012 C2008 1.350 . S
C2012 C2009 1.463 . S
C2012 N2016 1.427 . S
C2013 H2003 0.929 . S
C2013 C2011 1.433 . S
C2013 N2016 1.384 . S
C2014 H2005 0.929 . S
C2014 C2006 1.378 . S
C2014 C2009 1.350 . S
C2015 H2002 0.929 . S
C2015 C2007 1.433 . S
C2015 N2017 1.384 . S
N2016 C2012 1.427 . S
N2016 C2013 1.384 . S
N2017 C2009 1.427 . S
N2017 C2015 1.384 . S
H2018 C2024 0.930 . S
H2019 C2028 0.930 . S
H2020 C2033 0.929 . S
H2021 C2031 0.929 . S
H2022 C2026 0.929 . S
H2023 C2032 0.929 . S
C2024 H2018 0.930 . S
C2024 C2025 1.367 . S
C2024 C2032 1.378 . S
C2025 C2024 1.367 . S
C2025 C2033 1.433 . S
C2026 H2022 0.929 . S
C2026 C2028 1.378 . S
C2026 C2030 1.350 . S
C2027 C2030 1.463 . S
C2027 C2032 1.350 . S
C2027 N2035 1.427 . S
C2028 H2019 0.930 . S
C2028 C2026 1.378 . S
C2028 C2029 1.367 . S
C2029 C2028 1.367 . S
C2029 C2031 1.433 . S
C2030 C2026 1.350 . S
C2030 C2027 1.463 . S
C2030 N2034 1.427 . S
C2031 H2021 0.929 . S
C2031 C2029 1.433 . S
C2031 N2034 1.384 . S
C2032 H2023 0.929 . S
C2032 C2024 1.378 . S
C2032 C2027 1.350 . S
C2033 H2020 0.929 . S
C2033 C2025 1.433 . S
C2033 N2035 1.384 . S
N2034 C2030 1.427 . S
N2034 C2031 1.384 . S
N2035 C2027 1.427 . S
N2035 C2033 1.384 . S
H2036 C2042 0.930 . S
H2037 C2046 0.930 . S
H2038 C2051 0.929 . S
H2039 C2049 0.929 . S
H2040 C2044 0.929 . S
H2041 C2050 0.929 . S
C2042 H2036 0.930 . S
C2042 C2043 1.367 . S
C2042 C2050 1.378 . S
C2043 C2042 1.367 . S
C2043 C2051 1.433 . S
C2044 H2040 0.929 . S
C2044 C2046 1.378 . S
C2044 C2048 1.350 . S
C2045 C2048 1.463 . S
C2045 C2050 1.350 . S
C2045 N2053 1.427 . S
C2046 H2037 0.930 . S
C2046 C2044 1.378 . S
C2046 C2047 1.367 . S
C2047 C2046 1.367 . S
C2047 C2049 1.433 . S
C2048 C2044 1.350 . S
C2048 C2045 1.463 . S
C2048 N2052 1.427 . S
C2049 H2039 0.929 . S
C2049 C2047 1.433 . S
C2049 N2052 1.384 . S
C2050 H2041 0.929 . S
C2050 C2042 1.378 . S
C2050 C2045 1.350 . S
C2051 H2038 0.929 . S
C2051 C2043 1.433 . S
C2051 N2053 1.384 . S
N2052 C2048 1.427 . S
N2052 C2049 1.384 . S
N2053 C2045 1.427 . S
N2053 C2051 1.384 . S
H2054 C2060 0.930 . S
H2055 C2064 0.930 . S
H2056 C2069 0.929 . S
H2057 C2067 0.929 . S
H2058 C2062 0.929 . S
H2059 C2068 0.929 . S
C2060 H2054 0.930 . S
C2060 C2061 1.367 . S
C2060 C2068 1.378 . S
C2061 C2060 1.367 . S
C2061 C2069 1.433 . S
C2062 H2058 0.929 . S
C2062 C2064 1.378 . S
C2062 C2066 1.350 . S
C2063 C2066 1.463 . S
C2063 C2068 1.350 . S
C2063 N2071 1.427 . S
C2064 H2055 0.930 . S
C2064 C2062 1.378 . S
C2064 C2065 1.367 . S
C2065 C2064 1.367 . S
C2065 C2067 1.433 . S
C2066 C2062 1.350 . S
C2066 C2063 1.463 . S
C2066 N2070 1.427 . S
C2067 H2057 0.929 . S
C2067 C2065 1.433 . S
C2067 N2070 1.384 . S
C2068 H2059 0.929 . S
C2068 C2060 1.378 . S
C2068 C2063 1.350 . S
C2069 H2056 0.929 . S
C2069 C2061 1.433 . S
C2069 N2071 1.384 . S
N2070 C2066 1.427 . S
N2070 C2067 1.384 . S
N2071 C2063 1.427 . S
N2071 C2069 1.384 . S
H2072 C2078 0.930 . S
H2073 C2082 0.930 . S
H2074 C2087 0.929 . S
H2075 C2085 0.929 . S
H2076 C2080 0.929 . S
H2077 C2086 0.929 . S
C2078 H2072 0.930 . S
C2078 C2079 1.367 . S
C2078 C2086 1.378 . S
C2079 C2078 1.367 . S
C2079 C2087 1.433 . S
C2080 H2076 0.929 . S
C2080 C2082 1.378 . S
C2080 C2084 1.350 . S
C2081 C2084 1.463 . S
C2081 C2086 1.350 . S
C2081 N2089 1.427 . S
C2082 H2073 0.930 . S
C2082 C2080 1.378 . S
C2082 C2083 1.367 . S
C2083 C2082 1.367 . S
C2083 C2085 1.433 . S
C2084 C2080 1.350 . S
C2084 C2081 1.463 . S
C2084 N2088 1.427 . S
C2085 H2075 0.929 . S
C2085 C2083 1.433 . S
C2085 N2088 1.384 . S
C2086 H2077 0.929 . S
C2086 C2078 1.378 . S
C2086 C2081 1.350 . S
C2087 H2074 0.929 . S
C2087 C2079 1.433 . S
C2087 N2089 1.384 . S
N2088 C2084 1.427 . S
N2088 C2085 1.384 . S
N2089 C2081 1.427 . S
N2089 C2087 1.384 . S
H2090 C2096 0.930 . S
H2091 C2100 0.930 . S
H2092 C2105 0.929 . S
H2093 C2103 0.929 . S
H2094 C2098 0.929 . S
H2095 C2104 0.929 . S
C2096 H2090 0.930 . S
C2096 C2097 1.367 . S
C2096 C2104 1.378 . S
C2097 C2096 1.367 . S
C2097 C2105 1.433 . S
C2098 H2094 0.929 . S
C2098 C2100 1.378 . S
C2098 C2102 1.350 . S
C2099 C2102 1.463 . S
C2099 C2104 1.350 . S
C2099 N2107 1.427 . S
C2100 H2091 0.930 . S
C2100 C2098 1.378 . S
C2100 C2101 1.367 . S
C2101 C2100 1.367 . S
C2101 C2103 1.433 . S
C2102 C2098 1.350 . S
C2102 C2099 1.463 . S
C2102 N2106 1.427 . S
C2103 H2093 0.929 . S
C2103 C2101 1.433 . S
C2103 N2106 1.384 . S
C2104 H2095 0.929 . S
C2104 C2096 1.378 . S
C2104 C2099 1.350 . S
C2105 H2092 0.929 . S
C2105 C2097 1.433 . S
C2105 N2107 1.384 . S
N2106 C2102 1.427 . S
N2106 C2103 1.384 . S
N2107 C2099 1.427 . S
N2107 C2105 1.384 . S
H2108 C2114 0.930 . S
H2109 C2118 0.930 . S
H2110 C2123 0.929 . S
H2111 C2121 0.929 . S
H2112 C2116 0.929 . S
H2113 C2122 0.929 . S
C2114 H2108 0.930 . S
C2114 C2115 1.367 . S
C2114 C2122 1.378 . S
C2115 C2114 1.367 . S
C2115 C2123 1.433 . S
C2116 H2112 0.929 . S
C2116 C2118 1.378 . S
C2116 C2120 1.350 . S
C2117 C2120 1.463 . S
C2117 C2122 1.350 . S
C2117 N2125 1.427 . S
C2118 H2109 0.930 . S
C2118 C2116 1.378 . S
C2118 C2119 1.367 . S
C2119 C2118 1.367 . S
C2119 C2121 1.433 . S
C2120 C2116 1.350 . S
C2120 C2117 1.463 . S
C2120 N2124 1.427 . S
C2121 H2111 0.929 . S
C2121 C2119 1.433 . S
C2121 N2124 1.384 . S
C2122 H2113 0.929 . S
C2122 C2114 1.378 . S
C2122 C2117 1.350 . S
C2123 H2110 0.929 . S
C2123 C2115 1.433 . S
C2123 N2125 1.384 . S
N2124 C2120 1.427 . S
N2124 C2121 1.384 . S
N2125 C2117 1.427 . S
N2125 C2123 1.384 . S
H2126 C2132 0.930 . S
H2127 C2136 0.930 . S
H2128 C2141 0.929 . S
H2129 C2139 0.929 . S
H2130 C2134 0.929 . S
H2131 C2140 0.929 . S
C2132 H2126 0.930 . S
C2132 C2133 1.367 . S
C2132 C2140 1.378 . S
C2133 C2132 1.367 . S
C2133 C2141 1.433 . S
C2134 H2130 0.929 . S
C2134 C2136 1.378 . S
C2134 C2138 1.350 . S
C2135 C2138 1.463 . S
C2135 C2140 1.350 . S
C2135 N2143 1.427 . S
C2136 H2127 0.930 . S
C2136 C2134 1.378 . S
C2136 C2137 1.367 . S
C2137 C2136 1.367 . S
C2137 C2139 1.433 . S
C2138 C2134 1.350 . S
C2138 C2135 1.463 . S
C2138 N2142 1.427 . S
C2139 H2129 0.929 . S
C2139 C2137 1.433 . S
C2139 N2142 1.384 . S
C2140 H2131 0.929 . S
C2140 C2132 1.378 . S
C2140 C2135 1.350 . S
C2141 H2128 0.929 . S
C2141 C2133 1.433 . S
C2141 N2143 1.384 . S
N2142 C2138 1.427 . S
N2142 C2139 1.384 . S
N2143 C2135 1.427 . S
N2143 C2141 1.384 . S
H2144 C2150 0.930 . S
H2145 C2154 0.930 . S
H2146 C2159 0.929 . S
H2147 C2157 0.929 . S
H2148 C2152 0.929 . S
H2149 C2158 0.929 . S
C2150 H2144 0.930 . S
C2150 C2151 1.367 . S
C2150 C2158 1.378 . S
C2151 C2150 1.367 . S
C2151 C2159 1.433 . S
C2152 H2148 0.929 . S
C2152 C2154 1.378 . S
C2152 C2156 1.350 . S
C2153 C2156 1.463 . S
C2153 C2158 1.350 . S
C2153 N2161 1.427 . S
C2154 H2145 0.930 . S
C2154 C2152 1.378 . S
C2154 C2155 1.367 . S
C2155 C2154 1.367 . S
C2155 C2157 1.433 . S
C2156 C2152 1.350 . S
C2156 C2153 1.463 . S
C2156 N2160 1.427 . S
C2157 H2147 0.929 . S
C2157 C2155 1.433 . S
C2157 N2160 1.384 . S
C2158 H2149 0.929 . S
C2158 C2150 1.378 . S
C2158 C2153 1.350 . S
C2159 H2146 0.929 . S
C2159 C2151 1.433 . S
C2159 N2161 1.384 . S
N2160 C2156 1.427 . S
N2160 C2157 1.384 . S
N2161 C2153 1.427 . S
N2161 C2159 1.384 . S
H2162 C2168 0.930 . S
H2163 C2172 0.930 . S
H2164 C2177 0.929 . S
H2165 C2175 0.929 . S
H2166 C2170 0.929 . S
H2167 C2176 0.929 . S
C2168 H2162 0.930 . S
C2168 C2169 1.367 . S
C2168 C2176 1.378 . S
C2169 C2168 1.367 . S
C2169 C2177 1.433 . S
C2170 H2166 0.929 . S
C2170 C2172 1.378 . S
C2170 C2174 1.350 . S
C2171 C2174 1.463 . S
C2171 C2176 1.350 . S
C2171 N2179 1.427 . S
C2172 H2163 0.930 . S
C2172 C2170 1.378 . S
C2172 C2173 1.367 . S
C2173 C2172 1.367 . S
C2173 C2175 1.433 . S
C2174 C2170 1.350 . S
C2174 C2171 1.463 . S
C2174 N2178 1.427 . S
C2175 H2165 0.929 . S
C2175 C2173 1.433 . S
C2175 N2178 1.384 . S
C2176 H2167 0.929 . S
C2176 C2168 1.378 . S
C2176 C2171 1.350 . S
C2177 H2164 0.929 . S
C2177 C2169 1.433 . S
C2177 N2179 1.384 . S
N2178 C2174 1.427 . S
N2178 C2175 1.384 . S
N2179 C2171 1.427 . S
N2179 C2177 1.384 . S
H2180 C2186 0.930 . S
H2181 C2190 0.930 . S
H2182 C2195 0.929 . S
H2183 C2193 0.929 . S
H2184 C2188 0.929 . S
H2185 C2194 0.929 . S
C2186 H2180 0.930 . S
C2186 C2187 1.367 . S
C2186 C2194 1.378 . S
C2187 C2186 1.367 . S
C2187 C2195 1.433 . S
C2188 H2184 0.929 . S
C2188 C2190 1.378 . S
C2188 C2192 1.350 . S
C2189 C2192 1.463 . S
C2189 C2194 1.350 . S
C2189 N2197 1.427 . S
C2190 H2181 0.930 . S
C2190 C2188 1.378 . S
C2190 C2191 1.367 . S
C2191 C2190 1.367 . S
C2191 C2193 1.433 . S
C2192 C2188 1.350 . S
C2192 C2189 1.463 . S
C2192 N2196 1.427 . S
C2193 H2183 0.929 . S
C2193 C2191 1.433 . S
C2193 N2196 1.384 . S
C2194 H2185 0.929 . S
C2194 C2186 1.378 . S
C2194 C2189 1.350 . S
C2195 H2182 0.929 . S
C2195 C2187 1.433 . S
C2195 N2197 1.384 . S
N2196 C2192 1.427 . S
N2196 C2193 1.384 . S
N2197 C2189 1.427 . S
N2197 C2195 1.384 . S
H2198 C2204 0.930 . S
H2199 C2208 0.930 . S
H2200 C2213 0.929 . S
H2201 C2211 0.929 . S
H2202 C2206 0.929 . S
H2203 C2212 0.929 . S
C2204 H2198 0.930 . S
C2204 C2205 1.367 . S
C2204 C2212 1.378 . S
C2205 C2204 1.367 . S
C2205 C2213 1.433 . S
C2206 H2202 0.929 . S
C2206 C2208 1.378 . S
C2206 C2210 1.350 . S
C2207 C2210 1.463 . S
C2207 C2212 1.350 . S
C2207 N2215 1.427 . S
C2208 H2199 0.930 . S
C2208 C2206 1.378 . S
C2208 C2209 1.367 . S
C2209 C2208 1.367 . S
C2209 C2211 1.433 . S
C2210 C2206 1.350 . S
C2210 C2207 1.463 . S
C2210 N2214 1.427 . S
C2211 H2201 0.929 . S
C2211 C2209 1.433 . S
C2211 N2214 1.384 . S
C2212 H2203 0.929 . S
C2212 C2204 1.378 . S
C2212 C2207 1.350 . S
C2213 H2200 0.929 . S
C2213 C2205 1.433 . S
C2213 N2215 1.384 . S
N2214 C2210 1.427 . S
N2214 C2211 1.384 . S
N2215 C2207 1.427 . S
N2215 C2213 1.384 . S
H2216 C2222 0.930 . S
H2217 C2226 0.930 . S
H2218 C2231 0.929 . S
H2219 C2229 0.929 . S
H2220 C2224 0.929 . S
H2221 C2230 0.929 . S
C2222 H2216 0.930 . S
C2222 C2223 1.367 . S
C2222 C2230 1.378 . S
C2223 C2222 1.367 . S
C2223 C2231 1.433 . S
C2224 H2220 0.929 . S
C2224 C2226 1.378 . S
C2224 C2228 1.350 . S
C2225 C2228 1.463 . S
C2225 C2230 1.350 . S
C2225 N2233 1.427 . S
C2226 H2217 0.930 . S
C2226 C2224 1.378 . S
C2226 C2227 1.367 . S
C2227 C2226 1.367 . S
C2227 C2229 1.433 . S
C2228 C2224 1.350 . S
C2228 C2225 1.463 . S
C2228 N2232 1.427 . S
C2229 H2219 0.929 . S
C2229 C2227 1.433 . S
C2229 N2232 1.384 . S
C2230 H2221 0.929 . S
C2230 C2222 1.378 . S
C2230 C2225 1.350 . S
C2231 H2218 0.929 . S
C2231 C2223 1.433 . S
C2231 N2233 1.384 . S
N2232 C2228 1.427 . S
N2232 C2229 1.384 . S
N2233 C2225 1.427 . S
N2233 C2231 1.384 . S
H2234 C2240 0.930 . S
H2235 C2244 0.930 . S
H2236 C2249 0.929 . S
H2237 C2247 0.929 . S
H2238 C2242 0.929 . S
H2239 C2248 0.929 . S
C2240 H2234 0.930 . S
C2240 C2241 1.367 . S
C2240 C2248 1.378 . S
C2241 C2240 1.367 . S
C2241 C2249 1.433 . S
C2242 H2238 0.929 . S
C2242 C2244 1.378 . S
C2242 C2246 1.350 . S
C2243 C2246 1.463 . S
C2243 C2248 1.350 . S
C2243 N2251 1.427 . S
C2244 H2235 0.930 . S
C2244 C2242 1.378 . S
C2244 C2245 1.367 . S
C2245 C2244 1.367 . S
C2245 C2247 1.433 . S
C2246 C2242 1.350 . S
C2246 C2243 1.463 . S
C2246 N2250 1.427 . S
C2247 H2237 0.929 . S
C2247 C2245 1.433 . S
C2247 N2250 1.384 . S
C2248 H2239 0.929 . S
C2248 C2240 1.378 . S
C2248 C2243 1.350 . S
C2249 H2236 0.929 . S
C2249 C2241 1.433 . S
C2249 N2251 1.384 . S
N2250 C2246 1.427 . S
N2250 C2247 1.384 . S
N2251 C2243 1.427 . S
N2251 C2249 1.384 . S
H2252 C2258 0.930 . S
H2253 C2262 0.930 . S
H2254 C2267 0.929 . S
H2255 C2265 0.929 . S
H2256 C2260 0.929 . S
H2257 C2266 0.929 . S
C2258 H2252 0.930 . S
C2258 C2259 1.367 . S
C2258 C2266 1.378 . S
C2259 C2258 1.367 . S
C2259 C2267 1.433 . S
C2260 H2256 0.929 . S
C2260 C2262 1.378 . S
C2260 C2264 1.350 . S
C2261 C2264 1.463 . S
C2261 C2266 1.350 . S
C2261 N2269 1.427 . S
C2262 H2253 0.930 . S
C2262 C2260 1.378 . S
C2262 C2263 1.367 . S
C2263 C2262 1.367 . S
C2263 C2265 1.433 . S
C2264 C2260 1.350 . S
C2264 C2261 1.463 . S
C2264 N2268 1.427 . S
C2265 H2255 0.929 . S
C2265 C2263 1.433 . S
C2265 N2268 1.384 . S
C2266 H2257 0.929 . S
C2266 C2258 1.378 . S
C2266 C2261 1.350 . S
C2267 H2254 0.929 . S
C2267 C2259 1.433 . S
C2267 N2269 1.384 . S
N2268 C2264 1.427 . S
N2268 C2265 1.384 . S
N2269 C2261 1.427 . S
N2269 C2267 1.384 . S
H2270 C2276 0.930 . S
H2271 C2280 0.930 . S
H2272 C2285 0.929 . S
H2273 C2283 0.929 . S
H2274 C2278 0.929 . S
H2275 C2284 0.929 . S
C2276 H2270 0.930 . S
C2276 C2277 1.367 . S
C2276 C2284 1.378 . S
C2277 C2276 1.367 . S
C2277 C2285 1.433 . S
C2278 H2274 0.929 . S
C2278 C2280 1.378 . S
C2278 C2282 1.350 . S
C2279 C2282 1.463 . S
C2279 C2284 1.350 . S
C2279 N2287 1.427 . S
C2280 H2271 0.930 . S
C2280 C2278 1.378 . S
C2280 C2281 1.367 . S
C2281 C2280 1.367 . S
C2281 C2283 1.433 . S
C2282 C2278 1.350 . S
C2282 C2279 1.463 . S
C2282 N2286 1.427 . S
C2283 H2273 0.929 . S
C2283 C2281 1.433 . S
C2283 N2286 1.384 . S
C2284 H2275 0.929 . S
C2284 C2276 1.378 . S
C2284 C2279 1.350 . S
C2285 H2272 0.929 . S
C2285 C2277 1.433 . S
C2285 N2287 1.384 . S
N2286 C2282 1.427 . S
N2286 C2283 1.384 . S
N2287 C2279 1.427 . S
N2287 C2285 1.384 . S
H2288 C2294 0.930 . S
H2289 C2298 0.930 . S
H2290 C2303 0.929 . S
H2291 C2301 0.929 . S
H2292 C2296 0.929 . S
H2293 C2302 0.929 . S
C2294 H2288 0.930 . S
C2294 C2295 1.367 . S
C2294 C2302 1.378 . S
C2295 C2294 1.367 . S
C2295 C2303 1.433 . S
C2296 H2292 0.929 . S
C2296 C2298 1.378 . S
C2296 C2300 1.350 . S
C2297 C2300 1.463 . S
C2297 C2302 1.350 . S
C2297 N2305 1.427 . S
C2298 H2289 0.930 . S
C2298 C2296 1.378 . S
C2298 C2299 1.367 . S
C2299 C2298 1.367 . S
C2299 C2301 1.433 . S
C2300 C2296 1.350 . S
C2300 C2297 1.463 . S
C2300 N2304 1.427 . S
C2301 H2291 0.929 . S
C2301 C2299 1.433 . S
C2301 N2304 1.384 . S
C2302 H2293 0.929 . S
C2302 C2294 1.378 . S
C2302 C2297 1.350 . S
C2303 H2290 0.929 . S
C2303 C2295 1.433 . S
C2303 N2305 1.384 . S
N2304 C2300 1.427 . S
N2304 C2301 1.384 . S
N2305 C2297 1.427 . S
N2305 C2303 1.384 . S
H2306 C2312 0.930 . S
H2307 C2316 0.930 . S
H2308 C2321 0.929 . S
H2309 C2319 0.929 . S
H2310 C2314 0.929 . S
H2311 C2320 0.929 . S
C2312 H2306 0.930 . S
C2312 C2313 1.367 . S
C2312 C2320 1.378 . S
C2313 C2312 1.367 . S
C2313 C2321 1.433 . S
C2314 H2310 0.929 . S
C2314 C2316 1.378 . S
C2314 C2318 1.350 . S
C2315 C2318 1.463 . S
C2315 C2320 1.350 . S
C2315 N2323 1.427 . S
C2316 H2307 0.930 . S
C2316 C2314 1.378 . S
C2316 C2317 1.367 . S
C2317 C2316 1.367 . S
C2317 C2319 1.433 . S
C2318 C2314 1.350 . S
C2318 C2315 1.463 . S
C2318 N2322 1.427 . S
C2319 H2309 0.929 . S
C2319 C2317 1.433 . S
C2319 N2322 1.384 . S
C2320 H2311 0.929 . S
C2320 C2312 1.378 . S
C2320 C2315 1.350 . S
C2321 H2308 0.929 . S
C2321 C2313 1.433 . S
C2321 N2323 1.384 . S
N2322 C2318 1.427 . S
N2322 C2319 1.384 . S
N2323 C2315 1.427 . S
N2323 C2321 1.384 . S
H2324 C2330 0.930 . S
H2325 C2334 0.930 . S
H2326 C2339 0.929 . S
H2327 C2337 0.929 . S
H2328 C2332 0.929 . S
H2329 C2338 0.929 . S
C2330 H2324 0.930 . S
C2330 C2331 1.367 . S
C2330 C2338 1.378 . S
C2331 C2330 1.367 . S
C2331 C2339 1.433 . S
C2332 H2328 0.929 . S
C2332 C2334 1.378 . S
C2332 C2336 1.350 . S
C2333 C2336 1.463 . S
C2333 C2338 1.350 . S
C2333 N2341 1.427 . S
C2334 H2325 0.930 . S
C2334 C2332 1.378 . S
C2334 C2335 1.367 . S
C2335 C2334 1.367 . S
C2335 C2337 1.433 . S
C2336 C2332 1.350 . S
C2336 C2333 1.463 . S
C2336 N2340 1.427 . S
C2337 H2327 0.929 . S
C2337 C2335 1.433 . S
C2337 N2340 1.384 . S
C2338 H2329 0.929 . S
C2338 C2330 1.378 . S
C2338 C2333 1.350 . S
C2339 H2326 0.929 . S
C2339 C2331 1.433 . S
C2339 N2341 1.384 . S
N2340 C2336 1.427 . S
N2340 C2337 1.384 . S
N2341 C2333 1.427 . S
N2341 C2339 1.384 . S
H2342 C2348 0.930 . S
H2343 C2352 0.930 . S
H2344 C2357 0.929 . S
H2345 C2355 0.929 . S
H2346 C2350 0.929 . S
H2347 C2356 0.929 . S
C2348 H2342 0.930 . S
C2348 C2349 1.367 . S
C2348 C2356 1.378 . S
C2349 C2348 1.367 . S
C2349 C2357 1.433 . S
C2350 H2346 0.929 . S
C2350 C2352 1.378 . S
C2350 C2354 1.350 . S
C2351 C2354 1.463 . S
C2351 C2356 1.350 . S
C2351 N2359 1.427 . S
C2352 H2343 0.930 . S
C2352 C2350 1.378 . S
C2352 C2353 1.367 . S
C2353 C2352 1.367 . S
C2353 C2355 1.433 . S
C2354 C2350 1.350 . S
C2354 C2351 1.463 . S
C2354 N2358 1.427 . S
C2355 H2345 0.929 . S
C2355 C2353 1.433 . S
C2355 N2358 1.384 . S
C2356 H2347 0.929 . S
C2356 C2348 1.378 . S
C2356 C2351 1.350 . S
C2357 H2344 0.929 . S
C2357 C2349 1.433 . S
C2357 N2359 1.384 . S
N2358 C2354 1.427 . S
N2358 C2355 1.384 . S
N2359 C2351 1.427 . S
N2359 C2357 1.384 . S
H2360 C2366 0.930 . S
H2361 C2370 0.930 . S
H2362 C2375 0.929 . S
H2363 C2373 0.929 . S
H2364 C2368 0.929 . S
H2365 C2374 0.929 . S
C2366 H2360 0.930 . S
C2366 C2367 1.367 . S
C2366 C2374 1.378 . S
C2367 C2366 1.367 . S
C2367 C2375 1.433 . S
C2368 H2364 0.929 . S
C2368 C2370 1.378 . S
C2368 C2372 1.350 . S
C2369 C2372 1.463 . S
C2369 C2374 1.350 . S
C2369 N2377 1.427 . S
C2370 H2361 0.930 . S
C2370 C2368 1.378 . S
C2370 C2371 1.367 . S
C2371 C2370 1.367 . S
C2371 C2373 1.433 . S
C2372 C2368 1.350 . S
C2372 C2369 1.463 . S
C2372 N2376 1.427 . S
C2373 H2363 0.929 . S
C2373 C2371 1.433 . S
C2373 N2376 1.384 . S
C2374 H2365 0.929 . S
C2374 C2366 1.378 . S
C2374 C2369 1.350 . S
C2375 H2362 0.929 . S
C2375 C2367 1.433 . S
C2375 N2377 1.384 . S
N2376 C2372 1.427 . S
N2376 C2373 1.384 . S
N2377 C2369 1.427 . S
N2377 C2375 1.384 . S
H2378 C2384 0.930 . S
H2379 C2388 0.930 . S
H2380 C2393 0.929 . S
H2381 C2391 0.929 . S
H2382 C2386 0.929 . S
H2383 C2392 0.929 . S
C2384 H2378 0.930 . S
C2384 C2385 1.367 . S
C2384 C2392 1.378 . S
C2385 C2384 1.367 . S
C2385 C2393 1.433 . S
C2386 H2382 0.929 . S
C2386 C2388 1.378 . S
C2386 C2390 1.350 . S
C2387 C2390 1.463 . S
C2387 C2392 1.350 . S
C2387 N2395 1.427 . S
C2388 H2379 0.930 . S
C2388 C2386 1.378 . S
C2388 C2389 1.367 . S
C2389 C2388 1.367 . S
C2389 C2391 1.433 . S
C2390 C2386 1.350 . S
C2390 C2387 1.463 . S
C2390 N2394 1.427 . S
C2391 H2381 0.929 . S
C2391 C2389 1.433 . S
C2391 N2394 1.384 . S
C2392 H2383 0.929 . S
C2392 C2384 1.378 . S
C2392 C2387 1.350 . S
C2393 H2380 0.929 . S
C2393 C2385 1.433 . S
C2393 N2395 1.384 . S
N2394 C2390 1.427 . S
N2394 C2391 1.384 . S
N2395 C2387 1.427 . S
N2395 C2393 1.384 . S
H2396 C2402 0.930 . S
H2397 C2406 0.930 . S
H2398 C2411 0.929 . S
H2399 C2409 0.929 . S
H2400 C2404 0.929 . S
H2401 C2410 0.929 . S
C2402 H2396 0.930 . S
C2402 C2403 1.367 . S
C2402 C2410 1.378 . S
C2403 C2402 1.367 . S
C2403 C2411 1.433 . S
C2404 H2400 0.929 . S
C2404 C2406 1.378 . S
C2404 C2408 1.350 . S
C2405 C2408 1.463 . S
C2405 C2410 1.350 . S
C2405 N2413 1.427 . S
C2406 H2397 0.930 . S
C2406 C2404 1.378 . S
C2406 C2407 1.367 . S
C2407 C2406 1.367 . S
C2407 C2409 1.433 . S
C2408 C2404 1.350 . S
C2408 C2405 1.463 . S
C2408 N2412 1.427 . S
C2409 H2399 0.929 . S
C2409 C2407 1.433 . S
C2409 N2412 1.384 . S
C2410 H2401 0.929 . S
C2410 C2402 1.378 . S
C2410 C2405 1.350 . S
C2411 H2398 0.929 . S
C2411 C2403 1.433 . S
C2411 N2413 1.384 . S
N2412 C2408 1.427 . S
N2412 C2409 1.384 . S
N2413 C2405 1.427 . S
N2413 C2411 1.384 . S
H2414 C2420 0.930 . S
H2415 C2424 0.930 . S
H2416 C2429 0.929 . S
H2417 C2427 0.929 . S
H2418 C2422 0.929 . S
H2419 C2428 0.929 . S
C2420 H2414 0.930 . S
C2420 C2421 1.367 . S
C2420 C2428 1.378 . S
C2421 C2420 1.367 . S
C2421 C2429 1.433 . S
C2422 H2418 0.929 . S
C2422 C2424 1.378 . S
C2422 C2426 1.350 . S
C2423 C2426 1.463 . S
C2423 C2428 1.350 . S
C2423 N2431 1.427 . S
C2424 H2415 0.930 . S
C2424 C2422 1.378 . S
C2424 C2425 1.367 . S
C2425 C2424 1.367 . S
C2425 C2427 1.433 . S
C2426 C2422 1.350 . S
C2426 C2423 1.463 . S
C2426 N2430 1.427 . S
C2427 H2417 0.929 . S
C2427 C2425 1.433 . S
C2427 N2430 1.384 . S
C2428 H2419 0.929 . S
C2428 C2420 1.378 . S
C2428 C2423 1.350 . S
C2429 H2416 0.929 . S
C2429 C2421 1.433 . S
C2429 N2431 1.384 . S
N2430 C2426 1.427 . S
N2430 C2427 1.384 . S
N2431 C2423 1.427 . S
N2431 C2429 1.384 . S
C711 C358 1.137 . S
C715 C5 1.140 . S
C729 C515 1.140 . S
C733 C30 1.136 . S
C747 C49 1.137 . S
C751 C470 1.139 . S
C765 C73 1.137 . S
C769 C493 1.140 . S
C783 C94 1.139 . S
C787 C379 1.137 . S
C801 C119 1.140 . S
C805 C404 1.136 . S
C819 C423 1.138 . S
C823 C140 1.138 . S
C837 C163 1.140 . S
C841 C447 1.137 . S
C855 C185 1.139 . S
C859 C6 1.138 . S
C873 C31 1.137 . S
C877 C205 1.140 . S
C891 C224 1.137 . S
C895 C50 1.140 . S
C909 C74 1.137 . S
C913 C249 1.140 . S
C927 C92 1.139 . S
C931 C268 1.137 . S
C945 C294 1.138 . S
C949 C117 1.138 . S
C963 C141 1.137 . S
C967 C314 1.139 . S
C981 C339 1.137 . S
C985 C161 1.140 . S
C999 C183 1.140 . S
C1003 C357 1.137 . S
C1017 C378 1.137 . S
C1021 C269 1.140 . S
C1035 C403 1.138 . S
C1039 C295 1.139 . S
C1053 C312 1.139 . S
C1057 C422 1.137 . S
C1071 C449 1.140 . S
C1075 C337 1.136 . S
C1089 C469 1.140 . S
C1093 C225 1.137 . S
C1107 C250 1.140 . S
C1111 C492 1.136 . S
C1125 C514 1.137 . S
C1129 C206 1.139 . S
C1143 C691 1.137 . S
C1147 C338 1.140 . S
C1161 C293 1.139 . S
C1165 C669 1.138 . S
C1179 C624 1.140 . S
C1183 C251 1.137 . S
C1197 C645 1.136 . S
C1201 C207 1.140 . S
C1215 C380 1.140 . S
C1219 C537 1.137 . S
C1233 C424 1.136 . S
C1237 C554 1.140 . S
C1251 C578 1.136 . S
C1255 C356 1.140 . S
C1269 C600 1.136 . S
C1273 C471 1.140 . S
C1287 C535 1.137 . S
C1291 C93 1.140 . S
C1305 C576 1.139 . S
C1309 C4 1.137 . S
C1323 C75 1.136 . S
C1327 C623 1.140 . S
C1341 C598 1.140 . S
C1345 C48 1.137 . S
C1359 C647 1.137 . S
C1363 C29 1.139 . S
C1377 C139 1.136 . S
C1381 C555 1.140 . S
C1395 C668 1.140 . S
C1399 C118 1.136 . S
C1413 C162 1.140 . S
C1417 C690 1.137 . S
C1431 C313 1.139 . S
C1435 C556 1.137 . S
C1449 C270 1.139 . S
C1453 C536 1.137 . S
C1467 C599 1.140 . S
C1471 C226 1.136 . S
C1485 C577 1.140 . S
C1489 C184 1.137 . S
C1503 C405 1.139 . S
C1507 C667 1.138 . S
C1521 C448 1.138 . S
C1525 C689 1.139 . S
C1539 C646 1.136 . S
C1543 C513 1.140 . S
C1557 C491 1.140 . S
C1561 C625 1.137 . S
C1575 C71 1.599 . S
C1579 C9 1.602 . S
C1593 C28 1.605 . S
C1597 C7 1.596 . S
C1611 C26 1.601 . S
C1615 C53 1.599 . S
C1629 C51 1.595 . S
C1633 C70 1.605 . S
C1647 C116 1.600 . S
C1651 C96 1.600 . S
C1665 C136 1.601 . S
C1669 C115 1.600 . S
C1683 C138 1.606 . S
C1687 C160 1.595 . S
C1701 C159 1.601 . S
C1705 C97 1.600 . S
C1719 C181 1.602 . S
C1723 C401 1.599 . S
C1737 C426 1.600 . S
C1741 C202 1.601 . S
C1755 C446 1.595 . S
C1759 C227 1.606 . S
C1773 C246 1.605 . S
C1777 C382 1.596 . S
C1791 C271 1.597 . S
C1795 C488 1.604 . S
C1809 C359 1.600 . S
C1813 C292 1.601 . S
C1827 C510 1.605 . S
C1831 C316 1.595 . S
C1845 C335 1.596 . S
C1849 C467 1.605 . S
C1863 C361 1.598 . S
C1867 C203 1.603 . S
C1881 C381 1.606 . S
C1885 C336 1.595 . S
C1899 C272 1.595 . S
C1903 C400 1.606 . S
C1917 C290 1.606 . S
C1921 C425 1.595 . S
C1935 C445 1.602 . S
C1939 C317 1.599 . S
C1953 C466 1.605 . S
C1957 C247 1.595 . S
C1971 C490 1.601 . S
C1975 C182 1.600 . S
C1989 C228 1.595 . S
C1993 C512 1.606 . S
C2007 C383 1.605 . S
C2011 C291 1.595 . S
C2025 C334 1.601 . S
C2029 C427 1.599 . S
C2043 C360 1.605 . S
C2047 C248 1.596 . S
C2061 C204 1.598 . S
C2065 C468 1.602 . S
C2079 C533 1.603 . S
C2083 C621 1.597 . S
C2097 C52 1.598 . S
C2101 C158 1.602 . S
C2115 C557 1.601 . S
C2119 C644 1.600 . S
C2133 C114 1.603 . S
C2137 C8 1.597 . S
C2151 C664 1.596 . S
C2155 C580 1.605 . S
C2169 C72 1.606 . S
C2173 C95 1.595 . S
C2187 C602 1.596 . S
C2191 C686 1.605 . S
C2205 C137 1.600 . S
C2209 C27 1.600 . S
C2223 C620 1.595 . S
C2227 C581 1.606 . S
C2241 C603 1.606 . S
C2245 C643 1.595 . S
C2259 C534 1.595 . S
C2263 C666 1.606 . S
C2277 C558 1.606 . S
C2281 C688 1.595 . S
C2295 C402 1.597 . S
C2299 C315 1.603 . S
C2313 C444 1.600 . S
C2317 C273 1.600 . S
C2331 C180 1.605 . S
C2335 C511 1.596 . S
C2349 C229 1.597 . S
C2353 C489 1.604 . S
C2367 C665 1.602 . S
C2371 C559 1.598 . S
C2385 C622 1.599 . S
C2389 C601 1.601 . S
C2403 C642 1.605 . S
C2407 C579 1.595 . S
C2421 C532 1.605 . S
C2425 C687 1.596 . S
