# Generated by pormake.
# Topology ske, (6)-cn, num edge types: 1
# Building blocks:
#     Node 0, Type 0, BuildingBlock: GEDQOX_clean_sbu_0, # of connection points: 6
#     Node 1, Type 0, BuildingBlock: GEDQOX_clean_sbu_0, # of connection points: 6
#     Node 2, Type 0, BuildingBlock: GEDQOX_clean_sbu_0, # of connection points: 6
#     Node 3, Type 0, BuildingBlock: GEDQOX_clean_sbu_0, # of connection points: 6
#     Node 4, Type 0, BuildingBlock: GEDQOX_clean_sbu_0, # of connection points: 6
#     Node 5, Type 0, BuildingBlock: GEDQOX_clean_sbu_0, # of connection points: 6
#     Node 6, Type 0, BuildingBlock: GEDQOX_clean_sbu_0, # of connection points: 6
#     Node 7, Type 0, BuildingBlock: GEDQOX_clean_sbu_0, # of connection points: 6
#     Edge 8, Type (0, 0), BuildingBlock: ZUJKAS_clean_linker_0, # of connection points: 2
#     Edge 9, Type (0, 0), BuildingBlock: ZUJKAS_clean_linker_0, # of connection points: 2
#     Edge 10, Type (0, 0), BuildingBlock: ZUJKAS_clean_linker_0, # of connection points: 2
#     Edge 11, Type (0, 0), BuildingBlock: ZUJKAS_clean_linker_0, # of connection points: 2
#     Edge 12, Type (0, 0), BuildingBlock: ZUJKAS_clean_linker_0, # of connection points: 2
#     Edge 13, Type (0, 0), BuildingBlock: ZUJKAS_clean_linker_0, # of connection points: 2
#     Edge 14, Type (0, 0), BuildingBlock: ZUJKAS_clean_linker_0, # of connection points: 2
#     Edge 15, Type (0, 0), BuildingBlock: ZUJKAS_clean_linker_0, # of connection points: 2
#     Edge 16, Type (0, 0), BuildingBlock: ZUJKAS_clean_linker_0, # of connection points: 2
#     Edge 17, Type (0, 0), BuildingBlock: ZUJKAS_clean_linker_0, # of connection points: 2
#     Edge 18, Type (0, 0), BuildingBlock: ZUJKAS_clean_linker_0, # of connection points: 2
#     Edge 19, Type (0, 0), BuildingBlock: ZUJKAS_clean_linker_0, # of connection points: 2
#     Edge 20, Type (0, 0), BuildingBlock: ZUJKAS_clean_linker_0, # of connection points: 2
#     Edge 21, Type (0, 0), BuildingBlock: ZUJKAS_clean_linker_0, # of connection points: 2
#     Edge 22, Type (0, 0), BuildingBlock: ZUJKAS_clean_linker_0, # of connection points: 2
#     Edge 23, Type (0, 0), BuildingBlock: ZUJKAS_clean_linker_0, # of connection points: 2
#     Edge 24, Type (0, 0), BuildingBlock: ZUJKAS_clean_linker_0, # of connection points: 2
#     Edge 25, Type (0, 0), BuildingBlock: ZUJKAS_clean_linker_0, # of connection points: 2
#     Edge 26, Type (0, 0), BuildingBlock: ZUJKAS_clean_linker_0, # of connection points: 2
#     Edge 27, Type (0, 0), BuildingBlock: ZUJKAS_clean_linker_0, # of connection points: 2
#     Edge 28, Type (0, 0), BuildingBlock: ZUJKAS_clean_linker_0, # of connection points: 2
#     Edge 29, Type (0, 0), BuildingBlock: ZUJKAS_clean_linker_0, # of connection points: 2
#     Edge 30, Type (0, 0), BuildingBlock: ZUJKAS_clean_linker_0, # of connection points: 2
#     Edge 31, Type (0, 0), BuildingBlock: ZUJKAS_clean_linker_0, # of connection points: 2
# Relax obj value: 0.195
# Max RMSD: 0.219
# Mean RMSD: 0.219
data_MOF--net-ske--node1-GEDQOX_clean_sbu_0--edge1-ZUJKAS_clean_linker_0
_symmetry_space_group_name_H-M    P1
_symmetry_Int_Tables_number       1
_symmetry_cell_setting            triclinic
loop_
_symmetry_equiv_pos_as_xyz
'x, y, z'
_cell_length_a     69.105394
_cell_length_b     38.269716
_cell_length_c     30.101697
_cell_angle_alpha  89.999548
_cell_angle_beta   89.983599
_cell_angle_gamma 96.568455
loop_
_atom_site_label
_atom_site_type_symbol
_atom_site_fract_x
_atom_site_fract_y
_atom_site_fract_z
_atom_type_partial_charge
Nd0 Nd 0.17263 0.26111 0.50277 0.0
Nd1 Nd 0.15567 0.2548 0.60424 0.0
C2 C 0.18202 0.28534 0.42278 0.0
C3 C 0.175 0.2787 0.37683 0.0
C4 C 0.16462 0.30352 0.35584 0.0
C5 C 0.1589 0.29918 0.31159 0.0
C6 C 0.16365 0.27012 0.28705 0.0
C7 C 0.17326 0.24441 0.30865 0.0
C8 C 0.17886 0.24862 0.35315 0.0
C9 C 0.16369 0.19119 0.52437 0.0
C10 C 0.12457 0.25167 0.52398 0.0
C11 C 0.1466 0.23253 0.68445 0.0
C12 C 0.15524 0.24025 0.72858 0.0
C13 C 0.16719 0.21695 0.74758 0.0
C14 C 0.17444 0.22263 0.79044 0.0
C15 C 0.16969 0.25148 0.81533 0.0
C16 C 0.15872 0.27594 0.79533 0.0
C17 C 0.15157 0.2704 0.7523 0.0
C18 C 0.16423 0.32478 0.57659 0.0
C19 C 0.20263 0.26045 0.59044 0.0
O20 O 0.17009 0.29943 0.44924 0.0
O21 O 0.19117 0.26137 0.44241 0.0
O22 O 0.17008 0.20231 0.48583 0.0
O23 O 0.16163 0.21732 0.54914 0.0
O24 O 0.13883 0.26099 0.49496 0.0
O25 O 0.12785 0.24334 0.56555 0.0
O26 O 0.15698 0.21555 0.65714 0.0
O27 O 0.13803 0.25744 0.66512 0.0
O28 O 0.15749 0.31595 0.61578 0.0
O29 O 0.16649 0.29682 0.55659 0.0
O30 O 0.18747 0.25317 0.61641 0.0
O31 O 0.2012 0.26774 0.54706 0.0
H32 H 0.16126 0.3268 0.37342 0.0
H33 H 0.15117 0.31912 0.29626 0.0
H34 H 0.17731 0.22183 0.29067 0.0
H35 H 0.18666 0.22881 0.3685 0.0
H36 H 0.17052 0.19377 0.72978 0.0
H37 H 0.18317 0.20369 0.80471 0.0
H38 H 0.15468 0.29831 0.81374 0.0
H39 H 0.14266 0.28915 0.73831 0.0
Nd40 Nd 0.87205 0.24697 0.50918 0.0
Nd41 Nd 0.88864 0.25633 0.60105 0.0
C42 C 0.86396 0.2199 0.42974 0.0
C43 C 0.86996 0.22736 0.38299 0.0
C44 C 0.87968 0.20278 0.35972 0.0
C45 C 0.88431 0.20773 0.31477 0.0
C46 C 0.87916 0.23729 0.29171 0.0
C47 C 0.87019 0.26273 0.31553 0.0
C48 C 0.86566 0.25786 0.36069 0.0
C49 C 0.87883 0.31848 0.52027 0.0
C50 C 0.91983 0.26294 0.52593 0.0
C51 C 0.8969 0.26925 0.68537 0.0
C52 C 0.88714 0.26325 0.72882 0.0
C53 C 0.87614 0.28842 0.74709 0.0
C54 C 0.86923 0.28483 0.79066 0.0
C55 C 0.87328 0.25611 0.81683 0.0
C56 C 0.88314 0.2298 0.79742 0.0
C57 C 0.89001 0.23336 0.75394 0.0
C58 C 0.88543 0.18868 0.56808 0.0
C59 C 0.84147 0.24894 0.59304 0.0
O60 O 0.87716 0.20907 0.45603 0.0
O61 O 0.85318 0.24139 0.44939 0.0
O62 O 0.87177 0.30293 0.48483 0.0
O63 O 0.8824 0.29631 0.54958 0.0
O64 O 0.90578 0.24646 0.50113 0.0
O65 O 0.91581 0.27678 0.56417 0.0
O66 O 0.89046 0.29237 0.65881 0.0
O67 O 0.90161 0.24154 0.66441 0.0
O68 O 0.90075 0.20373 0.58809 0.0
O69 O 0.87248 0.20928 0.56563 0.0
O70 O 0.85687 0.2567 0.61798 0.0
O71 O 0.84288 0.24128 0.55008 0.0
H72 H 0.88338 0.17924 0.37614 0.0
H73 H 0.8916 0.18795 0.29785 0.0
H74 H 0.86589 0.28572 0.29892 0.0
H75 H 0.85835 0.27755 0.37772 0.0
H76 H 0.87349 0.31159 0.7284 0.0
H77 H 0.86136 0.30522 0.80442 0.0
H78 H 0.88668 0.20748 0.81665 0.0
H79 H 0.89836 0.2134 0.74078 0.0
Nd80 Nd 0.15537 0.75368 0.43343 0.0
Nd81 Nd 0.17197 0.76358 0.5299 0.0
C82 C 0.14796 0.73028 0.35249 0.0
C83 C 0.15646 0.73676 0.30817 0.0
C84 C 0.16347 0.70889 0.28531 0.0
C85 C 0.1698 0.71333 0.24158 0.0
C86 C 0.16913 0.74569 0.2201 0.0
C87 C 0.16344 0.77434 0.24385 0.0
C88 C 0.1571 0.76991 0.2877 0.0
C89 C 0.16067 0.82281 0.46213 0.0
C90 C 0.20266 0.76548 0.44398 0.0
C91 C 0.18026 0.78993 0.6096 0.0
C92 C 0.17433 0.78289 0.65635 0.0
C93 C 0.16839 0.81049 0.68175 0.0
C94 C 0.16392 0.80572 0.72672 0.0
C95 C 0.16529 0.77319 0.74737 0.0
C96 C 0.17019 0.74489 0.72152 0.0
C97 C 0.17473 0.7497 0.67632 0.0
C98 C 0.16413 0.69223 0.51491 0.0
C99 C 0.12403 0.75158 0.51138 0.0
O100 O 0.15843 0.7145 0.38075 0.0
O101 O 0.13921 0.75543 0.37038 0.0
O102 O 0.14778 0.81082 0.43286 0.0
O103 O 0.17163 0.79953 0.47119 0.0
O104 O 0.18749 0.75876 0.41782 0.0
O105 O 0.201 0.77011 0.48781 0.0
O106 O 0.16704 0.80104 0.58362 0.0
O107 O 0.19076 0.76794 0.5899 0.0
O108 O 0.17127 0.7061 0.5514 0.0
O109 O 0.16136 0.71638 0.48777 0.0
O110 O 0.1384 0.764 0.5382 0.0
O111 O 0.12713 0.74106 0.47076 0.0
H112 H 0.16334 0.68326 0.30072 0.0
H113 H 0.17424 0.691 0.22371 0.0
H114 H 0.16268 0.79943 0.22765 0.0
H115 H 0.15202 0.79201 0.30484 0.0
H116 H 0.16768 0.83613 0.66699 0.0
H117 H 0.15992 0.82783 0.74576 0.0
H118 H 0.17141 0.71956 0.73669 0.0
H119 H 0.17898 0.72775 0.65739 0.0
Nd120 Nd 0.88884 0.75474 0.43474 0.0
Nd121 Nd 0.87145 0.74924 0.52962 0.0
C122 C 0.89702 0.7689 0.35099 0.0
C123 C 0.88707 0.76383 0.30793 0.0
C124 C 0.88547 0.79323 0.28111 0.0
C125 C 0.87842 0.78902 0.23787 0.0
C126 C 0.87285 0.75521 0.22063 0.0
C127 C 0.87302 0.72592 0.24881 0.0
C128 C 0.88009 0.73017 0.29216 0.0
C129 C 0.88443 0.68884 0.47208 0.0
C130 C 0.84133 0.74763 0.44386 0.0
C131 C 0.86255 0.72442 0.6097 0.0
C132 C 0.86878 0.73198 0.65597 0.0
C133 C 0.8709 0.7038 0.68456 0.0
C134 C 0.87582 0.7098 0.72913 0.0
C135 C 0.87885 0.74426 0.74617 0.0
C136 C 0.87757 0.77261 0.71683 0.0
C137 C 0.87257 0.76654 0.67214 0.0
C138 C 0.88045 0.81964 0.5114 0.0
C139 C 0.91943 0.76159 0.51235 0.0
O140 O 0.89046 0.79163 0.37798 0.0
O141 O 0.90184 0.74083 0.37111 0.0
O142 O 0.89941 0.70083 0.44838 0.0
O143 O 0.87211 0.71067 0.47398 0.0
O144 O 0.85673 0.75223 0.41806 0.0
O145 O 0.84261 0.74393 0.48777 0.0
O146 O 0.8753 0.71167 0.58395 0.0
O147 O 0.85279 0.74732 0.58963 0.0
O148 O 0.87264 0.80778 0.54825 0.0
O149 O 0.88311 0.79445 0.48598 0.0
O150 O 0.90502 0.74669 0.53762 0.0
O151 O 0.91604 0.77396 0.47277 0.0
H152 H 0.89051 0.81945 0.29293 0.0
H153 H 0.87859 0.81217 0.21714 0.0
H154 H 0.86842 0.69959 0.23679 0.0
H155 H 0.88073 0.70704 0.31261 0.0
H156 H 0.86829 0.67697 0.6726 0.0
H157 H 0.87644 0.68724 0.75054 0.0
H158 H 0.88018 0.79951 0.72847 0.0
H159 H 0.87142 0.7888 0.65048 0.0
Nd160 Nd 0.67178 0.76269 1.0093 0.0
Nd161 Nd 0.65463 0.75508 0.10094 0.0
C162 C 0.68027 0.78904 0.92973 0.0
C163 C 0.67434 0.78166 0.88307 0.0
C164 C 0.66759 0.80859 0.85785 0.0
C165 C 0.66306 0.80349 0.81293 0.0
C166 C 0.66525 0.77132 0.79206 0.0
C167 C 0.6711 0.74368 0.81783 0.0
C168 C 0.67562 0.74879 0.86296 0.0
C169 C 0.66578 0.69165 0.02317 0.0
C170 C 0.62372 0.74673 0.02471 0.0
C171 C 0.64584 0.74392 0.18524 0.0
C172 C 0.65585 0.74719 0.22858 0.0
C173 C 0.66354 0.71816 0.24742 0.0
C174 C 0.67025 0.71959 0.29117 0.0
C175 C 0.66931 0.75 0.31687 0.0
C176 C 0.66304 0.7799 0.29689 0.0
C177 C 0.65632 0.77848 0.25319 0.0
C178 C 0.65741 0.82154 0.06509 0.0
C179 C 0.70197 0.7641 0.09432 0.0
O180 O 0.6671 0.80038 0.95565 0.0
O181 O 0.69072 0.76715 0.94962 0.0
O182 O 0.67299 0.70643 0.98735 0.0
O183 O 0.66172 0.71428 0.05142 0.0
O184 O 0.63802 0.76153 0.99918 0.0
O185 O 0.62729 0.73499 0.06441 0.0
O186 O 0.65018 0.71903 0.15845 0.0
O187 O 0.64348 0.77315 0.16458 0.0
O188 O 0.6419 0.80647 0.08441 0.0
O189 O 0.67062 0.80141 0.06435 0.0
O190 O 0.6865 0.75678 0.11926 0.0
O191 O 0.70068 0.76989 0.05087 0.0
H192 H 0.6662 0.83396 0.87272 0.0
H193 H 0.65823 0.82507 0.79424 0.0
H194 H 0.67298 0.7186 0.80271 0.0
H195 H 0.68052 0.72732 0.88174 0.0
H196 H 0.66356 0.69379 0.22913 0.0
H197 H 0.67531 0.69634 0.30557 0.0
H198 H 0.66202 0.80365 0.3159 0.0
H199 H 0.65059 0.80139 0.23954 0.0
Nd200 Nd 0.37093 0.74831 1.00987 0.0
Nd201 Nd 0.38771 0.75581 0.09634 0.0
C202 C 0.36225 0.73192 0.92599 0.0
C203 C 0.37 0.73798 0.88037 0.0
C204 C 0.3753 0.7095 0.8555 0.0
C205 C 0.37994 0.71347 0.81039 0.0
C206 C 0.37928 0.74604 0.78913 0.0
C207 C 0.37514 0.77504 0.81472 0.0
C208 C 0.37052 0.77108 0.85981 0.0
C209 C 0.37425 0.81694 0.03712 0.0
C210 C 0.41927 0.76011 0.02298 0.0
C211 C 0.39628 0.76979 0.18015 0.0
C212 C 0.38726 0.76239 0.22399 0.0
C213 C 0.38167 0.7903 0.24941 0.0
C214 C 0.37585 0.78489 0.29351 0.0
C215 C 0.37569 0.75149 0.31291 0.0
C216 C 0.37971 0.723 0.28635 0.0
C217 C 0.38544 0.72837 0.24222 0.0
C218 C 0.38288 0.68735 0.06553 0.0
C219 C 0.34091 0.74646 0.09296 0.0
O220 O 0.37136 0.7121 0.95221 0.0
O221 O 0.35598 0.75836 0.94682 0.0
O222 O 0.35904 0.8007 1.01805 0.0
O223 O 0.38753 0.79694 0.04182 0.0
O224 O 0.40458 0.74585 0.99811 0.0
O225 O 0.41573 0.77357 0.06164 0.0
O226 O 0.38802 0.79126 0.15443 0.0
O227 O 0.40241 0.7435 0.15863 0.0
O228 O 0.39843 0.70146 0.08537 0.0
O229 O 0.37026 0.70846 0.06337 0.0
O230 O 0.35627 0.76105 0.11398 0.0
O231 O 0.34262 0.73381 0.05222 0.0
H232 H 0.37507 0.68372 0.87051 0.0
H233 H 0.38299 0.69054 0.79171 0.0
H234 H 0.37491 0.80066 0.79956 0.0
H235 H 0.36671 0.7937 0.87805 0.0
H236 H 0.38272 0.81668 0.23587 0.0
H237 H 0.37283 0.80733 0.31319 0.0
H238 H 0.37932 0.69685 0.30036 0.0
H239 H 0.38926 0.70615 0.22315 0.0
Nd240 Nd 0.65432 0.25643 0.93568 0.0
Nd241 Nd 0.67223 0.2607 0.02851 0.0
C242 C 0.64548 0.2486 0.85102 0.0
C243 C 0.65564 0.25197 0.80792 0.0
C244 C 0.66447 0.22385 0.78987 0.0
C245 C 0.67146 0.22566 0.7463 0.0
C246 C 0.66964 0.25553 0.72009 0.0
C247 C 0.66218 0.28459 0.73942 0.0
C248 C 0.65522 0.28279 0.78283 0.0
C249 C 0.65894 0.32159 0.97464 0.0
C250 C 0.70176 0.26012 0.94303 0.0
C251 C 0.68093 0.28563 0.10861 0.0
C252 C 0.67428 0.2792 0.15502 0.0
C253 C 0.66561 0.3055 0.17759 0.0
C254 C 0.6605 0.30148 0.22235 0.0
C255 C 0.66406 0.27109 0.24578 0.0
C256 C 0.67195 0.24402 0.22269 0.0
C257 C 0.67701 0.24801 0.17775 0.0
C258 C 0.664 0.19043 1.01012 0.0
C259 C 0.6239 0.24721 1.01306 0.0
O260 O 0.64862 0.22222 0.87671 0.0
O261 O 0.64431 0.27778 0.87288 0.0
O262 O 0.64298 0.30846 0.95544 0.0
O263 O 0.67156 0.30031 0.97406 0.0
O264 O 0.68606 0.25332 0.91856 0.0
O265 O 0.70087 0.26707 0.98627 0.0
O266 O 0.66874 0.29908 0.08197 0.0
O267 O 0.69047 0.26206 0.08924 0.0
O268 O 0.67229 0.20264 0.04631 0.0
O269 O 0.6607 0.21517 0.98446 0.0
O270 O 0.63851 0.26027 0.03901 0.0
O271 O 0.62684 0.23729 0.97216 0.0
H272 H 0.66524 0.19989 0.80861 0.0
H273 H 0.67746 0.2031 0.73245 0.0
H274 H 0.66042 0.30789 0.72009 0.0
H275 H 0.6486 0.30497 0.79593 0.0
H276 H 0.66317 0.32966 0.1608 0.0
H277 H 0.65412 0.32255 0.23886 0.0
H278 H 0.67502 0.22037 0.23978 0.0
H279 H 0.6835 0.22707 0.16124 0.0
Nd280 Nd 0.39003 0.25635 0.93643 0.0
Nd281 Nd 0.37183 0.24669 0.02694 0.0
C282 C 0.39936 0.26858 0.85248 0.0
C283 C 0.39009 0.26233 0.80851 0.0
C284 C 0.37857 0.28659 0.79 0.0
C285 C 0.37207 0.28276 0.74611 0.0
C286 C 0.37705 0.25472 0.71985 0.0
C287 C 0.38747 0.22927 0.73946 0.0
C288 C 0.39394 0.23306 0.78325 0.0
C289 C 0.38676 0.18898 0.96966 0.0
C290 C 0.34263 0.25075 0.94133 0.0
C291 C 0.36322 0.2199 0.10642 0.0
C292 C 0.36913 0.22786 0.15326 0.0
C293 C 0.3811 0.20621 0.17549 0.0
C294 C 0.38591 0.21185 0.2203 0.0
C295 C 0.37868 0.2391 0.24442 0.0
C296 C 0.3672 0.2615 0.22169 0.0
C297 C 0.36253 0.25602 0.17671 0.0
C298 C 0.3792 0.3182 1.01625 0.0
C299 C 0.41982 0.26361 1.01379 0.0
O300 O 0.39273 0.292 0.87827 0.0
O301 O 0.40369 0.24094 0.87415 0.0
O302 O 0.40243 0.20457 0.95158 0.0
O303 O 0.37348 0.20902 0.97072 0.0
O304 O 0.35856 0.25786 0.91791 0.0
O305 O 0.34317 0.24227 0.9842 0.0
O306 O 0.37644 0.20878 0.08044 0.0
O307 O 0.35254 0.24124 0.08618 0.0
O308 O 0.37157 0.30278 0.05124 0.0
O309 O 0.3831 0.29594 0.98747 0.0
O310 O 0.40548 0.24586 0.03658 0.0
O311 O 0.41633 0.27805 0.9756 0.0
H312 H 0.37514 0.30923 0.80879 0.0
H313 H 0.36373 0.30245 0.73226 0.0
H314 H 0.39173 0.20748 0.72025 0.0
H315 H 0.4027 0.21381 0.79662 0.0
H316 H 0.38654 0.18443 0.15835 0.0
H317 H 0.39513 0.19449 0.23612 0.0
H318 H 0.36114 0.28255 0.23897 0.0
H319 H 0.35337 0.2734 0.16068 0.0
H320 H 0.23444 0.31079 0.60352 0.0
H321 H 0.25873 0.30941 0.66345 0.0
H322 H 0.23375 0.20445 0.69786 0.0
H323 H 0.21105 0.20484 0.63674 0.0
H324 H 0.25405 0.30679 0.74828 0.0
H325 H 0.28734 0.18619 0.70952 0.0
H326 H 0.27202 0.20539 0.67019 0.0
H327 H 0.26148 0.17642 0.71339 0.0
C328 C 0.23505 0.28672 0.62211 0.0
C329 C 0.22131 0.2574 0.61398 0.0
C330 C 0.24865 0.28614 0.65719 0.0
C331 C 0.2486 0.25644 0.68523 0.0
C332 C 0.23502 0.22713 0.67616 0.0
H333 H 0.30895 0.20392 0.93187 0.0
H334 H 0.2843 0.20616 0.87275 0.0
C335 C 0.22193 0.22738 0.6408 0.0
C336 C 0.26149 0.25658 0.72581 0.0
H337 H 0.29076 0.20651 0.78463 0.0
C338 C 0.26222 0.28495 0.75578 0.0
C339 C 0.27215 0.22806 0.73665 0.0
C340 C 0.27335 0.19753 0.70545 0.0
C341 C 0.27284 0.28533 0.79596 0.0
C342 C 0.28333 0.25668 0.80686 0.0
C343 C 0.28257 0.2283 0.77703 0.0
C344 C 0.29642 0.25687 0.84691 0.0
C345 C 0.27232 0.3163 0.82678 0.0
C346 C 0.31123 0.28472 0.85312 0.0
C347 C 0.32486 0.28377 0.88726 0.0
C348 C 0.32446 0.2547 0.91611 0.0
C349 C 0.30932 0.22716 0.91123 0.0
C350 C 0.29543 0.22824 0.87688 0.0
H351 H 0.25874 0.32889 0.82235 0.0
H352 H 0.27341 0.30845 0.86212 0.0
H353 H 0.28476 0.33636 0.81898 0.0
H354 H 0.31295 0.30657 0.83008 0.0
H355 H 0.33661 0.30505 0.88931 0.0
H356 H 0.72898 0.31485 0.91882 0.0
H357 H 0.75285 0.31344 0.85812 0.0
H358 H 0.73849 0.20114 0.84753 0.0
H359 H 0.71464 0.2027 0.90735 0.0
H360 H 0.78561 0.27849 0.83978 0.0
H361 H 0.72577 0.23348 0.72355 0.0
H362 H 0.72137 0.24992 0.77835 0.0
H363 H 0.72674 0.20537 0.77101 0.0
C364 C 0.73158 0.28974 0.90477 0.0
C365 C 0.72035 0.25872 0.91876 0.0
C366 C 0.74501 0.28897 0.86956 0.0
C367 C 0.74721 0.25726 0.84725 0.0
C368 C 0.73684 0.22607 0.86328 0.0
H369 H 0.81505 0.194 0.62015 0.0
H370 H 0.79147 0.19638 0.68123 0.0
C371 C 0.72348 0.22686 0.89819 0.0
C372 C 0.75954 0.25672 0.80614 0.0
H373 H 0.75797 0.2326 0.69626 0.0
C374 C 0.77952 0.26866 0.80838 0.0
C375 C 0.7517 0.24398 0.76481 0.0
C376 C 0.7302 0.23278 0.75899 0.0
C377 C 0.79185 0.26733 0.77112 0.0
C378 C 0.78403 0.25422 0.72994 0.0
C379 C 0.76406 0.24246 0.72765 0.0
C380 C 0.79635 0.25295 0.68894 0.0
C381 C 0.81332 0.27912 0.77653 0.0
C382 C 0.80618 0.28394 0.67108 0.0
C383 C 0.81927 0.2826 0.63569 0.0
C384 C 0.82272 0.25031 0.61662 0.0
C385 C 0.8121 0.21937 0.63274 0.0
C386 C 0.79889 0.22072 0.66827 0.0
H387 H 0.81777 0.27998 0.81202 0.0
H388 H 0.82221 0.26135 0.75839 0.0
H389 H 0.81665 0.30598 0.76263 0.0
H390 H 0.80432 0.30921 0.68569 0.0
H391 H 0.82774 0.30676 0.62512 0.0
H392 H 0.33329 0.6998 0.15933 0.0
H393 H 0.30993 0.70288 0.21994 0.0
H394 H 0.28661 0.78874 0.15364 0.0
H395 H 0.30994 0.78518 0.09257 0.0
H396 H 0.3083 0.75655 0.27609 0.0
H397 H 0.23685 0.73145 0.19158 0.0
H398 H 0.25924 0.72187 0.16586 0.0
H399 H 0.25287 0.76615 0.16656 0.0
C400 C 0.3225 0.71812 0.15659 0.0
C401 C 0.32285 0.7411 0.12001 0.0
C402 C 0.30935 0.72034 0.19176 0.0
C403 C 0.29621 0.74579 0.19164 0.0
C404 C 0.29615 0.76819 0.15439 0.0
H405 H 0.21339 0.81412 0.38176 0.0
H406 H 0.23716 0.80971 0.32249 0.0
C407 C 0.30936 0.76594 0.11907 0.0
C408 C 0.28367 0.7502 0.23175 0.0
H409 H 0.23651 0.75271 0.26575 0.0
C410 C 0.29259 0.75547 0.27373 0.0
C411 C 0.26311 0.74887 0.22923 0.0
C412 C 0.25239 0.74144 0.186 0.0
C413 C 0.28167 0.76007 0.31259 0.0
C414 C 0.26116 0.75897 0.30995 0.0
C415 C 0.25222 0.75364 0.26806 0.0
C416 C 0.24869 0.76414 0.34983 0.0
C417 C 0.29224 0.7671 0.35607 0.0
C418 C 0.24756 0.74078 0.38627 0.0
C419 C 0.23404 0.74365 0.42086 0.0
C420 C 0.22148 0.77003 0.41979 0.0
C421 C 0.22336 0.79432 0.38446 0.0
C422 C 0.23673 0.79141 0.35003 0.0
H423 H 0.30807 0.77495 0.3511 0.0
H424 H 0.28604 0.78815 0.37493 0.0
H425 H 0.29049 0.74284 0.37656 0.0
H426 H 0.25629 0.71904 0.38673 0.0
H427 H 0.23235 0.7236 0.44642 0.0
H428 H 0.7177 0.81842 0.14493 0.0
H429 H 0.74159 0.81576 0.20465 0.0
H430 H 0.74967 0.71008 0.16524 0.0
H431 H 0.7261 0.71327 0.10486 0.0
H432 H 0.73813 0.7737 0.27476 0.0
H433 H 0.80521 0.74801 0.18596 0.0
H434 H 0.78456 0.76251 0.15759 0.0
H435 H 0.78465 0.71693 0.17232 0.0
C436 C 0.72539 0.79537 0.14754 0.0
C437 C 0.72073 0.76672 0.11872 0.0
C438 C 0.73879 0.79356 0.18233 0.0
C439 C 0.74778 0.76287 0.18963 0.0
C440 C 0.74352 0.73451 0.15995 0.0
H441 H 0.82455 0.69348 0.3945 0.0
H442 H 0.8006 0.69682 0.33508 0.0
C443 C 0.73015 0.73643 0.12498 0.0
C444 C 0.76035 0.75977 0.23004 0.0
H445 H 0.80506 0.73974 0.26433 0.0
C446 C 0.75282 0.7665 0.27231 0.0
C447 C 0.77955 0.75023 0.22744 0.0
C448 C 0.78907 0.74434 0.18338 0.0
C449 C 0.76368 0.76336 0.31161 0.0
C450 C 0.78284 0.7537 0.30899 0.0
C451 C 0.79038 0.747 0.26675 0.0
C452 C 0.79535 0.75033 0.34938 0.0
C453 C 0.75427 0.7695 0.35572 0.0
C454 C 0.80012 0.77884 0.37859 0.0
C455 C 0.81355 0.77658 0.41338 0.0
C456 C 0.82249 0.74578 0.41989 0.0
C457 C 0.81726 0.71698 0.39163 0.0
C458 C 0.80382 0.71915 0.35704 0.0
H459 H 0.73813 0.76677 0.35315 0.0
H460 H 0.75845 0.75081 0.38125 0.0
H461 H 0.75919 0.79662 0.36716 0.0
H462 H 0.79434 0.80358 0.37302 0.0
H463 H 0.81804 0.7998 0.43307 0.0
H464 H 0.17969 0.8523 0.53664 0.0
H465 H 0.18002 0.91317 0.56355 0.0
H466 H 0.15036 0.93972 0.44441 0.0
H467 H 0.14888 0.87888 0.4191 0.0
H468 H 0.19502 0.97961 0.5265 0.0
H469 H 0.11487 0.9702 0.54202 0.0
H470 H 0.12781 0.9319 0.53806 0.0
H471 H 0.12249 0.95571 0.48878 0.0
C472 C 0.17303 0.87102 0.51657 0.0
C473 C 0.1636 0.86035 0.47652 0.0
C474 C 0.17339 0.90594 0.53176 0.0
C475 C 0.16475 0.93099 0.50658 0.0
C476 C 0.15655 0.92076 0.46523 0.0
H477 H 0.1478 0.14119 0.46939 0.0
H478 H 0.1484 0.07787 0.47493 0.0
C479 C 0.15579 0.8859 0.45066 0.0
C480 C 0.16386 0.96774 0.5229 0.0
H481 H 0.13171 0.0284 0.53755 0.0
C482 C 0.18119 0.99016 0.52986 0.0
C483 C 0.14583 0.98157 0.52796 0.0
C484 C 0.12668 0.95852 0.52429 0.0
C485 C 0.18091 0.02645 0.53832 0.0
C486 C 0.16284 0.04061 0.54029 0.0
C487 C 0.14557 0.01772 0.53594 0.0
C488 C 0.16148 0.07934 0.54024 0.0
C489 C 0.19992 0.0498 0.54237 0.0
C490 C 0.1681 0.10158 0.57582 0.0
C491 C 0.16744 0.13828 0.57297 0.0
C492 C 0.16025 0.15306 0.5344 0.0
C493 C 0.15311 0.13052 0.49982 0.0
C494 C 0.15359 0.09426 0.5028 0.0
H495 H 0.21268 0.03545 0.53534 0.0
H496 H 0.20017 0.07239 0.51914 0.0
H497 H 0.20139 0.06052 0.57661 0.0
H498 H 0.1741 0.09071 0.60529 0.0
H499 H 0.17352 0.1551 0.59963 0.0
H500 H 0.86522 0.3632 0.46239 0.0
H501 H 0.86527 0.42636 0.46814 0.0
H502 H 0.8937 0.4255 0.5956 0.0
H503 H 0.89371 0.36106 0.59 0.0
H504 H 0.84819 0.46523 0.5327 0.0
H505 H 0.92851 0.50061 0.5238 0.0
H506 H 0.91701 0.45742 0.50907 0.0
H507 H 0.91947 0.47003 0.56642 0.0
C508 C 0.87161 0.37624 0.49172 0.0
C509 C 0.87963 0.35709 0.52562 0.0
C510 C 0.87154 0.41248 0.49497 0.0
C511 C 0.87963 0.43076 0.53204 0.0
C512 C 0.88761 0.4119 0.56638 0.0
H513 H 0.8976 0.66148 0.54808 0.0
H514 H 0.89467 0.59918 0.56993 0.0
C515 C 0.88757 0.37518 0.56325 0.0
C516 C 0.87952 0.46955 0.53355 0.0
H517 H 0.90914 0.54699 0.52411 0.0
C518 C 0.86152 0.48318 0.53143 0.0
C519 C 0.8969 0.49292 0.53176 0.0
C520 C 0.91662 0.4797 0.53257 0.0
C521 C 0.86043 0.51941 0.52657 0.0
C522 C 0.87781 0.54266 0.52291 0.0
C523 C 0.89581 0.52918 0.52683 0.0
C524 C 0.87777 0.58064 0.51231 0.0
C525 C 0.84065 0.53237 0.52526 0.0
C526 C 0.86914 0.59102 0.47286 0.0
C527 C 0.87059 0.62655 0.46077 0.0
C528 C 0.88092 0.6522 0.48758 0.0
C529 C 0.88937 0.64205 0.52722 0.0
C530 C 0.88776 0.60654 0.53957 0.0
H531 H 0.82946 0.5136 0.54182 0.0
H532 H 0.84094 0.55845 0.54157 0.0
H533 H 0.83616 0.535 0.49014 0.0
H534 H 0.86186 0.57154 0.45059 0.0
H535 H 0.86425 0.63386 0.42969 0.0
H536 H 0.85134 0.8537 0.47965 0.0
H537 H 0.85045 0.91764 0.47704 0.0
H538 H 0.9105 0.9335 0.519 0.0
H539 H 0.91136 0.86956 0.52122 0.0
H540 H 0.85614 0.96097 0.54953 0.0
H541 H 0.90984 0.00519 0.41903 0.0
H542 H 0.8993 0.95997 0.42435 0.0
H543 H 0.91921 0.97709 0.45955 0.0
C544 C 0.86453 0.871 0.48656 0.0
C545 C 0.88161 0.85699 0.49922 0.0
C546 C 0.86397 0.90743 0.48551 0.0
C547 C 0.88049 0.93046 0.49714 0.0
C548 C 0.89774 0.91636 0.50868 0.0
H549 H 0.91274 0.14348 0.57215 0.0
H550 H 0.90968 0.08153 0.55121 0.0
C551 C 0.89827 0.87988 0.5098 0.0
C552 C 0.87924 0.96888 0.50131 0.0
H553 H 0.90125 0.0494 0.46924 0.0
C554 C 0.86579 0.98035 0.53148 0.0
C555 C 0.89178 0.99414 0.47768 0.0
C556 C 0.90572 0.98353 0.44299 0.0
C557 C 0.86521 0.01632 0.54023 0.0
C558 C 0.87828 0.04155 0.5178 0.0
C559 C 0.89127 0.03008 0.48655 0.0
C560 C 0.87984 0.07968 0.52883 0.0
C561 C 0.8512 0.02691 0.57481 0.0
C562 C 0.86415 0.09959 0.52253 0.0
C563 C 0.86587 0.13527 0.53463 0.0
C564 C 0.88333 0.15152 0.55314 0.0
C565 C 0.89907 0.13169 0.55829 0.0
C566 C 0.89736 0.09624 0.54623 0.0
H567 H 0.84478 1.00413 0.59492 0.0
H568 H 0.8586 0.04707 0.5975 0.0
H569 H 0.83914 0.0385 0.55807 0.0
H570 H 0.85061 0.08754 0.50833 0.0
H571 H 0.85355 0.15 0.5299 0.0
H572 H 0.16001 0.65313 0.43591 0.0
H573 H 0.15905 0.58831 0.42942 0.0
H574 H 0.16365 0.58063 0.57184 0.0
H575 H 0.16428 0.6437 0.57847 0.0
H576 H 0.18701 0.54128 0.46196 0.0
H577 H 0.11546 0.51217 0.54349 0.0
H578 H 0.12356 0.55474 0.51988 0.0
H579 H 0.13125 0.54351 0.57476 0.0
C580 C 0.16049 0.63737 0.46568 0.0
C581 C 0.16196 0.65354 0.50779 0.0
C582 C 0.16011 0.60045 0.46196 0.0
C583 C 0.16097 0.57948 0.5003 0.0
C584 C 0.16258 0.59596 0.54186 0.0
H585 H 0.17153 0.38541 0.62312 0.0
H586 H 0.17152 0.44588 0.59652 0.0
C587 C 0.16297 0.63224 0.54554 0.0
C588 C 0.16026 0.54035 0.4988 0.0
H589 H 0.13715 0.46728 0.54963 0.0
C590 C 0.17585 0.52485 0.48004 0.0
C591 C 0.1457 0.51876 0.52231 0.0
C592 C 0.12794 0.53311 0.54085 0.0
C593 C 0.17785 0.48889 0.48693 0.0
C594 C 0.16405 0.46815 0.51351 0.0
C595 C 0.14793 0.48325 0.52988 0.0
C596 C 0.16648 0.43152 0.52766 0.0
C597 C 0.19521 0.47368 0.46783 0.0
C598 C 0.16366 0.40314 0.49789 0.0
C599 C 0.16354 0.36839 0.51327 0.0
C600 C 0.16638 0.36132 0.55855 0.0
C601 C 0.16951 0.38989 0.58798 0.0
C602 C 0.16956 0.4245 0.57277 0.0
H603 H 0.20533 0.49382 0.45041 0.0
H604 H 0.20325 0.46167 0.49469 0.0
H605 H 0.19016 0.45257 0.44384 0.0
H606 H 0.16067 0.40773 0.46317 0.0
H607 H 0.16001 0.34717 0.49023 0.0
H608 H 0.68892 0.64995 0.98262 0.0
H609 H 0.68825 0.58647 0.98746 0.0
H610 H 0.64212 0.58276 0.0845 0.0
H611 H 0.64277 0.64737 0.0798 0.0
H612 H 0.69345 0.54189 0.05915 0.0
H613 H 0.61965 0.51591 0.98418 0.0
H614 H 0.63349 0.55885 0.98312 0.0
H615 H 0.62155 0.5428 0.03333 0.0
C616 C 0.67864 0.63575 1.00521 0.0
C617 C 0.66574 0.65351 0.03052 0.0
C618 C 0.67836 0.59943 1.00804 0.0
C619 C 0.66499 0.57984 0.03585 0.0
C620 C 0.6524 0.59746 0.06239 0.0
H621 H 0.63523 0.35262 0.0298 0.0
H622 H 0.63808 0.41456 0.05212 0.0
C623 C 0.65284 0.63424 0.05993 0.0
C624 C 0.66407 0.54093 0.03513 0.0
H625 H 0.63584 0.46706 1.00043 0.0
C626 C 0.68078 0.52537 0.04687 0.0
C627 C 0.64763 0.51957 0.01856 0.0
C628 C 0.62958 0.535 1.00368 0.0
C629 C 0.68148 0.48896 0.0426 0.0
C630 C 0.66514 0.46761 0.02514 0.0
C631 C 0.64835 0.48325 1.01406 0.0
C632 C 0.66509 0.42923 1.01671 0.0
C633 C 0.69968 0.47394 0.05722 0.0
C634 C 0.67953 0.41649 0.99017 0.0
C635 C 0.6782 0.38081 0.97869 0.0
C636 C 0.66205 0.35767 0.99214 0.0
C637 C 0.64779 0.37015 0.01907 0.0
C638 C 0.64942 0.40549 0.0317 0.0
H639 H 0.70774 0.49086 0.08267 0.0
H640 H 0.69627 0.44706 0.07106 0.0
H641 H 0.70948 0.47265 0.02821 0.0
H642 H 0.69139 0.43429 0.97678 0.0
H643 H 0.68919 0.37175 0.95725 0.0
H644 H 0.40819 0.86229 0.04634 0.0
H645 H 0.41111 0.9271 0.0439 0.0
H646 H 0.34871 0.923 0.0315 0.0
H647 H 0.34572 0.85912 0.03459 0.0
H648 H 0.39918 0.96743 0.9741 0.0
H649 H 0.35982 0.99634 0.12768 0.0
H650 H 0.36854 0.95431 0.11773 0.0
H651 H 0.34622 0.96448 0.09268 0.0
C652 C 0.39513 0.87538 0.04406 0.0
C653 C 0.37672 0.85572 0.04082 0.0
C654 C 0.3968 0.9123 0.04247 0.0
C655 C 0.38009 0.92994 0.03825 0.0
C656 C 0.36176 0.91016 0.03586 0.0
H657 H 0.35361 0.14333 0.98518 0.0
H658 H 0.35209 0.08045 1.00419 0.0
C659 C 0.3601 0.87355 0.03732 0.0
C660 C 0.38166 0.96878 0.033 0.0
H661 H 0.36509 0.04303 0.07462 0.0
C662 C 0.39196 0.98404 0.99641 0.0
C663 C 0.37195 0.99034 0.06173 0.0
C664 C 0.36115 0.97561 0.10239 0.0
C665 C 0.39243 0.02009 0.98709 0.0
C666 C 0.38275 0.04175 1.01583 0.0
C667 C 0.37251 0.0265 0.0526 0.0
C668 C 0.38337 0.0803 1.00825 0.0
C669 C 0.40276 0.03436 0.94559 0.0
C670 C 0.40135 0.10132 1.00584 0.0
C671 C 0.40223 0.13679 0.99435 0.0
C672 C 0.38514 0.15231 0.98601 0.0
C673 C 0.36702 0.13194 0.99117 0.0
C674 C 0.36615 0.09609 1.00204 0.0
H675 H 0.40442 0.01321 0.92106 0.0
H676 H 0.3948 0.05457 0.9295 0.0
H677 H 0.41757 0.0467 0.95447 0.0
H678 H 0.4148 0.09009 1.01193 0.0
H679 H 0.41639 0.15203 0.99146 0.0
H680 H 0.38858 0.35913 0.94137 0.0
H681 H 0.38955 0.42386 0.93622 0.0
H682 H 0.37363 0.42793 0.07448 0.0
H683 H 0.37288 0.36459 0.07999 0.0
H684 H 0.35855 0.46953 0.95974 0.0
H685 H 0.42475 0.49535 0.06353 0.0
H686 H 0.41809 0.45376 0.03601 0.0
H687 H 0.40668 0.4635 0.08763 0.0
C688 C 0.3855 0.37405 0.97059 0.0
C689 C 0.38089 0.35687 1.0112 0.0
C690 C 0.3859 0.41084 0.96757 0.0
C691 C 0.38188 0.43063 1.00518 0.0
C692 C 0.37705 0.41327 0.04526 0.0
H693 H 0.37006 0.63033 0.1149 0.0
H694 H 0.36867 0.56825 0.09298 0.0
C695 C 0.37664 0.37696 0.04829 0.0
C696 C 0.38295 0.46954 1.00416 0.0
H697 H 0.40449 0.54191 0.05876 0.0
C698 C 0.36885 0.4856 0.98052 0.0
C699 C 0.39639 0.49039 0.03135 0.0
C700 C 0.41246 0.47494 0.05576 0.0
C701 C 0.36722 0.52178 0.98545 0.0
C702 C 0.37995 0.54202 1.01483 0.0
C703 C 0.39457 0.5262 0.03672 0.0
C704 C 0.37807 0.57933 0.02533 0.0
C705 C 0.35141 0.53784 0.96098 0.0
C706 C 0.38372 0.60606 0.99448 0.0
C707 C 0.38468 0.64146 1.00717 0.0
C708 C 0.37988 0.6505 0.05071 0.0
C709 C 0.37368 0.62384 0.08109 0.0
C710 C 0.37284 0.58851 0.06854 0.0
H711 H 0.34158 0.51784 0.9426 0.0
H712 H 0.34263 0.55172 0.9847 0.0
H713 H 0.35812 0.55757 0.93688 0.0
H714 H 0.38821 0.59954 0.9613 0.0
H715 H 0.38989 0.66166 0.9835 0.0
H716 H 0.69509 0.15562 0.99835 0.0
H717 H 0.69555 0.09181 0.9955 0.0
H718 H 0.6327 0.07752 0.99717 0.0
H719 H 0.63231 0.1417 0.99885 0.0
H720 H 0.68166 0.04856 0.06096 0.0
H721 H 0.64422 0.00639 0.90394 0.0
H722 H 0.65374 0.05153 0.91469 0.0
H723 H 0.63068 0.03366 0.93772 0.0
C724 C 0.6814 0.13877 0.99642 0.0
C725 C 0.66367 0.15328 0.99782 0.0
C726 C 0.68166 0.10239 0.99512 0.0
C727 C 0.66418 0.07981 0.9956 0.0
C728 C 0.64637 0.09439 0.99553 0.0
H729 H 0.62882 0.86381 0.05648 0.0
H730 H 0.63201 0.92603 0.03619 0.0
C731 C 0.64612 0.13098 0.99641 0.0
C732 C 0.66469 0.04134 1.00095 0.0
H733 H 0.64791 0.96123 0.95714 0.0
C734 C 0.67449 0.02948 0.03792 0.0
C735 C 0.65537 0.01647 0.97089 0.0
C736 C 0.64557 0.0276 0.92933 0.0
C737 C 0.67466 0.99346 0.04646 0.0
C738 C 0.66488 0.96859 1.01706 0.0
C739 C 0.65539 0.98039 0.97963 0.0
C740 C 0.66319 0.93031 0.02636 0.0
C741 C 0.68469 0.98227 0.08773 0.0
C742 C 0.67965 0.91185 0.02659 0.0
C743 C 0.67784 0.87609 0.03803 0.0
C744 C 0.65956 0.85845 0.04964 0.0
C745 C 0.64311 0.87681 0.04807 0.0
C746 C 0.64489 0.91232 0.03636 0.0
H747 H 0.68862 1.00461 0.11082 0.0
H748 H 0.67524 0.96143 0.10562 0.0
H749 H 0.69828 0.9713 0.07812 0.0
H750 H 0.69388 0.9252 0.0184 0.0
H751 H 0.69076 0.86251 0.03876 0.0
H752 H 0.16843 0.32464 0.22823 0.0
H753 H 0.16779 0.32165 0.14755 0.0
H754 H 0.15261 0.20928 0.1539 0.0
H755 H 0.15234 0.21214 0.23513 0.0
H756 H 0.19324 0.28476 0.10225 0.0
H757 H 0.11684 0.23842 0.05588 0.0
H758 H 0.12342 0.25635 0.11001 0.0
H759 H 0.12699 0.2117 0.09688 0.0
C760 C 0.16429 0.29938 0.21269 0.0
C761 C 0.16052 0.26857 0.23826 0.0
C762 C 0.16409 0.29773 0.16649 0.0
C763 C 0.16015 0.2653 0.14487 0.0
C764 C 0.15547 0.23464 0.17003 0.0
H765 H 0.16623 0.19727 0.87418 0.0
H766 H 0.16671 0.20098 0.95481 0.0
C767 C 0.15556 0.23627 0.21642 0.0
C768 C 0.16311 0.26334 0.09643 0.0
H769 H 0.14059 0.23842 0.99896 0.0
C770 C 0.1817 0.27481 0.07957 0.0
C771 C 0.14805 0.25022 0.06715 0.0
C772 C 0.12765 0.23875 0.08326 0.0
C773 C 0.18574 0.27302 0.0341 0.0
C774 C 0.17071 0.2598 1.0049 0.0
C775 C 0.1521 0.2484 0.02168 0.0
C776 C 0.17379 0.25748 0.95664 0.0
C777 C 0.20612 0.28455 1.01784 0.0
C778 C 0.1783 0.28801 0.93114 0.0
C779 C 0.17834 0.28596 0.88485 0.0
C780 C 0.17364 0.25338 0.86358 0.0
C781 C 0.17019 0.22271 0.88943 0.0
C782 C 0.17026 0.22477 0.93555 0.0
H783 H 0.21693 0.28554 0.04525 0.0
H784 H 0.21044 0.26657 0.9916 0.0
H785 H 0.20664 0.31132 1.00339 0.0
H786 H 0.18087 0.31355 0.94692 0.0
H787 H 0.18124 0.30997 0.86574 0.0
H788 H 0.87369 0.18413 0.23067 0.0
H789 H 0.87414 0.18869 0.15001 0.0
H790 H 0.88937 0.30085 0.1596 0.0
H791 H 0.88969 0.29645 0.2408 0.0
H792 H 0.84902 0.2267 0.1043 0.0
H793 H 0.92583 0.27305 0.06133 0.0
H794 H 0.91886 0.25386 0.11461 0.0
H795 H 0.91537 0.29879 0.103 0.0
C796 C 0.8777 0.20972 0.21587 0.0
C797 C 0.88159 0.23996 0.2425 0.0
C798 C 0.8778 0.21227 0.16961 0.0
C799 C 0.88182 0.24505 0.14878 0.0
C800 C 0.88645 0.2752 0.17498 0.0
H801 H 0.87861 0.31154 0.87419 0.0
H802 H 0.8784 0.30948 0.95512 0.0
C803 C 0.88638 0.27268 0.22142 0.0
C804 C 0.87923 0.2478 0.10005 0.0
H805 H 0.90268 0.27278 1.0034 0.0
C806 C 0.86077 0.23669 0.0822 0.0
C807 C 0.89454 0.26096 0.07134 0.0
C808 C 0.91483 0.27209 0.08837 0.0
C809 C 0.85713 0.23873 0.03649 0.0
C810 C 0.87246 0.25173 1.00777 0.0
C811 C 0.89091 0.26296 0.02558 0.0
C812 C 0.86987 0.2534 0.95901 0.0
C813 C 0.83683 0.22759 0.01955 0.0
C814 C 0.86456 0.22267 0.93434 0.0
C815 C 0.86434 0.22383 0.88796 0.0
C816 C 0.8697 0.25568 0.86544 0.0
C817 C 0.87413 0.28665 0.89037 0.0
C818 C 0.87424 0.28548 0.93668 0.0
H819 H 0.82579 0.22806 0.04632 0.0
H820 H 0.83301 0.24488 0.99204 0.0
H821 H 0.83603 0.20026 1.00679 0.0
H822 H 0.86139 0.19752 0.95085 0.0
H823 H 0.86069 0.19958 0.86972 0.0
H824 H 0.19278 0.79267 0.16973 0.0
H825 H 0.19249 0.79771 0.08799 0.0
H826 H 0.1481 0.70896 0.08093 0.0
H827 H 0.14848 0.70361 0.16172 0.0
H828 H 0.19459 0.73291 0.01867 0.0
H829 H 0.12809 0.80255 0.02025 0.0
H830 H 0.14496 0.80449 0.06631 0.0
H831 H 0.12866 0.76532 0.05672 0.0
C832 C 0.18321 0.77409 0.15042 0.0
C833 C 0.17079 0.74755 0.17151 0.0
C834 C 0.18304 0.77695 0.1041 0.0
C835 C 0.17021 0.75371 0.07897 0.0
C836 C 0.1581 0.72697 0.10004 0.0
H837 H 0.14413 0.72189 0.7974 0.0
H838 H 0.14395 0.71659 0.87908 0.0
C839 C 0.15842 0.72384 0.14598 0.0
C840 C 0.1687 0.75775 0.03065 0.0
H841 H 0.1391 0.78488 0.95001 0.0
C842 C 0.18257 0.74442 1.00352 0.0
C843 C 0.15283 0.77246 1.0115 0.0
C844 C 0.13777 0.78725 0.04001 0.0
C845 C 0.18085 0.74526 0.95718 0.0
C846 C 0.16499 0.75997 0.93793 0.0
C847 C 0.15113 0.77335 0.96512 0.0
C848 C 0.16361 0.76404 0.88946 0.0
C849 C 0.19594 0.73053 0.92879 0.0
C850 C 0.1745 0.79264 0.86898 0.0
C851 C 0.17456 0.7958 0.8229 0.0
C852 C 0.16381 0.77028 0.7964 0.0
C853 C 0.15261 0.74181 0.81708 0.0
C854 C 0.15242 0.73884 0.8635 0.0
H855 H 0.20621 0.71667 0.94882 0.0
H856 H 0.18872 0.71194 0.90395 0.0
H857 H 0.2044 0.75229 0.91033 0.0
H858 H 0.18329 0.81213 0.88869 0.0
H859 H 0.18353 0.81772 0.80787 0.0
H860 H 0.86454 0.7943 0.79809 0.0
H861 H 0.86521 0.79885 0.87875 0.0
H862 H 0.89867 0.71058 0.88617 0.0
H863 H 0.89917 0.70718 0.80524 0.0
H864 H 0.84819 0.74879 0.93172 0.0
H865 H 0.92615 0.77451 0.97751 0.0
H866 H 0.91775 0.77907 0.92125 0.0
H867 H 0.92104 0.73633 0.94309 0.0
C868 C 0.87265 0.77658 0.81659 0.0
C869 C 0.88166 0.75015 0.79487 0.0
C870 C 0.87285 0.77904 0.86287 0.0
C871 C 0.88199 0.75512 0.88857 0.0
C872 C 0.89175 0.72969 0.8671 0.0
H873 H 0.88539 0.70474 0.16734 0.0
H874 H 0.8854 0.7031 0.08649 0.0
C875 C 0.89176 0.72744 0.82072 0.0
C876 C 0.87948 0.75453 0.93753 0.0
H877 H 0.90401 0.7563 0.03601 0.0
C878 C 0.86041 0.75074 0.95453 0.0
C879 C 0.89542 0.75681 0.96727 0.0
C880 C 0.91624 0.76225 0.95137 0.0
C881 C 0.85683 0.74857 1.00036 0.0
C882 C 0.87275 0.75063 0.02998 0.0
C883 C 0.89182 0.75454 1.01311 0.0
C884 C 0.87009 0.74895 0.07871 0.0
C885 C 0.83604 0.7433 1.01656 0.0
C886 C 0.86088 0.77463 0.10112 0.0
C887 C 0.86048 0.77524 0.1475 0.0
C888 C 0.86959 0.75054 0.17219 0.0
C889 C 0.87797 0.72387 0.1495 0.0
C890 C 0.87822 0.72312 0.10322 0.0
H891 H 0.82586 0.73278 0.98995 0.0
H892 H 0.83446 0.72502 0.04532 0.0
H893 H 0.83168 0.76899 0.02735 0.0
H894 H 0.85473 0.79509 0.08285 0.0
H895 H 0.85371 0.79588 0.16399 0.0
H896 H 0.65552 0.69747 0.37311 0.0
H897 H 0.65456 0.69943 0.45396 0.0
H898 H 0.68747 0.80225 0.45218 0.0
H899 H 0.68834 0.80062 0.37079 0.0
H900 H 0.68164 0.70692 0.51943 0.0
H901 H 0.63846 0.82047 0.51815 0.0
H902 H 0.64303 0.79622 0.46857 0.0
H903 H 0.66146 0.8288 0.49015 0.0
C904 C 0.66297 0.72018 0.38988 0.0
C905 C 0.67192 0.74901 0.36562 0.0
C906 C 0.66227 0.72135 0.43611 0.0
C907 C 0.67049 0.75134 0.45895 0.0
C908 C 0.68054 0.77927 0.43504 0.0
H909 H 0.67859 0.81928 0.72924 0.0
H910 H 0.6777 0.81267 0.64882 0.0
C911 C 0.68114 0.77823 0.38867 0.0
C912 C 0.66784 0.75366 0.5076 0.0
H913 H 0.64917 0.80243 0.58861 0.0
C914 C 0.67449 0.72772 0.53465 0.0
C915 C 0.65822 0.78052 0.52715 0.0
C916 C 0.6497 0.8079 0.49952 0.0
C917 C 0.6725 0.72866 0.58101 0.0
C918 C 0.66329 0.756 0.60076 0.0
C919 C 0.65625 0.78152 0.5735 0.0
C920 C 0.66219 0.76026 0.64969 0.0
C921 C 0.68088 0.70099 0.60837 0.0
C922 C 0.65327 0.73333 0.67708 0.0
C923 C 0.65389 0.73694 0.72341 0.0
C924 C 0.66311 0.76784 0.74303 0.0
C925 C 0.67122 0.79527 0.7153 0.0
C926 C 0.67078 0.7915 0.66923 0.0
H927 H 0.69151 0.68737 0.58912 0.0
H928 H 0.68826 0.71269 0.63853 0.0
H929 H 0.66891 0.68092 0.61898 0.0
H930 H 0.64604 0.70938 0.6627 0.0
H931 H 0.64723 0.71557 0.74386 0.0
H932 H 0.40459 0.71647 0.73341 0.0
H933 H 0.40504 0.71788 0.65187 0.0
H934 H 0.35786 0.78249 0.65241 0.0
H935 H 0.35722 0.78112 0.73325 0.0
H936 H 0.37422 0.69365 0.59555 0.0
H937 H 0.39658 0.83571 0.56748 0.0
H938 H 0.40002 0.81442 0.61997 0.0
H939 H 0.37657 0.82719 0.60547 0.0
C940 C 0.39442 0.73119 0.71612 0.0
C941 C 0.38097 0.74895 0.73993 0.0
C942 C 0.39474 0.73204 0.6696 0.0
C943 C 0.38169 0.75078 0.64618 0.0
C944 C 0.36841 0.76868 0.66983 0.0
H945 H 0.34978 0.77773 0.36981 0.0
H946 H 0.35044 0.77617 0.45144 0.0
C947 C 0.36809 0.7679 0.71615 0.0
C948 C 0.38099 0.74998 0.59701 0.0
H949 H 0.3832 0.80284 0.50531 0.0
C950 C 0.37636 0.71747 0.57576 0.0
C951 C 0.3837 0.78113 0.57133 0.0
C952 C 0.38968 0.81657 0.59214 0.0
C953 C 0.37387 0.71537 0.52955 0.0
C954 C 0.37631 0.74656 0.50403 0.0
C955 C 0.3811 0.77904 0.52516 0.0
C956 C 0.37498 0.74582 0.45507 0.0
C957 C 0.36825 0.67992 0.5084 0.0
C958 C 0.3885 0.72925 0.43043 0.0
C959 C 0.38809 0.72994 0.38422 0.0
C960 C 0.37426 0.74754 0.3617 0.0
C961 C 0.36056 0.76393 0.38639 0.0
C962 C 0.36094 0.76308 0.43284 0.0
H963 H 0.36239 0.65993 0.53317 0.0
H964 H 0.35718 0.6817 0.48201 0.0
H965 H 0.38131 0.67068 0.49287 0.0
H966 H 0.39975 0.71658 0.44699 0.0
H967 H 0.39916 0.71792 0.36612 0.0
H968 H 0.6724 0.32364 0.30657 0.0
H969 H 0.67161 0.31908 0.38727 0.0
H970 H 0.64871 0.20972 0.37739 0.0
H971 H 0.64949 0.21398 0.29615 0.0
H972 H 0.64351 0.30004 0.45029 0.0
H973 H 0.6989 0.20561 0.44636 0.0
H974 H 0.69256 0.22938 0.39775 0.0
H975 H 0.67689 0.19148 0.41656 0.0
C976 C 0.66682 0.29873 0.32139 0.0
C977 C 0.66123 0.26904 0.29478 0.0
C978 C 0.66645 0.29616 0.36762 0.0
C979 C 0.66054 0.26389 0.38827 0.0
C980 C 0.65382 0.23467 0.36202 0.0
H981 H 0.65874 0.20113 0.6639 0.0
H982 H 0.65765 0.20302 0.583 0.0
C983 C 0.65428 0.23714 0.31564 0.0
C984 C 0.66264 0.26062 0.43702 0.0
H985 H 0.6869 0.21943 0.51682 0.0
C986 C 0.65298 0.28241 0.46485 0.0
C987 C 0.67512 0.23776 0.45591 0.0
C988 C 0.68661 0.21493 0.42766 0.0
C989 C 0.65534 0.28168 0.51113 0.0
C990 C 0.6679 0.25896 0.52981 0.0
C991 C 0.67739 0.23694 0.50215 0.0
C992 C 0.67085 0.25691 0.57823 0.0
C993 C 0.64415 0.30474 0.5398 0.0
C994 C 0.67948 0.28613 0.60203 0.0
C995 C 0.68034 0.28505 0.64834 0.0
C996 C 0.67258 0.25468 0.67142 0.0
C997 C 0.66508 0.22476 0.64716 0.0
C998 C 0.66426 0.22587 0.60094 0.0
H999 H 0.63209 0.31495 0.52126 0.0
H1000 H 0.638 0.29005 0.56936 0.0
H1001 H 0.65417 0.32755 0.55168 0.0
H1002 H 0.68503 0.31008 0.58485 0.0
H1003 H 0.68644 0.30833 0.66615 0.0
H1004 H 0.38085 0.18638 0.30576 0.0
H1005 H 0.3823 0.1914 0.38645 0.0
H1006 H 0.3842 0.30398 0.37637 0.0
H1007 H 0.38361 0.29963 0.29522 0.0
H1008 H 0.41062 0.24164 0.44884 0.0
H1009 H 0.33157 0.25852 0.44636 0.0
H1010 H 0.34319 0.23752 0.40146 0.0
H1011 H 0.34752 0.2843 0.4083 0.0
C1012 C 0.38215 0.2124 0.3203 0.0
C1013 C 0.38187 0.24258 0.29351 0.0
C1014 C 0.38289 0.21513 0.36661 0.0
C1015 C 0.38317 0.24798 0.38721 0.0
C1016 C 0.38385 0.27834 0.36093 0.0
H1017 H 0.38057 0.31062 0.66281 0.0
H1018 H 0.38053 0.30896 0.58174 0.0
C1019 C 0.38331 0.27571 0.31453 0.0
C1020 C 0.38086 0.25004 0.43599 0.0
H1021 H 0.34689 0.25955 0.51635 0.0
C1022 C 0.39673 0.24564 0.46364 0.0
C1023 C 0.36267 0.25498 0.45507 0.0
C1024 C 0.34515 0.25895 0.4265 0.0
C1025 C 0.39484 0.24641 0.51011 0.0
C1026 C 0.37664 0.25136 0.52903 0.0
C1027 C 0.36079 0.25572 0.50148 0.0
C1028 C 0.37404 0.25248 0.57762 0.0
C1029 C 0.4122 0.24203 0.53906 0.0
C1030 C 0.3697 0.22128 0.6018 0.0
C1031 C 0.36944 0.2221 0.64822 0.0
C1032 C 0.37367 0.25415 0.67109 0.0
C1033 C 0.377 0.28552 0.64642 0.0
C1034 C 0.37716 0.28466 0.60007 0.0
H1035 H 0.42553 0.23942 0.5193 0.0
H1036 H 0.41508 0.26501 0.5616 0.0
H1037 H 0.40899 0.21828 0.56017 0.0
H1038 H 0.36715 0.19623 0.58479 0.0
H1039 H 0.36653 0.19754 0.66618 0.0
H1040 H 0.09462 0.25485 0.58122 0.0
H1041 H 0.06051 0.2569 0.56531 0.0
H1042 H 0.07219 0.25358 0.4248 0.0
H1043 H 0.10715 0.25144 0.44054 0.0
H1044 H 0.04541 0.31046 0.51238 0.0
H1045 H 0.02489 0.1745 0.44885 0.0
H1046 H 0.04651 0.1857 0.48201 0.0
H1047 H 0.04587 0.20051 0.42559 0.0
C1048 C 0.09013 0.25412 0.54672 0.0
C1049 C 0.10375 0.25258 0.51208 0.0
C1050 C 0.0705 0.25541 0.53778 0.0
C1051 C 0.06375 0.25497 0.49399 0.0
C1052 C 0.07712 0.25347 0.45894 0.0
H1053 H 0.93676 0.2512 0.44451 0.0
H1054 H 0.97182 0.25042 0.42916 0.0
C1055 C 0.09706 0.25245 0.46792 0.0
C1056 C 0.04276 0.25777 0.48639 0.0
H1057 H 0.99943 0.20888 0.46279 0.0
C1058 C 0.03538 0.2885 0.50064 0.0
C1059 C 0.02972 0.22909 0.47121 0.0
C1060 C 0.03699 0.1954 0.45613 0.0
C1061 C 1.01531 0.29095 0.50164 0.0
C1062 C 1.00213 0.26155 0.489 0.0
C1063 C 1.00951 0.23137 0.47253 0.0
C1064 C 0.98085 0.26067 0.49723 0.0
C1065 C 1.00843 0.32491 0.5172 0.0
C1066 C 0.9743 0.26572 0.54055 0.0
C1067 C 0.95458 0.2668 0.54913 0.0
C1068 C 0.94071 0.26207 0.51478 0.0
C1069 C 0.94711 0.25544 0.47153 0.0
C1070 C 0.96709 0.25487 0.46278 0.0
H1071 H 1.01966 0.34761 0.51122 0.0
H1072 H 0.99477 0.32994 0.50019 0.0
H1073 H 1.00567 0.32336 0.5535 0.0
H1074 H 0.9845 0.26896 0.56796 0.0
H1075 H 0.95022 0.27094 0.58312 0.0
H1076 H 0.93512 0.71998 0.57463 0.0
H1077 H 0.96993 0.71644 0.58899 0.0
H1078 H 0.98509 0.79819 0.49242 0.0
H1079 H 0.95076 0.80214 0.47835 0.0
H1080 H 0.99862 0.70079 0.52696 0.0
H1081 H 1.01813 0.83304 0.59912 0.0
H1082 H 0.99325 0.81284 0.59529 0.0
H1083 H 1.00508 0.83439 0.54773 0.0
C1084 C 0.9459 0.73771 0.55726 0.0
C1085 C 0.94013 0.76162 0.52572 0.0
C1086 C 0.96577 0.73548 0.56523 0.0
C1087 C 0.98013 0.75748 0.54232 0.0
C1088 C 0.97433 0.78151 0.51126 0.0
H1089 H 0.0981 0.78607 0.46805 0.0
H1090 H 0.06326 0.78551 0.48294 0.0
C1091 C 0.95462 0.78362 0.50313 0.0
C1092 C 1.00125 0.75469 0.54876 0.0
H1093 H 0.04455 0.80472 0.56918 0.0
C1094 C 1.00864 0.72322 0.53723 0.0
C1095 C 1.01435 0.78398 0.56207 0.0
C1096 C 1.00729 0.81787 0.57719 0.0
C1097 C 0.02884 0.72098 0.53629 0.0
C1098 C 0.04191 0.75087 0.54741 0.0
C1099 C 0.03449 0.78182 0.5607 0.0
C1100 C 0.06325 0.75187 0.54066 0.0
C1101 C 0.03617 0.68732 0.52122 0.0
C1102 C 0.07493 0.73382 0.56893 0.0
C1103 C 0.09504 0.73473 0.56094 0.0
C1104 C 0.10354 0.75324 0.52421 0.0
C1105 C 0.09184 0.77161 0.49655 0.0
C1106 C 0.07196 0.77125 0.50496 0.0
H1107 H 0.02416 0.66738 0.51027 0.0
H1108 H 0.04662 0.69274 0.49337 0.0
H1109 H 0.04404 0.67612 0.54898 0.0
H1110 H 0.06846 0.71889 0.59682 0.0
H1111 H 0.10377 0.7201 0.58242 0.0
H1112 H 0.60657 0.74557 0.94134 0.0
H1113 H 0.57171 0.74816 0.92476 0.0
H1114 H 0.55976 0.75514 0.06481 0.0
H1115 H 0.59394 0.75199 0.08151 0.0
H1116 H 0.53635 0.69967 0.96737 0.0
H1117 H 0.53868 0.84278 0.99995 0.0
H1118 H 0.56003 0.82235 0.98443 0.0
H1119 H 0.55098 0.8187 0.04041 0.0
C1120 C 0.59643 0.74749 0.96843 0.0
C1121 C 0.60297 0.74805 1.01271 0.0
C1122 C 0.57658 0.74889 0.95898 0.0
C1123 C 0.56319 0.75179 0.99363 0.0
C1124 C 0.56981 0.75278 0.03761 0.0
H1125 H 0.45047 0.7734 0.07729 0.0
H1126 H 0.4845 0.77028 0.06136 0.0
C1127 C 0.58939 0.75078 0.04704 0.0
C1128 C 0.54224 0.75429 0.98501 0.0
H1129 H 0.50742 0.80928 1.00197 0.0
C1130 C 0.52997 0.72378 0.97377 0.0
C1131 C 0.53402 0.78572 0.99373 0.0
C1132 C 0.54659 0.81939 1.00498 0.0
C1133 C 0.50954 0.72343 0.97366 0.0
C1134 C 0.50127 0.75454 0.98455 0.0
C1135 C 0.51369 0.78543 0.99352 0.0
C1136 C 0.48002 0.7549 0.99268 0.0
C1137 C 0.49696 0.68933 0.96475 0.0
C1138 C 0.46588 0.74702 0.95935 0.0
C1139 C 0.44599 0.74854 0.96851 0.0
C1140 C 0.44005 0.7585 1.01094 0.0
C1141 C 0.45436 0.76619 0.04394 0.0
C1142 C 0.47397 0.76434 0.03497 0.0
H1143 H 0.50559 0.66659 0.96319 0.0
H1144 H 0.48568 0.68425 0.99098 0.0
H1145 H 0.48939 0.69116 0.93248 0.0
H1146 H 0.47021 0.74014 0.92622 0.0
H1147 H 0.43536 0.74229 0.94245 0.0
H1148 H 0.43537 0.22226 0.07665 0.0
H1149 H 0.47012 0.21827 0.09093 0.0
H1150 H 0.48555 0.29845 0.99245 0.0
H1151 H 0.45132 0.30313 0.97878 0.0
H1152 H 0.49843 0.2008 0.03151 0.0
H1153 H 0.51912 0.33511 0.096 0.0
H1154 H 0.49407 0.3158 0.0924 0.0
H1155 H 0.50636 0.33544 0.04416 0.0
C1156 C 0.4462 0.2396 0.05887 0.0
C1157 C 0.44052 0.26336 0.02702 0.0
C1158 C 0.46604 0.2371 0.0668 0.0
C1159 C 0.48047 0.25858 0.04339 0.0
C1160 C 0.47475 0.2823 1.01183 0.0
H1161 H 0.59814 0.27993 0.9669 0.0
H1162 H 0.56344 0.28111 0.98163 0.0
C1163 C 0.45508 0.28481 1.00392 0.0
C1164 C 0.50155 0.25552 0.04987 0.0
H1165 H 0.54523 0.30524 0.06705 0.0
C1166 C 0.50864 0.22338 0.04034 0.0
C1167 C 0.5149 0.28501 0.06134 0.0
C1168 C 0.50821 0.31969 0.0745 0.0
C1169 C 0.52877 0.22057 0.03959 0.0
C1170 C 0.54208 0.25056 0.04882 0.0
C1171 C 0.53498 0.28226 0.06006 0.0
C1172 C 0.56335 0.25064 0.04213 0.0
C1173 C 0.53578 0.1861 0.02676 0.0
C1174 C 0.57494 0.23383 0.07198 0.0
C1175 C 0.59499 0.23368 0.064 0.0
C1176 C 0.60348 0.24983 0.02572 0.0
C1177 C 0.59187 0.26711 0.99654 0.0
C1178 C 0.57207 0.2678 1.00486 0.0
H1179 H 0.5236 0.16591 1.01749 0.0
H1180 H 0.54605 0.19008 0.99834 0.0
H1181 H 0.5438 0.176 0.05507 0.0
H1182 H 0.56844 0.22065 0.1011 0.0
H1183 H 0.60365 0.22003 0.08677 0.0
loop_
_geom_bond_atom_site_label_1
_geom_bond_atom_site_label_2
_geom_bond_distance
_geom_bond_site_symmetry_2
_ccdc_geom_bond_type
Nd0 C2 2.836 . S
Nd0 O20 2.500 . S
Nd0 O21 2.492 . S
Nd0 O22 2.487 . S
Nd0 O23 2.682 . S
Nd0 O24 2.410 . S
Nd0 O29 2.414 . S
Nd0 O31 2.424 . S
Nd1 C11 2.836 . S
Nd1 O23 2.414 . S
Nd1 O25 2.424 . S
Nd1 O26 2.500 . S
Nd1 O27 2.492 . S
Nd1 O28 2.487 . S
Nd1 O29 2.682 . S
Nd1 O30 2.410 . S
C2 Nd0 2.836 . S
C2 C3 1.498 . S
C2 O20 1.258 . S
C2 O21 1.239 . S
C3 C2 1.498 . S
C3 C4 1.366 . S
C3 C8 1.407 . S
C4 C3 1.366 . S
C4 C5 1.392 . S
C4 H32 0.930 . S
C5 C4 1.392 . S
C5 C6 1.398 . S
C5 H33 0.929 . S
C6 C5 1.398 . S
C6 C7 1.352 . S
C7 C6 1.352 . S
C7 C8 1.384 . S
C7 H34 0.930 . S
C8 C3 1.407 . S
C8 C7 1.384 . S
C8 H35 0.929 . S
C9 O22 1.241 . S
C9 O23 1.273 . S
C10 O24 1.251 . S
C10 O25 1.268 . S
C11 Nd1 2.836 . S
C11 C12 1.498 . S
C11 O26 1.258 . S
C11 O27 1.239 . S
C12 C11 1.498 . S
C12 C13 1.366 . S
C12 C17 1.407 . S
C13 C12 1.366 . S
C13 C14 1.392 . S
C13 H36 0.930 . S
C14 C13 1.392 . S
C14 C15 1.398 . S
C14 H37 0.929 . S
C15 C14 1.398 . S
C15 C16 1.352 . S
C16 C15 1.352 . S
C16 C17 1.384 . S
C16 H38 0.930 . S
C17 C12 1.407 . S
C17 C16 1.384 . S
C17 H39 0.929 . S
C18 O28 1.241 . S
C18 O29 1.273 . S
C19 O30 1.251 . S
C19 O31 1.268 . S
O20 Nd0 2.500 . S
O20 C2 1.258 . S
O21 Nd0 2.492 . S
O21 C2 1.239 . S
O22 Nd0 2.487 . S
O22 C9 1.241 . S
O23 Nd0 2.682 . S
O23 Nd1 2.414 . S
O23 C9 1.273 . S
O24 Nd0 2.410 . S
O24 C10 1.251 . S
O25 Nd1 2.424 . S
O25 C10 1.268 . S
O26 Nd1 2.500 . S
O26 C11 1.258 . S
O27 Nd1 2.492 . S
O27 C11 1.239 . S
O28 Nd1 2.487 . S
O28 C18 1.241 . S
O29 Nd0 2.414 . S
O29 Nd1 2.682 . S
O29 C18 1.273 . S
O30 Nd1 2.410 . S
O30 C19 1.251 . S
O31 Nd0 2.424 . S
O31 C19 1.268 . S
H32 C4 0.930 . S
H33 C5 0.929 . S
H34 C7 0.930 . S
H35 C8 0.929 . S
H36 C13 0.930 . S
H37 C14 0.929 . S
H38 C16 0.930 . S
H39 C17 0.929 . S
Nd40 C42 2.836 . S
Nd40 O60 2.500 . S
Nd40 O61 2.492 . S
Nd40 O62 2.487 . S
Nd40 O63 2.682 . S
Nd40 O64 2.410 . S
Nd40 O69 2.414 . S
Nd40 O71 2.424 . S
Nd41 C51 2.836 . S
Nd41 O63 2.414 . S
Nd41 O65 2.424 . S
Nd41 O66 2.500 . S
Nd41 O67 2.492 . S
Nd41 O68 2.487 . S
Nd41 O69 2.682 . S
Nd41 O70 2.410 . S
C42 Nd40 2.836 . S
C42 C43 1.498 . S
C42 O60 1.258 . S
C42 O61 1.239 . S
C43 C42 1.498 . S
C43 C44 1.366 . S
C43 C48 1.407 . S
C44 C43 1.366 . S
C44 C45 1.392 . S
C44 H72 0.930 . S
C45 C44 1.392 . S
C45 C46 1.398 . S
C45 H73 0.929 . S
C46 C45 1.398 . S
C46 C47 1.352 . S
C47 C46 1.352 . S
C47 C48 1.384 . S
C47 H74 0.930 . S
C48 C43 1.407 . S
C48 C47 1.384 . S
C48 H75 0.929 . S
C49 O62 1.241 . S
C49 O63 1.273 . S
C50 O64 1.251 . S
C50 O65 1.268 . S
C51 Nd41 2.836 . S
C51 C52 1.498 . S
C51 O66 1.258 . S
C51 O67 1.239 . S
C52 C51 1.498 . S
C52 C53 1.366 . S
C52 C57 1.407 . S
C53 C52 1.366 . S
C53 C54 1.392 . S
C53 H76 0.930 . S
C54 C53 1.392 . S
C54 C55 1.398 . S
C54 H77 0.929 . S
C55 C54 1.398 . S
C55 C56 1.352 . S
C56 C55 1.352 . S
C56 C57 1.384 . S
C56 H78 0.930 . S
C57 C52 1.407 . S
C57 C56 1.384 . S
C57 H79 0.929 . S
C58 O68 1.241 . S
C58 O69 1.273 . S
C59 O70 1.251 . S
C59 O71 1.268 . S
O60 Nd40 2.500 . S
O60 C42 1.258 . S
O61 Nd40 2.492 . S
O61 C42 1.239 . S
O62 Nd40 2.487 . S
O62 C49 1.241 . S
O63 Nd40 2.682 . S
O63 Nd41 2.414 . S
O63 C49 1.273 . S
O64 Nd40 2.410 . S
O64 C50 1.251 . S
O65 Nd41 2.424 . S
O65 C50 1.268 . S
O66 Nd41 2.500 . S
O66 C51 1.258 . S
O67 Nd41 2.492 . S
O67 C51 1.239 . S
O68 Nd41 2.487 . S
O68 C58 1.241 . S
O69 Nd40 2.414 . S
O69 Nd41 2.682 . S
O69 C58 1.273 . S
O70 Nd41 2.410 . S
O70 C59 1.251 . S
O71 Nd40 2.424 . S
O71 C59 1.268 . S
H72 C44 0.930 . S
H73 C45 0.929 . S
H74 C47 0.930 . S
H75 C48 0.929 . S
H76 C53 0.930 . S
H77 C54 0.929 . S
H78 C56 0.930 . S
H79 C57 0.929 . S
Nd80 C82 2.836 . S
Nd80 O100 2.500 . S
Nd80 O101 2.492 . S
Nd80 O102 2.487 . S
Nd80 O103 2.682 . S
Nd80 O104 2.410 . S
Nd80 O109 2.414 . S
Nd80 O111 2.424 . S
Nd81 C91 2.836 . S
Nd81 O103 2.414 . S
Nd81 O105 2.424 . S
Nd81 O106 2.500 . S
Nd81 O107 2.492 . S
Nd81 O108 2.487 . S
Nd81 O109 2.682 . S
Nd81 O110 2.410 . S
C82 Nd80 2.836 . S
C82 C83 1.498 . S
C82 O100 1.258 . S
C82 O101 1.239 . S
C83 C82 1.498 . S
C83 C84 1.366 . S
C83 C88 1.407 . S
C84 C83 1.366 . S
C84 C85 1.392 . S
C84 H112 0.930 . S
C85 C84 1.392 . S
C85 C86 1.398 . S
C85 H113 0.929 . S
C86 C85 1.398 . S
C86 C87 1.352 . S
C87 C86 1.352 . S
C87 C88 1.384 . S
C87 H114 0.930 . S
C88 C83 1.407 . S
C88 C87 1.384 . S
C88 H115 0.929 . S
C89 O102 1.241 . S
C89 O103 1.273 . S
C90 O104 1.251 . S
C90 O105 1.268 . S
C91 Nd81 2.836 . S
C91 C92 1.498 . S
C91 O106 1.258 . S
C91 O107 1.239 . S
C92 C91 1.498 . S
C92 C93 1.366 . S
C92 C97 1.407 . S
C93 C92 1.366 . S
C93 C94 1.392 . S
C93 H116 0.930 . S
C94 C93 1.392 . S
C94 C95 1.398 . S
C94 H117 0.929 . S
C95 C94 1.398 . S
C95 C96 1.352 . S
C96 C95 1.352 . S
C96 C97 1.384 . S
C96 H118 0.930 . S
C97 C92 1.407 . S
C97 C96 1.384 . S
C97 H119 0.929 . S
C98 O108 1.241 . S
C98 O109 1.273 . S
C99 O110 1.251 . S
C99 O111 1.268 . S
O100 Nd80 2.500 . S
O100 C82 1.258 . S
O101 Nd80 2.492 . S
O101 C82 1.239 . S
O102 Nd80 2.487 . S
O102 C89 1.241 . S
O103 Nd80 2.682 . S
O103 Nd81 2.414 . S
O103 C89 1.273 . S
O104 Nd80 2.410 . S
O104 C90 1.251 . S
O105 Nd81 2.424 . S
O105 C90 1.268 . S
O106 Nd81 2.500 . S
O106 C91 1.258 . S
O107 Nd81 2.492 . S
O107 C91 1.239 . S
O108 Nd81 2.487 . S
O108 C98 1.241 . S
O109 Nd80 2.414 . S
O109 Nd81 2.682 . S
O109 C98 1.273 . S
O110 Nd81 2.410 . S
O110 C99 1.251 . S
O111 Nd80 2.424 . S
O111 C99 1.268 . S
H112 C84 0.930 . S
H113 C85 0.929 . S
H114 C87 0.930 . S
H115 C88 0.929 . S
H116 C93 0.930 . S
H117 C94 0.929 . S
H118 C96 0.930 . S
H119 C97 0.929 . S
Nd120 C122 2.836 . S
Nd120 O140 2.500 . S
Nd120 O141 2.492 . S
Nd120 O142 2.487 . S
Nd120 O143 2.682 . S
Nd120 O144 2.410 . S
Nd120 O149 2.414 . S
Nd120 O151 2.424 . S
Nd121 C131 2.836 . S
Nd121 O143 2.414 . S
Nd121 O145 2.424 . S
Nd121 O146 2.500 . S
Nd121 O147 2.492 . S
Nd121 O148 2.487 . S
Nd121 O149 2.682 . S
Nd121 O150 2.410 . S
C122 Nd120 2.836 . S
C122 C123 1.498 . S
C122 O140 1.258 . S
C122 O141 1.239 . S
C123 C122 1.498 . S
C123 C124 1.366 . S
C123 C128 1.407 . S
C124 C123 1.366 . S
C124 C125 1.392 . S
C124 H152 0.930 . S
C125 C124 1.392 . S
C125 C126 1.398 . S
C125 H153 0.929 . S
C126 C125 1.398 . S
C126 C127 1.352 . S
C127 C126 1.352 . S
C127 C128 1.384 . S
C127 H154 0.930 . S
C128 C123 1.407 . S
C128 C127 1.384 . S
C128 H155 0.929 . S
C129 O142 1.241 . S
C129 O143 1.273 . S
C130 O144 1.251 . S
C130 O145 1.268 . S
C131 Nd121 2.836 . S
C131 C132 1.498 . S
C131 O146 1.258 . S
C131 O147 1.239 . S
C132 C131 1.498 . S
C132 C133 1.366 . S
C132 C137 1.407 . S
C133 C132 1.366 . S
C133 C134 1.392 . S
C133 H156 0.930 . S
C134 C133 1.392 . S
C134 C135 1.398 . S
C134 H157 0.929 . S
C135 C134 1.398 . S
C135 C136 1.352 . S
C136 C135 1.352 . S
C136 C137 1.384 . S
C136 H158 0.930 . S
C137 C132 1.407 . S
C137 C136 1.384 . S
C137 H159 0.929 . S
C138 O148 1.241 . S
C138 O149 1.273 . S
C139 O150 1.251 . S
C139 O151 1.268 . S
O140 Nd120 2.500 . S
O140 C122 1.258 . S
O141 Nd120 2.492 . S
O141 C122 1.239 . S
O142 Nd120 2.487 . S
O142 C129 1.241 . S
O143 Nd120 2.682 . S
O143 Nd121 2.414 . S
O143 C129 1.273 . S
O144 Nd120 2.410 . S
O144 C130 1.251 . S
O145 Nd121 2.424 . S
O145 C130 1.268 . S
O146 Nd121 2.500 . S
O146 C131 1.258 . S
O147 Nd121 2.492 . S
O147 C131 1.239 . S
O148 Nd121 2.487 . S
O148 C138 1.241 . S
O149 Nd120 2.414 . S
O149 Nd121 2.682 . S
O149 C138 1.273 . S
O150 Nd121 2.410 . S
O150 C139 1.251 . S
O151 Nd120 2.424 . S
O151 C139 1.268 . S
H152 C124 0.930 . S
H153 C125 0.929 . S
H154 C127 0.930 . S
H155 C128 0.929 . S
H156 C133 0.930 . S
H157 C134 0.929 . S
H158 C136 0.930 . S
H159 C137 0.929 . S
Nd160 C162 2.836 . S
Nd160 O180 2.500 . S
Nd160 O181 2.492 . S
Nd160 O182 2.487 . S
Nd160 O183 2.682 1_556 S
Nd160 O184 2.410 . S
Nd160 O189 2.414 1_556 S
Nd160 O191 2.424 1_556 S
Nd161 C171 2.836 . S
Nd161 O183 2.414 . S
Nd161 O185 2.424 . S
Nd161 O186 2.500 . S
Nd161 O187 2.492 . S
Nd161 O188 2.487 . S
Nd161 O189 2.682 . S
Nd161 O190 2.410 . S
C162 Nd160 2.836 . S
C162 C163 1.498 . S
C162 O180 1.258 . S
C162 O181 1.239 . S
C163 C162 1.498 . S
C163 C164 1.366 . S
C163 C168 1.407 . S
C164 C163 1.366 . S
C164 C165 1.392 . S
C164 H192 0.930 . S
C165 C164 1.392 . S
C165 C166 1.398 . S
C165 H193 0.929 . S
C166 C165 1.398 . S
C166 C167 1.352 . S
C167 C166 1.352 . S
C167 C168 1.384 . S
C167 H194 0.930 . S
C168 C163 1.407 . S
C168 C167 1.384 . S
C168 H195 0.929 . S
C169 O182 1.241 1_554 S
C169 O183 1.273 . S
C170 O184 1.251 . S
C170 O185 1.268 1_556 S
C171 Nd161 2.836 . S
C171 C172 1.498 . S
C171 O186 1.258 . S
C171 O187 1.239 . S
C172 C171 1.498 . S
C172 C173 1.366 . S
C172 C177 1.407 . S
C173 C172 1.366 . S
C173 C174 1.392 . S
C173 H196 0.930 . S
C174 C173 1.392 . S
C174 C175 1.398 . S
C174 H197 0.929 . S
C175 C174 1.398 . S
C175 C176 1.352 . S
C176 C175 1.352 . S
C176 C177 1.384 . S
C176 H198 0.930 . S
C177 C172 1.407 . S
C177 C176 1.384 . S
C177 H199 0.929 . S
C178 O188 1.241 . S
C178 O189 1.273 . S
C179 O190 1.251 . S
C179 O191 1.268 . S
O180 Nd160 2.500 . S
O180 C162 1.258 . S
O181 Nd160 2.492 . S
O181 C162 1.239 . S
O182 Nd160 2.487 . S
O182 C169 1.241 1_556 S
O183 Nd160 2.682 1_554 S
O183 Nd161 2.414 . S
O183 C169 1.273 . S
O184 Nd160 2.410 . S
O184 C170 1.251 . S
O185 Nd161 2.424 . S
O185 C170 1.268 1_554 S
O186 Nd161 2.500 . S
O186 C171 1.258 . S
O187 Nd161 2.492 . S
O187 C171 1.239 . S
O188 Nd161 2.487 . S
O188 C178 1.241 . S
O189 Nd160 2.414 1_554 S
O189 Nd161 2.682 . S
O189 C178 1.273 . S
O190 Nd161 2.410 . S
O190 C179 1.251 . S
O191 Nd160 2.424 1_554 S
O191 C179 1.268 . S
H192 C164 0.930 . S
H193 C165 0.929 . S
H194 C167 0.930 . S
H195 C168 0.929 . S
H196 C173 0.930 . S
H197 C174 0.929 . S
H198 C176 0.930 . S
H199 C177 0.929 . S
Nd200 C202 2.836 . S
Nd200 O220 2.500 . S
Nd200 O221 2.492 . S
Nd200 O222 2.487 . S
Nd200 O223 2.682 1_556 S
Nd200 O224 2.410 . S
Nd200 O229 2.414 1_556 S
Nd200 O231 2.424 1_556 S
Nd201 C211 2.836 . S
Nd201 O223 2.414 . S
Nd201 O225 2.424 . S
Nd201 O226 2.500 . S
Nd201 O227 2.492 . S
Nd201 O228 2.487 . S
Nd201 O229 2.682 . S
Nd201 O230 2.410 . S
C202 Nd200 2.836 . S
C202 C203 1.498 . S
C202 O220 1.258 . S
C202 O221 1.239 . S
C203 C202 1.498 . S
C203 C204 1.366 . S
C203 C208 1.407 . S
C204 C203 1.366 . S
C204 C205 1.392 . S
C204 H232 0.930 . S
C205 C204 1.392 . S
C205 C206 1.398 . S
C205 H233 0.929 . S
C206 C205 1.398 . S
C206 C207 1.352 . S
C207 C206 1.352 . S
C207 C208 1.384 . S
C207 H234 0.930 . S
C208 C203 1.407 . S
C208 C207 1.384 . S
C208 H235 0.929 . S
C209 O222 1.241 1_554 S
C209 O223 1.273 . S
C210 O224 1.251 . S
C210 O225 1.268 1_556 S
C211 Nd201 2.836 . S
C211 C212 1.498 . S
C211 O226 1.258 . S
C211 O227 1.239 . S
C212 C211 1.498 . S
C212 C213 1.366 . S
C212 C217 1.407 . S
C213 C212 1.366 . S
C213 C214 1.392 . S
C213 H236 0.930 . S
C214 C213 1.392 . S
C214 C215 1.398 . S
C214 H237 0.929 . S
C215 C214 1.398 . S
C215 C216 1.352 . S
C216 C215 1.352 . S
C216 C217 1.384 . S
C216 H238 0.930 . S
C217 C212 1.407 . S
C217 C216 1.384 . S
C217 H239 0.929 . S
C218 O228 1.241 . S
C218 O229 1.273 . S
C219 O230 1.251 . S
C219 O231 1.268 . S
O220 Nd200 2.500 . S
O220 C202 1.258 . S
O221 Nd200 2.492 . S
O221 C202 1.239 . S
O222 Nd200 2.487 . S
O222 C209 1.241 1_556 S
O223 Nd200 2.682 1_554 S
O223 Nd201 2.414 . S
O223 C209 1.273 . S
O224 Nd200 2.410 . S
O224 C210 1.251 . S
O225 Nd201 2.424 . S
O225 C210 1.268 1_554 S
O226 Nd201 2.500 . S
O226 C211 1.258 . S
O227 Nd201 2.492 . S
O227 C211 1.239 . S
O228 Nd201 2.487 . S
O228 C218 1.241 . S
O229 Nd200 2.414 1_554 S
O229 Nd201 2.682 . S
O229 C218 1.273 . S
O230 Nd201 2.410 . S
O230 C219 1.251 . S
O231 Nd200 2.424 1_554 S
O231 C219 1.268 . S
H232 C204 0.930 . S
H233 C205 0.929 . S
H234 C207 0.930 . S
H235 C208 0.929 . S
H236 C213 0.930 . S
H237 C214 0.929 . S
H238 C216 0.930 . S
H239 C217 0.929 . S
Nd240 C242 2.836 . S
Nd240 O260 2.500 . S
Nd240 O261 2.492 . S
Nd240 O262 2.487 . S
Nd240 O263 2.682 . S
Nd240 O264 2.410 . S
Nd240 O269 2.414 . S
Nd240 O271 2.424 . S
Nd241 C251 2.836 . S
Nd241 O263 2.414 1_554 S
Nd241 O265 2.424 1_554 S
Nd241 O266 2.500 . S
Nd241 O267 2.492 . S
Nd241 O268 2.487 . S
Nd241 O269 2.682 1_554 S
Nd241 O270 2.410 . S
C242 Nd240 2.836 . S
C242 C243 1.498 . S
C242 O260 1.258 . S
C242 O261 1.239 . S
C243 C242 1.498 . S
C243 C244 1.366 . S
C243 C248 1.407 . S
C244 C243 1.366 . S
C244 C245 1.392 . S
C244 H272 0.930 . S
C245 C244 1.392 . S
C245 C246 1.398 . S
C245 H273 0.929 . S
C246 C245 1.398 . S
C246 C247 1.352 . S
C247 C246 1.352 . S
C247 C248 1.384 . S
C247 H274 0.930 . S
C248 C243 1.407 . S
C248 C247 1.384 . S
C248 H275 0.929 . S
C249 O262 1.241 . S
C249 O263 1.273 . S
C250 O264 1.251 . S
C250 O265 1.268 . S
C251 Nd241 2.836 . S
C251 C252 1.498 . S
C251 O266 1.258 . S
C251 O267 1.239 . S
C252 C251 1.498 . S
C252 C253 1.366 . S
C252 C257 1.407 . S
C253 C252 1.366 . S
C253 C254 1.392 . S
C253 H276 0.930 . S
C254 C253 1.392 . S
C254 C255 1.398 . S
C254 H277 0.929 . S
C255 C254 1.398 . S
C255 C256 1.352 . S
C256 C255 1.352 . S
C256 C257 1.384 . S
C256 H278 0.930 . S
C257 C252 1.407 . S
C257 C256 1.384 . S
C257 H279 0.929 . S
C258 O268 1.241 1_556 S
C258 O269 1.273 . S
C259 O270 1.251 . S
C259 O271 1.268 1_554 S
O260 Nd240 2.500 . S
O260 C242 1.258 . S
O261 Nd240 2.492 . S
O261 C242 1.239 . S
O262 Nd240 2.487 . S
O262 C249 1.241 . S
O263 Nd240 2.682 . S
O263 Nd241 2.414 1_556 S
O263 C249 1.273 . S
O264 Nd240 2.410 . S
O264 C250 1.251 . S
O265 Nd241 2.424 1_556 S
O265 C250 1.268 . S
O266 Nd241 2.500 . S
O266 C251 1.258 . S
O267 Nd241 2.492 . S
O267 C251 1.239 . S
O268 Nd241 2.487 . S
O268 C258 1.241 1_554 S
O269 Nd240 2.414 . S
O269 Nd241 2.682 1_556 S
O269 C258 1.273 . S
O270 Nd241 2.410 . S
O270 C259 1.251 . S
O271 Nd240 2.424 . S
O271 C259 1.268 1_556 S
H272 C244 0.930 . S
H273 C245 0.929 . S
H274 C247 0.930 . S
H275 C248 0.929 . S
H276 C253 0.930 . S
H277 C254 0.929 . S
H278 C256 0.930 . S
H279 C257 0.929 . S
Nd280 C282 2.836 . S
Nd280 O300 2.500 . S
Nd280 O301 2.492 . S
Nd280 O302 2.487 . S
Nd280 O303 2.682 . S
Nd280 O304 2.410 . S
Nd280 O309 2.414 . S
Nd280 O311 2.424 . S
Nd281 C291 2.836 . S
Nd281 O303 2.414 1_554 S
Nd281 O305 2.424 1_554 S
Nd281 O306 2.500 . S
Nd281 O307 2.492 . S
Nd281 O308 2.487 . S
Nd281 O309 2.682 1_554 S
Nd281 O310 2.410 . S
C282 Nd280 2.836 . S
C282 C283 1.498 . S
C282 O300 1.258 . S
C282 O301 1.239 . S
C283 C282 1.498 . S
C283 C284 1.366 . S
C283 C288 1.407 . S
C284 C283 1.366 . S
C284 C285 1.392 . S
C284 H312 0.930 . S
C285 C284 1.392 . S
C285 C286 1.398 . S
C285 H313 0.929 . S
C286 C285 1.398 . S
C286 C287 1.352 . S
C287 C286 1.352 . S
C287 C288 1.384 . S
C287 H314 0.930 . S
C288 C283 1.407 . S
C288 C287 1.384 . S
C288 H315 0.929 . S
C289 O302 1.241 . S
C289 O303 1.273 . S
C290 O304 1.251 . S
C290 O305 1.268 . S
C291 Nd281 2.836 . S
C291 C292 1.498 . S
C291 O306 1.258 . S
C291 O307 1.239 . S
C292 C291 1.498 . S
C292 C293 1.366 . S
C292 C297 1.407 . S
C293 C292 1.366 . S
C293 C294 1.392 . S
C293 H316 0.930 . S
C294 C293 1.392 . S
C294 C295 1.398 . S
C294 H317 0.929 . S
C295 C294 1.398 . S
C295 C296 1.352 . S
C296 C295 1.352 . S
C296 C297 1.384 . S
C296 H318 0.930 . S
C297 C292 1.407 . S
C297 C296 1.384 . S
C297 H319 0.929 . S
C298 O308 1.241 1_556 S
C298 O309 1.273 . S
C299 O310 1.251 . S
C299 O311 1.268 1_554 S
O300 Nd280 2.500 . S
O300 C282 1.258 . S
O301 Nd280 2.492 . S
O301 C282 1.239 . S
O302 Nd280 2.487 . S
O302 C289 1.241 . S
O303 Nd280 2.682 . S
O303 Nd281 2.414 1_556 S
O303 C289 1.273 . S
O304 Nd280 2.410 . S
O304 C290 1.251 . S
O305 Nd281 2.424 1_556 S
O305 C290 1.268 . S
O306 Nd281 2.500 . S
O306 C291 1.258 . S
O307 Nd281 2.492 . S
O307 C291 1.239 . S
O308 Nd281 2.487 . S
O308 C298 1.241 1_554 S
O309 Nd280 2.414 . S
O309 Nd281 2.682 1_556 S
O309 C298 1.273 . S
O310 Nd281 2.410 . S
O310 C299 1.251 . S
O311 Nd280 2.424 . S
O311 C299 1.268 1_556 S
H312 C284 0.930 . S
H313 C285 0.929 . S
H314 C287 0.930 . S
H315 C288 0.929 . S
H316 C293 0.930 . S
H317 C294 0.929 . S
H318 C296 0.930 . S
H319 C297 0.929 . S
H320 C328 0.929 . S
H321 C330 0.930 . S
H322 C332 0.930 . S
H323 C335 0.929 . S
H324 C338 0.930 . S
H325 C340 0.960 . S
H326 C340 0.960 . S
H327 C340 0.960 . S
C328 H320 0.929 . S
C328 C329 1.377 . S
C328 C330 1.384 . S
C329 C328 1.377 . S
C329 C335 1.390 . S
C330 H321 0.930 . S
C330 C328 1.384 . S
C330 C331 1.372 . S
C331 C330 1.372 . S
C331 C332 1.400 . S
C331 C336 1.490 . S
C332 H322 0.930 . S
C332 C331 1.400 . S
C332 C335 1.386 . S
H333 C349 0.930 . S
H334 C350 0.931 . S
C335 H323 0.929 . S
C335 C329 1.390 . S
C335 C332 1.386 . S
C336 C331 1.490 . S
C336 C338 1.395 . S
C336 C339 1.403 . S
H337 C343 0.930 . S
C338 H324 0.930 . S
C338 C336 1.395 . S
C338 C341 1.403 . S
C339 C336 1.403 . S
C339 C340 1.524 . S
C339 C343 1.400 . S
C340 H325 0.960 . S
C340 H326 0.960 . S
C340 H327 0.960 . S
C340 C339 1.524 . S
C341 C338 1.403 . S
C341 C342 1.392 . S
C341 C345 1.495 . S
C342 C341 1.392 . S
C342 C343 1.385 . S
C342 C344 1.478 . S
C343 H337 0.930 . S
C343 C339 1.400 . S
C343 C342 1.385 . S
C344 C342 1.478 . S
C344 C346 1.381 . S
C344 C350 1.383 . S
C345 C341 1.495 . S
C345 H351 0.959 . S
C345 H352 0.961 . S
C345 H353 0.960 . S
C346 C344 1.381 . S
C346 C347 1.394 . S
C346 H354 0.930 . S
C347 C346 1.394 . S
C347 C348 1.383 . S
C347 H355 0.929 . S
C348 C347 1.383 . S
C348 C349 1.377 . S
C349 H333 0.930 . S
C349 C348 1.377 . S
C349 C350 1.379 . S
C350 H334 0.931 . S
C350 C344 1.383 . S
C350 C349 1.379 . S
H351 C345 0.959 . S
H352 C345 0.961 . S
H353 C345 0.960 . S
H354 C346 0.930 . S
H355 C347 0.929 . S
H356 C364 0.929 . S
H357 C366 0.930 . S
H358 C368 0.930 . S
H359 C371 0.929 . S
H360 C374 0.930 . S
H361 C376 0.960 . S
H362 C376 0.960 . S
H363 C376 0.960 . S
C364 H356 0.929 . S
C364 C365 1.377 . S
C364 C366 1.384 . S
C365 C364 1.377 . S
C365 C371 1.390 . S
C366 H357 0.930 . S
C366 C364 1.384 . S
C366 C367 1.372 . S
C367 C366 1.372 . S
C367 C368 1.400 . S
C367 C372 1.490 . S
C368 H358 0.930 . S
C368 C367 1.400 . S
C368 C371 1.386 . S
H369 C385 0.930 . S
H370 C386 0.931 . S
C371 H359 0.929 . S
C371 C365 1.390 . S
C371 C368 1.386 . S
C372 C367 1.490 . S
C372 C374 1.395 . S
C372 C375 1.403 . S
H373 C379 0.930 . S
C374 H360 0.930 . S
C374 C372 1.395 . S
C374 C377 1.403 . S
C375 C372 1.403 . S
C375 C376 1.524 . S
C375 C379 1.400 . S
C376 H361 0.960 . S
C376 H362 0.960 . S
C376 H363 0.960 . S
C376 C375 1.524 . S
C377 C374 1.403 . S
C377 C378 1.392 . S
C377 C381 1.495 . S
C378 C377 1.392 . S
C378 C379 1.385 . S
C378 C380 1.478 . S
C379 H373 0.930 . S
C379 C375 1.400 . S
C379 C378 1.385 . S
C380 C378 1.478 . S
C380 C382 1.381 . S
C380 C386 1.383 . S
C381 C377 1.495 . S
C381 H387 0.959 . S
C381 H388 0.961 . S
C381 H389 0.960 . S
C382 C380 1.381 . S
C382 C383 1.394 . S
C382 H390 0.930 . S
C383 C382 1.394 . S
C383 C384 1.383 . S
C383 H391 0.929 . S
C384 C383 1.383 . S
C384 C385 1.377 . S
C385 H369 0.930 . S
C385 C384 1.377 . S
C385 C386 1.379 . S
C386 H370 0.931 . S
C386 C380 1.383 . S
C386 C385 1.379 . S
H387 C381 0.959 . S
H388 C381 0.961 . S
H389 C381 0.960 . S
H390 C382 0.930 . S
H391 C383 0.929 . S
H392 C400 0.929 . S
H393 C402 0.930 . S
H394 C404 0.930 . S
H395 C407 0.929 . S
H396 C410 0.930 . S
H397 C412 0.960 . S
H398 C412 0.960 . S
H399 C412 0.960 . S
C400 H392 0.929 . S
C400 C401 1.377 . S
C400 C402 1.384 . S
C401 C400 1.377 . S
C401 C407 1.390 . S
C402 H393 0.930 . S
C402 C400 1.384 . S
C402 C403 1.372 . S
C403 C402 1.372 . S
C403 C404 1.400 . S
C403 C408 1.490 . S
C404 H394 0.930 . S
C404 C403 1.400 . S
C404 C407 1.386 . S
H405 C421 0.930 . S
H406 C422 0.931 . S
C407 H395 0.929 . S
C407 C401 1.390 . S
C407 C404 1.386 . S
C408 C403 1.490 . S
C408 C410 1.395 . S
C408 C411 1.403 . S
H409 C415 0.930 . S
C410 H396 0.930 . S
C410 C408 1.395 . S
C410 C413 1.403 . S
C411 C408 1.403 . S
C411 C412 1.524 . S
C411 C415 1.400 . S
C412 H397 0.960 . S
C412 H398 0.960 . S
C412 H399 0.960 . S
C412 C411 1.524 . S
C413 C410 1.403 . S
C413 C414 1.392 . S
C413 C417 1.495 . S
C414 C413 1.392 . S
C414 C415 1.385 . S
C414 C416 1.478 . S
C415 H409 0.930 . S
C415 C411 1.400 . S
C415 C414 1.385 . S
C416 C414 1.478 . S
C416 C418 1.381 . S
C416 C422 1.383 . S
C417 C413 1.495 . S
C417 H423 0.959 . S
C417 H424 0.961 . S
C417 H425 0.960 . S
C418 C416 1.381 . S
C418 C419 1.394 . S
C418 H426 0.930 . S
C419 C418 1.394 . S
C419 C420 1.383 . S
C419 H427 0.929 . S
C420 C419 1.383 . S
C420 C421 1.377 . S
C421 H405 0.930 . S
C421 C420 1.377 . S
C421 C422 1.379 . S
C422 H406 0.931 . S
C422 C416 1.383 . S
C422 C421 1.379 . S
H423 C417 0.959 . S
H424 C417 0.961 . S
H425 C417 0.960 . S
H426 C418 0.930 . S
H427 C419 0.929 . S
H428 C436 0.929 . S
H429 C438 0.930 . S
H430 C440 0.930 . S
H431 C443 0.929 . S
H432 C446 0.930 . S
H433 C448 0.960 . S
H434 C448 0.960 . S
H435 C448 0.960 . S
C436 H428 0.929 . S
C436 C437 1.377 . S
C436 C438 1.384 . S
C437 C436 1.377 . S
C437 C443 1.390 . S
C438 H429 0.930 . S
C438 C436 1.384 . S
C438 C439 1.372 . S
C439 C438 1.372 . S
C439 C440 1.400 . S
C439 C444 1.490 . S
C440 H430 0.930 . S
C440 C439 1.400 . S
C440 C443 1.386 . S
H441 C457 0.930 . S
H442 C458 0.931 . S
C443 H431 0.929 . S
C443 C437 1.390 . S
C443 C440 1.386 . S
C444 C439 1.490 . S
C444 C446 1.395 . S
C444 C447 1.403 . S
H445 C451 0.930 . S
C446 H432 0.930 . S
C446 C444 1.395 . S
C446 C449 1.403 . S
C447 C444 1.403 . S
C447 C448 1.524 . S
C447 C451 1.400 . S
C448 H433 0.960 . S
C448 H434 0.960 . S
C448 H435 0.960 . S
C448 C447 1.524 . S
C449 C446 1.403 . S
C449 C450 1.392 . S
C449 C453 1.495 . S
C450 C449 1.392 . S
C450 C451 1.385 . S
C450 C452 1.478 . S
C451 H445 0.930 . S
C451 C447 1.400 . S
C451 C450 1.385 . S
C452 C450 1.478 . S
C452 C454 1.381 . S
C452 C458 1.383 . S
C453 C449 1.495 . S
C453 H459 0.959 . S
C453 H460 0.961 . S
C453 H461 0.960 . S
C454 C452 1.381 . S
C454 C455 1.394 . S
C454 H462 0.930 . S
C455 C454 1.394 . S
C455 C456 1.383 . S
C455 H463 0.929 . S
C456 C455 1.383 . S
C456 C457 1.377 . S
C457 H441 0.930 . S
C457 C456 1.377 . S
C457 C458 1.379 . S
C458 H442 0.931 . S
C458 C452 1.383 . S
C458 C457 1.379 . S
H459 C453 0.959 . S
H460 C453 0.961 . S
H461 C453 0.960 . S
H462 C454 0.930 . S
H463 C455 0.929 . S
H464 C472 0.929 . S
H465 C474 0.930 . S
H466 C476 0.930 . S
H467 C479 0.929 . S
H468 C482 0.930 . S
H469 C484 0.960 . S
H470 C484 0.960 . S
H471 C484 0.960 . S
C472 H464 0.929 . S
C472 C473 1.377 . S
C472 C474 1.384 . S
C473 C472 1.377 . S
C473 C479 1.390 . S
C474 H465 0.930 . S
C474 C472 1.384 . S
C474 C475 1.372 . S
C475 C474 1.372 . S
C475 C476 1.400 . S
C475 C480 1.490 . S
C476 H466 0.930 . S
C476 C475 1.400 . S
C476 C479 1.386 . S
H477 C493 0.930 . S
H478 C494 0.931 . S
C479 H467 0.929 . S
C479 C473 1.390 . S
C479 C476 1.386 . S
C480 C475 1.490 . S
C480 C482 1.395 . S
C480 C483 1.403 . S
H481 C487 0.930 . S
C482 H468 0.930 . S
C482 C480 1.395 . S
C482 C485 1.403 1_565 S
C483 C480 1.403 . S
C483 C484 1.524 . S
C483 C487 1.400 1_565 S
C484 H469 0.960 . S
C484 H470 0.960 . S
C484 H471 0.960 . S
C484 C483 1.524 . S
C485 C482 1.403 1_545 S
C485 C486 1.392 . S
C485 C489 1.495 . S
C486 C485 1.392 . S
C486 C487 1.385 . S
C486 C488 1.478 . S
C487 H481 0.930 . S
C487 C483 1.400 1_545 S
C487 C486 1.385 . S
C488 C486 1.478 . S
C488 C490 1.381 . S
C488 C494 1.383 . S
C489 C485 1.495 . S
C489 H495 0.959 . S
C489 H496 0.961 . S
C489 H497 0.960 . S
C490 C488 1.381 . S
C490 C491 1.394 . S
C490 H498 0.930 . S
C491 C490 1.394 . S
C491 C492 1.383 . S
C491 H499 0.929 . S
C492 C491 1.383 . S
C492 C493 1.377 . S
C493 H477 0.930 . S
C493 C492 1.377 . S
C493 C494 1.379 . S
C494 H478 0.931 . S
C494 C488 1.383 . S
C494 C493 1.379 . S
H495 C489 0.959 . S
H496 C489 0.961 . S
H497 C489 0.960 . S
H498 C490 0.930 . S
H499 C491 0.929 . S
H500 C508 0.929 . S
H501 C510 0.930 . S
H502 C512 0.930 . S
H503 C515 0.929 . S
H504 C518 0.930 . S
H505 C520 0.960 . S
H506 C520 0.960 . S
H507 C520 0.960 . S
C508 H500 0.929 . S
C508 C509 1.377 . S
C508 C510 1.384 . S
C509 C508 1.377 . S
C509 C515 1.390 . S
C510 H501 0.930 . S
C510 C508 1.384 . S
C510 C511 1.372 . S
C511 C510 1.372 . S
C511 C512 1.400 . S
C511 C516 1.490 . S
C512 H502 0.930 . S
C512 C511 1.400 . S
C512 C515 1.386 . S
H513 C529 0.930 . S
H514 C530 0.931 . S
C515 H503 0.929 . S
C515 C509 1.390 . S
C515 C512 1.386 . S
C516 C511 1.490 . S
C516 C518 1.395 . S
C516 C519 1.403 . S
H517 C523 0.930 . S
C518 H504 0.930 . S
C518 C516 1.395 . S
C518 C521 1.403 . S
C519 C516 1.403 . S
C519 C520 1.524 . S
C519 C523 1.400 . S
C520 H505 0.960 . S
C520 H506 0.960 . S
C520 H507 0.960 . S
C520 C519 1.524 . S
C521 C518 1.403 . S
C521 C522 1.392 . S
C521 C525 1.495 . S
C522 C521 1.392 . S
C522 C523 1.385 . S
C522 C524 1.478 . S
C523 H517 0.930 . S
C523 C519 1.400 . S
C523 C522 1.385 . S
C524 C522 1.478 . S
C524 C526 1.381 . S
C524 C530 1.383 . S
C525 C521 1.495 . S
C525 H531 0.959 . S
C525 H532 0.961 . S
C525 H533 0.960 . S
C526 C524 1.381 . S
C526 C527 1.394 . S
C526 H534 0.930 . S
C527 C526 1.394 . S
C527 C528 1.383 . S
C527 H535 0.929 . S
C528 C527 1.383 . S
C528 C529 1.377 . S
C529 H513 0.930 . S
C529 C528 1.377 . S
C529 C530 1.379 . S
C530 H514 0.931 . S
C530 C524 1.383 . S
C530 C529 1.379 . S
H531 C525 0.959 . S
H532 C525 0.961 . S
H533 C525 0.960 . S
H534 C526 0.930 . S
H535 C527 0.929 . S
H536 C544 0.929 . S
H537 C546 0.930 . S
H538 C548 0.930 . S
H539 C551 0.929 . S
H540 C554 0.930 . S
H541 C556 0.960 . S
H542 C556 0.960 . S
H543 C556 0.960 . S
C544 H536 0.929 . S
C544 C545 1.377 . S
C544 C546 1.384 . S
C545 C544 1.377 . S
C545 C551 1.390 . S
C546 H537 0.930 . S
C546 C544 1.384 . S
C546 C547 1.372 . S
C547 C546 1.372 . S
C547 C548 1.400 . S
C547 C552 1.490 . S
C548 H538 0.930 . S
C548 C547 1.400 . S
C548 C551 1.386 . S
H549 C565 0.930 . S
H550 C566 0.931 . S
C551 H539 0.929 . S
C551 C545 1.390 . S
C551 C548 1.386 . S
C552 C547 1.490 . S
C552 C554 1.395 . S
C552 C555 1.403 . S
H553 C559 0.930 . S
C554 H540 0.930 . S
C554 C552 1.395 . S
C554 C557 1.403 1_565 S
C555 C552 1.403 . S
C555 C556 1.524 . S
C555 C559 1.400 1_565 S
C556 H541 0.960 . S
C556 H542 0.960 . S
C556 H543 0.960 . S
C556 C555 1.524 . S
C557 C554 1.403 1_545 S
C557 C558 1.392 . S
C557 C561 1.495 . S
C558 C557 1.392 . S
C558 C559 1.385 . S
C558 C560 1.478 . S
C559 H553 0.930 . S
C559 C555 1.400 1_545 S
C559 C558 1.385 . S
C560 C558 1.478 . S
C560 C562 1.381 . S
C560 C566 1.383 . S
C561 C557 1.495 . S
C561 H567 0.959 1_545 S
C561 H568 0.961 . S
C561 H569 0.960 . S
C562 C560 1.381 . S
C562 C563 1.394 . S
C562 H570 0.930 . S
C563 C562 1.394 . S
C563 C564 1.383 . S
C563 H571 0.929 . S
C564 C563 1.383 . S
C564 C565 1.377 . S
C565 H549 0.930 . S
C565 C564 1.377 . S
C565 C566 1.379 . S
C566 H550 0.931 . S
C566 C560 1.383 . S
C566 C565 1.379 . S
H567 C561 0.959 1_565 S
H568 C561 0.961 . S
H569 C561 0.960 . S
H570 C562 0.930 . S
H571 C563 0.929 . S
H572 C580 0.929 . S
H573 C582 0.930 . S
H574 C584 0.930 . S
H575 C587 0.929 . S
H576 C590 0.930 . S
H577 C592 0.960 . S
H578 C592 0.960 . S
H579 C592 0.960 . S
C580 H572 0.929 . S
C580 C581 1.377 . S
C580 C582 1.384 . S
C581 C580 1.377 . S
C581 C587 1.390 . S
C582 H573 0.930 . S
C582 C580 1.384 . S
C582 C583 1.372 . S
C583 C582 1.372 . S
C583 C584 1.400 . S
C583 C588 1.490 . S
C584 H574 0.930 . S
C584 C583 1.400 . S
C584 C587 1.386 . S
H585 C601 0.930 . S
H586 C602 0.931 . S
C587 H575 0.929 . S
C587 C581 1.390 . S
C587 C584 1.386 . S
C588 C583 1.490 . S
C588 C590 1.395 . S
C588 C591 1.403 . S
H589 C595 0.930 . S
C590 H576 0.930 . S
C590 C588 1.395 . S
C590 C593 1.403 . S
C591 C588 1.403 . S
C591 C592 1.524 . S
C591 C595 1.400 . S
C592 H577 0.960 . S
C592 H578 0.960 . S
C592 H579 0.960 . S
C592 C591 1.524 . S
C593 C590 1.403 . S
C593 C594 1.392 . S
C593 C597 1.495 . S
C594 C593 1.392 . S
C594 C595 1.385 . S
C594 C596 1.478 . S
C595 H589 0.930 . S
C595 C591 1.400 . S
C595 C594 1.385 . S
C596 C594 1.478 . S
C596 C598 1.381 . S
C596 C602 1.383 . S
C597 C593 1.495 . S
C597 H603 0.959 . S
C597 H604 0.961 . S
C597 H605 0.960 . S
C598 C596 1.381 . S
C598 C599 1.394 . S
C598 H606 0.930 . S
C599 C598 1.394 . S
C599 C600 1.383 . S
C599 H607 0.929 . S
C600 C599 1.383 . S
C600 C601 1.377 . S
C601 H585 0.930 . S
C601 C600 1.377 . S
C601 C602 1.379 . S
C602 H586 0.931 . S
C602 C596 1.383 . S
C602 C601 1.379 . S
H603 C597 0.959 . S
H604 C597 0.961 . S
H605 C597 0.960 . S
H606 C598 0.930 . S
H607 C599 0.929 . S
H608 C616 0.929 . S
H609 C618 0.930 . S
H610 C620 0.930 . S
H611 C623 0.929 . S
H612 C626 0.930 . S
H613 C628 0.960 . S
H614 C628 0.960 . S
H615 C628 0.959 . S
C616 H608 0.929 . S
C616 C617 1.377 1_556 S
C616 C618 1.384 . S
C617 C616 1.377 1_554 S
C617 C623 1.390 . S
C618 H609 0.930 . S
C618 C616 1.384 . S
C618 C619 1.372 1_556 S
C619 C618 1.372 1_554 S
C619 C620 1.400 . S
C619 C624 1.490 . S
C620 H610 0.930 . S
C620 C619 1.400 . S
C620 C623 1.386 . S
H621 C637 0.930 . S
H622 C638 0.931 . S
C623 H611 0.929 . S
C623 C617 1.390 . S
C623 C620 1.386 . S
C624 C619 1.490 . S
C624 C626 1.395 . S
C624 C627 1.403 1_554 S
H625 C631 0.930 . S
C626 H612 0.930 . S
C626 C624 1.395 . S
C626 C629 1.403 . S
C627 C624 1.403 1_556 S
C627 C628 1.524 . S
C627 C631 1.400 . S
C628 H613 0.960 . S
C628 H614 0.960 . S
C628 H615 0.959 . S
C628 C627 1.524 . S
C629 C626 1.403 . S
C629 C630 1.392 . S
C629 C633 1.495 . S
C630 C629 1.392 . S
C630 C631 1.385 1_554 S
C630 C632 1.478 1_554 S
C631 H625 0.930 . S
C631 C627 1.400 . S
C631 C630 1.385 1_556 S
C632 C630 1.478 1_556 S
C632 C634 1.381 . S
C632 C638 1.383 1_556 S
C633 C629 1.495 . S
C633 H639 0.959 . S
C633 H640 0.961 . S
C633 H641 0.960 . S
C634 C632 1.381 . S
C634 C635 1.394 . S
C634 H642 0.930 . S
C635 C634 1.394 . S
C635 C636 1.383 . S
C635 H643 0.929 . S
C636 C635 1.383 . S
C636 C637 1.377 1_556 S
C637 H621 0.930 . S
C637 C636 1.377 1_554 S
C637 C638 1.379 . S
C638 H622 0.931 . S
C638 C632 1.383 1_554 S
C638 C637 1.379 . S
H639 C633 0.959 . S
H640 C633 0.961 . S
H641 C633 0.960 . S
H642 C634 0.930 . S
H643 C635 0.929 . S
H644 C652 0.929 . S
H645 C654 0.930 . S
H646 C656 0.930 . S
H647 C659 0.929 . S
H648 C662 0.930 . S
H649 C664 0.960 . S
H650 C664 0.960 . S
H651 C664 0.960 . S
C652 H644 0.929 . S
C652 C653 1.377 . S
C652 C654 1.384 . S
C653 C652 1.377 . S
C653 C659 1.390 . S
C654 H645 0.930 . S
C654 C652 1.384 . S
C654 C655 1.372 . S
C655 C654 1.372 . S
C655 C656 1.400 . S
C655 C660 1.490 . S
C656 H646 0.930 . S
C656 C655 1.400 . S
C656 C659 1.386 . S
H657 C673 0.930 . S
H658 C674 0.931 . S
C659 H647 0.929 . S
C659 C653 1.390 . S
C659 C656 1.386 . S
C660 C655 1.490 . S
C660 C662 1.395 1_554 S
C660 C663 1.403 . S
H661 C667 0.930 . S
C662 H648 0.930 . S
C662 C660 1.395 1_556 S
C662 C665 1.403 1_565 S
C663 C660 1.403 . S
C663 C664 1.524 . S
C663 C667 1.400 1_565 S
C664 H649 0.960 . S
C664 H650 0.960 . S
C664 H651 0.960 . S
C664 C663 1.524 . S
C665 C662 1.403 1_545 S
C665 C666 1.392 . S
C665 C669 1.495 . S
C666 C665 1.392 . S
C666 C667 1.385 1_556 S
C666 C668 1.478 . S
C667 H661 0.930 . S
C667 C663 1.400 1_545 S
C667 C666 1.385 1_554 S
C668 C666 1.478 . S
C668 C670 1.381 . S
C668 C674 1.383 . S
C669 C665 1.495 . S
C669 H675 0.959 . S
C669 H676 0.961 . S
C669 H677 0.960 . S
C670 C668 1.381 . S
C670 C671 1.394 . S
C670 H678 0.933 . S
C671 C670 1.394 . S
C671 C672 1.383 . S
C671 H679 0.929 . S
C672 C671 1.383 . S
C672 C673 1.377 . S
C673 H657 0.930 . S
C673 C672 1.377 . S
C673 C674 1.379 . S
C674 H658 0.931 . S
C674 C668 1.383 . S
C674 C673 1.379 . S
H675 C669 0.959 . S
H676 C669 0.961 . S
H677 C669 0.960 . S
H678 C670 0.933 . S
H679 C671 0.929 . S
H680 C688 0.929 . S
H681 C690 0.930 . S
H682 C692 0.930 . S
H683 C695 0.929 . S
H684 C698 0.930 . S
H685 C700 0.960 . S
H686 C700 0.960 . S
H687 C700 0.960 . S
C688 H680 0.929 . S
C688 C689 1.377 . S
C688 C690 1.384 . S
C689 C688 1.377 . S
C689 C695 1.390 1_556 S
C690 H681 0.930 . S
C690 C688 1.384 . S
C690 C691 1.372 . S
C691 C690 1.372 . S
C691 C692 1.400 1_556 S
C691 C696 1.490 . S
C692 H682 0.930 . S
C692 C691 1.400 1_554 S
C692 C695 1.386 . S
H693 C709 0.930 . S
H694 C710 0.931 . S
C695 H683 0.929 . S
C695 C689 1.390 1_554 S
C695 C692 1.386 . S
C696 C691 1.490 . S
C696 C698 1.395 . S
C696 C699 1.403 1_556 S
H697 C703 0.930 . S
C698 H684 0.930 . S
C698 C696 1.395 . S
C698 C701 1.403 . S
C699 C696 1.403 1_554 S
C699 C700 1.524 . S
C699 C703 1.400 . S
C700 H685 0.960 . S
C700 H686 0.960 . S
C700 H687 0.960 . S
C700 C699 1.524 . S
C701 C698 1.403 . S
C701 C702 1.392 . S
C701 C705 1.495 . S
C702 C701 1.392 . S
C702 C703 1.385 1_556 S
C702 C704 1.479 . S
C703 H697 0.930 . S
C703 C699 1.400 . S
C703 C702 1.385 1_554 S
C704 C702 1.479 . S
C704 C706 1.388 . S
C704 C710 1.375 1_556 S
C705 C701 1.495 . S
C705 H711 0.959 . S
C705 H712 0.961 . S
C705 H713 0.960 . S
C706 C704 1.388 . S
C706 C707 1.394 . S
C706 H714 0.930 . S
C707 C706 1.394 . S
C707 C708 1.383 1_556 S
C707 H715 0.929 . S
C708 C707 1.383 1_554 S
C708 C709 1.377 . S
C709 H693 0.930 . S
C709 C708 1.377 . S
C709 C710 1.379 . S
C710 H694 0.931 . S
C710 C704 1.375 1_554 S
C710 C709 1.379 . S
H711 C705 0.959 . S
H712 C705 0.961 . S
H713 C705 0.960 . S
H714 C706 0.930 . S
H715 C707 0.929 . S
H716 C724 0.929 . S
H717 C726 0.930 . S
H718 C728 0.930 . S
H719 C731 0.929 . S
H720 C734 0.930 . S
H721 C736 0.960 . S
H722 C736 0.960 . S
H723 C736 0.960 . S
C724 H716 0.929 . S
C724 C725 1.377 . S
C724 C726 1.384 . S
C725 C724 1.377 . S
C725 C731 1.390 . S
C726 H717 0.930 . S
C726 C724 1.384 . S
C726 C727 1.372 . S
C727 C726 1.372 . S
C727 C728 1.400 . S
C727 C732 1.490 . S
C728 H718 0.930 . S
C728 C727 1.400 . S
C728 C731 1.386 . S
H729 C745 0.930 . S
H730 C746 0.931 . S
C731 H719 0.929 . S
C731 C725 1.390 . S
C731 C728 1.386 . S
C732 C727 1.490 . S
C732 C734 1.395 1_556 S
C732 C735 1.403 . S
H733 C739 0.930 . S
C734 H720 0.930 . S
C734 C732 1.395 1_554 S
C734 C737 1.403 1_545 S
C735 C732 1.403 . S
C735 C736 1.524 . S
C735 C739 1.400 1_545 S
C736 H721 0.960 . S
C736 H722 0.960 . S
C736 H723 0.960 . S
C736 C735 1.524 . S
C737 C734 1.403 1_565 S
C737 C738 1.392 . S
C737 C741 1.495 . S
C738 C737 1.392 . S
C738 C739 1.385 1_554 S
C738 C740 1.478 . S
C739 H733 0.930 . S
C739 C735 1.400 1_565 S
C739 C738 1.385 1_556 S
C740 C738 1.478 . S
C740 C742 1.381 . S
C740 C746 1.383 . S
C741 C737 1.495 . S
C741 H747 0.959 1_565 S
C741 H748 0.961 . S
C741 H749 0.960 . S
C742 C740 1.381 . S
C742 C743 1.394 . S
C742 H750 0.930 . S
C743 C742 1.394 . S
C743 C744 1.383 . S
C743 H751 0.929 . S
C744 C743 1.383 . S
C744 C745 1.377 . S
C745 H729 0.930 . S
C745 C744 1.377 . S
C745 C746 1.379 . S
C746 H730 0.931 . S
C746 C740 1.383 . S
C746 C745 1.379 . S
H747 C741 0.959 1_545 S
H748 C741 0.961 . S
H749 C741 0.960 . S
H750 C742 0.930 . S
H751 C743 0.929 . S
H752 C760 0.929 . S
H753 C762 0.930 . S
H754 C764 0.930 . S
H755 C767 0.929 . S
H756 C770 0.930 . S
H757 C772 0.960 . S
H758 C772 0.960 . S
H759 C772 0.960 . S
C760 H752 0.929 . S
C760 C761 1.377 . S
C760 C762 1.384 . S
C761 C760 1.377 . S
C761 C767 1.390 . S
C762 H753 0.930 . S
C762 C760 1.384 . S
C762 C763 1.372 . S
C763 C762 1.372 . S
C763 C764 1.400 . S
C763 C768 1.490 . S
C764 H754 0.930 . S
C764 C763 1.400 . S
C764 C767 1.386 . S
H765 C781 0.930 . S
H766 C782 0.931 . S
C767 H755 0.929 . S
C767 C761 1.390 . S
C767 C764 1.386 . S
C768 C763 1.490 . S
C768 C770 1.395 . S
C768 C771 1.403 . S
H769 C775 0.930 . S
C770 H756 0.930 . S
C770 C768 1.395 . S
C770 C773 1.403 . S
C771 C768 1.403 . S
C771 C772 1.524 . S
C771 C775 1.400 1_554 S
C772 H757 0.960 . S
C772 H758 0.960 . S
C772 H759 0.960 . S
C772 C771 1.524 . S
C773 C770 1.403 . S
C773 C774 1.392 1_554 S
C773 C777 1.495 1_554 S
C774 C773 1.392 1_556 S
C774 C775 1.385 . S
C774 C776 1.478 . S
C775 H769 0.930 . S
C775 C771 1.400 1_556 S
C775 C774 1.385 . S
C776 C774 1.478 . S
C776 C778 1.381 . S
C776 C782 1.383 . S
C777 C773 1.495 1_556 S
C777 H783 0.959 1_556 S
C777 H784 0.961 . S
C777 H785 0.960 . S
C778 C776 1.381 . S
C778 C779 1.394 . S
C778 H786 0.930 . S
C779 C778 1.394 . S
C779 C780 1.383 . S
C779 H787 0.929 . S
C780 C779 1.383 . S
C780 C781 1.377 . S
C781 H765 0.930 . S
C781 C780 1.377 . S
C781 C782 1.379 . S
C782 H766 0.931 . S
C782 C776 1.383 . S
C782 C781 1.379 . S
H783 C777 0.959 1_554 S
H784 C777 0.961 . S
H785 C777 0.960 . S
H786 C778 0.930 . S
H787 C779 0.929 . S
H788 C796 0.929 . S
H789 C798 0.930 . S
H790 C800 0.930 . S
H791 C803 0.929 . S
H792 C806 0.930 . S
H793 C808 0.960 . S
H794 C808 0.960 . S
H795 C808 0.960 . S
C796 H788 0.929 . S
C796 C797 1.377 . S
C796 C798 1.384 . S
C797 C796 1.377 . S
C797 C803 1.390 . S
C798 H789 0.930 . S
C798 C796 1.384 . S
C798 C799 1.372 . S
C799 C798 1.372 . S
C799 C800 1.400 . S
C799 C804 1.490 . S
C800 H790 0.930 . S
C800 C799 1.400 . S
C800 C803 1.386 . S
H801 C817 0.930 . S
H802 C818 0.931 . S
C803 H791 0.929 . S
C803 C797 1.390 . S
C803 C800 1.386 . S
C804 C799 1.490 . S
C804 C806 1.395 . S
C804 C807 1.403 . S
H805 C811 0.930 . S
C806 H792 0.930 . S
C806 C804 1.395 . S
C806 C809 1.403 . S
C807 C804 1.403 . S
C807 C808 1.524 . S
C807 C811 1.400 1_554 S
C808 H793 0.960 . S
C808 H794 0.960 . S
C808 H795 0.960 . S
C808 C807 1.524 . S
C809 C806 1.403 . S
C809 C810 1.392 1_554 S
C809 C813 1.495 1_554 S
C810 C809 1.392 1_556 S
C810 C811 1.385 . S
C810 C812 1.478 . S
C811 H805 0.930 . S
C811 C807 1.400 1_556 S
C811 C810 1.385 . S
C812 C810 1.478 . S
C812 C814 1.381 . S
C812 C818 1.383 . S
C813 C809 1.495 1_556 S
C813 H819 0.959 1_556 S
C813 H820 0.961 . S
C813 H821 0.960 . S
C814 C812 1.381 . S
C814 C815 1.394 . S
C814 H822 0.930 . S
C815 C814 1.394 . S
C815 C816 1.383 . S
C815 H823 0.929 . S
C816 C815 1.383 . S
C816 C817 1.377 . S
C817 H801 0.930 . S
C817 C816 1.377 . S
C817 C818 1.379 . S
C818 H802 0.931 . S
C818 C812 1.383 . S
C818 C817 1.379 . S
H819 C813 0.959 1_554 S
H820 C813 0.961 . S
H821 C813 0.960 . S
H822 C814 0.930 . S
H823 C815 0.929 . S
H824 C832 0.929 . S
H825 C834 0.930 . S
H826 C836 0.930 . S
H827 C839 0.929 . S
H828 C842 0.930 1_554 S
H829 C844 0.960 . S
H830 C844 0.960 . S
H831 C844 0.960 . S
C832 H824 0.929 . S
C832 C833 1.377 . S
C832 C834 1.384 . S
C833 C832 1.377 . S
C833 C839 1.390 . S
C834 H825 0.930 . S
C834 C832 1.384 . S
C834 C835 1.372 . S
C835 C834 1.372 . S
C835 C836 1.400 . S
C835 C840 1.490 . S
C836 H826 0.930 . S
C836 C835 1.400 . S
C836 C839 1.386 . S
H837 C853 0.930 . S
H838 C854 0.931 . S
C839 H827 0.929 . S
C839 C833 1.390 . S
C839 C836 1.386 . S
C840 C835 1.490 . S
C840 C842 1.395 1_554 S
C840 C843 1.403 . S
H841 C847 0.930 . S
C842 H828 0.930 1_556 S
C842 C840 1.395 1_556 S
C842 C845 1.403 . S
C843 C840 1.403 . S
C843 C844 1.524 . S
C843 C847 1.400 1_554 S
C844 H829 0.960 . S
C844 H830 0.960 . S
C844 H831 0.960 . S
C844 C843 1.524 . S
C845 C842 1.403 . S
C845 C846 1.392 . S
C845 C849 1.495 . S
C846 C845 1.392 . S
C846 C847 1.385 . S
C846 C848 1.478 . S
C847 H841 0.930 . S
C847 C843 1.400 1_556 S
C847 C846 1.385 . S
C848 C846 1.478 . S
C848 C850 1.381 . S
C848 C854 1.383 . S
C849 C845 1.495 . S
C849 H855 0.959 . S
C849 H856 0.961 . S
C849 H857 0.960 . S
C850 C848 1.381 . S
C850 C851 1.394 . S
C850 H858 0.930 . S
C851 C850 1.394 . S
C851 C852 1.383 . S
C851 H859 0.929 . S
C852 C851 1.383 . S
C852 C853 1.377 . S
C853 H837 0.930 . S
C853 C852 1.377 . S
C853 C854 1.379 . S
C854 H838 0.931 . S
C854 C848 1.383 . S
C854 C853 1.379 . S
H855 C849 0.959 . S
H856 C849 0.961 . S
H857 C849 0.960 . S
H858 C850 0.930 . S
H859 C851 0.929 . S
H860 C868 0.929 . S
H861 C870 0.930 . S
H862 C872 0.930 . S
H863 C875 0.929 . S
H864 C878 0.930 . S
H865 C880 0.960 . S
H866 C880 0.960 . S
H867 C880 0.960 . S
C868 H860 0.929 . S
C868 C869 1.377 . S
C868 C870 1.384 . S
C869 C868 1.377 . S
C869 C875 1.390 . S
C870 H861 0.930 . S
C870 C868 1.384 . S
C870 C871 1.372 . S
C871 C870 1.372 . S
C871 C872 1.400 . S
C871 C876 1.490 . S
C872 H862 0.930 . S
C872 C871 1.400 . S
C872 C875 1.386 . S
H873 C889 0.930 . S
H874 C890 0.931 . S
C875 H863 0.929 . S
C875 C869 1.390 . S
C875 C872 1.386 . S
C876 C871 1.490 . S
C876 C878 1.395 . S
C876 C879 1.403 . S
H877 C883 0.930 . S
C878 H864 0.930 . S
C878 C876 1.395 . S
C878 C881 1.403 . S
C879 C876 1.403 . S
C879 C880 1.524 . S
C879 C883 1.400 1_556 S
C880 H865 0.960 . S
C880 H866 0.960 . S
C880 H867 0.960 . S
C880 C879 1.524 . S
C881 C878 1.403 . S
C881 C882 1.392 1_556 S
C881 C885 1.495 1_556 S
C882 C881 1.392 1_554 S
C882 C883 1.385 . S
C882 C884 1.478 . S
C883 H877 0.930 . S
C883 C879 1.400 1_554 S
C883 C882 1.385 . S
C884 C882 1.478 . S
C884 C886 1.381 . S
C884 C890 1.383 . S
C885 C881 1.495 1_554 S
C885 H891 0.959 1_554 S
C885 H892 0.961 . S
C885 H893 0.960 . S
C886 C884 1.381 . S
C886 C887 1.394 . S
C886 H894 0.930 . S
C887 C886 1.394 . S
C887 C888 1.383 . S
C887 H895 0.929 . S
C888 C887 1.383 . S
C888 C889 1.377 . S
C889 H873 0.930 . S
C889 C888 1.377 . S
C889 C890 1.379 . S
C890 H874 0.931 . S
C890 C884 1.383 . S
C890 C889 1.379 . S
H891 C885 0.959 1_556 S
H892 C885 0.961 . S
H893 C885 0.960 . S
H894 C886 0.930 . S
H895 C887 0.929 . S
H896 C904 0.929 . S
H897 C906 0.930 . S
H898 C908 0.930 . S
H899 C911 0.929 . S
H900 C914 0.930 . S
H901 C916 0.960 . S
H902 C916 0.960 . S
H903 C916 0.960 . S
C904 H896 0.929 . S
C904 C905 1.377 . S
C904 C906 1.384 . S
C905 C904 1.377 . S
C905 C911 1.390 . S
C906 H897 0.930 . S
C906 C904 1.384 . S
C906 C907 1.372 . S
C907 C906 1.372 . S
C907 C908 1.400 . S
C907 C912 1.490 . S
C908 H898 0.930 . S
C908 C907 1.400 . S
C908 C911 1.386 . S
H909 C925 0.930 . S
H910 C926 0.931 . S
C911 H899 0.929 . S
C911 C905 1.390 . S
C911 C908 1.386 . S
C912 C907 1.490 . S
C912 C914 1.395 . S
C912 C915 1.403 . S
H913 C919 0.930 . S
C914 H900 0.930 . S
C914 C912 1.395 . S
C914 C917 1.403 . S
C915 C912 1.403 . S
C915 C916 1.524 . S
C915 C919 1.400 . S
C916 H901 0.960 . S
C916 H902 0.960 . S
C916 H903 0.960 . S
C916 C915 1.524 . S
C917 C914 1.403 . S
C917 C918 1.392 . S
C917 C921 1.495 . S
C918 C917 1.392 . S
C918 C919 1.385 . S
C918 C920 1.478 . S
C919 H913 0.930 . S
C919 C915 1.400 . S
C919 C918 1.385 . S
C920 C918 1.478 . S
C920 C922 1.381 . S
C920 C926 1.383 . S
C921 C917 1.495 . S
C921 H927 0.959 . S
C921 H928 0.961 . S
C921 H929 0.960 . S
C922 C920 1.381 . S
C922 C923 1.394 . S
C922 H930 0.930 . S
C923 C922 1.394 . S
C923 C924 1.383 . S
C923 H931 0.929 . S
C924 C923 1.383 . S
C924 C925 1.377 . S
C925 H909 0.930 . S
C925 C924 1.377 . S
C925 C926 1.379 . S
C926 H910 0.931 . S
C926 C920 1.383 . S
C926 C925 1.379 . S
H927 C921 0.959 . S
H928 C921 0.961 . S
H929 C921 0.960 . S
H930 C922 0.930 . S
H931 C923 0.929 . S
H932 C940 0.929 . S
H933 C942 0.930 . S
H934 C944 0.930 . S
H935 C947 0.929 . S
H936 C950 0.930 . S
H937 C952 0.960 . S
H938 C952 0.960 . S
H939 C952 0.960 . S
C940 H932 0.929 . S
C940 C941 1.377 . S
C940 C942 1.384 . S
C941 C940 1.377 . S
C941 C947 1.390 . S
C942 H933 0.930 . S
C942 C940 1.384 . S
C942 C943 1.372 . S
C943 C942 1.372 . S
C943 C944 1.400 . S
C943 C948 1.490 . S
C944 H934 0.930 . S
C944 C943 1.400 . S
C944 C947 1.386 . S
H945 C961 0.930 . S
H946 C962 0.931 . S
C947 H935 0.929 . S
C947 C941 1.390 . S
C947 C944 1.386 . S
C948 C943 1.490 . S
C948 C950 1.395 . S
C948 C951 1.403 . S
H949 C955 0.930 . S
C950 H936 0.930 . S
C950 C948 1.395 . S
C950 C953 1.403 . S
C951 C948 1.403 . S
C951 C952 1.524 . S
C951 C955 1.400 . S
C952 H937 0.960 . S
C952 H938 0.960 . S
C952 H939 0.960 . S
C952 C951 1.524 . S
C953 C950 1.403 . S
C953 C954 1.392 . S
C953 C957 1.495 . S
C954 C953 1.392 . S
C954 C955 1.385 . S
C954 C956 1.478 . S
C955 H949 0.930 . S
C955 C951 1.400 . S
C955 C954 1.385 . S
C956 C954 1.478 . S
C956 C958 1.381 . S
C956 C962 1.383 . S
C957 C953 1.495 . S
C957 H963 0.959 . S
C957 H964 0.961 . S
C957 H965 0.960 . S
C958 C956 1.381 . S
C958 C959 1.394 . S
C958 H966 0.930 . S
C959 C958 1.394 . S
C959 C960 1.383 . S
C959 H967 0.929 . S
C960 C959 1.383 . S
C960 C961 1.377 . S
C961 H945 0.930 . S
C961 C960 1.377 . S
C961 C962 1.379 . S
C962 H946 0.931 . S
C962 C956 1.383 . S
C962 C961 1.379 . S
H963 C957 0.959 . S
H964 C957 0.961 . S
H965 C957 0.960 . S
H966 C958 0.930 . S
H967 C959 0.929 . S
H968 C976 0.929 . S
H969 C978 0.930 . S
H970 C980 0.930 . S
H971 C983 0.929 . S
H972 C986 0.930 . S
H973 C988 0.960 . S
H974 C988 0.960 . S
H975 C988 0.960 . S
C976 H968 0.929 . S
C976 C977 1.377 . S
C976 C978 1.384 . S
C977 C976 1.377 . S
C977 C983 1.390 . S
C978 H969 0.930 . S
C978 C976 1.384 . S
C978 C979 1.372 . S
C979 C978 1.372 . S
C979 C980 1.400 . S
C979 C984 1.490 . S
C980 H970 0.930 . S
C980 C979 1.400 . S
C980 C983 1.386 . S
H981 C997 0.930 . S
H982 C998 0.931 . S
C983 H971 0.929 . S
C983 C977 1.390 . S
C983 C980 1.386 . S
C984 C979 1.490 . S
C984 C986 1.395 . S
C984 C987 1.403 . S
H985 C991 0.930 . S
C986 H972 0.930 . S
C986 C984 1.395 . S
C986 C989 1.403 . S
C987 C984 1.403 . S
C987 C988 1.524 . S
C987 C991 1.400 . S
C988 H973 0.960 . S
C988 H974 0.960 . S
C988 H975 0.960 . S
C988 C987 1.524 . S
C989 C986 1.403 . S
C989 C990 1.392 . S
C989 C993 1.495 . S
C990 C989 1.392 . S
C990 C991 1.385 . S
C990 C992 1.478 . S
C991 H985 0.930 . S
C991 C987 1.400 . S
C991 C990 1.385 . S
C992 C990 1.478 . S
C992 C994 1.381 . S
C992 C998 1.383 . S
C993 C989 1.495 . S
C993 H999 0.959 . S
C993 H1000 0.961 . S
C993 H1001 0.960 . S
C994 C992 1.381 . S
C994 C995 1.394 . S
C994 H1002 0.930 . S
C995 C994 1.394 . S
C995 C996 1.383 . S
C995 H1003 0.929 . S
C996 C995 1.383 . S
C996 C997 1.377 . S
C997 H981 0.930 . S
C997 C996 1.377 . S
C997 C998 1.379 . S
C998 H982 0.931 . S
C998 C992 1.383 . S
C998 C997 1.379 . S
H999 C993 0.959 . S
H1000 C993 0.961 . S
H1001 C993 0.960 . S
H1002 C994 0.930 . S
H1003 C995 0.929 . S
H1004 C1012 0.929 . S
H1005 C1014 0.930 . S
H1006 C1016 0.930 . S
H1007 C1019 0.929 . S
H1008 C1022 0.930 . S
H1009 C1024 0.960 . S
H1010 C1024 0.960 . S
H1011 C1024 0.960 . S
C1012 H1004 0.929 . S
C1012 C1013 1.377 . S
C1012 C1014 1.384 . S
C1013 C1012 1.377 . S
C1013 C1019 1.390 . S
C1014 H1005 0.930 . S
C1014 C1012 1.384 . S
C1014 C1015 1.372 . S
C1015 C1014 1.372 . S
C1015 C1016 1.400 . S
C1015 C1020 1.490 . S
C1016 H1006 0.930 . S
C1016 C1015 1.400 . S
C1016 C1019 1.386 . S
H1017 C1033 0.930 . S
H1018 C1034 0.931 . S
C1019 H1007 0.929 . S
C1019 C1013 1.390 . S
C1019 C1016 1.386 . S
C1020 C1015 1.490 . S
C1020 C1022 1.395 . S
C1020 C1023 1.403 . S
H1021 C1027 0.930 . S
C1022 H1008 0.930 . S
C1022 C1020 1.395 . S
C1022 C1025 1.403 . S
C1023 C1020 1.403 . S
C1023 C1024 1.524 . S
C1023 C1027 1.400 . S
C1024 H1009 0.960 . S
C1024 H1010 0.960 . S
C1024 H1011 0.960 . S
C1024 C1023 1.524 . S
C1025 C1022 1.403 . S
C1025 C1026 1.392 . S
C1025 C1029 1.495 . S
C1026 C1025 1.392 . S
C1026 C1027 1.385 . S
C1026 C1028 1.478 . S
C1027 H1021 0.930 . S
C1027 C1023 1.400 . S
C1027 C1026 1.385 . S
C1028 C1026 1.478 . S
C1028 C1030 1.381 . S
C1028 C1034 1.383 . S
C1029 C1025 1.495 . S
C1029 H1035 0.959 . S
C1029 H1036 0.961 . S
C1029 H1037 0.960 . S
C1030 C1028 1.381 . S
C1030 C1031 1.394 . S
C1030 H1038 0.930 . S
C1031 C1030 1.394 . S
C1031 C1032 1.383 . S
C1031 H1039 0.929 . S
C1032 C1031 1.383 . S
C1032 C1033 1.377 . S
C1033 H1017 0.930 . S
C1033 C1032 1.377 . S
C1033 C1034 1.379 . S
C1034 H1018 0.931 . S
C1034 C1028 1.383 . S
C1034 C1033 1.379 . S
H1035 C1029 0.959 . S
H1036 C1029 0.961 . S
H1037 C1029 0.960 . S
H1038 C1030 0.930 . S
H1039 C1031 0.929 . S
H1040 C1048 0.929 . S
H1041 C1050 0.930 . S
H1042 C1052 0.930 . S
H1043 C1055 0.929 . S
H1044 C1058 0.930 . S
H1045 C1060 0.960 . S
H1046 C1060 0.960 . S
H1047 C1060 0.960 . S
C1048 H1040 0.929 . S
C1048 C1049 1.377 . S
C1048 C1050 1.384 . S
C1049 C1048 1.377 . S
C1049 C1055 1.390 . S
C1050 H1041 0.930 . S
C1050 C1048 1.384 . S
C1050 C1051 1.372 . S
C1051 C1050 1.372 . S
C1051 C1052 1.400 . S
C1051 C1056 1.490 . S
C1052 H1042 0.930 . S
C1052 C1051 1.400 . S
C1052 C1055 1.386 . S
H1053 C1069 0.930 . S
H1054 C1070 0.931 . S
C1055 H1043 0.929 . S
C1055 C1049 1.390 . S
C1055 C1052 1.386 . S
C1056 C1051 1.490 . S
C1056 C1058 1.395 . S
C1056 C1059 1.403 . S
H1057 C1063 0.930 . S
C1058 H1044 0.930 . S
C1058 C1056 1.395 . S
C1058 C1061 1.403 1_455 S
C1059 C1056 1.403 . S
C1059 C1060 1.524 . S
C1059 C1063 1.400 1_455 S
C1060 H1045 0.960 . S
C1060 H1046 0.960 . S
C1060 H1047 0.960 . S
C1060 C1059 1.524 . S
C1061 C1058 1.403 1_655 S
C1061 C1062 1.392 . S
C1061 C1065 1.495 . S
C1062 C1061 1.392 . S
C1062 C1063 1.385 . S
C1062 C1064 1.478 . S
C1063 H1057 0.930 . S
C1063 C1059 1.400 1_655 S
C1063 C1062 1.385 . S
C1064 C1062 1.478 . S
C1064 C1066 1.381 . S
C1064 C1070 1.383 . S
C1065 C1061 1.495 . S
C1065 H1071 0.959 . S
C1065 H1072 0.961 . S
C1065 H1073 0.960 . S
C1066 C1064 1.381 . S
C1066 C1067 1.394 . S
C1066 H1074 0.930 . S
C1067 C1066 1.394 . S
C1067 C1068 1.383 . S
C1067 H1075 0.929 . S
C1068 C1067 1.383 . S
C1068 C1069 1.377 . S
C1069 H1053 0.930 . S
C1069 C1068 1.377 . S
C1069 C1070 1.379 . S
C1070 H1054 0.931 . S
C1070 C1064 1.383 . S
C1070 C1069 1.379 . S
H1071 C1065 0.959 . S
H1072 C1065 0.961 . S
H1073 C1065 0.960 . S
H1074 C1066 0.930 . S
H1075 C1067 0.929 . S
H1076 C1084 0.929 . S
H1077 C1086 0.930 . S
H1078 C1088 0.930 . S
H1079 C1091 0.929 . S
H1080 C1094 0.930 . S
H1081 C1096 0.960 . S
H1082 C1096 0.960 . S
H1083 C1096 0.960 . S
C1084 H1076 0.929 . S
C1084 C1085 1.377 . S
C1084 C1086 1.384 . S
C1085 C1084 1.377 . S
C1085 C1091 1.390 . S
C1086 H1077 0.930 . S
C1086 C1084 1.384 . S
C1086 C1087 1.372 . S
C1087 C1086 1.372 . S
C1087 C1088 1.400 . S
C1087 C1092 1.490 . S
C1088 H1078 0.930 . S
C1088 C1087 1.400 . S
C1088 C1091 1.386 . S
H1089 C1105 0.930 . S
H1090 C1106 0.931 . S
C1091 H1079 0.929 . S
C1091 C1085 1.390 . S
C1091 C1088 1.386 . S
C1092 C1087 1.490 . S
C1092 C1094 1.395 . S
C1092 C1095 1.403 . S
H1093 C1099 0.930 . S
C1094 H1080 0.930 . S
C1094 C1092 1.395 . S
C1094 C1097 1.403 1_655 S
C1095 C1092 1.403 . S
C1095 C1096 1.524 . S
C1095 C1099 1.400 1_655 S
C1096 H1081 0.960 . S
C1096 H1082 0.960 . S
C1096 H1083 0.960 . S
C1096 C1095 1.524 . S
C1097 C1094 1.403 1_455 S
C1097 C1098 1.392 . S
C1097 C1101 1.495 . S
C1098 C1097 1.392 . S
C1098 C1099 1.385 . S
C1098 C1100 1.478 . S
C1099 H1093 0.930 . S
C1099 C1095 1.400 1_455 S
C1099 C1098 1.385 . S
C1100 C1098 1.478 . S
C1100 C1102 1.381 . S
C1100 C1106 1.383 . S
C1101 C1097 1.495 . S
C1101 H1107 0.959 . S
C1101 H1108 0.961 . S
C1101 H1109 0.960 . S
C1102 C1100 1.381 . S
C1102 C1103 1.394 . S
C1102 H1110 0.930 . S
C1103 C1102 1.394 . S
C1103 C1104 1.383 . S
C1103 H1111 0.929 . S
C1104 C1103 1.383 . S
C1104 C1105 1.377 . S
C1105 H1089 0.930 . S
C1105 C1104 1.377 . S
C1105 C1106 1.379 . S
C1106 H1090 0.931 . S
C1106 C1100 1.383 . S
C1106 C1105 1.379 . S
H1107 C1101 0.959 . S
H1108 C1101 0.961 . S
H1109 C1101 0.960 . S
H1110 C1102 0.930 . S
H1111 C1103 0.929 . S
H1112 C1120 0.929 . S
H1113 C1122 0.930 . S
H1114 C1124 0.930 . S
H1115 C1127 0.929 . S
H1116 C1130 0.930 . S
H1117 C1132 0.960 . S
H1118 C1132 0.960 . S
H1119 C1132 0.960 1_554 S
C1120 H1112 0.929 . S
C1120 C1121 1.377 . S
C1120 C1122 1.384 . S
C1121 C1120 1.377 . S
C1121 C1127 1.390 1_556 S
C1122 H1113 0.930 . S
C1122 C1120 1.384 . S
C1122 C1123 1.372 . S
C1123 C1122 1.372 . S
C1123 C1124 1.400 1_556 S
C1123 C1128 1.490 . S
C1124 H1114 0.930 . S
C1124 C1123 1.400 1_554 S
C1124 C1127 1.386 . S
H1125 C1141 0.930 . S
H1126 C1142 0.931 . S
C1127 H1115 0.929 . S
C1127 C1121 1.390 1_554 S
C1127 C1124 1.386 . S
C1128 C1123 1.490 . S
C1128 C1130 1.395 . S
C1128 C1131 1.403 . S
H1129 C1135 0.930 . S
C1130 H1116 0.930 . S
C1130 C1128 1.395 . S
C1130 C1133 1.403 . S
C1131 C1128 1.403 . S
C1131 C1132 1.524 . S
C1131 C1135 1.400 . S
C1132 H1117 0.960 . S
C1132 H1118 0.960 . S
C1132 H1119 0.960 1_556 S
C1132 C1131 1.524 . S
C1133 C1130 1.403 . S
C1133 C1134 1.392 . S
C1133 C1137 1.495 . S
C1134 C1133 1.392 . S
C1134 C1135 1.385 . S
C1134 C1136 1.478 . S
C1135 H1129 0.930 . S
C1135 C1131 1.400 . S
C1135 C1134 1.385 . S
C1136 C1134 1.478 . S
C1136 C1138 1.381 . S
C1136 C1142 1.383 1_556 S
C1137 C1133 1.495 . S
C1137 H1143 0.959 . S
C1137 H1144 0.961 . S
C1137 H1145 0.960 . S
C1138 C1136 1.381 . S
C1138 C1139 1.394 . S
C1138 H1146 0.930 . S
C1139 C1138 1.394 . S
C1139 C1140 1.383 . S
C1139 H1147 0.929 . S
C1140 C1139 1.383 . S
C1140 C1141 1.377 1_556 S
C1141 H1125 0.930 . S
C1141 C1140 1.377 1_554 S
C1141 C1142 1.379 . S
C1142 H1126 0.931 . S
C1142 C1136 1.383 1_554 S
C1142 C1141 1.379 . S
H1143 C1137 0.959 . S
H1144 C1137 0.961 . S
H1145 C1137 0.960 . S
H1146 C1138 0.930 . S
H1147 C1139 0.929 . S
H1148 C1156 0.929 . S
H1149 C1158 0.930 . S
H1150 C1160 0.930 1_556 S
H1151 C1163 0.929 1_556 S
H1152 C1166 0.930 . S
H1153 C1168 0.960 . S
H1154 C1168 0.960 . S
H1155 C1168 0.960 . S
C1156 H1148 0.929 . S
C1156 C1157 1.377 . S
C1156 C1158 1.384 . S
C1157 C1156 1.377 . S
C1157 C1163 1.390 . S
C1158 H1149 0.930 . S
C1158 C1156 1.384 . S
C1158 C1159 1.372 . S
C1159 C1158 1.372 . S
C1159 C1160 1.400 . S
C1159 C1164 1.490 . S
C1160 H1150 0.930 1_554 S
C1160 C1159 1.400 . S
C1160 C1163 1.386 . S
H1161 C1177 0.930 1_556 S
H1162 C1178 0.931 1_556 S
C1163 H1151 0.929 1_554 S
C1163 C1157 1.390 . S
C1163 C1160 1.386 . S
C1164 C1159 1.490 . S
C1164 C1166 1.395 . S
C1164 C1167 1.403 . S
H1165 C1171 0.930 . S
C1166 H1152 0.930 . S
C1166 C1164 1.395 . S
C1166 C1169 1.403 . S
C1167 C1164 1.403 . S
C1167 C1168 1.524 . S
C1167 C1171 1.400 . S
C1168 H1153 0.960 . S
C1168 H1154 0.960 . S
C1168 H1155 0.960 . S
C1168 C1167 1.524 . S
C1169 C1166 1.403 . S
C1169 C1170 1.392 . S
C1169 C1173 1.495 . S
C1170 C1169 1.392 . S
C1170 C1171 1.385 . S
C1170 C1172 1.478 . S
C1171 H1165 0.930 . S
C1171 C1167 1.400 . S
C1171 C1170 1.385 . S
C1172 C1170 1.478 . S
C1172 C1174 1.381 . S
C1172 C1178 1.383 . S
C1173 C1169 1.495 . S
C1173 H1179 0.959 . S
C1173 H1180 0.961 1_554 S
C1173 H1181 0.960 . S
C1174 C1172 1.381 . S
C1174 C1175 1.394 . S
C1174 H1182 0.930 . S
C1175 C1174 1.394 . S
C1175 C1176 1.383 . S
C1175 H1183 0.929 . S
C1176 C1175 1.383 . S
C1176 C1177 1.377 . S
C1177 H1161 0.930 1_554 S
C1177 C1176 1.377 . S
C1177 C1178 1.379 . S
C1178 H1162 0.931 1_554 S
C1178 C1172 1.383 . S
C1178 C1177 1.379 . S
H1179 C1173 0.959 . S
H1180 C1173 0.961 1_556 S
H1181 C1173 0.960 . S
H1182 C1174 0.930 . S
H1183 C1175 0.929 . S
C329 C19 2.238 . S
C348 C290 2.240 . S
C365 C250 2.234 . S
C384 C59 2.225 . S
C401 C219 2.235 . S
C420 C90 2.238 . S
C437 C179 2.236 . S
C456 C130 2.240 . S
C473 C89 1.495 . S
C492 C9 1.439 . S
C509 C49 1.447 . S
C528 C129 1.501 . S
C545 C138 1.457 . S
C564 C58 1.480 . S
C581 C98 1.457 . S
C600 C18 1.507 . S
C617 C169 1.446 . S
C636 C249 1.506 . S
C653 C209 1.458 . S
C672 C289 1.467 . S
C689 C298 1.456 . S
C708 C218 1.509 . S
C725 C258 1.456 . S
C744 C178 1.475 . S
C761 C6 1.481 . S
C780 C15 1.492 . S
C797 C46 1.481 . S
C816 C55 1.492 . S
C833 C86 1.476 . S
C852 C95 1.452 . S
C869 C135 1.477 . S
C888 C126 1.493 . S
C905 C175 1.473 . S
C924 C166 1.455 . S
C941 C206 1.481 . S
C960 C215 1.471 . S
C977 C255 1.473 . S
C996 C246 1.453 . S
C1013 C295 1.476 . S
C1032 C286 1.452 . S
C1049 C10 2.184 . S
C1068 C50 2.171 . S
C1085 C139 2.191 . S
C1104 C99 2.169 . S
C1121 C170 2.191 . S
C1140 C210 2.193 . S
C1157 C299 2.191 . S
C1176 C259 2.170 . S
