# Generated by pormake.
# Topology sxa, (6)-cn, num edge types: 1
# Building blocks:
#     Node 0, Type 0, BuildingBlock: UKALOJ_clean_sbu_0, # of connection points: 6
#     Node 1, Type 0, BuildingBlock: UKALOJ_clean_sbu_0, # of connection points: 6
#     Node 2, Type 0, BuildingBlock: UKALOJ_clean_sbu_0, # of connection points: 6
#     Node 3, Type 0, BuildingBlock: UKALOJ_clean_sbu_0, # of connection points: 6
#     Edge 4, Type (0, 0), BuildingBlock: AJUNOK_clean_linker_0, # of connection points: 2
#     Edge 5, Type (0, 0), BuildingBlock: AJUNOK_clean_linker_0, # of connection points: 2
#     Edge 6, Type (0, 0), BuildingBlock: AJUNOK_clean_linker_0, # of connection points: 2
#     Edge 7, Type (0, 0), BuildingBlock: AJUNOK_clean_linker_0, # of connection points: 2
#     Edge 8, Type (0, 0), BuildingBlock: AJUNOK_clean_linker_0, # of connection points: 2
#     Edge 9, Type (0, 0), BuildingBlock: AJUNOK_clean_linker_0, # of connection points: 2
#     Edge 10, Type (0, 0), BuildingBlock: AJUNOK_clean_linker_0, # of connection points: 2
#     Edge 11, Type (0, 0), BuildingBlock: AJUNOK_clean_linker_0, # of connection points: 2
#     Edge 12, Type (0, 0), BuildingBlock: AJUNOK_clean_linker_0, # of connection points: 2
#     Edge 13, Type (0, 0), BuildingBlock: AJUNOK_clean_linker_0, # of connection points: 2
#     Edge 14, Type (0, 0), BuildingBlock: AJUNOK_clean_linker_0, # of connection points: 2
#     Edge 15, Type (0, 0), BuildingBlock: AJUNOK_clean_linker_0, # of connection points: 2
# Relax obj value: 0.116
# Max RMSD: 0.185
# Mean RMSD: 0.185
data_MOF--net-sxa--node1-UKALOJ_clean_sbu_0--edge1-AJUNOK_clean_linker_0
_symmetry_space_group_name_H-M    P1
_symmetry_Int_Tables_number       1
_symmetry_cell_setting            triclinic
loop_
_symmetry_equiv_pos_as_xyz
'x, y, z'
_cell_length_a     17.499738
_cell_length_b     30.212692
_cell_length_c     11.304805
_cell_angle_alpha  90.289252
_cell_angle_beta   90.040345
_cell_angle_gamma 90.179756
loop_
_atom_site_label
_atom_site_type_symbol
_atom_site_fract_x
_atom_site_fract_y
_atom_site_fract_z
_atom_type_partial_charge
Zn0 Zn -0.0087 0.84528 0.24543 0.0
O1 O 0.02852 0.84511 0.42197 0.0
C2 C 0.13941 0.80798 0.18214 0.0
Zn3 Zn 0.98739 0.77083 0.24183 0.0
C4 C 0.0473 0.8085 0.46941 0.0
O5 O 0.03095 0.77221 0.41676 0.0
C6 C 0.93659 0.8092 0.01683 0.0
O7 O 0.87322 0.77027 0.30193 0.0
O8 O 0.87422 0.84295 0.29669 0.0
N9 N -0.00716 0.70212 0.23264 0.0
C10 C 0.95398 0.6725 0.16528 0.0
C11 C 0.05135 0.63917 0.23332 0.0
N12 N 0.05296 0.68102 0.27559 0.0
N13 N -0.01001 0.63298 0.16313 0.0
C14 C 0.01401 0.94241 0.15459 0.0
C15 C 0.93336 0.97829 0.2577 0.0
N16 N 0.98593 0.91414 0.23663 0.0
N17 N 0.93603 0.93674 0.30066 0.0
N18 N 0.9813 0.98289 0.16509 0.0
H19 H 0.12699 0.91911 0.11915 0.0
H20 H 0.09574 0.95948 0.01656 0.0
H21 H 0.05748 0.9037 1.0094 0.0
C22 C 0.07657 0.93075 0.06922 0.0
C23 C 0.8789 0.68118 0.10631 0.0
H24 H 0.85278 0.71231 0.13849 0.0
H25 H 0.83935 0.65314 0.12344 0.0
H26 H 0.88696 0.68284 1.00955 0.0
O27 O 0.94698 0.77229 0.06733 0.0
O28 O 0.95612 0.84434 0.07033 0.0
C29 C 0.83803 0.80687 0.31316 0.0
O30 O 0.10681 0.84493 0.1988 0.0
O31 O 0.10039 0.77256 0.185 0.0
Zn32 Zn 0.48838 0.2702 0.24106 0.0
O33 O 0.37451 0.27036 0.302 0.0
C34 C 0.43879 0.30893 0.01697 0.0
Zn35 Zn 0.49374 0.34448 0.24696 0.0
C36 C 0.3394 0.30702 0.31214 0.0
O37 O 0.37572 0.34309 0.29516 0.0
C38 C 0.64154 0.3061 0.18464 0.0
O39 O 0.52861 0.34433 0.42438 0.0
O40 O 0.53268 0.27151 0.41591 0.0
N41 N 0.49085 0.41348 0.23676 0.0
C42 C 0.51092 0.44083 0.14711 0.0
C43 C 0.44934 0.47946 0.27227 0.0
N44 N 0.45278 0.43779 0.31441 0.0
N45 N 0.48477 0.48251 0.16651 0.0
C46 C 0.45372 0.17225 0.16494 0.0
C47 C 0.5504 0.13841 0.23348 0.0
N48 N 0.49274 0.20159 0.23279 0.0
N49 N 0.5524 0.18019 0.27615 0.0
N50 N 0.48924 0.13259 0.16263 0.0
H51 H 0.35203 0.21168 0.14103 0.0
H52 H 0.34015 0.1528 0.11567 0.0
H53 H 0.38886 0.18581 1.00936 0.0
C54 C 0.37924 0.1815 0.10496 0.0
C55 C 0.55716 0.42682 0.04155 0.0
H56 H 0.59654 0.39968 0.06319 0.0
H57 H 0.59146 0.45492 1.0074 0.0
H58 H 0.51832 0.41492 0.97055 0.0
O59 O 0.61003 0.3431 0.20508 0.0
O60 O 0.60132 0.2711 0.18304 0.0
C61 C 0.54811 0.30758 0.4703 0.0
O62 O 0.44683 0.27171 0.06672 0.0
O63 O 0.46088 0.34352 0.07066 0.0
Zn64 Zn 0.98869 0.34443 0.77564 0.0
O65 O 0.87485 0.34501 0.71455 0.0
C66 C 0.93805 0.30456 0.99841 0.0
Zn67 Zn -0.00641 0.27011 0.76789 0.0
C68 C 0.83986 0.30829 0.7018 0.0
O69 O 0.87622 0.27231 0.71714 0.0
C70 C 0.14127 0.30756 0.8333 0.0
O71 O 0.03039 0.27112 0.59113 0.0
O72 O 0.03256 0.34397 0.60088 0.0
N73 N 0.98782 0.20128 0.77589 0.0
C74 C 0.01641 0.17353 0.8585 0.0
C75 C 0.93172 0.1376 0.76246 0.0
N76 N 0.93545 0.17865 0.71613 0.0
N77 N 0.98113 0.13357 0.85335 0.0
C78 C 0.95583 0.44287 0.85209 0.0
C79 C 0.05166 0.47657 0.77954 0.0
N80 N -0.00548 0.41311 0.78555 0.0
N81 N 0.05369 0.43441 0.73984 0.0
N82 N -0.009 0.48284 0.85107 0.0
H83 H 0.85196 0.40496 0.8729 0.0
H84 H 0.84484 0.46309 0.9124 0.0
H85 H 0.89421 0.42561 1.00727 0.0
C86 C 0.88211 0.43343 0.914 0.0
C87 C 0.08246 0.18478 0.93806 0.0
H88 H 0.13222 0.1942 0.88318 0.0
H89 H 0.10032 0.15629 0.99274 0.0
H90 H 0.06777 0.21325 0.99586 0.0
O91 O 0.109 0.27059 0.81384 0.0
O92 O 0.10186 0.34274 0.83341 0.0
C93 C 0.04889 0.30823 0.54589 0.0
O94 O 0.94712 0.34204 0.95008 0.0
O95 O 0.95914 0.2701 0.94348 0.0
Zn96 Zn 0.48776 0.84527 0.774 0.0
O97 O 0.37419 0.84597 0.71207 0.0
C98 C 0.43698 0.80673 0.99879 0.0
Zn99 Zn 0.49191 0.77104 0.77007 0.0
C100 C 0.33856 0.80935 0.70236 0.0
O101 O 0.37433 0.77339 0.72067 0.0
C102 C 0.6402 0.80857 0.83298 0.0
O103 O 0.52746 0.77083 0.59286 0.0
O104 O 0.5322 0.84367 0.59956 0.0
N105 N 0.48477 0.70232 0.78026 0.0
C106 C 0.51443 0.6744 0.86148 0.0
C107 C 0.42595 0.63938 0.77148 0.0
N108 N 0.43001 0.68026 0.72429 0.0
N109 N 0.47747 0.63491 0.85935 0.0
C110 C 0.45516 0.94377 0.84744 0.0
C111 C 0.55203 0.97709 0.77692 0.0
N112 N 0.49407 0.91387 0.78175 0.0
N113 N 0.55389 0.93493 0.73722 0.0
N114 N 0.49082 0.98357 0.84718 0.0
H115 H 0.35069 0.90625 0.86673 0.0
H116 H 0.34389 0.96444 0.9053 0.0
H117 H 0.392 0.927 1.00164 0.0
C118 C 0.38082 0.93467 0.90802 0.0
C119 C 0.58326 0.68493 0.93569 0.0
H120 H 0.63117 0.69421 0.87684 0.0
H121 H 0.60243 0.65614 0.9881 0.0
H122 H 0.57098 0.71335 0.99511 0.0
O123 O 0.60771 0.77153 0.81469 0.0
O124 O 0.60072 0.84368 0.83239 0.0
C125 C 0.5472 0.80744 0.54601 0.0
O126 O 0.44555 0.84384 0.94834 0.0
O127 O 0.45882 0.77197 0.94601 0.0
C128 C 0.97053 0.5161 0.04985 0.0
C129 C 0.97951 0.52105 0.92661 0.0
C130 C 0.97087 0.553 0.12646 0.0
C131 C 0.97963 0.59618 0.08275 0.0
H132 H 0.96747 0.48344 0.0882 0.0
H133 H 0.96652 0.54776 0.22091 0.0
S134 S 0.008 0.62699 0.76872 0.0
N135 N -0.0018 0.5726 0.76538 0.0
N136 N 0.00036 0.64164 0.90918 0.0
C137 C 0.98806 0.60161 0.95998 0.0
C138 C 0.98774 0.56414 0.88215 0.0
C139 C 0.47926 0.51693 0.96619 0.0
C140 C 0.48584 0.52118 0.09024 0.0
C141 C 0.47876 0.5541 0.89191 0.0
C142 C 0.48264 0.59733 0.93804 0.0
H143 H 0.472 0.48484 0.92538 0.0
H144 H 0.47414 0.54905 0.79726 0.0
S145 S 0.48467 0.62744 0.25688 0.0
N146 N 0.48893 0.57284 0.25578 0.0
N147 N 0.48088 0.6424 0.11674 0.0
C148 C 0.48414 0.60233 0.06198 0.0
C149 C 0.4871 0.56444 0.13764 0.0
C150 C 0.47052 1.01614 0.04661 0.0
C151 C 0.47943 1.02153 0.92352 0.0
C152 C 0.47059 1.05277 0.12405 0.0
C153 C 0.47903 0.09609 0.08132 0.0
H154 H 0.4677 0.98333 0.08418 0.0
H155 H 0.4663 1.0472 0.21837 0.0
S156 S 0.50749 0.12797 0.76804 0.0
N157 N 0.49797 0.07357 0.76345 0.0
N158 N 0.49962 0.14216 0.9088 0.0
C159 C 0.48747 0.10196 0.95868 0.0
C160 C 0.48744 0.06475 0.88 0.0
C161 C 0.98524 1.016 0.96391 0.0
C162 C 0.98546 1.02108 0.08803 0.0
C163 C 0.98576 1.05285 0.88827 0.0
C164 C 0.98485 0.09633 0.9333 0.0
H165 H 0.98273 0.98329 0.92465 0.0
H166 H 0.98593 1.04735 0.79354 0.0
S167 S 0.97093 0.12772 0.25054 0.0
N168 N 0.97787 0.07321 0.25176 0.0
N169 N 0.97292 0.1421 0.10985 0.0
C170 C 0.9806 0.10189 0.05693 0.0
C171 C 0.98202 0.06441 0.13397 0.0
C172 C 0.22024 0.84853 0.63645 0.0
C173 C 0.2569 0.80871 0.66609 0.0
C174 C 0.14719 0.84857 0.5858 0.0
C175 C 0.10792 0.80872 0.56164 0.0
H176 H 0.24962 0.87994 0.64653 0.0
H177 H 0.12432 0.87997 0.55678 0.0
S178 S 0.17103 0.69625 0.64868 0.0
N179 N 0.24258 0.72894 0.68755 0.0
N180 N 0.10553 0.72901 0.59139 0.0
C181 C 0.14035 0.76908 0.60296 0.0
C182 C 0.21487 0.76904 0.65487 0.0
C183 C 0.15202 0.34859 0.4385 0.0
C184 C 0.10918 0.30941 0.45337 0.0
C185 C 0.22487 0.34783 0.38723 0.0
C186 C 0.25777 0.30794 0.34819 0.0
H187 H 0.13214 0.37966 0.47531 0.0
H188 H 0.25724 0.37844 0.38474 0.0
S189 S 0.16101 0.19836 0.33692 0.0
N190 N 0.09893 0.23119 0.4032 0.0
N191 N 0.23577 0.22976 0.30666 0.0
C192 C 0.21212 0.26945 0.35005 0.0
C193 C 0.13772 0.27024 0.40211 0.0
C194 C 0.72118 0.34745 0.63723 0.0
C195 C 0.75813 0.3076 0.66577 0.0
C196 C 0.64798 0.34751 0.58708 0.0
C197 C 0.60883 0.30767 0.56237 0.0
H198 H 0.75043 0.37888 0.64774 0.0
H199 H 0.62489 0.37896 0.55881 0.0
S200 S 0.67264 0.19508 0.64694 0.0
N201 N 0.74421 0.22776 0.68584 0.0
N202 N 0.60684 0.22788 0.59069 0.0
C203 C 0.64156 0.26797 0.60269 0.0
C204 C 0.71625 0.26791 0.65404 0.0
C205 C 0.71952 0.76747 0.37901 0.0
C206 C 0.75631 0.80735 0.34904 0.0
C207 C 0.6465 0.76733 0.42964 0.0
C208 C 0.60744 0.80713 0.45338 0.0
H209 H 0.7488 0.73612 0.36935 0.0
H210 H 0.62354 0.73593 0.45909 0.0
S211 S 0.67029 0.91953 0.36355 0.0
N212 N 0.74193 0.887 0.32565 0.0
N213 N 0.60493 0.88671 0.42178 0.0
C214 C 0.63983 0.84675 0.41127 0.0
C215 C 0.71431 0.8469 0.35941 0.0
C216 C 0.32948 0.76441 0.08061 0.0
C217 C 0.37674 0.80213 0.08848 0.0
C218 C 0.25327 0.76625 0.1154 0.0
C219 C 0.22225 0.80547 0.16172 0.0
H220 H 0.34839 0.73477 0.03501 0.0
H221 H 0.21751 0.73754 0.09869 0.0
S222 S 0.33135 0.90614 0.24755 0.0
N223 N 0.39427 0.87455 0.17858 0.0
N224 N 0.25006 0.87818 0.24589 0.0
C225 C 0.27205 0.84083 0.18795 0.0
C226 C 0.34992 0.83892 0.15185 0.0
C227 C 0.25536 0.34943 0.9008 0.0
C228 C 0.22419 0.31031 0.85343 0.0
C229 C 0.33161 0.35133 0.93574 0.0
C230 C 0.37868 0.31373 0.92717 0.0
H231 H 0.21971 0.37799 0.91817 0.0
H232 H 0.35064 0.38086 0.9821 0.0
S233 S 0.33291 0.21016 0.76541 0.0
N234 N 0.25184 0.23803 0.76709 0.0
N235 N 0.39585 0.24155 0.83587 0.0
C236 C 0.35172 0.27707 0.86293 0.0
C237 C 0.27391 0.27518 0.82627 0.0
C238 C 0.75478 0.264 0.11652 0.0
C239 C 0.72435 0.30315 0.16424 0.0
C240 C 0.83082 0.26208 0.08069 0.0
C241 C 0.87842 0.29963 0.089 0.0
H242 H 0.71865 0.23549 0.09938 0.0
H243 H 0.84922 0.23258 0.03392 0.0
S244 S 0.8348 0.40318 0.25146 0.0
N245 N 0.75322 0.37552 0.24981 0.0
N246 N 0.89712 0.3716 0.18113 0.0
C247 C 0.85232 0.33621 0.15398 0.0
C248 C 0.77464 0.33825 0.19094 0.0
C249 C 0.8442 0.77277 0.88211 0.0
C250 C 0.87872 0.81209 0.92233 0.0
C251 C 0.7674 0.77209 0.84859 0.0
C252 C 0.7236 0.81102 0.8507 0.0
H253 H 0.87425 0.74168 0.88777 0.0
H254 H 0.74153 0.74047 0.82707 0.0
S255 S 0.79749 0.9251 0.89976 0.0
N256 N 0.87097 0.8926 0.92678 0.0
N257 N 0.72665 0.89167 0.86224 0.0
C258 C 0.76152 0.85161 0.86975 0.0
C259 C 0.8397 0.85215 0.90421 0.0
loop_
_geom_bond_atom_site_label_1
_geom_bond_atom_site_label_2
_geom_bond_distance
_geom_bond_site_symmetry_2
_ccdc_geom_bond_type
Zn0 O1 2.055 1_655 S
Zn0 O8 2.046 . S
Zn0 N16 2.036 . S
Zn0 O28 2.053 . S
Zn0 O30 2.066 1_655 S
O1 Zn0 2.055 1_455 S
O1 C4 1.259 . S
C2 O30 1.256 . S
C2 O31 1.244 . S
Zn3 O5 2.046 . S
Zn3 O7 2.055 1_455 S
Zn3 N9 2.036 . S
Zn3 O27 2.066 1_455 S
Zn3 O31 2.053 . S
C4 O1 1.259 . S
C4 O5 1.254 . S
O5 Zn3 2.046 . S
O5 C4 1.254 . S
C6 O27 1.256 . S
C6 O28 1.244 . S
O7 Zn3 2.055 1_655 S
O7 C29 1.259 . S
O8 Zn0 2.046 . S
O8 C29 1.254 . S
N9 Zn3 2.036 . S
N9 C10 1.298 1_455 S
N9 N12 1.398 . S
C10 N9 1.298 1_655 S
C10 N13 1.367 . S
C10 C23 1.481 . S
C11 N12 1.299 . S
C11 N13 1.379 1_455 S
N12 N9 1.398 . S
N12 C11 1.299 . S
N13 C10 1.367 . S
N13 C11 1.379 1_655 S
C14 N16 1.298 1_455 S
C14 N18 1.367 . S
C14 C22 1.481 . S
C15 N17 1.299 . S
C15 N18 1.379 1_655 S
N16 Zn0 2.036 . S
N16 C14 1.298 1_655 S
N16 N17 1.398 . S
N17 C15 1.299 . S
N17 N16 1.398 . S
N18 C14 1.367 . S
N18 C15 1.379 1_455 S
H19 C22 0.980 . S
H20 C22 0.981 . S
H21 C22 0.981 . S
C22 C14 1.481 . S
C22 H19 0.980 . S
C22 H20 0.981 . S
C22 H21 0.981 . S
C23 C10 1.481 . S
C23 H24 0.980 . S
C23 H25 0.981 . S
C23 H26 0.981 . S
H24 C23 0.980 . S
H25 C23 0.981 . S
H26 C23 0.981 . S
O27 Zn3 2.066 1_655 S
O27 C6 1.256 . S
O28 Zn0 2.053 . S
O28 C6 1.244 . S
C29 O7 1.259 . S
C29 O8 1.254 . S
O30 Zn0 2.066 1_455 S
O30 C2 1.256 . S
O31 C2 1.244 . S
O31 Zn3 2.053 . S
Zn32 O33 2.055 . S
Zn32 O40 2.046 . S
Zn32 N48 2.036 . S
Zn32 O60 2.053 . S
Zn32 O62 2.066 . S
O33 Zn32 2.055 . S
O33 C36 1.259 . S
C34 O62 1.256 . S
C34 O63 1.244 . S
Zn35 O37 2.046 . S
Zn35 O39 2.055 . S
Zn35 N41 2.036 . S
Zn35 O59 2.066 . S
Zn35 O63 2.053 . S
C36 O33 1.259 . S
C36 O37 1.254 . S
O37 Zn35 2.046 . S
O37 C36 1.254 . S
C38 O59 1.256 . S
C38 O60 1.244 . S
O39 Zn35 2.055 . S
O39 C61 1.259 . S
O40 Zn32 2.046 . S
O40 C61 1.254 . S
N41 Zn35 2.036 . S
N41 C42 1.298 . S
N41 N44 1.398 . S
C42 N41 1.298 . S
C42 N45 1.367 . S
C42 C55 1.481 . S
C43 N44 1.299 . S
C43 N45 1.379 . S
N44 N41 1.398 . S
N44 C43 1.299 . S
N45 C42 1.367 . S
N45 C43 1.379 . S
C46 N48 1.298 . S
C46 N50 1.367 . S
C46 C54 1.481 . S
C47 N49 1.299 . S
C47 N50 1.379 . S
N48 Zn32 2.036 . S
N48 C46 1.298 . S
N48 N49 1.398 . S
N49 C47 1.299 . S
N49 N48 1.398 . S
N50 C46 1.367 . S
N50 C47 1.379 . S
H51 C54 0.980 . S
H52 C54 0.981 . S
H53 C54 0.981 . S
C54 C46 1.481 . S
C54 H51 0.980 . S
C54 H52 0.981 . S
C54 H53 0.981 . S
C55 C42 1.481 . S
C55 H56 0.980 . S
C55 H57 0.981 . S
C55 H58 0.981 . S
H56 C55 0.980 . S
H57 C55 0.981 . S
H58 C55 0.981 . S
O59 Zn35 2.066 . S
O59 C38 1.256 . S
O60 Zn32 2.053 . S
O60 C38 1.244 . S
C61 O39 1.259 . S
C61 O40 1.254 . S
O62 Zn32 2.066 . S
O62 C34 1.256 . S
O63 C34 1.244 . S
O63 Zn35 2.053 . S
Zn64 O65 2.055 1_455 S
Zn64 O72 2.046 . S
Zn64 N80 2.036 . S
Zn64 O92 2.053 . S
Zn64 O94 2.066 1_455 S
O65 Zn64 2.055 1_655 S
O65 C68 1.259 . S
C66 O94 1.256 . S
C66 O95 1.244 . S
Zn67 O69 2.046 . S
Zn67 O71 2.055 1_655 S
Zn67 N73 2.036 . S
Zn67 O91 2.066 1_655 S
Zn67 O95 2.053 . S
C68 O65 1.259 . S
C68 O69 1.254 . S
O69 Zn67 2.046 . S
O69 C68 1.254 . S
C70 O91 1.256 . S
C70 O92 1.244 . S
O71 Zn67 2.055 1_455 S
O71 C93 1.259 . S
O72 Zn64 2.046 . S
O72 C93 1.254 . S
N73 Zn67 2.036 . S
N73 C74 1.298 1_655 S
N73 N76 1.398 . S
C74 N73 1.298 1_455 S
C74 N77 1.367 . S
C74 C87 1.481 . S
C75 N76 1.299 . S
C75 N77 1.379 1_655 S
N76 N73 1.398 . S
N76 C75 1.299 . S
N77 C74 1.367 . S
N77 C75 1.379 1_455 S
C78 N80 1.298 1_655 S
C78 N82 1.367 . S
C78 C86 1.481 . S
C79 N81 1.299 . S
C79 N82 1.379 1_455 S
N80 Zn64 2.036 . S
N80 C78 1.298 1_455 S
N80 N81 1.398 . S
N81 C79 1.299 . S
N81 N80 1.398 . S
N82 C78 1.367 . S
N82 C79 1.379 1_655 S
H83 C86 0.980 . S
H84 C86 0.981 . S
H85 C86 0.981 . S
C86 C78 1.481 . S
C86 H83 0.980 . S
C86 H84 0.981 . S
C86 H85 0.981 . S
C87 C74 1.481 . S
C87 H88 0.980 . S
C87 H89 0.981 . S
C87 H90 0.981 . S
H88 C87 0.980 . S
H89 C87 0.981 . S
H90 C87 0.981 . S
O91 Zn67 2.066 1_455 S
O91 C70 1.256 . S
O92 Zn64 2.053 . S
O92 C70 1.244 . S
C93 O71 1.259 . S
C93 O72 1.254 . S
O94 Zn64 2.066 1_655 S
O94 C66 1.256 . S
O95 C66 1.244 . S
O95 Zn67 2.053 . S
Zn96 O97 2.055 . S
Zn96 O104 2.046 . S
Zn96 N112 2.036 . S
Zn96 O124 2.053 . S
Zn96 O126 2.066 . S
O97 Zn96 2.055 . S
O97 C100 1.259 . S
C98 O126 1.256 . S
C98 O127 1.244 . S
Zn99 O101 2.046 . S
Zn99 O103 2.055 . S
Zn99 N105 2.036 . S
Zn99 O123 2.066 . S
Zn99 O127 2.053 . S
C100 O97 1.259 . S
C100 O101 1.254 . S
O101 Zn99 2.046 . S
O101 C100 1.254 . S
C102 O123 1.256 . S
C102 O124 1.244 . S
O103 Zn99 2.055 . S
O103 C125 1.259 . S
O104 Zn96 2.046 . S
O104 C125 1.254 . S
N105 Zn99 2.036 . S
N105 C106 1.298 . S
N105 N108 1.398 . S
C106 N105 1.298 . S
C106 N109 1.367 . S
C106 C119 1.481 . S
C107 N108 1.299 . S
C107 N109 1.379 . S
N108 N105 1.398 . S
N108 C107 1.299 . S
N109 C106 1.367 . S
N109 C107 1.379 . S
C110 N112 1.298 . S
C110 N114 1.367 . S
C110 C118 1.481 . S
C111 N113 1.299 . S
C111 N114 1.379 . S
N112 Zn96 2.036 . S
N112 C110 1.298 . S
N112 N113 1.398 . S
N113 C111 1.299 . S
N113 N112 1.398 . S
N114 C110 1.367 . S
N114 C111 1.379 . S
H115 C118 0.980 . S
H116 C118 0.981 . S
H117 C118 0.981 . S
C118 C110 1.481 . S
C118 H115 0.980 . S
C118 H116 0.981 . S
C118 H117 0.981 . S
C119 C106 1.481 . S
C119 H120 0.980 . S
C119 H121 0.981 . S
C119 H122 0.981 . S
H120 C119 0.980 . S
H121 C119 0.981 . S
H122 C119 0.981 . S
O123 Zn99 2.066 . S
O123 C102 1.256 . S
O124 Zn96 2.053 . S
O124 C102 1.244 . S
C125 O103 1.259 . S
C125 O104 1.254 . S
O126 Zn96 2.066 . S
O126 C98 1.256 . S
O127 C98 1.244 . S
O127 Zn99 2.053 . S
C128 C129 1.369 1_554 S
C128 C130 1.419 . S
C128 H132 0.930 . S
C129 C128 1.369 1_556 S
C129 C138 1.429 . S
C130 C128 1.419 . S
C130 C131 1.363 . S
C130 H133 0.929 . S
C131 C130 1.363 . S
C131 C137 1.428 1_554 S
H132 C128 0.930 . S
H133 C130 0.929 . S
S134 N135 1.613 . S
S134 N136 1.610 . S
N135 S134 1.613 . S
N135 C138 1.350 1_455 S
N136 S134 1.610 . S
N136 C137 1.351 1_455 S
C137 C131 1.428 1_556 S
C137 N136 1.351 1_655 S
C137 C138 1.434 . S
C138 C129 1.429 . S
C138 N135 1.350 1_655 S
C138 C137 1.434 . S
C139 C140 1.369 . S
C139 C141 1.419 1_554 S
C139 H143 0.930 . S
C140 C139 1.369 . S
C140 C149 1.429 . S
C141 C139 1.419 1_556 S
C141 C142 1.363 . S
C141 H144 0.929 . S
C142 C141 1.363 . S
C142 C148 1.428 . S
H143 C139 0.930 . S
H144 C141 0.929 . S
S145 N146 1.613 . S
S145 N147 1.610 1_554 S
N146 S145 1.613 . S
N146 C149 1.350 . S
N147 S145 1.610 1_556 S
N147 C148 1.351 . S
C148 C142 1.428 . S
C148 N147 1.351 . S
C148 C149 1.434 1_556 S
C149 C140 1.429 . S
C149 N146 1.350 . S
C149 C148 1.434 1_554 S
C150 C151 1.369 1_554 S
C150 C152 1.419 . S
C150 H154 0.930 . S
C151 C150 1.369 1_556 S
C151 C160 1.429 1_565 S
C152 C150 1.419 . S
C152 C153 1.363 1_565 S
C152 H155 0.929 . S
C153 C152 1.363 1_545 S
C153 C159 1.428 1_554 S
H154 C150 0.930 . S
H155 C152 0.929 . S
S156 N157 1.613 . S
S156 N158 1.610 . S
N157 S156 1.613 . S
N157 C160 1.350 . S
N158 S156 1.610 . S
N158 C159 1.351 . S
C159 C153 1.428 1_556 S
C159 N158 1.351 . S
C159 C160 1.434 . S
C160 C151 1.429 1_545 S
C160 N157 1.350 . S
C160 C159 1.434 . S
C161 C162 1.369 1_556 S
C161 C163 1.419 . S
C161 H165 0.930 . S
C162 C161 1.369 1_554 S
C162 C171 1.429 1_565 S
C163 C161 1.419 . S
C163 C164 1.363 1_565 S
C163 H166 0.929 . S
C164 C163 1.363 1_545 S
C164 C170 1.428 1_556 S
H165 C161 0.930 . S
H166 C163 0.929 . S
S167 N168 1.613 . S
S167 N169 1.610 . S
N168 S167 1.613 . S
N168 C171 1.350 . S
N169 S167 1.610 . S
N169 C170 1.351 . S
C170 C164 1.428 1_554 S
C170 N169 1.351 . S
C170 C171 1.434 . S
C171 C162 1.429 1_545 S
C171 N168 1.350 . S
C171 C170 1.434 . S
C172 C173 1.369 . S
C172 C174 1.419 . S
C172 H176 0.930 . S
C173 C172 1.369 . S
C173 C182 1.429 . S
C174 C172 1.419 . S
C174 C175 1.363 . S
C174 H177 0.929 . S
C175 C174 1.363 . S
C175 C181 1.428 . S
H176 C172 0.930 . S
H177 C174 0.929 . S
S178 N179 1.613 . S
S178 N180 1.610 . S
N179 S178 1.613 . S
N179 C182 1.350 . S
N180 S178 1.610 . S
N180 C181 1.351 . S
C181 C175 1.428 . S
C181 N180 1.351 . S
C181 C182 1.434 . S
C182 C173 1.429 . S
C182 N179 1.350 . S
C182 C181 1.434 . S
C183 C184 1.369 . S
C183 C185 1.419 . S
C183 H187 0.930 . S
C184 C183 1.369 . S
C184 C193 1.429 . S
C185 C183 1.419 . S
C185 C186 1.363 . S
C185 H188 0.929 . S
C186 C185 1.363 . S
C186 C192 1.428 . S
H187 C183 0.930 . S
H188 C185 0.929 . S
S189 N190 1.613 . S
S189 N191 1.610 . S
N190 S189 1.613 . S
N190 C193 1.350 . S
N191 S189 1.610 . S
N191 C192 1.351 . S
C192 C186 1.428 . S
C192 N191 1.351 . S
C192 C193 1.434 . S
C193 C184 1.429 . S
C193 N190 1.350 . S
C193 C192 1.434 . S
C194 C195 1.369 . S
C194 C196 1.419 . S
C194 H198 0.930 . S
C195 C194 1.369 . S
C195 C204 1.429 . S
C196 C194 1.419 . S
C196 C197 1.363 . S
C196 H199 0.929 . S
C197 C196 1.363 . S
C197 C203 1.428 . S
H198 C194 0.930 . S
H199 C196 0.929 . S
S200 N201 1.613 . S
S200 N202 1.610 . S
N201 S200 1.613 . S
N201 C204 1.350 . S
N202 S200 1.610 . S
N202 C203 1.351 . S
C203 C197 1.428 . S
C203 N202 1.351 . S
C203 C204 1.434 . S
C204 C195 1.429 . S
C204 N201 1.350 . S
C204 C203 1.434 . S
C205 C206 1.369 . S
C205 C207 1.419 . S
C205 H209 0.930 . S
C206 C205 1.369 . S
C206 C215 1.429 . S
C207 C205 1.419 . S
C207 C208 1.363 . S
C207 H210 0.929 . S
C208 C207 1.363 . S
C208 C214 1.428 . S
H209 C205 0.930 . S
H210 C207 0.929 . S
S211 N212 1.613 . S
S211 N213 1.610 . S
N212 S211 1.613 . S
N212 C215 1.350 . S
N213 S211 1.610 . S
N213 C214 1.351 . S
C214 C208 1.428 . S
C214 N213 1.351 . S
C214 C215 1.434 . S
C215 C206 1.429 . S
C215 N212 1.350 . S
C215 C214 1.434 . S
C216 C217 1.369 . S
C216 C218 1.419 . S
C216 H220 0.930 . S
C217 C216 1.369 . S
C217 C226 1.429 1_556 S
C218 C216 1.419 . S
C218 C219 1.363 1_556 S
C218 H221 0.929 . S
C219 C218 1.363 1_554 S
C219 C225 1.428 . S
H220 C216 0.930 . S
H221 C218 0.929 . S
S222 N223 1.613 . S
S222 N224 1.610 . S
N223 S222 1.613 . S
N223 C226 1.350 . S
N224 S222 1.610 . S
N224 C225 1.351 . S
C225 C219 1.428 . S
C225 N224 1.351 . S
C225 C226 1.434 . S
C226 C217 1.429 1_554 S
C226 N223 1.350 . S
C226 C225 1.434 . S
C227 C228 1.369 1_554 S
C227 C229 1.419 . S
C227 H231 0.930 . S
C228 C227 1.369 1_556 S
C228 C237 1.429 . S
C229 C227 1.419 . S
C229 C230 1.363 . S
C229 H232 0.929 . S
C230 C229 1.363 . S
C230 C236 1.428 1_554 S
H231 C227 0.930 . S
H232 C229 0.929 . S
S233 N234 1.613 . S
S233 N235 1.610 . S
N234 S233 1.613 . S
N234 C237 1.350 . S
N235 S233 1.610 . S
N235 C236 1.351 . S
C236 C230 1.428 1_556 S
C236 N235 1.351 . S
C236 C237 1.434 . S
C237 C228 1.429 . S
C237 N234 1.350 . S
C237 C236 1.434 . S
C238 C239 1.369 . S
C238 C240 1.419 . S
C238 H242 0.930 . S
C239 C238 1.369 . S
C239 C248 1.429 1_554 S
C240 C238 1.419 . S
C240 C241 1.363 1_554 S
C240 H243 0.929 . S
C241 C240 1.363 1_556 S
C241 C247 1.428 . S
H242 C238 0.930 . S
H243 C240 0.929 . S
S244 N245 1.613 . S
S244 N246 1.610 . S
N245 S244 1.613 . S
N245 C248 1.350 . S
N246 S244 1.610 . S
N246 C247 1.351 . S
C247 C241 1.428 . S
C247 N246 1.351 . S
C247 C248 1.434 . S
C248 C239 1.429 1_556 S
C248 N245 1.350 . S
C248 C247 1.434 . S
C249 C250 1.369 . S
C249 C251 1.419 . S
C249 H253 0.930 . S
C250 C249 1.369 . S
C250 C259 1.429 1_554 S
C251 C249 1.419 . S
C251 C252 1.363 1_554 S
C251 H254 0.929 . S
C252 C251 1.363 1_556 S
C252 C258 1.428 . S
H253 C249 0.930 . S
H254 C251 0.929 . S
S255 N256 1.613 . S
S255 N257 1.610 . S
N256 S255 1.613 . S
N256 C259 1.350 . S
N257 S255 1.610 . S
N257 C258 1.351 . S
C258 C252 1.428 . S
C258 N257 1.351 . S
C258 C259 1.434 . S
C259 C250 1.429 1_556 S
C259 N256 1.350 . S
C259 C258 1.434 . S
C129 N82 1.854 . S
C131 N13 1.850 . S
C140 N45 1.850 . S
C142 N109 1.852 . S
C151 N114 1.854 . S
C153 N50 1.850 . S
C162 N18 1.856 . S
C164 N77 1.851 . S
C173 C100 1.526 . S
C175 C4 1.526 . S
C184 C93 1.526 . S
C186 C36 1.528 . S
C195 C68 1.526 . S
C197 C61 1.527 . S
C206 C29 1.526 . S
C208 C125 1.528 . S
C217 C98 1.083 . S
C219 C2 1.073 . S
C228 C70 1.073 . S
C230 C34 1.081 . S
C239 C38 1.082 . S
C241 C66 1.075 . S
C250 C6 1.078 . S
C252 C102 1.077 . S
