# Generated by pormake.
# Topology ukg, (4)-cn, num edge types: 1
# Building blocks:
#     Node 0, Type 0, BuildingBlock: KUFVIS_clean_sbu_0, # of connection points: 4
#     Node 1, Type 0, BuildingBlock: KUFVIS_clean_sbu_0, # of connection points: 4
#     Node 2, Type 0, BuildingBlock: KUFVIS_clean_sbu_0, # of connection points: 4
#     Node 3, Type 0, BuildingBlock: KUFVIS_clean_sbu_0, # of connection points: 4
#     Node 4, Type 0, BuildingBlock: KUFVIS_clean_sbu_0, # of connection points: 4
#     Node 5, Type 0, BuildingBlock: KUFVIS_clean_sbu_0, # of connection points: 4
#     Node 6, Type 0, BuildingBlock: KUFVIS_clean_sbu_0, # of connection points: 4
#     Node 7, Type 0, BuildingBlock: KUFVIS_clean_sbu_0, # of connection points: 4
#     Edge 8, Type (0, 0), BuildingBlock: EZIPEK_clean_linker_0, # of connection points: 2
#     Edge 9, Type (0, 0), BuildingBlock: EZIPEK_clean_linker_0, # of connection points: 2
#     Edge 10, Type (0, 0), BuildingBlock: EZIPEK_clean_linker_0, # of connection points: 2
#     Edge 11, Type (0, 0), BuildingBlock: EZIPEK_clean_linker_0, # of connection points: 2
#     Edge 12, Type (0, 0), BuildingBlock: EZIPEK_clean_linker_0, # of connection points: 2
#     Edge 13, Type (0, 0), BuildingBlock: EZIPEK_clean_linker_0, # of connection points: 2
#     Edge 14, Type (0, 0), BuildingBlock: EZIPEK_clean_linker_0, # of connection points: 2
#     Edge 15, Type (0, 0), BuildingBlock: EZIPEK_clean_linker_0, # of connection points: 2
#     Edge 16, Type (0, 0), BuildingBlock: EZIPEK_clean_linker_0, # of connection points: 2
#     Edge 17, Type (0, 0), BuildingBlock: EZIPEK_clean_linker_0, # of connection points: 2
#     Edge 18, Type (0, 0), BuildingBlock: EZIPEK_clean_linker_0, # of connection points: 2
#     Edge 19, Type (0, 0), BuildingBlock: EZIPEK_clean_linker_0, # of connection points: 2
#     Edge 20, Type (0, 0), BuildingBlock: EZIPEK_clean_linker_0, # of connection points: 2
#     Edge 21, Type (0, 0), BuildingBlock: EZIPEK_clean_linker_0, # of connection points: 2
#     Edge 22, Type (0, 0), BuildingBlock: EZIPEK_clean_linker_0, # of connection points: 2
#     Edge 23, Type (0, 0), BuildingBlock: EZIPEK_clean_linker_0, # of connection points: 2
# Relax obj value: 0.155
# Max RMSD: 0.247
# Mean RMSD: 0.247
data_MOF--net-ukg--node1-KUFVIS_clean_sbu_0--edge1-EZIPEK_clean_linker_0
_symmetry_space_group_name_H-M    P1
_symmetry_Int_Tables_number       1
_symmetry_cell_setting            triclinic
loop_
_symmetry_equiv_pos_as_xyz
'x, y, z'
_cell_length_a     22.387659
_cell_length_b     22.403992
_cell_length_c     25.709947
_cell_angle_alpha  90.350606
_cell_angle_beta   89.834181
_cell_angle_gamma 89.64216
loop_
_atom_site_label
_atom_site_type_symbol
_atom_site_fract_x
_atom_site_fract_y
_atom_site_fract_z
_atom_type_partial_charge
Mn0 Mn 0.00691 0.69252 0.16429 0.0
Mn1 Mn 0.02106 0.7481 0.03629 0.0
C2 C 0.9509 0.79757 0.11955 0.0
C3 C 0.95519 0.63798 0.22328 0.0
C4 C 0.12543 0.72906 0.10983 0.0
O5 O 0.00249 0.62175 0.11261 0.0
O6 O 0.02064 0.65953 0.03317 0.0
C7 C 0.90662 0.70827 0.99003 0.0
N8 N 0.94405 0.75326 1.00405 0.0
C9 C 0.87322 0.8276 0.97602 0.0
C10 C 0.83409 0.78201 0.96111 0.0
C11 C 0.85103 0.7221 0.9679 0.0
C12 C 0.92868 0.81112 0.99672 0.0
H13 H 0.91897 0.66215 0.99572 0.0
C14 C 0.01057 0.61589 0.06366 0.0
O15 O 0.01376 0.63482 0.22179 0.0
O16 O 0.92764 0.67279 0.1904 0.0
N17 N 0.02078 0.83379 0.03368 0.0
C18 C 0.06247 0.87252 0.05217 0.0
C19 C 0.05089 0.9341 0.05081 0.0
C20 C 0.99673 0.95521 0.03037 0.0
C21 C 0.95513 0.91464 0.01032 0.0
C22 C 0.96911 0.85372 0.01266 0.0
H23 H 0.1037 0.85653 0.06891 0.0
O24 O 0.98224 0.75176 0.10973 0.0
O25 O 0.98286 0.75173 0.1077 0.0
O26 O 0.09641 0.70444 0.14692 0.0
O27 O 0.10119 0.74698 0.0677 0.0
C28 C 0.89964 0.9322 0.98951 0.0
C29 C 0.85889 0.88873 0.97204 0.0
H30 H 0.79072 0.79247 0.94482 0.0
H31 H 0.821 0.68666 0.95663 0.0
H32 H 0.08329 0.96521 0.06613 0.0
H33 H 0.98735 0.00268 0.03069 0.0
H34 H 0.88758 0.979 0.98726 0.0
H35 H 0.81623 0.9028 0.95638 0.0
Mn36 Mn 0.34516 0.50921 0.67093 0.0
Mn37 Mn 0.26152 0.51003 0.56208 0.0
C38 C 0.24445 0.48948 0.67657 0.0
C39 C 0.40404 0.45792 0.73003 0.0
C40 C 0.292 0.62185 0.62177 0.0
O41 O 0.4084 0.50416 0.61464 0.0
O42 O 0.3495 0.51214 0.54412 0.0
C43 C 0.29755 0.3947 0.51456 0.0
N44 N 0.25469 0.42984 0.53702 0.0
C45 C 0.17892 0.35679 0.51929 0.0
C46 C 0.22228 0.32007 0.49585 0.0
C47 C 0.28182 0.33914 0.49345 0.0
C48 C 0.19705 0.41225 0.53881 0.0
H49 H 0.34313 0.4095 0.51147 0.0
C50 C 0.40109 0.5075 0.56571 0.0
O51 O 0.4073 0.5157 0.72667 0.0
O52 O 0.36901 0.43053 0.69803 0.0
N53 N 0.1769 0.5067 0.57285 0.0
C54 C 0.13883 0.5514 0.58771 0.0
C55 C 0.07741 0.53991 0.59169 0.0
C56 C 0.05545 0.48328 0.57846 0.0
C57 C 0.09503 0.43899 0.56045 0.0
C58 C 0.15596 0.45271 0.55824 0.0
H59 H 0.1552 0.59546 0.59679 0.0
O60 O 0.27426 0.50791 0.71657 0.0
O61 O 0.27495 0.48208 0.63339 0.0
O62 O 0.32855 0.59762 0.6536 0.0
O63 O 0.26419 0.59288 0.58661 0.0
C64 C 0.07622 0.38234 0.54327 0.0
C65 C 0.11809 0.3414 0.52238 0.0
H66 H 0.2102 0.27765 0.47861 0.0
H67 H 0.31544 0.31129 0.47491 0.0
H68 H 0.04701 0.5748 0.60449 0.0
H69 H 0.00796 0.47476 0.58104 0.0
H70 H 0.02944 0.37038 0.54473 0.0
H71 H 0.1029 0.29856 0.50801 0.0
Mn72 Mn 0.48466 0.84019 0.18461 0.0
Mn73 Mn 0.49723 0.76143 0.07272 0.0
C74 C 0.50626 0.73905 0.18703 0.0
C75 C 0.52973 0.89762 0.24941 0.0
C76 C 0.37816 0.78944 0.12355 0.0
O77 O 0.49263 0.90608 0.131 0.0
O78 O 0.49609 0.84956 0.05831 0.0
C79 C 0.62062 0.80013 0.04865 0.0
N80 N 0.58075 0.75551 0.05715 0.0
C81 C 0.65788 0.68076 0.04819 0.0
C82 C 0.69969 0.72595 0.03957 0.0
C83 C 0.68098 0.78589 0.03974 0.0
C84 C 0.5984 0.69768 0.05724 0.0
H85 H 0.6066 0.84625 0.04898 0.0
C86 C 0.49572 0.90034 0.08174 0.0
O87 O 0.47229 0.90021 0.2423 0.0
O88 O 0.56038 0.86378 0.21824 0.0
N89 N 0.49992 0.67633 0.0791 0.0
C90 C 0.45391 0.63794 0.08738 0.0
C91 C 0.46515 0.57621 0.08811 0.0
C92 C 0.52327 0.5545 0.07918 0.0
C93 C 0.56946 0.5947 0.06875 0.0
C94 C 0.55549 0.65574 0.06826 0.0
H95 H 0.40899 0.65427 0.09376 0.0
O96 O 0.48421 0.7664 0.22731 0.0
O97 O 0.51606 0.77211 0.14633 0.0
O98 O 0.39871 0.82337 0.15955 0.0
O99 O 0.41124 0.76366 0.08936 0.0
C100 C 0.62883 0.57662 0.05891 0.0
C101 C 0.67308 0.61964 0.04893 0.0
H102 H 0.74632 0.71513 0.03326 0.0
H103 H 0.71307 0.82103 0.03322 0.0
H104 H 0.42908 0.54544 0.09551 0.0
H105 H 0.53182 0.50687 0.07998 0.0
H106 H 0.64103 0.52976 0.05932 0.0
H107 H 0.71873 0.60525 0.04205 0.0
Mn108 Mn 0.16368 0.97862 0.68574 0.0
Mn109 Mn 0.24365 0.98576 0.57495 0.0
C110 C 0.26475 0.9984 0.68968 0.0
C111 C 0.10531 0.02949 0.74631 0.0
C112 C 0.2145 0.86937 0.62821 0.0
O113 O 0.09862 0.98427 0.63122 0.0
O114 O 0.15536 0.9881 0.55899 0.0
C115 C 0.20905 0.11061 0.5533 0.0
N116 N 0.25253 0.06863 0.55991 0.0
C117 C 0.32941 0.14314 0.55654 0.0
C118 C 0.28538 0.18709 0.55004 0.0
C119 C 0.22491 0.17079 0.54855 0.0
C120 C 0.31081 0.08402 0.5622 0.0
H121 H 0.16257 0.09844 0.55283 0.0
C122 C 0.10439 0.98771 0.58214 0.0
O123 O 0.10223 0.97162 0.74252 0.0
O124 O 0.14041 0.05683 0.71461 0.0
N125 N 0.32876 0.98465 0.58275 0.0
C126 C 0.36563 0.93695 0.59076 0.0
C127 C 0.42765 0.94558 0.59309 0.0
C128 C 0.45123 0.00293 0.58623 0.0
C129 C 0.41259 0.05091 0.57609 0.0
C130 C 0.35123 0.03937 0.57342 0.0
H131 H 0.34789 0.89262 0.59563 0.0
O132 O 0.23626 0.97933 0.73012 0.0
O133 O 0.23258 0.00651 0.64807 0.0
O134 O 0.1811 0.89141 0.6642 0.0
O135 O 0.23865 0.90055 0.59234 0.0
C136 C 0.43249 0.10979 0.56879 0.0
C137 C 0.39086 0.15601 0.55957 0.0
H138 H 0.29759 0.23354 0.54747 0.0
H139 H 0.19044 0.20448 0.54467 0.0
H140 H 0.45721 0.90811 0.60018 0.0
H141 H 0.49906 0.00949 0.58839 0.0
H142 H 0.47962 0.12015 0.57092 0.0
H143 H 0.40652 0.20137 0.55525 0.0
Mn144 Mn 0.99307 0.33674 0.8417 0.0
Mn145 Mn 0.98654 0.25387 0.95138 0.0
C146 C 0.01034 0.23532 0.8373 0.0
C147 C 0.04801 0.39337 0.78277 0.0
C148 C 0.87718 0.29057 0.89055 0.0
O149 O 0.99763 0.39992 0.89846 0.0
O150 O 0.99091 0.34162 0.96958 0.0
C151 C 0.10324 0.27771 1.00078 0.0
N152 N 0.06549 0.23909 0.97664 0.0
C153 C 0.13206 0.15637 0.99252 0.0
C154 C 0.17161 0.19538 0.0173 0.0
C155 C 0.15705 0.25626 0.02164 0.0
C156 C 0.07839 0.18006 0.97367 0.0
H157 H 0.09149 0.32413 1.0057 0.0
C158 C 0.9957 0.39285 0.94758 0.0
O159 O 0.99023 0.39864 0.78553 0.0
O160 O 0.07357 0.35773 0.8154 0.0
N161 N 0.98306 0.16947 0.93947 0.0
C162 C 0.93598 0.13608 0.92293 0.0
C163 C 0.9433 0.07427 0.91594 0.0
C164 C 0.99823 0.04714 0.92773 0.0
C165 C 0.04455 0.08172 0.94836 0.0
C166 C 0.03505 0.14335 0.95343 0.0
H167 H 0.89348 0.15655 0.91401 0.0
O168 O 0.99458 0.2651 0.7965 0.0
O169 O 0.01658 0.26609 0.88034 0.0
O170 O 0.90339 0.32356 0.85715 0.0
O171 O 0.90451 0.26392 0.92717 0.0
C172 C 0.09947 0.05737 0.96469 0.0
C173 C 0.14292 0.09457 0.98738 0.0
H174 H 0.21225 0.1786 0.0347 0.0
H175 H 0.18654 0.28634 0.04209 0.0
H176 H 0.90676 0.04766 0.90132 0.0
H177 H 0.00383 0.9995 0.92203 0.0
H178 H 0.10822 0.00992 0.96103 0.0
H179 H 0.18433 0.07512 1.00115 0.0
Mn180 Mn 0.66956 0.48258 0.32968 0.0
Mn181 Mn 0.75397 0.49509 0.4369 0.0
C182 C 0.76843 0.51042 0.32171 0.0
C183 C 0.60679 0.53288 0.27216 0.0
C184 C 0.72805 0.37555 0.38479 0.0
O185 O 0.60696 0.48451 0.38682 0.0
O186 O 0.66659 0.49342 0.45676 0.0
C187 C 0.7144 0.61776 0.46433 0.0
N188 N 0.75925 0.57852 0.45259 0.0
C189 C 0.83192 0.6573 0.45293 0.0
C190 C 0.78647 0.69845 0.46497 0.0
C191 C 0.72746 0.67858 0.47068 0.0
C192 C 0.81617 0.59727 0.44678 0.0
H193 H 0.66886 0.60297 0.46816 0.0
C194 C 0.61472 0.48996 0.4356 0.0
O195 O 0.60624 0.47479 0.27406 0.0
O196 O 0.64128 0.56025 0.30423 0.0
N197 N 0.83825 0.49878 0.42438 0.0
C198 C 0.87697 0.45339 0.41288 0.0
C199 C 0.93791 0.46577 0.40611 0.0
C200 C 0.95852 0.52451 0.41187 0.0
C201 C 0.91816 0.57014 0.42544 0.0
C202 C 0.85808 0.55494 0.4324 0.0
H203 H 0.86145 0.40812 0.40841 0.0
O204 O 0.73985 0.48834 0.28247 0.0
O205 O 0.73789 0.51504 0.36481 0.0
O206 O 0.69314 0.39573 0.34922 0.0
O207 O 0.75237 0.40896 0.41935 0.0
C208 C 0.93514 0.63014 0.43211 0.0
C209 C 0.89199 0.67375 0.44558 0.0
H210 H 0.79631 0.74546 0.4692 0.0
H211 H 0.69198 0.71012 0.4794 0.0
H212 H 0.96887 0.43016 0.39621 0.0
H213 H 0.00545 0.53398 0.40613 0.0
H214 H 0.98119 0.6433 0.42661 0.0
H215 H 0.90544 0.71987 0.44995 0.0
Mn216 Mn 0.51901 0.1601 0.84155 0.0
Mn217 Mn 0.51676 0.24865 0.94807 0.0
C218 C 0.50047 0.26094 0.833 0.0
C219 C 0.46562 0.09969 0.78434 0.0
C220 C 0.6308 0.21288 0.89225 0.0
O221 O 0.51365 0.09961 0.8998 0.0
O222 O 0.51417 0.16202 0.96879 0.0
C223 C 0.3934 0.21931 0.97968 0.0
N224 N 0.43485 0.26075 0.96648 0.0
C225 C 0.36158 0.33975 0.97076 0.0
C226 C 0.31819 0.29785 0.98441 0.0
C227 C 0.33422 0.23738 0.98877 0.0
C228 C 0.41983 0.31903 0.96172 0.0
H229 H 0.40522 0.17273 0.98273 0.0
C230 C 0.51222 0.10944 0.9486 0.0
O231 O 0.5235 0.09508 0.78721 0.0
O232 O 0.43962 0.13694 0.81567 0.0
N233 N 0.51815 0.33284 0.93539 0.0
C234 C 0.56574 0.36783 0.92325 0.0
C235 C 0.55743 0.42963 0.91753 0.0
C236 C 0.50063 0.45502 0.92557 0.0
C237 C 0.45294 0.41851 0.94033 0.0
C238 C 0.46408 0.35728 0.94581 0.0
H239 H 0.6097 0.34875 0.91757 0.0
O240 O 0.51815 0.22914 0.79363 0.0
O241 O 0.49287 0.2323 0.87652 0.0
O242 O 0.60737 0.17679 0.85931 0.0
O243 O 0.60096 0.24043 0.92759 0.0
C244 C 0.39482 0.44047 0.94989 0.0
C245 C 0.34907 0.40105 0.9648 0.0
H246 H 0.2724 0.31164 0.991 0.0
H247 H 0.30116 0.20452 0.99863 0.0
H248 H 0.59472 0.4576 0.90696 0.0
H249 H 0.4943 0.50266 0.92089 0.0
H250 H 0.38476 0.48754 0.94564 0.0
H251 H 0.30437 0.41831 0.97148 0.0
Mn252 Mn 0.82657 0.99807 0.3547 0.0
Mn253 Mn 0.74849 0.0183 0.46553 0.0
C254 C 0.72417 0.98877 0.35347 0.0
C255 C 0.87564 0.93169 0.298 0.0
C256 C 0.78716 0.1213 0.39783 0.0
O257 O 0.89189 0.99347 0.4089 0.0
O258 O 0.83701 0.01289 0.48059 0.0
C259 C 0.77477 0.90091 0.51314 0.0
N260 N 0.73447 0.94088 0.49403 0.0
C261 C 0.65271 0.87515 0.51312 0.0
C262 C 0.69344 0.83322 0.53269 0.0
C263 C 0.7547 0.84628 0.53288 0.0
C264 C 0.67532 0.92898 0.49416 0.0
H265 H 0.82182 0.91077 0.51379 0.0
C266 C 0.88711 0.00202 0.45767 0.0
O267 O 0.88579 0.98881 0.2962 0.0
O268 O 0.84067 0.91332 0.33446 0.0
N269 N 0.66348 0.02319 0.45794 0.0
C270 C 0.62955 0.07071 0.44285 0.0
C271 C 0.56708 0.06556 0.44164 0.0
C272 C 0.54003 0.01221 0.45731 0.0
C273 C 0.57569 0.96488 0.47496 0.0
C274 C 0.63775 0.97258 0.47518 0.0
H275 H 0.65 0.11222 0.43161 0.0
O276 O 0.75397 0.99904 0.31135 0.0
O277 O 0.75573 0.98319 0.39594 0.0
O278 O 0.8188 0.09023 0.36558 0.0
O279 O 0.759 0.09843 0.43615 0.0
C280 C 0.55203 0.91072 0.49313 0.0
C281 C 0.59052 0.86585 0.51213 0.0
H282 H 0.67812 0.79111 0.54813 0.0
H283 H 0.78637 0.81439 0.54838 0.0
H284 H 0.53984 0.10274 0.42891 0.0
H285 H 0.49181 0.00848 0.45656 0.0
H286 H 0.50425 0.90337 0.49316 0.0
H287 H 0.57178 0.82457 0.52637 0.0
C288 C 0.05681 0.47367 0.9901 0.0
C289 C 1.00009 0.44748 0.98093 0.0
C290 C 0.95176 0.52629 0.03384 0.0
C291 C 0.0078 0.55497 0.03977 0.0
N292 N 0.11393 0.55693 0.02495 0.0
N293 N 0.89293 0.45257 0.98731 0.0
C294 C 0.06047 0.52867 0.0184 0.0
C295 C 0.94742 0.47448 1.00146 0.0
N296 N 0.10718 0.44546 0.97196 0.0
N297 N 0.90253 0.54881 0.05895 0.0
H298 H 0.88822 0.41572 0.96277 0.0
H299 H 0.85245 0.47345 0.99603 0.0
H300 H 0.90314 0.58811 0.08086 0.0
H301 H 0.86193 0.52661 0.06123 0.0
H302 H 0.15049 0.45809 0.98121 0.0
H303 H 0.10591 0.40702 0.94892 0.0
H304 H 0.15327 0.54495 1.00589 0.0
H305 H 0.11882 0.5941 0.04916 0.0
C306 C 0.48803 0.44832 0.52922 0.0
C307 C 0.45555 0.50304 0.53205 0.0
C308 C 0.52539 0.54782 0.46943 0.0
C309 C 0.56021 0.49448 0.46927 0.0
N310 N 0.57725 0.39493 0.50071 0.0
N311 N 0.44887 0.60774 0.51244 0.0
C312 C 0.54232 0.44511 0.49992 0.0
C313 C 0.47559 0.55351 0.50397 0.0
N314 N 0.46562 0.39869 0.55294 0.0
N315 N 0.53954 0.59299 0.43611 0.0
H316 H 0.41341 0.61364 0.53836 0.0
H317 H 0.46501 0.64769 0.49767 0.0
H318 H 0.577 0.5919 0.41192 0.0
H319 H 0.51203 0.62984 0.42972 0.0
H320 H 0.48305 0.35589 0.54793 0.0
H321 H 0.42657 0.39927 0.57516 0.0
H322 H 0.57166 0.36013 0.52687 0.0
H323 H 0.61407 0.38925 0.47632 0.0
C324 C 0.4486 0.97389 0.02007 0.0
C325 C 0.4991 0.95541 0.04939 0.0
C326 C 0.55774 0.0382 0.01326 0.0
C327 C 0.50734 0.05687 0.98392 0.0
N328 N 0.40648 0.04032 0.9549 0.0
N329 N 0.59854 0.97455 0.08083 0.0
C330 C 0.45315 0.02408 0.98617 0.0
C331 C 0.5527 0.98905 0.04807 0.0
N332 N 0.39544 0.94511 0.02691 0.0
N333 N 0.61159 0.06509 1.00509 0.0
H334 H 0.59759 0.93768 0.10537 0.0
H335 H 0.63595 0.00107 0.08656 0.0
H336 H 0.61714 0.09983 0.97881 0.0
H337 H 0.65179 0.05006 0.02059 0.0
H338 H 0.35511 0.95867 0.01076 0.0
H339 H 0.39045 0.90922 0.05216 0.0
H340 H 0.36794 0.01532 0.9499 0.0
H341 H 0.40715 0.07808 0.9314 0.0
C342 C 0.97194 0.94218 0.49646 0.0
C343 C 0.94284 0.99819 0.48951 0.0
C344 C 0.01695 0.04607 0.54645 0.0
C345 C 0.04867 0.99117 0.55031 0.0
N346 N 0.05872 0.88725 0.52752 0.0
N347 N 0.94502 0.10515 0.49828 0.0
C348 C 0.02685 0.93934 0.52466 0.0
C349 C 0.96726 0.0506 0.51207 0.0
N350 N 0.94597 0.89142 0.47749 0.0
N351 N 0.03362 0.09379 0.57634 0.0
H352 H 0.9107 0.10999 0.47132 0.0
H353 H 0.96446 0.14543 0.50912 0.0
H354 H 0.07009 0.09261 0.60146 0.0
H355 H 0.00842 0.13287 0.57957 0.0
H356 H 0.9608 0.84846 0.48586 0.0
H357 H 0.90679 0.89183 0.45565 0.0
H358 H 0.05002 0.8496 0.50496 0.0
H359 H 0.09608 0.88251 0.55122 0.0
C360 C 0.22835 0.73871 0.07115 0.0
C361 C 0.19085 0.74074 0.11584 0.0
C362 C 0.27858 0.76767 0.16788 0.0
C363 C 0.3127 0.77642 0.12169 0.0
N364 N 0.31037 0.78665 0.0279 0.0
N365 N 0.18016 0.77472 0.2055 0.0
C366 C 0.28472 0.76689 0.07283 0.0
C367 C 0.21572 0.7602 0.16399 0.0
N368 N 0.21146 0.70835 0.02744 0.0
N369 N 0.30546 0.76349 0.21537 0.0
H370 H 0.13377 0.77437 0.20445 0.0
H371 H 0.19704 0.79418 0.23931 0.0
H372 H 0.35148 0.76421 0.2207 0.0
H373 H 0.28202 0.75182 0.24888 0.0
H374 H 0.23987 0.70233 0.99558 0.0
H375 H 0.17267 0.68296 0.02563 0.0
H376 H 0.28878 0.78424 0.99205 0.0
H377 H 0.34913 0.81216 0.02733 0.0
C378 C 0.26955 0.71936 0.57937 0.0
C379 C 0.27771 0.68666 0.62591 0.0
C380 C 0.2479 0.77571 0.6759 0.0
C381 C 0.23064 0.80472 0.62896 0.0
N382 N 0.21132 0.79511 0.53669 0.0
N383 N 0.26096 0.68141 0.7192 0.0
C384 C 0.23733 0.77379 0.5809 0.0
C385 C 0.26312 0.71402 0.67448 0.0
N386 N 0.29389 0.69939 0.53363 0.0
N387 N 0.25298 0.80678 0.72158 0.0
H388 H 0.27072 0.63607 0.72112 0.0
H389 H 0.24353 0.6985 0.75391 0.0
H390 H 0.24451 0.85221 0.72558 0.0
H391 H 0.27204 0.78833 0.75482 0.0
H392 H 0.29358 0.72465 0.4997 0.0
H393 H 0.32029 0.66101 0.5311 0.0
H394 H 0.2106 0.771 0.50188 0.0
H395 H 0.18459 0.83328 0.53626 0.0
C396 C 0.72318 0.2428 0.84033 0.0
C397 C 0.69545 0.22825 0.88866 0.0
C398 C 0.77977 0.27293 0.93448 0.0
C399 C 0.81189 0.27844 0.88713 0.0
N400 N 0.81611 0.25699 0.79439 0.0
N401 N 0.7074 0.21527 0.98139 0.0
C402 C 0.78427 0.2603 0.83976 0.0
C403 C 0.72688 0.239 0.9356 0.0
N404 N 0.69138 0.24298 0.79502 0.0
N405 N 0.79924 0.30095 0.97857 0.0
H406 H 0.67056 0.18725 0.98366 0.0
H407 H 0.73196 0.21773 0.01572 0.0
H408 H 0.83666 0.32835 0.97899 0.0
H409 H 0.77435 0.30235 0.01291 0.0
H410 H 0.70824 0.26045 0.76052 0.0
H411 H 0.64663 0.23152 0.7922 0.0
H412 H 0.79955 0.23652 0.76093 0.0
H413 H 0.86045 0.26967 0.79065 0.0
C414 C 0.75656 0.27708 0.33992 0.0
C415 C 0.74356 0.31011 0.38624 0.0
C416 C 0.77784 0.22395 0.43695 0.0
C417 C 0.77987 0.18758 0.39149 0.0
N418 N 0.7583 0.17954 0.29926 0.0
N419 N 0.72905 0.30671 0.4797 0.0
C420 C 0.76585 0.21403 0.34271 0.0
C421 C 0.75066 0.28122 0.435 0.0
N422 N 0.76307 0.30558 0.29344 0.0
N423 N 0.80283 0.20445 0.48223 0.0
H424 H 0.70563 0.3469 0.48053 0.0
H425 H 0.72821 0.28433 0.51514 0.0
H426 H 0.82502 0.16366 0.48523 0.0
H427 H 0.8074 0.23177 0.51495 0.0
H428 H 0.77808 0.28377 0.25989 0.0
H429 H 0.76056 0.35173 0.28949 0.0
H430 H 0.74174 0.19668 0.26452 0.0
H431 H 0.76262 0.1333 0.29888 0.0
C432 C 0.87217 0.50909 0.28607 0.0
C433 C 0.82544 0.5417 0.31096 0.0
C434 C 0.87871 0.63484 0.29348 0.0
C435 C 0.91911 0.60327 0.26084 0.0
N436 N 0.95356 0.51014 0.22359 0.0
N437 N 0.77995 0.63758 0.33112 0.0
C438 C 0.91659 0.54012 0.2573 0.0
C439 C 0.82793 0.60511 0.31363 0.0
N440 N 0.87319 0.44822 0.28917 0.0
N441 N 0.88868 0.69364 0.30469 0.0
H442 H 0.74109 0.61857 0.34558 0.0
H443 H 0.7769 0.68382 0.32777 0.0
H444 H 0.92578 0.71647 0.29051 0.0
H445 H 0.86383 0.71771 0.3321 0.0
H446 H 0.90886 0.42192 0.27636 0.0
H447 H 0.84065 0.42436 0.30922 0.0
H448 H 0.94885 0.46515 0.21424 0.0
H449 H 0.98693 0.53103 0.20217 0.0
C450 C 0.39683 0.39132 0.80576 0.0
C451 C 0.43383 0.42328 0.77125 0.0
C452 C 0.51923 0.36239 0.79767 0.0
C453 C 0.47949 0.32259 0.82294 0.0
N454 N 0.3779 0.29609 0.84541 0.0
N455 N 0.53082 0.44197 0.73473 0.0
C456 C 0.41768 0.33671 0.82658 0.0
C457 C 0.49564 0.41057 0.76819 0.0
N458 N 0.34115 0.41276 0.81748 0.0
N459 N 0.57941 0.35323 0.8014 0.0
H460 H 0.5149 0.4786 0.71397 0.0
H461 H 0.57475 0.43027 0.72578 0.0
H462 H 0.59735 0.31862 0.82341 0.0
H463 H 0.61116 0.38292 0.78746 0.0
H464 H 0.31385 0.39403 0.84586 0.0
H465 H 0.32532 0.45317 0.80273 0.0
H466 H 0.33177 0.30183 0.84312 0.0
H467 H 0.39034 0.25468 0.86009 0.0
C468 C 0.5759 0.98942 0.28795 0.0
C469 C 0.56073 0.92856 0.2926 0.0
C470 C 0.64215 0.91243 0.35429 0.0
C471 C 0.66035 0.97255 0.34721 0.0
N472 N 0.63663 0.07194 0.31856 0.0
N473 N 0.56381 0.83905 0.34323 0.0
C474 C 0.62372 0.01243 0.31835 0.0
C475 C 0.58834 0.89277 0.33082 0.0
N476 N 0.54746 0.02382 0.25187 0.0
N477 N 0.67883 0.87241 0.37852 0.0
H478 H 0.52447 0.82402 0.32594 0.0
H479 H 0.57869 0.81296 0.37406 0.0
H480 H 0.71921 0.88404 0.39559 0.0
H481 H 0.671 0.82664 0.37895 0.0
H482 H 0.56094 0.06658 0.24171 0.0
H483 H 0.5111 0.00831 0.23052 0.0
H484 H 0.60949 0.10441 0.30184 0.0
H485 H 0.67233 0.08927 0.33967 0.0
C486 C 0.98965 0.13313 0.80299 0.0
C487 C 0.0291 0.17221 0.82978 0.0
C488 C 0.10866 0.09742 0.82163 0.0
C489 C 0.07325 0.06514 0.78601 0.0
N490 N 0.97942 0.04932 0.7433 0.0
N491 N 0.12948 0.19401 0.85909 0.0
C492 C 0.01297 0.0813 0.77778 0.0
C493 C 0.08931 0.15465 0.83868 0.0
N494 N 0.93001 0.14617 0.80144 0.0
N495 N 0.16182 0.07378 0.83763 0.0
H496 H 0.11828 0.23709 0.87106 0.0
H497 H 0.1752 0.18533 0.86078 0.0
H498 H 0.17652 0.03172 0.82514 0.0
H499 H 0.18762 0.09275 0.86701 0.0
H500 H 0.89801 0.11745 0.7863 0.0
H501 H 0.91193 0.18337 0.82039 0.0
H502 H 0.93755 0.0629 0.73024 0.0
H503 H 0.99493 0.00988 0.72604 0.0
C504 C 0.11511 0.38595 0.70563 0.0
C505 C 0.08434 0.42265 0.74201 0.0
C506 C 0.14327 0.50814 0.71369 0.0
C507 C 0.18238 0.46879 0.68613 0.0
N508 N 0.20739 0.36795 0.6591 0.0
N509 N 0.0668 0.51938 0.78033 0.0
C510 C 0.16813 0.40722 0.68177 0.0
C511 C 0.09676 0.48437 0.7451 0.0
N512 N 0.09376 0.33038 0.69442 0.0
N513 N 0.15168 0.56832 0.71038 0.0
H514 H 0.03152 0.50352 0.80283 0.0
H515 H 0.07866 0.56311 0.78922 0.0
H516 H 0.18537 0.58647 0.68743 0.0
H517 H 0.12224 0.59996 0.72578 0.0
H518 H 0.11088 0.30356 0.66459 0.0
H519 H 0.05476 0.31403 0.71134 0.0
H520 H 0.20245 0.3218 0.66071 0.0
H521 H 0.24707 0.38084 0.64142 0.0
C522 C 0.61219 0.60697 0.2025 0.0
C523 C 0.57567 0.56913 0.23255 0.0
C524 C 0.48949 0.63297 0.21347 0.0
C525 C 0.52877 0.677 0.19338 0.0
N526 N 0.63038 0.70842 0.17647 0.0
N527 N 0.47903 0.54392 0.26627 0.0
C528 C 0.59087 0.66445 0.18898 0.0
C529 C 0.51373 0.5807 0.23694 0.0
N530 N 0.66836 0.58847 0.18892 0.0
N531 N 0.42917 0.64161 0.21035 0.0
H532 H 0.49555 0.5044 0.28215 0.0
H533 H 0.43501 0.55368 0.27656 0.0
H534 H 0.41052 0.67912 0.19273 0.0
H535 H 0.39801 0.60933 0.22037 0.0
H536 H 0.69599 0.61232 0.16397 0.0
H537 H 0.68438 0.54605 0.19844 0.0
H538 H 0.67654 0.7028 0.17851 0.0
H539 H 0.61768 0.75203 0.16798 0.0
C540 C 0.39248 0.10576 0.71289 0.0
C541 C 0.42905 0.06922 0.7444 0.0
C542 C 0.36987 0.98245 0.71893 0.0
C543 C 0.32617 0.0213 0.69727 0.0
N544 N 0.29297 0.12248 0.68044 0.0
N545 N 0.45441 0.97207 0.7773 0.0
C546 C 0.33706 0.08362 0.69501 0.0
C547 C 0.41921 0.00697 0.74645 0.0
N548 N 0.41033 0.16232 0.7013 0.0
N549 N 0.36336 0.92217 0.71373 0.0
H550 H 0.49169 0.98858 0.79672 0.0
H551 H 0.44512 0.92766 0.78562 0.0
H552 H 0.3279 0.90357 0.69321 0.0
H553 H 0.39574 0.89126 0.72483 0.0
H554 H 0.38775 0.18961 0.6751 0.0
H555 H 0.45134 0.17911 0.71367 0.0
H556 H 0.29679 0.16865 0.68408 0.0
H557 H 0.25084 0.10907 0.66823 0.0
C558 C 0.87522 0.81645 0.18785 0.0
C559 C 0.93613 0.81622 0.1734 0.0
C560 C 0.95898 0.8817 0.24774 0.0
C561 C 0.89697 0.88954 0.25693 0.0
N562 N 0.79485 0.86825 0.23245 0.0
N563 N 0.03646 0.85153 0.18695 0.0
C564 C 0.85467 0.85714 0.22672 0.0
C565 C 0.97839 0.84888 0.20311 0.0
N566 N 0.83691 0.77795 0.16372 0.0
N567 N 0.99928 0.90465 0.2822 0.0
H568 H 0.05286 0.82646 0.15578 0.0
H569 H 0.0676 0.88082 0.2027 0.0
H570 H 0.98645 0.92874 0.3153 0.0
H571 H 0.04487 0.8953 0.28055 0.0
H572 H 0.79303 0.77124 0.1758 0.0
H573 H 0.85098 0.74828 0.13463 0.0
H574 H 0.76245 0.85109 0.20764 0.0
H575 H 0.77733 0.89886 0.2591 0.0
loop_
_geom_bond_atom_site_label_1
_geom_bond_atom_site_label_2
_geom_bond_distance
_geom_bond_site_symmetry_2
_ccdc_geom_bond_type
Mn0 O5 2.095 . S
Mn0 O15 2.162 1_455 S
Mn0 O16 2.297 1_455 S
Mn0 O24 2.385 1_455 S
Mn0 O25 2.209 1_455 S
Mn0 O26 2.094 . S
Mn1 O6 2.121 . S
Mn1 N8 2.257 1_455 S
Mn1 N17 2.282 . S
Mn1 O25 2.215 1_455 S
Mn1 O27 2.117 . S
C2 O24 1.234 . S
C2 O25 1.283 . S
C3 O15 1.281 . S
C3 O16 1.236 . S
C4 O26 1.240 . S
C4 O27 1.264 . S
O5 Mn0 2.095 . S
O5 C14 1.250 . S
O6 Mn1 2.121 . S
O6 C14 1.258 . S
C7 N8 1.314 1_556 S
C7 C11 1.469 . S
C7 H13 0.933 . S
N8 Mn1 2.257 1_655 S
N8 C7 1.314 1_554 S
N8 C12 1.362 . S
C9 C10 1.258 1_554 S
C9 C12 1.431 . S
C9 C29 1.449 . S
C10 C9 1.258 1_556 S
C10 C11 1.477 . S
C10 H30 0.931 . S
C11 C7 1.469 . S
C11 C10 1.477 . S
C11 H31 0.930 . S
C12 N8 1.362 . S
C12 C9 1.431 . S
C12 C22 1.476 1_655 S
H13 C7 0.933 . S
C14 O5 1.250 . S
C14 O6 1.258 . S
O15 Mn0 2.162 1_655 S
O15 C3 1.281 . S
O16 Mn0 2.297 1_655 S
O16 C3 1.236 . S
N17 Mn1 2.282 . S
N17 C18 1.328 . S
N17 C22 1.318 . S
C18 N17 1.328 . S
C18 C19 1.457 . S
C18 H23 0.929 . S
C19 C18 1.457 . S
C19 C20 1.291 . S
C19 H32 0.931 . S
C20 C19 1.291 . S
C20 C21 1.373 . S
C20 H33 0.929 . S
C21 C20 1.373 . S
C21 C22 1.396 . S
C21 C28 1.403 . S
C22 C12 1.476 1_455 S
C22 N17 1.318 . S
C22 C21 1.396 . S
H23 C18 0.929 . S
O24 Mn0 2.385 1_655 S
O24 C2 1.234 . S
O25 Mn0 2.209 1_655 S
O25 Mn1 2.215 1_655 S
O25 C2 1.283 . S
O26 Mn0 2.094 . S
O26 C4 1.240 . S
O27 Mn1 2.117 . S
O27 C4 1.264 . S
C28 C21 1.403 . S
C28 C29 1.399 1_455 S
C28 H34 0.929 1_565 S
C29 C9 1.449 . S
C29 C28 1.399 1_655 S
C29 H35 0.930 . S
H30 C10 0.931 . S
H31 C11 0.930 . S
H32 C19 0.931 . S
H33 C20 0.929 . S
H34 C28 0.929 1_545 S
H35 C29 0.930 . S
Mn36 O41 2.095 . S
Mn36 O51 2.162 . S
Mn36 O52 2.297 . S
Mn36 O60 2.385 . S
Mn36 O61 2.209 . S
Mn36 O62 2.094 . S
Mn37 O42 2.121 . S
Mn37 N44 2.257 . S
Mn37 N53 2.282 . S
Mn37 O61 2.215 . S
Mn37 O63 2.117 . S
C38 O60 1.234 . S
C38 O61 1.283 . S
C39 O51 1.281 . S
C39 O52 1.236 . S
C40 O62 1.240 . S
C40 O63 1.264 . S
O41 Mn36 2.095 . S
O41 C50 1.250 . S
O42 Mn37 2.121 . S
O42 C50 1.258 . S
C43 N44 1.326 . S
C43 C47 1.460 . S
C43 H49 0.929 . S
N44 Mn37 2.257 . S
N44 C43 1.326 . S
N44 C48 1.362 . S
C45 C46 1.258 . S
C45 C48 1.431 . S
C45 C65 1.449 . S
C46 C45 1.258 . S
C46 C47 1.477 . S
C46 H66 0.931 . S
C47 C43 1.460 . S
C47 C46 1.477 . S
C47 H67 0.930 . S
C48 N44 1.362 . S
C48 C45 1.431 . S
C48 C58 1.476 . S
H49 C43 0.929 . S
C50 O41 1.250 . S
C50 O42 1.258 . S
O51 Mn36 2.162 . S
O51 C39 1.281 . S
O52 Mn36 2.297 . S
O52 C39 1.236 . S
N53 Mn37 2.282 . S
N53 C54 1.328 . S
N53 C58 1.318 . S
C54 N53 1.328 . S
C54 C55 1.457 . S
C54 H59 0.929 . S
C55 C54 1.457 . S
C55 C56 1.291 . S
C55 H68 0.931 . S
C56 C55 1.291 . S
C56 C57 1.373 . S
C56 H69 0.929 . S
C57 C56 1.373 . S
C57 C58 1.396 . S
C57 C64 1.403 . S
C58 C48 1.476 . S
C58 N53 1.318 . S
C58 C57 1.396 . S
H59 C54 0.929 . S
O60 Mn36 2.385 . S
O60 C38 1.234 . S
O61 Mn36 2.209 . S
O61 Mn37 2.215 . S
O61 C38 1.283 . S
O62 Mn36 2.094 . S
O62 C40 1.240 . S
O63 Mn37 2.117 . S
O63 C40 1.264 . S
C64 C57 1.403 . S
C64 C65 1.399 . S
C64 H70 0.929 1_455 S
C65 C45 1.449 . S
C65 C64 1.399 . S
C65 H71 0.930 . S
H66 C46 0.931 . S
H67 C47 0.930 . S
H68 C55 0.931 . S
H69 C56 0.929 . S
H70 C64 0.929 1_655 S
H71 C65 0.930 . S
Mn72 O77 2.095 . S
Mn72 O87 2.162 . S
Mn72 O88 2.297 . S
Mn72 O96 2.385 . S
Mn72 O97 2.209 . S
Mn72 O98 2.094 . S
Mn73 O78 2.121 . S
Mn73 N80 2.257 . S
Mn73 N89 2.282 . S
Mn73 O97 2.215 . S
Mn73 O99 2.117 . S
C74 O96 1.234 . S
C74 O97 1.283 . S
C75 O87 1.281 . S
C75 O88 1.236 . S
C76 O98 1.240 . S
C76 O99 1.264 . S
O77 Mn72 2.095 . S
O77 C86 1.250 . S
O78 Mn73 2.121 . S
O78 C86 1.258 . S
C79 N80 1.315 1_556 S
C79 C83 1.468 . S
C79 H85 0.933 . S
N80 Mn73 2.257 . S
N80 C79 1.315 1_554 S
N80 C84 1.362 . S
C81 C82 1.258 1_554 S
C81 C84 1.431 . S
C81 C101 1.449 . S
C82 C81 1.258 1_556 S
C82 C83 1.477 . S
C82 H102 0.931 . S
C83 C79 1.468 . S
C83 C82 1.477 . S
C83 H103 0.930 . S
C84 N80 1.362 . S
C84 C81 1.431 . S
C84 C94 1.476 . S
H85 C79 0.933 . S
C86 O77 1.250 . S
C86 O78 1.258 . S
O87 Mn72 2.162 . S
O87 C75 1.281 . S
O88 Mn72 2.297 . S
O88 C75 1.236 . S
N89 Mn73 2.282 . S
N89 C90 1.328 . S
N89 C94 1.318 . S
C90 N89 1.328 . S
C90 C91 1.457 . S
C90 H95 0.929 . S
C91 C90 1.457 . S
C91 C92 1.291 . S
C91 H104 0.931 . S
C92 C91 1.291 . S
C92 C93 1.373 . S
C92 H105 0.929 . S
C93 C92 1.373 . S
C93 C94 1.396 . S
C93 C100 1.403 . S
C94 C84 1.476 . S
C94 N89 1.318 . S
C94 C93 1.396 . S
H95 C90 0.929 . S
O96 Mn72 2.385 . S
O96 C74 1.234 . S
O97 Mn72 2.209 . S
O97 Mn73 2.215 . S
O97 C74 1.283 . S
O98 Mn72 2.094 . S
O98 C76 1.240 . S
O99 Mn73 2.117 . S
O99 C76 1.264 . S
C100 C93 1.403 . S
C100 C101 1.399 . S
C100 H106 0.929 . S
C101 C81 1.449 . S
C101 C100 1.399 . S
C101 H107 0.930 . S
H102 C82 0.931 . S
H103 C83 0.930 . S
H104 C91 0.931 . S
H105 C92 0.929 . S
H106 C100 0.929 . S
H107 C101 0.930 . S
Mn108 O113 2.095 . S
Mn108 O123 2.162 1_565 S
Mn108 O124 2.297 1_565 S
Mn108 O132 2.385 1_565 S
Mn108 O133 2.209 1_565 S
Mn108 O134 2.094 . S
Mn109 O114 2.121 . S
Mn109 N116 2.257 1_565 S
Mn109 N125 2.282 . S
Mn109 O133 2.215 1_565 S
Mn109 O135 2.117 . S
C110 O132 1.234 . S
C110 O133 1.283 . S
C111 O123 1.281 . S
C111 O124 1.236 . S
C112 O134 1.240 . S
C112 O135 1.264 . S
O113 Mn108 2.095 . S
O113 C122 1.250 . S
O114 Mn109 2.121 . S
O114 C122 1.258 . S
C115 N116 1.326 . S
C115 C119 1.460 . S
C115 H121 0.929 . S
N116 Mn109 2.257 1_545 S
N116 C115 1.326 . S
N116 C120 1.362 . S
C117 C118 1.258 . S
C117 C120 1.431 . S
C117 C137 1.449 . S
C118 C117 1.258 . S
C118 C119 1.477 . S
C118 H138 0.931 . S
C119 C115 1.460 . S
C119 C118 1.477 . S
C119 H139 0.930 . S
C120 N116 1.362 . S
C120 C117 1.431 . S
C120 C130 1.476 1_545 S
H121 C115 0.929 . S
C122 O113 1.250 . S
C122 O114 1.258 . S
O123 Mn108 2.162 1_545 S
O123 C111 1.281 . S
O124 Mn108 2.297 1_545 S
O124 C111 1.236 . S
N125 Mn109 2.282 . S
N125 C126 1.328 . S
N125 C130 1.318 . S
C126 N125 1.328 . S
C126 C127 1.457 . S
C126 H131 0.929 . S
C127 C126 1.457 . S
C127 C128 1.291 . S
C127 H140 0.931 . S
C128 C127 1.291 . S
C128 C129 1.373 . S
C128 H141 0.929 . S
C129 C128 1.373 . S
C129 C130 1.396 . S
C129 C136 1.403 . S
C130 C120 1.476 1_565 S
C130 N125 1.318 . S
C130 C129 1.396 . S
H131 C126 0.929 . S
O132 Mn108 2.385 1_545 S
O132 C110 1.234 . S
O133 Mn108 2.209 1_545 S
O133 Mn109 2.215 1_545 S
O133 C110 1.283 . S
O134 Mn108 2.094 . S
O134 C112 1.240 . S
O135 Mn109 2.117 . S
O135 C112 1.264 . S
C136 C129 1.403 . S
C136 C137 1.399 1_565 S
C136 H142 0.929 . S
C137 C117 1.449 . S
C137 C136 1.399 1_545 S
C137 H143 0.930 . S
H138 C118 0.931 . S
H139 C119 0.930 . S
H140 C127 0.931 . S
H141 C128 0.929 . S
H142 C136 0.929 . S
H143 C137 0.930 . S
Mn144 O149 2.095 . S
Mn144 O159 2.162 1_655 S
Mn144 O160 2.297 1_655 S
Mn144 O168 2.385 1_655 S
Mn144 O169 2.209 1_655 S
Mn144 O170 2.094 . S
Mn145 O150 2.121 . S
Mn145 N152 2.257 1_655 S
Mn145 N161 2.282 . S
Mn145 O169 2.215 1_655 S
Mn145 O171 2.117 . S
C146 O168 1.234 . S
C146 O169 1.283 . S
C147 O159 1.281 . S
C147 O160 1.236 . S
C148 O170 1.240 . S
C148 O171 1.264 . S
O149 Mn144 2.095 . S
O149 C158 1.250 . S
O150 Mn145 2.121 . S
O150 C158 1.258 . S
C151 N152 1.314 1_554 S
C151 C155 1.469 . S
C151 H157 0.933 . S
N152 Mn145 2.257 1_455 S
N152 C151 1.314 1_556 S
N152 C156 1.362 . S
C153 C154 1.258 1_556 S
C153 C156 1.431 . S
C153 C173 1.449 . S
C154 C153 1.258 1_554 S
C154 C155 1.477 . S
C154 H174 0.931 . S
C155 C151 1.469 . S
C155 C154 1.477 . S
C155 H175 0.930 . S
C156 N152 1.362 . S
C156 C153 1.431 . S
C156 C166 1.476 1_455 S
H157 C151 0.933 . S
C158 O149 1.250 . S
C158 O150 1.258 . S
O159 Mn144 2.162 1_455 S
O159 C147 1.281 . S
O160 Mn144 2.297 1_455 S
O160 C147 1.236 . S
N161 Mn145 2.282 . S
N161 C162 1.328 . S
N161 C166 1.318 . S
C162 N161 1.328 . S
C162 C163 1.457 . S
C162 H167 0.929 . S
C163 C162 1.457 . S
C163 C164 1.291 . S
C163 H176 0.931 . S
C164 C163 1.291 . S
C164 C165 1.373 . S
C164 H177 0.929 . S
C165 C164 1.373 . S
C165 C166 1.396 . S
C165 C172 1.403 . S
C166 C156 1.476 1_655 S
C166 N161 1.318 . S
C166 C165 1.396 . S
H167 C162 0.929 . S
O168 Mn144 2.385 1_455 S
O168 C146 1.234 . S
O169 Mn144 2.209 1_455 S
O169 Mn145 2.215 1_455 S
O169 C146 1.283 . S
O170 Mn144 2.094 . S
O170 C148 1.240 . S
O171 Mn145 2.117 . S
O171 C148 1.264 . S
C172 C165 1.403 . S
C172 C173 1.399 1_655 S
C172 H178 0.929 1_545 S
C173 C153 1.449 . S
C173 C172 1.399 1_455 S
C173 H179 0.930 . S
H174 C154 0.931 . S
H175 C155 0.930 . S
H176 C163 0.931 . S
H177 C164 0.929 . S
H178 C172 0.929 1_565 S
H179 C173 0.930 . S
Mn180 O185 2.095 . S
Mn180 O195 2.162 . S
Mn180 O196 2.297 . S
Mn180 O204 2.385 . S
Mn180 O205 2.209 . S
Mn180 O206 2.094 . S
Mn181 O186 2.121 . S
Mn181 N188 2.257 . S
Mn181 N197 2.282 . S
Mn181 O205 2.215 . S
Mn181 O207 2.117 . S
C182 O204 1.234 . S
C182 O205 1.283 . S
C183 O195 1.281 . S
C183 O196 1.236 . S
C184 O206 1.240 . S
C184 O207 1.264 . S
O185 Mn180 2.095 . S
O185 C194 1.250 . S
O186 Mn181 2.121 . S
O186 C194 1.258 . S
C187 N188 1.326 . S
C187 C191 1.460 . S
C187 H193 0.929 . S
N188 Mn181 2.257 . S
N188 C187 1.326 . S
N188 C192 1.362 . S
C189 C190 1.258 . S
C189 C192 1.431 . S
C189 C209 1.449 . S
C190 C189 1.258 . S
C190 C191 1.477 . S
C190 H210 0.931 . S
C191 C187 1.460 . S
C191 C190 1.477 . S
C191 H211 0.930 . S
C192 N188 1.362 . S
C192 C189 1.431 . S
C192 C202 1.476 . S
H193 C187 0.929 . S
C194 O185 1.250 . S
C194 O186 1.258 . S
O195 Mn180 2.162 . S
O195 C183 1.281 . S
O196 Mn180 2.297 . S
O196 C183 1.236 . S
N197 Mn181 2.282 . S
N197 C198 1.328 . S
N197 C202 1.318 . S
C198 N197 1.328 . S
C198 C199 1.457 . S
C198 H203 0.929 . S
C199 C198 1.457 . S
C199 C200 1.291 . S
C199 H212 0.931 . S
C200 C199 1.291 . S
C200 C201 1.373 . S
C200 H213 0.929 . S
C201 C200 1.373 . S
C201 C202 1.396 . S
C201 C208 1.403 . S
C202 C192 1.476 . S
C202 N197 1.318 . S
C202 C201 1.396 . S
H203 C198 0.929 . S
O204 Mn180 2.385 . S
O204 C182 1.234 . S
O205 Mn180 2.209 . S
O205 Mn181 2.215 . S
O205 C182 1.283 . S
O206 Mn180 2.094 . S
O206 C184 1.240 . S
O207 Mn181 2.117 . S
O207 C184 1.264 . S
C208 C201 1.403 . S
C208 C209 1.399 . S
C208 H214 0.929 1_655 S
C209 C189 1.449 . S
C209 C208 1.399 . S
C209 H215 0.930 . S
H210 C190 0.931 . S
H211 C191 0.930 . S
H212 C199 0.931 . S
H213 C200 0.929 . S
H214 C208 0.929 1_455 S
H215 C209 0.930 . S
Mn216 O221 2.095 . S
Mn216 O231 2.162 . S
Mn216 O232 2.297 . S
Mn216 O240 2.385 . S
Mn216 O241 2.209 . S
Mn216 O242 2.094 . S
Mn217 O222 2.121 . S
Mn217 N224 2.257 . S
Mn217 N233 2.282 . S
Mn217 O241 2.215 . S
Mn217 O243 2.117 . S
C218 O240 1.234 . S
C218 O241 1.283 . S
C219 O231 1.281 . S
C219 O232 1.236 . S
C220 O242 1.240 . S
C220 O243 1.264 . S
O221 Mn216 2.095 . S
O221 C230 1.250 . S
O222 Mn217 2.121 . S
O222 C230 1.258 . S
C223 N224 1.315 1_554 S
C223 C227 1.468 . S
C223 H229 0.933 . S
N224 Mn217 2.257 . S
N224 C223 1.315 1_556 S
N224 C228 1.362 . S
C225 C226 1.258 1_556 S
C225 C228 1.431 . S
C225 C245 1.449 . S
C226 C225 1.258 1_554 S
C226 C227 1.477 . S
C226 H246 0.931 . S
C227 C223 1.468 . S
C227 C226 1.477 . S
C227 H247 0.930 . S
C228 N224 1.362 . S
C228 C225 1.431 . S
C228 C238 1.476 . S
H229 C223 0.933 . S
C230 O221 1.250 . S
C230 O222 1.258 . S
O231 Mn216 2.162 . S
O231 C219 1.281 . S
O232 Mn216 2.297 . S
O232 C219 1.236 . S
N233 Mn217 2.282 . S
N233 C234 1.328 . S
N233 C238 1.318 . S
C234 N233 1.328 . S
C234 C235 1.457 . S
C234 H239 0.929 . S
C235 C234 1.457 . S
C235 C236 1.291 . S
C235 H248 0.931 . S
C236 C235 1.291 . S
C236 C237 1.373 . S
C236 H249 0.929 . S
C237 C236 1.373 . S
C237 C238 1.396 . S
C237 C244 1.403 . S
C238 C228 1.476 . S
C238 N233 1.318 . S
C238 C237 1.396 . S
H239 C234 0.929 . S
O240 Mn216 2.385 . S
O240 C218 1.234 . S
O241 Mn216 2.209 . S
O241 Mn217 2.215 . S
O241 C218 1.283 . S
O242 Mn216 2.094 . S
O242 C220 1.240 . S
O243 Mn217 2.117 . S
O243 C220 1.264 . S
C244 C237 1.403 . S
C244 C245 1.399 . S
C244 H250 0.929 . S
C245 C225 1.449 . S
C245 C244 1.399 . S
C245 H251 0.930 . S
H246 C226 0.931 . S
H247 C227 0.930 . S
H248 C235 0.931 . S
H249 C236 0.929 . S
H250 C244 0.929 . S
H251 C245 0.930 . S
Mn252 O257 2.095 . S
Mn252 O267 2.162 1_545 S
Mn252 O268 2.297 1_545 S
Mn252 O276 2.385 1_545 S
Mn252 O277 2.209 1_545 S
Mn252 O278 2.094 . S
Mn253 O258 2.121 . S
Mn253 N260 2.257 1_545 S
Mn253 N269 2.282 . S
Mn253 O277 2.215 1_545 S
Mn253 O279 2.117 . S
C254 O276 1.234 . S
C254 O277 1.283 . S
C255 O267 1.281 . S
C255 O268 1.236 . S
C256 O278 1.240 . S
C256 O279 1.264 . S
O257 Mn252 2.095 . S
O257 C266 1.250 . S
O258 Mn253 2.121 . S
O258 C266 1.258 . S
C259 N260 1.326 . S
C259 C263 1.460 . S
C259 H265 0.929 . S
N260 Mn253 2.257 1_565 S
N260 C259 1.326 . S
N260 C264 1.362 . S
C261 C262 1.258 . S
C261 C264 1.431 . S
C261 C281 1.449 . S
C262 C261 1.258 . S
C262 C263 1.477 . S
C262 H282 0.931 . S
C263 C259 1.460 . S
C263 C262 1.477 . S
C263 H283 0.930 . S
C264 N260 1.362 . S
C264 C261 1.431 . S
C264 C274 1.476 1_565 S
H265 C259 0.929 . S
C266 O257 1.250 . S
C266 O258 1.258 . S
O267 Mn252 2.162 1_565 S
O267 C255 1.281 . S
O268 Mn252 2.297 1_565 S
O268 C255 1.236 . S
N269 Mn253 2.282 . S
N269 C270 1.328 . S
N269 C274 1.318 . S
C270 N269 1.328 . S
C270 C271 1.457 . S
C270 H275 0.929 . S
C271 C270 1.457 . S
C271 C272 1.291 . S
C271 H284 0.931 . S
C272 C271 1.291 . S
C272 C273 1.373 . S
C272 H285 0.929 . S
C273 C272 1.373 . S
C273 C274 1.396 . S
C273 C280 1.403 . S
C274 C264 1.476 1_545 S
C274 N269 1.318 . S
C274 C273 1.396 . S
H275 C270 0.929 . S
O276 Mn252 2.385 1_565 S
O276 C254 1.234 . S
O277 Mn252 2.209 1_565 S
O277 Mn253 2.215 1_565 S
O277 C254 1.283 . S
O278 Mn252 2.094 . S
O278 C256 1.240 . S
O279 Mn253 2.117 . S
O279 C256 1.264 . S
C280 C273 1.403 . S
C280 C281 1.399 1_545 S
C280 H286 0.929 . S
C281 C261 1.449 . S
C281 C280 1.399 1_565 S
C281 H287 0.930 . S
H282 C262 0.931 . S
H283 C263 0.930 . S
H284 C271 0.931 . S
H285 C272 0.929 . S
H286 C280 0.929 . S
H287 C281 0.930 . S
C288 C289 1.363 1_455 S
C288 C294 1.379 . S
C288 N296 1.356 . S
C289 C288 1.363 1_655 S
C289 C295 1.363 1_556 S
C290 C291 1.363 1_655 S
C290 C295 1.379 . S
C290 N297 1.356 . S
C291 C290 1.363 1_455 S
C291 C294 1.363 1_554 S
N292 C294 1.356 . S
N292 H304 0.984 . S
N292 H305 0.985 1_556 S
N293 C295 1.356 . S
N293 H298 0.984 1_554 S
N293 H299 0.985 . S
C294 C288 1.379 . S
C294 C291 1.363 1_556 S
C294 N292 1.356 . S
C295 C289 1.363 1_554 S
C295 C290 1.379 . S
C295 N293 1.356 . S
N296 C288 1.356 . S
N296 H302 0.984 . S
N296 H303 0.984 . S
N297 C290 1.356 . S
N297 H300 0.984 . S
N297 H301 0.985 . S
H298 N293 0.984 1_556 S
H299 N293 0.985 . S
H300 N297 0.984 . S
H301 N297 0.985 . S
H302 N296 0.984 . S
H303 N296 0.984 . S
H304 N292 0.984 . S
H305 N292 0.985 1_554 S
C306 C307 1.363 . S
C306 C312 1.379 . S
C306 N314 1.356 . S
C307 C306 1.363 . S
C307 C313 1.363 . S
C308 C309 1.363 . S
C308 C313 1.379 . S
C308 N315 1.356 . S
C309 C308 1.363 . S
C309 C312 1.363 . S
N310 C312 1.356 . S
N310 H322 0.984 . S
N310 H323 0.985 . S
N311 C313 1.356 . S
N311 H316 0.984 . S
N311 H317 0.985 . S
C312 C306 1.379 . S
C312 C309 1.363 . S
C312 N310 1.356 . S
C313 C307 1.363 . S
C313 C308 1.379 . S
C313 N311 1.356 . S
N314 C306 1.356 . S
N314 H320 0.984 . S
N314 H321 0.984 . S
N315 C308 1.356 . S
N315 H318 0.984 . S
N315 H319 0.985 . S
H316 N311 0.984 . S
H317 N311 0.985 . S
H318 N315 0.984 . S
H319 N315 0.985 . S
H320 N314 0.984 . S
H321 N314 0.984 . S
H322 N310 0.984 . S
H323 N310 0.985 . S
C324 C325 1.356 1_545 S
C324 C330 1.386 . S
C324 N332 1.354 1_545 S
C325 C324 1.356 1_565 S
C325 C331 1.363 1_554 S
C326 C327 1.356 1_565 S
C326 C331 1.386 . S
C326 N333 1.354 1_565 S
C327 C326 1.356 1_545 S
C327 C330 1.363 1_556 S
N328 C330 1.356 . S
N328 H340 0.984 . S
N328 H341 0.985 1_554 S
N329 C331 1.356 . S
N329 H334 0.984 1_556 S
N329 H335 0.985 . S
C330 C324 1.386 . S
C330 C327 1.363 1_554 S
C330 N328 1.356 . S
C331 C325 1.363 1_556 S
C331 C326 1.386 . S
C331 N329 1.356 . S
N332 C324 1.354 1_565 S
N332 H338 0.984 1_565 S
N332 H339 0.984 . S
N333 C326 1.354 1_545 S
N333 H336 0.984 . S
N333 H337 0.985 1_545 S
H334 N329 0.984 1_554 S
H335 N329 0.985 . S
H336 N333 0.984 . S
H337 N333 0.985 1_565 S
H338 N332 0.984 1_545 S
H339 N332 0.984 . S
H340 N328 0.984 . S
H341 N328 0.985 1_556 S
C342 C343 1.363 1_565 S
C342 C348 1.379 1_655 S
C342 N350 1.356 . S
C343 C342 1.363 1_545 S
C343 C349 1.363 . S
C344 C345 1.363 1_545 S
C344 C349 1.379 1_455 S
C344 N351 1.356 . S
C345 C344 1.363 1_565 S
C345 C348 1.363 . S
N346 C348 1.356 . S
N346 H358 0.984 . S
N346 H359 0.985 . S
N347 C349 1.356 . S
N347 H352 0.984 . S
N347 H353 0.985 . S
C348 C342 1.379 1_455 S
C348 C345 1.363 . S
C348 N346 1.356 . S
C349 C343 1.363 . S
C349 C344 1.379 1_655 S
C349 N347 1.356 . S
N350 C342 1.356 . S
N350 H356 0.984 . S
N350 H357 0.984 . S
N351 C344 1.356 . S
N351 H354 0.984 . S
N351 H355 0.985 . S
H352 N347 0.984 . S
H353 N347 0.985 . S
H354 N351 0.984 . S
H355 N351 0.985 . S
H356 N350 0.984 . S
H357 N350 0.984 . S
H358 N346 0.984 . S
H359 N346 0.985 . S
C360 C361 1.363 . S
C360 C366 1.379 . S
C360 N368 1.356 . S
C361 C360 1.363 . S
C361 C367 1.363 . S
C362 C363 1.363 . S
C362 C367 1.379 . S
C362 N369 1.356 . S
C363 C362 1.363 . S
C363 C366 1.363 . S
N364 C366 1.356 . S
N364 H376 0.984 . S
N364 H377 0.985 . S
N365 C367 1.356 . S
N365 H370 0.984 . S
N365 H371 0.985 . S
C366 C360 1.379 . S
C366 C363 1.363 . S
C366 N364 1.356 . S
C367 C361 1.363 . S
C367 C362 1.379 . S
C367 N365 1.356 . S
N368 C360 1.356 . S
N368 H374 0.984 . S
N368 H375 0.984 . S
N369 C362 1.356 . S
N369 H372 0.984 . S
N369 H373 0.985 . S
H370 N365 0.984 . S
H371 N365 0.985 . S
H372 N369 0.984 . S
H373 N369 0.985 . S
H374 N368 0.984 . S
H375 N368 0.984 . S
H376 N364 0.984 . S
H377 N364 0.985 . S
C378 C379 1.363 . S
C378 C384 1.379 . S
C378 N386 1.356 . S
C379 C378 1.363 . S
C379 C385 1.363 . S
C380 C381 1.363 . S
C380 C385 1.379 . S
C380 N387 1.356 . S
C381 C380 1.363 . S
C381 C384 1.363 . S
N382 C384 1.356 . S
N382 H394 0.984 . S
N382 H395 0.985 . S
N383 C385 1.356 . S
N383 H388 0.984 . S
N383 H389 0.985 . S
C384 C378 1.379 . S
C384 C381 1.363 . S
C384 N382 1.356 . S
C385 C379 1.363 . S
C385 C380 1.379 . S
C385 N383 1.356 . S
N386 C378 1.356 . S
N386 H392 0.984 . S
N386 H393 0.984 . S
N387 C380 1.356 . S
N387 H390 0.984 . S
N387 H391 0.985 . S
H388 N383 0.984 . S
H389 N383 0.985 . S
H390 N387 0.984 . S
H391 N387 0.985 . S
H392 N386 0.984 . S
H393 N386 0.984 . S
H394 N382 0.984 . S
H395 N382 0.985 . S
C396 C397 1.363 . S
C396 C402 1.379 . S
C396 N404 1.356 . S
C397 C396 1.363 . S
C397 C403 1.363 . S
C398 C399 1.363 . S
C398 C403 1.379 . S
C398 N405 1.356 . S
C399 C398 1.363 . S
C399 C402 1.363 . S
N400 C402 1.356 . S
N400 H412 0.984 . S
N400 H413 0.985 . S
N401 C403 1.356 . S
N401 H406 0.984 . S
N401 H407 0.985 . S
C402 C396 1.379 . S
C402 C399 1.363 . S
C402 N400 1.356 . S
C403 C397 1.363 . S
C403 C398 1.379 . S
C403 N401 1.356 . S
N404 C396 1.356 . S
N404 H410 0.984 . S
N404 H411 0.984 . S
N405 C398 1.356 . S
N405 H408 0.984 . S
N405 H409 0.985 . S
H406 N401 0.984 . S
H407 N401 0.985 . S
H408 N405 0.984 . S
H409 N405 0.985 . S
H410 N404 0.984 . S
H411 N404 0.984 . S
H412 N400 0.984 . S
H413 N400 0.985 . S
C414 C415 1.363 . S
C414 C420 1.379 . S
C414 N422 1.356 . S
C415 C414 1.363 . S
C415 C421 1.363 . S
C416 C417 1.363 . S
C416 C421 1.379 . S
C416 N423 1.356 . S
C417 C416 1.363 . S
C417 C420 1.363 . S
N418 C420 1.356 . S
N418 H430 0.984 . S
N418 H431 0.985 . S
N419 C421 1.356 . S
N419 H424 0.984 . S
N419 H425 0.985 . S
C420 C414 1.379 . S
C420 C417 1.363 . S
C420 N418 1.356 . S
C421 C415 1.363 . S
C421 C416 1.379 . S
C421 N419 1.356 . S
N422 C414 1.356 . S
N422 H428 0.984 . S
N422 H429 0.984 . S
N423 C416 1.356 . S
N423 H426 0.984 . S
N423 H427 0.985 . S
H424 N419 0.984 . S
H425 N419 0.985 . S
H426 N423 0.984 . S
H427 N423 0.985 . S
H428 N422 0.984 . S
H429 N422 0.984 . S
H430 N418 0.984 . S
H431 N418 0.985 . S
C432 C433 1.363 . S
C432 C438 1.379 . S
C432 N440 1.356 . S
C433 C432 1.363 . S
C433 C439 1.363 . S
C434 C435 1.363 . S
C434 C439 1.379 . S
C434 N441 1.356 . S
C435 C434 1.363 . S
C435 C438 1.363 . S
N436 C438 1.356 . S
N436 H448 0.984 . S
N436 H449 0.985 . S
N437 C439 1.356 . S
N437 H442 0.984 . S
N437 H443 0.985 . S
C438 C432 1.379 . S
C438 C435 1.363 . S
C438 N436 1.356 . S
C439 C433 1.363 . S
C439 C434 1.379 . S
C439 N437 1.356 . S
N440 C432 1.356 . S
N440 H446 0.984 . S
N440 H447 0.984 . S
N441 C434 1.356 . S
N441 H444 0.984 . S
N441 H445 0.985 . S
H442 N437 0.984 . S
H443 N437 0.985 . S
H444 N441 0.984 . S
H445 N441 0.985 . S
H446 N440 0.984 . S
H447 N440 0.984 . S
H448 N436 0.984 . S
H449 N436 0.985 . S
C450 C451 1.363 . S
C450 C456 1.379 . S
C450 N458 1.356 . S
C451 C450 1.363 . S
C451 C457 1.363 . S
C452 C453 1.363 . S
C452 C457 1.379 . S
C452 N459 1.356 . S
C453 C452 1.363 . S
C453 C456 1.363 . S
N454 C456 1.356 . S
N454 H466 0.984 . S
N454 H467 0.985 . S
N455 C457 1.356 . S
N455 H460 0.984 . S
N455 H461 0.985 . S
C456 C450 1.379 . S
C456 C453 1.363 . S
C456 N454 1.356 . S
C457 C451 1.363 . S
C457 C452 1.379 . S
C457 N455 1.356 . S
N458 C450 1.356 . S
N458 H464 0.984 . S
N458 H465 0.984 . S
N459 C452 1.356 . S
N459 H462 0.984 . S
N459 H463 0.985 . S
H460 N455 0.984 . S
H461 N455 0.985 . S
H462 N459 0.984 . S
H463 N459 0.985 . S
H464 N458 0.984 . S
H465 N458 0.984 . S
H466 N454 0.984 . S
H467 N454 0.985 . S
C468 C469 1.363 . S
C468 C474 1.379 . S
C468 N476 1.356 1_565 S
C469 C468 1.363 . S
C469 C475 1.363 . S
C470 C471 1.363 . S
C470 C475 1.379 . S
C470 N477 1.356 . S
C471 C470 1.363 . S
C471 C474 1.363 . S
N472 C474 1.356 1_545 S
N472 H484 0.984 . S
N472 H485 0.985 . S
N473 C475 1.356 . S
N473 H478 0.984 . S
N473 H479 0.985 . S
C474 C468 1.379 . S
C474 C471 1.363 . S
C474 N472 1.356 1_565 S
C475 C469 1.363 . S
C475 C470 1.379 . S
C475 N473 1.356 . S
N476 C468 1.356 1_545 S
N476 H482 0.984 . S
N476 H483 0.984 1_545 S
N477 C470 1.356 . S
N477 H480 0.984 . S
N477 H481 0.985 . S
H478 N473 0.984 . S
H479 N473 0.985 . S
H480 N477 0.984 . S
H481 N477 0.985 . S
H482 N476 0.984 . S
H483 N476 0.984 1_565 S
H484 N472 0.984 . S
H485 N472 0.985 . S
C486 C487 1.363 . S
C486 C492 1.379 . S
C486 N494 1.356 . S
C487 C486 1.363 . S
C487 C493 1.363 . S
C488 C489 1.363 . S
C488 C493 1.379 . S
C488 N495 1.356 . S
C489 C488 1.363 . S
C489 C492 1.363 . S
N490 C492 1.356 . S
N490 H502 0.984 . S
N490 H503 0.985 . S
N491 C493 1.356 . S
N491 H496 0.984 . S
N491 H497 0.985 . S
C492 C486 1.379 . S
C492 C489 1.363 . S
C492 N490 1.356 . S
C493 C487 1.363 . S
C493 C488 1.379 . S
C493 N491 1.356 . S
N494 C486 1.356 . S
N494 H500 0.984 . S
N494 H501 0.984 . S
N495 C488 1.356 . S
N495 H498 0.984 . S
N495 H499 0.985 . S
H496 N491 0.984 . S
H497 N491 0.985 . S
H498 N495 0.984 . S
H499 N495 0.985 . S
H500 N494 0.984 . S
H501 N494 0.984 . S
H502 N490 0.984 . S
H503 N490 0.985 . S
C504 C505 1.363 . S
C504 C510 1.379 . S
C504 N512 1.356 . S
C505 C504 1.363 . S
C505 C511 1.363 . S
C506 C507 1.363 . S
C506 C511 1.379 . S
C506 N513 1.356 . S
C507 C506 1.363 . S
C507 C510 1.363 . S
N508 C510 1.356 . S
N508 H520 0.984 . S
N508 H521 0.985 . S
N509 C511 1.356 . S
N509 H514 0.984 . S
N509 H515 0.985 . S
C510 C504 1.379 . S
C510 C507 1.363 . S
C510 N508 1.356 . S
C511 C505 1.363 . S
C511 C506 1.379 . S
C511 N509 1.356 . S
N512 C504 1.356 . S
N512 H518 0.984 . S
N512 H519 0.984 . S
N513 C506 1.356 . S
N513 H516 0.984 . S
N513 H517 0.985 . S
H514 N509 0.984 . S
H515 N509 0.985 . S
H516 N513 0.984 . S
H517 N513 0.985 . S
H518 N512 0.984 . S
H519 N512 0.984 . S
H520 N508 0.984 . S
H521 N508 0.985 . S
C522 C523 1.363 . S
C522 C528 1.379 . S
C522 N530 1.356 . S
C523 C522 1.363 . S
C523 C529 1.363 . S
C524 C525 1.363 . S
C524 C529 1.379 . S
C524 N531 1.356 . S
C525 C524 1.363 . S
C525 C528 1.363 . S
N526 C528 1.356 . S
N526 H538 0.984 . S
N526 H539 0.985 . S
N527 C529 1.356 . S
N527 H532 0.984 . S
N527 H533 0.985 . S
C528 C522 1.379 . S
C528 C525 1.363 . S
C528 N526 1.356 . S
C529 C523 1.363 . S
C529 C524 1.379 . S
C529 N527 1.356 . S
N530 C522 1.356 . S
N530 H536 0.984 . S
N530 H537 0.984 . S
N531 C524 1.356 . S
N531 H534 0.984 . S
N531 H535 0.985 . S
H532 N527 0.984 . S
H533 N527 0.985 . S
H534 N531 0.984 . S
H535 N531 0.985 . S
H536 N530 0.984 . S
H537 N530 0.984 . S
H538 N526 0.984 . S
H539 N526 0.985 . S
C540 C541 1.363 . S
C540 C546 1.379 . S
C540 N548 1.356 . S
C541 C540 1.363 . S
C541 C547 1.363 . S
C542 C543 1.363 1_565 S
C542 C547 1.379 1_565 S
C542 N549 1.356 . S
C543 C542 1.363 1_545 S
C543 C546 1.363 . S
N544 C546 1.356 . S
N544 H556 0.984 . S
N544 H557 0.985 . S
N545 C547 1.356 1_565 S
N545 H550 0.984 . S
N545 H551 0.985 . S
C546 C540 1.379 . S
C546 C543 1.363 . S
C546 N544 1.356 . S
C547 C541 1.363 . S
C547 C542 1.379 1_545 S
C547 N545 1.356 1_545 S
N548 C540 1.356 . S
N548 H554 0.984 . S
N548 H555 0.984 . S
N549 C542 1.356 . S
N549 H552 0.984 . S
N549 H553 0.985 . S
H550 N545 0.984 . S
H551 N545 0.985 . S
H552 N549 0.984 . S
H553 N549 0.985 . S
H554 N548 0.984 . S
H555 N548 0.984 . S
H556 N544 0.984 . S
H557 N544 0.985 . S
C558 C559 1.363 . S
C558 C564 1.379 . S
C558 N566 1.356 . S
C559 C558 1.363 . S
C559 C565 1.363 . S
C560 C561 1.363 . S
C560 C565 1.379 . S
C560 N567 1.356 . S
C561 C560 1.363 . S
C561 C564 1.363 . S
N562 C564 1.356 . S
N562 H574 0.984 . S
N562 H575 0.985 . S
N563 C565 1.356 . S
N563 H568 0.984 . S
N563 H569 0.985 1_655 S
C564 C558 1.379 . S
C564 C561 1.363 . S
C564 N562 1.356 . S
C565 C559 1.363 . S
C565 C560 1.379 . S
C565 N563 1.356 . S
N566 C558 1.356 . S
N566 H572 0.984 . S
N566 H573 0.984 . S
N567 C560 1.356 . S
N567 H570 0.984 . S
N567 H571 0.985 . S
H568 N563 0.984 . S
H569 N563 0.985 1_455 S
H570 N567 0.984 . S
H571 N567 0.985 . S
H572 N566 0.984 . S
H573 N566 0.984 . S
H574 N562 0.984 . S
H575 N562 0.985 . S
C289 C158 1.677 . S
C291 C14 1.677 . S
C307 C50 1.676 . S
C309 C194 1.676 . S
C325 C86 1.676 . S
C327 C230 1.676 . S
C343 C266 1.676 . S
C345 C122 1.676 . S
C361 C4 1.471 . S
C363 C76 1.471 . S
C379 C40 1.471 . S
C381 C112 1.471 . S
C397 C220 1.471 . S
C399 C148 1.471 . S
C415 C184 1.471 . S
C417 C256 1.471 . S
C433 C182 1.133 . S
C435 C3 1.165 . S
C451 C39 1.165 . S
C453 C218 1.133 . S
C469 C75 1.165 . S
C471 C254 1.133 . S
C487 C146 1.133 . S
C489 C111 1.165 . S
C505 C147 1.165 . S
C507 C38 1.133 . S
C523 C183 1.165 . S
C525 C74 1.133 . S
C541 C219 1.165 . S
C543 C110 1.133 . S
C559 C2 1.133 . S
C561 C255 1.165 . S
