# Generated by pormake.
# Topology uma, (4)-cn, num edge types: 1
# Building blocks:
#     Node 0, Type 0, BuildingBlock: MUDLON_clean_sbu_0, # of connection points: 4
#     Node 1, Type 0, BuildingBlock: MUDLON_clean_sbu_0, # of connection points: 4
#     Node 2, Type 0, BuildingBlock: MUDLON_clean_sbu_0, # of connection points: 4
#     Node 3, Type 0, BuildingBlock: MUDLON_clean_sbu_0, # of connection points: 4
#     Node 4, Type 0, BuildingBlock: MUDLON_clean_sbu_0, # of connection points: 4
#     Node 5, Type 0, BuildingBlock: MUDLON_clean_sbu_0, # of connection points: 4
#     Node 6, Type 0, BuildingBlock: MUDLON_clean_sbu_0, # of connection points: 4
#     Node 7, Type 0, BuildingBlock: MUDLON_clean_sbu_0, # of connection points: 4
#     Node 8, Type 0, BuildingBlock: MUDLON_clean_sbu_0, # of connection points: 4
#     Node 9, Type 0, BuildingBlock: MUDLON_clean_sbu_0, # of connection points: 4
#     Node 10, Type 0, BuildingBlock: MUDLON_clean_sbu_0, # of connection points: 4
#     Node 11, Type 0, BuildingBlock: MUDLON_clean_sbu_0, # of connection points: 4
#     Node 12, Type 0, BuildingBlock: MUDLON_clean_sbu_0, # of connection points: 4
#     Node 13, Type 0, BuildingBlock: MUDLON_clean_sbu_0, # of connection points: 4
#     Node 14, Type 0, BuildingBlock: MUDLON_clean_sbu_0, # of connection points: 4
#     Node 15, Type 0, BuildingBlock: MUDLON_clean_sbu_0, # of connection points: 4
#     Node 16, Type 0, BuildingBlock: MUDLON_clean_sbu_0, # of connection points: 4
#     Node 17, Type 0, BuildingBlock: MUDLON_clean_sbu_0, # of connection points: 4
#     Node 18, Type 0, BuildingBlock: MUDLON_clean_sbu_0, # of connection points: 4
#     Node 19, Type 0, BuildingBlock: MUDLON_clean_sbu_0, # of connection points: 4
#     Node 20, Type 0, BuildingBlock: MUDLON_clean_sbu_0, # of connection points: 4
#     Node 21, Type 0, BuildingBlock: MUDLON_clean_sbu_0, # of connection points: 4
#     Node 22, Type 0, BuildingBlock: MUDLON_clean_sbu_0, # of connection points: 4
#     Node 23, Type 0, BuildingBlock: MUDLON_clean_sbu_0, # of connection points: 4
#     Node 24, Type 0, BuildingBlock: MUDLON_clean_sbu_0, # of connection points: 4
#     Node 25, Type 0, BuildingBlock: MUDLON_clean_sbu_0, # of connection points: 4
#     Node 26, Type 0, BuildingBlock: MUDLON_clean_sbu_0, # of connection points: 4
#     Node 27, Type 0, BuildingBlock: MUDLON_clean_sbu_0, # of connection points: 4
#     Node 28, Type 0, BuildingBlock: MUDLON_clean_sbu_0, # of connection points: 4
#     Node 29, Type 0, BuildingBlock: MUDLON_clean_sbu_0, # of connection points: 4
#     Node 30, Type 0, BuildingBlock: MUDLON_clean_sbu_0, # of connection points: 4
#     Node 31, Type 0, BuildingBlock: MUDLON_clean_sbu_0, # of connection points: 4
#     Node 32, Type 0, BuildingBlock: MUDLON_clean_sbu_0, # of connection points: 4
#     Node 33, Type 0, BuildingBlock: MUDLON_clean_sbu_0, # of connection points: 4
#     Node 34, Type 0, BuildingBlock: MUDLON_clean_sbu_0, # of connection points: 4
#     Node 35, Type 0, BuildingBlock: MUDLON_clean_sbu_0, # of connection points: 4
#     Edge 36, Type (0, 0), None
#     Edge 37, Type (0, 0), None
#     Edge 38, Type (0, 0), None
#     Edge 39, Type (0, 0), None
#     Edge 40, Type (0, 0), None
#     Edge 41, Type (0, 0), None
#     Edge 42, Type (0, 0), None
#     Edge 43, Type (0, 0), None
#     Edge 44, Type (0, 0), None
#     Edge 45, Type (0, 0), None
#     Edge 46, Type (0, 0), None
#     Edge 47, Type (0, 0), None
#     Edge 48, Type (0, 0), None
#     Edge 49, Type (0, 0), None
#     Edge 50, Type (0, 0), None
#     Edge 51, Type (0, 0), None
#     Edge 52, Type (0, 0), None
#     Edge 53, Type (0, 0), None
#     Edge 54, Type (0, 0), None
#     Edge 55, Type (0, 0), None
#     Edge 56, Type (0, 0), None
#     Edge 57, Type (0, 0), None
#     Edge 58, Type (0, 0), None
#     Edge 59, Type (0, 0), None
#     Edge 60, Type (0, 0), None
#     Edge 61, Type (0, 0), None
#     Edge 62, Type (0, 0), None
#     Edge 63, Type (0, 0), None
#     Edge 64, Type (0, 0), None
#     Edge 65, Type (0, 0), None
#     Edge 66, Type (0, 0), None
#     Edge 67, Type (0, 0), None
#     Edge 68, Type (0, 0), None
#     Edge 69, Type (0, 0), None
#     Edge 70, Type (0, 0), None
#     Edge 71, Type (0, 0), None
#     Edge 72, Type (0, 0), None
#     Edge 73, Type (0, 0), None
#     Edge 74, Type (0, 0), None
#     Edge 75, Type (0, 0), None
#     Edge 76, Type (0, 0), None
#     Edge 77, Type (0, 0), None
#     Edge 78, Type (0, 0), None
#     Edge 79, Type (0, 0), None
#     Edge 80, Type (0, 0), None
#     Edge 81, Type (0, 0), None
#     Edge 82, Type (0, 0), None
#     Edge 83, Type (0, 0), None
#     Edge 84, Type (0, 0), None
#     Edge 85, Type (0, 0), None
#     Edge 86, Type (0, 0), None
#     Edge 87, Type (0, 0), None
#     Edge 88, Type (0, 0), None
#     Edge 89, Type (0, 0), None
#     Edge 90, Type (0, 0), None
#     Edge 91, Type (0, 0), None
#     Edge 92, Type (0, 0), None
#     Edge 93, Type (0, 0), None
#     Edge 94, Type (0, 0), None
#     Edge 95, Type (0, 0), None
#     Edge 96, Type (0, 0), None
#     Edge 97, Type (0, 0), None
#     Edge 98, Type (0, 0), None
#     Edge 99, Type (0, 0), None
#     Edge 100, Type (0, 0), None
#     Edge 101, Type (0, 0), None
#     Edge 102, Type (0, 0), None
#     Edge 103, Type (0, 0), None
#     Edge 104, Type (0, 0), None
#     Edge 105, Type (0, 0), None
#     Edge 106, Type (0, 0), None
#     Edge 107, Type (0, 0), None
# Relax obj value: 0.095
# Max RMSD: 0.082
# Mean RMSD: 0.078
data_MOF--net-uma--node1-MUDLON_clean_sbu_0--edge1-none
_symmetry_space_group_name_H-M    P1
_symmetry_Int_Tables_number       1
_symmetry_cell_setting            triclinic
loop_
_symmetry_equiv_pos_as_xyz
'x, y, z'
_cell_length_a     39.127785
_cell_length_b     35.361877
_cell_length_c     18.413502
_cell_angle_alpha  93.04756
_cell_angle_beta   90.578341
_cell_angle_gamma 123.56857
loop_
_atom_site_label
_atom_site_type_symbol
_atom_site_fract_x
_atom_site_fract_y
_atom_site_fract_z
_atom_type_partial_charge
Mg0 Mg 0.12092 0.43731 0.07233 0.0
C1 C 0.07341 0.36694 0.93709 0.0
O2 O 0.06173 0.39413 0.92225 0.0
C3 C 0.12382 0.46369 0.22927 0.0
O4 O 0.15136 0.50267 0.20344 0.0
C5 C 0.20351 0.47787 1.00715 0.0
O6 O 0.18117 0.46931 0.94726 0.0
O7 O 0.18687 0.47097 0.06816 0.0
O8 O 0.09562 0.37581 0.99493 0.0
O9 O 0.10078 0.48254 0.05115 0.0
C10 C 0.06544 0.47274 0.06887 0.0
O11 O 0.05567 0.50237 0.0609 0.0
O12 O 0.10694 0.42741 0.18712 0.0
Mg13 Mg 0.6763 0.7782 1.02116 0.0
C14 C 0.66764 0.69373 0.99367 0.0
O15 O 0.70706 0.72499 1.00321 0.0
C16 C 0.6527 0.84142 0.07889 0.0
O17 O 0.67399 0.84189 0.13489 0.0
C18 C 0.65664 0.73275 0.16067 0.0
O19 O 0.62209 0.70763 0.1215 0.0
O20 O 0.68686 0.76847 0.1348 0.0
O21 O 0.64326 0.70658 0.98524 0.0
O22 O 0.72515 0.81163 0.94238 0.0
C23 C 0.73966 0.8526 0.92817 0.0
O24 O 0.73062 0.87692 0.96981 0.0
O25 O 0.64557 0.81484 1.02289 0.0
Mg26 Mg 0.284 0.96188 0.98016 0.0
C27 C 0.29946 0.92146 0.84268 0.0
O28 O 0.302 0.89755 0.89208 0.0
C29 C 0.35126 0.9975 0.10663 0.0
O30 O 0.35898 1.03737 0.09237 0.0
C31 C 0.19867 0.86867 0.97123 0.0
O32 O 0.21451 0.85538 0.92179 0.0
O33 O 0.22011 0.90899 1.00143 0.0
O34 O 0.29386 0.95245 0.8634 0.0
O35 O 0.29343 1.02827 1.00139 0.0
C36 C 0.3246 1.06081 0.97304 0.0
O37 O 0.34536 1.0513 0.92894 0.0
O38 O 0.32454 0.96199 0.06662 0.0
Mg39 Mg 0.42647 0.20077 0.03868 0.0
C40 C 0.41998 0.20676 0.20539 0.0
O41 O 0.42817 0.24687 0.19112 0.0
C42 C 0.47376 0.21782 0.90229 0.0
O43 O 0.4464 0.22605 0.88155 0.0
C44 C 0.43562 0.29466 0.0464 0.0
O45 O 0.47302 0.31267 0.07392 0.0
O46 O 0.41277 0.2522 1.02796 0.0
O47 O 0.42093 0.18177 0.15387 0.0
O48 O 0.37884 0.13769 0.9811 0.0
C49 C 0.3443 0.10769 1.00442 0.0
O50 O 0.33229 0.11601 0.06609 0.0
O51 O 0.47638 0.21137 0.96935 0.0
Mg52 Mg 0.95755 0.34341 0.06184 0.0
C53 C 0.03401 0.42655 0.08855 0.0
O54 O 0.04083 0.39439 0.07715 0.0
C55 C 0.86952 0.27612 1.01556 0.0
O56 O 0.88839 0.27427 0.95829 0.0
C57 C 0.98045 0.38856 0.92177 0.0
O58 O 0.97435 0.41558 0.96283 0.0
O59 O 0.97376 0.35201 0.94675 0.0
O60 O 0.99729 0.41484 0.09832 0.0
O61 O 0.97523 0.30983 0.13601 0.0
C62 C 0.95249 0.2671 0.1417 0.0
O63 O 0.92266 0.2417 0.09245 0.0
O64 O 0.89054 0.30544 0.06815 0.0
Mg65 Mg 0.7422 0.67909 1.0088 0.0
C66 C 0.76976 0.75094 0.14232 0.0
O67 O 0.73132 0.7244 0.15914 0.0
C68 C 0.71647 0.65067 0.85251 0.0
O69 O 0.70381 0.6118 0.88034 0.0
C70 C 0.78521 0.63979 0.07665 0.0
O71 O 0.77427 0.65179 0.13616 0.0
O72 O 0.77281 0.64357 1.0151 0.0
O73 O 0.78128 0.74138 0.08347 0.0
O74 O 0.67708 0.6365 1.03165 0.0
C75 C 0.65211 0.64746 1.01438 0.0
O76 O 0.61275 0.619 1.02375 0.0
O77 O 0.73718 0.68747 0.89327 0.0
Mg78 Mg 0.90148 0.66059 1.01855 0.0
C79 C 0.95741 0.62676 0.99699 0.0
O80 O 0.96741 0.59692 0.99052 0.0
C81 C 0.82029 0.63528 0.08039 0.0
O82 O 0.84109 0.64516 0.14264 0.0
C83 C 0.89973 0.64672 0.86337 0.0
O84 O 0.8718 0.60664 0.88545 0.0
O85 O 0.9167 0.68114 0.90915 0.0
O86 O 0.92166 0.61405 1.01762 0.0
O87 O 0.93366 0.71528 0.1046 0.0
C88 C 0.93787 0.70661 0.16904 0.0
O89 O 0.92372 0.66454 0.1835 0.0
O90 O 0.83643 0.63385 1.02164 0.0
Mg91 Mg 0.39247 0.38246 0.0718 0.0
C92 C 0.30979 0.31544 0.15151 0.0
O93 O 0.29044 0.33295 0.12578 0.0
C94 C 0.39445 0.4049 0.92341 0.0
O95 O 0.42515 0.44301 0.95564 0.0
C96 C 0.41761 0.32161 0.04358 0.0
O97 O 0.3794 0.30121 1.01859 0.0
O98 O 0.43611 0.36254 0.07087 0.0
O99 O 0.34689 0.33163 0.13758 0.0
O100 O 0.41174 0.45285 0.09921 0.0
C101 C 0.38498 0.46051 0.07898 0.0
O102 O 0.34876 0.42586 0.05481 0.0
O103 O 0.37227 0.37085 0.96024 0.0
Mg104 Mg 0.74298 0.17638 0.08268 0.0
C105 C 0.69942 0.17576 0.22392 0.0
O106 O 0.6863 0.19356 0.2711 0.0
C107 C 0.68415 0.13393 0.94139 0.0
O108 O 0.66716 0.09403 0.96835 0.0
C109 C 0.82519 0.24172 1.01976 0.0
O110 O 0.80364 0.21759 0.96031 0.0
O111 O 0.80822 0.23181 0.08065 0.0
O112 O 0.71369 0.19478 0.1648 0.0
O113 O 0.73347 0.112 0.10843 0.0
C114 C 0.73206 0.08349 0.06161 0.0
O115 O 0.743 0.0955 0.99515 0.0
O116 O 0.71348 0.16958 0.97667 0.0
Mg117 Mg 0.62743 0.94393 1.01719 0.0
C118 C 0.63291 0.94833 0.86616 0.0
O119 O 0.65487 0.93313 0.88869 0.0
C120 C 0.59371 0.98419 0.12562 0.0
O121 O 0.61877 1.02266 0.09608 0.0
C122 C 0.6426 0.87592 0.07864 0.0
O123 O 0.65031 0.90236 0.1378 0.0
O124 O 0.63146 0.88436 1.01993 0.0
O125 O 0.60861 0.94949 0.90983 0.0
O126 O 0.68808 1.00685 1.02007 0.0
C127 C 0.70567 1.03499 0.07494 0.0
O128 O 0.69077 1.02297 0.13941 0.0
O129 O 0.59101 0.94799 0.10227 0.0
Mg130 Mg 0.07023 0.76028 0.99943 0.0
C131 C 0.05757 0.82245 0.91833 0.0
O132 O 0.0867 0.82381 0.88155 0.0
C133 C 0.06263 0.72516 0.14712 0.0
O134 O 0.04274 0.68588 0.10904 0.0
C135 C 0.15593 0.8375 0.99151 0.0
O136 O 0.14065 0.85189 0.04037 0.0
O137 O 0.13295 0.79722 0.96166 0.0
O138 O 0.04463 0.79905 0.97352 0.0
O139 O 0.02462 0.68817 0.96757 0.0
C140 C 0.98875 0.67518 0.98726 0.0
O141 O 0.98274 0.70615 1.01321 0.0
O142 O 0.07748 0.76196 0.11583 0.0
Mg143 Mg 0.30413 0.46188 0.05682 0.0
C144 C 0.39649 0.5071 0.0677 0.0
O145 O 0.43543 0.54061 0.07015 0.0
C146 C 0.24356 0.48367 1.00267 0.0
O147 O 0.25616 0.47933 0.93889 0.0
C148 C 0.32446 0.47502 0.20961 0.0
O149 O 0.33547 0.51522 0.1895 0.0
O150 O 0.30524 0.44079 0.16381 0.0
O151 O 0.36924 0.51471 0.05011 0.0
O152 O 0.28199 0.40782 0.97076 0.0
C153 C 0.29169 0.41744 0.90546 0.0
O154 O 0.31666 0.4601 0.89063 0.0
O155 O 0.26096 0.48228 0.06018 0.0
Mg156 Mg 0.82071 0.82139 0.36293 0.0
C157 C 0.80046 0.7848 0.19868 0.0
O158 O 0.8376 0.79316 0.20073 0.0
C159 C 0.83139 0.87276 0.50315 0.0
O160 O 0.84675 0.84917 0.51949 0.0
C161 C 0.90901 0.84893 0.33624 0.0
O162 O 0.91022 0.87913 0.29591 0.0
O163 O 0.87663 0.82205 0.36907 0.0
O164 O 0.78872 0.79793 0.25335 0.0
O165 O 0.77327 0.76411 0.41655 0.0
C166 C 0.74188 0.76465 0.43202 0.0
O167 O 0.74227 0.80147 0.42316 0.0
O168 O 0.82319 0.87387 0.43623 0.0
Mg169 Mg 0.33848 0.11417 0.37043 0.0
C170 C 0.32701 1.02978 0.33685 0.0
O171 O 0.36647 1.06106 0.34438 0.0
C172 C 0.31489 0.17786 0.42776 0.0
O173 O 0.33439 0.17744 0.48584 0.0
C174 C 0.31959 0.06791 0.51144 0.0
O175 O 0.28424 1.04374 0.47432 0.0
O176 O 0.34979 0.10299 0.48391 0.0
O177 O 0.30252 1.04272 0.33344 0.0
O178 O 0.38627 0.14695 0.28819 0.0
C179 C 0.40159 0.18842 0.2758 0.0
O180 O 0.39393 0.21291 0.32017 0.0
O181 O 0.30888 0.15173 0.37189 0.0
Mg182 Mg 0.95307 0.26049 0.38121 0.0
C183 C 0.95145 0.24848 0.21215 0.0
O184 O 0.92251 0.20597 0.22125 0.0
C185 C 0.97367 0.23157 0.5188 0.0
O186 O 0.93866 0.22546 0.53697 0.0
C187 C 0.86362 0.17557 0.35851 0.0
O188 O 0.88027 0.15412 0.33379 0.0
O189 O 0.88625 0.21705 0.38294 0.0
O190 O 0.97111 0.27558 0.26776 0.0
O191 O 0.97564 0.32791 0.43175 0.0
C192 C 0.97861 0.35971 0.39718 0.0
O193 O 0.96298 0.35085 0.33021 0.0
O194 O 0.98494 0.24087 0.45365 0.0
Mg195 Mg 0.07473 0.50541 0.40751 0.0
C196 C 0.08769 0.54695 0.56381 0.0
O197 O 0.08464 0.57665 0.52975 0.0
C198 C 0.10601 0.46379 0.29928 0.0
O199 O 0.07371 0.4257 0.31887 0.0
C200 C 0.0921 0.60032 0.37677 0.0
O201 O 0.12978 0.61735 0.40184 0.0
O202 O 0.06569 0.55746 0.37304 0.0
O203 O 0.08801 0.51565 0.52651 0.0
O204 O 1.01699 0.43938 0.38514 0.0
C205 C 1.00771 0.40715 0.42532 0.0
O206 O 0.03096 0.41566 0.4838 0.0
O207 O 0.11619 0.50156 0.3324 0.0
Mg208 Mg 0.6212 0.65859 0.36485 0.0
C209 C 0.70253 0.72135 0.43506 0.0
O210 O 0.70191 0.68404 0.424 0.0
C211 C 0.53125 0.61459 0.33157 0.0
O212 O 0.54545 0.62266 0.266 0.0
C213 C 0.65869 0.71945 0.23424 0.0
O214 O 0.68582 0.75002 0.28331 0.0
O215 O 0.63159 0.67925 0.25193 0.0
O216 O 0.66947 0.71979 0.42523 0.0
O217 O 0.63082 0.60798 0.40458 0.0
C218 C 0.60049 0.57359 0.43142 0.0
O219 O 0.5641 0.55454 0.39863 0.0
O220 O 0.55651 0.6299 0.38647 0.0
Mg221 Mg 0.40167 1.01781 0.33337 0.0
C222 C 0.42937 0.0834 0.4774 0.0
O223 O 0.39215 1.0532 0.49684 0.0
C224 C 0.36839 0.99332 0.17559 0.0
O225 O 0.35502 0.95268 0.1968 0.0
C226 C 0.447 0.97928 0.39215 0.0
O227 O 0.43312 0.98619 0.45263 0.0
O228 O 0.43577 0.98591 0.33174 0.0
O229 O 0.43993 0.07831 0.41388 0.0
O230 O 0.33794 0.97184 0.362 0.0
C231 C 0.31229 0.98287 0.35222 0.0
O232 O 0.27339 0.95371 0.36418 0.0
O233 O 0.3913 1.02823 0.2197 0.0
Mg234 Mg 0.56563 1.00123 0.34432 0.0
C235 C 0.61509 0.96019 0.33679 0.0
O236 O 0.62308 0.92866 0.33463 0.0
C237 C 0.48264 0.97572 0.39592 0.0
O238 O 0.50028 0.97995 0.45958 0.0
C239 C 0.57301 0.98339 0.19208 0.0
O240 O 0.54465 0.9438 0.21505 0.0
O241 O 0.58721 1.01904 0.23475 0.0
O242 O 0.57962 0.95009 0.35444 0.0
O243 O 0.59659 1.05413 0.43495 0.0
C244 C 0.60125 1.04437 0.4985 0.0
O245 O 0.58805 1.00217 0.51015 0.0
O246 O 0.50152 0.97889 0.33849 0.0
Mg247 Mg 0.06001 0.69811 0.3742 0.0
C248 C 0.98861 0.65857 0.47851 0.0
O249 O 0.99824 0.70045 0.48811 0.0
C250 C 0.06904 0.72652 0.22518 0.0
O251 O 0.0995 0.76379 0.25975 0.0
C252 C 0.07807 0.63011 0.36204 0.0
O253 O 0.04093 0.61172 0.33289 0.0
O254 O 0.09851 0.67194 0.38504 0.0
O255 O 1.00717 0.64924 0.43241 0.0
O256 O 0.08384 0.76966 0.40473 0.0
C257 C 0.05902 0.7804 0.38576 0.0
O258 O 0.02235 0.74795 0.35971 0.0
O259 O 0.04598 0.69146 0.25963 0.0
Mg260 Mg 0.40798 0.50452 0.39496 0.0
C261 C 0.40186 0.51339 0.55237 0.0
O262 O 0.44142 0.54271 0.54587 0.0
C263 C 0.3424 0.47212 0.27715 0.0
O264 O 0.33185 0.43234 0.2985 0.0
C265 C 0.48682 0.58243 0.33906 0.0
O266 O 0.46166 0.57099 0.28216 0.0
O267 O 0.47307 0.56057 0.3959 0.0
O268 O 0.37857 0.49913 0.49554 0.0
O269 O 0.39784 0.43748 0.37782 0.0
C270 C 0.40074 0.4165 0.42913 0.0
O271 O 0.41815 0.43863 0.49214 0.0
O272 O 0.37274 0.50837 0.30878 0.0
Mg273 Mg 0.29182 0.28102 0.36015 0.0
C274 C 0.2928 0.28285 0.20773 0.0
O275 O 0.31285 0.26453 0.22584 0.0
C276 C 0.26222 0.3198 0.47379 0.0
O277 O 0.29076 0.35841 0.44834 0.0
C278 C 0.30508 0.21245 0.42519 0.0
O279 O 0.3082 0.23613 0.48523 0.0
O280 O 0.29821 0.22329 0.36457 0.0
O281 O 0.27069 0.28561 0.25458 0.0
O282 O 0.35023 0.34672 0.36837 0.0
C283 C 0.37405 0.36654 0.42454 0.0
O284 O 0.36682 0.34454 0.48368 0.0
O285 O 0.25517 0.2824 0.44547 0.0
Mg286 Mg 0.73073 0.08904 0.33586 0.0
C287 C 0.70078 0.13696 0.24315 0.0
O288 O 0.67883 0.09786 0.20485 0.0
C289 C 0.71435 1.05548 0.48604 0.0
O290 O 0.69839 1.01581 0.45016 0.0
C291 C 0.81881 0.15237 0.35731 0.0
O292 O 0.80297 0.17252 0.39097 0.0
O293 O 0.79485 0.11362 0.3233 0.0
O294 O 0.72166 0.14073 0.29954 0.0
O295 O 0.68283 1.01802 0.3038 0.0
C296 C 0.64811 1.00773 0.32543 0.0
O297 O 0.64507 1.04075 0.35221 0.0
O298 O 0.72894 0.09131 0.45221 0.0
Mg299 Mg 0.98174 0.78944 0.37858 0.0
C300 C 0.07305 0.82815 0.37829 0.0
O301 O 0.11252 0.85966 0.3784 0.0
C302 C 0.94336 0.84306 0.33854 0.0
O303 O 0.97397 0.86481 0.29537 0.0
C304 C 1.00529 0.80775 0.53241 0.0
O305 O 0.02035 0.84802 0.50788 0.0
O306 O 0.98369 0.77242 0.4892 0.0
O307 O 0.04722 0.83871 0.36598 0.0
O308 O 0.95586 0.7338 0.29371 0.0
C309 C 0.95649 0.74304 0.22769 0.0
O310 O 0.97257 0.78539 0.21242 0.0
O311 O 0.94134 0.81361 0.3781 0.0
Mg312 Mg 0.48289 0.15094 0.70319 0.0
C313 C 0.46044 0.11729 0.5339 0.0
O314 O 0.49919 0.13179 0.52793 0.0
C315 C 0.49212 0.20363 0.8461 0.0
O316 O 0.50873 0.18185 0.86576 0.0
C317 C 0.57266 0.18214 0.67559 0.0
O318 O 0.57377 0.21257 0.63598 0.0
O319 O 0.54019 0.15456 0.70747 0.0
O320 O 0.44872 0.12527 0.5942 0.0
O321 O 0.43979 0.09122 0.75692 0.0
C322 C 0.40802 0.08858 0.77971 0.0
O323 O 0.40616 0.12453 0.78054 0.0
O324 O 0.48273 0.20178 0.77855 0.0
Mg325 Mg 1.01411 0.46026 0.71585 0.0
C326 C 0.02719 0.3943 0.64198 0.0
O327 O 0.06447 0.43115 0.64687 0.0
C328 C 0.9695 0.50524 0.75441 0.0
O329 O 0.97552 0.49558 0.81921 0.0
C330 C 0.99339 0.40068 0.84715 0.0
O331 O 0.98657 0.36895 0.79757 0.0
O332 O 1.00759 0.44116 0.82928 0.0
O333 O 0.99692 0.3973 0.65624 0.0
O334 O 0.07341 0.50806 0.67114 0.0
C335 C 0.07806 0.54206 0.64132 0.0
O336 O 0.0594 0.56083 0.66802 0.0
O337 O 0.97893 0.49065 0.69854 0.0
Mg338 Mg 0.6275 0.6102 0.66787 0.0
C339 C 0.60203 0.56931 0.51046 0.0
O340 O 0.56767 0.541 0.54124 0.0
C341 C 0.69912 0.65043 0.78104 0.0
O342 O 0.70683 0.68888 0.75855 0.0
C343 C 0.54624 0.51689 0.69454 0.0
O344 O 0.56493 0.49738 0.67152 0.0
O345 O 0.56498 0.56011 0.69817 0.0
O346 O 0.63321 0.59959 0.55044 0.0
O347 O 0.63805 0.67748 0.6863 0.0
C348 C 0.66255 0.70902 0.64663 0.0
O349 O 0.67738 0.69908 0.59067 0.0
O350 O 0.67071 0.61276 0.74846 0.0
Mg351 Mg 0.75861 0.85471 0.69098 0.0
C352 C 0.75723 0.86915 0.85686 0.0
O353 O 0.76352 0.90777 0.83831 0.0
C354 C 0.81136 0.88354 0.56055 0.0
O355 O 0.78497 0.89352 0.54136 0.0
C356 C 0.76488 0.94534 0.68663 0.0
O357 O 0.80364 0.96416 0.70651 0.0
O358 O 0.74095 0.90227 0.67607 0.0
O359 O 0.75794 0.84266 0.80804 0.0
O360 O 0.71261 0.78756 0.64056 0.0
C361 C 0.6823 0.75685 0.6736 0.0
O362 O 0.67489 0.76677 0.73884 0.0
O363 O 0.81092 0.87138 0.62485 0.0
Mg364 Mg 0.28783 0.98471 0.70992 0.0
C365 C 0.36984 1.04384 0.77786 0.0
O366 O 0.37033 1.00869 0.75311 0.0
C367 C 0.19962 0.92763 0.68275 0.0
O368 O 0.21538 0.9271 0.62039 0.0
C369 C 0.32305 1.05302 0.58334 0.0
O370 O 0.35446 0.08056 0.62854 0.0
O371 O 0.29455 1.01363 0.60221 0.0
O372 O 0.33609 1.04123 0.77662 0.0
O373 O 0.29819 0.93008 0.71211 0.0
C374 C 0.30197 0.91029 0.76484 0.0
O375 O 0.30811 0.87789 0.7491 0.0
O376 O 0.22373 0.95226 0.73687 0.0
Mg377 Mg 0.04755 0.29545 0.71579 0.0
C378 C 0.06827 0.33279 0.87972 0.0
O379 O 0.09617 0.32316 0.87591 0.0
C380 C 1.00459 0.24186 0.57694 0.0
O381 O 0.04332 0.26354 0.56049 0.0
C382 C 0.11149 0.27159 0.73923 0.0
O383 O 0.0839 0.24052 0.77984 0.0
O384 O 0.10383 0.2972 0.70692 0.0
O385 O 0.0423 0.32024 0.82616 0.0
O386 O 0.05514 0.35151 0.66109 0.0
C387 C 0.02289 0.35094 0.64736 0.0
O388 O 0.98677 0.31474 0.65964 0.0
O389 O 0.99618 0.24247 0.64374 0.0
Mg390 Mg 0.24391 0.3366 0.69552 0.0
C391 C 0.29602 0.29708 0.68568 0.0
O392 O 0.30361 0.26523 0.68323 0.0
C393 C 0.1526 0.27988 0.73602 0.0
O394 O 0.16294 0.25773 0.77596 0.0
C395 C 0.24419 0.31966 0.54286 0.0
O396 O 0.21604 0.28047 0.56733 0.0
O397 O 0.26129 0.35526 0.58607 0.0
O398 O 0.2603 0.28695 0.70169 0.0
O399 O 0.27653 0.39148 0.78039 0.0
C400 C 0.27256 0.38142 0.84637 0.0
O401 O 0.24914 0.33861 0.86144 0.0
O402 O 0.17919 0.31135 0.69855 0.0
Mg403 Mg 0.72664 1.03758 0.71125 0.0
C404 C 0.64744 0.97709 0.80456 0.0
O405 O 0.62733 0.9935 0.77794 0.0
C406 C 0.72256 1.05969 0.56388 0.0
O407 O 0.75488 0.0975 0.59335 0.0
C408 C 0.74742 0.97277 0.68372 0.0
O409 O 0.70826 0.9523 0.66512 0.0
O410 O 0.7679 1.01478 0.7055 0.0
O411 O 0.68348 0.99125 0.78561 0.0
O412 O 0.75123 0.10928 0.73951 0.0
C413 C 0.72476 0.11859 0.72633 0.0
O414 O 0.68695 0.08483 0.70857 0.0
O415 O 0.70211 1.02565 0.60173 0.0
Mg416 Mg 0.07175 0.8413 0.74716 0.0
C417 C 0.04042 0.84797 0.89592 0.0
O418 O 0.0204 0.85745 0.94213 0.0
C419 C 1.01759 0.80477 0.60618 0.0
O420 O 1.00265 0.76497 0.63237 0.0
C421 C 0.15488 0.89821 0.68835 0.0
O422 O 0.13161 0.87742 0.62885 0.0
O423 O 0.13835 0.88989 0.74954 0.0
O424 O 0.04389 0.86012 0.83123 0.0
O425 O 0.05479 0.77178 0.75484 0.0
C426 C 0.06923 0.75431 0.7138 0.0
O427 O 0.09775 0.77978 0.66898 0.0
O428 O 0.04534 0.84098 0.64249 0.0
Mg429 Mg 0.96053 0.61921 0.69512 0.0
C430 C 0.96712 0.62688 0.53501 0.0
O431 O 0.9715 0.59289 0.54069 0.0
C432 C 0.9194 0.64893 0.79528 0.0
O433 O 0.94938 0.68854 0.77505 0.0
C434 C 0.9585 0.53869 0.74891 0.0
O435 O 0.94669 0.55095 0.80692 0.0
O436 O 0.96618 0.56083 0.69241 0.0
O437 O 0.95606 0.64019 0.58961 0.0
O438 O 1.01548 0.68099 0.74094 0.0
C439 C 0.04591 0.70462 0.70196 0.0
O440 O 0.0484 0.68639 0.63991 0.0
O441 O 0.91423 0.61259 0.76597 0.0
Mg442 Mg 0.41503 0.42569 0.69529 0.0
C443 C 0.38905 0.48238 0.61063 0.0
O444 O 0.35004 0.45093 0.61722 0.0
C445 C 0.39094 0.3996 0.84485 0.0
O446 O 0.37542 0.35913 0.81216 0.0
C447 C 0.50228 0.48963 0.70847 0.0
O448 O 0.48573 0.51046 0.73668 0.0
O449 O 0.47887 0.44776 0.68621 0.0
O450 O 0.41637 0.47791 0.63777 0.0
O451 O 0.36554 0.35501 0.66239 0.0
C452 C 0.32974 0.34472 0.67725 0.0
O453 O 0.32553 0.37742 0.70078 0.0
O454 O 0.4091 0.43466 0.80878 0.0
Mg455 Mg 0.6457 0.12272 0.71426 0.0
C456 C 0.73737 0.16552 0.71516 0.0
O457 O 0.77652 0.19788 0.71338 0.0
C458 C 0.60723 0.17667 0.67813 0.0
O459 O 0.63855 0.19983 0.63691 0.0
C460 C 0.6714 0.13811 0.86848 0.0
O461 O 0.68687 0.17894 0.84599 0.0
O462 O 0.64864 0.10354 0.82424 0.0
O463 O 0.71051 0.17438 0.70165 0.0
O464 O 0.62161 0.0696 0.62408 0.0
C465 C 0.61977 0.07973 0.5593 0.0
O466 O 0.63313 0.12192 0.54726 0.0
O467 O 0.60473 0.14615 0.71564 0.0
loop_
_geom_bond_atom_site_label_1
_geom_bond_atom_site_label_2
_geom_bond_distance
_geom_bond_site_symmetry_2
_ccdc_geom_bond_type
Mg0 O7 2.141 . S
Mg0 O8 2.048 1_554 S
Mg0 O9 2.048 . S
Mg0 O12 2.141 . S
C1 O2 1.313 . S
C1 O8 1.195 . S
O2 C1 1.313 . S
C3 O4 1.245 . S
C3 O12 1.289 . S
O4 C3 1.245 . S
C5 O6 1.245 . S
C5 O7 1.289 1_556 S
O6 C5 1.245 . S
O7 Mg0 2.141 . S
O7 C5 1.289 1_554 S
O8 Mg0 2.048 1_556 S
O8 C1 1.195 . S
O9 Mg0 2.048 . S
O9 C10 1.195 1_554 S
C10 O9 1.195 1_556 S
C10 O11 1.313 . S
O11 C10 1.313 . S
O12 Mg0 2.141 . S
O12 C3 1.289 . S
Mg13 O20 2.141 1_556 S
Mg13 O21 2.048 . S
Mg13 O22 2.048 . S
Mg13 O25 2.141 . S
C14 O15 1.313 1_556 S
C14 O21 1.195 . S
O15 C14 1.313 1_554 S
C16 O17 1.245 . S
C16 O25 1.289 1_554 S
O17 C16 1.245 . S
C18 O19 1.245 . S
C18 O20 1.289 . S
O19 C18 1.245 . S
O20 Mg13 2.141 1_554 S
O20 C18 1.289 . S
O21 Mg13 2.048 . S
O21 C14 1.195 . S
O22 Mg13 2.048 . S
O22 C23 1.195 . S
C23 O22 1.195 . S
C23 O24 1.313 . S
O24 C23 1.313 . S
O25 Mg13 2.141 . S
O25 C16 1.289 1_556 S
Mg26 O33 2.141 . S
Mg26 O34 2.048 1_554 S
Mg26 O35 2.048 . S
Mg26 O38 2.141 . S
C27 O28 1.313 . S
C27 O34 1.195 . S
O28 C27 1.313 . S
C29 O30 1.245 . S
C29 O38 1.289 . S
O30 C29 1.245 . S
C31 O32 1.245 . S
C31 O33 1.289 1_556 S
O32 C31 1.245 . S
O33 Mg26 2.141 . S
O33 C31 1.289 1_554 S
O34 Mg26 2.048 1_556 S
O34 C27 1.195 . S
O35 Mg26 2.048 . S
O35 C36 1.195 1_554 S
C36 O35 1.195 1_556 S
C36 O37 1.313 . S
O37 C36 1.313 . S
O38 Mg26 2.141 . S
O38 C29 1.289 . S
Mg39 O46 2.141 . S
Mg39 O47 2.048 1_556 S
Mg39 O48 2.048 . S
Mg39 O51 2.141 . S
C40 O41 1.313 . S
C40 O47 1.195 . S
O41 C40 1.313 . S
C42 O43 1.245 . S
C42 O51 1.289 . S
O43 C42 1.245 . S
C44 O45 1.245 . S
C44 O46 1.289 1_554 S
O45 C44 1.245 . S
O46 Mg39 2.141 . S
O46 C44 1.289 1_556 S
O47 Mg39 2.048 1_554 S
O47 C40 1.195 . S
O48 Mg39 2.048 . S
O48 C49 1.195 1_556 S
C49 O48 1.195 1_554 S
C49 O50 1.313 . S
O50 C49 1.313 . S
O51 Mg39 2.141 . S
O51 C42 1.289 . S
Mg52 O59 2.141 1_554 S
Mg52 O60 2.048 . S
Mg52 O61 2.048 . S
Mg52 O64 2.141 . S
C53 O54 1.313 1_554 S
C53 O60 1.195 . S
O54 C53 1.313 1_556 S
C55 O56 1.245 . S
C55 O64 1.289 1_556 S
O56 C55 1.245 . S
C57 O58 1.245 . S
C57 O59 1.289 . S
O58 C57 1.245 . S
O59 Mg52 2.141 1_556 S
O59 C57 1.289 . S
O60 Mg52 2.048 . S
O60 C53 1.195 . S
O61 Mg52 2.048 . S
O61 C62 1.195 . S
C62 O61 1.195 . S
C62 O63 1.313 . S
O63 C62 1.313 . S
O64 Mg52 2.141 . S
O64 C55 1.289 1_554 S
Mg65 O72 2.141 . S
Mg65 O73 2.048 1_556 S
Mg65 O74 2.048 . S
Mg65 O77 2.141 . S
C66 O67 1.313 . S
C66 O73 1.195 . S
O67 C66 1.313 . S
C68 O69 1.245 . S
C68 O77 1.289 . S
O69 C68 1.245 . S
C70 O71 1.245 . S
C70 O72 1.289 1_554 S
O71 C70 1.245 . S
O72 Mg65 2.141 . S
O72 C70 1.289 1_556 S
O73 Mg65 2.048 1_554 S
O73 C66 1.195 . S
O74 Mg65 2.048 . S
O74 C75 1.195 1_556 S
C75 O74 1.195 1_554 S
C75 O76 1.313 . S
O76 C75 1.313 . S
O77 Mg65 2.141 . S
O77 C68 1.289 . S
Mg78 O85 2.141 . S
Mg78 O86 2.048 . S
Mg78 O87 2.048 1_556 S
Mg78 O90 2.141 . S
C79 O80 1.313 . S
C79 O86 1.195 1_554 S
O80 C79 1.313 . S
C81 O82 1.245 . S
C81 O90 1.289 1_554 S
O82 C81 1.245 . S
C83 O84 1.245 . S
C83 O85 1.289 . S
O84 C83 1.245 . S
O85 Mg78 2.141 . S
O85 C83 1.289 . S
O86 Mg78 2.048 . S
O86 C79 1.195 1_556 S
O87 Mg78 2.048 1_554 S
O87 C88 1.195 . S
C88 O87 1.195 . S
C88 O89 1.313 . S
O89 C88 1.313 . S
O90 Mg78 2.141 . S
O90 C81 1.289 1_556 S
Mg91 O98 2.141 . S
Mg91 O99 2.048 . S
Mg91 O100 2.048 . S
Mg91 O103 2.141 1_554 S
C92 O93 1.313 . S
C92 O99 1.195 . S
O93 C92 1.313 . S
C94 O95 1.245 . S
C94 O103 1.289 . S
O95 C94 1.245 . S
C96 O97 1.245 . S
C96 O98 1.289 1_556 S
O97 C96 1.245 . S
O98 Mg91 2.141 . S
O98 C96 1.289 1_554 S
O99 Mg91 2.048 . S
O99 C92 1.195 . S
O100 Mg91 2.048 . S
O100 C101 1.195 . S
C101 O100 1.195 . S
C101 O102 1.313 1_554 S
O102 C101 1.313 1_556 S
O103 Mg91 2.141 1_556 S
O103 C94 1.289 . S
Mg104 O111 2.141 . S
Mg104 O112 2.048 . S
Mg104 O113 2.048 . S
Mg104 O116 2.141 1_554 S
C105 O106 1.313 . S
C105 O112 1.195 . S
O106 C105 1.313 . S
C107 O108 1.245 . S
C107 O116 1.289 . S
O108 C107 1.245 . S
C109 O110 1.245 . S
C109 O111 1.289 1_556 S
O110 C109 1.245 . S
O111 Mg104 2.141 . S
O111 C109 1.289 1_554 S
O112 Mg104 2.048 . S
O112 C105 1.195 . S
O113 Mg104 2.048 . S
O113 C114 1.195 . S
C114 O113 1.195 . S
C114 O115 1.313 1_554 S
O115 C114 1.313 1_556 S
O116 Mg104 2.141 1_556 S
O116 C107 1.289 . S
Mg117 O124 2.141 . S
Mg117 O125 2.048 . S
Mg117 O126 2.048 . S
Mg117 O129 2.141 1_556 S
C118 O119 1.313 . S
C118 O125 1.195 . S
O119 C118 1.313 . S
C120 O121 1.245 . S
C120 O129 1.289 . S
O121 C120 1.245 . S
C122 O123 1.245 . S
C122 O124 1.289 1_554 S
O123 C122 1.245 . S
O124 Mg117 2.141 . S
O124 C122 1.289 1_556 S
O125 Mg117 2.048 . S
O125 C118 1.195 . S
O126 Mg117 2.048 . S
O126 C127 1.195 . S
C127 O126 1.195 . S
C127 O128 1.313 1_556 S
O128 C127 1.313 1_554 S
O129 Mg117 2.141 1_554 S
O129 C120 1.289 . S
Mg130 O137 2.141 . S
Mg130 O138 2.048 . S
Mg130 O139 2.048 . S
Mg130 O142 2.141 1_556 S
C131 O132 1.313 . S
C131 O138 1.195 . S
O132 C131 1.313 . S
C133 O134 1.245 . S
C133 O142 1.289 . S
O134 C133 1.245 . S
C135 O136 1.245 . S
C135 O137 1.289 1_554 S
O136 C135 1.245 . S
O137 Mg130 2.141 . S
O137 C135 1.289 1_556 S
O138 Mg130 2.048 . S
O138 C131 1.195 . S
O139 Mg130 2.048 . S
O139 C140 1.195 . S
C140 O139 1.195 . S
C140 O141 1.313 1_556 S
O141 C140 1.313 1_554 S
O142 Mg130 2.141 1_554 S
O142 C133 1.289 . S
Mg143 O150 2.141 . S
Mg143 O151 2.048 . S
Mg143 O152 2.048 1_554 S
Mg143 O155 2.141 . S
C144 O145 1.313 . S
C144 O151 1.195 1_556 S
O145 C144 1.313 . S
C146 O147 1.245 . S
C146 O155 1.289 1_556 S
O147 C146 1.245 . S
C148 O149 1.245 . S
C148 O150 1.289 . S
O149 C148 1.245 . S
O150 Mg143 2.141 . S
O150 C148 1.289 . S
O151 Mg143 2.048 . S
O151 C144 1.195 1_554 S
O152 Mg143 2.048 1_556 S
O152 C153 1.195 . S
C153 O152 1.195 . S
C153 O154 1.313 . S
O154 C153 1.313 . S
O155 Mg143 2.141 . S
O155 C146 1.289 1_554 S
Mg156 O163 2.141 . S
Mg156 O164 2.048 . S
Mg156 O165 2.048 . S
Mg156 O168 2.141 . S
C157 O158 1.313 . S
C157 O164 1.195 . S
O158 C157 1.313 . S
C159 O160 1.245 . S
C159 O168 1.289 . S
O160 C159 1.245 . S
C161 O162 1.245 . S
C161 O163 1.289 . S
O162 C161 1.245 . S
O163 Mg156 2.141 . S
O163 C161 1.289 . S
O164 Mg156 2.048 . S
O164 C157 1.195 . S
O165 Mg156 2.048 . S
O165 C166 1.195 . S
C166 O165 1.195 . S
C166 O167 1.313 . S
O167 C166 1.313 . S
O168 Mg156 2.141 . S
O168 C159 1.289 . S
Mg169 O176 2.141 1_545 S
Mg169 O177 2.048 1_545 S
Mg169 O178 2.048 . S
Mg169 O181 2.141 . S
C170 O171 1.313 1_565 S
C170 O177 1.195 . S
O171 C170 1.313 1_545 S
C172 O173 1.245 . S
C172 O181 1.289 . S
O173 C172 1.245 . S
C174 O175 1.245 . S
C174 O176 1.289 1_545 S
O175 C174 1.245 . S
O176 Mg169 2.141 1_565 S
O176 C174 1.289 1_565 S
O177 Mg169 2.048 1_565 S
O177 C170 1.195 . S
O178 Mg169 2.048 . S
O178 C179 1.195 . S
C179 O178 1.195 . S
C179 O180 1.313 . S
O180 C179 1.313 . S
O181 Mg169 2.141 . S
O181 C172 1.289 . S
Mg182 O189 2.141 . S
Mg182 O190 2.048 . S
Mg182 O191 2.048 . S
Mg182 O194 2.141 . S
C183 O184 1.313 . S
C183 O190 1.195 . S
O184 C183 1.313 . S
C185 O186 1.245 1_655 S
C185 O194 1.289 . S
O186 C185 1.245 1_455 S
C187 O188 1.245 . S
C187 O189 1.289 . S
O188 C187 1.245 . S
O189 Mg182 2.141 . S
O189 C187 1.289 . S
O190 Mg182 2.048 . S
O190 C183 1.195 . S
O191 Mg182 2.048 . S
O191 C192 1.195 1_655 S
C192 O191 1.195 1_455 S
C192 O193 1.313 . S
O193 C192 1.313 . S
O194 Mg182 2.141 . S
O194 C185 1.289 . S
Mg195 O202 2.141 . S
Mg195 O203 2.048 . S
Mg195 O204 2.048 . S
Mg195 O207 2.141 . S
C196 O197 1.313 . S
C196 O203 1.195 . S
O197 C196 1.313 . S
C198 O199 1.245 . S
C198 O207 1.289 . S
O199 C198 1.245 . S
C200 O201 1.245 . S
C200 O202 1.289 . S
O201 C200 1.245 . S
O202 Mg195 2.141 . S
O202 C200 1.289 . S
O203 Mg195 2.048 . S
O203 C196 1.195 . S
O204 Mg195 2.048 . S
O204 C205 1.195 . S
C205 O204 1.195 . S
C205 O206 1.313 . S
O206 C205 1.313 . S
O207 Mg195 2.141 . S
O207 C198 1.289 . S
Mg208 O215 2.141 . S
Mg208 O216 2.048 . S
Mg208 O217 2.048 . S
Mg208 O220 2.141 . S
C209 O210 1.313 . S
C209 O216 1.195 . S
O210 C209 1.313 . S
C211 O212 1.245 . S
C211 O220 1.289 . S
O212 C211 1.245 . S
C213 O214 1.245 . S
C213 O215 1.289 . S
O214 C213 1.245 . S
O215 Mg208 2.141 . S
O215 C213 1.289 . S
O216 Mg208 2.048 . S
O216 C209 1.195 . S
O217 Mg208 2.048 . S
O217 C218 1.195 . S
C218 O217 1.195 . S
C218 O219 1.313 . S
O219 C218 1.313 . S
O220 Mg208 2.141 . S
O220 C211 1.289 . S
Mg221 O228 2.141 . S
Mg221 O229 2.048 . S
Mg221 O230 2.048 . S
Mg221 O233 2.141 . S
C222 O223 1.313 . S
C222 O229 1.195 . S
O223 C222 1.313 . S
C224 O225 1.245 . S
C224 O233 1.289 . S
O225 C224 1.245 . S
C226 O227 1.245 . S
C226 O228 1.289 . S
O227 C226 1.245 . S
O228 Mg221 2.141 . S
O228 C226 1.289 . S
O229 Mg221 2.048 . S
O229 C222 1.195 . S
O230 Mg221 2.048 . S
O230 C231 1.195 . S
C231 O230 1.195 . S
C231 O232 1.313 . S
O232 C231 1.313 . S
O233 Mg221 2.141 . S
O233 C224 1.289 . S
Mg234 O241 2.141 . S
Mg234 O242 2.048 . S
Mg234 O243 2.048 . S
Mg234 O246 2.141 . S
C235 O236 1.313 . S
C235 O242 1.195 . S
O236 C235 1.313 . S
C237 O238 1.245 . S
C237 O246 1.289 . S
O238 C237 1.245 . S
C239 O240 1.245 . S
C239 O241 1.289 . S
O240 C239 1.245 . S
O241 Mg234 2.141 . S
O241 C239 1.289 . S
O242 Mg234 2.048 . S
O242 C235 1.195 . S
O243 Mg234 2.048 . S
O243 C244 1.195 . S
C244 O243 1.195 . S
C244 O245 1.313 . S
O245 C244 1.313 . S
O246 Mg234 2.141 . S
O246 C237 1.289 . S
Mg247 O254 2.141 . S
Mg247 O255 2.048 . S
Mg247 O256 2.048 . S
Mg247 O259 2.141 . S
C248 O249 1.313 1_455 S
C248 O255 1.195 . S
O249 C248 1.313 1_655 S
C250 O251 1.245 . S
C250 O259 1.289 . S
O251 C250 1.245 . S
C252 O253 1.245 . S
C252 O254 1.289 . S
O253 C252 1.245 . S
O254 Mg247 2.141 . S
O254 C252 1.289 . S
O255 Mg247 2.048 . S
O255 C248 1.195 . S
O256 Mg247 2.048 . S
O256 C257 1.195 . S
C257 O256 1.195 . S
C257 O258 1.313 . S
O258 C257 1.313 . S
O259 Mg247 2.141 . S
O259 C250 1.289 . S
Mg260 O267 2.141 . S
Mg260 O268 2.048 . S
Mg260 O269 2.048 . S
Mg260 O272 2.141 . S
C261 O262 1.313 . S
C261 O268 1.195 . S
O262 C261 1.313 . S
C263 O264 1.245 . S
C263 O272 1.289 . S
O264 C263 1.245 . S
C265 O266 1.245 . S
C265 O267 1.289 . S
O266 C265 1.245 . S
O267 Mg260 2.141 . S
O267 C265 1.289 . S
O268 Mg260 2.048 . S
O268 C261 1.195 . S
O269 Mg260 2.048 . S
O269 C270 1.195 . S
C270 O269 1.195 . S
C270 O271 1.313 . S
O271 C270 1.313 . S
O272 Mg260 2.141 . S
O272 C263 1.289 . S
Mg273 O280 2.141 . S
Mg273 O281 2.048 . S
Mg273 O282 2.048 . S
Mg273 O285 2.141 . S
C274 O275 1.313 . S
C274 O281 1.195 . S
O275 C274 1.313 . S
C276 O277 1.245 . S
C276 O285 1.289 . S
O277 C276 1.245 . S
C278 O279 1.245 . S
C278 O280 1.289 . S
O279 C278 1.245 . S
O280 Mg273 2.141 . S
O280 C278 1.289 . S
O281 Mg273 2.048 . S
O281 C274 1.195 . S
O282 Mg273 2.048 . S
O282 C283 1.195 . S
C283 O282 1.195 . S
C283 O284 1.313 . S
O284 C283 1.313 . S
O285 Mg273 2.141 . S
O285 C276 1.289 . S
Mg286 O293 2.141 . S
Mg286 O294 2.048 . S
Mg286 O295 2.048 1_545 S
Mg286 O298 2.137 1_545 S
C287 O288 1.313 . S
C287 O294 1.195 . S
O288 C287 1.313 . S
C289 O290 1.245 . S
C289 O298 1.285 1_545 S
O290 C289 1.245 . S
C291 O292 1.245 . S
C291 O293 1.289 . S
O292 C291 1.245 . S
O293 Mg286 2.141 . S
O293 C291 1.289 . S
O294 Mg286 2.048 . S
O294 C287 1.195 . S
O295 Mg286 2.048 1_565 S
O295 C296 1.195 . S
C296 O295 1.195 . S
C296 O297 1.313 1_565 S
O297 C296 1.313 1_545 S
O298 Mg286 2.137 1_565 S
O298 C289 1.285 1_565 S
Mg299 O306 2.141 . S
Mg299 O307 2.048 . S
Mg299 O308 2.048 . S
Mg299 O311 2.141 . S
C300 O301 1.313 . S
C300 O307 1.195 1_455 S
O301 C300 1.313 . S
C302 O303 1.245 . S
C302 O311 1.289 . S
O303 C302 1.245 . S
C304 O305 1.245 1_655 S
C304 O306 1.289 . S
O305 C304 1.245 1_455 S
O306 Mg299 2.141 . S
O306 C304 1.289 . S
O307 Mg299 2.048 . S
O307 C300 1.195 1_655 S
O308 Mg299 2.048 . S
O308 C309 1.195 . S
C309 O308 1.195 . S
C309 O310 1.313 . S
O310 C309 1.313 . S
O311 Mg299 2.141 . S
O311 C302 1.289 . S
Mg312 O319 2.141 . S
Mg312 O320 2.048 . S
Mg312 O321 2.048 . S
Mg312 O324 2.141 . S
C313 O314 1.313 . S
C313 O320 1.195 . S
O314 C313 1.313 . S
C315 O316 1.245 . S
C315 O324 1.289 . S
O316 C315 1.245 . S
C317 O318 1.245 . S
C317 O319 1.289 . S
O318 C317 1.245 . S
O319 Mg312 2.141 . S
O319 C317 1.289 . S
O320 Mg312 2.048 . S
O320 C313 1.195 . S
O321 Mg312 2.048 . S
O321 C322 1.195 . S
C322 O321 1.195 . S
C322 O323 1.313 . S
O323 C322 1.313 . S
O324 Mg312 2.141 . S
O324 C315 1.289 . S
Mg325 O332 2.141 . S
Mg325 O333 2.048 . S
Mg325 O334 2.048 . S
Mg325 O337 2.141 . S
C326 O327 1.313 . S
C326 O333 1.195 . S
O327 C326 1.313 . S
C328 O329 1.245 . S
C328 O337 1.289 . S
O329 C328 1.245 . S
C330 O331 1.245 . S
C330 O332 1.289 . S
O331 C330 1.245 . S
O332 Mg325 2.141 . S
O332 C330 1.289 . S
O333 Mg325 2.048 . S
O333 C326 1.195 . S
O334 Mg325 2.048 . S
O334 C335 1.195 . S
C335 O334 1.195 . S
C335 O336 1.313 1_655 S
O336 C335 1.313 1_455 S
O337 Mg325 2.141 . S
O337 C328 1.289 . S
Mg338 O345 2.141 . S
Mg338 O346 2.048 . S
Mg338 O347 2.048 . S
Mg338 O350 2.141 . S
C339 O340 1.313 . S
C339 O346 1.195 . S
O340 C339 1.313 . S
C341 O342 1.245 . S
C341 O350 1.289 . S
O342 C341 1.245 . S
C343 O344 1.245 . S
C343 O345 1.289 . S
O344 C343 1.245 . S
O345 Mg338 2.141 . S
O345 C343 1.289 . S
O346 Mg338 2.048 . S
O346 C339 1.195 . S
O347 Mg338 2.048 . S
O347 C348 1.195 . S
C348 O347 1.195 . S
C348 O349 1.313 . S
O349 C348 1.313 . S
O350 Mg338 2.141 . S
O350 C341 1.289 . S
Mg351 O358 2.141 . S
Mg351 O359 2.048 . S
Mg351 O360 2.048 . S
Mg351 O363 2.141 . S
C352 O353 1.313 . S
C352 O359 1.195 . S
O353 C352 1.313 . S
C354 O355 1.245 . S
C354 O363 1.289 . S
O355 C354 1.245 . S
C356 O357 1.245 . S
C356 O358 1.289 . S
O357 C356 1.245 . S
O358 Mg351 2.141 . S
O358 C356 1.289 . S
O359 Mg351 2.048 . S
O359 C352 1.195 . S
O360 Mg351 2.048 . S
O360 C361 1.195 . S
C361 O360 1.195 . S
C361 O362 1.313 . S
O362 C361 1.313 . S
O363 Mg351 2.141 . S
O363 C354 1.289 . S
Mg364 O371 2.137 1_565 S
Mg364 O372 2.048 1_565 S
Mg364 O373 2.048 . S
Mg364 O376 2.141 . S
C365 O366 1.313 1_545 S
C365 O372 1.195 . S
O366 C365 1.313 1_565 S
C367 O368 1.245 . S
C367 O376 1.289 . S
O368 C367 1.245 . S
C369 O370 1.245 . S
C369 O371 1.285 1_565 S
O370 C369 1.245 . S
O371 Mg364 2.137 1_545 S
O371 C369 1.285 1_545 S
O372 Mg364 2.048 1_545 S
O372 C365 1.195 . S
O373 Mg364 2.048 . S
O373 C374 1.195 . S
C374 O373 1.195 . S
C374 O375 1.313 . S
O375 C374 1.313 . S
O376 Mg364 2.141 . S
O376 C367 1.289 . S
Mg377 O384 2.141 . S
Mg377 O385 2.048 . S
Mg377 O386 2.048 . S
Mg377 O389 2.141 . S
C378 O379 1.313 . S
C378 O385 1.195 . S
O379 C378 1.313 . S
C380 O381 1.245 1_455 S
C380 O389 1.289 . S
O381 C380 1.245 1_655 S
C382 O383 1.245 . S
C382 O384 1.289 . S
O383 C382 1.245 . S
O384 Mg377 2.141 . S
O384 C382 1.289 . S
O385 Mg377 2.048 . S
O385 C378 1.195 . S
O386 Mg377 2.048 . S
O386 C387 1.195 1_455 S
C387 O386 1.195 1_655 S
C387 O388 1.313 . S
O388 C387 1.313 . S
O389 Mg377 2.141 . S
O389 C380 1.289 . S
Mg390 O397 2.141 . S
Mg390 O398 2.048 . S
Mg390 O399 2.048 . S
Mg390 O402 2.141 . S
C391 O392 1.313 . S
C391 O398 1.195 . S
O392 C391 1.313 . S
C393 O394 1.245 . S
C393 O402 1.289 . S
O394 C393 1.245 . S
C395 O396 1.245 . S
C395 O397 1.289 . S
O396 C395 1.245 . S
O397 Mg390 2.141 . S
O397 C395 1.289 . S
O398 Mg390 2.048 . S
O398 C391 1.195 . S
O399 Mg390 2.048 . S
O399 C400 1.195 . S
C400 O399 1.195 . S
C400 O401 1.313 . S
O401 C400 1.313 . S
O402 Mg390 2.141 . S
O402 C393 1.289 . S
Mg403 O410 2.141 . S
Mg403 O411 2.048 . S
Mg403 O412 2.048 1_565 S
Mg403 O415 2.141 1_565 S
C404 O405 1.313 . S
C404 O411 1.195 . S
O405 C404 1.313 . S
C406 O407 1.245 . S
C406 O415 1.289 1_565 S
O407 C406 1.245 . S
C408 O409 1.245 . S
C408 O410 1.289 . S
O409 C408 1.245 . S
O410 Mg403 2.141 . S
O410 C408 1.289 . S
O411 Mg403 2.048 . S
O411 C404 1.195 . S
O412 Mg403 2.048 1_545 S
O412 C413 1.195 . S
C413 O412 1.195 . S
C413 O414 1.313 1_545 S
O414 C413 1.313 1_565 S
O415 Mg403 2.141 1_545 S
O415 C406 1.289 1_545 S
Mg416 O423 2.141 . S
Mg416 O424 2.048 . S
Mg416 O425 2.048 1_455 S
Mg416 O428 2.137 1_455 S
C417 O418 1.313 . S
C417 O424 1.195 . S
O418 C417 1.313 . S
C419 O420 1.245 . S
C419 O428 1.285 1_455 S
O420 C419 1.245 . S
C421 O422 1.245 . S
C421 O423 1.289 . S
O422 C421 1.245 . S
O423 Mg416 2.141 . S
O423 C421 1.289 . S
O424 Mg416 2.048 . S
O424 C417 1.195 . S
O425 Mg416 2.048 1_655 S
O425 C426 1.195 . S
C426 O425 1.195 . S
C426 O427 1.313 1_655 S
O427 C426 1.313 1_455 S
O428 Mg416 2.137 1_655 S
O428 C419 1.285 1_655 S
Mg429 O436 2.141 . S
Mg429 O437 2.048 . S
Mg429 O438 2.048 . S
Mg429 O441 2.141 . S
C430 O431 1.313 1_655 S
C430 O437 1.195 . S
O431 C430 1.313 1_455 S
C432 O433 1.245 . S
C432 O441 1.289 . S
O433 C432 1.245 . S
C434 O435 1.245 . S
C434 O436 1.289 . S
O435 C434 1.245 . S
O436 Mg429 2.141 . S
O436 C434 1.289 . S
O437 Mg429 2.048 . S
O437 C430 1.195 . S
O438 Mg429 2.048 . S
O438 C439 1.195 . S
C439 O438 1.195 . S
C439 O440 1.313 . S
O440 C439 1.313 . S
O441 Mg429 2.141 . S
O441 C432 1.289 . S
Mg442 O449 2.141 . S
Mg442 O450 2.048 . S
Mg442 O451 2.048 . S
Mg442 O454 2.141 . S
C443 O444 1.313 . S
C443 O450 1.195 . S
O444 C443 1.313 . S
C445 O446 1.245 . S
C445 O454 1.289 . S
O446 C445 1.245 . S
C447 O448 1.245 . S
C447 O449 1.289 . S
O448 C447 1.245 . S
O449 Mg442 2.141 . S
O449 C447 1.289 . S
O450 Mg442 2.048 . S
O450 C443 1.195 . S
O451 Mg442 2.048 . S
O451 C452 1.195 . S
C452 O451 1.195 . S
C452 O453 1.313 . S
O453 C452 1.313 . S
O454 Mg442 2.141 . S
O454 C445 1.289 . S
Mg455 O462 2.141 . S
Mg455 O463 2.048 . S
Mg455 O464 2.048 . S
Mg455 O467 2.141 . S
C456 O457 1.313 . S
C456 O463 1.195 . S
O457 C456 1.313 . S
C458 O459 1.245 . S
C458 O467 1.289 . S
O459 C458 1.245 . S
C460 O461 1.245 . S
C460 O462 1.289 . S
O461 C460 1.245 . S
O462 Mg455 2.141 . S
O462 C460 1.289 . S
O463 Mg455 2.048 . S
O463 C456 1.195 . S
O464 Mg455 2.048 . S
O464 C465 1.195 . S
C465 O464 1.195 . S
C465 O466 1.313 . S
O466 C465 1.313 . S
O467 Mg455 2.141 . S
O467 C458 1.289 . S
C53 C10 1.301 1_654 S
C75 C14 1.301 1_554 S
C49 C36 1.365 1_544 S
C140 C79 1.301 1_456 S
C101 C144 1.301 1_554 S
C127 C114 1.203 1_566 S
C166 C209 1.514 . S
C231 C170 1.525 . S
C192 C205 1.614 . S
C235 C296 1.524 . S
C300 C257 1.514 . S
C270 C283 1.390 . S
C365 C322 1.524 . S
C326 C387 1.514 . S
C361 C348 1.614 . S
C452 C391 1.514 . S
C413 C456 1.525 . S
C426 C439 1.391 . S
C146 C5 1.831 . S
C16 C122 1.673 . S
C135 C31 1.785 1_554 S
C96 C44 1.785 1_556 S
C55 C109 1.673 . S
C81 C70 1.831 . S
C161 C302 1.911 . S
C278 C172 1.737 . S
C291 C187 1.856 . S
C200 C252 1.843 . S
C211 C265 1.723 . S
C226 C237 1.900 . S
C458 C317 1.900 . S
C328 C434 1.723 . S
C343 C447 1.843 . S
C408 C356 1.856 . S
C421 C367 1.737 . S
C393 C382 1.911 . S
C198 C3 1.745 . S
C213 C18 1.527 . S
C29 C224 1.745 . S
C42 C315 1.745 . S
C57 C330 1.528 . S
C68 C341 1.745 . S
C83 C432 1.612 . S
C94 C445 1.527 . S
C107 C460 1.654 . S
C120 C239 1.654 . S
C250 C133 1.528 . S
C263 C148 1.611 . S
C354 C159 2.044 . S
C174 C369 1.861 1_545 S
C380 C185 2.044 1_455 S
C276 C395 1.949 . S
C406 C289 1.861 1_565 S
C419 C304 1.949 1_455 S
C1 C378 2.702 . S
C23 C352 2.523 . S
C27 C374 2.517 . S
C40 C179 2.517 . S
C183 C62 2.523 . S
C157 C66 2.702 . S
C309 C88 2.702 . S
C274 C92 2.351 . S
C287 C105 2.351 . S
C404 C118 2.351 . S
C417 C131 2.351 . S
C400 C153 2.702 . S
C196 C335 2.363 1_455 S
C339 C218 2.363 . S
C313 C222 2.569 1_545 S
C244 C465 2.569 1_565 S
C430 C248 2.167 1_655 S
C261 C443 2.167 . S
