# Generated by pormake.
# Topology umx, (4)-cn, num edge types: 1
# Building blocks:
#     Node 0, Type 0, BuildingBlock: GALJAG_clean_sbu_0, # of connection points: 4
#     Node 1, Type 0, BuildingBlock: GALJAG_clean_sbu_0, # of connection points: 4
#     Node 2, Type 0, BuildingBlock: GALJAG_clean_sbu_0, # of connection points: 4
#     Node 3, Type 0, BuildingBlock: GALJAG_clean_sbu_0, # of connection points: 4
#     Node 4, Type 0, BuildingBlock: GALJAG_clean_sbu_0, # of connection points: 4
#     Node 5, Type 0, BuildingBlock: GALJAG_clean_sbu_0, # of connection points: 4
#     Node 6, Type 0, BuildingBlock: GALJAG_clean_sbu_0, # of connection points: 4
#     Node 7, Type 0, BuildingBlock: GALJAG_clean_sbu_0, # of connection points: 4
#     Edge 8, Type (0, 0), BuildingBlock: XUDNAN_clean_linker_2, # of connection points: 2
#     Edge 9, Type (0, 0), BuildingBlock: XUDNAN_clean_linker_2, # of connection points: 2
#     Edge 10, Type (0, 0), BuildingBlock: XUDNAN_clean_linker_2, # of connection points: 2
#     Edge 11, Type (0, 0), BuildingBlock: XUDNAN_clean_linker_2, # of connection points: 2
#     Edge 12, Type (0, 0), BuildingBlock: XUDNAN_clean_linker_2, # of connection points: 2
#     Edge 13, Type (0, 0), BuildingBlock: XUDNAN_clean_linker_2, # of connection points: 2
#     Edge 14, Type (0, 0), BuildingBlock: XUDNAN_clean_linker_2, # of connection points: 2
#     Edge 15, Type (0, 0), BuildingBlock: XUDNAN_clean_linker_2, # of connection points: 2
#     Edge 16, Type (0, 0), BuildingBlock: XUDNAN_clean_linker_2, # of connection points: 2
#     Edge 17, Type (0, 0), BuildingBlock: XUDNAN_clean_linker_2, # of connection points: 2
#     Edge 18, Type (0, 0), BuildingBlock: XUDNAN_clean_linker_2, # of connection points: 2
#     Edge 19, Type (0, 0), BuildingBlock: XUDNAN_clean_linker_2, # of connection points: 2
#     Edge 20, Type (0, 0), BuildingBlock: XUDNAN_clean_linker_2, # of connection points: 2
#     Edge 21, Type (0, 0), BuildingBlock: XUDNAN_clean_linker_2, # of connection points: 2
#     Edge 22, Type (0, 0), BuildingBlock: XUDNAN_clean_linker_2, # of connection points: 2
#     Edge 23, Type (0, 0), BuildingBlock: XUDNAN_clean_linker_2, # of connection points: 2
# Relax obj value: 0.096
# Max RMSD: 0.176
# Mean RMSD: 0.176
data_MOF--net-umx--node1-GALJAG_clean_sbu_0--edge1-XUDNAN_clean_linker_2
_symmetry_space_group_name_H-M    P1
_symmetry_Int_Tables_number       1
_symmetry_cell_setting            triclinic
loop_
_symmetry_equiv_pos_as_xyz
'x, y, z'
_cell_length_a     38.694445
_cell_length_b     38.611479
_cell_length_c     28.633374
_cell_angle_alpha  90.059057
_cell_angle_beta   90.02855
_cell_angle_gamma 89.710686
loop_
_atom_site_label
_atom_site_type_symbol
_atom_site_fract_x
_atom_site_fract_y
_atom_site_fract_z
_atom_type_partial_charge
In0 In 0.16815 0.44539 0.03456 0.0
O1 O 0.17653 0.48258 0.09625 0.0
O2 O 0.15663 0.43176 0.10888 0.0
C3 C 0.18963 0.46796 0.95114 0.0
C4 C 0.22104 0.40219 0.04767 0.0
C5 C 0.10018 0.44648 0.01765 0.0
O6 O 0.18585 0.48878 0.98515 0.0
O7 O 0.18262 0.43672 0.9597 0.0
O8 O 0.11703 0.4182 0.01891 0.0
O9 O 0.11776 0.47342 0.02496 0.0
C10 C 0.16663 0.46022 0.12589 0.0
O11 O 0.19154 0.39093 0.03555 0.0
O12 O 0.22336 0.43472 0.05202 0.0
In13 In 0.5636 0.17807 0.53923 0.0
O14 O 0.62224 0.16755 0.54087 0.0
O15 O 0.6029 0.2115 0.50405 0.0
C16 C 0.53896 0.11459 0.5573 0.0
C17 C 0.55525 0.21067 0.62198 0.0
C18 C 0.53467 0.19422 0.4565 0.0
O19 O 0.56937 0.11911 0.54235 0.0
O20 O 0.52157 0.14194 0.56326 0.0
O21 O 0.53703 0.21606 0.48932 0.0
O22 O 0.54555 0.16423 0.46625 0.0
C23 C 0.62891 0.19414 0.51673 0.0
O24 O 0.53117 0.20911 0.59223 0.0
O25 O 0.58317 0.19665 0.60943 0.0
In26 In 0.79189 0.53586 0.01121 0.0
O27 O 0.75442 0.51009 0.06273 0.0
O28 O 0.80571 0.52077 0.08518 0.0
C29 C 0.75924 0.526 0.92872 0.0
C30 C 0.77775 0.60231 0.03206 0.0
C31 C 0.85551 0.50976 0.99521 0.0
O32 O 0.76171 0.50228 0.95888 0.0
O33 O 0.77253 0.55436 0.94055 0.0
O34 O 0.85056 0.54123 0.00567 0.0
O35 O 0.8284 0.49193 0.99193 0.0
C36 C 0.77627 0.50927 0.09561 0.0
O37 O 0.80508 0.59384 0.0105 0.0
O38 O 0.75821 0.57746 0.04255 0.0
In39 In 0.46024 0.80328 0.54148 0.0
O40 O 0.50466 0.78038 0.58515 0.0
O41 O 0.45654 0.78987 0.61842 0.0
C42 C 0.48168 0.79191 0.45299 0.0
C43 C 0.39746 0.77449 0.53381 0.0
C44 C 0.46943 0.87128 0.556 0.0
O45 O 0.46712 0.81955 0.46591 0.0
O46 O 0.48639 0.76993 0.48503 0.0
O47 O 0.44003 0.85725 0.5576 0.0
O48 O 0.49423 0.85095 0.54694 0.0
C49 C 0.48728 0.77949 0.62248 0.0
O50 O 0.42514 0.75711 0.53289 0.0
O51 O 0.40133 0.80673 0.53869 0.0
In52 In 0.16111 0.56038 0.54033 0.0
O53 O 0.17527 0.5146 0.49342 0.0
O54 O 0.16017 0.56175 0.46073 0.0
C55 C 0.18154 0.5383 0.62556 0.0
C56 C 0.20178 0.61609 0.53296 0.0
C57 C 0.09192 0.55609 0.54567 0.0
O58 O 0.19053 0.52319 0.58831 0.0
O59 O 0.16224 0.56435 0.61975 0.0
O60 O 0.10715 0.58483 0.54204 0.0
O61 O 0.11159 0.52999 0.54687 0.0
C62 C 0.16971 0.53068 0.45572 0.0
O63 O 0.16946 0.61889 0.5383 0.0
O64 O 0.21313 0.58542 0.53131 0.0
In65 In 0.46853 0.19567 0.03203 0.0
O66 O 0.41039 0.20887 0.0332 0.0
O67 O 0.44706 0.24811 0.04936 0.0
C68 C 0.47173 0.12667 0.02077 0.0
C69 C 0.49424 0.21608 0.94909 0.0
C70 C 0.49238 0.20134 0.11987 0.0
O71 O 0.44321 0.14291 0.02161 0.0
O72 O 0.49823 0.14532 0.02541 0.0
O73 O 0.50506 0.21862 0.08654 0.0
O74 O 0.46871 0.18061 0.10848 0.0
C75 C 0.41573 0.23994 0.0453 0.0
O76 O 0.51228 0.21597 0.98593 0.0
O77 O 0.4635 0.20616 0.95441 0.0
In78 In 0.78927 0.45122 0.52184 0.0
O79 O 0.75211 0.47123 0.46535 0.0
O80 O 0.80377 0.45843 0.44601 0.0
C81 C 0.75681 0.4682 0.60234 0.0
C82 C 0.77855 0.38286 0.51292 0.0
C83 C 0.85028 0.48295 0.53403 0.0
O84 O 0.75261 0.48545 0.56526 0.0
O85 O 0.77632 0.44219 0.59814 0.0
O86 O 0.84785 0.45045 0.53005 0.0
O87 O 0.82197 0.49924 0.532 0.0
C88 C 0.77433 0.46883 0.43306 0.0
O89 O 0.80565 0.39445 0.53184 0.0
O90 O 0.75727 0.40558 0.49946 0.0
In91 In 0.55883 0.8158 0.03415 0.0
O92 O 0.61793 0.82219 0.0364 0.0
O93 O 0.59543 0.77526 0.06092 0.0
C94 C 0.53389 0.88009 0.02004 0.0
C95 C 0.5505 0.78754 0.94876 0.0
C96 C 0.53123 0.80087 0.11787 0.0
O97 O 0.56509 0.87474 0.03144 0.0
O98 O 0.51591 0.85314 0.01538 0.0
O99 O 0.52816 0.78064 0.08327 0.0
O100 O 0.54721 0.82861 0.10959 0.0
C101 C 0.62263 0.79222 0.05336 0.0
O102 O 0.52719 0.78563 0.97962 0.0
O103 O 0.57739 0.80329 0.96124 0.0
H104 H 0.16873 0.5215 0.17608 0.0
H105 H 0.16932 0.40964 0.19106 0.0
H106 H 0.17317 0.41576 0.27644 0.0
H107 H 0.22735 0.54051 0.27233 0.0
H108 H 0.20376 0.57842 0.29107 0.0
H109 H 0.20303 0.56563 0.23053 0.0
H110 H 0.13611 0.564 0.23244 0.0
H111 H 0.13665 0.57687 0.2929 0.0
H112 H 0.11468 0.53783 0.27565 0.0
H113 H 0.17696 0.43331 0.35976 0.0
H114 H 0.17583 0.46167 0.43708 0.0
H115 H 0.16965 0.5622 0.36979 0.0
C116 C 0.16989 0.4984 0.19744 0.0
C117 C 0.16882 0.46511 0.17699 0.0
C118 C 0.16997 0.43541 0.206 0.0
C119 C 0.17234 0.43859 0.25455 0.0
C120 C 0.17321 0.47166 0.27375 0.0
C121 C 0.17169 0.50109 0.24631 0.0
C122 C 0.17123 0.53347 0.27637 0.0
C123 C 0.20325 0.55582 0.26701 0.0
C124 C 0.13767 0.55426 0.26889 0.0
C125 C 0.17252 0.51752 0.32476 0.0
C126 C 0.17414 0.48183 0.32232 0.0
C127 C 0.17565 0.46125 0.36222 0.0
C128 C 0.17507 0.47757 0.40596 0.0
C129 C 0.17256 0.51405 0.40939 0.0
C130 C 0.17149 0.53423 0.36819 0.0
H131 H 0.49533 0.2141 0.6723 0.0
H132 H 0.60524 0.2344 0.6803 0.0
H133 H 0.59983 0.2461 0.76477 0.0
H134 H 0.46702 0.27686 0.76627 0.0
H135 H 0.43494 0.2471 0.78753 0.0
H136 H 0.44605 0.24753 0.72639 0.0
H137 H 0.4601 0.18192 0.7303 0.0
H138 H 0.44946 0.18133 0.79138 0.0
H139 H 0.49135 0.16646 0.77222 0.0
H140 H 0.58443 0.24691 0.84939 0.0
H141 H 0.55993 0.23701 0.92795 0.0
H142 H 0.46031 0.21469 0.86544 0.0
C143 C 0.51792 0.2224 0.69157 0.0
C144 C 0.55059 0.22389 0.66987 0.0
C145 C 0.57991 0.23348 0.69637 0.0
C146 C 0.57708 0.24024 0.7443 0.0
C147 C 0.54473 0.23722 0.76519 0.0
C148 C 0.51558 0.22875 0.73965 0.0
C149 C 0.48482 0.22297 0.77135 0.0
C150 C 0.45654 0.25025 0.76235 0.0
C151 C 0.47063 0.18598 0.76599 0.0
C152 C 0.50154 0.2282 0.81866 0.0
C153 C 0.53595 0.23699 0.81435 0.0
C154 C 0.55735 0.24066 0.85324 0.0
C155 C 0.54327 0.23488 0.89769 0.0
C156 C 0.50824 0.22524 0.90276 0.0
C157 C 0.4871 0.22242 0.86269 0.0
H158 H 0.82052 0.47468 0.36203 0.0
H159 H 0.71068 0.47781 0.39196 0.0
H160 H 0.69842 0.48537 0.30752 0.0
H161 H 0.81937 0.53983 0.27301 0.0
H162 H 0.85221 0.51866 0.23851 0.0
H163 H 0.85156 0.51299 0.30088 0.0
H164 H 0.84955 0.44639 0.2895 0.0
H165 H 0.84976 0.45188 0.22704 0.0
H166 H 0.81565 0.42769 0.25453 0.0
H167 H 0.6988 0.49159 0.21855 0.0
H168 H 0.71199 0.50142 0.13485 0.0
H169 H 0.82159 0.49531 0.16569 0.0
C170 C 0.79385 0.47701 0.3509 0.0
C171 C 0.76651 0.47559 0.3834 0.0
C172 C 0.732 0.47896 0.36752 0.0
C173 C 0.72481 0.48305 0.31968 0.0
C174 C 0.75247 0.48389 0.28842 0.0
C175 C 0.78631 0.48134 0.3036 0.0
C176 C 0.81154 0.48401 0.26353 0.0
C177 C 0.83504 0.51576 0.26934 0.0
C178 C 0.83287 0.45049 0.25836 0.0
C179 C 0.78671 0.48857 0.22325 0.0
C180 C 0.75271 0.48808 0.23803 0.0
C181 C 0.72534 0.49202 0.20667 0.0
C182 C 0.73304 0.49739 0.15922 0.0
C183 C 0.76777 0.49908 0.14392 0.0
C184 C 0.79478 0.4941 0.17638 0.0
H185 H 0.49047 0.78072 0.89901 0.0
H186 H 0.6016 0.76823 0.88917 0.0
H187 H 0.59634 0.75601 0.80484 0.0
H188 H 0.46638 0.71594 0.80597 0.0
H189 H 0.43182 0.74323 0.78491 0.0
H190 H 0.44349 0.74397 0.84587 0.0
H191 H 0.45232 0.81036 0.84117 0.0
H192 H 0.44094 0.80981 0.78033 0.0
H193 H 0.48175 0.82769 0.79845 0.0
H194 H 0.5802 0.75328 0.7205 0.0
H195 H 0.55433 0.76158 0.64229 0.0
H196 H 0.4539 0.77748 0.70635 0.0
C197 C 0.51347 0.77412 0.87932 0.0
C198 C 0.54637 0.7749 0.9005 0.0
C199 C 0.57613 0.76745 0.87349 0.0
C200 C 0.57339 0.76035 0.82565 0.0
C201 C 0.54069 0.76092 0.8053 0.0
C202 C 0.5112 0.76749 0.83128 0.0
C203 C 0.47977 0.77089 0.80004 0.0
C204 C 0.45383 0.74177 0.80978 0.0
C205 C 0.46272 0.80682 0.80532 0.0
C206 C 0.4964 0.76656 0.75249 0.0
C207 C 0.53144 0.76013 0.75629 0.0
C208 C 0.55268 0.75769 0.71705 0.0
C209 C 0.53781 0.76249 0.67279 0.0
C210 C 0.50214 0.77001 0.66828 0.0
C211 C 0.48119 0.77136 0.70867 0.0
H212 H 0.76035 0.43274 0.68451 0.0
H213 H 0.7253 0.5298 0.62436 0.0
H214 H 0.71306 0.55231 0.70353 0.0
H215 H 0.69858 0.43232 0.7867 0.0
H216 H 0.73108 0.41393 0.82453 0.0
H217 H 0.73088 0.40337 0.76317 0.0
H218 H 0.79435 0.42383 0.75647 0.0
H219 H 0.79471 0.43464 0.81749 0.0
H220 H 0.80535 0.46711 0.77472 0.0
H221 H 0.7156 0.56787 0.78825 0.0
H222 H 0.72965 0.57422 0.87202 0.0
H223 H 0.76039 0.46625 0.87776 0.0
C224 C 0.74904 0.45833 0.68792 0.0
C225 C 0.74362 0.47952 0.64835 0.0
C226 C 0.72934 0.51304 0.6542 0.0
C227 C 0.7223 0.52601 0.69904 0.0
C228 C 0.72913 0.50489 0.73751 0.0
C229 C 0.74166 0.47152 0.73234 0.0
C230 C 0.75001 0.45529 0.7792 0.0
C231 C 0.72621 0.4244 0.78897 0.0
C232 C 0.78837 0.44462 0.78211 0.0
C233 C 0.74193 0.48534 0.81147 0.0
C234 C 0.72955 0.5136 0.78677 0.0
C235 C 0.72426 0.54564 0.80814 0.0
C236 C 0.73239 0.54905 0.85565 0.0
C237 C 0.74542 0.52053 0.88132 0.0
C238 C 0.74937 0.48811 0.8592 0.0
H239 H 0.51878 0.84537 0.18968 0.0
H240 H 0.51946 0.73624 0.15381 0.0
H241 H 0.50771 0.72145 0.23653 0.0
H242 H 0.56019 0.8385 0.29897 0.0
H243 H 0.53414 0.87124 0.32709 0.0
H244 H 0.54141 0.87312 0.26505 0.0
H245 H 0.47532 0.87391 0.25012 0.0
H246 H 0.46784 0.87255 0.31217 0.0
H247 H 0.44883 0.84027 0.27474 0.0
H248 H 0.50052 0.71902 0.32497 0.0
H249 H 0.49081 0.72929 0.40947 0.0
H250 H 0.49177 0.84011 0.38517 0.0
C251 C 0.51605 0.81837 0.19915 0.0
C252 C 0.52003 0.79189 0.16556 0.0
C253 C 0.51621 0.75688 0.1791 0.0
C254 C 0.50979 0.74827 0.22598 0.0
C255 C 0.50676 0.77505 0.25851 0.0
C256 C 0.50911 0.80941 0.24543 0.0
C257 C 0.50446 0.8334 0.28676 0.0
C258 C 0.53699 0.85535 0.29493 0.0
C259 C 0.47219 0.85638 0.28057 0.0
C260 C 0.49954 0.80722 0.32537 0.0
C261 C 0.50132 0.77367 0.30861 0.0
C262 C 0.49871 0.74519 0.33834 0.0
C263 C 0.49344 0.75123 0.38624 0.0
C264 C 0.49042 0.78545 0.40361 0.0
C265 C 0.49374 0.81367 0.37272 0.0
H266 H 0.17069 0.52659 0.90318 0.0
H267 H 0.23 0.43145 0.89182 0.0
H268 H 0.23997 0.44285 0.80815 0.0
H269 H 0.1265 0.51609 0.7997 0.0
H270 H 0.12545 0.56109 0.78304 0.0
H271 H 0.1284 0.54946 0.84372 0.0
H272 H 0.18412 0.58582 0.85237 0.0
H273 H 0.18115 0.59793 0.7917 0.0
H274 H 0.22005 0.57788 0.81368 0.0
H275 H 0.23753 0.46026 0.72471 0.0
H276 H 0.22281 0.48281 0.64647 0.0
H277 H 0.16331 0.56578 0.71045 0.0
C278 C 0.18686 0.50897 0.88331 0.0
C279 C 0.20014 0.47848 0.90384 0.0
C280 C 0.21998 0.45515 0.8766 0.0
C281 C 0.22581 0.46143 0.82914 0.0
C282 C 0.21141 0.49108 0.80933 0.0
C283 C 0.19244 0.5146 0.83548 0.0
C284 C 0.17659 0.54227 0.80448 0.0
C285 C 0.13689 0.5422 0.80795 0.0
C286 C 0.19137 0.5781 0.81626 0.0
C287 C 0.18873 0.52996 0.75689 0.0
C288 C 0.20922 0.50071 0.76059 0.0
C289 C 0.22193 0.48346 0.72134 0.0
C290 C 0.21333 0.49637 0.67706 0.0
C291 C 0.19201 0.52605 0.6724 0.0
C292 C 0.1799 0.54319 0.71293 0.0
H293 H 0.50962 0.15162 0.38866 0.0
H294 H 0.53944 0.25788 0.41564 0.0
H295 H 0.53258 0.27144 0.33164 0.0
H296 H 0.55173 0.14114 0.28147 0.0
H297 H 0.51813 0.11597 0.25433 0.0
H298 H 0.52346 0.11501 0.31677 0.0
H299 H 0.45969 0.13409 0.32814 0.0
H300 H 0.45396 0.13445 0.26571 0.0
H301 H 0.44409 0.17267 0.29946 0.0
H302 H 0.52858 0.27133 0.24328 0.0
H303 H 0.51838 0.26021 0.15916 0.0
H304 H 0.48729 0.15519 0.19142 0.0
C305 C 0.51404 0.1779 0.37695 0.0
C306 C 0.52499 0.20376 0.40842 0.0
C307 C 0.53066 0.23783 0.39203 0.0
C308 C 0.52711 0.24567 0.34439 0.0
C309 C 0.51724 0.21928 0.31396 0.0
C310 C 0.50994 0.1863 0.3298 0.0
C311 C 0.49952 0.16265 0.2901 0.0
C312 C 0.52472 0.13189 0.28541 0.0
C313 C 0.46209 0.15025 0.29622 0.0
C314 C 0.50276 0.18725 0.24928 0.0
C315 C 0.51341 0.21968 0.26362 0.0
C316 C 0.51975 0.24619 0.23174 0.0
C317 C 0.5142 0.23958 0.18409 0.0
C318 C 0.50197 0.20693 0.16908 0.0
C319 C 0.49643 0.18047 0.20211 0.0
H320 H 0.9179 0.54192 0.0058 0.0
H321 H 0.87153 0.44229 0.97553 0.0
H322 H 0.92947 0.41511 0.97465 0.0
H323 H 0.99554 0.52961 0.93433 0.0
H324 H 0.0228 0.55174 0.97566 0.0
H325 H 0.97785 0.56353 0.97059 0.0
H326 H 0.96964 0.55265 0.05923 0.0
H327 H 0.01446 0.54063 0.06451 0.0
H328 H 0.98135 0.51113 0.08343 0.0
H329 H 0.99251 0.39815 0.98249 0.0
H330 H 0.05568 0.39353 0.99582 0.0
H331 H 0.05992 0.50439 0.02013 0.0
C332 C 0.91998 0.5145 0.99827 0.0
C333 C 0.89029 0.49423 0.99061 0.0
C334 C 0.89401 0.45834 0.98134 0.0
C335 C 0.92679 0.44266 0.98078 0.0
C336 C 0.95554 0.46327 0.98931 0.0
C337 C 0.95245 0.49846 0.99753 0.0
C338 C 0.98721 0.51463 0.00734 0.0
C339 C -0.00361 0.54146 0.96973 0.0
C340 C 0.98821 0.53069 0.05655 0.0
C341 C 0.01026 0.48298 0.0041 0.0
C342 C 0.99163 0.45358 0.99355 0.0
C343 C 0.00741 0.42107 0.99034 0.0
C344 C 0.04322 0.41865 0.99807 0.0
C345 C 0.06264 0.44857 0.00884 0.0
C346 C 0.04582 0.48105 0.01166 0.0
H347 H 0.52824 0.90879 0.54136 0.0
H348 H 0.42148 0.91821 0.58627 0.0
H349 H 0.429 0.98128 0.59608 0.0
H350 H 0.5638 0.97499 0.61863 0.0
H351 H 0.59369 0.9906 0.57533 0.0
H352 H 0.58064 0.94587 0.57486 0.0
H353 H 0.56037 0.95218 0.48898 0.0
H354 H 0.57334 0.99688 0.48918 0.0
H355 H 0.52959 0.9856 0.47409 0.0
H356 H 0.44721 0.04311 0.59791 0.0
H357 H 0.47438 0.10037 0.58944 0.0
H358 H 0.56919 0.05106 0.54208 0.0
C359 C 0.50658 0.92409 0.55376 0.0
C360 C 0.47431 0.90871 0.56328 0.0
C361 C 0.44642 0.92956 0.57886 0.0
C362 C 0.45047 0.96534 0.58467 0.0
C363 C 0.48255 0.97975 0.57467 0.0
C364 C 0.51011 0.95986 0.55947 0.0
C365 C 0.54132 0.98205 0.54892 0.0
C366 C 0.57165 0.97282 0.58138 0.0
C367 C 0.55175 0.979 0.49722 0.0
C368 C 0.52681 0.0176 0.55997 0.0
C369 C 0.49298 0.01561 0.57517 0.0
C370 C 0.47375 0.04502 0.58632 0.0
C371 C 0.48941 0.0774 0.58136 0.0
C372 C 0.52388 0.0801 0.56517 0.0
C373 C 0.54287 0.04975 0.55479 0.0
H374 H 0.05496 0.49631 0.54746 0.0
H375 H 0.04344 0.60817 0.54675 0.0
H376 H 0.9798 0.60172 0.54686 0.0
H377 H 0.9859 0.47848 0.47014 0.0
H378 H 0.97277 0.43959 0.49987 0.0
H379 H 0.01715 0.45322 0.5023 0.0
H380 H 0.01483 0.45282 0.59279 0.0
H381 H 0.97042 0.43914 0.59066 0.0
H382 H 0.98196 0.4777 0.62247 0.0
H383 H 0.91752 0.58267 0.54461 0.0
H384 H 0.86138 0.5527 0.53898 0.0
H385 H 0.91448 0.45342 0.54028 0.0
C386 C 0.03909 0.51949 0.54772 0.0
C387 C 0.05402 0.55276 0.54725 0.0
C388 C 0.03242 0.58245 0.54722 0.0
C389 C 0.99632 0.57903 0.54734 0.0
C390 C 0.98244 0.54577 0.5475 0.0
C391 C 0.00318 0.51654 0.54769 0.0
C392 C 0.98199 0.48375 0.54628 0.0
C393 C 0.98993 0.46253 0.50201 0.0
C394 C 0.98764 0.46208 0.5907 0.0
C395 C 0.94599 0.49904 0.54478 0.0
C396 C 0.94675 0.53484 0.5458 0.0
C397 C 0.91661 0.55466 0.54398 0.0
C398 C 0.88489 0.53742 0.54078 0.0
C399 C 0.88366 0.50077 0.53923 0.0
C400 C 0.91464 0.48145 0.54152 0.0
H401 H 0.56642 0.94287 0.02888 0.0
H402 H 0.46696 0.89618 0.99926 0.0
H403 H 0.4404 0.95424 0.99384 0.0
H404 H 0.53483 0.01106 0.10057 0.0
H405 H 0.56493 0.04285 0.07935 0.0
H406 H 0.57653 -0.00236 0.07883 0.0
H407 H 0.589 0.00104 0.99002 0.0
H408 H 0.57753 0.04632 0.99029 0.0
H409 H 0.55592 0.01697 0.9511 0.0
H410 H 0.42397 0.01728 0.99559 0.0
H411 H 0.41947 0.08107 1.00209 0.0
H412 H 0.52969 0.08652 0.02907 0.0
C413 C 0.53913 0.9449 0.02083 0.0
C414 C 0.51876 0.91504 0.01446 0.0
C415 C 0.48309 0.91873 0.0042 0.0
C416 C 0.46774 0.95159 1.00105 0.0
C417 C 0.48845 0.98052 0.00799 0.0
C418 C 0.5234 0.97754 0.01739 0.0
C419 C 0.53967 0.01274 0.02426 0.0
C420 C 0.55487 0.01626 0.07369 0.0
C421 C 0.56715 0.01967 0.98667 0.0
C422 C 0.50834 0.0359 0.01783 0.0
C423 C 0.47904 0.01685 0.00844 0.0
C424 C 0.44679 0.03253 1.00256 0.0
C425 C 0.44445 0.06871 0.00639 0.0
C426 C 0.47422 0.08868 0.01587 0.0
C427 C 0.50652 0.07195 0.02143 0.0
H428 H 0.23234 0.33487 0.01836 0.0
H429 H 0.27767 0.41912 0.0977 0.0
H430 H 0.33004 0.38419 0.11068 0.0
H431 H 0.27071 0.26323 0.08775 0.0
H432 H 0.27842 0.23651 0.03713 0.0
H433 H 0.24259 0.26653 0.03771 0.0
H434 H 0.2653 0.29466 0.96165 0.0
H435 H 0.30119 0.26483 0.9609 0.0
H436 H 0.30891 0.31082 0.95981 0.0
H437 H 0.3786 0.34367 0.11007 0.0
H438 H 0.42229 0.29852 0.09586 0.0
H439 H 0.34739 0.2389 0.0169 0.0
C440 C 0.2531 0.34558 0.03913 0.0
C441 C 0.25101 0.37962 0.05714 0.0
C442 C 0.27882 0.39312 0.08348 0.0
C443 C 0.30861 0.37344 0.09127 0.0
C444 C 0.31023 0.34028 0.07246 0.0
C445 C 0.28336 0.32626 0.04698 0.0
C446 C 0.29314 0.29075 0.02816 0.0
C447 C 0.26983 0.26259 0.04894 0.0
C448 C 0.29208 0.29026 0.97445 0.0
C449 C 0.3299 0.28753 0.04626 0.0
C450 C 0.3389 0.31639 0.07204 0.0
C451 C 0.37184 0.32073 0.09043 0.0
C452 C 0.3965 0.295 0.08195 0.0
C453 C 0.38814 0.26526 0.05538 0.0
C454 C 0.35426 0.26121 0.03781 0.0
H455 H 0.73545 0.35361 0.45059 0.0
H456 H 0.80285 0.3292 0.56684 0.0
H457 H 0.77994 0.26937 0.56821 0.0
H458 H 0.66528 0.31658 0.49124 0.0
H459 H 0.64879 0.3003 0.43661 0.0
H460 H 0.6769 0.33698 0.43687 0.0
H461 H 0.71878 0.30519 0.38041 0.0
H462 H 0.69056 0.26816 0.37999 0.0
H463 H 0.73542 0.263 0.39566 0.0
H464 H 0.74 0.21799 0.56863 0.0
H465 H 0.68749 0.18158 0.56844 0.0
H466 H 0.64796 0.23923 0.45014 0.0
C467 C 0.74627 0.33523 0.47521 0.0
C468 C 0.77078 0.34574 0.50859 0.0
C469 C 0.78423 0.32135 0.54068 0.0
C470 C 0.77143 0.28734 0.54156 0.0
C471 C 0.74593 0.27813 0.50935 0.0
C472 C 0.73402 0.30135 0.47616 0.0
C473 C 0.70332 0.28732 0.44979 0.0
C474 C 0.67175 0.31172 0.45396 0.0
C475 C 0.71259 0.2805 0.39841 0.0
C476 C 0.69791 0.2538 0.47582 0.0
C477 C 0.72324 0.24828 0.50917 0.0
C478 C 0.72067 0.22144 0.54169 0.0
C479 C 0.69082 0.2008 0.54131 0.0
C480 C 0.66395 0.20764 0.5091 0.0
C481 C 0.66845 0.23324 0.47468 0.0
H482 H 0.72842 0.62371 0.09237 0.0
H483 H 0.80269 0.66193 0.99192 0.0
H484 H 0.77713 0.72073 0.99885 0.0
H485 H 0.65943 0.66461 0.049 0.0
H486 H 0.63856 0.67389 0.10392 0.0
H487 H 0.66769 0.6378 0.09936 0.0
H488 H 0.70432 0.66227 0.16758 0.0
H489 H 0.67509 0.69861 0.17245 0.0
H490 H 0.72067 0.70584 0.1643 0.0
H491 H 0.73601 0.77197 0.00546 0.0
H492 H 0.68369 0.80916 0.01003 0.0
H493 H 0.63756 0.73661 0.10667 0.0
C494 C 0.74005 0.6447 0.07296 0.0
C495 C 0.76747 0.63845 0.04169 0.0
C496 C 0.78182 0.66637 0.01643 0.0
C497 C 0.7675 0.69982 0.02026 0.0
C498 C 0.73938 0.70485 0.05014 0.0
C499 C 0.72619 0.67799 0.07655 0.0
C500 C 0.69335 0.68846 0.10141 0.0
C501 C 0.663 0.66481 0.08754 0.0
C502 C 0.6987 0.68883 0.15459 0.0
C503 C 0.68875 0.72469 0.0826 0.0
C504 C 0.71589 0.73421 0.054 0.0
C505 C 0.7151 0.76514 0.02872 0.0
C506 C 0.68536 0.78617 0.03157 0.0
C507 C 0.6568 0.77571 0.05887 0.0
C508 C 0.65924 0.74537 0.08596 0.0
H509 H 0.38459 0.70636 0.51844 0.0
H510 H 0.33358 0.80512 0.54232 0.0
H511 H 0.27672 0.77588 0.54051 0.0
H512 H 0.31979 0.67057 0.4399 0.0
H513 H 0.32478 0.62745 0.46309 0.0
H514 H 0.36085 0.65677 0.46333 0.0
H515 H 0.36757 0.64829 0.55273 0.0
H516 H 0.33153 0.61905 0.55279 0.0
H517 H 0.33111 0.65652 0.5904 0.0
H518 H 0.22567 0.7346 0.54037 0.0
H519 H 0.18517 0.68507 0.54179 0.0
H520 H 0.27101 0.61451 0.51785 0.0
C521 C 0.36147 0.72194 0.52286 0.0
C522 C 0.36336 0.75794 0.53052 0.0
C523 C 0.33257 0.77745 0.53628 0.0
C524 C 0.30024 0.7611 0.53527 0.0
C525 C 0.29934 0.72538 0.52813 0.0
C526 C 0.3292 0.70614 0.52182 0.0
C527 C 0.3216 0.66804 0.51643 0.0
C528 C 0.33239 0.65495 0.46779 0.0
C529 C 0.33898 0.64674 0.55542 0.0
C530 C 0.28281 0.66864 0.52169 0.0
C531 C 0.27028 0.70189 0.52804 0.0
C532 C 0.23519 0.70849 0.53505 0.0
C533 C 0.21242 0.68027 0.53584 0.0
C534 C 0.22503 0.64607 0.5299 0.0
C535 C 0.2606 0.64039 0.52237 0.0
loop_
_geom_bond_atom_site_label_1
_geom_bond_atom_site_label_2
_geom_bond_distance
_geom_bond_site_symmetry_2
_ccdc_geom_bond_type
In0 O1 2.294 . S
In0 O2 2.326 . S
In0 O6 2.266 1_554 S
In0 O7 2.326 1_554 S
In0 O8 2.266 . S
In0 O9 2.326 . S
In0 O11 2.294 . S
In0 O12 2.326 . S
O1 In0 2.294 . S
O1 C10 1.240 . S
O2 In0 2.326 . S
O2 C10 1.252 . S
C3 O6 1.252 . S
C3 O7 1.260 . S
C4 O11 1.240 . S
C4 O12 1.252 . S
C5 O8 1.252 . S
C5 O9 1.260 . S
O6 In0 2.266 1_556 S
O6 C3 1.252 . S
O7 In0 2.326 1_556 S
O7 C3 1.260 . S
O8 In0 2.266 . S
O8 C5 1.252 . S
O9 In0 2.326 . S
O9 C5 1.260 . S
C10 O1 1.240 . S
C10 O2 1.252 . S
O11 In0 2.294 . S
O11 C4 1.240 . S
O12 In0 2.326 . S
O12 C4 1.252 . S
In13 O14 2.294 . S
In13 O15 2.326 . S
In13 O19 2.266 . S
In13 O20 2.326 . S
In13 O21 2.266 . S
In13 O22 2.326 . S
In13 O24 2.294 . S
In13 O25 2.326 . S
O14 In13 2.294 . S
O14 C23 1.240 . S
O15 In13 2.326 . S
O15 C23 1.252 . S
C16 O19 1.252 . S
C16 O20 1.260 . S
C17 O24 1.240 . S
C17 O25 1.252 . S
C18 O21 1.252 . S
C18 O22 1.260 . S
O19 In13 2.266 . S
O19 C16 1.252 . S
O20 In13 2.326 . S
O20 C16 1.260 . S
O21 In13 2.266 . S
O21 C18 1.252 . S
O22 In13 2.326 . S
O22 C18 1.260 . S
C23 O14 1.240 . S
C23 O15 1.252 . S
O24 In13 2.294 . S
O24 C17 1.240 . S
O25 In13 2.326 . S
O25 C17 1.252 . S
In26 O27 2.294 . S
In26 O28 2.326 . S
In26 O32 2.266 1_554 S
In26 O33 2.326 1_554 S
In26 O34 2.266 . S
In26 O35 2.326 . S
In26 O37 2.294 . S
In26 O38 2.326 . S
O27 In26 2.294 . S
O27 C36 1.240 . S
O28 In26 2.326 . S
O28 C36 1.252 . S
C29 O32 1.252 . S
C29 O33 1.260 . S
C30 O37 1.240 . S
C30 O38 1.252 . S
C31 O34 1.252 . S
C31 O35 1.260 . S
O32 In26 2.266 1_556 S
O32 C29 1.252 . S
O33 In26 2.326 1_556 S
O33 C29 1.260 . S
O34 In26 2.266 . S
O34 C31 1.252 . S
O35 In26 2.326 . S
O35 C31 1.260 . S
C36 O27 1.240 . S
C36 O28 1.252 . S
O37 In26 2.294 . S
O37 C30 1.240 . S
O38 In26 2.326 . S
O38 C30 1.252 . S
In39 O40 2.294 . S
In39 O41 2.326 . S
In39 O45 2.266 . S
In39 O46 2.326 . S
In39 O47 2.266 . S
In39 O48 2.326 . S
In39 O50 2.294 . S
In39 O51 2.326 . S
O40 In39 2.294 . S
O40 C49 1.240 . S
O41 In39 2.326 . S
O41 C49 1.252 . S
C42 O45 1.252 . S
C42 O46 1.260 . S
C43 O50 1.240 . S
C43 O51 1.252 . S
C44 O47 1.252 . S
C44 O48 1.260 . S
O45 In39 2.266 . S
O45 C42 1.252 . S
O46 In39 2.326 . S
O46 C42 1.260 . S
O47 In39 2.266 . S
O47 C44 1.252 . S
O48 In39 2.326 . S
O48 C44 1.260 . S
C49 O40 1.240 . S
C49 O41 1.252 . S
O50 In39 2.294 . S
O50 C43 1.240 . S
O51 In39 2.326 . S
O51 C43 1.252 . S
In52 O53 2.294 . S
In52 O54 2.326 . S
In52 O58 2.266 . S
In52 O59 2.326 . S
In52 O60 2.266 . S
In52 O61 2.326 . S
In52 O63 2.294 . S
In52 O64 2.326 . S
O53 In52 2.294 . S
O53 C62 1.240 . S
O54 In52 2.326 . S
O54 C62 1.252 . S
C55 O58 1.252 . S
C55 O59 1.260 . S
C56 O63 1.240 . S
C56 O64 1.252 . S
C57 O60 1.252 . S
C57 O61 1.260 . S
O58 In52 2.266 . S
O58 C55 1.252 . S
O59 In52 2.326 . S
O59 C55 1.260 . S
O60 In52 2.266 . S
O60 C57 1.252 . S
O61 In52 2.326 . S
O61 C57 1.260 . S
C62 O53 1.240 . S
C62 O54 1.252 . S
O63 In52 2.294 . S
O63 C56 1.240 . S
O64 In52 2.326 . S
O64 C56 1.252 . S
In65 O66 2.294 . S
In65 O67 2.326 . S
In65 O71 2.266 . S
In65 O72 2.326 . S
In65 O73 2.266 . S
In65 O74 2.326 . S
In65 O76 2.294 1_554 S
In65 O77 2.326 1_554 S
O66 In65 2.294 . S
O66 C75 1.240 . S
O67 In65 2.326 . S
O67 C75 1.252 . S
C68 O71 1.252 . S
C68 O72 1.260 . S
C69 O76 1.240 . S
C69 O77 1.252 . S
C70 O73 1.252 . S
C70 O74 1.260 . S
O71 In65 2.266 . S
O71 C68 1.252 . S
O72 In65 2.326 . S
O72 C68 1.260 . S
O73 In65 2.266 . S
O73 C70 1.252 . S
O74 In65 2.326 . S
O74 C70 1.260 . S
C75 O66 1.240 . S
C75 O67 1.252 . S
O76 In65 2.294 1_556 S
O76 C69 1.240 . S
O77 In65 2.326 1_556 S
O77 C69 1.252 . S
In78 O79 2.294 . S
In78 O80 2.326 . S
In78 O84 2.266 . S
In78 O85 2.326 . S
In78 O86 2.266 . S
In78 O87 2.326 . S
In78 O89 2.294 . S
In78 O90 2.326 . S
O79 In78 2.294 . S
O79 C88 1.240 . S
O80 In78 2.326 . S
O80 C88 1.252 . S
C81 O84 1.252 . S
C81 O85 1.260 . S
C82 O89 1.240 . S
C82 O90 1.252 . S
C83 O86 1.252 . S
C83 O87 1.260 . S
O84 In78 2.266 . S
O84 C81 1.252 . S
O85 In78 2.326 . S
O85 C81 1.260 . S
O86 In78 2.266 . S
O86 C83 1.252 . S
O87 In78 2.326 . S
O87 C83 1.260 . S
C88 O79 1.240 . S
C88 O80 1.252 . S
O89 In78 2.294 . S
O89 C82 1.240 . S
O90 In78 2.326 . S
O90 C82 1.252 . S
In91 O92 2.294 . S
In91 O93 2.326 . S
In91 O97 2.266 . S
In91 O98 2.326 . S
In91 O99 2.266 . S
In91 O100 2.326 . S
In91 O102 2.294 1_554 S
In91 O103 2.326 1_554 S
O92 In91 2.294 . S
O92 C101 1.240 . S
O93 In91 2.326 . S
O93 C101 1.252 . S
C94 O97 1.252 . S
C94 O98 1.260 . S
C95 O102 1.240 . S
C95 O103 1.252 . S
C96 O99 1.252 . S
C96 O100 1.260 . S
O97 In91 2.266 . S
O97 C94 1.252 . S
O98 In91 2.326 . S
O98 C94 1.260 . S
O99 In91 2.266 . S
O99 C96 1.252 . S
O100 In91 2.326 . S
O100 C96 1.260 . S
C101 O92 1.240 . S
C101 O93 1.252 . S
O102 In91 2.294 1_556 S
O102 C95 1.240 . S
O103 In91 2.326 1_556 S
O103 C95 1.252 . S
H104 C116 0.930 . S
H105 C118 0.930 . S
H106 C119 0.930 . S
H107 C123 0.959 . S
H108 C123 0.959 . S
H109 C123 0.961 . S
H110 C124 0.960 . S
H111 C124 0.961 . S
H112 C124 0.959 . S
H113 C127 0.929 . S
H114 C128 0.931 . S
H115 C130 0.930 . S
C116 H104 0.930 . S
C116 C117 1.399 . S
C116 C121 1.399 . S
C117 C116 1.399 . S
C117 C118 1.376 . S
C118 H105 0.930 . S
C118 C117 1.376 . S
C118 C119 1.388 . S
C119 H106 0.930 . S
C119 C118 1.388 . S
C119 C120 1.390 . S
C120 C119 1.390 . S
C120 C121 1.394 . S
C120 C126 1.465 . S
C121 C116 1.399 . S
C121 C120 1.394 . S
C121 C122 1.516 . S
C122 C121 1.516 . S
C122 C123 1.502 . S
C122 C124 1.561 . S
C122 C125 1.526 . S
C123 H107 0.959 . S
C123 H108 0.959 . S
C123 H109 0.961 . S
C123 C122 1.502 . S
C124 H110 0.960 . S
C124 H111 0.961 . S
C124 H112 0.959 . S
C124 C122 1.561 . S
C125 C122 1.526 . S
C125 C126 1.396 . S
C125 C130 1.390 . S
C126 C120 1.465 . S
C126 C125 1.396 . S
C126 C127 1.399 . S
C127 H113 0.929 . S
C127 C126 1.399 . S
C127 C128 1.385 . S
C128 H114 0.931 . S
C128 C127 1.385 . S
C128 C129 1.389 . S
C129 C128 1.389 . S
C129 C130 1.387 . S
C130 H115 0.930 . S
C130 C125 1.390 . S
C130 C129 1.387 . S
H131 C143 0.930 . S
H132 C145 0.930 . S
H133 C146 0.930 . S
H134 C150 0.959 . S
H135 C150 0.959 . S
H136 C150 0.961 . S
H137 C151 0.960 . S
H138 C151 0.961 . S
H139 C151 0.959 . S
H140 C154 0.929 . S
H141 C155 0.931 . S
H142 C157 0.930 . S
C143 H131 0.930 . S
C143 C144 1.399 . S
C143 C148 1.399 . S
C144 C143 1.399 . S
C144 C145 1.376 . S
C145 H132 0.930 . S
C145 C144 1.376 . S
C145 C146 1.388 . S
C146 H133 0.930 . S
C146 C145 1.388 . S
C146 C147 1.390 . S
C147 C146 1.390 . S
C147 C148 1.394 . S
C147 C153 1.465 . S
C148 C143 1.399 . S
C148 C147 1.394 . S
C148 C149 1.516 . S
C149 C148 1.516 . S
C149 C150 1.502 . S
C149 C151 1.561 . S
C149 C152 1.526 . S
C150 H134 0.959 . S
C150 H135 0.959 . S
C150 H136 0.961 . S
C150 C149 1.502 . S
C151 H137 0.960 . S
C151 H138 0.961 . S
C151 H139 0.959 . S
C151 C149 1.561 . S
C152 C149 1.526 . S
C152 C153 1.396 . S
C152 C157 1.390 . S
C153 C147 1.465 . S
C153 C152 1.396 . S
C153 C154 1.399 . S
C154 H140 0.929 . S
C154 C153 1.399 . S
C154 C155 1.385 . S
C155 H141 0.931 . S
C155 C154 1.385 . S
C155 C156 1.389 . S
C156 C155 1.389 . S
C156 C157 1.387 . S
C157 H142 0.930 . S
C157 C152 1.390 . S
C157 C156 1.387 . S
H158 C170 0.930 . S
H159 C172 0.930 . S
H160 C173 0.930 . S
H161 C177 0.959 . S
H162 C177 0.959 . S
H163 C177 0.961 . S
H164 C178 0.960 . S
H165 C178 0.961 . S
H166 C178 0.959 . S
H167 C181 0.929 . S
H168 C182 0.931 . S
H169 C184 0.930 . S
C170 H158 0.930 . S
C170 C171 1.399 . S
C170 C175 1.399 . S
C171 C170 1.399 . S
C171 C172 1.376 . S
C172 H159 0.930 . S
C172 C171 1.376 . S
C172 C173 1.388 . S
C173 H160 0.930 . S
C173 C172 1.388 . S
C173 C174 1.390 . S
C174 C173 1.390 . S
C174 C175 1.394 . S
C174 C180 1.465 . S
C175 C170 1.399 . S
C175 C174 1.394 . S
C175 C176 1.516 . S
C176 C175 1.516 . S
C176 C177 1.502 . S
C176 C178 1.561 . S
C176 C179 1.526 . S
C177 H161 0.959 . S
C177 H162 0.959 . S
C177 H163 0.961 . S
C177 C176 1.502 . S
C178 H164 0.960 . S
C178 H165 0.961 . S
C178 H166 0.959 . S
C178 C176 1.561 . S
C179 C176 1.526 . S
C179 C180 1.396 . S
C179 C184 1.390 . S
C180 C174 1.465 . S
C180 C179 1.396 . S
C180 C181 1.399 . S
C181 H167 0.929 . S
C181 C180 1.399 . S
C181 C182 1.385 . S
C182 H168 0.931 . S
C182 C181 1.385 . S
C182 C183 1.389 . S
C183 C182 1.389 . S
C183 C184 1.387 . S
C184 H169 0.930 . S
C184 C179 1.390 . S
C184 C183 1.387 . S
H185 C197 0.930 . S
H186 C199 0.930 . S
H187 C200 0.930 . S
H188 C204 0.959 . S
H189 C204 0.959 . S
H190 C204 0.961 . S
H191 C205 0.960 . S
H192 C205 0.961 . S
H193 C205 0.959 . S
H194 C208 0.929 . S
H195 C209 0.931 . S
H196 C211 0.930 . S
C197 H185 0.930 . S
C197 C198 1.399 . S
C197 C202 1.399 . S
C198 C197 1.399 . S
C198 C199 1.376 . S
C199 H186 0.930 . S
C199 C198 1.376 . S
C199 C200 1.388 . S
C200 H187 0.930 . S
C200 C199 1.388 . S
C200 C201 1.390 . S
C201 C200 1.390 . S
C201 C202 1.394 . S
C201 C207 1.465 . S
C202 C197 1.399 . S
C202 C201 1.394 . S
C202 C203 1.516 . S
C203 C202 1.516 . S
C203 C204 1.502 . S
C203 C205 1.561 . S
C203 C206 1.526 . S
C204 H188 0.959 . S
C204 H189 0.959 . S
C204 H190 0.961 . S
C204 C203 1.502 . S
C205 H191 0.960 . S
C205 H192 0.961 . S
C205 H193 0.959 . S
C205 C203 1.561 . S
C206 C203 1.526 . S
C206 C207 1.396 . S
C206 C211 1.390 . S
C207 C201 1.465 . S
C207 C206 1.396 . S
C207 C208 1.399 . S
C208 H194 0.929 . S
C208 C207 1.399 . S
C208 C209 1.385 . S
C209 H195 0.931 . S
C209 C208 1.385 . S
C209 C210 1.389 . S
C210 C209 1.389 . S
C210 C211 1.387 . S
C211 H196 0.930 . S
C211 C206 1.390 . S
C211 C210 1.387 . S
H212 C224 0.930 . S
H213 C226 0.930 . S
H214 C227 0.930 . S
H215 C231 0.959 . S
H216 C231 0.959 . S
H217 C231 0.961 . S
H218 C232 0.960 . S
H219 C232 0.961 . S
H220 C232 0.959 . S
H221 C235 0.929 . S
H222 C236 0.931 . S
H223 C238 0.930 . S
C224 H212 0.930 . S
C224 C225 1.399 . S
C224 C229 1.399 . S
C225 C224 1.399 . S
C225 C226 1.376 . S
C226 H213 0.930 . S
C226 C225 1.376 . S
C226 C227 1.388 . S
C227 H214 0.930 . S
C227 C226 1.388 . S
C227 C228 1.390 . S
C228 C227 1.390 . S
C228 C229 1.394 . S
C228 C234 1.465 . S
C229 C224 1.399 . S
C229 C228 1.394 . S
C229 C230 1.516 . S
C230 C229 1.516 . S
C230 C231 1.502 . S
C230 C232 1.561 . S
C230 C233 1.526 . S
C231 H215 0.959 . S
C231 H216 0.959 . S
C231 H217 0.961 . S
C231 C230 1.502 . S
C232 H218 0.960 . S
C232 H219 0.961 . S
C232 H220 0.959 . S
C232 C230 1.561 . S
C233 C230 1.526 . S
C233 C234 1.396 . S
C233 C238 1.390 . S
C234 C228 1.465 . S
C234 C233 1.396 . S
C234 C235 1.399 . S
C235 H221 0.929 . S
C235 C234 1.399 . S
C235 C236 1.385 . S
C236 H222 0.931 . S
C236 C235 1.385 . S
C236 C237 1.389 . S
C237 C236 1.389 . S
C237 C238 1.387 . S
C238 H223 0.930 . S
C238 C233 1.390 . S
C238 C237 1.387 . S
H239 C251 0.930 . S
H240 C253 0.930 . S
H241 C254 0.930 . S
H242 C258 0.959 . S
H243 C258 0.959 . S
H244 C258 0.961 . S
H245 C259 0.960 . S
H246 C259 0.961 . S
H247 C259 0.959 . S
H248 C262 0.929 . S
H249 C263 0.931 . S
H250 C265 0.930 . S
C251 H239 0.930 . S
C251 C252 1.399 . S
C251 C256 1.399 . S
C252 C251 1.399 . S
C252 C253 1.376 . S
C253 H240 0.930 . S
C253 C252 1.376 . S
C253 C254 1.388 . S
C254 H241 0.930 . S
C254 C253 1.388 . S
C254 C255 1.390 . S
C255 C254 1.390 . S
C255 C256 1.394 . S
C255 C261 1.465 . S
C256 C251 1.399 . S
C256 C255 1.394 . S
C256 C257 1.516 . S
C257 C256 1.516 . S
C257 C258 1.502 . S
C257 C259 1.561 . S
C257 C260 1.526 . S
C258 H242 0.959 . S
C258 H243 0.959 . S
C258 H244 0.961 . S
C258 C257 1.502 . S
C259 H245 0.960 . S
C259 H246 0.961 . S
C259 H247 0.959 . S
C259 C257 1.561 . S
C260 C257 1.526 . S
C260 C261 1.396 . S
C260 C265 1.390 . S
C261 C255 1.465 . S
C261 C260 1.396 . S
C261 C262 1.399 . S
C262 H248 0.929 . S
C262 C261 1.399 . S
C262 C263 1.385 . S
C263 H249 0.931 . S
C263 C262 1.385 . S
C263 C264 1.389 . S
C264 C263 1.389 . S
C264 C265 1.387 . S
C265 H250 0.930 . S
C265 C260 1.390 . S
C265 C264 1.387 . S
H266 C278 0.930 . S
H267 C280 0.930 . S
H268 C281 0.930 . S
H269 C285 0.959 . S
H270 C285 0.959 . S
H271 C285 0.961 . S
H272 C286 0.960 . S
H273 C286 0.961 . S
H274 C286 0.959 . S
H275 C289 0.929 . S
H276 C290 0.931 . S
H277 C292 0.930 . S
C278 H266 0.930 . S
C278 C279 1.399 . S
C278 C283 1.399 . S
C279 C278 1.399 . S
C279 C280 1.376 . S
C280 H267 0.930 . S
C280 C279 1.376 . S
C280 C281 1.388 . S
C281 H268 0.930 . S
C281 C280 1.388 . S
C281 C282 1.390 . S
C282 C281 1.390 . S
C282 C283 1.394 . S
C282 C288 1.465 . S
C283 C278 1.399 . S
C283 C282 1.394 . S
C283 C284 1.516 . S
C284 C283 1.516 . S
C284 C285 1.502 . S
C284 C286 1.561 . S
C284 C287 1.526 . S
C285 H269 0.959 . S
C285 H270 0.959 . S
C285 H271 0.961 . S
C285 C284 1.502 . S
C286 H272 0.960 . S
C286 H273 0.961 . S
C286 H274 0.959 . S
C286 C284 1.561 . S
C287 C284 1.526 . S
C287 C288 1.396 . S
C287 C292 1.390 . S
C288 C282 1.465 . S
C288 C287 1.396 . S
C288 C289 1.399 . S
C289 H275 0.929 . S
C289 C288 1.399 . S
C289 C290 1.385 . S
C290 H276 0.931 . S
C290 C289 1.385 . S
C290 C291 1.389 . S
C291 C290 1.389 . S
C291 C292 1.387 . S
C292 H277 0.930 . S
C292 C287 1.390 . S
C292 C291 1.387 . S
H293 C305 0.930 . S
H294 C307 0.930 . S
H295 C308 0.930 . S
H296 C312 0.959 . S
H297 C312 0.959 . S
H298 C312 0.961 . S
H299 C313 0.960 . S
H300 C313 0.961 . S
H301 C313 0.959 . S
H302 C316 0.929 . S
H303 C317 0.931 . S
H304 C319 0.930 . S
C305 H293 0.930 . S
C305 C306 1.399 . S
C305 C310 1.399 . S
C306 C305 1.399 . S
C306 C307 1.376 . S
C307 H294 0.930 . S
C307 C306 1.376 . S
C307 C308 1.388 . S
C308 H295 0.930 . S
C308 C307 1.388 . S
C308 C309 1.390 . S
C309 C308 1.390 . S
C309 C310 1.394 . S
C309 C315 1.465 . S
C310 C305 1.399 . S
C310 C309 1.394 . S
C310 C311 1.516 . S
C311 C310 1.516 . S
C311 C312 1.502 . S
C311 C313 1.561 . S
C311 C314 1.526 . S
C312 H296 0.959 . S
C312 H297 0.959 . S
C312 H298 0.961 . S
C312 C311 1.502 . S
C313 H299 0.960 . S
C313 H300 0.961 . S
C313 H301 0.959 . S
C313 C311 1.561 . S
C314 C311 1.526 . S
C314 C315 1.396 . S
C314 C319 1.390 . S
C315 C309 1.465 . S
C315 C314 1.396 . S
C315 C316 1.399 . S
C316 H302 0.929 . S
C316 C315 1.399 . S
C316 C317 1.385 . S
C317 H303 0.931 . S
C317 C316 1.385 . S
C317 C318 1.389 . S
C318 C317 1.389 . S
C318 C319 1.387 . S
C319 H304 0.930 . S
C319 C314 1.390 . S
C319 C318 1.387 . S
H320 C332 0.930 . S
H321 C334 0.930 . S
H322 C335 0.930 . S
H323 C339 0.961 . S
H324 C339 0.959 . S
H325 C339 0.961 1_655 S
H326 C340 0.960 1_655 S
H327 C340 0.961 . S
H328 C340 0.959 . S
H329 C343 0.929 . S
H330 C344 0.931 . S
H331 C346 0.930 . S
C332 H320 0.930 . S
C332 C333 1.399 1_556 S
C332 C337 1.399 . S
C333 C332 1.399 1_554 S
C333 C334 1.376 . S
C334 H321 0.930 . S
C334 C333 1.376 . S
C334 C335 1.388 . S
C335 H322 0.930 . S
C335 C334 1.388 . S
C335 C336 1.390 . S
C336 C335 1.390 . S
C336 C337 1.394 1_554 S
C336 C342 1.465 1_655 S
C337 C332 1.399 . S
C337 C336 1.394 1_556 S
C337 C338 1.516 1_655 S
C338 C337 1.516 1_455 S
C338 C339 1.502 . S
C338 C340 1.561 . S
C338 C341 1.526 . S
C339 H323 0.961 . S
C339 H324 0.959 . S
C339 H325 0.961 1_455 S
C339 C338 1.502 . S
C340 H326 0.960 1_455 S
C340 H327 0.961 . S
C340 H328 0.959 . S
C340 C338 1.561 . S
C341 C338 1.526 . S
C341 C342 1.396 1_556 S
C341 C346 1.390 . S
C342 C336 1.465 1_455 S
C342 C341 1.396 1_554 S
C342 C343 1.399 . S
C343 H329 0.929 . S
C343 C342 1.399 . S
C343 C344 1.385 . S
C344 H330 0.931 . S
C344 C343 1.385 . S
C344 C345 1.389 . S
C345 C344 1.389 . S
C345 C346 1.387 1_554 S
C346 H331 0.930 . S
C346 C341 1.390 . S
C346 C345 1.387 1_556 S
H347 C359 0.930 . S
H348 C361 0.930 . S
H349 C362 0.930 . S
H350 C366 0.959 . S
H351 C366 0.959 1_545 S
H352 C366 0.961 . S
H353 C367 0.960 1_565 S
H354 C367 0.961 . S
H355 C367 0.959 . S
H356 C370 0.929 . S
H357 C371 0.931 . S
H358 C373 0.930 . S
C359 H347 0.930 . S
C359 C360 1.399 . S
C359 C364 1.399 . S
C360 C359 1.399 . S
C360 C361 1.376 . S
C361 H348 0.930 . S
C361 C360 1.376 . S
C361 C362 1.388 . S
C362 H349 0.930 . S
C362 C361 1.388 . S
C362 C363 1.390 . S
C363 C362 1.390 . S
C363 C364 1.394 . S
C363 C369 1.465 1_565 S
C364 C359 1.399 . S
C364 C363 1.394 . S
C364 C365 1.540 . S
C365 C364 1.540 . S
C365 C366 1.508 . S
C365 C367 1.556 1_565 S
C365 C368 1.501 1_565 S
C366 H350 0.959 . S
C366 H351 0.959 1_565 S
C366 H352 0.961 . S
C366 C365 1.508 . S
C367 H353 0.960 1_545 S
C367 H354 0.961 . S
C367 H355 0.959 . S
C367 C365 1.556 1_545 S
C368 C365 1.501 1_545 S
C368 C369 1.396 . S
C368 C373 1.390 . S
C369 C363 1.465 1_545 S
C369 C368 1.396 . S
C369 C370 1.399 . S
C370 H356 0.929 . S
C370 C369 1.399 . S
C370 C371 1.385 . S
C371 H357 0.931 . S
C371 C370 1.385 . S
C371 C372 1.389 . S
C372 C371 1.389 . S
C372 C373 1.387 . S
C373 H358 0.930 . S
C373 C368 1.390 . S
C373 C372 1.387 . S
H374 C386 0.930 . S
H375 C388 0.930 . S
H376 C389 0.930 . S
H377 C393 0.959 . S
H378 C393 0.959 1_655 S
H379 C393 0.961 . S
H380 C394 0.960 1_455 S
H381 C394 0.961 . S
H382 C394 0.959 . S
H383 C397 0.929 . S
H384 C398 0.931 . S
H385 C400 0.930 . S
C386 H374 0.930 . S
C386 C387 1.399 . S
C386 C391 1.399 . S
C387 C386 1.399 . S
C387 C388 1.376 . S
C388 H375 0.930 . S
C388 C387 1.376 . S
C388 C389 1.388 . S
C389 H376 0.930 . S
C389 C388 1.388 . S
C389 C390 1.390 . S
C390 C389 1.390 . S
C390 C391 1.394 . S
C390 C396 1.465 1_455 S
C391 C386 1.399 . S
C391 C390 1.394 . S
C391 C392 1.524 . S
C392 C391 1.524 . S
C392 C393 1.504 . S
C392 C394 1.559 1_455 S
C392 C395 1.518 1_455 S
C393 H377 0.959 . S
C393 H378 0.959 1_455 S
C393 H379 0.961 . S
C393 C392 1.504 . S
C394 H380 0.960 1_655 S
C394 H381 0.961 . S
C394 H382 0.959 . S
C394 C392 1.559 1_655 S
C395 C392 1.518 1_655 S
C395 C396 1.396 . S
C395 C400 1.390 . S
C396 C390 1.465 1_655 S
C396 C395 1.396 . S
C396 C397 1.399 . S
C397 H383 0.929 . S
C397 C396 1.399 . S
C397 C398 1.385 . S
C398 H384 0.931 . S
C398 C397 1.385 . S
C398 C399 1.389 . S
C399 C398 1.389 . S
C399 C400 1.387 . S
C400 H385 0.930 . S
C400 C395 1.390 . S
C400 C399 1.387 . S
H401 C413 0.930 . S
H402 C415 0.930 1_556 S
H403 C416 0.930 . S
H404 C420 0.959 . S
H405 C420 0.959 1_545 S
H406 C420 0.961 . S
H407 C421 0.960 1_565 S
H408 C421 0.961 . S
H409 C421 0.959 . S
H410 C424 0.929 . S
H411 C425 0.931 1_556 S
H412 C427 0.930 . S
C413 H401 0.930 . S
C413 C414 1.399 . S
C413 C418 1.399 . S
C414 C413 1.399 . S
C414 C415 1.376 . S
C415 H402 0.930 1_554 S
C415 C414 1.376 . S
C415 C416 1.388 1_554 S
C416 H403 0.930 . S
C416 C415 1.388 1_556 S
C416 C417 1.390 1_556 S
C417 C416 1.390 1_554 S
C417 C418 1.394 . S
C417 C423 1.465 1_565 S
C418 C413 1.399 . S
C418 C417 1.394 . S
C418 C419 1.516 1_565 S
C419 C418 1.516 1_545 S
C419 C420 1.502 1_545 S
C419 C421 1.561 . S
C419 C422 1.526 . S
C420 H404 0.959 . S
C420 H405 0.959 1_565 S
C420 H406 0.961 . S
C420 C419 1.502 1_565 S
C421 H407 0.960 1_545 S
C421 H408 0.961 . S
C421 H409 0.959 . S
C421 C419 1.561 . S
C422 C419 1.526 . S
C422 C423 1.396 . S
C422 C427 1.390 . S
C423 C417 1.465 1_545 S
C423 C422 1.396 . S
C423 C424 1.399 1_554 S
C424 H410 0.929 . S
C424 C423 1.399 1_556 S
C424 C425 1.385 1_556 S
C425 H411 0.931 1_554 S
C425 C424 1.385 1_554 S
C425 C426 1.389 . S
C426 C425 1.389 . S
C426 C427 1.387 . S
C427 H412 0.930 . S
C427 C422 1.390 . S
C427 C426 1.387 . S
H428 C440 0.930 1_556 S
H429 C442 0.930 . S
H430 C443 0.930 . S
H431 C447 0.959 1_554 S
H432 C447 0.959 . S
H433 C447 0.961 . S
H434 C448 0.960 . S
H435 C448 0.961 . S
H436 C448 0.959 . S
H437 C451 0.929 . S
H438 C452 0.931 . S
H439 C454 0.930 1_556 S
C440 H428 0.930 1_554 S
C440 C441 1.399 . S
C440 C445 1.399 . S
C441 C440 1.399 . S
C441 C442 1.376 . S
C442 H429 0.930 . S
C442 C441 1.376 . S
C442 C443 1.388 . S
C443 H430 0.930 . S
C443 C442 1.388 . S
C443 C444 1.390 . S
C444 C443 1.390 . S
C444 C445 1.394 . S
C444 C450 1.465 . S
C445 C440 1.399 . S
C445 C444 1.394 . S
C445 C446 1.516 1_554 S
C446 C445 1.516 1_556 S
C446 C447 1.502 . S
C446 C448 1.561 . S
C446 C449 1.526 1_556 S
C447 H431 0.959 1_556 S
C447 H432 0.959 . S
C447 H433 0.961 . S
C447 C446 1.502 . S
C448 H434 0.960 . S
C448 H435 0.961 . S
C448 H436 0.959 . S
C448 C446 1.561 . S
C449 C446 1.526 1_554 S
C449 C450 1.396 . S
C449 C454 1.390 . S
C450 C444 1.465 . S
C450 C449 1.396 . S
C450 C451 1.399 . S
C451 H437 0.929 . S
C451 C450 1.399 . S
C451 C452 1.385 . S
C452 H438 0.931 . S
C452 C451 1.385 . S
C452 C453 1.389 . S
C453 C452 1.389 . S
C453 C454 1.387 . S
C454 H439 0.930 1_554 S
C454 C449 1.390 . S
C454 C453 1.387 . S
H455 C467 0.930 . S
H456 C469 0.930 . S
H457 C470 0.930 . S
H458 C474 0.959 . S
H459 C474 0.959 . S
H460 C474 0.961 . S
H461 C475 0.960 . S
H462 C475 0.961 . S
H463 C475 0.959 . S
H464 C478 0.929 . S
H465 C479 0.931 . S
H466 C481 0.930 . S
C467 H455 0.930 . S
C467 C468 1.399 . S
C467 C472 1.399 . S
C468 C467 1.399 . S
C468 C469 1.376 . S
C469 H456 0.930 . S
C469 C468 1.376 . S
C469 C470 1.388 . S
C470 H457 0.930 . S
C470 C469 1.388 . S
C470 C471 1.390 . S
C471 C470 1.390 . S
C471 C472 1.394 . S
C471 C477 1.465 . S
C472 C467 1.399 . S
C472 C471 1.394 . S
C472 C473 1.516 . S
C473 C472 1.516 . S
C473 C474 1.502 . S
C473 C475 1.561 . S
C473 C476 1.526 . S
C474 H458 0.959 . S
C474 H459 0.959 . S
C474 H460 0.961 . S
C474 C473 1.502 . S
C475 H461 0.960 . S
C475 H462 0.961 . S
C475 H463 0.959 . S
C475 C473 1.561 . S
C476 C473 1.526 . S
C476 C477 1.396 . S
C476 C481 1.390 . S
C477 C471 1.465 . S
C477 C476 1.396 . S
C477 C478 1.399 . S
C478 H464 0.929 . S
C478 C477 1.399 . S
C478 C479 1.385 . S
C479 H465 0.931 . S
C479 C478 1.385 . S
C479 C480 1.389 . S
C480 C479 1.389 . S
C480 C481 1.387 . S
C481 H466 0.930 . S
C481 C476 1.390 . S
C481 C480 1.387 . S
H482 C494 0.930 . S
H483 C496 0.930 1_556 S
H484 C497 0.931 . S
H485 C501 0.959 . S
H486 C501 0.959 . S
H487 C501 0.961 . S
H488 C502 0.960 . S
H489 C502 0.961 . S
H490 C502 0.959 . S
H491 C505 0.929 . S
H492 C506 0.919 1_556 S
H493 C508 0.930 . S
C494 H482 0.930 . S
C494 C495 1.399 . S
C494 C499 1.399 . S
C495 C494 1.399 . S
C495 C496 1.376 . S
C496 H483 0.930 1_554 S
C496 C495 1.376 . S
C496 C497 1.388 1_554 S
C497 H484 0.931 . S
C497 C496 1.388 1_556 S
C497 C498 1.389 1_556 S
C498 C497 1.389 1_554 S
C498 C499 1.394 . S
C498 C504 1.465 . S
C499 C494 1.399 . S
C499 C498 1.394 . S
C499 C500 1.516 . S
C500 C499 1.516 . S
C500 C501 1.502 . S
C500 C502 1.561 . S
C500 C503 1.526 . S
C501 H485 0.959 . S
C501 H486 0.959 . S
C501 H487 0.961 . S
C501 C500 1.502 . S
C502 H488 0.960 . S
C502 H489 0.961 . S
C502 H490 0.959 . S
C502 C500 1.561 . S
C503 C500 1.526 . S
C503 C504 1.396 . S
C503 C508 1.390 . S
C504 C498 1.465 . S
C504 C503 1.396 . S
C504 C505 1.399 1_554 S
C505 H491 0.929 . S
C505 C504 1.399 1_556 S
C505 C506 1.383 1_556 S
C506 H492 0.919 1_554 S
C506 C505 1.383 1_554 S
C506 C507 1.403 . S
C507 C506 1.403 . S
C507 C508 1.387 . S
C508 H493 0.930 . S
C508 C503 1.390 . S
C508 C507 1.387 . S
H509 C521 0.930 . S
H510 C523 0.930 . S
H511 C524 0.930 . S
H512 C528 0.959 . S
H513 C528 0.959 . S
H514 C528 0.961 . S
H515 C529 0.960 . S
H516 C529 0.961 . S
H517 C529 0.959 . S
H518 C532 0.929 . S
H519 C533 0.931 . S
H520 C535 0.930 . S
C521 H509 0.930 . S
C521 C522 1.399 . S
C521 C526 1.399 . S
C522 C521 1.399 . S
C522 C523 1.376 . S
C523 H510 0.930 . S
C523 C522 1.376 . S
C523 C524 1.388 . S
C524 H511 0.930 . S
C524 C523 1.388 . S
C524 C525 1.390 . S
C525 C524 1.390 . S
C525 C526 1.394 . S
C525 C531 1.465 . S
C526 C521 1.399 . S
C526 C525 1.394 . S
C526 C527 1.516 . S
C527 C526 1.516 . S
C527 C528 1.502 . S
C527 C529 1.561 . S
C527 C530 1.526 . S
C528 H512 0.959 . S
C528 H513 0.959 . S
C528 H514 0.961 . S
C528 C527 1.502 . S
C529 H515 0.960 . S
C529 H516 0.961 . S
C529 H517 0.959 . S
C529 C527 1.561 . S
C530 C527 1.526 . S
C530 C531 1.396 . S
C530 C535 1.390 . S
C531 C525 1.465 . S
C531 C530 1.396 . S
C531 C532 1.399 . S
C532 H518 0.929 . S
C532 C531 1.399 . S
C532 C533 1.385 . S
C533 H519 0.931 . S
C533 C532 1.385 . S
C533 C534 1.389 . S
C534 C533 1.389 . S
C534 C535 1.387 . S
C535 H520 0.930 . S
C535 C530 1.390 . S
C535 C534 1.387 . S
C117 C10 1.595 . S
C129 C62 1.624 . S
C144 C17 1.610 . S
C156 C69 1.639 . S
C171 C88 1.636 . S
C183 C36 1.616 . S
C198 C95 1.603 . S
C210 C49 1.641 . S
C225 C81 1.062 . S
C237 C29 1.011 . S
C252 C96 1.092 . S
C264 C42 1.040 . S
C279 C3 1.032 . S
C291 C55 1.094 . S
C306 C18 1.090 . S
C318 C70 1.045 . S
C333 C31 1.427 . S
C345 C5 1.435 . S
C360 C44 1.439 . S
C372 C16 1.424 . S
C387 C57 1.438 . S
C399 C83 1.424 . S
C414 C94 1.435 . S
C426 C68 1.427 . S
C441 C4 1.410 . S
C453 C75 1.408 . S
C468 C82 1.417 . S
C480 C23 1.421 . S
C495 C30 1.419 . S
C507 C101 1.421 . S
C522 C43 1.415 . S
C534 C56 1.410 . S
