# Generated by pormake.
# Topology snp, (6)-cn, num edge types: 1
# Building blocks:
#     Node 0, Type 0, BuildingBlock: MIFKUJ_clean_sbu_0, # of connection points: 6
#     Node 1, Type 0, BuildingBlock: MIFKUJ_clean_sbu_0, # of connection points: 6
#     Node 2, Type 0, BuildingBlock: MIFKUJ_clean_sbu_0, # of connection points: 6
#     Node 3, Type 0, BuildingBlock: MIFKUJ_clean_sbu_0, # of connection points: 6
#     Edge 4, Type (0, 0), BuildingBlock: UVAHIK_clean_linker_0, # of connection points: 2
#     Edge 5, Type (0, 0), BuildingBlock: UVAHIK_clean_linker_0, # of connection points: 2
#     Edge 6, Type (0, 0), BuildingBlock: UVAHIK_clean_linker_0, # of connection points: 2
#     Edge 7, Type (0, 0), BuildingBlock: UVAHIK_clean_linker_0, # of connection points: 2
#     Edge 8, Type (0, 0), BuildingBlock: UVAHIK_clean_linker_0, # of connection points: 2
#     Edge 9, Type (0, 0), BuildingBlock: UVAHIK_clean_linker_0, # of connection points: 2
#     Edge 10, Type (0, 0), BuildingBlock: UVAHIK_clean_linker_0, # of connection points: 2
#     Edge 11, Type (0, 0), BuildingBlock: UVAHIK_clean_linker_0, # of connection points: 2
#     Edge 12, Type (0, 0), BuildingBlock: UVAHIK_clean_linker_0, # of connection points: 2
#     Edge 13, Type (0, 0), BuildingBlock: UVAHIK_clean_linker_0, # of connection points: 2
#     Edge 14, Type (0, 0), BuildingBlock: UVAHIK_clean_linker_0, # of connection points: 2
#     Edge 15, Type (0, 0), BuildingBlock: UVAHIK_clean_linker_0, # of connection points: 2
# Relax obj value: 0.290
# Max RMSD: 0.222
# Mean RMSD: 0.222
data_MOF--net-snp--node1-MIFKUJ_clean_sbu_0--edge1-UVAHIK_clean_linker_0
_symmetry_space_group_name_H-M    P1
_symmetry_Int_Tables_number       1
_symmetry_cell_setting            triclinic
loop_
_symmetry_equiv_pos_as_xyz
'x, y, z'
_cell_length_a     30.89793
_cell_length_b     30.90871
_cell_length_c     38.189782
_cell_angle_alpha  89.820776
_cell_angle_beta   90.014301
_cell_angle_gamma 89.725543
loop_
_atom_site_label
_atom_site_type_symbol
_atom_site_fract_x
_atom_site_fract_y
_atom_site_fract_z
_atom_type_partial_charge
Zn0 Zn 0.2909 0.94437 0.05917 0.0
Zn1 Zn 0.31369 0.935 0.94768 0.0
C2 C 0.24685 0.90567 0.11277 0.0
O3 O 0.22128 0.93661 0.10122 0.0
C4 C 0.34168 0.00128 0.89914 0.0
O5 O 0.37245 0.97302 0.89242 0.0
O6 O 0.29938 0.00111 0.08432 0.0
O7 O 0.34109 0.93407 0.02421 0.0
O8 O 0.37083 0.924 0.97215 0.0
C9 C 0.32164 0.00024 0.11232 0.0
O10 O 0.3409 0.96392 0.12145 0.0
O11 O 0.28317 0.8996 0.09777 0.0
C12 C 0.25943 0.90285 0.89788 0.0
O13 O 0.24136 0.93875 0.90898 0.0
O14 O 0.29475 0.89061 0.91195 0.0
O15 O 0.27331 0.93953 0.98713 0.0
O16 O 0.23341 0.94812 0.03285 0.0
O17 O 0.31416 -0.00725 0.92286 0.0
C18 C 0.37478 0.9285 0.00533 0.0
C19 C 0.23622 0.94535 0.99993 0.0
Zn20 Zn 0.16913 0.2838 0.56045 0.0
Zn21 Zn 0.18267 0.29915 0.44905 0.0
C22 C 0.19419 0.26754 0.62914 0.0
O23 O 0.15605 0.24931 0.62664 0.0
C24 C 0.10231 0.31917 0.41107 0.0
O25 O 0.112 0.35955 0.4181 0.0
O26 O 0.1074 0.28512 0.57836 0.0
O27 O 0.17585 0.32874 0.52135 0.0
O28 O 0.18207 0.35974 0.47002 0.0
C29 C 0.08803 0.31866 0.58965 0.0
O30 O 0.1067 0.35654 0.58634 0.0
O31 O 0.20946 0.28733 0.60257 0.0
C32 C 0.22835 0.30069 0.38449 0.0
O33 O 0.19938 0.33084 0.37778 0.0
O34 O 0.23069 0.28526 0.41535 0.0
O35 O 0.18395 0.25972 0.49023 0.0
O36 O 0.17907 0.22419 0.53881 0.0
O37 O 0.12683 0.28906 0.42241 0.0
C38 C 0.17415 0.36285 0.50275 0.0
C39 C 0.18316 0.2236 0.50571 0.0
Zn40 Zn 0.82939 0.17104 0.06258 0.0
Zn41 Zn 0.82114 0.18858 0.95189 0.0
C42 C 0.81842 0.2159 0.12815 0.0
O43 O 0.78959 0.18559 0.13382 0.0
C44 C 0.80346 0.11479 0.90964 0.0
O45 O 0.76708 0.13627 0.90518 0.0
O46 O 0.82433 0.11565 0.09011 0.0
O47 O 0.78118 0.17407 0.02494 0.0
O48 O 0.7603 0.1866 0.97021 0.0
C49 C 0.79108 0.0929 0.09646 0.0
O50 O 0.7533 0.10498 0.08403 0.0
O51 O 0.83491 0.21946 0.09774 0.0
C52 C 0.86959 0.22671 0.89972 0.0
O53 O 0.89529 0.19726 0.91339 0.0
O54 O 0.83273 0.23284 0.91374 0.0
O55 O 0.85527 0.19579 0.99525 0.0
O56 O 0.88738 0.16504 0.03895 0.0
O57 O 0.83232 0.13051 0.92955 0.0
C58 C 0.75136 0.17589 1.00177 0.0
C59 C 0.887 0.17393 0.00663 0.0
Zn60 Zn 0.94601 0.83303 0.55687 0.0
Zn61 Zn 0.92763 0.81177 0.44747 0.0
C62 C 0.91029 0.87615 0.61155 0.0
O63 O 0.94046 0.90132 0.59856 0.0
C64 C 0.01244 0.79332 0.41542 0.0
O65 O 0.00476 0.75282 0.42378 0.0
O66 O 0.00416 0.82713 0.58005 0.0
O67 O 0.93869 0.78138 0.52298 0.0
O68 O 0.92719 0.75289 0.47056 0.0
C69 C 0.00927 0.79975 0.6046 0.0
O70 O 0.97693 0.77426 0.61294 0.0
O71 O 0.9033 0.83986 0.59694 0.0
C72 C 0.8631 0.85812 0.40866 0.0
O73 O 0.86865 0.88575 0.43429 0.0
O74 O 0.88205 0.82159 0.41034 0.0
O75 O 0.92228 0.84968 0.48838 0.0
O76 O 0.9477 0.88954 0.52937 0.0
O77 O 0.98502 0.82235 0.42368 0.0
C78 C 0.93473 0.74825 0.50334 0.0
C79 C 0.93849 0.88529 0.49736 0.0
C80 C 0.89908 0.10215 0.98046 0.0
C81 C 0.91171 0.14541 0.98363 0.0
C82 C 0.92643 0.07217 0.96454 0.0
C83 C 0.03199 0.05864 0.91819 0.0
H84 H 0.04664 0.96606 0.98587 0.0
C85 C 0.19546 -0.00489 0.96135 0.0
C86 C 0.19863 0.95487 0.97805 0.0
C87 C 0.15632 0.00829 0.94649 0.0
C88 C 0.04263 -0.00942 0.96581 0.0
H89 H 0.96169 0.19211 0.97247 0.0
H90 H 0.01036 0.13954 0.94505 0.0
H91 H 0.98232 0.01003 0.98762 0.0
H92 H 0.16573 0.89513 0.99017 0.0
H93 H 0.09736 0.91731 0.96302 0.0
H94 H 0.09393 0.04028 0.89774 0.0
C95 C 0.97877 0.12885 0.95368 0.0
C96 C 0.00545 0.01607 0.96689 0.0
C97 C 0.95121 0.15891 0.96956 0.0
C98 C 0.16355 0.92644 0.97743 0.0
C99 C 0.12455 0.93927 0.96201 0.0
C100 C 0.06926 0.03282 0.91694 0.0
C101 C 0.96732 0.08483 0.95222 0.0
C102 C 0.00073 0.05174 0.94431 0.0
C103 C 0.11977 0.98129 0.94811 0.0
C104 C 0.07602 -0.0 0.94202 0.0
H105 H 0.86878 0.09122 0.99165 0.0
H106 H 0.91652 0.03863 0.96349 0.0
H107 H 0.02878 0.08544 0.90003 0.0
H108 H 0.22241 0.01742 0.96178 0.0
H109 H 0.15395 0.04099 0.93641 0.0
C110 C 0.94091 0.95296 0.46275 0.0
C111 C 0.96014 0.91358 0.47232 0.0
C112 C 0.96604 0.98565 0.44787 0.0
C113 C 0.03313 0.053 0.46136 0.0
H114 H 0.14038 0.04319 0.40889 0.0
C115 C 0.17644 0.14356 0.50445 0.0
C116 C 0.17728 0.18303 0.4862 0.0
C117 C 0.15733 0.10745 0.4893 0.0
C118 C 0.11025 0.04636 0.42317 0.0
H119 H 0.0193 0.876 0.47272 0.0
H120 H 0.06337 0.93285 0.44699 0.0
H121 H 0.08418 0.98742 0.40249 0.0
H122 H 0.16563 0.21389 0.43593 0.0
H123 H 0.13058 0.15087 0.40998 0.0
H124 H 0.05987 0.11039 0.48339 0.0
C125 C 0.02893 0.9385 0.44984 0.0
C126 C 0.07822 0.01474 0.41955 0.0
C127 C 0.00378 0.90591 0.46461 0.0
C128 C 0.16448 0.18411 0.45085 0.0
C129 C 0.14484 0.14802 0.43581 0.0
C130 C 0.06496 0.08421 0.46499 0.0
C131 C 0.01084 0.97948 0.44314 0.0
C132 C 0.03992 0.01713 0.43951 0.0
C133 C 0.13889 0.11048 0.45582 0.0
C134 C 0.10414 0.08036 0.44684 0.0
H135 H 0.90738 0.95961 0.46917 0.0
H136 H 0.95122 0.01688 0.44279 0.0
H137 H 0.00458 0.05547 0.4777 0.0
H138 H 0.1869 0.14157 0.53149 0.0
H139 H 0.15293 0.07859 0.50506 0.0
C140 C 0.6961 0.12398 0.98264 0.0
C141 C 0.71038 0.15312 0.00813 0.0
C142 C 0.66069 0.09766 0.98887 0.0
C143 C 0.59169 0.0509 0.05793 0.0
H144 H 0.51908 0.0272 0.97744 0.0
C145 C 0.42258 0.96461 0.04905 0.0
C146 C 0.41814 0.93747 0.01976 0.0
C147 C 0.46189 0.98537 0.0556 0.0
C148 C 0.53933 0.03319 1.00008 0.0
H149 H 0.69899 0.17775 0.06033 0.0
H150 H 0.63464 0.13264 0.07085 0.0
H151 H 0.57621 0.0802 0.97253 0.0
H152 H 0.45275 0.90564 0.97765 0.0
H153 H 0.52126 0.94168 0.98921 0.0
H154 H 0.55272 0.00433 0.0856 0.0
C155 C 0.65173 0.12975 0.04621 0.0
C156 C 0.57208 0.06359 0.99732 0.0
C157 C 0.6881 0.15584 0.04011 0.0
C158 C 0.45504 0.92692 1.00006 0.0
C159 C 0.49423 0.9475 0.00666 0.0
C160 C 0.55804 0.02073 0.06087 0.0
C161 C 0.63771 0.10034 0.02052 0.0
C162 C 0.59955 0.07199 0.0258 0.0
C163 C 0.49709 0.97897 0.033 0.0
C164 C 0.53245 0.01089 0.03158 0.0
H165 H 0.71347 0.12008 0.95823 0.0
H166 H 0.65189 0.07443 0.96895 0.0
H167 H 0.6123 0.05665 0.08036 0.0
H168 H 0.39471 0.97336 0.06469 0.0
H169 H 0.46339 0.00953 0.07605 0.0
C170 C 0.16382 0.43479 0.53181 0.0
C171 C 0.14696 0.39891 0.51417 0.0
C172 C 0.13713 0.47064 0.5386 0.0
C173 C 0.04676 0.52513 0.49827 0.0
H174 H 0.02879 0.58627 0.5856 0.0
C175 C 0.9314 0.66787 0.50045 0.0
C176 C 0.94733 0.70524 0.51655 0.0
C177 C 0.95055 0.62775 0.50722 0.0
C178 C 0.03369 0.56959 0.56102 0.0
H179 H 0.08967 0.37051 0.49139 0.0
H180 H 0.04332 0.43293 0.50287 0.0
H181 H 0.07574 0.52188 0.58436 0.0
H182 H -0.00603 0.72984 0.55375 0.0
H183 H 0.0281 0.66012 0.56502 0.0
H184 H 0.00655 0.57285 0.47434 0.0
C185 C 0.07676 0.43375 0.51138 0.0
C186 C 0.06054 0.53293 0.56036 0.0
C187 C 0.10317 0.3982 0.5048 0.0
C188 C 0.98061 0.70141 0.54144 0.0
C189 C 0.00026 0.66138 0.54782 0.0
C190 C 0.02045 0.56172 0.49882 0.0
C191 C 0.09371 0.47071 0.52746 0.0
C192 C 0.06689 0.51029 0.52897 0.0
C193 C 0.98668 0.62444 0.52957 0.0
C194 C 0.01321 0.58426 0.53019 0.0
H195 H 0.19766 0.43564 0.53917 0.0
H196 H 0.15084 0.49896 0.55093 0.0
H197 H 0.05185 0.50865 0.4736 0.0
H198 H 0.90551 0.66998 0.48137 0.0
H199 H 0.93847 0.59966 0.49351 0.0
C200 C 0.24439 0.29228 0.32048 0.0
C201 C 0.25005 0.27795 0.35521 0.0
C202 C 0.25752 0.26638 0.29238 0.0
C203 C 0.27301 0.15135 0.27298 0.0
H204 H 0.32537 0.19063 0.18628 0.0
C205 C 0.33504 0.03116 0.17153 0.0
C206 C 0.32065 0.0371 0.13694 0.0
C207 C 0.32946 0.0637 0.19633 0.0
C208 C 0.31044 0.1794 0.21029 0.0
H209 H 0.27681 0.22658 0.3876 0.0
H210 H 0.3 0.18182 0.33873 0.0
H211 H 0.31181 0.24248 0.23369 0.0
H212 H 0.2912 0.08281 0.10078 0.0
H213 H 0.28204 0.14027 0.14438 0.0
H214 H 0.27155 0.0885 0.24987 0.0
C215 C 0.28468 0.21268 0.33319 0.0
C216 C 0.30272 0.20898 0.23737 0.0
C217 C 0.27174 0.23856 0.36123 0.0
C218 C 0.30246 0.07722 0.12728 0.0
C219 C 0.29733 0.11012 0.15215 0.0
C220 C 0.28082 0.12195 0.2461 0.0
C221 C 0.27639 0.2256 0.29849 0.0
C222 C 0.28443 0.19506 0.2692 0.0
C223 C 0.30977 0.10315 0.18712 0.0
C224 C 0.30012 0.13548 0.21467 0.0
H225 H 0.22795 0.32256 0.31494 0.0
H226 H 0.25074 0.27726 0.26594 0.0
H227 H 0.25764 0.13982 0.29671 0.0
H228 H 0.34923 0.00072 0.17989 0.0
H229 H 0.33988 0.05768 0.22301 0.0
C230 C 0.02634 0.35004 0.62423 0.0
C231 C 0.04962 0.31368 0.61255 0.0
C232 C -0.00522 0.34583 0.65032 0.0
C233 C 0.93296 0.26439 0.70321 0.0
H234 H 0.94556 0.3491 0.77722 0.0
C235 C 0.9247 0.24284 0.85403 0.0
C236 C 0.88196 0.24738 0.86618 0.0
C237 C 0.93616 0.25713 0.82067 0.0
C238 C 0.94102 0.32578 0.75643 0.0
H239 H 0.05621 0.24401 0.61772 0.0
H240 H 0.00251 0.23687 0.66359 0.0
H241 H 0.98072 0.36128 0.72083 0.0
H242 H 0.81794 0.2716 0.85307 0.0
H243 H 0.83839 0.29661 0.79404 0.0
H244 H 0.89557 0.22772 0.74017 0.0
C245 C 0.00773 0.2686 0.65231 0.0
C246 C 0.961 0.33269 0.72406 0.0
C247 C 0.03886 0.27274 0.62602 0.0
C248 C 0.85116 0.26789 0.84451 0.0
C249 C 0.86268 0.28196 0.81081 0.0
C250 C 0.91296 0.25757 0.73562 0.0
C251 C 0.98612 0.30523 0.66554 0.0
C252 C 0.95842 0.30142 0.69739 0.0
C253 C 0.90517 0.27611 0.79866 0.0
C254 C 0.9178 0.28774 0.76266 0.0
H255 H 0.03354 0.38198 0.61409 0.0
H256 H 0.97815 0.37462 0.65935 0.0
H257 H 0.92976 0.23989 0.68318 0.0
H258 H 0.94924 0.22722 0.86999 0.0
H259 H 0.96908 0.25233 0.81165 0.0
C260 C 0.84577 0.84759 0.34492 0.0
C261 C 0.84322 0.87298 0.37542 0.0
C262 C 0.83441 0.86515 0.31231 0.0
C263 C 0.83674 0.96928 0.26917 0.0
H264 H 0.76711 0.91847 0.19554 0.0
C265 C 0.75776 0.03727 0.13622 0.0
C266 C 0.79475 0.05636 0.1214 0.0
C267 C 0.76188 0.00749 0.16377 0.0
C268 C 0.78666 0.93282 0.21595 0.0
H269 H 0.82368 0.93555 0.39584 0.0
H270 H 0.80406 0.96592 0.33913 0.0
H271 H 0.77479 0.88078 0.25219 0.0
H272 H 0.86503 0.05624 0.12166 0.0
H273 H 0.87198 0.00478 0.16968 0.0
H274 H 0.84903 0.02099 0.23339 0.0
C275 C 0.81528 0.93269 0.34042 0.0
C276 C 0.79114 0.91131 0.24816 0.0
C277 C 0.82638 0.91518 0.37291 0.0
C278 C 0.83585 0.04275 0.13289 0.0
C279 C 0.8399 0.01323 0.16035 0.0
C280 C 0.83286 -0.00973 0.23704 0.0
C281 C 0.82054 0.90836 0.30971 0.0
C282 C 0.81581 0.92974 0.27517 0.0
C283 C 0.803 -0.00348 0.17685 0.0
C284 C 0.80768 0.97243 0.21017 0.0
H285 H 0.85864 0.81496 0.34594 0.0
H286 H 0.83885 0.84578 0.28898 0.0
H287 H 0.85644 0.98392 0.28937 0.0
H288 H 0.72565 0.04692 0.12779 0.0
H289 H 0.73294 -0.00492 0.17618 0.0
C290 C 0.07949 0.83356 0.62215 0.0
C291 C 0.04866 0.8007 0.6266 0.0
C292 C 0.11288 0.83867 0.64644 0.0
C293 C 0.16764 0.78917 0.72395 0.0
H294 H 0.16904 0.90759 0.75709 0.0
C295 C 0.26552 0.85417 0.84527 0.0
C296 C 0.24057 0.88092 0.8672 0.0
C297 C 0.24854 0.83972 0.81329 0.0
C298 C 0.16924 0.87441 0.748 0.0
H299 H 0.03086 0.74522 0.6583 0.0
H300 H 0.08878 0.75446 0.70085 0.0
H301 H 0.13058 0.89037 0.70351 0.0
H302 H 0.17744 0.91072 0.87428 0.0
H303 H 0.1481 0.88548 0.81908 0.0
H304 H 0.20502 0.77335 0.76976 0.0
C305 C 0.0873 0.7762 0.67858 0.0
C306 C 0.14762 0.86459 0.71705 0.0
C307 C 0.05383 0.77114 0.65434 0.0
C308 C 0.19774 0.89074 0.85769 0.0
C309 C 0.18095 0.87647 0.826 0.0
C310 C 0.18963 0.79914 0.75498 0.0
C311 C 0.11621 0.81098 0.67561 0.0
C312 C 0.14549 0.82169 0.70515 0.0
C313 C 0.20654 0.85202 0.80297 0.0
C314 C 0.18931 0.84165 0.76782 0.0
H315 H 0.07669 0.85664 0.60086 0.0
H316 H 0.13507 0.8654 0.64316 0.0
H317 H 0.16686 0.75588 0.71522 0.0
H318 H 0.29868 0.84617 0.85198 0.0
H319 H 0.2688 0.82069 0.79599 0.0
C320 C 0.85462 0.05891 0.88606 0.0
C321 C 0.81241 0.07567 0.88856 0.0
C322 C 0.86412 0.02577 0.86243 0.0
C323 C 0.81578 0.94714 0.7993 0.0
H324 H 0.91565 0.97842 0.74346 0.0
C325 C 0.87768 0.86031 0.67065 0.0
C326 C 0.88842 0.88987 0.644 0.0
C327 C 0.86592 0.87542 0.70402 0.0
C328 C 0.8878 0.96905 0.75892 0.0
H329 H 0.74645 0.06876 0.87002 0.0
H330 H 0.7632 0.01183 0.82818 0.0
H331 H 0.90154 0.01637 0.79773 0.0
H332 H 0.89171 0.95783 0.63018 0.0
H333 H 0.87065 0.98388 0.68764 0.0
H334 H 0.80134 0.901 0.75892 0.0
C335 C 0.78893 0.02378 0.84474 0.0
C336 C 0.87996 -0.00954 0.79031 0.0
C337 C 0.77941 0.05681 0.86848 0.0
C338 C 0.88412 0.93435 0.65037 0.0
C339 C 0.87233 0.94928 0.68332 0.0
C340 C 0.82381 0.92547 0.76771 0.0
C341 C 0.83169 0.00891 0.84056 0.0
C342 C 0.84322 0.9807 0.81045 0.0
C343 C 0.86484 0.92012 0.71086 0.0
C344 C 0.85911 0.93739 0.74671 0.0
H345 H 0.88079 0.0728 0.90101 0.0
H346 H 0.8973 0.01461 0.86026 0.0
H347 H 0.78747 0.93854 0.81445 0.0
H348 H 0.88104 0.82583 0.66638 0.0
H349 H 0.86005 0.85233 0.72485 0.0
C350 C 0.1897 0.87143 0.14814 0.0
C351 C 0.23355 0.88177 0.14431 0.0
C352 C 0.17347 0.85858 0.18049 0.0
C353 C 0.19831 0.82175 0.26993 0.0
H354 H 0.09161 0.88359 0.28981 0.0
C355 C 0.07528 0.7721 0.3773 0.0
C356 C 0.04963 0.8046 0.39268 0.0
C357 C 0.10598 0.78257 0.35171 0.0
C358 C 0.12174 0.86653 0.28514 0.0
H359 H 0.29557 0.8846 0.17057 0.0
H360 H 0.26686 0.86231 0.22798 0.0
H361 H 0.12928 0.89696 0.23535 0.0
H362 H 0.03871 0.87388 0.39527 0.0
H363 H 0.09288 0.89219 0.35166 0.0
H364 H 0.19032 0.79121 0.3201 0.0
C365 C 0.24523 0.86372 0.20568 0.0
C366 C 0.14303 0.87374 0.25357 0.0
C367 C 0.26168 0.87622 0.1729 0.0
C368 C 0.05758 0.84799 0.38379 0.0
C369 C 0.0885 0.85847 0.35854 0.0
C370 C 0.17682 0.81441 0.30176 0.0
C371 C 0.20058 0.85653 0.20999 0.0
C372 C 0.18092 0.85072 0.24516 0.0
C373 C 0.11184 0.82579 0.34115 0.0
C374 C 0.13787 0.8363 0.30946 0.0
H375 H 0.16745 0.87531 0.1264 0.0
H376 H 0.13915 0.85213 0.18278 0.0
H377 H 0.22762 0.80376 0.2642 0.0
H378 H 0.07017 0.73835 0.3837 0.0
H379 H 0.12322 0.75655 0.33879 0.0
C380 C 0.26465 0.25371 0.66011 0.0
C381 C 0.21962 0.25984 0.66128 0.0
C382 C 0.28654 0.23648 0.6892 0.0
C383 C 0.27467 0.20855 0.78379 0.0
H384 H 0.34074 0.1062 0.75914 0.0
C385 C 0.29795 0.06497 0.87853 0.0
C386 C 0.33611 0.04013 0.87671 0.0
C387 C 0.29068 0.09893 0.85495 0.0
C388 C 0.32325 0.13514 0.76668 0.0
H389 H 0.16279 0.25648 0.69441 0.0
H390 H 0.20073 0.22711 0.74492 0.0
H391 H 0.31734 0.15592 0.7134 0.0
H392 H 0.39744 0.03281 0.84975 0.0
H393 H 0.38519 0.09264 0.80911 0.0
H394 H 0.27949 0.1871 0.83701 0.0
C395 C 0.21935 0.23526 0.72181 0.0
C396 C 0.30986 0.16374 0.74036 0.0
C397 C 0.19753 0.25188 0.69276 0.0
C398 C 0.36757 0.05111 0.85169 0.0
C399 C 0.36042 0.08528 0.82825 0.0
C400 C 0.28823 0.18005 0.81016 0.0
C401 C 0.26379 0.22578 0.71998 0.0
C402 C 0.28445 0.20016 0.7485 0.0
C403 C 0.32152 0.1091 0.82912 0.0
C404 C 0.31173 0.14235 0.80184 0.0
H405 H 0.2824 0.25942 0.63609 0.0
H406 H 0.32091 0.2299 0.68717 0.0
H407 H 0.2555 0.2366 0.79093 0.0
H408 H 0.27292 0.05725 0.89737 0.0
H409 H 0.26006 0.11605 0.85614 0.0
C410 C 0.8807 0.2561 0.1543 0.0
C411 C 0.83977 0.23702 0.15839 0.0
C412 C 0.90511 0.26782 0.18355 0.0
C413 C 0.90274 0.29269 0.27728 0.0
H414 H 0.01875 0.24403 0.27706 0.0
C415 C 0.03906 0.34215 0.37402 0.0
C416 C 0.06607 0.30903 0.38702 0.0
C417 C 0.0075 0.3332 0.34879 0.0
C418 C 0.98636 0.25759 0.27766 0.0
H419 H 0.79115 0.21826 0.19642 0.0
H420 H 0.83358 0.23986 0.24756 0.0
H421 H 0.971 0.23184 0.22722 0.0
H422 H 0.07979 0.24016 0.3847 0.0
H423 H 0.02492 0.22472 0.34056 0.0
H424 H 0.91849 0.3189 0.32768 0.0
C425 C 0.84683 0.24515 0.22165 0.0
C426 C 0.9592 0.251 0.24896 0.0
C427 C 0.82258 0.23282 0.19236 0.0
C428 C 0.05974 0.2665 0.37513 0.0
C429 C 0.02843 0.25765 0.34973 0.0
C430 C 0.93022 0.29985 0.30587 0.0
C431 C 0.88892 0.26138 0.21753 0.0
C432 C 0.91722 0.26864 0.24836 0.0
C433 C 0.00248 0.29102 0.33582 0.0
C434 C 0.97236 0.28237 0.30633 0.0
H435 H 0.89502 0.25981 0.12859 0.0
H436 H 0.93726 0.28081 0.17964 0.0
H437 H 0.87049 0.30659 0.27747 0.0
H438 H 0.04298 0.37523 0.38267 0.0
H439 H -0.0118 0.35963 0.33842 0.0
loop_
_geom_bond_atom_site_label_1
_geom_bond_atom_site_label_2
_geom_bond_distance
_geom_bond_site_symmetry_2
_ccdc_geom_bond_type
Zn0 O6 1.969 . S
Zn0 O7 1.965 . S
Zn0 O11 2.024 1_545 S
Zn0 O16 1.969 . S
Zn1 O8 1.969 . S
Zn1 O14 1.969 . S
Zn1 O15 1.965 . S
Zn1 O17 2.024 1_565 S
C2 O3 1.229 . S
C2 O11 1.058 . S
O3 C2 1.229 . S
C4 O5 1.229 . S
C4 O17 1.058 . S
O5 C4 1.229 . S
O6 Zn0 1.969 . S
O6 C9 1.267 . S
O7 Zn0 1.965 . S
O7 C18 1.266 1_554 S
O8 Zn1 1.969 . S
O8 C18 1.255 1_565 S
C9 O6 1.267 . S
C9 O10 1.228 . S
O10 C9 1.228 . S
O11 Zn0 2.024 1_565 S
O11 C2 1.058 . S
C12 O13 1.228 . S
C12 O14 1.267 . S
O13 C12 1.228 . S
O14 Zn1 1.969 . S
O14 C12 1.267 . S
O15 Zn1 1.965 . S
O15 C19 1.264 1_556 S
O16 Zn0 1.969 . S
O16 C19 1.256 1_545 S
O17 Zn1 2.024 1_545 S
O17 C4 1.058 . S
C18 O7 1.266 1_556 S
C18 O8 1.255 1_545 S
C19 O15 1.264 1_554 S
C19 O16 1.256 1_565 S
Zn20 O26 1.969 . S
Zn20 O27 1.965 . S
Zn20 O31 2.024 . S
Zn20 O36 1.969 . S
Zn21 O28 1.969 . S
Zn21 O34 1.969 . S
Zn21 O35 1.965 . S
Zn21 O37 2.024 . S
C22 O23 1.229 . S
C22 O31 1.058 . S
O23 C22 1.229 . S
C24 O25 1.229 . S
C24 O37 1.058 . S
O25 C24 1.229 . S
O26 Zn20 1.969 . S
O26 C29 1.267 . S
O27 Zn20 1.965 . S
O27 C38 1.260 . S
O28 Zn21 1.969 . S
O28 C38 1.258 . S
C29 O26 1.267 . S
C29 O30 1.228 . S
O30 C29 1.228 . S
O31 Zn20 2.024 . S
O31 C22 1.058 . S
C32 O33 1.228 . S
C32 O34 1.267 . S
O33 C32 1.228 . S
O34 Zn21 1.969 . S
O34 C32 1.267 . S
O35 Zn21 1.965 . S
O35 C39 1.260 . S
O36 Zn20 1.969 . S
O36 C39 1.258 . S
O37 Zn21 2.024 . S
O37 C24 1.058 . S
C38 O27 1.260 . S
C38 O28 1.258 . S
C39 O35 1.260 . S
C39 O36 1.258 . S
Zn40 O46 1.969 . S
Zn40 O47 1.965 . S
Zn40 O51 2.024 . S
Zn40 O56 1.969 . S
Zn41 O48 1.969 . S
Zn41 O54 1.969 . S
Zn41 O55 1.965 . S
Zn41 O57 2.024 . S
C42 O43 1.229 . S
C42 O51 1.058 . S
O43 C42 1.229 . S
C44 O45 1.229 . S
C44 O57 1.058 . S
O45 C44 1.229 . S
O46 Zn40 1.969 . S
O46 C49 1.267 . S
O47 Zn40 1.965 . S
O47 C58 1.260 1_554 S
O48 Zn41 1.969 . S
O48 C58 1.258 . S
C49 O46 1.267 . S
C49 O50 1.228 . S
O50 C49 1.228 . S
O51 Zn40 2.024 . S
O51 C42 1.058 . S
C52 O53 1.228 . S
C52 O54 1.267 . S
O53 C52 1.228 . S
O54 Zn41 1.969 . S
O54 C52 1.267 . S
O55 Zn41 1.965 . S
O55 C59 1.260 1_556 S
O56 Zn40 1.969 . S
O56 C59 1.258 . S
O57 Zn41 2.024 . S
O57 C44 1.058 . S
C58 O47 1.260 1_556 S
C58 O48 1.258 . S
C59 O55 1.260 1_554 S
C59 O56 1.258 . S
Zn60 O66 1.969 . S
Zn60 O67 1.965 . S
Zn60 O71 2.024 1_455 S
Zn60 O76 1.969 . S
Zn61 O68 1.969 . S
Zn61 O74 1.969 . S
Zn61 O75 1.965 . S
Zn61 O77 2.024 1_655 S
C62 O63 1.229 . S
C62 O71 1.058 . S
O63 C62 1.229 . S
C64 O65 1.229 . S
C64 O77 1.058 . S
O65 C64 1.229 . S
O66 Zn60 1.969 . S
O66 C69 1.267 . S
O67 Zn60 1.965 . S
O67 C78 1.267 . S
O68 Zn61 1.969 . S
O68 C78 1.255 1_655 S
C69 O66 1.267 . S
C69 O70 1.228 . S
O70 C69 1.228 . S
O71 Zn60 2.024 1_655 S
O71 C62 1.058 . S
C72 O73 1.228 . S
C72 O74 1.267 . S
O73 C72 1.228 . S
O74 Zn61 1.969 . S
O74 C72 1.267 . S
O75 Zn61 1.965 . S
O75 C79 1.263 . S
O76 Zn60 1.969 . S
O76 C79 1.256 1_455 S
O77 Zn61 2.024 1_455 S
O77 C64 1.058 . S
C78 O67 1.267 . S
C78 O68 1.255 1_455 S
C79 O75 1.263 . S
C79 O76 1.256 1_655 S
C80 C81 1.349 1_554 S
C80 C82 1.327 . S
C80 H105 0.950 . S
C81 C80 1.349 1_556 S
C81 C97 1.349 . S
C82 C80 1.327 . S
C82 C101 1.429 1_554 S
C82 H106 0.950 . S
C83 C100 1.574 . S
C83 C102 1.368 . S
C83 H107 0.949 . S
H84 C88 0.949 . S
C85 C86 1.349 1_545 S
C85 C87 1.327 . S
C85 H108 0.950 . S
C86 C85 1.349 1_565 S
C86 C98 1.349 1_556 S
C87 C85 1.327 . S
C87 C103 1.429 . S
C87 H109 0.950 . S
C88 H84 0.949 . S
C88 C96 1.574 . S
C88 C104 1.368 1_554 S
H89 C97 0.950 . S
H90 C95 0.950 . S
H91 C96 0.949 . S
H92 C98 0.950 . S
H93 C99 0.950 . S
H94 C100 0.949 . S
C95 H90 0.950 . S
C95 C97 1.327 . S
C95 C101 1.429 . S
C96 C88 1.574 . S
C96 H91 0.949 . S
C96 C102 1.368 1_554 S
C97 C81 1.349 . S
C97 H89 0.950 . S
C97 C95 1.327 . S
C98 C86 1.349 1_554 S
C98 H92 0.950 . S
C98 C99 1.327 . S
C99 H93 0.950 . S
C99 C98 1.327 . S
C99 C103 1.429 1_564 S
C100 C83 1.574 . S
C100 H94 0.949 . S
C100 C104 1.368 . S
C101 C82 1.429 1_556 S
C101 C95 1.429 . S
C101 C102 1.523 1_655 S
C102 C83 1.368 . S
C102 C96 1.368 1_556 S
C102 C101 1.523 1_455 S
C103 C87 1.429 . S
C103 C99 1.429 1_546 S
C103 C104 1.523 . S
C104 C88 1.368 1_556 S
C104 C100 1.368 . S
C104 C103 1.523 . S
H105 C80 0.950 . S
H106 C82 0.950 . S
H107 C83 0.949 . S
H108 C85 0.950 . S
H109 C87 0.950 . S
C110 C111 1.349 . S
C110 C112 1.327 . S
C110 H135 0.950 . S
C111 C110 1.349 . S
C111 C127 1.349 1_655 S
C112 C110 1.327 . S
C112 C131 1.429 1_655 S
C112 H136 0.950 . S
C113 C130 1.574 . S
C113 C132 1.368 . S
C113 H137 0.949 . S
H114 C118 0.949 . S
C115 C116 1.349 . S
C115 C117 1.327 . S
C115 H138 0.950 . S
C116 C115 1.349 . S
C116 C128 1.349 . S
C117 C115 1.327 . S
C117 C133 1.429 . S
C117 H139 0.950 . S
C118 H114 0.949 . S
C118 C126 1.574 . S
C118 C134 1.368 . S
H119 C127 0.950 . S
H120 C125 0.950 . S
H121 C126 0.949 . S
H122 C128 0.950 . S
H123 C129 0.950 . S
H124 C130 0.949 . S
C125 H120 0.950 . S
C125 C127 1.327 . S
C125 C131 1.429 . S
C126 C118 1.574 . S
C126 H121 0.949 . S
C126 C132 1.368 . S
C127 C111 1.349 1_455 S
C127 H119 0.950 . S
C127 C125 1.327 . S
C128 C116 1.349 . S
C128 H122 0.950 . S
C128 C129 1.327 . S
C129 H123 0.950 . S
C129 C128 1.327 . S
C129 C133 1.429 . S
C130 C113 1.574 . S
C130 H124 0.949 . S
C130 C134 1.368 . S
C131 C112 1.429 1_455 S
C131 C125 1.429 . S
C131 C132 1.523 1_565 S
C132 C113 1.368 . S
C132 C126 1.368 . S
C132 C131 1.523 1_545 S
C133 C117 1.429 . S
C133 C129 1.429 . S
C133 C134 1.523 . S
C134 C118 1.368 . S
C134 C130 1.368 . S
C134 C133 1.523 . S
H135 C110 0.950 . S
H136 C112 0.950 . S
H137 C113 0.949 . S
H138 C115 0.950 . S
H139 C117 0.950 . S
C140 C141 1.349 1_556 S
C140 C142 1.327 . S
C140 H165 0.950 . S
C141 C140 1.349 1_554 S
C141 C157 1.349 . S
C142 C140 1.327 . S
C142 C161 1.429 1_556 S
C142 H166 0.950 . S
C143 C160 1.574 . S
C143 C162 1.368 . S
C143 H167 0.949 . S
H144 C148 0.949 . S
C145 C146 1.333 1_545 S
C145 C147 1.327 . S
C145 H168 0.950 . S
C146 C145 1.333 1_565 S
C146 C158 1.356 1_554 S
C147 C145 1.327 . S
C147 C163 1.429 . S
C147 H169 0.950 . S
C148 H144 0.949 . S
C148 C156 1.574 . S
C148 C164 1.368 1_556 S
H149 C157 0.950 . S
H150 C155 0.950 . S
H151 C156 0.949 . S
H152 C158 0.950 . S
H153 C159 0.950 1_565 S
H154 C160 0.949 . S
C155 H150 0.950 . S
C155 C157 1.327 . S
C155 C161 1.429 . S
C156 C148 1.574 . S
C156 H151 0.949 . S
C156 C162 1.368 1_556 S
C157 C141 1.349 . S
C157 H149 0.950 . S
C157 C155 1.327 . S
C158 C146 1.356 1_556 S
C158 H152 0.950 . S
C158 C159 1.327 1_565 S
C159 H153 0.950 1_545 S
C159 C158 1.327 1_545 S
C159 C163 1.429 1_556 S
C160 C143 1.574 . S
C160 H154 0.949 . S
C160 C164 1.368 . S
C161 C142 1.429 1_554 S
C161 C155 1.429 . S
C161 C162 1.523 . S
C162 C143 1.368 . S
C162 C156 1.368 1_554 S
C162 C161 1.523 . S
C163 C147 1.429 . S
C163 C159 1.429 1_554 S
C163 C164 1.523 . S
C164 C148 1.368 1_554 S
C164 C160 1.368 . S
C164 C163 1.523 . S
H165 C140 0.950 . S
H166 C142 0.950 . S
H167 C143 0.949 . S
H168 C145 0.950 . S
H169 C147 0.950 . S
C170 C171 1.349 . S
C170 C172 1.327 . S
C170 H195 0.950 . S
C171 C170 1.349 . S
C171 C187 1.349 . S
C172 C170 1.327 . S
C172 C191 1.429 . S
C172 H196 0.950 . S
C173 C190 1.574 . S
C173 C192 1.368 . S
C173 H197 0.949 . S
H174 C178 0.949 . S
C175 C176 1.355 . S
C175 C177 1.327 1_655 S
C175 H198 0.950 . S
C176 C175 1.355 . S
C176 C188 1.335 1_655 S
C177 C175 1.327 1_455 S
C177 C193 1.429 . S
C177 H199 0.950 1_455 S
C178 H174 0.949 . S
C178 C186 1.574 . S
C178 C194 1.368 . S
H179 C187 0.950 . S
H180 C185 0.950 . S
H181 C186 0.949 . S
H182 C188 0.950 . S
H183 C189 0.950 . S
H184 C190 0.949 . S
C185 H180 0.950 . S
C185 C187 1.327 . S
C185 C191 1.429 . S
C186 C178 1.574 . S
C186 H181 0.949 . S
C186 C192 1.368 . S
C187 C171 1.349 . S
C187 H179 0.950 . S
C187 C185 1.327 . S
C188 C176 1.335 1_455 S
C188 H182 0.950 . S
C188 C189 1.327 . S
C189 H183 0.950 . S
C189 C188 1.327 . S
C189 C193 1.429 . S
C190 C173 1.574 . S
C190 H184 0.949 . S
C190 C194 1.368 . S
C191 C172 1.429 . S
C191 C185 1.429 . S
C191 C192 1.523 . S
C192 C173 1.368 . S
C192 C186 1.368 . S
C192 C191 1.523 . S
C193 C177 1.429 . S
C193 C189 1.429 . S
C193 C194 1.523 . S
C194 C178 1.368 . S
C194 C190 1.368 . S
C194 C193 1.523 . S
H195 C170 0.950 . S
H196 C172 0.950 . S
H197 C173 0.949 . S
H198 C175 0.950 . S
H199 C177 0.950 1_655 S
C200 C201 1.349 . S
C200 C202 1.327 . S
C200 H225 0.950 . S
C201 C200 1.349 . S
C201 C217 1.349 . S
C202 C200 1.327 . S
C202 C221 1.429 . S
C202 H226 0.950 . S
C203 C220 1.574 . S
C203 C222 1.368 . S
C203 H227 0.949 . S
H204 C208 0.949 . S
C205 C206 1.349 . S
C205 C207 1.327 . S
C205 H228 0.950 . S
C206 C205 1.349 . S
C206 C218 1.349 . S
C207 C205 1.327 . S
C207 C223 1.429 . S
C207 H229 0.950 . S
C208 H204 0.949 . S
C208 C216 1.574 . S
C208 C224 1.368 . S
H209 C217 0.950 . S
H210 C215 0.950 . S
H211 C216 0.949 . S
H212 C218 0.950 . S
H213 C219 0.950 . S
H214 C220 0.949 . S
C215 H210 0.950 . S
C215 C217 1.327 . S
C215 C221 1.429 . S
C216 C208 1.574 . S
C216 H211 0.949 . S
C216 C222 1.368 . S
C217 C201 1.349 . S
C217 H209 0.950 . S
C217 C215 1.327 . S
C218 C206 1.349 . S
C218 H212 0.950 . S
C218 C219 1.327 . S
C219 H213 0.950 . S
C219 C218 1.327 . S
C219 C223 1.429 . S
C220 C203 1.574 . S
C220 H214 0.949 . S
C220 C224 1.368 . S
C221 C202 1.429 . S
C221 C215 1.429 . S
C221 C222 1.523 . S
C222 C203 1.368 . S
C222 C216 1.368 . S
C222 C221 1.523 . S
C223 C207 1.429 . S
C223 C219 1.429 . S
C223 C224 1.523 . S
C224 C208 1.368 . S
C224 C220 1.368 . S
C224 C223 1.523 . S
H225 C200 0.950 . S
H226 C202 0.950 . S
H227 C203 0.949 . S
H228 C205 0.950 . S
H229 C207 0.950 . S
C230 C231 1.349 . S
C230 C232 1.327 1_455 S
C230 H255 0.950 1_455 S
C231 C230 1.349 . S
C231 C247 1.349 . S
C232 C230 1.327 1_655 S
C232 C251 1.426 1_655 S
C232 H256 0.950 . S
C233 C250 1.570 1_455 S
C233 C252 1.364 1_455 S
C233 H257 0.957 . S
H234 C238 0.949 . S
C235 C236 1.349 . S
C235 C237 1.327 . S
C235 H258 0.950 . S
C236 C235 1.349 . S
C236 C248 1.349 . S
C237 C235 1.327 . S
C237 C253 1.429 . S
C237 H259 0.950 . S
C238 H234 0.949 . S
C238 C246 1.574 . S
C238 C254 1.368 . S
H239 C247 0.950 . S
H240 C245 0.950 . S
H241 C246 0.949 . S
H242 C248 0.950 . S
H243 C249 0.950 . S
H244 C250 0.949 . S
C245 H240 0.950 . S
C245 C247 1.327 . S
C245 C251 1.434 . S
C246 C238 1.574 . S
C246 H241 0.949 . S
C246 C252 1.368 . S
C247 C231 1.349 . S
C247 H239 0.950 . S
C247 C245 1.327 . S
C248 C236 1.349 . S
C248 H242 0.950 . S
C248 C249 1.327 . S
C249 H243 0.950 . S
C249 C248 1.327 . S
C249 C253 1.429 . S
C250 C233 1.570 1_655 S
C250 H244 0.949 . S
C250 C254 1.368 . S
C251 C232 1.426 1_455 S
C251 C245 1.434 . S
C251 C252 1.520 1_455 S
C252 C233 1.364 1_655 S
C252 C246 1.368 . S
C252 C251 1.520 1_655 S
C253 C237 1.429 . S
C253 C249 1.429 . S
C253 C254 1.523 . S
C254 C238 1.368 . S
C254 C250 1.368 . S
C254 C253 1.523 . S
H255 C230 0.950 1_655 S
H256 C232 0.950 . S
H257 C233 0.957 . S
H258 C235 0.950 . S
H259 C237 0.950 . S
C260 C261 1.349 . S
C260 C262 1.327 . S
C260 H285 0.950 . S
C261 C260 1.349 . S
C261 C277 1.349 . S
C262 C260 1.327 . S
C262 C281 1.429 . S
C262 H286 0.950 . S
C263 C280 1.574 1_565 S
C263 C282 1.368 . S
C263 H287 0.949 . S
H264 C268 0.949 . S
C265 C266 1.349 . S
C265 C267 1.327 . S
C265 H288 0.950 . S
C266 C265 1.349 . S
C266 C278 1.337 1_545 S
C267 C265 1.327 . S
C267 C283 1.444 . S
C267 H289 0.950 . S
C268 H264 0.949 . S
C268 C276 1.574 . S
C268 C284 1.368 . S
H269 C277 0.950 . S
H270 C275 0.950 . S
H271 C276 0.949 . S
H272 C278 0.956 . S
H273 C279 0.950 . S
H274 C280 0.949 . S
C275 H270 0.950 . S
C275 C277 1.327 . S
C275 C281 1.429 . S
C276 C268 1.574 . S
C276 H271 0.949 . S
C276 C282 1.368 . S
C277 C261 1.349 . S
C277 H269 0.950 . S
C277 C275 1.327 . S
C278 C266 1.337 1_565 S
C278 H272 0.956 . S
C278 C279 1.333 . S
C279 H273 0.950 . S
C279 C278 1.333 . S
C279 C283 1.421 1_565 S
C280 C263 1.574 1_545 S
C280 H274 0.949 . S
C280 C284 1.368 1_545 S
C281 C262 1.429 . S
C281 C275 1.429 . S
C281 C282 1.523 . S
C282 C263 1.368 . S
C282 C276 1.368 . S
C282 C281 1.523 . S
C283 C267 1.444 . S
C283 C279 1.421 1_545 S
C283 C284 1.516 1_545 S
C284 C268 1.368 . S
C284 C280 1.368 1_565 S
C284 C283 1.516 1_565 S
H285 C260 0.950 . S
H286 C262 0.950 . S
H287 C263 0.949 . S
H288 C265 0.950 . S
H289 C267 0.950 . S
C290 C291 1.349 . S
C290 C292 1.327 . S
C290 H315 0.950 . S
C291 C290 1.349 . S
C291 C307 1.349 . S
C292 C290 1.327 . S
C292 C311 1.429 . S
C292 H316 0.950 . S
C293 C310 1.574 . S
C293 C312 1.368 . S
C293 H317 0.949 . S
H294 C298 0.949 . S
C295 C296 1.349 . S
C295 C297 1.327 . S
C295 H318 0.950 . S
C296 C295 1.349 . S
C296 C308 1.349 . S
C297 C295 1.327 . S
C297 C313 1.429 . S
C297 H319 0.950 . S
C298 H294 0.949 . S
C298 C306 1.574 . S
C298 C314 1.368 . S
H299 C307 0.950 . S
H300 C305 0.950 . S
H301 C306 0.949 . S
H302 C308 0.950 . S
H303 C309 0.950 . S
H304 C310 0.949 . S
C305 H300 0.950 . S
C305 C307 1.327 . S
C305 C311 1.429 . S
C306 C298 1.574 . S
C306 H301 0.949 . S
C306 C312 1.368 . S
C307 C291 1.349 . S
C307 H299 0.950 . S
C307 C305 1.327 . S
C308 C296 1.349 . S
C308 H302 0.950 . S
C308 C309 1.327 . S
C309 H303 0.950 . S
C309 C308 1.327 . S
C309 C313 1.429 . S
C310 C293 1.574 . S
C310 H304 0.949 . S
C310 C314 1.368 . S
C311 C292 1.429 . S
C311 C305 1.429 . S
C311 C312 1.523 . S
C312 C293 1.368 . S
C312 C306 1.368 . S
C312 C311 1.523 . S
C313 C297 1.429 . S
C313 C309 1.429 . S
C313 C314 1.523 . S
C314 C298 1.368 . S
C314 C310 1.368 . S
C314 C313 1.523 . S
H315 C290 0.950 . S
H316 C292 0.950 . S
H317 C293 0.949 . S
H318 C295 0.950 . S
H319 C297 0.950 . S
C320 C321 1.349 . S
C320 C322 1.327 . S
C320 H345 0.950 . S
C321 C320 1.349 . S
C321 C337 1.349 . S
C322 C320 1.327 . S
C322 C341 1.428 1_545 S
C322 H346 0.950 . S
C323 C340 1.574 . S
C323 C342 1.368 . S
C323 H347 0.949 . S
H324 C328 0.949 . S
C325 C326 1.349 . S
C325 C327 1.327 . S
C325 H348 0.950 . S
C326 C325 1.349 . S
C326 C338 1.349 . S
C327 C325 1.327 . S
C327 C343 1.429 . S
C327 H349 0.950 . S
C328 H324 0.949 . S
C328 C336 1.574 . S
C328 C344 1.368 . S
H329 C337 0.950 1_565 S
H330 C335 0.950 . S
H331 C336 0.949 1_545 S
H332 C338 0.950 . S
H333 C339 0.950 . S
H334 C340 0.949 . S
C335 H330 0.950 . S
C335 C337 1.327 1_565 S
C335 C341 1.429 . S
C336 C328 1.574 . S
C336 H331 0.949 1_565 S
C336 C342 1.368 . S
C337 C321 1.349 . S
C337 H329 0.950 1_545 S
C337 C335 1.327 1_545 S
C338 C326 1.349 . S
C338 H332 0.950 . S
C338 C339 1.327 . S
C339 H333 0.950 . S
C339 C338 1.327 . S
C339 C343 1.429 . S
C340 C323 1.574 . S
C340 H334 0.949 . S
C340 C344 1.368 . S
C341 C322 1.428 1_565 S
C341 C335 1.429 . S
C341 C342 1.523 . S
C342 C323 1.368 . S
C342 C336 1.368 . S
C342 C341 1.523 . S
C343 C327 1.429 . S
C343 C339 1.429 . S
C343 C344 1.523 . S
C344 C328 1.368 . S
C344 C340 1.368 . S
C344 C343 1.523 . S
H345 C320 0.950 . S
H346 C322 0.950 . S
H347 C323 0.949 . S
H348 C325 0.950 . S
H349 C327 0.950 . S
C350 C351 1.349 . S
C350 C352 1.327 . S
C350 H375 0.950 . S
C351 C350 1.349 . S
C351 C367 1.349 . S
C352 C350 1.327 . S
C352 C371 1.429 . S
C352 H376 0.950 . S
C353 C370 1.574 . S
C353 C372 1.368 . S
C353 H377 0.949 . S
H354 C358 0.949 . S
C355 C356 1.349 . S
C355 C357 1.327 . S
C355 H378 0.950 . S
C356 C355 1.349 . S
C356 C368 1.349 . S
C357 C355 1.327 . S
C357 C373 1.429 . S
C357 H379 0.950 . S
C358 H354 0.949 . S
C358 C366 1.574 . S
C358 C374 1.368 . S
H359 C367 0.950 . S
H360 C365 0.950 . S
H361 C366 0.949 . S
H362 C368 0.950 . S
H363 C369 0.950 . S
H364 C370 0.949 . S
C365 H360 0.950 . S
C365 C367 1.327 . S
C365 C371 1.429 . S
C366 C358 1.574 . S
C366 H361 0.949 . S
C366 C372 1.368 . S
C367 C351 1.349 . S
C367 H359 0.950 . S
C367 C365 1.327 . S
C368 C356 1.349 . S
C368 H362 0.950 . S
C368 C369 1.327 . S
C369 H363 0.950 . S
C369 C368 1.327 . S
C369 C373 1.429 . S
C370 C353 1.574 . S
C370 H364 0.949 . S
C370 C374 1.368 . S
C371 C352 1.429 . S
C371 C365 1.429 . S
C371 C372 1.523 . S
C372 C353 1.368 . S
C372 C366 1.368 . S
C372 C371 1.523 . S
C373 C357 1.429 . S
C373 C369 1.429 . S
C373 C374 1.523 . S
C374 C358 1.368 . S
C374 C370 1.368 . S
C374 C373 1.523 . S
H375 C350 0.950 . S
H376 C352 0.950 . S
H377 C353 0.949 . S
H378 C355 0.950 . S
H379 C357 0.950 . S
C380 C381 1.349 . S
C380 C382 1.327 . S
C380 H405 0.950 . S
C381 C380 1.349 . S
C381 C397 1.349 . S
C382 C380 1.327 . S
C382 C401 1.429 . S
C382 H406 0.950 . S
C383 C400 1.574 . S
C383 C402 1.368 . S
C383 H407 0.949 . S
H384 C388 0.949 . S
C385 C386 1.349 . S
C385 C387 1.327 . S
C385 H408 0.950 . S
C386 C385 1.349 . S
C386 C398 1.349 . S
C387 C385 1.327 . S
C387 C403 1.429 . S
C387 H409 0.950 . S
C388 H384 0.949 . S
C388 C396 1.574 . S
C388 C404 1.368 . S
H389 C397 0.950 . S
H390 C395 0.950 . S
H391 C396 0.949 . S
H392 C398 0.950 . S
H393 C399 0.950 . S
H394 C400 0.949 . S
C395 H390 0.950 . S
C395 C397 1.327 . S
C395 C401 1.429 . S
C396 C388 1.574 . S
C396 H391 0.949 . S
C396 C402 1.368 . S
C397 C381 1.349 . S
C397 H389 0.950 . S
C397 C395 1.327 . S
C398 C386 1.349 . S
C398 H392 0.950 . S
C398 C399 1.327 . S
C399 H393 0.950 . S
C399 C398 1.327 . S
C399 C403 1.429 . S
C400 C383 1.574 . S
C400 H394 0.949 . S
C400 C404 1.368 . S
C401 C382 1.429 . S
C401 C395 1.429 . S
C401 C402 1.523 . S
C402 C383 1.368 . S
C402 C396 1.368 . S
C402 C401 1.523 . S
C403 C387 1.429 . S
C403 C399 1.429 . S
C403 C404 1.523 . S
C404 C388 1.368 . S
C404 C400 1.368 . S
C404 C403 1.523 . S
H405 C380 0.950 . S
H406 C382 0.950 . S
H407 C383 0.949 . S
H408 C385 0.950 . S
H409 C387 0.950 . S
C410 C411 1.349 . S
C410 C412 1.327 . S
C410 H435 0.950 . S
C411 C410 1.349 . S
C411 C427 1.349 . S
C412 C410 1.327 . S
C412 C431 1.429 . S
C412 H436 0.950 . S
C413 C430 1.574 . S
C413 C432 1.368 . S
C413 H437 0.949 . S
H414 C418 0.949 1_455 S
C415 C416 1.349 . S
C415 C417 1.327 1_455 S
C415 H438 0.950 1_455 S
C416 C415 1.349 . S
C416 C428 1.349 . S
C417 C415 1.327 1_655 S
C417 C433 1.431 . S
C417 H439 0.950 . S
C418 H414 0.949 1_655 S
C418 C426 1.574 . S
C418 C434 1.368 . S
H419 C427 0.950 . S
H420 C425 0.950 . S
H421 C426 0.949 . S
H422 C428 0.950 . S
H423 C429 0.950 . S
H424 C430 0.949 . S
C425 H420 0.950 . S
C425 C427 1.327 . S
C425 C431 1.429 . S
C426 C418 1.574 . S
C426 H421 0.949 . S
C426 C432 1.368 . S
C427 C411 1.349 . S
C427 H419 0.950 . S
C427 C425 1.327 . S
C428 C416 1.349 . S
C428 H422 0.950 . S
C428 C429 1.327 . S
C429 H423 0.950 . S
C429 C428 1.327 . S
C429 C433 1.421 1_455 S
C430 C413 1.574 . S
C430 H424 0.949 . S
C430 C434 1.368 . S
C431 C412 1.429 . S
C431 C425 1.429 . S
C431 C432 1.523 . S
C432 C413 1.368 . S
C432 C426 1.368 . S
C432 C431 1.523 . S
C433 C417 1.431 . S
C433 C429 1.421 1_655 S
C433 C434 1.527 . S
C434 C418 1.368 . S
C434 C430 1.368 . S
C434 C433 1.527 . S
H435 C410 0.950 . S
H436 C412 0.950 . S
H437 C413 0.949 . S
H438 C415 0.950 1_655 S
H439 C417 0.950 . S
C81 C59 0.540 1_556 S
C86 C19 0.547 1_556 S
C111 C79 0.546 . S
C116 C39 0.542 . S
C141 C58 1.059 1_554 S
C146 C18 1.059 1_564 S
C171 C38 1.058 . S
C176 C78 1.057 1_655 S
C201 C32 1.129 . S
C206 C9 1.176 . S
C231 C29 1.179 . S
C236 C52 1.129 . S
C261 C72 1.129 . S
C266 C49 1.178 . S
C291 C69 1.179 . S
C296 C12 1.131 . S
C321 C44 1.596 . S
C326 C62 1.489 . S
C351 C2 1.490 . S
C356 C64 1.597 . S
C381 C22 1.489 . S
C386 C4 1.594 . S
C411 C42 1.490 . S
C416 C24 1.596 . S
