# Generated by pormake.
# Topology rkf, (6)-cn, num edge types: 1
# Building blocks:
#     Node 0, Type 0, BuildingBlock: CUWYAW_clean_sbu_0, # of connection points: 6
#     Node 1, Type 0, BuildingBlock: CUWYAW_clean_sbu_0, # of connection points: 6
#     Node 2, Type 0, BuildingBlock: CUWYAW_clean_sbu_0, # of connection points: 6
#     Node 3, Type 0, BuildingBlock: CUWYAW_clean_sbu_0, # of connection points: 6
#     Node 4, Type 0, BuildingBlock: CUWYAW_clean_sbu_0, # of connection points: 6
#     Node 5, Type 0, BuildingBlock: CUWYAW_clean_sbu_0, # of connection points: 6
#     Edge 6, Type (0, 0), BuildingBlock: CIFDUS_clean_linker_0, # of connection points: 2
#     Edge 7, Type (0, 0), BuildingBlock: CIFDUS_clean_linker_0, # of connection points: 2
#     Edge 8, Type (0, 0), BuildingBlock: CIFDUS_clean_linker_0, # of connection points: 2
#     Edge 9, Type (0, 0), BuildingBlock: CIFDUS_clean_linker_0, # of connection points: 2
#     Edge 10, Type (0, 0), BuildingBlock: CIFDUS_clean_linker_0, # of connection points: 2
#     Edge 11, Type (0, 0), BuildingBlock: CIFDUS_clean_linker_0, # of connection points: 2
#     Edge 12, Type (0, 0), BuildingBlock: CIFDUS_clean_linker_0, # of connection points: 2
#     Edge 13, Type (0, 0), BuildingBlock: CIFDUS_clean_linker_0, # of connection points: 2
#     Edge 14, Type (0, 0), BuildingBlock: CIFDUS_clean_linker_0, # of connection points: 2
#     Edge 15, Type (0, 0), BuildingBlock: CIFDUS_clean_linker_0, # of connection points: 2
#     Edge 16, Type (0, 0), BuildingBlock: CIFDUS_clean_linker_0, # of connection points: 2
#     Edge 17, Type (0, 0), BuildingBlock: CIFDUS_clean_linker_0, # of connection points: 2
#     Edge 18, Type (0, 0), BuildingBlock: CIFDUS_clean_linker_0, # of connection points: 2
#     Edge 19, Type (0, 0), BuildingBlock: CIFDUS_clean_linker_0, # of connection points: 2
#     Edge 20, Type (0, 0), BuildingBlock: CIFDUS_clean_linker_0, # of connection points: 2
#     Edge 21, Type (0, 0), BuildingBlock: CIFDUS_clean_linker_0, # of connection points: 2
#     Edge 22, Type (0, 0), BuildingBlock: CIFDUS_clean_linker_0, # of connection points: 2
#     Edge 23, Type (0, 0), BuildingBlock: CIFDUS_clean_linker_0, # of connection points: 2
# Relax obj value: 0.870
# Max RMSD: 0.261
# Mean RMSD: 0.261
data_MOF--net-rkf--node1-CUWYAW_clean_sbu_0--edge1-CIFDUS_clean_linker_0
_symmetry_space_group_name_H-M    P1
_symmetry_Int_Tables_number       1
_symmetry_cell_setting            triclinic
loop_
_symmetry_equiv_pos_as_xyz
'x, y, z'
_cell_length_a     22.294403
_cell_length_b     22.346743
_cell_length_c     40.183211
_cell_angle_alpha  89.943915
_cell_angle_beta   89.853153
_cell_angle_gamma 120.30704
loop_
_atom_site_label
_atom_site_type_symbol
_atom_site_fract_x
_atom_site_fract_y
_atom_site_fract_z
_atom_type_partial_charge
C0 C 0.44295 0.28314 1.12346 0.0
Eu1 Eu 0.36565 0.16121 1.15032 0.0
C2 C 0.45564 0.35397 1.1193 0.0
C3 C 0.52447 0.40919 1.11962 0.0
C4 C 0.54075 0.47409 1.1072 0.0
C5 C 0.48836 0.48447 1.09403 0.0
C6 C 0.41857 0.43103 1.09715 0.0
C7 C 0.40232 0.3662 1.10968 0.0
C8 C 0.42623 0.08485 0.16643 0.0
C9 C 0.26268 0.04578 1.09078 0.0
C10 C 0.21775 0.89898 0.19714 0.0
Eu11 Eu 0.26657 0.02146 0.17066 0.0
C12 C 0.23393 0.87478 0.22791 0.0
C13 C 0.2863 0.92249 0.24885 0.0
C14 C 0.29793 0.90145 0.2796 0.0
C15 C 0.25802 0.83176 0.28992 0.0
C16 C 0.20939 0.78305 0.26747 0.0
C17 C 0.19704 0.80459 0.2368 0.0
C18 C 0.2095 0.09865 0.15573 0.0
C19 C 0.32776 0.14763 0.22935 0.0
O20 O 0.45676 0.26569 1.15217 0.0
O21 O 0.38791 0.23275 1.1093 0.0
O22 O 0.44953 0.1483 0.17479 0.0
O23 O 0.37258 0.06467 1.14888 0.0
O24 O 0.30927 0.11122 1.09934 0.0
O25 O 0.23958 -0.00244 1.11453 0.0
O26 O 0.26806 0.92531 0.17524 0.0
O27 O 0.18822 0.93649 0.20085 0.0
O28 O 0.17877 0.03294 1.14858 0.0
O29 O 0.26342 0.11759 0.17223 0.0
O30 O 0.30394 0.08011 0.22311 0.0
O31 O 0.34472 0.18946 0.20297 0.0
H32 H 0.56631 0.4008 1.12714 0.0
H33 H 0.59482 0.51448 1.10556 0.0
H34 H 0.37686 0.43694 1.08704 0.0
H35 H 0.3487 0.32445 1.10945 0.0
H36 H 0.31658 -0.02335 0.24198 0.0
H37 H 0.33518 0.94109 0.29602 0.0
H38 H 0.17871 0.72878 0.27415 0.0
H39 H 0.15743 0.76683 0.22048 0.0
C40 C 0.21413 0.39216 0.45568 0.0
Eu41 Eu 0.30666 0.36944 0.48281 0.0
C42 C 0.1462 0.38765 0.45576 0.0
C43 C 0.13596 0.42916 0.43308 0.0
C44 C 0.0689 0.41321 0.42467 0.0
C45 C 0.01097 0.35484 0.43859 0.0
C46 C 0.02154 0.31799 0.46409 0.0
C47 C 0.08909 0.33488 0.4729 0.0
C48 C 0.44172 0.47072 0.48535 0.0
C49 C 0.35734 0.2909 0.42591 0.0
C50 C 0.51867 0.32977 0.52767 0.0
Eu51 Eu 0.40604 0.32281 0.5047 0.0
C52 C 0.54936 0.3356 0.56056 0.0
C53 C 0.52841 0.36047 0.58745 0.0
C54 C 0.54971 0.35705 0.61954 0.0
C55 C 0.59288 0.32892 0.62548 0.0
C56 C 0.61764 0.30844 0.59805 0.0
C57 C 0.59571 0.31149 0.5658 0.0
C58 C 0.27326 0.22309 0.50517 0.0
C59 C 0.32185 0.3636 0.56428 0.0
O60 O 0.26363 0.43748 0.47473 0.0
O61 O 0.21498 0.33436 0.45228 0.0
O62 O 0.39075 0.4781 0.49531 0.0
O63 O 0.41962 0.4107 0.47385 0.0
O64 O 0.31604 0.31644 0.43362 0.0
O65 O 0.40076 0.29187 0.44907 0.0
O66 O 0.51549 0.38385 0.51762 0.0
O67 O 0.46133 0.27131 0.52184 0.0
O68 O 0.32249 0.20888 0.50045 0.0
O69 O 0.29689 0.28484 0.51327 0.0
O70 O 0.37697 0.35691 0.5559 0.0
O71 O 0.27988 0.36074 0.53972 0.0
H72 H 0.17961 0.47038 0.41972 0.0
H73 H 0.06267 0.44246 0.40482 0.0
H74 H -0.02231 0.27355 0.47558 0.0
H75 H 0.09667 0.30395 0.49129 0.0
H76 H 0.4929 0.37955 0.58389 0.0
H77 H 0.52793 0.37197 0.63981 0.0
H78 H 0.6513 0.28711 0.60162 0.0
H79 H 0.61269 0.29248 0.54514 0.0
C80 C 0.93004 0.25261 0.81115 0.0
Eu81 Eu 0.06267 0.34104 0.81721 0.0
C82 C 0.87632 0.19432 0.7923 0.0
C83 C 0.80705 0.17723 0.79651 0.0
C84 C 0.75436 0.12297 0.77848 0.0
C85 C 0.77026 0.0844 0.75638 0.0
C86 C 0.83965 0.10073 0.75263 0.0
C87 C 0.89261 0.15606 0.77024 0.0
C88 C 0.10926 0.47948 0.81762 0.0
C89 C 0.17626 0.37622 0.75654 0.0
C90 C 0.32852 0.54173 0.84799 0.0
Eu91 Eu 0.20994 0.42997 0.83717 0.0
C92 C 0.35696 0.58225 0.87848 0.0
C93 C 0.31292 0.56936 0.9058 0.0
C94 C 0.34049 0.59577 0.93701 0.0
C95 C 0.41291 0.63611 0.94153 0.0
C96 C 0.45633 0.65482 0.91323 0.0
C97 C 0.42853 0.62736 0.88196 0.0
C98 C 0.16646 0.29623 0.84312 0.0
C99 C 0.0964 0.35645 0.89935 0.0
O100 O -0.02819 0.24114 0.82924 0.0
O101 O 0.96163 0.31288 0.79632 0.0
O102 O 0.07201 0.4382 0.79407 0.0
O103 O 0.12027 0.44608 0.83965 0.0
O104 O 0.11049 0.3352 0.7666 0.0
O105 O 0.22269 0.41968 0.77888 0.0
O106 O 0.27472 0.54247 0.83545 0.0
O107 O 0.32007 0.47935 0.84898 0.0
O108 O 0.21383 0.34282 0.8624 0.0
O109 O 0.15096 0.32334 0.81944 0.0
O110 O 0.1623 0.40257 0.89105 0.0
O111 O 0.05003 0.32653 0.87507 0.0
H112 H 0.79382 0.20656 0.81345 0.0
H113 H 0.70127 0.1115 0.78151 0.0
H114 H 0.85308 0.07233 0.73521 0.0
H115 H 0.94609 0.16946 0.76641 0.0
H116 H 0.25736 0.53505 0.90349 0.0
H117 H 0.30496 0.57925 0.95793 0.0
H118 H 0.51214 0.68706 0.91555 0.0
H119 H 0.46317 0.63835 0.86096 0.0
C120 C 0.96076 0.03405 1.14512 0.0
Eu121 Eu 0.90566 0.11162 1.15472 0.0
C122 C 0.95516 -0.02362 1.12553 0.0
C123 C -0.01685 0.93753 1.13849 0.0
C124 C -0.02667 0.8783 1.12203 0.0
C125 C 0.93544 0.85714 1.09223 0.0
C126 C 0.90879 0.89746 1.07898 0.0
C127 C 0.9182 0.95641 1.09563 0.0
C128 C 0.76763 0.06607 1.14293 0.0
C129 C 0.92802 0.21589 1.09042 0.0
C130 C 0.79099 0.27033 0.18383 0.0
Eu131 Eu 0.86266 0.21387 0.16506 0.0
C132 C 0.77543 0.28365 0.21798 0.0
C133 C 0.81255 0.35102 0.23092 0.0
C134 C 0.81454 0.36198 0.2652 0.0
C135 C 0.77869 0.3058 0.28729 0.0
C136 C 0.73472 0.23957 0.27392 0.0
C137 C 0.73329 0.22849 0.23961 0.0
C138 C -0.00095 0.26795 0.17419 0.0
C139 C 0.87222 0.12353 0.2315 0.0
O140 O -0.01765 0.09343 1.13008 0.0
O141 O 0.90934 0.01833 0.16555 0.0
O142 O 0.78874 0.03092 0.15977 0.0
O143 O 0.81906 0.12165 1.13375 0.0
O144 O 0.94682 0.17381 1.1047 0.0
O145 O 0.88661 0.2322 1.10774 0.0
O146 O 0.76229 0.20528 0.17484 0.0
O147 O 0.8564 0.30642 0.17494 0.0
O148 O -0.0263 0.30169 0.15922 0.0
O149 O 0.95194 0.20902 0.1838 0.0
O150 O 0.84117 0.15654 0.21841 0.0
O151 O 0.91277 0.11276 0.2114 0.0
H152 H 0.01146 0.95225 0.16176 0.0
H153 H -0.00575 0.84842 1.13301 0.0
H154 H 0.88088 0.88371 1.05562 0.0
H155 H 0.89604 -0.01414 1.08541 0.0
H156 H 0.84484 0.3946 0.21482 0.0
H157 H 0.84919 0.41379 0.27434 0.0
H158 H 0.70487 0.19541 0.29009 0.0
H159 H 0.70295 0.17592 0.23044 0.0
C160 C 0.05199 -0.01981 0.47416 0.0
Eu161 Eu 0.92053 0.93839 0.4816 0.0
C162 C 0.09376 0.94671 0.47623 0.0
C163 C 0.06374 0.87812 0.4876 0.0
C164 C 0.09439 0.83869 0.47962 0.0
C165 C 0.15444 0.86709 0.45955 0.0
C166 C 0.18903 0.93871 0.45237 0.0
C167 C 0.15864 -0.02189 0.46058 0.0
C168 C 0.81833 0.80297 0.47694 0.0
C169 C 0.83499 0.96949 0.4253 0.0
C170 C 0.64827 0.85133 0.51752 0.0
Eu171 Eu 0.78024 0.90874 0.50501 0.0
C172 C 0.6125 0.81859 0.5488 0.0
C173 C 0.64453 0.79482 0.57089 0.0
C174 C 0.63068 0.79107 0.60485 0.0
C175 C 0.58427 0.81097 0.61732 0.0
C176 C 0.54334 0.82263 0.59441 0.0
C177 C 0.55834 0.82771 0.56033 0.0
C178 C 0.88077 0.04118 0.51075 0.0
C179 C 0.88479 0.91037 0.56381 0.0
O180 O 0.0074 0.95816 0.4497 0.0
O181 O 0.02535 -0.01325 0.50194 0.0
O182 O 0.86797 0.83309 0.45531 0.0
O183 O 0.82785 0.84389 0.50029 0.0
O184 O 0.89783 -0.01478 0.43563 0.0
O185 O 0.78096 0.93461 0.44665 0.0
O186 O 0.67517 0.81971 0.50116 0.0
O187 O 0.6915 0.91806 0.52011 0.0
O188 O 0.83507 0.01008 0.53426 0.0
O189 O 0.87065 0.00106 0.48705 0.0
O190 O 0.81856 0.88924 0.55629 0.0
O191 O 0.93206 0.93652 0.53937 0.0
H192 H 0.01359 0.85329 0.49995 0.0
H193 H 0.06723 0.78419 0.48616 0.0
H194 H 0.23521 0.9628 0.43691 0.0
H195 H 0.1825 0.03117 0.45179 0.0
H196 H 0.6863 0.78711 0.5626 0.0
H197 H 0.6632 0.78122 0.62123 0.0
H198 H 0.50498 0.83526 0.60299 0.0
H199 H 0.53252 0.84548 0.54358 0.0
C200 C 0.19639 0.08009 0.81865 0.0
Eu201 Eu 0.09916 0.94989 0.82149 0.0
C202 C 0.26882 0.1178 0.80731 0.0
C203 C 0.31783 0.17722 0.82431 0.0
C204 C 0.38674 0.21427 0.81318 0.0
C205 C 0.40742 0.19257 0.78469 0.0
C206 C 0.35818 0.13117 0.76865 0.0
C207 C 0.28985 0.09396 0.78 0.0
C208 C 0.12675 0.84519 0.81231 0.0
C209 C -0.0107 0.87357 0.76092 0.0
C210 C 0.90496 0.67661 0.84782 0.0
Eu211 Eu -0.01662 0.80947 0.83954 0.0
C212 C 0.89726 0.63689 0.87826 0.0
C213 C 0.95361 0.66178 0.90016 0.0
C214 C 0.94214 0.64823 0.93408 0.0
C215 C 0.8739 0.60907 0.94677 0.0
C216 C 0.81929 0.57348 0.92387 0.0
C217 C 0.83073 0.5884 0.88982 0.0
C218 C 0.95363 0.90863 0.8514 0.0
C219 C 0.08285 0.90582 0.90179 0.0
O220 O 0.14886 0.04956 0.79581 0.0
O221 O 0.18449 0.04116 0.84479 0.0
O222 O 0.14842 0.89736 0.79214 0.0
O223 O 0.0958 0.85309 0.83637 0.0
O224 O 0.04185 0.93341 0.7716 0.0
O225 O 0.96179 0.81877 0.78196 0.0
O226 O -0.03434 0.70472 0.83297 0.0
O227 O 0.88223 0.72006 0.85094 0.0
O228 O 0.93536 0.85731 0.87196 0.0
O229 O -0.01439 0.9048 0.82644 0.0
O230 O 0.03957 0.84095 0.89135 0.0
O231 O 0.10381 0.95702 0.87964 0.0
H232 H 0.30252 0.19554 0.84587 0.0
H233 H 0.42324 0.26079 0.82634 0.0
H234 H 0.37113 0.11332 0.7462 0.0
H235 H 0.25303 0.04749 0.76685 0.0
H236 H 0.00573 0.69884 0.89183 0.0
H237 H -0.0135 0.6763 0.95019 0.0
H238 H 0.76649 0.53996 0.93238 0.0
H239 H 0.78659 0.56787 0.87318 0.0
H240 H 0.06605 0.26727 1.1191 0.0
H241 H 0.0892 0.30064 0.22478 0.0
H242 H 0.17158 0.25906 0.22638 0.0
H243 H 0.20651 0.18238 0.20112 0.0
H244 H 0.1554 0.11903 1.09898 0.0
H245 H 0.11088 0.19907 1.09218 0.0
C246 C 0.09067 0.26679 1.14217 0.0
C247 C 0.07072 0.28448 0.17189 0.0
C248 C 0.12937 0.23351 1.14357 0.0
C249 C 0.1043 0.28687 0.20166 0.0
C250 C 0.14977 0.26143 0.20267 0.0
C251 C 0.18587 0.18663 0.17736 0.0
C252 C 0.18176 0.14431 1.15081 0.0
C253 C 0.15744 0.22921 0.17441 0.0
C254 C 0.15633 0.15003 1.11991 0.0
C255 C 0.13219 0.19637 1.11598 0.0
H256 H -0.02714 0.07211 0.56048 0.0
H257 H 0.9399 0.14142 0.46582 0.0
H258 H 0.06212 0.19187 0.45183 0.0
H259 H 0.17477 0.20499 0.46402 0.0
H260 H 0.21283 0.14329 0.55931 0.0
H261 H 0.09181 0.09996 0.57583 0.0
C262 C -0.0064 0.102 0.53778 0.0
C263 C 0.94834 0.10278 0.51394 0.0
C264 C 0.06356 0.12865 0.52942 0.0
C265 C -0.02524 0.14097 0.48447 0.0
C266 C 0.04393 0.16762 0.47599 0.0
C267 C 0.1555 0.17998 0.48796 0.0
C268 C 0.20045 0.17416 0.50996 0.0
C269 C 0.08778 0.15889 0.49765 0.0
C270 C 0.17702 0.14431 0.54145 0.0
C271 C 0.10863 0.12134 0.55113 0.0
H272 H 0.01476 -0.00375 0.90194 0.0
H273 H 0.89348 0.96145 0.81335 0.0
H274 H 0.95123 0.0854 0.80291 0.0
H275 H 0.05463 0.19814 0.81132 0.0
H276 H 0.1806 0.23478 0.89864 0.0
H277 H 0.10579 0.11439 0.91624 0.0
C278 C -0.00127 0.01656 0.88143 0.0
C279 C 0.95167 0.97112 0.85798 0.0
C280 C 0.03598 0.08741 0.87427 0.0
C281 C 0.92996 -0.00343 0.83161 0.0
C282 C -0.03581 0.06721 0.82518 0.0
C283 C 0.06464 0.18017 0.8346 0.0
C284 C 0.12275 0.22435 0.85356 0.0
C285 C 0.02055 0.11222 0.84497 0.0
C286 C 0.13629 0.20074 0.88344 0.0
C287 C 0.09313 0.13247 0.89375 0.0
H288 H 0.42618 0.56286 1.08808 0.0
H289 H 0.58985 0.53576 1.04671 0.0
H290 H 0.59322 0.59958 0.99722 0.0
H291 H 0.52813 0.6324 0.96055 0.0
H292 H 0.36275 0.65879 1.00025 0.0
H293 H 0.38187 0.62602 1.05543 0.0
C294 C 0.46391 0.57275 1.06861 0.0
C295 C 0.50618 0.54281 1.07075 0.0
C296 C 0.46401 0.60759 1.03948 0.0
C297 C 0.55625 0.55768 1.04579 0.0
C298 C 0.55772 0.5936 1.01715 0.0
C299 C 0.49806 0.63426 0.98133 0.0
C300 C 0.44182 0.64494 0.97577 0.0
C301 C 0.50862 0.61445 1.01287 0.0
C302 C 0.40441 0.64773 1.00346 0.0
C303 C 0.41531 0.62901 1.03509 0.0
H304 H 0.9431 0.42183 0.41909 0.0
H305 H 0.92938 0.22229 0.41765 0.0
H306 H 0.84311 0.18367 0.37352 0.0
H307 H 0.79376 0.21629 0.32765 0.0
H308 H 0.80758 0.41619 0.32801 0.0
H309 H 0.87162 0.44489 0.38029 0.0
C310 C 0.91936 0.36916 0.40983 0.0
C311 C 0.94331 0.32541 0.42124 0.0
C312 C 0.8712 0.34795 0.3837 0.0
C313 C 0.91174 0.25698 0.40938 0.0
C314 C 0.86298 0.23512 0.38379 0.0
C315 C 0.80804 0.2651 0.33967 0.0
C316 C 0.79743 0.31477 0.32326 0.0
C317 C 0.84539 0.28154 0.36956 0.0
C318 C 0.81691 0.37777 0.33948 0.0
C319 C 0.85346 0.39422 0.36945 0.0
H320 H 0.73317 0.94901 0.74949 0.0
H321 H 0.68607 0.10341 0.71495 0.0
H322 H 0.6097 0.02417 0.67224 0.0
H323 H 0.57495 0.92121 0.63925 0.0
H324 H 0.61718 0.76307 0.67404 0.0
H325 H 0.67596 0.83344 0.7227 0.0
C326 C 0.705 0.96445 0.73293 0.0
C327 C 0.7158 0.03197 0.73477 0.0
C328 C 0.66099 0.9185 0.70849 0.0
C329 C 0.67855 0.05162 0.71373 0.0
C330 C 0.63509 0.00645 0.68931 0.0
C331 C 0.59402 0.90004 0.65796 0.0
C332 C 0.59368 0.83772 0.65207 0.0
C333 C 0.62813 0.94085 0.68569 0.0
C334 C 0.61888 0.81203 0.67713 0.0
C335 C 0.65272 0.85233 0.705 0.0
H336 H 0.81922 0.76078 1.06024 0.0
H337 H 0.02834 0.81183 1.08447 0.0
H338 H 0.01711 0.71913 1.04842 0.0
H339 H 0.95712 0.6403 1.00228 0.0
H340 H 0.75713 0.6076 0.97109 0.0
H341 H 0.75377 0.6716 1.01867 0.0
C342 C 0.86236 0.75158 1.05771 0.0
C343 C 0.92509 0.79444 1.0744 0.0
C344 C 0.85698 0.70062 1.03565 0.0
C345 C -0.02057 0.77992 1.07187 0.0
C346 C -0.02679 0.72704 1.05108 0.0
C347 C 0.91258 0.64689 1.00575 0.0
C348 C 0.85945 0.62172 0.98168 0.0
C349 C 0.91358 0.68958 1.03157 0.0
C350 C 0.79993 0.62673 0.98839 0.0
C351 C 0.79829 0.6648 1.01549 0.0
H352 H 0.28083 0.88636 0.43937 0.0
H353 H 0.06005 0.74488 0.43064 0.0
H354 H 0.07749 0.70452 0.37773 0.0
H355 H 0.14812 0.73924 0.32755 0.0
H356 H 0.36854 0.88432 0.33366 0.0
H357 H 0.3582 0.89349 0.39362 0.0
C358 C 0.23687 0.84491 0.42641 0.0
C359 C 0.16907 0.8214 0.4383 0.0
C360 C 0.2467 0.82449 0.39479 0.0
C361 C 0.11292 0.7654 0.42202 0.0
C362 C 0.12264 0.74277 0.39127 0.0
C363 C 0.19482 0.77045 0.34191 0.0
C364 C 0.25833 0.81414 0.3257 0.0
C365 C 0.18834 0.77652 0.37624 0.0
C366 C 0.31815 0.85288 0.34524 0.0
C367 C 0.31237 0.85808 0.37962 0.0
H368 H 0.48944 0.15395 0.75134 0.0
H369 H 0.47983 0.33465 0.78098 0.0
H370 H 0.56357 0.40288 0.73809 0.0
H371 H 0.60784 0.40101 0.68267 0.0
H372 H 0.59286 0.212 0.64666 0.0
H373 H 0.55416 0.15909 0.70113 0.0
C374 C 0.50663 0.20862 0.7488 0.0
C375 C 0.47573 0.23806 0.76837 0.0
C376 C 0.55016 0.24621 0.72217 0.0
C377 C 0.50148 0.30984 0.76601 0.0
C378 C 0.54897 0.34898 0.74108 0.0
C379 C 0.59745 0.34869 0.68695 0.0
C380 C 0.59988 0.30957 0.6601 0.0
C381 C 0.56873 0.31614 0.71741 0.0
C382 C 0.59021 0.24329 0.66651 0.0
C383 C 0.56692 0.21237 0.69768 0.0
H384 H 0.49948 0.08235 1.11324 0.0
H385 H 0.46412 0.03182 0.21745 0.0
H386 H 0.56235 0.01132 0.21873 0.0
H387 H 0.66759 0.02209 0.19151 0.0
H388 H 0.70897 0.08577 1.08881 0.0
H389 H 0.59953 0.08573 1.08528 0.0
C390 C 0.51203 0.06454 1.13588 0.0
C391 C 0.47379 0.05688 0.16501 0.0
C392 C 0.57047 0.0559 1.13669 0.0
C393 C 0.49203 0.0365 0.19457 0.0
C394 C 0.54859 0.0254 0.19535 0.0
C395 C 0.65137 0.03387 0.16818 0.0
C396 C 0.69564 0.05284 1.14027 0.0
C397 C 0.58949 0.03679 0.16677 0.0
C398 C 0.67531 0.0703 1.11047 0.0
C399 C 0.6129 0.07066 1.10849 0.0
H400 H 0.54921 0.51852 0.44072 0.0
H401 H 0.49687 0.54468 0.5409 0.0
H402 H 0.61263 0.64544 0.54836 0.0
H403 H 0.72444 0.73213 0.52492 0.0
H404 H 0.77475 0.7155 0.42311 0.0
H405 H 0.66535 0.6047 0.41774 0.0
C406 C 0.56401 0.54571 0.4643 0.0
C407 C 0.51506 0.52439 0.49032 0.0
C408 C 0.63005 0.60567 0.46794 0.0
C409 C 0.53395 0.56043 0.5206 0.0
C410 C 0.59999 0.61808 0.52484 0.0
C411 C 0.7114 0.70425 0.50156 0.0
C412 C 0.75679 0.73249 0.47429 0.0
C413 C 0.6477 0.64223 0.49842 0.0
C414 C 0.74028 0.69499 0.4444 0.0
C415 C 0.67762 0.6318 0.44131 0.0
H416 H 0.11954 0.56947 0.76933 0.0
H417 H 0.12387 0.54792 0.87579 0.0
H418 H 0.1306 0.65981 0.88351 0.0
H419 H 0.12959 0.76125 0.86 0.0
H420 H 0.13497 0.78813 0.75362 0.0
H421 H 0.13089 0.67724 0.74571 0.0
C422 C 0.1226 0.58973 0.79417 0.0
C423 C 0.12046 0.55025 0.82197 0.0
C424 C 0.1282 0.65499 0.79838 0.0
C425 C 0.12533 0.57731 0.85403 0.0
C426 C 0.12898 0.64118 0.85845 0.0
C427 C 0.1306 0.74305 0.8351 0.0
C428 C 0.13214 0.78241 0.80739 0.0
C429 C 0.12961 0.68007 0.83083 0.0
C430 C 0.13404 0.75876 0.77528 0.0
C431 C 0.13135 0.69524 0.77079 0.0
H432 H 0.35807 0.11576 0.29484 0.0
H433 H 0.29949 0.25008 0.24576 0.0
H434 H 0.29989 0.30274 0.29905 0.0
H435 H 0.31817 0.31459 0.3613 0.0
H436 H 0.38785 0.18877 0.40989 0.0
H437 H 0.38186 0.13165 0.35701 0.0
C438 C 0.34495 0.15627 0.29556 0.0
C439 C 0.32783 0.17713 0.26483 0.0
C440 C 0.3476 0.18938 0.3272 0.0
C441 C 0.31261 0.2313 0.26783 0.0
C442 C 0.31288 0.26211 0.29885 0.0
C443 C 0.33216 0.2747 0.36063 0.0
C444 C 0.35343 0.25717 0.39108 0.0
C445 C 0.33052 0.24225 0.32901 0.0
C446 C 0.37154 0.20502 0.38799 0.0
C447 C 0.36793 0.1716 0.35723 0.0
H448 H 0.19568 0.33615 0.5961 0.0
H449 H 0.40945 0.40576 0.61926 0.0
H450 H 0.38728 0.41846 0.6779 0.0
H451 H 0.30657 0.41022 0.72492 0.0
H452 H 0.09096 0.33181 0.70167 0.0
H453 H 0.11452 0.32292 0.64305 0.0
C454 C 0.23796 0.35435 0.61374 0.0
C455 C 0.30522 0.37034 0.60167 0.0
C456 C 0.22427 0.36029 0.64861 0.0
C457 C 0.3574 0.39282 0.62639 0.0
C458 C 0.34454 0.4003 0.66054 0.0
C459 C 0.26436 0.39133 0.70722 0.0
C460 C 0.19612 0.37239 0.71929 0.0
C461 C 0.27811 0.38437 0.67236 0.0
C462 C 0.14373 0.34721 0.69459 0.0
C463 C 0.15735 0.34204 0.66041 0.0
H464 H -0.03131 0.31344 0.93408 0.0
H465 H 0.17396 0.3462 0.95044 0.0
H466 H 0.14203 0.30472 1.00789 0.0
H467 H 0.05489 0.25672 1.05531 0.0
H468 H 0.85437 0.23706 1.0409 0.0
H469 H 0.88491 0.27469 0.98289 0.0
C470 C 0.00703 0.3121 0.95008 0.0
C471 C 0.07478 0.33389 0.93649 0.0
C472 C -0.01135 0.28967 0.98445 0.0
C473 C 0.12207 0.33106 0.95898 0.0
C474 C 0.10343 0.30667 0.99234 0.0
C475 C 0.01746 0.26059 1.03971 0.0
C476 C 0.951 0.24245 1.05383 0.0
C477 C 0.03673 0.28542 1.0057 0.0
C478 C 0.90537 0.2498 1.03201 0.0
C479 C 0.92309 0.27158 0.99826 0.0
H480 H 0.76215 0.05892 0.28137 0.0
H481 H -0.01771 0.14226 0.26802 0.0
H482 H -0.0095 0.10488 0.32386 0.0
H483 H 0.93728 0.04442 0.37708 0.0
H484 H 0.71743 0.95677 0.39234 0.0
H485 H 0.70801 -0.00123 0.33699 0.0
C486 C 0.81229 0.07011 0.2907 0.0
C487 C 0.87195 0.10522 0.26913 0.0
C488 C 0.81698 0.04637 0.32393 0.0
C489 C 0.93523 0.11647 0.28285 0.0
C490 C 0.94011 0.09454 0.31528 0.0
C491 C 0.88679 0.03404 0.36866 0.0
C492 C 0.82807 -0.00399 0.3902 0.0
C493 C 0.88155 0.05857 0.33613 0.0
C494 C 0.76406 -0.01514 0.37742 0.0
C495 C 0.75865 0.00939 0.34526 0.0
H496 H 0.81344 0.83075 0.62308 0.0
H497 H 0.01678 -0.01546 0.58821 0.0
H498 H 0.06502 -0.01037 0.64309 0.0
H499 H 0.05305 0.95129 0.70259 0.0
H500 H 0.85421 0.78823 0.73722 0.0
H501 H 0.80315 0.78606 0.68273 0.0
C502 C 0.86835 0.86573 0.62727 0.0
C503 C 0.91026 0.90872 0.60007 0.0
C504 C 0.89775 0.86653 0.6598 0.0
C505 C -0.01834 0.95178 0.60749 0.0
C506 C 0.00995 0.95447 0.63942 0.0
C507 C -0.00155 0.91474 0.69849 0.0
C508 C 0.95855 0.86994 0.72541 0.0
C509 C -0.03096 0.91226 0.66604 0.0
C510 C 0.88772 0.82336 0.71804 0.0
C511 C 0.85798 0.82228 0.68638 0.0
H512 H 0.17931 0.03264 0.93352 0.0
H513 H 0.0477 0.81551 0.95583 0.0
H514 H 0.08892 0.83686 1.01347 0.0
H515 H 0.16326 0.91725 1.05976 0.0
H516 H 0.29566 0.13405 1.03671 0.0
H517 H 0.25374 0.11252 0.97938 0.0
C518 C 0.15903 -0.01053 0.95079 0.0
C519 C 0.10911 0.92165 0.93878 0.0
C520 C 0.18367 0.0022 0.98494 0.0
C521 C 0.08533 0.86808 0.96292 0.0
C522 C 0.10923 0.88047 0.99651 0.0
C523 C 0.18357 0.96024 1.04239 0.0
C524 C 0.23431 0.02815 1.05413 0.0
C525 C 0.15867 0.9473 1.0082 0.0
C526 C 0.25774 0.08142 1.02985 0.0
C527 C 0.23329 0.06898 0.99644 0.0
loop_
_geom_bond_atom_site_label_1
_geom_bond_atom_site_label_2
_geom_bond_distance
_geom_bond_site_symmetry_2
_ccdc_geom_bond_type
C0 Eu1 2.835 1_556 S
C0 C2 1.500 . S
C0 O20 1.257 . S
C0 O21 1.260 . S
Eu1 C0 2.835 1_554 S
Eu1 O20 2.473 1_554 S
Eu1 O21 2.480 1_554 S
Eu1 O22 2.430 . S
Eu1 O23 2.670 . S
Eu1 O24 2.394 1_554 S
Eu1 O29 2.355 . S
Eu1 O31 2.374 . S
C2 C0 1.500 . S
C2 C3 1.377 . S
C2 C7 1.377 . S
C3 C2 1.377 . S
C3 C4 1.395 . S
C3 H32 0.931 . S
C4 C3 1.395 . S
C4 C5 1.383 . S
C4 H33 0.931 . S
C5 C4 1.383 . S
C5 C6 1.394 . S
C6 C5 1.394 . S
C6 C7 1.378 . S
C6 H34 0.931 . S
C7 C2 1.377 . S
C7 C6 1.378 . S
C7 H35 0.931 . S
C8 O22 1.259 . S
C8 O23 1.270 . S
C9 O24 1.251 . S
C9 O25 1.251 . S
C10 Eu11 2.835 . S
C10 C12 1.500 . S
C10 O26 1.257 . S
C10 O27 1.260 . S
Eu11 C10 2.835 . S
Eu11 O23 2.355 . S
Eu11 O25 2.374 1_554 S
Eu11 O26 2.473 . S
Eu11 O27 2.480 . S
Eu11 O28 2.430 . S
Eu11 O29 2.670 . S
Eu11 O30 2.394 . S
C12 C10 1.500 . S
C12 C13 1.377 . S
C12 C17 1.377 . S
C13 C12 1.377 . S
C13 C14 1.395 . S
C13 H36 0.931 . S
C14 C13 1.395 . S
C14 C15 1.383 . S
C14 H37 0.931 . S
C15 C14 1.383 . S
C15 C16 1.394 . S
C16 C15 1.394 . S
C16 C17 1.378 . S
C16 H38 0.931 . S
C17 C12 1.377 . S
C17 C16 1.378 . S
C17 H39 0.931 . S
C18 O28 1.259 . S
C18 O29 1.270 . S
C19 O30 1.251 . S
C19 O31 1.251 . S
O20 C0 1.257 . S
O20 Eu1 2.473 1_556 S
O21 C0 1.260 . S
O21 Eu1 2.480 1_556 S
O22 Eu1 2.430 . S
O22 C8 1.259 . S
O23 Eu1 2.670 . S
O23 C8 1.270 . S
O23 Eu11 2.355 . S
O24 Eu1 2.394 1_556 S
O24 C9 1.251 . S
O25 C9 1.251 . S
O25 Eu11 2.374 1_556 S
O26 C10 1.257 . S
O26 Eu11 2.473 . S
O27 C10 1.260 . S
O27 Eu11 2.480 . S
O28 Eu11 2.430 . S
O28 C18 1.259 . S
O29 Eu1 2.355 . S
O29 Eu11 2.670 . S
O29 C18 1.270 . S
O30 Eu11 2.394 . S
O30 C19 1.251 . S
O31 Eu1 2.374 . S
O31 C19 1.251 . S
H32 C3 0.931 . S
H33 C4 0.931 . S
H34 C6 0.931 . S
H35 C7 0.931 . S
H36 C13 0.931 . S
H37 C14 0.931 . S
H38 C16 0.931 . S
H39 C17 0.931 . S
C40 Eu41 2.835 . S
C40 C42 1.500 . S
C40 O60 1.257 . S
C40 O61 1.260 . S
Eu41 C40 2.835 . S
Eu41 O60 2.473 . S
Eu41 O61 2.480 . S
Eu41 O62 2.430 . S
Eu41 O63 2.670 . S
Eu41 O64 2.394 . S
Eu41 O69 2.355 . S
Eu41 O71 2.374 . S
C42 C40 1.500 . S
C42 C43 1.377 . S
C42 C47 1.377 . S
C43 C42 1.377 . S
C43 C44 1.395 . S
C43 H72 0.931 . S
C44 C43 1.395 . S
C44 C45 1.383 . S
C44 H73 0.931 . S
C45 C44 1.383 . S
C45 C46 1.394 . S
C46 C45 1.394 . S
C46 C47 1.378 . S
C46 H74 0.931 . S
C47 C42 1.377 . S
C47 C46 1.378 . S
C47 H75 0.931 . S
C48 O62 1.259 . S
C48 O63 1.270 . S
C49 O64 1.251 . S
C49 O65 1.251 . S
C50 Eu51 2.835 . S
C50 C52 1.500 . S
C50 O66 1.257 . S
C50 O67 1.260 . S
Eu51 C50 2.835 . S
Eu51 O63 2.355 . S
Eu51 O65 2.374 . S
Eu51 O66 2.473 . S
Eu51 O67 2.480 . S
Eu51 O68 2.430 . S
Eu51 O69 2.670 . S
Eu51 O70 2.394 . S
C52 C50 1.500 . S
C52 C53 1.377 . S
C52 C57 1.377 . S
C53 C52 1.377 . S
C53 C54 1.395 . S
C53 H76 0.931 . S
C54 C53 1.395 . S
C54 C55 1.383 . S
C54 H77 0.931 . S
C55 C54 1.383 . S
C55 C56 1.394 . S
C56 C55 1.394 . S
C56 C57 1.378 . S
C56 H78 0.931 . S
C57 C52 1.377 . S
C57 C56 1.378 . S
C57 H79 0.931 . S
C58 O68 1.259 . S
C58 O69 1.270 . S
C59 O70 1.251 . S
C59 O71 1.251 . S
O60 C40 1.257 . S
O60 Eu41 2.473 . S
O61 C40 1.260 . S
O61 Eu41 2.480 . S
O62 Eu41 2.430 . S
O62 C48 1.259 . S
O63 Eu41 2.670 . S
O63 C48 1.270 . S
O63 Eu51 2.355 . S
O64 Eu41 2.394 . S
O64 C49 1.251 . S
O65 C49 1.251 . S
O65 Eu51 2.374 . S
O66 C50 1.257 . S
O66 Eu51 2.473 . S
O67 C50 1.260 . S
O67 Eu51 2.480 . S
O68 Eu51 2.430 . S
O68 C58 1.259 . S
O69 Eu41 2.355 . S
O69 Eu51 2.670 . S
O69 C58 1.270 . S
O70 Eu51 2.394 . S
O70 C59 1.251 . S
O71 Eu41 2.374 . S
O71 C59 1.251 . S
H72 C43 0.931 . S
H73 C44 0.931 . S
H74 C46 0.931 . S
H75 C47 0.931 . S
H76 C53 0.931 . S
H77 C54 0.931 . S
H78 C56 0.931 . S
H79 C57 0.931 . S
C80 Eu81 2.835 . S
C80 C82 1.500 . S
C80 O100 1.257 . S
C80 O101 1.260 . S
Eu81 C80 2.835 . S
Eu81 O100 2.473 . S
Eu81 O101 2.480 . S
Eu81 O102 2.430 . S
Eu81 O103 2.670 . S
Eu81 O104 2.394 1_655 S
Eu81 O109 2.355 1_655 S
Eu81 O111 2.374 . S
C82 C80 1.500 . S
C82 C83 1.377 . S
C82 C87 1.377 . S
C83 C82 1.377 . S
C83 C84 1.395 . S
C83 H112 0.931 . S
C84 C83 1.395 . S
C84 C85 1.383 . S
C84 H113 0.931 . S
C85 C84 1.383 . S
C85 C86 1.394 . S
C86 C85 1.394 . S
C86 C87 1.378 . S
C86 H114 0.931 . S
C87 C82 1.377 . S
C87 C86 1.378 . S
C87 H115 0.931 . S
C88 O102 1.259 . S
C88 O103 1.270 . S
C89 O104 1.251 . S
C89 O105 1.251 . S
C90 Eu91 2.835 . S
C90 C92 1.500 . S
C90 O106 1.257 . S
C90 O107 1.260 . S
Eu91 C90 2.835 . S
Eu91 O103 2.355 1_455 S
Eu91 O105 2.374 . S
Eu91 O106 2.473 . S
Eu91 O107 2.480 . S
Eu91 O108 2.430 . S
Eu91 O109 2.670 . S
Eu91 O110 2.394 1_455 S
C92 C90 1.500 . S
C92 C93 1.377 . S
C92 C97 1.377 . S
C93 C92 1.377 . S
C93 C94 1.395 . S
C93 H116 0.931 . S
C94 C93 1.395 . S
C94 C95 1.383 . S
C94 H117 0.931 . S
C95 C94 1.383 . S
C95 C96 1.394 . S
C96 C95 1.394 . S
C96 C97 1.378 . S
C96 H118 0.931 . S
C97 C92 1.377 . S
C97 C96 1.378 . S
C97 H119 0.931 . S
C98 O108 1.259 . S
C98 O109 1.270 . S
C99 O110 1.251 . S
C99 O111 1.251 . S
O100 C80 1.257 . S
O100 Eu81 2.473 . S
O101 C80 1.260 . S
O101 Eu81 2.480 . S
O102 Eu81 2.430 . S
O102 C88 1.259 . S
O103 Eu81 2.670 . S
O103 C88 1.270 . S
O103 Eu91 2.355 1_655 S
O104 Eu81 2.394 1_455 S
O104 C89 1.251 . S
O105 C89 1.251 . S
O105 Eu91 2.374 . S
O106 C90 1.257 . S
O106 Eu91 2.473 . S
O107 C90 1.260 . S
O107 Eu91 2.480 . S
O108 Eu91 2.430 . S
O108 C98 1.259 . S
O109 Eu81 2.355 1_455 S
O109 Eu91 2.670 . S
O109 C98 1.270 . S
O110 Eu91 2.394 1_655 S
O110 C99 1.251 . S
O111 Eu81 2.374 . S
O111 C99 1.251 . S
H112 C83 0.931 . S
H113 C84 0.931 . S
H114 C86 0.931 . S
H115 C87 0.931 . S
H116 C93 0.931 . S
H117 C94 0.931 . S
H118 C96 0.931 . S
H119 C97 0.931 . S
C120 Eu121 2.835 1_556 S
C120 C122 1.500 . S
C120 O140 1.257 . S
C120 O141 1.260 . S
Eu121 C120 2.835 1_554 S
Eu121 O140 2.473 1_554 S
Eu121 O141 2.480 1_554 S
Eu121 O142 2.430 . S
Eu121 O143 2.670 1_565 S
Eu121 O144 2.394 1_564 S
Eu121 O149 2.355 1_565 S
Eu121 O151 2.374 . S
C122 C120 1.500 . S
C122 C123 1.377 . S
C122 C127 1.377 . S
C123 C122 1.377 . S
C123 C124 1.395 . S
C123 H152 0.931 . S
C124 C123 1.395 . S
C124 C125 1.383 . S
C124 H153 0.931 . S
C125 C124 1.383 . S
C125 C126 1.394 . S
C126 C125 1.394 . S
C126 C127 1.378 . S
C126 H154 0.931 . S
C127 C122 1.377 . S
C127 C126 1.378 . S
C127 H155 0.931 . S
C128 O142 1.259 . S
C128 O143 1.270 1_565 S
C129 O144 1.251 . S
C129 O145 1.251 . S
C130 Eu131 2.835 . S
C130 C132 1.500 . S
C130 O146 1.257 . S
C130 O147 1.260 . S
Eu131 C130 2.835 . S
Eu131 O143 2.355 . S
Eu131 O145 2.374 1_554 S
Eu131 O146 2.473 . S
Eu131 O147 2.480 . S
Eu131 O148 2.430 . S
Eu131 O149 2.670 . S
Eu131 O150 2.394 . S
C132 C130 1.500 . S
C132 C133 1.377 . S
C132 C137 1.377 . S
C133 C132 1.377 . S
C133 C134 1.395 . S
C133 H156 0.931 . S
C134 C133 1.395 . S
C134 C135 1.383 . S
C134 H157 0.931 . S
C135 C134 1.383 . S
C135 C136 1.394 . S
C136 C135 1.394 . S
C136 C137 1.378 . S
C136 H158 0.931 . S
C137 C132 1.377 . S
C137 C136 1.378 . S
C137 H159 0.931 . S
C138 O148 1.259 . S
C138 O149 1.270 . S
C139 O150 1.251 1_565 S
C139 O151 1.251 . S
O140 C120 1.257 . S
O140 Eu121 2.473 1_556 S
O141 C120 1.260 . S
O141 Eu121 2.480 1_556 S
O142 Eu121 2.430 . S
O142 C128 1.259 . S
O143 Eu121 2.670 1_545 S
O143 C128 1.270 1_545 S
O143 Eu131 2.355 . S
O144 Eu121 2.394 1_546 S
O144 C129 1.251 . S
O145 C129 1.251 . S
O145 Eu131 2.374 1_556 S
O146 C130 1.257 . S
O146 Eu131 2.473 . S
O147 C130 1.260 . S
O147 Eu131 2.480 . S
O148 Eu131 2.430 . S
O148 C138 1.259 . S
O149 Eu121 2.355 1_545 S
O149 Eu131 2.670 . S
O149 C138 1.270 . S
O150 Eu131 2.394 . S
O150 C139 1.251 1_545 S
O151 Eu121 2.374 . S
O151 C139 1.251 . S
H152 C123 0.931 . S
H153 C124 0.931 . S
H154 C126 0.931 . S
H155 C127 0.931 . S
H156 C133 0.931 . S
H157 C134 0.931 . S
H158 C136 0.931 . S
H159 C137 0.931 . S
C160 Eu161 2.835 . S
C160 C162 1.500 . S
C160 O180 1.257 . S
C160 O181 1.260 . S
Eu161 C160 2.835 . S
Eu161 O180 2.473 . S
Eu161 O181 2.480 . S
Eu161 O182 2.430 1_455 S
Eu161 O183 2.670 1_455 S
Eu161 O184 2.394 1_455 S
Eu161 O189 2.355 . S
Eu161 O191 2.374 . S
C162 C160 1.500 . S
C162 C163 1.377 . S
C162 C167 1.377 . S
C163 C162 1.377 . S
C163 C164 1.395 . S
C163 H192 0.931 . S
C164 C163 1.395 . S
C164 C165 1.383 . S
C164 H193 0.931 . S
C165 C164 1.383 . S
C165 C166 1.394 . S
C166 C165 1.394 . S
C166 C167 1.378 . S
C166 H194 0.931 . S
C167 C162 1.377 . S
C167 C166 1.378 . S
C167 H195 0.931 . S
C168 O182 1.259 . S
C168 O183 1.270 . S
C169 O184 1.251 . S
C169 O185 1.251 . S
C170 Eu171 2.835 . S
C170 C172 1.500 . S
C170 O186 1.257 . S
C170 O187 1.260 . S
Eu171 C170 2.835 . S
Eu171 O183 2.355 . S
Eu171 O185 2.374 . S
Eu171 O186 2.473 . S
Eu171 O187 2.480 . S
Eu171 O188 2.430 1_655 S
Eu171 O189 2.670 1_655 S
Eu171 O190 2.394 . S
C172 C170 1.500 . S
C172 C173 1.377 . S
C172 C177 1.377 . S
C173 C172 1.377 . S
C173 C174 1.395 . S
C173 H196 0.931 . S
C174 C173 1.395 . S
C174 C175 1.383 . S
C174 H197 0.931 . S
C175 C174 1.383 . S
C175 C176 1.394 . S
C176 C175 1.394 . S
C176 C177 1.378 . S
C176 H198 0.931 . S
C177 C172 1.377 . S
C177 C176 1.378 . S
C177 H199 0.931 . S
C178 O188 1.259 . S
C178 O189 1.270 . S
C179 O190 1.251 1_455 S
C179 O191 1.251 . S
O180 C160 1.257 . S
O180 Eu161 2.473 . S
O181 C160 1.260 . S
O181 Eu161 2.480 . S
O182 Eu161 2.430 1_655 S
O182 C168 1.259 . S
O183 Eu161 2.670 1_655 S
O183 C168 1.270 . S
O183 Eu171 2.355 . S
O184 Eu161 2.394 1_655 S
O184 C169 1.251 . S
O185 C169 1.251 . S
O185 Eu171 2.374 . S
O186 C170 1.257 . S
O186 Eu171 2.473 . S
O187 C170 1.260 . S
O187 Eu171 2.480 . S
O188 Eu171 2.430 1_455 S
O188 C178 1.259 . S
O189 Eu161 2.355 . S
O189 Eu171 2.670 1_455 S
O189 C178 1.270 . S
O190 Eu171 2.394 . S
O190 C179 1.251 1_655 S
O191 Eu161 2.374 . S
O191 C179 1.251 . S
H192 C163 0.931 . S
H193 C164 0.931 . S
H194 C166 0.931 . S
H195 C167 0.931 . S
H196 C173 0.931 . S
H197 C174 0.931 . S
H198 C176 0.931 . S
H199 C177 0.931 . S
C200 Eu201 2.835 . S
C200 C202 1.500 . S
C200 O220 1.257 . S
C200 O221 1.260 . S
Eu201 C200 2.835 . S
Eu201 O220 2.473 . S
Eu201 O221 2.480 . S
Eu201 O222 2.430 1_545 S
Eu201 O223 2.670 1_545 S
Eu201 O224 2.394 1_545 S
Eu201 O229 2.355 . S
Eu201 O231 2.374 . S
C202 C200 1.500 . S
C202 C203 1.377 . S
C202 C207 1.377 . S
C203 C202 1.377 . S
C203 C204 1.395 . S
C203 H232 0.931 . S
C204 C203 1.395 . S
C204 C205 1.383 . S
C204 H233 0.931 . S
C205 C204 1.383 . S
C205 C206 1.394 . S
C206 C205 1.394 . S
C206 C207 1.378 . S
C206 H234 0.931 . S
C207 C202 1.377 . S
C207 C206 1.378 . S
C207 H235 0.931 . S
C208 O222 1.259 . S
C208 O223 1.270 . S
C209 O224 1.251 . S
C209 O225 1.251 . S
C210 Eu211 2.835 . S
C210 C212 1.500 . S
C210 O226 1.257 . S
C210 O227 1.260 . S
Eu211 C210 2.835 . S
Eu211 O223 2.355 . S
Eu211 O225 2.374 . S
Eu211 O226 2.473 . S
Eu211 O227 2.480 . S
Eu211 O228 2.430 1_565 S
Eu211 O229 2.670 1_565 S
Eu211 O230 2.394 1_565 S
C212 C210 1.500 . S
C212 C213 1.377 . S
C212 C217 1.377 . S
C213 C212 1.377 . S
C213 C214 1.395 . S
C213 H236 0.931 . S
C214 C213 1.395 . S
C214 C215 1.383 . S
C214 H237 0.931 . S
C215 C214 1.383 . S
C215 C216 1.394 . S
C216 C215 1.394 . S
C216 C217 1.378 . S
C216 H238 0.931 . S
C217 C212 1.377 . S
C217 C216 1.378 . S
C217 H239 0.931 . S
C218 O228 1.259 . S
C218 O229 1.270 . S
C219 O230 1.251 . S
C219 O231 1.251 . S
O220 C200 1.257 . S
O220 Eu201 2.473 . S
O221 C200 1.260 . S
O221 Eu201 2.480 . S
O222 Eu201 2.430 1_565 S
O222 C208 1.259 . S
O223 Eu201 2.670 1_565 S
O223 C208 1.270 . S
O223 Eu211 2.355 . S
O224 Eu201 2.394 1_565 S
O224 C209 1.251 . S
O225 C209 1.251 . S
O225 Eu211 2.374 . S
O226 C210 1.257 . S
O226 Eu211 2.473 . S
O227 C210 1.260 . S
O227 Eu211 2.480 . S
O228 Eu211 2.430 1_545 S
O228 C218 1.259 . S
O229 Eu201 2.355 . S
O229 Eu211 2.670 1_545 S
O229 C218 1.270 . S
O230 Eu211 2.394 1_545 S
O230 C219 1.251 . S
O231 Eu201 2.374 . S
O231 C219 1.251 . S
H232 C203 0.931 . S
H233 C204 0.931 . S
H234 C206 0.931 . S
H235 C207 0.931 . S
H236 C213 0.931 . S
H237 C214 0.931 . S
H238 C216 0.931 . S
H239 C217 0.931 . S
H240 C246 0.932 . S
H241 C249 0.930 1_655 S
H242 C250 0.930 . S
H243 C251 0.930 . S
H244 C254 0.930 . S
H245 C255 0.930 . S
C246 H240 0.932 . S
C246 C247 1.353 1_556 S
C246 C248 1.414 1_556 S
C247 C246 1.353 1_554 S
C247 C249 1.419 . S
C248 C246 1.414 1_554 S
C248 C253 1.425 . S
C248 C255 1.409 1_554 S
C249 H241 0.930 1_455 S
C249 C247 1.419 . S
C249 C250 1.362 . S
C250 H242 0.930 . S
C250 C249 1.362 . S
C250 C253 1.409 . S
C251 H243 0.930 . S
C251 C252 1.355 . S
C251 C253 1.415 . S
C252 C251 1.355 . S
C252 C254 1.419 1_554 S
C253 C248 1.425 . S
C253 C250 1.409 . S
C253 C251 1.415 . S
C254 H244 0.930 . S
C254 C252 1.419 1_556 S
C254 C255 1.362 . S
C255 H245 0.930 . S
C255 C248 1.409 1_556 S
C255 C254 1.362 . S
H256 C262 0.930 . S
H257 C265 0.930 1_565 S
H258 C266 0.930 . S
H259 C267 0.930 . S
H260 C270 0.930 . S
H261 C271 0.930 . S
C262 H256 0.930 . S
C262 C263 1.355 . S
C262 C264 1.415 . S
C263 C262 1.355 . S
C263 C265 1.419 . S
C264 C262 1.415 . S
C264 C269 1.425 . S
C264 C271 1.409 . S
C265 H257 0.930 1_545 S
C265 C263 1.419 . S
C265 C266 1.362 . S
C266 H258 0.930 . S
C266 C265 1.362 . S
C266 C269 1.409 . S
C267 H259 0.930 . S
C267 C268 1.355 . S
C267 C269 1.415 . S
C268 C267 1.355 . S
C268 C270 1.419 . S
C269 C264 1.425 . S
C269 C266 1.409 . S
C269 C267 1.415 . S
C270 H260 0.930 . S
C270 C268 1.419 . S
C270 C271 1.362 . S
C271 H261 0.930 . S
C271 C264 1.409 . S
C271 C270 1.362 . S
H272 C278 0.930 . S
H273 C281 0.930 . S
H274 C282 0.930 . S
H275 C283 0.930 . S
H276 C286 0.930 . S
H277 C287 0.930 . S
C278 H272 0.930 . S
C278 C279 1.355 . S
C278 C280 1.415 . S
C279 C278 1.355 . S
C279 C281 1.419 . S
C280 C278 1.415 . S
C280 C285 1.425 . S
C280 C287 1.409 . S
C281 H273 0.930 . S
C281 C279 1.419 . S
C281 C282 1.362 . S
C282 H274 0.930 . S
C282 C281 1.362 . S
C282 C285 1.409 . S
C283 H275 0.930 . S
C283 C284 1.355 . S
C283 C285 1.415 . S
C284 C283 1.355 . S
C284 C286 1.419 . S
C285 C280 1.425 . S
C285 C282 1.409 . S
C285 C283 1.415 . S
C286 H276 0.930 . S
C286 C284 1.419 . S
C286 C287 1.362 . S
C287 H277 0.930 . S
C287 C280 1.409 . S
C287 C286 1.362 . S
H288 C294 0.930 . S
H289 C297 0.930 . S
H290 C298 0.930 . S
H291 C299 0.930 . S
H292 C302 0.930 . S
H293 C303 0.930 . S
C294 H288 0.930 . S
C294 C295 1.355 . S
C294 C296 1.415 . S
C295 C294 1.355 . S
C295 C297 1.419 . S
C296 C294 1.415 . S
C296 C301 1.425 . S
C296 C303 1.409 . S
C297 H289 0.930 . S
C297 C295 1.419 . S
C297 C298 1.362 . S
C298 H290 0.930 . S
C298 C297 1.362 . S
C298 C301 1.409 . S
C299 H291 0.930 . S
C299 C300 1.355 . S
C299 C301 1.415 . S
C300 C299 1.355 . S
C300 C302 1.419 . S
C301 C296 1.425 . S
C301 C298 1.409 . S
C301 C299 1.415 . S
C302 H292 0.930 . S
C302 C300 1.419 . S
C302 C303 1.362 . S
C303 H293 0.930 . S
C303 C296 1.409 . S
C303 C302 1.362 . S
H304 C310 0.930 . S
H305 C313 0.930 . S
H306 C314 0.930 . S
H307 C315 0.930 . S
H308 C318 0.930 . S
H309 C319 0.930 . S
C310 H304 0.930 . S
C310 C311 1.355 . S
C310 C312 1.415 1_455 S
C311 C310 1.355 . S
C311 C313 1.419 . S
C312 C310 1.415 1_655 S
C312 C317 1.425 1_655 S
C312 C319 1.409 . S
C313 H305 0.930 . S
C313 C311 1.419 . S
C313 C314 1.362 . S
C314 H306 0.930 . S
C314 C313 1.362 . S
C314 C317 1.409 . S
C315 H307 0.930 . S
C315 C316 1.355 . S
C315 C317 1.415 1_655 S
C316 C315 1.355 . S
C316 C318 1.419 . S
C317 C312 1.425 1_455 S
C317 C314 1.409 . S
C317 C315 1.415 1_455 S
C318 H308 0.930 . S
C318 C316 1.419 . S
C318 C319 1.362 . S
C319 H309 0.930 . S
C319 C312 1.409 . S
C319 C318 1.362 . S
H320 C326 0.930 . S
H321 C329 0.930 . S
H322 C330 0.930 . S
H323 C331 0.930 . S
H324 C334 0.930 . S
H325 C335 0.930 . S
C326 H320 0.930 . S
C326 C327 1.355 . S
C326 C328 1.415 . S
C327 C326 1.355 . S
C327 C329 1.419 . S
C328 C326 1.415 . S
C328 C333 1.425 . S
C328 C335 1.409 1_545 S
C329 H321 0.930 . S
C329 C327 1.419 . S
C329 C330 1.362 . S
C330 H322 0.930 . S
C330 C329 1.362 . S
C330 C333 1.409 . S
C331 H323 0.930 . S
C331 C332 1.355 . S
C331 C333 1.415 1_565 S
C332 C331 1.355 . S
C332 C334 1.419 . S
C333 C328 1.425 . S
C333 C330 1.409 . S
C333 C331 1.415 1_545 S
C334 H324 0.930 . S
C334 C332 1.419 . S
C334 C335 1.362 . S
C335 H325 0.930 . S
C335 C328 1.409 1_565 S
C335 C334 1.362 . S
H336 C342 0.930 . S
H337 C345 0.930 . S
H338 C346 0.930 . S
H339 C347 0.930 1_455 S
H340 C350 0.930 . S
H341 C351 0.930 . S
C342 H336 0.930 . S
C342 C343 1.355 . S
C342 C344 1.415 . S
C343 C342 1.355 . S
C343 C345 1.419 . S
C344 C342 1.415 . S
C344 C349 1.425 . S
C344 C351 1.409 . S
C345 H337 0.930 . S
C345 C343 1.419 . S
C345 C346 1.362 . S
C346 H338 0.930 . S
C346 C345 1.362 . S
C346 C349 1.409 . S
C347 H339 0.930 1_655 S
C347 C348 1.355 1_655 S
C347 C349 1.415 . S
C348 C347 1.355 1_455 S
C348 C350 1.419 1_455 S
C349 C344 1.425 . S
C349 C346 1.409 . S
C349 C347 1.415 . S
C350 H340 0.930 . S
C350 C348 1.419 1_655 S
C350 C351 1.362 . S
C351 H341 0.930 . S
C351 C344 1.409 . S
C351 C350 1.362 . S
H352 C358 0.930 . S
H353 C361 0.930 . S
H354 C362 0.930 . S
H355 C363 0.930 1_545 S
H356 C366 0.930 . S
H357 C367 0.930 . S
C358 H352 0.930 . S
C358 C359 1.355 . S
C358 C360 1.415 . S
C359 C358 1.355 . S
C359 C361 1.419 . S
C360 C358 1.415 . S
C360 C365 1.425 . S
C360 C367 1.409 . S
C361 H353 0.930 . S
C361 C359 1.419 . S
C361 C362 1.362 . S
C362 H354 0.930 . S
C362 C361 1.362 . S
C362 C365 1.409 . S
C363 H355 0.930 1_565 S
C363 C364 1.355 1_565 S
C363 C365 1.415 . S
C364 C363 1.355 1_545 S
C364 C366 1.419 . S
C365 C360 1.425 . S
C365 C362 1.409 . S
C365 C363 1.415 . S
C366 H356 0.930 . S
C366 C364 1.419 . S
C366 C367 1.362 1_545 S
C367 H357 0.930 . S
C367 C360 1.409 . S
C367 C366 1.362 1_565 S
H368 C374 0.930 . S
H369 C377 0.930 . S
H370 C378 0.930 . S
H371 C379 0.930 . S
H372 C382 0.930 . S
H373 C383 0.930 . S
C374 H368 0.930 . S
C374 C375 1.355 . S
C374 C376 1.415 . S
C375 C374 1.355 . S
C375 C377 1.419 . S
C376 C374 1.415 . S
C376 C381 1.425 . S
C376 C383 1.409 . S
C377 H369 0.930 . S
C377 C375 1.419 . S
C377 C378 1.362 . S
C378 H370 0.930 . S
C378 C377 1.362 . S
C378 C381 1.409 . S
C379 H371 0.930 . S
C379 C380 1.355 . S
C379 C381 1.415 . S
C380 C379 1.355 . S
C380 C382 1.419 . S
C381 C376 1.425 . S
C381 C378 1.409 . S
C381 C379 1.415 . S
C382 H372 0.930 . S
C382 C380 1.419 . S
C382 C383 1.362 . S
C383 H373 0.930 . S
C383 C376 1.409 . S
C383 C382 1.362 . S
H384 C390 0.930 . S
H385 C393 0.930 . S
H386 C394 0.930 . S
H387 C395 0.930 . S
H388 C398 0.930 1_565 S
H389 C399 0.930 . S
C390 H384 0.930 . S
C390 C391 1.355 . S
C390 C392 1.415 . S
C391 C390 1.355 . S
C391 C393 1.419 . S
C392 C390 1.415 . S
C392 C397 1.425 . S
C392 C399 1.409 . S
C393 H385 0.930 . S
C393 C391 1.419 . S
C393 C394 1.362 . S
C394 H386 0.930 . S
C394 C393 1.362 . S
C394 C397 1.409 . S
C395 H387 0.930 . S
C395 C396 1.355 . S
C395 C397 1.415 . S
C396 C395 1.355 . S
C396 C398 1.419 . S
C397 C392 1.425 . S
C397 C394 1.409 . S
C397 C395 1.415 . S
C398 H388 0.930 1_545 S
C398 C396 1.419 . S
C398 C399 1.362 . S
C399 H389 0.930 . S
C399 C392 1.409 . S
C399 C398 1.362 . S
H400 C406 0.930 . S
H401 C409 0.930 . S
H402 C410 0.930 . S
H403 C411 0.930 . S
H404 C414 0.930 . S
H405 C415 0.930 . S
C406 H400 0.930 . S
C406 C407 1.355 . S
C406 C408 1.415 . S
C407 C406 1.355 . S
C407 C409 1.419 . S
C408 C406 1.415 . S
C408 C413 1.425 . S
C408 C415 1.409 . S
C409 H401 0.930 . S
C409 C407 1.419 . S
C409 C410 1.362 . S
C410 H402 0.930 . S
C410 C409 1.362 . S
C410 C413 1.409 . S
C411 H403 0.930 . S
C411 C412 1.355 . S
C411 C413 1.415 . S
C412 C411 1.355 . S
C412 C414 1.419 . S
C413 C408 1.425 . S
C413 C410 1.409 . S
C413 C411 1.415 . S
C414 H404 0.930 . S
C414 C412 1.419 . S
C414 C415 1.362 . S
C415 H405 0.930 . S
C415 C408 1.409 . S
C415 C414 1.362 . S
H416 C422 0.930 . S
H417 C425 0.930 . S
H418 C426 0.930 . S
H419 C427 0.930 . S
H420 C430 0.930 . S
H421 C431 0.930 . S
C422 H416 0.930 . S
C422 C423 1.355 . S
C422 C424 1.415 . S
C423 C422 1.355 . S
C423 C425 1.419 . S
C424 C422 1.415 . S
C424 C429 1.425 . S
C424 C431 1.409 . S
C425 H417 0.930 . S
C425 C423 1.419 . S
C425 C426 1.362 . S
C426 H418 0.930 . S
C426 C425 1.362 . S
C426 C429 1.409 . S
C427 H419 0.930 . S
C427 C428 1.355 . S
C427 C429 1.415 . S
C428 C427 1.355 . S
C428 C430 1.419 . S
C429 C424 1.425 . S
C429 C426 1.409 . S
C429 C427 1.415 . S
C430 H420 0.930 . S
C430 C428 1.419 . S
C430 C431 1.362 . S
C431 H421 0.930 . S
C431 C424 1.409 . S
C431 C430 1.362 . S
H432 C438 0.930 . S
H433 C441 0.930 . S
H434 C442 0.930 . S
H435 C443 0.930 . S
H436 C446 0.930 . S
H437 C447 0.930 . S
C438 H432 0.930 . S
C438 C439 1.355 . S
C438 C440 1.415 . S
C439 C438 1.355 . S
C439 C441 1.419 . S
C440 C438 1.415 . S
C440 C445 1.425 . S
C440 C447 1.409 . S
C441 H433 0.930 . S
C441 C439 1.419 . S
C441 C442 1.362 . S
C442 H434 0.930 . S
C442 C441 1.362 . S
C442 C445 1.409 . S
C443 H435 0.930 . S
C443 C444 1.355 . S
C443 C445 1.415 . S
C444 C443 1.355 . S
C444 C446 1.419 . S
C445 C440 1.425 . S
C445 C442 1.409 . S
C445 C443 1.415 . S
C446 H436 0.930 . S
C446 C444 1.419 . S
C446 C447 1.362 . S
C447 H437 0.930 . S
C447 C440 1.409 . S
C447 C446 1.362 . S
H448 C454 0.930 . S
H449 C457 0.930 . S
H450 C458 0.930 . S
H451 C459 0.930 . S
H452 C462 0.930 . S
H453 C463 0.930 . S
C454 H448 0.930 . S
C454 C455 1.355 . S
C454 C456 1.415 . S
C455 C454 1.355 . S
C455 C457 1.419 . S
C456 C454 1.415 . S
C456 C461 1.425 . S
C456 C463 1.409 . S
C457 H449 0.930 . S
C457 C455 1.419 . S
C457 C458 1.362 . S
C458 H450 0.930 . S
C458 C457 1.362 . S
C458 C461 1.409 . S
C459 H451 0.930 . S
C459 C460 1.355 . S
C459 C461 1.415 . S
C460 C459 1.355 . S
C460 C462 1.419 . S
C461 C456 1.425 . S
C461 C458 1.409 . S
C461 C459 1.415 . S
C462 H452 0.930 . S
C462 C460 1.419 . S
C462 C463 1.362 . S
C463 H453 0.930 . S
C463 C456 1.409 . S
C463 C462 1.362 . S
H464 C470 0.930 . S
H465 C473 0.930 1_455 S
H466 C474 0.930 1_455 S
H467 C475 0.930 . S
H468 C478 0.930 . S
H469 C479 0.930 . S
C470 H464 0.930 . S
C470 C471 1.355 . S
C470 C472 1.415 . S
C471 C470 1.355 . S
C471 C473 1.419 . S
C472 C470 1.415 . S
C472 C477 1.425 . S
C472 C479 1.409 . S
C473 H465 0.930 1_655 S
C473 C471 1.419 . S
C473 C474 1.362 . S
C474 H466 0.930 1_655 S
C474 C473 1.362 . S
C474 C477 1.409 . S
C475 H467 0.930 . S
C475 C476 1.355 . S
C475 C477 1.415 . S
C476 C475 1.355 . S
C476 C478 1.419 . S
C477 C472 1.425 . S
C477 C474 1.409 . S
C477 C475 1.415 . S
C478 H468 0.930 . S
C478 C476 1.419 . S
C478 C479 1.362 . S
C479 H469 0.930 . S
C479 C472 1.409 . S
C479 C478 1.362 . S
H480 C486 0.930 . S
H481 C489 0.930 . S
H482 C490 0.930 . S
H483 C491 0.930 . S
H484 C494 0.930 . S
H485 C495 0.930 . S
C486 H480 0.930 . S
C486 C487 1.355 . S
C486 C488 1.415 . S
C487 C486 1.355 . S
C487 C489 1.419 . S
C488 C486 1.415 . S
C488 C493 1.425 . S
C488 C495 1.409 . S
C489 H481 0.930 . S
C489 C487 1.419 . S
C489 C490 1.362 . S
C490 H482 0.930 . S
C490 C489 1.362 . S
C490 C493 1.409 . S
C491 H483 0.930 . S
C491 C492 1.355 . S
C491 C493 1.415 . S
C492 C491 1.355 . S
C492 C494 1.419 . S
C493 C488 1.425 . S
C493 C490 1.409 . S
C493 C491 1.415 . S
C494 H484 0.930 . S
C494 C492 1.419 . S
C494 C495 1.362 . S
C495 H485 0.930 . S
C495 C488 1.409 . S
C495 C494 1.362 . S
H496 C502 0.930 . S
H497 C505 0.930 . S
H498 C506 0.930 . S
H499 C507 0.930 . S
H500 C510 0.930 . S
H501 C511 0.930 . S
C502 H496 0.930 . S
C502 C503 1.355 . S
C502 C504 1.415 . S
C503 C502 1.355 . S
C503 C505 1.419 . S
C504 C502 1.415 . S
C504 C509 1.425 . S
C504 C511 1.409 . S
C505 H497 0.930 . S
C505 C503 1.419 . S
C505 C506 1.362 . S
C506 H498 0.930 . S
C506 C505 1.362 . S
C506 C509 1.409 . S
C507 H499 0.930 . S
C507 C508 1.355 . S
C507 C509 1.415 . S
C508 C507 1.355 . S
C508 C510 1.419 . S
C509 C504 1.425 . S
C509 C506 1.409 . S
C509 C507 1.415 . S
C510 H500 0.930 . S
C510 C508 1.419 . S
C510 C511 1.362 . S
C511 H501 0.930 . S
C511 C504 1.409 . S
C511 C510 1.362 . S
H512 C518 0.930 . S
H513 C521 0.930 . S
H514 C522 0.930 . S
H515 C523 0.930 . S
H516 C526 0.930 . S
H517 C527 0.930 . S
C518 H512 0.930 . S
C518 C519 1.355 . S
C518 C520 1.415 . S
C519 C518 1.355 . S
C519 C521 1.419 . S
C520 C518 1.415 . S
C520 C525 1.425 . S
C520 C527 1.409 . S
C521 H513 0.930 . S
C521 C519 1.419 . S
C521 C522 1.362 . S
C522 H514 0.930 . S
C522 C521 1.362 . S
C522 C525 1.409 . S
C523 H515 0.930 . S
C523 C524 1.355 . S
C523 C525 1.415 . S
C524 C523 1.355 . S
C524 C526 1.419 . S
C525 C520 1.425 . S
C525 C522 1.409 . S
C525 C523 1.415 . S
C526 H516 0.930 . S
C526 C524 1.419 . S
C526 C527 1.362 . S
C527 H517 0.930 . S
C527 C520 1.409 . S
C527 C526 1.362 . S
C247 C138 1.001 1_455 S
C252 C18 1.038 . S
C263 C178 0.959 1_545 S
C268 C58 0.930 . S
C279 C218 1.019 . S
C284 C98 0.982 . S
C295 C5 0.989 . S
C300 C95 1.039 . S
C311 C45 0.892 . S
C316 C135 1.005 . S
C327 C85 0.938 . S
C332 C175 1.031 . S
C343 C125 0.827 . S
C348 C215 0.854 . S
C359 C165 0.969 . S
C364 C15 1.039 . S
C375 C205 0.888 . S
C380 C55 0.854 . S
C391 C8 1.807 . S
C396 C128 1.799 1_545 S
C407 C48 1.807 . S
C412 C168 1.806 . S
C423 C88 1.773 1_455 S
C428 C208 1.755 . S
C439 C19 4.081 . S
C444 C49 4.146 . S
C455 C59 4.081 . S
C460 C89 4.139 . S
C471 C99 4.088 . S
C476 C129 4.140 . S
C487 C139 4.085 . S
C492 C169 4.148 . S
C503 C179 4.094 . S
C508 C209 4.150 . S
C519 C219 4.078 . S
C524 C9 4.140 . S
