# Generated by pormake.
# Topology umj, (4)-cn, num edge types: 1
# Building blocks:
#     Node 0, Type 0, BuildingBlock: QUQFOY_clean_sbu_1, # of connection points: 4
#     Node 1, Type 0, BuildingBlock: QUQFOY_clean_sbu_1, # of connection points: 4
#     Node 2, Type 0, BuildingBlock: QUQFOY_clean_sbu_1, # of connection points: 4
#     Node 3, Type 0, BuildingBlock: QUQFOY_clean_sbu_1, # of connection points: 4
#     Node 4, Type 0, BuildingBlock: QUQFOY_clean_sbu_1, # of connection points: 4
#     Node 5, Type 0, BuildingBlock: QUQFOY_clean_sbu_1, # of connection points: 4
#     Node 6, Type 0, BuildingBlock: QUQFOY_clean_sbu_1, # of connection points: 4
#     Node 7, Type 0, BuildingBlock: QUQFOY_clean_sbu_1, # of connection points: 4
#     Node 8, Type 0, BuildingBlock: QUQFOY_clean_sbu_1, # of connection points: 4
#     Node 9, Type 0, BuildingBlock: QUQFOY_clean_sbu_1, # of connection points: 4
#     Node 10, Type 0, BuildingBlock: QUQFOY_clean_sbu_1, # of connection points: 4
#     Node 11, Type 0, BuildingBlock: QUQFOY_clean_sbu_1, # of connection points: 4
#     Edge 12, Type (0, 0), BuildingBlock: XIVTED_clean_linker_0, # of connection points: 2
#     Edge 13, Type (0, 0), BuildingBlock: XIVTED_clean_linker_0, # of connection points: 2
#     Edge 14, Type (0, 0), BuildingBlock: XIVTED_clean_linker_0, # of connection points: 2
#     Edge 15, Type (0, 0), BuildingBlock: XIVTED_clean_linker_0, # of connection points: 2
#     Edge 16, Type (0, 0), BuildingBlock: XIVTED_clean_linker_0, # of connection points: 2
#     Edge 17, Type (0, 0), BuildingBlock: XIVTED_clean_linker_0, # of connection points: 2
#     Edge 18, Type (0, 0), BuildingBlock: XIVTED_clean_linker_0, # of connection points: 2
#     Edge 19, Type (0, 0), BuildingBlock: XIVTED_clean_linker_0, # of connection points: 2
#     Edge 20, Type (0, 0), BuildingBlock: XIVTED_clean_linker_0, # of connection points: 2
#     Edge 21, Type (0, 0), BuildingBlock: XIVTED_clean_linker_0, # of connection points: 2
#     Edge 22, Type (0, 0), BuildingBlock: XIVTED_clean_linker_0, # of connection points: 2
#     Edge 23, Type (0, 0), BuildingBlock: XIVTED_clean_linker_0, # of connection points: 2
#     Edge 24, Type (0, 0), BuildingBlock: XIVTED_clean_linker_0, # of connection points: 2
#     Edge 25, Type (0, 0), BuildingBlock: XIVTED_clean_linker_0, # of connection points: 2
#     Edge 26, Type (0, 0), BuildingBlock: XIVTED_clean_linker_0, # of connection points: 2
#     Edge 27, Type (0, 0), BuildingBlock: XIVTED_clean_linker_0, # of connection points: 2
#     Edge 28, Type (0, 0), BuildingBlock: XIVTED_clean_linker_0, # of connection points: 2
#     Edge 29, Type (0, 0), BuildingBlock: XIVTED_clean_linker_0, # of connection points: 2
#     Edge 30, Type (0, 0), BuildingBlock: XIVTED_clean_linker_0, # of connection points: 2
#     Edge 31, Type (0, 0), BuildingBlock: XIVTED_clean_linker_0, # of connection points: 2
#     Edge 32, Type (0, 0), BuildingBlock: XIVTED_clean_linker_0, # of connection points: 2
#     Edge 33, Type (0, 0), BuildingBlock: XIVTED_clean_linker_0, # of connection points: 2
#     Edge 34, Type (0, 0), BuildingBlock: XIVTED_clean_linker_0, # of connection points: 2
#     Edge 35, Type (0, 0), BuildingBlock: XIVTED_clean_linker_0, # of connection points: 2
# Relax obj value: 0.079
# Max RMSD: 0.257
# Mean RMSD: 0.257
data_MOF--net-umj--node1-QUQFOY_clean_sbu_1--edge1-XIVTED_clean_linker_0
_symmetry_space_group_name_H-M    P1
_symmetry_Int_Tables_number       1
_symmetry_cell_setting            triclinic
loop_
_symmetry_equiv_pos_as_xyz
'x, y, z'
_cell_length_a     29.773984
_cell_length_b     29.752612
_cell_length_c     84.686785
_cell_angle_alpha  90.003174
_cell_angle_beta   89.9711
_cell_angle_gamma 119.98135
loop_
_atom_site_label
_atom_site_type_symbol
_atom_site_fract_x
_atom_site_fract_y
_atom_site_fract_z
_atom_type_partial_charge
O0 O 0.99164 0.25607 0.11685 0.0
Cd1 Cd 0.99466 0.26194 0.09309 0.0
Cd2 Cd 0.09336 0.29048 0.09554 0.0
O3 O 0.07624 0.31021 0.11806 0.0
O4 O 0.95136 0.29117 0.08368 0.0
O5 O 0.03482 0.33818 0.08905 0.0
C6 C 0.9933 0.33606 0.08388 0.0
C7 C 0.1361 0.33785 0.07269 0.0
C8 C 0.03183 0.28564 0.12486 0.0
C9 C 0.03087 0.18567 0.08498 0.0
O10 O 0.07083 0.21469 0.09313 0.0
O11 O 0.99845 0.20056 0.08147 0.0
O12 O 0.16271 0.3375 0.08474 0.0
O13 O 0.0865 0.31316 0.07392 0.0
O14 O 0.74545 0.98782 0.45005 0.0
Cd15 Cd 0.74413 0.99391 0.42639 0.0
Cd16 Cd 0.81323 0.09139 0.42931 0.0
O17 O 0.77494 0.07221 0.45167 0.0
O18 O 0.67246 0.95288 0.41629 0.0
O19 O 0.70855 0.0352 0.42323 0.0
C20 C 0.66965 0.99483 0.4173 0.0
C21 C 0.80672 0.13178 0.40614 0.0
C22 C 0.75517 0.02742 0.45825 0.0
C23 C 0.85749 0.03156 0.41871 0.0
O24 O 0.86787 0.0708 0.42718 0.0
O25 O 0.8104 0.99943 0.4149 0.0
O26 O 0.83225 0.15956 0.4182 0.0
O27 O 0.7845 0.08224 0.40745 0.0
O28 O 0.76292 0.7452 0.78375 0.0
Cd29 Cd 0.75581 0.74302 0.76008 0.0
Cd30 Cd 0.72693 0.81197 0.76265 0.0
O31 O 0.70768 0.77429 0.7851 0.0
O32 O 0.72612 0.67104 0.75023 0.0
O33 O 0.67904 0.70655 0.75678 0.0
C34 C 0.6811 0.66766 0.75107 0.0
C35 C 0.67992 0.80455 0.73944 0.0
C36 C 0.7328 0.75491 0.79183 0.0
C37 C 0.8312 0.85619 0.75213 0.0
O38 O 0.80214 0.86668 0.76046 0.0
O39 O 0.81644 0.809 0.74847 0.0
O40 O 0.6779 0.83075 0.75136 0.0
O41 O 0.70709 0.78224 0.74091 0.0
O42 O 0.02029 0.76164 0.11682 0.0
Cd43 Cd 0.01253 0.75333 0.09324 0.0
Cd44 Cd 0.91529 0.72384 0.0965 0.0
O45 O 0.93628 0.70578 0.11876 0.0
O46 O 0.05278 0.72239 0.08274 0.0
O47 O 0.97143 0.67611 0.09059 0.0
C48 C 0.01125 0.67753 0.08422 0.0
C49 C 0.87626 0.67663 0.07324 0.0
C50 C 0.98126 0.73142 0.12517 0.0
C51 C 0.97258 0.82768 0.08583 0.0
O52 O 0.93383 0.79849 0.09442 0.0
O53 O 1.00514 0.81335 0.08188 0.0
O54 O 0.84795 0.67297 0.08533 0.0
O55 O 0.92559 0.70565 0.07454 0.0
O56 O 0.27099 0.02089 0.45018 0.0
Cd57 Cd 0.2732 0.01597 0.42651 0.0
Cd58 Cd 0.20411 0.91825 0.42897 0.0
O59 O 0.2415 0.93643 0.45145 0.0
O60 O 0.34516 0.05753 0.4166 0.0
O61 O 0.30898 0.97493 0.42323 0.0
C62 C 0.348 0.01557 0.41745 0.0
C63 C 0.21152 0.87877 0.40571 0.0
C64 C 0.26096 0.98089 0.45823 0.0
C65 C 0.16009 0.97852 0.41854 0.0
O66 O 0.14947 0.93883 0.42682 0.0
O67 O 0.20731 0.01093 0.41492 0.0
O68 O 0.18544 0.85051 0.41764 0.0
O69 O 0.23372 0.92825 0.40719 0.0
O70 O 0.25601 0.26918 0.7837 0.0
Cd71 Cd 0.263 0.27139 0.76001 0.0
Cd72 Cd 0.29128 0.20184 0.76265 0.0
O73 O 0.31067 0.23937 0.7851 0.0
O74 O 0.29269 0.34349 0.75024 0.0
O75 O 0.3397 0.30772 0.75658 0.0
C76 C 0.33767 0.34675 0.75098 0.0
C77 C 0.33823 0.20851 0.73949 0.0
C78 C 0.2858 0.2591 0.7918 0.0
C79 C 0.18706 0.15845 0.75208 0.0
O80 O 0.21589 0.14771 0.76042 0.0
O81 O 0.20211 0.2057 0.74841 0.0
O82 O 0.33965 0.18203 0.75142 0.0
O83 O 0.31178 0.23158 0.74094 0.0
O84 O 0.76068 0.02005 0.58393 0.0
Cd85 Cd 0.75356 0.01506 0.60761 0.0
Cd86 Cd 0.72539 0.91724 0.60486 0.0
O87 O 0.70607 0.93559 0.58244 0.0
O88 O 0.72392 0.0575 0.61738 0.0
O89 O 0.67685 0.97475 0.61102 0.0
C90 C 0.67891 0.01582 0.61662 0.0
C91 C 0.6783 0.87669 0.62798 0.0
C92 C 0.73094 0.98026 0.57579 0.0
C93 C 0.82957 0.97814 0.6155 0.0
O94 O 0.80082 0.93865 0.60712 0.0
O95 O 0.81445 0.01025 0.61922 0.0
O96 O 0.67706 0.84892 0.61603 0.0
O97 O 0.70467 0.92624 0.62656 0.0
O98 O 0.7482 0.75714 0.91726 0.0
Cd99 Cd 0.74616 0.74985 0.94093 0.0
Cd100 Cd 0.81552 0.72157 0.93827 0.0
O101 O 0.7779 0.70237 0.91583 0.0
O102 O 0.67422 0.71938 0.95085 0.0
O103 O 0.71042 0.67302 0.94419 0.0
C104 C 0.67138 0.67459 0.94998 0.0
C105 C 0.80864 0.67452 0.96144 0.0
C106 C 0.75826 0.72733 0.90914 0.0
C107 C 0.85918 0.82574 0.94885 0.0
O108 O 0.86989 0.79691 0.94048 0.0
O109 O 0.81196 0.81069 0.95253 0.0
O110 O 0.83472 0.67268 0.94946 0.0
O111 O 0.7861 0.7015 0.96005 0.0
O112 O 0.99347 0.74297 0.25078 0.0
Cd113 Cd 0.99902 0.74102 0.27445 0.0
Cd114 Cd 0.09679 0.81086 0.27143 0.0
O115 O 0.07792 0.7732 0.24901 0.0
O116 O 0.95676 0.66907 0.2843 0.0
O117 O 0.03932 0.70455 0.27776 0.0
C118 C 0.99838 0.66566 0.28346 0.0
C119 C 0.13813 0.80454 0.29437 0.0
C120 C 0.03305 0.75319 0.2425 0.0
C121 C 0.03587 0.85395 0.28235 0.0
O122 O 0.07519 0.86473 0.27387 0.0
O123 O 1.00393 0.80671 0.2861 0.0
O124 O 0.16549 0.83114 0.28237 0.0
O125 O 0.08858 0.78118 0.2931 0.0
O126 O 0.25507 0.99181 0.58365 0.0
Cd127 Cd 0.26169 0.9959 0.60736 0.0
Cd128 Cd 0.29033 0.09398 0.60491 0.0
O129 O 0.31001 0.07626 0.58243 0.0
O130 O 0.29097 0.95297 0.617 0.0
O131 O 0.33828 0.03594 0.61093 0.0
C132 C 0.33602 0.99464 0.6164 0.0
C133 C 0.33737 0.13428 0.62804 0.0
C134 C 0.28512 0.03185 0.57564 0.0
C135 C 0.18589 0.03292 0.61541 0.0
O136 O 0.21488 0.07266 0.60715 0.0
O137 O 0.2008 1.00056 0.61901 0.0
O138 O 0.33862 0.16217 0.61613 0.0
O139 O 0.31102 0.08474 0.62658 0.0
O140 O 0.27208 0.25106 0.91755 0.0
Cd141 Cd 0.27385 0.25797 0.94125 0.0
Cd142 Cd 0.20434 0.28636 0.93843 0.0
O143 O 0.2423 0.30574 0.91604 0.0
O144 O 0.3458 0.28799 0.9511 0.0
O145 O 0.30964 0.33462 0.94473 0.0
C146 C 0.34871 0.33284 0.95038 0.0
C147 C 0.21016 0.33373 0.96142 0.0
C148 C 0.26214 0.28088 0.90941 0.0
C149 C 0.16086 0.18202 0.94907 0.0
O150 O 0.15025 0.21087 0.94068 0.0
O151 O 0.20802 0.19706 0.9528 0.0
O152 O 0.18415 0.33494 0.94933 0.0
O153 O 0.23326 0.30722 0.96021 0.0
O154 O 0.02144 0.26563 0.25029 0.0
Cd155 Cd 0.01764 0.26807 0.27403 0.0
Cd156 Cd 0.91938 0.19857 0.27149 0.0
O157 O 0.93708 0.23632 0.24909 0.0
O158 O 0.06092 0.34026 0.28363 0.0
O159 O 0.9778 0.30467 0.27785 0.0
C160 C 0.01927 0.3437 0.28322 0.0
C161 C 0.87799 0.20426 0.29452 0.0
C162 C 0.98147 0.25587 0.24229 0.0
C163 C 0.98078 0.15537 0.28203 0.0
O164 O 0.94118 0.14468 0.27372 0.0
O165 O 0.01303 0.2026 0.28567 0.0
O166 O 0.85069 0.17768 0.28252 0.0
O167 O 0.92755 0.22806 0.29318 0.0
H168 H 0.90552 0.22972 0.2197 0.0
H169 H 0.10814 0.33201 0.14754 0.0
H170 H 0.07168 0.30639 0.22549 0.0
H171 H 0.94185 0.24734 0.1417 0.0
H172 H 0.09575 0.33044 0.17621 0.0
H173 H 0.91811 0.24304 0.1911 0.0
C174 C 0.94458 0.24966 0.215 0.0
C175 C 0.9875 0.26653 0.22505 0.0
C176 C 0.06199 0.31248 0.16863 0.0
C177 C 1.00229 0.28185 0.19232 0.0
C178 C 0.0691 0.31352 0.15225 0.0
C179 C 0.02606 0.28943 0.14216 0.0
C180 C 0.01149 0.28725 0.17497 0.0
C181 C 0.9763 0.26605 0.14898 0.0
C182 C 0.9518 0.25719 0.19866 0.0
C183 C 0.0373 0.29224 0.21824 0.0
N184 N 0.97043 0.26533 0.1649 0.0
N185 N 0.04327 0.29886 0.20236 0.0
H186 H 0.70282 0.93631 0.47455 0.0
H187 H 0.76828 0.0711 0.55945 0.0
H188 H 0.78294 0.1023 0.48133 0.0
H189 H 0.68524 0.90506 0.55272 0.0
H190 H 0.76858 0.08295 0.531 0.0
H191 H 0.69082 0.92425 0.50298 0.0
C192 C 0.71772 0.97037 0.482 0.0
C193 C 0.74438 0.02054 0.47548 0.0
C194 C 0.75 0.04389 0.53571 0.0
C195 C 0.73074 0.00671 0.50826 0.0
C196 C 0.7498 0.03697 0.552 0.0
C197 C 0.72703 0.98687 0.55855 0.0
C198 C 0.72749 1.00046 0.52575 0.0
C199 C 0.70336 0.94435 0.54823 0.0
C200 C 0.71076 0.96333 0.49829 0.0
C201 C 0.76232 0.06296 0.4858 0.0
N202 N 0.70456 0.95212 0.53234 0.0
N203 N 0.7555 0.05508 0.50168 0.0
H204 H 0.68441 0.78218 0.81462 0.0
H205 H 0.78607 0.67951 0.88631 0.0
H206 H 0.7722 0.70378 0.80844 0.0
H207 H 0.70716 0.7668 0.89254 0.0
H208 H 0.77391 0.68049 0.8577 0.0
H209 H 0.68485 0.76949 0.84323 0.0
C210 C 0.70338 0.76197 0.81924 0.0
C211 C 0.72864 0.74445 0.80908 0.0
C212 C 0.75901 0.69917 0.86536 0.0
C213 C 0.72947 0.72988 0.84181 0.0
C214 C 0.76585 0.69847 0.88171 0.0
C215 C 0.74804 0.72344 0.89188 0.0
C216 C 0.73408 0.72491 0.85914 0.0
C217 C 0.72203 0.7474 0.88519 0.0
C218 C 0.70375 0.75482 0.83558 0.0
C219 C 0.75259 0.71843 0.81578 0.0
N220 N 0.71609 0.74774 0.86929 0.0
N221 N 0.75261 0.71219 0.83167 0.0
H222 H 0.07311 0.77193 0.1411 0.0
H223 H 0.94187 0.69845 0.22648 0.0
H224 H 0.90764 0.68277 0.1485 0.0
H225 H 0.10749 0.7842 0.21913 0.0
H226 H 0.92905 0.68732 0.19806 0.0
H227 H 0.08645 0.77172 0.16945 0.0
C228 C 0.03943 0.75201 0.14867 0.0
C229 C 0.98902 0.72762 0.14234 0.0
C230 C 0.96824 0.7083 0.20262 0.0
C231 C 1.00432 0.72747 0.17503 0.0
C232 C 0.97571 0.71477 0.2189 0.0
C233 C 0.02596 0.74276 0.22526 0.0
C234 C 0.01126 0.73015 0.19249 0.0
C235 C 0.0681 0.76249 0.21478 0.0
C236 C 0.04721 0.75192 0.16491 0.0
C237 C 0.94713 0.70218 0.15281 0.0
N238 N 0.05978 0.75616 0.19891 0.0
N239 N 0.95572 0.7031 0.16864 0.0
H240 H 0.3335 0.10795 0.55296 0.0
H241 H 0.23307 0.90488 0.48093 0.0
H242 H 0.24611 0.94162 0.55887 0.0
H243 H 0.31172 0.07119 0.47498 0.0
H244 H 0.2449 0.91753 0.50957 0.0
H245 H 0.33338 0.09536 0.52433 0.0
C246 C 0.31468 0.06886 0.54828 0.0
C247 C 0.28944 0.02588 0.55837 0.0
C248 C 0.25981 0.95124 0.50196 0.0
C249 C 0.28897 0.01108 0.52562 0.0
C250 C 0.25316 0.94398 0.4856 0.0
C251 C 0.271 0.98693 0.4755 0.0
C252 C 0.28457 1.0018 0.50827 0.0
C253 C 0.29684 0.03679 0.48228 0.0
C254 C 0.31449 0.06164 0.53193 0.0
C255 C 0.2657 0.97604 0.55159 0.0
N256 N 0.30259 0.0428 0.49818 0.0
N257 N 0.26585 0.97006 0.53569 0.0
H258 H 0.2484 0.31233 0.80826 0.0
H259 H 0.31447 0.24237 0.89298 0.0
H260 H 0.33168 0.22948 0.81477 0.0
H261 H 0.23404 0.32803 0.88643 0.0
H262 H 0.32629 0.24257 0.86453 0.0
H263 H 0.24819 0.32357 0.83672 0.0
C264 C 0.26696 0.29666 0.81566 0.0
C265 C 0.28977 0.26946 0.80905 0.0
C266 C 0.30633 0.26162 0.86928 0.0
C267 C 0.2894 0.28223 0.84187 0.0
C268 C 0.29946 0.26154 0.88557 0.0
C269 C 0.27278 0.28492 0.89217 0.0
C270 C 0.28622 0.28504 0.85936 0.0
C271 C 0.25469 0.30942 0.88191 0.0
C272 C 0.2668 0.30319 0.83197 0.0
C273 C 0.31353 0.25055 0.81931 0.0
N274 N 0.26142 0.3085 0.86601 0.0
N275 N 0.31237 0.25696 0.83521 0.0
H276 H 0.23232 0.36233 0.0613 0.0
H277 H 0.14174 0.36287 0.97274 0.0
H278 H 0.09264 0.36368 0.0487 0.0
H279 H 0.27896 0.35684 0.98539 0.0
H280 H 0.13339 0.38291 1.00032 0.0
H281 H 0.26033 0.38016 0.03365 0.0
C282 C 0.2082 0.36767 0.05281 0.0
C283 C 0.15972 0.3606 0.05724 0.0
C284 C 0.16588 0.37813 0.997 0.0
C285 C 0.19093 0.38014 0.02559 0.0
C286 C 0.17077 0.367 0.98123 0.0
C287 C 0.2105 0.35725 0.97685 0.0
C288 C 0.20094 0.37938 1.0084 0.0
C289 C 0.2471 0.36309 0.98833 0.0
C290 C 0.22398 0.37751 0.03699 0.0
C291 C 0.12994 0.36789 0.04573 0.0
N292 N 0.24101 0.37299 1.0036 0.0
N293 N 0.14561 0.37645 0.03042 0.0
H294 H 0.87475 0.22891 0.39445 0.0
H295 H 0.78161 0.13416 0.30622 0.0
H296 H 0.73741 0.08499 0.38236 0.0
H297 H 0.92317 0.27408 0.31829 0.0
H298 H 0.75435 0.12555 0.33393 0.0
H299 H 0.88259 0.25603 0.36674 0.0
C300 C 0.84557 0.20361 0.38605 0.0
C301 C 0.80596 0.15431 0.39063 0.0
C302 C 0.79097 0.15868 0.33045 0.0
C303 C 0.81494 0.18454 0.35895 0.0
C304 C 0.80633 0.16372 0.31461 0.0
C305 C 0.85507 0.20433 0.31002 0.0
C306 C 0.82469 0.19449 0.34172 0.0
C307 C 0.88563 0.24157 0.32139 0.0
C308 C 0.85018 0.2189 0.37022 0.0
C309 C 0.76918 0.123 0.37927 0.0
N310 N 0.87032 0.23535 0.33673 0.0
N311 N 0.77497 0.13828 0.36393 0.0
H312 H 0.65438 0.73239 0.71635 0.0
H313 H 0.65076 0.92165 0.65106 0.0
H314 H 0.65371 0.87383 0.72697 0.0
H315 H 0.65472 0.78191 0.64044 0.0
H316 H 0.63241 0.89485 0.67863 0.0
H317 H 0.63517 0.73993 0.68881 0.0
C318 C 0.64919 0.76461 0.71293 0.0
C319 C 0.65648 0.80306 0.72391 0.0
C320 C 0.63634 0.8695 0.67026 0.0
C321 C 0.63519 0.81231 0.69227 0.0
C322 C 0.64674 0.88472 0.65449 0.0
C323 C 0.65509 0.85429 0.64349 0.0
C324 C 0.63485 0.82374 0.67517 0.0
C325 C 0.64879 0.80661 0.64854 0.0
C326 C 0.63828 0.7689 0.69717 0.0
C327 C 0.64866 0.84349 0.71887 0.0
N328 N 0.64 0.79324 0.66409 0.0
N329 N 0.63937 0.8476 0.70334 0.0
H330 H 0.77913 0.64567 0.06126 0.0
H331 H 0.87758 0.64724 0.97348 0.0
H332 H 0.92459 0.65472 0.04979 0.0
H333 H 0.7379 0.65021 0.98491 0.0
H334 H 0.88489 0.62839 1.00127 0.0
H335 H 0.75304 0.62576 0.0335 0.0
C336 C 0.80498 0.64216 0.05299 0.0
C337 C 0.8544 0.65277 0.05775 0.0
C338 C 0.85209 0.6322 0.99763 0.0
C339 C 0.82534 0.63077 0.02601 0.0
C340 C 0.84778 0.64261 0.98175 0.0
C341 C 0.80765 0.65122 0.97696 0.0
C342 C 0.816 0.63044 1.00874 0.0
C343 C 0.77007 0.64483 0.98817 0.0
C344 C 0.79029 0.63114 0.03712 0.0
C345 C 0.88646 0.64777 0.04654 0.0
N346 N 0.77556 0.6356 1.00355 0.0
N347 N 0.87172 0.6379 0.03118 0.0
H348 H 0.09428 0.73183 0.31744 0.0
H349 H 0.28333 0.92561 0.38254 0.0
H350 H 0.23281 0.87631 0.30668 0.0
H351 H 0.14259 0.78314 0.39328 0.0
H352 H 0.27568 0.89883 0.35499 0.0
H353 H 0.12156 0.74049 0.34495 0.0
C354 C 0.13106 0.76496 0.32083 0.0
C355 C 0.16099 0.80389 0.30981 0.0
C356 C 0.2469 0.87291 0.36338 0.0
C357 C 0.19208 0.81445 0.34143 0.0
C358 C 0.25125 0.88813 0.37914 0.0
C359 C 0.21301 0.85687 0.39016 0.0
C360 C 0.20364 0.82628 0.35851 0.0
C361 C 0.17275 0.8085 0.38515 0.0
C362 C 0.14655 0.7699 0.33657 0.0
C363 C 0.2085 0.84555 0.3148 0.0
N364 N 0.16859 0.79509 0.36962 0.0
N365 N 0.22213 0.85024 0.33032 0.0
H366 H 0.364 0.08868 0.65117 0.0
H367 H 0.36489 0.28067 0.71634 0.0
H368 H 0.36211 0.22944 0.64045 0.0
H369 H 0.36261 0.13784 0.72705 0.0
H370 H 0.38332 0.27227 0.68877 0.0
H371 H 0.3829 0.11569 0.67869 0.0
C372 C 0.36856 0.12586 0.65457 0.0
C373 C 0.36065 0.15654 0.64356 0.0
C374 C 0.37973 0.24317 0.69716 0.0
C375 C 0.38157 0.18737 0.67519 0.0
C376 C 0.36928 0.24796 0.71293 0.0
C377 C 0.36138 0.2094 0.72395 0.0
C378 C 0.38175 0.19915 0.69228 0.0
C379 C 0.36817 0.16829 0.71893 0.0
C380 C 0.37929 0.1412 0.67032 0.0
C381 C 0.36767 0.20453 0.64857 0.0
N382 N 0.37702 0.16374 0.70338 0.0
N383 N 0.3768 0.21805 0.6641 0.0
H384 H 0.92435 0.58388 0.0799 0.0
H385 H 0.07866 0.42905 0.07734 0.0
H386 H 0.09123 0.65837 0.0782 0.0
H387 H 0.91194 0.35465 0.08022 0.0
H388 H 0.08325 0.5125 0.07376 0.0
H389 H 0.9187 0.50002 0.07614 0.0
C390 C 0.95992 0.58265 0.07858 0.0
C391 C 0.00845 0.6282 0.0796 0.0
C392 C 0.04558 0.47797 0.075 0.0
C393 C 1.00213 0.53183 0.07536 0.0
C394 C 0.04285 0.43018 0.07705 0.0
C395 C 0.99479 0.38482 0.0793 0.0
C396 C 0.99994 0.48074 0.07528 0.0
C397 C 0.94977 0.38864 0.0786 0.0
C398 C 0.95659 0.53463 0.07642 0.0
C399 C 0.05308 0.62425 0.07757 0.0
N400 N 0.95349 0.43591 0.07685 0.0
N401 N 0.04886 0.57677 0.07575 0.0
H402 H 0.66338 0.08167 0.41207 0.0
H403 H 0.35439 0.92899 0.41183 0.0
H404 H 0.56997 0.91465 0.41223 0.0
H405 H 0.44779 0.09599 0.4127 0.0
H406 H 0.43253 0.92328 0.40807 0.0
H407 H 0.58532 0.08755 0.40839 0.0
C408 C 0.62638 0.0461 0.41117 0.0
C409 C 0.62309 0.9975 0.41269 0.0
C410 C 0.43605 0.96124 0.40891 0.0
C411 C 0.53324 1.00411 0.40856 0.0
C412 C 0.39141 0.9646 0.41107 0.0
C413 C 0.39467 0.01312 0.41281 0.0
C414 C 0.48461 0.00671 0.40859 0.0
C415 C 0.44354 0.05783 0.4115 0.0
C416 C 0.58179 0.04956 0.40906 0.0
C417 C 0.57425 0.95286 0.4112 0.0
N418 N 0.48671 0.05353 0.40966 0.0
N419 N 0.53112 0.95725 0.40942 0.0
H420 H 0.355 0.44559 0.74562 0.0
H421 H 0.66381 0.5689 0.74558 0.0
H422 H 0.43199 0.35533 0.74624 0.0
H423 H 0.58679 0.65913 0.74642 0.0
H424 H 0.57932 0.4902 0.74184 0.0
H425 H 0.43949 0.52433 0.74193 0.0
C426 C 0.38951 0.44226 0.74475 0.0
C427 C 0.38652 0.39398 0.74647 0.0
C428 C 0.58103 0.52734 0.74267 0.0
C429 C 0.48324 0.48366 0.74238 0.0
C430 C 0.6293 0.57224 0.74474 0.0
C431 C 0.63227 0.62048 0.74654 0.0
C432 C 0.53557 0.53085 0.7424 0.0
C433 C 0.58626 0.6226 0.74534 0.0
C434 C 0.43778 0.48718 0.74271 0.0
C435 C 0.43253 0.39188 0.74522 0.0
N436 N 0.53988 0.57847 0.7435 0.0
N437 N 0.47892 0.43603 0.74341 0.0
H438 H 0.35291 0.91276 0.62159 0.0
H439 H 0.66182 0.09745 0.62208 0.0
H440 H 0.43041 0.08006 0.62134 0.0
H441 H 0.58436 0.93017 0.62117 0.0
H442 H 0.57741 0.09191 0.6257 0.0
H443 H 0.43719 0.91812 0.62532 0.0
C444 C 0.38748 0.95053 0.62255 0.0
C445 C 0.3847 0.99595 0.62092 0.0
C446 C 0.579 0.05641 0.62488 0.0
C447 C 0.48119 1.00254 0.62507 0.0
C448 C 0.62722 0.05963 0.62287 0.0
C449 C 0.63007 0.01429 0.62109 0.0
C450 C 0.53344 0.0075 0.62511 0.0
C451 C 0.58394 0.96622 0.62224 0.0
C452 C 0.43563 0.95365 0.62462 0.0
C453 C 0.43079 0.04396 0.62228 0.0
N454 N 0.5376 0.96411 0.62401 0.0
N455 N 0.47706 0.04598 0.62412 0.0
H456 H 0.35564 0.42603 0.95606 0.0
H457 H 0.66468 0.58127 0.95521 0.0
H458 H 0.44844 0.35182 0.9549 0.0
H459 H 0.57183 0.65548 0.95507 0.0
H460 H 0.58644 0.49753 0.959 0.0
H461 H 0.43408 0.50974 0.95962 0.0
C462 C 0.39259 0.42727 0.95672 0.0
C463 C 0.39558 0.38187 0.95495 0.0
C464 C 0.58307 0.53207 0.95831 0.0
C465 C 0.48587 0.47808 0.95895 0.0
C466 C 0.62777 0.58002 0.95613 0.0
C467 C 0.62469 0.62544 0.95459 0.0
C468 C 0.53463 0.5292 0.95886 0.0
C469 C 0.57595 0.62146 0.95611 0.0
C470 C 0.43741 0.47521 0.95876 0.0
C471 C 0.44439 0.38583 0.95613 0.0
N472 N 0.53271 0.57404 0.95797 0.0
N473 N 0.48772 0.43323 0.95786 0.0
H474 H 0.91692 0.56712 0.28915 0.0
H475 H 0.1013 0.44245 0.28819 0.0
H476 H 0.08406 0.65671 0.28783 0.0
H477 H 0.93411 0.35288 0.28849 0.0
H478 H 0.09612 0.52152 0.29197 0.0
H479 H 0.9225 0.48824 0.29283 0.0
C480 C 0.95472 0.57029 0.28987 0.0
C481 C 1.0 0.6184 0.28795 0.0
C482 C 0.06058 0.48445 0.29139 0.0
C483 C 1.00683 0.52855 0.29202 0.0
C484 C 0.0636 0.43933 0.28929 0.0
C485 C 0.01814 0.39115 0.28779 0.0
C486 C 0.01175 0.4812 0.29198 0.0
C487 C 0.97023 0.38934 0.28932 0.0
C488 C 0.95796 0.52528 0.2919 0.0
C489 C 0.04805 0.62028 0.289 0.0
N490 N 0.9683 0.43366 0.29117 0.0
N491 N 0.05018 0.57605 0.2908 0.0
H492 H 0.10365 0.15674 0.08126 0.0
H493 H 0.89892 0.85632 0.08428 0.0
H494 H 0.93869 0.09666 0.07834 0.0
H495 H 0.0624 0.91577 0.07681 0.0
H496 H 0.91209 0.94319 0.08014 0.0
H497 H 0.08925 0.06923 0.07758 0.0
C498 C 0.06432 0.12511 0.07965 0.0
C499 C 0.0222 0.13395 0.08029 0.0
C500 C 0.94504 0.93727 0.07918 0.0
C501 C 1.0054 0.03321 0.07626 0.0
C502 C 0.93761 0.88763 0.0816 0.0
C503 C 0.97979 0.87884 0.08108 0.0
C504 C 0.99519 0.97887 0.07647 0.0
C505 C 0.02885 0.92079 0.07737 0.0
C506 C 0.05617 0.0751 0.07752 0.0
C507 C 0.97223 0.09159 0.07796 0.0
N508 N 0.03534 0.96916 0.07545 0.0
N509 N 0.96513 0.04289 0.07631 0.0
H510 H 0.8539 0.94054 0.41007 0.0
H511 H 0.1639 0.06998 0.41034 0.0
H512 H 0.95999 0.10409 0.41676 0.0
H513 H 0.05767 0.90606 0.41622 0.0
H514 H 0.08951 0.08315 0.40646 0.0
H515 H 0.92839 0.92755 0.40609 0.0
C516 C 0.89274 0.97378 0.41043 0.0
C517 C 0.90076 0.02331 0.41397 0.0
C518 C 0.08262 0.04423 0.40841 0.0
C519 C 0.98595 0.00887 0.40944 0.0
C520 C 0.12506 0.03671 0.41055 0.0
C521 C 0.11696 0.98699 0.41383 0.0
C522 C 0.03187 1.00165 0.40941 0.0
C523 C 0.06572 0.94522 0.41396 0.0
C524 C 0.93523 0.96636 0.40824 0.0
C525 C 0.952 0.06506 0.41431 0.0
N526 N 0.0252 0.95352 0.41191 0.0
N527 N 0.99257 0.05686 0.41219 0.0
H528 H 0.09964 0.16255 0.74386 0.0
H529 H 0.91856 0.85241 0.7436 0.0
H530 H 0.15682 0.0559 0.74977 0.0
H531 H 0.86138 0.95884 0.75015 0.0
H532 H 1.00606 0.92681 0.73967 0.0
H533 H 0.01203 0.08827 0.73998 0.0
C534 C 0.09395 0.12364 0.74407 0.0
C535 C 0.13543 0.11539 0.74736 0.0
C536 C 0.97416 0.93375 0.74178 0.0
C537 C 0.03563 0.03042 0.74294 0.0
C538 C 0.92423 0.8913 0.74394 0.0
C539 C 0.88277 0.89943 0.74742 0.0
C540 C 0.98248 0.98455 0.74295 0.0
C541 C 0.89236 0.95075 0.74773 0.0
C542 C 0.04396 0.08126 0.74193 0.0
C543 C 0.12581 0.06406 0.74751 0.0
N544 N 0.94116 0.99128 0.74565 0.0
N545 N 0.07697 0.0236 0.74545 0.0
H546 H 0.9168 0.06963 0.62388 0.0
H547 H 0.09861 0.94139 0.62375 0.0
H548 H 0.86008 0.90599 0.61764 0.0
H549 H 0.15538 0.10508 0.61759 0.0
H550 H 0.01096 0.9279 0.62768 0.0
H551 H 1.00448 0.08313 0.62775 0.0
C552 C 0.92261 0.03649 0.62359 0.0
C553 C 0.88123 0.98677 0.62022 0.0
C554 C 0.0428 0.96684 0.62566 0.0
C555 C 0.98112 1.0018 0.62462 0.0
C556 C 0.09282 0.97455 0.62349 0.0
C557 C 0.13421 0.02429 0.62012 0.0
C558 C 0.03434 0.00926 0.6246 0.0
C559 C 0.12445 0.06591 0.61992 0.0
C560 C 0.97263 0.0442 0.62572 0.0
C561 C 0.891 0.94515 0.61998 0.0
N562 N 0.07558 0.05743 0.622 0.0
N563 N 0.93987 0.95364 0.62203 0.0
H564 H 0.85503 0.91302 0.95731 0.0
H565 H 0.16491 0.09464 0.95747 0.0
H566 H 0.96174 0.85612 0.95101 0.0
H567 H 0.05828 0.15163 0.95118 0.0
H568 H 0.09068 0.00695 0.96134 0.0
H569 H 0.92921 1.00066 0.9613 0.0
C570 C 0.89393 0.91878 0.95704 0.0
C571 C 0.90223 0.87737 0.95361 0.0
C572 C 0.08367 0.03885 0.9593 0.0
C573 C 0.98708 0.97721 0.95814 0.0
C574 C 0.12601 0.08889 0.95717 0.0
C575 C 0.11776 0.13034 0.95378 0.0
C576 C 0.03285 0.03044 0.95818 0.0
C577 C 0.06645 0.12065 0.95352 0.0
C578 C 0.93625 0.96878 0.95923 0.0
C579 C 0.95354 0.88707 0.95338 0.0
N580 N 0.02602 0.07176 0.95557 0.0
N581 N 0.99394 0.93593 0.9555 0.0
H582 H 0.94433 0.84959 0.2907 0.0
H583 H 0.07208 0.15961 0.29059 0.0
H584 H 0.10789 0.95655 0.2846 0.0
H585 H 0.90873 0.05265 0.28408 0.0
H586 H 0.08559 0.08546 0.29464 0.0
H587 H 0.93067 0.92375 0.29455 0.0
C588 C 0.97742 0.88855 0.29045 0.0
C589 C 0.02717 0.89693 0.28711 0.0
C590 C 0.04672 0.07836 0.29251 0.0
C591 C 0.01196 0.98174 0.29148 0.0
C592 C 0.039 0.12066 0.29027 0.0
C593 C 0.98936 0.11229 0.28677 0.0
C594 C 1.00441 0.02748 0.29139 0.0
C595 C 0.94783 0.06091 0.2865 0.0
C596 C 0.96962 0.93085 0.29256 0.0
C597 C 0.06872 0.9483 0.28691 0.0
N598 N 0.95632 0.02053 0.28866 0.0
N599 N 0.06015 0.98868 0.28894 0.0
loop_
_geom_bond_atom_site_label_1
_geom_bond_atom_site_label_2
_geom_bond_distance
_geom_bond_site_symmetry_2
_ccdc_geom_bond_type
O0 Cd1 2.223 1_455 S
O0 C8 1.315 . S
Cd1 O0 2.223 1_655 S
Cd1 O4 2.297 . S
Cd1 O5 2.439 1_655 S
Cd1 O11 2.240 1_655 S
Cd2 O3 2.240 . S
Cd2 O10 2.223 . S
Cd2 O12 2.297 . S
Cd2 O13 2.439 . S
O3 Cd2 2.240 . S
O3 C8 1.279 . S
O4 Cd1 2.297 . S
O4 C6 1.247 1_655 S
O5 Cd1 2.439 1_455 S
O5 C6 1.208 . S
C6 O4 1.247 1_455 S
C6 O5 1.208 . S
C7 O12 1.247 . S
C7 O13 1.208 . S
C8 O0 1.315 . S
C8 O3 1.279 . S
C9 O10 1.315 . S
C9 O11 1.279 . S
O10 Cd2 2.223 . S
O10 C9 1.315 . S
O11 Cd1 2.240 1_455 S
O11 C9 1.279 . S
O12 Cd2 2.297 . S
O12 C7 1.247 . S
O13 Cd2 2.439 . S
O13 C7 1.208 . S
O14 Cd15 2.223 1_545 S
O14 C22 1.315 . S
Cd15 O14 2.223 1_565 S
Cd15 O18 2.297 . S
Cd15 O19 2.439 1_565 S
Cd15 O25 2.240 1_565 S
Cd16 O17 2.240 . S
Cd16 O24 2.223 . S
Cd16 O26 2.297 . S
Cd16 O27 2.439 . S
O17 Cd16 2.240 . S
O17 C22 1.279 . S
O18 Cd15 2.297 . S
O18 C20 1.247 1_565 S
O19 Cd15 2.439 1_545 S
O19 C20 1.208 . S
C20 O18 1.247 1_545 S
C20 O19 1.208 . S
C21 O26 1.247 . S
C21 O27 1.208 . S
C22 O14 1.315 . S
C22 O17 1.279 . S
C23 O24 1.315 . S
C23 O25 1.279 . S
O24 Cd16 2.223 . S
O24 C23 1.315 . S
O25 Cd15 2.240 1_545 S
O25 C23 1.279 . S
O26 Cd16 2.297 . S
O26 C21 1.247 . S
O27 Cd16 2.439 . S
O27 C21 1.208 . S
O28 Cd29 2.223 . S
O28 C36 1.315 . S
Cd29 O28 2.223 . S
Cd29 O32 2.297 . S
Cd29 O33 2.439 . S
Cd29 O39 2.240 . S
Cd30 O31 2.240 . S
Cd30 O38 2.223 . S
Cd30 O40 2.297 . S
Cd30 O41 2.439 . S
O31 Cd30 2.240 . S
O31 C36 1.279 . S
O32 Cd29 2.297 . S
O32 C34 1.247 . S
O33 Cd29 2.439 . S
O33 C34 1.208 . S
C34 O32 1.247 . S
C34 O33 1.208 . S
C35 O40 1.247 . S
C35 O41 1.208 . S
C36 O28 1.315 . S
C36 O31 1.279 . S
C37 O38 1.315 . S
C37 O39 1.279 . S
O38 Cd30 2.223 . S
O38 C37 1.315 . S
O39 Cd29 2.240 . S
O39 C37 1.279 . S
O40 Cd30 2.297 . S
O40 C35 1.247 . S
O41 Cd30 2.439 . S
O41 C35 1.208 . S
O42 Cd43 2.223 1_655 S
O42 C50 1.315 . S
Cd43 O42 2.223 1_455 S
Cd43 O46 2.297 . S
Cd43 O47 2.439 1_455 S
Cd43 O53 2.240 1_455 S
Cd44 O45 2.240 . S
Cd44 O52 2.223 . S
Cd44 O54 2.297 . S
Cd44 O55 2.439 . S
O45 Cd44 2.240 . S
O45 C50 1.279 . S
O46 Cd43 2.297 . S
O46 C48 1.247 1_455 S
O47 Cd43 2.439 1_655 S
O47 C48 1.208 . S
C48 O46 1.247 1_655 S
C48 O47 1.208 . S
C49 O54 1.247 . S
C49 O55 1.208 . S
C50 O42 1.315 . S
C50 O45 1.279 . S
C51 O52 1.315 . S
C51 O53 1.279 . S
O52 Cd44 2.223 . S
O52 C51 1.315 . S
O53 Cd43 2.240 1_655 S
O53 C51 1.279 . S
O54 Cd44 2.297 . S
O54 C49 1.247 . S
O55 Cd44 2.439 . S
O55 C49 1.208 . S
O56 Cd57 2.223 1_565 S
O56 C64 1.315 . S
Cd57 O56 2.223 1_545 S
Cd57 O60 2.297 . S
Cd57 O61 2.439 1_545 S
Cd57 O67 2.240 1_545 S
Cd58 O59 2.240 . S
Cd58 O66 2.223 . S
Cd58 O68 2.297 . S
Cd58 O69 2.439 . S
O59 Cd58 2.240 . S
O59 C64 1.279 . S
O60 Cd57 2.297 . S
O60 C62 1.247 1_545 S
O61 Cd57 2.439 1_565 S
O61 C62 1.208 . S
C62 O60 1.247 1_565 S
C62 O61 1.208 . S
C63 O68 1.247 . S
C63 O69 1.208 . S
C64 O56 1.315 . S
C64 O59 1.279 . S
C65 O66 1.315 . S
C65 O67 1.279 . S
O66 Cd58 2.223 . S
O66 C65 1.315 . S
O67 Cd57 2.240 1_565 S
O67 C65 1.279 . S
O68 Cd58 2.297 . S
O68 C63 1.247 . S
O69 Cd58 2.439 . S
O69 C63 1.208 . S
O70 Cd71 2.223 . S
O70 C78 1.315 . S
Cd71 O70 2.223 . S
Cd71 O74 2.297 . S
Cd71 O75 2.439 . S
Cd71 O81 2.240 . S
Cd72 O73 2.240 . S
Cd72 O80 2.223 . S
Cd72 O82 2.297 . S
Cd72 O83 2.439 . S
O73 Cd72 2.240 . S
O73 C78 1.279 . S
O74 Cd71 2.297 . S
O74 C76 1.247 . S
O75 Cd71 2.439 . S
O75 C76 1.208 . S
C76 O74 1.247 . S
C76 O75 1.208 . S
C77 O82 1.247 . S
C77 O83 1.208 . S
C78 O70 1.315 . S
C78 O73 1.279 . S
C79 O80 1.315 . S
C79 O81 1.279 . S
O80 Cd72 2.223 . S
O80 C79 1.315 . S
O81 Cd71 2.240 . S
O81 C79 1.279 . S
O82 Cd72 2.297 . S
O82 C77 1.247 . S
O83 Cd72 2.439 . S
O83 C77 1.208 . S
O84 Cd85 2.223 1_565 S
O84 C92 1.315 . S
Cd85 O84 2.223 1_545 S
Cd85 O88 2.297 . S
Cd85 O89 2.439 1_545 S
Cd85 O95 2.240 1_545 S
Cd86 O87 2.240 . S
Cd86 O94 2.223 . S
Cd86 O96 2.297 . S
Cd86 O97 2.439 . S
O87 Cd86 2.240 . S
O87 C92 1.279 . S
O88 Cd85 2.297 . S
O88 C90 1.247 1_545 S
O89 Cd85 2.439 1_565 S
O89 C90 1.208 . S
C90 O88 1.247 1_565 S
C90 O89 1.208 . S
C91 O96 1.247 . S
C91 O97 1.208 . S
C92 O84 1.315 . S
C92 O87 1.279 . S
C93 O94 1.315 . S
C93 O95 1.279 . S
O94 Cd86 2.223 . S
O94 C93 1.315 . S
O95 Cd85 2.240 1_565 S
O95 C93 1.279 . S
O96 Cd86 2.297 . S
O96 C91 1.247 . S
O97 Cd86 2.439 . S
O97 C91 1.208 . S
O98 Cd99 2.223 . S
O98 C106 1.315 . S
Cd99 O98 2.223 . S
Cd99 O102 2.297 . S
Cd99 O103 2.439 . S
Cd99 O109 2.240 . S
Cd100 O101 2.240 . S
Cd100 O108 2.223 . S
Cd100 O110 2.297 . S
Cd100 O111 2.439 . S
O101 Cd100 2.240 . S
O101 C106 1.279 . S
O102 Cd99 2.297 . S
O102 C104 1.247 . S
O103 Cd99 2.439 . S
O103 C104 1.208 . S
C104 O102 1.247 . S
C104 O103 1.208 . S
C105 O110 1.247 . S
C105 O111 1.208 . S
C106 O98 1.315 . S
C106 O101 1.279 . S
C107 O108 1.315 . S
C107 O109 1.279 . S
O108 Cd100 2.223 . S
O108 C107 1.315 . S
O109 Cd99 2.240 . S
O109 C107 1.279 . S
O110 Cd100 2.297 . S
O110 C105 1.247 . S
O111 Cd100 2.439 . S
O111 C105 1.208 . S
O112 Cd113 2.223 1_455 S
O112 C120 1.315 . S
Cd113 O112 2.223 1_655 S
Cd113 O116 2.297 . S
Cd113 O117 2.439 1_655 S
Cd113 O123 2.240 1_655 S
Cd114 O115 2.240 . S
Cd114 O122 2.223 . S
Cd114 O124 2.297 . S
Cd114 O125 2.439 . S
O115 Cd114 2.240 . S
O115 C120 1.279 . S
O116 Cd113 2.297 . S
O116 C118 1.247 1_655 S
O117 Cd113 2.439 1_455 S
O117 C118 1.208 . S
C118 O116 1.247 1_455 S
C118 O117 1.208 . S
C119 O124 1.247 . S
C119 O125 1.208 . S
C120 O112 1.315 . S
C120 O115 1.279 . S
C121 O122 1.315 . S
C121 O123 1.279 . S
O122 Cd114 2.223 . S
O122 C121 1.315 . S
O123 Cd113 2.240 1_455 S
O123 C121 1.279 . S
O124 Cd114 2.297 . S
O124 C119 1.247 . S
O125 Cd114 2.439 . S
O125 C119 1.208 . S
O126 Cd127 2.223 1_545 S
O126 C134 1.315 . S
Cd127 O126 2.223 1_565 S
Cd127 O130 2.297 . S
Cd127 O131 2.439 1_565 S
Cd127 O137 2.240 1_565 S
Cd128 O129 2.240 . S
Cd128 O136 2.223 . S
Cd128 O138 2.297 . S
Cd128 O139 2.439 . S
O129 Cd128 2.240 . S
O129 C134 1.279 . S
O130 Cd127 2.297 . S
O130 C132 1.247 1_565 S
O131 Cd127 2.439 1_545 S
O131 C132 1.208 . S
C132 O130 1.247 1_545 S
C132 O131 1.208 . S
C133 O138 1.247 . S
C133 O139 1.208 . S
C134 O126 1.315 . S
C134 O129 1.279 . S
C135 O136 1.315 . S
C135 O137 1.279 . S
O136 Cd128 2.223 . S
O136 C135 1.315 . S
O137 Cd127 2.240 1_545 S
O137 C135 1.279 . S
O138 Cd128 2.297 . S
O138 C133 1.247 . S
O139 Cd128 2.439 . S
O139 C133 1.208 . S
O140 Cd141 2.223 . S
O140 C148 1.315 . S
Cd141 O140 2.223 . S
Cd141 O144 2.297 . S
Cd141 O145 2.439 . S
Cd141 O151 2.240 . S
Cd142 O143 2.240 . S
Cd142 O150 2.223 . S
Cd142 O152 2.297 . S
Cd142 O153 2.439 . S
O143 Cd142 2.240 . S
O143 C148 1.279 . S
O144 Cd141 2.297 . S
O144 C146 1.247 . S
O145 Cd141 2.439 . S
O145 C146 1.208 . S
C146 O144 1.247 . S
C146 O145 1.208 . S
C147 O152 1.247 . S
C147 O153 1.208 . S
C148 O140 1.315 . S
C148 O143 1.279 . S
C149 O150 1.315 . S
C149 O151 1.279 . S
O150 Cd142 2.223 . S
O150 C149 1.315 . S
O151 Cd141 2.240 . S
O151 C149 1.279 . S
O152 Cd142 2.297 . S
O152 C147 1.247 . S
O153 Cd142 2.439 . S
O153 C147 1.208 . S
O154 Cd155 2.223 1_655 S
O154 C162 1.315 . S
Cd155 O154 2.223 1_455 S
Cd155 O158 2.297 . S
Cd155 O159 2.439 1_455 S
Cd155 O165 2.240 1_455 S
Cd156 O157 2.240 . S
Cd156 O164 2.223 . S
Cd156 O166 2.297 . S
Cd156 O167 2.439 . S
O157 Cd156 2.240 . S
O157 C162 1.279 . S
O158 Cd155 2.297 . S
O158 C160 1.247 1_455 S
O159 Cd155 2.439 1_655 S
O159 C160 1.208 . S
C160 O158 1.247 1_655 S
C160 O159 1.208 . S
C161 O166 1.247 . S
C161 O167 1.208 . S
C162 O154 1.315 . S
C162 O157 1.279 . S
C163 O164 1.315 . S
C163 O165 1.279 . S
O164 Cd156 2.223 . S
O164 C163 1.315 . S
O165 Cd155 2.240 1_655 S
O165 C163 1.279 . S
O166 Cd156 2.297 . S
O166 C161 1.247 . S
O167 Cd156 2.439 . S
O167 C161 1.208 . S
H168 C174 0.930 . S
H169 C178 0.930 . S
H170 C183 0.929 . S
H171 C181 0.929 . S
H172 C176 0.929 . S
H173 C182 0.929 . S
C174 H168 0.930 . S
C174 C175 1.367 . S
C174 C182 1.378 . S
C175 C174 1.367 . S
C175 C183 1.433 . S
C176 H172 0.929 . S
C176 C178 1.378 . S
C176 C180 1.350 . S
C177 C180 1.463 1_655 S
C177 C182 1.350 . S
C177 N185 1.427 . S
C178 H169 0.930 . S
C178 C176 1.378 . S
C178 C179 1.367 . S
C179 C178 1.367 . S
C179 C181 1.433 . S
C180 C176 1.350 . S
C180 C177 1.463 1_455 S
C180 N184 1.427 . S
C181 H171 0.929 . S
C181 C179 1.433 . S
C181 N184 1.384 . S
C182 H173 0.929 . S
C182 C174 1.378 . S
C182 C177 1.350 . S
C183 H170 0.929 . S
C183 C175 1.433 . S
C183 N185 1.384 . S
N184 C180 1.427 . S
N184 C181 1.384 . S
N185 C177 1.427 . S
N185 C183 1.384 . S
H186 C192 0.930 . S
H187 C196 0.930 . S
H188 C201 0.929 . S
H189 C199 0.929 . S
H190 C194 0.929 . S
H191 C200 0.929 . S
C192 H186 0.930 . S
C192 C193 1.367 . S
C192 C200 1.378 1_545 S
C193 C192 1.367 . S
C193 C201 1.433 . S
C194 H190 0.929 . S
C194 C196 1.378 1_545 S
C194 C198 1.350 1_545 S
C195 C198 1.463 1_545 S
C195 C200 1.350 1_545 S
C195 N203 1.427 . S
C196 H187 0.930 . S
C196 C194 1.378 1_565 S
C196 C197 1.367 . S
C197 C196 1.367 . S
C197 C199 1.433 . S
C198 C194 1.350 1_565 S
C198 C195 1.463 1_565 S
C198 N202 1.427 . S
C199 H189 0.929 . S
C199 C197 1.433 . S
C199 N202 1.384 . S
C200 H191 0.929 . S
C200 C192 1.378 1_565 S
C200 C195 1.350 1_565 S
C201 H188 0.929 . S
C201 C193 1.433 . S
C201 N203 1.384 . S
N202 C198 1.427 . S
N202 C199 1.384 . S
N203 C195 1.427 . S
N203 C201 1.384 . S
H204 C210 0.930 . S
H205 C214 0.930 . S
H206 C219 0.929 . S
H207 C217 0.929 . S
H208 C212 0.929 . S
H209 C218 0.929 . S
C210 H204 0.930 . S
C210 C211 1.367 . S
C210 C218 1.378 . S
C211 C210 1.367 . S
C211 C219 1.433 . S
C212 H208 0.929 . S
C212 C214 1.378 . S
C212 C216 1.350 . S
C213 C216 1.463 . S
C213 C218 1.350 . S
C213 N221 1.427 . S
C214 H205 0.930 . S
C214 C212 1.378 . S
C214 C215 1.367 . S
C215 C214 1.367 . S
C215 C217 1.433 . S
C216 C212 1.350 . S
C216 C213 1.463 . S
C216 N220 1.427 . S
C217 H207 0.929 . S
C217 C215 1.433 . S
C217 N220 1.384 . S
C218 H209 0.929 . S
C218 C210 1.378 . S
C218 C213 1.350 . S
C219 H206 0.929 . S
C219 C211 1.433 . S
C219 N221 1.384 . S
N220 C216 1.427 . S
N220 C217 1.384 . S
N221 C213 1.427 . S
N221 C219 1.384 . S
H222 C228 0.930 . S
H223 C232 0.930 . S
H224 C237 0.929 . S
H225 C235 0.929 . S
H226 C230 0.929 . S
H227 C236 0.929 . S
C228 H222 0.930 . S
C228 C229 1.367 . S
C228 C236 1.378 1_655 S
C229 C228 1.367 . S
C229 C237 1.433 . S
C230 H226 0.929 . S
C230 C232 1.378 1_655 S
C230 C234 1.350 1_655 S
C231 C234 1.463 1_655 S
C231 C236 1.350 1_655 S
C231 N239 1.427 . S
C232 H223 0.930 . S
C232 C230 1.378 1_455 S
C232 C233 1.367 . S
C233 C232 1.367 . S
C233 C235 1.433 . S
C234 C230 1.350 1_455 S
C234 C231 1.463 1_455 S
C234 N238 1.427 . S
C235 H225 0.929 . S
C235 C233 1.433 . S
C235 N238 1.384 . S
C236 H227 0.929 . S
C236 C228 1.378 1_455 S
C236 C231 1.350 1_455 S
C237 H224 0.929 . S
C237 C229 1.433 . S
C237 N239 1.384 . S
N238 C234 1.427 . S
N238 C235 1.384 . S
N239 C231 1.427 . S
N239 C237 1.384 . S
H240 C246 0.930 . S
H241 C250 0.930 . S
H242 C255 0.929 . S
H243 C253 0.929 . S
H244 C248 0.929 . S
H245 C254 0.929 . S
C246 H240 0.930 . S
C246 C247 1.367 . S
C246 C254 1.378 . S
C247 C246 1.367 . S
C247 C255 1.433 . S
C248 H244 0.929 . S
C248 C250 1.378 . S
C248 C252 1.350 . S
C249 C252 1.463 1_545 S
C249 C254 1.350 . S
C249 N257 1.427 1_545 S
C250 H241 0.930 . S
C250 C248 1.378 . S
C250 C251 1.367 . S
C251 C250 1.367 . S
C251 C253 1.433 . S
C252 C248 1.350 . S
C252 C249 1.463 1_565 S
C252 N256 1.427 1_565 S
C253 H243 0.929 . S
C253 C251 1.433 . S
C253 N256 1.384 1_565 S
C254 H245 0.929 . S
C254 C246 1.378 . S
C254 C249 1.350 . S
C255 H242 0.929 . S
C255 C247 1.433 . S
C255 N257 1.384 1_545 S
N256 C252 1.427 1_545 S
N256 C253 1.384 1_545 S
N257 C249 1.427 1_565 S
N257 C255 1.384 1_565 S
H258 C264 0.930 . S
H259 C268 0.930 . S
H260 C273 0.929 . S
H261 C271 0.929 . S
H262 C266 0.929 . S
H263 C272 0.929 . S
C264 H258 0.930 . S
C264 C265 1.367 . S
C264 C272 1.378 . S
C265 C264 1.367 . S
C265 C273 1.433 . S
C266 H262 0.929 . S
C266 C268 1.378 . S
C266 C270 1.350 . S
C267 C270 1.463 . S
C267 C272 1.350 . S
C267 N275 1.427 . S
C268 H259 0.930 . S
C268 C266 1.378 . S
C268 C269 1.367 . S
C269 C268 1.367 . S
C269 C271 1.433 . S
C270 C266 1.350 . S
C270 C267 1.463 . S
C270 N274 1.427 . S
C271 H261 0.929 . S
C271 C269 1.433 . S
C271 N274 1.384 . S
C272 H263 0.929 . S
C272 C264 1.378 . S
C272 C267 1.350 . S
C273 H260 0.929 . S
C273 C265 1.433 . S
C273 N275 1.384 . S
N274 C270 1.427 . S
N274 C271 1.384 . S
N275 C267 1.427 . S
N275 C273 1.384 . S
H276 C282 0.930 . S
H277 C286 0.930 . S
H278 C291 0.929 . S
H279 C289 0.929 . S
H280 C284 0.929 . S
H281 C290 0.929 . S
C282 H276 0.930 . S
C282 C283 1.367 . S
C282 C290 1.378 . S
C283 C282 1.367 . S
C283 C291 1.433 . S
C284 H280 0.929 . S
C284 C286 1.378 . S
C284 C288 1.350 . S
C285 C288 1.463 1_554 S
C285 C290 1.350 . S
C285 N293 1.427 . S
C286 H277 0.930 . S
C286 C284 1.378 . S
C286 C287 1.367 . S
C287 C286 1.367 . S
C287 C289 1.433 . S
C288 C284 1.350 . S
C288 C285 1.463 1_556 S
C288 N292 1.427 . S
C289 H279 0.929 . S
C289 C287 1.433 . S
C289 N292 1.384 . S
C290 H281 0.929 . S
C290 C282 1.378 . S
C290 C285 1.350 . S
C291 H278 0.929 . S
C291 C283 1.433 . S
C291 N293 1.384 . S
N292 C288 1.427 . S
N292 C289 1.384 . S
N293 C285 1.427 . S
N293 C291 1.384 . S
H294 C300 0.930 . S
H295 C304 0.930 . S
H296 C309 0.929 . S
H297 C307 0.929 . S
H298 C302 0.929 . S
H299 C308 0.929 . S
C300 H294 0.930 . S
C300 C301 1.367 . S
C300 C308 1.378 . S
C301 C300 1.367 . S
C301 C309 1.433 . S
C302 H298 0.929 . S
C302 C304 1.378 . S
C302 C306 1.350 . S
C303 C306 1.463 . S
C303 C308 1.350 . S
C303 N311 1.427 . S
C304 H295 0.930 . S
C304 C302 1.378 . S
C304 C305 1.367 . S
C305 C304 1.367 . S
C305 C307 1.433 . S
C306 C302 1.350 . S
C306 C303 1.463 . S
C306 N310 1.427 . S
C307 H297 0.929 . S
C307 C305 1.433 . S
C307 N310 1.384 . S
C308 H299 0.929 . S
C308 C300 1.378 . S
C308 C303 1.350 . S
C309 H296 0.929 . S
C309 C301 1.433 . S
C309 N311 1.384 . S
N310 C306 1.427 . S
N310 C307 1.384 . S
N311 C303 1.427 . S
N311 C309 1.384 . S
H312 C318 0.930 . S
H313 C322 0.930 . S
H314 C327 0.929 . S
H315 C325 0.929 . S
H316 C320 0.929 . S
H317 C326 0.929 . S
C318 H312 0.930 . S
C318 C319 1.367 . S
C318 C326 1.378 . S
C319 C318 1.367 . S
C319 C327 1.433 . S
C320 H316 0.929 . S
C320 C322 1.378 . S
C320 C324 1.350 . S
C321 C324 1.463 . S
C321 C326 1.350 . S
C321 N329 1.427 . S
C322 H313 0.930 . S
C322 C320 1.378 . S
C322 C323 1.367 . S
C323 C322 1.367 . S
C323 C325 1.433 . S
C324 C320 1.350 . S
C324 C321 1.463 . S
C324 N328 1.427 . S
C325 H315 0.929 . S
C325 C323 1.433 . S
C325 N328 1.384 . S
C326 H317 0.929 . S
C326 C318 1.378 . S
C326 C321 1.350 . S
C327 H314 0.929 . S
C327 C319 1.433 . S
C327 N329 1.384 . S
N328 C324 1.427 . S
N328 C325 1.384 . S
N329 C321 1.427 . S
N329 C327 1.384 . S
H330 C336 0.930 . S
H331 C340 0.930 . S
H332 C345 0.929 . S
H333 C343 0.929 . S
H334 C338 0.929 . S
H335 C344 0.929 . S
C336 H330 0.930 . S
C336 C337 1.367 . S
C336 C344 1.378 . S
C337 C336 1.367 . S
C337 C345 1.433 . S
C338 H334 0.929 . S
C338 C340 1.378 . S
C338 C342 1.350 . S
C339 C342 1.463 1_554 S
C339 C344 1.350 . S
C339 N347 1.427 . S
C340 H331 0.930 . S
C340 C338 1.378 . S
C340 C341 1.367 . S
C341 C340 1.367 . S
C341 C343 1.433 . S
C342 C338 1.350 . S
C342 C339 1.463 1_556 S
C342 N346 1.427 . S
C343 H333 0.929 . S
C343 C341 1.433 . S
C343 N346 1.384 . S
C344 H335 0.929 . S
C344 C336 1.378 . S
C344 C339 1.350 . S
C345 H332 0.929 . S
C345 C337 1.433 . S
C345 N347 1.384 . S
N346 C342 1.427 . S
N346 C343 1.384 . S
N347 C339 1.427 . S
N347 C345 1.384 . S
H348 C354 0.930 . S
H349 C358 0.930 . S
H350 C363 0.929 . S
H351 C361 0.929 . S
H352 C356 0.929 . S
H353 C362 0.929 . S
C354 H348 0.930 . S
C354 C355 1.367 . S
C354 C362 1.378 . S
C355 C354 1.367 . S
C355 C363 1.433 . S
C356 H352 0.929 . S
C356 C358 1.378 . S
C356 C360 1.350 . S
C357 C360 1.463 . S
C357 C362 1.350 . S
C357 N365 1.427 . S
C358 H349 0.930 . S
C358 C356 1.378 . S
C358 C359 1.367 . S
C359 C358 1.367 . S
C359 C361 1.433 . S
C360 C356 1.350 . S
C360 C357 1.463 . S
C360 N364 1.427 . S
C361 H351 0.929 . S
C361 C359 1.433 . S
C361 N364 1.384 . S
C362 H353 0.929 . S
C362 C354 1.378 . S
C362 C357 1.350 . S
C363 H350 0.929 . S
C363 C355 1.433 . S
C363 N365 1.384 . S
N364 C360 1.427 . S
N364 C361 1.384 . S
N365 C357 1.427 . S
N365 C363 1.384 . S
H366 C372 0.930 . S
H367 C376 0.930 . S
H368 C381 0.929 . S
H369 C379 0.929 . S
H370 C374 0.929 . S
H371 C380 0.929 . S
C372 H366 0.930 . S
C372 C373 1.367 . S
C372 C380 1.378 . S
C373 C372 1.367 . S
C373 C381 1.433 . S
C374 H370 0.929 . S
C374 C376 1.378 . S
C374 C378 1.350 . S
C375 C378 1.463 . S
C375 C380 1.350 . S
C375 N383 1.427 . S
C376 H367 0.930 . S
C376 C374 1.378 . S
C376 C377 1.367 . S
C377 C376 1.367 . S
C377 C379 1.433 . S
C378 C374 1.350 . S
C378 C375 1.463 . S
C378 N382 1.427 . S
C379 H369 0.929 . S
C379 C377 1.433 . S
C379 N382 1.384 . S
C380 H371 0.929 . S
C380 C372 1.378 . S
C380 C375 1.350 . S
C381 H368 0.929 . S
C381 C373 1.433 . S
C381 N383 1.384 . S
N382 C378 1.427 . S
N382 C379 1.384 . S
N383 C375 1.427 . S
N383 C381 1.384 . S
H384 C390 0.930 . S
H385 C394 0.930 . S
H386 C399 0.929 . S
H387 C397 0.929 . S
H388 C392 0.929 . S
H389 C398 0.929 . S
C390 H384 0.930 . S
C390 C391 1.367 . S
C390 C398 1.378 . S
C391 C390 1.367 . S
C391 C399 1.433 1_655 S
C392 H388 0.929 . S
C392 C394 1.378 . S
C392 C396 1.350 . S
C393 C396 1.463 1_655 S
C393 C398 1.350 . S
C393 N401 1.427 1_655 S
C394 H385 0.930 . S
C394 C392 1.378 . S
C394 C395 1.367 . S
C395 C394 1.367 . S
C395 C397 1.433 1_455 S
C396 C392 1.350 . S
C396 C393 1.463 1_455 S
C396 N400 1.427 1_455 S
C397 H387 0.929 . S
C397 C395 1.433 1_655 S
C397 N400 1.384 . S
C398 H389 0.929 . S
C398 C390 1.378 . S
C398 C393 1.350 . S
C399 H386 0.929 . S
C399 C391 1.433 1_455 S
C399 N401 1.384 . S
N400 C396 1.427 1_655 S
N400 C397 1.384 . S
N401 C393 1.427 1_455 S
N401 C399 1.384 . S
H402 C408 0.930 . S
H403 C412 0.930 . S
H404 C417 0.929 . S
H405 C415 0.929 . S
H406 C410 0.929 . S
H407 C416 0.929 . S
C408 H402 0.930 . S
C408 C409 1.367 . S
C408 C416 1.378 . S
C409 C408 1.367 . S
C409 C417 1.433 1_545 S
C410 H406 0.929 . S
C410 C412 1.378 . S
C410 C414 1.350 . S
C411 C414 1.463 1_545 S
C411 C416 1.350 . S
C411 N419 1.427 1_545 S
C412 H403 0.930 . S
C412 C410 1.378 . S
C412 C413 1.367 . S
C413 C412 1.367 . S
C413 C415 1.433 1_565 S
C414 C410 1.350 . S
C414 C411 1.463 1_565 S
C414 N418 1.427 1_565 S
C415 H405 0.929 . S
C415 C413 1.433 1_545 S
C415 N418 1.384 . S
C416 H407 0.929 . S
C416 C408 1.378 . S
C416 C411 1.350 . S
C417 H404 0.929 . S
C417 C409 1.433 1_565 S
C417 N419 1.384 . S
N418 C414 1.427 1_545 S
N418 C415 1.384 . S
N419 C411 1.427 1_565 S
N419 C417 1.384 . S
H420 C426 0.930 . S
H421 C430 0.930 . S
H422 C435 0.929 . S
H423 C433 0.929 . S
H424 C428 0.929 . S
H425 C434 0.929 . S
C426 H420 0.930 . S
C426 C427 1.367 . S
C426 C434 1.378 . S
C427 C426 1.367 . S
C427 C435 1.433 . S
C428 H424 0.929 . S
C428 C430 1.378 . S
C428 C432 1.350 . S
C429 C432 1.463 . S
C429 C434 1.350 . S
C429 N437 1.427 . S
C430 H421 0.930 . S
C430 C428 1.378 . S
C430 C431 1.367 . S
C431 C430 1.367 . S
C431 C433 1.433 . S
C432 C428 1.350 . S
C432 C429 1.463 . S
C432 N436 1.427 . S
C433 H423 0.929 . S
C433 C431 1.433 . S
C433 N436 1.384 . S
C434 H425 0.929 . S
C434 C426 1.378 . S
C434 C429 1.350 . S
C435 H422 0.929 . S
C435 C427 1.433 . S
C435 N437 1.384 . S
N436 C432 1.427 . S
N436 C433 1.384 . S
N437 C429 1.427 . S
N437 C435 1.384 . S
H438 C444 0.930 . S
H439 C448 0.930 . S
H440 C453 0.929 . S
H441 C451 0.929 . S
H442 C446 0.929 . S
H443 C452 0.929 . S
C444 H438 0.930 . S
C444 C445 1.367 1_565 S
C444 C452 1.378 . S
C445 C444 1.367 1_545 S
C445 C453 1.433 . S
C446 H442 0.929 . S
C446 C448 1.378 . S
C446 C450 1.350 1_545 S
C447 C450 1.463 1_545 S
C447 C452 1.350 1_545 S
C447 N455 1.427 . S
C448 H439 0.930 . S
C448 C446 1.378 . S
C448 C449 1.367 1_545 S
C449 C448 1.367 1_565 S
C449 C451 1.433 . S
C450 C446 1.350 1_565 S
C450 C447 1.463 1_565 S
C450 N454 1.427 . S
C451 H441 0.929 . S
C451 C449 1.433 . S
C451 N454 1.384 . S
C452 H443 0.929 . S
C452 C444 1.378 . S
C452 C447 1.350 1_565 S
C453 H440 0.929 . S
C453 C445 1.433 . S
C453 N455 1.384 . S
N454 C450 1.427 . S
N454 C451 1.384 . S
N455 C447 1.427 . S
N455 C453 1.384 . S
H456 C462 0.930 . S
H457 C466 0.930 . S
H458 C471 0.929 . S
H459 C469 0.929 . S
H460 C464 0.929 . S
H461 C470 0.929 . S
C462 H456 0.930 . S
C462 C463 1.367 . S
C462 C470 1.378 . S
C463 C462 1.367 . S
C463 C471 1.433 . S
C464 H460 0.929 . S
C464 C466 1.378 . S
C464 C468 1.350 . S
C465 C468 1.463 . S
C465 C470 1.350 . S
C465 N473 1.427 . S
C466 H457 0.930 . S
C466 C464 1.378 . S
C466 C467 1.367 . S
C467 C466 1.367 . S
C467 C469 1.433 . S
C468 C464 1.350 . S
C468 C465 1.463 . S
C468 N472 1.427 . S
C469 H459 0.929 . S
C469 C467 1.433 . S
C469 N472 1.384 . S
C470 H461 0.929 . S
C470 C462 1.378 . S
C470 C465 1.350 . S
C471 H458 0.929 . S
C471 C463 1.433 . S
C471 N473 1.384 . S
N472 C468 1.427 . S
N472 C469 1.384 . S
N473 C465 1.427 . S
N473 C471 1.384 . S
H474 C480 0.930 . S
H475 C484 0.930 . S
H476 C489 0.929 . S
H477 C487 0.929 . S
H478 C482 0.929 . S
H479 C488 0.929 . S
C480 H474 0.930 . S
C480 C481 1.367 1_655 S
C480 C488 1.378 . S
C481 C480 1.367 1_455 S
C481 C489 1.433 . S
C482 H478 0.929 . S
C482 C484 1.378 . S
C482 C486 1.350 1_455 S
C483 C486 1.463 1_455 S
C483 C488 1.350 1_455 S
C483 N491 1.427 . S
C484 H475 0.930 . S
C484 C482 1.378 . S
C484 C485 1.367 1_455 S
C485 C484 1.367 1_655 S
C485 C487 1.433 . S
C486 C482 1.350 1_655 S
C486 C483 1.463 1_655 S
C486 N490 1.427 . S
C487 H477 0.929 . S
C487 C485 1.433 . S
C487 N490 1.384 . S
C488 H479 0.929 . S
C488 C480 1.378 . S
C488 C483 1.350 1_655 S
C489 H476 0.929 . S
C489 C481 1.433 . S
C489 N491 1.384 . S
N490 C486 1.427 . S
N490 C487 1.384 . S
N491 C483 1.427 . S
N491 C489 1.384 . S
H492 C498 0.930 . S
H493 C502 0.930 . S
H494 C507 0.929 . S
H495 C505 0.929 . S
H496 C500 0.929 . S
H497 C506 0.929 . S
C498 H492 0.930 . S
C498 C499 1.367 . S
C498 C506 1.378 . S
C499 C498 1.367 . S
C499 C507 1.433 1_455 S
C500 H496 0.929 . S
C500 C502 1.378 . S
C500 C504 1.350 . S
C501 C504 1.463 1_445 S
C501 C506 1.350 . S
C501 N509 1.427 1_455 S
C502 H493 0.930 . S
C502 C500 1.378 . S
C502 C503 1.367 . S
C503 C502 1.367 . S
C503 C505 1.433 1_655 S
C504 C500 1.350 . S
C504 C501 1.463 1_665 S
C504 N508 1.427 1_655 S
C505 H495 0.929 . S
C505 C503 1.433 1_455 S
C505 N508 1.384 . S
C506 H497 0.929 . S
C506 C498 1.378 . S
C506 C501 1.350 . S
C507 H494 0.929 . S
C507 C499 1.433 1_655 S
C507 N509 1.384 . S
N508 C504 1.427 1_455 S
N508 C505 1.384 . S
N509 C501 1.427 1_655 S
N509 C507 1.384 . S
H510 C516 0.930 1_565 S
H511 C520 0.930 1_545 S
H512 C525 0.929 . S
H513 C523 0.929 . S
H514 C518 0.929 . S
H515 C524 0.929 . S
C516 H510 0.930 1_545 S
C516 C517 1.367 . S
C516 C524 1.378 1_545 S
C517 C516 1.367 . S
C517 C525 1.433 . S
C518 H514 0.929 . S
C518 C520 1.378 1_545 S
C518 C522 1.350 1_545 S
C519 C522 1.463 1_645 S
C519 C524 1.350 1_545 S
C519 N527 1.427 . S
C520 H511 0.930 1_565 S
C520 C518 1.378 1_565 S
C520 C521 1.367 . S
C521 C520 1.367 . S
C521 C523 1.433 . S
C522 C518 1.350 1_565 S
C522 C519 1.463 1_465 S
C522 N526 1.427 . S
C523 H513 0.929 . S
C523 C521 1.433 . S
C523 N526 1.384 . S
C524 H515 0.929 . S
C524 C516 1.378 1_565 S
C524 C519 1.350 1_565 S
C525 H512 0.929 . S
C525 C517 1.433 . S
C525 N527 1.384 . S
N526 C522 1.427 . S
N526 C523 1.384 . S
N527 C519 1.427 . S
N527 C525 1.384 . S
H528 C534 0.930 . S
H529 C538 0.930 . S
H530 C543 0.929 . S
H531 C541 0.929 . S
H532 C536 0.929 . S
H533 C542 0.929 . S
C534 H528 0.930 . S
C534 C535 1.367 . S
C534 C542 1.378 . S
C535 C534 1.367 . S
C535 C543 1.433 . S
C536 H532 0.929 . S
C536 C538 1.378 . S
C536 C540 1.350 . S
C537 C540 1.463 1_445 S
C537 C542 1.350 . S
C537 N545 1.427 . S
C538 H529 0.930 . S
C538 C536 1.378 . S
C538 C539 1.367 . S
C539 C538 1.367 . S
C539 C541 1.433 . S
C540 C536 1.350 . S
C540 C537 1.463 1_665 S
C540 N544 1.427 . S
C541 H531 0.929 . S
C541 C539 1.433 . S
C541 N544 1.384 . S
C542 H533 0.929 . S
C542 C534 1.378 . S
C542 C537 1.350 . S
C543 H530 0.929 . S
C543 C535 1.433 . S
C543 N545 1.384 . S
N544 C540 1.427 . S
N544 C541 1.384 . S
N545 C537 1.427 . S
N545 C543 1.384 . S
H546 C552 0.930 . S
H547 C556 0.930 . S
H548 C561 0.929 . S
H549 C559 0.929 . S
H550 C554 0.929 . S
H551 C560 0.929 . S
C552 H546 0.930 . S
C552 C553 1.367 1_545 S
C552 C560 1.378 . S
C553 C552 1.367 1_565 S
C553 C561 1.433 . S
C554 H550 0.929 . S
C554 C556 1.378 . S
C554 C558 1.350 1_565 S
C555 C558 1.463 1_665 S
C555 C560 1.350 1_565 S
C555 N563 1.427 . S
C556 H547 0.930 . S
C556 C554 1.378 . S
C556 C557 1.367 1_565 S
C557 C556 1.367 1_545 S
C557 C559 1.433 . S
C558 C554 1.350 1_545 S
C558 C555 1.463 1_445 S
C558 N562 1.427 . S
C559 H549 0.929 . S
C559 C557 1.433 . S
C559 N562 1.384 . S
C560 H551 0.929 . S
C560 C552 1.378 . S
C560 C555 1.350 1_545 S
C561 H548 0.929 . S
C561 C553 1.433 . S
C561 N563 1.384 . S
N562 C558 1.427 . S
N562 C559 1.384 . S
N563 C555 1.427 . S
N563 C561 1.384 . S
H564 C570 0.930 . S
H565 C574 0.930 . S
H566 C579 0.929 . S
H567 C577 0.929 . S
H568 C572 0.929 . S
H569 C578 0.929 . S
C570 H564 0.930 . S
C570 C571 1.367 . S
C570 C578 1.378 . S
C571 C570 1.367 . S
C571 C579 1.433 . S
C572 H568 0.929 . S
C572 C574 1.378 . S
C572 C576 1.350 . S
C573 C576 1.463 1_665 S
C573 C578 1.350 . S
C573 N581 1.427 . S
C574 H565 0.930 . S
C574 C572 1.378 . S
C574 C575 1.367 . S
C575 C574 1.367 . S
C575 C577 1.433 . S
C576 C572 1.350 . S
C576 C573 1.463 1_445 S
C576 N580 1.427 . S
C577 H567 0.929 . S
C577 C575 1.433 . S
C577 N580 1.384 . S
C578 H569 0.929 . S
C578 C570 1.378 . S
C578 C573 1.350 . S
C579 H566 0.929 . S
C579 C571 1.433 . S
C579 N581 1.384 . S
N580 C576 1.427 . S
N580 C577 1.384 . S
N581 C573 1.427 . S
N581 C579 1.384 . S
H582 C588 0.930 . S
H583 C592 0.930 . S
H584 C597 0.929 . S
H585 C595 0.929 . S
H586 C590 0.929 . S
H587 C596 0.929 . S
C588 H582 0.930 . S
C588 C589 1.367 1_655 S
C588 C596 1.378 . S
C589 C588 1.367 1_455 S
C589 C597 1.433 . S
C590 H586 0.929 . S
C590 C592 1.378 . S
C590 C594 1.350 1_455 S
C591 C594 1.463 1_465 S
C591 C596 1.350 1_455 S
C591 N599 1.427 . S
C592 H583 0.930 . S
C592 C590 1.378 . S
C592 C593 1.367 1_455 S
C593 C592 1.367 1_655 S
C593 C595 1.433 . S
C594 C590 1.350 1_655 S
C594 C591 1.463 1_645 S
C594 N598 1.427 . S
C595 H585 0.929 . S
C595 C593 1.433 . S
C595 N598 1.384 . S
C596 H587 0.929 . S
C596 C588 1.378 . S
C596 C591 1.350 1_655 S
C597 H584 0.929 . S
C597 C589 1.433 . S
C597 N599 1.384 . S
N598 C594 1.427 . S
N598 C595 1.384 . S
N599 C591 1.427 . S
N599 C597 1.384 . S
C175 C162 1.309 . S
C179 C8 1.303 . S
C193 C22 1.289 . S
C197 C92 1.286 . S
C211 C36 1.316 . S
C215 C106 1.312 . S
C229 C50 1.290 . S
C233 C120 1.288 . S
C247 C134 1.314 . S
C251 C64 1.316 . S
C265 C78 1.288 . S
C269 C148 1.293 . S
C283 C7 1.703 . S
C287 C147 1.707 . S
C301 C21 1.709 . S
C305 C161 1.705 . S
C319 C35 1.702 . S
C323 C91 1.705 . S
C337 C49 1.710 . S
C341 C105 1.707 . S
C355 C119 1.708 . S
C359 C63 1.704 . S
C373 C133 1.703 . S
C377 C77 1.702 . S
C391 C48 1.432 . S
C395 C6 1.435 . S
C409 C20 1.433 . S
C413 C62 1.435 . S
C427 C76 1.435 . S
C431 C34 1.431 . S
C445 C132 1.431 . S
C449 C90 1.434 . S
C463 C146 1.435 . S
C467 C104 1.432 . S
C481 C118 1.434 . S
C485 C160 1.431 . S
C499 C9 1.317 . S
C503 C51 1.321 . S
C517 C23 1.327 . S
C521 C65 1.323 . S
C535 C79 1.331 . S
C539 C37 1.328 . S
C553 C93 1.332 . S
C557 C135 1.332 . S
C571 C107 1.324 . S
C575 C149 1.327 . S
C589 C121 1.330 . S
C593 C163 1.327 . S
