# Generated by pormake.
# Topology snk, (6)-cn, num edge types: 1
# Building blocks:
#     Node 0, Type 0, BuildingBlock: BETGAK_clean_sbu_0, # of connection points: 6
#     Node 1, Type 0, BuildingBlock: BETGAK_clean_sbu_0, # of connection points: 6
#     Node 2, Type 0, BuildingBlock: BETGAK_clean_sbu_0, # of connection points: 6
#     Node 3, Type 0, BuildingBlock: BETGAK_clean_sbu_0, # of connection points: 6
#     Node 4, Type 0, BuildingBlock: BETGAK_clean_sbu_0, # of connection points: 6
#     Node 5, Type 0, BuildingBlock: BETGAK_clean_sbu_0, # of connection points: 6
#     Node 6, Type 0, BuildingBlock: BETGAK_clean_sbu_0, # of connection points: 6
#     Node 7, Type 0, BuildingBlock: BETGAK_clean_sbu_0, # of connection points: 6
#     Edge 8, Type (0, 0), BuildingBlock: XUDNAN_clean_linker_2, # of connection points: 2
#     Edge 9, Type (0, 0), BuildingBlock: XUDNAN_clean_linker_2, # of connection points: 2
#     Edge 10, Type (0, 0), BuildingBlock: XUDNAN_clean_linker_2, # of connection points: 2
#     Edge 11, Type (0, 0), BuildingBlock: XUDNAN_clean_linker_2, # of connection points: 2
#     Edge 12, Type (0, 0), BuildingBlock: XUDNAN_clean_linker_2, # of connection points: 2
#     Edge 13, Type (0, 0), BuildingBlock: XUDNAN_clean_linker_2, # of connection points: 2
#     Edge 14, Type (0, 0), BuildingBlock: XUDNAN_clean_linker_2, # of connection points: 2
#     Edge 15, Type (0, 0), BuildingBlock: XUDNAN_clean_linker_2, # of connection points: 2
#     Edge 16, Type (0, 0), BuildingBlock: XUDNAN_clean_linker_2, # of connection points: 2
#     Edge 17, Type (0, 0), BuildingBlock: XUDNAN_clean_linker_2, # of connection points: 2
#     Edge 18, Type (0, 0), BuildingBlock: XUDNAN_clean_linker_2, # of connection points: 2
#     Edge 19, Type (0, 0), BuildingBlock: XUDNAN_clean_linker_2, # of connection points: 2
#     Edge 20, Type (0, 0), BuildingBlock: XUDNAN_clean_linker_2, # of connection points: 2
#     Edge 21, Type (0, 0), BuildingBlock: XUDNAN_clean_linker_2, # of connection points: 2
#     Edge 22, Type (0, 0), BuildingBlock: XUDNAN_clean_linker_2, # of connection points: 2
#     Edge 23, Type (0, 0), BuildingBlock: XUDNAN_clean_linker_2, # of connection points: 2
#     Edge 24, Type (0, 0), BuildingBlock: XUDNAN_clean_linker_2, # of connection points: 2
#     Edge 25, Type (0, 0), BuildingBlock: XUDNAN_clean_linker_2, # of connection points: 2
#     Edge 26, Type (0, 0), BuildingBlock: XUDNAN_clean_linker_2, # of connection points: 2
#     Edge 27, Type (0, 0), BuildingBlock: XUDNAN_clean_linker_2, # of connection points: 2
#     Edge 28, Type (0, 0), BuildingBlock: XUDNAN_clean_linker_2, # of connection points: 2
#     Edge 29, Type (0, 0), BuildingBlock: XUDNAN_clean_linker_2, # of connection points: 2
#     Edge 30, Type (0, 0), BuildingBlock: XUDNAN_clean_linker_2, # of connection points: 2
#     Edge 31, Type (0, 0), BuildingBlock: XUDNAN_clean_linker_2, # of connection points: 2
# Relax obj value: 0.092
# Max RMSD: 0.155
# Mean RMSD: 0.125
data_MOF--net-snk--node1-BETGAK_clean_sbu_0--edge1-XUDNAN_clean_linker_2
_symmetry_space_group_name_H-M    P1
_symmetry_Int_Tables_number       1
_symmetry_cell_setting            triclinic
loop_
_symmetry_equiv_pos_as_xyz
'x, y, z'
_cell_length_a     37.404206
_cell_length_b     37.717681
_cell_length_c     25.298244
_cell_angle_alpha  83.615882
_cell_angle_beta   96.123933
_cell_angle_gamma 88.945566
loop_
_atom_site_label
_atom_site_type_symbol
_atom_site_fract_x
_atom_site_fract_y
_atom_site_fract_z
_atom_type_partial_charge
La0 La 1.00229 1.00454 0.45858 0.0
La1 La 0.02557 0.02272 0.57092 0.0
C2 C 0.97115 0.99806 0.36681 0.0
C3 C 0.98223 0.99762 0.3127 0.0
C4 C 0.01755 0.98763 0.3054 0.0
C5 C 0.02714 0.98513 0.25395 0.0
C6 C 1.00168 0.99285 0.20877 0.0
C7 C 0.96663 1.00398 0.21622 0.0
C8 C 0.95699 1.00622 0.26777 0.0
C9 C 0.05331 0.96283 0.51404 0.0
C10 C 0.07118 0.04931 0.4739 0.0
C11 C 0.05709 0.02895 0.6626 0.0
C12 C 0.05154 0.01888 0.71921 0.0
C13 C 0.01828 0.02477 0.73845 0.0
C14 C 1.01436 0.01653 0.79287 0.0
C15 C 0.04353 1.00199 0.82902 0.0
C16 C 0.07659 0.99565 0.80934 0.0
C17 C 0.08053 1.00405 0.75506 0.0
C18 C 0.97606 0.06555 0.51253 0.0
C19 C 0.95772 0.97774 0.55616 0.0
O20 O 0.98293 0.9711 0.40188 0.0
O21 O 0.97354 0.02852 0.38705 0.0
O22 O 0.0501 0.96964 0.46236 0.0
O23 O 0.02641 0.97597 0.5315 0.0
O24 O 0.04499 0.04033 0.43892 0.0
O25 O 0.07053 0.04189 0.52638 0.0
O26 O 0.03497 0.05322 0.63515 0.0
O27 O 0.06399 1.00284 0.6348 0.0
O28 O 0.9772 0.05813 0.56402 0.0
O29 O 1.00308 0.05128 0.4975 0.0
O30 O 0.98554 0.98407 0.59018 0.0
O31 O 0.95646 0.98863 0.50412 0.0
H32 H 0.03757 0.98123 0.33954 0.0
H33 H 0.05449 0.97704 0.24953 0.0
H34 H 0.94635 0.0099 0.18232 0.0
H35 H 0.92963 0.01407 0.27263 0.0
H36 H 0.99536 0.03596 0.71158 0.0
H37 H 0.98843 0.0213 0.80657 0.0
H38 H 0.09971 0.98485 0.8361 0.0
H39 H 0.10643 0.99934 0.74115 0.0
La40 La 0.24748 0.75084 0.8339 0.0
La41 La 0.27404 0.77925 0.72901 0.0
C42 C 0.23969 0.72666 0.92889 0.0
C43 C 0.25109 0.733 0.9846 0.0
C44 C 0.22507 0.73245 1.02065 0.0
C45 C 0.23485 0.73649 0.07442 0.0
C46 C 0.271 0.74103 0.09343 0.0
C47 C 0.29706 0.74214 0.05703 0.0
C48 C 0.28718 0.73826 1.00299 0.0
C49 C 0.20286 0.79459 0.76933 0.0
C50 C 0.29835 0.81771 0.82767 0.0
C51 C 0.2805 0.80395 0.63365 0.0
C52 C 0.28324 0.79125 0.58077 0.0
C53 C 0.31695 0.78953 0.56124 0.0
C54 C 0.31991 0.77982 0.51014 0.0
C55 C 0.28919 0.77187 0.47699 0.0
C56 C 0.25542 0.77348 0.49652 0.0
C57 C 0.25245 0.78308 0.54784 0.0
C58 C 0.31668 0.73149 0.79146 0.0
C59 C 0.22253 0.7116 0.73458 0.0
O60 O 0.21831 0.75108 0.90035 0.0
O61 O 0.26398 0.71436 0.90134 0.0
O62 O 0.19303 0.76726 0.79937 0.0
O63 O 0.23638 0.79766 0.77774 0.0
O64 O 0.28923 0.78866 0.85715 0.0
O65 O 0.28833 0.82298 0.77562 0.0
O66 O 0.30768 0.79596 0.67039 0.0
O67 O 0.24957 0.80116 0.65346 0.0
O68 O 0.32849 0.75718 0.76036 0.0
O69 O 0.28316 0.73201 0.78328 0.0
O70 O 0.23584 0.73829 0.70445 0.0
O71 O 0.22821 0.70835 0.78754 0.0
H72 H 0.19711 0.7283 1.00733 0.0
H73 H 0.21419 0.73503 0.10142 0.0
H74 H 0.32506 0.74599 0.07032 0.0
H75 H 0.30777 0.73899 0.97586 0.0
H76 H 0.34109 0.79627 0.5852 0.0
H77 H 0.34626 0.77943 0.49607 0.0
H78 H 0.23126 0.76724 0.47217 0.0
H79 H 0.226 0.78446 0.56139 0.0
La80 La 0.52601 0.9882 0.08348 0.0
La81 La 0.50793 0.03018 0.97493 0.0
C82 C 0.54473 0.96964 0.18214 0.0
C83 C 0.53397 0.97484 0.23576 0.0
C84 C 0.50179 0.96143 0.25293 0.0
C85 C 0.49417 0.96315 0.30569 0.0
C86 C 0.51851 0.97827 0.34268 0.0
C87 C 0.55009 0.99277 0.32485 0.0
C88 C 0.55776 0.99094 0.27214 0.0
C89 C 0.47426 0.96178 1.02143 0.0
C90 C 0.47354 0.05819 0.07025 0.0
C91 C 0.49048 0.04846 0.87602 0.0
C92 C 0.49343 0.03418 0.82397 0.0
C93 C 0.52219 0.04352 0.79405 0.0
C94 C 0.52381 0.03212 0.74343 0.0
C95 C 0.49661 0.01121 0.72113 0.0
C96 C 0.46795 1.00172 0.75126 0.0
C97 C 0.46634 0.0131 0.80187 0.0
C98 C 0.55877 0.0571 0.03766 0.0
C99 C 0.5623 0.96177 0.99013 0.0
O100 O 0.52389 0.95108 0.15147 0.0
O101 O 0.55736 0.99715 0.15475 0.0
O102 O 0.49706 0.94271 0.05569 0.0
O103 O 0.47933 0.99445 0.02537 0.0
O104 O 0.49378 0.0333 0.10124 0.0
O105 O 0.47129 0.0604 1.01722 0.0
O106 O 0.52025 0.05761 0.90243 0.0
O107 O 0.46902 0.03245 0.90807 0.0
O108 O 0.53581 0.07597 1.0033 0.0
O109 O 0.55436 0.02432 0.03336 0.0
O110 O 0.53833 0.98247 0.95764 0.0
O111 O 0.5661 0.96363 0.04233 0.0
H112 H 0.48279 0.94888 0.22604 0.0
H113 H 0.46932 0.95222 0.31769 0.0
H114 H 0.56962 1.00431 0.3522 0.0
H115 H 0.5829 1.00125 0.26021 0.0
H116 H 0.54335 0.06003 0.80949 0.0
H117 H 0.54651 0.03961 0.72185 0.0
H118 H 0.44619 0.98614 0.73523 0.0
H119 H 0.4435 1.00581 0.8233 0.0
La120 La 0.25286 0.27206 0.23073 0.0
La121 La 0.29501 0.25466 0.33928 0.0
C122 C 0.23619 0.29102 0.13181 0.0
C123 C 0.24509 0.27984 0.08026 0.0
C124 C 0.24702 0.24372 0.07165 0.0
C125 C 0.25458 0.23403 1.02196 0.0
C126 C 0.2607 0.26019 0.97977 0.0
C127 C 0.25927 0.29631 0.98908 0.0
C128 C 0.25148 0.30596 0.03862 0.0
C129 C 0.22542 0.22136 0.29292 0.0
C130 C 0.32171 0.21712 0.24644 0.0
C131 C 0.31621 0.23941 0.43783 0.0
C132 C 0.30392 0.23871 0.49204 0.0
C133 C 0.30479 0.26947 0.51899 0.0
C134 C 0.29849 0.26745 0.57291 0.0
C135 C 0.29145 0.23458 0.60146 0.0
C136 C 0.28914 0.20415 0.57381 0.0
C137 C 0.29539 0.20617 0.51993 0.0
C138 C 0.32171 0.30487 0.27493 0.0
C139 C 0.22403 0.3046 0.32614 0.0
O140 O 0.21737 0.26932 0.16108 0.0
O141 O 0.26219 0.30479 0.16086 0.0
O142 O 0.20665 0.24357 0.2573 0.0
O143 O 0.25858 0.22611 0.28991 0.0
O144 O 0.29758 0.23724 0.2133 0.0
O145 O 0.32344 0.21702 0.29898 0.0
O146 O 0.31993 0.27057 0.4109 0.0
O147 O 0.30303 0.21617 0.40678 0.0
O148 O 0.34096 0.28189 0.30852 0.0
O149 O 0.28888 0.30045 0.28029 0.0
O150 O 0.24527 0.28011 0.35623 0.0
O151 O 0.22561 0.31052 0.27369 0.0
H152 H 0.24242 0.22295 0.10314 0.0
H153 H 0.25501 0.20597 1.01649 0.0
H154 H 0.26455 0.31725 0.95828 0.0
H155 H 0.25043 0.33398 0.04443 0.0
H156 H 0.31166 0.29495 0.49907 0.0
H157 H 0.30081 0.29139 0.59287 0.0
H158 H 0.28319 0.17848 0.59415 0.0
H159 H 0.29473 0.18191 0.50062 0.0
La160 La 0.75347 0.24721 0.33617 0.0
La161 La 0.76546 0.28146 0.22528 0.0
C162 C 0.75887 0.21857 0.43208 0.0
C163 C 0.76736 0.22673 0.48762 0.0
C164 C 0.75945 0.26032 0.50336 0.0
C165 C 0.76581 0.2662 0.55734 0.0
C166 C 0.7805 0.23869 0.59625 0.0
C167 C 0.78881 0.20535 0.57992 0.0
C168 C 0.78217 0.19944 0.52628 0.0
C169 C 0.70134 0.29063 0.28633 0.0
C170 C 0.79627 0.31972 0.32218 0.0
C171 C 0.75891 0.30975 0.12918 0.0
C172 C 0.76094 0.29821 0.07583 0.0
C173 C 0.77487 0.26423 0.07011 0.0
C174 C 0.77974 0.25486 1.01928 0.0
C175 C 0.77072 0.27927 0.97322 0.0
C176 C 0.75559 0.31285 0.97919 0.0
C177 C 0.75083 0.32222 0.03007 0.0
C178 C 0.81743 0.23716 0.27347 0.0
C179 C 0.72248 0.20861 0.23909 0.0
O180 O 0.72898 0.23251 0.40585 0.0
O181 O 0.78531 0.21949 0.40211 0.0
O182 O 0.69621 0.26243 0.31837 0.0
O183 O 0.73449 0.29484 0.28593 0.0
O184 O 0.7915 0.28973 0.35306 0.0
O185 O 0.78142 0.32499 0.27188 0.0
O186 O 0.78911 0.3074 0.16076 0.0
O187 O 0.73179 0.29855 0.1545 0.0
O188 O 0.82244 0.26428 0.23939 0.0
O189 O 0.78429 0.23383 0.27515 0.0
O190 O 0.72865 0.23805 0.20787 0.0
O191 O 0.73529 0.20384 0.2904 0.0
H192 H 0.748 0.2818 0.47412 0.0
H193 H 0.75939 0.29225 0.56861 0.0
H194 H 0.79964 0.18344 0.60887 0.0
H195 H 0.788 0.17322 0.51514 0.0
H196 H 0.78268 0.24527 0.10503 0.0
H197 H 0.79089 0.22858 1.01609 0.0
H198 H 0.74862 0.3324 0.94473 0.0
H199 H 0.74009 0.34861 0.03378 0.0
La200 La 0.73718 0.77552 0.7051 0.0
La201 La 0.78331 0.75365 0.81087 0.0
C202 C 0.71609 0.79378 0.60673 0.0
C203 C 0.72672 0.79228 0.55161 0.0
C204 C 0.7351 0.7599 0.53198 0.0
C205 C 0.73998 0.75903 0.47758 0.0
C206 C 0.73626 0.79044 0.4413 0.0
C207 C 0.72953 0.82289 0.46183 0.0
C208 C 0.72479 0.82376 0.51598 0.0
C209 C 0.71247 0.72278 0.76719 0.0
C210 C 0.80717 0.72261 0.71174 0.0
C211 C 0.8024 0.73495 0.90978 0.0
C212 C 0.7917 0.74363 0.96221 0.0
C213 C 0.7797 0.77813 0.96935 0.0
C214 C 0.77045 0.78592 1.01935 0.0
C215 C 0.77286 0.75944 0.06386 0.0
C216 C 0.785 0.72491 0.05642 0.0
C217 C 0.79423 0.71716 1.00632 0.0
C218 C 0.80852 0.80605 0.7488 0.0
C219 C 0.71318 0.80671 0.80462 0.0
O220 O 0.7079 0.76396 0.63366 0.0
O221 O 0.73385 0.81455 0.63771 0.0
O222 O 0.69231 0.74642 0.73588 0.0
O223 O 0.74507 0.72788 0.76055 0.0
O224 O 0.78471 0.7473 0.68404 0.0
O225 O 0.80874 0.71646 0.76465 0.0
O226 O 0.81743 0.76011 0.88068 0.0
O227 O 0.77934 0.71779 0.88028 0.0
O228 O 0.82837 0.78254 0.78088 0.0
O229 O 0.77577 0.80127 0.7551 0.0
O230 O 0.73763 0.78408 0.83225 0.0
O231 O 0.70985 0.81151 0.75151 0.0
H232 H 0.73679 0.73507 0.55822 0.0
H233 H 0.74506 0.73352 0.46351 0.0
H234 H 0.72719 0.84778 0.4357 0.0
H235 H 0.71839 0.8491 0.52968 0.0
H236 H 0.77754 0.7992 0.93628 0.0
H237 H 0.7618 0.81298 1.02312 0.0
H238 H 0.78684 0.7036 0.08908 0.0
H239 H 0.8034 0.69031 1.00205 0.0
La240 La 0.50364 0.49454 0.95815 0.0
La241 La 0.53733 0.51476 0.06452 0.0
C242 C 0.47599 0.49511 0.86262 0.0
C243 C 0.48953 0.49511 0.80981 0.0
C244 C 0.51821 0.47224 0.80247 0.0
C245 C 0.52997 0.47175 0.75192 0.0
C246 C 0.51364 0.4944 0.70755 0.0
C247 C 0.48516 0.51757 0.71526 0.0
C248 C 0.47321 0.51783 0.76585 0.0
C249 C 0.55017 0.44703 1.01218 0.0
C250 C 0.57371 0.54295 0.96416 0.0
C251 C 0.56545 0.51585 0.15963 0.0
C252 C 0.55783 0.5073 0.21588 0.0
C253 C 0.53494 0.52937 0.23962 0.0
C254 C 0.53224 0.52388 0.29471 0.0
C255 C 0.55255 0.4964 0.32729 0.0
C256 C 0.57416 0.47341 0.30306 0.0
C257 C 0.5768 0.47885 0.24805 0.0
C258 C 0.48874 0.56024 1.00928 0.0
C259 C 0.4676 0.46668 0.05933 0.0
O260 O 0.48256 0.46608 0.89603 0.0
O261 O 0.48096 0.52404 0.88636 0.0
O262 O 0.52284 0.43937 0.98013 0.0
O263 O 0.55246 0.48043 1.00898 0.0
O264 O 0.54486 0.53287 0.93493 0.0
O265 O 0.57934 0.53374 1.01641 0.0
O266 O 0.54782 0.54298 0.1311 0.0
O267 O 0.56949 0.48911 0.13172 0.0
O268 O 0.51686 0.57011 0.03782 0.0
O269 O 0.48803 0.52697 1.01499 0.0
O270 O 0.49751 0.47495 0.088 0.0
O271 O 0.46113 0.47812 1.00762 0.0
H272 H 0.5314 0.45446 0.83569 0.0
H273 H 0.55156 0.45315 0.74756 0.0
H274 H 0.47229 0.53579 0.68235 0.0
H275 H 0.45114 0.53579 0.77064 0.0
H276 H 0.52008 0.55169 0.21611 0.0
H277 H 0.51555 0.54222 0.31212 0.0
H278 H 0.58972 0.45164 0.32686 0.0
H279 H 0.59466 0.46147 0.23095 0.0
La280 La 0.02063 0.49652 0.57164 0.0
La281 La 1.0104 0.5352 0.46116 0.0
C282 C 0.03274 0.47781 0.67098 0.0
C283 C 0.03248 0.49339 0.72209 0.0
C284 C 1.0081 0.48098 0.75788 0.0
C285 C 1.00902 0.49315 0.80816 0.0
C286 C 0.03462 0.51783 0.82408 0.0
C287 C 0.05859 0.53081 0.78775 0.0
C288 C 0.05756 0.51873 0.73728 0.0
C289 C 0.97308 0.46859 0.50464 0.0
C290 C 0.96887 0.56538 0.54733 0.0
C291 C 0.99449 0.55248 0.36197 0.0
C292 C 1.00726 0.54854 0.30951 0.0
C293 C 0.03753 0.56633 0.2928 0.0
C294 C 0.04633 0.56567 0.24049 0.0
C295 C 0.02506 0.54725 0.20388 0.0
C296 C 0.99552 0.52854 0.22129 0.0
C297 C 0.98667 0.5293 0.27342 0.0
C298 C 0.05801 0.56356 0.52784 0.0
C299 C 0.06375 0.46626 0.48551 0.0
O300 O 1.00156 0.47491 0.64324 0.0
O301 O 0.05762 0.48802 0.64045 0.0
O302 O 0.99407 0.45026 0.54225 0.0
O303 O 0.97762 0.50142 0.5076 0.0
O304 O 0.99188 0.54621 0.58328 0.0
O305 O 0.96748 0.56098 0.49598 0.0
O306 O 1.01272 0.5725 0.3936 0.0
O307 O 0.98328 0.52373 0.38829 0.0
O308 O 0.03774 0.58168 0.48906 0.0
O309 O 0.05322 0.5307 0.52543 0.0
O310 O 0.04653 0.49052 0.44924 0.0
O311 O 0.05981 0.46534 0.53708 0.0
H312 H 0.98858 0.46137 0.74725 0.0
H313 H 0.9897 0.48308 0.83467 0.0
H314 H 0.07889 0.54955 0.79881 0.0
H315 H 0.07687 0.52874 0.71074 0.0
H316 H 0.05391 0.5815 0.31959 0.0
H317 H 0.06951 0.58 0.22848 0.0
H318 H 0.97827 0.5145 0.19398 0.0
H319 H 0.96295 0.51572 0.28503 0.0
H320 H 0.06579 0.10183 0.39008 0.0
H321 H 0.14246 0.04621 0.51345 0.0
H322 H 0.19129 0.08303 0.47951 0.0
H323 H 0.12328 0.11403 0.28474 0.0
H324 H 0.10565 0.15835 0.26054 0.0
H325 H 0.07758 0.12635 0.29301 0.0
H326 H 0.06558 0.17043 0.36123 0.0
H327 H 0.09357 0.20258 0.32891 0.0
H328 H 0.1031 0.1883 0.39949 0.0
H329 H 0.23221 0.12491 0.42819 0.0
H330 H 0.26001 0.17186 0.37088 0.0
H331 H 0.15493 0.20382 0.28836 0.0
C332 C 0.09296 0.09716 0.40956 0.0
C333 C 0.10059 0.07085 0.45381 0.0
C334 C 0.1362 0.06614 0.47926 0.0
C335 C 0.16405 0.08685 0.46017 0.0
C336 C 0.15562 0.11265 0.41633 0.0
C337 C 0.12078 0.11819 0.39194 0.0
C338 C 0.11824 0.1489 0.3476 0.0
C339 C 0.10544 0.13613 0.29326 0.0
C340 C 0.09367 0.17935 0.36008 0.0
C341 C 0.15717 0.15959 0.35027 0.0
C342 C 0.17847 0.13814 0.38967 0.0
C343 C 0.21561 0.14222 0.39791 0.0
C344 C 0.2312 0.16913 0.36545 0.0
C345 C 0.20961 0.19212 0.3262 0.0
C346 C 0.17215 0.18701 0.31858 0.0
H347 H 0.11588 0.9642 0.57943 0.0
H348 H 0.03684 0.89343 0.51495 0.0
H349 H 0.06899 0.84167 0.56985 0.0
H350 H 0.19439 0.90217 0.58718 0.0
H351 H 0.21462 0.91627 0.649 0.0
H352 H 0.18679 0.94722 0.60186 0.0
H353 H 0.14657 0.95874 0.67592 0.0
H354 H 0.17411 0.92773 0.72318 0.0
H355 H 0.12636 0.92159 0.71146 0.0
H356 H 0.10597 0.7991 0.63732 0.0
H357 H 0.14753 0.7673 0.71046 0.0
H358 H 0.20509 0.86473 0.72837 0.0
C359 C 0.1059 0.93763 0.57642 0.0
C360 C 0.07432 0.93229 0.54303 0.0
C361 C 0.06135 0.89757 0.54016 0.0
C362 C 0.07937 0.86819 0.57113 0.0
C363 C 0.11038 0.87419 0.60424 0.0
C364 C 0.12381 0.90796 0.60675 0.0
C365 C 0.1569 0.90716 0.64713 0.0
C366 C 0.19014 0.9189 0.61963 0.0
C367 C 0.15059 0.93016 0.69208 0.0
C368 C 0.1596 0.86777 0.66758 0.0
C369 C 0.1324 0.84931 0.64233 0.0
C370 C 0.12768 0.81313 0.65683 0.0
C371 C 0.15125 0.79535 0.69848 0.0
C372 C 0.17943 0.81366 0.72446 0.0
C373 C 0.184 0.85016 0.70836 0.0
H374 H 0.3532 0.80732 0.90967 0.0
H375 H 0.29269 0.88984 0.80177 0.0
H376 H 0.3296 0.93593 0.8416 0.0
H377 H 0.36839 0.8565 0.02518 0.0
H378 H 0.41378 0.83911 0.04333 0.0
H379 H 0.38094 0.81293 1.00899 0.0
H380 H 0.42279 0.80763 0.93483 0.0
H381 H 0.45572 0.83386 0.96882 0.0
H382 H 0.43873 0.84759 0.90007 0.0
H383 H 0.37223 0.97327 0.89538 0.0
H384 H 0.42088 0.9984 0.95266 0.0
H385 H 0.45813 0.89141 1.01827 0.0
C386 C 0.34748 0.83515 0.89502 0.0
C387 C 0.31977 0.84514 0.85317 0.0
C388 C 0.31366 0.8817 0.834 0.0
C389 C 0.33443 0.90804 0.85646 0.0
C390 C 0.36174 0.89738 0.89743 0.0
C391 C 0.36862 0.86177 0.91607 0.0
C392 C 0.40104 0.85731 0.95802 0.0
C393 C 0.39039 0.84047 1.01208 0.0
C394 C 0.43136 0.8353 0.9393 0.0
C395 C 0.41119 0.89596 0.96025 0.0
C396 C 0.38787 0.91869 0.92554 0.0
C397 C 0.39104 0.95567 0.92198 0.0
C398 C 0.41899 0.96975 0.95427 0.0
C399 C 0.44403 0.94694 0.98862 0.0
C400 C 0.43976 0.90956 0.99177 0.0
H401 H 0.40932 0.09959 0.03985 0.0
H402 H 0.49783 0.07781 0.16616 0.0
H403 H 0.46926 0.11695 0.22099 0.0
H404 H 0.39446 0.1947 0.06171 0.0
H405 H 0.34615 0.19345 0.0497 0.0
H406 H 0.3739 0.16516 1.01679 0.0
H407 H 0.34146 0.10968 0.05509 0.0
H408 H 0.31358 0.1378 0.08798 0.0
H409 H 0.33969 0.1012 0.12631 0.0
H410 H 0.43111 0.1537 0.26612 0.0
H411 H 0.3853 0.1906 0.29842 0.0
H412 H 0.31963 0.19282 0.14552 0.0
C413 C 0.42281 0.1036 0.07867 0.0
C414 C 0.45581 0.08514 0.09867 0.0
C415 C 0.4724 0.091 0.14995 0.0
C416 C 0.45646 0.11342 0.18158 0.0
C417 C 0.42375 0.13036 0.16174 0.0
C418 C 0.40702 0.12626 0.11144 0.0
C419 C 0.37121 0.14739 0.10165 0.0
C420 C 0.37146 0.17693 0.05467 0.0
C421 C 0.33962 0.12252 0.09221 0.0
C422 C 0.37056 0.16318 0.15462 0.0
C423 C 0.40134 0.15279 0.18831 0.0
C424 C 0.40698 0.16235 0.24003 0.0
C425 C 0.38057 0.18322 0.25815 0.0
C426 C 0.34871 0.19471 0.22478 0.0
C427 C 0.34378 0.18468 0.17197 0.0
H428 H 0.96547 0.92091 0.63293 0.0
H429 H 0.88478 0.98474 0.52594 0.0
H430 H 0.83681 0.94868 0.56441 0.0
H431 H 0.92183 0.83702 0.6217 0.0
H432 H 0.93589 0.8198 0.69026 0.0
H433 H 0.96302 0.85152 0.65532 0.0
H434 H 0.96006 0.89304 0.72989 0.0
H435 H 0.9328 0.86153 0.76495 0.0
H436 H 0.91686 0.90711 0.74701 0.0
H437 H 0.79755 0.90717 0.62091 0.0
H438 H 0.77165 0.86014 0.68068 0.0
H439 H 0.8791 0.81997 0.74179 0.0
C440 C 0.93766 0.92738 0.61771 0.0
C441 C 0.92869 0.95584 0.57695 0.0
C442 C 0.89213 0.96305 0.55725 0.0
C443 C 0.86477 0.9428 0.57903 0.0
C444 C 0.87457 0.91497 0.61959 0.0
C445 C 0.91027 0.90691 0.63791 0.0
C446 C 0.9141 0.87475 0.67985 0.0
C447 C 0.93493 0.84395 0.66062 0.0
C448 C 0.93201 0.88472 0.7336 0.0
C449 C 0.87497 0.86609 0.683 0.0
C450 C 0.85243 0.8898 0.64859 0.0
C451 C 0.81506 0.888 0.64697 0.0
C452 C 0.80052 0.86099 0.68069 0.0
C453 C 0.82324 0.83557 0.71445 0.0
C454 C 0.86093 0.83854 0.71568 0.0
H455 H 0.90348 0.0763 0.48502 0.0
H456 H 1.00683 0.12365 0.46739 0.0
H457 H 0.97704 0.17391 0.40664 0.0
H458 H 0.8693 0.09651 0.34849 0.0
H459 H 0.82362 0.10556 0.36081 0.0
H460 H 0.85222 0.07519 0.40765 0.0
H461 H 0.84087 0.11275 0.48448 0.0
H462 H 0.81181 0.14282 0.43778 0.0
H463 H 0.84935 0.15985 0.47708 0.0
H464 H 0.93686 0.21749 0.34554 0.0
H465 H 0.88844 0.25172 0.28624 0.0
H466 H 0.81114 0.17458 0.33814 0.0
C467 C 0.9195 0.09781 0.46929 0.0
C468 C 0.9572 0.09683 0.48149 0.0
C469 C 0.97778 0.12451 0.45891 0.0
C470 C 0.96114 0.15304 0.42439 0.0
C471 C 0.92394 0.15314 0.4123 0.0
C472 C 0.9033 0.12627 0.43382 0.0
C473 C 0.86415 0.13164 0.41098 0.0
C474 C 0.8516 0.10037 0.38015 0.0
C475 C 0.84014 0.13709 0.45523 0.0
C476 C 0.8661 0.16566 0.37346 0.0
C477 C 0.90083 0.17768 0.37518 0.0
C478 C 0.90953 0.20842 0.3439 0.0
C479 C 0.88192 0.22759 0.31022 0.0
C480 C 0.84614 0.21588 0.308 0.0
C481 C 0.83824 0.18434 0.33965 0.0
H482 H 0.66792 0.21592 0.157 0.0
H483 H 0.7304 0.13644 0.26789 0.0
H484 H 0.69662 0.08849 0.22729 0.0
H485 H 0.58383 0.17112 0.16224 0.0
H486 H 0.56842 0.18454 0.09282 0.0
H487 H 0.5987 0.21215 0.12909 0.0
H488 H 0.64334 0.20964 0.05787 0.0
H489 H 0.61322 0.18195 1.02145 0.0
H490 H 0.65908 0.1669 0.04247 0.0
H491 H 0.65723 0.04892 0.17057 0.0
H492 H 0.61176 0.02194 0.1098 0.0
H493 H 0.57132 0.12769 0.04294 0.0
C494 C 0.67463 0.1884 0.17248 0.0
C495 C 0.70204 0.17984 0.21523 0.0
C496 C 0.70954 0.14356 0.23512 0.0
C497 C 0.69057 0.11616 0.21217 0.0
C498 C 0.66369 0.12548 0.16997 0.0
C499 C 0.65538 0.1608 0.15092 0.0
C500 C 0.62414 0.16387 0.10709 0.0
C501 C 0.59187 0.18412 0.12383 0.0
C502 C 0.63565 0.18164 0.05409 0.0
C503 C 0.61633 0.12481 0.10403 0.0
C504 C 0.63968 0.10299 0.1401 0.0
C505 C 0.63841 0.06583 0.14291 0.0
C506 C 0.61234 0.05069 0.10851 0.0
C507 C 0.58732 0.07262 0.07274 0.0
C508 C 0.58971 0.11015 0.07042 0.0
H509 H 0.66601 0.86677 0.77446 0.0
H510 H 0.70579 0.78946 0.90952 0.0
H511 H 0.67165 0.82037 0.96817 0.0
H512 H 0.66708 0.9434 0.84778 0.0
H513 H 0.6256 0.96369 0.81405 0.0
H514 H 0.65252 0.93538 0.77999 0.0
H515 H 0.59786 0.89573 0.76156 0.0
H516 H 0.57079 0.92407 0.79541 0.0
H517 H 0.57486 0.87681 0.81667 0.0
H518 H 0.63672 0.85955 1.0148 0.0
H519 H 0.59894 0.90466 0.04686 0.0
H520 H 0.57717 0.95776 0.88476 0.0
C521 C 0.66718 0.85624 0.81621 0.0
C522 C 0.68929 0.82571 0.83699 0.0
C523 C 0.68988 0.81297 0.89212 0.0
C524 C 0.6703 0.83028 0.92616 0.0
C525 C 0.6495 0.86039 0.905 0.0
C526 C 0.64729 0.8733 0.85138 0.0
C527 C 0.62259 0.90662 0.84031 0.0
C528 C 0.64319 0.9392 0.81929 0.0
C529 C 0.58956 0.90043 0.80116 0.0
C530 C 0.61193 0.91028 0.89614 0.0
C531 C 0.62804 0.88317 0.93251 0.0
C532 C 0.62368 0.88083 0.98672 0.0
C533 C 0.6022 0.90679 1.00461 0.0
C534 C 0.58493 0.93491 0.96859 0.0
C535 C 0.58978 0.93651 0.91335 0.0
H536 H 0.56105 0.59941 0.88592 0.0
H537 H 0.64678 0.53677 0.98439 0.0
H538 H 0.69193 0.57451 0.94244 0.0
H539 H 0.60609 0.61824 0.76625 0.0
H540 H 0.58852 0.66353 0.75227 0.0
H541 H 0.56324 0.62999 0.78712 0.0
H542 H 0.56111 0.6688 0.86503 0.0
H543 H 0.58639 0.70245 0.83051 0.0
H544 H 0.60252 0.68357 0.8976 0.0
H545 H 0.72777 0.61825 0.88703 0.0
H546 H 0.75123 0.66819 0.83006 0.0
H547 H 0.64208 0.7066 0.77577 0.0
C548 C 0.58937 0.59341 0.898 0.0
C549 C 0.60058 0.56486 0.93771 0.0
C550 C 0.63775 0.55839 0.95374 0.0
C551 C 0.66354 0.57962 0.93005 0.0
C552 C 0.65167 0.60775 0.89119 0.0
C553 C 0.61543 0.61501 0.87584 0.0
C554 C 0.60973 0.64829 0.83595 0.0
C555 C 0.59078 0.63947 0.78221 0.0
C556 C 0.5887 0.6775 0.85865 0.0
C557 C 0.64839 0.6585 0.83099 0.0
C558 C 0.67219 0.63447 0.86254 0.0
C559 C 0.70934 0.63759 0.86296 0.0
C560 C 0.72247 0.66623 0.83085 0.0
C561 C 0.6986 0.69195 0.79985 0.0
C562 C 0.66107 0.68772 0.79976 0.0
H563 H 0.70822 0.35288 0.2216 0.0
H564 H 0.63071 0.27478 0.26957 0.0
H565 H 0.58333 0.3077 0.20649 0.0
H566 H 0.64768 0.43025 0.206 0.0
H567 H 0.66585 0.45164 0.14781 0.0
H568 H 0.69422 0.42264 0.19709 0.0
H569 H 0.71069 0.38387 0.12489 0.0
H570 H 0.68305 0.41271 0.07457 0.0
H571 H 0.67543 0.36546 0.08294 0.0
H572 H 0.54552 0.34659 0.13517 0.0
H573 H 0.51852 0.39073 0.06184 0.0
H574 H 0.61934 0.44574 0.06189 0.0
C575 C 0.68118 0.34293 0.21901 0.0
C576 C 0.67297 0.31136 0.25035 0.0
C577 C 0.63742 0.29901 0.24598 0.0
C578 C 0.61039 0.31749 0.21026 0.0
C579 C 0.61937 0.34838 0.17957 0.0
C580 C 0.65381 0.36118 0.18371 0.0
C581 C 0.65634 0.39471 0.14534 0.0
C582 C 0.66662 0.42671 0.17588 0.0
C583 C 0.68295 0.38882 0.10451 0.0
C584 C 0.61793 0.39868 0.11886 0.0
C585 C 0.59719 0.37147 0.13909 0.0
C586 C 0.56137 0.36819 0.11933 0.0
C587 C 0.54634 0.39327 0.07758 0.0
C588 C 0.5669 0.42155 0.05661 0.0
C589 C 0.60304 0.42451 0.0778 0.0
H590 H 0.95537 0.39844 0.50761 0.0
H591 H 0.92322 0.50376 0.4281 0.0
H592 H 0.87441 0.47731 0.37257 0.0
H593 H 0.93744 0.34946 0.39446 0.0
H594 H 0.92012 0.3115 0.43233 0.0
H595 H 0.95299 0.3387 0.46446 0.0
H596 H 0.91003 0.34901 0.53552 0.0
H597 H 0.87698 0.3219 0.50353 0.0
H598 H 0.86514 0.36691 0.51413 0.0
H599 H 0.83023 0.4385 0.32345 0.0
H600 H 0.79229 0.3914 0.28858 0.0
H601 H 0.85052 0.31208 0.40512 0.0
C602 C 0.93811 0.41595 0.47841 0.0
C603 C 0.9435 0.45314 0.47146 0.0
C604 C 0.92004 0.47516 0.43336 0.0
C605 C 0.89213 0.46036 0.40185 0.0
C606 C 0.88763 0.42355 0.40958 0.0
C607 C 0.90978 0.40169 0.44735 0.0
C608 C 0.89872 0.36311 0.44886 0.0
C609 C 0.92913 0.3393 0.43414 0.0
C610 C 0.88702 0.34944 0.50377 0.0
C611 C 0.86703 0.36656 0.40576 0.0
C612 C 0.86123 0.40158 0.38326 0.0
C613 C 0.83435 0.41108 0.34118 0.0
C614 C 0.81296 0.38413 0.32157 0.0
C615 C 0.81816 0.34813 0.34448 0.0
C616 C 0.84546 0.33943 0.38738 0.0
H617 H 0.85949 0.66826 0.74756 0.0
H618 H 0.80769 0.73039 0.6037 0.0
H619 H 0.8436 0.69777 0.54884 0.0
H620 H 0.94865 0.6635 0.70078 0.0
H621 H 0.95858 0.61823 0.73044 0.0
H622 H 0.92909 0.6466 0.76034 0.0
H623 H 0.87946 0.59984 0.75415 0.0
H624 H 0.90884 0.57139 0.72422 0.0
H625 H 0.86502 0.58477 0.69033 0.0
H626 H 0.88314 0.65866 0.50771 0.0
H627 H 0.92571 0.61482 0.4825 0.0
H628 H 0.95472 0.57662 0.65038 0.0
C629 C 0.85583 0.67503 0.70458 0.0
C630 C 0.83045 0.70212 0.68042 0.0
C631 C 0.82667 0.70995 0.62381 0.0
C632 C 0.84706 0.69151 0.59191 0.0
C633 C 0.87156 0.6651 0.61666 0.0
C634 C 0.8763 0.65676 0.67161 0.0
C635 C 0.90471 0.6268 0.68707 0.0
C636 C 0.93719 0.63955 0.72171 0.0
C637 C 0.88853 0.59374 0.71564 0.0
C638 C 0.91474 0.61971 0.63222 0.0
C639 C 0.89512 0.64226 0.59242 0.0
C640 C 0.89879 0.64087 0.53849 0.0
C641 C 0.9231 0.61573 0.52456 0.0
C642 C 0.94375 0.59211 0.56424 0.0
C643 C 0.93952 0.59434 0.61898 0.0
H644 H 0.39259 0.31643 0.26396 0.0
H645 H 0.28506 0.35861 0.20708 0.0
H646 H 0.31053 0.40378 0.14408 0.0
H647 H 0.43345 0.4031 0.26184 0.0
H648 H 0.47531 0.38719 0.24239 0.0
H649 H 0.44843 0.35733 0.28112 0.0
H650 H 0.44739 0.31353 0.20902 0.0
H651 H 0.47414 0.34334 0.17002 0.0
H652 H 0.43147 0.3293 0.1405 0.0
H653 H 0.34805 0.4421 0.08345 0.0
H654 H 0.39471 0.47521 0.03772 0.0
H655 H 0.47797 0.41242 0.14143 0.0
C656 C 0.37438 0.33517 0.23821 0.0
C657 C 0.33671 0.33328 0.23909 0.0
C658 C 0.31388 0.35875 0.20567 0.0
C659 C 0.32815 0.38467 0.17007 0.0
C660 C 0.3654 0.38537 0.16948 0.0
C661 C 0.38825 0.36172 0.20345 0.0
C662 C 0.42734 0.36914 0.19667 0.0
C663 C 0.4473 0.37983 0.2486 0.0
C664 C 0.44618 0.33691 0.17793 0.0
C665 C 0.42295 0.40039 0.1531 0.0
C666 C 0.387 0.40905 0.13745 0.0
C667 C 0.37625 0.43585 0.09592 0.0
C668 C 0.4029 0.4544 0.07004 0.0
C669 C 0.43984 0.44659 0.08646 0.0
C670 C 0.4499 0.4193 0.12867 0.0
H671 H 0.49003 0.63025 0.96276 0.0
H672 H 0.42001 0.54119 0.99112 0.0
H673 H 0.36907 0.57631 0.94065 0.0
H674 H 0.42286 0.70162 0.96924 0.0
H675 H 0.43825 0.73067 0.91537 0.0
H676 H 0.46942 0.69966 0.95696 0.0
H677 H 0.4867 0.67298 0.8728 0.0
H678 H 0.45551 0.7038 0.83097 0.0
H679 H 0.45196 0.65648 0.82768 0.0
H680 H 0.32611 0.6191 0.88758 0.0
H681 H 0.29245 0.66796 0.82996 0.0
H682 H 0.38891 0.73029 0.82998 0.0
C683 C 0.4638 0.61854 0.95882 0.0
C684 C 0.45878 0.58314 0.98109 0.0
C685 C 0.42438 0.56825 0.97434 0.0
C686 C 0.39523 0.58801 0.94588 0.0
C687 C 0.40093 0.62258 0.92386 0.0
C688 C 0.43423 0.63788 0.92956 0.0
C689 C 0.43281 0.67509 0.8991 0.0
C690 C 0.44134 0.70344 0.93746 0.0
C691 C 0.45825 0.6772 0.85502 0.0
C692 C 0.3936 0.67798 0.87547 0.0
C693 C 0.37587 0.64738 0.89097 0.0
C694 C 0.33959 0.64325 0.8751 0.0
C695 C 0.32071 0.67119 0.84242 0.0
C696 C 0.33811 0.70281 0.82557 0.0
C697 C 0.37509 0.70626 0.84214 0.0
H698 H 0.17397 0.72019 0.64415 0.0
H699 H 0.22411 0.64034 0.76763 0.0
H700 H 0.18901 0.5935 0.72667 0.0
H701 H 0.08598 0.68313 0.64135 0.0
H702 H 0.07492 0.69425 0.57026 0.0
H703 H 0.10582 0.72105 0.60702 0.0
H704 H 0.15388 0.71073 0.54334 0.0
H705 H 0.12312 0.6839 0.50638 0.0
H706 H 0.16691 0.66577 0.53408 0.0
H707 H 0.14974 0.55496 0.67032 0.0
H708 H 0.1051 0.52857 0.6081 0.0
H709 H 0.07536 0.63399 0.52711 0.0
C710 C 0.1778 0.69275 0.66207 0.0
C711 C 0.20207 0.68373 0.70867 0.0
C712 C 0.20575 0.64774 0.73183 0.0
C713 C 0.186 0.62096 0.70876 0.0
C714 C 0.16211 0.63067 0.66303 0.0
C715 C 0.15755 0.66576 0.64031 0.0
C716 C 0.1285 0.66931 0.59315 0.0
C717 C 0.09694 0.69336 0.60359 0.0
C718 C 0.14404 0.68325 0.54116 0.0
C719 C 0.11762 0.63073 0.5927 0.0
C720 C 0.1377 0.60882 0.6329 0.0
C721 C 0.13345 0.57196 0.63927 0.0
C722 C 0.10777 0.55718 0.60404 0.0
C723 C 0.08597 0.57919 0.5638 0.0
C724 C 0.09125 0.61646 0.558 0.0
H725 H 0.18241 0.36762 0.2908 0.0
H726 H 0.20696 0.2865 0.42679 0.0
H727 H 0.16903 0.31873 0.47927 0.0
H728 H 0.18197 0.44254 0.36727 0.0
H729 H 0.14441 0.46621 0.32715 0.0
H730 H 0.17267 0.43653 0.29748 0.0
H731 H 0.11695 0.40146 0.26633 0.0
H732 H 0.08853 0.43119 0.29569 0.0
H733 H 0.08794 0.38373 0.3147 0.0
H734 H 0.13168 0.35961 0.5202 0.0
H735 H 0.09311 0.40656 0.54618 0.0
H736 H 0.08898 0.46282 0.38596 0.0
C737 C 0.17942 0.35652 0.33137 0.0
C738 C 0.19815 0.32439 0.35433 0.0
C739 C 0.19347 0.31104 0.40785 0.0
C740 C 0.17179 0.32916 0.43834 0.0
C741 C 0.15438 0.36082 0.41522 0.0
C742 C 0.15748 0.37445 0.36293 0.0
C743 C 0.13566 0.40948 0.34904 0.0
C744 C 0.16015 0.44053 0.33437 0.0
C745 C 0.10547 0.40626 0.30375 0.0
C746 C 0.12037 0.41323 0.40183 0.0
C747 C 0.13178 0.38471 0.43921 0.0
C748 C 0.12233 0.38202 0.49123 0.0
C749 C 0.10043 0.40905 0.50569 0.0
C750 C 0.08781 0.43861 0.46837 0.0
C751 C 0.09799 0.44059 0.41552 0.0
H752 H 1.00879 0.04226 0.89364 0.0
H753 H 0.06984 0.94299 0.89594 0.0
H754 H 0.06569 0.93003 0.99287 0.0
H755 H 0.04787 0.0645 1.02063 0.0
H756 H 1.00662 0.08275 0.03882 0.0
H757 H 1.01381 0.08409 0.96936 0.0
H758 H 0.95453 0.05101 0.95036 0.0
H759 H 0.94709 0.04968 1.01973 0.0
H760 H 0.94795 1.0089 0.98881 0.0
H761 H 0.05594 0.92827 0.08972 0.0
H762 H 0.04008 0.93716 0.17967 0.0
H763 H 0.98485 0.0373 0.11481 0.0
C764 C 0.02091 0.01758 0.91438 0.0
C765 C 0.03974 0.99367 0.88709 0.0
C766 C 0.05569 0.96194 0.91601 0.0
C767 C 0.05333 0.95425 0.97105 0.0
C768 C 0.03488 0.97852 0.99674 0.0
C769 C 0.01885 1.00949 0.9694 0.0
C770 C 1.001 0.03128 1.00677 0.0
C771 C 0.01837 0.06781 1.00902 0.0
C772 C 0.96022 0.03545 0.99044 0.0
C773 C 1.00943 1.00765 0.05935 0.0
C774 C 0.0291 0.97742 0.05264 0.0
C775 C 0.04055 0.95184 0.09546 0.0
C776 C 0.03161 0.95725 0.14647 0.0
C777 C 1.01133 0.98796 0.15439 0.0
C778 C 1.00009 0.0134 0.11001 0.0
H779 H 0.24559 0.79478 0.38442 0.0
H780 H 0.34039 0.72842 0.44487 0.0
H781 H 0.34729 0.71493 0.35311 0.0
H782 H 0.2103 0.73901 0.28577 0.0
H783 H 0.19423 0.77606 0.23728 0.0
H784 H 0.19712 0.78074 0.30766 0.0
H785 H 0.2371 0.83562 0.29301 0.0
H786 H 0.2345 0.83096 0.22262 0.0
H787 H 0.27774 0.83131 0.26152 0.0
H788 H 0.34381 0.70861 0.25449 0.0
H789 H 0.32876 0.70807 0.15706 0.0
H790 H 0.23622 0.77844 0.16118 0.0
C791 C 0.2676 0.77711 0.37849 0.0
C792 C 0.2925 0.76272 0.42193 0.0
C793 C 0.32123 0.74013 0.41219 0.0
C794 C 0.32531 0.73221 0.36023 0.0
C795 C 0.30048 0.7471 0.31831 0.0
C796 C 0.27211 0.76897 0.32687 0.0
C797 C 0.24908 0.78144 0.27494 0.0
C798 C 0.2104 0.76853 0.27652 0.0
C799 C 0.24965 0.82225 0.26229 0.0
C800 C 0.26869 0.76283 0.23591 0.0
C801 C 0.29841 0.74336 0.26164 0.0
C802 C 0.32065 0.72385 0.23389 0.0
C803 C 0.31204 0.72391 0.17849 0.0
C804 C 0.28134 0.74322 0.15141 0.0
C805 C 0.25967 0.76314 0.18073 0.0
H806 H 0.51834 0.04937 0.63072 0.0
H807 H 0.47782 0.94654 0.68766 0.0
H808 H 0.47808 0.92765 0.59744 0.0
H809 H 0.46873 0.05837 0.50023 0.0
H810 H 0.50475 0.07853 0.46675 0.0
H811 H 0.50131 0.08423 0.5358 0.0
H812 H 0.56639 0.05875 0.56161 0.0
H813 H 0.57008 0.05309 0.49261 0.0
H814 H 0.57837 0.01555 0.54345 0.0
H815 H 0.48237 0.91985 0.5007 0.0
H816 H 0.49203 0.92304 0.40539 0.0
H817 H 0.53062 0.03057 0.41076 0.0
C818 C 0.50986 0.02272 0.62448 0.0
C819 C 0.49785 0.99956 0.66664 0.0
C820 C 0.48655 0.96508 0.65614 0.0
C821 C 0.4868 0.954 0.60498 0.0
C822 C 0.49852 0.97757 0.56442 0.0
C823 C 0.51 0.01116 0.57359 0.0
C824 C 0.5214 0.03126 0.52297 0.0
C825 C 0.49763 0.0651 0.50541 0.0
C826 C 0.56144 0.04018 0.53063 0.0
C827 C 0.5146 1.00368 0.48395 0.0
C828 C 0.50127 0.97296 0.5087 0.0
C829 C 0.49272 0.94381 0.48092 0.0
C830 C 0.49807 0.946 0.42656 0.0
C831 C 0.51192 0.97711 0.40016 0.0
C832 C 0.52024 1.00629 0.42963 0.0
H833 H 0.24007 0.29572 0.87882 0.0
H834 H 0.29963 0.20142 0.95922 0.0
H835 H 0.31196 0.18396 0.87179 0.0
H836 H 0.20082 0.25651 0.76413 0.0
H837 H 0.20567 0.2955 0.71766 0.0
H838 H 0.20048 0.30025 0.78652 0.0
H839 H 0.25962 0.33485 0.7947 0.0
H840 H 0.26494 0.33032 0.72581 0.0
H841 H 0.30039 0.31485 0.77765 0.0
H842 H 0.3183 0.17672 0.77535 0.0
H843 H 0.32009 0.18138 0.67771 0.0
H844 H 0.25798 0.28122 0.65941 0.0
C845 C 0.256 0.27154 0.87834 0.0
C846 C 0.26858 0.24989 0.9265 0.0
C847 C 0.28894 0.21821 0.92331 0.0
C848 C 0.29634 0.20814 0.87368 0.0
C849 C 0.28346 0.23004 0.82725 0.0
C850 C 0.2639 0.2612 0.82912 0.0
C851 C 0.25384 0.28036 0.77329 0.0
C852 C 0.21276 0.28331 0.75961 0.0
C853 C 0.27071 0.31728 0.76754 0.0
C854 C 0.27078 0.25509 0.73972 0.0
C855 C 0.28758 0.22616 0.77167 0.0
C856 C 0.30513 0.19922 0.74997 0.0
C857 C 0.30575 0.20199 0.69426 0.0
C858 C 0.28899 0.23154 0.66046 0.0
C859 C 0.27125 0.25838 0.6839 0.0
H860 H 0.72864 0.29358 0.87623 0.0
H861 H 0.83106 0.24527 0.94858 0.0
H862 H 0.8452 0.23127 0.86004 0.0
H863 H 0.71013 0.23089 0.78052 0.0
H864 H 0.69011 0.26391 0.72826 0.0
H865 H 0.68808 0.27037 0.79735 0.0
H866 H 0.71796 0.33151 0.78146 0.0
H867 H 0.72023 0.32515 0.71234 0.0
H868 H 0.76054 0.3338 0.75408 0.0
H869 H 0.84838 0.22232 0.7639 0.0
H870 H 0.83952 0.21743 0.66692 0.0
H871 H 0.73525 0.27173 0.65617 0.0
C872 C 0.75415 0.28026 0.87342 0.0
C873 C 0.77866 0.2704 0.91959 0.0
C874 C 0.81156 0.2526 0.9141 0.0
C875 C 0.81999 0.24478 0.86385 0.0
C876 C 0.79529 0.25492 0.81927 0.0
C877 C 0.76299 0.27217 0.8235 0.0
C878 C 0.74094 0.27957 0.7693 0.0
C879 C 0.7052 0.26001 0.76885 0.0
C880 C 0.73455 0.31991 0.75337 0.0
C881 C 0.76591 0.26379 0.73398 0.0
C882 C 0.79714 0.24977 0.76367 0.0
C883 C 0.82403 0.23318 0.74025 0.0
C884 C 0.81869 0.23042 0.68516 0.0
C885 C 0.7867 0.24413 0.65389 0.0
C886 C 0.76019 0.26139 0.67878 0.0
H887 H 0.78125 0.75061 0.38685 0.0
H888 H 0.6918 0.8278 0.36033 0.0
H889 H 0.69158 0.82783 0.26303 0.0
H890 H 0.82694 0.78685 0.27464 0.0
H891 H 0.84118 0.74398 0.25782 0.0
H892 H 0.83444 0.74948 0.32594 0.0
H893 H 0.78977 0.69788 0.32715 0.0
H894 H 0.79635 0.69225 0.25901 0.0
H895 H 0.75167 0.69993 0.27672 0.0
H896 H 0.7002 0.81958 0.16802 0.0
H897 H 0.71777 0.80435 0.08212 0.0
H898 H 0.80274 0.73324 0.1673 0.0
C899 C 0.7615 0.76739 0.3606 0.0
C900 C 0.73674 0.78952 0.38192 0.0
C901 C 0.71155 0.81114 0.34563 0.0
C902 C 0.71101 0.81117 0.29001 0.0
C903 C 0.73583 0.7894 0.27043 0.0
C904 C 0.76069 0.76791 0.30449 0.0
C905 C 0.78462 0.74742 0.27243 0.0
C906 C 0.82414 0.75755 0.28336 0.0
C907 C 0.78034 0.70697 0.28456 0.0
C908 C 0.76926 0.76075 0.21524 0.0
C909 C 0.74107 0.78489 0.21523 0.0
C910 C 0.72243 0.80087 0.1676 0.0
C911 C 0.73289 0.7922 0.11873 0.0
C912 C 0.76201 0.76779 0.11708 0.0
C913 C 0.78022 0.75179 0.16653 0.0
H914 H 0.47321 0.5015 0.6086 0.0
H915 H 0.58314 0.4862 0.68407 0.0
H916 H 0.60433 0.48315 0.59576 0.0
H917 H 0.4801 0.44391 0.50633 0.0
H918 H 0.45258 0.47247 0.45536 0.0
H919 H 0.44563 0.47276 0.52469 0.0
H920 H 0.45448 0.54104 0.51689 0.0
H921 H 0.46128 0.54099 0.44748 0.0
H922 H 0.49488 0.5589 0.49284 0.0
H923 H 0.61386 0.48153 0.49962 0.0
H924 H 0.61141 0.48427 0.40148 0.0
H925 H 0.49565 0.50238 0.38738 0.0
C926 C 0.50179 0.49786 0.60666 0.0
C927 C 0.52641 0.49376 0.65371 0.0
C928 C 0.56356 0.48865 0.64901 0.0
C929 C 0.57594 0.4871 0.5989 0.0
C930 C 0.55095 0.49096 0.55359 0.0
C931 C 0.51469 0.49649 0.55686 0.0
C932 C 0.4936 0.50043 0.50175 0.0
C933 C 0.46637 0.47061 0.49676 0.0
C934 C 0.47497 0.53755 0.489 0.0
C935 C 0.52371 0.49626 0.46704 0.0
C936 C 0.55653 0.49061 0.49785 0.0
C937 C 0.58831 0.48587 0.47506 0.0
C938 C 0.58659 0.4872 0.41925 0.0
C939 C 0.55333 0.49333 0.38661 0.0
C940 C 0.5215 0.49784 0.41112 0.0
H941 H 0.02666 0.47653 0.91844 0.0
H942 H 0.04744 0.58481 0.85388 0.0
H943 H 0.05101 0.60334 0.9449 0.0
H944 H 0.96915 0.50051 1.01321 0.0
H945 H 0.98519 0.46448 0.06353 0.0
H946 H 0.98635 0.45948 0.99378 0.0
H947 H 0.05475 0.44425 1.01148 0.0
H948 H 0.05382 0.44936 0.08129 0.0
H949 H 0.0843 0.47493 0.04276 0.0
H950 H 0.05028 0.6104 0.04288 0.0
H951 H 0.04315 0.60595 0.13931 0.0
H952 H 0.02208 0.49318 0.13915 0.0
C953 C 0.03175 0.50422 0.92323 0.0
C954 C 0.03681 0.5292 0.87882 0.0
C955 C 0.04396 0.56504 0.88725 0.0
C956 C 0.0459 0.57586 0.93879 0.0
C957 C 0.04067 0.55053 0.98155 0.0
C958 C 0.03365 0.51547 0.97425 0.0
C959 C 0.02793 0.49371 0.02652 0.0
C960 C 0.98989 0.47867 1.0241 0.0
C961 C 0.05693 0.4638 0.04138 0.0
C962 C 0.03232 0.52211 0.06432 0.0
C963 C 0.03998 0.55463 0.03773 0.0
C964 C 0.04453 0.585 0.06416 0.0
C965 C 0.04066 0.58215 0.11904 0.0
C966 C 0.03217 0.5492 0.1469 0.0
C967 C 0.02836 0.51879 0.119 0.0
loop_
_geom_bond_atom_site_label_1
_geom_bond_atom_site_label_2
_geom_bond_distance
_geom_bond_site_symmetry_2
_ccdc_geom_bond_type
La0 C2 2.928 1_655 S
La0 O20 2.521 1_655 S
La0 O21 2.628 1_565 S
La0 O22 2.554 1_655 S
La0 O23 2.757 1_655 S
La0 O24 2.470 1_665 S
La0 O29 2.482 1_565 S
La0 O31 2.503 . S
La1 C11 2.928 1_455 S
La1 O23 2.482 1_545 S
La1 O25 2.503 . S
La1 O26 2.521 1_455 S
La1 O27 2.628 1_545 S
La1 O28 2.554 1_455 S
La1 O29 2.757 1_455 S
La1 O30 2.470 1_445 S
C2 La0 2.928 1_455 S
C2 C3 1.503 . S
C2 O20 1.261 . S
C2 O21 1.243 1_465 S
C3 C2 1.503 . S
C3 C4 1.394 . S
C3 C8 1.373 1_565 S
C4 C3 1.394 . S
C4 C5 1.380 . S
C4 H32 0.930 . S
C5 C4 1.380 . S
C5 C6 1.376 . S
C5 H33 0.930 . S
C6 C5 1.376 . S
C6 C7 1.370 1_565 S
C7 C6 1.370 1_545 S
C7 C8 1.396 . S
C7 H34 0.929 . S
C8 C3 1.373 1_545 S
C8 C7 1.396 . S
C8 H35 0.929 1_455 S
C9 O22 1.240 . S
C9 O23 1.289 . S
C10 O24 1.258 . S
C10 O25 1.256 . S
C11 La1 2.928 1_655 S
C11 C12 1.503 . S
C11 O26 1.261 . S
C11 O27 1.243 1_645 S
C12 C11 1.503 . S
C12 C13 1.394 . S
C12 C17 1.373 1_545 S
C13 C12 1.394 . S
C13 C14 1.380 . S
C13 H36 0.930 . S
C14 C13 1.380 . S
C14 C15 1.376 . S
C14 H37 0.930 . S
C15 C14 1.376 . S
C15 C16 1.370 1_545 S
C16 C15 1.370 1_565 S
C16 C17 1.396 . S
C16 H38 0.929 . S
C17 C12 1.373 1_565 S
C17 C16 1.396 . S
C17 H39 0.929 1_655 S
C18 O28 1.240 . S
C18 O29 1.289 . S
C19 O30 1.258 . S
C19 O31 1.256 . S
O20 La0 2.521 1_455 S
O20 C2 1.261 . S
O21 La0 2.628 1_545 S
O21 C2 1.243 1_645 S
O22 La0 2.554 1_455 S
O22 C9 1.240 . S
O23 La0 2.757 1_455 S
O23 La1 2.482 1_565 S
O23 C9 1.289 . S
O24 La0 2.470 1_445 S
O24 C10 1.258 . S
O25 La1 2.503 . S
O25 C10 1.256 . S
O26 La1 2.521 1_655 S
O26 C11 1.261 . S
O27 La1 2.628 1_565 S
O27 C11 1.243 1_465 S
O28 La1 2.554 1_655 S
O28 C18 1.240 . S
O29 La0 2.482 1_545 S
O29 La1 2.757 1_655 S
O29 C18 1.289 . S
O30 La1 2.470 1_665 S
O30 C19 1.258 . S
O31 La0 2.503 . S
O31 C19 1.256 . S
H32 C4 0.930 . S
H33 C5 0.930 . S
H34 C7 0.929 . S
H35 C8 0.929 1_655 S
H36 C13 0.930 . S
H37 C14 0.930 . S
H38 C16 0.929 . S
H39 C17 0.929 1_455 S
La40 C42 2.928 . S
La40 O60 2.521 . S
La40 O61 2.628 . S
La40 O62 2.554 . S
La40 O63 2.757 . S
La40 O64 2.470 . S
La40 O69 2.482 . S
La40 O71 2.503 . S
La41 C51 2.928 . S
La41 O63 2.482 . S
La41 O65 2.503 . S
La41 O66 2.521 . S
La41 O67 2.628 . S
La41 O68 2.554 . S
La41 O69 2.757 . S
La41 O70 2.470 . S
C42 La40 2.928 . S
C42 C43 1.503 . S
C42 O60 1.261 . S
C42 O61 1.243 . S
C43 C42 1.503 . S
C43 C44 1.394 . S
C43 C48 1.373 1_556 S
C44 C43 1.394 . S
C44 C45 1.380 1_556 S
C44 H72 0.930 . S
C45 C44 1.380 1_554 S
C45 C46 1.376 . S
C45 H73 0.930 . S
C46 C45 1.376 . S
C46 C47 1.370 . S
C47 C46 1.370 . S
C47 C48 1.396 . S
C47 H74 0.929 . S
C48 C43 1.373 1_554 S
C48 C47 1.396 . S
C48 H75 0.929 1_554 S
C49 O62 1.240 . S
C49 O63 1.289 . S
C50 O64 1.258 . S
C50 O65 1.256 . S
C51 La41 2.928 . S
C51 C52 1.503 . S
C51 O66 1.261 . S
C51 O67 1.243 . S
C52 C51 1.503 . S
C52 C53 1.394 . S
C52 C57 1.373 . S
C53 C52 1.394 . S
C53 C54 1.380 . S
C53 H76 0.930 . S
C54 C53 1.380 . S
C54 C55 1.376 . S
C54 H77 0.930 . S
C55 C54 1.376 . S
C55 C56 1.370 . S
C56 C55 1.370 . S
C56 C57 1.396 . S
C56 H78 0.929 . S
C57 C52 1.373 . S
C57 C56 1.396 . S
C57 H79 0.929 . S
C58 O68 1.240 . S
C58 O69 1.289 . S
C59 O70 1.258 . S
C59 O71 1.256 . S
O60 La40 2.521 . S
O60 C42 1.261 . S
O61 La40 2.628 . S
O61 C42 1.243 . S
O62 La40 2.554 . S
O62 C49 1.240 . S
O63 La40 2.757 . S
O63 La41 2.482 . S
O63 C49 1.289 . S
O64 La40 2.470 . S
O64 C50 1.258 . S
O65 La41 2.503 . S
O65 C50 1.256 . S
O66 La41 2.521 . S
O66 C51 1.261 . S
O67 La41 2.628 . S
O67 C51 1.243 . S
O68 La41 2.554 . S
O68 C58 1.240 . S
O69 La40 2.482 . S
O69 La41 2.757 . S
O69 C58 1.289 . S
O70 La41 2.470 . S
O70 C59 1.258 . S
O71 La40 2.503 . S
O71 C59 1.256 . S
H72 C44 0.930 . S
H73 C45 0.930 . S
H74 C47 0.929 . S
H75 C48 0.929 1_556 S
H76 C53 0.930 . S
H77 C54 0.930 . S
H78 C56 0.929 . S
H79 C57 0.929 . S
La80 C82 2.928 . S
La80 O100 2.521 . S
La80 O101 2.628 . S
La80 O102 2.554 . S
La80 O103 2.757 1_554 S
La80 O104 2.470 1_565 S
La80 O109 2.482 1_565 S
La80 O111 2.503 . S
La81 C91 2.928 . S
La81 O103 2.482 1_545 S
La81 O105 2.503 . S
La81 O106 2.521 . S
La81 O107 2.628 . S
La81 O108 2.554 . S
La81 O109 2.757 1_556 S
La81 O110 2.470 1_545 S
C82 La80 2.928 . S
C82 C83 1.503 . S
C82 O100 1.261 . S
C82 O101 1.243 . S
C83 C82 1.503 . S
C83 C84 1.394 . S
C83 C88 1.371 . S
C84 C83 1.394 . S
C84 C85 1.380 . S
C84 H112 0.930 . S
C85 C84 1.380 . S
C85 C86 1.376 . S
C85 H113 0.930 . S
C86 C85 1.376 . S
C86 C87 1.368 1_565 S
C87 C86 1.368 1_545 S
C87 C88 1.395 1_545 S
C87 H114 0.931 . S
C88 C83 1.371 . S
C88 C87 1.395 1_565 S
C88 H115 0.931 1_565 S
C89 O102 1.240 1_556 S
C89 O103 1.289 . S
C90 O104 1.258 . S
C90 O105 1.256 1_554 S
C91 La81 2.928 . S
C91 C92 1.503 . S
C91 O106 1.261 . S
C91 O107 1.243 . S
C92 C91 1.503 . S
C92 C93 1.394 . S
C92 C97 1.378 . S
C93 C92 1.394 . S
C93 C94 1.380 . S
C93 H116 0.930 . S
C94 C93 1.380 . S
C94 C95 1.376 . S
C94 H117 0.930 . S
C95 C94 1.376 . S
C95 C96 1.368 . S
C96 C95 1.368 . S
C96 C97 1.394 . S
C96 H118 0.931 1_545 S
C97 C92 1.378 . S
C97 C96 1.394 . S
C97 H119 0.926 1_545 S
C98 O108 1.240 1_554 S
C98 O109 1.289 . S
C99 O110 1.258 . S
C99 O111 1.256 1_556 S
O100 La80 2.521 . S
O100 C82 1.261 . S
O101 La80 2.628 . S
O101 C82 1.243 . S
O102 La80 2.554 . S
O102 C89 1.240 1_554 S
O103 La80 2.757 1_556 S
O103 La81 2.482 1_565 S
O103 C89 1.289 . S
O104 La80 2.470 1_545 S
O104 C90 1.258 . S
O105 La81 2.503 . S
O105 C90 1.256 1_556 S
O106 La81 2.521 . S
O106 C91 1.261 . S
O107 La81 2.628 . S
O107 C91 1.243 . S
O108 La81 2.554 . S
O108 C98 1.240 1_556 S
O109 La80 2.482 1_545 S
O109 La81 2.757 1_554 S
O109 C98 1.289 . S
O110 La81 2.470 1_565 S
O110 C99 1.258 . S
O111 La80 2.503 . S
O111 C99 1.256 1_554 S
H112 C84 0.930 . S
H113 C85 0.930 . S
H114 C87 0.931 . S
H115 C88 0.931 1_545 S
H116 C93 0.930 . S
H117 C94 0.930 . S
H118 C96 0.931 1_565 S
H119 C97 0.926 1_565 S
La120 C122 2.928 . S
La120 O140 2.521 . S
La120 O141 2.628 . S
La120 O142 2.554 . S
La120 O143 2.757 . S
La120 O144 2.470 . S
La120 O149 2.482 . S
La120 O151 2.503 . S
La121 C131 2.928 . S
La121 O143 2.482 . S
La121 O145 2.503 . S
La121 O146 2.521 . S
La121 O147 2.628 . S
La121 O148 2.554 . S
La121 O149 2.757 . S
La121 O150 2.470 . S
C122 La120 2.928 . S
C122 C123 1.503 . S
C122 O140 1.261 . S
C122 O141 1.243 . S
C123 C122 1.503 . S
C123 C124 1.393 1_554 S
C123 C128 1.374 1_554 S
C124 C123 1.393 1_556 S
C124 C125 1.382 . S
C124 H152 0.929 1_556 S
C125 C124 1.382 . S
C125 C126 1.376 . S
C125 H153 0.930 . S
C126 C125 1.376 . S
C126 C127 1.370 . S
C127 C126 1.370 . S
C127 C128 1.395 . S
C127 H154 0.929 . S
C128 C123 1.374 1_556 S
C128 C127 1.395 . S
C128 H155 0.930 1_556 S
C129 O142 1.240 . S
C129 O143 1.289 . S
C130 O144 1.258 . S
C130 O145 1.256 . S
C131 La121 2.928 . S
C131 C132 1.503 . S
C131 O146 1.261 . S
C131 O147 1.243 . S
C132 C131 1.503 . S
C132 C133 1.394 . S
C132 C137 1.373 . S
C133 C132 1.394 . S
C133 C134 1.380 . S
C133 H156 0.930 . S
C134 C133 1.380 . S
C134 C135 1.376 . S
C134 H157 0.930 . S
C135 C134 1.376 . S
C135 C136 1.370 . S
C136 C135 1.370 . S
C136 C137 1.396 . S
C136 H158 0.929 . S
C137 C132 1.373 . S
C137 C136 1.396 . S
C137 H159 0.929 . S
C138 O148 1.240 . S
C138 O149 1.289 . S
C139 O150 1.258 . S
C139 O151 1.256 . S
O140 La120 2.521 . S
O140 C122 1.261 . S
O141 La120 2.628 . S
O141 C122 1.243 . S
O142 La120 2.554 . S
O142 C129 1.240 . S
O143 La120 2.757 . S
O143 La121 2.482 . S
O143 C129 1.289 . S
O144 La120 2.470 . S
O144 C130 1.258 . S
O145 La121 2.503 . S
O145 C130 1.256 . S
O146 La121 2.521 . S
O146 C131 1.261 . S
O147 La121 2.628 . S
O147 C131 1.243 . S
O148 La121 2.554 . S
O148 C138 1.240 . S
O149 La120 2.482 . S
O149 La121 2.757 . S
O149 C138 1.289 . S
O150 La121 2.470 . S
O150 C139 1.258 . S
O151 La120 2.503 . S
O151 C139 1.256 . S
H152 C124 0.929 1_554 S
H153 C125 0.930 . S
H154 C127 0.929 . S
H155 C128 0.930 1_554 S
H156 C133 0.930 . S
H157 C134 0.930 . S
H158 C136 0.929 . S
H159 C137 0.929 . S
La160 C162 2.928 . S
La160 O180 2.521 . S
La160 O181 2.628 . S
La160 O182 2.554 . S
La160 O183 2.757 . S
La160 O184 2.470 . S
La160 O189 2.482 . S
La160 O191 2.503 . S
La161 C171 2.928 . S
La161 O183 2.482 . S
La161 O185 2.503 . S
La161 O186 2.521 . S
La161 O187 2.628 . S
La161 O188 2.554 . S
La161 O189 2.757 . S
La161 O190 2.470 . S
C162 La160 2.928 . S
C162 C163 1.503 . S
C162 O180 1.261 . S
C162 O181 1.243 . S
C163 C162 1.503 . S
C163 C164 1.394 . S
C163 C168 1.373 . S
C164 C163 1.394 . S
C164 C165 1.380 . S
C164 H192 0.930 . S
C165 C164 1.380 . S
C165 C166 1.376 . S
C165 H193 0.930 . S
C166 C165 1.376 . S
C166 C167 1.370 . S
C167 C166 1.370 . S
C167 C168 1.396 . S
C167 H194 0.929 . S
C168 C163 1.373 . S
C168 C167 1.396 . S
C168 H195 0.929 . S
C169 O182 1.240 . S
C169 O183 1.289 . S
C170 O184 1.258 . S
C170 O185 1.256 . S
C171 La161 2.928 . S
C171 C172 1.503 . S
C171 O186 1.261 . S
C171 O187 1.243 . S
C172 C171 1.503 . S
C172 C173 1.394 . S
C172 C177 1.373 1_554 S
C173 C172 1.394 . S
C173 C174 1.380 1_554 S
C173 H196 0.930 . S
C174 C173 1.380 1_556 S
C174 C175 1.376 . S
C174 H197 0.930 . S
C175 C174 1.376 . S
C175 C176 1.370 . S
C176 C175 1.370 . S
C176 C177 1.396 . S
C176 H198 0.929 . S
C177 C172 1.373 1_556 S
C177 C176 1.396 . S
C177 H199 0.929 1_556 S
C178 O188 1.240 . S
C178 O189 1.289 . S
C179 O190 1.258 . S
C179 O191 1.256 . S
O180 La160 2.521 . S
O180 C162 1.261 . S
O181 La160 2.628 . S
O181 C162 1.243 . S
O182 La160 2.554 . S
O182 C169 1.240 . S
O183 La160 2.757 . S
O183 La161 2.482 . S
O183 C169 1.289 . S
O184 La160 2.470 . S
O184 C170 1.258 . S
O185 La161 2.503 . S
O185 C170 1.256 . S
O186 La161 2.521 . S
O186 C171 1.261 . S
O187 La161 2.628 . S
O187 C171 1.243 . S
O188 La161 2.554 . S
O188 C178 1.240 . S
O189 La160 2.482 . S
O189 La161 2.757 . S
O189 C178 1.289 . S
O190 La161 2.470 . S
O190 C179 1.258 . S
O191 La160 2.503 . S
O191 C179 1.256 . S
H192 C164 0.930 . S
H193 C165 0.930 . S
H194 C167 0.929 . S
H195 C168 0.929 . S
H196 C173 0.930 . S
H197 C174 0.930 . S
H198 C176 0.929 . S
H199 C177 0.929 1_554 S
La200 C202 2.928 . S
La200 O220 2.521 . S
La200 O221 2.628 . S
La200 O222 2.554 . S
La200 O223 2.757 . S
La200 O224 2.470 . S
La200 O229 2.482 . S
La200 O231 2.503 . S
La201 C211 2.928 . S
La201 O223 2.482 . S
La201 O225 2.503 . S
La201 O226 2.521 . S
La201 O227 2.628 . S
La201 O228 2.554 . S
La201 O229 2.757 . S
La201 O230 2.470 . S
C202 La200 2.928 . S
C202 C203 1.503 . S
C202 O220 1.261 . S
C202 O221 1.243 . S
C203 C202 1.503 . S
C203 C204 1.394 . S
C203 C208 1.373 . S
C204 C203 1.394 . S
C204 C205 1.380 . S
C204 H232 0.930 . S
C205 C204 1.380 . S
C205 C206 1.376 . S
C205 H233 0.930 . S
C206 C205 1.376 . S
C206 C207 1.370 . S
C207 C206 1.370 . S
C207 C208 1.396 . S
C207 H234 0.929 . S
C208 C203 1.373 . S
C208 C207 1.396 . S
C208 H235 0.929 . S
C209 O222 1.240 . S
C209 O223 1.289 . S
C210 O224 1.258 . S
C210 O225 1.256 . S
C211 La201 2.928 . S
C211 C212 1.503 . S
C211 O226 1.261 . S
C211 O227 1.243 . S
C212 C211 1.503 . S
C212 C213 1.393 1_556 S
C212 C217 1.373 1_556 S
C213 C212 1.393 1_554 S
C213 C214 1.383 . S
C213 H236 0.928 1_554 S
C214 C213 1.383 . S
C214 C215 1.376 . S
C214 H237 0.930 . S
C215 C214 1.376 . S
C215 C216 1.370 . S
C216 C215 1.370 . S
C216 C217 1.396 . S
C216 H238 0.929 . S
C217 C212 1.373 1_554 S
C217 C216 1.396 . S
C217 H239 0.929 1_554 S
C218 O228 1.240 . S
C218 O229 1.289 . S
C219 O230 1.258 . S
C219 O231 1.256 . S
O220 La200 2.521 . S
O220 C202 1.261 . S
O221 La200 2.628 . S
O221 C202 1.243 . S
O222 La200 2.554 . S
O222 C209 1.240 . S
O223 La200 2.757 . S
O223 La201 2.482 . S
O223 C209 1.289 . S
O224 La200 2.470 . S
O224 C210 1.258 . S
O225 La201 2.503 . S
O225 C210 1.256 . S
O226 La201 2.521 . S
O226 C211 1.261 . S
O227 La201 2.628 . S
O227 C211 1.243 . S
O228 La201 2.554 . S
O228 C218 1.240 . S
O229 La200 2.482 . S
O229 La201 2.757 . S
O229 C218 1.289 . S
O230 La201 2.470 . S
O230 C219 1.258 . S
O231 La200 2.503 . S
O231 C219 1.256 . S
H232 C204 0.930 . S
H233 C205 0.930 . S
H234 C207 0.929 . S
H235 C208 0.929 . S
H236 C213 0.928 1_556 S
H237 C214 0.930 . S
H238 C216 0.929 . S
H239 C217 0.929 1_556 S
La240 C242 2.928 . S
La240 O260 2.521 . S
La240 O261 2.628 . S
La240 O262 2.554 . S
La240 O263 2.757 1_556 S
La240 O264 2.470 . S
La240 O269 2.482 . S
La240 O271 2.503 1_556 S
La241 C251 2.928 . S
La241 O263 2.482 . S
La241 O265 2.503 1_554 S
La241 O266 2.521 . S
La241 O267 2.628 . S
La241 O268 2.554 . S
La241 O269 2.757 1_554 S
La241 O270 2.470 . S
C242 La240 2.928 . S
C242 C243 1.503 . S
C242 O260 1.261 . S
C242 O261 1.243 . S
C243 C242 1.503 . S
C243 C244 1.394 . S
C243 C248 1.373 . S
C244 C243 1.394 . S
C244 C245 1.380 . S
C244 H272 0.930 . S
C245 C244 1.380 . S
C245 C246 1.376 . S
C245 H273 0.930 . S
C246 C245 1.376 . S
C246 C247 1.370 . S
C247 C246 1.370 . S
C247 C248 1.396 . S
C247 H274 0.929 . S
C248 C243 1.373 . S
C248 C247 1.396 . S
C248 H275 0.929 . S
C249 O262 1.240 1_554 S
C249 O263 1.289 . S
C250 O264 1.258 . S
C250 O265 1.256 . S
C251 La241 2.928 . S
C251 C252 1.503 . S
C251 O266 1.261 . S
C251 O267 1.243 . S
C252 C251 1.503 . S
C252 C253 1.394 . S
C252 C257 1.373 . S
C253 C252 1.394 . S
C253 C254 1.380 . S
C253 H276 0.930 . S
C254 C253 1.380 . S
C254 C255 1.376 . S
C254 H277 0.930 . S
C255 C254 1.376 . S
C255 C256 1.370 . S
C256 C255 1.370 . S
C256 C257 1.396 . S
C256 H278 0.929 . S
C257 C252 1.373 . S
C257 C256 1.396 . S
C257 H279 0.929 . S
C258 O268 1.240 1_556 S
C258 O269 1.289 . S
C259 O270 1.258 . S
C259 O271 1.256 . S
O260 La240 2.521 . S
O260 C242 1.261 . S
O261 La240 2.628 . S
O261 C242 1.243 . S
O262 La240 2.554 . S
O262 C249 1.240 1_556 S
O263 La240 2.757 1_554 S
O263 La241 2.482 . S
O263 C249 1.289 . S
O264 La240 2.470 . S
O264 C250 1.258 . S
O265 La241 2.503 1_556 S
O265 C250 1.256 . S
O266 La241 2.521 . S
O266 C251 1.261 . S
O267 La241 2.628 . S
O267 C251 1.243 . S
O268 La241 2.554 . S
O268 C258 1.240 1_554 S
O269 La240 2.482 . S
O269 La241 2.757 1_556 S
O269 C258 1.289 . S
O270 La241 2.470 . S
O270 C259 1.258 . S
O271 La240 2.503 1_554 S
O271 C259 1.256 . S
H272 C244 0.930 . S
H273 C245 0.930 . S
H274 C247 0.929 . S
H275 C248 0.929 . S
H276 C253 0.930 . S
H277 C254 0.930 . S
H278 C256 0.929 . S
H279 C257 0.929 . S
La280 C282 2.928 1_455 S
La280 O300 2.521 1_455 S
La280 O301 2.628 . S
La280 O302 2.554 1_455 S
La280 O303 2.757 1_455 S
La280 O304 2.470 1_455 S
La280 O309 2.482 . S
La280 O311 2.503 . S
La281 C291 2.928 1_655 S
La281 O303 2.482 . S
La281 O305 2.503 . S
La281 O306 2.521 1_655 S
La281 O307 2.628 . S
La281 O308 2.554 1_655 S
La281 O309 2.757 1_655 S
La281 O310 2.470 1_655 S
C282 La280 2.928 1_655 S
C282 C283 1.503 . S
C282 O300 1.261 . S
C282 O301 1.243 1_655 S
C283 C282 1.503 . S
C283 C284 1.394 . S
C283 C288 1.373 . S
C284 C283 1.394 . S
C284 C285 1.380 . S
C284 H312 0.930 . S
C285 C284 1.380 . S
C285 C286 1.376 . S
C285 H313 0.930 . S
C286 C285 1.376 . S
C286 C287 1.370 . S
C287 C286 1.370 . S
C287 C288 1.396 . S
C287 H314 0.929 . S
C288 C283 1.373 . S
C288 C287 1.396 . S
C288 H315 0.929 1_655 S
C289 O302 1.240 . S
C289 O303 1.289 . S
C290 O304 1.258 . S
C290 O305 1.256 . S
C291 La281 2.928 1_455 S
C291 C292 1.503 . S
C291 O306 1.261 . S
C291 O307 1.243 1_455 S
C292 C291 1.503 . S
C292 C293 1.394 . S
C292 C297 1.373 . S
C293 C292 1.394 . S
C293 C294 1.380 . S
C293 H316 0.930 . S
C294 C293 1.380 . S
C294 C295 1.376 . S
C294 H317 0.930 . S
C295 C294 1.376 . S
C295 C296 1.370 . S
C296 C295 1.370 . S
C296 C297 1.396 . S
C296 H318 0.929 . S
C297 C292 1.373 . S
C297 C296 1.396 . S
C297 H319 0.929 1_455 S
C298 O308 1.240 . S
C298 O309 1.289 . S
C299 O310 1.258 . S
C299 O311 1.256 . S
O300 La280 2.521 1_655 S
O300 C282 1.261 . S
O301 La280 2.628 . S
O301 C282 1.243 1_455 S
O302 La280 2.554 1_655 S
O302 C289 1.240 . S
O303 La280 2.757 1_655 S
O303 La281 2.482 . S
O303 C289 1.289 . S
O304 La280 2.470 1_655 S
O304 C290 1.258 . S
O305 La281 2.503 . S
O305 C290 1.256 . S
O306 La281 2.521 1_455 S
O306 C291 1.261 . S
O307 La281 2.628 . S
O307 C291 1.243 1_655 S
O308 La281 2.554 1_455 S
O308 C298 1.240 . S
O309 La280 2.482 . S
O309 La281 2.757 1_455 S
O309 C298 1.289 . S
O310 La281 2.470 1_455 S
O310 C299 1.258 . S
O311 La280 2.503 . S
O311 C299 1.256 . S
H312 C284 0.930 . S
H313 C285 0.930 . S
H314 C287 0.929 . S
H315 C288 0.929 1_455 S
H316 C293 0.930 . S
H317 C294 0.930 . S
H318 C296 0.929 . S
H319 C297 0.929 1_655 S
H320 C332 0.930 . S
H321 C334 0.930 . S
H322 C335 0.930 . S
H323 C339 0.959 . S
H324 C339 0.959 . S
H325 C339 0.961 . S
H326 C340 0.960 . S
H327 C340 0.961 . S
H328 C340 0.959 . S
H329 C343 0.929 . S
H330 C344 0.931 . S
H331 C346 0.930 . S
C332 H320 0.930 . S
C332 C333 1.399 . S
C332 C337 1.399 . S
C333 C332 1.399 . S
C333 C334 1.376 . S
C334 H321 0.930 . S
C334 C333 1.376 . S
C334 C335 1.388 . S
C335 H322 0.930 . S
C335 C334 1.388 . S
C335 C336 1.390 . S
C336 C335 1.390 . S
C336 C337 1.394 . S
C336 C342 1.465 . S
C337 C332 1.399 . S
C337 C336 1.394 . S
C337 C338 1.516 . S
C338 C337 1.516 . S
C338 C339 1.502 . S
C338 C340 1.561 . S
C338 C341 1.526 . S
C339 H323 0.959 . S
C339 H324 0.959 . S
C339 H325 0.961 . S
C339 C338 1.502 . S
C340 H326 0.960 . S
C340 H327 0.961 . S
C340 H328 0.959 . S
C340 C338 1.561 . S
C341 C338 1.526 . S
C341 C342 1.396 . S
C341 C346 1.390 . S
C342 C336 1.465 . S
C342 C341 1.396 . S
C342 C343 1.399 . S
C343 H329 0.929 . S
C343 C342 1.399 . S
C343 C344 1.385 . S
C344 H330 0.931 . S
C344 C343 1.385 . S
C344 C345 1.389 . S
C345 C344 1.389 . S
C345 C346 1.387 . S
C346 H331 0.930 . S
C346 C341 1.390 . S
C346 C345 1.387 . S
H347 C359 0.930 . S
H348 C361 0.930 . S
H349 C362 0.930 . S
H350 C366 0.959 . S
H351 C366 0.959 . S
H352 C366 0.961 . S
H353 C367 0.960 . S
H354 C367 0.961 . S
H355 C367 0.959 . S
H356 C370 0.929 . S
H357 C371 0.931 . S
H358 C373 0.930 . S
C359 H347 0.930 . S
C359 C360 1.399 . S
C359 C364 1.399 . S
C360 C359 1.399 . S
C360 C361 1.376 . S
C361 H348 0.930 . S
C361 C360 1.376 . S
C361 C362 1.388 . S
C362 H349 0.930 . S
C362 C361 1.388 . S
C362 C363 1.390 . S
C363 C362 1.390 . S
C363 C364 1.394 . S
C363 C369 1.465 . S
C364 C359 1.399 . S
C364 C363 1.394 . S
C364 C365 1.516 . S
C365 C364 1.516 . S
C365 C366 1.502 . S
C365 C367 1.561 . S
C365 C368 1.526 . S
C366 H350 0.959 . S
C366 H351 0.959 . S
C366 H352 0.961 . S
C366 C365 1.502 . S
C367 H353 0.960 . S
C367 H354 0.961 . S
C367 H355 0.959 . S
C367 C365 1.561 . S
C368 C365 1.526 . S
C368 C369 1.396 . S
C368 C373 1.390 . S
C369 C363 1.465 . S
C369 C368 1.396 . S
C369 C370 1.399 . S
C370 H356 0.929 . S
C370 C369 1.399 . S
C370 C371 1.385 . S
C371 H357 0.931 . S
C371 C370 1.385 . S
C371 C372 1.389 . S
C372 C371 1.389 . S
C372 C373 1.387 . S
C373 H358 0.930 . S
C373 C368 1.390 . S
C373 C372 1.387 . S
H374 C386 0.930 . S
H375 C388 0.930 . S
H376 C389 0.930 . S
H377 C393 0.959 . S
H378 C393 0.959 . S
H379 C393 0.961 . S
H380 C394 0.960 . S
H381 C394 0.961 . S
H382 C394 0.959 . S
H383 C397 0.929 . S
H384 C398 0.931 1_554 S
H385 C400 0.930 . S
C386 H374 0.930 . S
C386 C387 1.399 . S
C386 C391 1.399 . S
C387 C386 1.399 . S
C387 C388 1.376 . S
C388 H375 0.930 . S
C388 C387 1.376 . S
C388 C389 1.388 . S
C389 H376 0.930 . S
C389 C388 1.388 . S
C389 C390 1.390 . S
C390 C389 1.390 . S
C390 C391 1.394 . S
C390 C396 1.465 . S
C391 C386 1.399 . S
C391 C390 1.394 . S
C391 C392 1.516 . S
C392 C391 1.516 . S
C392 C393 1.502 . S
C392 C394 1.561 . S
C392 C395 1.526 . S
C393 H377 0.959 . S
C393 H378 0.959 . S
C393 H379 0.961 . S
C393 C392 1.502 . S
C394 H380 0.960 . S
C394 H381 0.961 . S
C394 H382 0.959 . S
C394 C392 1.561 . S
C395 C392 1.526 . S
C395 C396 1.396 . S
C395 C400 1.390 . S
C396 C390 1.465 . S
C396 C395 1.396 . S
C396 C397 1.399 . S
C397 H383 0.929 . S
C397 C396 1.399 . S
C397 C398 1.385 . S
C398 H384 0.931 1_556 S
C398 C397 1.385 . S
C398 C399 1.389 . S
C399 C398 1.389 . S
C399 C400 1.387 . S
C400 H385 0.930 . S
C400 C395 1.390 . S
C400 C399 1.387 . S
H401 C413 0.930 . S
H402 C415 0.930 . S
H403 C416 0.930 . S
H404 C420 0.959 . S
H405 C420 0.959 . S
H406 C420 0.961 . S
H407 C421 0.960 . S
H408 C421 0.961 . S
H409 C421 0.959 . S
H410 C424 0.929 . S
H411 C425 0.931 . S
H412 C427 0.930 . S
C413 H401 0.930 . S
C413 C414 1.399 . S
C413 C418 1.399 . S
C414 C413 1.399 . S
C414 C415 1.376 . S
C415 H402 0.930 . S
C415 C414 1.376 . S
C415 C416 1.388 . S
C416 H403 0.930 . S
C416 C415 1.388 . S
C416 C417 1.390 . S
C417 C416 1.390 . S
C417 C418 1.394 . S
C417 C423 1.465 . S
C418 C413 1.399 . S
C418 C417 1.394 . S
C418 C419 1.516 . S
C419 C418 1.516 . S
C419 C420 1.502 . S
C419 C421 1.561 . S
C419 C422 1.526 . S
C420 H404 0.959 . S
C420 H405 0.959 . S
C420 H406 0.961 . S
C420 C419 1.502 . S
C421 H407 0.960 . S
C421 H408 0.961 . S
C421 H409 0.959 . S
C421 C419 1.561 . S
C422 C419 1.526 . S
C422 C423 1.396 . S
C422 C427 1.390 . S
C423 C417 1.465 . S
C423 C422 1.396 . S
C423 C424 1.399 . S
C424 H410 0.929 . S
C424 C423 1.399 . S
C424 C425 1.385 . S
C425 H411 0.931 . S
C425 C424 1.385 . S
C425 C426 1.389 . S
C426 C425 1.389 . S
C426 C427 1.387 . S
C427 H412 0.930 . S
C427 C422 1.390 . S
C427 C426 1.387 . S
H428 C440 0.930 . S
H429 C442 0.930 . S
H430 C443 0.930 . S
H431 C447 0.959 . S
H432 C447 0.959 . S
H433 C447 0.961 . S
H434 C448 0.960 . S
H435 C448 0.961 . S
H436 C448 0.959 . S
H437 C451 0.929 . S
H438 C452 0.931 . S
H439 C454 0.930 . S
C440 H428 0.930 . S
C440 C441 1.399 . S
C440 C445 1.399 . S
C441 C440 1.399 . S
C441 C442 1.376 . S
C442 H429 0.930 . S
C442 C441 1.376 . S
C442 C443 1.388 . S
C443 H430 0.930 . S
C443 C442 1.388 . S
C443 C444 1.390 . S
C444 C443 1.390 . S
C444 C445 1.394 . S
C444 C450 1.465 . S
C445 C440 1.399 . S
C445 C444 1.394 . S
C445 C446 1.516 . S
C446 C445 1.516 . S
C446 C447 1.502 . S
C446 C448 1.561 . S
C446 C449 1.526 . S
C447 H431 0.959 . S
C447 H432 0.959 . S
C447 H433 0.961 . S
C447 C446 1.502 . S
C448 H434 0.960 . S
C448 H435 0.961 . S
C448 H436 0.959 . S
C448 C446 1.561 . S
C449 C446 1.526 . S
C449 C450 1.396 . S
C449 C454 1.390 . S
C450 C444 1.465 . S
C450 C449 1.396 . S
C450 C451 1.399 . S
C451 H437 0.929 . S
C451 C450 1.399 . S
C451 C452 1.385 . S
C452 H438 0.931 . S
C452 C451 1.385 . S
C452 C453 1.389 . S
C453 C452 1.389 . S
C453 C454 1.387 . S
C454 H439 0.930 . S
C454 C449 1.390 . S
C454 C453 1.387 . S
H455 C467 0.930 . S
H456 C469 0.930 . S
H457 C470 0.930 . S
H458 C474 0.959 . S
H459 C474 0.959 . S
H460 C474 0.961 . S
H461 C475 0.960 . S
H462 C475 0.961 . S
H463 C475 0.959 . S
H464 C478 0.929 . S
H465 C479 0.931 . S
H466 C481 0.930 . S
C467 H455 0.930 . S
C467 C468 1.399 . S
C467 C472 1.399 . S
C468 C467 1.399 . S
C468 C469 1.376 . S
C469 H456 0.930 . S
C469 C468 1.376 . S
C469 C470 1.388 . S
C470 H457 0.930 . S
C470 C469 1.388 . S
C470 C471 1.390 . S
C471 C470 1.390 . S
C471 C472 1.394 . S
C471 C477 1.465 . S
C472 C467 1.399 . S
C472 C471 1.394 . S
C472 C473 1.516 . S
C473 C472 1.516 . S
C473 C474 1.502 . S
C473 C475 1.561 . S
C473 C476 1.526 . S
C474 H458 0.959 . S
C474 H459 0.959 . S
C474 H460 0.961 . S
C474 C473 1.502 . S
C475 H461 0.960 . S
C475 H462 0.961 . S
C475 H463 0.959 . S
C475 C473 1.561 . S
C476 C473 1.526 . S
C476 C477 1.396 . S
C476 C481 1.390 . S
C477 C471 1.465 . S
C477 C476 1.396 . S
C477 C478 1.399 . S
C478 H464 0.929 . S
C478 C477 1.399 . S
C478 C479 1.385 . S
C479 H465 0.931 . S
C479 C478 1.385 . S
C479 C480 1.389 . S
C480 C479 1.389 . S
C480 C481 1.387 . S
C481 H466 0.930 . S
C481 C476 1.390 . S
C481 C480 1.387 . S
H482 C494 0.930 . S
H483 C496 0.930 . S
H484 C497 0.930 . S
H485 C501 0.959 . S
H486 C501 0.959 . S
H487 C501 0.961 . S
H488 C502 0.960 . S
H489 C502 0.961 1_556 S
H490 C502 0.959 . S
H491 C505 0.929 . S
H492 C506 0.931 . S
H493 C508 0.930 . S
C494 H482 0.930 . S
C494 C495 1.399 . S
C494 C499 1.399 . S
C495 C494 1.399 . S
C495 C496 1.376 . S
C496 H483 0.930 . S
C496 C495 1.376 . S
C496 C497 1.388 . S
C497 H484 0.930 . S
C497 C496 1.388 . S
C497 C498 1.390 . S
C498 C497 1.390 . S
C498 C499 1.394 . S
C498 C504 1.465 . S
C499 C494 1.399 . S
C499 C498 1.394 . S
C499 C500 1.516 . S
C500 C499 1.516 . S
C500 C501 1.502 . S
C500 C502 1.561 . S
C500 C503 1.526 . S
C501 H485 0.959 . S
C501 H486 0.959 . S
C501 H487 0.961 . S
C501 C500 1.502 . S
C502 H488 0.960 . S
C502 H489 0.961 1_554 S
C502 H490 0.959 . S
C502 C500 1.561 . S
C503 C500 1.526 . S
C503 C504 1.396 . S
C503 C508 1.390 . S
C504 C498 1.465 . S
C504 C503 1.396 . S
C504 C505 1.399 . S
C505 H491 0.929 . S
C505 C504 1.399 . S
C505 C506 1.385 . S
C506 H492 0.931 . S
C506 C505 1.385 . S
C506 C507 1.389 . S
C507 C506 1.389 . S
C507 C508 1.387 . S
C508 H493 0.930 . S
C508 C503 1.390 . S
C508 C507 1.387 . S
H509 C521 0.930 . S
H510 C523 0.930 . S
H511 C524 0.930 . S
H512 C528 0.959 . S
H513 C528 0.959 . S
H514 C528 0.961 . S
H515 C529 0.960 . S
H516 C529 0.961 . S
H517 C529 0.959 . S
H518 C532 0.929 . S
H519 C533 0.909 1_554 S
H520 C535 0.930 . S
C521 H509 0.930 . S
C521 C522 1.399 . S
C521 C526 1.399 . S
C522 C521 1.399 . S
C522 C523 1.376 . S
C523 H510 0.930 . S
C523 C522 1.376 . S
C523 C524 1.388 . S
C524 H511 0.930 . S
C524 C523 1.388 . S
C524 C525 1.390 . S
C525 C524 1.390 . S
C525 C526 1.394 . S
C525 C531 1.465 . S
C526 C521 1.399 . S
C526 C525 1.394 . S
C526 C527 1.516 . S
C527 C526 1.516 . S
C527 C528 1.502 . S
C527 C529 1.561 . S
C527 C530 1.526 . S
C528 H512 0.959 . S
C528 H513 0.959 . S
C528 H514 0.961 . S
C528 C527 1.502 . S
C529 H515 0.960 . S
C529 H516 0.961 . S
C529 H517 0.959 . S
C529 C527 1.561 . S
C530 C527 1.526 . S
C530 C531 1.396 . S
C530 C535 1.390 . S
C531 C525 1.465 . S
C531 C530 1.396 . S
C531 C532 1.399 . S
C532 H518 0.929 . S
C532 C531 1.399 . S
C532 C533 1.385 . S
C533 H519 0.909 1_556 S
C533 C532 1.385 . S
C533 C534 1.389 . S
C534 C533 1.389 . S
C534 C535 1.387 . S
C535 H520 0.930 . S
C535 C530 1.390 . S
C535 C534 1.387 . S
H536 C548 0.930 . S
H537 C550 0.930 . S
H538 C551 0.930 . S
H539 C555 0.959 . S
H540 C555 0.959 . S
H541 C555 0.961 . S
H542 C556 0.960 . S
H543 C556 0.961 . S
H544 C556 0.959 . S
H545 C559 0.929 . S
H546 C560 0.931 . S
H547 C562 0.930 . S
C548 H536 0.930 . S
C548 C549 1.399 . S
C548 C553 1.399 . S
C549 C548 1.399 . S
C549 C550 1.376 . S
C550 H537 0.930 . S
C550 C549 1.376 . S
C550 C551 1.388 . S
C551 H538 0.930 . S
C551 C550 1.388 . S
C551 C552 1.390 . S
C552 C551 1.390 . S
C552 C553 1.394 . S
C552 C558 1.465 . S
C553 C548 1.399 . S
C553 C552 1.394 . S
C553 C554 1.516 . S
C554 C553 1.516 . S
C554 C555 1.502 . S
C554 C556 1.561 . S
C554 C557 1.526 . S
C555 H539 0.959 . S
C555 H540 0.959 . S
C555 H541 0.961 . S
C555 C554 1.502 . S
C556 H542 0.960 . S
C556 H543 0.961 . S
C556 H544 0.959 . S
C556 C554 1.561 . S
C557 C554 1.526 . S
C557 C558 1.396 . S
C557 C562 1.390 . S
C558 C552 1.465 . S
C558 C557 1.396 . S
C558 C559 1.399 . S
C559 H545 0.929 . S
C559 C558 1.399 . S
C559 C560 1.385 . S
C560 H546 0.931 . S
C560 C559 1.385 . S
C560 C561 1.389 . S
C561 C560 1.389 . S
C561 C562 1.387 . S
C562 H547 0.930 . S
C562 C557 1.390 . S
C562 C561 1.387 . S
H563 C575 0.930 . S
H564 C577 0.930 . S
H565 C578 0.930 . S
H566 C582 0.959 . S
H567 C582 0.959 . S
H568 C582 0.961 . S
H569 C583 0.960 . S
H570 C583 0.961 . S
H571 C583 0.959 . S
H572 C586 0.929 . S
H573 C587 0.931 . S
H574 C589 0.930 . S
C575 H563 0.930 . S
C575 C576 1.399 . S
C575 C580 1.399 . S
C576 C575 1.399 . S
C576 C577 1.376 . S
C577 H564 0.930 . S
C577 C576 1.376 . S
C577 C578 1.388 . S
C578 H565 0.930 . S
C578 C577 1.388 . S
C578 C579 1.390 . S
C579 C578 1.390 . S
C579 C580 1.394 . S
C579 C585 1.465 . S
C580 C575 1.399 . S
C580 C579 1.394 . S
C580 C581 1.516 . S
C581 C580 1.516 . S
C581 C582 1.502 . S
C581 C583 1.561 . S
C581 C584 1.526 . S
C582 H566 0.959 . S
C582 H567 0.959 . S
C582 H568 0.961 . S
C582 C581 1.502 . S
C583 H569 0.960 . S
C583 H570 0.961 . S
C583 H571 0.959 . S
C583 C581 1.561 . S
C584 C581 1.526 . S
C584 C585 1.396 . S
C584 C589 1.390 . S
C585 C579 1.465 . S
C585 C584 1.396 . S
C585 C586 1.399 . S
C586 H572 0.929 . S
C586 C585 1.399 . S
C586 C587 1.385 . S
C587 H573 0.931 . S
C587 C586 1.385 . S
C587 C588 1.389 . S
C588 C587 1.389 . S
C588 C589 1.387 . S
C589 H574 0.930 . S
C589 C584 1.390 . S
C589 C588 1.387 . S
H590 C602 0.930 . S
H591 C604 0.930 . S
H592 C605 0.930 . S
H593 C609 0.959 . S
H594 C609 0.959 . S
H595 C609 0.961 . S
H596 C610 0.960 . S
H597 C610 0.961 . S
H598 C610 0.959 . S
H599 C613 0.929 . S
H600 C614 0.931 . S
H601 C616 0.930 . S
C602 H590 0.930 . S
C602 C603 1.399 . S
C602 C607 1.399 . S
C603 C602 1.399 . S
C603 C604 1.376 . S
C604 H591 0.930 . S
C604 C603 1.376 . S
C604 C605 1.388 . S
C605 H592 0.930 . S
C605 C604 1.388 . S
C605 C606 1.390 . S
C606 C605 1.390 . S
C606 C607 1.394 . S
C606 C612 1.465 . S
C607 C602 1.399 . S
C607 C606 1.394 . S
C607 C608 1.516 . S
C608 C607 1.516 . S
C608 C609 1.502 . S
C608 C610 1.561 . S
C608 C611 1.526 . S
C609 H593 0.959 . S
C609 H594 0.959 . S
C609 H595 0.961 . S
C609 C608 1.502 . S
C610 H596 0.960 . S
C610 H597 0.961 . S
C610 H598 0.959 . S
C610 C608 1.561 . S
C611 C608 1.526 . S
C611 C612 1.396 . S
C611 C616 1.390 . S
C612 C606 1.465 . S
C612 C611 1.396 . S
C612 C613 1.399 . S
C613 H599 0.929 . S
C613 C612 1.399 . S
C613 C614 1.385 . S
C614 H600 0.931 . S
C614 C613 1.385 . S
C614 C615 1.389 . S
C615 C614 1.389 . S
C615 C616 1.387 . S
C616 H601 0.930 . S
C616 C611 1.390 . S
C616 C615 1.387 . S
H617 C629 0.930 . S
H618 C631 0.930 . S
H619 C632 0.930 . S
H620 C636 0.959 . S
H621 C636 0.959 . S
H622 C636 0.961 . S
H623 C637 0.960 . S
H624 C637 0.961 . S
H625 C637 0.959 . S
H626 C640 0.929 . S
H627 C641 0.931 . S
H628 C643 0.930 . S
C629 H617 0.930 . S
C629 C630 1.399 . S
C629 C634 1.399 . S
C630 C629 1.399 . S
C630 C631 1.376 . S
C631 H618 0.930 . S
C631 C630 1.376 . S
C631 C632 1.388 . S
C632 H619 0.930 . S
C632 C631 1.388 . S
C632 C633 1.390 . S
C633 C632 1.390 . S
C633 C634 1.394 . S
C633 C639 1.465 . S
C634 C629 1.399 . S
C634 C633 1.394 . S
C634 C635 1.516 . S
C635 C634 1.516 . S
C635 C636 1.502 . S
C635 C637 1.561 . S
C635 C638 1.526 . S
C636 H620 0.959 . S
C636 H621 0.959 . S
C636 H622 0.961 . S
C636 C635 1.502 . S
C637 H623 0.960 . S
C637 H624 0.961 . S
C637 H625 0.959 . S
C637 C635 1.561 . S
C638 C635 1.526 . S
C638 C639 1.396 . S
C638 C643 1.390 . S
C639 C633 1.465 . S
C639 C638 1.396 . S
C639 C640 1.399 . S
C640 H626 0.929 . S
C640 C639 1.399 . S
C640 C641 1.385 . S
C641 H627 0.931 . S
C641 C640 1.385 . S
C641 C642 1.389 . S
C642 C641 1.389 . S
C642 C643 1.387 . S
C643 H628 0.930 . S
C643 C638 1.390 . S
C643 C642 1.387 . S
H644 C656 0.930 . S
H645 C658 0.930 . S
H646 C659 0.930 . S
H647 C663 0.959 . S
H648 C663 0.959 . S
H649 C663 0.961 . S
H650 C664 0.960 . S
H651 C664 0.961 . S
H652 C664 0.959 . S
H653 C667 0.929 . S
H654 C668 0.931 . S
H655 C670 0.930 . S
C656 H644 0.930 . S
C656 C657 1.399 . S
C656 C661 1.399 . S
C657 C656 1.399 . S
C657 C658 1.376 . S
C658 H645 0.930 . S
C658 C657 1.376 . S
C658 C659 1.388 . S
C659 H646 0.930 . S
C659 C658 1.388 . S
C659 C660 1.390 . S
C660 C659 1.390 . S
C660 C661 1.394 . S
C660 C666 1.465 . S
C661 C656 1.399 . S
C661 C660 1.394 . S
C661 C662 1.516 . S
C662 C661 1.516 . S
C662 C663 1.502 . S
C662 C664 1.561 . S
C662 C665 1.526 . S
C663 H647 0.959 . S
C663 H648 0.959 . S
C663 H649 0.961 . S
C663 C662 1.502 . S
C664 H650 0.960 . S
C664 H651 0.961 . S
C664 H652 0.959 . S
C664 C662 1.561 . S
C665 C662 1.526 . S
C665 C666 1.396 . S
C665 C670 1.390 . S
C666 C660 1.465 . S
C666 C665 1.396 . S
C666 C667 1.399 . S
C667 H653 0.929 . S
C667 C666 1.399 . S
C667 C668 1.385 . S
C668 H654 0.931 . S
C668 C667 1.385 . S
C668 C669 1.389 . S
C669 C668 1.389 . S
C669 C670 1.387 . S
C670 H655 0.930 . S
C670 C665 1.390 . S
C670 C669 1.387 . S
H671 C683 0.930 . S
H672 C685 0.930 . S
H673 C686 0.930 . S
H674 C690 0.959 . S
H675 C690 0.959 . S
H676 C690 0.961 . S
H677 C691 0.960 . S
H678 C691 0.961 . S
H679 C691 0.959 . S
H680 C694 0.929 . S
H681 C695 0.931 . S
H682 C697 0.930 . S
C683 H671 0.930 . S
C683 C684 1.399 . S
C683 C688 1.399 . S
C684 C683 1.399 . S
C684 C685 1.376 . S
C685 H672 0.930 . S
C685 C684 1.376 . S
C685 C686 1.388 . S
C686 H673 0.930 . S
C686 C685 1.388 . S
C686 C687 1.390 . S
C687 C686 1.390 . S
C687 C688 1.394 . S
C687 C693 1.465 . S
C688 C683 1.399 . S
C688 C687 1.394 . S
C688 C689 1.516 . S
C689 C688 1.516 . S
C689 C690 1.502 . S
C689 C691 1.561 . S
C689 C692 1.526 . S
C690 H674 0.959 . S
C690 H675 0.959 . S
C690 H676 0.961 . S
C690 C689 1.502 . S
C691 H677 0.960 . S
C691 H678 0.961 . S
C691 H679 0.959 . S
C691 C689 1.561 . S
C692 C689 1.526 . S
C692 C693 1.396 . S
C692 C697 1.390 . S
C693 C687 1.465 . S
C693 C692 1.396 . S
C693 C694 1.399 . S
C694 H680 0.929 . S
C694 C693 1.399 . S
C694 C695 1.385 . S
C695 H681 0.931 . S
C695 C694 1.385 . S
C695 C696 1.389 . S
C696 C695 1.389 . S
C696 C697 1.387 . S
C697 H682 0.930 . S
C697 C692 1.390 . S
C697 C696 1.387 . S
H698 C710 0.930 . S
H699 C712 0.930 . S
H700 C713 0.930 . S
H701 C717 0.959 . S
H702 C717 0.959 . S
H703 C717 0.961 . S
H704 C718 0.960 . S
H705 C718 0.961 . S
H706 C718 0.959 . S
H707 C721 0.929 . S
H708 C722 0.931 . S
H709 C724 0.930 . S
C710 H698 0.930 . S
C710 C711 1.399 . S
C710 C715 1.399 . S
C711 C710 1.399 . S
C711 C712 1.376 . S
C712 H699 0.930 . S
C712 C711 1.376 . S
C712 C713 1.388 . S
C713 H700 0.930 . S
C713 C712 1.388 . S
C713 C714 1.390 . S
C714 C713 1.390 . S
C714 C715 1.394 . S
C714 C720 1.465 . S
C715 C710 1.399 . S
C715 C714 1.394 . S
C715 C716 1.516 . S
C716 C715 1.516 . S
C716 C717 1.502 . S
C716 C718 1.561 . S
C716 C719 1.526 . S
C717 H701 0.959 . S
C717 H702 0.959 . S
C717 H703 0.961 . S
C717 C716 1.502 . S
C718 H704 0.960 . S
C718 H705 0.961 . S
C718 H706 0.959 . S
C718 C716 1.561 . S
C719 C716 1.526 . S
C719 C720 1.396 . S
C719 C724 1.390 . S
C720 C714 1.465 . S
C720 C719 1.396 . S
C720 C721 1.399 . S
C721 H707 0.929 . S
C721 C720 1.399 . S
C721 C722 1.385 . S
C722 H708 0.931 . S
C722 C721 1.385 . S
C722 C723 1.389 . S
C723 C722 1.389 . S
C723 C724 1.387 . S
C724 H709 0.930 . S
C724 C719 1.390 . S
C724 C723 1.387 . S
H725 C737 0.930 . S
H726 C739 0.930 . S
H727 C740 0.930 . S
H728 C744 0.959 . S
H729 C744 0.959 . S
H730 C744 0.961 . S
H731 C745 0.960 . S
H732 C745 0.961 . S
H733 C745 0.959 . S
H734 C748 0.929 . S
H735 C749 0.931 . S
H736 C751 0.930 . S
C737 H725 0.930 . S
C737 C738 1.399 . S
C737 C742 1.399 . S
C738 C737 1.399 . S
C738 C739 1.376 . S
C739 H726 0.930 . S
C739 C738 1.376 . S
C739 C740 1.388 . S
C740 H727 0.930 . S
C740 C739 1.388 . S
C740 C741 1.390 . S
C741 C740 1.390 . S
C741 C742 1.394 . S
C741 C747 1.465 . S
C742 C737 1.399 . S
C742 C741 1.394 . S
C742 C743 1.516 . S
C743 C742 1.516 . S
C743 C744 1.502 . S
C743 C745 1.561 . S
C743 C746 1.526 . S
C744 H728 0.959 . S
C744 H729 0.959 . S
C744 H730 0.961 . S
C744 C743 1.502 . S
C745 H731 0.960 . S
C745 H732 0.961 . S
C745 H733 0.959 . S
C745 C743 1.561 . S
C746 C743 1.526 . S
C746 C747 1.396 . S
C746 C751 1.390 . S
C747 C741 1.465 . S
C747 C746 1.396 . S
C747 C748 1.399 . S
C748 H734 0.929 . S
C748 C747 1.399 . S
C748 C749 1.385 . S
C749 H735 0.931 . S
C749 C748 1.385 . S
C749 C750 1.389 . S
C750 C749 1.389 . S
C750 C751 1.387 . S
C751 H736 0.930 . S
C751 C746 1.390 . S
C751 C750 1.387 . S
H752 C764 0.930 . S
H753 C766 0.930 . S
H754 C767 0.930 . S
H755 C771 0.959 . S
H756 C771 0.959 1_554 S
H757 C771 0.961 . S
H758 C772 0.960 . S
H759 C772 0.961 1_554 S
H760 C772 0.959 . S
H761 C775 0.929 . S
H762 C776 0.931 . S
H763 C778 0.930 . S
C764 H752 0.930 . S
C764 C765 1.399 1_545 S
C764 C769 1.399 . S
C765 C764 1.399 1_565 S
C765 C766 1.376 . S
C766 H753 0.930 . S
C766 C765 1.376 . S
C766 C767 1.388 . S
C767 H754 0.930 . S
C767 C766 1.388 . S
C767 C768 1.390 . S
C768 C767 1.390 . S
C768 C769 1.394 1_565 S
C768 C774 1.465 1_556 S
C769 C764 1.399 . S
C769 C768 1.394 1_545 S
C769 C770 1.516 1_655 S
C770 C769 1.516 1_455 S
C770 C771 1.502 . S
C770 C772 1.561 1_455 S
C770 C773 1.526 1_556 S
C771 H755 0.959 . S
C771 H756 0.959 1_556 S
C771 H757 0.961 . S
C771 C770 1.502 . S
C772 H758 0.960 . S
C772 H759 0.961 1_556 S
C772 H760 0.959 . S
C772 C770 1.561 1_655 S
C773 C770 1.526 1_554 S
C773 C774 1.396 1_445 S
C773 C778 1.390 . S
C774 C768 1.465 1_554 S
C774 C773 1.396 1_665 S
C774 C775 1.399 . S
C775 H761 0.929 . S
C775 C774 1.399 . S
C775 C776 1.385 1_655 S
C776 H762 0.931 . S
C776 C775 1.385 1_455 S
C776 C777 1.389 . S
C777 C776 1.389 . S
C777 C778 1.387 1_565 S
C778 H763 0.930 . S
C778 C773 1.390 . S
C778 C777 1.387 1_545 S
H779 C791 0.930 . S
H780 C793 0.930 . S
H781 C794 0.930 . S
H782 C798 0.959 . S
H783 C798 0.959 . S
H784 C798 0.961 . S
H785 C799 0.960 . S
H786 C799 0.961 . S
H787 C799 0.959 . S
H788 C802 0.929 . S
H789 C803 0.931 . S
H790 C805 0.930 . S
C791 H779 0.930 . S
C791 C792 1.399 . S
C791 C796 1.399 . S
C792 C791 1.399 . S
C792 C793 1.376 . S
C793 H780 0.930 . S
C793 C792 1.376 . S
C793 C794 1.388 . S
C794 H781 0.930 . S
C794 C793 1.388 . S
C794 C795 1.390 . S
C795 C794 1.390 . S
C795 C796 1.394 . S
C795 C801 1.465 . S
C796 C791 1.399 . S
C796 C795 1.394 . S
C796 C797 1.516 . S
C797 C796 1.516 . S
C797 C798 1.502 . S
C797 C799 1.561 . S
C797 C800 1.526 . S
C798 H782 0.959 . S
C798 H783 0.959 . S
C798 H784 0.961 . S
C798 C797 1.502 . S
C799 H785 0.960 . S
C799 H786 0.961 . S
C799 H787 0.959 . S
C799 C797 1.561 . S
C800 C797 1.526 . S
C800 C801 1.396 . S
C800 C805 1.390 . S
C801 C795 1.465 . S
C801 C800 1.396 . S
C801 C802 1.399 . S
C802 H788 0.929 . S
C802 C801 1.399 . S
C802 C803 1.385 . S
C803 H789 0.931 . S
C803 C802 1.385 . S
C803 C804 1.389 . S
C804 C803 1.389 . S
C804 C805 1.387 . S
C805 H790 0.930 . S
C805 C800 1.390 . S
C805 C804 1.387 . S
H806 C818 0.930 . S
H807 C820 0.930 . S
H808 C821 0.930 . S
H809 C825 0.959 . S
H810 C825 0.959 . S
H811 C825 0.961 . S
H812 C826 0.960 . S
H813 C826 0.961 . S
H814 C826 0.959 . S
H815 C829 0.929 . S
H816 C830 0.931 . S
H817 C832 0.930 . S
C818 H806 0.930 . S
C818 C819 1.399 . S
C818 C823 1.399 . S
C819 C818 1.399 . S
C819 C820 1.376 1_545 S
C820 H807 0.930 . S
C820 C819 1.376 1_565 S
C820 C821 1.388 . S
C821 H808 0.930 . S
C821 C820 1.388 . S
C821 C822 1.390 . S
C822 C821 1.390 . S
C822 C823 1.394 1_565 S
C822 C828 1.465 . S
C823 C818 1.399 . S
C823 C822 1.394 1_545 S
C823 C824 1.516 . S
C824 C823 1.516 . S
C824 C825 1.502 . S
C824 C826 1.561 . S
C824 C827 1.526 . S
C825 H809 0.959 . S
C825 H810 0.959 . S
C825 H811 0.961 . S
C825 C824 1.502 . S
C826 H812 0.960 . S
C826 H813 0.961 . S
C826 H814 0.959 . S
C826 C824 1.561 . S
C827 C824 1.526 . S
C827 C828 1.396 1_545 S
C827 C832 1.390 . S
C828 C822 1.465 . S
C828 C827 1.396 1_565 S
C828 C829 1.399 . S
C829 H815 0.929 . S
C829 C828 1.399 . S
C829 C830 1.385 . S
C830 H816 0.931 . S
C830 C829 1.385 . S
C830 C831 1.389 . S
C831 C830 1.389 . S
C831 C832 1.387 1_565 S
C832 H817 0.930 . S
C832 C827 1.390 . S
C832 C831 1.387 1_545 S
H833 C845 0.930 . S
H834 C847 0.930 . S
H835 C848 0.930 . S
H836 C852 0.959 . S
H837 C852 0.959 . S
H838 C852 0.961 . S
H839 C853 0.960 . S
H840 C853 0.961 . S
H841 C853 0.959 . S
H842 C856 0.929 . S
H843 C857 0.931 . S
H844 C859 0.930 . S
C845 H833 0.930 . S
C845 C846 1.399 . S
C845 C850 1.399 . S
C846 C845 1.399 . S
C846 C847 1.376 . S
C847 H834 0.930 . S
C847 C846 1.376 . S
C847 C848 1.388 . S
C848 H835 0.930 . S
C848 C847 1.388 . S
C848 C849 1.390 . S
C849 C848 1.390 . S
C849 C850 1.394 . S
C849 C855 1.465 . S
C850 C845 1.399 . S
C850 C849 1.394 . S
C850 C851 1.516 . S
C851 C850 1.516 . S
C851 C852 1.502 . S
C851 C853 1.561 . S
C851 C854 1.526 . S
C852 H836 0.959 . S
C852 H837 0.959 . S
C852 H838 0.961 . S
C852 C851 1.502 . S
C853 H839 0.960 . S
C853 H840 0.961 . S
C853 H841 0.959 . S
C853 C851 1.561 . S
C854 C851 1.526 . S
C854 C855 1.396 . S
C854 C859 1.390 . S
C855 C849 1.465 . S
C855 C854 1.396 . S
C855 C856 1.399 . S
C856 H842 0.929 . S
C856 C855 1.399 . S
C856 C857 1.385 . S
C857 H843 0.931 . S
C857 C856 1.385 . S
C857 C858 1.389 . S
C858 C857 1.389 . S
C858 C859 1.387 . S
C859 H844 0.930 . S
C859 C854 1.390 . S
C859 C858 1.387 . S
H860 C872 0.930 . S
H861 C874 0.930 . S
H862 C875 0.930 . S
H863 C879 0.959 . S
H864 C879 0.959 . S
H865 C879 0.961 . S
H866 C880 0.960 . S
H867 C880 0.961 . S
H868 C880 0.959 . S
H869 C883 0.929 . S
H870 C884 0.931 . S
H871 C886 0.930 . S
C872 H860 0.930 . S
C872 C873 1.399 . S
C872 C877 1.399 . S
C873 C872 1.399 . S
C873 C874 1.376 . S
C874 H861 0.930 . S
C874 C873 1.376 . S
C874 C875 1.388 . S
C875 H862 0.930 . S
C875 C874 1.388 . S
C875 C876 1.390 . S
C876 C875 1.390 . S
C876 C877 1.394 . S
C876 C882 1.465 . S
C877 C872 1.399 . S
C877 C876 1.394 . S
C877 C878 1.516 . S
C878 C877 1.516 . S
C878 C879 1.502 . S
C878 C880 1.561 . S
C878 C881 1.526 . S
C879 H863 0.959 . S
C879 H864 0.959 . S
C879 H865 0.961 . S
C879 C878 1.502 . S
C880 H866 0.960 . S
C880 H867 0.961 . S
C880 H868 0.959 . S
C880 C878 1.561 . S
C881 C878 1.526 . S
C881 C882 1.396 . S
C881 C886 1.390 . S
C882 C876 1.465 . S
C882 C881 1.396 . S
C882 C883 1.399 . S
C883 H869 0.929 . S
C883 C882 1.399 . S
C883 C884 1.385 . S
C884 H870 0.931 . S
C884 C883 1.385 . S
C884 C885 1.389 . S
C885 C884 1.389 . S
C885 C886 1.387 . S
C886 H871 0.930 . S
C886 C881 1.390 . S
C886 C885 1.387 . S
H887 C899 0.930 . S
H888 C901 0.930 . S
H889 C902 0.930 . S
H890 C906 0.959 . S
H891 C906 0.959 . S
H892 C906 0.961 . S
H893 C907 0.960 . S
H894 C907 0.961 . S
H895 C907 0.959 . S
H896 C910 0.929 . S
H897 C911 0.931 . S
H898 C913 0.930 . S
C899 H887 0.930 . S
C899 C900 1.399 . S
C899 C904 1.399 . S
C900 C899 1.399 . S
C900 C901 1.376 . S
C901 H888 0.930 . S
C901 C900 1.376 . S
C901 C902 1.388 . S
C902 H889 0.930 . S
C902 C901 1.388 . S
C902 C903 1.390 . S
C903 C902 1.390 . S
C903 C904 1.394 . S
C903 C909 1.465 . S
C904 C899 1.399 . S
C904 C903 1.394 . S
C904 C905 1.516 . S
C905 C904 1.516 . S
C905 C906 1.502 . S
C905 C907 1.561 . S
C905 C908 1.526 . S
C906 H890 0.959 . S
C906 H891 0.959 . S
C906 H892 0.961 . S
C906 C905 1.502 . S
C907 H893 0.960 . S
C907 H894 0.961 . S
C907 H895 0.959 . S
C907 C905 1.561 . S
C908 C905 1.526 . S
C908 C909 1.396 . S
C908 C913 1.390 . S
C909 C903 1.465 . S
C909 C908 1.396 . S
C909 C910 1.399 . S
C910 H896 0.929 . S
C910 C909 1.399 . S
C910 C911 1.385 . S
C911 H897 0.931 . S
C911 C910 1.385 . S
C911 C912 1.389 . S
C912 C911 1.389 . S
C912 C913 1.387 . S
C913 H898 0.930 . S
C913 C908 1.390 . S
C913 C912 1.387 . S
H914 C926 0.930 . S
H915 C928 0.930 . S
H916 C929 0.930 . S
H917 C933 0.959 . S
H918 C933 0.959 . S
H919 C933 0.961 . S
H920 C934 0.960 . S
H921 C934 0.961 . S
H922 C934 0.959 . S
H923 C937 0.929 . S
H924 C938 0.931 . S
H925 C940 0.930 . S
C926 H914 0.930 . S
C926 C927 1.399 . S
C926 C931 1.399 . S
C927 C926 1.399 . S
C927 C928 1.376 . S
C928 H915 0.930 . S
C928 C927 1.376 . S
C928 C929 1.388 . S
C929 H916 0.930 . S
C929 C928 1.388 . S
C929 C930 1.390 . S
C930 C929 1.390 . S
C930 C931 1.394 . S
C930 C936 1.465 . S
C931 C926 1.399 . S
C931 C930 1.394 . S
C931 C932 1.516 . S
C932 C931 1.516 . S
C932 C933 1.502 . S
C932 C934 1.561 . S
C932 C935 1.526 . S
C933 H917 0.959 . S
C933 H918 0.959 . S
C933 H919 0.961 . S
C933 C932 1.502 . S
C934 H920 0.960 . S
C934 H921 0.961 . S
C934 H922 0.959 . S
C934 C932 1.561 . S
C935 C932 1.526 . S
C935 C936 1.396 . S
C935 C940 1.390 . S
C936 C930 1.465 . S
C936 C935 1.396 . S
C936 C937 1.399 . S
C937 H923 0.929 . S
C937 C936 1.399 . S
C937 C938 1.385 . S
C938 H924 0.931 . S
C938 C937 1.385 . S
C938 C939 1.389 . S
C939 C938 1.389 . S
C939 C940 1.387 . S
C940 H925 0.930 . S
C940 C935 1.390 . S
C940 C939 1.387 . S
H941 C953 0.930 . S
H942 C955 0.930 . S
H943 C956 0.930 . S
H944 C960 0.959 . S
H945 C960 0.959 . S
H946 C960 0.961 . S
H947 C961 0.960 . S
H948 C961 0.961 . S
H949 C961 0.959 . S
H950 C964 0.929 . S
H951 C965 0.931 . S
H952 C967 0.930 . S
C953 H941 0.930 . S
C953 C954 1.399 . S
C953 C958 1.399 . S
C954 C953 1.399 . S
C954 C955 1.376 . S
C955 H942 0.930 . S
C955 C954 1.376 . S
C955 C956 1.388 . S
C956 H943 0.930 . S
C956 C955 1.388 . S
C956 C957 1.390 . S
C957 C956 1.390 . S
C957 C958 1.394 . S
C957 C963 1.465 1_656 S
C958 C953 1.399 . S
C958 C957 1.394 . S
C958 C959 1.516 1_656 S
C959 C958 1.516 1_454 S
C959 C960 1.502 1_455 S
C959 C961 1.561 . S
C959 C962 1.526 . S
C960 H944 0.959 . S
C960 H945 0.959 . S
C960 H946 0.961 . S
C960 C959 1.502 1_655 S
C961 H947 0.960 . S
C961 H948 0.961 . S
C961 H949 0.959 . S
C961 C959 1.561 . S
C962 C959 1.526 . S
C962 C963 1.396 . S
C962 C967 1.390 . S
C963 C957 1.465 1_454 S
C963 C962 1.396 . S
C963 C964 1.399 . S
C964 H950 0.929 . S
C964 C963 1.399 . S
C964 C965 1.385 . S
C965 H951 0.931 . S
C965 C964 1.385 . S
C965 C966 1.389 . S
C966 C965 1.389 . S
C966 C967 1.387 . S
C967 H952 0.930 . S
C967 C962 1.390 . S
C967 C966 1.387 . S
C333 C10 1.511 . S
C345 C129 1.509 . S
C360 C9 0.845 . S
C372 C49 0.909 . S
C387 C50 1.514 . S
C399 C89 1.511 . S
C414 C90 2.035 . S
C426 C130 2.028 . S
C441 C19 1.539 . S
C453 C218 1.492 . S
C468 C18 0.852 . S
C480 C178 0.906 . S
C495 C179 1.497 . S
C507 C98 1.532 . S
C522 C219 2.055 . S
C534 C99 2.044 . S
C549 C250 1.508 . S
C561 C209 1.525 . S
C576 C169 0.845 . S
C588 C249 0.911 . S
C603 C289 1.483 . S
C615 C170 1.540 . S
C630 C210 2.032 . S
C642 C290 2.034 . S
C657 C138 1.535 . S
C669 C259 1.498 . S
C684 C258 0.934 . S
C696 C58 0.885 . S
C711 C59 1.503 . S
C723 C298 1.531 . S
C738 C139 2.054 . S
C750 C299 2.042 . S
C765 C15 1.429 1_565 S
C777 C6 1.387 . S
C792 C55 1.415 . S
C804 C46 1.386 . S
C819 C95 1.577 . S
C831 C86 1.627 . S
C846 C126 1.607 . S
C858 C135 1.582 . S
C873 C175 1.386 . S
C885 C166 1.415 . S
C900 C206 1.595 . S
C912 C215 1.613 . S
C927 C246 1.435 . S
C939 C255 1.377 . S
C954 C286 1.569 . S
C966 C295 1.621 . S
