# Generated by pormake.
# Topology lcy-a, (4)-cn, num edge types: 1
# Building blocks:
#     Node 0, Type 0, BuildingBlock: UXUYUI_clean_sbu_0, # of connection points: 4
#     Node 1, Type 0, BuildingBlock: UXUYUI_clean_sbu_0, # of connection points: 4
#     Node 2, Type 0, BuildingBlock: UXUYUI_clean_sbu_0, # of connection points: 4
#     Node 3, Type 0, BuildingBlock: UXUYUI_clean_sbu_0, # of connection points: 4
#     Node 4, Type 0, BuildingBlock: UXUYUI_clean_sbu_0, # of connection points: 4
#     Node 5, Type 0, BuildingBlock: UXUYUI_clean_sbu_0, # of connection points: 4
#     Node 6, Type 0, BuildingBlock: UXUYUI_clean_sbu_0, # of connection points: 4
#     Node 7, Type 0, BuildingBlock: UXUYUI_clean_sbu_0, # of connection points: 4
#     Node 8, Type 0, BuildingBlock: UXUYUI_clean_sbu_0, # of connection points: 4
#     Node 9, Type 0, BuildingBlock: UXUYUI_clean_sbu_0, # of connection points: 4
#     Node 10, Type 0, BuildingBlock: UXUYUI_clean_sbu_0, # of connection points: 4
#     Node 11, Type 0, BuildingBlock: UXUYUI_clean_sbu_0, # of connection points: 4
#     Node 12, Type 0, BuildingBlock: UXUYUI_clean_sbu_0, # of connection points: 4
#     Node 13, Type 0, BuildingBlock: UXUYUI_clean_sbu_0, # of connection points: 4
#     Node 14, Type 0, BuildingBlock: UXUYUI_clean_sbu_0, # of connection points: 4
#     Node 15, Type 0, BuildingBlock: UXUYUI_clean_sbu_0, # of connection points: 4
#     Node 16, Type 0, BuildingBlock: UXUYUI_clean_sbu_0, # of connection points: 4
#     Node 17, Type 0, BuildingBlock: UXUYUI_clean_sbu_0, # of connection points: 4
#     Node 18, Type 0, BuildingBlock: UXUYUI_clean_sbu_0, # of connection points: 4
#     Node 19, Type 0, BuildingBlock: UXUYUI_clean_sbu_0, # of connection points: 4
#     Node 20, Type 0, BuildingBlock: UXUYUI_clean_sbu_0, # of connection points: 4
#     Node 21, Type 0, BuildingBlock: UXUYUI_clean_sbu_0, # of connection points: 4
#     Node 22, Type 0, BuildingBlock: UXUYUI_clean_sbu_0, # of connection points: 4
#     Node 23, Type 0, BuildingBlock: UXUYUI_clean_sbu_0, # of connection points: 4
#     Edge 24, Type (0, 0), BuildingBlock: KIFKEQ_clean_linker_1, # of connection points: 2
#     Edge 25, Type (0, 0), BuildingBlock: KIFKEQ_clean_linker_1, # of connection points: 2
#     Edge 26, Type (0, 0), BuildingBlock: KIFKEQ_clean_linker_1, # of connection points: 2
#     Edge 27, Type (0, 0), BuildingBlock: KIFKEQ_clean_linker_1, # of connection points: 2
#     Edge 28, Type (0, 0), BuildingBlock: KIFKEQ_clean_linker_1, # of connection points: 2
#     Edge 29, Type (0, 0), BuildingBlock: KIFKEQ_clean_linker_1, # of connection points: 2
#     Edge 30, Type (0, 0), BuildingBlock: KIFKEQ_clean_linker_1, # of connection points: 2
#     Edge 31, Type (0, 0), BuildingBlock: KIFKEQ_clean_linker_1, # of connection points: 2
#     Edge 32, Type (0, 0), BuildingBlock: KIFKEQ_clean_linker_1, # of connection points: 2
#     Edge 33, Type (0, 0), BuildingBlock: KIFKEQ_clean_linker_1, # of connection points: 2
#     Edge 34, Type (0, 0), BuildingBlock: KIFKEQ_clean_linker_1, # of connection points: 2
#     Edge 35, Type (0, 0), BuildingBlock: KIFKEQ_clean_linker_1, # of connection points: 2
#     Edge 36, Type (0, 0), BuildingBlock: KIFKEQ_clean_linker_1, # of connection points: 2
#     Edge 37, Type (0, 0), BuildingBlock: KIFKEQ_clean_linker_1, # of connection points: 2
#     Edge 38, Type (0, 0), BuildingBlock: KIFKEQ_clean_linker_1, # of connection points: 2
#     Edge 39, Type (0, 0), BuildingBlock: KIFKEQ_clean_linker_1, # of connection points: 2
#     Edge 40, Type (0, 0), BuildingBlock: KIFKEQ_clean_linker_1, # of connection points: 2
#     Edge 41, Type (0, 0), BuildingBlock: KIFKEQ_clean_linker_1, # of connection points: 2
#     Edge 42, Type (0, 0), BuildingBlock: KIFKEQ_clean_linker_1, # of connection points: 2
#     Edge 43, Type (0, 0), BuildingBlock: KIFKEQ_clean_linker_1, # of connection points: 2
#     Edge 44, Type (0, 0), BuildingBlock: KIFKEQ_clean_linker_1, # of connection points: 2
#     Edge 45, Type (0, 0), BuildingBlock: KIFKEQ_clean_linker_1, # of connection points: 2
#     Edge 46, Type (0, 0), BuildingBlock: KIFKEQ_clean_linker_1, # of connection points: 2
#     Edge 47, Type (0, 0), BuildingBlock: KIFKEQ_clean_linker_1, # of connection points: 2
#     Edge 48, Type (0, 0), BuildingBlock: KIFKEQ_clean_linker_1, # of connection points: 2
#     Edge 49, Type (0, 0), BuildingBlock: KIFKEQ_clean_linker_1, # of connection points: 2
#     Edge 50, Type (0, 0), BuildingBlock: KIFKEQ_clean_linker_1, # of connection points: 2
#     Edge 51, Type (0, 0), BuildingBlock: KIFKEQ_clean_linker_1, # of connection points: 2
#     Edge 52, Type (0, 0), BuildingBlock: KIFKEQ_clean_linker_1, # of connection points: 2
#     Edge 53, Type (0, 0), BuildingBlock: KIFKEQ_clean_linker_1, # of connection points: 2
#     Edge 54, Type (0, 0), BuildingBlock: KIFKEQ_clean_linker_1, # of connection points: 2
#     Edge 55, Type (0, 0), BuildingBlock: KIFKEQ_clean_linker_1, # of connection points: 2
#     Edge 56, Type (0, 0), BuildingBlock: KIFKEQ_clean_linker_1, # of connection points: 2
#     Edge 57, Type (0, 0), BuildingBlock: KIFKEQ_clean_linker_1, # of connection points: 2
#     Edge 58, Type (0, 0), BuildingBlock: KIFKEQ_clean_linker_1, # of connection points: 2
#     Edge 59, Type (0, 0), BuildingBlock: KIFKEQ_clean_linker_1, # of connection points: 2
#     Edge 60, Type (0, 0), BuildingBlock: KIFKEQ_clean_linker_1, # of connection points: 2
#     Edge 61, Type (0, 0), BuildingBlock: KIFKEQ_clean_linker_1, # of connection points: 2
#     Edge 62, Type (0, 0), BuildingBlock: KIFKEQ_clean_linker_1, # of connection points: 2
#     Edge 63, Type (0, 0), BuildingBlock: KIFKEQ_clean_linker_1, # of connection points: 2
#     Edge 64, Type (0, 0), BuildingBlock: KIFKEQ_clean_linker_1, # of connection points: 2
#     Edge 65, Type (0, 0), BuildingBlock: KIFKEQ_clean_linker_1, # of connection points: 2
#     Edge 66, Type (0, 0), BuildingBlock: KIFKEQ_clean_linker_1, # of connection points: 2
#     Edge 67, Type (0, 0), BuildingBlock: KIFKEQ_clean_linker_1, # of connection points: 2
#     Edge 68, Type (0, 0), BuildingBlock: KIFKEQ_clean_linker_1, # of connection points: 2
#     Edge 69, Type (0, 0), BuildingBlock: KIFKEQ_clean_linker_1, # of connection points: 2
#     Edge 70, Type (0, 0), BuildingBlock: KIFKEQ_clean_linker_1, # of connection points: 2
#     Edge 71, Type (0, 0), BuildingBlock: KIFKEQ_clean_linker_1, # of connection points: 2
# Relax obj value: 0.522
# Max RMSD: 0.263
# Mean RMSD: 0.261
data_MOF--net-lcy-a--node1-UXUYUI_clean_sbu_0--edge1-KIFKEQ_clean_linker_1
_symmetry_space_group_name_H-M    P1
_symmetry_Int_Tables_number       1
_symmetry_cell_setting            triclinic
loop_
_symmetry_equiv_pos_as_xyz
'x, y, z'
_cell_length_a     83.158055
_cell_length_b     81.487241
_cell_length_c     81.497174
_cell_angle_alpha  89.997593
_cell_angle_beta   89.987807
_cell_angle_gamma 89.989057
loop_
_atom_site_label
_atom_site_type_symbol
_atom_site_fract_x
_atom_site_fract_y
_atom_site_fract_z
_atom_type_partial_charge
Li0 Li 0.19837 0.32229 0.40342 0.0
Li1 Li 0.19973 0.2949 0.389 0.0
Li2 Li 0.18259 0.31652 0.37952 0.0
Li3 Li 0.17532 0.30306 0.4041 0.0
C4 C 0.21117 0.32334 0.36686 0.0
N5 N 0.2191 0.33679 0.33681 0.0
C6 C 0.21494 0.31314 0.35362 0.0
C7 C 0.21163 0.34037 0.36489 0.0
C8 C 0.21888 0.32018 0.33851 0.0
C9 C 0.21561 0.34693 0.34957 0.0
C10 C 0.20612 0.29237 0.42451 0.0
C11 C 0.2094 0.27148 0.44525 0.0
N12 N 0.22429 0.27745 0.44872 0.0
C13 C 0.22141 0.29835 0.42838 0.0
C14 C 0.20002 0.27887 0.4331 0.0
C15 C 0.23043 0.29062 0.4406 0.0
C16 C 0.20571 0.3406 0.43157 0.0
N17 N 0.21068 0.33699 0.41611 0.0
C18 C 0.2354 0.35123 0.42032 0.0
C19 C 0.22508 0.34225 0.41026 0.0
C20 C 0.23084 0.35476 0.43655 0.0
C21 C 0.21564 0.34959 0.44206 0.0
H22 H 0.19428 0.33597 0.43592 0.0
H23 H 0.22881 0.33893 0.39799 0.0
C24 C 0.21011 0.26607 0.37192 0.0
N25 N 0.21411 0.27749 0.38339 0.0
C26 C 0.22066 0.25324 0.36827 0.0
C27 C 0.23958 0.26464 0.38766 0.0
C28 C 0.22865 0.27718 0.39096 0.0
C29 C 0.2356 0.25236 0.37627 0.0
H30 H 0.19876 0.26689 0.36553 0.0
H31 H 0.23188 0.28683 0.39938 0.0
C32 C 0.15944 0.33223 0.39871 0.0
N33 N 0.12777 0.34217 0.39601 0.0
C34 C 0.14845 0.32281 0.38977 0.0
C35 C 0.15431 0.34671 0.40626 0.0
C36 C 0.1325 0.32804 0.38856 0.0
C37 C 0.13826 0.35153 0.40476 0.0
C38 C 0.17158 0.27722 0.38158 0.0
C39 C 0.1604 0.27215 0.36983 0.0
C40 C 0.17705 0.26606 0.39333 0.0
C41 C 0.15485 0.25597 0.37006 0.0
C42 C 0.17122 0.25 0.39318 0.0
N43 N 0.16032 0.24532 0.38165 0.0
C44 C 0.1759 0.31617 0.34619 0.0
C45 C 0.17254 0.34237 0.35838 0.0
C46 C 0.17503 0.32299 0.33054 0.0
N47 N 0.17537 0.326 0.35962 0.0
C48 C 0.17141 0.34971 0.34294 0.0
C49 C 0.17347 0.34009 0.32875 0.0
H50 H 0.17839 0.30322 0.34762 0.0
H51 H 0.17234 0.34989 0.36931 0.0
C52 C 0.16264 0.29692 0.43484 0.0
N53 N 0.15957 0.29476 0.41861 0.0
C54 C 0.15436 0.2877 0.44651 0.0
C55 C 0.13896 0.27534 0.42456 0.0
C56 C 0.14741 0.28496 0.41334 0.0
C57 C 0.14292 0.27618 0.44128 0.0
H58 H 0.17239 0.30486 0.43862 0.0
H59 H 0.14495 0.28376 0.40039 0.0
O60 O 0.20682 0.31667 0.3816 0.0
O61 O 0.19699 0.29999 0.41275 0.0
O62 O 0.17515 0.32744 0.40013 0.0
O63 O 0.17685 0.29313 0.38163 0.0
H64 H 0.2146 0.29993 0.35494 0.0
H65 H 0.20867 0.34843 0.37501 0.0
H66 H 0.22168 0.31244 0.32811 0.0
H67 H 0.21583 0.36009 0.34781 0.0
H68 H 0.20482 0.26102 0.45196 0.0
H69 H 0.22641 0.3087 0.42185 0.0
H70 H 0.18815 0.27413 0.43052 0.0
H71 H 0.24232 0.29507 0.44362 0.0
H72 H 0.24693 0.35513 0.41555 0.0
H73 H 0.21175 0.35187 0.45453 0.0
H74 H 0.21712 0.2441 0.35933 0.0
H75 H 0.25117 0.2648 0.3937 0.0
H76 H 0.15215 0.3116 0.38379 0.0
H77 H 0.16268 0.35414 0.41322 0.0
H78 H 0.12388 0.32086 0.38168 0.0
H79 H 0.13413 0.36271 0.41054 0.0
H80 H 0.15601 0.28067 0.36067 0.0
H81 H 0.1858 0.26974 0.40237 0.0
H82 H 0.14618 0.25189 0.36106 0.0
H83 H 0.17536 0.24124 0.40221 0.0
H84 H 0.17692 0.31506 0.32006 0.0
H85 H 0.16994 0.36288 0.34215 0.0
H86 H 0.15777 0.28863 0.4593 0.0
H87 H 0.13002 0.26673 0.42016 0.0
Li88 Li 0.93116 0.95164 0.65736 0.0
Li89 Li 0.95118 0.9293 0.65649 0.0
Li90 Li 0.95586 0.95415 0.64146 0.0
Li91 Li 0.9356 0.93491 0.63247 0.0
C92 C 0.96548 0.96071 0.67207 0.0
N93 N 0.99031 0.97937 0.68469 0.0
C94 C 0.98004 0.95329 0.67639 0.0
C95 C 0.96349 0.97759 0.67434 0.0
C96 C 0.99246 0.96294 0.68272 0.0
C97 C 0.97621 0.98682 0.68068 0.0
C98 C 0.92309 0.91126 0.65316 0.0
C99 C 0.92811 0.88387 0.64319 0.0
N100 N 0.91462 0.87855 0.651 0.0
C101 C 0.90929 0.90553 0.66108 0.0
C102 C 0.93259 0.90036 0.64413 0.0
C103 C 0.90521 0.88895 0.65984 0.0
C104 C 0.90222 0.96861 0.66444 0.0
N105 N 0.91636 0.96303 0.67067 0.0
C106 C 0.91125 0.97612 0.69632 0.0
C107 C 0.92091 0.96635 0.68632 0.0
C108 C 0.89684 0.98258 0.69008 0.0
C109 C 0.89224 0.97856 0.67398 0.0
H110 H 0.89896 0.96574 0.65192 0.0
H111 H 0.93225 0.96174 0.69089 0.0
C112 C 0.97275 0.90373 0.66437 0.0
N113 N 0.96115 0.91391 0.67015 0.0
C114 C 0.98244 0.89506 0.67533 0.0
C115 C 0.96746 0.90702 0.69781 0.0
C116 C 0.95802 0.91536 0.68643 0.0
C117 C 0.98021 0.89713 0.69232 0.0
H118 H 0.97502 0.90302 0.65132 0.0
H119 H 0.94885 0.92383 0.69057 0.0
C120 C 0.92842 0.97373 0.62887 0.0
N121 N 0.91782 0.00368 0.6172 0.0
C122 C 0.92383 0.97541 0.61245 0.0
C123 C 0.92763 0.9873 0.63934 0.0
C124 C 0.91851 0.99066 0.60679 0.0
C125 C 0.92222 0.00233 0.63321 0.0
C126 C 0.96589 0.93171 0.61826 0.0
C127 C 0.96118 0.94386 0.60714 0.0
C128 C 0.97725 0.92 0.6135 0.0
C129 C 0.96784 0.94403 0.59141 0.0
C130 C 0.98365 0.92058 0.59765 0.0
N131 N 0.97884 0.93248 0.58703 0.0
C132 C 0.98802 0.96424 0.63792 0.0
C133 C 0.96933 0.98376 0.62797 0.0
C134 C 0.00082 0.97485 0.63461 0.0
N135 N 0.97261 0.96901 0.63498 0.0
C136 C 0.98172 0.99465 0.6243 0.0
C137 C 0.99771 0.99043 0.62793 0.0
H138 H 0.99035 0.95227 0.64313 0.0
H139 H 0.95716 0.9872 0.62521 0.0
C140 C 0.90969 0.93408 0.61181 0.0
N141 N 0.92436 0.92711 0.61387 0.0
C142 C 0.90184 0.93291 0.59677 0.0
C143 C 0.9237 0.91611 0.58674 0.0
C144 C 0.93109 0.9175 0.60207 0.0
C145 C 0.90924 0.92452 0.58375 0.0
H146 H 0.90469 0.94166 0.62145 0.0
H147 H 0.94265 0.91182 0.60413 0.0
O148 O 0.95326 0.95151 0.66562 0.0
O149 O 0.92718 0.92749 0.65428 0.0
O150 O 0.93351 0.95882 0.63463 0.0
O151 O 0.95955 0.93118 0.63377 0.0
H152 H 0.98184 0.94026 0.67466 0.0
H153 H 0.95228 0.98351 0.67119 0.0
H154 H 0.00382 0.95738 0.686 0.0
H155 H 0.97487 -9e-05 0.68241 0.0
H156 H 0.93534 0.8753 0.63624 0.0
H157 H 0.90181 0.91383 0.66812 0.0
H158 H 0.94331 0.90452 0.6379 0.0
H159 H 0.89455 0.88434 0.66591 0.0
H160 H 0.91531 0.97906 0.7086 0.0
H161 H 0.88114 0.98319 0.66879 0.0
H162 H 0.99199 0.88737 0.67058 0.0
H163 H 0.96543 0.90917 0.71076 0.0
H164 H 0.92445 0.96509 0.60413 0.0
H165 H 0.93123 0.98628 0.65202 0.0
H166 H 0.91495 0.99214 0.59411 0.0
H167 H 0.92156 0.01292 0.64119 0.0
H168 H 0.95246 0.95304 0.61054 0.0
H169 H 0.98106 0.91052 0.62195 0.0
H170 H 0.96426 0.95334 0.58268 0.0
H171 H 0.99242 0.91157 0.5938 0.0
H172 H 0.01294 0.97104 0.63761 0.0
H173 H 0.97875 0.00629 0.61864 0.0
H174 H 0.8908 0.93974 0.59499 0.0
H175 H 0.92969 0.90936 0.57705 0.0
Li176 Li 0.2995 0.70277 0.88762 0.0
Li177 Li 0.30163 0.67414 0.89943 0.0
Li178 Li 0.32452 0.69359 0.90061 0.0
Li179 Li 0.31664 0.68195 0.87526 0.0
C180 C 0.29573 0.70424 0.92272 0.0
N181 N 0.28071 0.7216 0.94751 0.0
C182 C 0.28142 0.69842 0.92959 0.0
C183 C 0.30251 0.71879 0.92864 0.0
C184 C 0.27397 0.70741 0.94205 0.0
C185 C 0.29471 0.7274 0.94114 0.0
C186 C 0.28716 0.67535 0.86395 0.0
C187 C 0.28181 0.65234 0.84618 0.0
N188 N 0.27731 0.66289 0.83409 0.0
C189 C 0.28235 0.68597 0.85141 0.0
C190 C 0.28677 0.6584 0.8614 0.0
C191 C 0.27744 0.67942 0.83638 0.0
C192 C 0.28755 0.7323 0.8733 0.0
N193 N 0.28456 0.72002 0.88418 0.0
C194 C 0.25851 0.73088 0.88991 0.0
C195 C 0.27035 0.71904 0.89233 0.0
C196 C 0.2612 0.74373 0.87875 0.0
C197 C 0.276 0.74443 0.87047 0.0
H198 H 0.29872 0.73248 0.86653 0.0
H199 H 0.26807 0.70884 0.90045 0.0
C200 C 0.29611 0.65117 0.92456 0.0
N201 N 0.2896 0.65859 0.9112 0.0
C202 C 0.28648 0.64159 0.93482 0.0
C203 C 0.26381 0.64721 0.91707 0.0
C204 C 0.27389 0.65661 0.90714 0.0
C205 C 0.27001 0.6398 0.93131 0.0
H206 H 0.30863 0.65319 0.92753 0.0
H207 H 0.26902 0.66296 0.8966 0.0
C208 C 0.3297 0.71977 0.87838 0.0
N209 N 0.34639 0.74905 0.87706 0.0
C210 C 0.34244 0.72168 0.86736 0.0
C211 C 0.32534 0.7328 0.8886 0.0
C212 C 0.35076 0.73657 0.86691 0.0
C213 C 0.33395 0.74749 0.88779 0.0
C214 C 0.34046 0.66493 0.89242 0.0
C215 C 0.35104 0.67499 0.88368 0.0
C216 C 0.34592 0.65004 0.89884 0.0
C217 C 0.36697 0.66997 0.88152 0.0
C218 C 0.36194 0.64545 0.8964 0.0
N219 N 0.37204 0.65543 0.88787 0.0
C220 C 0.33735 0.69777 0.93135 0.0
C221 C 0.35322 0.71044 0.91078 0.0
C222 C 0.34585 0.70586 0.94365 0.0
N223 N 0.34062 0.70084 0.91532 0.0
C224 C 0.36206 0.71882 0.92269 0.0
C225 C 0.35788 0.71713 0.93932 0.0
H226 H 0.32732 0.68995 0.93456 0.0
H227 H 0.35589 0.71233 0.89796 0.0
C228 C 0.32084 0.68487 0.84165 0.0
N229 N 0.32274 0.67419 0.85428 0.0
C230 C 0.32046 0.67914 0.82555 0.0
C231 C 0.32574 0.65178 0.83571 0.0
C232 C 0.32579 0.65803 0.85166 0.0
C233 C 0.32219 0.66225 0.82245 0.0
H234 H 0.31818 0.69762 0.84419 0.0
H235 H 0.32705 0.64979 0.86199 0.0
O236 O 0.30325 0.69549 0.91058 0.0
O237 O 0.2925 0.68153 0.87855 0.0
O238 O 0.3216 0.70518 0.8791 0.0
O239 O 0.3248 0.66954 0.89475 0.0
H240 H 0.27604 0.68715 0.92526 0.0
H241 H 0.31377 0.7233 0.92382 0.0
H242 H 0.26284 0.70309 0.94739 0.0
H243 H 0.29982 0.73868 0.94581 0.0
H244 H 0.28161 0.63925 0.84396 0.0
H245 H 0.28262 0.69913 0.85321 0.0
H246 H 0.2905 0.65004 0.871 0.0
H247 H 0.27381 0.68749 0.82651 0.0
H248 H 0.24728 0.72988 0.89657 0.0
H249 H 0.27843 0.75392 0.8615 0.0
H250 H 0.2918 0.63594 0.94555 0.0
H251 H 0.25116 0.64642 0.91403 0.0
H252 H 0.34592 0.71173 0.85931 0.0
H253 H 0.31533 0.73162 0.89695 0.0
H254 H 0.36069 0.7382 0.8585 0.0
H255 H 0.33072 0.75766 0.89566 0.0
H256 H 0.34705 0.68651 0.87859 0.0
H257 H 0.33786 0.64213 0.90563 0.0
H258 H 0.37529 0.67764 0.87479 0.0
H259 H 0.36634 0.63396 0.90131 0.0
H260 H 0.34219 0.70424 0.9563 0.0
H261 H 0.3715 0.72714 0.91888 0.0
H262 H 0.31745 0.6877 0.81587 0.0
H263 H 0.32744 0.63873 0.8339 0.0
Li264 Li 0.56254 0.05533 0.15458 0.0
Li265 Li 0.54104 0.07506 0.1479 0.0
Li266 Li 0.54071 0.0488 0.13435 0.0
Li267 Li 0.56123 0.0698 0.12889 0.0
C268 C 0.53501 0.03911 0.16622 0.0
N269 N 0.52716 0.01069 0.1829 0.0
C270 C 0.52291 0.03929 0.17812 0.0
C271 C 0.5431 0.02446 0.16278 0.0
C272 C 0.51913 0.0248 0.18643 0.0
C273 C 0.53896 0.01023 0.17135 0.0
C274 C 0.57712 0.08951 0.14992 0.0
C275 C 0.58891 0.11516 0.14135 0.0
N276 N 0.6034 0.11009 0.1472 0.0
C277 C 0.59208 0.08465 0.15606 0.0
C278 C 0.57546 0.10498 0.14271 0.0
C279 C 0.60524 0.09519 0.15449 0.0
C280 C 0.58886 0.0384 0.16895 0.0
N281 N 0.57467 0.04609 0.17197 0.0
C282 C 0.57551 0.03804 0.20013 0.0
C283 C 0.56815 0.04645 0.18726 0.0
C284 C 0.58991 0.02957 0.19724 0.0
C285 C 0.59681 0.0301 0.18154 0.0
H286 H 0.59383 0.03846 0.15672 0.0
H287 H 0.55694 0.05285 0.18935 0.0
C288 C 0.51195 0.08239 0.16122 0.0
N289 N 0.52644 0.08936 0.1581 0.0
C290 C 0.50091 0.09027 0.17129 0.0
C291 C 0.51958 0.11287 0.17405 0.0
C292 C 0.53038 0.10443 0.16396 0.0
C293 C 0.50479 0.10555 0.17821 0.0
H294 H 0.50932 0.07028 0.15652 0.0
H295 H 0.54211 0.10954 0.1614 0.0
C296 C 0.57115 0.03993 0.11819 0.0
N297 N 0.58487 0.02962 0.08903 0.0
C298 C 0.56243 0.04078 0.10353 0.0
C299 C 0.58689 0.03391 0.11796 0.0
C300 C 0.56957 0.0355 0.08894 0.0
C301 C 0.59359 0.02872 0.10311 0.0
C302 C 0.52722 0.08285 0.1206 0.0
C303 C 0.51078 0.07943 0.11969 0.0
C304 C 0.53263 0.0989 0.11819 0.0
C305 C 0.49997 0.09222 0.11673 0.0
C306 C 0.52145 0.11135 0.11525 0.0
N307 N 0.50549 0.10779 0.11461 0.0
C308 C 0.51102 0.03342 0.13258 0.0
C309 C 0.53165 0.01801 0.11975 0.0
C310 C 0.49982 0.0211 0.12938 0.0
N311 N 0.52654 0.03174 0.12765 0.0
C312 C 0.52081 0.00546 0.11611 0.0
C313 C 0.50464 0.00685 0.12102 0.0
H314 H 0.50744 0.04416 0.13945 0.0
H315 H 0.54416 0.01659 0.11655 0.0
C316 C 0.59089 0.0757 0.11301 0.0
N317 N 0.57469 0.07731 0.11149 0.0
C318 C 0.60058 0.07502 0.09907 0.0
C319 C 0.57688 0.07874 0.08234 0.0
C320 C 0.56769 0.07974 0.09663 0.0
C321 C 0.59343 0.07529 0.08343 0.0
H322 H 0.59613 0.07313 0.12484 0.0
H323 H 0.55475 0.08049 0.09571 0.0
O324 O 0.53877 0.0532 0.15793 0.0
O325 O 0.56409 0.07938 0.15144 0.0
O326 O 0.56444 0.04542 0.13254 0.0
O327 O 0.53799 0.07057 0.12388 0.0
H328 H 0.51653 0.05052 0.18094 0.0
H329 H 0.55247 0.02405 0.15359 0.0
H330 H 0.5098 0.02477 0.19568 0.0
H331 H 0.54513 0.99882 0.16882 0.0
H332 H 0.58781 0.12712 0.1357 0.0
H333 H 0.59355 0.07282 0.16186 0.0
H334 H 0.56392 0.10912 0.13827 0.0
H335 H 0.61691 0.09152 0.15906 0.0
H336 H 0.56995 0.03801 0.21215 0.0
H337 H 0.6079 0.02365 0.17888 0.0
H338 H 0.48986 0.08395 0.17435 0.0
H339 H 0.52299 0.12472 0.17896 0.0
H340 H 0.55032 0.04563 0.10341 0.0
H341 H 0.59392 0.03328 0.12908 0.0
H342 H 0.56297 0.03617 0.07752 0.0
H343 H 0.60576 0.02405 0.10277 0.0
H344 H 0.50638 0.06706 0.1213 0.0
H345 H 0.54532 0.10168 0.11855 0.0
H346 H 0.4872 0.08977 0.11611 0.0
H347 H 0.52548 0.12385 0.11345 0.0
H348 H 0.48762 0.02256 0.13379 0.0
H349 H 0.52509 0.99476 0.10955 0.0
H350 H 0.61332 0.07272 0.10055 0.0
H351 H 0.57072 0.07885 0.07064 0.0
Li352 Li 0.68756 0.18546 0.61383 0.0
Li353 Li 0.68009 0.20054 0.59051 0.0
Li354 Li 0.70185 0.18078 0.58827 0.0
Li355 Li 0.70511 0.20794 0.60431 0.0
C356 C 0.66377 0.17039 0.59529 0.0
N357 N 0.63309 0.15838 0.60027 0.0
C358 C 0.65183 0.18054 0.60178 0.0
C359 C 0.66011 0.15415 0.59126 0.0
C360 C 0.63639 0.17424 0.60423 0.0
C361 C 0.64453 0.14829 0.59389 0.0
C362 C 0.67417 0.2217 0.61919 0.0
C363 C 0.66946 0.25069 0.62289 0.0
N364 N 0.6561 0.24721 0.63186 0.0
C365 C 0.66048 0.21842 0.62859 0.0
C366 C 0.67879 0.23798 0.61644 0.0
C367 C 0.65147 0.23148 0.63483 0.0
C368 C 0.682 0.1839 0.64754 0.0
N369 N 0.68144 0.17487 0.63355 0.0
C370 C 0.67908 0.15005 0.6489 0.0
C371 C 0.67945 0.15832 0.6339 0.0
C372 C 0.68083 0.15896 0.66356 0.0
C373 C 0.68165 0.17616 0.66278 0.0
H374 H 0.68402 0.19699 0.64685 0.0
H375 H 0.67938 0.15143 0.62256 0.0
C376 C 0.66094 0.20167 0.56255 0.0
N377 N 0.66377 0.20971 0.57688 0.0
C378 C 0.65283 0.20954 0.54978 0.0
C379 C 0.64937 0.23314 0.5674 0.0
C380 C 0.65761 0.22488 0.57974 0.0
C381 C 0.64758 0.22577 0.55194 0.0
H382 H 0.66614 0.18966 0.56057 0.0
H383 H 0.65992 0.23107 0.59112 0.0
C384 C 0.71682 0.17657 0.62348 0.0
N385 N 0.72627 0.1593 0.651 0.0
C386 C 0.72089 0.18493 0.63786 0.0
C387 C 0.71773 0.15945 0.62301 0.0
C388 C 0.7256 0.17597 0.65167 0.0
C389 C 0.7225 0.15094 0.63707 0.0
C390 C 0.69921 0.21352 0.56721 0.0
C391 C 0.69836 0.20651 0.55158 0.0
C392 C 0.69701 0.23041 0.56909 0.0
C393 C 0.695 0.21652 0.53809 0.0
C394 C 0.69363 0.24 0.5553 0.0
N395 N 0.69269 0.23291 0.54022 0.0
C396 C 0.70563 0.15911 0.56154 0.0
C397 C 0.72893 0.16358 0.57772 0.0
C398 C 0.71432 0.14916 0.55075 0.0
N399 N 0.71309 0.16613 0.5746 0.0
C400 C 0.73805 0.15366 0.56733 0.0
C401 C 0.73078 0.14642 0.55356 0.0
H402 H 0.693 0.16148 0.55937 0.0
H403 H 0.73454 0.1695 0.58813 0.0
C404 C 0.71959 0.233 0.62369 0.0
N405 N 0.72021 0.22442 0.6094 0.0
C406 C 0.73116 0.24496 0.62706 0.0
C407 C 0.7439 0.23871 0.6011 0.0
C408 C 0.73198 0.22705 0.59815 0.0
C409 C 0.74358 0.24778 0.61573 0.0
H410 H 0.71018 0.23046 0.6325 0.0
H411 H 0.73218 0.21995 0.58693 0.0
O412 O 0.67902 0.17619 0.59291 0.0
O413 O 0.68333 0.20907 0.61325 0.0
O414 O 0.71162 0.18508 0.61004 0.0
O415 O 0.70194 0.20384 0.58063 0.0
H416 H 0.65442 0.19315 0.60482 0.0
H417 H 0.66925 0.14613 0.58621 0.0
H418 H 0.62703 0.18198 0.60925 0.0
H419 H 0.64154 0.13573 0.59087 0.0
H420 H 0.67284 0.26333 0.62074 0.0
H421 H 0.65688 0.20592 0.63115 0.0
H422 H 0.68934 0.24078 0.60922 0.0
H423 H 0.64082 0.22911 0.64208 0.0
H424 H 0.67836 0.13678 0.64899 0.0
H425 H 0.68331 0.18347 0.67374 0.0
H426 H 0.65173 0.20344 0.53803 0.0
H427 H 0.64515 0.24552 0.56967 0.0
H428 H 0.72018 0.19818 0.63842 0.0
H429 H 0.71454 0.15282 0.61197 0.0
H430 H 0.72863 0.18226 0.66294 0.0
H431 H 0.72311 0.13768 0.63695 0.0
H432 H 0.70005 0.19345 0.54993 0.0
H433 H 0.69769 0.23602 0.58109 0.0
H434 H 0.69415 0.21125 0.52594 0.0
H435 H 0.69171 0.25307 0.55659 0.0
H436 H 0.70825 0.1437 0.54034 0.0
H437 H 0.75074 0.15206 0.56981 0.0
H438 H 0.73068 0.25159 0.63857 0.0
H439 H 0.75329 0.24059 0.59208 0.0
Li440 Li 0.04277 0.45225 0.86924 0.0
Li441 Li 0.06447 0.43215 0.87518 0.0
Li442 Li 0.06706 0.45089 0.85132 0.0
Li443 Li 0.04774 0.42924 0.85225 0.0
C444 C 0.07075 0.4606 0.89058 0.0
N445 N 0.08135 0.46636 0.92223 0.0
C446 C 0.06004 0.45965 0.90377 0.0
C447 C 0.08691 0.46431 0.89355 0.0
C448 C 0.0656 0.46267 0.91966 0.0
C449 C 0.09202 0.46722 0.90962 0.0
C450 C 0.03335 0.4141 0.87588 0.0
C451 C 0.03437 0.38452 0.87573 0.0
N452 N 0.01805 0.38404 0.87469 0.0
C453 C 0.01659 0.41331 0.87492 0.0
C454 C 0.04232 0.39961 0.87637 0.0
C455 C 0.00908 0.39799 0.87429 0.0
C456 C 0.01116 0.46324 0.87178 0.0
N457 N 0.02644 0.46678 0.87651 0.0
C458 C 0.018 0.49247 0.88762 0.0
C459 C 0.03007 0.48108 0.88425 0.0
C460 C 0.00211 0.4893 0.88264 0.0
C461 C 0.99873 0.47435 0.87479 0.0
H462 H 0.00876 0.45208 0.86506 0.0
H463 H 0.0424 0.4839 0.88731 0.0
C464 C 0.09265 0.42261 0.8916 0.0
N465 N 0.07637 0.42314 0.89274 0.0
C466 C 0.10197 0.42175 0.90582 0.0
C467 C 0.07751 0.42058 0.92183 0.0
C468 C 0.06869 0.42118 0.9073 0.0
C469 C 0.09438 0.42187 0.92127 0.0
H470 H 0.09839 0.42438 0.87982 0.0
H471 H 0.05571 0.42192 0.90778 0.0
C472 C 0.04047 0.46709 0.83898 0.0
N473 N 0.03305 0.49776 0.82663 0.0
C474 C 0.03004 0.46863 0.82563 0.0
C475 C 0.04716 0.48117 0.84603 0.0
C476 C 0.02643 0.48424 0.81957 0.0
C477 C 0.04325 0.49656 0.83962 0.0
C478 C 0.07591 0.41481 0.84249 0.0
C479 C 0.07517 0.41711 0.82552 0.0
C480 C 0.08128 0.39984 0.84883 0.0
C481 C 0.07963 0.40425 0.81512 0.0
C482 C 0.08566 0.3873 0.83802 0.0
N483 N 0.08473 0.38974 0.82153 0.0
C484 C 0.09357 0.47169 0.8434 0.0
C485 C 0.07615 0.46484 0.82142 0.0
C486 C 0.10243 0.48209 0.83319 0.0
N487 N 0.08061 0.46349 0.83741 0.0
C488 C 0.08451 0.47523 0.81086 0.0
C489 C 0.09771 0.48415 0.81677 0.0
H490 H 0.09683 0.47044 0.85614 0.0
H491 H 0.06581 0.45815 0.81696 0.0
C492 C 0.02129 0.42261 0.83432 0.0
N493 N 0.03531 0.41518 0.83857 0.0
C494 C 0.01062 0.41497 0.82369 0.0
C495 C 0.02867 0.39175 0.82227 0.0
C496 C 0.03899 0.39984 0.83316 0.0
C497 C 0.01435 0.39945 0.81735 0.0
H498 H 0.01843 0.43459 0.83919 0.0
H499 H 0.04987 0.39386 0.83717 0.0
O500 O 0.06558 0.45722 0.87496 0.0
O501 O 0.04101 0.42894 0.87594 0.0
O502 O 0.04402 0.45183 0.84505 0.0
O503 O 0.07182 0.42727 0.85289 0.0
H504 H 0.04761 0.45626 0.90182 0.0
H505 H 0.09549 0.46472 0.88362 0.0
H506 H 0.05744 0.46191 0.92997 0.0
H507 H 0.10449 0.47007 0.91207 0.0
H508 H 0.04117 0.37321 0.876 0.0
H509 H 0.00946 0.4244 0.87455 0.0
H510 H 0.0553 0.40001 0.87706 0.0
H511 H 0.99612 0.39719 0.87345 0.0
H512 H 0.02116 0.50378 0.89382 0.0
H513 H 0.98674 0.47153 0.87043 0.0
H514 H 0.11493 0.42235 0.90475 0.0
H515 H 0.07103 0.42083 0.93335 0.0
H516 H 0.0248 0.45787 0.81996 0.0
H517 H 0.0553 0.4803 0.85632 0.0
H518 H 0.01837 0.4856 0.80924 0.0
H519 H 0.04833 0.50755 0.84496 0.0
H520 H 0.07106 0.42862 0.82044 0.0
H521 H 0.08208 0.39795 0.86195 0.0
H522 H 0.07902 0.40581 0.80195 0.0
H523 H 0.08979 0.37563 0.84274 0.0
H524 H 0.11251 0.48885 0.83821 0.0
H525 H 0.08063 0.47635 0.79822 0.0
H526 H -0.00027 0.42136 0.82016 0.0
H527 H 0.0318 0.37964 0.81782 0.0
Li528 Li 0.81841 0.79876 0.09425 0.0
Li529 Li 0.80741 0.81243 0.11725 0.0
Li530 Li 0.79415 0.78796 0.10777 0.0
Li531 Li 0.79301 0.81452 0.09173 0.0
C532 C 0.82387 0.77519 0.1191 0.0
N533 N 0.83975 0.74564 0.12283 0.0
C534 C 0.83521 0.77323 0.1316 0.0
C535 C 0.82057 0.76212 0.10855 0.0
C536 C 0.84312 0.7582 0.13328 0.0
C537 C 0.82873 0.74728 0.11062 0.0
C538 C 0.82971 0.83022 0.09885 0.0
C539 C 0.84836 0.85225 0.09353 0.0
N540 N 0.85938 0.84479 0.10335 0.0
C541 C 0.84123 0.82276 0.10889 0.0
C542 C 0.83329 0.84506 0.09109 0.0
C543 C 0.85616 0.83033 0.111 0.0
C544 C 0.83418 0.79525 0.06489 0.0
N545 N 0.83609 0.79233 0.08119 0.0
C546 C 0.85836 0.77468 0.07599 0.0
C547 C 0.84844 0.78305 0.08696 0.0
C548 C 0.85566 0.77624 0.05906 0.0
C549 C 0.84395 0.7873 0.0535 0.0
H550 H 0.82421 0.8027 0.06073 0.0
H551 H 0.84997 0.78127 0.09998 0.0
C552 C 0.80849 0.81553 0.15103 0.0
N553 N 0.81107 0.82409 0.13699 0.0
C554 C 0.80605 0.82381 0.16577 0.0
C555 C 0.81103 0.84941 0.15166 0.0
C556 C 0.81298 0.84064 0.13708 0.0
C557 C 0.80657 0.84108 0.16611 0.0
H558 H 0.80681 0.80238 0.15047 0.0
H559 H 0.81481 0.84716 0.12568 0.0
C560 C 0.79247 0.782 0.07202 0.0
N561 N 0.78122 0.76187 0.04724 0.0
C562 C 0.77724 0.78462 0.06526 0.0
C563 C 0.80206 0.76923 0.06601 0.0
C564 C 0.77173 0.77427 0.0528 0.0
C565 C 0.79614 0.75917 0.05351 0.0
C566 C 0.77663 0.81704 0.12579 0.0
C567 C 0.77133 0.80839 0.13957 0.0
C568 C 0.77482 0.83408 0.12516 0.0
C569 C 0.76452 0.817 0.15267 0.0
C570 C 0.76799 0.84225 0.13853 0.0
N571 N 0.76304 0.83361 0.1519 0.0
C572 C 0.78544 0.75954 0.12626 0.0
C573 C 0.76781 0.76677 0.10461 0.0
C574 C 0.77574 0.74619 0.13041 0.0
N575 N 0.78145 0.76936 0.11339 0.0
C576 C 0.75771 0.75366 0.10839 0.0
C577 C 0.7616 0.74312 0.12146 0.0
H578 H 0.79604 0.76216 0.13346 0.0
H579 H 0.76456 0.77515 0.09491 0.0
C580 C 0.78592 0.83448 0.06432 0.0
N581 N 0.77967 0.82673 0.07763 0.0
C582 C 0.77575 0.84246 0.05325 0.0
C583 C 0.75302 0.83434 0.06992 0.0
C584 C 0.76362 0.82667 0.08072 0.0
C585 C 0.75905 0.84224 0.0559 0.0
H586 H 0.79876 0.83418 0.06217 0.0
H587 H 0.75903 0.82029 0.09138 0.0
O588 O 0.81626 0.78995 0.11721 0.0
O589 O 0.81499 0.8231 0.09652 0.0
O590 O 0.79814 0.79221 0.08407 0.0
O591 O 0.78377 0.80889 0.11307 0.0
H592 H 0.83791 0.78327 0.13986 0.0
H593 H 0.81168 0.76336 0.099 0.0
H594 H 0.85196 0.75652 0.14287 0.0
H595 H 0.82627 0.73706 0.10253 0.0
H596 H 0.85129 0.86375 0.08761 0.0
H597 H 0.83873 0.81129 0.11501 0.0
H598 H 0.8245 0.85097 0.08328 0.0
H599 H 0.86518 0.82471 0.11874 0.0
H600 H 0.86745 0.76638 0.08067 0.0
H601 H 0.84147 0.78873 0.04053 0.0
H602 H 0.80245 0.81674 0.17639 0.0
H603 H 0.812 0.86265 0.15134 0.0
H604 H 0.76966 0.79444 0.06968 0.0
H605 H 0.81399 0.76712 0.07081 0.0
H606 H 0.75993 0.77612 0.04755 0.0
H607 H 0.80343 0.74925 0.04878 0.0
H608 H 0.77266 0.79519 0.14021 0.0
H609 H 0.7789 0.84094 0.11457 0.0
H610 H 0.76049 0.8105 0.16348 0.0
H611 H 0.76669 0.85545 0.13832 0.0
H612 H 0.77924 0.73842 0.14059 0.0
H613 H 0.7467 0.75213 0.10147 0.0
H614 H 0.78084 0.84832 0.04251 0.0
H615 H 0.74025 0.83407 0.07249 0.0
Li616 Li 0.4407 0.55737 0.36851 0.0
Li617 Li 0.46274 0.54238 0.35586 0.0
Li618 Li 0.45243 0.56793 0.34424 0.0
Li619 Li 0.43678 0.54292 0.34243 0.0
C620 C 0.46687 0.57108 0.38029 0.0
N621 N 0.47295 0.58346 0.41122 0.0
C622 C 0.47598 0.562 0.39148 0.0
C623 C 0.46098 0.58651 0.38475 0.0
C624 C 0.4789 0.56847 0.40708 0.0
C625 C 0.46414 0.59253 0.40047 0.0
C626 C 0.43196 0.52059 0.36518 0.0
C627 C 0.42363 0.49347 0.35685 0.0
N628 N 0.41025 0.49493 0.36634 0.0
C629 C 0.41812 0.52182 0.37484 0.0
C630 C 0.43476 0.50629 0.35613 0.0
C631 C 0.4073 0.5087 0.37528 0.0
C632 C 0.41972 0.57241 0.39234 0.0
N633 N 0.43175 0.5615 0.38944 0.0
C634 C 0.43124 0.5524 0.41722 0.0
C635 C 0.43765 0.55172 0.40149 0.0
C636 C 0.41849 0.56319 0.42061 0.0
C637 C 0.41284 0.57347 0.40799 0.0
H638 H 0.41518 0.57994 0.38244 0.0
H639 H 0.44702 0.54295 0.39869 0.0
C640 C 0.49633 0.53565 0.35762 0.0
N641 N 0.48131 0.52949 0.36003 0.0
C642 C 0.50984 0.52576 0.36019 0.0
C643 C 0.49209 0.50362 0.36811 0.0
C644 C 0.479 0.51391 0.3654 0.0
C645 C 0.50776 0.50944 0.36534 0.0
H646 H 0.49779 0.5482 0.35357 0.0
H647 H 0.46698 0.50946 0.36763 0.0
C648 C 0.42303 0.57812 0.34054 0.0
N649 N 0.41193 0.60477 0.32294 0.0
C650 C 0.41611 0.57584 0.32508 0.0
C651 C 0.42418 0.59391 0.34712 0.0
C652 C 0.4106 0.58949 0.31636 0.0
C653 C 0.41854 0.60723 0.33801 0.0
C654 C 0.47117 0.54109 0.32516 0.0
C655 C 0.48379 0.5515 0.32063 0.0
C656 C 0.47264 0.52418 0.32263 0.0
C657 C 0.49764 0.54481 0.31362 0.0
C658 C 0.48671 0.51797 0.31563 0.0
N659 N 0.49881 0.52832 0.3113 0.0
C660 C 0.46912 0.5975 0.33787 0.0
C661 C 0.45592 0.58509 0.31526 0.0
C662 C 0.47757 0.6079 0.32734 0.0
N663 N 0.45898 0.58606 0.33159 0.0
C664 C 0.46413 0.59517 0.3043 0.0
C665 C 0.47568 0.60623 0.31027 0.0
H666 H 0.47156 0.59773 0.3509 0.0
H667 H 0.44816 0.57549 0.31063 0.0
C668 C 0.40714 0.52772 0.33363 0.0
N669 N 0.42253 0.53073 0.32888 0.0
C670 C 0.39716 0.51788 0.32397 0.0
C671 C 0.41881 0.51524 0.30432 0.0
C672 C 0.42837 0.52499 0.31441 0.0
C673 C 0.40304 0.51141 0.30915 0.0
H674 H 0.40269 0.53277 0.34503 0.0
H675 H 0.44051 0.52788 0.31073 0.0
O676 O 0.46362 0.56483 0.36507 0.0
O677 O 0.44262 0.53337 0.36443 0.0
O678 O 0.42872 0.56495 0.34916 0.0
O679 O 0.45761 0.54735 0.33235 0.0
H680 H 0.4806 0.55002 0.38824 0.0
H681 H 0.45389 0.59367 0.37623 0.0
H682 H 0.48585 0.56154 0.41591 0.0
H683 H 0.45956 0.6044 0.40414 0.0
H684 H 0.4256 0.48239 0.34982 0.0
H685 H 0.41562 0.53282 0.38179 0.0
H686 H 0.44529 0.5052 0.3484 0.0
H687 H 0.39652 0.50951 0.38266 0.0
H688 H 0.43572 0.54394 0.42639 0.0
H689 H 0.40303 0.58195 0.4101 0.0
H690 H 0.52171 0.53072 0.35796 0.0
H691 H 0.48995 0.49128 0.37253 0.0
H692 H 0.41514 0.56369 0.31982 0.0
H693 H 0.4295 0.59585 0.35908 0.0
H694 H 0.40529 0.58793 0.30435 0.0
H695 H 0.41943 0.61954 0.3429 0.0
H696 H 0.48302 0.56457 0.3227 0.0
H697 H 0.4631 0.51592 0.32626 0.0
H698 H 0.50751 0.55271 0.3101 0.0
H699 H 0.48803 0.5049 0.3137 0.0
H700 H 0.48624 0.61641 0.33245 0.0
H701 H 0.46246 0.59325 0.29127 0.0
H702 H 0.38499 0.51542 0.32799 0.0
H703 H 0.42382 0.51046 0.29303 0.0
Li704 Li 0.38714 0.20198 0.28788 0.0
Li705 Li 0.40225 0.2031 0.31479 0.0
Li706 Li 0.40067 0.17743 0.29849 0.0
Li707 Li 0.37766 0.18773 0.31218 0.0
C708 C 0.42148 0.20464 0.28177 0.0
N709 N 0.44422 0.21697 0.2603 0.0
C710 C 0.42901 0.21963 0.28502 0.0
C711 C 0.42569 0.19582 0.26769 0.0
C712 C 0.44041 0.22569 0.27399 0.0
C713 C 0.43717 0.20228 0.25697 0.0
C714 C 0.3679 0.21859 0.31645 0.0
C715 C 0.35413 0.22758 0.34088 0.0
N716 N 0.34079 0.2308 0.33177 0.0
C717 C 0.35413 0.22213 0.30728 0.0
C718 C 0.36798 0.22146 0.33335 0.0
C719 C 0.34052 0.22826 0.31527 0.0
C720 C 0.36845 0.21027 0.26008 0.0
N721 N 0.38155 0.21456 0.2691 0.0
C722 C 0.38637 0.23771 0.2518 0.0
C723 C 0.3904 0.22805 0.26532 0.0
C724 C 0.37297 0.23353 0.24217 0.0
C725 C 0.36402 0.21953 0.24641 0.0
H726 H 0.36132 0.19976 0.26361 0.0
H727 H 0.40036 0.23156 0.27303 0.0
C728 C 0.4283 0.21062 0.33566 0.0
N729 N 0.41544 0.21686 0.3275 0.0
C730 C 0.43877 0.22111 0.344 0.0
C731 C 0.42238 0.24412 0.33546 0.0
C732 C 0.4122 0.2332 0.32739 0.0
C733 C 0.43596 0.23812 0.34376 0.0
H734 H 0.43059 0.19755 0.33537 0.0
H735 H 0.4019 0.23776 0.32068 0.0
C736 C 0.37552 0.17037 0.27581 0.0
N737 N 0.37006 0.15148 0.24822 0.0
C738 C 0.36386 0.15802 0.27609 0.0
C739 C 0.38429 0.17321 0.26147 0.0
C740 C 0.3613 0.14858 0.26202 0.0
C741 C 0.38139 0.1635 0.24766 0.0
C742 C 0.39611 0.16509 0.32968 0.0
C743 C 0.38633 0.15338 0.32209 0.0
C744 C 0.40397 0.16119 0.34432 0.0
C745 C 0.3846 0.13793 0.32929 0.0
C746 C 0.40192 0.14559 0.35114 0.0
N747 N 0.39236 0.13438 0.34355 0.0
C748 C 0.42968 0.16265 0.29178 0.0
C749 C 0.40742 0.14681 0.28287 0.0
C750 C 0.4401 0.15348 0.28202 0.0
N751 N 0.4136 0.15978 0.29123 0.0
C752 C 0.41735 0.13747 0.27273 0.0
C753 C 0.43375 0.14139 0.27164 0.0
H754 H 0.43422 0.17307 0.29858 0.0
H755 H 0.39466 0.14446 0.28303 0.0
C756 C 0.34458 0.1835 0.31452 0.0
N757 N 0.35834 0.18309 0.32347 0.0
C758 C 0.32976 0.18491 0.32238 0.0
C759 C 0.34352 0.1838 0.3485 0.0
C760 C 0.35811 0.18256 0.34012 0.0
C761 C 0.32917 0.18583 0.3396 0.0
H762 H 0.34523 0.18419 0.30128 0.0
H763 H 0.3693 0.18246 0.34689 0.0
O764 O 0.41039 0.19847 0.29257 0.0
O765 O 0.38115 0.21209 0.30894 0.0
O766 O 0.3783 0.17952 0.28959 0.0
O767 O 0.39806 0.18033 0.32291 0.0
H768 H 0.42599 0.22659 0.29588 0.0
H769 H 0.42033 0.18403 0.2651 0.0
H770 H 0.44624 0.23732 0.27631 0.0
H771 H 0.44053 0.19558 0.24603 0.0
H772 H 0.35394 0.22969 0.35399 0.0
H773 H 0.35389 0.21994 0.29418 0.0
H774 H 0.37856 0.21873 0.3406 0.0
H775 H 0.32972 0.23091 0.30837 0.0
H776 H 0.39334 0.24864 0.24928 0.0
H777 H 0.3536 0.21585 0.23935 0.0
H778 H 0.44919 0.21603 0.35015 0.0
H779 H 0.41971 0.25712 0.33515 0.0
H780 H 0.35695 0.15569 0.2871 0.0
H781 H 0.39315 0.18287 0.26097 0.0
H782 H 0.35237 0.13893 0.26208 0.0
H783 H 0.38813 0.16555 0.23649 0.0
H784 H 0.38011 0.15615 0.3108 0.0
H785 H 0.41158 0.17013 0.35034 0.0
H786 H 0.37707 0.12875 0.32355 0.0
H787 H 0.40793 0.14241 0.36247 0.0
H788 H 0.45269 0.15685 0.28144 0.0
H789 H 0.41213 0.12804 0.26503 0.0
H790 H 0.31909 0.18666 0.31497 0.0
H791 H 0.3436 0.1842 0.36178 0.0
Li792 Li 0.05244 0.15488 0.56868 0.0
Li793 Li 0.04911 0.13983 0.54176 0.0
Li794 Li 0.06622 0.12967 0.56302 0.0
Li795 Li 0.07481 0.15334 0.54877 0.0
C796 C 0.0367 0.11992 0.5717 0.0
N797 N 0.02615 0.09181 0.58729 0.0
C798 C 0.03039 0.10694 0.56255 0.0
C799 C 0.03747 0.11871 0.5888 0.0
C800 C 0.02515 0.0928 0.57066 0.0
C801 C 0.03214 0.10436 0.59644 0.0
C802 C 0.0452 0.17591 0.53894 0.0
C803 C 0.043 0.19747 0.51876 0.0
N804 N 0.02841 0.20168 0.52502 0.0
C805 C 0.03022 0.18051 0.54521 0.0
C806 C 0.05169 0.1845 0.52564 0.0
C807 C 0.0219 0.19354 0.53799 0.0
C808 C 0.04807 0.18418 0.58597 0.0
N809 N 0.04182 0.16899 0.58344 0.0
C810 C 0.0187 0.17549 0.59951 0.0
C811 C 0.02751 0.16441 0.59005 0.0
C812 C 0.02464 0.19143 0.60205 0.0
C813 C 0.03963 0.19567 0.59531 0.0
H814 H 0.05941 0.18747 0.58035 0.0
H815 H 0.02269 0.15236 0.5875 0.0
C816 C 0.03696 0.12198 0.51448 0.0
N817 N 0.0339 0.13454 0.52501 0.0
C818 C 0.02596 0.118 0.50219 0.0
C819 C 0.00844 0.13938 0.5123 0.0
C820 C 0.01988 0.14306 0.52428 0.0
C821 C 0.01142 0.12672 0.50098 0.0
H822 H 0.04789 0.11493 0.51565 0.0
H823 H 0.01739 0.15249 0.5332 0.0
C824 C 0.09116 0.14735 0.57755 0.0
N825 N 0.1228 0.14239 0.58666 0.0
C826 C 0.10131 0.13775 0.56778 0.0
C827 C 0.09711 0.15442 0.59194 0.0
C828 C 0.11726 0.1354 0.5726 0.0
C829 C 0.11314 0.15176 0.59634 0.0
C830 C 0.07591 0.13046 0.5232 0.0
C831 C 0.08595 0.11794 0.51753 0.0
C832 C 0.07063 0.14259 0.51234 0.0
C833 C 0.09059 0.11779 0.50105 0.0
C834 C 0.07552 0.14202 0.49596 0.0
N835 N 0.08533 0.12973 0.4907 0.0
C836 C 0.06844 0.09583 0.56392 0.0
C837 C 0.07605 0.10844 0.58895 0.0
C838 C 0.06721 0.08061 0.57161 0.0
N839 N 0.07194 0.10942 0.57285 0.0
C840 C 0.07531 0.09337 0.59708 0.0
C841 C 0.06985 0.07936 0.58862 0.0
H842 H 0.06501 0.09709 0.55118 0.0
H843 H 0.07861 0.1195 0.5958 0.0
C844 C 0.08947 0.18308 0.54363 0.0
N845 N 0.0911 0.1669 0.54001 0.0
C846 C 0.09813 0.1948 0.53486 0.0
C847 C 0.11092 0.17284 0.51972 0.0
C848 C 0.10215 0.16153 0.52894 0.0
C849 C 0.10844 0.1897 0.52224 0.0
H850 H 0.08056 0.18693 0.55251 0.0
H851 H 0.10349 0.14857 0.52656 0.0
O852 O 0.04223 0.1337 0.56395 0.0
O853 O 0.05369 0.16339 0.54608 0.0
O854 O 0.07548 0.14989 0.57316 0.0
O855 O 0.07148 0.1308 0.53937 0.0
H856 H 0.02971 0.1077 0.54931 0.0
H857 H 0.0424 0.12864 0.59604 0.0
H858 H 0.02035 0.0826 0.56373 0.0
H859 H 0.03283 0.10316 0.60964 0.0
H860 H 0.04788 0.2042 0.50846 0.0
H861 H 0.02495 0.17398 0.55542 0.0
H862 H 0.06332 0.18126 0.52066 0.0
H863 H 0.01027 0.19717 0.54268 0.0
H864 H 0.00708 0.17181 0.60424 0.0
H865 H 0.0447 0.20778 0.59708 0.0
H866 H 0.02884 0.10817 0.49375 0.0
H867 H 0.99722 0.14612 0.5122 0.0
H868 H 0.09697 0.13215 0.55662 0.0
H869 H 0.08941 0.16188 0.59963 0.0
H870 H 0.12524 0.12801 0.56516 0.0
H871 H 0.11791 0.15716 0.60745 0.0
H872 H 0.09016 0.10847 0.5258 0.0
H873 H 0.06276 0.15226 0.51647 0.0
H874 H 0.09838 0.10818 0.49649 0.0
H875 H 0.07152 0.15133 0.48743 0.0
H876 H 0.06277 0.07035 0.5645 0.0
H877 H 0.07788 0.09297 0.61009 0.0
H878 H 0.09586 0.2077 0.53708 0.0
H879 H 0.11895 0.16849 0.5102 0.0
Li880 Li 0.10107 0.82216 0.79382 0.0
Li881 Li 0.123 0.81222 0.80899 0.0
Li882 Li 0.11439 0.79731 0.78407 0.0
Li883 Li 0.09742 0.79788 0.81068 0.0
C884 C 0.13079 0.8301 0.7756 0.0
N885 N 0.14604 0.85149 0.75437 0.0
C886 C 0.14018 0.84293 0.78176 0.0
C887 C 0.12943 0.82796 0.75863 0.0
C888 C 0.14771 0.85367 0.77083 0.0
C889 C 0.13715 0.83896 0.74811 0.0
C890 C 0.10427 0.83499 0.82603 0.0
C891 C 0.10135 0.85181 0.8502 0.0
N892 N 0.10841 0.86453 0.84213 0.0
C893 C 0.11142 0.84823 0.81796 0.0
C894 C 0.09912 0.83679 0.84225 0.0
C895 C 0.11344 0.86306 0.82631 0.0
C896 C 0.0745 0.84252 0.79419 0.0
N897 N 0.08864 0.84015 0.78617 0.0
C898 C 0.08023 0.85757 0.7643 0.0
C899 C 0.09193 0.84793 0.77182 0.0
C900 C 0.065 0.85904 0.77159 0.0
C901 C 0.06239 0.85194 0.78705 0.0
H902 H 0.07215 0.83597 0.80549 0.0
H903 H 0.10309 0.84569 0.76553 0.0
C904 C 0.15606 0.81448 0.81287 0.0
N905 N 0.14199 0.81655 0.82107 0.0
C906 C 0.1704 0.81262 0.82153 0.0
C907 C 0.15567 0.81669 0.84679 0.0
C908 C 0.14157 0.81831 0.83764 0.0
C909 C 0.1702 0.81293 0.83878 0.0
H910 H 0.15593 0.81279 0.79971 0.0
H911 H 0.13017 0.81959 0.84387 0.0
C912 C 0.07903 0.80512 0.77673 0.0
N913 N 0.05497 0.81492 0.75549 0.0
C914 C 0.06309 0.80584 0.7821 0.0
C915 C 0.08271 0.80917 0.76049 0.0
C916 C 0.0511 0.81087 0.77119 0.0
C917 C 0.07039 0.81416 0.74996 0.0
C918 C 0.13121 0.78115 0.81492 0.0
C919 C 0.14505 0.77585 0.80676 0.0
C920 C 0.13029 0.77989 0.832 0.0
C921 C 0.15787 0.76955 0.81589 0.0
C922 C 0.14338 0.77353 0.84068 0.0
N923 N 0.15679 0.76856 0.83251 0.0
C924 C 0.13512 0.78516 0.75927 0.0
C925 C 0.10891 0.77373 0.7599 0.0
C926 C 0.13929 0.77519 0.74599 0.0
N927 N 0.12016 0.7842 0.76591 0.0
C928 C 0.11255 0.76353 0.74667 0.0
C929 C 0.12796 0.76409 0.73959 0.0
H930 H 0.14383 0.79361 0.76437 0.0
H931 H 0.09715 0.77318 0.76553 0.0
C932 C 0.0687 0.79223 0.82789 0.0
N933 N 0.08299 0.78544 0.82347 0.0
C934 C 0.05736 0.78294 0.83645 0.0
C935 C 0.07597 0.7601 0.8363 0.0
C936 C 0.08682 0.76974 0.82749 0.0
C937 C 0.06096 0.76665 0.8407 0.0
H938 H 0.06605 0.80479 0.82455 0.0
H939 H 0.09822 0.76463 0.82365 0.0
O940 O 0.1236 0.81924 0.78611 0.0
O941 O 0.10221 0.82032 0.81817 0.0
O942 O 0.09102 0.80071 0.78735 0.0
O943 O 0.11874 0.78784 0.80626 0.0
H944 H 0.14175 0.84453 0.79484 0.0
H945 H 0.12238 0.81801 0.75363 0.0
H946 H 0.15495 0.86369 0.77543 0.0
H947 H 0.13608 0.83753 0.73496 0.0
H948 H 0.09748 0.85336 0.86277 0.0
H949 H 0.11523 0.84712 0.80536 0.0
H950 H 0.09352 0.82664 0.84865 0.0
H951 H 0.11896 0.87341 0.8202 0.0
H952 H 0.08265 0.8627 0.75229 0.0
H953 H 0.05082 0.8529 0.79309 0.0
H954 H 0.18119 0.80951 0.81479 0.0
H955 H 0.155 0.81726 0.86005 0.0
H956 H 0.06001 0.80271 0.79461 0.0
H957 H 0.09498 0.80867 0.75613 0.0
H958 H 0.03873 0.81161 0.77523 0.0
H959 H 0.07309 0.81748 0.73741 0.0
H960 H 0.14595 0.77678 0.79355 0.0
H961 H 0.1197 0.78405 0.8385 0.0
H962 H 0.16871 0.76553 0.80976 0.0
H963 H 0.14292 0.77265 0.85392 0.0
H964 H 0.15126 0.77612 0.74084 0.0
H965 H 0.10354 0.75496 0.74237 0.0
H966 H 0.04593 0.7884 0.83975 0.0
H967 H 0.07908 0.74753 0.83925 0.0
Li968 Li 0.42786 0.83923 0.04388 0.0
Li969 Li 0.4372 0.86234 0.05828 0.0
Li970 Li 0.4521 0.85297 0.03374 0.0
Li971 Li 0.45172 0.83654 0.06089 0.0
C972 C 0.41949 0.86947 0.02534 0.0
N973 N 0.3979 0.88539 0.00506 0.0
C974 C 0.40693 0.87868 0.03207 0.0
C975 C 0.42123 0.86862 0.0083 0.0
C976 C 0.39609 0.88657 0.02161 0.0
C977 C 0.41014 0.87667 0.99826 0.0
C978 C 0.41528 0.84355 0.07618 0.0
C979 C 0.39934 0.84204 0.10085 0.0
N980 N 0.38651 0.84815 0.0925 0.0
C981 C 0.40193 0.84972 0.06782 0.0
C982 C 0.41398 0.83958 0.0928 0.0
C983 C 0.38749 0.85199 0.07628 0.0
C984 C 0.4081 0.81171 0.04439 0.0
N985 N 0.41051 0.82609 0.03631 0.0
C986 C 0.39401 0.81724 0.01411 0.0
C987 C 0.40321 0.82929 0.02175 0.0
C988 C 0.39243 0.80175 0.02148 0.0
C989 C 0.39906 0.79924 0.03713 0.0
H990 H 0.41428 0.80944 0.05585 0.0
H991 H 0.40553 0.84061 0.01541 0.0
C992 C 0.43526 0.89604 0.06029 0.0
N993 N 0.43275 0.88229 0.06933 0.0
C994 C 0.43725 0.91114 0.06801 0.0
C995 C 0.43239 0.8979 0.0941 0.0
C996 C 0.43067 0.88297 0.08585 0.0
C997 C 0.43659 0.91209 0.08523 0.0
H998 H 0.43724 0.89503 0.04721 0.0
H999 H 0.42904 0.8718 0.09279 0.0
C1000 C 0.44499 0.81709 0.02684 0.0
N1001 N 0.43562 0.79291 0.00509 0.0
C1002 C 0.44427 0.80073 0.03192 0.0
C1003 C 0.44115 0.82113 0.01065 0.0
C1004 C 0.43945 0.78869 0.02075 0.0
C1005 C 0.43639 0.80874 -0.00015 0.0
C1006 C 0.46761 0.87151 0.06381 0.0
C1007 C 0.47332 0.88497 0.05493 0.0
C1008 C 0.46829 0.87171 0.08096 0.0
C1009 C 0.47945 0.89853 0.06337 0.0
C1010 C 0.47449 0.8855 0.08894 0.0
N1011 N 0.47987 0.89852 0.08006 0.0
C1012 C 0.4637 0.87383 0.00861 0.0
C1013 C 0.47586 0.84754 0.01016 0.0
C1014 C 0.47383 0.87825 0.99568 0.0
N1015 N 0.46499 0.85874 0.01559 0.0
C1016 C 0.48624 0.85144 0.9973 0.0
C1017 C 0.48543 0.86705 0.99002 0.0
H1018 H 0.45503 0.88253 0.01333 0.0
H1019 H 0.4766 0.83565 0.01601 0.0
C1020 C 0.4589 0.80732 0.0778 0.0
N1021 N 0.46438 0.82257 0.07409 0.0
C1022 C 0.46863 0.79637 0.08648 0.0
C1023 C 0.4891 0.81738 0.08801 0.0
C1024 C 0.47912 0.82776 0.07901 0.0
C1025 C 0.48405 0.80129 0.09164 0.0
H1026 H 0.44709 0.80355 0.07372 0.0
H1027 H 0.48323 0.83991 0.07577 0.0
O1028 O 0.43044 0.86191 0.03535 0.0
O1029 O 0.42959 0.84129 0.06821 0.0
O1030 O 0.44911 0.82916 0.03774 0.0
O1031 O 0.46113 0.85833 0.05578 0.0
H1032 H 0.40561 0.87987 0.04522 0.0
H1033 H 0.43096 0.86167 0.00286 0.0
H1034 H 0.38628 0.89369 0.02665 0.0
H1035 H 0.41128 0.876 0.98505 0.0
H1036 H 0.39818 0.83909 0.11374 0.0
H1037 H 0.40265 0.85261 0.05492 0.0
H1038 H 0.42422 0.83475 0.09943 0.0
H1039 H 0.37706 0.85678 0.06996 0.0
H1040 H 0.38929 0.81962 0.00195 0.0
H1041 H 0.39802 0.7875 0.04326 0.0
H1042 H 0.44072 0.9216 0.06062 0.0
H1043 H 0.43151 0.89809 0.10735 0.0
H1044 H 0.44721 0.79738 0.0444 0.0
H1045 H 0.44159 0.83374 0.00653 0.0
H1046 H 0.43869 0.77599 0.02455 0.0
H1047 H 0.43323 0.81172 0.98732 0.0
H1048 H 0.47286 0.88503 0.04167 0.0
H1049 H 0.46379 0.86143 0.08802 0.0
H1050 H 0.48379 0.90908 0.05666 0.0
H1051 H 0.47492 0.8859 0.1022 0.0
H1052 H 0.47299 0.89049 0.99057 0.0
H1053 H 0.49492 0.84241 0.99322 0.0
H1054 H 0.46423 0.78407 0.08873 0.0
H1055 H 0.50068 0.82194 0.092 0.0
Li1056 Li 0.88414 0.31381 0.68646 0.0
Li1057 Li 0.90511 0.32507 0.70233 0.0
Li1058 Li 0.91044 0.30108 0.68563 0.0
Li1059 Li 0.89275 0.2994 0.71148 0.0
C1060 C 0.90145 0.33842 0.671 0.0
N1061 N 0.8948 0.36856 0.657 0.0
C1062 C 0.89227 0.34998 0.67953 0.0
C1063 C 0.90727 0.34219 0.65536 0.0
C1064 C 0.88904 0.36514 0.67225 0.0
C1065 C 0.90377 0.35749 0.64849 0.0
C1066 C 0.87458 0.32955 0.72107 0.0
C1067 C 0.86923 0.33563 0.74952 0.0
N1068 N 0.85809 0.34692 0.74484 0.0
C1069 C 0.86302 0.34115 0.71655 0.0
C1070 C 0.87767 0.3267 0.73769 0.0
C1071 C 0.85484 0.34984 0.72875 0.0
C1072 C 0.85128 0.31375 0.68273 0.0
N1073 N 0.86501 0.31703 0.67435 0.0
C1074 C 0.85066 0.31797 0.64901 0.0
C1075 C 0.86495 0.31964 0.65788 0.0
C1076 C 0.83645 0.31331 0.65719 0.0
C1077 C 0.83682 0.31177 0.67437 0.0
H1078 H 0.85182 0.31137 0.69577 0.0
H1079 H 0.87612 0.32196 0.65151 0.0
C1080 C 0.9317 0.34534 0.70627 0.0
N1081 N 0.91612 0.34362 0.71102 0.0
C1082 C 0.94243 0.3542 0.71601 0.0
C1083 C 0.92031 0.36132 0.73388 0.0
C1084 C 0.91007 0.35223 0.72389 0.0
C1085 C 0.93687 0.36146 0.73056 0.0
H1086 H 0.93615 0.33842 0.69589 0.0
H1087 H 0.89761 0.35114 0.7272 0.0
C1088 C 0.87889 0.28252 0.67888 0.0
N1089 N 0.85661 0.26889 0.65779 0.0
C1090 C 0.86463 0.27588 0.68505 0.0
C1091 C 0.88194 0.28205 0.66203 0.0
C1092 C 0.85348 0.26909 0.67417 0.0
C1093 C 0.87049 0.27515 0.65155 0.0
C1094 C 0.9288 0.30806 0.71855 0.0
C1095 C 0.94431 0.30741 0.71198 0.0
C1096 C 0.9266 0.31285 0.73486 0.0
C1097 C 0.95738 0.31185 0.7218 0.0
C1098 C 0.93997 0.31724 0.74426 0.0
N1099 N 0.95496 0.31667 0.73759 0.0
C1100 C 0.93393 0.2952 0.66091 0.0
C1101 C 0.92864 0.27347 0.67951 0.0
C1102 C 0.94562 0.28578 0.65295 0.0
N1103 N 0.92579 0.28888 0.67391 0.0
C1104 C 0.94021 0.26366 0.67198 0.0
C1105 C 0.94893 0.26981 0.65855 0.0
H1106 H 0.93143 0.30758 0.65684 0.0
H1107 H 0.92194 0.26886 0.68992 0.0
C1108 C 0.87139 0.28544 0.7344 0.0
N1109 N 0.88693 0.28589 0.72927 0.0
C1110 C 0.86694 0.27517 0.74732 0.0
C1111 C 0.89456 0.26605 0.74935 0.0
C1112 C 0.8985 0.27659 0.73647 0.0
C1113 C 0.87857 0.26518 0.75484 0.0
H1114 H 0.86246 0.29293 0.72831 0.0
H1115 H 0.91075 0.27721 0.73206 0.0
O1116 O 0.90467 0.3234 0.67775 0.0
O1117 O 0.88257 0.32083 0.70926 0.0
O1118 O 0.88965 0.28982 0.68924 0.0
O1119 O 0.91584 0.3041 0.70901 0.0
H1120 H 0.88773 0.34733 0.69164 0.0
H1121 H 0.91436 0.33336 0.64857 0.0
H1122 H 0.88195 0.3742 0.67872 0.0
H1123 H 0.90817 0.36057 0.63638 0.0
H1124 H 0.87154 0.33358 0.76242 0.0
H1125 H 0.86038 0.34343 0.70374 0.0
H1126 H 0.88653 0.31776 0.74143 0.0
H1127 H 0.84589 0.35888 0.72542 0.0
H1128 H 0.85093 0.31951 0.63582 0.0
H1129 H 0.82637 0.30786 0.68124 0.0
H1130 H 0.95511 0.35405 0.71297 0.0
H1131 H 0.91549 0.36721 0.74474 0.0
H1132 H 0.86209 0.27621 0.69808 0.0
H1133 H 0.89292 0.28721 0.65708 0.0
H1134 H 0.84231 0.26405 0.67874 0.0
H1135 H 0.8726 0.27484 0.63846 0.0
H1136 H 0.94621 0.3037 0.69937 0.0
H1137 H 0.91469 0.31335 0.74015 0.0
H1138 H 0.96945 0.31153 0.71684 0.0
H1139 H 0.93844 0.32115 0.75685 0.0
H1140 H 0.95217 0.29103 0.64273 0.0
H1141 H 0.94219 0.25134 0.67653 0.0
H1142 H 0.85444 0.27465 0.75103 0.0
H1143 H 0.90387 0.25858 0.75487 0.0
Li1144 Li 0.95186 0.6426 0.95682 0.0
Li1145 Li 0.95004 0.65718 0.9295 0.0
Li1146 Li 0.92714 0.65735 0.94883 0.0
Li1147 Li 0.93475 0.63286 0.93534 0.0
C1148 C 0.95815 0.67796 0.95926 0.0
N1149 N 0.97695 0.70197 0.97364 0.0
C1150 C 0.97358 0.6812 0.95326 0.0
C1151 C 0.95224 0.68707 0.9725 0.0
C1152 C 0.98291 0.69334 0.96072 0.0
C1153 C 0.96195 0.69912 0.97962 0.0
C1154 C 0.96396 0.62072 0.92872 0.0
C1155 C 0.96861 0.60267 0.90574 0.0
N1156 N 0.9737 0.59078 0.91625 0.0
C1157 C 0.96932 0.60836 0.93929 0.0
C1158 C 0.96365 0.61789 0.91181 0.0
C1159 C 0.97416 0.5933 0.93274 0.0
C1160 C 0.96226 0.62527 0.98543 0.0
N1161 N 0.96633 0.63687 0.97415 0.0
C1162 C 0.99203 0.6404 0.98676 0.0
C1163 C 0.98101 0.64417 0.97443 0.0
C1164 C 0.988 0.62881 0.99885 0.0
C1165 C 0.97289 0.62116 0.99803 0.0
H1166 H 0.95085 0.61903 0.98459 0.0
H1167 H 0.98434 0.65264 0.96487 0.0
C1168 C 0.95886 0.68684 0.91484 0.0
N1169 N 0.96184 0.67046 0.91478 0.0
C1170 C 0.96865 0.6975 0.9059 0.0
C1171 C 0.98386 0.67408 0.89635 0.0
C1172 C 0.97395 0.66392 0.90571 0.0
C1173 C 0.98153 0.69118 0.89664 0.0
H1174 H 0.94928 0.69169 0.92242 0.0
H1175 H 0.97623 0.65088 0.90611 0.0
C1176 C 0.92401 0.63501 0.97475 0.0
N1177 N 0.91326 0.63524 0.00683 0.0
C1178 C 0.91323 0.62302 0.98018 0.0
C1179 C 0.92934 0.64709 0.98564 0.0
C1180 C 0.90794 0.62335 0.99645 0.0
C1181 C 0.92376 0.64701 0.0018 0.0
C1182 C 0.91117 0.65153 0.91975 0.0
C1183 C 0.90039 0.64249 0.92933 0.0
C1184 C 0.90586 0.65878 0.90519 0.0
C1185 C 0.88445 0.64088 0.92417 0.0
C1186 C 0.88982 0.65688 0.90044 0.0
N1187 N 0.87954 0.64805 0.90995 0.0
C1188 C 0.91413 0.68793 0.95458 0.0
C1189 C 0.89931 0.6665 0.9672 0.0
C1190 C 0.90573 0.6997 0.96356 0.0
N1191 N 0.91129 0.67172 0.95713 0.0
C1192 C 0.89078 0.67783 0.97662 0.0
C1193 C 0.89446 0.69458 0.97528 0.0
H1194 H 0.92376 0.69166 0.94646 0.0
H1195 H 0.89706 0.65354 0.96873 0.0
C1196 C 0.93033 0.59939 0.93591 0.0
N1197 N 0.92812 0.61266 0.92611 0.0
C1198 C 0.93117 0.58375 0.92908 0.0
C1199 C 0.92528 0.59557 0.90254 0.0
C1200 C 0.92482 0.61107 0.90987 0.0
C1201 C 0.92955 0.58178 0.91201 0.0
H1202 H 0.93314 0.60113 0.94876 0.0
H1203 H 0.92327 0.62189 0.90235 0.0
O1204 O 0.94869 0.66633 0.95189 0.0
O1205 O 0.95894 0.63546 0.93494 0.0
O1206 O 0.92904 0.63494 0.95877 0.0
O1207 O 0.92686 0.65334 0.92447 0.0
H1208 H 0.97842 0.67425 0.94308 0.0
H1209 H 0.94028 0.68494 0.97724 0.0
H1210 H 0.9949 0.69588 0.95624 0.0
H1211 H 0.95752 0.70622 0.98989 0.0
H1212 H 0.96831 0.60026 0.89269 0.0
H1213 H 0.96961 0.61031 0.95241 0.0
H1214 H 0.95932 0.62722 0.90346 0.0
H1215 H 0.97824 0.58359 0.94078 0.0
H1216 H 0.00375 0.64618 0.98655 0.0
H1217 H 0.9693 0.61208 0.00701 0.0
H1218 H 0.96651 0.71057 0.90678 0.0
H1219 H 0.99341 0.66857 0.8892 0.0
H1220 H 0.90896 0.61361 0.97188 0.0
H1221 H 0.93775 0.65634 0.98168 0.0
H1222 H 0.89958 0.61417 0.00082 0.0
H1223 H 0.92779 0.65629 0.01035 0.0
H1224 H 0.90422 0.63674 0.9406 0.0
H1225 H 0.91406 0.66581 0.89763 0.0
H1226 H 0.87598 0.63393 0.93146 0.0
H1227 H 0.88555 0.66243 0.8892 0.0
H1228 H 0.9089 0.71253 0.96227 0.0
H1229 H 0.882 0.67351 0.98543 0.0
H1230 H 0.93467 0.57366 0.93694 0.0
H1231 H 0.92356 0.59462 0.88941 0.0
Li1232 Li 0.61189 0.69913 0.21284 0.0
Li1233 Li 0.59567 0.69714 0.18583 0.0
Li1234 Li 0.59813 0.6739 0.20452 0.0
Li1235 Li 0.62077 0.68232 0.18937 0.0
C1236 C 0.57667 0.69306 0.2204 0.0
N1237 N 0.55283 0.68605 0.24296 0.0
C1238 C 0.56052 0.69343 0.21569 0.0
C1239 C 0.58069 0.68933 0.23663 0.0
C1240 C 0.54864 0.68981 0.22727 0.0
C1241 C 0.56846 0.68577 0.24784 0.0
C1242 C 0.63017 0.71257 0.18163 0.0
C1243 C 0.64372 0.71769 0.15597 0.0
N1244 N 0.65688 0.72296 0.16435 0.0
C1245 C 0.64377 0.71816 0.19 0.0
C1246 C 0.63007 0.71243 0.16448 0.0
C1247 C 0.65718 0.72333 0.18104 0.0
C1248 C 0.63251 0.71224 0.23711 0.0
N1249 N 0.61757 0.71305 0.23042 0.0
C1250 C 0.60992 0.73417 0.24915 0.0
C1251 C 0.60632 0.72371 0.23612 0.0
C1252 C 0.6253 0.73374 0.25626 0.0
C1253 C 0.63667 0.72255 0.25011 0.0
H1254 H 0.6412 0.7036 0.23229 0.0
H1255 H 0.59456 0.72414 0.23047 0.0
C1256 C 0.56681 0.70257 0.16904 0.0
N1257 N 0.58172 0.70882 0.17183 0.0
C1258 C 0.55571 0.71136 0.15966 0.0
C1259 C 0.57583 0.73243 0.15556 0.0
C1260 C 0.58641 0.72341 0.16533 0.0
C1261 C 0.56022 0.72648 0.15285 0.0
H1262 H 0.56349 0.69087 0.17432 0.0
H1263 H 0.59827 0.72817 0.16794 0.0
C1264 C 0.62744 0.66605 0.22336 0.0
N1265 N 0.64219 0.64462 0.24491 0.0
C1266 C 0.63586 0.65244 0.21741 0.0
C1267 C 0.62678 0.66892 0.24026 0.0
C1268 C 0.64316 0.64171 0.22851 0.0
C1269 C 0.63424 0.6579 0.25096 0.0
C1270 C 0.60204 0.65911 0.17286 0.0
C1271 C 0.6076 0.64569 0.18189 0.0
C1272 C 0.59841 0.65719 0.15624 0.0
C1273 C 0.6096 0.63057 0.17409 0.0
C1274 C 0.60058 0.64187 0.14886 0.0
N1275 N 0.6061 0.62899 0.15786 0.0
C1276 C 0.57042 0.65523 0.2058 0.0
C1277 C 0.58814 0.64983 0.22794 0.0
C1278 C 0.55795 0.64706 0.21381 0.0
N1279 N 0.58492 0.65704 0.21328 0.0
C1280 C 0.57607 0.64145 0.23632 0.0
C1281 C 0.56057 0.64063 0.22956 0.0
H1282 H 0.56816 0.66132 0.19424 0.0
H1283 H 0.59961 0.65163 0.23378 0.0
C1284 C 0.6538 0.67869 0.18739 0.0
N1285 N 0.64016 0.67662 0.17849 0.0
C1286 C 0.66869 0.67929 0.17958 0.0
C1287 C 0.65531 0.67423 0.15373 0.0
C1288 C 0.64064 0.67382 0.16205 0.0
C1289 C 0.66951 0.67776 0.16242 0.0
H1290 H 0.65299 0.68129 0.20038 0.0
H1291 H 0.62958 0.67261 0.15521 0.0
O1292 O 0.58853 0.69603 0.20913 0.0
O1293 O 0.61712 0.70697 0.1902 0.0
O1294 O 0.62043 0.67688 0.2127 0.0
O1295 O 0.60004 0.67407 0.18018 0.0
H1296 H 0.55718 0.69634 0.20321 0.0
H1297 H 0.59312 0.68893 0.24047 0.0
H1298 H 0.53609 0.68992 0.22376 0.0
H1299 H 0.57141 0.6827 0.2604 0.0
H1300 H 0.64389 0.71747 0.1427 0.0
H1301 H 0.64405 0.71832 0.20327 0.0
H1302 H 0.61969 0.70798 0.15782 0.0
H1303 H 0.66784 0.72756 0.18735 0.0
H1304 H 0.6009 0.74281 0.25332 0.0
H1305 H 0.64864 0.72178 0.25531 0.0
H1306 H 0.54377 0.70643 0.15773 0.0
H1307 H 0.57961 0.74413 0.15058 0.0
H1308 H 0.63689 0.65024 0.20437 0.0
H1309 H 0.62047 0.67947 0.2451 0.0
H1310 H 0.64967 0.6311 0.22408 0.0
H1311 H 0.63371 0.6599 0.26407 0.0
H1312 H 0.61021 0.64689 0.1948 0.0
H1313 H 0.59404 0.66747 0.14909 0.0
H1314 H 0.61392 0.62008 0.18093 0.0
H1315 H 0.59789 0.64022 0.13598 0.0
H1316 H 0.54618 0.64655 0.20814 0.0
H1317 H 0.57854 0.63681 0.24852 0.0
H1318 H 0.67921 0.68233 0.18679 0.0
H1319 H 0.65541 0.67282 0.14052 0.0
Li1320 Li 0.56343 0.37113 0.43743 0.0
Li1321 Li 0.56942 0.34425 0.44957 0.0
Li1322 Li 0.54581 0.34822 0.43264 0.0
Li1323 Li 0.54737 0.36048 0.45904 0.0
C1324 C 0.58379 0.35016 0.41938 0.0
N1325 N 0.61451 0.35031 0.40646 0.0
C1326 C 0.59658 0.35656 0.42849 0.0
C1327 C 0.58664 0.3438 0.40372 0.0
C1328 C 0.61202 0.35653 0.42174 0.0
C1329 C 0.60225 0.34401 0.3974 0.0
C1330 C 0.57166 0.3706 0.47615 0.0
C1331 C 0.57303 0.36329 0.50479 0.0
N1332 N 0.57243 0.37947 0.50886 0.0
C1333 C 0.57113 0.38715 0.4806 0.0
C1334 C 0.57267 0.35856 0.48832 0.0
C1335 C 0.5715 0.39139 0.49721 0.0
C1336 C 0.56361 0.40453 0.43528 0.0
N1337 N 0.5705 0.39125 0.4281 0.0
C1338 C 0.58009 0.40777 0.40593 0.0
C1339 C 0.57895 0.39261 0.41387 0.0
C1340 C 0.57213 0.42151 0.41251 0.0
C1341 C 0.56427 0.41982 0.4277 0.0
H1342 H 0.55646 0.40296 0.44625 0.0
H1343 H 0.58392 0.38184 0.40807 0.0
C1344 C 0.58053 0.31259 0.45142 0.0
N1345 N 0.58455 0.32822 0.45546 0.0
C1346 C 0.58935 0.29947 0.45762 0.0
C1347 C 0.60689 0.31888 0.47122 0.0
C1348 C 0.59769 0.33166 0.46474 0.0
C1349 C 0.6024 0.30253 0.46811 0.0
H1350 H 0.56998 0.31034 0.44397 0.0
H1351 H 0.6005 0.34425 0.4678 0.0
C1352 C 0.53346 0.37866 0.42524 0.0
N1353 N 0.52151 0.39515 0.39823 0.0
C1354 C 0.52096 0.38997 0.42708 0.0
C1355 C 0.53986 0.3757 0.40965 0.0
C1356 C 0.51508 0.39819 0.41327 0.0
C1357 C 0.53367 0.38418 0.39616 0.0
C1358 C 0.53318 0.32924 0.45758 0.0
C1359 C 0.51864 0.3378 0.45656 0.0
C1360 C 0.53313 0.31272 0.46216 0.0
C1361 C 0.50428 0.32967 0.46014 0.0
C1362 C 0.51852 0.30502 0.46564 0.0
N1363 N 0.50451 0.31358 0.46457 0.0
C1364 C 0.53883 0.32365 0.41004 0.0
C1365 C 0.51653 0.34071 0.4162 0.0
C1366 C 0.52915 0.31343 0.4005 0.0
N1367 N 0.53235 0.33683 0.41779 0.0
C1368 C 0.50639 0.33077 0.40687 0.0
C1369 C 0.51262 0.31674 0.39909 0.0
H1370 H 0.55144 0.32083 0.41166 0.0
H1371 H 0.51164 0.35116 0.42268 0.0
C1372 C 0.52791 0.38136 0.47784 0.0
N1373 N 0.5351 0.3664 0.47784 0.0
C1374 C 0.51755 0.38576 0.49057 0.0
C1375 C 0.52264 0.35947 0.50332 0.0
C1376 C 0.53292 0.35559 0.49035 0.0
C1377 C 0.51457 0.37462 0.50339 0.0
H1378 H 0.5299 0.38969 0.46771 0.0
H1379 H 0.53886 0.34379 0.49004 0.0
O1380 O 0.56855 0.34989 0.42568 0.0
O1381 O 0.57094 0.36618 0.45997 0.0
O1382 O 0.53954 0.37088 0.43878 0.0
O1383 O 0.54743 0.33687 0.45405 0.0
H1384 H 0.59465 0.36158 0.4406 0.0
H1385 H 0.57686 0.33878 0.39653 0.0
H1386 H 0.62202 0.36146 0.42865 0.0
H1387 H 0.60462 0.33915 0.38528 0.0
H1388 H 0.57369 0.3541 0.51434 0.0
H1389 H 0.57041 0.39663 0.47135 0.0
H1390 H 0.57284 0.34568 0.4851 0.0
H1391 H 0.57104 0.40415 0.50084 0.0
H1392 H 0.58637 0.40849 0.39432 0.0
H1393 H 0.55758 0.42984 0.43311 0.0
H1394 H 0.58564 0.28705 0.45478 0.0
H1395 H 0.61676 0.32177 0.47939 0.0
H1396 H 0.5159 0.39244 0.43907 0.0
H1397 H 0.54956 0.36705 0.40793 0.0
H1398 H 0.50543 0.407 0.41453 0.0
H1399 H 0.53855 0.38205 0.38404 0.0
H1400 H 0.51841 0.35059 0.45302 0.0
H1401 H 0.54428 0.30592 0.46301 0.0
H1402 H 0.49295 0.33615 0.45939 0.0
H1403 H 0.51831 0.29223 0.46919 0.0
H1404 H 0.53452 0.3029 0.39452 0.0
H1405 H 0.49369 0.33369 0.40633 0.0
H1406 H 0.51144 0.39748 0.49 0.0
H1407 H 0.52083 0.35061 0.51305 0.0
Li1408 Li 0.2806 0.3875 0.20213 0.0
Li1409 Li 0.30403 0.37681 0.18747 0.0
Li1410 Li 0.30622 0.40174 0.20427 0.0
Li1411 Li 0.29202 0.40158 0.17814 0.0
C1412 C 0.31005 0.37703 0.22504 0.0
N1413 N 0.32942 0.37363 0.25236 0.0
C1414 C 0.32453 0.36839 0.22396 0.0
C1415 C 0.30536 0.38385 0.24003 0.0
C1416 C 0.33416 0.36681 0.23792 0.0
C1417 C 0.31534 0.38204 0.25369 0.0
C1418 C 0.27855 0.36588 0.17077 0.0
C1419 C 0.28271 0.34832 0.14735 0.0
N1420 N 0.27293 0.33686 0.15424 0.0
C1421 C 0.26842 0.354 0.17757 0.0
C1422 C 0.28566 0.3631 0.15549 0.0
C1423 C 0.26577 0.33938 0.16904 0.0
C1424 C 0.2469 0.38702 0.20892 0.0
N1425 N 0.26163 0.38142 0.21355 0.0
C1426 C 0.25014 0.36667 0.23595 0.0
C1427 C 0.26343 0.37122 0.2266 0.0
C1428 C 0.23489 0.37282 0.23189 0.0
C1429 C 0.23328 0.38307 0.21816 0.0
H1430 H 0.24576 0.39473 0.1982 0.0
H1431 H 0.27523 0.3667 0.22982 0.0
C1432 C 0.32855 0.35567 0.17458 0.0
N1433 N 0.31414 0.35671 0.18241 0.0
C1434 C 0.33656 0.34059 0.17369 0.0
C1435 C 0.31432 0.32804 0.18815 0.0
C1436 C 0.30694 0.34331 0.18903 0.0
C1437 C 0.32951 0.32661 0.18078 0.0
H1438 H 0.33413 0.36664 0.16976 0.0
H1439 H 0.29579 0.34467 0.19572 0.0
C1440 C 0.27194 0.41875 0.20575 0.0
N1441 N 0.24475 0.43322 0.21883 0.0
C1442 C 0.26046 0.42585 0.19542 0.0
C1443 C 0.26962 0.41909 0.22274 0.0
C1444 C 0.2468 0.43311 0.20227 0.0
C1445 C 0.25577 0.42642 0.22911 0.0
C1446 C 0.32248 0.40654 0.17026 0.0
C1447 C 0.3296 0.42156 0.17423 0.0
C1448 C 0.32252 0.40111 0.154 0.0
C1449 C 0.33646 0.43103 0.16178 0.0
C1450 C 0.32949 0.41095 0.1419 0.0
N1451 N 0.33624 0.42558 0.146 0.0
C1452 C 0.33459 0.41038 0.22202 0.0
C1453 C 0.31287 0.42913 0.22373 0.0
C1454 C 0.344 0.4204 0.2321 0.0
N1455 N 0.31928 0.41482 0.21822 0.0
C1456 C 0.32183 0.43953 0.23373 0.0
C1457 C 0.33762 0.43523 0.23802 0.0
H1458 H 0.33956 0.39916 0.21708 0.0
H1459 H 0.30083 0.43259 0.22022 0.0
C1460 C 0.27389 0.40992 0.15058 0.0
N1461 N 0.2857 0.41529 0.16076 0.0
C1462 C 0.26497 0.42118 0.14147 0.0
C1463 C 0.28151 0.44301 0.15242 0.0
C1464 C 0.28997 0.43137 0.1615 0.0
C1465 C 0.26835 0.43799 0.14293 0.0
H1466 H 0.27045 0.39713 0.15067 0.0
H1467 H 0.29887 0.43535 0.17029 0.0
O1468 O 0.30053 0.37888 0.21148 0.0
O1469 O 0.28144 0.38018 0.17902 0.0
O1470 O 0.28536 0.41146 0.19929 0.0
O1471 O 0.31564 0.39714 0.18226 0.0
H1472 H 0.32838 0.36307 0.21245 0.0
H1473 H 0.29417 0.39054 0.24108 0.0
H1474 H 0.34543 0.36022 0.23725 0.0
H1475 H 0.31191 0.38733 0.26536 0.0
H1476 H 0.28821 0.34595 0.13555 0.0
H1477 H 0.26278 0.35599 0.18937 0.0
H1478 H 0.29342 0.37224 0.15002 0.0
H1479 H 0.25804 0.33003 0.17419 0.0
H1480 H 0.25182 0.35881 0.24652 0.0
H1481 H 0.22166 0.38791 0.21463 0.0
H1482 H 0.34834 0.33995 0.16806 0.0
H1483 H 0.30868 0.31768 0.19417 0.0
H1484 H 0.26197 0.42566 0.18226 0.0
H1485 H 0.27836 0.41363 0.23091 0.0
H1486 H 0.23779 0.4386 0.19442 0.0
H1487 H 0.25378 0.42668 0.24222 0.0
H1488 H 0.32971 0.42591 0.18678 0.0
H1489 H 0.31719 0.38944 0.15077 0.0
H1490 H 0.34193 0.44273 0.16465 0.0
H1491 H 0.32954 0.40694 0.12924 0.0
H1492 H 0.35622 0.41677 0.23492 0.0
H1493 H 0.31643 0.45081 0.2381 0.0
H1494 H 0.25485 0.41692 0.13427 0.0
H1495 H 0.28425 0.45591 0.15406 0.0
Li1496 Li 0.79286 0.09733 0.82269 0.0
Li1497 Li 0.80648 0.09534 0.79726 0.0
Li1498 Li 0.80369 0.12148 0.81204 0.0
Li1499 Li 0.77954 0.10943 0.79848 0.0
C1500 C 0.82405 0.09484 0.83119 0.0
N1501 N 0.84018 0.08056 0.85716 0.0
C1502 C 0.8328 0.08038 0.82883 0.0
C1503 C 0.82369 0.10215 0.84669 0.0
C1504 C 0.84083 0.07332 0.84214 0.0
C1505 C 0.83186 0.09471 0.85968 0.0
C1506 C 0.77963 0.07129 0.80712 0.0
C1507 C 0.75859 0.05473 0.81901 0.0
N1508 N 0.76812 0.04124 0.81756 0.0
C1509 C 0.78927 0.05729 0.8059 0.0
C1510 C 0.76419 0.07003 0.81381 0.0
C1511 C 0.78322 0.0422 0.81121 0.0
C1512 C 0.7737 0.08921 0.8497 0.0
N1513 N 0.7873 0.08476 0.84158 0.0
C1514 C 0.78718 0.05849 0.8545 0.0
C1515 C 0.79442 0.06998 0.84425 0.0
C1516 C 0.77232 0.06214 0.86181 0.0
C1517 C 0.76597 0.07801 0.85998 0.0
H1518 H 0.76806 0.10086 0.84704 0.0
H1519 H 0.8048 0.06641 0.83719 0.0
C1520 C 0.8354 0.08334 0.78293 0.0
N1521 N 0.81907 0.08281 0.78258 0.0
C1522 C 0.84434 0.07352 0.77226 0.0
C1523 C 0.81946 0.06326 0.7608 0.0
C1524 C 0.81103 0.07329 0.77164 0.0
C1525 C 0.83636 0.06315 0.76112 0.0
H1526 H 0.84144 0.0913 0.79159 0.0
H1527 H 0.79803 0.07331 0.77155 0.0
C1528 C 0.77943 0.13301 0.82909 0.0
N1529 N 0.77638 0.16283 0.84491 0.0
C1530 C 0.77141 0.146 0.82146 0.0
C1531 C 0.78566 0.13509 0.84487 0.0
C1532 C 0.77006 0.16101 0.82963 0.0
C1533 C 0.78405 0.15028 0.85264 0.0
C1534 C 0.80797 0.11834 0.77426 0.0
C1535 C 0.82385 0.12394 0.77427 0.0
C1536 C 0.80087 0.1132 0.7596 0.0
C1537 C 0.83242 0.12425 0.75952 0.0
C1538 C 0.80985 0.1137 0.74512 0.0
N1539 N 0.8253 0.11916 0.74538 0.0
C1540 C 0.82624 0.14513 0.82467 0.0
C1541 C 0.80741 0.15403 0.80473 0.0
C1542 C 0.83392 0.16041 0.8243 0.0
N1543 N 0.81338 0.14226 0.8148 0.0
C1544 C 0.81463 0.1694 0.80398 0.0
C1545 C 0.82826 0.17269 0.81362 0.0
H1546 H 0.83089 0.13543 0.83237 0.0
H1547 H 0.79735 0.15124 0.79678 0.0
C1548 C 0.74896 0.1034 0.7837 0.0
N1549 N 0.76111 0.11434 0.78581 0.0
C1550 C 0.73626 0.107 0.77307 0.0
C1551 C 0.74886 0.13307 0.76709 0.0
C1552 C 0.76126 0.12897 0.77784 0.0
C1553 C 0.7362 0.12194 0.76445 0.0
H1554 H 0.7493 0.0917 0.78989 0.0
H1555 H 0.77128 0.13727 0.7795 0.0
O1556 O 0.81625 0.10202 0.81827 0.0
O1557 O 0.7853 0.08615 0.80183 0.0
O1558 O 0.78122 0.11834 0.82114 0.0
O1559 O 0.79957 0.11742 0.78864 0.0
H1560 H 0.8332 0.07452 0.81694 0.0
H1561 H 0.81718 0.11345 0.84867 0.0
H1562 H 0.84754 0.06206 0.84053 0.0
H1563 H 0.83161 0.1002 0.87177 0.0
H1564 H 0.74671 0.05359 0.8243 0.0
H1565 H 0.80135 0.05805 0.80108 0.0
H1566 H 0.75672 0.0808 0.81527 0.0
H1567 H 0.79055 0.03127 0.81034 0.0
H1568 H 0.79253 0.04643 0.85569 0.0
H1569 H 0.75444 0.08129 0.86522 0.0
H1570 H 0.85734 0.07404 0.77271 0.0
H1571 H 0.81279 0.05536 0.75257 0.0
H1572 H 0.76641 0.14457 0.8093 0.0
H1573 H 0.79162 0.12506 0.85107 0.0
H1574 H 0.764 0.17122 0.82381 0.0
H1575 H 0.78889 0.15209 0.86483 0.0
H1576 H 0.82954 0.12782 0.78556 0.0
H1577 H 0.78861 0.10872 0.75946 0.0
H1578 H 0.84475 0.12849 0.75933 0.0
H1579 H 0.80455 0.1097 0.73368 0.0
H1580 H 0.84437 0.16245 0.83194 0.0
H1581 H 0.81007 0.17828 0.79527 0.0
H1582 H 0.72673 0.0981 0.77143 0.0
H1583 H 0.74954 0.14455 0.76044 0.0
Li1584 Li 0.15347 0.54716 0.07107 0.0
Li1585 Li 0.1303 0.56032 0.06067 0.0
Li1586 Li 0.14019 0.53583 0.04676 0.0
Li1587 Li 0.15486 0.56295 0.04504 0.0
C1588 C 0.12843 0.52539 0.08006 0.0
N1589 N 0.1229 0.50061 0.1025 0.0
C1590 C 0.11713 0.52756 0.09258 0.0
C1591 C 0.1368 0.51057 0.07887 0.0
C1592 C 0.11454 0.5149 0.10383 0.0
C1593 C 0.13387 0.4982 0.09036 0.0
C1594 C 0.14883 0.57876 0.08261 0.0
C1595 C 0.15451 0.60109 0.10113 0.0
N1596 N 0.14534 0.59372 0.11282 0.0
C1597 C 0.13947 0.5714 0.09481 0.0
C1598 C 0.15642 0.59372 0.08577 0.0
C1599 C 0.13785 0.57915 0.11 0.0
C1600 C 0.18286 0.54238 0.08525 0.0
N1601 N 0.16694 0.54087 0.08868 0.0
C1602 C 0.17264 0.52433 0.11208 0.0
C1603 C 0.16172 0.53293 0.10234 0.0
C1604 C 0.189 0.52429 0.1078 0.0
C1605 C 0.19421 0.53415 0.09474 0.0
H1606 H 0.18663 0.54887 0.07433 0.0
H1607 H 0.14905 0.53233 0.10511 0.0
C1608 C 0.09708 0.56289 0.0647 0.0
N1609 N 0.11096 0.57166 0.06515 0.0
C1610 C 0.08235 0.57095 0.06337 0.0
C1611 C 0.09645 0.59689 0.06462 0.0
C1612 C 0.11092 0.58831 0.06574 0.0
C1613 C 0.08198 0.58819 0.0626 0.0
H1614 H 0.09757 0.54964 0.06397 0.0
H1615 H 0.12218 0.59495 0.06585 0.0
C1616 C 0.17373 0.52946 0.04422 0.0
N1617 N 0.19497 0.50629 0.0322 0.0
C1618 C 0.18095 0.53166 0.02889 0.0
C1619 C 0.17752 0.51558 0.05355 0.0
C1620 C 0.19159 0.51977 0.02299 0.0
C1621 C 0.18824 0.50399 0.04723 0.0
C1622 C 0.12034 0.56364 0.02971 0.0
C1623 C 0.10685 0.55398 0.02636 0.0
C1624 C 0.1199 0.58049 0.0266 0.0
C1625 C 0.09299 0.56145 0.02017 0.0
C1626 C 0.1058 0.58749 0.02044 0.0
N1627 N 0.09274 0.57791 0.0174 0.0
C1628 C 0.12509 0.5051 0.03924 0.0
C1629 C 0.14307 0.51573 0.01935 0.0
C1630 C 0.1223 0.49121 0.02958 0.0
N1631 N 0.13556 0.51684 0.0341 0.0
C1632 C 0.14061 0.50213 0.0093 0.0
C1633 C 0.13017 0.48956 0.01441 0.0
H1634 H 0.11881 0.50652 0.05074 0.0
H1635 H 0.15082 0.52556 0.01528 0.0
C1636 C 0.18103 0.58343 0.03738 0.0
N1637 N 0.16817 0.57529 0.03111 0.0
C1638 C 0.19198 0.59108 0.02688 0.0
C1639 C 0.17604 0.58196 0.00377 0.0
C1640 C 0.16536 0.5746 0.01471 0.0
C1641 C 0.18967 0.59014 0.00982 0.0
H1642 H 0.183 0.58356 0.0505 0.0
H1643 H 0.15509 0.56787 0.01013 0.0
O1644 O 0.13123 0.53777 0.06909 0.0
O1645 O 0.15062 0.57143 0.06762 0.0
O1646 O 0.16332 0.54102 0.05019 0.0
O1647 O 0.13382 0.55666 0.03629 0.0
H1648 H 0.1105 0.53895 0.09364 0.0
H1649 H 0.1454 0.50861 0.06914 0.0
H1650 H 0.10588 0.51643 0.11362 0.0
H1651 H 0.1403 0.48669 0.0896 0.0
H1652 H 0.16031 0.61268 0.10375 0.0
H1653 H 0.13349 0.55986 0.09258 0.0
H1654 H 0.16371 0.59956 0.07644 0.0
H1655 H 0.13065 0.57359 0.11955 0.0
H1656 H 0.16826 0.51703 0.12225 0.0
H1657 H 0.20671 0.53437 0.09103 0.0
H1658 H 0.07158 0.56371 0.06162 0.0
H1659 H 0.0967 0.61017 0.06435 0.0
H1660 H 0.17828 0.54237 0.02155 0.0
H1661 H 0.17239 0.51383 0.0656 0.0
H1662 H 0.19716 0.52127 0.01109 0.0
H1663 H 0.19125 0.49319 0.05432 0.0
H1664 H 0.10703 0.54091 0.02874 0.0
H1665 H 0.13027 0.58811 0.02917 0.0
H1666 H 0.0824 0.55417 0.01766 0.0
H1667 H 0.10521 0.60056 0.01815 0.0
H1668 H 0.11408 0.48189 0.03397 0.0
H1669 H 0.14654 0.50167 0.99748 0.0
H1670 H 0.20242 0.59714 0.03201 0.0
H1671 H 0.17377 0.58111 0.99071 0.0
Li1672 Li 0.69385 0.90485 0.32262 0.0
Li1673 Li 0.67273 0.91102 0.30197 0.0
Li1674 Li 0.67537 0.8835 0.3146 0.0
Li1675 Li 0.69527 0.8931 0.29545 0.0
C1676 C 0.66627 0.90148 0.34188 0.0
N1677 N 0.65903 0.89492 0.37432 0.0
C1678 C 0.65255 0.90828 0.34907 0.0
C1679 C 0.67633 0.89135 0.35119 0.0
C1680 C 0.6491 0.90482 0.36549 0.0
C1681 C 0.67245 0.88818 0.36756 0.0
C1682 C 0.7069 0.92395 0.29184 0.0
C1683 C 0.71587 0.93274 0.26509 0.0
N1684 N 0.72982 0.93823 0.27183 0.0
C1685 C 0.72126 0.92984 0.29853 0.0
C1686 C 0.70411 0.92557 0.275 0.0
C1687 C 0.73272 0.93696 0.28821 0.0
C1688 C 0.72227 0.90956 0.33938 0.0
N1689 N 0.70672 0.91452 0.33877 0.0
C1690 C 0.71229 0.93735 0.35614 0.0
C1691 C 0.70143 0.92783 0.34721 0.0
C1692 C 0.72874 0.93327 0.356 0.0
C1693 C 0.73358 0.91884 0.34791 0.0
H1694 H 0.72611 0.89913 0.33216 0.0
H1695 H 0.68898 0.93155 0.34626 0.0
C1696 C 0.64384 0.92475 0.28902 0.0
N1697 N 0.65932 0.92769 0.29351 0.0
C1698 C 0.63512 0.93677 0.28061 0.0
C1699 C 0.6583 0.95464 0.28218 0.0
C1700 C 0.66647 0.94241 0.29068 0.0
C1701 C 0.64257 0.95174 0.27673 0.0
H1702 H 0.63854 0.91285 0.29135 0.0
H1703 H 0.67874 0.94444 0.29452 0.0
C1704 C 0.70454 0.86632 0.31457 0.0
N1705 N 0.71488 0.83435 0.31057 0.0
C1706 C 0.69876 0.85686 0.30156 0.0
C1707 C 0.71564 0.85955 0.32553 0.0
C1708 C 0.70411 0.84072 0.29975 0.0
C1709 C 0.72071 0.84336 0.3233 0.0
C1710 C 0.66682 0.88558 0.27587 0.0
C1711 C 0.66294 0.86936 0.27185 0.0
C1712 C 0.66515 0.89785 0.264 0.0
C1713 C 0.65764 0.86569 0.256 0.0
C1714 C 0.65981 0.89369 0.2483 0.0
N1715 N 0.65621 0.87783 0.24465 0.0
C1716 C 0.65004 0.86159 0.3122 0.0
C1717 C 0.67022 0.85291 0.3308 0.0
C1718 C 0.64332 0.84593 0.31201 0.0
N1719 N 0.66373 0.86448 0.32077 0.0
C1720 C 0.66383 0.83707 0.33107 0.0
C1721 C 0.65073 0.83319 0.32087 0.0
H1722 H 0.64515 0.87107 0.30437 0.0
H1723 H 0.68104 0.8556 0.33764 0.0
C1724 C 0.7264 0.89018 0.28299 0.0
N1725 N 0.71077 0.88722 0.27908 0.0
C1726 C 0.73861 0.8871 0.27164 0.0
C1727 C 0.71851 0.87697 0.2528 0.0
C1728 C 0.7067 0.88053 0.26439 0.0
C1729 C 0.73473 0.88049 0.25621 0.0
H1730 H 0.72936 0.89522 0.29489 0.0
H1731 H 0.69434 0.87787 0.26158 0.0
O1732 O 0.66975 0.90476 0.3258 0.0
O1733 O 0.69563 0.9167 0.30174 0.0
O1734 O 0.69931 0.88209 0.31679 0.0
O1735 O 0.67196 0.8894 0.29139 0.0
H1736 H 0.64465 0.91615 0.34203 0.0
H1737 H 0.68702 0.88599 0.34588 0.0
H1738 H 0.63851 0.91 0.37122 0.0
H1739 H 0.68012 0.88036 0.3749 0.0
H1740 H 0.71391 0.93393 0.25202 0.0
H1741 H 0.72357 0.92894 0.31153 0.0
H1742 H 0.69308 0.92117 0.26961 0.0
H1743 H 0.74392 0.94149 0.29322 0.0
H1744 H 0.70795 0.94816 0.36247 0.0
H1745 H 0.7461 0.9153 0.34716 0.0
H1746 H 0.62302 0.93411 0.27648 0.0
H1747 H 0.66434 0.96612 0.27955 0.0
H1748 H 0.69022 0.86191 0.29298 0.0
H1749 H 0.7202 0.86672 0.3357 0.0
H1750 H 0.69968 0.83325 0.28975 0.0
H1751 H 0.72926 0.83794 0.33171 0.0
H1752 H 0.66411 0.85964 0.2808 0.0
H1753 H 0.66788 0.91048 0.26683 0.0
H1754 H 0.65468 0.85318 0.25273 0.0
H1755 H 0.6585 0.90308 0.23901 0.0
H1756 H 0.63331 0.84359 0.30385 0.0
H1757 H 0.66972 0.82773 0.33837 0.0
H1758 H 0.75088 0.89014 0.27485 0.0
H1759 H 0.71492 0.87139 0.24131 0.0
Li1760 Li 0.34622 0.45339 0.57439 0.0
Li1761 Li 0.36866 0.4397 0.56351 0.0
Li1762 Li 0.35921 0.46508 0.55035 0.0
Li1763 Li 0.34317 0.4381 0.54912 0.0
C1764 C 0.37391 0.47435 0.58227 0.0
N1765 N 0.38529 0.49913 0.60229 0.0
C1766 C 0.38427 0.47069 0.59527 0.0
C1767 C 0.36952 0.49065 0.57932 0.0
C1768 C 0.38983 0.48338 0.6053 0.0
C1769 C 0.37535 0.50299 0.58961 0.0
C1770 C 0.35103 0.42133 0.58566 0.0
C1771 C 0.34885 0.39725 0.60273 0.0
N1772 N 0.35669 0.40529 0.61497 0.0
C1773 C 0.35906 0.42935 0.59841 0.0
C1774 C 0.34587 0.40516 0.58782 0.0
C1775 C 0.36181 0.42104 0.61313 0.0
C1776 C 0.31931 0.45105 0.5944 0.0
N1777 N 0.33341 0.45935 0.59291 0.0
C1778 C 0.32453 0.47962 0.61197 0.0
C1779 C 0.33648 0.47295 0.60203 0.0
C1780 C 0.30928 0.47224 0.61245 0.0
C1781 C 0.30694 0.45737 0.6041 0.0
H1782 H 0.31718 0.44027 0.58696 0.0
H1783 H 0.34771 0.47936 0.60077 0.0
C1784 C 0.40185 0.43682 0.56723 0.0
N1785 N 0.38801 0.42799 0.56709 0.0
C1786 C 0.41664 0.42891 0.5657 0.0
C1787 C 0.40265 0.40289 0.56513 0.0
C1788 C 0.38811 0.41133 0.56663 0.0
C1789 C 0.41712 0.41175 0.56399 0.0
H1790 H 0.40133 0.45009 0.56725 0.0
H1791 H 0.37688 0.40466 0.56626 0.0
C1792 C 0.32201 0.46832 0.55792 0.0
N1793 N 0.29371 0.48328 0.56748 0.0
C1794 C 0.30746 0.45978 0.55697 0.0
C1795 C 0.32215 0.48452 0.56355 0.0
C1796 C 0.29328 0.46756 0.56189 0.0
C1797 C 0.30772 0.49184 0.5684 0.0
C1798 C 0.37611 0.43469 0.53222 0.0
C1799 C 0.39088 0.4419 0.52834 0.0
C1800 C 0.37362 0.41804 0.52902 0.0
C1801 C 0.40304 0.43221 0.52153 0.0
C1802 C 0.38608 0.40878 0.52218 0.0
N1803 N 0.40042 0.41599 0.51864 0.0
C1804 C 0.37971 0.48964 0.53751 0.0
C1805 C 0.35245 0.49094 0.52902 0.0
C1806 C 0.38364 0.5028 0.5273 0.0
N1807 N 0.36438 0.4839 0.53798 0.0
C1808 C 0.35584 0.5041 0.51865 0.0
C1809 C 0.37167 0.50999 0.51746 0.0
H1810 H 0.38893 0.48371 0.54477 0.0
H1811 H 0.34038 0.48606 0.52964 0.0
C1812 C 0.32043 0.4134 0.54128 0.0
N1813 N 0.3294 0.42601 0.53538 0.0
C1814 C 0.30984 0.40505 0.53091 0.0
C1815 C 0.31806 0.42287 0.50868 0.0
C1816 C 0.32846 0.43084 0.51946 0.0
C1817 C 0.30853 0.4098 0.51437 0.0
H1818 H 0.32142 0.40992 0.55405 0.0
H1819 H 0.33569 0.44104 0.51523 0.0
O1820 O 0.36861 0.46208 0.57216 0.0
O1821 O 0.34829 0.42913 0.57106 0.0
O1822 O 0.33604 0.46082 0.5534 0.0
O1823 O 0.36428 0.44379 0.53949 0.0
H1824 H 0.38801 0.45817 0.59758 0.0
H1825 H 0.36157 0.49375 0.56931 0.0
H1826 H 0.3978 0.48071 0.61544 0.0
H1827 H 0.37196 0.51564 0.58753 0.0
H1828 H 0.34493 0.38473 0.60456 0.0
H1829 H 0.36307 0.44186 0.59699 0.0
H1830 H 0.33967 0.39876 0.57805 0.0
H1831 H 0.368 0.42711 0.6231 0.0
H1832 H 0.32682 0.49117 0.61812 0.0
H1833 H 0.2954 0.45122 0.60429 0.0
H1834 H 0.42744 0.43626 0.56463 0.0
H1835 H 0.40249 0.38965 0.56403 0.0
H1836 H 0.30715 0.44724 0.55263 0.0
H1837 H 0.33329 0.49131 0.5643 0.0
H1838 H 0.28195 0.46107 0.56133 0.0
H1839 H 0.30766 0.50432 0.57293 0.0
H1840 H 0.393 0.45476 0.5308 0.0
H1841 H 0.36227 0.41228 0.53204 0.0
H1842 H 0.4146 0.43757 0.51862 0.0
H1843 H 0.38438 0.39584 0.51978 0.0
H1844 H 0.39604 0.50681 0.52658 0.0
H1845 H 0.34625 0.50938 0.51138 0.0
H1846 H 0.30284 0.39495 0.53575 0.0
H1847 H 0.31726 0.42711 0.49612 0.0
Li1848 Li 0.1853 0.61767 0.68528 0.0
Li1849 Li 0.20894 0.61182 0.70138 0.0
Li1850 Li 0.20142 0.59394 0.67924 0.0
Li1851 Li 0.18543 0.59434 0.70478 0.0
C1852 C 0.21359 0.63295 0.67526 0.0
N1853 N 0.22422 0.66473 0.67044 0.0
C1854 C 0.21023 0.64512 0.68686 0.0
C1855 C 0.22242 0.63696 0.66123 0.0
C1856 C 0.21568 0.6611 0.6842 0.0
C1857 C 0.22768 0.65309 0.65901 0.0
C1858 C 0.18438 0.62478 0.72429 0.0
C1859 C 0.18297 0.62296 0.7538 0.0
N1860 N 0.17853 0.63901 0.7545 0.0
C1861 C 0.17979 0.64126 0.7253 0.0
C1862 C 0.18598 0.61555 0.73866 0.0
C1863 C 0.17689 0.64823 0.74068 0.0
C1864 C 0.15891 0.6376 0.68795 0.0
N1865 N 0.17182 0.635 0.6781 0.0
C1866 C 0.16834 0.66116 0.66542 0.0
C1867 C 0.17608 0.64596 0.6663 0.0
C1868 C 0.15608 0.66491 0.67671 0.0
C1869 C 0.15081 0.65255 0.68747 0.0
H1870 H 0.15585 0.62863 0.69724 0.0
H1871 H 0.18625 0.64348 0.65843 0.0
C1872 C 0.24204 0.61705 0.70623 0.0
N1873 N 0.2273 0.62098 0.71235 0.0
C1874 C 0.256 0.6219 0.71444 0.0
C1875 C 0.23939 0.63604 0.73425 0.0
C1876 C 0.22579 0.63062 0.72588 0.0
C1877 C 0.2547 0.63138 0.72872 0.0
H1878 H 0.24293 0.60976 0.69519 0.0
H1879 H 0.21409 0.63396 0.7304 0.0
C1880 C 0.17052 0.59403 0.66625 0.0
N1881 N 0.15646 0.59241 0.63558 0.0
C1882 C 0.1563 0.58517 0.66398 0.0
C1883 C 0.17759 0.60207 0.65292 0.0
C1884 C 0.14938 0.5845 0.64838 0.0
C1885 C 0.1703 0.6011 0.63752 0.0
C1886 C 0.22186 0.58274 0.70899 0.0
C1887 C 0.23446 0.57624 0.69966 0.0
C1888 C 0.22379 0.58461 0.72594 0.0
C1889 C 0.24883 0.5719 0.70741 0.0
C1890 C 0.23836 0.58018 0.73322 0.0
N1891 N 0.25048 0.57398 0.72388 0.0
C1892 C 0.22146 0.58367 0.6533 0.0
C1893 C 0.20526 0.56318 0.66574 0.0
C1894 C 0.23033 0.57171 0.64504 0.0
N1895 N 0.20956 0.57913 0.66375 0.0
C1896 C 0.21384 0.55082 0.65779 0.0
C1897 C 0.22697 0.55501 0.64779 0.0
H1898 H 0.22475 0.59646 0.65224 0.0
H1899 H 0.19594 0.56003 0.67445 0.0
C1900 C 0.15733 0.58432 0.72162 0.0
N1901 N 0.17326 0.58136 0.7194 0.0
C1902 C 0.14842 0.57462 0.73245 0.0
C1903 C 0.17257 0.55923 0.73854 0.0
C1904 C 0.18094 0.56906 0.72748 0.0
C1905 C 0.1561 0.56195 0.74112 0.0
H1906 H 0.15158 0.59421 0.71496 0.0
H1907 H 0.19357 0.56686 0.7253 0.0
O1908 O 0.20831 0.61719 0.67747 0.0
O1909 O 0.18721 0.61776 0.7093 0.0
O1910 O 0.17737 0.59479 0.68149 0.0
O1911 O 0.20777 0.58731 0.70158 0.0
H1912 H 0.20341 0.64231 0.69777 0.0
H1913 H 0.22513 0.62771 0.65211 0.0
H1914 H 0.2131 0.67063 0.69306 0.0
H1915 H 0.2345 0.65636 0.64818 0.0
H1916 H 0.18418 0.61596 0.76501 0.0
H1917 H 0.17859 0.64865 0.71435 0.0
H1918 H 0.18955 0.60283 0.73816 0.0
H1919 H 0.17336 0.66097 0.74164 0.0
H1920 H 0.17259 0.67025 0.65674 0.0
H1921 H 0.14155 0.65488 0.69651 0.0
H1922 H 0.26764 0.6182 0.70976 0.0
H1923 H 0.23794 0.6433 0.74528 0.0
H1924 H 0.15068 0.57889 0.67419 0.0
H1925 H 0.18858 0.60898 0.65441 0.0
H1926 H 0.13838 0.57769 0.64644 0.0
H1927 H 0.17564 0.60727 0.6271 0.0
H1928 H 0.23324 0.57468 0.68655 0.0
H1929 H 0.21422 0.58963 0.73337 0.0
H1930 H 0.25869 0.56694 0.70031 0.0
H1931 H 0.24005 0.58171 0.74629 0.0
H1932 H 0.24023 0.57545 0.63725 0.0
H1933 H 0.21095 0.53814 0.66043 0.0
H1934 H 0.13574 0.57711 0.73418 0.0
H1935 H 0.17885 0.54941 0.74482 0.0
Li1936 Li 0.63607 0.96182 0.95243 0.0
Li1937 Li 0.64804 0.9353 0.95119 0.0
Li1938 Li 0.65085 0.95419 0.92849 0.0
Li1939 Li 0.62482 0.9416 0.93484 0.0
C1940 C 0.66714 0.95907 0.96537 0.0
N1941 N 0.68363 0.96358 0.99445 0.0
C1942 C 0.65932 0.95685 0.98039 0.0
C1943 C 0.68334 0.96362 0.96514 0.0
C1944 C 0.66787 0.95918 0.99496 0.0
C1945 C 0.69147 0.96583 0.97998 0.0
C1946 C 0.61875 0.927 0.96464 0.0
C1947 C 0.6133 0.898 0.96247 0.0
N1948 N 0.60286 0.89917 0.97526 0.0
C1949 C 0.60798 0.92791 0.97777 0.0
C1950 C 0.62146 0.91192 0.95692 0.0
C1951 C 0.60007 0.9137 0.98296 0.0
C1952 C 0.61663 0.97929 0.97442 0.0
N1953 N 0.63098 0.97966 0.96649 0.0
C1954 C 0.63833 0.00452 0.98009 0.0
C1955 C 0.64172 0.99201 0.96891 0.0
C1956 C 0.62383 0.00416 0.98889 0.0
C1957 C 0.61279 0.99149 0.98576 0.0
H1958 H 0.60832 0.96935 0.97213 0.0
H1959 H 0.65305 0.99197 0.9624 0.0
C1960 C 0.67234 0.91209 0.95539 0.0
N1961 N 0.65976 0.91935 0.96315 0.0
C1962 C 0.68271 0.90179 0.96406 0.0
C1963 C 0.66675 0.90641 0.98843 0.0
C1964 C 0.65663 0.91653 0.97927 0.0
C1965 C 0.68017 0.89909 0.9809 0.0
H1966 H 0.67456 0.91468 0.94257 0.0
H1967 H 0.64665 0.92263 0.98518 0.0
C1968 C 0.62523 0.98096 0.9292 0.0
N1969 N 0.61687 0.01376 0.9304 0.0
C1970 C 0.60905 0.98556 0.92978 0.0
C1971 C 0.63715 0.99305 0.92913 0.0
C1972 C 0.60507 0.0022 0.93042 0.0
C1973 C 0.63268 0.00956 0.92976 0.0
C1974 C 0.64404 0.92545 0.91151 0.0
C1975 C 0.63716 0.9358 0.89977 0.0
C1976 C 0.64976 0.91002 0.90682 0.0
C1977 C 0.63609 0.9305 0.8835 0.0
C1978 C 0.64847 0.90517 0.89043 0.0
N1979 N 0.64171 0.91542 0.87921 0.0
C1980 C 0.68148 0.95803 0.91744 0.0
C1981 C 0.66265 0.97297 0.90143 0.0
C1982 C 0.69423 0.96643 0.91027 0.0
N1983 N 0.66611 0.96191 0.9134 0.0
C1984 C 0.6751 0.98164 0.89385 0.0
C1985 C 0.69105 0.97886 0.89883 0.0
H1986 H 0.68375 0.9492 0.92708 0.0
H1987 H 0.65027 0.97591 0.89865 0.0
C1988 C 0.59215 0.94029 0.9359 0.0
N1989 N 0.60469 0.93299 0.92813 0.0
C1990 C 0.57705 0.93294 0.93594 0.0
C1991 C 0.58778 0.91105 0.91916 0.0
C1992 C 0.60277 0.91884 0.91951 0.0
C1993 C 0.57482 0.91781 0.92799 0.0
H1994 H 0.59422 0.95112 0.94326 0.0
H1995 H 0.61302 0.91294 0.91391 0.0
O1996 O 0.65909 0.95677 0.95089 0.0
O1997 O 0.62619 0.94097 0.95918 0.0
O1998 O 0.62939 0.96472 0.92888 0.0
O1999 O 0.64527 0.93025 0.92755 0.0
H2000 H 0.64679 0.95334 0.98085 0.0
H2001 H 0.68957 0.96544 0.95362 0.0
H2002 H 0.66197 0.95747 0.00666 0.0
H2003 H 0.70402 0.96934 0.97998 0.0
H2004 H 0.61524 0.88627 0.95657 0.0
H2005 H 0.6057 0.93949 0.98383 0.0
H2006 H 0.62968 0.91093 0.9467 0.0
H2007 H 0.59167 0.91424 0.99309 0.0
H2008 H 0.6472 0.01399 0.98226 0.0
H2009 H 0.6014 0.99089 0.99219 0.0
H2010 H 0.69276 0.89622 0.95769 0.0
H2011 H 0.66444 0.90492 0.00142 0.0
H2012 H 0.59965 0.9764 0.92973 0.0
H2013 H 0.64974 0.98972 0.92896 0.0
H2014 H 0.59259 0.00594 0.93092 0.0
H2015 H 0.64179 0.01904 0.92985 0.0
H2016 H 0.63263 0.94776 0.9031 0.0
H2017 H 0.65513 0.90188 0.91578 0.0
H2018 H 0.63078 0.93837 0.87429 0.0
H2019 H 0.65283 0.89325 0.88664 0.0
H2020 H 0.7064 0.96381 0.91424 0.0
H2021 H 0.6722 0.99121 0.88511 0.0
H2022 H 0.56762 0.93842 0.94328 0.0
H2023 H 0.5866 0.89943 0.91283 0.0
Li2024 Li 0.86277 0.03121 0.45192 0.0
Li2025 Li 0.84498 0.05701 0.44864 0.0
Li2026 Li 0.85064 0.03886 0.42561 0.0
Li2027 Li 0.87138 0.0555 0.43614 0.0
C2028 C 0.82682 0.0239 0.44268 0.0
N2029 N 0.80082 0.00457 0.43427 0.0
C2030 C 0.8117 0.03101 0.44033 0.0
C2031 C 0.82872 0.00696 0.44082 0.0
C2032 C 0.79871 0.02103 0.43601 0.0
C2033 C 0.81541 0.99739 0.43661 0.0
C2034 C 0.8767 0.06442 0.4671 0.0
C2035 C 0.885 0.09177 0.47455 0.0
N2036 N 0.89931 0.08569 0.47988 0.0
C2037 C 0.89141 0.05841 0.4728 0.0
C2038 C 0.87338 0.08121 0.46808 0.0
C2039 C 0.90272 0.06938 0.47916 0.0
C2040 C 0.88342 0.00858 0.46793 0.0
N2041 N 0.86803 0.01398 0.46639 0.0
C2042 C 0.85879 0.99417 0.48577 0.0
C2043 C 0.85581 0.00715 0.47507 0.0
C2044 C 0.87456 0.98829 0.4877 0.0
C2045 C 0.88697 0.99563 0.47856 0.0
H2046 H 0.89289 0.01434 0.46088 0.0
H2047 H 0.84371 0.0118 0.47368 0.0
C2048 C 0.81888 0.07935 0.45232 0.0
N2049 N 0.82955 0.0694 0.4601 0.0
C2050 C 0.80709 0.08762 0.46135 0.0
C2051 C 0.8177 0.07527 0.48609 0.0
C2052 C 0.82924 0.06728 0.47661 0.0
C2053 C 0.80633 0.0855 0.47846 0.0
H2054 H 0.81939 0.08065 0.43912 0.0
H2055 H 0.83791 0.05923 0.48238 0.0
C2056 C 0.88152 0.02101 0.4214 0.0
N2057 N 0.89912 0.99834 0.40366 0.0
C2058 C 0.89138 0.02616 0.4085 0.0
C2059 C 0.88079 0.00434 0.42542 0.0
C2060 C 0.90013 0.01451 0.39964 0.0
C2061 C 0.88971 0.99307 0.41626 0.0
C2062 C 0.85405 0.07026 0.41102 0.0
C2063 C 0.86193 0.0612 0.3989 0.0
C2064 C 0.84946 0.08644 0.40781 0.0
C2065 C 0.86516 0.0685 0.38375 0.0
C2066 C 0.85291 0.09332 0.39251 0.0
N2067 N 0.86063 0.08428 0.38089 0.0
C2068 C 0.82579 0.0359 0.4025 0.0
C2069 C 0.84363 0.01322 0.40333 0.0
C2070 C 0.8145 0.02668 0.39376 0.0
N2071 N 0.83968 0.0288 0.4077 0.0
C2072 C 0.83275 0.0036 0.39465 0.0
C2073 C 0.81767 0.01007 0.39053 0.0
H2074 H 0.82281 0.0482 0.40647 0.0
H2075 H 0.85448 0.00769 0.40783 0.0
C2076 C 0.90438 0.05962 0.43442 0.0
N2077 N 0.89031 0.06783 0.43241 0.0
C2078 C 0.91875 0.06822 0.43607 0.0
C2079 C 0.90401 0.09357 0.43251 0.0
C2080 C 0.88988 0.08444 0.43092 0.0
C2081 C 0.91861 0.08546 0.43574 0.0
H2082 H 0.90427 0.04645 0.43606 0.0
H2083 H 0.87845 0.09065 0.4297 0.0
O2084 O 0.8397 0.03347 0.44679 0.0
O2085 O 0.86573 0.05398 0.46025 0.0
O2086 O 0.87316 0.03227 0.4305 0.0
O2087 O 0.85087 0.06347 0.42602 0.0
H2088 H 0.81006 0.04412 0.44169 0.0
H2089 H 0.84037 0.00128 0.44249 0.0
H2090 H 0.78696 0.02637 0.43404 0.0
H2091 H 0.8167 0.98427 0.43512 0.0
H2092 H 0.88267 0.10481 0.47525 0.0
H2093 H 0.89416 0.04545 0.47206 0.0
H2094 H 0.86206 0.08604 0.46366 0.0
H2095 H 0.91423 0.06494 0.48346 0.0
H2096 H 0.84884 0.98879 0.49244 0.0
H2097 H 0.89934 0.99167 0.47987 0.0
H2098 H 0.79848 0.09528 0.45499 0.0
H2099 H 0.81774 0.07351 0.49926 0.0
H2100 H 0.89238 0.03904 0.40542 0.0
H2101 H 0.87318 0.0001 0.43531 0.0
H2102 H 0.90778 0.01833 0.38961 0.0
H2103 H 0.88915 0.98012 0.41915 0.0
H2104 H 0.86544 0.04864 0.40112 0.0
H2105 H 0.84335 0.09363 0.41709 0.0
H2106 H 0.87126 0.06161 0.37426 0.0
H2107 H 0.84946 0.10585 0.38986 0.0
H2108 H 0.80292 0.03203 0.39089 0.0
H2109 H 0.83564 0.99086 0.39224 0.0
H2110 H 0.9296 0.06144 0.43887 0.0
H2111 H 0.90339 0.10683 0.43209 0.0
H2112 H 0.10633 0.18854 0.48913 0.0
H2113 H 0.12414 0.21844 0.52887 0.0
H2114 H 0.1139 0.20965 0.46955 0.0
H2115 H 0.13244 0.23945 0.5092 0.0
H2116 H 0.12992 0.2809 0.47177 0.0
H2117 H 0.12188 0.25979 0.49146 0.0
H2118 H 0.13581 0.2222 0.45676 0.0
H2119 H 0.14309 0.24327 0.43702 0.0
C2120 C 0.11226 0.19951 0.4936 0.0
C2121 C 0.1148 0.20184 0.51046 0.0
C2122 C 0.1166 0.21163 0.48239 0.0
C2123 C 0.1238 0.2263 0.48776 0.0
C2124 C 0.12665 0.22846 0.50465 0.0
C2125 C 0.12207 0.21639 0.51591 0.0
C2126 C 0.13104 0.2681 0.46838 0.0
C2127 C 0.13689 0.26367 0.45285 0.0
C2128 C 0.12662 0.256 0.47967 0.0
C2129 C 0.12822 0.23925 0.47573 0.0
C2130 C 0.13408 0.23493 0.46013 0.0
C2131 C 0.13825 0.247 0.44879 0.0
H2132 H 0.97447 0.8838 0.72269 0.0
H2133 H 0.01283 0.89601 0.68902 0.0
H2134 H 0.99432 0.87584 0.74325 0.0
H2135 H 0.03254 0.88726 0.70917 0.0
H2136 H 0.06455 0.8873 0.75354 0.0
H2137 H 0.04339 0.89655 0.73494 0.0
H2138 H 0.01415 0.855 0.74901 0.0
H2139 H 0.03514 0.84601 0.76777 0.0
C2140 C 0.98712 0.88464 0.71962 0.0
C2141 C 0.99206 0.89053 0.70421 0.0
C2142 C 0.99848 0.87998 0.73136 0.0
C2143 C 0.01501 0.88108 0.7279 0.0
C2144 C 0.01991 0.88657 0.71235 0.0
C2145 C 0.00858 0.89129 0.70066 0.0
C2146 C 0.0535 0.8803 0.75277 0.0
C2147 C 0.05147 0.86597 0.76209 0.0
C2148 C 0.04144 0.8855 0.74206 0.0
C2149 C 0.02717 0.87639 0.74035 0.0
C2150 C 0.02491 0.86239 0.75015 0.0
C2151 C 0.03693 0.85726 0.76093 0.0
H2152 H 0.36248 0.75 0.93621 0.0
H2153 H 0.36739 0.71013 0.97082 0.0
H2154 H 0.37018 0.76945 0.95741 0.0
H2155 H 0.37469 0.72978 0.99227 0.0
H2156 H 0.40466 0.7708 0.01887 0.0
H2157 H 0.39654 0.74944 -0.00036 0.0
H2158 H 0.35758 0.78016 0.98273 0.0
H2159 H 0.36567 0.80153 0.00201 0.0
C2160 C 0.36546 0.74535 0.94829 0.0
C2161 C 0.36441 0.72851 0.95183 0.0
C2162 C 0.36959 0.75654 0.96051 0.0
C2163 C 0.37277 0.75115 0.97655 0.0
C2164 C 0.37227 0.73427 0.98001 0.0
C2165 C 0.36806 0.72304 0.96776 0.0
C2166 C 0.3941 0.77282 0.01137 0.0
C2167 C 0.38583 0.78787 0.01189 0.0
C2168 C 0.3895 0.76061 0.0003 0.0
C2169 C 0.37659 0.76325 0.98953 0.0
C2170 C 0.36781 0.77795 0.99066 0.0
C2171 C 0.37238 0.79014 0.00172 0.0
H2172 H 0.51348 0.12168 0.20635 0.0
H2173 H 0.47185 0.10556 0.17897 0.0
H2174 H 0.49609 0.13063 0.22857 0.0
H2175 H 0.45462 0.1132 0.20171 0.0
H2176 H 0.4262 0.1419 0.23942 0.0
H2177 H 0.44333 0.13481 0.21633 0.0
H2178 H 0.48065 0.11945 0.25001 0.0
H2179 H 0.46361 0.12743 0.27312 0.0
C2180 C 0.50061 0.12019 0.20497 0.0
C2181 C 0.49409 0.11281 0.19087 0.0
C2182 C 0.49064 0.12502 0.21788 0.0
C2183 C 0.47395 0.12239 0.21711 0.0
C2184 C 0.46739 0.11552 0.20276 0.0
C2185 C 0.47732 0.11095 0.18975 0.0
C2186 C 0.43798 0.13675 0.24184 0.0
C2187 C 0.44357 0.13501 0.25799 0.0
C2188 C 0.44783 0.1327 0.22862 0.0
C2189 C 0.46342 0.12657 0.23125 0.0
C2190 C 0.46884 0.12446 0.24749 0.0
C2191 C 0.45906 0.1288 0.26074 0.0
H2192 H 0.65574 0.2571 0.54422 0.0
H2193 H 0.62665 0.21643 0.52764 0.0
H2194 H 0.64578 0.27381 0.52177 0.0
H2195 H 0.61711 0.23304 0.50459 0.0
H2196 H 0.58758 0.27675 0.48299 0.0
H2197 H 0.59947 0.25657 0.50126 0.0
H2198 H 0.64648 0.27739 0.49239 0.0
H2199 H 0.63447 0.29779 0.47417 0.0
C2200 C 0.64718 0.25173 0.53575 0.0
C2201 C 0.64172 0.23556 0.53786 0.0
C2202 C 0.6417 0.26123 0.5227 0.0
C2203 C 0.63069 0.25475 0.51136 0.0
C2204 C 0.6255 0.23842 0.51322 0.0
C2205 C 0.631 0.22889 0.52634 0.0
C2206 C 0.6005 0.27677 0.4846 0.0
C2207 C 0.61009 0.28891 0.47722 0.0
C2208 C 0.60733 0.26518 0.49508 0.0
C2209 C 0.6239 0.26546 0.49839 0.0
C2210 C 0.63362 0.27706 0.49032 0.0
C2211 C 0.62677 0.28871 0.47987 0.0
H2212 H 0.96451 0.37952 0.7266 0.0
H2213 H 0.93552 0.3551 0.76321 0.0
H2214 H 0.98385 0.38729 0.74788 0.0
H2215 H 0.95472 0.36277 0.7843 0.0
H2216 H 0.98178 0.39716 0.81918 0.0
H2217 H 0.96336 0.3878 0.79795 0.0
H2218 H 0.0037 0.37497 0.76707 0.0
H2219 H 0.0222 0.38484 0.78826 0.0
C2220 C 0.96227 0.37584 0.73916 0.0
C2221 C 0.94836 0.36698 0.74329 0.0
C2222 C 0.97337 0.38018 0.75131 0.0
C2223 C 0.97075 0.37568 0.76776 0.0
C2224 C 0.95692 0.36668 0.77179 0.0
C2225 C 0.94587 0.36238 0.75971 0.0
C2226 C 0.9867 0.39227 0.80788 0.0
C2227 C 0.00339 0.39179 0.80531 0.0
C2228 C 0.97617 0.38681 0.79577 0.0
C2229 C 0.98209 0.38073 0.78081 0.0
C2230 C -0.00119 0.3798 0.7784 0.0
C2231 C 0.00938 0.38522 0.79059 0.0
H2232 H 0.8565 0.7432 0.06162 0.0
H2233 H 0.87076 0.78312 0.03002 0.0
H2234 H 0.86547 0.72352 0.04122 0.0
H2235 H 0.88055 0.7634 0.00971 0.0
H2236 H 0.88001 0.72421 0.96967 0.0
H2237 H 0.87129 0.74422 0.99018 0.0
H2238 H 0.88784 0.71185 0.02875 0.0
H2239 H 0.89571 0.69171 0.00828 0.0
C2240 C 0.862 0.74773 0.05044 0.0
C2241 C 0.86311 0.76464 0.04742 0.0
C2242 C 0.86715 0.73646 0.03872 0.0
C2243 C 0.87377 0.74183 0.02377 0.0
C2244 C 0.87525 0.75881 0.02094 0.0
C2245 C 0.86983 0.77011 0.03261 0.0
C2246 C 0.88157 0.7214 0.98257 0.0
C2247 C 0.88826 0.70638 0.98746 0.0
C2248 C 0.87676 0.7329 0.99432 0.0
C2249 C 0.87886 0.72969 0.01117 0.0
C2250 C 0.88569 0.71464 0.01594 0.0
C2251 C 0.89021 0.70307 0.00423 0.0
H2252 H 0.55925 0.61361 0.24934 0.0
H2253 H 0.53131 0.65528 0.23318 0.0
H2254 H 0.53807 0.6064 0.26876 0.0
H2255 H 0.5102 0.64818 0.25268 0.0
H2256 H 0.4698 0.61963 0.27992 0.0
H2257 H 0.48973 0.6276 0.25938 0.0
H2258 H 0.52777 0.61799 0.29418 0.0
H2259 H 0.50804 0.60938 0.31436 0.0
C2260 C 0.54853 0.62115 0.24988 0.0
C2261 C 0.54693 0.63498 0.23977 0.0
C2262 C 0.53646 0.6171 0.26105 0.0
C2263 C 0.52257 0.62687 0.2624 0.0
C2264 C 0.5207 0.64036 0.25186 0.0
C2265 C 0.53277 0.64438 0.24064 0.0
C2266 C 0.48242 0.61934 0.28319 0.0
C2267 C 0.48732 0.61384 0.29876 0.0
C2268 C 0.49382 0.62397 0.27146 0.0
C2269 C 0.51032 0.62316 0.27509 0.0
C2270 C 0.51515 0.61841 0.2909 0.0
C2271 C 0.5038 0.61377 0.30258 0.0
H2272 H 0.23635 0.43832 0.14866 0.0
H2273 H 0.27418 0.46568 0.12488 0.0
H2274 H 0.21714 0.45966 0.14172 0.0
H2275 H 0.25478 0.48691 0.1172 0.0
H2276 H 0.21951 0.52937 0.11938 0.0
H2277 H 0.23879 0.50846 0.12812 0.0
H2278 H 0.20301 0.47087 0.11963 0.0
H2279 H 0.18376 0.49177 0.11161 0.0
C2280 C 0.24044 0.44876 0.14156 0.0
C2281 C 0.25666 0.45029 0.13707 0.0
C2282 C 0.22944 0.46103 0.1376 0.0
C2283 C 0.23436 0.47502 0.12885 0.0
C2284 C 0.25061 0.47644 0.12418 0.0
C2285 C 0.26169 0.46423 0.12838 0.0
C2286 C 0.21578 0.51664 0.11968 0.0
C2287 C 0.20013 0.51217 0.11504 0.0
C2288 C 0.22684 0.50464 0.1245 0.0
C2289 C 0.2225 0.48795 0.1245 0.0
C2290 C 0.20672 0.4836 0.12009 0.0
C2291 C 0.19564 0.49558 0.11552 0.0
H2292 H 0.69796 0.98955 0.86779 0.0
H2293 H 0.71319 0.99373 0.91828 0.0
H2294 H 0.71879 0.0092 0.8597 0.0
H2295 H 0.73401 0.01324 0.9102 0.0
H2296 H 0.75336 0.06322 0.88938 0.0
H2297 H 0.73424 0.04234 0.89862 0.0
H2298 H 0.7494 0.01041 0.85927 0.0
H2299 H 0.76832 0.03115 0.84998 0.0
C2300 C 0.70582 0.9946 0.8771 0.0
C2301 C 0.70408 0.99004 0.89361 0.0
C2302 C 0.71776 0.00575 0.8725 0.0
C2303 C 0.72798 0.01269 0.88436 0.0
C2304 C 0.72623 0.00812 0.90085 0.0
C2305 C 0.71444 0.99685 0.90542 0.0
C2306 C 0.7527 0.05168 0.88282 0.0
C2307 C 0.76233 0.04887 0.86894 0.0
C2308 C 0.74182 0.03973 0.88814 0.0
C2309 C 0.74028 0.02486 0.87954 0.0
C2310 C 0.75023 0.02185 0.86599 0.0
C2311 C 0.7612 0.03369 0.8608 0.0
H2312 H 0.72825 0.96693 0.35574 0.0
H2313 H 0.75722 0.92565 0.37122 0.0
H2314 H 0.74918 0.98561 0.36472 0.0
H2315 H 0.77871 0.94423 0.37876 0.0
H2316 H 0.8092 0.98138 0.40476 0.0
H2317 H 0.78699 0.96347 0.39779 0.0
H2318 H 0.77466 0.99536 0.35722 0.0
H2319 H 0.79652 0.01388 0.36501 0.0
C2320 C 0.739 0.9618 0.36119 0.0
C2321 C 0.74098 0.94472 0.36276 0.0
C2322 C 0.75118 0.97255 0.36603 0.0
C2323 C 0.76575 0.96649 0.37233 0.0
C2324 C 0.76761 0.94942 0.37416 0.0
C2325 C 0.75533 0.9387 0.3696 0.0
C2326 C 0.80177 0.98453 0.39431 0.0
C2327 C 0.80462 0.99893 0.38533 0.0
C2328 C 0.78905 0.97421 0.39025 0.0
C2329 C 0.77903 0.97784 0.37685 0.0
C2330 C 0.78195 0.99227 0.36778 0.0
C2331 C 0.79454 0.00282 0.3721 0.0
H2332 H 0.21969 0.52454 0.63541 0.0
H2333 H 0.2597 0.5561 0.64765 0.0
H2334 H 0.23849 0.5025 0.62856 0.0
H2335 H 0.27836 0.53445 0.64017 0.0
H2336 H 0.30816 0.48905 0.64149 0.0
H2337 H 0.28727 0.50805 0.65049 0.0
H2338 H 0.25871 0.49547 0.60802 0.0
H2339 H 0.27946 0.47635 0.59919 0.0
C2340 C 0.23248 0.52681 0.63651 0.0
C2341 C 0.23819 0.54209 0.642 0.0
C2342 C 0.24323 0.51423 0.63252 0.0
C2343 C 0.2599 0.51668 0.634 0.0
C2344 C 0.26558 0.53206 0.6392 0.0
C2345 C 0.25487 0.54459 0.64319 0.0
C2346 C 0.29731 0.49018 0.63424 0.0
C2347 C 0.29551 0.48131 0.61958 0.0
C2348 C 0.28539 0.50112 0.63932 0.0
C2349 C 0.27147 0.50348 0.6298 0.0
C2350 C 0.26925 0.49387 0.61567 0.0
C2351 C 0.28114 0.48288 0.61063 0.0
H2352 H 0.27783 0.39953 0.52086 0.0
H2353 H 0.31354 0.40109 0.48237 0.0
H2354 H 0.2591 0.38604 0.50219 0.0
H2355 H 0.29462 0.38825 0.46355 0.0
H2356 H 0.26299 0.34905 0.43994 0.0
H2357 H 0.28168 0.36209 0.45887 0.0
H2358 H 0.24309 0.39208 0.4779 0.0
H2359 H 0.22433 0.37892 0.45897 0.0
C2360 C 0.2817 0.39694 0.50844 0.0
C2361 C 0.29718 0.40138 0.50311 0.0
C2362 C 0.2709 0.3894 0.49768 0.0
C2363 C 0.27534 0.38611 0.48137 0.0
C2364 C 0.29086 0.39046 0.47608 0.0
C2365 C 0.30165 0.39799 0.48682 0.0
C2366 C 0.25853 0.35856 0.44803 0.0
C2367 C 0.2422 0.36303 0.44789 0.0
C2368 C 0.26924 0.36602 0.4589 0.0
C2369 C 0.26388 0.37815 0.46988 0.0
C2370 C 0.24755 0.38262 0.46976 0.0
C2371 C 0.23681 0.37512 0.45889 0.0
H2372 H 0.88864 0.9796 0.72239 0.0
H2373 H 0.88334 0.01153 0.68045 0.0
H2374 H 0.87396 -0.00077 0.7393 0.0
H2375 H 0.86888 0.03131 0.69737 0.0
H2376 H 0.8301 0.05541 0.72904 0.0
H2377 H 0.84401 0.03552 0.71184 0.0
H2378 H 0.87761 0.02601 0.75117 0.0
H2379 H 0.8632 0.04527 0.76865 0.0
C2380 C 0.88436 0.99085 0.71682 0.0
C2381 C 0.88712 0.99404 0.70012 0.0
C2382 C 0.87601 0.00213 0.7265 0.0
C2383 C 0.87033 0.0169 0.71971 0.0
C2384 C 0.8729 0.01996 0.70294 0.0
C2385 C 0.88118 0.00863 0.69323 0.0
C2386 C 0.84038 0.04898 0.73406 0.0
C2387 C 0.84549 0.05188 0.75025 0.0
C2388 C 0.84847 0.03771 0.72414 0.0
C2389 C 0.86189 0.02912 0.73015 0.0
C2390 C 0.86716 0.03223 0.74624 0.0
C2391 C 0.85904 0.04346 0.75618 0.0
H2392 H 0.27056 0.64076 0.96487 0.0
H2393 H 0.24459 0.61965 0.92408 0.0
H2394 H 0.25179 0.62806 0.98392 0.0
H2395 H 0.22528 0.6077 0.9431 0.0
H2396 H 0.20212 0.57582 0.98238 0.0
H2397 H 0.22219 0.58695 0.96366 0.0
H2398 H 0.22442 0.63133 0.99264 0.0
H2399 H 0.20454 0.62 0.01153 0.0
C2400 C 0.26093 0.63329 0.95996 0.0
C2401 C 0.2591 0.63122 0.94293 0.0
C2402 C 0.25001 0.62621 0.97088 0.0
C2403 C 0.23694 0.61696 0.96505 0.0
C2404 C 0.23528 0.61463 0.94803 0.0
C2405 C 0.24626 0.62164 0.93711 0.0
C2406 C 0.20683 0.588 0.98467 0.0
C2407 C 0.20173 0.59708 0.99837 0.0
C2408 C 0.21832 0.59439 0.97394 0.0
C2409 C 0.22492 0.61004 0.97663 0.0
C2410 C 0.2198 0.61912 0.99036 0.0
C2411 C 0.20837 0.61268 0.00115 0.0
H2412 H 0.62101 0.03008 0.2077 0.0
H2413 H 0.57537 0.00632 0.21596 0.0
H2414 H 0.63348 0.01237 0.22821 0.0
H2415 H 0.58786 0.98801 0.23588 0.0
H2416 H 0.61242 0.96481 0.27991 0.0
H2417 H 0.59954 0.98499 0.26199 0.0
H2418 H 0.64176 0.98514 0.23094 0.0
H2419 H 0.65471 0.96567 0.24924 0.0
C2420 C 0.61369 0.021 0.21392 0.0
C2421 C 0.59728 0.0195 0.2103 0.0
C2422 C 0.62081 0.01078 0.22558 0.0
C2423 C 0.61173 0.9986 0.23363 0.0
C2424 C 0.5952 0.99737 0.23016 0.0
C2425 C 0.58803 0.0078 0.21869 0.0
C2426 C 0.61888 0.96928 0.26926 0.0
C2427 C 0.63456 0.96384 0.26599 0.0
C2428 C 0.61152 0.98076 0.25895 0.0
C2429 C 0.61962 0.98681 0.24502 0.0
C2430 C 0.63528 0.98115 0.24175 0.0
C2431 C 0.64269 0.9699 0.25217 0.0
H2432 H 0.7302 0.1471 0.52 0.0
H2433 H 0.75344 0.12334 0.56102 0.0
H2434 H 0.7472 0.13165 0.50104 0.0
H2435 H 0.77071 0.10828 0.54214 0.0
H2436 H 0.78891 0.07264 0.5038 0.0
H2437 H 0.76954 0.08664 0.52133 0.0
H2438 H 0.77589 0.13108 0.49318 0.0
H2439 H 0.79534 0.11708 0.47563 0.0
C2440 C 0.73884 0.13848 0.52495 0.0
C2441 C 0.74051 0.13645 0.542 0.0
C2442 C 0.74868 0.12976 0.51411 0.0
C2443 C 0.76032 0.11878 0.52009 0.0
C2444 C 0.76175 0.11653 0.53713 0.0
C2445 C 0.75197 0.12528 0.54796 0.0
C2446 C 0.78622 0.08542 0.50138 0.0
C2447 C 0.79379 0.0938 0.48842 0.0
C2448 C 0.77511 0.09342 0.51141 0.0
C2449 C 0.77127 0.10999 0.50871 0.0
C2450 C 0.77847 0.11826 0.49546 0.0
C2451 C 0.78962 0.11024 0.48542 0.0
H2452 H 0.16464 0.55315 0.77216 0.0
H2453 H 0.12727 0.54688 0.73596 0.0
H2454 H 0.15033 0.53487 0.79081 0.0
H2455 H 0.11313 0.52817 0.75434 0.0
H2456 H 0.08438 0.50724 0.79684 0.0
H2457 H 0.09816 0.52673 0.77905 0.0
H2458 H 0.14396 0.5067 0.79427 0.0
H2459 H 0.13009 0.48758 0.81244 0.0
C2460 C 0.15338 0.54776 0.76819 0.0
C2461 C 0.14705 0.55139 0.75264 0.0
C2462 C 0.14521 0.53723 0.77882 0.0
C2463 C 0.13061 0.52994 0.77406 0.0
C2464 C 0.12422 0.53374 0.75853 0.0
C2465 C 0.13231 0.54443 0.74797 0.0
C2466 C 0.09739 0.507 0.79631 0.0
C2467 C 0.10618 0.4959 0.80596 0.0
C2468 C 0.1053 0.51813 0.78609 0.0
C2469 C 0.12219 0.51829 0.78517 0.0
C2470 C 0.13096 0.50714 0.79486 0.0
C2471 C 0.12304 0.49612 0.80522 0.0
H2472 H 0.713 0.89895 0.97829 0.0
H2473 H 0.67392 0.87764 0.00602 0.0
H2474 H 0.73227 0.88428 0.99529 0.0
H2475 H 0.69322 0.86374 0.02363 0.0
H2476 H 0.73135 0.82939 0.0435 0.0
H2477 H 0.7126 0.84216 0.02438 0.0
H2478 H 0.74273 0.88536 0.02259 0.0
H2479 H 0.76164 0.87236 0.04143 0.0
C2480 C 0.70849 0.89103 0.98793 0.0
C2481 C 0.69188 0.88948 0.99078 0.0
C2482 C 0.71957 0.88281 0.99784 0.0
C2483 C 0.71432 0.87292 0.01091 0.0
C2484 C 0.6977 0.87113 0.01358 0.0
C2485 C 0.68662 0.87927 0.0036 0.0
C2486 C 0.73392 0.84163 0.03903 0.0
C2487 C 0.7479 0.84993 0.044 0.0
C2488 C 0.72317 0.84897 0.0281 0.0
C2489 C 0.7261 0.86482 0.02199 0.0
C2490 C 0.74021 0.87303 0.02684 0.0
C2491 C 0.75103 0.86563 0.03768 0.0
H2492 H 0.34022 0.4685 0.23554 0.0
H2493 H 0.35702 0.42711 0.26389 0.0
H2494 H 0.35557 0.48702 0.25303 0.0
H2495 H 0.37274 0.44566 0.28118 0.0
H2496 H 0.38395 0.486 0.31911 0.0
H2497 H 0.36803 0.46755 0.30193 0.0
H2498 H 0.38393 0.49359 0.2587 0.0
H2499 H 0.39949 0.51225 0.27587 0.0
C2500 C 0.34718 0.46337 0.24554 0.0
C2501 C 0.34738 0.44636 0.24839 0.0
C2502 C 0.35609 0.47396 0.25545 0.0
C2503 C 0.36534 0.46779 0.26848 0.0
C2504 C 0.36558 0.45078 0.27132 0.0
C2505 C 0.35673 0.44015 0.26133 0.0
C2506 C 0.38388 0.48788 0.30595 0.0
C2507 C 0.39295 0.50056 0.29883 0.0
C2508 C 0.37493 0.47721 0.29611 0.0
C2509 C 0.37478 0.4791 0.27897 0.0
C2510 C 0.38371 0.49191 0.27188 0.0
C2511 C 0.39272 0.5025 0.2817 0.0
H2512 H 0.51367 0.28319 0.39906 0.0
H2513 H 0.48694 0.32418 0.37933 0.0
H2514 H 0.49562 0.26424 0.38522 0.0
H2515 H 0.46834 0.30519 0.36622 0.0
H2516 H 0.44784 0.26674 0.33137 0.0
H2517 H 0.46668 0.28565 0.34427 0.0
H2518 H 0.46849 0.25443 0.38712 0.0
H2519 H 0.44984 0.23538 0.37404 0.0
C2520 C 0.504 0.28818 0.39169 0.0
C2521 C 0.5018 0.30523 0.39026 0.0
C2522 C 0.49349 0.27729 0.38395 0.0
C2523 C 0.48047 0.28318 0.37467 0.0
C2524 C 0.47834 0.30023 0.37314 0.0
C2525 C 0.4889 0.31113 0.38081 0.0
C2526 C 0.45219 0.26399 0.34359 0.0
C2527 C 0.44734 0.24961 0.35173 0.0
C2528 C 0.46297 0.27483 0.351 0.0
C2529 C 0.46909 0.27158 0.36674 0.0
C2530 C 0.46422 0.25718 0.37488 0.0
C2531 C 0.4535 0.24628 0.36742 0.0
H2532 H 0.01983 0.22367 0.59414 0.0
H2533 H 0.00725 0.18696 0.63017 0.0
H2534 H 0.00276 0.24357 0.60819 0.0
H2535 H 0.98976 0.20667 0.64388 0.0
H2536 H 0.97129 0.25009 0.67319 0.0
H2537 H 0.99064 0.23192 0.65996 0.0
H2538 H 0.97393 0.24801 0.61242 0.0
H2539 H 0.95456 0.2662 0.62566 0.0
C2540 C 0.01354 0.21989 0.60514 0.0
C2541 C 0.01489 0.20374 0.61105 0.0
C2542 C 0.00362 0.23124 0.61308 0.0
C2543 C 0.99487 0.22668 0.62711 0.0
C2544 C 0.99646 0.21061 0.63319 0.0
C2545 C 0.00635 0.19927 0.62524 0.0
C2546 C 0.97172 0.24971 0.65991 0.0
C2547 C 0.96132 0.25949 0.65046 0.0
C2548 C 0.98281 0.23931 0.65234 0.0
C2549 C 0.98376 0.23845 0.63515 0.0
C2550 C 0.97362 0.24853 0.62569 0.0
C2551 C 0.96253 0.25895 0.63327 0.0
H2552 H 0.01408 0.68745 0.89274 0.0
H2553 H 0.97495 0.72046 0.8812 0.0
H2554 H 0.03273 0.70562 0.87895 0.0
H2555 H 0.99389 0.73936 0.86861 0.0
H2556 H 0.02963 0.76174 0.83239 0.0
H2557 H 0.01029 0.74351 0.84557 0.0
H2558 H 0.046 0.73066 0.88198 0.0
H2559 H 0.06545 0.74832 0.86824 0.0
C2560 C 0.00939 0.69855 0.88722 0.0
C2561 C 0.99292 0.70238 0.88805 0.0
C2562 C 0.0202 0.70918 0.87957 0.0
C2563 C 0.0149 0.72408 0.87275 0.0
C2564 C 0.99842 0.72792 0.87355 0.0
C2565 C 0.98756 0.71716 0.88101 0.0
C2566 C 0.03324 0.75505 0.84327 0.0
C2567 C 0.049 0.75635 0.8493 0.0
C2568 C 0.02216 0.74465 0.85088 0.0
C2569 C 0.02655 0.7355 0.86484 0.0
C2570 C 0.04227 0.73718 0.87105 0.0
C2571 C 0.0534 0.74737 0.86327 0.0
H2572 H 0.56342 0.73781 0.12166 0.0
H2573 H 0.53097 0.73731 0.16292 0.0
H2574 H 0.54453 0.75475 0.10627 0.0
H2575 H 0.51243 0.75512 0.1481 0.0
H2576 H 0.47602 0.77682 0.11347 0.0
H2577 H 0.49383 0.75758 0.12709 0.0
H2578 H 0.53481 0.78118 0.10447 0.0
H2579 H 0.51695 0.79926 0.08962 0.0
C2580 C 0.55224 0.74147 0.12742 0.0
C2581 C 0.54857 0.73631 0.14339 0.0
C2582 C 0.54145 0.75129 0.1187 0.0
C2583 C 0.52693 0.7565 0.12594 0.0
C2584 C 0.5233 0.75117 0.14196 0.0
C2585 C 0.53394 0.74104 0.15052 0.0
C2586 C 0.4888 0.77772 0.11112 0.0
C2587 C 0.49496 0.7897 0.10039 0.0
C2588 C 0.49909 0.76681 0.11919 0.0
C2589 C 0.51585 0.76777 0.11699 0.0
C2590 C 0.52199 0.7798 0.10632 0.0
C2591 C 0.5117 0.79047 0.09801 0.0
H2592 H 0.1901 0.36834 0.32254 0.0
H2593 H 0.16449 0.32913 0.29812 0.0
H2594 H 0.2003 0.37776 0.29632 0.0
H2595 H 0.17534 0.33834 0.27181 0.0
H2596 H 0.22478 0.34275 0.24198 0.0
H2597 H 0.20496 0.33676 0.26326 0.0
H2598 H 0.19423 0.38845 0.26747 0.0
H2599 H 0.21409 0.39442 0.24604 0.0
C2600 C 0.18615 0.36204 0.31156 0.0
C2601 C 0.17658 0.34783 0.31252 0.0
C2602 C 0.19208 0.36745 0.29649 0.0
C2603 C 0.18873 0.35868 0.28207 0.0
C2604 C 0.17823 0.34521 0.2828 0.0
C2605 C 0.1721 0.33991 0.29787 0.0
C2606 C 0.2179 0.35276 0.24721 0.0
C2607 C 0.22099 0.36903 0.24252 0.0
C2608 C 0.20647 0.34934 0.25927 0.0
C2609 C 0.19809 0.36216 0.26702 0.0
C2610 C 0.20056 0.37837 0.26169 0.0
C2611 C 0.21184 0.38177 0.24942 0.0
H2612 H 0.86182 0.98454 0.5183 0.0
H2613 H 0.89539 0.96234 0.48444 0.0
H2614 H 0.86885 0.96431 0.53891 0.0
H2615 H 0.90254 0.94199 0.50527 0.0
H2616 H 0.92701 0.93184 0.55669 0.0
H2617 H 0.91723 0.94356 0.53119 0.0
H2618 H 0.86826 0.93553 0.54699 0.0
H2619 H 0.87811 0.92384 0.5727 0.0
C2620 C 0.87045 0.9751 0.51512 0.0
C2621 C 0.87809 0.9751 0.49974 0.0
C2622 C 0.87445 0.96344 0.52694 0.0
C2623 C 0.88621 0.95148 0.52371 0.0
C2624 C 0.89351 0.95113 0.50815 0.0
C2625 C 0.88948 0.96282 0.49628 0.0
C2626 C 0.91416 0.93196 0.55448 0.0
C2627 C 0.90332 0.92713 0.5668 0.0
C2628 C 0.90854 0.93873 0.53983 0.0
C2629 C 0.89196 0.94077 0.53721 0.0
C2630 C 0.88111 0.93445 0.54884 0.0
C2631 C 0.88674 0.92771 0.56352 0.0
H2632 H 0.26344 0.66151 0.74004 0.0
H2633 H 0.27787 0.61063 0.73992 0.0
H2634 H 0.28436 0.66768 0.76016 0.0
H2635 H 0.2988 0.61677 0.76019 0.0
H2636 H 0.30603 0.63375 0.81592 0.0
H2637 H 0.29401 0.62543 0.79015 0.0
H2638 H 0.31491 0.66752 0.76612 0.0
H2639 H 0.32769 0.67562 0.79189 0.0
C2640 C 0.27135 0.65174 0.74408 0.0
C2641 C 0.26904 0.6356 0.73856 0.0
C2642 C 0.28338 0.65528 0.75548 0.0
C2643 C 0.29316 0.64268 0.76173 0.0
C2644 C 0.29139 0.62668 0.75555 0.0
C2645 C 0.2795 0.62319 0.74394 0.0
C2646 C 0.30872 0.64092 0.80507 0.0
C2647 C 0.31777 0.65548 0.80609 0.0
C2648 C 0.30172 0.63614 0.79027 0.0
C2649 C 0.30344 0.64591 0.77619 0.0
C2650 C 0.3133 0.65987 0.77687 0.0
C2651 C 0.32053 0.66453 0.79164 0.0
H2652 H 0.6156 0.05052 0.08306 0.0
H2653 H 0.59072 0.08423 0.05082 0.0
H2654 H 0.62492 0.03514 0.05958 0.0
H2655 H 0.59974 0.0682 0.02717 0.0
H2656 H 0.62822 0.03755 0.9881 0.0
H2657 H 0.62369 0.05713 0.01055 0.0
H2658 H 0.6079 0.01737 0.04167 0.0
H2659 H 0.6126 0.99795 0.01953 0.0
C2660 C 0.61245 0.05501 0.07099 0.0
C2661 C 0.60215 0.06857 0.06894 0.0
C2662 C 0.61766 0.04598 0.0575 0.0
C2663 C 0.61272 0.05024 0.04161 0.0
C2664 C 0.60363 0.06459 0.03933 0.0
C2665 C 0.59838 0.07369 0.05289 0.0
C2666 C 0.62383 0.03306 -0.00021 0.0
C2667 C 0.6207 0.01625 0.00208 0.0
C2668 C 0.62119 0.04424 0.01256 0.0
C2669 C 0.61562 0.03873 0.02787 0.0
C2670 C 0.61246 0.02194 0.03008 0.0
C2671 C 0.61494 0.01084 0.01734 0.0
H2672 H 0.70059 0.13279 0.66832 0.0
H2673 H 0.66942 0.16632 0.6943 0.0
H2674 H 0.71034 0.12203 0.6942 0.0
H2675 H 0.67915 0.1554 0.72042 0.0
H2676 H 0.72142 0.15128 0.75804 0.0
H2677 H 0.70452 0.15806 0.73464 0.0
H2678 H 0.70537 0.10731 0.71927 0.0
H2679 H 0.72296 0.10069 0.74222 0.0
C2680 C 0.6954 0.13748 0.67957 0.0
C2681 C 0.68426 0.15044 0.67926 0.0
C2682 C 0.70101 0.1313 0.69446 0.0
C2683 C 0.69562 0.13793 0.70941 0.0
C2684 C 0.68374 0.15022 0.70911 0.0
C2685 C 0.67814 0.15644 0.69418 0.0
C2686 C 0.71792 0.14155 0.74972 0.0
C2687 C 0.72376 0.1255 0.75186 0.0
C2688 C 0.70804 0.14539 0.73642 0.0
C2689 C 0.7037 0.13325 0.72499 0.0
C2690 C 0.70869 0.11699 0.72772 0.0
C2691 C 0.71864 0.11317 0.74099 0.0
H2692 H 0.15164 0.47264 0.99531 0.0
H2693 H 0.10134 0.47439 0.00861 0.0
H2694 H 0.14561 0.45204 0.97445 0.0
H2695 H 0.09544 0.45364 0.988 0.0
H2696 H 0.1197 0.44313 0.92368 0.0
H2697 H 0.13044 0.45551 0.94828 0.0
H2698 H 0.09989 0.42467 0.97799 0.0
H2699 H 0.08932 0.41171 0.95319 0.0
C2700 C 0.13933 0.46851 0.99392 0.0
C2701 C 0.12693 0.47536 0.00346 0.0
C2702 C 0.13592 0.45665 0.98205 0.0
C2703 C 0.12006 0.45129 0.97956 0.0
C2704 C 0.10782 0.45736 0.98978 0.0
C2705 C 0.11121 0.46929 0.00159 0.0
C2706 C 0.11567 0.4384 0.93538 0.0
C2707 C 0.10346 0.42647 0.93634 0.0
C2708 C 0.12183 0.44561 0.94956 0.0
C2709 C 0.11588 0.44118 0.96505 0.0
C2710 C 0.10452 0.42847 0.96616 0.0
C2711 C 0.09846 0.42109 0.95195 0.0
H2712 H 0.73243 0.88375 0.22287 0.0
H2713 H 0.76588 0.87004 0.2611 0.0
H2714 H 0.75198 0.87625 0.20231 0.0
H2715 H 0.78612 0.86396 0.24043 0.0
H2716 H 0.80829 0.83267 0.19886 0.0
H2717 H 0.79243 0.84401 0.2211 0.0
H2718 H 0.77552 0.88248 0.18889 0.0
H2719 H 0.78988 0.87015 0.1663 0.0
C2720 C 0.74401 0.87924 0.22693 0.0
C2721 C 0.7474 0.87725 0.24371 0.0
C2722 C 0.75543 0.87526 0.21507 0.0
C2723 C 0.77076 0.86951 0.21961 0.0
C2724 C 0.77439 0.86811 0.23642 0.0
C2725 C 0.76282 0.87183 0.24832 0.0
C2726 C 0.80116 0.84352 0.19648 0.0
C2727 C 0.80016 0.85018 0.18058 0.0
C2728 C 0.79222 0.85022 0.20937 0.0
C2729 C 0.78234 0.864 0.20678 0.0
C2730 C 0.78255 0.87155 0.19126 0.0
C2731 C 0.79115 0.86463 0.1783 0.0
H2732 H 0.36137 0.51148 0.48582 0.0
H2733 H 0.3919 0.53642 0.52068 0.0
H2734 H 0.3709 0.52937 0.46418 0.0
H2735 H 0.40136 0.55468 0.49892 0.0
H2736 H 0.43212 0.55995 0.45099 0.0
H2737 H 0.41878 0.55106 0.47595 0.0
H2738 H 0.37264 0.55584 0.45198 0.0
H2739 H 0.38612 0.56381 0.42667 0.0
C2740 C 0.36979 0.52112 0.48896 0.0
C2741 C 0.37596 0.52246 0.50494 0.0
C2742 C 0.37523 0.53147 0.47653 0.0
C2743 C 0.38695 0.54349 0.47976 0.0
C2744 C 0.3925 0.54541 0.49596 0.0
C2745 C 0.38711 0.53495 0.50841 0.0
C2746 C 0.41911 0.55932 0.45112 0.0
C2747 C 0.41022 0.56218 0.43673 0.0
C2748 C 0.41142 0.55441 0.46552 0.0
C2749 C 0.39463 0.55239 0.46589 0.0
C2750 C 0.38563 0.55689 0.45198 0.0
C2751 C 0.39334 0.56167 0.43752 0.0
H2752 H 0.2553 0.23571 0.39744 0.0
H2753 H 0.24249 0.23921 0.34615 0.0
H2754 H 0.2766 0.21629 0.39053 0.0
H2755 H 0.26358 0.21963 0.33935 0.0
H2756 H 0.29788 0.17745 0.33251 0.0
H2757 H 0.27353 0.19076 0.3428 0.0
H2758 H 0.30236 0.22029 0.37549 0.0
H2759 H 0.32657 0.20741 0.36505 0.0
C2760 C 0.25695 0.23226 0.38471 0.0
C2761 C 0.24731 0.23917 0.37232 0.0
C2762 C 0.26909 0.22108 0.38079 0.0
C2763 C 0.27178 0.21649 0.36441 0.0
C2764 C 0.26165 0.22277 0.35211 0.0
C2765 C 0.24957 0.23401 0.35602 0.0
C2766 C 0.29899 0.18664 0.34203 0.0
C2767 C 0.31421 0.19139 0.34789 0.0
C2768 C 0.28506 0.19424 0.34792 0.0
C2769 C 0.28607 0.20661 0.35988 0.0
C2770 C 0.30117 0.21064 0.36643 0.0
C2771 C 0.31508 0.20317 0.36047 0.0
H2772 H 0.02829 0.98436 0.61647 0.0
H2773 H 0.99705 0.02356 0.6326 0.0
H2774 H 0.04925 0.00438 0.61024 0.0
H2775 H 0.01735 0.04349 0.62534 0.0
H2776 H 0.05619 0.07798 0.61923 0.0
H2777 H 0.04213 0.05518 0.63156 0.0
H2778 H 0.05488 0.02457 0.59024 0.0
H2779 H 0.07035 0.047 0.57861 0.0
C2780 C 0.02592 0.99721 0.61879 0.0
C2781 C 0.0109 0.00235 0.62486 0.0
C2782 C 0.03788 0.00872 0.61505 0.0
C2783 C 0.03505 0.02561 0.61723 0.0
C2784 C 0.02016 0.03062 0.62373 0.0
C2785 C 0.00833 0.01916 0.62761 0.0
C2786 C 0.05665 0.06625 0.61303 0.0
C2787 C 0.06426 0.06453 0.5977 0.0
C2788 C 0.04825 0.05319 0.61999 0.0
C2789 C 0.04688 0.03815 0.61167 0.0
C2790 C 0.05557 0.03597 0.59702 0.0
C2791 C 0.06429 0.04896 0.5902 0.0
H2792 H 0.22936 0.73734 0.87441 0.0
H2793 H 0.26376 0.77706 0.87446 0.0
H2794 H 0.20808 0.75644 0.86743 0.0
H2795 H 0.24227 0.79638 0.86749 0.0
H2796 H 0.20237 0.81794 0.83258 0.0
H2797 H 0.22486 0.80264 0.84419 0.0
H2798 H 0.19242 0.77881 0.87807 0.0
H2799 H 0.16992 0.79326 0.86589 0.0
C2800 C 0.23233 0.75023 0.87323 0.0
C2801 C 0.24824 0.7557 0.87508 0.0
C2802 C 0.2201 0.76122 0.86926 0.0
C2803 C 0.22343 0.77799 0.86706 0.0
C2804 C 0.23934 0.78352 0.86901 0.0
C2805 C 0.25163 0.77247 0.87298 0.0
C2806 C 0.20007 0.80956 0.84262 0.0
C2807 C 0.18428 0.80671 0.84813 0.0
C2808 C 0.21299 0.8009 0.84939 0.0
C2809 C 0.21038 0.78928 0.86186 0.0
C2810 C 0.19479 0.78742 0.86823 0.0
C2811 C 0.18189 0.79594 0.8614 0.0
H2812 H 0.51009 0.97374 0.12205 0.0
H2813 H 0.47272 0.00942 0.1127 0.0
H2814 H 0.49158 0.95178 0.11539 0.0
H2815 H 0.4538 0.98731 0.10718 0.0
H2816 H 0.43291 0.94444 0.07634 0.0
H2817 H 0.44818 0.96772 0.08658 0.0
H2818 H 0.46898 0.93692 0.1242 0.0
H2819 H 0.45477 0.91344 0.11318 0.0
C2820 C 0.4979 0.97692 0.11863 0.0
C2821 C 0.49299 0.9934 0.11774 0.0
C2822 C 0.48715 0.96427 0.11511 0.0
C2823 C 0.47111 0.96772 0.11082 0.0
C2824 C 0.46608 0.98419 0.11028 0.0
C2825 C 0.47691 0.99688 0.11364 0.0
C2826 C 0.44068 0.94265 0.08685 0.0
C2827 C 0.44276 0.92696 0.09373 0.0
C2828 C 0.44932 0.95607 0.09287 0.0
C2829 C 0.46007 0.95416 0.10605 0.0
C2830 C 0.46114 0.93877 0.11375 0.0
C2831 C 0.4527 0.92531 0.1076 0.0
H2832 H 0.77569 0.24229 0.6138 0.0
H2833 H 0.74087 0.27952 0.62627 0.0
H2834 H 0.79738 0.26066 0.62147 0.0
H2835 H 0.76265 0.2984 0.63331 0.0
H2836 H 0.80463 0.317 0.66565 0.0
H2837 H 0.7818 0.30269 0.65388 0.0
H2838 H 0.81229 0.28397 0.61517 0.0
H2839 H 0.83535 0.29699 0.62779 0.0
C2840 C 0.77273 0.25458 0.61788 0.0
C2841 C 0.75665 0.2595 0.61949 0.0
C2842 C 0.78517 0.26521 0.62217 0.0
C2843 C 0.78184 0.28113 0.62795 0.0
C2844 C 0.76569 0.28618 0.62915 0.0
C2845 C 0.75321 0.27541 0.62508 0.0
C2846 C 0.80648 0.30984 0.65462 0.0
C2847 C 0.82196 0.3079 0.64793 0.0
C2848 C 0.79329 0.30179 0.6477 0.0
C2849 C 0.7952 0.29185 0.63373 0.0
C2850 C 0.81042 0.29112 0.62621 0.0
C2851 C 0.82366 0.29889 0.63331 0.0
H2852 H 0.00481 0.52246 0.87895 0.0
H2853 H 0.97046 0.4846 0.89123 0.0
H2854 H 0.98453 0.54324 0.8837 0.0
H2855 H 0.94974 0.50549 0.89506 0.0
H2856 H 0.92688 0.54995 0.92321 0.0
H2857 H 0.94285 0.5266 0.91424 0.0
H2858 H 0.96065 0.55502 0.87333 0.0
H2859 H 0.94578 0.57864 0.88292 0.0
C2860 C 0.9929 0.51855 0.88263 0.0
C2861 C 0.98935 0.50186 0.88492 0.0
C2862 C 0.98113 0.53049 0.88505 0.0
C2863 C 0.96541 0.52607 0.88964 0.0
C2864 C 0.96174 0.50934 0.89163 0.0
C2865 C 0.97359 0.49736 0.8893 0.0
C2866 C 0.9341 0.55119 0.91222 0.0
C2867 C 0.9353 0.56638 0.90409 0.0
C2868 C 0.94313 0.53771 0.90696 0.0
C2869 C 0.95338 0.53906 0.8933 0.0
C2870 C 0.95325 0.5537 0.88419 0.0
C2871 C 0.94443 0.56722 0.88957 0.0
H2872 H 0.67224 0.69573 0.13429 0.0
H2873 H 0.70076 0.67089 0.17104 0.0
H2874 H 0.69643 0.70795 0.12296 0.0
H2875 H 0.72503 0.68356 0.15983 0.0
H2876 H 0.74397 0.72293 0.10139 0.0
H2877 H 0.7232 0.70335 0.10949 0.0
H2878 H 0.73334 0.71325 0.16049 0.0
H2879 H 0.75376 0.73305 0.1525 0.0
C2880 C 0.68371 0.69241 0.13964 0.0
C2881 C 0.68452 0.68238 0.15367 0.0
C2882 C 0.6976 0.6995 0.13316 0.0
C2883 C 0.71259 0.69682 0.14061 0.0
C2884 C 0.71358 0.68599 0.15399 0.0
C2885 C 0.69969 0.67877 0.1604 0.0
C2886 C 0.74181 0.72089 0.11433 0.0
C2887 C 0.75043 0.72972 0.12629 0.0
C2888 C 0.72999 0.70961 0.11895 0.0
C2889 C 0.72665 0.7068 0.1356 0.0
C2890 C 0.73582 0.71498 0.14755 0.0
C2891 C 0.74753 0.72635 0.14295 0.0
H2892 H 0.51063 0.47733 0.3567 0.0
H2893 H 0.53634 0.51671 0.38054 0.0
H2894 H 0.53103 0.45803 0.36541 0.0
H2895 H 0.55744 0.49744 0.38861 0.0
H2896 H 0.57067 0.45344 0.42334 0.0
H2897 H 0.55889 0.47646 0.40876 0.0
H2898 H 0.55727 0.44747 0.36437 0.0
H2899 H 0.56778 0.42407 0.37926 0.0
C2900 C 0.52084 0.48191 0.36357 0.0
C2901 C 0.52169 0.49846 0.36825 0.0
C2902 C 0.53273 0.47087 0.36836 0.0
C2903 C 0.54591 0.47612 0.37783 0.0
C2904 C 0.54734 0.49293 0.38154 0.0
C2905 C 0.53534 0.504 0.37679 0.0
C2906 C 0.56796 0.45202 0.41042 0.0
C2907 C 0.56972 0.4367 0.40266 0.0
C2908 C 0.5614 0.46534 0.40196 0.0
C2909 C 0.55671 0.46371 0.38546 0.0
C2910 C 0.5603 0.449 0.37721 0.0
C2911 C 0.5666 0.4356 0.38573 0.0
H2912 H 0.39171 0.24962 0.21955 0.0
H2913 H 0.34229 0.24233 0.23424 0.0
H2914 H 0.38302 0.27009 0.19948 0.0
H2915 H 0.33368 0.26253 0.21427 0.0
H2916 H 0.36023 0.32292 0.19164 0.0
H2917 H 0.3722 0.29786 0.20236 0.0
H2918 H 0.33104 0.27018 0.1856 0.0
H2919 H 0.31896 0.29539 0.17508 0.0
C2920 C 0.379 0.25226 0.21839 0.0
C2921 C 0.3677 0.24442 0.22858 0.0
C2922 C 0.37403 0.26392 0.20686 0.0
C2923 C 0.35767 0.26793 0.20526 0.0
C2924 C 0.34635 0.25952 0.21492 0.0
C2925 C 0.3513 0.24792 0.22644 0.0
C2926 C 0.35403 0.31139 0.18969 0.0
C2927 C 0.33857 0.3111 0.18276 0.0
C2928 C 0.36088 0.297 0.19585 0.0
C2929 C 0.35241 0.28208 0.19513 0.0
C2930 C 0.33769 0.28156 0.18666 0.0
C2931 C 0.33081 0.29595 0.18058 0.0
H2932 H 0.8161 0.20355 0.80902 0.0
H2933 H 0.8609 0.17686 0.81201 0.0
H2934 H 0.83029 0.22721 0.79817 0.0
H2935 H 0.87529 0.20092 0.80211 0.0
H2936 H 0.88737 0.23309 0.75684 0.0
H2937 H 0.87706 0.21234 0.77542 0.0
H2938 H 0.84875 0.24924 0.80034 0.0
H2939 H 0.85886 0.26999 0.78131 0.0
C2940 C 0.82905 0.20288 0.80774 0.0
C2941 C 0.8373 0.18819 0.81102 0.0
C2942 C 0.83724 0.21654 0.8017 0.0
C2943 C 0.85393 0.21589 0.79897 0.0
C2944 C 0.86238 0.2017 0.8037 0.0
C2945 C 0.85415 0.18796 0.8096 0.0
C2946 C 0.87921 0.23683 0.7665 0.0
C2947 C 0.87381 0.25312 0.76754 0.0
C2948 C 0.87333 0.22494 0.77725 0.0
C2949 C 0.862 0.22907 0.78938 0.0
C2950 C 0.85725 0.24557 0.79096 0.0
C2951 C 0.86303 0.25746 0.78009 0.0
H2952 H 0.00857 0.64898 0.01565 0.0
H2953 H 0.99438 0.59816 0.01098 0.0
H2954 H 0.03007 0.64094 0.03438 0.0
H2955 H 0.01568 0.59023 0.02987 0.0
H2956 H 0.07953 0.61402 0.04144 0.0
H2957 H 0.05534 0.62532 0.0293 0.0
H2958 H 0.02631 0.59259 0.05861 0.0
H2959 H 0.05066 0.58142 0.0712 0.0
C2960 C 0.00996 0.63612 0.0187 0.0
C2961 C -0.00014 0.62419 0.01166 0.0
C2962 C 0.02221 0.63154 0.02948 0.0
C2963 C 0.02458 0.61497 0.03353 0.0
C2964 C 0.01401 0.60313 0.02715 0.0
C2965 C 0.0018 0.60769 0.0163 0.0
C2966 C 0.06802 0.60959 0.04579 0.0
C2967 C 0.06708 0.59677 0.05732 0.0
C2968 C 0.05412 0.61605 0.03875 0.0
C2969 C 0.03895 0.60978 0.04295 0.0
C2970 C 0.03789 0.59752 0.05502 0.0
C2971 C 0.05182 0.59112 0.0622 0.0
H2972 H 0.67114 0.80704 0.31787 0.0
H2973 H 0.6208 0.82003 0.31514 0.0
H2974 H 0.66518 0.78037 0.30613 0.0
H2975 H 0.61501 0.7937 0.30239 0.0
H2976 H 0.60742 0.74279 0.28302 0.0
H2977 H 0.61357 0.76431 0.30294 0.0
H2978 H 0.65894 0.77309 0.27855 0.0
H2979 H 0.65289 0.75154 0.25894 0.0
C2980 C 0.65872 0.8041 0.31518 0.0
C2981 C 0.64647 0.81583 0.31726 0.0
C2982 C 0.65535 0.78885 0.30818 0.0
C2983 C 0.63969 0.78503 0.30293 0.0
C2984 C 0.62722 0.7962 0.30626 0.0
C2985 C 0.63057 0.81141 0.31342 0.0
C2986 C 0.61877 0.74926 0.28205 0.0
C2987 C 0.62964 0.74555 0.26937 0.0
C2988 C 0.62229 0.76157 0.29345 0.0
C2989 C 0.63673 0.77047 0.29235 0.0
C2990 C 0.64784 0.7663 0.28001 0.0
C2991 C 0.64436 0.75396 0.26869 0.0
H2992 H 0.42063 0.38775 0.54099 0.0
H2993 H 0.44788 0.41757 0.57488 0.0
H2994 H 0.44543 0.37712 0.52948 0.0
H2995 H 0.47288 0.40695 0.56318 0.0
H2996 H 0.50908 0.40383 0.51908 0.0
H2997 H 0.48637 0.41087 0.53665 0.0
H2998 H 0.46955 0.36078 0.53408 0.0
H2999 H 0.4919 0.35389 0.51601 0.0
C3000 C 0.43191 0.39168 0.54633 0.0
C3001 C 0.43225 0.40353 0.55887 0.0
C3002 C 0.44617 0.3856 0.53969 0.0
C3003 C 0.46114 0.39124 0.54537 0.0
C3004 C 0.46152 0.40253 0.5584 0.0
C3005 C 0.44722 0.4086 0.5651 0.0
C3006 C 0.50059 0.3943 0.52236 0.0
C3007 C 0.5022 0.37835 0.51599 0.0
C3008 C 0.48768 0.39828 0.53259 0.0
C3009 C 0.47609 0.3864 0.53667 0.0
C3010 C 0.47818 0.37025 0.531 0.0
C3011 C 0.49108 0.36627 0.52078 0.0
H3012 H 0.17468 0.69249 0.67655 0.0
H3013 H 0.12573 0.6762 0.68372 0.0
H3014 H 0.16774 0.71922 0.68773 0.0
H3015 H 0.11897 0.70277 0.69559 0.0
H3016 H 0.10968 0.75414 0.71335 0.0
H3017 H 0.116 0.73258 0.69352 0.0
H3018 H 0.16251 0.72608 0.71624 0.0
H3019 H 0.15621 0.74742 0.73598 0.0
C3020 C 0.16231 0.69474 0.68002 0.0
C3021 C 0.1508 0.68211 0.67943 0.0
C3022 C 0.15839 0.71003 0.68665 0.0
C3023 C 0.14291 0.713 0.69289 0.0
C3024 C 0.13102 0.70089 0.69091 0.0
C3025 C 0.13492 0.68561 0.68423 0.0
C3026 C 0.12129 0.74816 0.71402 0.0
C3027 C 0.1324 0.75243 0.72633 0.0
C3028 C 0.12492 0.73586 0.70263 0.0
C3029 C 0.13975 0.72761 0.70329 0.0
C3030 C 0.15109 0.73238 0.71516 0.0
C3031 C 0.14746 0.74463 0.72654 0.0
H3032 H 0.48025 0.88424 0.96155 0.0
H3033 H 0.51766 0.86131 0.99028 0.0
H3034 H 0.50047 0.89427 0.9422 0.0
H3035 H 0.53776 0.87146 0.9713 0.0
H3036 H 0.57222 0.88479 0.93352 0.0
H3037 H 0.54921 0.87023 0.94465 0.0
H3038 H 0.52105 0.91475 0.9423 0.0
H3039 H 0.54377 0.92905 0.93013 0.0
C3040 C 0.49278 0.88128 0.96367 0.0
C3041 C 0.49737 0.87201 0.97744 0.0
C3042 C 0.50435 0.88701 0.9526 0.0
C3043 C 0.52077 0.88366 0.95514 0.0
C3044 C 0.52524 0.87398 0.96869 0.0
C3045 C 0.51369 0.86819 0.97966 0.0
C3046 C 0.56096 0.89135 0.93475 0.0
C3047 C 0.55994 0.9082 0.93116 0.0
C3048 C 0.54781 0.88303 0.94139 0.0
C3049 C 0.5334 0.8914 0.94479 0.0
C3050 C 0.53195 0.90788 0.93989 0.0
C3051 C 0.54505 0.91616 0.93307 0.0
H3052 H 0.95016 0.07926 0.42809 0.0
H3053 H 0.91987 0.1122 0.45592 0.0
H3054 H 0.97389 0.09082 0.44143 0.0
H3055 H 0.94358 0.12393 0.4689 0.0
H3056 H 0.9913 0.14712 0.48365 0.0
H3057 H 0.96977 0.13927 0.46482 0.0
H3058 H 0.98243 0.08827 0.47104 0.0
H3059 H 0.00353 0.09594 0.49016 0.0
C3060 C 0.94858 0.08915 0.43681 0.0
C3061 C 0.9331 0.09469 0.44104 0.0
C3062 C 0.96216 0.09577 0.44442 0.0
C3063 C 0.96054 0.10815 0.4563 0.0
C3064 C 0.94519 0.11449 0.45968 0.0
C3065 C 0.9316 0.1078 0.45217 0.0
C3066 C 0.98947 0.13422 0.48104 0.0
C3067 C -0.00087 0.12216 0.48852 0.0
C3068 C 0.97721 0.12976 0.47018 0.0
C3069 C 0.97449 0.11318 0.46642 0.0
C3070 C 0.98444 0.10118 0.47347 0.0
C3071 C 0.99657 0.1056 0.48444 0.0
loop_
_geom_bond_atom_site_label_1
_geom_bond_atom_site_label_2
_geom_bond_distance
_geom_bond_site_symmetry_2
_ccdc_geom_bond_type
Li0 N17 1.990 . S
Li0 O60 1.956 . S
Li0 O61 1.970 . S
Li0 O62 1.961 . S
Li1 N25 1.990 . S
Li1 O60 1.970 . S
Li1 O61 1.956 . S
Li1 O63 1.961 . S
Li2 N47 1.990 . S
Li2 O60 1.961 . S
Li2 O62 1.956 . S
Li2 O63 1.970 . S
Li3 N53 1.990 . S
Li3 O61 1.961 . S
Li3 O62 1.970 . S
Li3 O63 1.956 . S
C4 C6 1.348 . S
C4 C7 1.356 . S
C4 O60 1.325 . S
N5 C8 1.314 . S
N5 C9 1.279 . S
C6 C4 1.348 . S
C6 C8 1.353 . S
C6 H64 0.929 . S
C7 C4 1.356 . S
C7 C9 1.358 . S
C7 H65 0.930 . S
C8 N5 1.314 . S
C8 C6 1.353 . S
C8 H66 0.930 . S
C9 N5 1.279 . S
C9 C7 1.358 . S
C9 H67 0.930 . S
C10 C13 1.348 . S
C10 C14 1.356 . S
C10 O61 1.325 . S
C11 N12 1.279 . S
C11 C14 1.358 . S
C11 H68 0.930 . S
N12 C11 1.279 . S
N12 C15 1.314 . S
C13 C10 1.348 . S
C13 C15 1.353 . S
C13 H69 0.929 . S
C14 C10 1.356 . S
C14 C11 1.358 . S
C14 H70 0.930 . S
C15 N12 1.314 . S
C15 C13 1.353 . S
C15 H71 0.930 . S
C16 N17 1.314 . S
C16 C21 1.353 . S
C16 H22 0.930 . S
N17 Li0 1.990 . S
N17 C16 1.314 . S
N17 C19 1.279 . S
C18 C19 1.358 . S
C18 C20 1.356 . S
C18 H72 0.930 . S
C19 N17 1.279 . S
C19 C18 1.358 . S
C19 H23 0.930 . S
C20 C18 1.356 . S
C20 C21 1.348 . S
C21 C16 1.353 . S
C21 C20 1.348 . S
C21 H73 0.929 . S
H22 C16 0.930 . S
H23 C19 0.930 . S
C24 N25 1.314 . S
C24 C26 1.353 . S
C24 H30 0.930 . S
N25 Li1 1.990 . S
N25 C24 1.314 . S
N25 C28 1.279 . S
C26 C24 1.353 . S
C26 C29 1.348 . S
C26 H74 0.929 . S
C27 C28 1.358 . S
C27 C29 1.356 . S
C27 H75 0.930 . S
C28 N25 1.279 . S
C28 C27 1.358 . S
C28 H31 0.930 . S
C29 C26 1.348 . S
C29 C27 1.356 . S
H30 C24 0.930 . S
H31 C28 0.930 . S
C32 C34 1.348 . S
C32 C35 1.356 . S
C32 O62 1.325 . S
N33 C36 1.314 . S
N33 C37 1.279 . S
C34 C32 1.348 . S
C34 C36 1.353 . S
C34 H76 0.929 . S
C35 C32 1.356 . S
C35 C37 1.358 . S
C35 H77 0.930 . S
C36 N33 1.314 . S
C36 C34 1.353 . S
C36 H78 0.930 . S
C37 N33 1.279 . S
C37 C35 1.358 . S
C37 H79 0.930 . S
C38 C39 1.348 . S
C38 C40 1.356 . S
C38 O63 1.325 . S
C39 C38 1.348 . S
C39 C41 1.353 . S
C39 H80 0.929 . S
C40 C38 1.356 . S
C40 C42 1.358 . S
C40 H81 0.930 . S
C41 C39 1.353 . S
C41 N43 1.314 . S
C41 H82 0.930 . S
C42 C40 1.358 . S
C42 N43 1.279 . S
C42 H83 0.930 . S
N43 C41 1.314 . S
N43 C42 1.279 . S
C44 C46 1.353 . S
C44 N47 1.314 . S
C44 H50 0.930 . S
C45 N47 1.279 . S
C45 C48 1.358 . S
C45 H51 0.930 . S
C46 C44 1.353 . S
C46 C49 1.348 . S
C46 H84 0.929 . S
N47 Li2 1.990 . S
N47 C44 1.314 . S
N47 C45 1.279 . S
C48 C45 1.358 . S
C48 C49 1.356 . S
C48 H85 0.930 . S
C49 C46 1.348 . S
C49 C48 1.356 . S
H50 C44 0.930 . S
H51 C45 0.930 . S
C52 N53 1.314 . S
C52 C54 1.353 . S
C52 H58 0.930 . S
N53 Li3 1.990 . S
N53 C52 1.314 . S
N53 C56 1.279 . S
C54 C52 1.353 . S
C54 C57 1.348 . S
C54 H86 0.929 . S
C55 C56 1.358 . S
C55 C57 1.356 . S
C55 H87 0.930 . S
C56 N53 1.279 . S
C56 C55 1.358 . S
C56 H59 0.930 . S
C57 C54 1.348 . S
C57 C55 1.356 . S
H58 C52 0.930 . S
H59 C56 0.930 . S
O60 Li0 1.956 . S
O60 Li1 1.970 . S
O60 Li2 1.961 . S
O60 C4 1.325 . S
O61 Li0 1.970 . S
O61 Li1 1.956 . S
O61 Li3 1.961 . S
O61 C10 1.325 . S
O62 Li0 1.961 . S
O62 Li2 1.956 . S
O62 Li3 1.970 . S
O62 C32 1.325 . S
O63 Li1 1.961 . S
O63 Li2 1.970 . S
O63 Li3 1.956 . S
O63 C38 1.325 . S
H64 C6 0.929 . S
H65 C7 0.930 . S
H66 C8 0.930 . S
H67 C9 0.930 . S
H68 C11 0.930 . S
H69 C13 0.929 . S
H70 C14 0.930 . S
H71 C15 0.930 . S
H72 C18 0.930 . S
H73 C21 0.929 . S
H74 C26 0.929 . S
H75 C27 0.930 . S
H76 C34 0.929 . S
H77 C35 0.930 . S
H78 C36 0.930 . S
H79 C37 0.930 . S
H80 C39 0.929 . S
H81 C40 0.930 . S
H82 C41 0.930 . S
H83 C42 0.930 . S
H84 C46 0.929 . S
H85 C48 0.930 . S
H86 C54 0.929 . S
H87 C55 0.930 . S
Li88 N105 1.990 . S
Li88 O148 1.956 . S
Li88 O149 1.970 . S
Li88 O150 1.961 . S
Li89 N113 1.990 . S
Li89 O148 1.970 . S
Li89 O149 1.956 . S
Li89 O151 1.961 . S
Li90 N135 1.990 . S
Li90 O148 1.961 . S
Li90 O150 1.956 . S
Li90 O151 1.970 . S
Li91 N141 1.990 . S
Li91 O149 1.961 . S
Li91 O150 1.970 . S
Li91 O151 1.956 . S
C92 C94 1.348 . S
C92 C95 1.356 . S
C92 O148 1.325 . S
N93 C96 1.314 . S
N93 C97 1.279 . S
C94 C92 1.348 . S
C94 C96 1.353 . S
C94 H152 0.929 . S
C95 C92 1.356 . S
C95 C97 1.358 . S
C95 H153 0.930 . S
C96 N93 1.314 . S
C96 C94 1.353 . S
C96 H154 0.930 . S
C97 N93 1.279 . S
C97 C95 1.358 . S
C97 H155 0.930 . S
C98 C101 1.348 . S
C98 C102 1.356 . S
C98 O149 1.325 . S
C99 N100 1.279 . S
C99 C102 1.358 . S
C99 H156 0.930 . S
N100 C99 1.279 . S
N100 C103 1.314 . S
C101 C98 1.348 . S
C101 C103 1.353 . S
C101 H157 0.929 . S
C102 C98 1.356 . S
C102 C99 1.358 . S
C102 H158 0.930 . S
C103 N100 1.314 . S
C103 C101 1.353 . S
C103 H159 0.930 . S
C104 N105 1.314 . S
C104 C109 1.353 . S
C104 H110 0.930 . S
N105 Li88 1.990 . S
N105 C104 1.314 . S
N105 C107 1.279 . S
C106 C107 1.358 . S
C106 C108 1.356 . S
C106 H160 0.930 . S
C107 N105 1.279 . S
C107 C106 1.358 . S
C107 H111 0.930 . S
C108 C106 1.356 . S
C108 C109 1.348 . S
C109 C104 1.353 . S
C109 C108 1.348 . S
C109 H161 0.929 . S
H110 C104 0.930 . S
H111 C107 0.930 . S
C112 N113 1.314 . S
C112 C114 1.353 1_655 S
C112 H118 0.930 . S
N113 Li89 1.990 . S
N113 C112 1.314 . S
N113 C116 1.279 . S
C114 C112 1.353 1_455 S
C114 C117 1.348 1_455 S
C114 H162 0.929 . S
C115 C116 1.358 . S
C115 C117 1.356 . S
C115 H163 0.930 . S
C116 N113 1.279 . S
C116 C115 1.358 . S
C116 H119 0.930 . S
C117 C114 1.348 1_655 S
C117 C115 1.356 . S
H118 C112 0.930 . S
H119 C116 0.930 . S
C120 C122 1.348 . S
C120 C123 1.356 . S
C120 O150 1.325 . S
N121 C124 1.314 1_545 S
N121 C125 1.279 . S
C122 C120 1.348 . S
C122 C124 1.353 . S
C122 H164 0.929 . S
C123 C120 1.356 . S
C123 C125 1.358 1_565 S
C123 H165 0.930 . S
C124 N121 1.314 1_565 S
C124 C122 1.353 . S
C124 H166 0.930 . S
C125 N121 1.279 . S
C125 C123 1.358 1_545 S
C125 H167 0.930 . S
C126 C127 1.348 . S
C126 C128 1.356 . S
C126 O151 1.325 . S
C127 C126 1.348 . S
C127 C129 1.353 . S
C127 H168 0.929 . S
C128 C126 1.356 . S
C128 C130 1.358 . S
C128 H169 0.930 . S
C129 C127 1.353 . S
C129 N131 1.314 . S
C129 H170 0.930 1_655 S
C130 C128 1.358 . S
C130 N131 1.277 . S
C130 H171 0.930 . S
N131 C129 1.314 . S
N131 C130 1.277 . S
C132 C134 1.406 . S
C132 N135 1.247 1_455 S
C132 H138 0.950 . S
C133 N135 1.279 . S
C133 C136 1.358 1_565 S
C133 H139 0.930 . S
C134 C132 1.406 . S
C134 C137 1.348 1_565 S
C134 H172 0.929 . S
N135 Li90 1.990 . S
N135 C132 1.247 1_655 S
N135 C133 1.279 . S
C136 C133 1.358 1_545 S
C136 C137 1.356 1_655 S
C136 H173 0.930 . S
C137 C134 1.348 1_545 S
C137 C136 1.356 1_455 S
H138 C132 0.950 . S
H139 C133 0.930 . S
C140 N141 1.314 . S
C140 C142 1.353 . S
C140 H146 0.930 . S
N141 Li91 1.990 . S
N141 C140 1.314 . S
N141 C144 1.279 . S
C142 C140 1.353 . S
C142 C145 1.348 . S
C142 H174 0.929 . S
C143 C144 1.358 . S
C143 C145 1.356 . S
C143 H175 0.930 . S
C144 N141 1.279 . S
C144 C143 1.358 . S
C144 H147 0.930 . S
C145 C142 1.348 . S
C145 C143 1.356 . S
H146 C140 0.930 . S
H147 C144 0.930 . S
O148 Li88 1.956 . S
O148 Li89 1.970 . S
O148 Li90 1.961 . S
O148 C92 1.325 . S
O149 Li88 1.970 . S
O149 Li89 1.956 . S
O149 Li91 1.961 . S
O149 C98 1.325 . S
O150 Li88 1.961 . S
O150 Li90 1.956 . S
O150 Li91 1.970 . S
O150 C120 1.325 . S
O151 Li89 1.961 . S
O151 Li90 1.970 . S
O151 Li91 1.956 . S
O151 C126 1.325 . S
H152 C94 0.929 . S
H153 C95 0.930 . S
H154 C96 0.930 . S
H155 C97 0.930 . S
H156 C99 0.930 . S
H157 C101 0.929 . S
H158 C102 0.930 . S
H159 C103 0.930 . S
H160 C106 0.930 . S
H161 C109 0.929 . S
H162 C114 0.929 . S
H163 C115 0.930 . S
H164 C122 0.929 . S
H165 C123 0.930 . S
H166 C124 0.930 . S
H167 C125 0.930 . S
H168 C127 0.929 . S
H169 C128 0.930 . S
H170 C129 0.930 1_455 S
H171 C130 0.930 . S
H172 C134 0.929 . S
H173 C136 0.930 . S
H174 C142 0.929 . S
H175 C143 0.930 . S
Li176 N193 1.990 . S
Li176 O236 1.956 . S
Li176 O237 1.970 . S
Li176 O238 1.961 . S
Li177 N201 1.990 . S
Li177 O236 1.970 . S
Li177 O237 1.956 . S
Li177 O239 1.961 . S
Li178 N223 1.990 . S
Li178 O236 1.961 . S
Li178 O238 1.956 . S
Li178 O239 1.970 . S
Li179 N229 1.990 . S
Li179 O237 1.961 . S
Li179 O238 1.970 . S
Li179 O239 1.956 . S
C180 C182 1.348 . S
C180 C183 1.356 . S
C180 O236 1.325 . S
N181 C184 1.314 . S
N181 C185 1.279 . S
C182 C180 1.348 . S
C182 C184 1.353 . S
C182 H240 0.929 . S
C183 C180 1.356 . S
C183 C185 1.358 . S
C183 H241 0.930 . S
C184 N181 1.314 . S
C184 C182 1.353 . S
C184 H242 0.930 . S
C185 N181 1.279 . S
C185 C183 1.358 . S
C185 H243 0.930 . S
C186 C189 1.348 . S
C186 C190 1.356 . S
C186 O237 1.325 . S
C187 N188 1.279 . S
C187 C190 1.358 . S
C187 H244 0.930 . S
N188 C187 1.279 . S
N188 C191 1.314 . S
C189 C186 1.348 . S
C189 C191 1.353 . S
C189 H245 0.929 . S
C190 C186 1.356 . S
C190 C187 1.358 . S
C190 H246 0.930 . S
C191 N188 1.314 . S
C191 C189 1.353 . S
C191 H247 0.930 . S
C192 N193 1.314 . S
C192 C197 1.353 . S
C192 H198 0.930 . S
N193 Li176 1.990 . S
N193 C192 1.314 . S
N193 C195 1.279 . S
C194 C195 1.358 . S
C194 C196 1.356 . S
C194 H248 0.930 . S
C195 N193 1.279 . S
C195 C194 1.358 . S
C195 H199 0.930 . S
C196 C194 1.356 . S
C196 C197 1.348 . S
C197 C192 1.353 . S
C197 C196 1.348 . S
C197 H249 0.929 . S
H198 C192 0.930 . S
H199 C195 0.930 . S
C200 N201 1.314 . S
C200 C202 1.353 . S
C200 H206 0.930 . S
N201 Li177 1.990 . S
N201 C200 1.314 . S
N201 C204 1.279 . S
C202 C200 1.353 . S
C202 C205 1.348 . S
C202 H250 0.929 . S
C203 C204 1.358 . S
C203 C205 1.356 . S
C203 H251 0.930 . S
C204 N201 1.279 . S
C204 C203 1.358 . S
C204 H207 0.930 . S
C205 C202 1.348 . S
C205 C203 1.356 . S
H206 C200 0.930 . S
H207 C204 0.930 . S
C208 C210 1.348 . S
C208 C211 1.356 . S
C208 O238 1.325 . S
N209 C212 1.314 . S
N209 C213 1.279 . S
C210 C208 1.348 . S
C210 C212 1.353 . S
C210 H252 0.929 . S
C211 C208 1.356 . S
C211 C213 1.358 . S
C211 H253 0.930 . S
C212 N209 1.314 . S
C212 C210 1.353 . S
C212 H254 0.930 . S
C213 N209 1.279 . S
C213 C211 1.358 . S
C213 H255 0.930 . S
C214 C215 1.348 . S
C214 C216 1.356 . S
C214 O239 1.325 . S
C215 C214 1.348 . S
C215 C217 1.353 . S
C215 H256 0.929 . S
C216 C214 1.356 . S
C216 C218 1.358 . S
C216 H257 0.930 . S
C217 C215 1.353 . S
C217 N219 1.314 . S
C217 H258 0.930 . S
C218 C216 1.358 . S
C218 N219 1.279 . S
C218 H259 0.930 . S
N219 C217 1.314 . S
N219 C218 1.279 . S
C220 C222 1.353 . S
C220 N223 1.314 . S
C220 H226 0.930 . S
C221 N223 1.279 . S
C221 C224 1.358 . S
C221 H227 0.930 . S
C222 C220 1.353 . S
C222 C225 1.348 . S
C222 H260 0.929 . S
N223 Li178 1.990 . S
N223 C220 1.314 . S
N223 C221 1.279 . S
C224 C221 1.358 . S
C224 C225 1.356 . S
C224 H261 0.930 . S
C225 C222 1.348 . S
C225 C224 1.356 . S
H226 C220 0.930 . S
H227 C221 0.930 . S
C228 N229 1.314 . S
C228 C230 1.353 . S
C228 H234 0.930 . S
N229 Li179 1.990 . S
N229 C228 1.314 . S
N229 C232 1.279 . S
C230 C228 1.353 . S
C230 C233 1.348 . S
C230 H262 0.929 . S
C231 C232 1.358 . S
C231 C233 1.356 . S
C231 H263 0.930 . S
C232 N229 1.279 . S
C232 C231 1.358 . S
C232 H235 0.930 . S
C233 C230 1.348 . S
C233 C231 1.356 . S
H234 C228 0.930 . S
H235 C232 0.930 . S
O236 Li176 1.956 . S
O236 Li177 1.970 . S
O236 Li178 1.961 . S
O236 C180 1.325 . S
O237 Li176 1.970 . S
O237 Li177 1.956 . S
O237 Li179 1.961 . S
O237 C186 1.325 . S
O238 Li176 1.961 . S
O238 Li178 1.956 . S
O238 Li179 1.970 . S
O238 C208 1.325 . S
O239 Li177 1.961 . S
O239 Li178 1.970 . S
O239 Li179 1.956 . S
O239 C214 1.325 . S
H240 C182 0.929 . S
H241 C183 0.930 . S
H242 C184 0.930 . S
H243 C185 0.930 . S
H244 C187 0.930 . S
H245 C189 0.929 . S
H246 C190 0.930 . S
H247 C191 0.930 . S
H248 C194 0.930 . S
H249 C197 0.929 . S
H250 C202 0.929 . S
H251 C203 0.930 . S
H252 C210 0.929 . S
H253 C211 0.930 . S
H254 C212 0.930 . S
H255 C213 0.930 . S
H256 C215 0.929 . S
H257 C216 0.930 . S
H258 C217 0.930 . S
H259 C218 0.930 . S
H260 C222 0.929 . S
H261 C224 0.930 . S
H262 C230 0.929 . S
H263 C231 0.930 . S
Li264 N281 1.990 . S
Li264 O324 1.956 . S
Li264 O325 1.970 . S
Li264 O326 1.961 . S
Li265 N289 1.990 . S
Li265 O324 1.970 . S
Li265 O325 1.956 . S
Li265 O327 1.961 . S
Li266 N311 1.990 . S
Li266 O324 1.961 . S
Li266 O326 1.956 . S
Li266 O327 1.970 . S
Li267 N317 1.990 . S
Li267 O325 1.961 . S
Li267 O326 1.970 . S
Li267 O327 1.956 . S
C268 C270 1.348 . S
C268 C271 1.356 . S
C268 O324 1.325 . S
N269 C272 1.314 . S
N269 C273 1.279 . S
C270 C268 1.348 . S
C270 C272 1.353 . S
C270 H328 0.929 . S
C271 C268 1.356 . S
C271 C273 1.358 . S
C271 H329 0.930 . S
C272 N269 1.314 . S
C272 C270 1.353 . S
C272 H330 0.930 . S
C273 N269 1.279 . S
C273 C271 1.358 . S
C273 H331 0.930 . S
C274 C277 1.348 . S
C274 C278 1.356 . S
C274 O325 1.325 . S
C275 N276 1.279 . S
C275 C278 1.358 . S
C275 H332 0.930 . S
N276 C275 1.279 . S
N276 C279 1.314 . S
C277 C274 1.348 . S
C277 C279 1.353 . S
C277 H333 0.929 . S
C278 C274 1.356 . S
C278 C275 1.358 . S
C278 H334 0.930 . S
C279 N276 1.314 . S
C279 C277 1.353 . S
C279 H335 0.930 . S
C280 N281 1.314 . S
C280 C285 1.353 . S
C280 H286 0.930 . S
N281 Li264 1.990 . S
N281 C280 1.314 . S
N281 C283 1.279 . S
C282 C283 1.358 . S
C282 C284 1.356 . S
C282 H336 0.930 . S
C283 N281 1.279 . S
C283 C282 1.358 . S
C283 H287 0.930 . S
C284 C282 1.356 . S
C284 C285 1.348 . S
C285 C280 1.353 . S
C285 C284 1.348 . S
C285 H337 0.929 . S
H286 C280 0.930 . S
H287 C283 0.930 . S
C288 N289 1.314 . S
C288 C290 1.353 . S
C288 H294 0.930 . S
N289 Li265 1.990 . S
N289 C288 1.314 . S
N289 C292 1.279 . S
C290 C288 1.353 . S
C290 C293 1.348 . S
C290 H338 0.929 . S
C291 C292 1.358 . S
C291 C293 1.356 . S
C291 H339 0.930 . S
C292 N289 1.279 . S
C292 C291 1.358 . S
C292 H295 0.930 . S
C293 C290 1.348 . S
C293 C291 1.356 . S
H294 C288 0.930 . S
H295 C292 0.930 . S
C296 C298 1.348 . S
C296 C299 1.356 . S
C296 O326 1.325 . S
N297 C300 1.314 1_565 S
N297 C301 1.279 . S
C298 C296 1.348 . S
C298 C300 1.353 . S
C298 H340 0.929 . S
C299 C296 1.356 . S
C299 C301 1.358 1_545 S
C299 H341 0.930 . S
C300 N297 1.314 1_545 S
C300 C298 1.353 . S
C300 H342 0.930 . S
C301 N297 1.279 . S
C301 C299 1.358 1_565 S
C301 H343 0.930 . S
C302 C303 1.348 . S
C302 C304 1.356 . S
C302 O327 1.325 . S
C303 C302 1.348 . S
C303 C305 1.353 . S
C303 H344 0.929 . S
C304 C302 1.356 . S
C304 C306 1.358 . S
C304 H345 0.930 . S
C305 C303 1.353 . S
C305 N307 1.314 . S
C305 H346 0.930 . S
C306 C304 1.358 . S
C306 N307 1.279 . S
C306 H347 0.930 . S
N307 C305 1.314 . S
N307 C306 1.279 . S
C308 C310 1.353 . S
C308 N311 1.314 . S
C308 H314 0.930 . S
C309 N311 1.279 . S
C309 C312 1.358 1_545 S
C309 H315 0.930 . S
C310 C308 1.353 . S
C310 C313 1.348 1_545 S
C310 H348 0.929 . S
N311 Li266 1.990 . S
N311 C308 1.314 . S
N311 C309 1.279 . S
C312 C309 1.358 1_565 S
C312 C313 1.356 . S
C312 H349 0.930 . S
C313 C310 1.348 1_565 S
C313 C312 1.356 . S
H314 C308 0.930 . S
H315 C309 0.930 . S
C316 N317 1.314 . S
C316 C318 1.353 . S
C316 H322 0.930 . S
N317 Li267 1.990 . S
N317 C316 1.314 . S
N317 C320 1.279 . S
C318 C316 1.353 . S
C318 C321 1.348 . S
C318 H350 0.929 . S
C319 C320 1.358 . S
C319 C321 1.356 . S
C319 H351 0.930 . S
C320 N317 1.279 . S
C320 C319 1.358 . S
C320 H323 0.930 . S
C321 C318 1.348 . S
C321 C319 1.356 . S
H322 C316 0.930 . S
H323 C320 0.930 . S
O324 Li264 1.956 . S
O324 Li265 1.970 . S
O324 Li266 1.961 . S
O324 C268 1.325 . S
O325 Li264 1.970 . S
O325 Li265 1.956 . S
O325 Li267 1.961 . S
O325 C274 1.325 . S
O326 Li264 1.961 . S
O326 Li266 1.956 . S
O326 Li267 1.970 . S
O326 C296 1.325 . S
O327 Li265 1.961 . S
O327 Li266 1.970 . S
O327 Li267 1.956 . S
O327 C302 1.325 . S
H328 C270 0.929 . S
H329 C271 0.930 . S
H330 C272 0.930 . S
H331 C273 0.930 . S
H332 C275 0.930 . S
H333 C277 0.929 . S
H334 C278 0.930 . S
H335 C279 0.930 . S
H336 C282 0.930 . S
H337 C285 0.929 . S
H338 C290 0.929 . S
H339 C291 0.930 . S
H340 C298 0.929 . S
H341 C299 0.930 . S
H342 C300 0.930 . S
H343 C301 0.930 . S
H344 C303 0.929 . S
H345 C304 0.930 . S
H346 C305 0.930 . S
H347 C306 0.930 . S
H348 C310 0.929 . S
H349 C312 0.930 . S
H350 C318 0.929 . S
H351 C319 0.930 . S
Li352 N369 1.990 . S
Li352 O412 1.956 . S
Li352 O413 1.970 . S
Li352 O414 1.961 . S
Li353 N377 1.990 . S
Li353 O412 1.970 . S
Li353 O413 1.956 . S
Li353 O415 1.961 . S
Li354 N399 1.990 . S
Li354 O412 1.961 . S
Li354 O414 1.956 . S
Li354 O415 1.970 . S
Li355 N405 1.990 . S
Li355 O413 1.961 . S
Li355 O414 1.970 . S
Li355 O415 1.956 . S
C356 C358 1.348 . S
C356 C359 1.356 . S
C356 O412 1.325 . S
N357 C360 1.314 . S
N357 C361 1.279 . S
C358 C356 1.348 . S
C358 C360 1.353 . S
C358 H416 0.929 . S
C359 C356 1.356 . S
C359 C361 1.358 . S
C359 H417 0.930 . S
C360 N357 1.314 . S
C360 C358 1.353 . S
C360 H418 0.930 . S
C361 N357 1.279 . S
C361 C359 1.358 . S
C361 H419 0.930 . S
C362 C365 1.348 . S
C362 C366 1.356 . S
C362 O413 1.325 . S
C363 N364 1.279 . S
C363 C366 1.358 . S
C363 H420 0.930 . S
N364 C363 1.279 . S
N364 C367 1.314 . S
C365 C362 1.348 . S
C365 C367 1.353 . S
C365 H421 0.929 . S
C366 C362 1.356 . S
C366 C363 1.358 . S
C366 H422 0.930 . S
C367 N364 1.314 . S
C367 C365 1.353 . S
C367 H423 0.930 . S
C368 N369 1.314 . S
C368 C373 1.353 . S
C368 H374 0.930 . S
N369 Li352 1.990 . S
N369 C368 1.314 . S
N369 C371 1.279 . S
C370 C371 1.358 . S
C370 C372 1.356 . S
C370 H424 0.930 . S
C371 N369 1.279 . S
C371 C370 1.358 . S
C371 H375 0.930 . S
C372 C370 1.356 . S
C372 C373 1.348 . S
C373 C368 1.353 . S
C373 C372 1.348 . S
C373 H425 0.929 . S
H374 C368 0.930 . S
H375 C371 0.930 . S
C376 N377 1.314 . S
C376 C378 1.353 . S
C376 H382 0.930 . S
N377 Li353 1.990 . S
N377 C376 1.314 . S
N377 C380 1.279 . S
C378 C376 1.353 . S
C378 C381 1.348 . S
C378 H426 0.929 . S
C379 C380 1.358 . S
C379 C381 1.356 . S
C379 H427 0.930 . S
C380 N377 1.279 . S
C380 C379 1.358 . S
C380 H383 0.930 . S
C381 C378 1.348 . S
C381 C379 1.356 . S
H382 C376 0.930 . S
H383 C380 0.930 . S
C384 C386 1.348 . S
C384 C387 1.356 . S
C384 O414 1.325 . S
N385 C388 1.314 . S
N385 C389 1.279 . S
C386 C384 1.348 . S
C386 C388 1.353 . S
C386 H428 0.929 . S
C387 C384 1.356 . S
C387 C389 1.358 . S
C387 H429 0.930 . S
C388 N385 1.314 . S
C388 C386 1.353 . S
C388 H430 0.930 . S
C389 N385 1.279 . S
C389 C387 1.358 . S
C389 H431 0.930 . S
C390 C391 1.348 . S
C390 C392 1.356 . S
C390 O415 1.325 . S
C391 C390 1.348 . S
C391 C393 1.353 . S
C391 H432 0.929 . S
C392 C390 1.356 . S
C392 C394 1.358 . S
C392 H433 0.930 . S
C393 C391 1.353 . S
C393 N395 1.314 . S
C393 H434 0.930 . S
C394 C392 1.358 . S
C394 N395 1.279 . S
C394 H435 0.930 . S
N395 C393 1.314 . S
N395 C394 1.279 . S
C396 C398 1.353 . S
C396 N399 1.314 . S
C396 H402 0.930 . S
C397 N399 1.279 . S
C397 C400 1.358 . S
C397 H403 0.930 . S
C398 C396 1.353 . S
C398 C401 1.348 . S
C398 H436 0.929 . S
N399 Li354 1.990 . S
N399 C396 1.314 . S
N399 C397 1.279 . S
C400 C397 1.358 . S
C400 C401 1.356 . S
C400 H437 0.930 . S
C401 C398 1.348 . S
C401 C400 1.356 . S
H402 C396 0.930 . S
H403 C397 0.930 . S
C404 N405 1.314 . S
C404 C406 1.353 . S
C404 H410 0.930 . S
N405 Li355 1.990 . S
N405 C404 1.314 . S
N405 C408 1.279 . S
C406 C404 1.353 . S
C406 C409 1.348 . S
C406 H438 0.929 . S
C407 C408 1.358 . S
C407 C409 1.356 . S
C407 H439 0.930 . S
C408 N405 1.279 . S
C408 C407 1.358 . S
C408 H411 0.930 . S
C409 C406 1.348 . S
C409 C407 1.356 . S
H410 C404 0.930 . S
H411 C408 0.930 . S
O412 Li352 1.956 . S
O412 Li353 1.970 . S
O412 Li354 1.961 . S
O412 C356 1.325 . S
O413 Li352 1.970 . S
O413 Li353 1.956 . S
O413 Li355 1.961 . S
O413 C362 1.325 . S
O414 Li352 1.961 . S
O414 Li354 1.956 . S
O414 Li355 1.970 . S
O414 C384 1.325 . S
O415 Li353 1.961 . S
O415 Li354 1.970 . S
O415 Li355 1.956 . S
O415 C390 1.325 . S
H416 C358 0.929 . S
H417 C359 0.930 . S
H418 C360 0.930 . S
H419 C361 0.930 . S
H420 C363 0.930 . S
H421 C365 0.929 . S
H422 C366 0.930 . S
H423 C367 0.930 . S
H424 C370 0.930 . S
H425 C373 0.929 . S
H426 C378 0.929 . S
H427 C379 0.930 . S
H428 C386 0.929 . S
H429 C387 0.930 . S
H430 C388 0.930 . S
H431 C389 0.930 . S
H432 C391 0.929 . S
H433 C392 0.930 . S
H434 C393 0.930 . S
H435 C394 0.930 . S
H436 C398 0.929 . S
H437 C400 0.930 . S
H438 C406 0.929 . S
H439 C407 0.930 . S
Li440 N457 1.990 . S
Li440 O500 1.956 . S
Li440 O501 1.970 . S
Li440 O502 1.961 . S
Li441 N465 1.990 . S
Li441 O500 1.970 . S
Li441 O501 1.956 . S
Li441 O503 1.961 . S
Li442 N487 1.990 . S
Li442 O500 1.961 . S
Li442 O502 1.956 . S
Li442 O503 1.970 . S
Li443 N493 1.990 . S
Li443 O501 1.961 . S
Li443 O502 1.970 . S
Li443 O503 1.956 . S
C444 C446 1.348 . S
C444 C447 1.356 . S
C444 O500 1.325 . S
N445 C448 1.314 . S
N445 C449 1.279 . S
C446 C444 1.348 . S
C446 C448 1.353 . S
C446 H504 0.929 . S
C447 C444 1.356 . S
C447 C449 1.358 . S
C447 H505 0.930 . S
C448 N445 1.314 . S
C448 C446 1.353 . S
C448 H506 0.930 . S
C449 N445 1.279 . S
C449 C447 1.358 . S
C449 H507 0.930 . S
C450 C453 1.348 . S
C450 C454 1.356 . S
C450 O501 1.325 . S
C451 N452 1.278 . S
C451 C454 1.358 . S
C451 H508 0.930 . S
N452 C451 1.278 . S
N452 C455 1.314 . S
C453 C450 1.348 . S
C453 C455 1.353 . S
C453 H509 0.929 . S
C454 C450 1.356 . S
C454 C451 1.358 . S
C454 H510 0.930 . S
C455 N452 1.314 . S
C455 C453 1.353 . S
C455 H511 0.930 1_455 S
C456 N457 1.248 1_655 S
C456 C461 1.404 . S
C456 H462 0.950 . S
N457 Li440 1.990 . S
N457 C456 1.248 1_455 S
N457 C459 1.279 . S
C458 C459 1.358 . S
C458 C460 1.356 1_455 S
C458 H512 0.930 . S
C459 N457 1.279 . S
C459 C458 1.358 . S
C459 H463 0.930 . S
C460 C458 1.356 1_655 S
C460 C461 1.348 . S
C461 C456 1.404 . S
C461 C460 1.348 . S
C461 H513 0.929 . S
H462 C456 0.950 . S
H463 C459 0.930 . S
C464 N465 1.314 . S
C464 C466 1.353 . S
C464 H470 0.930 . S
N465 Li441 1.990 . S
N465 C464 1.314 . S
N465 C468 1.279 . S
C466 C464 1.353 . S
C466 C469 1.348 . S
C466 H514 0.929 . S
C467 C468 1.358 . S
C467 C469 1.356 . S
C467 H515 0.930 . S
C468 N465 1.279 . S
C468 C467 1.358 . S
C468 H471 0.930 . S
C469 C466 1.348 . S
C469 C467 1.356 . S
H470 C464 0.930 . S
H471 C468 0.930 . S
C472 C474 1.348 . S
C472 C475 1.356 . S
C472 O502 1.325 . S
N473 C476 1.314 . S
N473 C477 1.279 . S
C474 C472 1.348 . S
C474 C476 1.353 . S
C474 H516 0.929 . S
C475 C472 1.356 . S
C475 C477 1.358 . S
C475 H517 0.930 . S
C476 N473 1.314 . S
C476 C474 1.353 . S
C476 H518 0.930 . S
C477 N473 1.279 . S
C477 C475 1.358 . S
C477 H519 0.930 . S
C478 C479 1.348 . S
C478 C480 1.356 . S
C478 O503 1.325 . S
C479 C478 1.348 . S
C479 C481 1.353 . S
C479 H520 0.929 . S
C480 C478 1.356 . S
C480 C482 1.358 . S
C480 H521 0.930 . S
C481 C479 1.353 . S
C481 N483 1.314 . S
C481 H522 0.930 . S
C482 C480 1.358 . S
C482 N483 1.279 . S
C482 H523 0.930 . S
N483 C481 1.314 . S
N483 C482 1.279 . S
C484 C486 1.353 . S
C484 N487 1.314 . S
C484 H490 0.930 . S
C485 N487 1.279 . S
C485 C488 1.358 . S
C485 H491 0.930 . S
C486 C484 1.353 . S
C486 C489 1.348 . S
C486 H524 0.929 . S
N487 Li442 1.990 . S
N487 C484 1.314 . S
N487 C485 1.279 . S
C488 C485 1.358 . S
C488 C489 1.356 . S
C488 H525 0.930 . S
C489 C486 1.348 . S
C489 C488 1.356 . S
H490 C484 0.930 . S
H491 C485 0.930 . S
C492 N493 1.314 . S
C492 C494 1.353 1_455 S
C492 H498 0.930 . S
N493 Li443 1.990 . S
N493 C492 1.314 . S
N493 C496 1.279 . S
C494 C492 1.353 1_655 S
C494 C497 1.348 1_655 S
C494 H526 0.929 . S
C495 C496 1.358 . S
C495 C497 1.356 . S
C495 H527 0.930 . S
C496 N493 1.279 . S
C496 C495 1.358 . S
C496 H499 0.930 . S
C497 C494 1.348 1_455 S
C497 C495 1.356 . S
H498 C492 0.930 . S
H499 C496 0.930 . S
O500 Li440 1.956 . S
O500 Li441 1.970 . S
O500 Li442 1.961 . S
O500 C444 1.325 . S
O501 Li440 1.970 . S
O501 Li441 1.956 . S
O501 Li443 1.961 . S
O501 C450 1.325 . S
O502 Li440 1.961 . S
O502 Li442 1.956 . S
O502 Li443 1.970 . S
O502 C472 1.325 . S
O503 Li441 1.961 . S
O503 Li442 1.970 . S
O503 Li443 1.956 . S
O503 C478 1.325 . S
H504 C446 0.929 . S
H505 C447 0.930 . S
H506 C448 0.930 . S
H507 C449 0.930 . S
H508 C451 0.930 . S
H509 C453 0.929 . S
H510 C454 0.930 . S
H511 C455 0.930 1_655 S
H512 C458 0.930 . S
H513 C461 0.929 . S
H514 C466 0.929 . S
H515 C467 0.930 . S
H516 C474 0.929 . S
H517 C475 0.930 . S
H518 C476 0.930 . S
H519 C477 0.930 . S
H520 C479 0.929 . S
H521 C480 0.930 . S
H522 C481 0.930 . S
H523 C482 0.930 . S
H524 C486 0.929 . S
H525 C488 0.930 . S
H526 C494 0.929 . S
H527 C495 0.930 . S
Li528 N545 1.990 . S
Li528 O588 1.956 . S
Li528 O589 1.970 . S
Li528 O590 1.961 . S
Li529 N553 1.990 . S
Li529 O588 1.970 . S
Li529 O589 1.956 . S
Li529 O591 1.961 . S
Li530 N575 1.990 . S
Li530 O588 1.961 . S
Li530 O590 1.956 . S
Li530 O591 1.970 . S
Li531 N581 1.990 . S
Li531 O589 1.961 . S
Li531 O590 1.970 . S
Li531 O591 1.956 . S
C532 C534 1.348 . S
C532 C535 1.356 . S
C532 O588 1.325 . S
N533 C536 1.314 . S
N533 C537 1.279 . S
C534 C532 1.348 . S
C534 C536 1.353 . S
C534 H592 0.929 . S
C535 C532 1.356 . S
C535 C537 1.358 . S
C535 H593 0.930 . S
C536 N533 1.314 . S
C536 C534 1.353 . S
C536 H594 0.930 . S
C537 N533 1.279 . S
C537 C535 1.358 . S
C537 H595 0.930 . S
C538 C541 1.348 . S
C538 C542 1.356 . S
C538 O589 1.325 . S
C539 N540 1.279 . S
C539 C542 1.358 . S
C539 H596 0.930 . S
N540 C539 1.279 . S
N540 C543 1.314 . S
C541 C538 1.348 . S
C541 C543 1.353 . S
C541 H597 0.929 . S
C542 C538 1.356 . S
C542 C539 1.358 . S
C542 H598 0.930 . S
C543 N540 1.314 . S
C543 C541 1.353 . S
C543 H599 0.930 . S
C544 N545 1.314 . S
C544 C549 1.353 . S
C544 H550 0.930 . S
N545 Li528 1.990 . S
N545 C544 1.314 . S
N545 C547 1.279 . S
C546 C547 1.358 . S
C546 C548 1.356 . S
C546 H600 0.930 . S
C547 N545 1.279 . S
C547 C546 1.358 . S
C547 H551 0.930 . S
C548 C546 1.356 . S
C548 C549 1.348 . S
C549 C544 1.353 . S
C549 C548 1.348 . S
C549 H601 0.929 . S
H550 C544 0.930 . S
H551 C547 0.930 . S
C552 N553 1.314 . S
C552 C554 1.353 . S
C552 H558 0.930 . S
N553 Li529 1.990 . S
N553 C552 1.314 . S
N553 C556 1.279 . S
C554 C552 1.353 . S
C554 C557 1.348 . S
C554 H602 0.929 . S
C555 C556 1.358 . S
C555 C557 1.356 . S
C555 H603 0.930 . S
C556 N553 1.279 . S
C556 C555 1.358 . S
C556 H559 0.930 . S
C557 C554 1.348 . S
C557 C555 1.356 . S
H558 C552 0.930 . S
H559 C556 0.930 . S
C560 C562 1.348 . S
C560 C563 1.356 . S
C560 O590 1.325 . S
N561 C564 1.314 . S
N561 C565 1.279 . S
C562 C560 1.348 . S
C562 C564 1.353 . S
C562 H604 0.929 . S
C563 C560 1.356 . S
C563 C565 1.358 . S
C563 H605 0.930 . S
C564 N561 1.314 . S
C564 C562 1.353 . S
C564 H606 0.930 . S
C565 N561 1.279 . S
C565 C563 1.358 . S
C565 H607 0.930 . S
C566 C567 1.348 . S
C566 C568 1.356 . S
C566 O591 1.325 . S
C567 C566 1.348 . S
C567 C569 1.353 . S
C567 H608 0.929 . S
C568 C566 1.356 . S
C568 C570 1.358 . S
C568 H609 0.930 . S
C569 C567 1.353 . S
C569 N571 1.314 . S
C569 H610 0.930 . S
C570 C568 1.358 . S
C570 N571 1.279 . S
C570 H611 0.930 . S
N571 C569 1.314 . S
N571 C570 1.279 . S
C572 C574 1.353 . S
C572 N575 1.314 . S
C572 H578 0.930 . S
C573 N575 1.279 . S
C573 C576 1.358 . S
C573 H579 0.930 . S
C574 C572 1.353 . S
C574 C577 1.348 . S
C574 H612 0.929 . S
N575 Li530 1.990 . S
N575 C572 1.314 . S
N575 C573 1.279 . S
C576 C573 1.358 . S
C576 C577 1.356 . S
C576 H613 0.930 . S
C577 C574 1.348 . S
C577 C576 1.356 . S
H578 C572 0.930 . S
H579 C573 0.930 . S
C580 N581 1.314 . S
C580 C582 1.353 . S
C580 H586 0.930 . S
N581 Li531 1.990 . S
N581 C580 1.314 . S
N581 C584 1.279 . S
C582 C580 1.353 . S
C582 C585 1.348 . S
C582 H614 0.929 . S
C583 C584 1.358 . S
C583 C585 1.356 . S
C583 H615 0.930 . S
C584 N581 1.279 . S
C584 C583 1.358 . S
C584 H587 0.930 . S
C585 C582 1.348 . S
C585 C583 1.356 . S
H586 C580 0.930 . S
H587 C584 0.930 . S
O588 Li528 1.956 . S
O588 Li529 1.970 . S
O588 Li530 1.961 . S
O588 C532 1.325 . S
O589 Li528 1.970 . S
O589 Li529 1.956 . S
O589 Li531 1.961 . S
O589 C538 1.325 . S
O590 Li528 1.961 . S
O590 Li530 1.956 . S
O590 Li531 1.970 . S
O590 C560 1.325 . S
O591 Li529 1.961 . S
O591 Li530 1.970 . S
O591 Li531 1.956 . S
O591 C566 1.325 . S
H592 C534 0.929 . S
H593 C535 0.930 . S
H594 C536 0.930 . S
H595 C537 0.930 . S
H596 C539 0.930 . S
H597 C541 0.929 . S
H598 C542 0.930 . S
H599 C543 0.930 . S
H600 C546 0.930 . S
H601 C549 0.929 . S
H602 C554 0.929 . S
H603 C555 0.930 . S
H604 C562 0.929 . S
H605 C563 0.930 . S
H606 C564 0.930 . S
H607 C565 0.930 . S
H608 C567 0.929 . S
H609 C568 0.930 . S
H610 C569 0.930 . S
H611 C570 0.930 . S
H612 C574 0.929 . S
H613 C576 0.930 . S
H614 C582 0.929 . S
H615 C583 0.930 . S
Li616 N633 1.990 . S
Li616 O676 1.956 . S
Li616 O677 1.970 . S
Li616 O678 1.961 . S
Li617 N641 1.990 . S
Li617 O676 1.970 . S
Li617 O677 1.956 . S
Li617 O679 1.961 . S
Li618 N663 1.990 . S
Li618 O676 1.961 . S
Li618 O678 1.956 . S
Li618 O679 1.970 . S
Li619 N669 1.990 . S
Li619 O677 1.961 . S
Li619 O678 1.970 . S
Li619 O679 1.956 . S
C620 C622 1.348 . S
C620 C623 1.356 . S
C620 O676 1.325 . S
N621 C624 1.314 . S
N621 C625 1.279 . S
C622 C620 1.348 . S
C622 C624 1.353 . S
C622 H680 0.929 . S
C623 C620 1.356 . S
C623 C625 1.358 . S
C623 H681 0.930 . S
C624 N621 1.314 . S
C624 C622 1.353 . S
C624 H682 0.930 . S
C625 N621 1.279 . S
C625 C623 1.358 . S
C625 H683 0.930 . S
C626 C629 1.348 . S
C626 C630 1.356 . S
C626 O677 1.325 . S
C627 N628 1.279 . S
C627 C630 1.358 . S
C627 H684 0.930 . S
N628 C627 1.279 . S
N628 C631 1.314 . S
C629 C626 1.348 . S
C629 C631 1.353 . S
C629 H685 0.929 . S
C630 C626 1.356 . S
C630 C627 1.358 . S
C630 H686 0.930 . S
C631 N628 1.314 . S
C631 C629 1.353 . S
C631 H687 0.930 . S
C632 N633 1.314 . S
C632 C637 1.353 . S
C632 H638 0.930 . S
N633 Li616 1.990 . S
N633 C632 1.314 . S
N633 C635 1.279 . S
C634 C635 1.358 . S
C634 C636 1.356 . S
C634 H688 0.930 . S
C635 N633 1.279 . S
C635 C634 1.358 . S
C635 H639 0.930 . S
C636 C634 1.356 . S
C636 C637 1.348 . S
C637 C632 1.353 . S
C637 C636 1.348 . S
C637 H689 0.929 . S
H638 C632 0.930 . S
H639 C635 0.930 . S
C640 N641 1.314 . S
C640 C642 1.353 . S
C640 H646 0.930 . S
N641 Li617 1.990 . S
N641 C640 1.314 . S
N641 C644 1.279 . S
C642 C640 1.353 . S
C642 C645 1.348 . S
C642 H690 0.929 . S
C643 C644 1.358 . S
C643 C645 1.356 . S
C643 H691 0.930 . S
C644 N641 1.279 . S
C644 C643 1.358 . S
C644 H647 0.930 . S
C645 C642 1.348 . S
C645 C643 1.356 . S
H646 C640 0.930 . S
H647 C644 0.930 . S
C648 C650 1.348 . S
C648 C651 1.356 . S
C648 O678 1.325 . S
N649 C652 1.314 . S
N649 C653 1.279 . S
C650 C648 1.348 . S
C650 C652 1.353 . S
C650 H692 0.929 . S
C651 C648 1.356 . S
C651 C653 1.358 . S
C651 H693 0.930 . S
C652 N649 1.314 . S
C652 C650 1.353 . S
C652 H694 0.930 . S
C653 N649 1.279 . S
C653 C651 1.358 . S
C653 H695 0.930 . S
C654 C655 1.348 . S
C654 C656 1.356 . S
C654 O679 1.325 . S
C655 C654 1.348 . S
C655 C657 1.353 . S
C655 H696 0.929 . S
C656 C654 1.356 . S
C656 C658 1.358 . S
C656 H697 0.930 . S
C657 C655 1.353 . S
C657 N659 1.314 . S
C657 H698 0.930 . S
C658 C656 1.358 . S
C658 N659 1.279 . S
C658 H699 0.930 . S
N659 C657 1.314 . S
N659 C658 1.279 . S
C660 C662 1.353 . S
C660 N663 1.314 . S
C660 H666 0.930 . S
C661 N663 1.279 . S
C661 C664 1.358 . S
C661 H667 0.930 . S
C662 C660 1.353 . S
C662 C665 1.348 . S
C662 H700 0.929 . S
N663 Li618 1.990 . S
N663 C660 1.314 . S
N663 C661 1.279 . S
C664 C661 1.358 . S
C664 C665 1.356 . S
C664 H701 0.930 . S
C665 C662 1.348 . S
C665 C664 1.356 . S
H666 C660 0.930 . S
H667 C661 0.930 . S
C668 N669 1.314 . S
C668 C670 1.353 . S
C668 H674 0.930 . S
N669 Li619 1.990 . S
N669 C668 1.314 . S
N669 C672 1.279 . S
C670 C668 1.353 . S
C670 C673 1.348 . S
C670 H702 0.929 . S
C671 C672 1.358 . S
C671 C673 1.356 . S
C671 H703 0.930 . S
C672 N669 1.279 . S
C672 C671 1.358 . S
C672 H675 0.930 . S
C673 C670 1.348 . S
C673 C671 1.356 . S
H674 C668 0.930 . S
H675 C672 0.930 . S
O676 Li616 1.956 . S
O676 Li617 1.970 . S
O676 Li618 1.961 . S
O676 C620 1.325 . S
O677 Li616 1.970 . S
O677 Li617 1.956 . S
O677 Li619 1.961 . S
O677 C626 1.325 . S
O678 Li616 1.961 . S
O678 Li618 1.956 . S
O678 Li619 1.970 . S
O678 C648 1.325 . S
O679 Li617 1.961 . S
O679 Li618 1.970 . S
O679 Li619 1.956 . S
O679 C654 1.325 . S
H680 C622 0.929 . S
H681 C623 0.930 . S
H682 C624 0.930 . S
H683 C625 0.930 . S
H684 C627 0.930 . S
H685 C629 0.929 . S
H686 C630 0.930 . S
H687 C631 0.930 . S
H688 C634 0.930 . S
H689 C637 0.929 . S
H690 C642 0.929 . S
H691 C643 0.930 . S
H692 C650 0.929 . S
H693 C651 0.930 . S
H694 C652 0.930 . S
H695 C653 0.930 . S
H696 C655 0.929 . S
H697 C656 0.930 . S
H698 C657 0.930 . S
H699 C658 0.930 . S
H700 C662 0.929 . S
H701 C664 0.930 . S
H702 C670 0.929 . S
H703 C671 0.930 . S
Li704 N721 1.990 . S
Li704 O764 1.956 . S
Li704 O765 1.970 . S
Li704 O766 1.961 . S
Li705 N729 1.990 . S
Li705 O764 1.970 . S
Li705 O765 1.956 . S
Li705 O767 1.961 . S
Li706 N751 1.990 . S
Li706 O764 1.961 . S
Li706 O766 1.956 . S
Li706 O767 1.970 . S
Li707 N757 1.990 . S
Li707 O765 1.961 . S
Li707 O766 1.970 . S
Li707 O767 1.956 . S
C708 C710 1.348 . S
C708 C711 1.356 . S
C708 O764 1.325 . S
N709 C712 1.314 . S
N709 C713 1.279 . S
C710 C708 1.348 . S
C710 C712 1.353 . S
C710 H768 0.929 . S
C711 C708 1.356 . S
C711 C713 1.358 . S
C711 H769 0.930 . S
C712 N709 1.314 . S
C712 C710 1.353 . S
C712 H770 0.930 . S
C713 N709 1.279 . S
C713 C711 1.358 . S
C713 H771 0.930 . S
C714 C717 1.348 . S
C714 C718 1.356 . S
C714 O765 1.325 . S
C715 N716 1.279 . S
C715 C718 1.358 . S
C715 H772 0.930 . S
N716 C715 1.279 . S
N716 C719 1.314 . S
C717 C714 1.348 . S
C717 C719 1.353 . S
C717 H773 0.929 . S
C718 C714 1.356 . S
C718 C715 1.358 . S
C718 H774 0.930 . S
C719 N716 1.314 . S
C719 C717 1.353 . S
C719 H775 0.930 . S
C720 N721 1.314 . S
C720 C725 1.353 . S
C720 H726 0.930 . S
N721 Li704 1.990 . S
N721 C720 1.314 . S
N721 C723 1.279 . S
C722 C723 1.358 . S
C722 C724 1.356 . S
C722 H776 0.930 . S
C723 N721 1.279 . S
C723 C722 1.358 . S
C723 H727 0.930 . S
C724 C722 1.356 . S
C724 C725 1.348 . S
C725 C720 1.353 . S
C725 C724 1.348 . S
C725 H777 0.929 . S
H726 C720 0.930 . S
H727 C723 0.930 . S
C728 N729 1.314 . S
C728 C730 1.353 . S
C728 H734 0.930 . S
N729 Li705 1.990 . S
N729 C728 1.314 . S
N729 C732 1.279 . S
C730 C728 1.353 . S
C730 C733 1.348 . S
C730 H778 0.929 . S
C731 C732 1.358 . S
C731 C733 1.356 . S
C731 H779 0.930 . S
C732 N729 1.279 . S
C732 C731 1.358 . S
C732 H735 0.930 . S
C733 C730 1.348 . S
C733 C731 1.356 . S
H734 C728 0.930 . S
H735 C732 0.930 . S
C736 C738 1.348 . S
C736 C739 1.356 . S
C736 O766 1.325 . S
N737 C740 1.314 . S
N737 C741 1.279 . S
C738 C736 1.348 . S
C738 C740 1.353 . S
C738 H780 0.929 . S
C739 C736 1.356 . S
C739 C741 1.358 . S
C739 H781 0.930 . S
C740 N737 1.314 . S
C740 C738 1.353 . S
C740 H782 0.930 . S
C741 N737 1.279 . S
C741 C739 1.358 . S
C741 H783 0.930 . S
C742 C743 1.348 . S
C742 C744 1.356 . S
C742 O767 1.325 . S
C743 C742 1.348 . S
C743 C745 1.353 . S
C743 H784 0.929 . S
C744 C742 1.356 . S
C744 C746 1.358 . S
C744 H785 0.930 . S
C745 C743 1.353 . S
C745 N747 1.314 . S
C745 H786 0.930 . S
C746 C744 1.358 . S
C746 N747 1.279 . S
C746 H787 0.930 . S
N747 C745 1.314 . S
N747 C746 1.279 . S
C748 C750 1.353 . S
C748 N751 1.314 . S
C748 H754 0.930 . S
C749 N751 1.279 . S
C749 C752 1.358 . S
C749 H755 0.930 . S
C750 C748 1.353 . S
C750 C753 1.348 . S
C750 H788 0.929 . S
N751 Li706 1.990 . S
N751 C748 1.314 . S
N751 C749 1.279 . S
C752 C749 1.358 . S
C752 C753 1.356 . S
C752 H789 0.930 . S
C753 C750 1.348 . S
C753 C752 1.356 . S
H754 C748 0.930 . S
H755 C749 0.930 . S
C756 N757 1.314 . S
C756 C758 1.353 . S
C756 H762 0.930 . S
N757 Li707 1.990 . S
N757 C756 1.314 . S
N757 C760 1.279 . S
C758 C756 1.353 . S
C758 C761 1.348 . S
C758 H790 0.929 . S
C759 C760 1.358 . S
C759 C761 1.356 . S
C759 H791 0.930 . S
C760 N757 1.279 . S
C760 C759 1.358 . S
C760 H763 0.930 . S
C761 C758 1.348 . S
C761 C759 1.356 . S
H762 C756 0.930 . S
H763 C760 0.930 . S
O764 Li704 1.956 . S
O764 Li705 1.970 . S
O764 Li706 1.961 . S
O764 C708 1.325 . S
O765 Li704 1.970 . S
O765 Li705 1.956 . S
O765 Li707 1.961 . S
O765 C714 1.325 . S
O766 Li704 1.961 . S
O766 Li706 1.956 . S
O766 Li707 1.970 . S
O766 C736 1.325 . S
O767 Li705 1.961 . S
O767 Li706 1.970 . S
O767 Li707 1.956 . S
O767 C742 1.325 . S
H768 C710 0.929 . S
H769 C711 0.930 . S
H770 C712 0.930 . S
H771 C713 0.930 . S
H772 C715 0.930 . S
H773 C717 0.929 . S
H774 C718 0.930 . S
H775 C719 0.930 . S
H776 C722 0.930 . S
H777 C725 0.929 . S
H778 C730 0.929 . S
H779 C731 0.930 . S
H780 C738 0.929 . S
H781 C739 0.930 . S
H782 C740 0.930 . S
H783 C741 0.930 . S
H784 C743 0.929 . S
H785 C744 0.930 . S
H786 C745 0.930 . S
H787 C746 0.930 . S
H788 C750 0.929 . S
H789 C752 0.930 . S
H790 C758 0.929 . S
H791 C759 0.930 . S
Li792 N809 1.990 . S
Li792 O852 1.956 . S
Li792 O853 1.970 . S
Li792 O854 1.961 . S
Li793 N817 1.990 . S
Li793 O852 1.970 . S
Li793 O853 1.956 . S
Li793 O855 1.961 . S
Li794 N839 1.990 . S
Li794 O852 1.961 . S
Li794 O854 1.956 . S
Li794 O855 1.970 . S
Li795 N845 1.990 . S
Li795 O853 1.961 . S
Li795 O854 1.970 . S
Li795 O855 1.956 . S
C796 C798 1.348 . S
C796 C799 1.356 . S
C796 O852 1.325 . S
N797 C800 1.314 . S
N797 C801 1.279 1_655 S
C798 C796 1.348 . S
C798 C800 1.353 1_455 S
C798 H856 0.929 . S
C799 C796 1.356 . S
C799 C801 1.358 . S
C799 H857 0.930 . S
C800 N797 1.314 . S
C800 C798 1.353 1_655 S
C800 H858 0.930 . S
C801 N797 1.279 1_455 S
C801 C799 1.358 . S
C801 H859 0.930 . S
C802 C805 1.348 . S
C802 C806 1.356 . S
C802 O853 1.325 . S
C803 N804 1.279 . S
C803 C806 1.358 . S
C803 H860 0.930 . S
N804 C803 1.279 . S
N804 C807 1.314 . S
C805 C802 1.348 . S
C805 C807 1.353 . S
C805 H861 0.929 . S
C806 C802 1.356 . S
C806 C803 1.358 . S
C806 H862 0.930 . S
C807 N804 1.314 . S
C807 C805 1.353 . S
C807 H863 0.930 . S
C808 N809 1.314 . S
C808 C813 1.353 . S
C808 H814 0.930 . S
N809 Li792 1.990 . S
N809 C808 1.314 . S
N809 C811 1.279 . S
C810 C811 1.358 . S
C810 C812 1.356 . S
C810 H864 0.930 . S
C811 N809 1.279 . S
C811 C810 1.358 . S
C811 H815 0.930 . S
C812 C810 1.356 . S
C812 C813 1.348 . S
C813 C808 1.353 . S
C813 C812 1.348 . S
C813 H865 0.929 . S
H814 C808 0.930 . S
H815 C811 0.930 . S
C816 N817 1.314 . S
C816 C818 1.353 . S
C816 H822 0.930 . S
N817 Li793 1.990 . S
N817 C816 1.314 . S
N817 C820 1.279 . S
C818 C816 1.353 . S
C818 C821 1.348 1_455 S
C818 H866 0.929 . S
C819 C820 1.318 1_655 S
C819 C821 1.369 . S
C819 H867 0.960 . S
C820 N817 1.279 . S
C820 C819 1.318 1_455 S
C820 H823 0.930 . S
C821 C818 1.348 1_655 S
C821 C819 1.369 . S
H822 C816 0.930 . S
H823 C820 0.930 . S
C824 C826 1.348 . S
C824 C827 1.356 . S
C824 O854 1.325 . S
N825 C828 1.314 . S
N825 C829 1.279 . S
C826 C824 1.348 . S
C826 C828 1.353 . S
C826 H868 0.929 . S
C827 C824 1.356 . S
C827 C829 1.358 . S
C827 H869 0.930 . S
C828 N825 1.314 . S
C828 C826 1.353 . S
C828 H870 0.930 . S
C829 N825 1.279 . S
C829 C827 1.358 . S
C829 H871 0.930 . S
C830 C831 1.348 . S
C830 C832 1.356 . S
C830 O855 1.325 . S
C831 C830 1.348 . S
C831 C833 1.353 . S
C831 H872 0.929 . S
C832 C830 1.356 . S
C832 C834 1.358 . S
C832 H873 0.930 . S
C833 C831 1.353 . S
C833 N835 1.314 . S
C833 H874 0.930 . S
C834 C832 1.358 . S
C834 N835 1.279 . S
C834 H875 0.930 . S
N835 C833 1.314 . S
N835 C834 1.279 . S
C836 C838 1.353 . S
C836 N839 1.314 . S
C836 H842 0.930 . S
C837 N839 1.279 . S
C837 C840 1.358 . S
C837 H843 0.930 . S
C838 C836 1.353 . S
C838 C841 1.348 . S
C838 H876 0.929 . S
N839 Li794 1.990 . S
N839 C836 1.314 . S
N839 C837 1.279 . S
C840 C837 1.358 . S
C840 C841 1.356 . S
C840 H877 0.930 . S
C841 C838 1.348 . S
C841 C840 1.356 . S
H842 C836 0.930 . S
H843 C837 0.930 . S
C844 N845 1.314 . S
C844 C846 1.353 . S
C844 H850 0.930 . S
N845 Li795 1.990 . S
N845 C844 1.314 . S
N845 C848 1.279 . S
C846 C844 1.353 . S
C846 C849 1.348 . S
C846 H878 0.929 . S
C847 C848 1.358 . S
C847 C849 1.356 . S
C847 H879 0.930 . S
C848 N845 1.279 . S
C848 C847 1.358 . S
C848 H851 0.930 . S
C849 C846 1.348 . S
C849 C847 1.356 . S
H850 C844 0.930 . S
H851 C848 0.930 . S
O852 Li792 1.956 . S
O852 Li793 1.970 . S
O852 Li794 1.961 . S
O852 C796 1.325 . S
O853 Li792 1.970 . S
O853 Li793 1.956 . S
O853 Li795 1.961 . S
O853 C802 1.325 . S
O854 Li792 1.961 . S
O854 Li794 1.956 . S
O854 Li795 1.970 . S
O854 C824 1.325 . S
O855 Li793 1.961 . S
O855 Li794 1.970 . S
O855 Li795 1.956 . S
O855 C830 1.325 . S
H856 C798 0.929 . S
H857 C799 0.930 . S
H858 C800 0.930 . S
H859 C801 0.930 . S
H860 C803 0.930 . S
H861 C805 0.929 . S
H862 C806 0.930 . S
H863 C807 0.930 . S
H864 C810 0.930 . S
H865 C813 0.929 . S
H866 C818 0.929 . S
H867 C819 0.960 . S
H868 C826 0.929 . S
H869 C827 0.930 . S
H870 C828 0.930 . S
H871 C829 0.930 . S
H872 C831 0.929 . S
H873 C832 0.930 . S
H874 C833 0.930 . S
H875 C834 0.930 . S
H876 C838 0.929 . S
H877 C840 0.930 . S
H878 C846 0.929 . S
H879 C847 0.930 . S
Li880 N897 1.990 . S
Li880 O940 1.956 . S
Li880 O941 1.970 . S
Li880 O942 1.961 . S
Li881 N905 1.990 . S
Li881 O940 1.970 . S
Li881 O941 1.956 . S
Li881 O943 1.961 . S
Li882 N927 1.990 . S
Li882 O940 1.961 . S
Li882 O942 1.956 . S
Li882 O943 1.970 . S
Li883 N933 1.990 . S
Li883 O941 1.961 . S
Li883 O942 1.970 . S
Li883 O943 1.956 . S
C884 C886 1.348 . S
C884 C887 1.356 . S
C884 O940 1.325 . S
N885 C888 1.314 . S
N885 C889 1.279 . S
C886 C884 1.348 . S
C886 C888 1.353 . S
C886 H944 0.929 . S
C887 C884 1.356 . S
C887 C889 1.358 . S
C887 H945 0.930 . S
C888 N885 1.314 . S
C888 C886 1.353 . S
C888 H946 0.930 . S
C889 N885 1.279 . S
C889 C887 1.358 . S
C889 H947 0.930 . S
C890 C893 1.348 . S
C890 C894 1.356 . S
C890 O941 1.325 . S
C891 N892 1.279 . S
C891 C894 1.358 . S
C891 H948 0.930 . S
N892 C891 1.279 . S
N892 C895 1.314 . S
C893 C890 1.348 . S
C893 C895 1.353 . S
C893 H949 0.929 . S
C894 C890 1.356 . S
C894 C891 1.358 . S
C894 H950 0.930 . S
C895 N892 1.314 . S
C895 C893 1.353 . S
C895 H951 0.930 . S
C896 N897 1.314 . S
C896 C901 1.353 . S
C896 H902 0.930 . S
N897 Li880 1.990 . S
N897 C896 1.314 . S
N897 C899 1.279 . S
C898 C899 1.358 . S
C898 C900 1.356 . S
C898 H952 0.930 . S
C899 N897 1.279 . S
C899 C898 1.358 . S
C899 H903 0.930 . S
C900 C898 1.356 . S
C900 C901 1.348 . S
C901 C896 1.353 . S
C901 C900 1.348 . S
C901 H953 0.929 . S
H902 C896 0.930 . S
H903 C899 0.930 . S
C904 N905 1.314 . S
C904 C906 1.353 . S
C904 H910 0.930 . S
N905 Li881 1.990 . S
N905 C904 1.314 . S
N905 C908 1.279 . S
C906 C904 1.353 . S
C906 C909 1.348 . S
C906 H954 0.929 . S
C907 C908 1.358 . S
C907 C909 1.356 . S
C907 H955 0.930 . S
C908 N905 1.279 . S
C908 C907 1.358 . S
C908 H911 0.930 . S
C909 C906 1.348 . S
C909 C907 1.356 . S
H910 C904 0.930 . S
H911 C908 0.930 . S
C912 C914 1.348 . S
C912 C915 1.356 . S
C912 O942 1.325 . S
N913 C916 1.314 . S
N913 C917 1.279 . S
C914 C912 1.348 . S
C914 C916 1.353 . S
C914 H956 0.929 . S
C915 C912 1.356 . S
C915 C917 1.358 . S
C915 H957 0.930 . S
C916 N913 1.314 . S
C916 C914 1.353 . S
C916 H958 0.930 . S
C917 N913 1.279 . S
C917 C915 1.358 . S
C917 H959 0.930 . S
C918 C919 1.348 . S
C918 C920 1.356 . S
C918 O943 1.325 . S
C919 C918 1.348 . S
C919 C921 1.353 . S
C919 H960 0.929 . S
C920 C918 1.356 . S
C920 C922 1.358 . S
C920 H961 0.930 . S
C921 C919 1.353 . S
C921 N923 1.314 . S
C921 H962 0.930 . S
C922 C920 1.358 . S
C922 N923 1.279 . S
C922 H963 0.930 . S
N923 C921 1.314 . S
N923 C922 1.279 . S
C924 C926 1.353 . S
C924 N927 1.314 . S
C924 H930 0.930 . S
C925 N927 1.279 . S
C925 C928 1.358 . S
C925 H931 0.930 . S
C926 C924 1.353 . S
C926 C929 1.348 . S
C926 H964 0.929 . S
N927 Li882 1.990 . S
N927 C924 1.314 . S
N927 C925 1.279 . S
C928 C925 1.358 . S
C928 C929 1.356 . S
C928 H965 0.930 . S
C929 C926 1.348 . S
C929 C928 1.356 . S
H930 C924 0.930 . S
H931 C925 0.930 . S
C932 N933 1.314 . S
C932 C934 1.353 . S
C932 H938 0.930 . S
N933 Li883 1.990 . S
N933 C932 1.314 . S
N933 C936 1.279 . S
C934 C932 1.353 . S
C934 C937 1.348 . S
C934 H966 0.929 . S
C935 C936 1.358 . S
C935 C937 1.356 . S
C935 H967 0.930 . S
C936 N933 1.279 . S
C936 C935 1.358 . S
C936 H939 0.930 . S
C937 C934 1.348 . S
C937 C935 1.356 . S
H938 C932 0.930 . S
H939 C936 0.930 . S
O940 Li880 1.956 . S
O940 Li881 1.970 . S
O940 Li882 1.961 . S
O940 C884 1.325 . S
O941 Li880 1.970 . S
O941 Li881 1.956 . S
O941 Li883 1.961 . S
O941 C890 1.325 . S
O942 Li880 1.961 . S
O942 Li882 1.956 . S
O942 Li883 1.970 . S
O942 C912 1.325 . S
O943 Li881 1.961 . S
O943 Li882 1.970 . S
O943 Li883 1.956 . S
O943 C918 1.325 . S
H944 C886 0.929 . S
H945 C887 0.930 . S
H946 C888 0.930 . S
H947 C889 0.930 . S
H948 C891 0.930 . S
H949 C893 0.929 . S
H950 C894 0.930 . S
H951 C895 0.930 . S
H952 C898 0.930 . S
H953 C901 0.929 . S
H954 C906 0.929 . S
H955 C907 0.930 . S
H956 C914 0.929 . S
H957 C915 0.930 . S
H958 C916 0.930 . S
H959 C917 0.930 . S
H960 C919 0.929 . S
H961 C920 0.930 . S
H962 C921 0.930 . S
H963 C922 0.930 . S
H964 C926 0.929 . S
H965 C928 0.930 . S
H966 C934 0.929 . S
H967 C935 0.930 . S
Li968 N985 1.990 . S
Li968 O1028 1.956 . S
Li968 O1029 1.970 . S
Li968 O1030 1.961 . S
Li969 N993 1.990 . S
Li969 O1028 1.970 . S
Li969 O1029 1.956 . S
Li969 O1031 1.961 . S
Li970 N1015 1.990 . S
Li970 O1028 1.961 . S
Li970 O1030 1.956 . S
Li970 O1031 1.970 . S
Li971 N1021 1.990 . S
Li971 O1029 1.961 . S
Li971 O1030 1.970 . S
Li971 O1031 1.956 . S
C972 C974 1.348 . S
C972 C975 1.317 1_554 S
C972 O1028 1.325 . S
N973 C976 1.314 1_556 S
N973 C977 1.279 . S
C974 C972 1.348 . S
C974 C976 1.353 . S
C974 H1032 0.929 . S
C975 C972 1.317 1_556 S
C975 C977 1.383 . S
C975 H1033 0.946 . S
C976 N973 1.314 1_554 S
C976 C974 1.353 . S
C976 H1034 0.930 . S
C977 N973 1.279 . S
C977 C975 1.383 . S
C977 H1035 0.930 . S
C978 C981 1.348 . S
C978 C982 1.356 . S
C978 O1029 1.325 . S
C979 N980 1.279 . S
C979 C982 1.358 . S
C979 H1036 0.930 . S
N980 C979 1.279 . S
N980 C983 1.314 . S
C981 C978 1.348 . S
C981 C983 1.353 . S
C981 H1037 0.929 . S
C982 C978 1.356 . S
C982 C979 1.358 . S
C982 H1038 0.930 . S
C983 N980 1.314 . S
C983 C981 1.353 . S
C983 H1039 0.930 . S
C984 N985 1.314 . S
C984 C989 1.353 . S
C984 H990 0.930 . S
N985 Li968 1.990 . S
N985 C984 1.314 . S
N985 C987 1.279 . S
C986 C987 1.358 . S
C986 C988 1.356 . S
C986 H1040 0.930 1_554 S
C987 N985 1.279 . S
C987 C986 1.358 . S
C987 H991 0.930 . S
C988 C986 1.356 . S
C988 C989 1.348 . S
C989 C984 1.353 . S
C989 C988 1.348 . S
C989 H1041 0.929 . S
H990 C984 0.930 . S
H991 C987 0.930 . S
C992 N993 1.314 . S
C992 C994 1.353 . S
C992 H998 0.930 . S
N993 Li969 1.990 . S
N993 C992 1.314 . S
N993 C996 1.279 . S
C994 C992 1.353 . S
C994 C997 1.348 . S
C994 H1042 0.929 . S
C995 C996 1.358 . S
C995 C997 1.356 . S
C995 H1043 0.930 . S
C996 N993 1.279 . S
C996 C995 1.358 . S
C996 H999 0.930 . S
C997 C994 1.348 . S
C997 C995 1.356 . S
H998 C992 0.930 . S
H999 C996 0.930 . S
C1000 C1002 1.348 . S
C1000 C1003 1.356 . S
C1000 O1030 1.325 . S
N1001 C1004 1.314 1_556 S
N1001 C1005 1.279 . S
C1002 C1000 1.348 . S
C1002 C1004 1.353 . S
C1002 H1044 0.929 . S
C1003 C1000 1.356 . S
C1003 C1005 1.358 1_554 S
C1003 H1045 0.930 1_554 S
C1004 N1001 1.314 1_554 S
C1004 C1002 1.353 . S
C1004 H1046 0.930 . S
C1005 N1001 1.279 . S
C1005 C1003 1.358 1_556 S
C1005 H1047 0.930 . S
C1006 C1007 1.348 . S
C1006 C1008 1.356 . S
C1006 O1031 1.325 . S
C1007 C1006 1.348 . S
C1007 C1009 1.353 . S
C1007 H1048 0.929 . S
C1008 C1006 1.356 . S
C1008 C1010 1.358 . S
C1008 H1049 0.930 . S
C1009 C1007 1.353 . S
C1009 N1011 1.314 . S
C1009 H1050 0.930 . S
C1010 C1008 1.358 . S
C1010 N1011 1.279 . S
C1010 H1051 0.930 . S
N1011 C1009 1.314 . S
N1011 C1010 1.279 . S
C1012 C1014 1.353 1_554 S
C1012 N1015 1.314 . S
C1012 H1018 0.930 . S
C1013 N1015 1.281 1_556 S
C1013 C1016 1.356 . S
C1013 H1019 0.931 1_556 S
C1014 C1012 1.353 1_556 S
C1014 C1017 1.348 . S
C1014 H1052 0.929 . S
N1015 Li970 1.990 . S
N1015 C1012 1.314 . S
N1015 C1013 1.281 1_554 S
C1016 C1013 1.356 . S
C1016 C1017 1.356 . S
C1016 H1053 0.930 . S
C1017 C1014 1.348 . S
C1017 C1016 1.356 . S
H1018 C1012 0.930 . S
H1019 C1013 0.931 1_554 S
C1020 N1021 1.314 . S
C1020 C1022 1.353 . S
C1020 H1026 0.930 . S
N1021 Li971 1.990 . S
N1021 C1020 1.314 . S
N1021 C1024 1.279 . S
C1022 C1020 1.353 . S
C1022 C1025 1.348 . S
C1022 H1054 0.929 . S
C1023 C1024 1.358 . S
C1023 C1025 1.356 . S
C1023 H1055 0.930 . S
C1024 N1021 1.279 . S
C1024 C1023 1.358 . S
C1024 H1027 0.930 . S
C1025 C1022 1.348 . S
C1025 C1023 1.356 . S
H1026 C1020 0.930 . S
H1027 C1024 0.930 . S
O1028 Li968 1.956 . S
O1028 Li969 1.970 . S
O1028 Li970 1.961 . S
O1028 C972 1.325 . S
O1029 Li968 1.970 . S
O1029 Li969 1.956 . S
O1029 Li971 1.961 . S
O1029 C978 1.325 . S
O1030 Li968 1.961 . S
O1030 Li970 1.956 . S
O1030 Li971 1.970 . S
O1030 C1000 1.325 . S
O1031 Li969 1.961 . S
O1031 Li970 1.970 . S
O1031 Li971 1.956 . S
O1031 C1006 1.325 . S
H1032 C974 0.929 . S
H1033 C975 0.946 . S
H1034 C976 0.930 . S
H1035 C977 0.930 . S
H1036 C979 0.930 . S
H1037 C981 0.929 . S
H1038 C982 0.930 . S
H1039 C983 0.930 . S
H1040 C986 0.930 1_556 S
H1041 C989 0.929 . S
H1042 C994 0.929 . S
H1043 C995 0.930 . S
H1044 C1002 0.929 . S
H1045 C1003 0.930 1_556 S
H1046 C1004 0.930 . S
H1047 C1005 0.930 . S
H1048 C1007 0.929 . S
H1049 C1008 0.930 . S
H1050 C1009 0.930 . S
H1051 C1010 0.930 . S
H1052 C1014 0.929 . S
H1053 C1016 0.930 . S
H1054 C1022 0.929 . S
H1055 C1023 0.930 . S
Li1056 N1073 1.990 . S
Li1056 O1116 1.956 . S
Li1056 O1117 1.970 . S
Li1056 O1118 1.961 . S
Li1057 N1081 1.990 . S
Li1057 O1116 1.970 . S
Li1057 O1117 1.956 . S
Li1057 O1119 1.961 . S
Li1058 N1103 1.990 . S
Li1058 O1116 1.961 . S
Li1058 O1118 1.956 . S
Li1058 O1119 1.970 . S
Li1059 N1109 1.990 . S
Li1059 O1117 1.961 . S
Li1059 O1118 1.970 . S
Li1059 O1119 1.956 . S
C1060 C1062 1.348 . S
C1060 C1063 1.356 . S
C1060 O1116 1.325 . S
N1061 C1064 1.314 . S
N1061 C1065 1.279 . S
C1062 C1060 1.348 . S
C1062 C1064 1.353 . S
C1062 H1120 0.929 . S
C1063 C1060 1.356 . S
C1063 C1065 1.358 . S
C1063 H1121 0.930 . S
C1064 N1061 1.314 . S
C1064 C1062 1.353 . S
C1064 H1122 0.930 . S
C1065 N1061 1.279 . S
C1065 C1063 1.358 . S
C1065 H1123 0.930 . S
C1066 C1069 1.348 . S
C1066 C1070 1.356 . S
C1066 O1117 1.325 . S
C1067 N1068 1.279 . S
C1067 C1070 1.358 . S
C1067 H1124 0.930 . S
N1068 C1067 1.279 . S
N1068 C1071 1.314 . S
C1069 C1066 1.348 . S
C1069 C1071 1.353 . S
C1069 H1125 0.929 . S
C1070 C1066 1.356 . S
C1070 C1067 1.358 . S
C1070 H1126 0.930 . S
C1071 N1068 1.314 . S
C1071 C1069 1.353 . S
C1071 H1127 0.930 . S
C1072 N1073 1.314 . S
C1072 C1077 1.353 . S
C1072 H1078 0.930 . S
N1073 Li1056 1.990 . S
N1073 C1072 1.314 . S
N1073 C1075 1.279 . S
C1074 C1075 1.358 . S
C1074 C1076 1.356 . S
C1074 H1128 0.930 . S
C1075 N1073 1.279 . S
C1075 C1074 1.358 . S
C1075 H1079 0.930 . S
C1076 C1074 1.356 . S
C1076 C1077 1.348 . S
C1077 C1072 1.353 . S
C1077 C1076 1.348 . S
C1077 H1129 0.929 . S
H1078 C1072 0.930 . S
H1079 C1075 0.930 . S
C1080 N1081 1.314 . S
C1080 C1082 1.353 . S
C1080 H1086 0.930 . S
N1081 Li1057 1.990 . S
N1081 C1080 1.314 . S
N1081 C1084 1.279 . S
C1082 C1080 1.353 . S
C1082 C1085 1.348 . S
C1082 H1130 0.929 . S
C1083 C1084 1.358 . S
C1083 C1085 1.356 . S
C1083 H1131 0.930 . S
C1084 N1081 1.279 . S
C1084 C1083 1.358 . S
C1084 H1087 0.930 . S
C1085 C1082 1.348 . S
C1085 C1083 1.356 . S
H1086 C1080 0.930 . S
H1087 C1084 0.930 . S
C1088 C1090 1.348 . S
C1088 C1091 1.356 . S
C1088 O1118 1.325 . S
N1089 C1092 1.314 . S
N1089 C1093 1.279 . S
C1090 C1088 1.348 . S
C1090 C1092 1.353 . S
C1090 H1132 0.929 . S
C1091 C1088 1.356 . S
C1091 C1093 1.358 . S
C1091 H1133 0.930 . S
C1092 N1089 1.314 . S
C1092 C1090 1.353 . S
C1092 H1134 0.930 . S
C1093 N1089 1.279 . S
C1093 C1091 1.358 . S
C1093 H1135 0.930 . S
C1094 C1095 1.348 . S
C1094 C1096 1.356 . S
C1094 O1119 1.325 . S
C1095 C1094 1.348 . S
C1095 C1097 1.353 . S
C1095 H1136 0.929 . S
C1096 C1094 1.356 . S
C1096 C1098 1.358 . S
C1096 H1137 0.930 . S
C1097 C1095 1.353 . S
C1097 N1099 1.314 . S
C1097 H1138 0.930 . S
C1098 C1096 1.358 . S
C1098 N1099 1.279 . S
C1098 H1139 0.930 . S
N1099 C1097 1.314 . S
N1099 C1098 1.279 . S
C1100 C1102 1.353 . S
C1100 N1103 1.314 . S
C1100 H1106 0.930 . S
C1101 N1103 1.279 . S
C1101 C1104 1.358 . S
C1101 H1107 0.930 . S
C1102 C1100 1.353 . S
C1102 C1105 1.348 . S
C1102 H1140 0.929 . S
N1103 Li1058 1.990 . S
N1103 C1100 1.314 . S
N1103 C1101 1.279 . S
C1104 C1101 1.358 . S
C1104 C1105 1.356 . S
C1104 H1141 0.930 . S
C1105 C1102 1.348 . S
C1105 C1104 1.356 . S
H1106 C1100 0.930 . S
H1107 C1101 0.930 . S
C1108 N1109 1.314 . S
C1108 C1110 1.353 . S
C1108 H1114 0.930 . S
N1109 Li1059 1.990 . S
N1109 C1108 1.314 . S
N1109 C1112 1.279 . S
C1110 C1108 1.353 . S
C1110 C1113 1.348 . S
C1110 H1142 0.929 . S
C1111 C1112 1.358 . S
C1111 C1113 1.356 . S
C1111 H1143 0.930 . S
C1112 N1109 1.279 . S
C1112 C1111 1.358 . S
C1112 H1115 0.930 . S
C1113 C1110 1.348 . S
C1113 C1111 1.356 . S
H1114 C1108 0.930 . S
H1115 C1112 0.930 . S
O1116 Li1056 1.956 . S
O1116 Li1057 1.970 . S
O1116 Li1058 1.961 . S
O1116 C1060 1.325 . S
O1117 Li1056 1.970 . S
O1117 Li1057 1.956 . S
O1117 Li1059 1.961 . S
O1117 C1066 1.325 . S
O1118 Li1056 1.961 . S
O1118 Li1058 1.956 . S
O1118 Li1059 1.970 . S
O1118 C1088 1.325 . S
O1119 Li1057 1.961 . S
O1119 Li1058 1.970 . S
O1119 Li1059 1.956 . S
O1119 C1094 1.325 . S
H1120 C1062 0.929 . S
H1121 C1063 0.930 . S
H1122 C1064 0.930 . S
H1123 C1065 0.930 . S
H1124 C1067 0.930 . S
H1125 C1069 0.929 . S
H1126 C1070 0.930 . S
H1127 C1071 0.930 . S
H1128 C1074 0.930 . S
H1129 C1077 0.929 . S
H1130 C1082 0.929 . S
H1131 C1083 0.930 . S
H1132 C1090 0.929 . S
H1133 C1091 0.930 . S
H1134 C1092 0.930 . S
H1135 C1093 0.930 . S
H1136 C1095 0.929 . S
H1137 C1096 0.930 . S
H1138 C1097 0.930 . S
H1139 C1098 0.930 . S
H1140 C1102 0.929 . S
H1141 C1104 0.930 . S
H1142 C1110 0.929 . S
H1143 C1111 0.930 . S
Li1144 N1161 1.990 . S
Li1144 O1204 1.956 . S
Li1144 O1205 1.970 . S
Li1144 O1206 1.961 . S
Li1145 N1169 1.990 . S
Li1145 O1204 1.970 . S
Li1145 O1205 1.956 . S
Li1145 O1207 1.961 . S
Li1146 N1191 1.990 . S
Li1146 O1204 1.961 . S
Li1146 O1206 1.956 . S
Li1146 O1207 1.970 . S
Li1147 N1197 1.990 . S
Li1147 O1205 1.961 . S
Li1147 O1206 1.970 . S
Li1147 O1207 1.956 . S
C1148 C1150 1.348 . S
C1148 C1151 1.356 . S
C1148 O1204 1.325 . S
N1149 C1152 1.314 1_554 S
N1149 C1153 1.279 . S
C1150 C1148 1.348 . S
C1150 C1152 1.353 . S
C1150 H1208 0.929 . S
C1151 C1148 1.356 . S
C1151 C1153 1.358 1_556 S
C1151 H1209 0.930 1_556 S
C1152 N1149 1.314 1_556 S
C1152 C1150 1.353 . S
C1152 H1210 0.930 . S
C1153 N1149 1.279 . S
C1153 C1151 1.358 1_554 S
C1153 H1211 0.930 . S
C1154 C1157 1.348 . S
C1154 C1158 1.356 . S
C1154 O1205 1.325 . S
C1155 N1156 1.279 1_655 S
C1155 C1158 1.358 . S
C1155 H1212 0.930 . S
N1156 C1155 1.279 1_455 S
N1156 C1159 1.314 . S
C1157 C1154 1.348 . S
C1157 C1159 1.353 1_655 S
C1157 H1213 0.929 . S
C1158 C1154 1.356 . S
C1158 C1155 1.358 . S
C1158 H1214 0.930 . S
C1159 N1156 1.314 . S
C1159 C1157 1.353 1_455 S
C1159 H1215 0.930 . S
C1160 N1161 1.314 . S
C1160 C1165 1.353 1_556 S
C1160 H1166 0.930 . S
N1161 Li1144 1.990 . S
N1161 C1160 1.314 . S
N1161 C1163 1.281 1_556 S
C1162 C1163 1.317 1_455 S
C1162 C1164 1.369 . S
C1162 H1216 0.959 . S
C1163 N1161 1.281 1_554 S
C1163 C1162 1.317 1_655 S
C1163 H1167 0.931 1_554 S
C1164 C1162 1.369 . S
C1164 C1165 1.348 1_455 S
C1165 C1160 1.353 1_554 S
C1165 C1164 1.348 1_655 S
C1165 H1217 0.929 . S
H1166 C1160 0.930 . S
H1167 C1163 0.931 1_556 S
C1168 N1169 1.314 . S
C1168 C1170 1.353 . S
C1168 H1174 0.930 . S
N1169 Li1145 1.990 . S
N1169 C1168 1.314 . S
N1169 C1172 1.279 . S
C1170 C1168 1.353 . S
C1170 C1173 1.348 . S
C1170 H1218 0.929 . S
C1171 C1172 1.358 . S
C1171 C1173 1.356 . S
C1171 H1219 0.930 . S
C1172 N1169 1.279 . S
C1172 C1171 1.358 . S
C1172 H1175 0.930 . S
C1173 C1170 1.348 . S
C1173 C1171 1.356 . S
H1174 C1168 0.930 . S
H1175 C1172 0.930 . S
C1176 C1178 1.348 . S
C1176 C1179 1.316 1_556 S
C1176 O1206 1.325 . S
N1177 C1180 1.314 1_554 S
N1177 C1181 1.279 . S
C1178 C1176 1.348 . S
C1178 C1180 1.353 . S
C1178 H1220 0.929 . S
C1179 C1176 1.316 1_554 S
C1179 C1181 1.383 . S
C1179 H1221 0.946 . S
C1180 N1177 1.314 1_556 S
C1180 C1178 1.353 . S
C1180 H1222 0.930 . S
C1181 N1177 1.279 . S
C1181 C1179 1.383 . S
C1181 H1223 0.930 . S
C1182 C1183 1.348 . S
C1182 C1184 1.356 . S
C1182 O1207 1.325 . S
C1183 C1182 1.348 . S
C1183 C1185 1.353 . S
C1183 H1224 0.929 . S
C1184 C1182 1.356 . S
C1184 C1186 1.358 . S
C1184 H1225 0.930 . S
C1185 C1183 1.353 . S
C1185 N1187 1.314 . S
C1185 H1226 0.930 . S
C1186 C1184 1.358 . S
C1186 N1187 1.279 . S
C1186 H1227 0.930 . S
N1187 C1185 1.314 . S
N1187 C1186 1.279 . S
C1188 C1190 1.353 . S
C1188 N1191 1.314 . S
C1188 H1194 0.930 . S
C1189 N1191 1.279 . S
C1189 C1192 1.358 . S
C1189 H1195 0.930 . S
C1190 C1188 1.353 . S
C1190 C1193 1.348 . S
C1190 H1228 0.929 . S
N1191 Li1146 1.990 . S
N1191 C1188 1.314 . S
N1191 C1189 1.279 . S
C1192 C1189 1.358 . S
C1192 C1193 1.356 . S
C1192 H1229 0.930 1_556 S
C1193 C1190 1.348 . S
C1193 C1192 1.356 . S
H1194 C1188 0.930 . S
H1195 C1189 0.930 . S
C1196 N1197 1.314 . S
C1196 C1198 1.353 . S
C1196 H1202 0.930 . S
N1197 Li1147 1.990 . S
N1197 C1196 1.314 . S
N1197 C1200 1.279 . S
C1198 C1196 1.353 . S
C1198 C1201 1.348 . S
C1198 H1230 0.929 . S
C1199 C1200 1.358 . S
C1199 C1201 1.356 . S
C1199 H1231 0.930 . S
C1200 N1197 1.279 . S
C1200 C1199 1.358 . S
C1200 H1203 0.930 . S
C1201 C1198 1.348 . S
C1201 C1199 1.356 . S
H1202 C1196 0.930 . S
H1203 C1200 0.930 . S
O1204 Li1144 1.956 . S
O1204 Li1145 1.970 . S
O1204 Li1146 1.961 . S
O1204 C1148 1.325 . S
O1205 Li1144 1.970 . S
O1205 Li1145 1.956 . S
O1205 Li1147 1.961 . S
O1205 C1154 1.325 . S
O1206 Li1144 1.961 . S
O1206 Li1146 1.956 . S
O1206 Li1147 1.970 . S
O1206 C1176 1.325 . S
O1207 Li1145 1.961 . S
O1207 Li1146 1.970 . S
O1207 Li1147 1.956 . S
O1207 C1182 1.325 . S
H1208 C1150 0.929 . S
H1209 C1151 0.930 1_554 S
H1210 C1152 0.930 . S
H1211 C1153 0.930 . S
H1212 C1155 0.930 . S
H1213 C1157 0.929 . S
H1214 C1158 0.930 . S
H1215 C1159 0.930 . S
H1216 C1162 0.959 . S
H1217 C1165 0.929 . S
H1218 C1170 0.929 . S
H1219 C1171 0.930 . S
H1220 C1178 0.929 . S
H1221 C1179 0.946 . S
H1222 C1180 0.930 . S
H1223 C1181 0.930 . S
H1224 C1183 0.929 . S
H1225 C1184 0.930 . S
H1226 C1185 0.930 . S
H1227 C1186 0.930 . S
H1228 C1190 0.929 . S
H1229 C1192 0.930 1_554 S
H1230 C1198 0.929 . S
H1231 C1199 0.930 . S
Li1232 N1249 1.990 . S
Li1232 O1292 1.956 . S
Li1232 O1293 1.970 . S
Li1232 O1294 1.961 . S
Li1233 N1257 1.990 . S
Li1233 O1292 1.970 . S
Li1233 O1293 1.956 . S
Li1233 O1295 1.961 . S
Li1234 N1279 1.990 . S
Li1234 O1292 1.961 . S
Li1234 O1294 1.956 . S
Li1234 O1295 1.970 . S
Li1235 N1285 1.990 . S
Li1235 O1293 1.961 . S
Li1235 O1294 1.970 . S
Li1235 O1295 1.956 . S
C1236 C1238 1.348 . S
C1236 C1239 1.356 . S
C1236 O1292 1.325 . S
N1237 C1240 1.314 . S
N1237 C1241 1.279 . S
C1238 C1236 1.348 . S
C1238 C1240 1.353 . S
C1238 H1296 0.929 . S
C1239 C1236 1.356 . S
C1239 C1241 1.358 . S
C1239 H1297 0.930 . S
C1240 N1237 1.314 . S
C1240 C1238 1.353 . S
C1240 H1298 0.930 . S
C1241 N1237 1.279 . S
C1241 C1239 1.358 . S
C1241 H1299 0.930 . S
C1242 C1245 1.348 . S
C1242 C1246 1.356 . S
C1242 O1293 1.325 . S
C1243 N1244 1.279 . S
C1243 C1246 1.358 . S
C1243 H1300 0.930 . S
N1244 C1243 1.279 . S
N1244 C1247 1.314 . S
C1245 C1242 1.348 . S
C1245 C1247 1.353 . S
C1245 H1301 0.929 . S
C1246 C1242 1.356 . S
C1246 C1243 1.358 . S
C1246 H1302 0.930 . S
C1247 N1244 1.314 . S
C1247 C1245 1.353 . S
C1247 H1303 0.930 . S
C1248 N1249 1.314 . S
C1248 C1253 1.353 . S
C1248 H1254 0.930 . S
N1249 Li1232 1.990 . S
N1249 C1248 1.314 . S
N1249 C1251 1.279 . S
C1250 C1251 1.358 . S
C1250 C1252 1.356 . S
C1250 H1304 0.930 . S
C1251 N1249 1.279 . S
C1251 C1250 1.358 . S
C1251 H1255 0.930 . S
C1252 C1250 1.356 . S
C1252 C1253 1.348 . S
C1253 C1248 1.353 . S
C1253 C1252 1.348 . S
C1253 H1305 0.929 . S
H1254 C1248 0.930 . S
H1255 C1251 0.930 . S
C1256 N1257 1.314 . S
C1256 C1258 1.353 . S
C1256 H1262 0.930 . S
N1257 Li1233 1.990 . S
N1257 C1256 1.314 . S
N1257 C1260 1.279 . S
C1258 C1256 1.353 . S
C1258 C1261 1.348 . S
C1258 H1306 0.929 . S
C1259 C1260 1.358 . S
C1259 C1261 1.356 . S
C1259 H1307 0.930 . S
C1260 N1257 1.279 . S
C1260 C1259 1.358 . S
C1260 H1263 0.930 . S
C1261 C1258 1.348 . S
C1261 C1259 1.356 . S
H1262 C1256 0.930 . S
H1263 C1260 0.930 . S
C1264 C1266 1.348 . S
C1264 C1267 1.356 . S
C1264 O1294 1.325 . S
N1265 C1268 1.314 . S
N1265 C1269 1.279 . S
C1266 C1264 1.348 . S
C1266 C1268 1.353 . S
C1266 H1308 0.929 . S
C1267 C1264 1.356 . S
C1267 C1269 1.358 . S
C1267 H1309 0.930 . S
C1268 N1265 1.314 . S
C1268 C1266 1.353 . S
C1268 H1310 0.930 . S
C1269 N1265 1.279 . S
C1269 C1267 1.358 . S
C1269 H1311 0.930 . S
C1270 C1271 1.348 . S
C1270 C1272 1.356 . S
C1270 O1295 1.325 . S
C1271 C1270 1.348 . S
C1271 C1273 1.353 . S
C1271 H1312 0.929 . S
C1272 C1270 1.356 . S
C1272 C1274 1.358 . S
C1272 H1313 0.930 . S
C1273 C1271 1.353 . S
C1273 N1275 1.314 . S
C1273 H1314 0.930 . S
C1274 C1272 1.358 . S
C1274 N1275 1.279 . S
C1274 H1315 0.930 . S
N1275 C1273 1.314 . S
N1275 C1274 1.279 . S
C1276 C1278 1.353 . S
C1276 N1279 1.314 . S
C1276 H1282 0.930 . S
C1277 N1279 1.279 . S
C1277 C1280 1.358 . S
C1277 H1283 0.930 . S
C1278 C1276 1.353 . S
C1278 C1281 1.348 . S
C1278 H1316 0.929 . S
N1279 Li1234 1.990 . S
N1279 C1276 1.314 . S
N1279 C1277 1.279 . S
C1280 C1277 1.358 . S
C1280 C1281 1.356 . S
C1280 H1317 0.930 . S
C1281 C1278 1.348 . S
C1281 C1280 1.356 . S
H1282 C1276 0.930 . S
H1283 C1277 0.930 . S
C1284 N1285 1.314 . S
C1284 C1286 1.353 . S
C1284 H1290 0.930 . S
N1285 Li1235 1.990 . S
N1285 C1284 1.314 . S
N1285 C1288 1.279 . S
C1286 C1284 1.353 . S
C1286 C1289 1.348 . S
C1286 H1318 0.929 . S
C1287 C1288 1.358 . S
C1287 C1289 1.356 . S
C1287 H1319 0.930 . S
C1288 N1285 1.279 . S
C1288 C1287 1.358 . S
C1288 H1291 0.930 . S
C1289 C1286 1.348 . S
C1289 C1287 1.356 . S
H1290 C1284 0.930 . S
H1291 C1288 0.930 . S
O1292 Li1232 1.956 . S
O1292 Li1233 1.970 . S
O1292 Li1234 1.961 . S
O1292 C1236 1.325 . S
O1293 Li1232 1.970 . S
O1293 Li1233 1.956 . S
O1293 Li1235 1.961 . S
O1293 C1242 1.325 . S
O1294 Li1232 1.961 . S
O1294 Li1234 1.956 . S
O1294 Li1235 1.970 . S
O1294 C1264 1.325 . S
O1295 Li1233 1.961 . S
O1295 Li1234 1.970 . S
O1295 Li1235 1.956 . S
O1295 C1270 1.325 . S
H1296 C1238 0.929 . S
H1297 C1239 0.930 . S
H1298 C1240 0.930 . S
H1299 C1241 0.930 . S
H1300 C1243 0.930 . S
H1301 C1245 0.929 . S
H1302 C1246 0.930 . S
H1303 C1247 0.930 . S
H1304 C1250 0.930 . S
H1305 C1253 0.929 . S
H1306 C1258 0.929 . S
H1307 C1259 0.930 . S
H1308 C1266 0.929 . S
H1309 C1267 0.930 . S
H1310 C1268 0.930 . S
H1311 C1269 0.930 . S
H1312 C1271 0.929 . S
H1313 C1272 0.930 . S
H1314 C1273 0.930 . S
H1315 C1274 0.930 . S
H1316 C1278 0.929 . S
H1317 C1280 0.930 . S
H1318 C1286 0.929 . S
H1319 C1287 0.930 . S
Li1320 N1337 1.990 . S
Li1320 O1380 1.956 . S
Li1320 O1381 1.970 . S
Li1320 O1382 1.961 . S
Li1321 N1345 1.990 . S
Li1321 O1380 1.970 . S
Li1321 O1381 1.956 . S
Li1321 O1383 1.961 . S
Li1322 N1367 1.990 . S
Li1322 O1380 1.961 . S
Li1322 O1382 1.956 . S
Li1322 O1383 1.970 . S
Li1323 N1373 1.990 . S
Li1323 O1381 1.961 . S
Li1323 O1382 1.970 . S
Li1323 O1383 1.956 . S
C1324 C1326 1.348 . S
C1324 C1327 1.356 . S
C1324 O1380 1.325 . S
N1325 C1328 1.314 . S
N1325 C1329 1.279 . S
C1326 C1324 1.348 . S
C1326 C1328 1.353 . S
C1326 H1384 0.929 . S
C1327 C1324 1.356 . S
C1327 C1329 1.358 . S
C1327 H1385 0.930 . S
C1328 N1325 1.314 . S
C1328 C1326 1.353 . S
C1328 H1386 0.930 . S
C1329 N1325 1.279 . S
C1329 C1327 1.358 . S
C1329 H1387 0.930 . S
C1330 C1333 1.348 . S
C1330 C1334 1.356 . S
C1330 O1381 1.325 . S
C1331 N1332 1.279 . S
C1331 C1334 1.358 . S
C1331 H1388 0.930 . S
N1332 C1331 1.279 . S
N1332 C1335 1.314 . S
C1333 C1330 1.348 . S
C1333 C1335 1.353 . S
C1333 H1389 0.929 . S
C1334 C1330 1.356 . S
C1334 C1331 1.358 . S
C1334 H1390 0.930 . S
C1335 N1332 1.314 . S
C1335 C1333 1.353 . S
C1335 H1391 0.930 . S
C1336 N1337 1.314 . S
C1336 C1341 1.353 . S
C1336 H1342 0.930 . S
N1337 Li1320 1.990 . S
N1337 C1336 1.314 . S
N1337 C1339 1.279 . S
C1338 C1339 1.358 . S
C1338 C1340 1.356 . S
C1338 H1392 0.930 . S
C1339 N1337 1.279 . S
C1339 C1338 1.358 . S
C1339 H1343 0.930 . S
C1340 C1338 1.356 . S
C1340 C1341 1.348 . S
C1341 C1336 1.353 . S
C1341 C1340 1.348 . S
C1341 H1393 0.929 . S
H1342 C1336 0.930 . S
H1343 C1339 0.930 . S
C1344 N1345 1.314 . S
C1344 C1346 1.353 . S
C1344 H1350 0.930 . S
N1345 Li1321 1.990 . S
N1345 C1344 1.314 . S
N1345 C1348 1.279 . S
C1346 C1344 1.353 . S
C1346 C1349 1.348 . S
C1346 H1394 0.929 . S
C1347 C1348 1.358 . S
C1347 C1349 1.356 . S
C1347 H1395 0.930 . S
C1348 N1345 1.279 . S
C1348 C1347 1.358 . S
C1348 H1351 0.930 . S
C1349 C1346 1.348 . S
C1349 C1347 1.356 . S
H1350 C1344 0.930 . S
H1351 C1348 0.930 . S
C1352 C1354 1.348 . S
C1352 C1355 1.356 . S
C1352 O1382 1.325 . S
N1353 C1356 1.314 . S
N1353 C1357 1.279 . S
C1354 C1352 1.348 . S
C1354 C1356 1.353 . S
C1354 H1396 0.929 . S
C1355 C1352 1.356 . S
C1355 C1357 1.358 . S
C1355 H1397 0.930 . S
C1356 N1353 1.314 . S
C1356 C1354 1.353 . S
C1356 H1398 0.930 . S
C1357 N1353 1.279 . S
C1357 C1355 1.358 . S
C1357 H1399 0.930 . S
C1358 C1359 1.348 . S
C1358 C1360 1.356 . S
C1358 O1383 1.325 . S
C1359 C1358 1.348 . S
C1359 C1361 1.353 . S
C1359 H1400 0.929 . S
C1360 C1358 1.356 . S
C1360 C1362 1.358 . S
C1360 H1401 0.930 . S
C1361 C1359 1.353 . S
C1361 N1363 1.314 . S
C1361 H1402 0.930 . S
C1362 C1360 1.358 . S
C1362 N1363 1.279 . S
C1362 H1403 0.930 . S
N1363 C1361 1.314 . S
N1363 C1362 1.279 . S
C1364 C1366 1.353 . S
C1364 N1367 1.314 . S
C1364 H1370 0.930 . S
C1365 N1367 1.279 . S
C1365 C1368 1.358 . S
C1365 H1371 0.930 . S
C1366 C1364 1.353 . S
C1366 C1369 1.348 . S
C1366 H1404 0.929 . S
N1367 Li1322 1.990 . S
N1367 C1364 1.314 . S
N1367 C1365 1.279 . S
C1368 C1365 1.358 . S
C1368 C1369 1.356 . S
C1368 H1405 0.930 . S
C1369 C1366 1.348 . S
C1369 C1368 1.356 . S
H1370 C1364 0.930 . S
H1371 C1365 0.930 . S
C1372 N1373 1.314 . S
C1372 C1374 1.353 . S
C1372 H1378 0.930 . S
N1373 Li1323 1.990 . S
N1373 C1372 1.314 . S
N1373 C1376 1.279 . S
C1374 C1372 1.353 . S
C1374 C1377 1.348 . S
C1374 H1406 0.929 . S
C1375 C1376 1.358 . S
C1375 C1377 1.356 . S
C1375 H1407 0.930 . S
C1376 N1373 1.279 . S
C1376 C1375 1.358 . S
C1376 H1379 0.930 . S
C1377 C1374 1.348 . S
C1377 C1375 1.356 . S
H1378 C1372 0.930 . S
H1379 C1376 0.930 . S
O1380 Li1320 1.956 . S
O1380 Li1321 1.970 . S
O1380 Li1322 1.961 . S
O1380 C1324 1.325 . S
O1381 Li1320 1.970 . S
O1381 Li1321 1.956 . S
O1381 Li1323 1.961 . S
O1381 C1330 1.325 . S
O1382 Li1320 1.961 . S
O1382 Li1322 1.956 . S
O1382 Li1323 1.970 . S
O1382 C1352 1.325 . S
O1383 Li1321 1.961 . S
O1383 Li1322 1.970 . S
O1383 Li1323 1.956 . S
O1383 C1358 1.325 . S
H1384 C1326 0.929 . S
H1385 C1327 0.930 . S
H1386 C1328 0.930 . S
H1387 C1329 0.930 . S
H1388 C1331 0.930 . S
H1389 C1333 0.929 . S
H1390 C1334 0.930 . S
H1391 C1335 0.930 . S
H1392 C1338 0.930 . S
H1393 C1341 0.929 . S
H1394 C1346 0.929 . S
H1395 C1347 0.930 . S
H1396 C1354 0.929 . S
H1397 C1355 0.930 . S
H1398 C1356 0.930 . S
H1399 C1357 0.930 . S
H1400 C1359 0.929 . S
H1401 C1360 0.930 . S
H1402 C1361 0.930 . S
H1403 C1362 0.930 . S
H1404 C1366 0.929 . S
H1405 C1368 0.930 . S
H1406 C1374 0.929 . S
H1407 C1375 0.930 . S
Li1408 N1425 1.990 . S
Li1408 O1468 1.956 . S
Li1408 O1469 1.970 . S
Li1408 O1470 1.961 . S
Li1409 N1433 1.990 . S
Li1409 O1468 1.970 . S
Li1409 O1469 1.956 . S
Li1409 O1471 1.961 . S
Li1410 N1455 1.990 . S
Li1410 O1468 1.961 . S
Li1410 O1470 1.956 . S
Li1410 O1471 1.970 . S
Li1411 N1461 1.990 . S
Li1411 O1469 1.961 . S
Li1411 O1470 1.970 . S
Li1411 O1471 1.956 . S
C1412 C1414 1.348 . S
C1412 C1415 1.356 . S
C1412 O1468 1.325 . S
N1413 C1416 1.314 . S
N1413 C1417 1.279 . S
C1414 C1412 1.348 . S
C1414 C1416 1.353 . S
C1414 H1472 0.929 . S
C1415 C1412 1.356 . S
C1415 C1417 1.358 . S
C1415 H1473 0.930 . S
C1416 N1413 1.314 . S
C1416 C1414 1.353 . S
C1416 H1474 0.930 . S
C1417 N1413 1.279 . S
C1417 C1415 1.358 . S
C1417 H1475 0.930 . S
C1418 C1421 1.348 . S
C1418 C1422 1.356 . S
C1418 O1469 1.325 . S
C1419 N1420 1.279 . S
C1419 C1422 1.358 . S
C1419 H1476 0.930 . S
N1420 C1419 1.279 . S
N1420 C1423 1.314 . S
C1421 C1418 1.348 . S
C1421 C1423 1.353 . S
C1421 H1477 0.929 . S
C1422 C1418 1.356 . S
C1422 C1419 1.358 . S
C1422 H1478 0.930 . S
C1423 N1420 1.314 . S
C1423 C1421 1.353 . S
C1423 H1479 0.930 . S
C1424 N1425 1.314 . S
C1424 C1429 1.353 . S
C1424 H1430 0.930 . S
N1425 Li1408 1.990 . S
N1425 C1424 1.314 . S
N1425 C1427 1.279 . S
C1426 C1427 1.358 . S
C1426 C1428 1.356 . S
C1426 H1480 0.930 . S
C1427 N1425 1.279 . S
C1427 C1426 1.358 . S
C1427 H1431 0.930 . S
C1428 C1426 1.356 . S
C1428 C1429 1.348 . S
C1429 C1424 1.353 . S
C1429 C1428 1.348 . S
C1429 H1481 0.929 . S
H1430 C1424 0.930 . S
H1431 C1427 0.930 . S
C1432 N1433 1.314 . S
C1432 C1434 1.353 . S
C1432 H1438 0.930 . S
N1433 Li1409 1.990 . S
N1433 C1432 1.314 . S
N1433 C1436 1.279 . S
C1434 C1432 1.353 . S
C1434 C1437 1.348 . S
C1434 H1482 0.929 . S
C1435 C1436 1.358 . S
C1435 C1437 1.356 . S
C1435 H1483 0.930 . S
C1436 N1433 1.279 . S
C1436 C1435 1.358 . S
C1436 H1439 0.930 . S
C1437 C1434 1.348 . S
C1437 C1435 1.356 . S
H1438 C1432 0.930 . S
H1439 C1436 0.930 . S
C1440 C1442 1.348 . S
C1440 C1443 1.356 . S
C1440 O1470 1.325 . S
N1441 C1444 1.314 . S
N1441 C1445 1.279 . S
C1442 C1440 1.348 . S
C1442 C1444 1.353 . S
C1442 H1484 0.929 . S
C1443 C1440 1.356 . S
C1443 C1445 1.358 . S
C1443 H1485 0.930 . S
C1444 N1441 1.314 . S
C1444 C1442 1.353 . S
C1444 H1486 0.930 . S
C1445 N1441 1.279 . S
C1445 C1443 1.358 . S
C1445 H1487 0.930 . S
C1446 C1447 1.348 . S
C1446 C1448 1.356 . S
C1446 O1471 1.325 . S
C1447 C1446 1.348 . S
C1447 C1449 1.353 . S
C1447 H1488 0.929 . S
C1448 C1446 1.356 . S
C1448 C1450 1.358 . S
C1448 H1489 0.930 . S
C1449 C1447 1.353 . S
C1449 N1451 1.314 . S
C1449 H1490 0.930 . S
C1450 C1448 1.358 . S
C1450 N1451 1.279 . S
C1450 H1491 0.930 . S
N1451 C1449 1.314 . S
N1451 C1450 1.279 . S
C1452 C1454 1.353 . S
C1452 N1455 1.314 . S
C1452 H1458 0.930 . S
C1453 N1455 1.279 . S
C1453 C1456 1.358 . S
C1453 H1459 0.930 . S
C1454 C1452 1.353 . S
C1454 C1457 1.348 . S
C1454 H1492 0.929 . S
N1455 Li1410 1.990 . S
N1455 C1452 1.314 . S
N1455 C1453 1.279 . S
C1456 C1453 1.358 . S
C1456 C1457 1.356 . S
C1456 H1493 0.930 . S
C1457 C1454 1.348 . S
C1457 C1456 1.356 . S
H1458 C1452 0.930 . S
H1459 C1453 0.930 . S
C1460 N1461 1.314 . S
C1460 C1462 1.353 . S
C1460 H1466 0.930 . S
N1461 Li1411 1.990 . S
N1461 C1460 1.314 . S
N1461 C1464 1.279 . S
C1462 C1460 1.353 . S
C1462 C1465 1.348 . S
C1462 H1494 0.929 . S
C1463 C1464 1.358 . S
C1463 C1465 1.356 . S
C1463 H1495 0.930 . S
C1464 N1461 1.279 . S
C1464 C1463 1.358 . S
C1464 H1467 0.930 . S
C1465 C1462 1.348 . S
C1465 C1463 1.356 . S
H1466 C1460 0.930 . S
H1467 C1464 0.930 . S
O1468 Li1408 1.956 . S
O1468 Li1409 1.970 . S
O1468 Li1410 1.961 . S
O1468 C1412 1.325 . S
O1469 Li1408 1.970 . S
O1469 Li1409 1.956 . S
O1469 Li1411 1.961 . S
O1469 C1418 1.325 . S
O1470 Li1408 1.961 . S
O1470 Li1410 1.956 . S
O1470 Li1411 1.970 . S
O1470 C1440 1.325 . S
O1471 Li1409 1.961 . S
O1471 Li1410 1.970 . S
O1471 Li1411 1.956 . S
O1471 C1446 1.325 . S
H1472 C1414 0.929 . S
H1473 C1415 0.930 . S
H1474 C1416 0.930 . S
H1475 C1417 0.930 . S
H1476 C1419 0.930 . S
H1477 C1421 0.929 . S
H1478 C1422 0.930 . S
H1479 C1423 0.930 . S
H1480 C1426 0.930 . S
H1481 C1429 0.929 . S
H1482 C1434 0.929 . S
H1483 C1435 0.930 . S
H1484 C1442 0.929 . S
H1485 C1443 0.930 . S
H1486 C1444 0.930 . S
H1487 C1445 0.930 . S
H1488 C1447 0.929 . S
H1489 C1448 0.930 . S
H1490 C1449 0.930 . S
H1491 C1450 0.930 . S
H1492 C1454 0.929 . S
H1493 C1456 0.930 . S
H1494 C1462 0.929 . S
H1495 C1463 0.930 . S
Li1496 N1513 1.990 . S
Li1496 O1556 1.956 . S
Li1496 O1557 1.970 . S
Li1496 O1558 1.961 . S
Li1497 N1521 1.990 . S
Li1497 O1556 1.970 . S
Li1497 O1557 1.956 . S
Li1497 O1559 1.961 . S
Li1498 N1543 1.990 . S
Li1498 O1556 1.961 . S
Li1498 O1558 1.956 . S
Li1498 O1559 1.970 . S
Li1499 N1549 1.990 . S
Li1499 O1557 1.961 . S
Li1499 O1558 1.970 . S
Li1499 O1559 1.956 . S
C1500 C1502 1.348 . S
C1500 C1503 1.356 . S
C1500 O1556 1.325 . S
N1501 C1504 1.314 . S
N1501 C1505 1.279 . S
C1502 C1500 1.348 . S
C1502 C1504 1.353 . S
C1502 H1560 0.929 . S
C1503 C1500 1.356 . S
C1503 C1505 1.358 . S
C1503 H1561 0.930 . S
C1504 N1501 1.314 . S
C1504 C1502 1.353 . S
C1504 H1562 0.930 . S
C1505 N1501 1.279 . S
C1505 C1503 1.358 . S
C1505 H1563 0.930 . S
C1506 C1509 1.348 . S
C1506 C1510 1.356 . S
C1506 O1557 1.325 . S
C1507 N1508 1.279 . S
C1507 C1510 1.358 . S
C1507 H1564 0.930 . S
N1508 C1507 1.279 . S
N1508 C1511 1.314 . S
C1509 C1506 1.348 . S
C1509 C1511 1.353 . S
C1509 H1565 0.929 . S
C1510 C1506 1.356 . S
C1510 C1507 1.358 . S
C1510 H1566 0.930 . S
C1511 N1508 1.314 . S
C1511 C1509 1.353 . S
C1511 H1567 0.930 . S
C1512 N1513 1.314 . S
C1512 C1517 1.353 . S
C1512 H1518 0.930 . S
N1513 Li1496 1.990 . S
N1513 C1512 1.314 . S
N1513 C1515 1.279 . S
C1514 C1515 1.358 . S
C1514 C1516 1.356 . S
C1514 H1568 0.930 . S
C1515 N1513 1.279 . S
C1515 C1514 1.358 . S
C1515 H1519 0.930 . S
C1516 C1514 1.356 . S
C1516 C1517 1.348 . S
C1517 C1512 1.353 . S
C1517 C1516 1.348 . S
C1517 H1569 0.929 . S
H1518 C1512 0.930 . S
H1519 C1515 0.930 . S
C1520 N1521 1.314 . S
C1520 C1522 1.353 . S
C1520 H1526 0.930 . S
N1521 Li1497 1.990 . S
N1521 C1520 1.314 . S
N1521 C1524 1.279 . S
C1522 C1520 1.353 . S
C1522 C1525 1.348 . S
C1522 H1570 0.929 . S
C1523 C1524 1.358 . S
C1523 C1525 1.356 . S
C1523 H1571 0.930 . S
C1524 N1521 1.279 . S
C1524 C1523 1.358 . S
C1524 H1527 0.930 . S
C1525 C1522 1.348 . S
C1525 C1523 1.356 . S
H1526 C1520 0.930 . S
H1527 C1524 0.930 . S
C1528 C1530 1.348 . S
C1528 C1531 1.356 . S
C1528 O1558 1.325 . S
N1529 C1532 1.314 . S
N1529 C1533 1.279 . S
C1530 C1528 1.348 . S
C1530 C1532 1.353 . S
C1530 H1572 0.929 . S
C1531 C1528 1.356 . S
C1531 C1533 1.358 . S
C1531 H1573 0.930 . S
C1532 N1529 1.314 . S
C1532 C1530 1.353 . S
C1532 H1574 0.930 . S
C1533 N1529 1.279 . S
C1533 C1531 1.358 . S
C1533 H1575 0.930 . S
C1534 C1535 1.348 . S
C1534 C1536 1.356 . S
C1534 O1559 1.325 . S
C1535 C1534 1.348 . S
C1535 C1537 1.353 . S
C1535 H1576 0.929 . S
C1536 C1534 1.356 . S
C1536 C1538 1.358 . S
C1536 H1577 0.930 . S
C1537 C1535 1.353 . S
C1537 N1539 1.314 . S
C1537 H1578 0.930 . S
C1538 C1536 1.358 . S
C1538 N1539 1.279 . S
C1538 H1579 0.930 . S
N1539 C1537 1.314 . S
N1539 C1538 1.279 . S
C1540 C1542 1.353 . S
C1540 N1543 1.314 . S
C1540 H1546 0.930 . S
C1541 N1543 1.279 . S
C1541 C1544 1.358 . S
C1541 H1547 0.930 . S
C1542 C1540 1.353 . S
C1542 C1545 1.348 . S
C1542 H1580 0.929 . S
N1543 Li1498 1.990 . S
N1543 C1540 1.314 . S
N1543 C1541 1.279 . S
C1544 C1541 1.358 . S
C1544 C1545 1.356 . S
C1544 H1581 0.930 . S
C1545 C1542 1.348 . S
C1545 C1544 1.356 . S
H1546 C1540 0.930 . S
H1547 C1541 0.930 . S
C1548 N1549 1.314 . S
C1548 C1550 1.353 . S
C1548 H1554 0.930 . S
N1549 Li1499 1.990 . S
N1549 C1548 1.314 . S
N1549 C1552 1.279 . S
C1550 C1548 1.353 . S
C1550 C1553 1.348 . S
C1550 H1582 0.929 . S
C1551 C1552 1.358 . S
C1551 C1553 1.356 . S
C1551 H1583 0.930 . S
C1552 N1549 1.279 . S
C1552 C1551 1.358 . S
C1552 H1555 0.930 . S
C1553 C1550 1.348 . S
C1553 C1551 1.356 . S
H1554 C1548 0.930 . S
H1555 C1552 0.930 . S
O1556 Li1496 1.956 . S
O1556 Li1497 1.970 . S
O1556 Li1498 1.961 . S
O1556 C1500 1.325 . S
O1557 Li1496 1.970 . S
O1557 Li1497 1.956 . S
O1557 Li1499 1.961 . S
O1557 C1506 1.325 . S
O1558 Li1496 1.961 . S
O1558 Li1498 1.956 . S
O1558 Li1499 1.970 . S
O1558 C1528 1.325 . S
O1559 Li1497 1.961 . S
O1559 Li1498 1.970 . S
O1559 Li1499 1.956 . S
O1559 C1534 1.325 . S
H1560 C1502 0.929 . S
H1561 C1503 0.930 . S
H1562 C1504 0.930 . S
H1563 C1505 0.930 . S
H1564 C1507 0.930 . S
H1565 C1509 0.929 . S
H1566 C1510 0.930 . S
H1567 C1511 0.930 . S
H1568 C1514 0.930 . S
H1569 C1517 0.929 . S
H1570 C1522 0.929 . S
H1571 C1523 0.930 . S
H1572 C1530 0.929 . S
H1573 C1531 0.930 . S
H1574 C1532 0.930 . S
H1575 C1533 0.930 . S
H1576 C1535 0.929 . S
H1577 C1536 0.930 . S
H1578 C1537 0.930 . S
H1579 C1538 0.930 . S
H1580 C1542 0.929 . S
H1581 C1544 0.930 . S
H1582 C1550 0.929 . S
H1583 C1551 0.930 . S
Li1584 N1601 1.990 . S
Li1584 O1644 1.956 . S
Li1584 O1645 1.970 . S
Li1584 O1646 1.961 . S
Li1585 N1609 1.990 . S
Li1585 O1644 1.970 . S
Li1585 O1645 1.956 . S
Li1585 O1647 1.961 . S
Li1586 N1631 1.990 . S
Li1586 O1644 1.961 . S
Li1586 O1646 1.956 . S
Li1586 O1647 1.970 . S
Li1587 N1637 1.990 . S
Li1587 O1645 1.961 . S
Li1587 O1646 1.970 . S
Li1587 O1647 1.956 . S
C1588 C1590 1.348 . S
C1588 C1591 1.356 . S
C1588 O1644 1.325 . S
N1589 C1592 1.314 . S
N1589 C1593 1.279 . S
C1590 C1588 1.348 . S
C1590 C1592 1.353 . S
C1590 H1648 0.929 . S
C1591 C1588 1.356 . S
C1591 C1593 1.358 . S
C1591 H1649 0.930 . S
C1592 N1589 1.314 . S
C1592 C1590 1.353 . S
C1592 H1650 0.930 . S
C1593 N1589 1.279 . S
C1593 C1591 1.358 . S
C1593 H1651 0.930 . S
C1594 C1597 1.348 . S
C1594 C1598 1.356 . S
C1594 O1645 1.325 . S
C1595 N1596 1.279 . S
C1595 C1598 1.358 . S
C1595 H1652 0.930 . S
N1596 C1595 1.279 . S
N1596 C1599 1.314 . S
C1597 C1594 1.348 . S
C1597 C1599 1.353 . S
C1597 H1653 0.929 . S
C1598 C1594 1.356 . S
C1598 C1595 1.358 . S
C1598 H1654 0.930 . S
C1599 N1596 1.314 . S
C1599 C1597 1.353 . S
C1599 H1655 0.930 . S
C1600 N1601 1.314 . S
C1600 C1605 1.353 . S
C1600 H1606 0.930 . S
N1601 Li1584 1.990 . S
N1601 C1600 1.314 . S
N1601 C1603 1.279 . S
C1602 C1603 1.358 . S
C1602 C1604 1.356 . S
C1602 H1656 0.930 . S
C1603 N1601 1.279 . S
C1603 C1602 1.358 . S
C1603 H1607 0.930 . S
C1604 C1602 1.356 . S
C1604 C1605 1.348 . S
C1605 C1600 1.353 . S
C1605 C1604 1.348 . S
C1605 H1657 0.929 . S
H1606 C1600 0.930 . S
H1607 C1603 0.930 . S
C1608 N1609 1.314 . S
C1608 C1610 1.353 . S
C1608 H1614 0.930 . S
N1609 Li1585 1.990 . S
N1609 C1608 1.314 . S
N1609 C1612 1.279 . S
C1610 C1608 1.353 . S
C1610 C1613 1.348 . S
C1610 H1658 0.929 . S
C1611 C1612 1.358 . S
C1611 C1613 1.356 . S
C1611 H1659 0.930 . S
C1612 N1609 1.279 . S
C1612 C1611 1.358 . S
C1612 H1615 0.930 . S
C1613 C1610 1.348 . S
C1613 C1611 1.356 . S
H1614 C1608 0.930 . S
H1615 C1612 0.930 . S
C1616 C1618 1.348 . S
C1616 C1619 1.356 . S
C1616 O1646 1.325 . S
N1617 C1620 1.314 . S
N1617 C1621 1.279 . S
C1618 C1616 1.348 . S
C1618 C1620 1.353 . S
C1618 H1660 0.929 . S
C1619 C1616 1.356 . S
C1619 C1621 1.358 . S
C1619 H1661 0.930 . S
C1620 N1617 1.314 . S
C1620 C1618 1.353 . S
C1620 H1662 0.930 . S
C1621 N1617 1.279 . S
C1621 C1619 1.358 . S
C1621 H1663 0.930 . S
C1622 C1623 1.348 . S
C1622 C1624 1.356 . S
C1622 O1647 1.325 . S
C1623 C1622 1.348 . S
C1623 C1625 1.353 1_554 S
C1623 H1664 0.929 . S
C1624 C1622 1.356 . S
C1624 C1626 1.358 . S
C1624 H1665 0.930 . S
C1625 C1623 1.353 1_556 S
C1625 N1627 1.314 . S
C1625 H1666 0.930 . S
C1626 C1624 1.358 . S
C1626 N1627 1.279 1_554 S
C1626 H1667 0.930 . S
N1627 C1625 1.314 . S
N1627 C1626 1.279 1_556 S
C1628 C1630 1.353 . S
C1628 N1631 1.314 . S
C1628 H1634 0.930 . S
C1629 N1631 1.279 . S
C1629 C1632 1.358 . S
C1629 H1635 0.930 . S
C1630 C1628 1.353 . S
C1630 C1633 1.326 1_554 S
C1630 H1668 0.929 . S
N1631 Li1586 1.990 . S
N1631 C1628 1.314 . S
N1631 C1629 1.279 . S
C1632 C1629 1.358 . S
C1632 C1633 1.350 1_554 S
C1632 H1669 0.930 1_554 S
C1633 C1630 1.326 1_556 S
C1633 C1632 1.350 1_556 S
H1634 C1628 0.930 . S
H1635 C1629 0.930 . S
C1636 N1637 1.314 . S
C1636 C1638 1.353 . S
C1636 H1642 0.930 . S
N1637 Li1587 1.990 . S
N1637 C1636 1.314 . S
N1637 C1640 1.279 . S
C1638 C1636 1.353 . S
C1638 C1641 1.348 . S
C1638 H1670 0.929 . S
C1639 C1640 1.358 . S
C1639 C1641 1.356 . S
C1639 H1671 0.930 . S
C1640 N1637 1.279 . S
C1640 C1639 1.358 . S
C1640 H1643 0.930 . S
C1641 C1638 1.348 . S
C1641 C1639 1.356 . S
H1642 C1636 0.930 . S
H1643 C1640 0.930 . S
O1644 Li1584 1.956 . S
O1644 Li1585 1.970 . S
O1644 Li1586 1.961 . S
O1644 C1588 1.325 . S
O1645 Li1584 1.970 . S
O1645 Li1585 1.956 . S
O1645 Li1587 1.961 . S
O1645 C1594 1.325 . S
O1646 Li1584 1.961 . S
O1646 Li1586 1.956 . S
O1646 Li1587 1.970 . S
O1646 C1616 1.325 . S
O1647 Li1585 1.961 . S
O1647 Li1586 1.970 . S
O1647 Li1587 1.956 . S
O1647 C1622 1.325 . S
H1648 C1590 0.929 . S
H1649 C1591 0.930 . S
H1650 C1592 0.930 . S
H1651 C1593 0.930 . S
H1652 C1595 0.930 . S
H1653 C1597 0.929 . S
H1654 C1598 0.930 . S
H1655 C1599 0.930 . S
H1656 C1602 0.930 . S
H1657 C1605 0.929 . S
H1658 C1610 0.929 . S
H1659 C1611 0.930 . S
H1660 C1618 0.929 . S
H1661 C1619 0.930 . S
H1662 C1620 0.930 . S
H1663 C1621 0.930 . S
H1664 C1623 0.929 . S
H1665 C1624 0.930 . S
H1666 C1625 0.930 . S
H1667 C1626 0.930 . S
H1668 C1630 0.929 . S
H1669 C1632 0.930 1_556 S
H1670 C1638 0.929 . S
H1671 C1639 0.930 . S
Li1672 N1689 1.990 . S
Li1672 O1732 1.956 . S
Li1672 O1733 1.970 . S
Li1672 O1734 1.961 . S
Li1673 N1697 1.990 . S
Li1673 O1732 1.970 . S
Li1673 O1733 1.956 . S
Li1673 O1735 1.961 . S
Li1674 N1719 1.990 . S
Li1674 O1732 1.961 . S
Li1674 O1734 1.956 . S
Li1674 O1735 1.970 . S
Li1675 N1725 1.990 . S
Li1675 O1733 1.961 . S
Li1675 O1734 1.970 . S
Li1675 O1735 1.956 . S
C1676 C1678 1.348 . S
C1676 C1679 1.356 . S
C1676 O1732 1.325 . S
N1677 C1680 1.314 . S
N1677 C1681 1.279 . S
C1678 C1676 1.348 . S
C1678 C1680 1.353 . S
C1678 H1736 0.929 . S
C1679 C1676 1.356 . S
C1679 C1681 1.358 . S
C1679 H1737 0.930 . S
C1680 N1677 1.314 . S
C1680 C1678 1.353 . S
C1680 H1738 0.930 . S
C1681 N1677 1.279 . S
C1681 C1679 1.358 . S
C1681 H1739 0.930 . S
C1682 C1685 1.348 . S
C1682 C1686 1.356 . S
C1682 O1733 1.325 . S
C1683 N1684 1.279 . S
C1683 C1686 1.358 . S
C1683 H1740 0.930 . S
N1684 C1683 1.279 . S
N1684 C1687 1.314 . S
C1685 C1682 1.348 . S
C1685 C1687 1.353 . S
C1685 H1741 0.929 . S
C1686 C1682 1.356 . S
C1686 C1683 1.358 . S
C1686 H1742 0.930 . S
C1687 N1684 1.314 . S
C1687 C1685 1.353 . S
C1687 H1743 0.930 . S
C1688 N1689 1.314 . S
C1688 C1693 1.353 . S
C1688 H1694 0.930 . S
N1689 Li1672 1.990 . S
N1689 C1688 1.314 . S
N1689 C1691 1.279 . S
C1690 C1691 1.358 . S
C1690 C1692 1.356 . S
C1690 H1744 0.930 . S
C1691 N1689 1.279 . S
C1691 C1690 1.358 . S
C1691 H1695 0.930 . S
C1692 C1690 1.356 . S
C1692 C1693 1.348 . S
C1693 C1688 1.353 . S
C1693 C1692 1.348 . S
C1693 H1745 0.929 . S
H1694 C1688 0.930 . S
H1695 C1691 0.930 . S
C1696 N1697 1.314 . S
C1696 C1698 1.353 . S
C1696 H1702 0.930 . S
N1697 Li1673 1.990 . S
N1697 C1696 1.314 . S
N1697 C1700 1.279 . S
C1698 C1696 1.353 . S
C1698 C1701 1.348 . S
C1698 H1746 0.929 . S
C1699 C1700 1.358 . S
C1699 C1701 1.356 . S
C1699 H1747 0.930 . S
C1700 N1697 1.279 . S
C1700 C1699 1.358 . S
C1700 H1703 0.930 . S
C1701 C1698 1.348 . S
C1701 C1699 1.356 . S
H1702 C1696 0.930 . S
H1703 C1700 0.930 . S
C1704 C1706 1.348 . S
C1704 C1707 1.356 . S
C1704 O1734 1.325 . S
N1705 C1708 1.314 . S
N1705 C1709 1.279 . S
C1706 C1704 1.348 . S
C1706 C1708 1.353 . S
C1706 H1748 0.929 . S
C1707 C1704 1.356 . S
C1707 C1709 1.358 . S
C1707 H1749 0.930 . S
C1708 N1705 1.314 . S
C1708 C1706 1.353 . S
C1708 H1750 0.930 . S
C1709 N1705 1.279 . S
C1709 C1707 1.358 . S
C1709 H1751 0.930 . S
C1710 C1711 1.348 . S
C1710 C1712 1.356 . S
C1710 O1735 1.325 . S
C1711 C1710 1.348 . S
C1711 C1713 1.353 . S
C1711 H1752 0.929 . S
C1712 C1710 1.356 . S
C1712 C1714 1.358 . S
C1712 H1753 0.930 . S
C1713 C1711 1.353 . S
C1713 N1715 1.314 . S
C1713 H1754 0.930 . S
C1714 C1712 1.358 . S
C1714 N1715 1.279 . S
C1714 H1755 0.930 . S
N1715 C1713 1.314 . S
N1715 C1714 1.279 . S
C1716 C1718 1.353 . S
C1716 N1719 1.314 . S
C1716 H1722 0.930 . S
C1717 N1719 1.279 . S
C1717 C1720 1.358 . S
C1717 H1723 0.930 . S
C1718 C1716 1.353 . S
C1718 C1721 1.348 . S
C1718 H1756 0.929 . S
N1719 Li1674 1.990 . S
N1719 C1716 1.314 . S
N1719 C1717 1.279 . S
C1720 C1717 1.358 . S
C1720 C1721 1.356 . S
C1720 H1757 0.930 . S
C1721 C1718 1.348 . S
C1721 C1720 1.356 . S
H1722 C1716 0.930 . S
H1723 C1717 0.930 . S
C1724 N1725 1.314 . S
C1724 C1726 1.353 . S
C1724 H1730 0.930 . S
N1725 Li1675 1.990 . S
N1725 C1724 1.314 . S
N1725 C1728 1.279 . S
C1726 C1724 1.353 . S
C1726 C1729 1.348 . S
C1726 H1758 0.929 . S
C1727 C1728 1.358 . S
C1727 C1729 1.356 . S
C1727 H1759 0.930 . S
C1728 N1725 1.279 . S
C1728 C1727 1.358 . S
C1728 H1731 0.930 . S
C1729 C1726 1.348 . S
C1729 C1727 1.356 . S
H1730 C1724 0.930 . S
H1731 C1728 0.930 . S
O1732 Li1672 1.956 . S
O1732 Li1673 1.970 . S
O1732 Li1674 1.961 . S
O1732 C1676 1.325 . S
O1733 Li1672 1.970 . S
O1733 Li1673 1.956 . S
O1733 Li1675 1.961 . S
O1733 C1682 1.325 . S
O1734 Li1672 1.961 . S
O1734 Li1674 1.956 . S
O1734 Li1675 1.970 . S
O1734 C1704 1.325 . S
O1735 Li1673 1.961 . S
O1735 Li1674 1.970 . S
O1735 Li1675 1.956 . S
O1735 C1710 1.325 . S
H1736 C1678 0.929 . S
H1737 C1679 0.930 . S
H1738 C1680 0.930 . S
H1739 C1681 0.930 . S
H1740 C1683 0.930 . S
H1741 C1685 0.929 . S
H1742 C1686 0.930 . S
H1743 C1687 0.930 . S
H1744 C1690 0.930 . S
H1745 C1693 0.929 . S
H1746 C1698 0.929 . S
H1747 C1699 0.930 . S
H1748 C1706 0.929 . S
H1749 C1707 0.930 . S
H1750 C1708 0.930 . S
H1751 C1709 0.930 . S
H1752 C1711 0.929 . S
H1753 C1712 0.930 . S
H1754 C1713 0.930 . S
H1755 C1714 0.930 . S
H1756 C1718 0.929 . S
H1757 C1720 0.930 . S
H1758 C1726 0.929 . S
H1759 C1727 0.930 . S
Li1760 N1777 1.990 . S
Li1760 O1820 1.956 . S
Li1760 O1821 1.970 . S
Li1760 O1822 1.961 . S
Li1761 N1785 1.990 . S
Li1761 O1820 1.970 . S
Li1761 O1821 1.956 . S
Li1761 O1823 1.961 . S
Li1762 N1807 1.990 . S
Li1762 O1820 1.961 . S
Li1762 O1822 1.956 . S
Li1762 O1823 1.970 . S
Li1763 N1813 1.990 . S
Li1763 O1821 1.961 . S
Li1763 O1822 1.970 . S
Li1763 O1823 1.956 . S
C1764 C1766 1.348 . S
C1764 C1767 1.356 . S
C1764 O1820 1.325 . S
N1765 C1768 1.314 . S
N1765 C1769 1.279 . S
C1766 C1764 1.348 . S
C1766 C1768 1.353 . S
C1766 H1824 0.929 . S
C1767 C1764 1.356 . S
C1767 C1769 1.358 . S
C1767 H1825 0.930 . S
C1768 N1765 1.314 . S
C1768 C1766 1.353 . S
C1768 H1826 0.930 . S
C1769 N1765 1.279 . S
C1769 C1767 1.358 . S
C1769 H1827 0.930 . S
C1770 C1773 1.348 . S
C1770 C1774 1.356 . S
C1770 O1821 1.325 . S
C1771 N1772 1.279 . S
C1771 C1774 1.358 . S
C1771 H1828 0.930 . S
N1772 C1771 1.279 . S
N1772 C1775 1.314 . S
C1773 C1770 1.348 . S
C1773 C1775 1.353 . S
C1773 H1829 0.929 . S
C1774 C1770 1.356 . S
C1774 C1771 1.358 . S
C1774 H1830 0.930 . S
C1775 N1772 1.314 . S
C1775 C1773 1.353 . S
C1775 H1831 0.930 . S
C1776 N1777 1.314 . S
C1776 C1781 1.353 . S
C1776 H1782 0.930 . S
N1777 Li1760 1.990 . S
N1777 C1776 1.314 . S
N1777 C1779 1.279 . S
C1778 C1779 1.358 . S
C1778 C1780 1.356 . S
C1778 H1832 0.930 . S
C1779 N1777 1.279 . S
C1779 C1778 1.358 . S
C1779 H1783 0.930 . S
C1780 C1778 1.356 . S
C1780 C1781 1.348 . S
C1781 C1776 1.353 . S
C1781 C1780 1.348 . S
C1781 H1833 0.929 . S
H1782 C1776 0.930 . S
H1783 C1779 0.930 . S
C1784 N1785 1.314 . S
C1784 C1786 1.353 . S
C1784 H1790 0.930 . S
N1785 Li1761 1.990 . S
N1785 C1784 1.314 . S
N1785 C1788 1.279 . S
C1786 C1784 1.353 . S
C1786 C1789 1.348 . S
C1786 H1834 0.929 . S
C1787 C1788 1.358 . S
C1787 C1789 1.356 . S
C1787 H1835 0.930 . S
C1788 N1785 1.279 . S
C1788 C1787 1.358 . S
C1788 H1791 0.930 . S
C1789 C1786 1.348 . S
C1789 C1787 1.356 . S
H1790 C1784 0.930 . S
H1791 C1788 0.930 . S
C1792 C1794 1.348 . S
C1792 C1795 1.356 . S
C1792 O1822 1.325 . S
N1793 C1796 1.314 . S
N1793 C1797 1.279 . S
C1794 C1792 1.348 . S
C1794 C1796 1.353 . S
C1794 H1836 0.929 . S
C1795 C1792 1.356 . S
C1795 C1797 1.358 . S
C1795 H1837 0.930 . S
C1796 N1793 1.314 . S
C1796 C1794 1.353 . S
C1796 H1838 0.930 . S
C1797 N1793 1.279 . S
C1797 C1795 1.358 . S
C1797 H1839 0.930 . S
C1798 C1799 1.348 . S
C1798 C1800 1.356 . S
C1798 O1823 1.325 . S
C1799 C1798 1.348 . S
C1799 C1801 1.353 . S
C1799 H1840 0.929 . S
C1800 C1798 1.356 . S
C1800 C1802 1.358 . S
C1800 H1841 0.930 . S
C1801 C1799 1.353 . S
C1801 N1803 1.314 . S
C1801 H1842 0.930 . S
C1802 C1800 1.358 . S
C1802 N1803 1.279 . S
C1802 H1843 0.930 . S
N1803 C1801 1.314 . S
N1803 C1802 1.279 . S
C1804 C1806 1.353 . S
C1804 N1807 1.314 . S
C1804 H1810 0.930 . S
C1805 N1807 1.279 . S
C1805 C1808 1.358 . S
C1805 H1811 0.930 . S
C1806 C1804 1.353 . S
C1806 C1809 1.348 . S
C1806 H1844 0.929 . S
N1807 Li1762 1.990 . S
N1807 C1804 1.314 . S
N1807 C1805 1.279 . S
C1808 C1805 1.358 . S
C1808 C1809 1.356 . S
C1808 H1845 0.930 . S
C1809 C1806 1.348 . S
C1809 C1808 1.356 . S
H1810 C1804 0.930 . S
H1811 C1805 0.930 . S
C1812 N1813 1.314 . S
C1812 C1814 1.353 . S
C1812 H1818 0.930 . S
N1813 Li1763 1.990 . S
N1813 C1812 1.314 . S
N1813 C1816 1.279 . S
C1814 C1812 1.353 . S
C1814 C1817 1.348 . S
C1814 H1846 0.929 . S
C1815 C1816 1.358 . S
C1815 C1817 1.356 . S
C1815 H1847 0.930 . S
C1816 N1813 1.279 . S
C1816 C1815 1.358 . S
C1816 H1819 0.930 . S
C1817 C1814 1.348 . S
C1817 C1815 1.356 . S
H1818 C1812 0.930 . S
H1819 C1816 0.930 . S
O1820 Li1760 1.956 . S
O1820 Li1761 1.970 . S
O1820 Li1762 1.961 . S
O1820 C1764 1.325 . S
O1821 Li1760 1.970 . S
O1821 Li1761 1.956 . S
O1821 Li1763 1.961 . S
O1821 C1770 1.325 . S
O1822 Li1760 1.961 . S
O1822 Li1762 1.956 . S
O1822 Li1763 1.970 . S
O1822 C1792 1.325 . S
O1823 Li1761 1.961 . S
O1823 Li1762 1.970 . S
O1823 Li1763 1.956 . S
O1823 C1798 1.325 . S
H1824 C1766 0.929 . S
H1825 C1767 0.930 . S
H1826 C1768 0.930 . S
H1827 C1769 0.930 . S
H1828 C1771 0.930 . S
H1829 C1773 0.929 . S
H1830 C1774 0.930 . S
H1831 C1775 0.930 . S
H1832 C1778 0.930 . S
H1833 C1781 0.929 . S
H1834 C1786 0.929 . S
H1835 C1787 0.930 . S
H1836 C1794 0.929 . S
H1837 C1795 0.930 . S
H1838 C1796 0.930 . S
H1839 C1797 0.930 . S
H1840 C1799 0.929 . S
H1841 C1800 0.930 . S
H1842 C1801 0.930 . S
H1843 C1802 0.930 . S
H1844 C1806 0.929 . S
H1845 C1808 0.930 . S
H1846 C1814 0.929 . S
H1847 C1815 0.930 . S
Li1848 N1865 1.990 . S
Li1848 O1908 1.956 . S
Li1848 O1909 1.970 . S
Li1848 O1910 1.961 . S
Li1849 N1873 1.990 . S
Li1849 O1908 1.970 . S
Li1849 O1909 1.956 . S
Li1849 O1911 1.961 . S
Li1850 N1895 1.990 . S
Li1850 O1908 1.961 . S
Li1850 O1910 1.956 . S
Li1850 O1911 1.970 . S
Li1851 N1901 1.990 . S
Li1851 O1909 1.961 . S
Li1851 O1910 1.970 . S
Li1851 O1911 1.956 . S
C1852 C1854 1.348 . S
C1852 C1855 1.356 . S
C1852 O1908 1.325 . S
N1853 C1856 1.314 . S
N1853 C1857 1.279 . S
C1854 C1852 1.348 . S
C1854 C1856 1.353 . S
C1854 H1912 0.929 . S
C1855 C1852 1.356 . S
C1855 C1857 1.358 . S
C1855 H1913 0.930 . S
C1856 N1853 1.314 . S
C1856 C1854 1.353 . S
C1856 H1914 0.930 . S
C1857 N1853 1.279 . S
C1857 C1855 1.358 . S
C1857 H1915 0.930 . S
C1858 C1861 1.348 . S
C1858 C1862 1.356 . S
C1858 O1909 1.325 . S
C1859 N1860 1.279 . S
C1859 C1862 1.358 . S
C1859 H1916 0.930 . S
N1860 C1859 1.279 . S
N1860 C1863 1.314 . S
C1861 C1858 1.348 . S
C1861 C1863 1.353 . S
C1861 H1917 0.929 . S
C1862 C1858 1.356 . S
C1862 C1859 1.358 . S
C1862 H1918 0.930 . S
C1863 N1860 1.314 . S
C1863 C1861 1.353 . S
C1863 H1919 0.930 . S
C1864 N1865 1.314 . S
C1864 C1869 1.353 . S
C1864 H1870 0.930 . S
N1865 Li1848 1.990 . S
N1865 C1864 1.314 . S
N1865 C1867 1.279 . S
C1866 C1867 1.358 . S
C1866 C1868 1.356 . S
C1866 H1920 0.930 . S
C1867 N1865 1.279 . S
C1867 C1866 1.358 . S
C1867 H1871 0.930 . S
C1868 C1866 1.356 . S
C1868 C1869 1.348 . S
C1869 C1864 1.353 . S
C1869 C1868 1.348 . S
C1869 H1921 0.929 . S
H1870 C1864 0.930 . S
H1871 C1867 0.930 . S
C1872 N1873 1.314 . S
C1872 C1874 1.353 . S
C1872 H1878 0.930 . S
N1873 Li1849 1.990 . S
N1873 C1872 1.314 . S
N1873 C1876 1.279 . S
C1874 C1872 1.353 . S
C1874 C1877 1.348 . S
C1874 H1922 0.929 . S
C1875 C1876 1.358 . S
C1875 C1877 1.356 . S
C1875 H1923 0.930 . S
C1876 N1873 1.279 . S
C1876 C1875 1.358 . S
C1876 H1879 0.930 . S
C1877 C1874 1.348 . S
C1877 C1875 1.356 . S
H1878 C1872 0.930 . S
H1879 C1876 0.930 . S
C1880 C1882 1.348 . S
C1880 C1883 1.356 . S
C1880 O1910 1.325 . S
N1881 C1884 1.314 . S
N1881 C1885 1.279 . S
C1882 C1880 1.348 . S
C1882 C1884 1.353 . S
C1882 H1924 0.929 . S
C1883 C1880 1.356 . S
C1883 C1885 1.358 . S
C1883 H1925 0.930 . S
C1884 N1881 1.314 . S
C1884 C1882 1.353 . S
C1884 H1926 0.930 . S
C1885 N1881 1.279 . S
C1885 C1883 1.358 . S
C1885 H1927 0.930 . S
C1886 C1887 1.348 . S
C1886 C1888 1.356 . S
C1886 O1911 1.325 . S
C1887 C1886 1.348 . S
C1887 C1889 1.353 . S
C1887 H1928 0.929 . S
C1888 C1886 1.356 . S
C1888 C1890 1.358 . S
C1888 H1929 0.930 . S
C1889 C1887 1.353 . S
C1889 N1891 1.314 . S
C1889 H1930 0.930 . S
C1890 C1888 1.358 . S
C1890 N1891 1.279 . S
C1890 H1931 0.930 . S
N1891 C1889 1.314 . S
N1891 C1890 1.279 . S
C1892 C1894 1.353 . S
C1892 N1895 1.314 . S
C1892 H1898 0.930 . S
C1893 N1895 1.279 . S
C1893 C1896 1.358 . S
C1893 H1899 0.930 . S
C1894 C1892 1.353 . S
C1894 C1897 1.348 . S
C1894 H1932 0.929 . S
N1895 Li1850 1.990 . S
N1895 C1892 1.314 . S
N1895 C1893 1.279 . S
C1896 C1893 1.358 . S
C1896 C1897 1.356 . S
C1896 H1933 0.930 . S
C1897 C1894 1.348 . S
C1897 C1896 1.356 . S
H1898 C1892 0.930 . S
H1899 C1893 0.930 . S
C1900 N1901 1.314 . S
C1900 C1902 1.353 . S
C1900 H1906 0.930 . S
N1901 Li1851 1.990 . S
N1901 C1900 1.314 . S
N1901 C1904 1.279 . S
C1902 C1900 1.353 . S
C1902 C1905 1.348 . S
C1902 H1934 0.929 . S
C1903 C1904 1.358 . S
C1903 C1905 1.356 . S
C1903 H1935 0.930 . S
C1904 N1901 1.279 . S
C1904 C1903 1.358 . S
C1904 H1907 0.930 . S
C1905 C1902 1.348 . S
C1905 C1903 1.356 . S
H1906 C1900 0.930 . S
H1907 C1904 0.930 . S
O1908 Li1848 1.956 . S
O1908 Li1849 1.970 . S
O1908 Li1850 1.961 . S
O1908 C1852 1.325 . S
O1909 Li1848 1.970 . S
O1909 Li1849 1.956 . S
O1909 Li1851 1.961 . S
O1909 C1858 1.325 . S
O1910 Li1848 1.961 . S
O1910 Li1850 1.956 . S
O1910 Li1851 1.970 . S
O1910 C1880 1.325 . S
O1911 Li1849 1.961 . S
O1911 Li1850 1.970 . S
O1911 Li1851 1.956 . S
O1911 C1886 1.325 . S
H1912 C1854 0.929 . S
H1913 C1855 0.930 . S
H1914 C1856 0.930 . S
H1915 C1857 0.930 . S
H1916 C1859 0.930 . S
H1917 C1861 0.929 . S
H1918 C1862 0.930 . S
H1919 C1863 0.930 . S
H1920 C1866 0.930 . S
H1921 C1869 0.929 . S
H1922 C1874 0.929 . S
H1923 C1875 0.930 . S
H1924 C1882 0.929 . S
H1925 C1883 0.930 . S
H1926 C1884 0.930 . S
H1927 C1885 0.930 . S
H1928 C1887 0.929 . S
H1929 C1888 0.930 . S
H1930 C1889 0.930 . S
H1931 C1890 0.930 . S
H1932 C1894 0.929 . S
H1933 C1896 0.930 . S
H1934 C1902 0.929 . S
H1935 C1903 0.930 . S
Li1936 N1953 1.990 . S
Li1936 O1996 1.956 . S
Li1936 O1997 1.970 . S
Li1936 O1998 1.961 . S
Li1937 N1961 1.990 . S
Li1937 O1996 1.970 . S
Li1937 O1997 1.956 . S
Li1937 O1999 1.961 . S
Li1938 N1983 1.990 . S
Li1938 O1996 1.961 . S
Li1938 O1998 1.956 . S
Li1938 O1999 1.970 . S
Li1939 N1989 1.990 . S
Li1939 O1997 1.961 . S
Li1939 O1998 1.970 . S
Li1939 O1999 1.956 . S
C1940 C1942 1.348 . S
C1940 C1943 1.356 . S
C1940 O1996 1.325 . S
N1941 C1944 1.314 . S
N1941 C1945 1.279 1_565 S
C1942 C1940 1.348 . S
C1942 C1944 1.353 . S
C1942 H2000 0.929 . S
C1943 C1940 1.356 . S
C1943 C1945 1.358 1_565 S
C1943 H2001 0.930 . S
C1944 N1941 1.314 . S
C1944 C1942 1.353 . S
C1944 H2002 0.930 . S
C1945 N1941 1.279 1_545 S
C1945 C1943 1.358 1_545 S
C1945 H2003 0.930 . S
C1946 C1949 1.348 . S
C1946 C1950 1.356 . S
C1946 O1997 1.325 . S
C1947 N1948 1.279 1_556 S
C1947 C1950 1.358 . S
C1947 H2004 0.930 . S
N1948 C1947 1.279 1_554 S
N1948 C1951 1.314 . S
C1949 C1946 1.348 . S
C1949 C1951 1.353 1_556 S
C1949 H2005 0.929 . S
C1950 C1946 1.356 . S
C1950 C1947 1.358 . S
C1950 H2006 0.930 . S
C1951 N1948 1.314 . S
C1951 C1949 1.353 1_554 S
C1951 H2007 0.930 . S
C1952 N1953 1.314 . S
C1952 C1957 1.353 1_565 S
C1952 H1958 0.930 . S
N1953 Li1936 1.990 . S
N1953 C1952 1.314 . S
N1953 C1955 1.279 . S
C1954 C1955 1.358 1_545 S
C1954 C1956 1.350 1_556 S
C1954 H2008 0.930 1_556 S
C1955 N1953 1.279 . S
C1955 C1954 1.358 1_565 S
C1955 H1959 0.930 . S
C1956 C1954 1.350 1_554 S
C1956 C1957 1.327 1_554 S
C1957 C1952 1.353 1_545 S
C1957 C1956 1.327 1_556 S
C1957 H2009 0.929 . S
H1958 C1952 0.930 . S
H1959 C1955 0.930 . S
C1960 N1961 1.314 . S
C1960 C1962 1.353 . S
C1960 H1966 0.930 . S
N1961 Li1937 1.990 . S
N1961 C1960 1.314 . S
N1961 C1964 1.279 . S
C1962 C1960 1.353 . S
C1962 C1965 1.348 . S
C1962 H2010 0.929 . S
C1963 C1964 1.358 . S
C1963 C1965 1.356 . S
C1963 H2011 0.930 . S
C1964 N1961 1.279 . S
C1964 C1963 1.358 . S
C1964 H1967 0.930 . S
C1965 C1962 1.348 . S
C1965 C1963 1.356 . S
H1966 C1960 0.930 . S
H1967 C1964 0.930 . S
C1968 C1970 1.348 . S
C1968 C1971 1.356 . S
C1968 O1998 1.325 . S
N1969 C1972 1.314 1_545 S
N1969 C1973 1.279 . S
C1970 C1968 1.348 . S
C1970 C1972 1.353 . S
C1970 H2012 0.929 . S
C1971 C1968 1.356 . S
C1971 C1973 1.358 1_565 S
C1971 H2013 0.930 1_565 S
C1972 N1969 1.314 1_565 S
C1972 C1970 1.353 . S
C1972 H2014 0.930 . S
C1973 N1969 1.279 . S
C1973 C1971 1.358 1_545 S
C1973 H2015 0.930 . S
C1974 C1975 1.348 . S
C1974 C1976 1.356 . S
C1974 O1999 1.325 . S
C1975 C1974 1.348 . S
C1975 C1977 1.353 . S
C1975 H2016 0.929 . S
C1976 C1974 1.356 . S
C1976 C1978 1.358 . S
C1976 H2017 0.930 . S
C1977 C1975 1.353 . S
C1977 N1979 1.314 . S
C1977 H2018 0.930 . S
C1978 C1976 1.358 . S
C1978 N1979 1.279 . S
C1978 H2019 0.930 . S
N1979 C1977 1.314 . S
N1979 C1978 1.279 . S
C1980 C1982 1.353 . S
C1980 N1983 1.314 . S
C1980 H1986 0.930 . S
C1981 N1983 1.279 . S
C1981 C1984 1.358 . S
C1981 H1987 0.930 . S
C1982 C1980 1.353 . S
C1982 C1985 1.348 . S
C1982 H2020 0.929 . S
N1983 Li1938 1.990 . S
N1983 C1980 1.314 . S
N1983 C1981 1.279 . S
C1984 C1981 1.358 . S
C1984 C1985 1.356 . S
C1984 H2021 0.930 1_565 S
C1985 C1982 1.348 . S
C1985 C1984 1.356 . S
H1986 C1980 0.930 . S
H1987 C1981 0.930 . S
C1988 N1989 1.314 . S
C1988 C1990 1.353 . S
C1988 H1994 0.930 . S
N1989 Li1939 1.990 . S
N1989 C1988 1.314 . S
N1989 C1992 1.279 . S
C1990 C1988 1.353 . S
C1990 C1993 1.348 . S
C1990 H2022 0.929 . S
C1991 C1992 1.358 . S
C1991 C1993 1.356 . S
C1991 H2023 0.930 . S
C1992 N1989 1.279 . S
C1992 C1991 1.358 . S
C1992 H1995 0.930 . S
C1993 C1990 1.348 . S
C1993 C1991 1.356 . S
H1994 C1988 0.930 . S
H1995 C1992 0.930 . S
O1996 Li1936 1.956 . S
O1996 Li1937 1.970 . S
O1996 Li1938 1.961 . S
O1996 C1940 1.325 . S
O1997 Li1936 1.970 . S
O1997 Li1937 1.956 . S
O1997 Li1939 1.961 . S
O1997 C1946 1.325 . S
O1998 Li1936 1.961 . S
O1998 Li1938 1.956 . S
O1998 Li1939 1.970 . S
O1998 C1968 1.325 . S
O1999 Li1937 1.961 . S
O1999 Li1938 1.970 . S
O1999 Li1939 1.956 . S
O1999 C1974 1.325 . S
H2000 C1942 0.929 . S
H2001 C1943 0.930 . S
H2002 C1944 0.930 . S
H2003 C1945 0.930 . S
H2004 C1947 0.930 . S
H2005 C1949 0.929 . S
H2006 C1950 0.930 . S
H2007 C1951 0.930 . S
H2008 C1954 0.930 1_554 S
H2009 C1957 0.929 . S
H2010 C1962 0.929 . S
H2011 C1963 0.930 . S
H2012 C1970 0.929 . S
H2013 C1971 0.930 1_545 S
H2014 C1972 0.930 . S
H2015 C1973 0.930 . S
H2016 C1975 0.929 . S
H2017 C1976 0.930 . S
H2018 C1977 0.930 . S
H2019 C1978 0.930 . S
H2020 C1982 0.929 . S
H2021 C1984 0.930 1_545 S
H2022 C1990 0.929 . S
H2023 C1991 0.930 . S
Li2024 N2041 1.990 . S
Li2024 O2084 1.956 . S
Li2024 O2085 1.970 . S
Li2024 O2086 1.961 . S
Li2025 N2049 1.990 . S
Li2025 O2084 1.970 . S
Li2025 O2085 1.956 . S
Li2025 O2087 1.961 . S
Li2026 N2071 1.990 . S
Li2026 O2084 1.961 . S
Li2026 O2086 1.956 . S
Li2026 O2087 1.970 . S
Li2027 N2077 1.990 . S
Li2027 O2085 1.961 . S
Li2027 O2086 1.970 . S
Li2027 O2087 1.956 . S
C2028 C2030 1.348 . S
C2028 C2031 1.356 . S
C2028 O2084 1.325 . S
N2029 C2032 1.314 . S
N2029 C2033 1.279 1_545 S
C2030 C2028 1.348 . S
C2030 C2032 1.353 . S
C2030 H2088 0.929 . S
C2031 C2028 1.356 . S
C2031 C2033 1.358 1_545 S
C2031 H2089 0.930 . S
C2032 N2029 1.314 . S
C2032 C2030 1.353 . S
C2032 H2090 0.930 . S
C2033 N2029 1.279 1_565 S
C2033 C2031 1.358 1_565 S
C2033 H2091 0.930 . S
C2034 C2037 1.348 . S
C2034 C2038 1.356 . S
C2034 O2085 1.325 . S
C2035 N2036 1.279 . S
C2035 C2038 1.358 . S
C2035 H2092 0.930 . S
N2036 C2035 1.279 . S
N2036 C2039 1.314 . S
C2037 C2034 1.348 . S
C2037 C2039 1.353 . S
C2037 H2093 0.929 . S
C2038 C2034 1.356 . S
C2038 C2035 1.358 . S
C2038 H2094 0.930 . S
C2039 N2036 1.314 . S
C2039 C2037 1.353 . S
C2039 H2095 0.930 . S
C2040 N2041 1.314 . S
C2040 C2045 1.353 1_545 S
C2040 H2046 0.930 . S
N2041 Li2024 1.990 . S
N2041 C2040 1.314 . S
N2041 C2043 1.279 . S
C2042 C2043 1.358 1_565 S
C2042 C2044 1.356 . S
C2042 H2096 0.930 . S
C2043 N2041 1.279 . S
C2043 C2042 1.358 1_545 S
C2043 H2047 0.930 . S
C2044 C2042 1.356 . S
C2044 C2045 1.348 . S
C2045 C2040 1.353 1_565 S
C2045 C2044 1.348 . S
C2045 H2097 0.929 . S
H2046 C2040 0.930 . S
H2047 C2043 0.930 . S
C2048 N2049 1.314 . S
C2048 C2050 1.353 . S
C2048 H2054 0.930 . S
N2049 Li2025 1.990 . S
N2049 C2048 1.314 . S
N2049 C2052 1.279 . S
C2050 C2048 1.353 . S
C2050 C2053 1.348 . S
C2050 H2098 0.929 . S
C2051 C2052 1.358 . S
C2051 C2053 1.356 . S
C2051 H2099 0.930 . S
C2052 N2049 1.279 . S
C2052 C2051 1.358 . S
C2052 H2055 0.930 . S
C2053 C2050 1.348 . S
C2053 C2051 1.356 . S
H2054 C2048 0.930 . S
H2055 C2052 0.930 . S
C2056 C2058 1.348 . S
C2056 C2059 1.356 . S
C2056 O2086 1.325 . S
N2057 C2060 1.314 1_565 S
N2057 C2061 1.279 . S
C2058 C2056 1.348 . S
C2058 C2060 1.353 . S
C2058 H2100 0.929 . S
C2059 C2056 1.356 . S
C2059 C2061 1.358 1_545 S
C2059 H2101 0.930 1_545 S
C2060 N2057 1.314 1_545 S
C2060 C2058 1.353 . S
C2060 H2102 0.930 . S
C2061 N2057 1.279 . S
C2061 C2059 1.358 1_565 S
C2061 H2103 0.930 . S
C2062 C2063 1.348 . S
C2062 C2064 1.356 . S
C2062 O2087 1.325 . S
C2063 C2062 1.348 . S
C2063 C2065 1.353 . S
C2063 H2104 0.929 . S
C2064 C2062 1.356 . S
C2064 C2066 1.358 . S
C2064 H2105 0.930 . S
C2065 C2063 1.353 . S
C2065 N2067 1.314 . S
C2065 H2106 0.930 . S
C2066 C2064 1.358 . S
C2066 N2067 1.279 . S
C2066 H2107 0.930 . S
N2067 C2065 1.314 . S
N2067 C2066 1.279 . S
C2068 C2070 1.353 . S
C2068 N2071 1.314 . S
C2068 H2074 0.930 . S
C2069 N2071 1.279 . S
C2069 C2072 1.358 . S
C2069 H2075 0.930 . S
C2070 C2068 1.353 . S
C2070 C2073 1.348 . S
C2070 H2108 0.929 . S
N2071 Li2026 1.990 . S
N2071 C2068 1.314 . S
N2071 C2069 1.279 . S
C2072 C2069 1.358 . S
C2072 C2073 1.356 . S
C2072 H2109 0.930 1_545 S
C2073 C2070 1.348 . S
C2073 C2072 1.356 . S
H2074 C2068 0.930 . S
H2075 C2069 0.930 . S
C2076 N2077 1.314 . S
C2076 C2078 1.353 . S
C2076 H2082 0.930 . S
N2077 Li2027 1.990 . S
N2077 C2076 1.314 . S
N2077 C2080 1.279 . S
C2078 C2076 1.353 . S
C2078 C2081 1.348 . S
C2078 H2110 0.929 . S
C2079 C2080 1.358 . S
C2079 C2081 1.356 . S
C2079 H2111 0.930 . S
C2080 N2077 1.279 . S
C2080 C2079 1.358 . S
C2080 H2083 0.930 . S
C2081 C2078 1.348 . S
C2081 C2079 1.356 . S
H2082 C2076 0.930 . S
H2083 C2080 0.930 . S
O2084 Li2024 1.956 . S
O2084 Li2025 1.970 . S
O2084 Li2026 1.961 . S
O2084 C2028 1.325 . S
O2085 Li2024 1.970 . S
O2085 Li2025 1.956 . S
O2085 Li2027 1.961 . S
O2085 C2034 1.325 . S
O2086 Li2024 1.961 . S
O2086 Li2026 1.956 . S
O2086 Li2027 1.970 . S
O2086 C2056 1.325 . S
O2087 Li2025 1.961 . S
O2087 Li2026 1.970 . S
O2087 Li2027 1.956 . S
O2087 C2062 1.325 . S
H2088 C2030 0.929 . S
H2089 C2031 0.930 . S
H2090 C2032 0.930 . S
H2091 C2033 0.930 . S
H2092 C2035 0.930 . S
H2093 C2037 0.929 . S
H2094 C2038 0.930 . S
H2095 C2039 0.930 . S
H2096 C2042 0.930 . S
H2097 C2045 0.929 . S
H2098 C2050 0.929 . S
H2099 C2051 0.930 . S
H2100 C2058 0.929 . S
H2101 C2059 0.930 1_565 S
H2102 C2060 0.930 . S
H2103 C2061 0.930 . S
H2104 C2063 0.929 . S
H2105 C2064 0.930 . S
H2106 C2065 0.930 . S
H2107 C2066 0.930 . S
H2108 C2070 0.929 . S
H2109 C2072 0.930 1_565 S
H2110 C2078 0.929 . S
H2111 C2079 0.930 . S
H2112 C2120 0.950 . S
H2113 C2125 0.950 . S
H2114 C2122 0.950 . S
H2115 C2124 0.950 . S
H2116 C2126 0.950 . S
H2117 C2128 0.950 . S
H2118 C2130 0.950 . S
H2119 C2131 0.950 . S
C2120 H2112 0.950 . S
C2120 C2121 1.386 . S
C2120 C2122 1.391 . S
C2121 C2120 1.386 . S
C2121 C2125 1.393 . S
C2122 H2114 0.950 . S
C2122 C2120 1.391 . S
C2122 C2123 1.400 . S
C2123 C2122 1.400 . S
C2123 C2124 1.398 . S
C2123 C2129 1.491 . S
C2124 H2115 0.950 . S
C2124 C2123 1.398 . S
C2124 C2125 1.391 . S
C2125 H2113 0.950 . S
C2125 C2121 1.393 . S
C2125 C2124 1.391 . S
C2126 H2116 0.950 . S
C2126 C2127 1.386 . S
C2126 C2128 1.391 . S
C2127 C2126 1.386 . S
C2127 C2131 1.393 . S
C2128 H2117 0.950 . S
C2128 C2126 1.391 . S
C2128 C2129 1.400 . S
C2129 C2123 1.491 . S
C2129 C2128 1.400 . S
C2129 C2130 1.398 . S
C2130 H2118 0.950 . S
C2130 C2129 1.398 . S
C2130 C2131 1.391 . S
C2131 H2119 0.950 . S
C2131 C2127 1.393 . S
C2131 C2130 1.391 . S
H2132 C2140 0.950 1_655 S
H2133 C2145 0.950 . S
H2134 C2142 0.950 . S
H2135 C2144 0.950 . S
H2136 C2146 0.950 . S
H2137 C2148 0.950 . S
H2138 C2150 0.950 . S
H2139 C2151 0.950 . S
C2140 H2132 0.950 1_455 S
C2140 C2141 1.386 . S
C2140 C2142 1.391 . S
C2141 C2140 1.386 . S
C2141 C2145 1.393 . S
C2142 H2134 0.950 . S
C2142 C2140 1.391 . S
C2142 C2143 1.400 . S
C2143 C2142 1.400 . S
C2143 C2144 1.398 . S
C2143 C2149 1.491 . S
C2144 H2135 0.950 . S
C2144 C2143 1.398 . S
C2144 C2145 1.391 . S
C2145 H2133 0.950 . S
C2145 C2141 1.393 . S
C2145 C2144 1.391 . S
C2146 H2136 0.950 . S
C2146 C2147 1.386 . S
C2146 C2148 1.391 . S
C2147 C2146 1.386 . S
C2147 C2151 1.393 . S
C2148 H2137 0.950 . S
C2148 C2146 1.391 . S
C2148 C2149 1.400 . S
C2149 C2143 1.491 . S
C2149 C2148 1.400 . S
C2149 C2150 1.398 . S
C2150 H2138 0.950 . S
C2150 C2149 1.398 . S
C2150 C2151 1.391 . S
C2151 H2139 0.950 . S
C2151 C2147 1.393 . S
C2151 C2150 1.391 . S
H2152 C2160 0.950 . S
H2153 C2165 0.950 . S
H2154 C2162 0.950 . S
H2155 C2164 0.950 . S
H2156 C2166 0.950 . S
H2157 C2168 0.950 . S
H2158 C2170 0.950 . S
H2159 C2171 0.950 . S
C2160 H2152 0.950 . S
C2160 C2161 1.386 . S
C2160 C2162 1.391 . S
C2161 C2160 1.386 . S
C2161 C2165 1.393 . S
C2162 H2154 0.950 . S
C2162 C2160 1.391 . S
C2162 C2163 1.400 . S
C2163 C2162 1.400 . S
C2163 C2164 1.398 . S
C2163 C2169 1.491 . S
C2164 H2155 0.950 . S
C2164 C2163 1.398 . S
C2164 C2165 1.391 . S
C2165 H2153 0.950 . S
C2165 C2161 1.393 . S
C2165 C2164 1.391 . S
C2166 H2156 0.950 . S
C2166 C2167 1.386 . S
C2166 C2168 1.391 . S
C2167 C2166 1.386 . S
C2167 C2171 1.393 . S
C2168 H2157 0.950 . S
C2168 C2166 1.391 . S
C2168 C2169 1.400 . S
C2169 C2163 1.491 . S
C2169 C2168 1.400 . S
C2169 C2170 1.398 . S
C2170 H2158 0.950 . S
C2170 C2169 1.398 . S
C2170 C2171 1.391 . S
C2171 H2159 0.950 . S
C2171 C2167 1.393 . S
C2171 C2170 1.391 . S
H2172 C2180 0.950 . S
H2173 C2185 0.950 . S
H2174 C2182 0.950 . S
H2175 C2184 0.950 . S
H2176 C2186 0.950 . S
H2177 C2188 0.950 . S
H2178 C2190 0.950 . S
H2179 C2191 0.950 . S
C2180 H2172 0.950 . S
C2180 C2181 1.386 . S
C2180 C2182 1.391 . S
C2181 C2180 1.386 . S
C2181 C2185 1.393 . S
C2182 H2174 0.950 . S
C2182 C2180 1.391 . S
C2182 C2183 1.400 . S
C2183 C2182 1.400 . S
C2183 C2184 1.398 . S
C2183 C2189 1.491 . S
C2184 H2175 0.950 . S
C2184 C2183 1.398 . S
C2184 C2185 1.391 . S
C2185 H2173 0.950 . S
C2185 C2181 1.393 . S
C2185 C2184 1.391 . S
C2186 H2176 0.950 . S
C2186 C2187 1.386 . S
C2186 C2188 1.391 . S
C2187 C2186 1.386 . S
C2187 C2191 1.393 . S
C2188 H2177 0.950 . S
C2188 C2186 1.391 . S
C2188 C2189 1.400 . S
C2189 C2183 1.491 . S
C2189 C2188 1.400 . S
C2189 C2190 1.398 . S
C2190 H2178 0.950 . S
C2190 C2189 1.398 . S
C2190 C2191 1.391 . S
C2191 H2179 0.950 . S
C2191 C2187 1.393 . S
C2191 C2190 1.391 . S
H2192 C2200 0.950 . S
H2193 C2205 0.950 . S
H2194 C2202 0.950 . S
H2195 C2204 0.950 . S
H2196 C2206 0.950 . S
H2197 C2208 0.950 . S
H2198 C2210 0.950 . S
H2199 C2211 0.950 . S
C2200 H2192 0.950 . S
C2200 C2201 1.386 . S
C2200 C2202 1.391 . S
C2201 C2200 1.386 . S
C2201 C2205 1.393 . S
C2202 H2194 0.950 . S
C2202 C2200 1.391 . S
C2202 C2203 1.400 . S
C2203 C2202 1.400 . S
C2203 C2204 1.398 . S
C2203 C2209 1.491 . S
C2204 H2195 0.950 . S
C2204 C2203 1.398 . S
C2204 C2205 1.391 . S
C2205 H2193 0.950 . S
C2205 C2201 1.393 . S
C2205 C2204 1.391 . S
C2206 H2196 0.950 . S
C2206 C2207 1.386 . S
C2206 C2208 1.391 . S
C2207 C2206 1.386 . S
C2207 C2211 1.393 . S
C2208 H2197 0.950 . S
C2208 C2206 1.391 . S
C2208 C2209 1.400 . S
C2209 C2203 1.491 . S
C2209 C2208 1.400 . S
C2209 C2210 1.398 . S
C2210 H2198 0.950 . S
C2210 C2209 1.398 . S
C2210 C2211 1.391 . S
C2211 H2199 0.950 . S
C2211 C2207 1.393 . S
C2211 C2210 1.391 . S
H2212 C2220 0.950 . S
H2213 C2225 0.950 . S
H2214 C2222 0.950 . S
H2215 C2224 0.950 . S
H2216 C2226 0.950 . S
H2217 C2228 0.950 . S
H2218 C2230 0.950 . S
H2219 C2231 0.950 1_455 S
C2220 H2212 0.950 . S
C2220 C2221 1.386 . S
C2220 C2222 1.391 . S
C2221 C2220 1.386 . S
C2221 C2225 1.393 . S
C2222 H2214 0.950 . S
C2222 C2220 1.391 . S
C2222 C2223 1.400 . S
C2223 C2222 1.400 . S
C2223 C2224 1.398 . S
C2223 C2229 1.491 . S
C2224 H2215 0.950 . S
C2224 C2223 1.398 . S
C2224 C2225 1.391 . S
C2225 H2213 0.950 . S
C2225 C2221 1.393 . S
C2225 C2224 1.391 . S
C2226 H2216 0.950 . S
C2226 C2227 1.386 . S
C2226 C2228 1.391 . S
C2227 C2226 1.386 . S
C2227 C2231 1.393 . S
C2228 H2217 0.950 . S
C2228 C2226 1.391 . S
C2228 C2229 1.400 . S
C2229 C2223 1.491 . S
C2229 C2228 1.400 . S
C2229 C2230 1.398 . S
C2230 H2218 0.950 . S
C2230 C2229 1.398 . S
C2230 C2231 1.391 . S
C2231 H2219 0.950 1_655 S
C2231 C2227 1.393 . S
C2231 C2230 1.391 . S
H2232 C2240 0.950 . S
H2233 C2245 0.950 . S
H2234 C2242 0.950 . S
H2235 C2244 0.950 . S
H2236 C2246 0.950 1_556 S
H2237 C2248 0.950 . S
H2238 C2250 0.950 . S
H2239 C2251 0.950 . S
C2240 H2232 0.950 . S
C2240 C2241 1.386 . S
C2240 C2242 1.391 . S
C2241 C2240 1.386 . S
C2241 C2245 1.393 . S
C2242 H2234 0.950 . S
C2242 C2240 1.391 . S
C2242 C2243 1.400 . S
C2243 C2242 1.400 . S
C2243 C2244 1.398 . S
C2243 C2249 1.491 . S
C2244 H2235 0.950 . S
C2244 C2243 1.398 . S
C2244 C2245 1.391 . S
C2245 H2233 0.950 . S
C2245 C2241 1.393 . S
C2245 C2244 1.391 . S
C2246 H2236 0.950 1_554 S
C2246 C2247 1.386 . S
C2246 C2248 1.391 . S
C2247 C2246 1.386 . S
C2247 C2251 1.393 . S
C2248 H2237 0.950 . S
C2248 C2246 1.391 . S
C2248 C2249 1.400 . S
C2249 C2243 1.491 . S
C2249 C2248 1.400 . S
C2249 C2250 1.398 . S
C2250 H2238 0.950 . S
C2250 C2249 1.398 . S
C2250 C2251 1.391 . S
C2251 H2239 0.950 . S
C2251 C2247 1.393 . S
C2251 C2250 1.391 . S
H2252 C2260 0.950 . S
H2253 C2265 0.950 . S
H2254 C2262 0.950 . S
H2255 C2264 0.950 . S
H2256 C2266 0.950 . S
H2257 C2268 0.950 . S
H2258 C2270 0.950 . S
H2259 C2271 0.950 . S
C2260 H2252 0.950 . S
C2260 C2261 1.386 . S
C2260 C2262 1.391 . S
C2261 C2260 1.386 . S
C2261 C2265 1.393 . S
C2262 H2254 0.950 . S
C2262 C2260 1.391 . S
C2262 C2263 1.400 . S
C2263 C2262 1.400 . S
C2263 C2264 1.398 . S
C2263 C2269 1.491 . S
C2264 H2255 0.950 . S
C2264 C2263 1.398 . S
C2264 C2265 1.391 . S
C2265 H2253 0.950 . S
C2265 C2261 1.393 . S
C2265 C2264 1.391 . S
C2266 H2256 0.950 . S
C2266 C2267 1.386 . S
C2266 C2268 1.391 . S
C2267 C2266 1.386 . S
C2267 C2271 1.393 . S
C2268 H2257 0.950 . S
C2268 C2266 1.391 . S
C2268 C2269 1.400 . S
C2269 C2263 1.491 . S
C2269 C2268 1.400 . S
C2269 C2270 1.398 . S
C2270 H2258 0.950 . S
C2270 C2269 1.398 . S
C2270 C2271 1.391 . S
C2271 H2259 0.950 . S
C2271 C2267 1.393 . S
C2271 C2270 1.391 . S
H2272 C2280 0.950 . S
H2273 C2285 0.950 . S
H2274 C2282 0.950 . S
H2275 C2284 0.950 . S
H2276 C2286 0.950 . S
H2277 C2288 0.950 . S
H2278 C2290 0.950 . S
H2279 C2291 0.950 . S
C2280 H2272 0.950 . S
C2280 C2281 1.386 . S
C2280 C2282 1.391 . S
C2281 C2280 1.386 . S
C2281 C2285 1.393 . S
C2282 H2274 0.950 . S
C2282 C2280 1.391 . S
C2282 C2283 1.400 . S
C2283 C2282 1.400 . S
C2283 C2284 1.398 . S
C2283 C2289 1.491 . S
C2284 H2275 0.950 . S
C2284 C2283 1.398 . S
C2284 C2285 1.391 . S
C2285 H2273 0.950 . S
C2285 C2281 1.393 . S
C2285 C2284 1.391 . S
C2286 H2276 0.950 . S
C2286 C2287 1.386 . S
C2286 C2288 1.391 . S
C2287 C2286 1.386 . S
C2287 C2291 1.393 . S
C2288 H2277 0.950 . S
C2288 C2286 1.391 . S
C2288 C2289 1.400 . S
C2289 C2283 1.491 . S
C2289 C2288 1.400 . S
C2289 C2290 1.398 . S
C2290 H2278 0.950 . S
C2290 C2289 1.398 . S
C2290 C2291 1.391 . S
C2291 H2279 0.950 . S
C2291 C2287 1.393 . S
C2291 C2290 1.391 . S
H2292 C2300 0.950 1_565 S
H2293 C2305 0.950 . S
H2294 C2302 0.950 . S
H2295 C2304 0.950 . S
H2296 C2306 0.950 . S
H2297 C2308 0.950 . S
H2298 C2310 0.950 . S
H2299 C2311 0.950 . S
C2300 H2292 0.950 1_545 S
C2300 C2301 1.386 . S
C2300 C2302 1.391 . S
C2301 C2300 1.386 . S
C2301 C2305 1.393 . S
C2302 H2294 0.950 . S
C2302 C2300 1.391 . S
C2302 C2303 1.400 . S
C2303 C2302 1.400 . S
C2303 C2304 1.398 . S
C2303 C2309 1.491 . S
C2304 H2295 0.950 . S
C2304 C2303 1.398 . S
C2304 C2305 1.391 . S
C2305 H2293 0.950 . S
C2305 C2301 1.393 . S
C2305 C2304 1.391 . S
C2306 H2296 0.950 . S
C2306 C2307 1.386 . S
C2306 C2308 1.391 . S
C2307 C2306 1.386 . S
C2307 C2311 1.393 . S
C2308 H2297 0.950 . S
C2308 C2306 1.391 . S
C2308 C2309 1.400 . S
C2309 C2303 1.491 . S
C2309 C2308 1.400 . S
C2309 C2310 1.398 . S
C2310 H2298 0.950 . S
C2310 C2309 1.398 . S
C2310 C2311 1.391 . S
C2311 H2299 0.950 . S
C2311 C2307 1.393 . S
C2311 C2310 1.391 . S
H2312 C2320 0.950 . S
H2313 C2325 0.950 . S
H2314 C2322 0.950 . S
H2315 C2324 0.950 . S
H2316 C2326 0.950 . S
H2317 C2328 0.950 . S
H2318 C2330 0.950 . S
H2319 C2331 0.950 1_545 S
C2320 H2312 0.950 . S
C2320 C2321 1.386 . S
C2320 C2322 1.391 . S
C2321 C2320 1.386 . S
C2321 C2325 1.393 . S
C2322 H2314 0.950 . S
C2322 C2320 1.391 . S
C2322 C2323 1.400 . S
C2323 C2322 1.400 . S
C2323 C2324 1.398 . S
C2323 C2329 1.491 . S
C2324 H2315 0.950 . S
C2324 C2323 1.398 . S
C2324 C2325 1.391 . S
C2325 H2313 0.950 . S
C2325 C2321 1.393 . S
C2325 C2324 1.391 . S
C2326 H2316 0.950 . S
C2326 C2327 1.386 . S
C2326 C2328 1.391 . S
C2327 C2326 1.386 . S
C2327 C2331 1.393 . S
C2328 H2317 0.950 . S
C2328 C2326 1.391 . S
C2328 C2329 1.400 . S
C2329 C2323 1.491 . S
C2329 C2328 1.400 . S
C2329 C2330 1.398 . S
C2330 H2318 0.950 . S
C2330 C2329 1.398 . S
C2330 C2331 1.391 . S
C2331 H2319 0.950 1_565 S
C2331 C2327 1.393 . S
C2331 C2330 1.391 . S
H2332 C2340 0.950 . S
H2333 C2345 0.950 . S
H2334 C2342 0.950 . S
H2335 C2344 0.950 . S
H2336 C2346 0.950 . S
H2337 C2348 0.950 . S
H2338 C2350 0.950 . S
H2339 C2351 0.950 . S
C2340 H2332 0.950 . S
C2340 C2341 1.386 . S
C2340 C2342 1.391 . S
C2341 C2340 1.386 . S
C2341 C2345 1.393 . S
C2342 H2334 0.950 . S
C2342 C2340 1.391 . S
C2342 C2343 1.400 . S
C2343 C2342 1.400 . S
C2343 C2344 1.398 . S
C2343 C2349 1.491 . S
C2344 H2335 0.950 . S
C2344 C2343 1.398 . S
C2344 C2345 1.391 . S
C2345 H2333 0.950 . S
C2345 C2341 1.393 . S
C2345 C2344 1.391 . S
C2346 H2336 0.950 . S
C2346 C2347 1.386 . S
C2346 C2348 1.391 . S
C2347 C2346 1.386 . S
C2347 C2351 1.393 . S
C2348 H2337 0.950 . S
C2348 C2346 1.391 . S
C2348 C2349 1.400 . S
C2349 C2343 1.491 . S
C2349 C2348 1.400 . S
C2349 C2350 1.398 . S
C2350 H2338 0.950 . S
C2350 C2349 1.398 . S
C2350 C2351 1.391 . S
C2351 H2339 0.950 . S
C2351 C2347 1.393 . S
C2351 C2350 1.391 . S
H2352 C2360 0.950 . S
H2353 C2365 0.950 . S
H2354 C2362 0.950 . S
H2355 C2364 0.950 . S
H2356 C2366 0.950 . S
H2357 C2368 0.950 . S
H2358 C2370 0.950 . S
H2359 C2371 0.950 . S
C2360 H2352 0.950 . S
C2360 C2361 1.386 . S
C2360 C2362 1.391 . S
C2361 C2360 1.386 . S
C2361 C2365 1.393 . S
C2362 H2354 0.950 . S
C2362 C2360 1.391 . S
C2362 C2363 1.400 . S
C2363 C2362 1.400 . S
C2363 C2364 1.398 . S
C2363 C2369 1.491 . S
C2364 H2355 0.950 . S
C2364 C2363 1.398 . S
C2364 C2365 1.391 . S
C2365 H2353 0.950 . S
C2365 C2361 1.393 . S
C2365 C2364 1.391 . S
C2366 H2356 0.950 . S
C2366 C2367 1.386 . S
C2366 C2368 1.391 . S
C2367 C2366 1.386 . S
C2367 C2371 1.393 . S
C2368 H2357 0.950 . S
C2368 C2366 1.391 . S
C2368 C2369 1.400 . S
C2369 C2363 1.491 . S
C2369 C2368 1.400 . S
C2369 C2370 1.398 . S
C2370 H2358 0.950 . S
C2370 C2369 1.398 . S
C2370 C2371 1.391 . S
C2371 H2359 0.950 . S
C2371 C2367 1.393 . S
C2371 C2370 1.391 . S
H2372 C2380 0.950 . S
H2373 C2385 0.950 . S
H2374 C2382 0.950 . S
H2375 C2384 0.950 . S
H2376 C2386 0.950 . S
H2377 C2388 0.950 . S
H2378 C2390 0.950 . S
H2379 C2391 0.950 . S
C2380 H2372 0.950 . S
C2380 C2381 1.386 . S
C2380 C2382 1.391 1_565 S
C2381 C2380 1.386 . S
C2381 C2385 1.393 . S
C2382 H2374 0.950 . S
C2382 C2380 1.391 1_545 S
C2382 C2383 1.400 . S
C2383 C2382 1.400 . S
C2383 C2384 1.398 . S
C2383 C2389 1.491 . S
C2384 H2375 0.950 . S
C2384 C2383 1.398 . S
C2384 C2385 1.391 1_545 S
C2385 H2373 0.950 . S
C2385 C2381 1.393 . S
C2385 C2384 1.391 1_565 S
C2386 H2376 0.950 . S
C2386 C2387 1.386 . S
C2386 C2388 1.391 . S
C2387 C2386 1.386 . S
C2387 C2391 1.393 . S
C2388 H2377 0.950 . S
C2388 C2386 1.391 . S
C2388 C2389 1.400 . S
C2389 C2383 1.491 . S
C2389 C2388 1.400 . S
C2389 C2390 1.398 . S
C2390 H2378 0.950 . S
C2390 C2389 1.398 . S
C2390 C2391 1.391 . S
C2391 H2379 0.950 . S
C2391 C2387 1.393 . S
C2391 C2390 1.391 . S
H2392 C2400 0.950 . S
H2393 C2405 0.950 . S
H2394 C2402 0.915 1_554 S
H2395 C2404 0.950 . S
H2396 C2406 0.950 . S
H2397 C2408 0.950 . S
H2398 C2410 0.950 . S
H2399 C2411 0.950 . S
C2400 H2392 0.950 . S
C2400 C2401 1.386 . S
C2400 C2402 1.391 . S
C2401 C2400 1.386 . S
C2401 C2405 1.393 . S
C2402 H2394 0.915 1_556 S
C2402 C2400 1.391 . S
C2402 C2403 1.400 . S
C2403 C2402 1.400 . S
C2403 C2404 1.398 . S
C2403 C2409 1.491 . S
C2404 H2395 0.950 . S
C2404 C2403 1.398 . S
C2404 C2405 1.391 . S
C2405 H2393 0.950 . S
C2405 C2401 1.393 . S
C2405 C2404 1.391 . S
C2406 H2396 0.950 . S
C2406 C2407 1.386 1_556 S
C2406 C2408 1.391 . S
C2407 C2406 1.386 1_554 S
C2407 C2411 1.393 . S
C2408 H2397 0.950 . S
C2408 C2406 1.391 . S
C2408 C2409 1.400 . S
C2409 C2403 1.491 . S
C2409 C2408 1.400 . S
C2409 C2410 1.398 1_556 S
C2410 H2398 0.950 . S
C2410 C2409 1.398 1_554 S
C2410 C2411 1.391 . S
C2411 H2399 0.950 . S
C2411 C2407 1.393 . S
C2411 C2410 1.391 . S
H2412 C2420 0.950 . S
H2413 C2425 0.950 . S
H2414 C2422 0.950 . S
H2415 C2424 0.950 . S
H2416 C2426 0.950 . S
H2417 C2428 0.950 . S
H2418 C2430 0.950 . S
H2419 C2431 0.950 . S
C2420 H2412 0.950 . S
C2420 C2421 1.386 . S
C2420 C2422 1.391 . S
C2421 C2420 1.386 . S
C2421 C2425 1.393 1_545 S
C2422 H2414 0.950 . S
C2422 C2420 1.391 . S
C2422 C2423 1.400 1_545 S
C2423 C2422 1.400 1_565 S
C2423 C2424 1.398 . S
C2423 C2429 1.491 . S
C2424 H2415 0.950 . S
C2424 C2423 1.398 . S
C2424 C2425 1.391 . S
C2425 H2413 0.950 . S
C2425 C2421 1.393 1_565 S
C2425 C2424 1.391 . S
C2426 H2416 0.950 . S
C2426 C2427 1.386 . S
C2426 C2428 1.391 . S
C2427 C2426 1.386 . S
C2427 C2431 1.393 . S
C2428 H2417 0.950 . S
C2428 C2426 1.391 . S
C2428 C2429 1.400 . S
C2429 C2423 1.491 . S
C2429 C2428 1.400 . S
C2429 C2430 1.398 . S
C2430 H2418 0.950 . S
C2430 C2429 1.398 . S
C2430 C2431 1.391 . S
C2431 H2419 0.950 . S
C2431 C2427 1.393 . S
C2431 C2430 1.391 . S
H2432 C2440 0.950 . S
H2433 C2445 0.950 . S
H2434 C2442 0.950 . S
H2435 C2444 0.950 . S
H2436 C2446 0.950 . S
H2437 C2448 0.950 . S
H2438 C2450 0.950 . S
H2439 C2451 0.950 . S
C2440 H2432 0.950 . S
C2440 C2441 1.386 . S
C2440 C2442 1.391 . S
C2441 C2440 1.386 . S
C2441 C2445 1.393 . S
C2442 H2434 0.950 . S
C2442 C2440 1.391 . S
C2442 C2443 1.400 . S
C2443 C2442 1.400 . S
C2443 C2444 1.398 . S
C2443 C2449 1.491 . S
C2444 H2435 0.950 . S
C2444 C2443 1.398 . S
C2444 C2445 1.391 . S
C2445 H2433 0.950 . S
C2445 C2441 1.393 . S
C2445 C2444 1.391 . S
C2446 H2436 0.950 . S
C2446 C2447 1.386 . S
C2446 C2448 1.391 . S
C2447 C2446 1.386 . S
C2447 C2451 1.393 . S
C2448 H2437 0.950 . S
C2448 C2446 1.391 . S
C2448 C2449 1.400 . S
C2449 C2443 1.491 . S
C2449 C2448 1.400 . S
C2449 C2450 1.398 . S
C2450 H2438 0.950 . S
C2450 C2449 1.398 . S
C2450 C2451 1.391 . S
C2451 H2439 0.950 . S
C2451 C2447 1.393 . S
C2451 C2450 1.391 . S
H2452 C2460 0.950 . S
H2453 C2465 0.950 . S
H2454 C2462 0.950 . S
H2455 C2464 0.950 . S
H2456 C2466 0.950 . S
H2457 C2468 0.950 . S
H2458 C2470 0.950 . S
H2459 C2471 0.950 . S
C2460 H2452 0.950 . S
C2460 C2461 1.386 . S
C2460 C2462 1.391 . S
C2461 C2460 1.386 . S
C2461 C2465 1.393 . S
C2462 H2454 0.950 . S
C2462 C2460 1.391 . S
C2462 C2463 1.400 . S
C2463 C2462 1.400 . S
C2463 C2464 1.398 . S
C2463 C2469 1.491 . S
C2464 H2455 0.950 . S
C2464 C2463 1.398 . S
C2464 C2465 1.391 . S
C2465 H2453 0.950 . S
C2465 C2461 1.393 . S
C2465 C2464 1.391 . S
C2466 H2456 0.950 . S
C2466 C2467 1.386 . S
C2466 C2468 1.391 . S
C2467 C2466 1.386 . S
C2467 C2471 1.393 . S
C2468 H2457 0.950 . S
C2468 C2466 1.391 . S
C2468 C2469 1.400 . S
C2469 C2463 1.491 . S
C2469 C2468 1.400 . S
C2469 C2470 1.398 . S
C2470 H2458 0.950 . S
C2470 C2469 1.398 . S
C2470 C2471 1.391 . S
C2471 H2459 0.950 . S
C2471 C2467 1.393 . S
C2471 C2470 1.391 . S
H2472 C2480 0.950 . S
H2473 C2485 0.948 1_554 S
H2474 C2482 0.950 . S
H2475 C2484 0.950 . S
H2476 C2486 0.950 . S
H2477 C2488 0.950 . S
H2478 C2490 0.950 . S
H2479 C2491 0.950 . S
C2480 H2472 0.950 . S
C2480 C2481 1.386 . S
C2480 C2482 1.391 . S
C2481 C2480 1.386 . S
C2481 C2485 1.393 . S
C2482 H2474 0.950 . S
C2482 C2480 1.391 . S
C2482 C2483 1.400 1_556 S
C2483 C2482 1.400 1_554 S
C2483 C2484 1.398 . S
C2483 C2489 1.491 . S
C2484 H2475 0.950 . S
C2484 C2483 1.398 . S
C2484 C2485 1.391 1_554 S
C2485 H2473 0.948 1_556 S
C2485 C2481 1.393 . S
C2485 C2484 1.391 1_556 S
C2486 H2476 0.950 . S
C2486 C2487 1.386 . S
C2486 C2488 1.391 . S
C2487 C2486 1.386 . S
C2487 C2491 1.393 . S
C2488 H2477 0.950 . S
C2488 C2486 1.391 . S
C2488 C2489 1.400 . S
C2489 C2483 1.491 . S
C2489 C2488 1.400 . S
C2489 C2490 1.398 . S
C2490 H2478 0.950 . S
C2490 C2489 1.398 . S
C2490 C2491 1.391 . S
C2491 H2479 0.950 . S
C2491 C2487 1.393 . S
C2491 C2490 1.391 . S
H2492 C2500 0.950 . S
H2493 C2505 0.950 . S
H2494 C2502 0.950 . S
H2495 C2504 0.950 . S
H2496 C2506 0.950 . S
H2497 C2508 0.950 . S
H2498 C2510 0.950 . S
H2499 C2511 0.950 . S
C2500 H2492 0.950 . S
C2500 C2501 1.386 . S
C2500 C2502 1.391 . S
C2501 C2500 1.386 . S
C2501 C2505 1.393 . S
C2502 H2494 0.950 . S
C2502 C2500 1.391 . S
C2502 C2503 1.400 . S
C2503 C2502 1.400 . S
C2503 C2504 1.398 . S
C2503 C2509 1.491 . S
C2504 H2495 0.950 . S
C2504 C2503 1.398 . S
C2504 C2505 1.391 . S
C2505 H2493 0.950 . S
C2505 C2501 1.393 . S
C2505 C2504 1.391 . S
C2506 H2496 0.950 . S
C2506 C2507 1.386 . S
C2506 C2508 1.391 . S
C2507 C2506 1.386 . S
C2507 C2511 1.393 . S
C2508 H2497 0.950 . S
C2508 C2506 1.391 . S
C2508 C2509 1.400 . S
C2509 C2503 1.491 . S
C2509 C2508 1.400 . S
C2509 C2510 1.398 . S
C2510 H2498 0.950 . S
C2510 C2509 1.398 . S
C2510 C2511 1.391 . S
C2511 H2499 0.950 . S
C2511 C2507 1.393 . S
C2511 C2510 1.391 . S
H2512 C2520 0.950 . S
H2513 C2525 0.950 . S
H2514 C2522 0.950 . S
H2515 C2524 0.950 . S
H2516 C2526 0.950 . S
H2517 C2528 0.950 . S
H2518 C2530 0.950 . S
H2519 C2531 0.950 . S
C2520 H2512 0.950 . S
C2520 C2521 1.386 . S
C2520 C2522 1.391 . S
C2521 C2520 1.386 . S
C2521 C2525 1.393 . S
C2522 H2514 0.950 . S
C2522 C2520 1.391 . S
C2522 C2523 1.400 . S
C2523 C2522 1.400 . S
C2523 C2524 1.398 . S
C2523 C2529 1.491 . S
C2524 H2515 0.950 . S
C2524 C2523 1.398 . S
C2524 C2525 1.391 . S
C2525 H2513 0.950 . S
C2525 C2521 1.393 . S
C2525 C2524 1.391 . S
C2526 H2516 0.950 . S
C2526 C2527 1.386 . S
C2526 C2528 1.391 . S
C2527 C2526 1.386 . S
C2527 C2531 1.393 . S
C2528 H2517 0.950 . S
C2528 C2526 1.391 . S
C2528 C2529 1.400 . S
C2529 C2523 1.491 . S
C2529 C2528 1.400 . S
C2529 C2530 1.398 . S
C2530 H2518 0.950 . S
C2530 C2529 1.398 . S
C2530 C2531 1.391 . S
C2531 H2519 0.950 . S
C2531 C2527 1.393 . S
C2531 C2530 1.391 . S
H2532 C2540 0.950 . S
H2533 C2545 0.950 . S
H2534 C2542 0.950 . S
H2535 C2544 0.950 . S
H2536 C2546 0.950 . S
H2537 C2548 0.950 . S
H2538 C2550 0.950 . S
H2539 C2551 0.950 . S
C2540 H2532 0.950 . S
C2540 C2541 1.386 . S
C2540 C2542 1.391 1_455 S
C2541 C2540 1.386 . S
C2541 C2545 1.393 . S
C2542 H2534 0.950 . S
C2542 C2540 1.391 1_655 S
C2542 C2543 1.400 . S
C2543 C2542 1.400 . S
C2543 C2544 1.398 . S
C2543 C2549 1.491 . S
C2544 H2535 0.950 . S
C2544 C2543 1.398 . S
C2544 C2545 1.391 1_655 S
C2545 H2533 0.950 . S
C2545 C2541 1.393 . S
C2545 C2544 1.391 1_455 S
C2546 H2536 0.950 . S
C2546 C2547 1.386 . S
C2546 C2548 1.391 . S
C2547 C2546 1.386 . S
C2547 C2551 1.393 . S
C2548 H2537 0.950 . S
C2548 C2546 1.391 . S
C2548 C2549 1.400 . S
C2549 C2543 1.491 . S
C2549 C2548 1.400 . S
C2549 C2550 1.398 . S
C2550 H2538 0.950 . S
C2550 C2549 1.398 . S
C2550 C2551 1.391 . S
C2551 H2539 0.950 . S
C2551 C2547 1.393 . S
C2551 C2550 1.391 . S
H2552 C2560 0.950 . S
H2553 C2565 0.950 . S
H2554 C2562 0.950 . S
H2555 C2564 0.950 . S
H2556 C2566 0.950 . S
H2557 C2568 0.950 . S
H2558 C2570 0.950 . S
H2559 C2571 0.950 . S
C2560 H2552 0.950 . S
C2560 C2561 1.386 1_455 S
C2560 C2562 1.391 . S
C2561 C2560 1.386 1_655 S
C2561 C2565 1.393 . S
C2562 H2554 0.950 . S
C2562 C2560 1.391 . S
C2562 C2563 1.400 . S
C2563 C2562 1.400 . S
C2563 C2564 1.398 1_455 S
C2563 C2569 1.491 . S
C2564 H2555 0.950 . S
C2564 C2563 1.398 1_655 S
C2564 C2565 1.391 . S
C2565 H2553 0.950 . S
C2565 C2561 1.393 . S
C2565 C2564 1.391 . S
C2566 H2556 0.950 . S
C2566 C2567 1.386 . S
C2566 C2568 1.391 . S
C2567 C2566 1.386 . S
C2567 C2571 1.393 . S
C2568 H2557 0.950 . S
C2568 C2566 1.391 . S
C2568 C2569 1.400 . S
C2569 C2563 1.491 . S
C2569 C2568 1.400 . S
C2569 C2570 1.398 . S
C2570 H2558 0.950 . S
C2570 C2569 1.398 . S
C2570 C2571 1.391 . S
C2571 H2559 0.950 . S
C2571 C2567 1.393 . S
C2571 C2570 1.391 . S
H2572 C2580 0.950 . S
H2573 C2585 0.950 . S
H2574 C2582 0.950 . S
H2575 C2584 0.950 . S
H2576 C2586 0.950 . S
H2577 C2588 0.950 . S
H2578 C2590 0.950 . S
H2579 C2591 0.950 . S
C2580 H2572 0.950 . S
C2580 C2581 1.386 . S
C2580 C2582 1.391 . S
C2581 C2580 1.386 . S
C2581 C2585 1.393 . S
C2582 H2574 0.950 . S
C2582 C2580 1.391 . S
C2582 C2583 1.400 . S
C2583 C2582 1.400 . S
C2583 C2584 1.398 . S
C2583 C2589 1.491 . S
C2584 H2575 0.950 . S
C2584 C2583 1.398 . S
C2584 C2585 1.391 . S
C2585 H2573 0.950 . S
C2585 C2581 1.393 . S
C2585 C2584 1.391 . S
C2586 H2576 0.950 . S
C2586 C2587 1.386 . S
C2586 C2588 1.391 . S
C2587 C2586 1.386 . S
C2587 C2591 1.393 . S
C2588 H2577 0.950 . S
C2588 C2586 1.391 . S
C2588 C2589 1.400 . S
C2589 C2583 1.491 . S
C2589 C2588 1.400 . S
C2589 C2590 1.398 . S
C2590 H2578 0.950 . S
C2590 C2589 1.398 . S
C2590 C2591 1.391 . S
C2591 H2579 0.950 . S
C2591 C2587 1.393 . S
C2591 C2590 1.391 . S
H2592 C2600 0.950 . S
H2593 C2605 0.950 . S
H2594 C2602 0.950 . S
H2595 C2604 0.950 . S
H2596 C2606 0.950 . S
H2597 C2608 0.950 . S
H2598 C2610 0.950 . S
H2599 C2611 0.950 . S
C2600 H2592 0.950 . S
C2600 C2601 1.386 . S
C2600 C2602 1.391 . S
C2601 C2600 1.386 . S
C2601 C2605 1.393 . S
C2602 H2594 0.950 . S
C2602 C2600 1.391 . S
C2602 C2603 1.400 . S
C2603 C2602 1.400 . S
C2603 C2604 1.398 . S
C2603 C2609 1.491 . S
C2604 H2595 0.950 . S
C2604 C2603 1.398 . S
C2604 C2605 1.391 . S
C2605 H2593 0.950 . S
C2605 C2601 1.393 . S
C2605 C2604 1.391 . S
C2606 H2596 0.950 . S
C2606 C2607 1.386 . S
C2606 C2608 1.391 . S
C2607 C2606 1.386 . S
C2607 C2611 1.393 . S
C2608 H2597 0.950 . S
C2608 C2606 1.391 . S
C2608 C2609 1.400 . S
C2609 C2603 1.491 . S
C2609 C2608 1.400 . S
C2609 C2610 1.398 . S
C2610 H2598 0.950 . S
C2610 C2609 1.398 . S
C2610 C2611 1.391 . S
C2611 H2599 0.950 . S
C2611 C2607 1.393 . S
C2611 C2610 1.391 . S
H2612 C2620 0.950 . S
H2613 C2625 0.950 . S
H2614 C2622 0.950 . S
H2615 C2624 0.950 . S
H2616 C2626 0.950 . S
H2617 C2628 0.950 . S
H2618 C2630 0.950 . S
H2619 C2631 0.950 . S
C2620 H2612 0.950 . S
C2620 C2621 1.386 . S
C2620 C2622 1.391 . S
C2621 C2620 1.386 . S
C2621 C2625 1.393 . S
C2622 H2614 0.950 . S
C2622 C2620 1.391 . S
C2622 C2623 1.400 . S
C2623 C2622 1.400 . S
C2623 C2624 1.398 . S
C2623 C2629 1.491 . S
C2624 H2615 0.950 . S
C2624 C2623 1.398 . S
C2624 C2625 1.391 . S
C2625 H2613 0.950 . S
C2625 C2621 1.393 . S
C2625 C2624 1.391 . S
C2626 H2616 0.950 . S
C2626 C2627 1.386 . S
C2626 C2628 1.391 . S
C2627 C2626 1.386 . S
C2627 C2631 1.393 . S
C2628 H2617 0.950 . S
C2628 C2626 1.391 . S
C2628 C2629 1.400 . S
C2629 C2623 1.491 . S
C2629 C2628 1.400 . S
C2629 C2630 1.398 . S
C2630 H2618 0.950 . S
C2630 C2629 1.398 . S
C2630 C2631 1.391 . S
C2631 H2619 0.950 . S
C2631 C2627 1.393 . S
C2631 C2630 1.391 . S
H2632 C2640 0.950 . S
H2633 C2645 0.950 . S
H2634 C2642 0.950 . S
H2635 C2644 0.950 . S
H2636 C2646 0.950 . S
H2637 C2648 0.950 . S
H2638 C2650 0.950 . S
H2639 C2651 0.950 . S
C2640 H2632 0.950 . S
C2640 C2641 1.386 . S
C2640 C2642 1.391 . S
C2641 C2640 1.386 . S
C2641 C2645 1.393 . S
C2642 H2634 0.950 . S
C2642 C2640 1.391 . S
C2642 C2643 1.400 . S
C2643 C2642 1.400 . S
C2643 C2644 1.398 . S
C2643 C2649 1.491 . S
C2644 H2635 0.950 . S
C2644 C2643 1.398 . S
C2644 C2645 1.391 . S
C2645 H2633 0.950 . S
C2645 C2641 1.393 . S
C2645 C2644 1.391 . S
C2646 H2636 0.950 . S
C2646 C2647 1.386 . S
C2646 C2648 1.391 . S
C2647 C2646 1.386 . S
C2647 C2651 1.393 . S
C2648 H2637 0.950 . S
C2648 C2646 1.391 . S
C2648 C2649 1.400 . S
C2649 C2643 1.491 . S
C2649 C2648 1.400 . S
C2649 C2650 1.398 . S
C2650 H2638 0.950 . S
C2650 C2649 1.398 . S
C2650 C2651 1.391 . S
C2651 H2639 0.950 . S
C2651 C2647 1.393 . S
C2651 C2650 1.391 . S
H2652 C2660 0.950 . S
H2653 C2665 0.950 . S
H2654 C2662 0.950 . S
H2655 C2664 0.950 . S
H2656 C2666 0.913 1_556 S
H2657 C2668 0.950 . S
H2658 C2670 0.950 . S
H2659 C2671 0.950 . S
C2660 H2652 0.950 . S
C2660 C2661 1.386 . S
C2660 C2662 1.391 . S
C2661 C2660 1.386 . S
C2661 C2665 1.393 . S
C2662 H2654 0.950 . S
C2662 C2660 1.391 . S
C2662 C2663 1.400 . S
C2663 C2662 1.400 . S
C2663 C2664 1.398 . S
C2663 C2669 1.491 . S
C2664 H2655 0.950 . S
C2664 C2663 1.398 . S
C2664 C2665 1.391 . S
C2665 H2653 0.950 . S
C2665 C2661 1.393 . S
C2665 C2664 1.391 . S
C2666 H2656 0.913 1_554 S
C2666 C2667 1.386 . S
C2666 C2668 1.391 . S
C2667 C2666 1.386 . S
C2667 C2671 1.393 . S
C2668 H2657 0.950 . S
C2668 C2666 1.391 . S
C2668 C2669 1.400 . S
C2669 C2663 1.491 . S
C2669 C2668 1.400 . S
C2669 C2670 1.398 . S
C2670 H2658 0.950 . S
C2670 C2669 1.398 . S
C2670 C2671 1.391 . S
C2671 H2659 0.950 . S
C2671 C2667 1.393 . S
C2671 C2670 1.391 . S
H2672 C2680 0.950 . S
H2673 C2685 0.950 . S
H2674 C2682 0.950 . S
H2675 C2684 0.950 . S
H2676 C2686 0.950 . S
H2677 C2688 0.950 . S
H2678 C2690 0.950 . S
H2679 C2691 0.950 . S
C2680 H2672 0.950 . S
C2680 C2681 1.386 . S
C2680 C2682 1.391 . S
C2681 C2680 1.386 . S
C2681 C2685 1.393 . S
C2682 H2674 0.950 . S
C2682 C2680 1.391 . S
C2682 C2683 1.400 . S
C2683 C2682 1.400 . S
C2683 C2684 1.398 . S
C2683 C2689 1.491 . S
C2684 H2675 0.950 . S
C2684 C2683 1.398 . S
C2684 C2685 1.391 . S
C2685 H2673 0.950 . S
C2685 C2681 1.393 . S
C2685 C2684 1.391 . S
C2686 H2676 0.950 . S
C2686 C2687 1.386 . S
C2686 C2688 1.391 . S
C2687 C2686 1.386 . S
C2687 C2691 1.393 . S
C2688 H2677 0.950 . S
C2688 C2686 1.391 . S
C2688 C2689 1.400 . S
C2689 C2683 1.491 . S
C2689 C2688 1.400 . S
C2689 C2690 1.398 . S
C2690 H2678 0.950 . S
C2690 C2689 1.398 . S
C2690 C2691 1.391 . S
C2691 H2679 0.950 . S
C2691 C2687 1.393 . S
C2691 C2690 1.391 . S
H2692 C2700 0.950 1_554 S
H2693 C2705 0.950 . S
H2694 C2702 0.950 . S
H2695 C2704 0.950 . S
H2696 C2706 0.950 . S
H2697 C2708 0.950 . S
H2698 C2710 0.950 . S
H2699 C2711 0.950 . S
C2700 H2692 0.950 1_556 S
C2700 C2701 1.386 . S
C2700 C2702 1.391 . S
C2701 C2700 1.386 . S
C2701 C2705 1.393 . S
C2702 H2694 0.950 . S
C2702 C2700 1.391 . S
C2702 C2703 1.400 . S
C2703 C2702 1.400 . S
C2703 C2704 1.398 . S
C2703 C2709 1.491 . S
C2704 H2695 0.950 . S
C2704 C2703 1.398 . S
C2704 C2705 1.391 . S
C2705 H2693 0.950 . S
C2705 C2701 1.393 . S
C2705 C2704 1.391 . S
C2706 H2696 0.950 . S
C2706 C2707 1.386 . S
C2706 C2708 1.391 . S
C2707 C2706 1.386 . S
C2707 C2711 1.393 . S
C2708 H2697 0.950 . S
C2708 C2706 1.391 . S
C2708 C2709 1.400 . S
C2709 C2703 1.491 . S
C2709 C2708 1.400 . S
C2709 C2710 1.398 . S
C2710 H2698 0.950 . S
C2710 C2709 1.398 . S
C2710 C2711 1.391 . S
C2711 H2699 0.950 . S
C2711 C2707 1.393 . S
C2711 C2710 1.391 . S
H2712 C2720 0.950 . S
H2713 C2725 0.950 . S
H2714 C2722 0.950 . S
H2715 C2724 0.950 . S
H2716 C2726 0.950 . S
H2717 C2728 0.950 . S
H2718 C2730 0.950 . S
H2719 C2731 0.950 . S
C2720 H2712 0.950 . S
C2720 C2721 1.386 . S
C2720 C2722 1.391 . S
C2721 C2720 1.386 . S
C2721 C2725 1.393 . S
C2722 H2714 0.950 . S
C2722 C2720 1.391 . S
C2722 C2723 1.400 . S
C2723 C2722 1.400 . S
C2723 C2724 1.398 . S
C2723 C2729 1.491 . S
C2724 H2715 0.950 . S
C2724 C2723 1.398 . S
C2724 C2725 1.391 . S
C2725 H2713 0.950 . S
C2725 C2721 1.393 . S
C2725 C2724 1.391 . S
C2726 H2716 0.950 . S
C2726 C2727 1.386 . S
C2726 C2728 1.391 . S
C2727 C2726 1.386 . S
C2727 C2731 1.393 . S
C2728 H2717 0.950 . S
C2728 C2726 1.391 . S
C2728 C2729 1.400 . S
C2729 C2723 1.491 . S
C2729 C2728 1.400 . S
C2729 C2730 1.398 . S
C2730 H2718 0.950 . S
C2730 C2729 1.398 . S
C2730 C2731 1.391 . S
C2731 H2719 0.950 . S
C2731 C2727 1.393 . S
C2731 C2730 1.391 . S
H2732 C2740 0.950 . S
H2733 C2745 0.950 . S
H2734 C2742 0.950 . S
H2735 C2744 0.950 . S
H2736 C2746 0.950 . S
H2737 C2748 0.950 . S
H2738 C2750 0.950 . S
H2739 C2751 0.950 . S
C2740 H2732 0.950 . S
C2740 C2741 1.386 . S
C2740 C2742 1.391 . S
C2741 C2740 1.386 . S
C2741 C2745 1.393 . S
C2742 H2734 0.950 . S
C2742 C2740 1.391 . S
C2742 C2743 1.400 . S
C2743 C2742 1.400 . S
C2743 C2744 1.398 . S
C2743 C2749 1.491 . S
C2744 H2735 0.950 . S
C2744 C2743 1.398 . S
C2744 C2745 1.391 . S
C2745 H2733 0.950 . S
C2745 C2741 1.393 . S
C2745 C2744 1.391 . S
C2746 H2736 0.950 . S
C2746 C2747 1.386 . S
C2746 C2748 1.391 . S
C2747 C2746 1.386 . S
C2747 C2751 1.393 . S
C2748 H2737 0.950 . S
C2748 C2746 1.391 . S
C2748 C2749 1.400 . S
C2749 C2743 1.491 . S
C2749 C2748 1.400 . S
C2749 C2750 1.398 . S
C2750 H2738 0.950 . S
C2750 C2749 1.398 . S
C2750 C2751 1.391 . S
C2751 H2739 0.950 . S
C2751 C2747 1.393 . S
C2751 C2750 1.391 . S
H2752 C2760 0.950 . S
H2753 C2765 0.950 . S
H2754 C2762 0.950 . S
H2755 C2764 0.950 . S
H2756 C2766 0.950 . S
H2757 C2768 0.950 . S
H2758 C2770 0.950 . S
H2759 C2771 0.950 . S
C2760 H2752 0.950 . S
C2760 C2761 1.386 . S
C2760 C2762 1.391 . S
C2761 C2760 1.386 . S
C2761 C2765 1.393 . S
C2762 H2754 0.950 . S
C2762 C2760 1.391 . S
C2762 C2763 1.400 . S
C2763 C2762 1.400 . S
C2763 C2764 1.398 . S
C2763 C2769 1.491 . S
C2764 H2755 0.950 . S
C2764 C2763 1.398 . S
C2764 C2765 1.391 . S
C2765 H2753 0.950 . S
C2765 C2761 1.393 . S
C2765 C2764 1.391 . S
C2766 H2756 0.950 . S
C2766 C2767 1.386 . S
C2766 C2768 1.391 . S
C2767 C2766 1.386 . S
C2767 C2771 1.393 . S
C2768 H2757 0.950 . S
C2768 C2766 1.391 . S
C2768 C2769 1.400 . S
C2769 C2763 1.491 . S
C2769 C2768 1.400 . S
C2769 C2770 1.398 . S
C2770 H2758 0.950 . S
C2770 C2769 1.398 . S
C2770 C2771 1.391 . S
C2771 H2759 0.950 . S
C2771 C2767 1.393 . S
C2771 C2770 1.391 . S
H2772 C2780 0.950 1_565 S
H2773 C2785 0.950 . S
H2774 C2782 0.950 . S
H2775 C2784 0.950 . S
H2776 C2786 0.950 . S
H2777 C2788 0.950 . S
H2778 C2790 0.950 . S
H2779 C2791 0.950 . S
C2780 H2772 0.950 1_545 S
C2780 C2781 1.386 . S
C2780 C2782 1.391 . S
C2781 C2780 1.386 . S
C2781 C2785 1.393 . S
C2782 H2774 0.950 . S
C2782 C2780 1.391 . S
C2782 C2783 1.400 . S
C2783 C2782 1.400 . S
C2783 C2784 1.398 . S
C2783 C2789 1.491 . S
C2784 H2775 0.950 . S
C2784 C2783 1.398 . S
C2784 C2785 1.391 . S
C2785 H2773 0.950 . S
C2785 C2781 1.393 . S
C2785 C2784 1.391 . S
C2786 H2776 0.950 . S
C2786 C2787 1.386 . S
C2786 C2788 1.391 . S
C2787 C2786 1.386 . S
C2787 C2791 1.393 . S
C2788 H2777 0.950 . S
C2788 C2786 1.391 . S
C2788 C2789 1.400 . S
C2789 C2783 1.491 . S
C2789 C2788 1.400 . S
C2789 C2790 1.398 . S
C2790 H2778 0.950 . S
C2790 C2789 1.398 . S
C2790 C2791 1.391 . S
C2791 H2779 0.950 . S
C2791 C2787 1.393 . S
C2791 C2790 1.391 . S
H2792 C2800 0.950 . S
H2793 C2805 0.950 . S
H2794 C2802 0.950 . S
H2795 C2804 0.950 . S
H2796 C2806 0.950 . S
H2797 C2808 0.950 . S
H2798 C2810 0.950 . S
H2799 C2811 0.950 . S
C2800 H2792 0.950 . S
C2800 C2801 1.386 . S
C2800 C2802 1.391 . S
C2801 C2800 1.386 . S
C2801 C2805 1.393 . S
C2802 H2794 0.950 . S
C2802 C2800 1.391 . S
C2802 C2803 1.400 . S
C2803 C2802 1.400 . S
C2803 C2804 1.398 . S
C2803 C2809 1.491 . S
C2804 H2795 0.950 . S
C2804 C2803 1.398 . S
C2804 C2805 1.391 . S
C2805 H2793 0.950 . S
C2805 C2801 1.393 . S
C2805 C2804 1.391 . S
C2806 H2796 0.950 . S
C2806 C2807 1.386 . S
C2806 C2808 1.391 . S
C2807 C2806 1.386 . S
C2807 C2811 1.393 . S
C2808 H2797 0.950 . S
C2808 C2806 1.391 . S
C2808 C2809 1.400 . S
C2809 C2803 1.491 . S
C2809 C2808 1.400 . S
C2809 C2810 1.398 . S
C2810 H2798 0.950 . S
C2810 C2809 1.398 . S
C2810 C2811 1.391 . S
C2811 H2799 0.950 . S
C2811 C2807 1.393 . S
C2811 C2810 1.391 . S
H2812 C2820 0.950 . S
H2813 C2825 0.950 1_545 S
H2814 C2822 0.950 . S
H2815 C2824 0.950 . S
H2816 C2826 0.950 . S
H2817 C2828 0.950 . S
H2818 C2830 0.950 . S
H2819 C2831 0.950 . S
C2820 H2812 0.950 . S
C2820 C2821 1.386 . S
C2820 C2822 1.391 . S
C2821 C2820 1.386 . S
C2821 C2825 1.393 . S
C2822 H2814 0.950 . S
C2822 C2820 1.391 . S
C2822 C2823 1.400 . S
C2823 C2822 1.400 . S
C2823 C2824 1.398 . S
C2823 C2829 1.491 . S
C2824 H2815 0.950 . S
C2824 C2823 1.398 . S
C2824 C2825 1.391 . S
C2825 H2813 0.950 1_565 S
C2825 C2821 1.393 . S
C2825 C2824 1.391 . S
C2826 H2816 0.950 . S
C2826 C2827 1.386 . S
C2826 C2828 1.391 . S
C2827 C2826 1.386 . S
C2827 C2831 1.393 . S
C2828 H2817 0.950 . S
C2828 C2826 1.391 . S
C2828 C2829 1.400 . S
C2829 C2823 1.491 . S
C2829 C2828 1.400 . S
C2829 C2830 1.398 . S
C2830 H2818 0.950 . S
C2830 C2829 1.398 . S
C2830 C2831 1.391 . S
C2831 H2819 0.950 . S
C2831 C2827 1.393 . S
C2831 C2830 1.391 . S
H2832 C2840 0.950 . S
H2833 C2845 0.950 . S
H2834 C2842 0.950 . S
H2835 C2844 0.950 . S
H2836 C2846 0.950 . S
H2837 C2848 0.950 . S
H2838 C2850 0.950 . S
H2839 C2851 0.950 . S
C2840 H2832 0.950 . S
C2840 C2841 1.386 . S
C2840 C2842 1.391 . S
C2841 C2840 1.386 . S
C2841 C2845 1.393 . S
C2842 H2834 0.950 . S
C2842 C2840 1.391 . S
C2842 C2843 1.400 . S
C2843 C2842 1.400 . S
C2843 C2844 1.398 . S
C2843 C2849 1.491 . S
C2844 H2835 0.950 . S
C2844 C2843 1.398 . S
C2844 C2845 1.391 . S
C2845 H2833 0.950 . S
C2845 C2841 1.393 . S
C2845 C2844 1.391 . S
C2846 H2836 0.950 . S
C2846 C2847 1.386 . S
C2846 C2848 1.391 . S
C2847 C2846 1.386 . S
C2847 C2851 1.393 . S
C2848 H2837 0.950 . S
C2848 C2846 1.391 . S
C2848 C2849 1.400 . S
C2849 C2843 1.491 . S
C2849 C2848 1.400 . S
C2849 C2850 1.398 . S
C2850 H2838 0.950 . S
C2850 C2849 1.398 . S
C2850 C2851 1.391 . S
C2851 H2839 0.950 . S
C2851 C2847 1.393 . S
C2851 C2850 1.391 . S
H2852 C2860 0.950 . S
H2853 C2865 0.950 . S
H2854 C2862 0.950 . S
H2855 C2864 0.950 . S
H2856 C2866 0.950 . S
H2857 C2868 0.950 . S
H2858 C2870 0.950 . S
H2859 C2871 0.950 . S
C2860 H2852 0.950 . S
C2860 C2861 1.386 . S
C2860 C2862 1.391 . S
C2861 C2860 1.386 . S
C2861 C2865 1.393 . S
C2862 H2854 0.950 . S
C2862 C2860 1.391 . S
C2862 C2863 1.400 . S
C2863 C2862 1.400 . S
C2863 C2864 1.398 . S
C2863 C2869 1.491 . S
C2864 H2855 0.950 . S
C2864 C2863 1.398 . S
C2864 C2865 1.391 . S
C2865 H2853 0.950 . S
C2865 C2861 1.393 . S
C2865 C2864 1.391 . S
C2866 H2856 0.950 . S
C2866 C2867 1.386 . S
C2866 C2868 1.391 . S
C2867 C2866 1.386 . S
C2867 C2871 1.393 . S
C2868 H2857 0.950 . S
C2868 C2866 1.391 . S
C2868 C2869 1.400 . S
C2869 C2863 1.491 . S
C2869 C2868 1.400 . S
C2869 C2870 1.398 . S
C2870 H2858 0.950 . S
C2870 C2869 1.398 . S
C2870 C2871 1.391 . S
C2871 H2859 0.950 . S
C2871 C2867 1.393 . S
C2871 C2870 1.391 . S
H2872 C2880 0.950 . S
H2873 C2885 0.950 . S
H2874 C2882 0.950 . S
H2875 C2884 0.950 . S
H2876 C2886 0.950 . S
H2877 C2888 0.950 . S
H2878 C2890 0.950 . S
H2879 C2891 0.950 . S
C2880 H2872 0.950 . S
C2880 C2881 1.386 . S
C2880 C2882 1.391 . S
C2881 C2880 1.386 . S
C2881 C2885 1.393 . S
C2882 H2874 0.950 . S
C2882 C2880 1.391 . S
C2882 C2883 1.400 . S
C2883 C2882 1.400 . S
C2883 C2884 1.398 . S
C2883 C2889 1.491 . S
C2884 H2875 0.950 . S
C2884 C2883 1.398 . S
C2884 C2885 1.391 . S
C2885 H2873 0.950 . S
C2885 C2881 1.393 . S
C2885 C2884 1.391 . S
C2886 H2876 0.950 . S
C2886 C2887 1.386 . S
C2886 C2888 1.391 . S
C2887 C2886 1.386 . S
C2887 C2891 1.393 . S
C2888 H2877 0.950 . S
C2888 C2886 1.391 . S
C2888 C2889 1.400 . S
C2889 C2883 1.491 . S
C2889 C2888 1.400 . S
C2889 C2890 1.398 . S
C2890 H2878 0.950 . S
C2890 C2889 1.398 . S
C2890 C2891 1.391 . S
C2891 H2879 0.950 . S
C2891 C2887 1.393 . S
C2891 C2890 1.391 . S
H2892 C2900 0.950 . S
H2893 C2905 0.950 . S
H2894 C2902 0.950 . S
H2895 C2904 0.950 . S
H2896 C2906 0.950 . S
H2897 C2908 0.950 . S
H2898 C2910 0.950 . S
H2899 C2911 0.950 . S
C2900 H2892 0.950 . S
C2900 C2901 1.386 . S
C2900 C2902 1.391 . S
C2901 C2900 1.386 . S
C2901 C2905 1.393 . S
C2902 H2894 0.950 . S
C2902 C2900 1.391 . S
C2902 C2903 1.400 . S
C2903 C2902 1.400 . S
C2903 C2904 1.398 . S
C2903 C2909 1.491 . S
C2904 H2895 0.950 . S
C2904 C2903 1.398 . S
C2904 C2905 1.391 . S
C2905 H2893 0.950 . S
C2905 C2901 1.393 . S
C2905 C2904 1.391 . S
C2906 H2896 0.950 . S
C2906 C2907 1.386 . S
C2906 C2908 1.391 . S
C2907 C2906 1.386 . S
C2907 C2911 1.393 . S
C2908 H2897 0.950 . S
C2908 C2906 1.391 . S
C2908 C2909 1.400 . S
C2909 C2903 1.491 . S
C2909 C2908 1.400 . S
C2909 C2910 1.398 . S
C2910 H2898 0.950 . S
C2910 C2909 1.398 . S
C2910 C2911 1.391 . S
C2911 H2899 0.950 . S
C2911 C2907 1.393 . S
C2911 C2910 1.391 . S
H2912 C2920 0.950 . S
H2913 C2925 0.950 . S
H2914 C2922 0.950 . S
H2915 C2924 0.950 . S
H2916 C2926 0.950 . S
H2917 C2928 0.950 . S
H2918 C2930 0.950 . S
H2919 C2931 0.950 . S
C2920 H2912 0.950 . S
C2920 C2921 1.386 . S
C2920 C2922 1.391 . S
C2921 C2920 1.386 . S
C2921 C2925 1.393 . S
C2922 H2914 0.950 . S
C2922 C2920 1.391 . S
C2922 C2923 1.400 . S
C2923 C2922 1.400 . S
C2923 C2924 1.398 . S
C2923 C2929 1.491 . S
C2924 H2915 0.950 . S
C2924 C2923 1.398 . S
C2924 C2925 1.391 . S
C2925 H2913 0.950 . S
C2925 C2921 1.393 . S
C2925 C2924 1.391 . S
C2926 H2916 0.950 . S
C2926 C2927 1.386 . S
C2926 C2928 1.391 . S
C2927 C2926 1.386 . S
C2927 C2931 1.393 . S
C2928 H2917 0.950 . S
C2928 C2926 1.391 . S
C2928 C2929 1.400 . S
C2929 C2923 1.491 . S
C2929 C2928 1.400 . S
C2929 C2930 1.398 . S
C2930 H2918 0.950 . S
C2930 C2929 1.398 . S
C2930 C2931 1.391 . S
C2931 H2919 0.950 . S
C2931 C2927 1.393 . S
C2931 C2930 1.391 . S
H2932 C2940 0.950 . S
H2933 C2945 0.950 . S
H2934 C2942 0.950 . S
H2935 C2944 0.950 . S
H2936 C2946 0.950 . S
H2937 C2948 0.950 . S
H2938 C2950 0.950 . S
H2939 C2951 0.950 . S
C2940 H2932 0.950 . S
C2940 C2941 1.386 . S
C2940 C2942 1.391 . S
C2941 C2940 1.386 . S
C2941 C2945 1.393 . S
C2942 H2934 0.950 . S
C2942 C2940 1.391 . S
C2942 C2943 1.400 . S
C2943 C2942 1.400 . S
C2943 C2944 1.398 . S
C2943 C2949 1.491 . S
C2944 H2935 0.950 . S
C2944 C2943 1.398 . S
C2944 C2945 1.391 . S
C2945 H2933 0.950 . S
C2945 C2941 1.393 . S
C2945 C2944 1.391 . S
C2946 H2936 0.950 . S
C2946 C2947 1.386 . S
C2946 C2948 1.391 . S
C2947 C2946 1.386 . S
C2947 C2951 1.393 . S
C2948 H2937 0.950 . S
C2948 C2946 1.391 . S
C2948 C2949 1.400 . S
C2949 C2943 1.491 . S
C2949 C2948 1.400 . S
C2949 C2950 1.398 . S
C2950 H2938 0.950 . S
C2950 C2949 1.398 . S
C2950 C2951 1.391 . S
C2951 H2939 0.950 . S
C2951 C2947 1.393 . S
C2951 C2950 1.391 . S
H2952 C2960 0.950 . S
H2953 C2965 0.950 . S
H2954 C2962 0.950 . S
H2955 C2964 0.950 . S
H2956 C2966 0.950 . S
H2957 C2968 0.950 . S
H2958 C2970 0.950 . S
H2959 C2971 0.950 . S
C2960 H2952 0.950 . S
C2960 C2961 1.386 . S
C2960 C2962 1.391 . S
C2961 C2960 1.386 . S
C2961 C2965 1.393 . S
C2962 H2954 0.950 . S
C2962 C2960 1.391 . S
C2962 C2963 1.400 . S
C2963 C2962 1.400 . S
C2963 C2964 1.398 . S
C2963 C2969 1.491 . S
C2964 H2955 0.950 . S
C2964 C2963 1.398 . S
C2964 C2965 1.391 . S
C2965 H2953 0.950 . S
C2965 C2961 1.393 . S
C2965 C2964 1.391 . S
C2966 H2956 0.950 . S
C2966 C2967 1.386 . S
C2966 C2968 1.391 . S
C2967 C2966 1.386 . S
C2967 C2971 1.393 . S
C2968 H2957 0.950 . S
C2968 C2966 1.391 . S
C2968 C2969 1.400 . S
C2969 C2963 1.491 . S
C2969 C2968 1.400 . S
C2969 C2970 1.398 . S
C2970 H2958 0.950 . S
C2970 C2969 1.398 . S
C2970 C2971 1.391 . S
C2971 H2959 0.950 . S
C2971 C2967 1.393 . S
C2971 C2970 1.391 . S
H2972 C2980 0.950 . S
H2973 C2985 0.950 . S
H2974 C2982 0.950 . S
H2975 C2984 0.950 . S
H2976 C2986 0.950 . S
H2977 C2988 0.950 . S
H2978 C2990 0.950 . S
H2979 C2991 0.950 . S
C2980 H2972 0.950 . S
C2980 C2981 1.386 . S
C2980 C2982 1.391 . S
C2981 C2980 1.386 . S
C2981 C2985 1.393 . S
C2982 H2974 0.950 . S
C2982 C2980 1.391 . S
C2982 C2983 1.400 . S
C2983 C2982 1.400 . S
C2983 C2984 1.398 . S
C2983 C2989 1.491 . S
C2984 H2975 0.950 . S
C2984 C2983 1.398 . S
C2984 C2985 1.391 . S
C2985 H2973 0.950 . S
C2985 C2981 1.393 . S
C2985 C2984 1.391 . S
C2986 H2976 0.950 . S
C2986 C2987 1.386 . S
C2986 C2988 1.391 . S
C2987 C2986 1.386 . S
C2987 C2991 1.393 . S
C2988 H2977 0.950 . S
C2988 C2986 1.391 . S
C2988 C2989 1.400 . S
C2989 C2983 1.491 . S
C2989 C2988 1.400 . S
C2989 C2990 1.398 . S
C2990 H2978 0.950 . S
C2990 C2989 1.398 . S
C2990 C2991 1.391 . S
C2991 H2979 0.950 . S
C2991 C2987 1.393 . S
C2991 C2990 1.391 . S
H2992 C3000 0.950 . S
H2993 C3005 0.950 . S
H2994 C3002 0.950 . S
H2995 C3004 0.950 . S
H2996 C3006 0.950 . S
H2997 C3008 0.950 . S
H2998 C3010 0.950 . S
H2999 C3011 0.950 . S
C3000 H2992 0.950 . S
C3000 C3001 1.386 . S
C3000 C3002 1.391 . S
C3001 C3000 1.386 . S
C3001 C3005 1.393 . S
C3002 H2994 0.950 . S
C3002 C3000 1.391 . S
C3002 C3003 1.400 . S
C3003 C3002 1.400 . S
C3003 C3004 1.398 . S
C3003 C3009 1.491 . S
C3004 H2995 0.950 . S
C3004 C3003 1.398 . S
C3004 C3005 1.391 . S
C3005 H2993 0.950 . S
C3005 C3001 1.393 . S
C3005 C3004 1.391 . S
C3006 H2996 0.950 . S
C3006 C3007 1.386 . S
C3006 C3008 1.391 . S
C3007 C3006 1.386 . S
C3007 C3011 1.393 . S
C3008 H2997 0.950 . S
C3008 C3006 1.391 . S
C3008 C3009 1.400 . S
C3009 C3003 1.491 . S
C3009 C3008 1.400 . S
C3009 C3010 1.398 . S
C3010 H2998 0.950 . S
C3010 C3009 1.398 . S
C3010 C3011 1.391 . S
C3011 H2999 0.950 . S
C3011 C3007 1.393 . S
C3011 C3010 1.391 . S
H3012 C3020 0.950 . S
H3013 C3025 0.950 . S
H3014 C3022 0.950 . S
H3015 C3024 0.950 . S
H3016 C3026 0.950 . S
H3017 C3028 0.950 . S
H3018 C3030 0.950 . S
H3019 C3031 0.950 . S
C3020 H3012 0.950 . S
C3020 C3021 1.386 . S
C3020 C3022 1.391 . S
C3021 C3020 1.386 . S
C3021 C3025 1.393 . S
C3022 H3014 0.950 . S
C3022 C3020 1.391 . S
C3022 C3023 1.400 . S
C3023 C3022 1.400 . S
C3023 C3024 1.398 . S
C3023 C3029 1.491 . S
C3024 H3015 0.950 . S
C3024 C3023 1.398 . S
C3024 C3025 1.391 . S
C3025 H3013 0.950 . S
C3025 C3021 1.393 . S
C3025 C3024 1.391 . S
C3026 H3016 0.950 . S
C3026 C3027 1.386 . S
C3026 C3028 1.391 . S
C3027 C3026 1.386 . S
C3027 C3031 1.393 . S
C3028 H3017 0.950 . S
C3028 C3026 1.391 . S
C3028 C3029 1.400 . S
C3029 C3023 1.491 . S
C3029 C3028 1.400 . S
C3029 C3030 1.398 . S
C3030 H3018 0.950 . S
C3030 C3029 1.398 . S
C3030 C3031 1.391 . S
C3031 H3019 0.950 . S
C3031 C3027 1.393 . S
C3031 C3030 1.391 . S
H3032 C3040 0.950 . S
H3033 C3045 0.950 . S
H3034 C3042 0.950 . S
H3035 C3044 0.950 . S
H3036 C3046 0.950 . S
H3037 C3048 0.950 . S
H3038 C3050 0.950 . S
H3039 C3051 0.950 . S
C3040 H3032 0.950 . S
C3040 C3041 1.386 . S
C3040 C3042 1.391 . S
C3041 C3040 1.386 . S
C3041 C3045 1.393 . S
C3042 H3034 0.950 . S
C3042 C3040 1.391 . S
C3042 C3043 1.400 . S
C3043 C3042 1.400 . S
C3043 C3044 1.398 . S
C3043 C3049 1.491 . S
C3044 H3035 0.950 . S
C3044 C3043 1.398 . S
C3044 C3045 1.391 . S
C3045 H3033 0.950 . S
C3045 C3041 1.393 . S
C3045 C3044 1.391 . S
C3046 H3036 0.950 . S
C3046 C3047 1.386 . S
C3046 C3048 1.391 . S
C3047 C3046 1.386 . S
C3047 C3051 1.393 . S
C3048 H3037 0.950 . S
C3048 C3046 1.391 . S
C3048 C3049 1.400 . S
C3049 C3043 1.491 . S
C3049 C3048 1.400 . S
C3049 C3050 1.398 . S
C3050 H3038 0.950 . S
C3050 C3049 1.398 . S
C3050 C3051 1.391 . S
C3051 H3039 0.950 . S
C3051 C3047 1.393 . S
C3051 C3050 1.391 . S
H3052 C3060 0.950 . S
H3053 C3065 0.950 . S
H3054 C3062 0.950 . S
H3055 C3064 0.950 . S
H3056 C3066 0.950 . S
H3057 C3068 0.950 . S
H3058 C3070 0.950 . S
H3059 C3071 0.950 . S
C3060 H3052 0.950 . S
C3060 C3061 1.386 . S
C3060 C3062 1.391 . S
C3061 C3060 1.386 . S
C3061 C3065 1.393 . S
C3062 H3054 0.950 . S
C3062 C3060 1.391 . S
C3062 C3063 1.400 . S
C3063 C3062 1.400 . S
C3063 C3064 1.398 . S
C3063 C3069 1.491 . S
C3064 H3055 0.950 . S
C3064 C3063 1.398 . S
C3064 C3065 1.391 . S
C3065 H3053 0.950 . S
C3065 C3061 1.393 . S
C3065 C3064 1.391 . S
C3066 H3056 0.950 . S
C3066 C3067 1.386 . S
C3066 C3068 1.391 . S
C3067 C3066 1.386 . S
C3067 C3071 1.393 . S
C3068 H3057 0.950 . S
C3068 C3066 1.391 . S
C3068 C3069 1.400 . S
C3069 C3063 1.491 . S
C3069 C3068 1.400 . S
C3069 C3070 1.398 . S
C3070 H3058 0.950 . S
C3070 C3069 1.398 . S
C3070 C3071 1.391 . S
C3071 H3059 0.950 . S
C3071 C3067 1.393 . S
C3071 C3070 1.391 . S
C2121 C849 1.213 . S
C2127 C57 1.213 . S
C2141 C117 1.397 1_455 S
C2147 C900 1.378 . S
C2161 C225 1.234 . S
C2167 C988 1.236 1_556 S
C2181 C293 1.405 . S
C2187 C753 1.388 . S
C2201 C381 1.228 . S
C2207 C1349 1.230 . S
C2221 C1085 1.390 . S
C2227 C497 1.407 1_655 S
C2241 C548 1.214 . S
C2247 C1193 1.213 1_554 S
C2261 C1281 1.358 . S
C2267 C665 1.373 . S
C2281 C1465 1.369 . S
C2287 C1604 1.354 . S
C2301 C1985 1.384 1_545 S
C2307 C1516 1.397 . S
C2321 C1692 1.402 . S
C2327 C2073 1.388 1_565 S
C2341 C1897 1.397 . S
C2347 C1780 1.378 . S
C2361 C1817 1.638 . S
C2367 C20 1.643 . S
C2381 C108 1.644 . S
C2387 C1525 1.654 . S
C2401 C205 1.637 . S
C2407 C1641 1.645 . S
C2421 C284 1.653 . S
C2427 C1701 1.644 . S
C2441 C401 1.637 . S
C2447 C2053 1.646 . S
C2461 C1905 1.645 . S
C2467 C489 1.655 . S
C2481 C1965 1.638 . S
C2487 C585 1.644 . S
C2501 C1457 1.646 . S
C2507 C673 1.649 . S
C2521 C1369 1.639 . S
C2527 C733 1.642 . S
C2541 C812 1.636 . S
C2547 C1105 1.647 . S
C2561 C1173 1.643 . S
C2567 C937 1.644 . S
C2581 C1261 1.648 . S
C2587 C1025 1.637 . S
C2601 C49 0.809 . S
C2607 C1428 0.900 . S
C2621 C2044 0.999 . S
C2627 C145 0.886 . S
C2641 C1877 0.898 . S
C2647 C233 0.855 . S
C2661 C321 0.921 . S
C2667 C1956 1.025 . S
C2681 C372 0.818 . S
C2687 C1553 0.900 . S
C2701 C1633 1.022 . S
C2707 C469 0.930 . S
C2721 C1729 0.901 . S
C2727 C557 0.824 . S
C2741 C1809 1.000 . S
C2747 C636 0.885 . S
C2761 C29 0.964 . S
C2767 C761 0.870 . S
C2781 C137 0.893 . S
C2787 C841 0.878 . S
C2801 C196 0.967 . S
C2807 C909 0.855 . S
C2821 C313 0.901 . S
C2827 C997 0.824 . S
C2841 C409 0.967 . S
C2847 C1076 0.855 . S
C2861 C460 0.901 . S
C2867 C1201 0.825 . S
C2881 C1289 0.890 . S
C2887 C577 0.968 . S
C2901 C645 0.901 . S
C2907 C1340 0.817 . S
C2921 C724 0.997 . S
C2927 C1437 0.920 . S
C2941 C1545 0.949 . S
C2947 C1113 0.999 . S
C2961 C1164 0.963 . S
C2967 C1613 0.892 . S
C2981 C1721 0.925 . S
C2987 C1252 1.001 . S
C3001 C1789 0.855 . S
C3007 C1377 0.967 . S
C3021 C1868 0.925 . S
C3027 C929 1.001 . S
C3041 C1017 0.964 . S
C3047 C1993 0.921 . S
C3061 C2081 0.903 . S
C3067 C821 0.966 . S
