# Generated by pormake.
# Topology wiv, (6)-cn, num edge types: 1
# Building blocks:
#     Node 0, Type 0, BuildingBlock: BETDEL_clean_sbu_0, # of connection points: 6
#     Node 1, Type 0, BuildingBlock: BETDEL_clean_sbu_0, # of connection points: 6
#     Node 2, Type 0, BuildingBlock: BETDEL_clean_sbu_0, # of connection points: 6
#     Node 3, Type 0, BuildingBlock: BETDEL_clean_sbu_0, # of connection points: 6
#     Node 4, Type 0, BuildingBlock: BETDEL_clean_sbu_0, # of connection points: 6
#     Node 5, Type 0, BuildingBlock: BETDEL_clean_sbu_0, # of connection points: 6
#     Node 6, Type 0, BuildingBlock: BETDEL_clean_sbu_0, # of connection points: 6
#     Node 7, Type 0, BuildingBlock: BETDEL_clean_sbu_0, # of connection points: 6
#     Node 8, Type 0, BuildingBlock: BETDEL_clean_sbu_0, # of connection points: 6
#     Node 9, Type 0, BuildingBlock: BETDEL_clean_sbu_0, # of connection points: 6
#     Node 10, Type 0, BuildingBlock: BETDEL_clean_sbu_0, # of connection points: 6
#     Node 11, Type 0, BuildingBlock: BETDEL_clean_sbu_0, # of connection points: 6
#     Node 12, Type 0, BuildingBlock: BETDEL_clean_sbu_0, # of connection points: 6
#     Node 13, Type 0, BuildingBlock: BETDEL_clean_sbu_0, # of connection points: 6
#     Node 14, Type 0, BuildingBlock: BETDEL_clean_sbu_0, # of connection points: 6
#     Node 15, Type 0, BuildingBlock: BETDEL_clean_sbu_0, # of connection points: 6
#     Edge 16, Type (0, 0), BuildingBlock: ZUJKAS_clean_linker_0, # of connection points: 2
#     Edge 17, Type (0, 0), BuildingBlock: ZUJKAS_clean_linker_0, # of connection points: 2
#     Edge 18, Type (0, 0), BuildingBlock: ZUJKAS_clean_linker_0, # of connection points: 2
#     Edge 19, Type (0, 0), BuildingBlock: ZUJKAS_clean_linker_0, # of connection points: 2
#     Edge 20, Type (0, 0), BuildingBlock: ZUJKAS_clean_linker_0, # of connection points: 2
#     Edge 21, Type (0, 0), BuildingBlock: ZUJKAS_clean_linker_0, # of connection points: 2
#     Edge 22, Type (0, 0), BuildingBlock: ZUJKAS_clean_linker_0, # of connection points: 2
#     Edge 23, Type (0, 0), BuildingBlock: ZUJKAS_clean_linker_0, # of connection points: 2
#     Edge 24, Type (0, 0), BuildingBlock: ZUJKAS_clean_linker_0, # of connection points: 2
#     Edge 25, Type (0, 0), BuildingBlock: ZUJKAS_clean_linker_0, # of connection points: 2
#     Edge 26, Type (0, 0), BuildingBlock: ZUJKAS_clean_linker_0, # of connection points: 2
#     Edge 27, Type (0, 0), BuildingBlock: ZUJKAS_clean_linker_0, # of connection points: 2
#     Edge 28, Type (0, 0), BuildingBlock: ZUJKAS_clean_linker_0, # of connection points: 2
#     Edge 29, Type (0, 0), BuildingBlock: ZUJKAS_clean_linker_0, # of connection points: 2
#     Edge 30, Type (0, 0), BuildingBlock: ZUJKAS_clean_linker_0, # of connection points: 2
#     Edge 31, Type (0, 0), BuildingBlock: ZUJKAS_clean_linker_0, # of connection points: 2
#     Edge 32, Type (0, 0), BuildingBlock: ZUJKAS_clean_linker_0, # of connection points: 2
#     Edge 33, Type (0, 0), BuildingBlock: ZUJKAS_clean_linker_0, # of connection points: 2
#     Edge 34, Type (0, 0), BuildingBlock: ZUJKAS_clean_linker_0, # of connection points: 2
#     Edge 35, Type (0, 0), BuildingBlock: ZUJKAS_clean_linker_0, # of connection points: 2
#     Edge 36, Type (0, 0), BuildingBlock: ZUJKAS_clean_linker_0, # of connection points: 2
#     Edge 37, Type (0, 0), BuildingBlock: ZUJKAS_clean_linker_0, # of connection points: 2
#     Edge 38, Type (0, 0), BuildingBlock: ZUJKAS_clean_linker_0, # of connection points: 2
#     Edge 39, Type (0, 0), BuildingBlock: ZUJKAS_clean_linker_0, # of connection points: 2
#     Edge 40, Type (0, 0), BuildingBlock: ZUJKAS_clean_linker_0, # of connection points: 2
#     Edge 41, Type (0, 0), BuildingBlock: ZUJKAS_clean_linker_0, # of connection points: 2
#     Edge 42, Type (0, 0), BuildingBlock: ZUJKAS_clean_linker_0, # of connection points: 2
#     Edge 43, Type (0, 0), BuildingBlock: ZUJKAS_clean_linker_0, # of connection points: 2
#     Edge 44, Type (0, 0), BuildingBlock: ZUJKAS_clean_linker_0, # of connection points: 2
#     Edge 45, Type (0, 0), BuildingBlock: ZUJKAS_clean_linker_0, # of connection points: 2
#     Edge 46, Type (0, 0), BuildingBlock: ZUJKAS_clean_linker_0, # of connection points: 2
#     Edge 47, Type (0, 0), BuildingBlock: ZUJKAS_clean_linker_0, # of connection points: 2
#     Edge 48, Type (0, 0), BuildingBlock: ZUJKAS_clean_linker_0, # of connection points: 2
#     Edge 49, Type (0, 0), BuildingBlock: ZUJKAS_clean_linker_0, # of connection points: 2
#     Edge 50, Type (0, 0), BuildingBlock: ZUJKAS_clean_linker_0, # of connection points: 2
#     Edge 51, Type (0, 0), BuildingBlock: ZUJKAS_clean_linker_0, # of connection points: 2
#     Edge 52, Type (0, 0), BuildingBlock: ZUJKAS_clean_linker_0, # of connection points: 2
#     Edge 53, Type (0, 0), BuildingBlock: ZUJKAS_clean_linker_0, # of connection points: 2
#     Edge 54, Type (0, 0), BuildingBlock: ZUJKAS_clean_linker_0, # of connection points: 2
#     Edge 55, Type (0, 0), BuildingBlock: ZUJKAS_clean_linker_0, # of connection points: 2
#     Edge 56, Type (0, 0), BuildingBlock: ZUJKAS_clean_linker_0, # of connection points: 2
#     Edge 57, Type (0, 0), BuildingBlock: ZUJKAS_clean_linker_0, # of connection points: 2
#     Edge 58, Type (0, 0), BuildingBlock: ZUJKAS_clean_linker_0, # of connection points: 2
#     Edge 59, Type (0, 0), BuildingBlock: ZUJKAS_clean_linker_0, # of connection points: 2
#     Edge 60, Type (0, 0), BuildingBlock: ZUJKAS_clean_linker_0, # of connection points: 2
#     Edge 61, Type (0, 0), BuildingBlock: ZUJKAS_clean_linker_0, # of connection points: 2
#     Edge 62, Type (0, 0), BuildingBlock: ZUJKAS_clean_linker_0, # of connection points: 2
#     Edge 63, Type (0, 0), BuildingBlock: ZUJKAS_clean_linker_0, # of connection points: 2
# Relax obj value: 0.065
# Max RMSD: 0.126
# Mean RMSD: 0.126
data_MOF--net-wiv--node1-BETDEL_clean_sbu_0--edge1-ZUJKAS_clean_linker_0
_symmetry_space_group_name_H-M    P1
_symmetry_Int_Tables_number       1
_symmetry_cell_setting            triclinic
loop_
_symmetry_equiv_pos_as_xyz
'x, y, z'
_cell_length_a     72.412038
_cell_length_b     72.475563
_cell_length_c     22.309095
_cell_angle_alpha  90.063537
_cell_angle_beta   90.014684
_cell_angle_gamma 90.017586
loop_
_atom_site_label
_atom_site_type_symbol
_atom_site_fract_x
_atom_site_fract_y
_atom_site_fract_z
_atom_type_partial_charge
Dy0 Dy 0.36671 0.12445 0.16672 0.0
C1 C 0.39014 0.12797 0.92384 0.0
C2 C 0.36046 0.11957 0.28703 0.0
Dy3 Dy 0.3839 0.12348 0.04424 0.0
O4 O 0.35584 0.13403 0.25623 0.0
O5 O 0.36782 0.10743 0.25148 0.0
O6 O 0.35454 0.15185 0.14623 0.0
O7 O 0.38072 0.14546 0.11169 0.0
C8 C 0.36822 0.15767 0.11377 0.0
C9 C 0.38276 0.09091 0.101 0.0
O10 O 0.40947 0.13169 0.09259 0.0
O11 O 0.39751 0.12368 0.18531 0.0
O12 O 0.39509 0.11376 0.95533 0.0
O13 O 0.3825 0.14011 0.95879 0.0
O14 O 0.39611 0.0957 0.06544 0.0
O15 O 0.37026 0.10297 0.10064 0.0
O16 O 0.34097 0.1166 0.11608 0.0
O17 O 0.3536 0.124 0.02375 0.0
C18 C 0.41168 0.12825 0.15043 0.0
C19 C 0.33928 0.11942 0.05749 0.0
Dy20 Dy 0.12037 0.62626 0.98331 0.0
C21 C 0.11714 0.64921 0.74062 0.0
C22 C 0.12473 0.62019 0.10379 0.0
Dy23 Dy 0.1216 0.64307 0.8611 0.0
O24 O 0.11065 0.61496 0.072 0.0
O25 O 0.13678 0.62807 0.06918 0.0
O26 O 0.09288 0.6135 0.96151 0.0
O27 O 0.0997 0.63939 0.92575 0.0
C28 C 0.08787 0.62664 0.92553 0.0
C29 C 0.15462 0.64249 0.91612 0.0
O30 O 0.11312 0.66879 0.9106 0.0
O31 O 0.12029 0.65653 1.00355 0.0
O32 O 0.13148 0.65388 0.77198 0.0
O33 O 0.10489 0.64181 0.77563 0.0
O34 O 0.14862 0.65596 0.88316 0.0
O35 O 0.14272 0.62968 0.9173 0.0
O36 O 0.12929 0.60077 0.93628 0.0
O37 O 0.12144 0.61225 0.8429 0.0
C38 C 0.11564 0.67067 0.96927 0.0
C39 C 0.12613 0.5983 0.87842 0.0
Dy40 Dy 0.64299 0.88395 0.16201 0.0
C41 C 0.61955 0.88049 0.91921 0.0
C42 C 0.64939 0.88897 0.28229 0.0
Dy43 Dy 0.62589 0.8847 0.03982 0.0
O44 O 0.65418 0.87459 0.25132 0.0
O45 O 0.64179 0.90098 0.2469 0.0
O46 O 0.65466 0.85623 0.14272 0.0
O47 O 0.62858 0.8629 0.10797 0.0
C48 C 0.64087 0.85049 0.11057 0.0
C49 C 0.62763 0.91754 0.09526 0.0
O50 O 0.60016 0.87701 0.08809 0.0
O51 O 0.6122 0.88531 0.18047 0.0
O52 O 0.62661 0.86802 0.95415 0.0
O53 O 0.61522 0.89489 0.95082 0.0
O54 O 0.61416 0.91272 0.06025 0.0
O55 O 0.63997 0.9053 0.0953 0.0
O56 O 0.66873 0.8914 0.11068 0.0
O57 O 0.65613 0.88249 0.01995 0.0
C58 C 0.59798 0.88075 0.14576 0.0
C59 C 0.67052 0.88744 0.05279 0.0
Dy60 Dy 0.88579 0.37982 0.96969 0.0
C61 C 0.89853 0.35636 0.72373 0.0
C62 C 0.88042 0.38509 0.09005 0.0
Dy63 Dy 0.88752 0.36225 0.83933 0.0
O64 O 0.89363 0.39236 0.05856 0.0
O65 O 0.8696 0.37564 0.05505 0.0
O66 O 0.91309 0.39355 0.95008 0.0
O67 O 0.90684 0.368 0.91105 0.0
C68 C 0.91842 0.38092 0.91248 0.0
C69 C 0.85206 0.36559 0.87334 0.0
O70 O 0.89389 0.33672 0.8937 0.0
O71 O 0.88939 0.34975 0.98869 0.0
O72 O 0.88744 0.34568 0.75385 0.0
O73 O 0.90433 0.36966 0.75809 0.0
O74 O 0.85726 0.35815 0.8232 0.0
O75 O 0.86624 0.37017 0.90275 0.0
O76 O 0.87429 0.40325 0.91781 0.0
O77 O 0.88626 0.39324 0.82638 0.0
C78 C 0.89286 0.33545 0.95326 0.0
C79 C 0.87879 0.40623 0.86102 0.0
Dy80 Dy 0.36638 0.38556 0.10335 0.0
C81 C 0.38929 0.38726 0.35443 0.0
C82 C 0.36012 0.39616 0.98802 0.0
Dy83 Dy 0.38412 0.38668 0.2333 0.0
O84 O 0.34988 0.38458 0.01785 0.0
O85 O 0.37321 0.40246 0.02227 0.0
O86 O 0.3628 0.35496 0.09303 0.0
O87 O 0.37492 0.36583 0.17021 0.0
C88 C 0.37051 0.35103 0.14403 0.0
C89 C 0.38405 0.41806 0.16946 0.0
O90 O 0.40902 0.37727 0.18442 0.0
O91 O 0.39736 0.38407 0.08907 0.0
O92 O 0.3847 0.40124 0.3215 0.0
O93 O 0.39162 0.3727 0.32083 0.0
O94 O 0.39729 0.41354 0.20591 0.0
O95 O 0.37135 0.40622 0.17152 0.0
O96 O 0.34091 0.39127 0.15824 0.0
O97 O 0.35391 0.38276 0.24978 0.0
C98 C 0.41111 0.37937 0.12576 0.0
C99 C 0.33945 0.38721 0.21627 0.0
Dy100 Dy 0.38442 0.62529 0.791 0.0
C101 C 0.38796 0.64848 0.03338 0.0
C102 C 0.38083 0.61903 0.67019 0.0
Dy103 Dy 0.38323 0.64219 0.91299 0.0
O104 O 0.3952 0.61495 0.7023 0.0
O105 O 0.36808 0.62583 0.70467 0.0
O106 O 0.41192 0.6128 0.81421 0.0
O107 O 0.40502 0.639 0.84764 0.0
C108 C 0.41696 0.62638 0.84843 0.0
C109 C 0.35012 0.64115 0.85882 0.0
O110 O 0.39127 0.66791 0.86276 0.0
O111 O 0.38287 0.65553 0.77123 0.0
O112 O 0.37351 0.65302 1.00236 0.0
O113 O 0.40018 0.64115 0.99803 0.0
O114 O 0.35594 0.65467 0.89201 0.0
O115 O 0.36215 0.62846 0.85737 0.0
O116 O 0.37587 0.5997 0.83785 0.0
O117 O 0.38386 0.61135 0.931 0.0
C118 C 0.38777 0.6698 0.80463 0.0
C119 C 0.37923 0.5973 0.8956 0.0
Dy120 Dy 0.64096 0.62326 0.10967 0.0
C121 C 0.61632 0.62507 0.36012 0.0
C122 C 0.6476 0.61345 0.99349 0.0
Dy123 Dy 0.62243 0.6221 0.23946 0.0
O124 O 0.65729 0.62534 0.02404 0.0
O125 O 0.6349 0.60632 0.02754 0.0
O126 O 0.64456 0.65401 0.10139 0.0
O127 O 0.63193 0.64268 0.17654 0.0
C128 C 0.63648 0.65765 0.15199 0.0
C129 C 0.62258 0.59082 0.17513 0.0
O130 O 0.59826 0.63246 0.1884 0.0
O131 O 0.61005 0.62478 0.0939 0.0
O132 O 0.61352 0.61037 0.32808 0.0
O133 O 0.62175 0.63849 0.32564 0.0
O134 O 0.60934 0.59523 0.21184 0.0
O135 O 0.63534 0.6026 0.17768 0.0
O136 O 0.66643 0.61737 0.16467 0.0
O137 O 0.65275 0.62061 0.25925 0.0
C138 C 0.59628 0.62999 0.12979 0.0
C139 C 0.6674 0.61815 0.22433 0.0
Dy140 Dy 0.62301 0.38365 0.79002 0.0
C141 C 0.61942 0.36056 0.03267 0.0
C142 C 0.62677 0.3899 0.66934 0.0
Dy143 Dy 0.62432 0.36681 0.91241 0.0
O144 O 0.61226 0.39372 0.70106 0.0
O145 O 0.63957 0.38334 0.70414 0.0
O146 O 0.59555 0.39621 0.813 0.0
O147 O 0.60252 0.37012 0.84717 0.0
C148 C 0.59061 0.38278 0.84787 0.0
C149 C 0.65741 0.36796 0.85834 0.0
O150 O 0.6163 0.34104 0.86233 0.0
O151 O 0.62396 0.35336 0.76999 0.0
O152 O 0.63383 0.3558 1.00172 0.0
O153 O 0.60735 0.3681 0.99733 0.0
O154 O 0.65159 0.35441 0.89133 0.0
O155 O 0.64528 0.38055 0.85656 0.0
O156 O 0.63086 0.40953 0.83678 0.0
O157 O 0.62436 0.39763 0.93098 0.0
C158 C 0.61929 0.33914 0.8039 0.0
C159 C 0.62825 0.41173 0.89504 0.0
Dy160 Dy 0.86258 0.62013 0.68295 0.0
C161 C 0.87993 0.62043 0.43211 0.0
C162 C 0.85739 0.60713 0.79613 0.0
Dy163 Dy 0.87839 0.6215 0.55405 0.0
O164 O 0.8463 0.61849 0.76874 0.0
O165 O 0.87068 0.60226 0.76036 0.0
O166 O 0.86001 0.64997 0.70477 0.0
O167 O 0.8707 0.64206 0.62123 0.0
C168 C 0.86702 0.65573 0.65463 0.0
C169 C 0.87873 0.58863 0.60987 0.0
O170 O 0.904 0.63034 0.60038 0.0
O171 O 0.89371 0.62033 0.69375 0.0
O172 O 0.8702 0.6097 0.46599 0.0
O173 O 0.88938 0.632 0.46495 0.0
O174 O 0.8918 0.59411 0.5744 0.0
O175 O 0.86606 0.60045 0.61141 0.0
O176 O 0.8365 0.61643 0.62913 0.0
O177 O 0.84889 0.62999 0.54422 0.0
C178 C 0.907 0.62644 0.65758 0.0
C179 C 0.83457 0.62356 0.57459 0.0
Dy180 Dy 0.62329 0.12331 0.48782 0.0
C181 C 0.61938 0.14676 0.24518 0.0
C182 C 0.62752 0.11709 0.60843 0.0
Dy183 Dy 0.62417 0.14044 0.36553 0.0
O184 O 0.61329 0.1123 0.57662 0.0
O185 O 0.63981 0.12457 0.57371 0.0
O186 O 0.59549 0.1111 0.46671 0.0
O187 O 0.60265 0.13696 0.43149 0.0
C188 C 0.59059 0.12444 0.43139 0.0
C189 C 0.65734 0.13937 0.41933 0.0
O190 O 0.61614 0.16607 0.41645 0.0
O191 O 0.62443 0.15358 0.50797 0.0
O192 O 0.63378 0.15145 0.27629 0.0
O193 O 0.60724 0.1393 0.28044 0.0
O194 O 0.65142 0.15294 0.38662 0.0
O195 O 0.64531 0.12668 0.42068 0.0
O196 O 0.63176 0.09781 0.43967 0.0
O197 O 0.62367 0.10965 0.3469 0.0
C198 C 0.61954 0.16787 0.47471 0.0
C199 C 0.6284 0.09555 0.38179 0.0
Dy200 Dy 0.14397 0.38788 0.67013 0.0
C201 C 0.12023 0.38294 0.41907 0.0
C202 C 0.1503 0.39827 0.786 0.0
Dy203 Dy 0.12592 0.38746 0.53949 0.0
O204 O 0.16062 0.38696 0.75536 0.0
O205 O 0.13711 0.40455 0.75216 0.0
O206 O 0.1477 0.3573 0.6822 0.0
O207 O 0.13534 0.36758 0.60508 0.0
C208 C 0.13987 0.35296 0.63178 0.0
C209 C 0.12563 0.41952 0.59991 0.0
O210 O 0.1022 0.37646 0.59137 0.0
O211 O 0.113 0.38697 0.68398 0.0
O212 O 0.11441 0.39679 0.45086 0.0
O213 O 0.12846 0.3711 0.45375 0.0
O214 O 0.11279 0.4148 0.56215 0.0
O215 O 0.13833 0.40769 0.59977 0.0
O216 O 0.16947 0.394 0.61542 0.0
O217 O 0.15616 0.3901 0.52048 0.0
C218 C 0.09963 0.38036 0.64891 0.0
C219 C 0.17062 0.39305 0.55582 0.0
Dy220 Dy 0.3875 0.88512 0.48988 0.0
C221 C 0.39066 0.86187 0.24648 0.0
C222 C 0.38314 0.89128 0.61034 0.0
Dy223 Dy 0.38607 0.86812 0.36687 0.0
O224 O 0.39738 0.89616 0.57881 0.0
O225 O 0.37093 0.8837 0.57546 0.0
O226 O 0.41518 0.89744 0.46806 0.0
O227 O 0.40786 0.87169 0.43201 0.0
C228 C 0.41988 0.88424 0.43178 0.0
C229 C 0.35323 0.86909 0.4226 0.0
O230 O 0.39422 0.84241 0.41674 0.0
O231 O 0.3871 0.85481 0.50968 0.0
O232 O 0.37621 0.85736 0.27755 0.0
O233 O 0.40293 0.86917 0.28175 0.0
O234 O 0.35882 0.85564 0.38868 0.0
O235 O 0.36528 0.88175 0.42358 0.0
O236 O 0.37886 0.91063 0.44232 0.0
O237 O 0.3864 0.89891 0.3488 0.0
C238 C 0.39156 0.84058 0.47537 0.0
C239 C 0.3819 0.91296 0.38431 0.0
Dy240 Dy 0.86746 0.88399 0.6049 0.0
C241 C 0.89072 0.88004 0.84813 0.0
C242 C 0.86128 0.88903 0.48459 0.0
Dy243 Dy 0.88452 0.88463 0.72772 0.0
O244 O 0.85611 0.8748 0.51556 0.0
O245 O 0.86917 0.90089 0.51997 0.0
O246 O 0.85509 0.8566 0.62432 0.0
O247 O 0.8812 0.8628 0.65988 0.0
C248 C 0.86861 0.85069 0.65727 0.0
C249 C 0.88365 0.91732 0.67155 0.0
O250 O 0.91002 0.87619 0.67954 0.0
O251 O 0.8983 0.88446 0.58672 0.0
O252 O 0.89602 0.8941 0.81653 0.0
O253 O 0.88272 0.86809 0.81329 0.0
O254 O 0.89689 0.91239 0.70731 0.0
O255 O 0.87107 0.90534 0.67145 0.0
O256 O 0.84179 0.89211 0.65563 0.0
O257 O 0.85421 0.88424 0.74785 0.0
C258 C 0.91237 0.87969 0.62181 0.0
C259 C 0.83999 0.88912 0.71412 0.0
Dy260 Dy 0.88607 0.12364 0.28533 0.0
C261 C 0.8902 0.14736 0.52799 0.0
C262 C 0.88245 0.1173 0.16449 0.0
Dy263 Dy 0.8852 0.1409 0.40773 0.0
O264 O 0.89694 0.11353 0.19644 0.0
O265 O 0.86959 0.12379 0.19918 0.0
O266 O 0.91365 0.11129 0.30799 0.0
O267 O 0.90669 0.13748 0.34148 0.0
C268 C 0.91866 0.12489 0.34218 0.0
C269 C 0.85201 0.13948 0.35423 0.0
O270 O 0.89307 0.16644 0.35633 0.0
O271 O 0.88398 0.15386 0.26571 0.0
O272 O 0.87572 0.15193 0.49715 0.0
O273 O 0.90232 0.13993 0.49248 0.0
O274 O 0.85771 0.15307 0.38736 0.0
O275 O 0.86416 0.12693 0.35273 0.0
O276 O 0.87776 0.09814 0.3334 0.0
O277 O 0.88592 0.11011 0.42609 0.0
C278 C 0.88903 0.16821 0.29852 0.0
C279 C 0.88124 0.09595 0.39122 0.0
Dy280 Dy 0.14206 0.12628 0.61119 0.0
C281 C 0.11941 0.12527 0.85485 0.0
C282 C 0.14806 0.12099 0.4911 0.0
Dy283 Dy 0.1254 0.12413 0.73358 0.0
O284 O 0.15426 0.1348 0.52233 0.0
O285 O 0.13923 0.10974 0.52606 0.0
O286 O 0.15376 0.15392 0.63137 0.0
O287 O 0.12802 0.14675 0.66816 0.0
C288 C 0.14033 0.15916 0.66595 0.0
C289 C 0.12667 0.09209 0.67347 0.0
O290 O 0.09889 0.1305 0.68816 0.0
O291 O 0.11121 0.12647 0.59289 0.0
O292 O 0.1219 0.1105 0.82314 0.0
O293 O 0.11951 0.13961 0.81985 0.0
O294 O 0.11311 0.09675 0.70837 0.0
O295 O 0.13921 0.10414 0.67511 0.0
O296 O 0.16771 0.11843 0.66219 0.0
O297 O 0.15547 0.12862 0.75171 0.0
C298 C 0.09691 0.12904 0.62937 0.0
C299 C 0.16973 0.12308 0.7194 0.0
Dy300 Dy 0.12455 0.88502 0.28951 0.0
C301 C 0.12037 0.86193 0.53207 0.0
C302 C 0.12875 0.89115 0.16891 0.0
Dy303 Dy 0.1253 0.8682 0.41183 0.0
O304 O 0.1146 0.89608 0.20075 0.0
O305 O 0.14099 0.88355 0.20357 0.0
O306 O 0.09667 0.89718 0.31014 0.0
O307 O 0.10383 0.87137 0.34557 0.0
C308 C 0.09173 0.88382 0.34533 0.0
C309 C 0.15857 0.86922 0.35876 0.0
O310 O 0.11709 0.84258 0.36119 0.0
O311 O 0.12603 0.85473 0.26995 0.0
O312 O 0.13459 0.8568 0.50087 0.0
O313 O 0.10847 0.86984 0.49697 0.0
O314 O 0.15261 0.85571 0.39161 0.0
O315 O 0.14655 0.8819 0.3569 0.0
O316 O 0.133 0.91061 0.33707 0.0
O317 O 0.12471 0.89902 0.42992 0.0
C318 C 0.12088 0.84055 0.30328 0.0
C319 C 0.1295 0.91303 0.39476 0.0
H320 H 0.37444 0.94557 0.44204 0.0
H321 H 0.37266 0.97647 0.39814 0.0
H322 H 0.38423 0.95372 0.22352 0.0
H323 H 0.38589 0.92283 0.26663 0.0
H324 H 0.40033 0.99546 0.3355 0.0
H325 H 0.33817 0.98543 0.19393 0.0
H326 H 0.34427 0.96986 0.2539 0.0
H327 H 0.35569 0.96826 0.18253 0.0
C328 C 0.37647 0.9471 0.39421 0.0
C329 C 0.38025 0.93167 0.35788 0.0
C330 C 0.37547 0.96479 0.36924 0.0
C331 C 0.37806 0.96737 0.30746 0.0
C332 C 0.38182 0.95201 0.27111 0.0
H333 H 0.40917 0.06428 0.1076 0.0
H334 H 0.40757 0.03487 0.16138 0.0
C335 C 0.38287 0.93435 0.29598 0.0
C336 C 0.37756 0.98617 0.2812 0.0
H337 H 0.35611 0.01241 0.17481 0.0
C338 C 0.39058 0.99923 0.3007 0.0
C339 C 0.36467 0.99113 0.23633 0.0
C340 C 0.34978 0.97801 0.21576 0.0
C341 C 0.39144 0.01691 0.27514 0.0
C342 C 0.3791 0.02157 0.22837 0.0
C343 C 0.36569 0.00874 0.21025 0.0
C344 C 0.38014 0.03955 0.19679 0.0
C345 C 0.40551 0.03049 0.2985 0.0
C346 C 0.36512 0.05179 0.19794 0.0
C347 C 0.36598 0.06857 0.16706 0.0
C348 C 0.38182 0.0733 0.13409 0.0
C349 C 0.3968 0.061 0.13276 0.0
C350 C 0.39595 0.04426 0.16376 0.0
H351 H 0.41046 0.02666 0.34396 0.0
H352 H 0.4176 0.03066 0.26797 0.0
H353 H 0.39968 0.04466 0.30029 0.0
H354 H 0.35275 0.04838 0.22291 0.0
H355 H 0.35422 0.07779 0.16873 0.0
H356 H 0.939 0.63515 0.59749 0.0
H357 H 0.97038 0.6366 0.63829 0.0
H358 H 0.94954 0.62286 0.81361 0.0
H359 H 0.91819 0.62148 0.77364 0.0
H360 H 0.97529 0.65253 0.81269 0.0
H361 H 1.00121 0.59106 0.68927 0.0
H362 H 0.99062 0.60866 0.64413 0.0
H363 H 0.9769 0.59604 0.69712 0.0
C364 C 0.94106 0.63249 0.64477 0.0
C365 C 0.92602 0.6281 0.68214 0.0
C366 C 0.95904 0.63323 0.66794 0.0
C367 C 0.96232 0.6296 0.72883 0.0
C368 C 0.94732 0.62564 0.76644 0.0
H369 H 0.06115 0.60022 0.92232 0.0
H370 H 0.03107 0.60172 0.87225 0.0
C371 C 0.92939 0.62482 0.74338 0.0
C372 C 0.98136 0.62981 0.7537 0.0
H373 H 0.02276 0.60722 0.74899 0.0
C374 C 0.98572 0.6427 0.79858 0.0
C375 C 0.99486 0.61683 0.73565 0.0
C376 C 0.99072 0.60224 0.68925 0.0
C377 C 1.0032 0.64293 0.82598 0.0
C378 C 0.01675 0.63004 0.80761 0.0
C379 C 0.0124 0.61718 0.76266 0.0
C380 C 0.03522 0.62915 0.83645 0.0
C381 C 0.00687 0.65662 0.87557 0.0
C382 C 0.04766 0.64396 0.83223 0.0
C383 C 0.06486 0.64313 0.86084 0.0
C384 C 0.06992 0.62745 0.89405 0.0
C385 C 0.05758 0.61252 0.89732 0.0
C386 C 0.04042 0.61334 0.86862 0.0
H387 H 0.99392 0.66287 0.89292 0.0
H388 H 0.01427 0.64994 0.91336 0.0
H389 H 0.01574 0.6679 0.85818 0.0
H390 H 0.04407 0.65617 0.80682 0.0
H391 H 0.07415 0.6548 0.85727 0.0
H392 H 0.60163 0.94457 0.09953 0.0
H393 H 0.6034 0.97422 0.15192 0.0
H394 H 0.65768 0.96023 0.21717 0.0
H395 H 0.65605 0.93055 0.16425 0.0
H396 H 0.60853 0.98121 0.27543 0.0
H397 H 0.66502 0.01115 0.13755 0.0
H398 H 0.65209 0.99106 0.11435 0.0
H399 H 0.66981 0.989 0.17025 0.0
C400 C 0.61397 0.94784 0.12489 0.0
C401 C 0.62876 0.93533 0.12751 0.0
C402 C 0.61494 0.96475 0.15491 0.0
C403 C 0.63076 0.96954 0.18783 0.0
C404 C 0.64547 0.95695 0.19119 0.0
H405 H 0.63615 0.06279 0.43823 0.0
H406 H 0.63751 0.03195 0.39349 0.0
C407 C 0.6445 0.93999 0.16119 0.0
C408 C 0.63168 0.98768 0.21872 0.0
H409 H 0.65445 0.02899 0.21934 0.0
C410 C 0.61862 0.99164 0.26341 0.0
C411 C 0.64474 1.00131 0.20248 0.0
C412 C 0.65864 0.99807 0.15322 0.0
C413 C 0.61823 0.00889 0.29223 0.0
C414 C 0.63139 0.02247 0.27637 0.0
C415 C 0.64447 0.0185 0.23175 0.0
C416 C 0.63124 0.04118 0.30357 0.0
C417 C 0.6034 0.01264 0.33817 0.0
C418 C 0.62772 0.05666 0.26764 0.0
C419 C 0.62697 0.0743 0.29297 0.0
C420 C 0.62986 0.07686 0.35482 0.0
C421 C 0.63377 0.06134 0.39053 0.0
C422 C 0.63447 0.04368 0.3651 0.0
H423 H 0.59207 1.00232 0.33591 0.0
H424 H 0.60955 0.01204 0.3837 0.0
H425 H 0.59743 0.02662 0.33187 0.0
H426 H 0.62524 0.05505 0.22002 0.0
H427 H 0.62399 0.0859 0.26399 0.0
H428 H 0.93235 0.35356 0.84178 0.0
H429 H 0.96273 0.35249 0.79349 0.0
H430 H 0.97541 0.40641 0.8644 0.0
H431 H 0.94496 0.40762 0.9125 0.0
H432 H 0.98474 0.40124 0.74047 0.0
H433 H 0.01195 0.34524 0.88587 0.0
H434 H 0.99033 0.34041 0.84946 0.0
H435 H 0.99158 0.35837 0.90482 0.0
C436 C 0.9416 0.36521 0.84689 0.0
C437 C 0.93638 0.38064 0.88116 0.0
C438 C 0.95897 0.36454 0.81954 0.0
C439 C 0.97141 0.37925 0.82613 0.0
C440 C 0.96603 0.39487 0.85905 0.0
H441 H 0.08899 0.38536 0.7656 0.0
H442 H 0.05771 0.38445 0.80646 0.0
C443 C 0.94867 0.39554 0.88653 0.0
C444 C 0.99011 0.37833 0.79918 0.0
H445 H 0.03112 0.35511 0.80628 0.0
C446 C 0.99488 0.39114 0.75468 0.0
C447 C 1.00335 0.36524 0.81833 0.0
C448 C 0.99918 0.3516 0.86758 0.0
C449 C 0.01253 0.39115 0.72852 0.0
C450 C 0.02567 0.37789 0.74705 0.0
C451 C 0.02094 0.36514 0.7918 0.0
C452 C 0.04467 0.37752 0.72218 0.0
C453 C 0.01713 0.40561 0.68226 0.0
C454 C 0.04775 0.37351 0.66145 0.0
C455 C 0.06565 0.37395 0.63784 0.0
C456 C 0.08081 0.37843 0.6746 0.0
C457 C 0.07767 0.38194 0.73584 0.0
C458 C 0.05979 0.38141 0.75937 0.0
H459 H 0.00691 0.41704 0.68205 0.0
H460 H 0.03107 0.41147 0.69048 0.0
H461 H 0.01716 0.39916 0.63712 0.0
H462 H 0.03628 0.37017 0.63219 0.0
H463 H 0.06753 0.37112 0.59056 0.0
H464 H 0.35541 0.43097 0.10189 0.0
H465 H 0.35357 0.46054 0.04882 0.0
H466 H 0.40871 0.474 0.10744 0.0
H467 H 0.41068 0.44443 0.16016 0.0
H468 H 0.35701 0.49602 0.10062 0.0
H469 H 0.41011 0.48409 0.92558 0.0
H470 H 0.39981 0.46554 0.968 0.0
H471 H 0.41783 0.47936 1.00055 0.0
C472 C 0.3672 0.44017 0.10294 0.0
C473 C 0.38321 0.43543 0.13503 0.0
C474 C 0.36611 0.45705 0.07273 0.0
C475 C 0.38107 0.46938 0.07368 0.0
C476 C 0.39713 0.46456 0.10527 0.0
H477 H 0.38445 0.58697 0.01246 0.0
H478 H 0.3838 0.55579 0.05399 0.0
C479 C 0.3982 0.44772 0.13561 0.0
C480 C 0.3796 0.48765 0.04409 0.0
H481 H 0.39958 0.51502 0.93775 0.0
C482 C 0.36622 0.50014 0.06472 0.0
C483 C 0.3915 0.49291 0.99681 0.0
C484 C 0.40552 0.47973 0.97093 0.0
C485 C 0.36477 0.51797 0.0405 0.0
C486 C 0.37718 0.5235 0.99495 0.0
C487 C 0.3902 0.51081 0.97309 0.0
C488 C 0.37705 0.54247 0.96993 0.0
C489 C 0.34991 0.5307 0.06366 0.0
C490 C 0.37376 0.54533 0.90866 0.0
C491 C 0.37417 0.56316 0.88465 0.0
C492 C 0.37804 0.57848 0.92141 0.0
C493 C 0.38133 0.57553 0.98284 0.0
C494 C 0.38087 0.55771 1.00679 0.0
H495 H 0.33865 0.52294 0.08625 0.0
H496 H 0.35602 0.54034 0.09684 0.0
H497 H 0.34385 0.53899 0.02672 0.0
H498 H 0.37088 0.53375 0.87937 0.0
H499 H 0.37164 0.56488 0.83713 0.0
H500 H 0.56307 0.62407 0.18435 0.0
H501 H 0.53246 0.62405 0.138 0.0
H502 H 0.5566 0.6411 0.97009 0.0
H503 H 0.58734 0.64003 0.01544 0.0
H504 H 0.51106 0.64793 0.09001 0.0
H505 H 0.52885 0.59782 0.91219 0.0
H506 H 0.54444 0.60312 0.97271 0.0
H507 H 0.54314 0.61794 0.90795 0.0
C508 C 0.56183 0.62787 0.13757 0.0
C509 C 0.57761 0.63187 0.10334 0.0
C510 C 0.54431 0.62784 0.11104 0.0
C511 C 0.54216 0.63208 0.04994 0.0
C512 C 0.55787 0.63707 0.0166 0.0
H513 H 0.43435 0.65712 0.89108 0.0
H514 H 0.46449 0.65882 0.94052 0.0
C515 C 0.57544 0.63664 0.04273 0.0
C516 C 0.52354 0.63114 0.02132 0.0
H517 H 0.50016 0.61344 0.90129 0.0
C518 C 0.50867 0.64028 0.04892 0.0
C519 C 0.52021 0.62085 0.96833 0.0
C520 C 0.53497 0.60922 0.93899 0.0
C521 C 0.49071 0.63957 0.0249 0.0
C522 C 0.48762 0.63012 0.97012 0.0
C523 C 0.50247 0.62088 0.94284 0.0
C524 C 0.46912 0.62927 0.94067 0.0
C525 C 0.47522 0.64846 0.05975 0.0
C526 C 0.46185 0.6122 0.922 0.0
C527 C 0.44491 0.61129 0.89192 0.0
C528 C 0.43475 0.62741 0.88065 0.0
C529 C 0.44185 0.64446 0.89973 0.0
C530 C 0.45901 0.64542 0.92857 0.0
H531 H 0.47856 0.64936 0.10828 0.0
H532 H 0.4731 0.66274 0.04319 0.0
H533 H 0.46209 0.6407 0.05462 0.0
H534 H 0.46931 0.59952 0.93059 0.0
H535 H 0.43971 0.59796 0.87785 0.0
H536 H 0.59413 0.56813 0.14489 0.0
H537 H 0.59587 0.53841 0.09296 0.0
H538 H 0.65507 0.54406 0.07982 0.0
H539 H 0.65319 0.57431 0.12848 0.0
H540 H 0.64304 0.52973 0.98204 0.0
H541 H 0.61044 0.49124 0.16772 0.0
H542 H 0.59528 0.50871 0.13947 0.0
H543 H 0.61677 0.51519 0.17463 0.0
C544 C 0.60748 0.56302 0.13061 0.0
C545 C 0.62354 0.57336 0.14123 0.0
C546 C 0.6085 0.54595 0.10145 0.0
C547 C 0.62567 0.53862 0.08414 0.0
C548 C 0.64167 0.54927 0.09317 0.0
H549 H 0.63803 0.42119 1.0091 0.0
H550 H 0.63905 0.45211 0.05307 0.0
C551 C 0.6406 0.56655 0.12106 0.0
C552 C 0.62699 0.51989 0.05677 0.0
H553 H 0.61365 0.47506 0.07527 0.0
C554 C 0.63673 0.51775 1.00271 0.0
C555 C 0.61914 0.5041 0.0842 0.0
C556 C 0.61002 0.50488 0.14501 0.0
C557 C 0.63859 0.50042 0.97499 0.0
C558 C 0.62976 0.48484 1.00058 0.0
C559 C 0.62025 0.48695 0.05504 0.0
C560 C 0.63026 0.46618 0.97228 0.0
C561 C 0.65044 0.499 0.91954 0.0
C562 C 0.62503 0.46365 0.91211 0.0
C563 C 0.62494 0.44601 0.8865 0.0
C564 C 0.62947 0.43047 0.92107 0.0
C565 C 0.63447 0.43293 0.98138 0.0
C566 C 0.63502 0.45061 1.00655 0.0
H567 H 0.66104 0.51009 0.91839 0.0
H568 H 0.65758 0.48547 0.9169 0.0
H569 H 0.64162 0.50065 0.87923 0.0
H570 H 0.62064 0.47525 0.88514 0.0
H571 H 0.62073 0.44448 0.84016 0.0
H572 H 0.44403 0.38617 0.18107 0.0
H573 H 0.47478 0.38627 0.13577 0.0
H574 H 0.45139 0.36779 0.96816 0.0
H575 H 0.4205 0.36874 1.01239 0.0
H576 H 0.49653 0.36214 0.08975 0.0
H577 H 0.47877 0.41123 0.9092 0.0
H578 H 0.46308 0.4061 0.96957 0.0
H579 H 0.46464 0.39097 0.90554 0.0
C580 C 0.44547 0.38207 0.13459 0.0
C581 C 0.42986 0.37763 0.10006 0.0
C582 C 0.46306 0.38215 0.10868 0.0
C583 C 0.46544 0.37752 0.04795 0.0
C584 C 0.44992 0.37211 0.01437 0.0
H585 H 0.57334 0.35221 0.89186 0.0
H586 H 0.54322 0.3507 0.94145 0.0
C587 C 0.43227 0.37248 0.03985 0.0
C588 C 0.4841 0.37849 0.01994 0.0
H589 H 0.5076 0.39575 0.8997 0.0
C590 C 0.49896 0.3696 0.04837 0.0
C591 C 0.48747 0.38855 0.96659 0.0
C592 C 0.47268 0.39991 0.93637 0.0
C593 C 0.51695 0.3703 0.02476 0.0
C594 C 0.52008 0.37948 0.96962 0.0
C595 C 0.50525 0.38851 0.94155 0.0
C596 C 0.5386 0.38024 0.94047 0.0
C597 C 0.53244 0.36167 0.06031 0.0
C598 C 0.54585 0.39724 0.92126 0.0
C599 C 0.56275 0.39803 0.89112 0.0
C600 C 0.5729 0.38188 0.88037 0.0
C601 C 0.56583 0.36489 0.9001 0.0
C602 C 0.5487 0.36405 0.92902 0.0
H603 H 0.52902 0.36101 0.10882 0.0
H604 H 0.53465 0.34732 0.04448 0.0
H605 H 0.54553 0.36947 0.05504 0.0
H606 H 0.53837 0.40995 0.92937 0.0
H607 H 0.56795 0.41131 0.87654 0.0
H608 H 0.86671 0.43738 0.91903 0.0
H609 H 0.86479 0.46874 0.87913 0.0
H610 H 0.88402 0.44934 0.70743 0.0
H611 H 0.8859 0.41793 0.74656 0.0
H612 H 0.89423 0.48957 0.83079 0.0
H613 H 0.83788 0.4799 0.66498 0.0
H614 H 0.84225 0.46367 0.7247 0.0
H615 H 0.85639 0.46352 0.6585 0.0
C616 C 0.87035 0.4397 0.87257 0.0
C617 C 0.87644 0.42507 0.83603 0.0
C618 C 0.86928 0.45767 0.84992 0.0
C619 C 0.87408 0.46134 0.79018 0.0
C620 C 0.87995 0.44676 0.75338 0.0
H621 H 0.90585 0.56263 0.61468 0.0
H622 H 0.9044 0.53218 0.66231 0.0
C623 C 0.88109 0.42881 0.77599 0.0
C624 C 0.87378 0.48053 0.76707 0.0
H625 H 0.8548 0.50804 0.65911 0.0
C626 C 0.88553 0.49364 0.7935 0.0
C627 C 0.8623 0.48586 0.71879 0.0
C628 C 0.84885 0.47257 0.69034 0.0
C629 C 0.88646 0.51182 0.77183 0.0
C630 C 0.87545 0.51694 0.72226 0.0
C631 C 0.86334 0.50399 0.69685 0.0
C632 C 0.87654 0.53561 0.69546 0.0
C633 C 0.89916 0.52544 0.80212 0.0
C634 C 0.86132 0.54756 0.69812 0.0
C635 C 0.86214 0.56496 0.67117 0.0
C636 C 0.87813 0.57059 0.64048 0.0
C637 C 0.89337 0.55863 0.63807 0.0
C638 C 0.89259 0.54129 0.6654 0.0
H639 H 0.90369 0.52054 0.84694 0.0
H640 H 0.91162 0.52748 0.77395 0.0
H641 H 0.89226 0.53904 0.80736 0.0
H642 H 0.8488 0.5434 0.721 0.0
H643 H 0.85019 0.57392 0.67369 0.0
H644 H 0.57748 0.15281 0.36298 0.0
H645 H 0.54757 0.15463 0.31168 0.0
H646 H 0.53347 0.10048 0.37726 0.0
H647 H 0.5634 0.0985 0.4281 0.0
H648 H 0.52573 0.10577 0.2543 0.0
H649 H 0.49724 0.16241 0.39464 0.0
H650 H 0.51925 0.1671 0.36069 0.0
H651 H 0.51735 0.1493 0.4163 0.0
C652 C 0.56798 0.1413 0.36644 0.0
C653 C 0.57269 0.12555 0.3998 0.0
C654 C 0.55088 0.1424 0.33737 0.0
C655 C 0.53819 0.1278 0.34137 0.0
C656 C 0.54302 0.11194 0.37384 0.0
H657 H 0.42129 0.12352 0.26807 0.0
H658 H 0.45222 0.12397 0.31171 0.0
C659 C 0.56009 0.11084 0.40295 0.0
C660 C 0.51988 0.12894 0.31162 0.0
H661 H 0.479 0.15249 0.31274 0.0
C662 C 0.51553 0.11601 0.2669 0.0
C663 C 0.50653 0.14221 0.32862 0.0
C664 C 0.51019 0.15597 0.37802 0.0
C665 C 0.49818 0.11601 0.23861 0.0
C666 C 0.48492 0.12942 0.25505 0.0
C667 C 0.48926 0.14233 0.29987 0.0
C668 C 0.46617 0.12977 0.22812 0.0
C669 C 0.49401 0.10134 0.19247 0.0
C670 C 0.46371 0.13319 0.16671 0.0
C671 C 0.446 0.13297 0.14148 0.0
C672 C 0.43041 0.12935 0.17727 0.0
C673 C 0.43295 0.1263 0.23904 0.0
C674 C 0.45063 0.12657 0.26417 0.0
H675 H 0.50406 0.08978 0.19439 0.0
H676 H 0.47989 0.09571 0.19889 0.0
H677 H 0.49471 0.10752 0.14704 0.0
H678 H 0.47549 0.136 0.13825 0.0
H679 H 0.44457 0.13545 0.09384 0.0
H680 H 0.13357 0.5659 0.93702 0.0
H681 H 0.13504 0.53482 0.89423 0.0
H682 H 0.12334 0.55694 0.71898 0.0
H683 H 0.12197 0.58804 0.76103 0.0
H684 H 0.10696 0.51584 0.8323 0.0
H685 H 0.16929 0.52474 0.69066 0.0
H686 H 0.16335 0.54055 0.75023 0.0
H687 H 0.15188 0.54202 0.67893 0.0
C688 C 0.13145 0.5642 0.88927 0.0
C689 C 0.12771 0.57951 0.85246 0.0
C690 C 0.13227 0.54641 0.86494 0.0
C691 C 0.12953 0.5436 0.80334 0.0
C692 C 0.12584 0.55883 0.76646 0.0
H693 H 0.09876 0.44574 0.60635 0.0
H694 H 0.09993 0.47524 0.65999 0.0
C695 C 0.12497 0.57661 0.79071 0.0
C696 C 0.12986 0.52468 0.77784 0.0
H697 H 0.15132 0.49769 0.67338 0.0
C698 C 0.11673 0.51182 0.79784 0.0
C699 C 0.14277 0.51939 0.73345 0.0
C700 C 0.15775 0.53232 0.71236 0.0
C701 C 0.11582 0.49398 0.7733 0.0
C702 C 0.12823 0.48897 0.72711 0.0
C703 C 0.14171 0.50163 0.70841 0.0
C704 C 0.12723 0.47077 0.69674 0.0
C705 C 0.10165 0.48061 0.79714 0.0
C706 C 0.14227 0.45858 0.69903 0.0
C707 C 0.14164 0.44175 0.66829 0.0
C708 C 0.12601 0.43693 0.63436 0.0
C709 C 0.11095 0.4491 0.63232 0.0
C710 C 0.11156 0.4659 0.66319 0.0
H711 H 0.09653 0.4848 0.84209 0.0
H712 H 0.08967 0.48019 0.76613 0.0
H713 H 0.10746 0.46646 0.80023 0.0
H714 H 0.15453 0.46212 0.72445 0.0
H715 H 0.15348 0.43264 0.67048 0.0
H716 H 0.56498 0.87363 0.08957 0.0
H717 H 0.53412 0.87317 0.13441 0.0
H718 H 0.55765 0.8855 0.30741 0.0
H719 H 0.58852 0.88587 0.26334 0.0
H720 H 0.53108 0.85679 0.3089 0.0
H721 H 0.50536 0.91928 0.19112 0.0
H722 H 0.51475 0.90155 0.14365 0.0
H723 H 0.52958 0.91352 0.19519 0.0
C724 C 0.56362 0.87622 0.13718 0.0
C725 C 0.57926 0.87987 0.17274 0.0
C726 C 0.54595 0.87604 0.16266 0.0
C727 C 0.54358 0.87954 0.22408 0.0
C728 C 0.55917 0.88283 0.25986 0.0
H729 H 0.44692 0.91032 0.4276 0.0
H730 H 0.47664 0.90852 0.3754 0.0
C731 C 0.57682 0.88306 0.23448 0.0
C732 C 0.52489 0.8798 0.25141 0.0
H733 H 0.48395 0.90325 0.25179 0.0
C734 C 0.52073 0.86689 0.2963 0.0
C735 C 0.51151 0.89313 0.23531 0.0
C736 C 0.51549 0.90778 0.18905 0.0
C737 C 0.50354 0.86694 0.32551 0.0
C738 C 0.49009 0.88014 0.30891 0.0
C739 C 0.49425 0.89306 0.26407 0.0
C740 C 0.47187 0.88121 0.33925 0.0
C741 C 0.50009 0.85319 0.375 0.0
C742 C 0.45923 0.86656 0.33554 0.0
C743 C 0.44225 0.86756 0.36539 0.0
C744 C 0.43763 0.88325 0.39925 0.0
C745 C 0.45017 0.89802 0.40207 0.0
C746 C 0.46712 0.89702 0.37218 0.0
H747 H 0.51311 0.84678 0.39115 0.0
H748 H 0.49305 0.85986 0.41354 0.0
H749 H 0.491 0.84203 0.35795 0.0
H750 H 0.46248 0.85436 0.30954 0.0
H751 H 0.4328 0.85601 0.36219 0.0
H752 H 0.90978 0.9443 0.66887 0.0
H753 H 0.90806 0.97421 0.61809 0.0
H754 H 0.85387 0.96045 0.55132 0.0
H755 H 0.85544 0.93055 0.60257 0.0
H756 H 0.90294 0.98189 0.49484 0.0
H757 H 0.84638 0.0108 0.63474 0.0
H758 H 0.85938 0.99064 0.65653 0.0
H759 H 0.84158 0.98882 0.60073 0.0
C760 C 0.89749 0.94768 0.64347 0.0
C761 C 0.88269 0.93519 0.63996 0.0
C762 C 0.89654 0.96473 0.61439 0.0
C763 C 0.88075 0.96964 0.58161 0.0
C764 C 0.86606 0.95706 0.57725 0.0
H765 H 0.87377 0.06315 0.3346 0.0
H766 H 0.87302 0.03227 0.37895 0.0
C767 C 0.867 0.93998 0.60629 0.0
C768 C 0.87976 0.98793 0.55196 0.0
H769 H 0.85654 0.02896 0.55314 0.0
C770 C 0.89277 0.99217 0.50739 0.0
C771 C 0.86659 1.00137 0.56893 0.0
C772 C 0.85276 0.99782 0.61818 0.0
C773 C 0.89293 0.0095 0.47923 0.0
C774 C 0.87961 0.02285 0.49565 0.0
C775 C 0.86663 0.01863 0.5403 0.0
C776 C 0.87942 0.04157 0.46878 0.0
C777 C 0.90766 0.01356 0.43325 0.0
C778 C 0.88279 0.05707 0.50485 0.0
C779 C 0.88318 0.07473 0.47976 0.0
C780 C 0.88007 0.07726 0.41803 0.0
C781 C 0.8763 0.06171 0.38221 0.0
C782 C 0.87595 0.04403 0.4074 0.0
H783 H 0.91915 1.00341 0.43516 0.0
H784 H 0.90149 0.01294 0.38777 0.0
H785 H 0.91343 0.02761 0.43986 0.0
H786 H 0.88543 0.05547 0.55237 0.0
H787 H 0.88608 0.08636 0.50879 0.0
H788 H 0.06407 0.12031 0.68261 0.0
H789 H 0.03342 0.11973 0.63627 0.0
H790 H 0.0567 0.14047 0.47151 0.0
H791 H 0.08746 0.14009 0.51663 0.0
H792 H 0.01124 0.14408 0.59191 0.0
H793 H 0.03044 0.09691 0.40727 0.0
H794 H 0.04582 0.10175 0.46877 0.0
H795 H 0.04426 0.1174 0.40618 0.0
C796 C 0.06263 0.12475 0.63649 0.0
C797 C 0.07818 0.13004 0.60301 0.0
C798 C 0.0451 0.12441 0.61001 0.0
C799 C 0.04274 0.12959 0.54976 0.0
C800 C 0.05819 0.13574 0.51726 0.0
H801 H 0.93554 0.15526 0.3896 0.0
H802 H 0.96533 0.15656 0.44146 0.0
C803 C 0.07576 0.13567 0.54327 0.0
C804 C 0.02418 0.12853 0.52106 0.0
H805 H 1.00145 0.11218 0.39779 0.0
C806 C 0.00908 0.13698 0.54965 0.0
C807 C 0.02118 0.11895 0.46649 0.0
C808 C 0.03625 0.10808 0.43579 0.0
C809 C 0.99123 0.13636 0.5249 0.0
C810 C 0.98847 0.12768 0.46865 0.0
C811 C 1.00352 0.11904 0.4405 0.0
C812 C 0.97012 0.12705 0.43833 0.0
C813 C 0.97548 0.14458 0.56032 0.0
C814 C 0.96308 0.11016 0.41729 0.0
C815 C 0.94636 0.1095 0.38602 0.0
C816 C 0.9362 0.12568 0.37579 0.0
C817 C 0.94306 0.14256 0.39733 0.0
C818 C 0.96 0.14328 0.42752 0.0
H819 H 0.97864 0.1449 0.60905 0.0
H820 H 0.97321 0.15902 0.54561 0.0
H821 H 0.96249 0.13671 0.55356 0.0
H822 H 0.97057 0.09744 0.42487 0.0
H823 H 0.94132 0.0963 0.37009 0.0
H824 H 0.12451 0.92315 0.51192 0.0
H825 H 0.12541 0.95422 0.55447 0.0
H826 H 0.1385 0.97657 0.38061 0.0
H827 H 0.1375 0.94554 0.33731 0.0
H828 H 0.15445 0.98051 0.55545 0.0
H829 H 0.09254 0.0061 0.43388 0.0
H830 H 0.09804 0.98188 0.43956 0.0
H831 H 0.11031 0.99627 0.38758 0.0
C832 C 0.12761 0.93464 0.48258 0.0
C833 C 0.13082 0.93182 0.42103 0.0
C834 C 0.12815 0.9524 0.50708 0.0
C835 C 0.13178 0.96772 0.47058 0.0
C836 C 0.13537 0.96496 0.40939 0.0
H837 H 0.15535 0.07913 0.60562 0.0
H838 H 0.15733 0.0493 0.55375 0.0
C839 C 0.13487 0.94719 0.38481 0.0
C840 C 0.13166 0.98657 0.49675 0.0
H841 H 0.1086 0.02768 0.49381 0.0
C842 C 0.14449 0.99087 0.54185 0.0
C843 C 0.11852 0.99997 0.47931 0.0
C844 C 0.10395 0.99586 0.4328 0.0
C845 C 0.14452 0.00822 0.57004 0.0
C846 C 0.13149 0.02169 0.55219 0.0
C847 C 0.11868 0.01739 0.50704 0.0
C848 C 0.1303 0.03998 0.58196 0.0
C849 C 0.15814 0.01183 0.61989 0.0
C850 C 0.11428 0.04482 0.61372 0.0
C851 C 0.11311 0.06182 0.64312 0.0
C852 C 0.12789 0.07435 0.64104 0.0
C853 C 0.1438 0.06967 0.60828 0.0
C854 C 0.14498 0.05262 0.57889 0.0
H855 H 0.16449 0.99888 0.63673 0.0
H856 H 0.16936 0.02086 0.60296 0.0
H857 H 0.15135 0.01902 0.65794 0.0
H858 H 0.10277 0.03531 0.61644 0.0
H859 H 0.10065 0.0651 0.66778 0.0
H860 H 0.06467 0.90989 0.34988 0.0
H861 H 0.03487 0.90793 0.40152 0.0
H862 H 0.04867 0.85339 0.46421 0.0
H863 H 0.07848 0.85523 0.41232 0.0
H864 H 0.01287 0.85636 0.41312 0.0
H865 H 0.02548 0.91063 0.58398 0.0
H866 H 0.02993 0.91776 0.50823 0.0
H867 H 0.04389 0.90002 0.54158 0.0
C868 C 0.06137 0.89752 0.37484 0.0
C869 C 0.07387 0.88272 0.37715 0.0
C870 C 0.0444 0.89645 0.40459 0.0
C871 C 0.03965 0.8806 0.4373 0.0
C872 C 0.0521 0.86577 0.43944 0.0
H873 H 0.94506 0.87237 0.6793 0.0
H874 H 0.97606 0.87134 0.63565 0.0
C875 C 0.06911 0.86685 0.40985 0.0
C876 C 0.02146 0.87932 0.46771 0.0
H877 H 0.99457 0.89983 0.57448 0.0
C878 C 0.00889 0.86578 0.44865 0.0
C879 C 0.0164 0.89147 0.51457 0.0
C880 C 0.02967 0.90569 0.53882 0.0
C881 C 0.99118 0.86442 0.47402 0.0
C882 C 0.98585 0.87706 0.51919 0.0
C883 C 0.99862 0.89025 0.53948 0.0
C884 C 0.96697 0.87707 0.54519 0.0
C885 C 0.97836 0.8494 0.4525 0.0
C886 C 0.95158 0.88074 0.50889 0.0
C887 C 0.93385 0.88135 0.53364 0.0
C888 C 0.93114 0.87838 0.59536 0.0
C889 C 0.9466 0.87465 0.6316 0.0
C890 C 0.96435 0.8741 0.60677 0.0
H891 H 0.98602 0.83805 0.43005 0.0
H892 H 0.97029 0.84354 0.49028 0.0
H893 H 0.9685 0.85529 0.41959 0.0
H894 H 0.95331 0.88341 0.46147 0.0
H895 H 0.9223 0.88434 0.50437 0.0
H896 H 0.40183 0.17535 0.11078 0.0
H897 H 0.40727 0.20845 0.12793 0.0
H898 H 0.3485 0.21803 0.12798 0.0
H899 H 0.343 0.18514 0.11192 0.0
H900 H 0.39676 0.24113 0.06823 0.0
H901 H 0.36449 0.23731 0.29252 0.0
H902 H 0.37109 0.21699 0.25076 0.0
H903 H 0.3496 0.22849 0.23493 0.0
C904 C 0.39011 0.18461 0.11319 0.0
C905 C 0.37197 0.17769 0.11055 0.0
C906 C 0.39323 0.20347 0.12342 0.0
C907 C 0.37827 0.21559 0.13113 0.0
C908 C 0.36023 0.20885 0.124 0.0
H909 H 0.34529 0.32416 0.13623 0.0
H910 H 0.35057 0.29102 0.14533 0.0
C911 C 0.35711 0.19008 0.11418 0.0
C912 C 0.38119 0.23521 0.14808 0.0
H913 H 0.36705 0.26771 0.24928 0.0
C914 C 0.39067 0.2469 0.1085 0.0
C915 C 0.37344 0.24269 0.20113 0.0
C916 C 0.36426 0.23067 0.24759 0.0
C917 C 0.39133 0.26607 0.11832 0.0
C918 C 0.38238 0.27364 0.16906 0.0
C919 C 0.37391 0.26184 0.21046 0.0
C920 C 0.37896 0.29374 0.17402 0.0
C921 C 0.40052 0.27829 0.07248 0.0
C922 C 0.39298 0.30627 0.1898 0.0
C923 C 0.38984 0.32537 0.18582 0.0
C924 C 0.37274 0.33196 0.16522 0.0
C925 C 0.35853 0.31937 0.15274 0.0
C926 C 0.36155 0.30046 0.15764 0.0
H927 H 0.40661 0.27027 0.03491 0.0
H928 H 0.3903 0.28819 0.05396 0.0
H929 H 0.41163 0.28645 0.09425 0.0
H930 H 0.40652 0.30128 0.20261 0.0
H931 H 0.40109 0.33486 0.19452 0.0
H932 H 0.32348 0.66719 0.85436 0.0
H933 H 0.29009 0.66264 0.86038 0.0
H934 H 0.29785 0.60368 0.8547 0.0
H935 H 0.3315 0.60818 0.84868 0.0
H936 H 0.26473 0.64302 0.78401 0.0
H937 H 0.26905 0.61343 0.01402 0.0
H938 H 0.288 0.62593 0.98056 0.0
H939 H 0.28288 0.60287 0.95639 0.0
C940 C 0.31806 0.65325 0.85334 0.0
C941 C 0.33007 0.63804 0.85129 0.0
C942 C 0.29899 0.65067 0.85694 0.0
C943 C 0.29151 0.63283 0.8591 0.0
C944 C 0.30338 0.61756 0.85405 0.0
H945 H 0.17334 0.60955 0.9255 0.0
H946 H 0.2068 0.605 0.91271 0.0
C947 C 0.32255 0.62015 0.84998 0.0
C948 C 0.27133 0.63057 0.86884 0.0
H949 H 0.23936 0.61893 0.97522 0.0
C950 C 0.25917 0.63754 0.82549 0.0
C951 C 0.2641 0.62338 0.92298 0.0
C952 C 0.27661 0.61605 0.97152 0.0
C953 C 0.24003 0.63797 0.8354 0.0
C954 C 0.23286 0.63162 0.89071 0.0
C955 C 0.24491 0.62389 0.93306 0.0
C956 C 0.21307 0.63412 0.90631 0.0
C957 C 0.22765 0.64545 0.78675 0.0
C958 C 0.20569 0.65198 0.90996 0.0
C959 C 0.18673 0.6546 0.91735 0.0
C960 C 0.17474 0.63941 0.92169 0.0
C961 C 0.18226 0.62152 0.92243 0.0
C962 C 0.20134 0.61889 0.91479 0.0
H963 H 0.23438 0.64474 0.74206 0.0
H964 H 0.2144 0.63776 0.78482 0.0
H965 H 0.22452 0.66015 0.79636 0.0
H966 H 0.21454 0.66393 0.9049 0.0
H967 H 0.18133 0.66854 0.91703 0.0
H968 H 0.66571 0.82269 0.10934 0.0
H969 H 0.65979 0.78988 0.12529 0.0
H970 H 0.60115 0.80031 0.1257 0.0
H971 H 0.60703 0.83327 0.10853 0.0
H972 H 0.64207 0.77643 0.22671 0.0
H973 H 0.60538 0.75437 0.0193 0.0
H974 H 0.61847 0.77555 0.02322 0.0
H975 H 0.59612 0.77414 0.05766 0.0
C976 C 0.65153 0.81792 0.11128 0.0
C977 C 0.63684 0.83051 0.10761 0.0
C978 C 0.64817 0.79919 0.12078 0.0
C979 C 0.63004 0.79261 0.12687 0.0
C980 C 0.61524 0.80501 0.1204 0.0
H981 H 0.6045 0.6746 0.18712 0.0
H982 H 0.59982 0.70827 0.19358 0.0
C983 C 0.61862 0.82384 0.11046 0.0
C984 C 0.627 0.77303 0.14411 0.0
H985 H 0.6106 0.73171 0.09283 0.0
C986 C 0.635 0.7667 0.1977 0.0
C987 C 0.61757 0.76037 0.10673 0.0
C988 C 0.60897 0.76632 0.04827 0.0
C989 C 0.63456 0.74796 0.21351 0.0
C990 C 0.62601 0.73516 0.1746 0.0
C991 C 0.61708 0.74159 0.12275 0.0
C992 C 0.62872 0.71499 0.18179 0.0
C993 C 0.64373 0.74191 0.27091 0.0
C994 C 0.64651 0.70767 0.17455 0.0
C995 C 0.64912 0.68865 0.17048 0.0
C996 C 0.63406 0.67655 0.1745 0.0
C997 C 0.61637 0.6837 0.1856 0.0
C998 C 0.61368 0.70288 0.1886 0.0
H999 H 0.64454 0.7534 0.30382 0.0
H1000 H 0.63621 0.73018 0.2916 0.0
H1001 H 0.65803 0.73733 0.26093 0.0
H1002 H 0.65825 0.71672 0.16814 0.0
H1003 H 0.66282 0.68344 0.16064 0.0
H1004 H 0.83594 0.39081 0.95095 0.0
H1005 H 0.80248 0.39736 0.95913 0.0
H1006 H 0.791 0.35279 0.83648 0.0
H1007 H 0.82382 0.34631 0.82817 0.0
H1008 H 0.77622 0.39138 0.80764 0.0
H1009 H 0.75862 0.36264 0.03219 0.0
H1010 H 0.77911 0.37649 0.02187 0.0
H1011 H 0.77807 0.35375 0.99054 0.0
C1012 C 0.82617 0.38222 0.92702 0.0
C1013 C 0.83242 0.36809 0.88886 0.0
C1014 C 0.80714 0.38602 0.93136 0.0
C1015 C 0.79434 0.37563 0.89786 0.0
C1016 C 0.80064 0.36104 0.86225 0.0
H1017 H 0.6847 0.34256 0.86196 0.0
H1018 H 0.71781 0.34804 0.87269 0.0
C1019 C 0.81942 0.35733 0.85778 0.0
C1020 C 0.77435 0.38 0.89647 0.0
H1021 H 0.73395 0.36935 0.967 0.0
C1022 C 0.76691 0.38706 0.84304 0.0
C1023 C 0.76236 0.37414 0.94249 0.0
C1024 C 0.76979 0.3663 1.00022 0.0
C1025 C 0.74775 0.3874 0.83304 0.0
C1026 C 0.73575 0.38062 0.87788 0.0
C1027 C 0.74319 0.37454 0.93266 0.0
C1028 C 0.71574 0.37775 0.86658 0.0
C1029 C 0.74053 0.39384 0.77317 0.0
C1030 C 0.7036 0.39263 0.85775 0.0
C1031 C 0.68458 0.38951 0.85099 0.0
C1032 C 0.67748 0.37145 0.85346 0.0
C1033 C 0.68978 0.35661 0.85986 0.0
C1034 C 0.70869 0.35973 0.86644 0.0
H1035 H 0.75181 0.39622 0.74031 0.0
H1036 H 0.73078 0.38354 0.75423 0.0
H1037 H 0.73289 0.40698 0.77922 0.0
H1038 H 0.70874 0.40667 0.85812 0.0
H1039 H 0.67539 0.40123 0.84677 0.0
H1040 H 0.88716 0.67231 0.5634 0.0
H1041 H 0.89393 0.70568 0.55389 0.0
H1042 H 0.86073 0.71654 0.71045 0.0
H1043 H 0.85406 0.6839 0.7201 0.0
H1044 H 0.86849 0.73694 0.54524 0.0
H1045 H 0.91103 0.74059 0.75054 0.0
H1046 H 0.90632 0.71913 0.71206 0.0
H1047 H 0.88964 0.72871 0.76321 0.0
C1048 C 0.88126 0.68193 0.59527 0.0
C1049 C 0.87022 0.67552 0.64271 0.0
C1050 C 0.88518 0.70089 0.59006 0.0
C1051 C 0.87821 0.71349 0.63251 0.0
C1052 C 0.86667 0.70704 0.67821 0.0
H1053 H 0.84318 0.82338 0.65355 0.0
H1054 H 0.84868 0.7903 0.64316 0.0
C1055 C 0.86277 0.68834 0.68336 0.0
C1056 C 0.88228 0.73353 0.62995 0.0
H1057 H 0.89595 0.769 0.72071 0.0
C1058 C 0.87491 0.74396 0.58282 0.0
C1059 C 0.89091 0.7427 0.67856 0.0
C1060 C 0.9001 0.73218 0.72866 0.0
C1061 C 0.87462 0.76334 0.58541 0.0
C1062 C 0.88154 0.77244 0.63703 0.0
C1063 C 0.89031 0.76204 0.68172 0.0
C1064 C 0.87846 0.79246 0.64747 0.0
C1065 C 0.86644 0.77385 0.53348 0.0
C1066 C 0.89332 0.80459 0.65732 0.0
C1067 C 0.89017 0.82357 0.66434 0.0
C1068 C 0.8721 0.83064 0.66172 0.0
C1069 C 0.85725 0.81833 0.65529 0.0
C1070 C 0.86039 0.79945 0.64857 0.0
H1071 H 0.86768 0.76593 0.49101 0.0
H1072 H 0.85152 0.7762 0.54197 0.0
H1073 H 0.87326 0.78745 0.52764 0.0
H1074 H 0.90737 0.79945 0.65763 0.0
H1075 H 0.90189 0.83276 0.66906 0.0
H1076 H 0.82495 0.16512 0.35112 0.0
H1077 H 0.79167 0.15998 0.35805 0.0
H1078 H 0.80042 0.10117 0.35025 0.0
H1079 H 0.83395 0.10626 0.34332 0.0
H1080 H 0.76635 0.13996 0.28202 0.0
H1081 H 0.77229 0.1102 0.5115 0.0
H1082 H 0.79083 0.12314 0.47741 0.0
H1083 H 0.78605 0.10004 0.45296 0.0
C1084 C 0.81977 0.15109 0.3498 0.0
C1085 C 0.83202 0.1361 0.34698 0.0
C1086 C 0.80077 0.14818 0.3539 0.0
C1087 C 0.79361 0.1302 0.35577 0.0
C1088 C 0.80571 0.11515 0.34981 0.0
H1089 H 0.6758 0.10624 0.42628 0.0
H1090 H 0.70918 0.10156 0.41204 0.0
C1091 C 0.82481 0.11808 0.34525 0.0
C1092 C 0.77356 0.12756 0.36643 0.0
H1093 H 0.74234 0.11555 0.47467 0.0
C1094 C 0.76109 0.13438 0.32377 0.0
C1095 C 0.76673 0.12025 0.42094 0.0
C1096 C 0.77959 0.11305 0.4687 0.0
C1097 C 0.74202 0.13461 0.33486 0.0
C1098 C 0.73526 0.1282 0.3906 0.0
C1099 C 0.7476 0.12055 0.43218 0.0
C1100 C 0.7156 0.13068 0.40758 0.0
C1101 C 0.72927 0.14205 0.28715 0.0
C1102 C 0.70838 0.14856 0.41283 0.0
C1103 C 0.68948 0.15125 0.42105 0.0
C1104 C 0.67741 0.13611 0.42459 0.0
C1105 C 0.6848 0.11816 0.42388 0.0
C1106 C 0.70382 0.11547 0.4154 0.0
H1107 H 0.73575 0.14153 0.24205 0.0
H1108 H 0.71611 0.13419 0.28586 0.0
H1109 H 0.72599 0.15668 0.29735 0.0
H1110 H 0.7173 0.16048 0.40817 0.0
H1111 H 0.68417 0.16523 0.42184 0.0
H1112 H 0.16598 0.32689 0.63174 0.0
H1113 H 0.16103 0.29359 0.632 0.0
H1114 H 0.10311 0.30205 0.59612 0.0
H1115 H 0.10823 0.33567 0.59432 0.0
H1116 H 0.13727 0.27916 0.7197 0.0
H1117 H 0.11651 0.25668 0.49047 0.0
H1118 H 0.1289 0.27795 0.50362 0.0
H1119 H 0.10485 0.27635 0.52211 0.0
C1120 C 0.15235 0.3216 0.62126 0.0
C1121 C 0.13753 0.33374 0.6122 0.0
C1122 C 0.1495 0.3026 0.62194 0.0
C1123 C 0.1317 0.29531 0.6144 0.0
C1124 C 0.11701 0.30735 0.60125 0.0
H1125 H 0.10675 0.17678 0.66813 0.0
H1126 H 0.10151 0.21028 0.66109 0.0
C1127 C 0.11994 0.32652 0.59981 0.0
C1128 C 0.12858 0.27549 0.62805 0.0
H1129 H 0.11873 0.23367 0.56478 0.0
C1130 C 0.13301 0.26925 0.68593 0.0
C1131 C 0.12281 0.26261 0.58427 0.0
C1132 C 0.11806 0.26859 0.52143 0.0
C1133 C 0.13265 0.25044 0.70042 0.0
C1134 C 0.12784 0.23746 0.65585 0.0
C1135 C 0.12241 0.2437 0.59887 0.0
C1136 C 0.13049 0.2174 0.66555 0.0
C1137 C 0.13791 0.2445 0.76293 0.0
C1138 C 0.14846 0.2104 0.67142 0.0
C1139 C 0.15147 0.19142 0.67519 0.0
C1140 C 0.13656 0.17904 0.67354 0.0
C1141 C 0.11848 0.18605 0.67031 0.0
C1142 C 0.11548 0.20513 0.66574 0.0
H1143 H 0.13647 0.25599 0.79563 0.0
H1144 H 0.12927 0.23272 0.77798 0.0
H1145 H 0.15255 0.23998 0.76305 0.0
H1146 H 0.16024 0.21962 0.67085 0.0
H1147 H 0.16554 0.18636 0.6772 0.0
H1148 H 0.3349 0.90214 0.43265 0.0
H1149 H 0.30128 0.90682 0.42772 0.0
H1150 H 0.29316 0.84787 0.42401 0.0
H1151 H 0.32651 0.84317 0.42886 0.0
H1152 H 0.27871 0.89369 0.33115 0.0
H1153 H 0.25536 0.86552 0.54884 0.0
H1154 H 0.27893 0.87262 0.53553 0.0
H1155 H 0.27099 0.8504 0.51026 0.0
C1156 C 0.32588 0.89022 0.43242 0.0
C1157 C 0.33327 0.87228 0.4313 0.0
C1158 C 0.30671 0.8929 0.42917 0.0
C1159 C 0.29471 0.87769 0.42588 0.0
C1160 C 0.30211 0.85981 0.42744 0.0
H1161 H 0.18531 0.84329 0.35662 0.0
H1162 H 0.21848 0.84795 0.36943 0.0
C1163 C 0.32118 0.85713 0.43012 0.0
C1164 C 0.27459 0.88018 0.41602 0.0
H1165 H 0.23263 0.86691 0.47059 0.0
C1166 C 0.26856 0.88818 0.36207 0.0
C1167 C 0.26141 0.87299 0.45644 0.0
C1168 C 0.26697 0.86506 0.51629 0.0
C1169 C 0.24977 0.88814 0.34592 0.0
C1170 C 0.23672 0.88009 0.3851 0.0
C1171 C 0.24268 0.87292 0.44028 0.0
C1172 C 0.21698 0.87775 0.36863 0.0
C1173 C 0.24411 0.89583 0.28588 0.0
C1174 C 0.20516 0.89299 0.36185 0.0
C1175 C 0.1861 0.89035 0.35396 0.0
C1176 C 0.17866 0.87242 0.35339 0.0
C1177 C 0.19067 0.85725 0.35695 0.0
C1178 C 0.20962 0.85989 0.36455 0.0
H1179 H 0.2562 0.8987 0.25668 0.0
H1180 H 0.23476 0.88606 0.26232 0.0
H1181 H 0.23646 0.90892 0.29274 0.0
H1182 H 0.21051 0.9069 0.36554 0.0
H1183 H 0.17713 0.90229 0.35193 0.0
H1184 H 0.17706 0.13151 0.83591 0.0
H1185 H 0.20601 0.12887 0.8899 0.0
H1186 H 0.23279 0.10883 0.73004 0.0
H1187 H 0.2035 0.11152 0.67457 0.0
H1188 H 0.22769 0.09687 0.90844 0.0
H1189 H 0.26613 0.15194 0.78769 0.0
H1190 H 0.24132 0.14978 0.78354 0.0
H1191 H 0.2558 0.13428 0.74197 0.0
C1192 C 0.18904 0.12659 0.81162 0.0
C1193 C 0.18788 0.12178 0.75047 0.0
C1194 C 0.20563 0.12504 0.84294 0.0
C1195 C 0.2216 0.11876 0.81411 0.0
C1196 C 0.22065 0.11393 0.75304 0.0
H1197 H 0.33428 0.11061 0.94063 0.0
H1198 H 0.30558 0.10902 0.88436 0.0
C1199 C 0.20391 0.11543 0.72141 0.0
C1200 C 0.23906 0.1173 0.84896 0.0
H1201 H 0.28205 0.13611 0.86378 0.0
C1202 C 0.23964 0.10537 0.89857 0.0
C1203 C 0.25456 0.12848 0.83626 0.0
C1204 C 0.2545 0.14197 0.78479 0.0
C1205 C 0.25537 0.10418 0.93544 0.0
C1206 C 0.27081 0.11556 0.92325 0.0
C1207 C 0.27022 0.12741 0.87335 0.0
C1208 C 0.28799 0.11511 0.96016 0.0
C1209 C 0.2554 0.09046 0.98626 0.0
C1210 C 0.28777 0.1188 0.02222 0.0
C1211 C 0.30434 0.11949 0.05511 0.0
C1212 C 0.32137 0.11688 0.02615 0.0
C1213 C 0.32143 0.11287 0.96439 0.0
C1214 C 0.30499 0.11195 0.93196 0.0
H1215 H 0.24499 0.0794 0.97922 0.0
H1216 H 0.26919 0.08398 0.99161 0.0
H1217 H 0.2519 0.0977 0.0286 0.0
H1218 H 0.27488 0.12167 0.04491 0.0
H1219 H 0.30386 0.12277 0.10247 0.0
H1220 H 0.10644 0.67588 0.08563 0.0
H1221 H 0.10476 0.70467 0.14131 0.0
H1222 H 0.11752 0.73503 0.98035 0.0
H1223 H 0.11878 0.70595 0.92341 0.0
H1224 H 0.13242 0.72822 0.16031 0.0
H1225 H 0.07501 0.76488 0.04685 0.0
H1226 H 0.07947 0.74063 0.03529 0.0
H1227 H 0.09309 0.7577 0.99699 0.0
C1228 C 0.10869 0.68867 0.06165 0.0
C1229 C 0.11283 0.68861 0.99999 0.0
C1230 C 0.10772 0.70516 0.09373 0.0
C1231 C 0.11092 0.72208 0.06523 0.0
C1232 C 0.11464 0.72218 1.00322 0.0
H1233 H 0.12761 0.83312 0.18571 0.0
H1234 H 0.12435 0.80411 0.13255 0.0
C1235 C 0.11542 0.70557 0.97069 0.0
C1236 C 0.11148 0.73927 0.10185 0.0
H1237 H 0.09267 0.78226 0.11701 0.0
C1238 C 0.12362 0.73999 0.15106 0.0
C1239 C 0.09996 0.75461 0.09002 0.0
C1240 C 0.08601 0.75442 0.03979 0.0
C1241 C 0.12486 0.75571 0.18779 0.0
C1242 C 0.11352 0.77111 0.17548 0.0
C1243 C 0.10128 0.77039 0.12659 0.0
C1244 C 0.11518 0.78865 0.20975 0.0
C1245 C 0.13872 0.75593 0.23831 0.0
C1246 C 0.11104 0.7897 0.27133 0.0
C1247 C 0.11292 0.80647 0.30251 0.0
C1248 C 0.11892 0.82243 0.27246 0.0
C1249 C 0.12296 0.8212 0.21075 0.0
C1250 C 0.12106 0.80457 0.17991 0.0
H1251 H 0.1488 0.74443 0.2347 0.0
H1252 H 0.14641 0.76918 0.23908 0.0
H1253 H 0.13133 0.75453 0.28165 0.0
H1254 H 0.10624 0.7776 0.29512 0.0
H1255 H 0.1096 0.80694 0.34982 0.0
H1256 H 0.67727 0.88106 0.93456 0.0
H1257 H 0.70619 0.88344 0.88045 0.0
H1258 H 0.73402 0.89981 0.04286 0.0
H1259 H 0.70475 0.89733 0.09851 0.0
H1260 H 0.72926 0.91424 0.86541 0.0
H1261 H 0.76534 0.85629 0.97924 0.0
H1262 H 0.74069 0.85962 0.98461 0.0
H1263 H 0.75608 0.87393 0.02735 0.0
C1264 C 0.68946 0.88514 0.95938 0.0
C1265 C 0.6886 0.88893 0.02135 0.0
C1266 C 0.70604 0.88655 0.92799 0.0
C1267 C 0.72231 0.89167 0.95747 0.0
C1268 C 0.72165 0.89559 0.01929 0.0
H1269 H 0.83511 0.89713 0.83162 0.0
H1270 H 0.80644 0.89911 0.88773 0.0
C1271 C 0.70491 0.89422 0.05103 0.0
C1272 C 0.7398 0.89277 0.9226 0.0
H1273 H 0.78195 0.87237 0.90525 0.0
C1274 C 0.74084 0.90515 0.87423 0.0
C1275 C 0.75482 0.88082 0.93385 0.0
C1276 C 0.75424 0.86679 0.98373 0.0
C1277 C 0.75657 0.90605 0.83728 0.0
C1278 C 0.77153 0.89394 0.84811 0.0
C1279 C 0.77049 0.88163 0.89672 0.0
C1280 C 0.78873 0.89413 0.81132 0.0
C1281 C 0.75713 0.92021 0.7878 0.0
C1282 C 0.78846 0.89094 0.74898 0.0
C1283 C 0.80502 0.88998 0.71617 0.0
C1284 C 0.8221 0.89187 0.74547 0.0
C1285 C 0.82222 0.89541 0.80754 0.0
C1286 C 0.80579 0.89656 0.8399 0.0
H1287 H 0.74707 0.93153 0.79568 0.0
H1288 H 0.77114 0.92629 0.78337 0.0
H1289 H 0.75351 0.91347 0.74471 0.0
H1290 H 0.77549 0.88865 0.72597 0.0
H1291 H 0.80449 0.8871 0.66855 0.0
H1292 H 0.88534 0.3001 0.91385 0.0
H1293 H 0.88668 0.27165 0.97418 0.0
H1294 H 0.90935 0.3025 0.12233 0.0
H1295 H 0.90769 0.33071 0.06345 0.0
H1296 H 0.91512 0.25305 0.03462 0.0
H1297 H 0.86366 0.27979 0.19714 0.0
H1298 H 0.86798 0.29082 0.12606 0.0
H1299 H 0.88337 0.29453 0.18826 0.0
C1300 C 0.89082 0.3007 0.95897 0.0
C1301 C 0.89614 0.31766 0.98418 0.0
C1302 C 0.89152 0.28449 0.9935 0.0
C1303 C 0.89761 0.28507 0.05344 0.0
C1304 C 0.90404 0.3018 0.07698 0.0
H1305 H 0.90322 0.20142 0.33996 0.0
H1306 H 0.90662 0.23028 0.28258 0.0
C1307 C 0.90318 0.31791 0.04301 0.0
C1308 C 0.8969 0.2684 0.09225 0.0
H1309 H 0.87858 0.25176 0.22284 0.0
C1310 C 0.90709 0.25275 0.07565 0.0
C1311 C 0.88651 0.26805 0.14614 0.0
C1312 C 0.87462 0.28413 0.16528 0.0
C1313 C 0.90726 0.23682 0.11158 0.0
C1314 C 0.89676 0.23643 0.16512 0.0
C1315 C 0.88675 0.25214 0.18213 0.0
C1316 C 0.89468 0.2193 0.20103 0.0
C1317 C 0.9188 0.22056 0.09206 0.0
C1318 C 0.8864 0.20382 0.17482 0.0
C1319 C 0.8844 0.18752 0.20719 0.0
C1320 C 0.89054 0.18622 0.26702 0.0
C1321 C 0.8984 0.20192 0.29404 0.0
C1322 C 0.90039 0.21838 0.26127 0.0
H1323 H 0.93001 0.2248 0.06099 0.0
H1324 H 0.92505 0.21346 0.13122 0.0
H1325 H 0.90987 0.21052 0.06808 0.0
H1326 H 0.88144 0.20434 0.12903 0.0
H1327 H 0.87805 0.17587 0.18478 0.0
H1328 H 0.30594 0.40027 0.17406 0.0
H1329 H 0.27694 0.40323 0.23096 0.0
H1330 H 0.30316 0.37905 0.38549 0.0
H1331 H 0.33181 0.37605 0.33009 0.0
H1332 H 0.25588 0.37488 0.2924 0.0
H1333 H 0.282 0.428 0.45032 0.0
H1334 H 0.29334 0.42281 0.38019 0.0
H1335 H 0.29652 0.40801 0.44398 0.0
C1336 C 0.30547 0.39552 0.22004 0.0
C1337 C 0.32131 0.38809 0.24744 0.0
C1338 C 0.28893 0.39727 0.25253 0.0
C1339 C 0.28805 0.39175 0.31291 0.0
C1340 C 0.30364 0.38383 0.33952 0.0
H1341 H 0.20572 0.3857 0.59782 0.0
H1342 H 0.23452 0.386 0.53902 0.0
C1343 C 0.32005 0.38206 0.30737 0.0
C1344 C 0.27085 0.39381 0.34856 0.0
H1345 H 0.25355 0.41354 0.47608 0.0
C1346 C 0.25528 0.38348 0.33216 0.0
C1347 C 0.27019 0.40487 0.4009 0.0
C1348 C 0.28635 0.41669 0.41975 0.0
C1349 C 0.2392 0.38355 0.36747 0.0
C1350 C 0.23854 0.3946 0.41993 0.0
C1351 C 0.25409 0.40503 0.43609 0.0
C1352 C 0.22161 0.39582 0.45748 0.0
C1353 C 0.22328 0.37132 0.34915 0.0
C1354 C 0.20503 0.40196 0.432 0.0
C1355 C 0.18872 0.40169 0.46513 0.0
C1356 C 0.18859 0.39555 0.52499 0.0
C1357 C 0.20539 0.39049 0.55186 0.0
C1358 C 0.2218 0.39059 0.51824 0.0
H1359 H 0.22786 0.35997 0.31914 0.0
H1360 H 0.21639 0.3652 0.3889 0.0
H1361 H 0.21296 0.37967 0.32437 0.0
H1362 H 0.20463 0.40661 0.38589 0.0
H1363 H 0.17607 0.40601 0.4433 0.0
H1364 H 0.384 0.67634 0.68528 0.0
H1365 H 0.38663 0.70528 0.63189 0.0
H1366 H 0.39814 0.73362 0.79779 0.0
H1367 H 0.3958 0.70422 0.85253 0.0
H1368 H 0.36568 0.73619 0.64478 0.0
H1369 H 0.43962 0.75187 0.68804 0.0
H1370 H 0.42969 0.72946 0.70235 0.0
H1371 H 0.42581 0.74813 0.75385 0.0
C1372 C 0.38717 0.68863 0.71097 0.0
C1373 C 0.38968 0.68786 0.77359 0.0
C1374 C 0.38866 0.70524 0.68002 0.0
C1375 C 0.39275 0.72163 0.71052 0.0
C1376 C 0.39529 0.72107 0.77309 0.0
H1377 H 0.39734 0.83477 0.59409 0.0
H1378 H 0.39845 0.8056 0.64774 0.0
C1379 C 0.39384 0.70429 0.8044 0.0
C1380 C 0.39366 0.73918 0.67604 0.0
H1381 H 0.42243 0.77437 0.63497 0.0
C1382 C 0.37811 0.74451 0.64254 0.0
C1383 C 0.40991 0.74999 0.67286 0.0
C1384 C 0.42729 0.74455 0.70572 0.0
C1385 C 0.37829 0.76041 0.6066 0.0
C1386 C 0.39452 0.7712 0.60337 0.0
C1387 C 0.41006 0.76597 0.63707 0.0
C1388 C 0.39515 0.78868 0.56867 0.0
C1389 C 0.36094 0.76581 0.57345 0.0
C1390 C 0.39334 0.78888 0.50584 0.0
C1391 C 0.39276 0.80569 0.47454 0.0
C1392 C 0.39384 0.82251 0.50579 0.0
C1393 C 0.39624 0.82211 0.56847 0.0
C1394 C 0.39697 0.80542 0.5994 0.0
H1395 H 0.34869 0.75799 0.58934 0.0
H1396 H 0.35818 0.7808 0.57875 0.0
H1397 H 0.36278 0.76295 0.52494 0.0
H1398 H 0.39214 0.77606 0.48117 0.0
H1399 H 0.39093 0.80553 0.42636 0.0
H1400 H 0.67303 0.60615 0.33812 0.0
H1401 H 0.70168 0.60617 0.39546 0.0
H1402 H 0.7313 0.62586 0.24067 0.0
H1403 H 0.70242 0.62585 0.18223 0.0
H1404 H 0.73744 0.58821 0.37109 0.0
H1405 H 0.74027 0.66492 0.37887 0.0
H1406 H 0.71939 0.65251 0.36043 0.0
H1407 H 0.7376 0.6544 0.30627 0.0
C1408 C 0.68564 0.61035 0.31584 0.0
C1409 C 0.68541 0.61616 0.25559 0.0
C1410 C 0.70203 0.6103 0.3488 0.0
C1411 C 0.71856 0.61622 0.32264 0.0
C1412 C 0.71861 0.6214 0.26186 0.0
H1413 H 0.82667 0.63867 0.46586 0.0
H1414 H 0.79838 0.63636 0.40824 0.0
C1415 C 0.70215 0.62128 0.22842 0.0
C1416 C 0.73545 0.61763 0.36029 0.0
H1417 H 0.7642 0.64881 0.42726 0.0
C1418 C 0.74336 0.60144 0.38331 0.0
C1419 C 0.743 0.63491 0.37659 0.0
C1420 C 0.73463 0.65274 0.35476 0.0
C1421 C 0.75892 0.60204 0.42114 0.0
C1422 C 0.76644 0.61936 0.4378 0.0
C1423 C 0.75841 0.63554 0.41488 0.0
C1424 C 0.78336 0.62105 0.47557 0.0
C1425 C 0.76745 0.58412 0.44144 0.0
C1426 C 0.78435 0.61355 0.53371 0.0
C1427 C 0.80076 0.61475 0.56725 0.0
C1428 C 0.81639 0.62362 0.54336 0.0
C1429 C 0.81502 0.63165 0.48601 0.0
C1430 C 0.79877 0.63037 0.4527 0.0
H1431 H 0.76298 0.57233 0.41304 0.0
H1432 H 0.78276 0.58491 0.44045 0.0
H1433 H 0.7631 0.58123 0.48818 0.0
H1434 H 0.7725 0.60666 0.55302 0.0
H1435 H 0.8013 0.60845 0.61121 0.0
H1436 H 0.62067 0.17393 0.59493 0.0
H1437 H 0.61865 0.20292 0.64871 0.0
H1438 H 0.61234 0.23212 0.48167 0.0
H1439 H 0.61408 0.20271 0.42655 0.0
H1440 H 0.64184 0.23225 0.64146 0.0
H1441 H 0.57033 0.25332 0.58284 0.0
H1442 H 0.57889 0.23027 0.56974 0.0
H1443 H 0.58508 0.2487 0.51982 0.0
C1444 C 0.61876 0.18643 0.56909 0.0
C1445 C 0.61758 0.18591 0.50603 0.0
C1446 C 0.61761 0.20306 0.60025 0.0
C1447 C 0.6152 0.21972 0.56951 0.0
C1448 C 0.61387 0.21939 0.50652 0.0
H1449 H 0.61605 0.33315 0.6841 0.0
H1450 H 0.61433 0.30393 0.6309 0.0
C1451 C 0.61496 0.20259 0.475 0.0
C1452 C 0.61487 0.23729 0.60421 0.0
H1453 H 0.58814 0.27468 0.63896 0.0
C1454 C 0.63006 0.24149 0.64105 0.0
C1455 C 0.59947 0.24931 0.60393 0.0
C1456 C 0.58243 0.24516 0.56742 0.0
C1457 C 0.6304 0.25746 0.67683 0.0
C1458 C 0.61503 0.26948 0.67649 0.0
C1459 C 0.59985 0.26535 0.63958 0.0
C1460 C 0.61506 0.2871 0.71074 0.0
C1461 C 0.6474 0.2616 0.71359 0.0
C1462 C 0.6157 0.28742 0.77382 0.0
C1463 C 0.61665 0.30429 0.8049 0.0
C1464 C 0.61708 0.32105 0.77325 0.0
C1465 C 0.61596 0.32055 0.71018 0.0
C1466 C 0.61489 0.30382 0.67944 0.0
H1467 H 0.65931 0.25285 0.70029 0.0
H1468 H 0.65141 0.27632 0.70894 0.0
H1469 H 0.64439 0.25897 0.76159 0.0
H1470 H 0.61561 0.27464 0.79892 0.0
H1471 H 0.61744 0.30418 0.85337 0.0
H1472 H 0.34843 0.14569 0.36583 0.0
H1473 H 0.35355 0.1466 0.47435 0.0
H1474 H 0.37911 0.09292 0.46646 0.0
H1475 H 0.37421 0.09203 0.35768 0.0
H1476 H 0.34283 0.1232 0.56823 0.0
H1477 H 0.41915 0.12508 0.54412 0.0
H1478 H 0.40372 0.12889 0.48179 0.0
H1479 H 0.40811 0.10586 0.50798 0.0
C1480 C 0.35492 0.13397 0.38736 0.0
C1481 C 0.361 0.11882 0.35329 0.0
C1482 C 0.35788 0.13453 0.44935 0.0
C1483 C 0.36707 0.12001 0.47838 0.0
C1484 C 0.37236 0.10446 0.44483 0.0
H1485 H 0.40236 0.1016 0.84611 0.0
H1486 H 0.39705 0.1001 0.73772 0.0
C1487 C 0.36939 0.10389 0.38279 0.0
C1488 C 0.37148 0.12141 0.54337 0.0
H1489 H 0.40739 0.12301 0.64287 0.0
C1490 C 0.35694 0.1232 0.58456 0.0
C1491 C 0.38991 0.12145 0.56464 0.0
C1492 C 0.40616 0.12038 0.52241 0.0
C1493 C 0.3603 0.12471 0.64647 0.0
C1494 C 0.37874 0.12481 0.66773 0.0
C1495 C 0.39328 0.12297 0.62655 0.0
C1496 C 0.38317 0.12649 0.73265 0.0
C1497 C 0.34405 0.12575 0.68869 0.0
C1498 C 0.37774 0.14212 0.76553 0.0
C1499 C 0.38082 0.14303 0.82746 0.0
C1500 C 0.38948 0.12837 0.85754 0.0
C1501 C 0.39569 0.11313 0.82412 0.0
C1502 C 0.39261 0.11223 0.76222 0.0
H1503 H 0.33112 0.1208 0.66717 0.0
H1504 H 0.34658 0.11745 0.72969 0.0
H1505 H 0.3419 0.14031 0.70244 0.0
H1506 H 0.37082 0.15349 0.74347 0.0
H1507 H 0.37589 0.15495 0.85205 0.0
H1508 H 0.08993 0.63524 0.66886 0.0
H1509 H 0.09128 0.6303 0.56011 0.0
H1510 H 0.14457 0.65683 0.55437 0.0
H1511 H 0.14338 0.6616 0.66301 0.0
H1512 H 0.09571 0.65464 0.4624 0.0
H1513 H 0.15466 0.60597 0.48009 0.0
H1514 H 0.14124 0.61305 0.54429 0.0
H1515 H 0.15864 0.62809 0.51408 0.0
C1516 C 0.10181 0.64024 0.64423 0.0
C1517 C 0.1166 0.64872 0.67437 0.0
C1518 C 0.10259 0.63736 0.58218 0.0
C1519 C 0.11821 0.64283 0.54934 0.0
C1520 C 0.13257 0.65212 0.579 0.0
H1521 H 0.15154 0.63459 0.17609 0.0
H1522 H 0.14993 0.63949 0.28478 0.0
C1523 C 0.1318 0.65499 0.64098 0.0
C1524 C 0.11966 0.63844 0.48439 0.0
H1525 H 0.14556 0.61468 0.38201 0.0
C1526 C 0.10655 0.64584 0.44482 0.0
C1527 C 0.13382 0.62693 0.46155 0.0
C1528 C 0.14781 0.61789 0.50217 0.0
C1529 C 0.10744 0.64236 0.38287 0.0
C1530 C 0.12161 0.63088 0.36003 0.0
C1531 C 0.13471 0.62346 0.3996 0.0
C1532 C 0.12317 0.6266 0.29505 0.0
C1533 C 0.09344 0.65136 0.3422 0.0
C1534 C 0.10896 0.61714 0.26512 0.0
C1535 C 0.10989 0.61426 0.20315 0.0
C1536 C 0.12509 0.62071 0.17006 0.0
C1537 C 0.13968 0.62943 0.20048 0.0
C1538 C 0.13875 0.63229 0.2625 0.0
H1539 H 0.08642 0.66316 0.36443 0.0
H1540 H 0.10006 0.65637 0.30038 0.0
H1541 H 0.08275 0.64108 0.32971 0.0
H1542 H 0.09699 0.61228 0.28954 0.0
H1543 H 0.09844 0.60749 0.1809 0.0
H1544 H 0.66128 0.86274 0.36075 0.0
H1545 H 0.65611 0.86173 0.4692 0.0
H1546 H 0.63088 0.91558 0.46216 0.0
H1547 H 0.63577 0.91652 0.3534 0.0
H1548 H 0.66691 0.88444 0.56347 0.0
H1549 H 0.59059 0.88414 0.53948 0.0
H1550 H 0.60591 0.88039 0.47686 0.0
H1551 H 0.60185 0.90336 0.50432 0.0
C1552 C 0.65486 0.87447 0.38245 0.0
C1553 C 0.64885 0.88967 0.3486 0.0
C1554 C 0.65186 0.87385 0.44441 0.0
C1555 C 0.64273 0.88839 0.47368 0.0
C1556 C 0.63755 0.904 0.44036 0.0
H1557 H 0.60813 0.90724 0.84183 0.0
H1558 H 0.61346 0.90867 0.73348 0.0
C1559 C 0.64052 0.90461 0.37832 0.0
C1560 C 0.6383 0.88695 0.53869 0.0
H1561 H 0.60241 0.88603 0.63831 0.0
C1562 C 0.65281 0.88474 0.57982 0.0
C1563 C 0.61987 0.88728 0.56004 0.0
C1564 C 0.60363 0.88875 0.51793 0.0
C1565 C 0.64943 0.88319 0.64171 0.0
C1566 C 0.63101 0.8835 0.66304 0.0
C1567 C 0.61651 0.88575 0.62193 0.0
C1568 C 0.62657 0.8819 0.72798 0.0
C1569 C 0.66567 0.88166 0.68386 0.0
C1570 C 0.63155 0.86609 0.76064 0.0
C1571 C 0.62846 0.86522 0.82258 0.0
C1572 C 0.62023 0.88011 0.85288 0.0
C1573 C 0.61447 0.89554 0.81968 0.0
C1574 C 0.61756 0.8964 0.75779 0.0
H1575 H 0.67872 0.88624 0.66237 0.0
H1576 H 0.66339 0.89001 0.72496 0.0
H1577 H 0.66739 0.86704 0.69745 0.0
H1578 H 0.63815 0.85455 0.7384 0.0
H1579 H 0.63305 0.85316 0.84699 0.0
H1580 H 0.90315 0.4032 0.16776 0.0
H1581 H 0.90645 0.39778 0.27569 0.0
H1582 H 0.86155 0.35875 0.2696 0.0
H1583 H 0.85818 0.3641 0.16158 0.0
H1584 H 0.88001 0.40068 0.37267 0.0
H1585 H 0.90583 0.32913 0.34001 0.0
H1586 H 0.90506 0.3458 0.27993 0.0
H1587 H 0.88428 0.3345 0.30396 0.0
C1588 C 0.89378 0.39369 0.18962 0.0
C1589 C 0.88042 0.38405 0.15628 0.0
C1590 C 0.89573 0.39056 0.25121 0.0
C1591 C 0.88448 0.37761 0.28042 0.0
C1592 C 0.87059 0.36856 0.24772 0.0
H1593 H 0.88003 0.33469 0.64356 0.0
H1594 H 0.87753 0.33947 0.53517 0.0
C1595 C 0.86856 0.37176 0.18615 0.0
C1596 C 0.8876 0.37331 0.34475 0.0
H1597 H 0.90131 0.33901 0.43998 0.0
C1598 C 0.88471 0.38723 0.38746 0.0
C1599 C 0.8937 0.35572 0.36386 0.0
C1600 C 0.89756 0.34042 0.31967 0.0
C1601 C 0.88743 0.38395 0.44894 0.0
C1602 C 0.89374 0.3664 0.46814 0.0
C1603 C 0.89659 0.35247 0.42531 0.0
C1604 C 0.89696 0.36216 0.53261 0.0
C1605 C 0.883 0.39919 0.49282 0.0
C1606 C 0.90937 0.37271 0.56687 0.0
C1607 C 0.91078 0.37003 0.62885 0.0
C1608 C 0.89998 0.35657 0.65757 0.0
C1609 C 0.88856 0.34514 0.62265 0.0
C1610 C 0.88706 0.34792 0.56071 0.0
H1611 H 0.87366 0.40968 0.47285 0.0
H1612 H 0.8764 0.39362 0.53391 0.0
H1613 H 0.89598 0.40626 0.506 0.0
H1614 H 0.91757 0.38342 0.54597 0.0
H1615 H 0.91975 0.379 0.65459 0.0
H1616 H 0.38538 0.41747 0.42433 0.0
H1617 H 0.38035 0.41865 0.53237 0.0
H1618 H 0.38622 0.35951 0.54235 0.0
H1619 H 0.3914 0.35824 0.43338 0.0
H1620 H 0.35102 0.40047 0.59217 0.0
H1621 H 0.41996 0.37946 0.67856 0.0
H1622 H 0.41651 0.38749 0.60276 0.0
H1623 H 0.40973 0.36453 0.6233 0.0
C1624 C 0.38591 0.40472 0.44958 0.0
C1625 C 0.38882 0.38775 0.42054 0.0
C1626 C 0.38295 0.40542 0.51128 0.0
C1627 C 0.38293 0.3892 0.54536 0.0
C1628 C 0.38639 0.37223 0.51689 0.0
H1629 H 0.33823 0.37821 0.90707 0.0
H1630 H 0.34254 0.37698 0.79816 0.0
C1631 C 0.38936 0.37151 0.45479 0.0
C1632 C 0.37838 0.3902 0.61005 0.0
H1633 H 0.3964 0.38427 0.75006 0.0
C1634 C 0.36091 0.39688 0.62678 0.0
C1635 C 0.39137 0.38566 0.65492 0.0
C1636 C 0.41051 0.37901 0.63933 0.0
C1637 C 0.35609 0.3992 0.6873 0.0
C1638 C 0.36904 0.39455 0.7322 0.0
C1639 C 0.38649 0.38781 0.71547 0.0
C1640 C 0.36494 0.39677 0.79693 0.0
C1641 C 0.33738 0.40704 0.70265 0.0
C1642 C 0.3759 0.40849 0.83221 0.0
C1643 C 0.37345 0.40922 0.89429 0.0
C1644 C 0.36007 0.39814 0.92221 0.0
C1645 C 0.34853 0.38703 0.88662 0.0
C1646 C 0.35099 0.3863 0.82443 0.0
H1647 H 0.33085 0.4139 0.6635 0.0
H1648 H 0.32816 0.39569 0.71741 0.0
H1649 H 0.33845 0.41717 0.73989 0.0
H1650 H 0.38672 0.4167 0.81185 0.0
H1651 H 0.38258 0.41785 0.92065 0.0
H1652 H 0.41562 0.63518 0.10471 0.0
H1653 H 0.41452 0.63019 0.21348 0.0
H1654 H 0.36059 0.65533 0.22009 0.0
H1655 H 0.36155 0.66021 0.11152 0.0
H1656 H 0.40923 0.65472 0.31201 0.0
H1657 H 0.35217 0.60384 0.2933 0.0
H1658 H 0.36551 0.61129 0.2294 0.0
H1659 H 0.34754 0.62577 0.25901 0.0
C1660 C 0.40365 0.63988 0.12954 0.0
C1661 C 0.38863 0.648 0.09965 0.0
C1662 C 0.40301 0.63697 0.19161 0.0
C1663 C 0.3873 0.64203 0.22469 0.0
C1664 C 0.37268 0.65096 0.19527 0.0
H1665 H 0.35346 0.63192 0.5971 0.0
H1666 H 0.35513 0.63697 0.48851 0.0
C1667 C 0.37332 0.65388 0.13332 0.0
C1668 C 0.38598 0.63757 0.28959 0.0
H1669 H 0.36088 0.61282 0.39149 0.0
C1670 C 0.39873 0.6455 0.3294 0.0
C1671 C 0.37225 0.62552 0.3122 0.0
C1672 C 0.35867 0.61596 0.27131 0.0
C1673 C 0.39787 0.64203 0.39136 0.0
C1674 C 0.38412 0.62999 0.41398 0.0
C1675 C 0.3714 0.62203 0.37413 0.0
C1676 C 0.38263 0.62566 0.47896 0.0
C1677 C 0.4114 0.65166 0.43225 0.0
C1678 C 0.39725 0.61701 0.50932 0.0
C1679 C 0.39629 0.61407 0.57124 0.0
C1680 C 0.38064 0.6196 0.60389 0.0
C1681 C 0.36567 0.62747 0.57306 0.0
C1682 C 0.36664 0.63042 0.51108 0.0
H1683 H 0.41784 0.66381 0.41025 0.0
H1684 H 0.40455 0.65629 0.47417 0.0
H1685 H 0.42259 0.64191 0.4445 0.0
H1686 H 0.40955 0.61284 0.48526 0.0
H1687 H 0.40803 0.60795 0.5938 0.0
H1688 H 0.66743 0.63406 0.91397 0.0
H1689 H 0.66295 0.63567 0.80509 0.0
H1690 H 0.62301 0.59167 0.81495 0.0
H1691 H 0.6273 0.59007 0.92393 0.0
H1692 H 0.65243 0.59155 0.71261 0.0
H1693 H 0.61055 0.65553 0.73846 0.0
H1694 H 0.63226 0.65424 0.77768 0.0
H1695 H 0.61367 0.63931 0.79906 0.0
C1696 C 0.658 0.62445 0.89278 0.0
C1697 C 0.64768 0.61196 0.92739 0.0
C1698 C 0.65538 0.62548 0.83069 0.0
C1699 C 0.64249 0.61395 0.80227 0.0
C1700 C 0.63297 0.60073 0.8362 0.0
H1701 H 0.60459 0.59813 0.43595 0.0
H1702 H 0.61039 0.59583 0.54375 0.0
C1703 C 0.63547 0.5998 0.89834 0.0
C1704 C 0.63816 0.61638 0.73781 0.0
H1705 H 0.61544 0.64471 0.64021 0.0
C1706 C 0.64435 0.60315 0.69662 0.0
C1707 C 0.6277 0.63158 0.7173 0.0
C1708 C 0.62052 0.64599 0.76021 0.0
C1709 C 0.6405 0.60482 0.63508 0.0
C1710 C 0.62968 0.61985 0.61454 0.0
C1711 C 0.62363 0.63315 0.65591 0.0
C1712 C 0.6246 0.62203 0.55029 0.0
C1713 C 0.64844 0.59069 0.59257 0.0
C1714 C 0.62964 0.63803 0.51871 0.0
C1715 C 0.62601 0.63953 0.45721 0.0
C1716 C 0.61728 0.62505 0.42632 0.0
C1717 C 0.61142 0.60947 0.45857 0.0
C1718 C 0.61492 0.60805 0.52005 0.0
H1719 H 0.66054 0.58351 0.6124 0.0
H1720 H 0.63778 0.58012 0.58256 0.0
H1721 H 0.65277 0.59715 0.54971 0.0
H1722 H 0.63696 0.64909 0.54119 0.0
H1723 H 0.63075 0.65167 0.43342 0.0
H1724 H 0.65429 0.37701 0.5967 0.0
H1725 H 0.65298 0.3724 0.4878 0.0
H1726 H 0.59839 0.39612 0.48403 0.0
H1727 H 0.5997 0.40093 0.59255 0.0
H1728 H 0.62708 0.3506 0.42752 0.0
H1729 H 0.62412 0.42287 0.3464 0.0
H1730 H 0.63131 0.41701 0.42149 0.0
H1731 H 0.60719 0.41745 0.40246 0.0
C1732 C 0.64218 0.3816 0.5724 0.0
C1733 C 0.62715 0.38944 0.60302 0.0
C1734 C 0.6414 0.37887 0.51027 0.0
C1735 C 0.62565 0.38406 0.47758 0.0
C1736 C 0.61082 0.39232 0.508 0.0
H1737 H 0.59177 0.37394 0.1038 0.0
H1738 H 0.59252 0.37831 0.21286 0.0
C1739 C 0.61158 0.39503 0.57008 0.0
C1740 C 0.62425 0.3798 0.41247 0.0
H1741 H 0.61784 0.39942 0.27482 0.0
C1742 C 0.62517 0.36128 0.39407 0.0
C1743 C 0.6216 0.39372 0.36889 0.0
C1744 C 0.62115 0.4139 0.38557 0.0
C1745 C 0.62326 0.35628 0.33345 0.0
C1746 C 0.62069 0.37021 0.28981 0.0
C1747 C 0.61972 0.38873 0.30826 0.0
C1748 C 0.6195 0.36599 0.22459 0.0
C1749 C 0.62362 0.33609 0.31691 0.0
C1750 C 0.6343 0.35741 0.19493 0.0
C1751 C 0.63384 0.35481 0.13277 0.0
C1752 C 0.61864 0.36086 0.09896 0.0
C1753 C 0.60361 0.36901 0.12877 0.0
C1754 C 0.60407 0.3716 0.19101 0.0
H1755 H 0.62024 0.32719 0.35591 0.0
H1756 H 0.61374 0.33304 0.28015 0.0
H1757 H 0.6377 0.33237 0.30138 0.0
H1758 H 0.64651 0.3533 0.21954 0.0
H1759 H 0.6457 0.34866 0.11094 0.0
H1760 H 0.8328 0.61945 0.88001 0.0
H1761 H 0.83769 0.62081 0.98867 0.0
H1762 H 0.88942 0.59197 0.96798 0.0
H1763 H 0.88425 0.58995 0.86001 0.0
H1764 H 0.87232 0.58065 0.06533 0.0
H1765 H 0.87284 0.65706 0.06386 0.0
H1766 H 0.85155 0.64772 0.03606 0.0
H1767 H 0.87271 0.64356 0.99589 0.0
C1768 C 0.84499 0.61305 0.89892 0.0
C1769 C 0.8582 0.60471 0.86167 0.0
C1770 C 0.84791 0.61407 0.96084 0.0
C1771 C 0.86424 0.60707 0.9862 0.0
C1772 C 0.87684 0.59768 0.94937 0.0
H1773 H 0.90196 0.63806 0.3489 0.0
H1774 H 0.90018 0.63483 0.2389 0.0
C1775 C 0.87383 0.59647 0.88767 0.0
C1776 C 0.86843 0.60977 0.05078 0.0
H1777 H 0.87226 0.64264 0.16008 0.0
C1778 C 0.87241 0.59422 0.08589 0.0
C1779 C 0.86911 0.62753 0.07737 0.0
C1780 C 0.86653 0.64493 0.04122 0.0
C1781 C 0.87636 0.59587 0.14721 0.0
C1782 C 0.87577 0.61349 0.17462 0.0
C1783 C 0.8725 0.62912 0.13916 0.0
C1784 C 0.87715 0.61575 0.24055 0.0
C1785 C 0.8812 0.57867 0.18193 0.0
C1786 C 0.86456 0.6065 0.2775 0.0
C1787 C 0.86567 0.60819 0.3395 0.0
C1788 C 0.87919 0.61944 0.36614 0.0
C1789 C 0.8915 0.62922 0.32937 0.0
C1790 C 0.89048 0.62738 0.26678 0.0
H1791 H 0.8873 0.56796 0.15224 0.0
H1792 H 0.89111 0.58169 0.21863 0.0
H1793 H 0.86845 0.57281 0.20185 0.0
H1794 H 0.85379 0.59796 0.25834 0.0
H1795 H 0.8558 0.60069 0.36663 0.0
H1796 H 0.6545 0.13113 0.68091 0.0
H1797 H 0.65309 0.13576 0.78975 0.0
H1798 H 0.59945 0.10991 0.79394 0.0
H1799 H 0.60092 0.10503 0.68547 0.0
H1800 H 0.62694 0.15656 0.85019 0.0
H1801 H 0.62576 0.08432 0.93183 0.0
H1802 H 0.63255 0.09027 0.85643 0.0
H1803 H 0.6085 0.08922 0.87631 0.0
C1804 C 0.6426 0.12608 0.70529 0.0
C1805 C 0.62788 0.1176 0.67478 0.0
C1806 C 0.64175 0.12883 0.76741 0.0
C1807 C 0.62624 0.12304 0.80024 0.0
C1808 C 0.61173 0.11417 0.76992 0.0
H1809 H 0.592 0.13293 0.1738 0.0
H1810 H 0.59291 0.12845 0.0648 0.0
C1811 C 0.61257 0.11142 0.70785 0.0
C1812 C 0.62472 0.12731 0.86537 0.0
H1813 H 0.61879 0.10765 1.00323 0.0
C1814 C 0.62527 0.14586 0.8837 0.0
C1815 C 0.62241 0.11336 0.9091 0.0
C1816 C 0.62243 0.09316 0.89264 0.0
C1817 C 0.62329 0.15085 0.94431 0.0
C1818 C 0.62102 0.1369 0.98804 0.0
C1819 C 0.62044 0.11836 0.96971 0.0
C1820 C 0.61973 0.14115 0.05325 0.0
C1821 C 0.62328 0.17105 0.96076 0.0
C1822 C 0.63439 0.14996 0.083 0.0
C1823 C 0.63384 0.15261 0.14515 0.0
C1824 C 0.61868 0.14639 0.17886 0.0
C1825 C 0.6038 0.138 0.14892 0.0
C1826 C 0.60435 0.13534 0.08671 0.0
H1827 H 0.6198 0.17988 0.92167 0.0
H1828 H 0.61327 0.17393 0.99731 0.0
H1829 H 0.63725 0.17503 0.97659 0.0
H1830 H 0.64656 0.15423 0.05848 0.0
H1831 H 0.6456 0.15894 0.16706 0.0
H1832 H 0.13924 0.35916 0.34683 0.0
H1833 H 0.14512 0.36251 0.23916 0.0
H1834 H 0.10961 0.41025 0.23439 0.0
H1835 H 0.10405 0.40722 0.34219 0.0
H1836 H 0.1231 0.36284 0.13962 0.0
H1837 H 0.15722 0.43085 0.16643 0.0
H1838 H 0.15184 0.41618 0.22933 0.0
H1839 H 0.13417 0.43028 0.19588 0.0
C1840 C 0.13248 0.37021 0.3226 0.0
C1841 C 0.12126 0.38299 0.35288 0.0
C1842 C 0.13592 0.37216 0.26115 0.0
C1843 C 0.12821 0.38693 0.22897 0.0
C1844 C 0.11615 0.39907 0.25857 0.0
H1845 H 0.12829 0.41991 0.85598 0.0
H1846 H 0.12418 0.41777 0.96488 0.0
C1847 C 0.11281 0.3972 0.32004 0.0
C1848 C 0.13298 0.38977 0.16477 0.0
H1849 H 0.15113 0.42111 0.06643 0.0
C1850 C 0.12933 0.37553 0.12372 0.0
C1851 C 0.14122 0.40632 0.144 0.0
C1852 C 0.14652 0.42172 0.18626 0.0
C1853 C 0.13328 0.37756 0.06239 0.0
C1854 C 0.14125 0.39419 0.04163 0.0
C1855 C 0.14499 0.4084 0.08255 0.0
C1856 C 0.14539 0.39712 0.97721 0.0
C1857 C 0.12854 0.36204 0.01992 0.0
C1858 C 0.15921 0.38678 0.94856 0.0
C1859 C 0.16171 0.38811 0.8865 0.0
C1860 C 0.15037 0.39975 0.8521 0.0
C1861 C 0.13725 0.41085 0.88138 0.0
C1862 C 0.13484 0.4096 0.9435 0.0
H1863 H 0.11947 0.35156 0.04116 0.0
H1864 H 0.12156 0.36748 0.97928 0.0
H1865 H 0.14145 0.3551 1.00539 0.0
H1866 H 0.16765 0.37724 0.97397 0.0
H1867 H 0.17189 0.37935 0.86513 0.0
H1868 H 0.3644 0.8498 0.16827 0.0
H1869 H 0.36359 0.85433 0.05951 0.0
H1870 H 0.41717 0.88025 0.0667 0.0
H1871 H 0.41814 0.87552 0.17541 0.0
H1872 H 0.36452 0.88821 1.00238 0.0
H1873 H 0.42296 0.84455 0.92655 0.0
H1874 H 0.41284 0.84239 1.00016 0.0
H1875 H 0.42891 0.86068 0.98457 0.0
C1876 C 0.37617 0.85611 0.14646 0.0
C1877 C 0.39138 0.86223 0.18023 0.0
C1878 C 0.37565 0.85877 0.08437 0.0
C1879 C 0.39036 0.86751 0.05478 0.0
C1880 C 0.4058 0.87317 0.08828 0.0
H1881 H 0.40954 0.90348 0.688 0.0
H1882 H 0.41065 0.89885 0.79675 0.0
C1883 C 0.40633 0.8705 0.15043 0.0
C1884 C 0.38898 0.87178 0.98971 0.0
H1885 H 0.40995 0.86482 0.85438 0.0
C1886 C 0.37439 0.88302 0.96995 0.0
C1887 C 0.40192 0.86508 0.94747 0.0
C1888 C 0.41745 0.85237 0.96551 0.0
C1889 C 0.37255 0.88796 0.90932 0.0
C1890 C 0.38547 0.88125 0.86707 0.0
C1891 C 0.40008 0.87002 0.88683 0.0
C1892 C 0.384 0.88544 0.80198 0.0
C1893 C 0.357 0.90064 0.89126 0.0
C1894 C 0.36855 0.87964 0.76881 0.0
C1895 C 0.36785 0.88236 0.70671 0.0
C1896 C 0.38264 0.89082 0.67662 0.0
C1897 C 0.39788 0.89704 0.71005 0.0
C1898 C 0.39857 0.89431 0.77212 0.0
H1899 H 0.35149 0.90846 0.93021 0.0
H1900 H 0.3616 0.91061 0.85658 0.0
H1901 H 0.34555 0.89231 0.87223 0.0
H1902 H 0.35729 0.87246 0.79061 0.0
H1903 H 0.35603 0.87724 0.682 0.0
H1904 H 0.87616 0.91587 0.41353 0.0
H1905 H 0.88063 0.91481 0.30456 0.0
H1906 H 0.85276 0.86226 0.29765 0.0
H1907 H 0.84807 0.86337 0.40621 0.0
H1908 H 0.90046 0.88809 0.24308 0.0
H1909 H 0.82822 0.89011 0.1608 0.0
H1910 H 0.83442 0.8964 0.23651 0.0
H1911 H 0.83233 0.87251 0.21574 0.0
C1912 C 0.87064 0.9043 0.38853 0.0
C1913 C 0.86167 0.88975 0.41829 0.0
C1914 C 0.87329 0.90366 0.32634 0.0
C1915 C 0.8669 0.88854 0.29273 0.0
C1916 C 0.8575 0.87424 0.3223 0.0
H1917 H 0.87565 0.85358 0.92023 0.0
H1918 H 0.87107 0.85511 0.02906 0.0
C1919 C 0.85486 0.87487 0.38443 0.0
C1920 C 0.87112 0.8871 0.22757 0.0
H1921 H 0.85129 0.88208 0.08948 0.0
C1922 C 0.8897 0.88691 0.20944 0.0
C1923 C 0.8571 0.88543 0.18369 0.0
C1924 C 0.8369 0.88629 0.19996 0.0
C1925 C 0.89465 0.88475 0.14886 0.0
C1926 C 0.88063 0.88305 0.10499 0.0
C1927 C 0.86204 0.88328 0.12312 0.0
C1928 C 0.88486 0.8814 0.0399 0.0
C1929 C 0.91485 0.88389 0.13259 0.0
C1930 C 0.89432 0.89555 1.0098 0.0
C1931 C 0.89704 0.89464 0.94773 0.0
C1932 C 0.89024 0.87963 0.91446 0.0
C1933 C 0.88118 0.86525 0.94476 0.0
C1934 C 0.87846 0.86616 1.00688 0.0
H1935 H 0.92354 0.88019 0.17184 0.0
H1936 H 0.91734 0.87367 0.09634 0.0
H1937 H 0.91939 0.89763 0.11637 0.0
H1938 H 0.89907 0.90761 0.03399 0.0
H1939 H 0.90389 0.90603 0.92552 0.0
H1940 H 0.85503 0.13021 0.09151 0.0
H1941 H 0.85653 0.13502 0.98275 0.0
H1942 H 0.91123 0.11155 0.97958 0.0
H1943 H 0.90972 0.10654 0.08794 0.0
H1944 H 0.8823 0.157 0.92315 0.0
H1945 H 0.88598 0.08483 0.84092 0.0
H1946 H 0.87867 0.09057 0.91603 0.0
H1947 H 0.90281 0.09034 0.89728 0.0
C1948 C 0.86721 0.12571 0.06736 0.0
C1949 C 0.88221 0.11787 0.09813 0.0
C1950 C 0.86809 0.12857 1.0053 0.0
C1951 C 0.88392 0.1235 0.97279 0.0
C1952 C 0.89873 0.11526 1.00335 0.0
H1953 H 0.91796 0.13412 0.59904 0.0
H1954 H 0.91725 0.12968 0.70806 0.0
C1955 C 0.89787 0.11242 0.06536 0.0
C1956 C 0.88541 0.12784 0.90773 0.0
H1957 H 0.89215 0.10839 0.76982 0.0
C1958 C 0.88435 0.14637 0.88957 0.0
C1959 C 0.88824 0.11398 0.86394 0.0
C1960 C 0.88883 0.0938 0.88029 0.0
C1961 C 0.88628 0.15143 0.82903 0.0
C1962 C 0.88902 0.13756 0.78518 0.0
C1963 C 0.89014 0.11904 0.80339 0.0
C1964 C 0.8902 0.14184 0.71997 0.0
C1965 C 0.88576 0.17163 0.81282 0.0
C1966 C 0.87535 0.15035 0.69037 0.0
C1967 C 0.87579 0.15299 0.62823 0.0
C1968 C 0.89102 0.14704 0.59432 0.0
C1969 C 0.90609 0.13896 0.62407 0.0
C1970 C 0.90565 0.13633 0.6863 0.0
H1971 H 0.88909 0.18052 0.85197 0.0
H1972 H 0.89562 0.17479 0.77611 0.0
H1973 H 0.87166 0.17526 0.79738 0.0
H1974 H 0.86311 0.15438 0.71501 0.0
H1975 H 0.86389 0.15908 0.60648 0.0
H1976 H 0.11771 0.15526 0.9299 0.0
H1977 H 0.12273 0.15545 0.03908 0.0
H1978 H 0.12824 0.09624 0.03741 0.0
H1979 H 0.12308 0.09591 0.9291 0.0
H1980 H 0.10245 0.13171 0.13612 0.0
H1981 H 0.17803 0.12003 0.11135 0.0
H1982 H 0.1641 0.13007 0.05256 0.0
H1983 H 0.16298 0.10574 0.06683 0.0
C1984 C 0.1197 0.14229 0.95309 0.0
C1985 C 0.12001 0.12558 0.92108 0.0
C1986 C 0.12261 0.14242 0.01526 0.0
C1987 C 0.12606 0.12586 0.04597 0.0
C1988 C 0.12576 0.10915 0.01436 0.0
H1989 H 0.13031 0.09586 0.42082 0.0
H1990 H 0.12553 0.09734 0.31215 0.0
C1991 C 0.12272 0.109 0.95254 0.0
C1992 C 0.13051 0.12591 0.1108 0.0
H1993 H 0.16577 0.11836 0.20962 0.0
C1994 C 0.11629 0.1289 0.15231 0.0
C1995 C 0.14861 0.12234 0.13155 0.0
C1996 C 0.16441 0.11947 0.08846 0.0
C1997 C 0.11964 0.12796 0.2143 0.0
C1998 C 0.13765 0.12384 0.23509 0.0
C1999 C 0.15196 0.12135 0.19352 0.0
C2000 C 0.1418 0.12209 0.29996 0.0
C2001 C 0.10392 0.13145 0.25721 0.0
C2002 C 0.15313 0.13511 0.32866 0.0
C2003 C 0.1559 0.13427 0.39073 0.0
C2004 C 0.14754 0.1203 0.4249 0.0
C2005 C 0.13694 0.10677 0.3956 0.0
C2006 C 0.13409 0.10768 0.33365 0.0
H2007 H 0.09202 0.13823 0.23477 0.0
H2008 H 0.0991 0.11809 0.27582 0.0
H2009 H 0.10851 0.14023 0.29522 0.0
H2010 H 0.1593 0.14626 0.30335 0.0
H2011 H 0.1641 0.1449 0.41219 0.0
H2012 H 0.09351 0.87662 0.60367 0.0
H2013 H 0.09494 0.88149 0.71246 0.0
H2014 H 0.14742 0.85346 0.71857 0.0
H2015 H 0.14616 0.84872 0.60991 0.0
H2016 H 0.09882 0.85682 0.81057 0.0
H2017 H 0.15877 0.90428 0.7924 0.0
H2018 H 0.14508 0.89756 0.72836 0.0
H2019 H 0.16215 0.88209 0.75819 0.0
C2020 C 0.10522 0.87127 0.62839 0.0
C2021 C 0.11977 0.86237 0.59834 0.0
C2022 C 0.10605 0.87411 0.69048 0.0
C2023 C 0.12148 0.86819 0.72343 0.0
C2024 C 0.13558 0.8585 0.69385 0.0
H2025 H 0.15543 0.8766 0.09639 0.0
H2026 H 0.15364 0.87155 0.98779 0.0
C2027 C 0.13476 0.85565 0.63186 0.0
C2028 C 0.12305 0.87257 0.78837 0.0
H2029 H 0.14946 0.89591 0.89049 0.0
C2030 C 0.10984 0.86542 0.82805 0.0
C2031 C 0.13745 0.88382 0.8111 0.0
C2032 C 0.1516 0.89254 0.77035 0.0
C2033 C 0.11084 0.86891 0.89 0.0
C2034 C 0.12523 0.88015 0.91273 0.0
C2035 C 0.13844 0.88731 0.87302 0.0
C2036 C 0.12689 0.88449 0.97769 0.0
C2037 C 0.09672 0.86013 0.93076 0.0
C2038 C 0.11278 0.89403 1.00773 0.0
C2039 C 0.11381 0.89698 0.06966 0.0
C2040 C 0.12903 0.89054 0.10263 0.0
C2041 C 0.14356 0.88176 0.0721 0.0
C2042 C 0.14252 0.87881 1.01012 0.0
H2043 H 0.08961 0.84835 0.90874 0.0
H2044 H 0.10325 0.85516 0.97279 0.0
H2045 H 0.08611 0.87054 0.94283 0.0
H2046 H 0.10079 0.89891 0.98343 0.0
H2047 H 0.10241 0.90381 0.09197 0.0
loop_
_geom_bond_atom_site_label_1
_geom_bond_atom_site_label_2
_geom_bond_distance
_geom_bond_site_symmetry_2
_ccdc_geom_bond_type
Dy0 O4 2.398 . S
Dy0 O5 2.491 . S
Dy0 O6 2.403 . S
Dy0 O7 2.664 . S
Dy0 O11 2.326 . S
Dy0 O15 2.310 . S
Dy0 O16 2.351 . S
C1 O12 1.185 . S
C1 O13 1.355 . S
C2 O4 1.185 . S
C2 O5 1.355 . S
Dy3 O7 2.310 . S
Dy3 O10 2.351 . S
Dy3 O12 2.398 1_554 S
Dy3 O13 2.491 1_554 S
Dy3 O14 2.403 . S
Dy3 O15 2.664 . S
Dy3 O17 2.326 . S
O4 Dy0 2.398 . S
O4 C2 1.185 . S
O5 Dy0 2.491 . S
O5 C2 1.355 . S
O6 Dy0 2.403 . S
O6 C8 1.254 . S
O7 Dy0 2.664 . S
O7 Dy3 2.310 . S
O7 C8 1.268 . S
C8 O6 1.254 . S
C8 O7 1.268 . S
C9 O14 1.254 . S
C9 O15 1.268 . S
O10 Dy3 2.351 . S
O10 C18 1.249 . S
O11 Dy0 2.326 . S
O11 C18 1.267 . S
O12 C1 1.185 . S
O12 Dy3 2.398 1_556 S
O13 C1 1.355 . S
O13 Dy3 2.491 1_556 S
O14 Dy3 2.403 . S
O14 C9 1.254 . S
O15 Dy0 2.310 . S
O15 Dy3 2.664 . S
O15 C9 1.268 . S
O16 Dy0 2.351 . S
O16 C19 1.249 . S
O17 Dy3 2.326 . S
O17 C19 1.267 . S
C18 O10 1.249 . S
C18 O11 1.267 . S
C19 O16 1.249 . S
C19 O17 1.267 . S
Dy20 O24 2.398 1_556 S
Dy20 O25 2.491 1_556 S
Dy20 O26 2.403 . S
Dy20 O27 2.664 . S
Dy20 O31 2.326 . S
Dy20 O35 2.310 . S
Dy20 O36 2.351 . S
C21 O32 1.185 . S
C21 O33 1.355 . S
C22 O24 1.185 . S
C22 O25 1.355 . S
Dy23 O27 2.310 . S
Dy23 O30 2.351 . S
Dy23 O32 2.398 . S
Dy23 O33 2.491 . S
Dy23 O34 2.403 . S
Dy23 O35 2.664 . S
Dy23 O37 2.326 . S
O24 Dy20 2.398 1_554 S
O24 C22 1.185 . S
O25 Dy20 2.491 1_554 S
O25 C22 1.355 . S
O26 Dy20 2.403 . S
O26 C28 1.254 . S
O27 Dy20 2.664 . S
O27 Dy23 2.310 . S
O27 C28 1.268 . S
C28 O26 1.254 . S
C28 O27 1.268 . S
C29 O34 1.254 . S
C29 O35 1.268 . S
O30 Dy23 2.351 . S
O30 C38 1.249 . S
O31 Dy20 2.326 . S
O31 C38 1.267 . S
O32 C21 1.185 . S
O32 Dy23 2.398 . S
O33 C21 1.355 . S
O33 Dy23 2.491 . S
O34 Dy23 2.403 . S
O34 C29 1.254 . S
O35 Dy20 2.310 . S
O35 Dy23 2.664 . S
O35 C29 1.268 . S
O36 Dy20 2.351 . S
O36 C39 1.249 . S
O37 Dy23 2.326 . S
O37 C39 1.267 . S
C38 O30 1.249 . S
C38 O31 1.267 . S
C39 O36 1.249 . S
C39 O37 1.267 . S
Dy40 O44 2.398 . S
Dy40 O45 2.491 . S
Dy40 O46 2.403 . S
Dy40 O47 2.664 . S
Dy40 O51 2.326 . S
Dy40 O55 2.310 . S
Dy40 O56 2.351 . S
C41 O52 1.185 . S
C41 O53 1.355 . S
C42 O44 1.185 . S
C42 O45 1.355 . S
Dy43 O47 2.310 . S
Dy43 O50 2.351 . S
Dy43 O52 2.398 1_554 S
Dy43 O53 2.491 1_554 S
Dy43 O54 2.403 . S
Dy43 O55 2.664 . S
Dy43 O57 2.326 . S
O44 Dy40 2.398 . S
O44 C42 1.185 . S
O45 Dy40 2.491 . S
O45 C42 1.355 . S
O46 Dy40 2.403 . S
O46 C48 1.254 . S
O47 Dy40 2.664 . S
O47 Dy43 2.310 . S
O47 C48 1.268 . S
C48 O46 1.254 . S
C48 O47 1.268 . S
C49 O54 1.254 . S
C49 O55 1.268 . S
O50 Dy43 2.351 . S
O50 C58 1.249 . S
O51 Dy40 2.326 . S
O51 C58 1.267 . S
O52 C41 1.185 . S
O52 Dy43 2.398 1_556 S
O53 C41 1.355 . S
O53 Dy43 2.491 1_556 S
O54 Dy43 2.403 . S
O54 C49 1.254 . S
O55 Dy40 2.310 . S
O55 Dy43 2.664 . S
O55 C49 1.268 . S
O56 Dy40 2.351 . S
O56 C59 1.249 . S
O57 Dy43 2.326 . S
O57 C59 1.267 . S
C58 O50 1.249 . S
C58 O51 1.267 . S
C59 O56 1.249 . S
C59 O57 1.267 . S
Dy60 O64 2.398 1_556 S
Dy60 O65 2.491 1_556 S
Dy60 O66 2.403 . S
Dy60 O67 2.664 . S
Dy60 O71 2.326 . S
Dy60 O75 2.310 . S
Dy60 O76 2.351 . S
C61 O72 1.185 . S
C61 O73 1.355 . S
C62 O64 1.185 . S
C62 O65 1.355 . S
Dy63 O67 2.310 . S
Dy63 O70 2.351 . S
Dy63 O72 2.398 . S
Dy63 O73 2.491 . S
Dy63 O74 2.403 . S
Dy63 O75 2.664 . S
Dy63 O77 2.326 . S
O64 Dy60 2.398 1_554 S
O64 C62 1.185 . S
O65 Dy60 2.491 1_554 S
O65 C62 1.355 . S
O66 Dy60 2.403 . S
O66 C68 1.254 . S
O67 Dy60 2.664 . S
O67 Dy63 2.310 . S
O67 C68 1.268 . S
C68 O66 1.254 . S
C68 O67 1.268 . S
C69 O74 1.254 . S
C69 O75 1.268 . S
O70 Dy63 2.351 . S
O70 C78 1.249 . S
O71 Dy60 2.326 . S
O71 C78 1.267 . S
O72 C61 1.185 . S
O72 Dy63 2.398 . S
O73 C61 1.355 . S
O73 Dy63 2.491 . S
O74 Dy63 2.403 . S
O74 C69 1.254 . S
O75 Dy60 2.310 . S
O75 Dy63 2.664 . S
O75 C69 1.268 . S
O76 Dy60 2.351 . S
O76 C79 1.249 . S
O77 Dy63 2.326 . S
O77 C79 1.267 . S
C78 O70 1.249 . S
C78 O71 1.267 . S
C79 O76 1.249 . S
C79 O77 1.267 . S
Dy80 O84 2.398 1_554 S
Dy80 O85 2.491 1_554 S
Dy80 O86 2.403 . S
Dy80 O87 2.664 . S
Dy80 O91 2.326 . S
Dy80 O95 2.310 . S
Dy80 O96 2.351 . S
C81 O92 1.185 . S
C81 O93 1.355 . S
C82 O84 1.185 . S
C82 O85 1.355 . S
Dy83 O87 2.310 . S
Dy83 O90 2.351 . S
Dy83 O92 2.398 . S
Dy83 O93 2.491 . S
Dy83 O94 2.403 . S
Dy83 O95 2.664 . S
Dy83 O97 2.326 . S
O84 Dy80 2.398 1_556 S
O84 C82 1.185 . S
O85 Dy80 2.491 1_556 S
O85 C82 1.355 . S
O86 Dy80 2.403 . S
O86 C88 1.254 . S
O87 Dy80 2.664 . S
O87 Dy83 2.310 . S
O87 C88 1.268 . S
C88 O86 1.254 . S
C88 O87 1.268 . S
C89 O94 1.254 . S
C89 O95 1.268 . S
O90 Dy83 2.351 . S
O90 C98 1.249 . S
O91 Dy80 2.326 . S
O91 C98 1.267 . S
O92 C81 1.185 . S
O92 Dy83 2.398 . S
O93 C81 1.355 . S
O93 Dy83 2.491 . S
O94 Dy83 2.403 . S
O94 C89 1.254 . S
O95 Dy80 2.310 . S
O95 Dy83 2.664 . S
O95 C89 1.268 . S
O96 Dy80 2.351 . S
O96 C99 1.249 . S
O97 Dy83 2.326 . S
O97 C99 1.267 . S
C98 O90 1.249 . S
C98 O91 1.267 . S
C99 O96 1.249 . S
C99 O97 1.267 . S
Dy100 O104 2.398 . S
Dy100 O105 2.491 . S
Dy100 O106 2.403 . S
Dy100 O107 2.664 . S
Dy100 O111 2.326 . S
Dy100 O115 2.310 . S
Dy100 O116 2.351 . S
C101 O112 1.185 . S
C101 O113 1.355 . S
C102 O104 1.185 . S
C102 O105 1.355 . S
Dy103 O107 2.310 . S
Dy103 O110 2.351 . S
Dy103 O112 2.398 1_556 S
Dy103 O113 2.491 1_556 S
Dy103 O114 2.403 . S
Dy103 O115 2.664 . S
Dy103 O117 2.326 . S
O104 Dy100 2.398 . S
O104 C102 1.185 . S
O105 Dy100 2.491 . S
O105 C102 1.355 . S
O106 Dy100 2.403 . S
O106 C108 1.254 . S
O107 Dy100 2.664 . S
O107 Dy103 2.310 . S
O107 C108 1.268 . S
C108 O106 1.254 . S
C108 O107 1.268 . S
C109 O114 1.254 . S
C109 O115 1.268 . S
O110 Dy103 2.351 . S
O110 C118 1.249 . S
O111 Dy100 2.326 . S
O111 C118 1.267 . S
O112 C101 1.185 . S
O112 Dy103 2.398 1_554 S
O113 C101 1.355 . S
O113 Dy103 2.491 1_554 S
O114 Dy103 2.403 . S
O114 C109 1.254 . S
O115 Dy100 2.310 . S
O115 Dy103 2.664 . S
O115 C109 1.268 . S
O116 Dy100 2.351 . S
O116 C119 1.249 . S
O117 Dy103 2.326 . S
O117 C119 1.267 . S
C118 O110 1.249 . S
C118 O111 1.267 . S
C119 O116 1.249 . S
C119 O117 1.267 . S
Dy120 O124 2.398 1_554 S
Dy120 O125 2.491 1_554 S
Dy120 O126 2.403 . S
Dy120 O127 2.664 . S
Dy120 O131 2.326 . S
Dy120 O135 2.310 . S
Dy120 O136 2.351 . S
C121 O132 1.185 . S
C121 O133 1.355 . S
C122 O124 1.185 . S
C122 O125 1.355 . S
Dy123 O127 2.310 . S
Dy123 O130 2.351 . S
Dy123 O132 2.398 . S
Dy123 O133 2.491 . S
Dy123 O134 2.403 . S
Dy123 O135 2.664 . S
Dy123 O137 2.326 . S
O124 Dy120 2.398 1_556 S
O124 C122 1.185 . S
O125 Dy120 2.491 1_556 S
O125 C122 1.355 . S
O126 Dy120 2.403 . S
O126 C128 1.254 . S
O127 Dy120 2.664 . S
O127 Dy123 2.310 . S
O127 C128 1.268 . S
C128 O126 1.254 . S
C128 O127 1.268 . S
C129 O134 1.254 . S
C129 O135 1.268 . S
O130 Dy123 2.351 . S
O130 C138 1.249 . S
O131 Dy120 2.326 . S
O131 C138 1.267 . S
O132 C121 1.185 . S
O132 Dy123 2.398 . S
O133 C121 1.355 . S
O133 Dy123 2.491 . S
O134 Dy123 2.403 . S
O134 C129 1.254 . S
O135 Dy120 2.310 . S
O135 Dy123 2.664 . S
O135 C129 1.268 . S
O136 Dy120 2.351 . S
O136 C139 1.249 . S
O137 Dy123 2.326 . S
O137 C139 1.267 . S
C138 O130 1.249 . S
C138 O131 1.267 . S
C139 O136 1.249 . S
C139 O137 1.267 . S
Dy140 O144 2.398 . S
Dy140 O145 2.491 . S
Dy140 O146 2.403 . S
Dy140 O147 2.664 . S
Dy140 O151 2.326 . S
Dy140 O155 2.310 . S
Dy140 O156 2.351 . S
C141 O152 1.185 . S
C141 O153 1.355 . S
C142 O144 1.185 . S
C142 O145 1.355 . S
Dy143 O147 2.310 . S
Dy143 O150 2.351 . S
Dy143 O152 2.398 1_556 S
Dy143 O153 2.491 1_556 S
Dy143 O154 2.403 . S
Dy143 O155 2.664 . S
Dy143 O157 2.326 . S
O144 Dy140 2.398 . S
O144 C142 1.185 . S
O145 Dy140 2.491 . S
O145 C142 1.355 . S
O146 Dy140 2.403 . S
O146 C148 1.254 . S
O147 Dy140 2.664 . S
O147 Dy143 2.310 . S
O147 C148 1.268 . S
C148 O146 1.254 . S
C148 O147 1.268 . S
C149 O154 1.254 . S
C149 O155 1.268 . S
O150 Dy143 2.351 . S
O150 C158 1.249 . S
O151 Dy140 2.326 . S
O151 C158 1.267 . S
O152 C141 1.185 . S
O152 Dy143 2.398 1_554 S
O153 C141 1.355 . S
O153 Dy143 2.491 1_554 S
O154 Dy143 2.403 . S
O154 C149 1.254 . S
O155 Dy140 2.310 . S
O155 Dy143 2.664 . S
O155 C149 1.268 . S
O156 Dy140 2.351 . S
O156 C159 1.249 . S
O157 Dy143 2.326 . S
O157 C159 1.267 . S
C158 O150 1.249 . S
C158 O151 1.267 . S
C159 O156 1.249 . S
C159 O157 1.267 . S
Dy160 O164 2.398 . S
Dy160 O165 2.491 . S
Dy160 O166 2.403 . S
Dy160 O167 2.664 . S
Dy160 O171 2.326 . S
Dy160 O175 2.310 . S
Dy160 O176 2.351 . S
C161 O172 1.185 . S
C161 O173 1.355 . S
C162 O164 1.185 . S
C162 O165 1.355 . S
Dy163 O167 2.310 . S
Dy163 O170 2.351 . S
Dy163 O172 2.398 . S
Dy163 O173 2.491 . S
Dy163 O174 2.403 . S
Dy163 O175 2.664 . S
Dy163 O177 2.326 . S
O164 Dy160 2.398 . S
O164 C162 1.185 . S
O165 Dy160 2.491 . S
O165 C162 1.355 . S
O166 Dy160 2.403 . S
O166 C168 1.254 . S
O167 Dy160 2.664 . S
O167 Dy163 2.310 . S
O167 C168 1.268 . S
C168 O166 1.254 . S
C168 O167 1.268 . S
C169 O174 1.254 . S
C169 O175 1.268 . S
O170 Dy163 2.351 . S
O170 C178 1.249 . S
O171 Dy160 2.326 . S
O171 C178 1.267 . S
O172 C161 1.185 . S
O172 Dy163 2.398 . S
O173 C161 1.355 . S
O173 Dy163 2.491 . S
O174 Dy163 2.403 . S
O174 C169 1.254 . S
O175 Dy160 2.310 . S
O175 Dy163 2.664 . S
O175 C169 1.268 . S
O176 Dy160 2.351 . S
O176 C179 1.249 . S
O177 Dy163 2.326 . S
O177 C179 1.267 . S
C178 O170 1.249 . S
C178 O171 1.267 . S
C179 O176 1.249 . S
C179 O177 1.267 . S
Dy180 O184 2.398 . S
Dy180 O185 2.491 . S
Dy180 O186 2.403 . S
Dy180 O187 2.664 . S
Dy180 O191 2.326 . S
Dy180 O195 2.310 . S
Dy180 O196 2.351 . S
C181 O192 1.185 . S
C181 O193 1.355 . S
C182 O184 1.185 . S
C182 O185 1.355 . S
Dy183 O187 2.310 . S
Dy183 O190 2.351 . S
Dy183 O192 2.398 . S
Dy183 O193 2.491 . S
Dy183 O194 2.403 . S
Dy183 O195 2.664 . S
Dy183 O197 2.326 . S
O184 Dy180 2.398 . S
O184 C182 1.185 . S
O185 Dy180 2.491 . S
O185 C182 1.355 . S
O186 Dy180 2.403 . S
O186 C188 1.254 . S
O187 Dy180 2.664 . S
O187 Dy183 2.310 . S
O187 C188 1.268 . S
C188 O186 1.254 . S
C188 O187 1.268 . S
C189 O194 1.254 . S
C189 O195 1.268 . S
O190 Dy183 2.351 . S
O190 C198 1.249 . S
O191 Dy180 2.326 . S
O191 C198 1.267 . S
O192 C181 1.185 . S
O192 Dy183 2.398 . S
O193 C181 1.355 . S
O193 Dy183 2.491 . S
O194 Dy183 2.403 . S
O194 C189 1.254 . S
O195 Dy180 2.310 . S
O195 Dy183 2.664 . S
O195 C189 1.268 . S
O196 Dy180 2.351 . S
O196 C199 1.249 . S
O197 Dy183 2.326 . S
O197 C199 1.267 . S
C198 O190 1.249 . S
C198 O191 1.267 . S
C199 O196 1.249 . S
C199 O197 1.267 . S
Dy200 O204 2.398 . S
Dy200 O205 2.491 . S
Dy200 O206 2.403 . S
Dy200 O207 2.664 . S
Dy200 O211 2.326 . S
Dy200 O215 2.310 . S
Dy200 O216 2.351 . S
C201 O212 1.185 . S
C201 O213 1.355 . S
C202 O204 1.185 . S
C202 O205 1.355 . S
Dy203 O207 2.310 . S
Dy203 O210 2.351 . S
Dy203 O212 2.398 . S
Dy203 O213 2.491 . S
Dy203 O214 2.403 . S
Dy203 O215 2.664 . S
Dy203 O217 2.326 . S
O204 Dy200 2.398 . S
O204 C202 1.185 . S
O205 Dy200 2.491 . S
O205 C202 1.355 . S
O206 Dy200 2.403 . S
O206 C208 1.254 . S
O207 Dy200 2.664 . S
O207 Dy203 2.310 . S
O207 C208 1.268 . S
C208 O206 1.254 . S
C208 O207 1.268 . S
C209 O214 1.254 . S
C209 O215 1.268 . S
O210 Dy203 2.351 . S
O210 C218 1.249 . S
O211 Dy200 2.326 . S
O211 C218 1.267 . S
O212 C201 1.185 . S
O212 Dy203 2.398 . S
O213 C201 1.355 . S
O213 Dy203 2.491 . S
O214 Dy203 2.403 . S
O214 C209 1.254 . S
O215 Dy200 2.310 . S
O215 Dy203 2.664 . S
O215 C209 1.268 . S
O216 Dy200 2.351 . S
O216 C219 1.249 . S
O217 Dy203 2.326 . S
O217 C219 1.267 . S
C218 O210 1.249 . S
C218 O211 1.267 . S
C219 O216 1.249 . S
C219 O217 1.267 . S
Dy220 O224 2.398 . S
Dy220 O225 2.491 . S
Dy220 O226 2.403 . S
Dy220 O227 2.664 . S
Dy220 O231 2.326 . S
Dy220 O235 2.310 . S
Dy220 O236 2.351 . S
C221 O232 1.185 . S
C221 O233 1.355 . S
C222 O224 1.185 . S
C222 O225 1.355 . S
Dy223 O227 2.310 . S
Dy223 O230 2.351 . S
Dy223 O232 2.398 . S
Dy223 O233 2.491 . S
Dy223 O234 2.403 . S
Dy223 O235 2.664 . S
Dy223 O237 2.326 . S
O224 Dy220 2.398 . S
O224 C222 1.185 . S
O225 Dy220 2.491 . S
O225 C222 1.355 . S
O226 Dy220 2.403 . S
O226 C228 1.254 . S
O227 Dy220 2.664 . S
O227 Dy223 2.310 . S
O227 C228 1.268 . S
C228 O226 1.254 . S
C228 O227 1.268 . S
C229 O234 1.254 . S
C229 O235 1.268 . S
O230 Dy223 2.351 . S
O230 C238 1.249 . S
O231 Dy220 2.326 . S
O231 C238 1.267 . S
O232 C221 1.185 . S
O232 Dy223 2.398 . S
O233 C221 1.355 . S
O233 Dy223 2.491 . S
O234 Dy223 2.403 . S
O234 C229 1.254 . S
O235 Dy220 2.310 . S
O235 Dy223 2.664 . S
O235 C229 1.268 . S
O236 Dy220 2.351 . S
O236 C239 1.249 . S
O237 Dy223 2.326 . S
O237 C239 1.267 . S
C238 O230 1.249 . S
C238 O231 1.267 . S
C239 O236 1.249 . S
C239 O237 1.267 . S
Dy240 O244 2.398 . S
Dy240 O245 2.491 . S
Dy240 O246 2.403 . S
Dy240 O247 2.664 . S
Dy240 O251 2.326 . S
Dy240 O255 2.310 . S
Dy240 O256 2.351 . S
C241 O252 1.185 . S
C241 O253 1.355 . S
C242 O244 1.185 . S
C242 O245 1.355 . S
Dy243 O247 2.310 . S
Dy243 O250 2.351 . S
Dy243 O252 2.398 . S
Dy243 O253 2.491 . S
Dy243 O254 2.403 . S
Dy243 O255 2.664 . S
Dy243 O257 2.326 . S
O244 Dy240 2.398 . S
O244 C242 1.185 . S
O245 Dy240 2.491 . S
O245 C242 1.355 . S
O246 Dy240 2.403 . S
O246 C248 1.254 . S
O247 Dy240 2.664 . S
O247 Dy243 2.310 . S
O247 C248 1.268 . S
C248 O246 1.254 . S
C248 O247 1.268 . S
C249 O254 1.254 . S
C249 O255 1.268 . S
O250 Dy243 2.351 . S
O250 C258 1.249 . S
O251 Dy240 2.326 . S
O251 C258 1.267 . S
O252 C241 1.185 . S
O252 Dy243 2.398 . S
O253 C241 1.355 . S
O253 Dy243 2.491 . S
O254 Dy243 2.403 . S
O254 C249 1.254 . S
O255 Dy240 2.310 . S
O255 Dy243 2.664 . S
O255 C249 1.268 . S
O256 Dy240 2.351 . S
O256 C259 1.249 . S
O257 Dy243 2.326 . S
O257 C259 1.267 . S
C258 O250 1.249 . S
C258 O251 1.267 . S
C259 O256 1.249 . S
C259 O257 1.267 . S
Dy260 O264 2.398 . S
Dy260 O265 2.491 . S
Dy260 O266 2.403 . S
Dy260 O267 2.664 . S
Dy260 O271 2.326 . S
Dy260 O275 2.310 . S
Dy260 O276 2.351 . S
C261 O272 1.185 . S
C261 O273 1.355 . S
C262 O264 1.185 . S
C262 O265 1.355 . S
Dy263 O267 2.310 . S
Dy263 O270 2.351 . S
Dy263 O272 2.398 . S
Dy263 O273 2.491 . S
Dy263 O274 2.403 . S
Dy263 O275 2.664 . S
Dy263 O277 2.326 . S
O264 Dy260 2.398 . S
O264 C262 1.185 . S
O265 Dy260 2.491 . S
O265 C262 1.355 . S
O266 Dy260 2.403 . S
O266 C268 1.254 . S
O267 Dy260 2.664 . S
O267 Dy263 2.310 . S
O267 C268 1.268 . S
C268 O266 1.254 . S
C268 O267 1.268 . S
C269 O274 1.254 . S
C269 O275 1.268 . S
O270 Dy263 2.351 . S
O270 C278 1.249 . S
O271 Dy260 2.326 . S
O271 C278 1.267 . S
O272 C261 1.185 . S
O272 Dy263 2.398 . S
O273 C261 1.355 . S
O273 Dy263 2.491 . S
O274 Dy263 2.403 . S
O274 C269 1.254 . S
O275 Dy260 2.310 . S
O275 Dy263 2.664 . S
O275 C269 1.268 . S
O276 Dy260 2.351 . S
O276 C279 1.249 . S
O277 Dy263 2.326 . S
O277 C279 1.267 . S
C278 O270 1.249 . S
C278 O271 1.267 . S
C279 O276 1.249 . S
C279 O277 1.267 . S
Dy280 O284 2.398 . S
Dy280 O285 2.491 . S
Dy280 O286 2.403 . S
Dy280 O287 2.664 . S
Dy280 O291 2.326 . S
Dy280 O295 2.310 . S
Dy280 O296 2.351 . S
C281 O292 1.185 . S
C281 O293 1.355 . S
C282 O284 1.185 . S
C282 O285 1.355 . S
Dy283 O287 2.310 . S
Dy283 O290 2.351 . S
Dy283 O292 2.398 . S
Dy283 O293 2.491 . S
Dy283 O294 2.403 . S
Dy283 O295 2.664 . S
Dy283 O297 2.326 . S
O284 Dy280 2.398 . S
O284 C282 1.185 . S
O285 Dy280 2.491 . S
O285 C282 1.355 . S
O286 Dy280 2.403 . S
O286 C288 1.254 . S
O287 Dy280 2.664 . S
O287 Dy283 2.310 . S
O287 C288 1.268 . S
C288 O286 1.254 . S
C288 O287 1.268 . S
C289 O294 1.254 . S
C289 O295 1.268 . S
O290 Dy283 2.351 . S
O290 C298 1.249 . S
O291 Dy280 2.326 . S
O291 C298 1.267 . S
O292 C281 1.185 . S
O292 Dy283 2.398 . S
O293 C281 1.355 . S
O293 Dy283 2.491 . S
O294 Dy283 2.403 . S
O294 C289 1.254 . S
O295 Dy280 2.310 . S
O295 Dy283 2.664 . S
O295 C289 1.268 . S
O296 Dy280 2.351 . S
O296 C299 1.249 . S
O297 Dy283 2.326 . S
O297 C299 1.267 . S
C298 O290 1.249 . S
C298 O291 1.267 . S
C299 O296 1.249 . S
C299 O297 1.267 . S
Dy300 O304 2.398 . S
Dy300 O305 2.491 . S
Dy300 O306 2.403 . S
Dy300 O307 2.664 . S
Dy300 O311 2.326 . S
Dy300 O315 2.310 . S
Dy300 O316 2.351 . S
C301 O312 1.185 . S
C301 O313 1.355 . S
C302 O304 1.185 . S
C302 O305 1.355 . S
Dy303 O307 2.310 . S
Dy303 O310 2.351 . S
Dy303 O312 2.398 . S
Dy303 O313 2.491 . S
Dy303 O314 2.403 . S
Dy303 O315 2.664 . S
Dy303 O317 2.326 . S
O304 Dy300 2.398 . S
O304 C302 1.185 . S
O305 Dy300 2.491 . S
O305 C302 1.355 . S
O306 Dy300 2.403 . S
O306 C308 1.254 . S
O307 Dy300 2.664 . S
O307 Dy303 2.310 . S
O307 C308 1.268 . S
C308 O306 1.254 . S
C308 O307 1.268 . S
C309 O314 1.254 . S
C309 O315 1.268 . S
O310 Dy303 2.351 . S
O310 C318 1.249 . S
O311 Dy300 2.326 . S
O311 C318 1.267 . S
O312 C301 1.185 . S
O312 Dy303 2.398 . S
O313 C301 1.355 . S
O313 Dy303 2.491 . S
O314 Dy303 2.403 . S
O314 C309 1.254 . S
O315 Dy300 2.310 . S
O315 Dy303 2.664 . S
O315 C309 1.268 . S
O316 Dy300 2.351 . S
O316 C319 1.249 . S
O317 Dy303 2.326 . S
O317 C319 1.267 . S
C318 O310 1.249 . S
C318 O311 1.267 . S
C319 O316 1.249 . S
C319 O317 1.267 . S
H320 C328 0.929 . S
H321 C330 0.930 . S
H322 C332 0.930 . S
H323 C335 0.929 . S
H324 C338 0.930 . S
H325 C340 0.960 . S
H326 C340 0.960 . S
H327 C340 0.960 . S
C328 H320 0.929 . S
C328 C329 1.377 . S
C328 C330 1.384 . S
C329 C328 1.377 . S
C329 C335 1.390 . S
C330 H321 0.930 . S
C330 C328 1.384 . S
C330 C331 1.372 . S
C331 C330 1.372 . S
C331 C332 1.400 . S
C331 C336 1.490 . S
C332 H322 0.930 . S
C332 C331 1.400 . S
C332 C335 1.386 . S
H333 C349 0.930 . S
H334 C350 0.931 . S
C335 H323 0.929 . S
C335 C329 1.390 . S
C335 C332 1.386 . S
C336 C331 1.490 . S
C336 C338 1.395 . S
C336 C339 1.403 . S
H337 C343 0.930 1_545 S
C338 H324 0.930 . S
C338 C336 1.395 . S
C338 C341 1.403 1_565 S
C339 C336 1.403 . S
C339 C340 1.524 . S
C339 C343 1.400 . S
C340 H325 0.960 . S
C340 H326 0.960 . S
C340 H327 0.960 . S
C340 C339 1.524 . S
C341 C338 1.403 1_545 S
C341 C342 1.392 . S
C341 C345 1.495 . S
C342 C341 1.392 . S
C342 C343 1.385 1_545 S
C342 C344 1.478 . S
C343 H337 0.930 1_565 S
C343 C339 1.400 . S
C343 C342 1.385 1_565 S
C344 C342 1.478 . S
C344 C346 1.381 . S
C344 C350 1.383 . S
C345 C341 1.495 . S
C345 H351 0.959 . S
C345 H352 0.961 . S
C345 H353 0.960 . S
C346 C344 1.381 . S
C346 C347 1.394 . S
C346 H354 0.930 . S
C347 C346 1.394 . S
C347 C348 1.383 . S
C347 H355 0.929 . S
C348 C347 1.383 . S
C348 C349 1.377 . S
C349 H333 0.930 . S
C349 C348 1.377 . S
C349 C350 1.379 . S
C350 H334 0.931 . S
C350 C344 1.383 . S
C350 C349 1.379 . S
H351 C345 0.959 . S
H352 C345 0.961 . S
H353 C345 0.960 . S
H354 C346 0.930 . S
H355 C347 0.929 . S
H356 C364 0.929 . S
H357 C366 0.930 . S
H358 C368 0.930 . S
H359 C371 0.929 . S
H360 C374 0.930 . S
H361 C376 0.960 . S
H362 C376 0.960 . S
H363 C376 0.960 . S
C364 H356 0.929 . S
C364 C365 1.377 . S
C364 C366 1.384 . S
C365 C364 1.377 . S
C365 C371 1.390 . S
C366 H357 0.930 . S
C366 C364 1.384 . S
C366 C367 1.372 . S
C367 C366 1.372 . S
C367 C368 1.400 . S
C367 C372 1.490 . S
C368 H358 0.930 . S
C368 C367 1.400 . S
C368 C371 1.386 . S
H369 C385 0.930 . S
H370 C386 0.931 . S
C371 H359 0.929 . S
C371 C365 1.390 . S
C371 C368 1.386 . S
C372 C367 1.490 . S
C372 C374 1.395 . S
C372 C375 1.403 . S
H373 C379 0.930 . S
C374 H360 0.930 . S
C374 C372 1.395 . S
C374 C377 1.403 . S
C375 C372 1.403 . S
C375 C376 1.524 . S
C375 C379 1.400 1_655 S
C376 H361 0.960 . S
C376 H362 0.960 . S
C376 H363 0.960 . S
C376 C375 1.524 . S
C377 C374 1.403 . S
C377 C378 1.392 1_655 S
C377 C381 1.495 . S
C378 C377 1.392 1_455 S
C378 C379 1.385 . S
C378 C380 1.478 . S
C379 H373 0.930 . S
C379 C375 1.400 1_455 S
C379 C378 1.385 . S
C380 C378 1.478 . S
C380 C382 1.381 . S
C380 C386 1.383 . S
C381 C377 1.495 . S
C381 H387 0.959 . S
C381 H388 0.961 1_655 S
C381 H389 0.960 1_655 S
C382 C380 1.381 . S
C382 C383 1.394 . S
C382 H390 0.930 . S
C383 C382 1.394 . S
C383 C384 1.383 . S
C383 H391 0.929 . S
C384 C383 1.383 . S
C384 C385 1.377 . S
C385 H369 0.930 . S
C385 C384 1.377 . S
C385 C386 1.379 . S
C386 H370 0.931 . S
C386 C380 1.383 . S
C386 C385 1.379 . S
H387 C381 0.959 . S
H388 C381 0.961 1_455 S
H389 C381 0.960 1_455 S
H390 C382 0.930 . S
H391 C383 0.929 . S
H392 C400 0.929 . S
H393 C402 0.930 . S
H394 C404 0.930 . S
H395 C407 0.929 . S
H396 C410 0.930 . S
H397 C412 0.937 1_545 S
H398 C412 0.969 . S
H399 C412 0.981 . S
C400 H392 0.929 . S
C400 C401 1.377 . S
C400 C402 1.384 . S
C401 C400 1.377 . S
C401 C407 1.390 . S
C402 H393 0.930 . S
C402 C400 1.384 . S
C402 C403 1.372 . S
C403 C402 1.372 . S
C403 C404 1.400 . S
C403 C408 1.490 . S
C404 H394 0.930 . S
C404 C403 1.400 . S
C404 C407 1.386 . S
H405 C421 0.930 . S
H406 C422 0.931 . S
C407 H395 0.929 . S
C407 C401 1.390 . S
C407 C404 1.386 . S
C408 C403 1.490 . S
C408 C410 1.395 . S
C408 C411 1.403 1_565 S
H409 C415 0.930 . S
C410 H396 0.930 . S
C410 C408 1.395 . S
C410 C413 1.403 1_565 S
C411 C408 1.403 1_545 S
C411 C412 1.518 1_545 S
C411 C415 1.400 . S
C412 H397 0.937 1_565 S
C412 H398 0.969 . S
C412 H399 0.981 . S
C412 C411 1.518 1_565 S
C413 C410 1.403 1_545 S
C413 C414 1.392 . S
C413 C417 1.495 . S
C414 C413 1.392 . S
C414 C415 1.385 . S
C414 C416 1.478 . S
C415 H409 0.930 . S
C415 C411 1.400 . S
C415 C414 1.385 . S
C416 C414 1.478 . S
C416 C418 1.381 . S
C416 C422 1.383 . S
C417 C413 1.495 . S
C417 H423 0.959 . S
C417 H424 0.961 . S
C417 H425 0.960 . S
C418 C416 1.381 . S
C418 C419 1.394 . S
C418 H426 0.930 . S
C419 C418 1.394 . S
C419 C420 1.383 . S
C419 H427 0.929 . S
C420 C419 1.383 . S
C420 C421 1.377 . S
C421 H405 0.930 . S
C421 C420 1.377 . S
C421 C422 1.379 . S
C422 H406 0.931 . S
C422 C416 1.383 . S
C422 C421 1.379 . S
H423 C417 0.959 . S
H424 C417 0.961 . S
H425 C417 0.960 . S
H426 C418 0.930 . S
H427 C419 0.929 . S
H428 C436 0.929 . S
H429 C438 0.930 . S
H430 C440 0.930 . S
H431 C443 0.929 . S
H432 C446 0.930 . S
H433 C448 0.960 . S
H434 C448 0.960 1_655 S
H435 C448 0.960 1_655 S
C436 H428 0.929 . S
C436 C437 1.377 . S
C436 C438 1.384 . S
C437 C436 1.377 . S
C437 C443 1.390 . S
C438 H429 0.930 . S
C438 C436 1.384 . S
C438 C439 1.372 . S
C439 C438 1.372 . S
C439 C440 1.400 . S
C439 C444 1.490 . S
C440 H430 0.930 . S
C440 C439 1.400 . S
C440 C443 1.386 . S
H441 C457 0.930 . S
H442 C458 0.931 . S
C443 H431 0.929 . S
C443 C437 1.390 . S
C443 C440 1.386 . S
C444 C439 1.490 . S
C444 C446 1.395 . S
C444 C447 1.403 1_655 S
H445 C451 0.930 . S
C446 H432 0.930 . S
C446 C444 1.395 . S
C446 C449 1.403 1_655 S
C447 C444 1.403 1_455 S
C447 C448 1.524 . S
C447 C451 1.400 . S
C448 H433 0.960 . S
C448 H434 0.960 1_455 S
C448 H435 0.960 1_455 S
C448 C447 1.524 . S
C449 C446 1.403 1_455 S
C449 C450 1.392 . S
C449 C453 1.495 . S
C450 C449 1.392 . S
C450 C451 1.385 . S
C450 C452 1.478 . S
C451 H445 0.930 . S
C451 C447 1.400 . S
C451 C450 1.385 . S
C452 C450 1.478 . S
C452 C454 1.381 . S
C452 C458 1.383 . S
C453 C449 1.495 . S
C453 H459 0.959 . S
C453 H460 0.961 . S
C453 H461 0.960 . S
C454 C452 1.381 . S
C454 C455 1.394 . S
C454 H462 0.930 . S
C455 C454 1.394 . S
C455 C456 1.383 . S
C455 H463 0.929 . S
C456 C455 1.383 . S
C456 C457 1.377 . S
C457 H441 0.930 . S
C457 C456 1.377 . S
C457 C458 1.379 . S
C458 H442 0.931 . S
C458 C452 1.383 . S
C458 C457 1.379 . S
H459 C453 0.959 . S
H460 C453 0.961 . S
H461 C453 0.960 . S
H462 C454 0.930 . S
H463 C455 0.929 . S
H464 C472 0.929 . S
H465 C474 0.930 . S
H466 C476 0.930 . S
H467 C479 0.929 . S
H468 C482 0.930 . S
H469 C484 0.960 . S
H470 C484 0.960 . S
H471 C484 0.960 . S
C472 H464 0.929 . S
C472 C473 1.377 . S
C472 C474 1.384 . S
C473 C472 1.377 . S
C473 C479 1.390 . S
C474 H465 0.930 . S
C474 C472 1.384 . S
C474 C475 1.372 . S
C475 C474 1.372 . S
C475 C476 1.400 . S
C475 C480 1.490 . S
C476 H466 0.930 . S
C476 C475 1.400 . S
C476 C479 1.386 . S
H477 C493 0.930 . S
H478 C494 0.931 . S
C479 H467 0.929 . S
C479 C473 1.390 . S
C479 C476 1.386 . S
C480 C475 1.490 . S
C480 C482 1.395 . S
C480 C483 1.403 1_554 S
H481 C487 0.930 . S
C482 H468 0.930 . S
C482 C480 1.395 . S
C482 C485 1.403 . S
C483 C480 1.403 1_556 S
C483 C484 1.524 . S
C483 C487 1.400 . S
C484 H469 0.960 . S
C484 H470 0.960 . S
C484 H471 0.960 . S
C484 C483 1.524 . S
C485 C482 1.403 . S
C485 C486 1.392 . S
C485 C489 1.495 . S
C486 C485 1.392 . S
C486 C487 1.385 1_554 S
C486 C488 1.478 . S
C487 H481 0.930 . S
C487 C483 1.400 . S
C487 C486 1.385 1_556 S
C488 C486 1.478 . S
C488 C490 1.381 1_554 S
C488 C494 1.383 . S
C489 C485 1.495 . S
C489 H495 0.959 . S
C489 H496 0.961 . S
C489 H497 0.960 . S
C490 C488 1.381 1_556 S
C490 C491 1.394 . S
C490 H498 0.930 . S
C491 C490 1.394 . S
C491 C492 1.383 . S
C491 H499 0.929 . S
C492 C491 1.383 . S
C492 C493 1.377 . S
C493 H477 0.930 . S
C493 C492 1.377 . S
C493 C494 1.379 1_556 S
C494 H478 0.931 . S
C494 C488 1.383 . S
C494 C493 1.379 1_554 S
H495 C489 0.959 . S
H496 C489 0.961 . S
H497 C489 0.960 . S
H498 C490 0.930 . S
H499 C491 0.929 . S
H500 C508 0.929 . S
H501 C510 0.930 . S
H502 C512 0.930 . S
H503 C515 0.924 1_556 S
H504 C518 0.930 . S
H505 C520 0.960 . S
H506 C520 0.960 . S
H507 C520 0.960 . S
C508 H500 0.929 . S
C508 C509 1.377 . S
C508 C510 1.384 . S
C509 C508 1.377 . S
C509 C515 1.390 . S
C510 H501 0.930 . S
C510 C508 1.384 . S
C510 C511 1.372 . S
C511 C510 1.372 . S
C511 C512 1.400 1_554 S
C511 C516 1.490 1_554 S
C512 H502 0.930 . S
C512 C511 1.400 1_556 S
C512 C515 1.386 1_556 S
H513 C529 0.930 . S
H514 C530 0.931 . S
C515 H503 0.924 1_554 S
C515 C509 1.390 . S
C515 C512 1.386 1_554 S
C516 C511 1.490 1_556 S
C516 C518 1.395 1_556 S
C516 C519 1.403 . S
H517 C523 0.930 . S
C518 H504 0.930 . S
C518 C516 1.395 1_554 S
C518 C521 1.403 . S
C519 C516 1.403 . S
C519 C520 1.524 . S
C519 C523 1.400 . S
C520 H505 0.960 . S
C520 H506 0.960 . S
C520 H507 0.960 . S
C520 C519 1.524 . S
C521 C518 1.403 . S
C521 C522 1.392 1_554 S
C521 C525 1.495 . S
C522 C521 1.392 1_556 S
C522 C523 1.385 . S
C522 C524 1.478 . S
C523 H517 0.930 . S
C523 C519 1.400 . S
C523 C522 1.385 . S
C524 C522 1.478 . S
C524 C526 1.381 . S
C524 C530 1.383 . S
C525 C521 1.495 . S
C525 H531 0.959 . S
C525 H532 0.961 . S
C525 H533 0.960 . S
C526 C524 1.381 . S
C526 C527 1.394 . S
C526 H534 0.930 . S
C527 C526 1.394 . S
C527 C528 1.383 . S
C527 H535 0.929 . S
C528 C527 1.383 . S
C528 C529 1.377 . S
C529 H513 0.930 . S
C529 C528 1.377 . S
C529 C530 1.379 . S
C530 H514 0.931 . S
C530 C524 1.383 . S
C530 C529 1.379 . S
H531 C525 0.959 . S
H532 C525 0.961 . S
H533 C525 0.960 . S
H534 C526 0.930 . S
H535 C527 0.929 . S
H536 C544 0.929 . S
H537 C546 0.930 . S
H538 C548 0.930 . S
H539 C551 0.929 . S
H540 C554 0.930 . S
H541 C556 0.960 . S
H542 C556 0.960 . S
H543 C556 0.960 . S
C544 H536 0.929 . S
C544 C545 1.377 . S
C544 C546 1.384 . S
C545 C544 1.377 . S
C545 C551 1.390 . S
C546 H537 0.930 . S
C546 C544 1.384 . S
C546 C547 1.372 . S
C547 C546 1.372 . S
C547 C548 1.400 . S
C547 C552 1.490 . S
C548 H538 0.930 . S
C548 C547 1.400 . S
C548 C551 1.386 . S
H549 C565 0.930 . S
H550 C566 0.931 1_554 S
C551 H539 0.929 . S
C551 C545 1.390 . S
C551 C548 1.386 . S
C552 C547 1.490 . S
C552 C554 1.395 1_554 S
C552 C555 1.403 . S
H553 C559 0.930 . S
C554 H540 0.930 . S
C554 C552 1.395 1_556 S
C554 C557 1.403 . S
C555 C552 1.403 . S
C555 C556 1.524 . S
C555 C559 1.400 . S
C556 H541 0.960 . S
C556 H542 0.960 . S
C556 H543 0.960 . S
C556 C555 1.524 . S
C557 C554 1.403 . S
C557 C558 1.392 . S
C557 C561 1.495 . S
C558 C557 1.392 . S
C558 C559 1.385 1_556 S
C558 C560 1.478 . S
C559 H553 0.930 . S
C559 C555 1.400 . S
C559 C558 1.385 1_554 S
C560 C558 1.478 . S
C560 C562 1.381 . S
C560 C566 1.383 . S
C561 C557 1.495 . S
C561 H567 0.959 . S
C561 H568 0.961 . S
C561 H569 0.960 . S
C562 C560 1.381 . S
C562 C563 1.394 . S
C562 H570 0.930 . S
C563 C562 1.394 . S
C563 C564 1.383 . S
C563 H571 0.929 . S
C564 C563 1.383 . S
C564 C565 1.377 . S
C565 H549 0.930 . S
C565 C564 1.377 . S
C565 C566 1.379 . S
C566 H550 0.931 1_556 S
C566 C560 1.383 . S
C566 C565 1.379 . S
H567 C561 0.959 . S
H568 C561 0.961 . S
H569 C561 0.960 . S
H570 C562 0.930 . S
H571 C563 0.929 . S
H572 C580 0.929 . S
H573 C582 0.930 . S
H574 C584 0.930 . S
H575 C587 0.929 . S
H576 C590 0.930 . S
H577 C592 0.960 . S
H578 C592 0.960 . S
H579 C592 0.960 . S
C580 H572 0.929 . S
C580 C581 1.377 . S
C580 C582 1.384 . S
C581 C580 1.377 . S
C581 C587 1.390 1_554 S
C582 H573 0.930 . S
C582 C580 1.384 . S
C582 C583 1.372 . S
C583 C582 1.372 . S
C583 C584 1.400 1_554 S
C583 C588 1.490 1_554 S
C584 H574 0.930 . S
C584 C583 1.400 1_556 S
C584 C587 1.386 . S
H585 C601 0.930 . S
H586 C602 0.931 . S
C587 H575 0.929 . S
C587 C581 1.390 1_556 S
C587 C584 1.386 . S
C588 C583 1.490 1_556 S
C588 C590 1.395 1_556 S
C588 C591 1.403 . S
H589 C595 0.930 . S
C590 H576 0.930 . S
C590 C588 1.395 1_554 S
C590 C593 1.403 . S
C591 C588 1.403 . S
C591 C592 1.524 . S
C591 C595 1.400 . S
C592 H577 0.960 . S
C592 H578 0.960 . S
C592 H579 0.960 . S
C592 C591 1.524 . S
C593 C590 1.403 . S
C593 C594 1.392 1_554 S
C593 C597 1.495 . S
C594 C593 1.392 1_556 S
C594 C595 1.385 . S
C594 C596 1.478 . S
C595 H589 0.930 . S
C595 C591 1.400 . S
C595 C594 1.385 . S
C596 C594 1.478 . S
C596 C598 1.381 . S
C596 C602 1.383 . S
C597 C593 1.495 . S
C597 H603 0.959 . S
C597 H604 0.961 . S
C597 H605 0.960 . S
C598 C596 1.381 . S
C598 C599 1.394 . S
C598 H606 0.930 1_556 S
C599 C598 1.394 . S
C599 C600 1.383 . S
C599 H607 0.929 . S
C600 C599 1.383 . S
C600 C601 1.377 . S
C601 H585 0.930 . S
C601 C600 1.377 . S
C601 C602 1.379 . S
C602 H586 0.931 . S
C602 C596 1.383 . S
C602 C601 1.379 . S
H603 C597 0.959 . S
H604 C597 0.961 . S
H605 C597 0.960 . S
H606 C598 0.930 1_554 S
H607 C599 0.929 . S
H608 C616 0.929 . S
H609 C618 0.930 . S
H610 C620 0.930 . S
H611 C623 0.929 . S
H612 C626 0.930 . S
H613 C628 0.960 . S
H614 C628 0.960 . S
H615 C628 0.960 . S
C616 H608 0.929 . S
C616 C617 1.377 . S
C616 C618 1.384 . S
C617 C616 1.377 . S
C617 C623 1.390 . S
C618 H609 0.930 . S
C618 C616 1.384 . S
C618 C619 1.372 . S
C619 C618 1.372 . S
C619 C620 1.400 . S
C619 C624 1.490 . S
C620 H610 0.930 . S
C620 C619 1.400 . S
C620 C623 1.386 . S
H621 C637 0.930 . S
H622 C638 0.931 . S
C623 H611 0.929 . S
C623 C617 1.390 . S
C623 C620 1.386 . S
C624 C619 1.490 . S
C624 C626 1.395 . S
C624 C627 1.403 . S
H625 C631 0.930 . S
C626 H612 0.930 . S
C626 C624 1.395 . S
C626 C629 1.403 . S
C627 C624 1.403 . S
C627 C628 1.524 . S
C627 C631 1.400 . S
C628 H613 0.960 . S
C628 H614 0.960 . S
C628 H615 0.960 . S
C628 C627 1.524 . S
C629 C626 1.403 . S
C629 C630 1.392 . S
C629 C633 1.495 . S
C630 C629 1.392 . S
C630 C631 1.385 . S
C630 C632 1.478 . S
C631 H625 0.930 . S
C631 C627 1.400 . S
C631 C630 1.385 . S
C632 C630 1.478 . S
C632 C634 1.381 . S
C632 C638 1.383 . S
C633 C629 1.495 . S
C633 H639 0.959 . S
C633 H640 0.961 . S
C633 H641 0.960 . S
C634 C632 1.381 . S
C634 C635 1.394 . S
C634 H642 0.930 . S
C635 C634 1.394 . S
C635 C636 1.383 . S
C635 H643 0.929 . S
C636 C635 1.383 . S
C636 C637 1.377 . S
C637 H621 0.930 . S
C637 C636 1.377 . S
C637 C638 1.379 . S
C638 H622 0.931 . S
C638 C632 1.383 . S
C638 C637 1.379 . S
H639 C633 0.959 . S
H640 C633 0.961 . S
H641 C633 0.960 . S
H642 C634 0.930 . S
H643 C635 0.929 . S
H644 C652 0.929 . S
H645 C654 0.930 . S
H646 C656 0.930 . S
H647 C659 0.929 . S
H648 C662 0.930 . S
H649 C664 0.960 . S
H650 C664 0.960 . S
H651 C664 0.960 . S
C652 H644 0.929 . S
C652 C653 1.377 . S
C652 C654 1.384 . S
C653 C652 1.377 . S
C653 C659 1.390 . S
C654 H645 0.930 . S
C654 C652 1.384 . S
C654 C655 1.372 . S
C655 C654 1.372 . S
C655 C656 1.400 . S
C655 C660 1.490 . S
C656 H646 0.930 . S
C656 C655 1.400 . S
C656 C659 1.386 . S
H657 C673 0.930 . S
H658 C674 0.931 . S
C659 H647 0.929 . S
C659 C653 1.390 . S
C659 C656 1.386 . S
C660 C655 1.490 . S
C660 C662 1.395 . S
C660 C663 1.403 . S
H661 C667 0.930 . S
C662 H648 0.930 . S
C662 C660 1.395 . S
C662 C665 1.403 . S
C663 C660 1.403 . S
C663 C664 1.524 . S
C663 C667 1.400 . S
C664 H649 0.960 . S
C664 H650 0.960 . S
C664 H651 0.960 . S
C664 C663 1.524 . S
C665 C662 1.403 . S
C665 C666 1.392 . S
C665 C669 1.495 . S
C666 C665 1.392 . S
C666 C667 1.385 . S
C666 C668 1.478 . S
C667 H661 0.930 . S
C667 C663 1.400 . S
C667 C666 1.385 . S
C668 C666 1.478 . S
C668 C670 1.381 . S
C668 C674 1.383 . S
C669 C665 1.495 . S
C669 H675 0.959 . S
C669 H676 0.961 . S
C669 H677 0.960 . S
C670 C668 1.381 . S
C670 C671 1.394 . S
C670 H678 0.930 . S
C671 C670 1.394 . S
C671 C672 1.383 . S
C671 H679 0.929 . S
C672 C671 1.383 . S
C672 C673 1.377 . S
C673 H657 0.930 . S
C673 C672 1.377 . S
C673 C674 1.379 . S
C674 H658 0.931 . S
C674 C668 1.383 . S
C674 C673 1.379 . S
H675 C669 0.959 . S
H676 C669 0.961 . S
H677 C669 0.960 . S
H678 C670 0.930 . S
H679 C671 0.929 . S
H680 C688 0.929 . S
H681 C690 0.930 . S
H682 C692 0.930 . S
H683 C695 0.929 . S
H684 C698 0.930 . S
H685 C700 0.960 . S
H686 C700 0.960 . S
H687 C700 0.960 . S
C688 H680 0.929 . S
C688 C689 1.377 . S
C688 C690 1.384 . S
C689 C688 1.377 . S
C689 C695 1.390 . S
C690 H681 0.930 . S
C690 C688 1.384 . S
C690 C691 1.372 . S
C691 C690 1.372 . S
C691 C692 1.400 . S
C691 C696 1.490 . S
C692 H682 0.930 . S
C692 C691 1.400 . S
C692 C695 1.386 . S
H693 C709 0.930 . S
H694 C710 0.931 . S
C695 H683 0.929 . S
C695 C689 1.390 . S
C695 C692 1.386 . S
C696 C691 1.490 . S
C696 C698 1.395 . S
C696 C699 1.403 . S
H697 C703 0.930 . S
C698 H684 0.930 . S
C698 C696 1.395 . S
C698 C701 1.403 . S
C699 C696 1.403 . S
C699 C700 1.524 . S
C699 C703 1.400 . S
C700 H685 0.960 . S
C700 H686 0.960 . S
C700 H687 0.960 . S
C700 C699 1.524 . S
C701 C698 1.403 . S
C701 C702 1.392 . S
C701 C705 1.495 . S
C702 C701 1.392 . S
C702 C703 1.385 . S
C702 C704 1.478 . S
C703 H697 0.930 . S
C703 C699 1.400 . S
C703 C702 1.385 . S
C704 C702 1.478 . S
C704 C706 1.381 . S
C704 C710 1.383 . S
C705 C701 1.495 . S
C705 H711 0.959 . S
C705 H712 0.961 . S
C705 H713 0.960 . S
C706 C704 1.381 . S
C706 C707 1.394 . S
C706 H714 0.930 . S
C707 C706 1.394 . S
C707 C708 1.383 . S
C707 H715 0.929 . S
C708 C707 1.383 . S
C708 C709 1.377 . S
C709 H693 0.930 . S
C709 C708 1.377 . S
C709 C710 1.379 . S
C710 H694 0.931 . S
C710 C704 1.383 . S
C710 C709 1.379 . S
H711 C705 0.959 . S
H712 C705 0.961 . S
H713 C705 0.960 . S
H714 C706 0.930 . S
H715 C707 0.929 . S
H716 C724 0.929 . S
H717 C726 0.930 . S
H718 C728 0.930 . S
H719 C731 0.929 . S
H720 C734 0.930 . S
H721 C736 0.960 . S
H722 C736 0.960 . S
H723 C736 0.960 . S
C724 H716 0.929 . S
C724 C725 1.377 . S
C724 C726 1.384 . S
C725 C724 1.377 . S
C725 C731 1.390 . S
C726 H717 0.930 . S
C726 C724 1.384 . S
C726 C727 1.372 . S
C727 C726 1.372 . S
C727 C728 1.400 . S
C727 C732 1.490 . S
C728 H718 0.930 . S
C728 C727 1.400 . S
C728 C731 1.386 . S
H729 C745 0.930 . S
H730 C746 0.931 . S
C731 H719 0.929 . S
C731 C725 1.390 . S
C731 C728 1.386 . S
C732 C727 1.490 . S
C732 C734 1.395 . S
C732 C735 1.403 . S
H733 C739 0.930 . S
C734 H720 0.930 . S
C734 C732 1.395 . S
C734 C737 1.403 . S
C735 C732 1.403 . S
C735 C736 1.524 . S
C735 C739 1.400 . S
C736 H721 0.960 . S
C736 H722 0.960 . S
C736 H723 0.960 . S
C736 C735 1.524 . S
C737 C734 1.403 . S
C737 C738 1.392 . S
C737 C741 1.495 . S
C738 C737 1.392 . S
C738 C739 1.385 . S
C738 C740 1.478 . S
C739 H733 0.930 . S
C739 C735 1.400 . S
C739 C738 1.385 . S
C740 C738 1.478 . S
C740 C742 1.381 . S
C740 C746 1.383 . S
C741 C737 1.495 . S
C741 H747 0.959 . S
C741 H748 0.961 . S
C741 H749 0.960 . S
C742 C740 1.381 . S
C742 C743 1.394 . S
C742 H750 0.930 . S
C743 C742 1.394 . S
C743 C744 1.383 . S
C743 H751 0.929 . S
C744 C743 1.383 . S
C744 C745 1.377 . S
C745 H729 0.930 . S
C745 C744 1.377 . S
C745 C746 1.379 . S
C746 H730 0.931 . S
C746 C740 1.383 . S
C746 C745 1.379 . S
H747 C741 0.959 . S
H748 C741 0.961 . S
H749 C741 0.960 . S
H750 C742 0.930 . S
H751 C743 0.929 . S
H752 C760 0.929 . S
H753 C762 0.930 . S
H754 C764 0.930 . S
H755 C767 0.929 . S
H756 C770 0.930 . S
H757 C772 0.960 1_545 S
H758 C772 0.960 . S
H759 C772 0.960 . S
C760 H752 0.929 . S
C760 C761 1.377 . S
C760 C762 1.384 . S
C761 C760 1.377 . S
C761 C767 1.390 . S
C762 H753 0.930 . S
C762 C760 1.384 . S
C762 C763 1.372 . S
C763 C762 1.372 . S
C763 C764 1.400 . S
C763 C768 1.490 . S
C764 H754 0.930 . S
C764 C763 1.400 . S
C764 C767 1.386 . S
H765 C781 0.930 . S
H766 C782 0.931 . S
C767 H755 0.929 . S
C767 C761 1.390 . S
C767 C764 1.386 . S
C768 C763 1.490 . S
C768 C770 1.395 . S
C768 C771 1.403 1_565 S
H769 C775 0.930 . S
C770 H756 0.930 . S
C770 C768 1.395 . S
C770 C773 1.403 1_565 S
C771 C768 1.403 1_545 S
C771 C772 1.524 1_545 S
C771 C775 1.400 . S
C772 H757 0.960 1_565 S
C772 H758 0.960 . S
C772 H759 0.960 . S
C772 C771 1.524 1_565 S
C773 C770 1.403 1_545 S
C773 C774 1.392 . S
C773 C777 1.495 . S
C774 C773 1.392 . S
C774 C775 1.385 . S
C774 C776 1.478 . S
C775 H769 0.930 . S
C775 C771 1.400 . S
C775 C774 1.385 . S
C776 C774 1.478 . S
C776 C778 1.381 . S
C776 C782 1.383 . S
C777 C773 1.495 . S
C777 H783 0.959 . S
C777 H784 0.961 . S
C777 H785 0.960 . S
C778 C776 1.381 . S
C778 C779 1.394 . S
C778 H786 0.930 . S
C779 C778 1.394 . S
C779 C780 1.383 . S
C779 H787 0.929 . S
C780 C779 1.383 . S
C780 C781 1.377 . S
C781 H765 0.930 . S
C781 C780 1.377 . S
C781 C782 1.379 . S
C782 H766 0.931 . S
C782 C776 1.383 . S
C782 C781 1.379 . S
H783 C777 0.959 . S
H784 C777 0.961 . S
H785 C777 0.960 . S
H786 C778 0.930 . S
H787 C779 0.929 . S
H788 C796 0.929 . S
H789 C798 0.930 . S
H790 C800 0.930 . S
H791 C803 0.929 . S
H792 C806 0.930 . S
H793 C808 0.960 . S
H794 C808 0.960 . S
H795 C808 0.960 . S
C796 H788 0.929 . S
C796 C797 1.377 . S
C796 C798 1.384 . S
C797 C796 1.377 . S
C797 C803 1.390 . S
C798 H789 0.930 . S
C798 C796 1.384 . S
C798 C799 1.372 . S
C799 C798 1.372 . S
C799 C800 1.400 . S
C799 C804 1.490 . S
C800 H790 0.930 . S
C800 C799 1.400 . S
C800 C803 1.386 . S
H801 C817 0.930 . S
H802 C818 0.931 . S
C803 H791 0.929 . S
C803 C797 1.390 . S
C803 C800 1.386 . S
C804 C799 1.490 . S
C804 C806 1.395 . S
C804 C807 1.403 . S
H805 C811 0.930 1_655 S
C806 H792 0.930 . S
C806 C804 1.395 . S
C806 C809 1.403 1_455 S
C807 C804 1.403 . S
C807 C808 1.524 . S
C807 C811 1.400 . S
C808 H793 0.960 . S
C808 H794 0.960 . S
C808 H795 0.960 . S
C808 C807 1.524 . S
C809 C806 1.403 1_655 S
C809 C810 1.392 . S
C809 C813 1.495 . S
C810 C809 1.392 . S
C810 C811 1.385 1_655 S
C810 C812 1.478 . S
C811 H805 0.930 1_455 S
C811 C807 1.400 . S
C811 C810 1.385 1_455 S
C812 C810 1.478 . S
C812 C814 1.381 . S
C812 C818 1.383 . S
C813 C809 1.495 . S
C813 H819 0.959 . S
C813 H820 0.961 . S
C813 H821 0.960 . S
C814 C812 1.381 . S
C814 C815 1.394 . S
C814 H822 0.930 . S
C815 C814 1.394 . S
C815 C816 1.383 . S
C815 H823 0.929 . S
C816 C815 1.383 . S
C816 C817 1.377 . S
C817 H801 0.930 . S
C817 C816 1.377 . S
C817 C818 1.379 . S
C818 H802 0.931 . S
C818 C812 1.383 . S
C818 C817 1.379 . S
H819 C813 0.959 . S
H820 C813 0.961 . S
H821 C813 0.960 . S
H822 C814 0.930 . S
H823 C815 0.929 . S
H824 C832 0.929 . S
H825 C834 0.930 . S
H826 C836 0.930 . S
H827 C839 0.929 . S
H828 C842 0.930 . S
H829 C844 0.960 . S
H830 C844 0.960 . S
H831 C844 0.960 . S
C832 H824 0.929 . S
C832 C833 1.377 . S
C832 C834 1.384 . S
C833 C832 1.377 . S
C833 C839 1.390 . S
C834 H825 0.930 . S
C834 C832 1.384 . S
C834 C835 1.372 . S
C835 C834 1.372 . S
C835 C836 1.400 . S
C835 C840 1.490 . S
C836 H826 0.930 . S
C836 C835 1.400 . S
C836 C839 1.386 . S
H837 C853 0.930 . S
H838 C854 0.931 . S
C839 H827 0.929 . S
C839 C833 1.390 . S
C839 C836 1.386 . S
C840 C835 1.490 . S
C840 C842 1.395 . S
C840 C843 1.403 . S
H841 C847 0.930 . S
C842 H828 0.930 . S
C842 C840 1.395 . S
C842 C845 1.403 . S
C843 C840 1.403 . S
C843 C844 1.524 . S
C843 C847 1.400 1_565 S
C844 H829 0.960 . S
C844 H830 0.960 . S
C844 H831 0.960 . S
C844 C843 1.524 . S
C845 C842 1.403 . S
C845 C846 1.392 1_565 S
C845 C849 1.498 . S
C846 C845 1.392 1_545 S
C846 C847 1.385 . S
C846 C848 1.478 . S
C847 H841 0.930 . S
C847 C843 1.400 1_545 S
C847 C846 1.385 . S
C848 C846 1.478 . S
C848 C850 1.381 . S
C848 C854 1.383 . S
C849 C845 1.498 . S
C849 H855 0.969 . S
C849 H856 0.957 1_565 S
C849 H857 0.952 1_565 S
C850 C848 1.381 . S
C850 C851 1.394 . S
C850 H858 0.930 . S
C851 C850 1.394 . S
C851 C852 1.383 . S
C851 H859 0.929 . S
C852 C851 1.383 . S
C852 C853 1.377 . S
C853 H837 0.930 . S
C853 C852 1.377 . S
C853 C854 1.379 . S
C854 H838 0.931 . S
C854 C848 1.383 . S
C854 C853 1.379 . S
H855 C849 0.969 . S
H856 C849 0.957 1_545 S
H857 C849 0.952 1_545 S
H858 C850 0.930 . S
H859 C851 0.929 . S
H860 C868 0.929 . S
H861 C870 0.930 . S
H862 C872 0.930 . S
H863 C875 0.929 . S
H864 C878 0.911 1_455 S
H865 C880 0.960 . S
H866 C880 0.960 . S
H867 C880 0.960 . S
C868 H860 0.929 . S
C868 C869 1.377 . S
C868 C870 1.384 . S
C869 C868 1.377 . S
C869 C875 1.390 . S
C870 H861 0.930 . S
C870 C868 1.384 . S
C870 C871 1.372 . S
C871 C870 1.372 . S
C871 C872 1.400 . S
C871 C876 1.490 . S
C872 H862 0.930 . S
C872 C871 1.400 . S
C872 C875 1.386 . S
H873 C889 0.930 . S
H874 C890 0.931 . S
C875 H863 0.929 . S
C875 C869 1.390 . S
C875 C872 1.386 . S
C876 C871 1.490 . S
C876 C878 1.395 1_455 S
C876 C879 1.403 . S
H877 C883 0.930 . S
C878 H864 0.911 1_655 S
C878 C876 1.395 1_655 S
C878 C881 1.403 . S
C879 C876 1.403 . S
C879 C880 1.524 . S
C879 C883 1.400 1_455 S
C880 H865 0.960 . S
C880 H866 0.960 . S
C880 H867 0.960 . S
C880 C879 1.524 . S
C881 C878 1.403 . S
C881 C882 1.392 . S
C881 C885 1.495 . S
C882 C881 1.392 . S
C882 C883 1.385 . S
C882 C884 1.478 . S
C883 H877 0.930 . S
C883 C879 1.400 1_655 S
C883 C882 1.385 . S
C884 C882 1.478 . S
C884 C886 1.381 . S
C884 C890 1.383 . S
C885 C881 1.495 . S
C885 H891 0.959 . S
C885 H892 0.961 . S
C885 H893 0.960 . S
C886 C884 1.381 . S
C886 C887 1.394 . S
C886 H894 0.930 . S
C887 C886 1.394 . S
C887 C888 1.383 . S
C887 H895 0.929 . S
C888 C887 1.383 . S
C888 C889 1.377 . S
C889 H873 0.930 . S
C889 C888 1.377 . S
C889 C890 1.379 . S
C890 H874 0.931 . S
C890 C884 1.383 . S
C890 C889 1.379 . S
H891 C885 0.959 . S
H892 C885 0.961 . S
H893 C885 0.960 . S
H894 C886 0.930 . S
H895 C887 0.929 . S
H896 C904 0.929 . S
H897 C906 0.930 . S
H898 C908 0.930 . S
H899 C911 0.929 . S
H900 C914 0.930 . S
H901 C916 0.960 . S
H902 C916 0.960 . S
H903 C916 0.960 . S
C904 H896 0.929 . S
C904 C905 1.377 . S
C904 C906 1.384 . S
C905 C904 1.377 . S
C905 C911 1.390 . S
C906 H897 0.930 . S
C906 C904 1.384 . S
C906 C907 1.372 . S
C907 C906 1.372 . S
C907 C908 1.400 . S
C907 C912 1.490 . S
C908 H898 0.930 . S
C908 C907 1.400 . S
C908 C911 1.386 . S
H909 C925 0.930 . S
H910 C926 0.931 . S
C911 H899 0.929 . S
C911 C905 1.390 . S
C911 C908 1.386 . S
C912 C907 1.490 . S
C912 C914 1.395 . S
C912 C915 1.403 . S
H913 C919 0.930 . S
C914 H900 0.930 . S
C914 C912 1.395 . S
C914 C917 1.403 . S
C915 C912 1.403 . S
C915 C916 1.524 . S
C915 C919 1.400 . S
C916 H901 0.960 . S
C916 H902 0.960 . S
C916 H903 0.960 . S
C916 C915 1.524 . S
C917 C914 1.403 . S
C917 C918 1.392 . S
C917 C921 1.495 . S
C918 C917 1.392 . S
C918 C919 1.385 . S
C918 C920 1.478 . S
C919 H913 0.930 . S
C919 C915 1.400 . S
C919 C918 1.385 . S
C920 C918 1.478 . S
C920 C922 1.381 . S
C920 C926 1.383 . S
C921 C917 1.495 . S
C921 H927 0.959 . S
C921 H928 0.961 . S
C921 H929 0.960 . S
C922 C920 1.381 . S
C922 C923 1.394 . S
C922 H930 0.930 . S
C923 C922 1.394 . S
C923 C924 1.383 . S
C923 H931 0.929 . S
C924 C923 1.383 . S
C924 C925 1.377 . S
C925 H909 0.930 . S
C925 C924 1.377 . S
C925 C926 1.379 . S
C926 H910 0.931 . S
C926 C920 1.383 . S
C926 C925 1.379 . S
H927 C921 0.959 . S
H928 C921 0.961 . S
H929 C921 0.960 . S
H930 C922 0.930 . S
H931 C923 0.929 . S
H932 C940 0.929 . S
H933 C942 0.930 . S
H934 C944 0.930 . S
H935 C947 0.929 . S
H936 C950 0.930 . S
H937 C952 0.960 1_554 S
H938 C952 0.960 . S
H939 C952 0.960 . S
C940 H932 0.929 . S
C940 C941 1.377 . S
C940 C942 1.384 . S
C941 C940 1.377 . S
C941 C947 1.390 . S
C942 H933 0.930 . S
C942 C940 1.384 . S
C942 C943 1.372 . S
C943 C942 1.372 . S
C943 C944 1.400 . S
C943 C948 1.490 . S
C944 H934 0.930 . S
C944 C943 1.400 . S
C944 C947 1.386 . S
H945 C961 0.930 . S
H946 C962 0.931 . S
C947 H935 0.929 . S
C947 C941 1.390 . S
C947 C944 1.386 . S
C948 C943 1.490 . S
C948 C950 1.395 . S
C948 C951 1.403 . S
H949 C955 0.930 . S
C950 H936 0.930 . S
C950 C948 1.395 . S
C950 C953 1.403 . S
C951 C948 1.403 . S
C951 C952 1.524 . S
C951 C955 1.400 . S
C952 H937 0.960 1_556 S
C952 H938 0.960 . S
C952 H939 0.960 . S
C952 C951 1.524 . S
C953 C950 1.403 . S
C953 C954 1.392 . S
C953 C957 1.495 . S
C954 C953 1.392 . S
C954 C955 1.385 . S
C954 C956 1.478 . S
C955 H949 0.930 . S
C955 C951 1.400 . S
C955 C954 1.385 . S
C956 C954 1.478 . S
C956 C958 1.381 . S
C956 C962 1.383 . S
C957 C953 1.495 . S
C957 H963 0.959 . S
C957 H964 0.961 . S
C957 H965 0.960 . S
C958 C956 1.381 . S
C958 C959 1.394 . S
C958 H966 0.930 . S
C959 C958 1.394 . S
C959 C960 1.383 . S
C959 H967 0.929 . S
C960 C959 1.383 . S
C960 C961 1.377 . S
C961 H945 0.930 . S
C961 C960 1.377 . S
C961 C962 1.379 . S
C962 H946 0.931 . S
C962 C956 1.383 . S
C962 C961 1.379 . S
H963 C957 0.959 . S
H964 C957 0.961 . S
H965 C957 0.960 . S
H966 C958 0.930 . S
H967 C959 0.929 . S
H968 C976 0.929 . S
H969 C978 0.930 . S
H970 C980 0.930 . S
H971 C983 0.929 . S
H972 C986 0.930 . S
H973 C988 0.960 . S
H974 C988 0.960 . S
H975 C988 0.960 . S
C976 H968 0.929 . S
C976 C977 1.377 . S
C976 C978 1.384 . S
C977 C976 1.377 . S
C977 C983 1.390 . S
C978 H969 0.930 . S
C978 C976 1.384 . S
C978 C979 1.372 . S
C979 C978 1.372 . S
C979 C980 1.400 . S
C979 C984 1.490 . S
C980 H970 0.930 . S
C980 C979 1.400 . S
C980 C983 1.386 . S
H981 C997 0.930 . S
H982 C998 0.931 . S
C983 H971 0.929 . S
C983 C977 1.390 . S
C983 C980 1.386 . S
C984 C979 1.490 . S
C984 C986 1.395 . S
C984 C987 1.403 . S
H985 C991 0.930 . S
C986 H972 0.930 . S
C986 C984 1.395 . S
C986 C989 1.403 . S
C987 C984 1.403 . S
C987 C988 1.524 . S
C987 C991 1.400 . S
C988 H973 0.960 . S
C988 H974 0.960 . S
C988 H975 0.960 . S
C988 C987 1.524 . S
C989 C986 1.403 . S
C989 C990 1.392 . S
C989 C993 1.495 . S
C990 C989 1.392 . S
C990 C991 1.385 . S
C990 C992 1.478 . S
C991 H985 0.930 . S
C991 C987 1.400 . S
C991 C990 1.385 . S
C992 C990 1.478 . S
C992 C994 1.381 . S
C992 C998 1.383 . S
C993 C989 1.495 . S
C993 H999 0.959 . S
C993 H1000 0.961 . S
C993 H1001 0.960 . S
C994 C992 1.381 . S
C994 C995 1.394 . S
C994 H1002 0.930 . S
C995 C994 1.394 . S
C995 C996 1.383 . S
C995 H1003 0.929 . S
C996 C995 1.383 . S
C996 C997 1.377 . S
C997 H981 0.930 . S
C997 C996 1.377 . S
C997 C998 1.379 . S
C998 H982 0.931 . S
C998 C992 1.383 . S
C998 C997 1.379 . S
H999 C993 0.959 . S
H1000 C993 0.961 . S
H1001 C993 0.960 . S
H1002 C994 0.930 . S
H1003 C995 0.929 . S
H1004 C1012 0.929 . S
H1005 C1014 0.930 . S
H1006 C1016 0.930 . S
H1007 C1019 0.929 . S
H1008 C1022 0.930 . S
H1009 C1024 0.960 . S
H1010 C1024 0.960 . S
H1011 C1024 0.960 . S
C1012 H1004 0.929 . S
C1012 C1013 1.377 . S
C1012 C1014 1.384 . S
C1013 C1012 1.377 . S
C1013 C1019 1.390 . S
C1014 H1005 0.930 . S
C1014 C1012 1.384 . S
C1014 C1015 1.372 . S
C1015 C1014 1.372 . S
C1015 C1016 1.400 . S
C1015 C1020 1.490 . S
C1016 H1006 0.930 . S
C1016 C1015 1.400 . S
C1016 C1019 1.386 . S
H1017 C1033 0.930 . S
H1018 C1034 0.931 . S
C1019 H1007 0.929 . S
C1019 C1013 1.390 . S
C1019 C1016 1.386 . S
C1020 C1015 1.490 . S
C1020 C1022 1.395 . S
C1020 C1023 1.403 . S
H1021 C1027 0.930 . S
C1022 H1008 0.930 . S
C1022 C1020 1.395 . S
C1022 C1025 1.403 . S
C1023 C1020 1.403 . S
C1023 C1024 1.524 . S
C1023 C1027 1.400 . S
C1024 H1009 0.960 . S
C1024 H1010 0.960 . S
C1024 H1011 0.960 . S
C1024 C1023 1.524 . S
C1025 C1022 1.403 . S
C1025 C1026 1.392 . S
C1025 C1029 1.495 . S
C1026 C1025 1.392 . S
C1026 C1027 1.385 . S
C1026 C1028 1.478 . S
C1027 H1021 0.930 . S
C1027 C1023 1.400 . S
C1027 C1026 1.385 . S
C1028 C1026 1.478 . S
C1028 C1030 1.381 . S
C1028 C1034 1.383 . S
C1029 C1025 1.495 . S
C1029 H1035 0.959 . S
C1029 H1036 0.961 . S
C1029 H1037 0.960 . S
C1030 C1028 1.381 . S
C1030 C1031 1.394 . S
C1030 H1038 0.930 . S
C1031 C1030 1.394 . S
C1031 C1032 1.383 . S
C1031 H1039 0.929 . S
C1032 C1031 1.383 . S
C1032 C1033 1.377 . S
C1033 H1017 0.930 . S
C1033 C1032 1.377 . S
C1033 C1034 1.379 . S
C1034 H1018 0.931 . S
C1034 C1028 1.383 . S
C1034 C1033 1.379 . S
H1035 C1029 0.959 . S
H1036 C1029 0.961 . S
H1037 C1029 0.960 . S
H1038 C1030 0.930 . S
H1039 C1031 0.929 . S
H1040 C1048 0.929 . S
H1041 C1050 0.930 . S
H1042 C1052 0.930 . S
H1043 C1055 0.929 . S
H1044 C1058 0.930 . S
H1045 C1060 0.960 . S
H1046 C1060 0.960 . S
H1047 C1060 0.960 . S
C1048 H1040 0.929 . S
C1048 C1049 1.377 . S
C1048 C1050 1.384 . S
C1049 C1048 1.377 . S
C1049 C1055 1.390 . S
C1050 H1041 0.930 . S
C1050 C1048 1.384 . S
C1050 C1051 1.372 . S
C1051 C1050 1.372 . S
C1051 C1052 1.400 . S
C1051 C1056 1.490 . S
C1052 H1042 0.930 . S
C1052 C1051 1.400 . S
C1052 C1055 1.386 . S
H1053 C1069 0.930 . S
H1054 C1070 0.931 . S
C1055 H1043 0.929 . S
C1055 C1049 1.390 . S
C1055 C1052 1.386 . S
C1056 C1051 1.490 . S
C1056 C1058 1.395 . S
C1056 C1059 1.403 . S
H1057 C1063 0.930 . S
C1058 H1044 0.930 . S
C1058 C1056 1.395 . S
C1058 C1061 1.403 . S
C1059 C1056 1.403 . S
C1059 C1060 1.524 . S
C1059 C1063 1.400 . S
C1060 H1045 0.960 . S
C1060 H1046 0.960 . S
C1060 H1047 0.960 . S
C1060 C1059 1.524 . S
C1061 C1058 1.403 . S
C1061 C1062 1.392 . S
C1061 C1065 1.495 . S
C1062 C1061 1.392 . S
C1062 C1063 1.385 . S
C1062 C1064 1.478 . S
C1063 H1057 0.930 . S
C1063 C1059 1.400 . S
C1063 C1062 1.385 . S
C1064 C1062 1.478 . S
C1064 C1066 1.381 . S
C1064 C1070 1.383 . S
C1065 C1061 1.495 . S
C1065 H1071 0.959 . S
C1065 H1072 0.961 . S
C1065 H1073 0.960 . S
C1066 C1064 1.381 . S
C1066 C1067 1.394 . S
C1066 H1074 0.930 . S
C1067 C1066 1.394 . S
C1067 C1068 1.383 . S
C1067 H1075 0.929 . S
C1068 C1067 1.383 . S
C1068 C1069 1.377 . S
C1069 H1053 0.930 . S
C1069 C1068 1.377 . S
C1069 C1070 1.379 . S
C1070 H1054 0.931 . S
C1070 C1064 1.383 . S
C1070 C1069 1.379 . S
H1071 C1065 0.959 . S
H1072 C1065 0.961 . S
H1073 C1065 0.960 . S
H1074 C1066 0.930 . S
H1075 C1067 0.929 . S
H1076 C1084 0.929 . S
H1077 C1086 0.930 . S
H1078 C1088 0.930 . S
H1079 C1091 0.929 . S
H1080 C1094 0.930 . S
H1081 C1096 0.960 . S
H1082 C1096 0.960 . S
H1083 C1096 0.960 . S
C1084 H1076 0.929 . S
C1084 C1085 1.377 . S
C1084 C1086 1.384 . S
C1085 C1084 1.377 . S
C1085 C1091 1.390 . S
C1086 H1077 0.930 . S
C1086 C1084 1.384 . S
C1086 C1087 1.372 . S
C1087 C1086 1.372 . S
C1087 C1088 1.400 . S
C1087 C1092 1.490 . S
C1088 H1078 0.930 . S
C1088 C1087 1.400 . S
C1088 C1091 1.386 . S
H1089 C1105 0.930 . S
H1090 C1106 0.931 . S
C1091 H1079 0.929 . S
C1091 C1085 1.390 . S
C1091 C1088 1.386 . S
C1092 C1087 1.490 . S
C1092 C1094 1.395 . S
C1092 C1095 1.403 . S
H1093 C1099 0.930 . S
C1094 H1080 0.930 . S
C1094 C1092 1.395 . S
C1094 C1097 1.403 . S
C1095 C1092 1.403 . S
C1095 C1096 1.524 . S
C1095 C1099 1.400 . S
C1096 H1081 0.960 . S
C1096 H1082 0.960 . S
C1096 H1083 0.960 . S
C1096 C1095 1.524 . S
C1097 C1094 1.403 . S
C1097 C1098 1.392 . S
C1097 C1101 1.495 . S
C1098 C1097 1.392 . S
C1098 C1099 1.385 . S
C1098 C1100 1.478 . S
C1099 H1093 0.930 . S
C1099 C1095 1.400 . S
C1099 C1098 1.385 . S
C1100 C1098 1.478 . S
C1100 C1102 1.381 . S
C1100 C1106 1.383 . S
C1101 C1097 1.495 . S
C1101 H1107 0.959 . S
C1101 H1108 0.961 . S
C1101 H1109 0.960 . S
C1102 C1100 1.381 . S
C1102 C1103 1.394 . S
C1102 H1110 0.930 . S
C1103 C1102 1.394 . S
C1103 C1104 1.383 . S
C1103 H1111 0.929 . S
C1104 C1103 1.383 . S
C1104 C1105 1.377 . S
C1105 H1089 0.930 . S
C1105 C1104 1.377 . S
C1105 C1106 1.379 . S
C1106 H1090 0.931 . S
C1106 C1100 1.383 . S
C1106 C1105 1.379 . S
H1107 C1101 0.959 . S
H1108 C1101 0.961 . S
H1109 C1101 0.960 . S
H1110 C1102 0.930 . S
H1111 C1103 0.929 . S
H1112 C1120 0.929 . S
H1113 C1122 0.930 . S
H1114 C1124 0.930 . S
H1115 C1127 0.929 . S
H1116 C1130 0.930 . S
H1117 C1132 0.960 . S
H1118 C1132 0.960 . S
H1119 C1132 0.960 . S
C1120 H1112 0.929 . S
C1120 C1121 1.377 . S
C1120 C1122 1.384 . S
C1121 C1120 1.377 . S
C1121 C1127 1.390 . S
C1122 H1113 0.930 . S
C1122 C1120 1.384 . S
C1122 C1123 1.372 . S
C1123 C1122 1.372 . S
C1123 C1124 1.400 . S
C1123 C1128 1.490 . S
C1124 H1114 0.930 . S
C1124 C1123 1.400 . S
C1124 C1127 1.386 . S
H1125 C1141 0.930 . S
H1126 C1142 0.931 . S
C1127 H1115 0.929 . S
C1127 C1121 1.390 . S
C1127 C1124 1.386 . S
C1128 C1123 1.490 . S
C1128 C1130 1.395 . S
C1128 C1131 1.403 . S
H1129 C1135 0.930 . S
C1130 H1116 0.930 . S
C1130 C1128 1.395 . S
C1130 C1133 1.403 . S
C1131 C1128 1.403 . S
C1131 C1132 1.524 . S
C1131 C1135 1.400 . S
C1132 H1117 0.960 . S
C1132 H1118 0.960 . S
C1132 H1119 0.960 . S
C1132 C1131 1.524 . S
C1133 C1130 1.403 . S
C1133 C1134 1.392 . S
C1133 C1137 1.495 . S
C1134 C1133 1.392 . S
C1134 C1135 1.385 . S
C1134 C1136 1.478 . S
C1135 H1129 0.930 . S
C1135 C1131 1.400 . S
C1135 C1134 1.385 . S
C1136 C1134 1.478 . S
C1136 C1138 1.381 . S
C1136 C1142 1.383 . S
C1137 C1133 1.495 . S
C1137 H1143 0.959 . S
C1137 H1144 0.961 . S
C1137 H1145 0.960 . S
C1138 C1136 1.381 . S
C1138 C1139 1.394 . S
C1138 H1146 0.930 . S
C1139 C1138 1.394 . S
C1139 C1140 1.383 . S
C1139 H1147 0.929 . S
C1140 C1139 1.383 . S
C1140 C1141 1.377 . S
C1141 H1125 0.930 . S
C1141 C1140 1.377 . S
C1141 C1142 1.379 . S
C1142 H1126 0.931 . S
C1142 C1136 1.383 . S
C1142 C1141 1.379 . S
H1143 C1137 0.959 . S
H1144 C1137 0.961 . S
H1145 C1137 0.960 . S
H1146 C1138 0.930 . S
H1147 C1139 0.929 . S
H1148 C1156 0.929 . S
H1149 C1158 0.930 . S
H1150 C1160 0.930 . S
H1151 C1163 0.929 . S
H1152 C1166 0.930 . S
H1153 C1168 0.960 . S
H1154 C1168 0.960 . S
H1155 C1168 0.960 . S
C1156 H1148 0.929 . S
C1156 C1157 1.377 . S
C1156 C1158 1.384 . S
C1157 C1156 1.377 . S
C1157 C1163 1.390 . S
C1158 H1149 0.930 . S
C1158 C1156 1.384 . S
C1158 C1159 1.372 . S
C1159 C1158 1.372 . S
C1159 C1160 1.400 . S
C1159 C1164 1.490 . S
C1160 H1150 0.930 . S
C1160 C1159 1.400 . S
C1160 C1163 1.386 . S
H1161 C1177 0.930 . S
H1162 C1178 0.931 . S
C1163 H1151 0.929 . S
C1163 C1157 1.390 . S
C1163 C1160 1.386 . S
C1164 C1159 1.490 . S
C1164 C1166 1.395 . S
C1164 C1167 1.403 . S
H1165 C1171 0.930 . S
C1166 H1152 0.930 . S
C1166 C1164 1.395 . S
C1166 C1169 1.403 . S
C1167 C1164 1.403 . S
C1167 C1168 1.524 . S
C1167 C1171 1.400 . S
C1168 H1153 0.960 . S
C1168 H1154 0.960 . S
C1168 H1155 0.960 . S
C1168 C1167 1.524 . S
C1169 C1166 1.403 . S
C1169 C1170 1.392 . S
C1169 C1173 1.495 . S
C1170 C1169 1.392 . S
C1170 C1171 1.385 . S
C1170 C1172 1.478 . S
C1171 H1165 0.930 . S
C1171 C1167 1.400 . S
C1171 C1170 1.385 . S
C1172 C1170 1.478 . S
C1172 C1174 1.381 . S
C1172 C1178 1.383 . S
C1173 C1169 1.495 . S
C1173 H1179 0.959 . S
C1173 H1180 0.961 . S
C1173 H1181 0.960 . S
C1174 C1172 1.381 . S
C1174 C1175 1.394 . S
C1174 H1182 0.930 . S
C1175 C1174 1.394 . S
C1175 C1176 1.383 . S
C1175 H1183 0.929 . S
C1176 C1175 1.383 . S
C1176 C1177 1.377 . S
C1177 H1161 0.930 . S
C1177 C1176 1.377 . S
C1177 C1178 1.379 . S
C1178 H1162 0.931 . S
C1178 C1172 1.383 . S
C1178 C1177 1.379 . S
H1179 C1173 0.959 . S
H1180 C1173 0.961 . S
H1181 C1173 0.960 . S
H1182 C1174 0.930 . S
H1183 C1175 0.929 . S
H1184 C1192 0.929 . S
H1185 C1194 0.930 . S
H1186 C1196 0.930 . S
H1187 C1199 0.929 . S
H1188 C1202 0.930 . S
H1189 C1204 0.960 . S
H1190 C1204 0.960 . S
H1191 C1204 0.960 . S
C1192 H1184 0.929 . S
C1192 C1193 1.377 . S
C1192 C1194 1.384 . S
C1193 C1192 1.377 . S
C1193 C1199 1.390 . S
C1194 H1185 0.930 . S
C1194 C1192 1.384 . S
C1194 C1195 1.372 . S
C1195 C1194 1.372 . S
C1195 C1196 1.400 . S
C1195 C1200 1.490 . S
C1196 H1186 0.930 . S
C1196 C1195 1.400 . S
C1196 C1199 1.386 . S
H1197 C1213 0.930 . S
H1198 C1214 0.931 . S
C1199 H1187 0.929 . S
C1199 C1193 1.390 . S
C1199 C1196 1.386 . S
C1200 C1195 1.490 . S
C1200 C1202 1.395 . S
C1200 C1203 1.403 . S
H1201 C1207 0.930 . S
C1202 H1188 0.930 . S
C1202 C1200 1.395 . S
C1202 C1205 1.403 . S
C1203 C1200 1.403 . S
C1203 C1204 1.524 . S
C1203 C1207 1.400 . S
C1204 H1189 0.960 . S
C1204 H1190 0.960 . S
C1204 H1191 0.960 . S
C1204 C1203 1.524 . S
C1205 C1202 1.403 . S
C1205 C1206 1.392 . S
C1205 C1209 1.495 1_556 S
C1206 C1205 1.392 . S
C1206 C1207 1.385 . S
C1206 C1208 1.478 . S
C1207 H1201 0.930 . S
C1207 C1203 1.400 . S
C1207 C1206 1.385 . S
C1208 C1206 1.478 . S
C1208 C1210 1.381 1_556 S
C1208 C1214 1.383 . S
C1209 C1205 1.495 1_554 S
C1209 H1215 0.959 . S
C1209 H1216 0.961 . S
C1209 H1217 0.960 . S
C1210 C1208 1.381 1_554 S
C1210 C1211 1.394 . S
C1210 H1218 0.930 . S
C1211 C1210 1.394 . S
C1211 C1212 1.383 . S
C1211 H1219 0.929 . S
C1212 C1211 1.383 . S
C1212 C1213 1.377 1_554 S
C1213 H1197 0.930 . S
C1213 C1212 1.377 1_556 S
C1213 C1214 1.379 . S
C1214 H1198 0.931 . S
C1214 C1208 1.383 . S
C1214 C1213 1.379 . S
H1215 C1209 0.959 . S
H1216 C1209 0.961 . S
H1217 C1209 0.960 . S
H1218 C1210 0.930 . S
H1219 C1211 0.929 . S
H1220 C1228 0.929 . S
H1221 C1230 0.930 . S
H1222 C1232 0.930 . S
H1223 C1235 0.929 . S
H1224 C1238 0.930 . S
H1225 C1240 0.960 . S
H1226 C1240 0.960 . S
H1227 C1240 0.960 1_556 S
C1228 H1220 0.929 . S
C1228 C1229 1.377 1_554 S
C1228 C1230 1.384 . S
C1229 C1228 1.377 1_556 S
C1229 C1235 1.390 . S
C1230 H1221 0.930 . S
C1230 C1228 1.384 . S
C1230 C1231 1.372 . S
C1231 C1230 1.372 . S
C1231 C1232 1.400 1_554 S
C1231 C1236 1.490 . S
C1232 H1222 0.930 . S
C1232 C1231 1.400 1_556 S
C1232 C1235 1.386 . S
H1233 C1249 0.930 . S
H1234 C1250 0.931 . S
C1235 H1223 0.929 . S
C1235 C1229 1.390 . S
C1235 C1232 1.386 . S
C1236 C1231 1.490 . S
C1236 C1238 1.395 . S
C1236 C1239 1.403 . S
H1237 C1243 0.930 . S
C1238 H1224 0.930 . S
C1238 C1236 1.395 . S
C1238 C1241 1.403 . S
C1239 C1236 1.403 . S
C1239 C1240 1.524 . S
C1239 C1243 1.400 . S
C1240 H1225 0.960 . S
C1240 H1226 0.960 . S
C1240 H1227 0.960 1_554 S
C1240 C1239 1.524 . S
C1241 C1238 1.403 . S
C1241 C1242 1.392 . S
C1241 C1245 1.495 . S
C1242 C1241 1.392 . S
C1242 C1243 1.385 . S
C1242 C1244 1.478 . S
C1243 H1237 0.930 . S
C1243 C1239 1.400 . S
C1243 C1242 1.385 . S
C1244 C1242 1.478 . S
C1244 C1246 1.381 . S
C1244 C1250 1.383 . S
C1245 C1241 1.495 . S
C1245 H1251 0.959 . S
C1245 H1252 0.961 . S
C1245 H1253 0.960 . S
C1246 C1244 1.381 . S
C1246 C1247 1.394 . S
C1246 H1254 0.930 . S
C1247 C1246 1.394 . S
C1247 C1248 1.383 . S
C1247 H1255 0.929 . S
C1248 C1247 1.383 . S
C1248 C1249 1.377 . S
C1249 H1233 0.930 . S
C1249 C1248 1.377 . S
C1249 C1250 1.379 . S
C1250 H1234 0.931 . S
C1250 C1244 1.383 . S
C1250 C1249 1.379 . S
H1251 C1245 0.959 . S
H1252 C1245 0.961 . S
H1253 C1245 0.960 . S
H1254 C1246 0.930 . S
H1255 C1247 0.929 . S
H1256 C1264 0.929 . S
H1257 C1266 0.930 . S
H1258 C1268 0.930 . S
H1259 C1271 0.929 . S
H1260 C1274 0.930 . S
H1261 C1276 0.960 . S
H1262 C1276 0.960 1_554 S
H1263 C1276 0.960 1_554 S
C1264 H1256 0.929 . S
C1264 C1265 1.377 1_556 S
C1264 C1266 1.384 . S
C1265 C1264 1.377 1_554 S
C1265 C1271 1.390 . S
C1266 H1257 0.930 . S
C1266 C1264 1.384 . S
C1266 C1267 1.372 . S
C1267 C1266 1.372 . S
C1267 C1268 1.400 . S
C1267 C1272 1.490 . S
C1268 H1258 0.930 . S
C1268 C1267 1.400 . S
C1268 C1271 1.386 1_556 S
H1269 C1285 0.930 . S
H1270 C1286 0.931 . S
C1271 H1259 0.929 . S
C1271 C1265 1.390 . S
C1271 C1268 1.386 1_554 S
C1272 C1267 1.490 . S
C1272 C1274 1.395 . S
C1272 C1275 1.403 . S
H1273 C1279 0.930 . S
C1274 H1260 0.930 . S
C1274 C1272 1.395 . S
C1274 C1277 1.403 . S
C1275 C1272 1.403 . S
C1275 C1276 1.524 . S
C1275 C1279 1.400 . S
C1276 H1261 0.960 . S
C1276 H1262 0.960 1_556 S
C1276 H1263 0.960 1_556 S
C1276 C1275 1.524 . S
C1277 C1274 1.403 . S
C1277 C1278 1.392 . S
C1277 C1281 1.495 . S
C1278 C1277 1.392 . S
C1278 C1279 1.385 . S
C1278 C1280 1.478 . S
C1279 H1273 0.930 . S
C1279 C1275 1.400 . S
C1279 C1278 1.385 . S
C1280 C1278 1.478 . S
C1280 C1282 1.381 . S
C1280 C1286 1.383 . S
C1281 C1277 1.495 . S
C1281 H1287 0.959 . S
C1281 H1288 0.961 . S
C1281 H1289 0.960 . S
C1282 C1280 1.381 . S
C1282 C1283 1.394 . S
C1282 H1290 0.930 . S
C1283 C1282 1.394 . S
C1283 C1284 1.383 . S
C1283 H1291 0.929 . S
C1284 C1283 1.383 . S
C1284 C1285 1.377 . S
C1285 H1269 0.930 . S
C1285 C1284 1.377 . S
C1285 C1286 1.379 . S
C1286 H1270 0.931 . S
C1286 C1280 1.383 . S
C1286 C1285 1.379 . S
H1287 C1281 0.959 . S
H1288 C1281 0.961 . S
H1289 C1281 0.960 . S
H1290 C1282 0.930 . S
H1291 C1283 0.929 . S
H1292 C1300 0.929 . S
H1293 C1302 0.930 . S
H1294 C1304 0.930 . S
H1295 C1307 0.929 . S
H1296 C1310 0.930 . S
H1297 C1312 0.960 . S
H1298 C1312 0.960 . S
H1299 C1312 0.960 . S
C1300 H1292 0.929 . S
C1300 C1301 1.377 . S
C1300 C1302 1.384 1_556 S
C1301 C1300 1.377 . S
C1301 C1307 1.390 . S
C1302 H1293 0.930 . S
C1302 C1300 1.384 1_554 S
C1302 C1303 1.372 . S
C1303 C1302 1.372 . S
C1303 C1304 1.400 . S
C1303 C1308 1.490 . S
C1304 H1294 0.930 . S
C1304 C1303 1.400 . S
C1304 C1307 1.386 1_554 S
H1305 C1321 0.930 . S
H1306 C1322 0.931 . S
C1307 H1295 0.929 . S
C1307 C1301 1.390 . S
C1307 C1304 1.386 1_556 S
C1308 C1303 1.490 . S
C1308 C1310 1.395 . S
C1308 C1311 1.403 . S
H1309 C1315 0.930 . S
C1310 H1296 0.930 . S
C1310 C1308 1.395 . S
C1310 C1313 1.403 . S
C1311 C1308 1.403 . S
C1311 C1312 1.524 . S
C1311 C1315 1.400 . S
C1312 H1297 0.960 . S
C1312 H1298 0.960 . S
C1312 H1299 0.960 . S
C1312 C1311 1.524 . S
C1313 C1310 1.403 . S
C1313 C1314 1.392 . S
C1313 C1317 1.495 . S
C1314 C1313 1.392 . S
C1314 C1315 1.385 . S
C1314 C1316 1.478 . S
C1315 H1309 0.930 . S
C1315 C1311 1.400 . S
C1315 C1314 1.385 . S
C1316 C1314 1.478 . S
C1316 C1318 1.381 . S
C1316 C1322 1.383 . S
C1317 C1313 1.495 . S
C1317 H1323 0.959 . S
C1317 H1324 0.961 . S
C1317 H1325 0.960 . S
C1318 C1316 1.381 . S
C1318 C1319 1.394 . S
C1318 H1326 0.930 . S
C1319 C1318 1.394 . S
C1319 C1320 1.383 . S
C1319 H1327 0.929 . S
C1320 C1319 1.383 . S
C1320 C1321 1.377 . S
C1321 H1305 0.930 . S
C1321 C1320 1.377 . S
C1321 C1322 1.379 . S
C1322 H1306 0.931 . S
C1322 C1316 1.383 . S
C1322 C1321 1.379 . S
H1323 C1317 0.959 . S
H1324 C1317 0.961 . S
H1325 C1317 0.960 . S
H1326 C1318 0.930 . S
H1327 C1319 0.929 . S
H1328 C1336 0.929 . S
H1329 C1338 0.930 . S
H1330 C1340 0.930 . S
H1331 C1343 0.929 . S
H1332 C1346 0.930 . S
H1333 C1348 0.960 . S
H1334 C1348 0.960 . S
H1335 C1348 0.960 . S
C1336 H1328 0.929 . S
C1336 C1337 1.377 . S
C1336 C1338 1.384 . S
C1337 C1336 1.377 . S
C1337 C1343 1.390 . S
C1338 H1329 0.930 . S
C1338 C1336 1.384 . S
C1338 C1339 1.372 . S
C1339 C1338 1.372 . S
C1339 C1340 1.400 . S
C1339 C1344 1.490 . S
C1340 H1330 0.930 . S
C1340 C1339 1.400 . S
C1340 C1343 1.386 . S
H1341 C1357 0.930 . S
H1342 C1358 0.931 . S
C1343 H1331 0.929 . S
C1343 C1337 1.390 . S
C1343 C1340 1.386 . S
C1344 C1339 1.490 . S
C1344 C1346 1.395 . S
C1344 C1347 1.403 . S
H1345 C1351 0.930 . S
C1346 H1332 0.930 . S
C1346 C1344 1.395 . S
C1346 C1349 1.403 . S
C1347 C1344 1.403 . S
C1347 C1348 1.524 . S
C1347 C1351 1.400 . S
C1348 H1333 0.960 . S
C1348 H1334 0.960 . S
C1348 H1335 0.960 . S
C1348 C1347 1.524 . S
C1349 C1346 1.403 . S
C1349 C1350 1.392 . S
C1349 C1353 1.495 . S
C1350 C1349 1.392 . S
C1350 C1351 1.385 . S
C1350 C1352 1.478 . S
C1351 H1345 0.930 . S
C1351 C1347 1.400 . S
C1351 C1350 1.385 . S
C1352 C1350 1.478 . S
C1352 C1354 1.381 . S
C1352 C1358 1.383 . S
C1353 C1349 1.495 . S
C1353 H1359 0.959 . S
C1353 H1360 0.961 . S
C1353 H1361 0.960 . S
C1354 C1352 1.381 . S
C1354 C1355 1.394 . S
C1354 H1362 0.930 . S
C1355 C1354 1.394 . S
C1355 C1356 1.383 . S
C1355 H1363 0.929 . S
C1356 C1355 1.383 . S
C1356 C1357 1.377 . S
C1357 H1341 0.930 . S
C1357 C1356 1.377 . S
C1357 C1358 1.379 . S
C1358 H1342 0.931 . S
C1358 C1352 1.383 . S
C1358 C1357 1.379 . S
H1359 C1353 0.959 . S
H1360 C1353 0.961 . S
H1361 C1353 0.960 . S
H1362 C1354 0.930 . S
H1363 C1355 0.929 . S
H1364 C1372 0.929 . S
H1365 C1374 0.930 . S
H1366 C1376 0.930 . S
H1367 C1379 0.929 . S
H1368 C1382 0.930 . S
H1369 C1384 0.960 . S
H1370 C1384 0.960 . S
H1371 C1384 0.960 . S
C1372 H1364 0.929 . S
C1372 C1373 1.377 . S
C1372 C1374 1.384 . S
C1373 C1372 1.377 . S
C1373 C1379 1.390 . S
C1374 H1365 0.930 . S
C1374 C1372 1.384 . S
C1374 C1375 1.372 . S
C1375 C1374 1.372 . S
C1375 C1376 1.400 . S
C1375 C1380 1.490 . S
C1376 H1366 0.930 . S
C1376 C1375 1.400 . S
C1376 C1379 1.386 . S
H1377 C1393 0.930 . S
H1378 C1394 0.931 . S
C1379 H1367 0.929 . S
C1379 C1373 1.390 . S
C1379 C1376 1.386 . S
C1380 C1375 1.490 . S
C1380 C1382 1.395 . S
C1380 C1383 1.403 . S
H1381 C1387 0.930 . S
C1382 H1368 0.930 . S
C1382 C1380 1.395 . S
C1382 C1385 1.403 . S
C1383 C1380 1.403 . S
C1383 C1384 1.524 . S
C1383 C1387 1.400 . S
C1384 H1369 0.960 . S
C1384 H1370 0.960 . S
C1384 H1371 0.960 . S
C1384 C1383 1.524 . S
C1385 C1382 1.403 . S
C1385 C1386 1.392 . S
C1385 C1389 1.495 . S
C1386 C1385 1.392 . S
C1386 C1387 1.385 . S
C1386 C1388 1.478 . S
C1387 H1381 0.930 . S
C1387 C1383 1.400 . S
C1387 C1386 1.385 . S
C1388 C1386 1.478 . S
C1388 C1390 1.381 . S
C1388 C1394 1.383 . S
C1389 C1385 1.495 . S
C1389 H1395 0.959 . S
C1389 H1396 0.961 . S
C1389 H1397 0.960 . S
C1390 C1388 1.381 . S
C1390 C1391 1.394 . S
C1390 H1398 0.930 . S
C1391 C1390 1.394 . S
C1391 C1392 1.383 . S
C1391 H1399 0.929 . S
C1392 C1391 1.383 . S
C1392 C1393 1.377 . S
C1393 H1377 0.930 . S
C1393 C1392 1.377 . S
C1393 C1394 1.379 . S
C1394 H1378 0.931 . S
C1394 C1388 1.383 . S
C1394 C1393 1.379 . S
H1395 C1389 0.959 . S
H1396 C1389 0.961 . S
H1397 C1389 0.960 . S
H1398 C1390 0.930 . S
H1399 C1391 0.929 . S
H1400 C1408 0.929 . S
H1401 C1410 0.930 . S
H1402 C1412 0.930 . S
H1403 C1415 0.929 . S
H1404 C1418 0.930 . S
H1405 C1420 0.960 . S
H1406 C1420 0.960 . S
H1407 C1420 0.960 . S
C1408 H1400 0.929 . S
C1408 C1409 1.377 . S
C1408 C1410 1.384 . S
C1409 C1408 1.377 . S
C1409 C1415 1.390 . S
C1410 H1401 0.930 . S
C1410 C1408 1.384 . S
C1410 C1411 1.372 . S
C1411 C1410 1.372 . S
C1411 C1412 1.400 . S
C1411 C1416 1.490 . S
C1412 H1402 0.930 . S
C1412 C1411 1.400 . S
C1412 C1415 1.386 . S
H1413 C1429 0.930 . S
H1414 C1430 0.931 . S
C1415 H1403 0.929 . S
C1415 C1409 1.390 . S
C1415 C1412 1.386 . S
C1416 C1411 1.490 . S
C1416 C1418 1.395 . S
C1416 C1419 1.403 . S
H1417 C1423 0.930 . S
C1418 H1404 0.930 . S
C1418 C1416 1.395 . S
C1418 C1421 1.403 . S
C1419 C1416 1.403 . S
C1419 C1420 1.524 . S
C1419 C1423 1.400 . S
C1420 H1405 0.960 . S
C1420 H1406 0.960 . S
C1420 H1407 0.960 . S
C1420 C1419 1.524 . S
C1421 C1418 1.403 . S
C1421 C1422 1.392 . S
C1421 C1425 1.495 . S
C1422 C1421 1.392 . S
C1422 C1423 1.385 . S
C1422 C1424 1.478 . S
C1423 H1417 0.930 . S
C1423 C1419 1.400 . S
C1423 C1422 1.385 . S
C1424 C1422 1.478 . S
C1424 C1426 1.381 . S
C1424 C1430 1.383 . S
C1425 C1421 1.495 . S
C1425 H1431 0.959 . S
C1425 H1432 0.961 . S
C1425 H1433 0.960 . S
C1426 C1424 1.381 . S
C1426 C1427 1.394 . S
C1426 H1434 0.930 . S
C1427 C1426 1.394 . S
C1427 C1428 1.383 . S
C1427 H1435 0.929 . S
C1428 C1427 1.383 . S
C1428 C1429 1.377 . S
C1429 H1413 0.930 . S
C1429 C1428 1.377 . S
C1429 C1430 1.379 . S
C1430 H1414 0.931 . S
C1430 C1424 1.383 . S
C1430 C1429 1.379 . S
H1431 C1425 0.959 . S
H1432 C1425 0.961 . S
H1433 C1425 0.960 . S
H1434 C1426 0.930 . S
H1435 C1427 0.929 . S
H1436 C1444 0.929 . S
H1437 C1446 0.930 . S
H1438 C1448 0.930 . S
H1439 C1451 0.929 . S
H1440 C1454 0.930 . S
H1441 C1456 0.960 . S
H1442 C1456 0.960 . S
H1443 C1456 0.960 . S
C1444 H1436 0.929 . S
C1444 C1445 1.377 . S
C1444 C1446 1.384 . S
C1445 C1444 1.377 . S
C1445 C1451 1.390 . S
C1446 H1437 0.930 . S
C1446 C1444 1.384 . S
C1446 C1447 1.372 . S
C1447 C1446 1.372 . S
C1447 C1448 1.400 . S
C1447 C1452 1.490 . S
C1448 H1438 0.930 . S
C1448 C1447 1.400 . S
C1448 C1451 1.386 . S
H1449 C1465 0.930 . S
H1450 C1466 0.931 . S
C1451 H1439 0.929 . S
C1451 C1445 1.390 . S
C1451 C1448 1.386 . S
C1452 C1447 1.490 . S
C1452 C1454 1.395 . S
C1452 C1455 1.403 . S
H1453 C1459 0.930 . S
C1454 H1440 0.930 . S
C1454 C1452 1.395 . S
C1454 C1457 1.403 . S
C1455 C1452 1.403 . S
C1455 C1456 1.524 . S
C1455 C1459 1.400 . S
C1456 H1441 0.960 . S
C1456 H1442 0.960 . S
C1456 H1443 0.960 . S
C1456 C1455 1.524 . S
C1457 C1454 1.403 . S
C1457 C1458 1.392 . S
C1457 C1461 1.495 . S
C1458 C1457 1.392 . S
C1458 C1459 1.385 . S
C1458 C1460 1.478 . S
C1459 H1453 0.930 . S
C1459 C1455 1.400 . S
C1459 C1458 1.385 . S
C1460 C1458 1.478 . S
C1460 C1462 1.381 . S
C1460 C1466 1.383 . S
C1461 C1457 1.495 . S
C1461 H1467 0.959 . S
C1461 H1468 0.961 . S
C1461 H1469 0.960 . S
C1462 C1460 1.381 . S
C1462 C1463 1.394 . S
C1462 H1470 0.930 . S
C1463 C1462 1.394 . S
C1463 C1464 1.383 . S
C1463 H1471 0.929 . S
C1464 C1463 1.383 . S
C1464 C1465 1.377 . S
C1465 H1449 0.930 . S
C1465 C1464 1.377 . S
C1465 C1466 1.379 . S
C1466 H1450 0.931 . S
C1466 C1460 1.383 . S
C1466 C1465 1.379 . S
H1467 C1461 0.959 . S
H1468 C1461 0.961 . S
H1469 C1461 0.960 . S
H1470 C1462 0.930 . S
H1471 C1463 0.929 . S
H1472 C1480 0.929 . S
H1473 C1482 0.930 . S
H1474 C1484 0.930 . S
H1475 C1487 0.929 . S
H1476 C1490 0.930 . S
H1477 C1492 0.960 . S
H1478 C1492 0.960 . S
H1479 C1492 0.960 . S
C1480 H1472 0.929 . S
C1480 C1481 1.377 . S
C1480 C1482 1.384 . S
C1481 C1480 1.377 . S
C1481 C1487 1.390 . S
C1482 H1473 0.930 . S
C1482 C1480 1.384 . S
C1482 C1483 1.372 . S
C1483 C1482 1.372 . S
C1483 C1484 1.400 . S
C1483 C1488 1.490 . S
C1484 H1474 0.930 . S
C1484 C1483 1.400 . S
C1484 C1487 1.386 . S
H1485 C1501 0.930 . S
H1486 C1502 0.931 . S
C1487 H1475 0.929 . S
C1487 C1481 1.390 . S
C1487 C1484 1.386 . S
C1488 C1483 1.490 . S
C1488 C1490 1.395 . S
C1488 C1491 1.403 . S
H1489 C1495 0.930 . S
C1490 H1476 0.930 . S
C1490 C1488 1.395 . S
C1490 C1493 1.403 . S
C1491 C1488 1.403 . S
C1491 C1492 1.524 . S
C1491 C1495 1.400 . S
C1492 H1477 0.960 . S
C1492 H1478 0.960 . S
C1492 H1479 0.960 . S
C1492 C1491 1.524 . S
C1493 C1490 1.403 . S
C1493 C1494 1.392 . S
C1493 C1497 1.495 . S
C1494 C1493 1.392 . S
C1494 C1495 1.385 . S
C1494 C1496 1.478 . S
C1495 H1489 0.930 . S
C1495 C1491 1.400 . S
C1495 C1494 1.385 . S
C1496 C1494 1.478 . S
C1496 C1498 1.381 . S
C1496 C1502 1.383 . S
C1497 C1493 1.495 . S
C1497 H1503 0.959 . S
C1497 H1504 0.961 . S
C1497 H1505 0.960 . S
C1498 C1496 1.381 . S
C1498 C1499 1.394 . S
C1498 H1506 0.930 . S
C1499 C1498 1.394 . S
C1499 C1500 1.383 . S
C1499 H1507 0.929 . S
C1500 C1499 1.383 . S
C1500 C1501 1.377 . S
C1501 H1485 0.930 . S
C1501 C1500 1.377 . S
C1501 C1502 1.379 . S
C1502 H1486 0.931 . S
C1502 C1496 1.383 . S
C1502 C1501 1.379 . S
H1503 C1497 0.959 . S
H1504 C1497 0.961 . S
H1505 C1497 0.960 . S
H1506 C1498 0.930 . S
H1507 C1499 0.929 . S
H1508 C1516 0.929 . S
H1509 C1518 0.930 . S
H1510 C1520 0.930 . S
H1511 C1523 0.929 . S
H1512 C1526 0.930 . S
H1513 C1528 0.960 . S
H1514 C1528 0.960 . S
H1515 C1528 0.960 . S
C1516 H1508 0.929 . S
C1516 C1517 1.377 . S
C1516 C1518 1.384 . S
C1517 C1516 1.377 . S
C1517 C1523 1.390 . S
C1518 H1509 0.930 . S
C1518 C1516 1.384 . S
C1518 C1519 1.372 . S
C1519 C1518 1.372 . S
C1519 C1520 1.400 . S
C1519 C1524 1.490 . S
C1520 H1510 0.930 . S
C1520 C1519 1.400 . S
C1520 C1523 1.386 . S
H1521 C1537 0.930 . S
H1522 C1538 0.931 . S
C1523 H1511 0.929 . S
C1523 C1517 1.390 . S
C1523 C1520 1.386 . S
C1524 C1519 1.490 . S
C1524 C1526 1.395 . S
C1524 C1527 1.403 . S
H1525 C1531 0.930 . S
C1526 H1512 0.930 . S
C1526 C1524 1.395 . S
C1526 C1529 1.403 . S
C1527 C1524 1.403 . S
C1527 C1528 1.524 . S
C1527 C1531 1.400 . S
C1528 H1513 0.960 . S
C1528 H1514 0.960 . S
C1528 H1515 0.960 . S
C1528 C1527 1.524 . S
C1529 C1526 1.403 . S
C1529 C1530 1.392 . S
C1529 C1533 1.495 . S
C1530 C1529 1.392 . S
C1530 C1531 1.385 . S
C1530 C1532 1.478 . S
C1531 H1525 0.930 . S
C1531 C1527 1.400 . S
C1531 C1530 1.385 . S
C1532 C1530 1.478 . S
C1532 C1534 1.381 . S
C1532 C1538 1.383 . S
C1533 C1529 1.495 . S
C1533 H1539 0.959 . S
C1533 H1540 0.961 . S
C1533 H1541 0.960 . S
C1534 C1532 1.381 . S
C1534 C1535 1.394 . S
C1534 H1542 0.930 . S
C1535 C1534 1.394 . S
C1535 C1536 1.383 . S
C1535 H1543 0.929 . S
C1536 C1535 1.383 . S
C1536 C1537 1.377 . S
C1537 H1521 0.930 . S
C1537 C1536 1.377 . S
C1537 C1538 1.379 . S
C1538 H1522 0.931 . S
C1538 C1532 1.383 . S
C1538 C1537 1.379 . S
H1539 C1533 0.959 . S
H1540 C1533 0.961 . S
H1541 C1533 0.960 . S
H1542 C1534 0.930 . S
H1543 C1535 0.929 . S
H1544 C1552 0.929 . S
H1545 C1554 0.930 . S
H1546 C1556 0.930 . S
H1547 C1559 0.929 . S
H1548 C1562 0.930 . S
H1549 C1564 0.960 . S
H1550 C1564 0.960 . S
H1551 C1564 0.960 . S
C1552 H1544 0.929 . S
C1552 C1553 1.377 . S
C1552 C1554 1.384 . S
C1553 C1552 1.377 . S
C1553 C1559 1.390 . S
C1554 H1545 0.930 . S
C1554 C1552 1.384 . S
C1554 C1555 1.372 . S
C1555 C1554 1.372 . S
C1555 C1556 1.400 . S
C1555 C1560 1.490 . S
C1556 H1546 0.930 . S
C1556 C1555 1.400 . S
C1556 C1559 1.386 . S
H1557 C1573 0.930 . S
H1558 C1574 0.931 . S
C1559 H1547 0.929 . S
C1559 C1553 1.390 . S
C1559 C1556 1.386 . S
C1560 C1555 1.490 . S
C1560 C1562 1.395 . S
C1560 C1563 1.403 . S
H1561 C1567 0.930 . S
C1562 H1548 0.930 . S
C1562 C1560 1.395 . S
C1562 C1565 1.403 . S
C1563 C1560 1.403 . S
C1563 C1564 1.524 . S
C1563 C1567 1.400 . S
C1564 H1549 0.960 . S
C1564 H1550 0.960 . S
C1564 H1551 0.960 . S
C1564 C1563 1.524 . S
C1565 C1562 1.403 . S
C1565 C1566 1.392 . S
C1565 C1569 1.495 . S
C1566 C1565 1.392 . S
C1566 C1567 1.385 . S
C1566 C1568 1.478 . S
C1567 H1561 0.930 . S
C1567 C1563 1.400 . S
C1567 C1566 1.385 . S
C1568 C1566 1.478 . S
C1568 C1570 1.381 . S
C1568 C1574 1.383 . S
C1569 C1565 1.495 . S
C1569 H1575 0.959 . S
C1569 H1576 0.961 . S
C1569 H1577 0.960 . S
C1570 C1568 1.381 . S
C1570 C1571 1.394 . S
C1570 H1578 0.930 . S
C1571 C1570 1.394 . S
C1571 C1572 1.383 . S
C1571 H1579 0.929 . S
C1572 C1571 1.383 . S
C1572 C1573 1.377 . S
C1573 H1557 0.930 . S
C1573 C1572 1.377 . S
C1573 C1574 1.379 . S
C1574 H1558 0.931 . S
C1574 C1568 1.383 . S
C1574 C1573 1.379 . S
H1575 C1569 0.959 . S
H1576 C1569 0.961 . S
H1577 C1569 0.960 . S
H1578 C1570 0.930 . S
H1579 C1571 0.929 . S
H1580 C1588 0.929 . S
H1581 C1590 0.930 . S
H1582 C1592 0.930 . S
H1583 C1595 0.929 . S
H1584 C1598 0.930 . S
H1585 C1600 0.960 . S
H1586 C1600 0.960 . S
H1587 C1600 0.960 . S
C1588 H1580 0.929 . S
C1588 C1589 1.377 . S
C1588 C1590 1.384 . S
C1589 C1588 1.377 . S
C1589 C1595 1.390 . S
C1590 H1581 0.930 . S
C1590 C1588 1.384 . S
C1590 C1591 1.372 . S
C1591 C1590 1.372 . S
C1591 C1592 1.400 . S
C1591 C1596 1.490 . S
C1592 H1582 0.930 . S
C1592 C1591 1.400 . S
C1592 C1595 1.386 . S
H1593 C1609 0.930 . S
H1594 C1610 0.931 . S
C1595 H1583 0.929 . S
C1595 C1589 1.390 . S
C1595 C1592 1.386 . S
C1596 C1591 1.490 . S
C1596 C1598 1.395 . S
C1596 C1599 1.403 . S
H1597 C1603 0.930 . S
C1598 H1584 0.930 . S
C1598 C1596 1.395 . S
C1598 C1601 1.403 . S
C1599 C1596 1.403 . S
C1599 C1600 1.524 . S
C1599 C1603 1.400 . S
C1600 H1585 0.960 . S
C1600 H1586 0.960 . S
C1600 H1587 0.960 . S
C1600 C1599 1.524 . S
C1601 C1598 1.403 . S
C1601 C1602 1.392 . S
C1601 C1605 1.495 . S
C1602 C1601 1.392 . S
C1602 C1603 1.385 . S
C1602 C1604 1.478 . S
C1603 H1597 0.930 . S
C1603 C1599 1.400 . S
C1603 C1602 1.385 . S
C1604 C1602 1.478 . S
C1604 C1606 1.381 . S
C1604 C1610 1.383 . S
C1605 C1601 1.495 . S
C1605 H1611 0.959 . S
C1605 H1612 0.961 . S
C1605 H1613 0.960 . S
C1606 C1604 1.381 . S
C1606 C1607 1.394 . S
C1606 H1614 0.930 . S
C1607 C1606 1.394 . S
C1607 C1608 1.383 . S
C1607 H1615 0.929 . S
C1608 C1607 1.383 . S
C1608 C1609 1.377 . S
C1609 H1593 0.930 . S
C1609 C1608 1.377 . S
C1609 C1610 1.379 . S
C1610 H1594 0.931 . S
C1610 C1604 1.383 . S
C1610 C1609 1.379 . S
H1611 C1605 0.959 . S
H1612 C1605 0.961 . S
H1613 C1605 0.960 . S
H1614 C1606 0.930 . S
H1615 C1607 0.929 . S
H1616 C1624 0.929 . S
H1617 C1626 0.930 . S
H1618 C1628 0.930 . S
H1619 C1631 0.929 . S
H1620 C1634 0.930 . S
H1621 C1636 0.960 . S
H1622 C1636 0.960 . S
H1623 C1636 0.960 . S
C1624 H1616 0.929 . S
C1624 C1625 1.377 . S
C1624 C1626 1.384 . S
C1625 C1624 1.377 . S
C1625 C1631 1.390 . S
C1626 H1617 0.930 . S
C1626 C1624 1.384 . S
C1626 C1627 1.372 . S
C1627 C1626 1.372 . S
C1627 C1628 1.400 . S
C1627 C1632 1.490 . S
C1628 H1618 0.930 . S
C1628 C1627 1.400 . S
C1628 C1631 1.386 . S
H1629 C1645 0.930 . S
H1630 C1646 0.931 . S
C1631 H1619 0.929 . S
C1631 C1625 1.390 . S
C1631 C1628 1.386 . S
C1632 C1627 1.490 . S
C1632 C1634 1.395 . S
C1632 C1635 1.403 . S
H1633 C1639 0.930 . S
C1634 H1620 0.930 . S
C1634 C1632 1.395 . S
C1634 C1637 1.403 . S
C1635 C1632 1.403 . S
C1635 C1636 1.524 . S
C1635 C1639 1.400 . S
C1636 H1621 0.960 . S
C1636 H1622 0.960 . S
C1636 H1623 0.960 . S
C1636 C1635 1.524 . S
C1637 C1634 1.403 . S
C1637 C1638 1.392 . S
C1637 C1641 1.495 . S
C1638 C1637 1.392 . S
C1638 C1639 1.385 . S
C1638 C1640 1.478 . S
C1639 H1633 0.930 . S
C1639 C1635 1.400 . S
C1639 C1638 1.385 . S
C1640 C1638 1.478 . S
C1640 C1642 1.381 . S
C1640 C1646 1.383 . S
C1641 C1637 1.495 . S
C1641 H1647 0.959 . S
C1641 H1648 0.961 . S
C1641 H1649 0.960 . S
C1642 C1640 1.381 . S
C1642 C1643 1.394 . S
C1642 H1650 0.930 . S
C1643 C1642 1.394 . S
C1643 C1644 1.383 . S
C1643 H1651 0.929 . S
C1644 C1643 1.383 . S
C1644 C1645 1.377 . S
C1645 H1629 0.930 . S
C1645 C1644 1.377 . S
C1645 C1646 1.379 . S
C1646 H1630 0.931 . S
C1646 C1640 1.383 . S
C1646 C1645 1.379 . S
H1647 C1641 0.959 . S
H1648 C1641 0.961 . S
H1649 C1641 0.960 . S
H1650 C1642 0.930 . S
H1651 C1643 0.929 . S
H1652 C1660 0.929 . S
H1653 C1662 0.930 . S
H1654 C1664 0.930 . S
H1655 C1667 0.929 . S
H1656 C1670 0.930 . S
H1657 C1672 0.960 . S
H1658 C1672 0.960 . S
H1659 C1672 0.960 . S
C1660 H1652 0.929 . S
C1660 C1661 1.377 . S
C1660 C1662 1.384 . S
C1661 C1660 1.377 . S
C1661 C1667 1.390 . S
C1662 H1653 0.930 . S
C1662 C1660 1.384 . S
C1662 C1663 1.372 . S
C1663 C1662 1.372 . S
C1663 C1664 1.400 . S
C1663 C1668 1.490 . S
C1664 H1654 0.930 . S
C1664 C1663 1.400 . S
C1664 C1667 1.386 . S
H1665 C1681 0.930 . S
H1666 C1682 0.931 . S
C1667 H1655 0.929 . S
C1667 C1661 1.390 . S
C1667 C1664 1.386 . S
C1668 C1663 1.490 . S
C1668 C1670 1.395 . S
C1668 C1671 1.403 . S
H1669 C1675 0.930 . S
C1670 H1656 0.930 . S
C1670 C1668 1.395 . S
C1670 C1673 1.403 . S
C1671 C1668 1.403 . S
C1671 C1672 1.524 . S
C1671 C1675 1.400 . S
C1672 H1657 0.960 . S
C1672 H1658 0.960 . S
C1672 H1659 0.960 . S
C1672 C1671 1.524 . S
C1673 C1670 1.403 . S
C1673 C1674 1.392 . S
C1673 C1677 1.495 . S
C1674 C1673 1.392 . S
C1674 C1675 1.385 . S
C1674 C1676 1.478 . S
C1675 H1669 0.930 . S
C1675 C1671 1.400 . S
C1675 C1674 1.385 . S
C1676 C1674 1.478 . S
C1676 C1678 1.381 . S
C1676 C1682 1.383 . S
C1677 C1673 1.495 . S
C1677 H1683 0.959 . S
C1677 H1684 0.961 . S
C1677 H1685 0.960 . S
C1678 C1676 1.381 . S
C1678 C1679 1.394 . S
C1678 H1686 0.930 . S
C1679 C1678 1.394 . S
C1679 C1680 1.383 . S
C1679 H1687 0.929 . S
C1680 C1679 1.383 . S
C1680 C1681 1.377 . S
C1681 H1665 0.930 . S
C1681 C1680 1.377 . S
C1681 C1682 1.379 . S
C1682 H1666 0.931 . S
C1682 C1676 1.383 . S
C1682 C1681 1.379 . S
H1683 C1677 0.959 . S
H1684 C1677 0.961 . S
H1685 C1677 0.960 . S
H1686 C1678 0.930 . S
H1687 C1679 0.929 . S
H1688 C1696 0.929 . S
H1689 C1698 0.930 . S
H1690 C1700 0.930 . S
H1691 C1703 0.929 . S
H1692 C1706 0.930 . S
H1693 C1708 0.960 . S
H1694 C1708 0.960 . S
H1695 C1708 0.960 . S
C1696 H1688 0.929 . S
C1696 C1697 1.377 . S
C1696 C1698 1.384 . S
C1697 C1696 1.377 . S
C1697 C1703 1.390 . S
C1698 H1689 0.930 . S
C1698 C1696 1.384 . S
C1698 C1699 1.372 . S
C1699 C1698 1.372 . S
C1699 C1700 1.400 . S
C1699 C1704 1.490 . S
C1700 H1690 0.930 . S
C1700 C1699 1.400 . S
C1700 C1703 1.386 . S
H1701 C1717 0.930 . S
H1702 C1718 0.931 . S
C1703 H1691 0.929 . S
C1703 C1697 1.390 . S
C1703 C1700 1.386 . S
C1704 C1699 1.490 . S
C1704 C1706 1.395 . S
C1704 C1707 1.403 . S
H1705 C1711 0.930 . S
C1706 H1692 0.930 . S
C1706 C1704 1.395 . S
C1706 C1709 1.403 . S
C1707 C1704 1.403 . S
C1707 C1708 1.524 . S
C1707 C1711 1.400 . S
C1708 H1693 0.960 . S
C1708 H1694 0.960 . S
C1708 H1695 0.960 . S
C1708 C1707 1.524 . S
C1709 C1706 1.403 . S
C1709 C1710 1.392 . S
C1709 C1713 1.495 . S
C1710 C1709 1.392 . S
C1710 C1711 1.385 . S
C1710 C1712 1.478 . S
C1711 H1705 0.930 . S
C1711 C1707 1.400 . S
C1711 C1710 1.385 . S
C1712 C1710 1.478 . S
C1712 C1714 1.381 . S
C1712 C1718 1.383 . S
C1713 C1709 1.495 . S
C1713 H1719 0.959 . S
C1713 H1720 0.961 . S
C1713 H1721 0.960 . S
C1714 C1712 1.381 . S
C1714 C1715 1.394 . S
C1714 H1722 0.930 . S
C1715 C1714 1.394 . S
C1715 C1716 1.383 . S
C1715 H1723 0.929 . S
C1716 C1715 1.383 . S
C1716 C1717 1.377 . S
C1717 H1701 0.930 . S
C1717 C1716 1.377 . S
C1717 C1718 1.379 . S
C1718 H1702 0.931 . S
C1718 C1712 1.383 . S
C1718 C1717 1.379 . S
H1719 C1713 0.959 . S
H1720 C1713 0.961 . S
H1721 C1713 0.960 . S
H1722 C1714 0.930 . S
H1723 C1715 0.929 . S
H1724 C1732 0.929 . S
H1725 C1734 0.930 . S
H1726 C1736 0.930 . S
H1727 C1739 0.929 . S
H1728 C1742 0.930 . S
H1729 C1744 0.960 . S
H1730 C1744 0.960 . S
H1731 C1744 0.960 . S
C1732 H1724 0.929 . S
C1732 C1733 1.377 . S
C1732 C1734 1.384 . S
C1733 C1732 1.377 . S
C1733 C1739 1.390 . S
C1734 H1725 0.930 . S
C1734 C1732 1.384 . S
C1734 C1735 1.372 . S
C1735 C1734 1.372 . S
C1735 C1736 1.400 . S
C1735 C1740 1.490 . S
C1736 H1726 0.930 . S
C1736 C1735 1.400 . S
C1736 C1739 1.386 . S
H1737 C1753 0.930 . S
H1738 C1754 0.931 . S
C1739 H1727 0.929 . S
C1739 C1733 1.390 . S
C1739 C1736 1.386 . S
C1740 C1735 1.490 . S
C1740 C1742 1.395 . S
C1740 C1743 1.403 . S
H1741 C1747 0.930 . S
C1742 H1728 0.930 . S
C1742 C1740 1.395 . S
C1742 C1745 1.403 . S
C1743 C1740 1.403 . S
C1743 C1744 1.524 . S
C1743 C1747 1.400 . S
C1744 H1729 0.960 . S
C1744 H1730 0.960 . S
C1744 H1731 0.960 . S
C1744 C1743 1.524 . S
C1745 C1742 1.403 . S
C1745 C1746 1.392 . S
C1745 C1749 1.495 . S
C1746 C1745 1.392 . S
C1746 C1747 1.385 . S
C1746 C1748 1.478 . S
C1747 H1741 0.930 . S
C1747 C1743 1.400 . S
C1747 C1746 1.385 . S
C1748 C1746 1.478 . S
C1748 C1750 1.381 . S
C1748 C1754 1.383 . S
C1749 C1745 1.495 . S
C1749 H1755 0.959 . S
C1749 H1756 0.961 . S
C1749 H1757 0.960 . S
C1750 C1748 1.381 . S
C1750 C1751 1.394 . S
C1750 H1758 0.930 . S
C1751 C1750 1.394 . S
C1751 C1752 1.383 . S
C1751 H1759 0.929 . S
C1752 C1751 1.383 . S
C1752 C1753 1.377 . S
C1753 H1737 0.930 . S
C1753 C1752 1.377 . S
C1753 C1754 1.379 . S
C1754 H1738 0.931 . S
C1754 C1748 1.383 . S
C1754 C1753 1.379 . S
H1755 C1749 0.959 . S
H1756 C1749 0.961 . S
H1757 C1749 0.960 . S
H1758 C1750 0.930 . S
H1759 C1751 0.929 . S
H1760 C1768 0.929 . S
H1761 C1770 0.930 . S
H1762 C1772 0.930 . S
H1763 C1775 0.929 . S
H1764 C1778 0.930 . S
H1765 C1780 0.960 . S
H1766 C1780 0.960 . S
H1767 C1780 0.960 . S
C1768 H1760 0.929 . S
C1768 C1769 1.377 . S
C1768 C1770 1.384 . S
C1769 C1768 1.377 . S
C1769 C1775 1.390 . S
C1770 H1761 0.930 . S
C1770 C1768 1.384 . S
C1770 C1771 1.372 1_556 S
C1771 C1770 1.372 1_554 S
C1771 C1772 1.400 1_554 S
C1771 C1776 1.490 . S
C1772 H1762 0.930 . S
C1772 C1771 1.400 1_556 S
C1772 C1775 1.386 . S
H1773 C1789 0.930 . S
H1774 C1790 0.931 . S
C1775 H1763 0.929 . S
C1775 C1769 1.390 . S
C1775 C1772 1.386 . S
C1776 C1771 1.490 . S
C1776 C1778 1.395 . S
C1776 C1779 1.403 . S
H1777 C1783 0.930 . S
C1778 H1764 0.930 . S
C1778 C1776 1.395 . S
C1778 C1781 1.403 . S
C1779 C1776 1.403 . S
C1779 C1780 1.524 . S
C1779 C1783 1.400 . S
C1780 H1765 0.960 . S
C1780 H1766 0.960 . S
C1780 H1767 0.960 . S
C1780 C1779 1.524 . S
C1781 C1778 1.403 . S
C1781 C1782 1.392 . S
C1781 C1785 1.495 . S
C1782 C1781 1.392 . S
C1782 C1783 1.385 . S
C1782 C1784 1.478 . S
C1783 H1777 0.930 . S
C1783 C1779 1.400 . S
C1783 C1782 1.385 . S
C1784 C1782 1.478 . S
C1784 C1786 1.381 . S
C1784 C1790 1.383 . S
C1785 C1781 1.495 . S
C1785 H1791 0.959 . S
C1785 H1792 0.961 . S
C1785 H1793 0.960 . S
C1786 C1784 1.381 . S
C1786 C1787 1.394 . S
C1786 H1794 0.930 . S
C1787 C1786 1.394 . S
C1787 C1788 1.383 . S
C1787 H1795 0.929 . S
C1788 C1787 1.383 . S
C1788 C1789 1.377 . S
C1789 H1773 0.930 . S
C1789 C1788 1.377 . S
C1789 C1790 1.379 . S
C1790 H1774 0.931 . S
C1790 C1784 1.383 . S
C1790 C1789 1.379 . S
H1791 C1785 0.959 . S
H1792 C1785 0.961 . S
H1793 C1785 0.960 . S
H1794 C1786 0.930 . S
H1795 C1787 0.929 . S
H1796 C1804 0.929 . S
H1797 C1806 0.930 . S
H1798 C1808 0.930 . S
H1799 C1811 0.929 . S
H1800 C1814 0.930 . S
H1801 C1816 0.960 . S
H1802 C1816 0.960 . S
H1803 C1816 0.960 . S
C1804 H1796 0.929 . S
C1804 C1805 1.377 . S
C1804 C1806 1.384 . S
C1805 C1804 1.377 . S
C1805 C1811 1.390 . S
C1806 H1797 0.930 . S
C1806 C1804 1.384 . S
C1806 C1807 1.372 . S
C1807 C1806 1.372 . S
C1807 C1808 1.400 . S
C1807 C1812 1.490 . S
C1808 H1798 0.930 . S
C1808 C1807 1.400 . S
C1808 C1811 1.386 . S
H1809 C1825 0.930 . S
H1810 C1826 0.931 . S
C1811 H1799 0.929 . S
C1811 C1805 1.390 . S
C1811 C1808 1.386 . S
C1812 C1807 1.490 . S
C1812 C1814 1.395 . S
C1812 C1815 1.403 . S
H1813 C1819 0.930 . S
C1814 H1800 0.930 . S
C1814 C1812 1.395 . S
C1814 C1817 1.403 . S
C1815 C1812 1.403 . S
C1815 C1816 1.524 . S
C1815 C1819 1.400 . S
C1816 H1801 0.960 . S
C1816 H1802 0.960 . S
C1816 H1803 0.960 . S
C1816 C1815 1.524 . S
C1817 C1814 1.403 . S
C1817 C1818 1.392 . S
C1817 C1821 1.495 . S
C1818 C1817 1.392 . S
C1818 C1819 1.385 . S
C1818 C1820 1.478 . S
C1819 H1813 0.930 . S
C1819 C1815 1.400 . S
C1819 C1818 1.385 . S
C1820 C1818 1.478 . S
C1820 C1822 1.381 1_556 S
C1820 C1826 1.383 1_556 S
C1821 C1817 1.495 . S
C1821 H1827 0.959 . S
C1821 H1828 0.961 . S
C1821 H1829 0.960 . S
C1822 C1820 1.381 1_554 S
C1822 C1823 1.394 . S
C1822 H1830 0.930 . S
C1823 C1822 1.394 . S
C1823 C1824 1.383 . S
C1823 H1831 0.929 . S
C1824 C1823 1.383 . S
C1824 C1825 1.377 . S
C1825 H1809 0.930 . S
C1825 C1824 1.377 . S
C1825 C1826 1.379 . S
C1826 H1810 0.931 . S
C1826 C1820 1.383 1_554 S
C1826 C1825 1.379 . S
H1827 C1821 0.959 . S
H1828 C1821 0.961 . S
H1829 C1821 0.960 . S
H1830 C1822 0.930 . S
H1831 C1823 0.929 . S
H1832 C1840 0.929 . S
H1833 C1842 0.930 . S
H1834 C1844 0.930 . S
H1835 C1847 0.929 . S
H1836 C1850 0.930 . S
H1837 C1852 0.960 . S
H1838 C1852 0.960 . S
H1839 C1852 0.960 . S
C1840 H1832 0.929 . S
C1840 C1841 1.377 . S
C1840 C1842 1.384 . S
C1841 C1840 1.377 . S
C1841 C1847 1.390 . S
C1842 H1833 0.930 . S
C1842 C1840 1.384 . S
C1842 C1843 1.372 . S
C1843 C1842 1.372 . S
C1843 C1844 1.400 . S
C1843 C1848 1.490 . S
C1844 H1834 0.930 . S
C1844 C1843 1.400 . S
C1844 C1847 1.386 . S
H1845 C1861 0.930 . S
H1846 C1862 0.931 . S
C1847 H1835 0.929 . S
C1847 C1841 1.390 . S
C1847 C1844 1.386 . S
C1848 C1843 1.490 . S
C1848 C1850 1.395 . S
C1848 C1851 1.403 . S
H1849 C1855 0.930 . S
C1850 H1836 0.930 . S
C1850 C1848 1.395 . S
C1850 C1853 1.403 . S
C1851 C1848 1.403 . S
C1851 C1852 1.524 . S
C1851 C1855 1.400 . S
C1852 H1837 0.960 . S
C1852 H1838 0.960 . S
C1852 H1839 0.960 . S
C1852 C1851 1.524 . S
C1853 C1850 1.403 . S
C1853 C1854 1.392 . S
C1853 C1857 1.495 . S
C1854 C1853 1.392 . S
C1854 C1855 1.385 . S
C1854 C1856 1.478 . S
C1855 H1849 0.930 . S
C1855 C1851 1.400 . S
C1855 C1854 1.385 . S
C1856 C1854 1.478 . S
C1856 C1858 1.381 1_554 S
C1856 C1862 1.383 1_554 S
C1857 C1853 1.495 . S
C1857 H1863 0.959 . S
C1857 H1864 0.961 . S
C1857 H1865 0.960 . S
C1858 C1856 1.381 1_556 S
C1858 C1859 1.394 . S
C1858 H1866 0.930 . S
C1859 C1858 1.394 . S
C1859 C1860 1.383 . S
C1859 H1867 0.929 . S
C1860 C1859 1.383 . S
C1860 C1861 1.377 . S
C1861 H1845 0.930 . S
C1861 C1860 1.377 . S
C1861 C1862 1.379 . S
C1862 H1846 0.931 . S
C1862 C1856 1.383 1_556 S
C1862 C1861 1.379 . S
H1863 C1857 0.959 . S
H1864 C1857 0.961 . S
H1865 C1857 0.960 . S
H1866 C1858 0.930 . S
H1867 C1859 0.929 . S
H1868 C1876 0.929 . S
H1869 C1878 0.930 . S
H1870 C1880 0.930 . S
H1871 C1883 0.929 . S
H1872 C1886 0.930 . S
H1873 C1888 0.960 . S
H1874 C1888 0.960 . S
H1875 C1888 0.960 . S
C1876 H1868 0.929 . S
C1876 C1877 1.377 . S
C1876 C1878 1.384 . S
C1877 C1876 1.377 . S
C1877 C1883 1.390 . S
C1878 H1869 0.930 . S
C1878 C1876 1.384 . S
C1878 C1879 1.372 1_554 S
C1879 C1878 1.372 1_556 S
C1879 C1880 1.400 1_556 S
C1879 C1884 1.490 . S
C1880 H1870 0.930 . S
C1880 C1879 1.400 1_554 S
C1880 C1883 1.386 . S
H1881 C1897 0.930 . S
H1882 C1898 0.931 . S
C1883 H1871 0.929 . S
C1883 C1877 1.390 . S
C1883 C1880 1.386 . S
C1884 C1879 1.490 . S
C1884 C1886 1.395 . S
C1884 C1887 1.403 . S
H1885 C1891 0.930 . S
C1886 H1872 0.930 . S
C1886 C1884 1.395 . S
C1886 C1889 1.403 . S
C1887 C1884 1.403 . S
C1887 C1888 1.524 . S
C1887 C1891 1.400 . S
C1888 H1873 0.960 . S
C1888 H1874 0.960 . S
C1888 H1875 0.960 . S
C1888 C1887 1.524 . S
C1889 C1886 1.403 . S
C1889 C1890 1.392 . S
C1889 C1893 1.495 . S
C1890 C1889 1.392 . S
C1890 C1891 1.385 . S
C1890 C1892 1.478 . S
C1891 H1885 0.930 . S
C1891 C1887 1.400 . S
C1891 C1890 1.385 . S
C1892 C1890 1.478 . S
C1892 C1894 1.381 . S
C1892 C1898 1.383 . S
C1893 C1889 1.495 . S
C1893 H1899 0.959 . S
C1893 H1900 0.961 . S
C1893 H1901 0.960 . S
C1894 C1892 1.381 . S
C1894 C1895 1.394 . S
C1894 H1902 0.930 . S
C1895 C1894 1.394 . S
C1895 C1896 1.383 . S
C1895 H1903 0.929 . S
C1896 C1895 1.383 . S
C1896 C1897 1.377 . S
C1897 H1881 0.930 . S
C1897 C1896 1.377 . S
C1897 C1898 1.379 . S
C1898 H1882 0.931 . S
C1898 C1892 1.383 . S
C1898 C1897 1.379 . S
H1899 C1893 0.959 . S
H1900 C1893 0.961 . S
H1901 C1893 0.960 . S
H1902 C1894 0.930 . S
H1903 C1895 0.929 . S
H1904 C1912 0.929 . S
H1905 C1914 0.930 . S
H1906 C1916 0.930 . S
H1907 C1919 0.929 . S
H1908 C1922 0.930 . S
H1909 C1924 0.960 . S
H1910 C1924 0.960 . S
H1911 C1924 0.960 . S
C1912 H1904 0.929 . S
C1912 C1913 1.377 . S
C1912 C1914 1.384 . S
C1913 C1912 1.377 . S
C1913 C1919 1.390 . S
C1914 H1905 0.930 . S
C1914 C1912 1.384 . S
C1914 C1915 1.372 . S
C1915 C1914 1.372 . S
C1915 C1916 1.400 . S
C1915 C1920 1.490 . S
C1916 H1906 0.930 . S
C1916 C1915 1.400 . S
C1916 C1919 1.386 . S
H1917 C1933 0.930 . S
H1918 C1934 0.931 . S
C1919 H1907 0.929 . S
C1919 C1913 1.390 . S
C1919 C1916 1.386 . S
C1920 C1915 1.490 . S
C1920 C1922 1.395 . S
C1920 C1923 1.403 . S
H1921 C1927 0.930 . S
C1922 H1908 0.930 . S
C1922 C1920 1.395 . S
C1922 C1925 1.403 . S
C1923 C1920 1.403 . S
C1923 C1924 1.524 . S
C1923 C1927 1.400 . S
C1924 H1909 0.960 . S
C1924 H1910 0.960 . S
C1924 H1911 0.960 . S
C1924 C1923 1.524 . S
C1925 C1922 1.403 . S
C1925 C1926 1.392 . S
C1925 C1929 1.495 . S
C1926 C1925 1.392 . S
C1926 C1927 1.385 . S
C1926 C1928 1.478 1_554 S
C1927 H1921 0.930 . S
C1927 C1923 1.400 . S
C1927 C1926 1.385 . S
C1928 C1926 1.478 1_556 S
C1928 C1930 1.381 . S
C1928 C1934 1.383 . S
C1929 C1925 1.495 . S
C1929 H1935 0.959 . S
C1929 H1936 0.961 . S
C1929 H1937 0.960 . S
C1930 C1928 1.381 . S
C1930 C1931 1.394 . S
C1930 H1938 0.930 . S
C1931 C1930 1.394 . S
C1931 C1932 1.383 . S
C1931 H1939 0.929 . S
C1932 C1931 1.383 . S
C1932 C1933 1.377 . S
C1933 H1917 0.930 . S
C1933 C1932 1.377 . S
C1933 C1934 1.379 . S
C1934 H1918 0.931 . S
C1934 C1928 1.383 . S
C1934 C1933 1.379 . S
H1935 C1929 0.959 . S
H1936 C1929 0.961 . S
H1937 C1929 0.960 . S
H1938 C1930 0.930 . S
H1939 C1931 0.929 . S
H1940 C1948 0.929 . S
H1941 C1950 0.930 . S
H1942 C1952 0.930 . S
H1943 C1955 0.929 . S
H1944 C1958 0.930 . S
H1945 C1960 0.960 . S
H1946 C1960 0.960 . S
H1947 C1960 0.960 . S
C1948 H1940 0.929 . S
C1948 C1949 1.377 . S
C1948 C1950 1.384 . S
C1949 C1948 1.377 . S
C1949 C1955 1.390 . S
C1950 H1941 0.930 . S
C1950 C1948 1.384 . S
C1950 C1951 1.372 . S
C1951 C1950 1.372 . S
C1951 C1952 1.400 . S
C1951 C1956 1.490 1_554 S
C1952 H1942 0.930 . S
C1952 C1951 1.400 . S
C1952 C1955 1.386 . S
H1953 C1969 0.930 . S
H1954 C1970 0.931 . S
C1955 H1943 0.929 . S
C1955 C1949 1.390 . S
C1955 C1952 1.386 . S
C1956 C1951 1.490 1_556 S
C1956 C1958 1.395 . S
C1956 C1959 1.403 . S
H1957 C1963 0.930 . S
C1958 H1944 0.930 . S
C1958 C1956 1.395 . S
C1958 C1961 1.403 . S
C1959 C1956 1.403 . S
C1959 C1960 1.524 . S
C1959 C1963 1.400 . S
C1960 H1945 0.960 . S
C1960 H1946 0.960 . S
C1960 H1947 0.960 . S
C1960 C1959 1.524 . S
C1961 C1958 1.403 . S
C1961 C1962 1.392 . S
C1961 C1965 1.495 . S
C1962 C1961 1.392 . S
C1962 C1963 1.385 . S
C1962 C1964 1.478 . S
C1963 H1957 0.930 . S
C1963 C1959 1.400 . S
C1963 C1962 1.385 . S
C1964 C1962 1.478 . S
C1964 C1966 1.381 . S
C1964 C1970 1.383 . S
C1965 C1961 1.495 . S
C1965 H1971 0.959 . S
C1965 H1972 0.961 . S
C1965 H1973 0.960 . S
C1966 C1964 1.381 . S
C1966 C1967 1.394 . S
C1966 H1974 0.930 . S
C1967 C1966 1.394 . S
C1967 C1968 1.383 . S
C1967 H1975 0.929 . S
C1968 C1967 1.383 . S
C1968 C1969 1.377 . S
C1969 H1953 0.930 . S
C1969 C1968 1.377 . S
C1969 C1970 1.379 . S
C1970 H1954 0.931 . S
C1970 C1964 1.383 . S
C1970 C1969 1.379 . S
H1971 C1965 0.959 . S
H1972 C1965 0.961 . S
H1973 C1965 0.960 . S
H1974 C1966 0.930 . S
H1975 C1967 0.929 . S
H1976 C1984 0.929 . S
H1977 C1986 0.930 . S
H1978 C1988 0.930 . S
H1979 C1991 0.929 . S
H1980 C1994 0.930 . S
H1981 C1996 0.960 . S
H1982 C1996 0.960 . S
H1983 C1996 0.960 . S
C1984 H1976 0.929 . S
C1984 C1985 1.377 . S
C1984 C1986 1.384 . S
C1985 C1984 1.377 . S
C1985 C1991 1.390 . S
C1986 H1977 0.930 . S
C1986 C1984 1.384 . S
C1986 C1987 1.372 . S
C1987 C1986 1.372 . S
C1987 C1988 1.400 . S
C1987 C1992 1.490 1_556 S
C1988 H1978 0.930 . S
C1988 C1987 1.400 . S
C1988 C1991 1.386 . S
H1989 C2005 0.930 . S
H1990 C2006 0.931 . S
C1991 H1979 0.929 . S
C1991 C1985 1.390 . S
C1991 C1988 1.386 . S
C1992 C1987 1.490 1_554 S
C1992 C1994 1.395 . S
C1992 C1995 1.403 . S
H1993 C1999 0.930 . S
C1994 H1980 0.930 . S
C1994 C1992 1.395 . S
C1994 C1997 1.403 . S
C1995 C1992 1.403 . S
C1995 C1996 1.524 . S
C1995 C1999 1.400 . S
C1996 H1981 0.960 . S
C1996 H1982 0.960 . S
C1996 H1983 0.960 . S
C1996 C1995 1.524 . S
C1997 C1994 1.403 . S
C1997 C1998 1.392 . S
C1997 C2001 1.495 . S
C1998 C1997 1.392 . S
C1998 C1999 1.385 . S
C1998 C2000 1.478 . S
C1999 H1993 0.930 . S
C1999 C1995 1.400 . S
C1999 C1998 1.385 . S
C2000 C1998 1.478 . S
C2000 C2002 1.381 . S
C2000 C2006 1.383 . S
C2001 C1997 1.495 . S
C2001 H2007 0.959 . S
C2001 H2008 0.961 . S
C2001 H2009 0.960 . S
C2002 C2000 1.381 . S
C2002 C2003 1.394 . S
C2002 H2010 0.930 . S
C2003 C2002 1.394 . S
C2003 C2004 1.383 . S
C2003 H2011 0.929 . S
C2004 C2003 1.383 . S
C2004 C2005 1.377 . S
C2005 H1989 0.930 . S
C2005 C2004 1.377 . S
C2005 C2006 1.379 . S
C2006 H1990 0.931 . S
C2006 C2000 1.383 . S
C2006 C2005 1.379 . S
H2007 C2001 0.959 . S
H2008 C2001 0.961 . S
H2009 C2001 0.960 . S
H2010 C2002 0.930 . S
H2011 C2003 0.929 . S
H2012 C2020 0.929 . S
H2013 C2022 0.930 . S
H2014 C2024 0.930 . S
H2015 C2027 0.929 . S
H2016 C2030 0.930 . S
H2017 C2032 0.960 . S
H2018 C2032 0.960 . S
H2019 C2032 0.960 . S
C2020 H2012 0.929 . S
C2020 C2021 1.377 . S
C2020 C2022 1.384 . S
C2021 C2020 1.377 . S
C2021 C2027 1.390 . S
C2022 H2013 0.930 . S
C2022 C2020 1.384 . S
C2022 C2023 1.372 . S
C2023 C2022 1.372 . S
C2023 C2024 1.400 . S
C2023 C2028 1.490 . S
C2024 H2014 0.930 . S
C2024 C2023 1.400 . S
C2024 C2027 1.386 . S
H2025 C2041 0.930 . S
H2026 C2042 0.931 . S
C2027 H2015 0.929 . S
C2027 C2021 1.390 . S
C2027 C2024 1.386 . S
C2028 C2023 1.490 . S
C2028 C2030 1.395 . S
C2028 C2031 1.403 . S
H2029 C2035 0.930 . S
C2030 H2016 0.930 . S
C2030 C2028 1.395 . S
C2030 C2033 1.403 . S
C2031 C2028 1.403 . S
C2031 C2032 1.524 . S
C2031 C2035 1.400 . S
C2032 H2017 0.960 . S
C2032 H2018 0.960 . S
C2032 H2019 0.960 . S
C2032 C2031 1.524 . S
C2033 C2030 1.403 . S
C2033 C2034 1.392 . S
C2033 C2037 1.495 . S
C2034 C2033 1.392 . S
C2034 C2035 1.385 . S
C2034 C2036 1.478 1_556 S
C2035 H2029 0.930 . S
C2035 C2031 1.400 . S
C2035 C2034 1.385 . S
C2036 C2034 1.478 1_554 S
C2036 C2038 1.381 . S
C2036 C2042 1.383 . S
C2037 C2033 1.495 . S
C2037 H2043 0.959 . S
C2037 H2044 0.961 . S
C2037 H2045 0.960 . S
C2038 C2036 1.381 . S
C2038 C2039 1.394 . S
C2038 H2046 0.930 . S
C2039 C2038 1.394 . S
C2039 C2040 1.383 . S
C2039 H2047 0.929 . S
C2040 C2039 1.383 . S
C2040 C2041 1.377 . S
C2041 H2025 0.930 . S
C2041 C2040 1.377 . S
C2041 C2042 1.379 . S
C2042 H2026 0.931 . S
C2042 C2036 1.383 . S
C2042 C2041 1.379 . S
H2043 C2037 0.959 . S
H2044 C2037 0.961 . S
H2045 C2037 0.960 . S
H2046 C2038 0.930 . S
H2047 C2039 0.929 . S
C329 C239 1.606 . S
C348 C9 1.618 . S
C365 C178 1.602 . S
C384 C28 1.595 . S
C401 C49 1.604 . S
C420 C199 1.604 . S
C437 C68 1.610 . S
C456 C218 1.596 . S
C473 C89 1.610 . S
C492 C119 1.609 . S
C509 C138 1.609 . S
C528 C108 1.616 . S
C545 C129 1.603 . S
C564 C159 1.589 . S
C581 C98 1.608 . S
C600 C148 1.620 . S
C617 C79 1.606 . S
C636 C169 1.618 . S
C653 C188 1.610 . S
C672 C18 1.602 . S
C689 C39 1.607 . S
C708 C209 1.620 . S
C725 C58 1.603 . S
C744 C228 1.607 . S
C761 C249 1.606 . S
C780 C279 1.612 . S
C797 C298 1.609 . S
C816 C268 1.616 . S
C833 C319 1.605 . S
C852 C289 1.589 . S
C869 C308 1.606 . S
C888 C258 1.617 . S
C905 C8 1.264 . S
C924 C88 1.255 . S
C941 C109 1.263 . S
C960 C29 1.233 . S
C977 C48 1.276 . S
C996 C128 1.276 . S
C1013 C69 1.274 . S
C1032 C149 1.278 . S
C1049 C168 1.272 . S
C1068 C248 1.233 . S
C1085 C269 1.263 . S
C1104 C189 1.233 . S
C1121 C208 1.271 . S
C1140 C288 1.297 . S
C1157 C229 1.277 . S
C1176 C309 1.301 . S
C1193 C299 1.872 . S
C1212 C19 1.868 . S
C1229 C38 1.868 . S
C1248 C318 1.873 . S
C1265 C59 1.872 . S
C1284 C259 1.868 . S
C1301 C78 1.870 . S
C1320 C278 1.865 . S
C1337 C99 1.869 . S
C1356 C219 1.869 . S
C1373 C118 1.869 . S
C1392 C238 1.870 . S
C1409 C139 1.870 . S
C1428 C179 1.859 . S
C1445 C198 1.869 . S
C1464 C158 1.872 . S
C1481 C2 1.311 . S
C1500 C1 1.322 . S
C1517 C21 1.315 . S
C1536 C22 1.331 . S
C1553 C42 1.317 . S
C1572 C41 1.311 . S
C1589 C62 1.314 . S
C1608 C61 1.331 . S
C1625 C81 1.310 . S
C1644 C82 1.290 . S
C1661 C101 1.317 . S
C1680 C102 1.325 . S
C1697 C122 1.309 . S
C1716 C121 1.313 . S
C1733 C142 1.309 . S
C1752 C141 1.309 . S
C1769 C162 1.308 . S
C1788 C161 1.303 . S
C1805 C182 1.310 . S
C1824 C181 1.290 . S
C1841 C201 1.315 . S
C1860 C202 1.300 . S
C1877 C221 1.309 . S
C1896 C222 1.293 . S
C1913 C242 1.308 . S
C1932 C241 1.303 . S
C1949 C262 1.310 . S
C1968 C261 1.289 . S
C1985 C281 1.312 . S
C2004 C282 1.327 . S
C2021 C301 1.317 . S
C2040 C302 1.315 . S
