# Generated by pormake.
# Topology fob, (5)-cn, num edge types: 1
# Building blocks:
#     Node 0, Type 0, BuildingBlock: XOMCOT_clean_sbu_0, # of connection points: 5
#     Node 1, Type 0, BuildingBlock: XOMCOT_clean_sbu_0, # of connection points: 5
#     Node 2, Type 0, BuildingBlock: XOMCOT_clean_sbu_0, # of connection points: 5
#     Node 3, Type 0, BuildingBlock: XOMCOT_clean_sbu_0, # of connection points: 5
#     Node 4, Type 0, BuildingBlock: XOMCOT_clean_sbu_0, # of connection points: 5
#     Node 5, Type 0, BuildingBlock: XOMCOT_clean_sbu_0, # of connection points: 5
#     Node 6, Type 0, BuildingBlock: XOMCOT_clean_sbu_0, # of connection points: 5
#     Node 7, Type 0, BuildingBlock: XOMCOT_clean_sbu_0, # of connection points: 5
#     Node 8, Type 0, BuildingBlock: XOMCOT_clean_sbu_0, # of connection points: 5
#     Node 9, Type 0, BuildingBlock: XOMCOT_clean_sbu_0, # of connection points: 5
#     Node 10, Type 0, BuildingBlock: XOMCOT_clean_sbu_0, # of connection points: 5
#     Node 11, Type 0, BuildingBlock: XOMCOT_clean_sbu_0, # of connection points: 5
#     Node 12, Type 0, BuildingBlock: XOMCOT_clean_sbu_0, # of connection points: 5
#     Node 13, Type 0, BuildingBlock: XOMCOT_clean_sbu_0, # of connection points: 5
#     Node 14, Type 0, BuildingBlock: XOMCOT_clean_sbu_0, # of connection points: 5
#     Node 15, Type 0, BuildingBlock: XOMCOT_clean_sbu_0, # of connection points: 5
#     Edge 16, Type (0, 0), BuildingBlock: OJICUG_clean_linker_0, # of connection points: 2
#     Edge 17, Type (0, 0), BuildingBlock: OJICUG_clean_linker_0, # of connection points: 2
#     Edge 18, Type (0, 0), BuildingBlock: OJICUG_clean_linker_0, # of connection points: 2
#     Edge 19, Type (0, 0), BuildingBlock: OJICUG_clean_linker_0, # of connection points: 2
#     Edge 20, Type (0, 0), BuildingBlock: OJICUG_clean_linker_0, # of connection points: 2
#     Edge 21, Type (0, 0), BuildingBlock: OJICUG_clean_linker_0, # of connection points: 2
#     Edge 22, Type (0, 0), BuildingBlock: OJICUG_clean_linker_0, # of connection points: 2
#     Edge 23, Type (0, 0), BuildingBlock: OJICUG_clean_linker_0, # of connection points: 2
#     Edge 24, Type (0, 0), BuildingBlock: OJICUG_clean_linker_0, # of connection points: 2
#     Edge 25, Type (0, 0), BuildingBlock: OJICUG_clean_linker_0, # of connection points: 2
#     Edge 26, Type (0, 0), BuildingBlock: OJICUG_clean_linker_0, # of connection points: 2
#     Edge 27, Type (0, 0), BuildingBlock: OJICUG_clean_linker_0, # of connection points: 2
#     Edge 28, Type (0, 0), BuildingBlock: OJICUG_clean_linker_0, # of connection points: 2
#     Edge 29, Type (0, 0), BuildingBlock: OJICUG_clean_linker_0, # of connection points: 2
#     Edge 30, Type (0, 0), BuildingBlock: OJICUG_clean_linker_0, # of connection points: 2
#     Edge 31, Type (0, 0), BuildingBlock: OJICUG_clean_linker_0, # of connection points: 2
#     Edge 32, Type (0, 0), BuildingBlock: OJICUG_clean_linker_0, # of connection points: 2
#     Edge 33, Type (0, 0), BuildingBlock: OJICUG_clean_linker_0, # of connection points: 2
#     Edge 34, Type (0, 0), BuildingBlock: OJICUG_clean_linker_0, # of connection points: 2
#     Edge 35, Type (0, 0), BuildingBlock: OJICUG_clean_linker_0, # of connection points: 2
#     Edge 36, Type (0, 0), BuildingBlock: OJICUG_clean_linker_0, # of connection points: 2
#     Edge 37, Type (0, 0), BuildingBlock: OJICUG_clean_linker_0, # of connection points: 2
#     Edge 38, Type (0, 0), BuildingBlock: OJICUG_clean_linker_0, # of connection points: 2
#     Edge 39, Type (0, 0), BuildingBlock: OJICUG_clean_linker_0, # of connection points: 2
#     Edge 40, Type (0, 0), BuildingBlock: OJICUG_clean_linker_0, # of connection points: 2
#     Edge 41, Type (0, 0), BuildingBlock: OJICUG_clean_linker_0, # of connection points: 2
#     Edge 42, Type (0, 0), BuildingBlock: OJICUG_clean_linker_0, # of connection points: 2
#     Edge 43, Type (0, 0), BuildingBlock: OJICUG_clean_linker_0, # of connection points: 2
#     Edge 44, Type (0, 0), BuildingBlock: OJICUG_clean_linker_0, # of connection points: 2
#     Edge 45, Type (0, 0), BuildingBlock: OJICUG_clean_linker_0, # of connection points: 2
#     Edge 46, Type (0, 0), BuildingBlock: OJICUG_clean_linker_0, # of connection points: 2
#     Edge 47, Type (0, 0), BuildingBlock: OJICUG_clean_linker_0, # of connection points: 2
#     Edge 48, Type (0, 0), BuildingBlock: OJICUG_clean_linker_0, # of connection points: 2
#     Edge 49, Type (0, 0), BuildingBlock: OJICUG_clean_linker_0, # of connection points: 2
#     Edge 50, Type (0, 0), BuildingBlock: OJICUG_clean_linker_0, # of connection points: 2
#     Edge 51, Type (0, 0), BuildingBlock: OJICUG_clean_linker_0, # of connection points: 2
#     Edge 52, Type (0, 0), BuildingBlock: OJICUG_clean_linker_0, # of connection points: 2
#     Edge 53, Type (0, 0), BuildingBlock: OJICUG_clean_linker_0, # of connection points: 2
#     Edge 54, Type (0, 0), BuildingBlock: OJICUG_clean_linker_0, # of connection points: 2
#     Edge 55, Type (0, 0), BuildingBlock: OJICUG_clean_linker_0, # of connection points: 2
# Relax obj value: 0.069
# Max RMSD: 0.134
# Mean RMSD: 0.134
data_MOF--net-fob--node1-XOMCOT_clean_sbu_0--edge1-OJICUG_clean_linker_0
_symmetry_space_group_name_H-M    P1
_symmetry_Int_Tables_number       1
_symmetry_cell_setting            triclinic
loop_
_symmetry_equiv_pos_as_xyz
'x, y, z'
_cell_length_a     20.142345
_cell_length_b     50.117565
_cell_length_c     37.772629
_cell_angle_alpha  99.404226
_cell_angle_beta   90.050596
_cell_angle_gamma 89.962651
loop_
_atom_site_label
_atom_site_type_symbol
_atom_site_fract_x
_atom_site_fract_y
_atom_site_fract_z
_atom_type_partial_charge
Co0 Co 0.12118 0.14699 0.46889 0.0
C1 C 0.06913 0.09215 0.46837 0.0
C2 C 0.17051 0.09122 0.4507 0.0
C3 C 0.15028 0.06511 0.45187 0.0
N4 N 0.11947 0.10804 0.46097 0.0
N5 N 0.08662 0.06576 0.46318 0.0
H6 H 0.02116 0.09989 0.478 0.0
H7 H 0.21968 0.09752 0.44411 0.0
C8 C 0.19907 0.16178 0.4071 0.0
O9 O 0.15622 0.18115 0.40455 0.0
N10 N 0.12436 0.18627 0.47776 0.0
C11 C 0.07476 0.20428 0.48609 0.0
C12 C 0.10084 0.22997 0.49076 0.0
C13 C 0.1801 0.20134 0.47905 0.0
N14 N 0.16717 0.22816 0.48591 0.0
C15 C 0.98523 0.15291 0.44998 0.0
C16 C 0.99621 0.13443 0.3773 0.0
C17 C 0.93352 0.14195 0.39175 0.0
C18 C 0.92857 0.15113 0.42861 0.0
C19 C 0.05192 0.13624 0.39987 0.0
N20 N 0.04658 0.14653 0.43562 0.0
H21 H 0.97884 0.15884 0.47847 0.0
H22 H 0.09854 0.12843 0.3886 0.0
H23 H 0.02324 0.19957 0.48931 0.0
H24 H 0.22898 0.19265 0.47395 0.0
O25 O 0.07147 0.14759 0.51237 0.0
O26 O 0.18119 0.14665 0.50919 0.0
O27 O 0.19025 0.14583 0.42986 0.0
C28 C 0.12791 0.14705 0.5288 0.0
H29 H 0.18104 0.04721 0.44629 0.0
H30 H 0.07273 0.24849 0.49752 0.0
H31 H 1.00174 0.12631 0.34907 0.0
H32 H 0.88102 0.15678 0.44101 0.0
Co33 Co 0.11964 0.14783 0.74162 0.0
C34 C 0.06841 0.20281 0.74029 0.0
C35 C 0.17011 0.20348 0.75748 0.0
C36 C 0.15051 0.22957 0.75576 0.0
N37 N 0.11855 0.1868 0.74783 0.0
N38 N 0.0866 0.22912 0.74481 0.0
H39 H 0.02049 0.19517 0.7304 0.0
H40 H 0.21905 0.19709 0.76442 0.0
C41 C 0.19762 0.13413 0.80405 0.0
O42 O 0.15501 0.11479 0.80706 0.0
N43 N 0.1224 0.10851 0.73461 0.0
C44 C 0.07224 0.09043 0.73034 0.0
C45 C 0.09837 0.06477 0.72713 0.0
C46 C 0.17829 0.09343 0.73253 0.0
N47 N 0.1651 0.06668 0.72885 0.0
C48 C 0.98332 0.14317 0.76042 0.0
C49 C 0.99443 0.16214 0.83299 0.0
C50 C 0.93165 0.15471 0.81854 0.0
C51 C 0.92662 0.14535 0.78172 0.0
C52 C 0.0502 0.15993 0.81048 0.0
N53 N 0.04477 0.14935 0.77483 0.0
H54 H 0.9771 0.13668 0.73199 0.0
H55 H 0.09696 0.16757 0.82174 0.0
H56 H 0.02016 0.09502 0.72938 0.0
H57 H 0.2276 0.10207 0.73525 0.0
O58 O 0.07037 0.1462 0.69778 0.0
O59 O 0.18005 0.147 0.70132 0.0
O60 O 0.18845 0.14976 0.78094 0.0
C61 C 0.12699 0.14621 0.68144 0.0
H62 H 0.18124 0.24743 0.76188 0.0
H63 H 0.07019 0.04615 0.72368 0.0
H64 H 1.00005 0.1704 0.86117 0.0
H65 H 0.87905 0.13967 0.76934 0.0
Co66 Co 0.89744 0.89554 0.49113 0.0
C67 C 0.94986 0.95019 0.48933 0.0
C68 C 0.84784 0.95138 0.50599 0.0
C69 C 0.86818 0.97735 0.50418 0.0
N70 N 0.8992 0.93447 0.49683 0.0
N71 N 0.93224 0.97655 0.49354 0.0
H72 H 0.99828 0.94239 0.4806 0.0
H73 H 0.79849 0.94521 0.51248 0.0
C74 C 0.82458 0.88584 0.55692 0.0
O75 O 0.87321 0.86985 0.5635 0.0
N76 N 0.89329 0.85612 0.48431 0.0
C77 C 0.93738 0.83781 0.46792 0.0
C78 C 0.91115 0.81226 0.46583 0.0
C79 C 0.83927 0.8413 0.48971 0.0
N80 N 0.84947 0.81453 0.47965 0.0
C81 C 0.02897 0.88473 0.51471 0.0
C82 C 0.0215 0.9166 0.58152 0.0
C83 C 0.08048 0.90263 0.57127 0.0
C84 C 0.08388 0.88658 0.53745 0.0
C85 C 0.96691 0.91358 0.55818 0.0
N86 N 0.97029 0.89704 0.52558 0.0
H87 H 0.03525 0.87449 0.48771 0.0
H88 H 0.92242 0.9251 0.56597 0.0
H89 H 0.98345 0.84234 0.45572 0.0
H90 H 0.79255 0.84993 0.4999 0.0
O91 O 0.94911 0.89368 0.44803 0.0
O92 O 0.83902 0.89474 0.4503 0.0
O93 O 0.82751 0.89799 0.52975 0.0
C94 C 0.89291 0.89397 0.43111 0.0
H95 H 0.83737 0.99527 0.50899 0.0
H96 H 0.93432 0.79358 0.45336 0.0
H97 H 0.01783 0.9298 0.60718 0.0
H98 H 0.12965 0.87646 0.52806 0.0
Co99 Co 0.89755 0.89854 0.21957 0.0
C100 C 0.94892 0.84368 0.21953 0.0
C101 C 0.84766 0.84287 0.20157 0.0
C102 C 0.86754 0.81676 0.20307 0.0
N103 N 0.89885 0.85961 0.21182 0.0
N104 N 0.93109 0.81735 0.21459 0.0
H105 H 0.99692 0.85134 0.22923 0.0
H106 H 0.79861 0.84924 0.1948 0.0
C107 C 0.82215 0.9122 0.15636 0.0
O108 O 0.86914 0.92949 0.15177 0.0
N109 N 0.89425 0.93782 0.22812 0.0
C110 C 0.94242 0.95607 0.239 0.0
C111 C 0.9156 0.98168 0.24297 0.0
C112 C 0.83854 0.95264 0.22713 0.0
N113 N 0.85041 0.97941 0.23512 0.0
C114 C 0.03252 0.9055 0.19972 0.0
C115 C 0.02154 0.88374 0.12796 0.0
C116 C 0.08375 0.89272 0.1417 0.0
C117 C 0.08885 0.90346 0.17812 0.0
C118 C 0.96631 0.88574 0.15081 0.0
N119 N 0.97146 0.89779 0.18593 0.0
H120 H 0.0391 0.91235 0.22801 0.0
H121 H 0.92009 0.87683 0.14037 0.0
H122 H 0.99322 0.95157 0.2446 0.0
H123 H 0.78988 0.94396 0.22098 0.0
O124 O 0.94835 0.8991 0.26277 0.0
O125 O 0.8385 0.89836 0.26013 0.0
O126 O 0.82756 0.8976 0.18098 0.0
C127 C 0.8922 0.89854 0.27943 0.0
H128 H 0.8366 0.79891 0.19763 0.0
H129 H 0.94219 1.0005 0.25062 0.0
H130 H 0.01616 0.87438 0.10016 0.0
H131 H 0.13629 0.91006 0.18998 0.0
Co132 Co 0.11936 0.65171 0.97122 0.0
C133 C 0.06699 0.59692 0.97199 0.0
C134 C 0.16882 0.59586 0.95503 0.0
C135 C 0.14855 0.56983 0.95655 0.0
N136 N 0.11753 0.61273 0.96457 0.0
N137 N 0.08462 0.57055 0.96739 0.0
H138 H 0.01868 0.60467 -0.01898 0.0
H139 H 0.21813 0.60209 0.94857 0.0
C140 C 0.19308 0.66225 0.90606 0.0
O141 O 0.14443 0.67829 0.89965 0.0
N142 N 0.12355 0.69115 0.97906 0.0
C143 C 0.07993 0.70914 -0.00349 0.0
C144 C 0.10612 0.73474 -0.00051 0.0
C145 C 0.17731 0.70617 0.97385 0.0
N146 N 0.16743 0.73287 -0.01494 0.0
C147 C 0.98865 0.66324 0.94721 0.0
C148 C 0.99624 0.63143 0.88036 0.0
C149 C 0.93735 0.64547 0.89055 0.0
C150 C 0.93394 0.66154 0.92435 0.0
C151 C 0.05067 0.63429 0.90381 0.0
N152 N 0.04715 0.65072 0.93648 0.0
H153 H 0.98228 0.6735 0.97418 0.0
H154 H 0.09511 0.62272 0.89606 0.0
H155 H 0.03409 0.70431 0.00872 0.0
H156 H 0.22427 0.69763 0.96391 0.0
O157 O 0.06682 0.65296 0.01394 0.0
O158 O 0.17697 0.65193 0.01221 0.0
O159 O 0.18995 0.6498 0.93296 0.0
C160 C 0.12272 0.65244 0.03108 0.0
H161 H 0.17938 0.55193 0.95148 0.0
H162 H 0.08217 0.75317 0.01216 0.0
H163 H 0.99994 0.61825 0.85468 0.0
H164 H 0.88824 0.67176 0.93367 0.0
Co165 Co 0.1193 0.64717 0.24224 0.0
C166 C 0.06637 0.70192 0.24215 0.0
C167 C 0.1681 0.70304 0.25938 0.0
C168 C 0.14765 0.72906 0.2579 0.0
N169 N 0.11696 0.68614 0.24963 0.0
N170 N 0.0838 0.72828 0.24686 0.0
H171 H 0.01824 0.69412 0.23284 0.0
H172 H 0.21747 0.69683 0.26583 0.0
C173 C 0.19233 0.63684 0.30786 0.0
O174 O 0.1434 0.62102 0.31445 0.0
N175 N 0.12405 0.60771 0.23346 0.0
C176 C 0.08263 0.59008 0.2135 0.0
C177 C 0.10901 0.56447 0.20998 0.0
C178 C 0.17698 0.59253 0.23971 0.0
N179 N 0.16837 0.56605 0.22659 0.0
C180 C 0.98997 0.63378 0.26641 0.0
C181 C 0.99444 0.66709 0.3323 0.0
C182 C 0.93679 0.65209 0.32236 0.0
C183 C 0.93506 0.6352 0.28908 0.0
C184 C 0.04915 0.66451 0.3091 0.0
N185 N 0.04707 0.64753 0.27681 0.0
H186 H 0.98487 0.6226 0.23985 0.0
H187 H 0.09271 0.67668 0.31675 0.0
H188 H 0.03855 0.59534 0.19992 0.0
H189 H 0.22223 0.60074 0.25233 0.0
O190 O 0.06673 0.64638 0.19955 0.0
O191 O 0.17689 0.64758 0.20144 0.0
O192 O 0.18976 0.64887 0.28058 0.0
C193 C 0.12264 0.6472 0.18254 0.0
H194 H 0.17837 0.74698 0.26302 0.0
H195 H 0.08775 0.54635 0.19466 0.0
H196 H 0.99702 0.68076 0.35763 0.0
H197 H 0.89045 0.62407 0.27998 0.0
Co198 Co 0.89651 0.39987 -0.00808 0.0
C199 C 0.94874 0.45473 -0.00733 0.0
C200 C 0.84764 0.45565 0.01079 0.0
C201 C 0.86784 0.48177 0.0097 0.0
N202 N 0.89852 0.43882 0.0002 0.0
N203 N 0.93132 0.48114 -0.0019 0.0
H204 H 0.99655 0.447 -0.01724 0.0
H205 H 0.79855 0.44936 0.01753 0.0
C206 C 0.8192 0.38494 0.05383 0.0
O207 O 0.86223 0.36559 0.05623 0.0
N208 N 0.89298 0.36058 -0.01733 0.0
C209 C 0.9423 0.34256 0.9736 0.0
C210 C 0.91615 0.31688 0.96897 0.0
C211 C 0.83725 0.34553 -0.01818 0.0
N212 N 0.85002 0.3187 0.97458 0.0
C213 C 0.03243 0.39345 0.01048 0.0
C214 C 0.02219 0.41171 0.08325 0.0
C215 C 0.08462 0.40393 0.06864 0.0
C216 C 0.0892 0.39488 0.03173 0.0
C217 C 0.96635 0.41023 0.06079 0.0
N218 N 0.9713 0.40003 0.02501 0.0
H219 H 0.03861 0.38766 -0.01804 0.0
H220 H 0.91996 0.4182 0.07219 0.0
H221 H 0.99364 0.34725 0.9698 0.0
H222 H 0.78853 0.35424 -0.01254 0.0
O223 O 0.94602 0.39945 0.94843 0.0
O224 O 0.83632 0.40051 0.95175 0.0
O225 O 0.82767 0.4009 0.03107 0.0
C226 C 0.88955 0.40016 0.9321 0.0
H227 H 0.83713 0.49967 0.0155 0.0
H228 H 0.94409 0.29837 0.9617 0.0
H229 H 0.01697 0.41975 0.11152 0.0
H230 H 0.13654 0.38905 0.0192 0.0
Co231 Co 0.8978 0.40011 0.71945 0.0
C232 C 0.94906 0.34513 0.72077 0.0
C233 C 0.84736 0.34446 0.70357 0.0
C234 C 0.86698 0.31837 0.70528 0.0
N235 N 0.89891 0.36114 0.71322 0.0
N236 N 0.93088 0.31881 0.71624 0.0
H237 H 0.99697 0.35277 0.73067 0.0
H238 H 0.79843 0.35084 0.69663 0.0
C239 C 0.81961 0.41386 0.65712 0.0
O240 O 0.86206 0.43327 0.65416 0.0
N241 N 0.89501 0.43942 0.72647 0.0
C242 C 0.94516 0.45751 0.73048 0.0
C243 C 0.91894 0.48317 0.73382 0.0
C244 C 0.83908 0.45449 0.72883 0.0
N245 N 0.8522 0.48124 0.73244 0.0
C246 C 0.03412 0.40471 0.70063 0.0
C247 C 0.02293 0.3857 0.62808 0.0
C248 C 0.08577 0.39304 0.64251 0.0
C249 C 0.09084 0.40244 0.67932 0.0
C250 C 0.96716 0.38802 0.65058 0.0
N251 N 0.97265 0.39859 0.68623 0.0
H252 H 0.04036 0.41124 0.72905 0.0
H253 H 0.92034 0.38044 0.63932 0.0
H254 H 0.99728 0.45294 0.73114 0.0
H255 H 0.78977 0.44584 0.72633 0.0
O256 O 0.94707 0.40173 0.76329 0.0
O257 O 0.83739 0.40091 0.75975 0.0
O258 O 0.82897 0.39818 0.68016 0.0
C259 C 0.89045 0.40169 0.77962 0.0
H260 H 0.83626 0.3005 0.69915 0.0
H261 H 0.94708 0.5018 0.73711 0.0
H262 H 0.01727 0.37743 0.5999 0.0
H263 H 0.13844 0.40806 0.6917 0.0
Co264 Co 0.61913 0.15146 0.97002 0.0
C265 C 0.56633 0.09673 0.97091 0.0
C266 C 0.66835 0.09559 0.95427 0.0
C267 C 0.64793 0.06959 0.9558 0.0
N268 N 0.61704 0.11249 0.96359 0.0
N269 N 0.58387 0.07036 0.96643 0.0
H270 H 0.51797 0.10452 0.97977 0.0
H271 H 0.71776 0.10178 0.94792 0.0
C272 C 0.69211 0.16129 0.90427 0.0
O273 O 0.64328 0.17717 0.89762 0.0
N274 N 0.62369 0.19091 0.97766 0.0
C275 C 0.58081 0.20903 -0.00442 0.0
C276 C 0.607 0.23462 -0.00204 0.0
C277 C 0.6772 0.20583 0.97167 0.0
N278 N 0.66761 0.23252 -0.01719 0.0
C279 C 0.4888 0.16356 0.94591 0.0
C280 C 0.49489 0.13073 0.87973 0.0
C281 C 0.43656 0.14525 0.8897 0.0
C282 C 0.43394 0.16185 0.92315 0.0
C283 C 0.54951 0.13361 0.90304 0.0
N284 N 0.54672 0.15048 0.9354 0.0
H285 H 0.48302 0.17434 0.97265 0.0
H286 H 0.59354 0.12172 0.89544 0.0
H287 H 0.53573 0.20427 0.00859 0.0
H288 H 0.72332 0.19734 0.96044 0.0
O289 O 0.5668 0.15288 0.01285 0.0
O290 O 0.67693 0.15169 0.01094 0.0
O291 O 0.68944 0.14928 0.93158 0.0
C292 C 0.62277 0.15227 0.02991 0.0
H293 H 0.67872 0.05166 0.95086 0.0
H294 H 0.58472 0.25316 0.01154 0.0
H295 H 0.49803 0.11718 0.85432 0.0
H296 H 0.38871 0.17251 0.93231 0.0
Co297 Co 0.61992 0.14653 0.24099 0.0
C298 C 0.56786 0.20139 0.24071 0.0
C299 C 0.66974 0.20225 0.25764 0.0
C300 C 0.64969 0.22832 0.25614 0.0
N301 N 0.61827 0.18549 0.24809 0.0
N302 N 0.58574 0.22771 0.2453 0.0
H303 H 0.51952 0.19372 0.2316 0.0
H304 H 0.71905 0.19592 0.26401 0.0
C305 C 0.69365 0.1357 0.30612 0.0
O306 O 0.64497 0.11969 0.31249 0.0
N307 N 0.62401 0.1071 0.23271 0.0
C308 C 0.58061 0.08921 0.21485 0.0
C309 C 0.60672 0.06358 0.21182 0.0
C310 C 0.67759 0.09201 0.23809 0.0
N311 N 0.66776 0.06536 0.22664 0.0
C312 C 0.48932 0.13474 0.26476 0.0
C313 C 0.49655 0.16627 0.33182 0.0
C314 C 0.43785 0.15213 0.32148 0.0
C315 C 0.43463 0.13621 0.28756 0.0
C316 C 0.55099 0.16363 0.30841 0.0
N317 N 0.54767 0.14733 0.27563 0.0
H318 H 0.48309 0.12456 0.23774 0.0
H319 H 0.59532 0.17523 0.31631 0.0
H320 H 0.535 0.09415 0.20245 0.0
H321 H 0.72445 0.10048 0.24832 0.0
O322 O 0.56735 0.14563 0.19827 0.0
O323 O 0.67748 0.14656 0.20006 0.0
O324 O 0.69052 0.14817 0.27925 0.0
C325 C 0.62321 0.14625 0.18119 0.0
H326 H 0.68071 0.24616 0.26115 0.0
H327 H 0.58293 0.0452 0.19887 0.0
H328 H 0.50014 0.17932 0.3576 0.0
H329 H 0.3891 0.12592 0.27813 0.0
Co330 Co 0.3968 0.89975 -0.008 0.0
C331 C 0.44796 0.95465 -0.0082 0.0
C332 C 0.34653 0.95542 0.00937 0.0
C333 C 0.36639 0.98154 0.008 0.0
N334 N 0.39784 0.93869 -0.0007 0.0
N335 N 0.43008 0.98099 -0.00325 0.0
H336 H 0.49612 0.947 -0.01765 0.0
H337 H 0.29748 0.94904 0.01606 0.0
C338 C 0.32207 0.88628 0.05537 0.0
O339 O 0.36911 0.86898 0.05997 0.0
N340 N 0.39379 0.86046 -0.01609 0.0
C341 C 0.44224 0.8422 0.97361 0.0
C342 C 0.41558 0.81657 0.96976 0.0
C343 C 0.33811 0.84561 -0.01525 0.0
N344 N 0.35022 0.81883 0.97714 0.0
C345 C 0.53225 0.89318 0.01165 0.0
C346 C 0.52152 0.91476 0.08349 0.0
C347 C 0.58375 0.90584 0.0697 0.0
C348 C 0.58872 0.89522 0.03324 0.0
C349 C 0.46617 0.91277 0.06066 0.0
N350 N 0.47119 0.90077 0.02551 0.0
H351 H 0.53866 0.88633 -0.01665 0.0
H352 H 0.41994 0.92161 0.07117 0.0
H353 H 0.49317 0.8467 0.96837 0.0
H354 H 0.28933 0.85429 -0.00946 0.0
O355 O 0.44687 0.89891 0.94858 0.0
O356 O 0.33706 0.89957 0.95157 0.0
O357 O 0.32735 0.90088 0.03076 0.0
C358 C 0.39043 0.89922 0.93205 0.0
H359 H 0.3354 0.99938 0.01344 0.0
H360 H 0.44241 0.79775 0.96253 0.0
H361 H 0.5162 0.92404 0.11132 0.0
H362 H 0.63614 0.88867 0.02134 0.0
Co363 Co 0.39726 0.89991 0.71956 0.0
C364 C 0.44874 0.84497 0.72075 0.0
C365 C 0.34705 0.84421 0.70353 0.0
C366 C 0.36677 0.81814 0.70529 0.0
N367 N 0.39852 0.86093 0.71317 0.0
N368 N 0.43067 0.81864 0.71626 0.0
H369 H 0.49658 0.85265 0.7307 0.0
H370 H 0.29807 0.85055 0.69661 0.0
C371 C 0.319 0.91371 0.65728 0.0
O372 O 0.36164 0.93305 0.65429 0.0
N373 N 0.39439 0.93923 0.72676 0.0
C374 C 0.44451 0.95732 0.7311 0.0
C375 C 0.41834 0.98298 0.73437 0.0
C376 C 0.33847 0.9543 0.72888 0.0
N377 N 0.35162 0.98105 0.73262 0.0
C378 C 0.53343 0.90466 0.70064 0.0
C379 C 0.52216 0.88556 0.62812 0.0
C380 C 0.58499 0.89293 0.64254 0.0
C381 C 0.5901 0.90238 0.67933 0.0
C382 C 0.46642 0.88788 0.65064 0.0
N383 N 0.47195 0.89849 0.68627 0.0
H384 H 0.53974 0.91117 0.72906 0.0
H385 H 0.41961 0.88025 0.63942 0.0
H386 H 0.4966 0.95275 0.73204 0.0
H387 H 0.28916 0.94565 0.72612 0.0
O388 O 0.44684 0.90142 0.76328 0.0
O389 O 0.33714 0.90057 0.75996 0.0
O390 O 0.32822 0.89804 0.68035 0.0
C391 C 0.39037 0.90127 0.77971 0.0
H392 H 0.33611 0.80025 0.69923 0.0
H393 H 0.44649 1.00161 0.73786 0.0
H394 H 0.5165 0.87726 0.59995 0.0
H395 H 0.63771 0.90802 0.69168 0.0
Co396 Co 0.62056 0.6473 0.47009 0.0
C397 C 0.56878 0.59236 0.46935 0.0
C398 C 0.67019 0.59161 0.45177 0.0
C399 C 0.65017 0.56546 0.45279 0.0
N400 N 0.619 0.60835 0.46206 0.0
N401 N 0.58649 0.56599 0.46405 0.0
H402 H 0.52073 0.60001 0.47896 0.0
H403 H 0.71934 0.59799 0.44526 0.0
C404 C 0.69807 0.66209 0.40814 0.0
O405 O 0.65525 0.6815 0.40566 0.0
N406 N 0.62368 0.68658 0.47904 0.0
C407 C 0.5741 0.70459 0.48749 0.0
C408 C 0.60013 0.73029 0.49208 0.0
C409 C 0.67939 0.70167 0.48018 0.0
N410 N 0.66641 0.72848 0.48707 0.0
C411 C 0.48454 0.6533 0.45141 0.0
C412 C 0.49506 0.63497 0.37867 0.0
C413 C 0.4325 0.64258 0.39324 0.0
C414 C 0.42779 0.65168 0.43014 0.0
C415 C 0.55089 0.63665 0.40116 0.0
N416 N 0.54578 0.64687 0.43693 0.0
H417 H 0.47831 0.65917 0.47992 0.0
H418 H 0.59741 0.6288 0.38979 0.0
H419 H 0.52263 0.69987 0.49085 0.0
H420 H 0.72826 0.693 0.47493 0.0
O421 O 0.57103 0.64781 0.5136 0.0
O422 O 0.68073 0.64692 0.51032 0.0
O423 O 0.68941 0.64619 0.43096 0.0
C424 C 0.62751 0.64726 0.52997 0.0
H425 H 0.6811 0.54761 0.44717 0.0
H426 H 0.57206 0.74881 0.49891 0.0
H427 H 0.50041 0.6269 0.35042 0.0
H428 H 0.38037 0.65741 0.44263 0.0
Co429 Co 0.61983 0.64803 0.7428 0.0
C430 C 0.56855 0.70295 0.74124 0.0
C431 C 0.67026 0.70372 0.75844 0.0
C432 C 0.65058 0.72978 0.75657 0.0
N433 N 0.61874 0.687 0.74888 0.0
N434 N 0.58667 0.72927 0.74562 0.0
H435 H 0.52067 0.69527 0.73137 0.0
H436 H 0.71922 0.69738 0.76541 0.0
C437 C 0.6983 0.63436 0.80505 0.0
O438 O 0.65577 0.615 0.80813 0.0
N439 N 0.62252 0.60873 0.73591 0.0
C440 C 0.57232 0.59067 0.73206 0.0
C441 C 0.59847 0.565 0.72873 0.0
C442 C 0.67841 0.59363 0.73349 0.0
N443 N 0.66523 0.56689 0.72997 0.0
C444 C 0.48356 0.64358 0.76187 0.0
C445 C 0.49525 0.66263 0.83439 0.0
C446 C 0.43231 0.65535 0.82008 0.0
C447 C 0.42697 0.64594 0.78328 0.0
C448 C 0.55088 0.66026 0.81178 0.0
N449 N 0.54515 0.64966 0.77615 0.0
H450 H 0.47715 0.63702 0.73347 0.0
H451 H 0.59778 0.66782 0.82295 0.0
H452 H 0.5202 0.59527 0.73149 0.0
H453 H 0.72775 0.60227 0.73587 0.0
O454 O 0.57036 0.64633 0.699 0.0
O455 O 0.68005 0.64713 0.70241 0.0
O456 O 0.68887 0.65002 0.782 0.0
C457 C 0.62692 0.64631 0.68259 0.0
H458 H 0.68127 0.74766 0.76259 0.0
H459 H 0.57027 0.54639 0.72554 0.0
H460 H 0.50111 0.6709 0.86256 0.0
H461 H 0.37926 0.64036 0.771 0.0
Co462 Co 0.39846 0.39528 0.49087 0.0
C463 C 0.45067 0.45004 0.48938 0.0
C464 C 0.3485 0.45104 0.50576 0.0
C465 C 0.36867 0.47705 0.50411 0.0
N466 N 0.40006 0.43422 0.49669 0.0
N467 N 0.43282 0.47637 0.49366 0.0
H468 H 0.49922 0.44233 0.48076 0.0
H469 H 0.29913 0.44479 0.51208 0.0
C470 C 0.32529 0.38574 0.55669 0.0
O471 O 0.37406 0.36988 0.56349 0.0
N472 N 0.39435 0.35584 0.48389 0.0
C473 C 0.43786 0.33762 0.46674 0.0
C474 C 0.41163 0.31204 0.46451 0.0
C475 C 0.34057 0.34098 0.48958 0.0
N476 N 0.35046 0.31424 0.47897 0.0
C477 C 0.52922 0.38399 0.51502 0.0
C478 C 0.52219 0.41666 0.58128 0.0
C479 C 0.58089 0.4024 0.57134 0.0
C480 C 0.58403 0.38591 0.53782 0.0
C481 C 0.46765 0.41357 0.55791 0.0
N482 N 0.47089 0.39672 0.52555 0.0
H483 H 0.53535 0.37335 0.48823 0.0
H484 H 0.42333 0.42528 0.56546 0.0
H485 H 0.48339 0.34226 0.45409 0.0
H486 H 0.2941 0.34955 0.50022 0.0
O487 O 0.45078 0.39353 0.44799 0.0
O488 O 0.34064 0.39452 0.44984 0.0
O489 O 0.32811 0.39766 0.52931 0.0
C490 C 0.39481 0.39379 0.43086 0.0
H491 H 0.33768 0.49493 0.50891 0.0
H492 H 0.43432 0.29343 0.45143 0.0
H493 H 0.51868 0.43015 0.60672 0.0
H494 H 0.62957 0.37549 0.52867 0.0
Co495 Co 0.39767 0.39824 0.21944 0.0
C496 C 0.45037 0.34337 0.21894 0.0
C497 C 0.34854 0.34245 0.20192 0.0
C498 C 0.36882 0.31637 0.20317 0.0
N499 N 0.39984 0.35926 0.21168 0.0
N500 N 0.43273 0.31702 0.21408 0.0
H501 H 0.49858 0.35109 0.22822 0.0
H502 H 0.29916 0.34875 0.19562 0.0
C503 C 0.32476 0.40893 0.15395 0.0
O504 O 0.37377 0.42476 0.14753 0.0
N505 N 0.39299 0.43769 0.22856 0.0
C506 C 0.43437 0.45526 0.24867 0.0
C507 C 0.40799 0.48088 0.25238 0.0
C508 C 0.34007 0.45292 0.22243 0.0
N509 N 0.34865 0.47936 0.23576 0.0
C510 C 0.52696 0.4118 0.19543 0.0
C511 C 0.52261 0.37887 0.12926 0.0
C512 C 0.58015 0.39391 0.13933 0.0
C513 C 0.58182 0.4106 0.17276 0.0
C514 C 0.46793 0.38123 0.15248 0.0
N515 N 0.46993 0.39804 0.18491 0.0
H516 H 0.53204 0.42283 0.22208 0.0
H517 H 0.42443 0.36905 0.14472 0.0
H518 H 0.47843 0.44993 0.26222 0.0
H519 H 0.29483 0.44476 0.20974 0.0
O520 O 0.45026 0.39879 0.26207 0.0
O521 O 0.3401 0.39766 0.26022 0.0
O522 O 0.32722 0.39676 0.18112 0.0
C523 C 0.39438 0.39795 0.27909 0.0
H524 H 0.33794 0.2985 0.198 0.0
H525 H 0.42922 0.49895 0.26783 0.0
H526 H 0.5201 0.36534 0.10381 0.0
H527 H 0.62636 0.42174 0.18196 0.0
C528 C 0.19079 0.27616 0.48196 0.0
C529 C 0.21355 0.25013 0.48539 0.0
H530 H 0.21618 0.31675 0.4768 0.0
C531 C 0.28249 0.2458 0.487 0.0
H532 H 0.13842 0.28037 0.47997 0.0
C533 C 0.32722 0.26677 0.48477 0.0
C534 C 0.30424 0.29266 0.48121 0.0
H535 H 0.30232 0.22628 0.49015 0.0
H536 H 0.37989 0.26281 0.4863 0.0
C537 C 0.23553 0.29715 0.48004 0.0
C538 C 0.02359 0.99493 0.46092 0.0
C539 C 0.97182 0.99898 0.48617 0.0
H540 H 0.09972 1.01302 0.43328 0.0
C541 C 0.95845 0.02539 0.50365 0.0
H542 H 0.03452 0.97494 0.44651 0.0
C543 C 0.9958 0.04724 0.49604 0.0
C544 C 0.04745 0.04324 0.4707 0.0
H545 H 0.91962 0.02917 0.52362 0.0
H546 H 0.98481 0.0672 0.51053 0.0
C547 C 0.06092 1.0168 0.45326 0.0
C548 C 0.27863 0.04784 0.71961 0.0
C549 C 0.21205 0.04496 0.72941 0.0
H550 H 0.37482 0.0298 0.71251 0.0
C551 C 0.19238 1.02071 0.74056 0.0
H552 H 0.2954 0.06605 0.71045 0.0
C553 C 0.23808 0.99988 0.74185 0.0
C554 C 0.30466 1.00276 0.73206 0.0
H555 H 0.14189 1.01792 0.74896 0.0
H556 H 0.22132 0.98167 0.75101 0.0
C557 C 0.32433 0.02702 0.72091 0.0
C558 C 0.93956 0.27279 0.73189 0.0
C559 C 0.9702 0.29615 0.72334 0.0
H560 H 0.95231 0.23345 0.74597 0.0
C561 C 0.0399 0.29704 0.72208 0.0
H562 H 0.8861 0.27153 0.73373 0.0
C563 C 0.07793 0.27515 0.72916 0.0
C564 C 0.04728 0.25179 0.73771 0.0
H565 H 0.06518 0.31449 0.71508 0.0
H566 H 0.13139 0.27642 0.72732 0.0
C567 C 0.97759 0.2509 0.73897 0.0
C568 C 0.73458 0.79731 0.48025 0.0
C569 C 0.80328 0.79295 0.48199 0.0
H570 H 0.63753 0.7804 0.47985 0.0
C571 C 0.82628 0.7672 0.48625 0.0
H572 H 0.71525 0.8168 0.47648 0.0
C573 C 0.78158 0.74624 0.48858 0.0
C574 C 0.71269 0.75044 0.48641 0.0
H575 H 0.87892 0.76335 0.48824 0.0
H576 H 0.80135 0.72683 0.49228 0.0
C577 C 0.68989 0.77633 0.4823 0.0
C578 C 0.81064 0.02593 0.25619 0.0
C579 C 0.80381 1.00096 0.23349 0.0
H580 H 0.77198 0.06572 0.2725 0.0
C581 C 0.75154 0.99746 0.20852 0.0
H582 H 0.85003 0.02908 0.27595 0.0
C583 C 0.70722 1.01853 0.20614 0.0
C584 C 0.71382 0.04359 0.22886 0.0
H585 H 0.74574 0.97859 0.19022 0.0
H586 H 0.6685 1.01521 0.18607 0.0
C587 C 0.76597 0.04696 0.25406 0.0
C588 C 0.95676 0.76843 0.20511 0.0
C589 C 0.9698 0.79487 0.22262 0.0
H590 H 0.98317 0.7266 0.19872 0.0
C591 C 0.02055 0.79893 0.24853 0.0
H592 H 0.91863 0.76464 0.18471 0.0
C593 C 0.05747 0.77711 0.25663 0.0
C594 C 0.04455 0.75068 0.23907 0.0
H595 H 0.03111 0.81892 0.26306 0.0
H596 H 0.09563 0.78091 0.27701 0.0
C597 C 0.99368 0.7466 0.21323 0.0
C598 C 0.2508 0.80085 0.00321 0.0
C599 C 0.30366 0.79726 0.97865 0.0
H600 H 0.16728 0.78319 0.02521 0.0
C601 C 0.31109 0.77218 0.95625 0.0
H602 H 0.24452 0.8198 0.02128 0.0
C603 C 0.2664 0.75115 0.95825 0.0
C604 C 0.21362 0.75461 -0.01699 0.0
H605 H 0.35095 0.76895 0.93681 0.0
H606 H 0.2729 0.7323 0.94003 0.0
C607 C 0.20648 0.77977 0.00545 0.0
C608 C 0.957 0.5301 0.00813 0.0
C609 C 0.97028 0.50369 -0.00949 0.0
H610 H 0.98323 0.57197 0.01495 0.0
C611 C 0.02148 0.49978 0.96489 0.0
H612 H 0.91856 0.53382 0.02833 0.0
C613 C 0.05853 0.52168 0.95718 0.0
C614 C 0.04531 0.54806 0.97483 0.0
H615 H 0.03232 0.47985 0.95026 0.0
H616 H 0.09702 0.51797 0.937 0.0
C617 C 0.99402 0.55201 0.00038 0.0
C618 C 0.19062 0.51757 0.22678 0.0
C619 C 0.21402 0.54418 0.22873 0.0
H620 H 0.21447 0.47624 0.2282 0.0
C621 C 0.2825 0.54907 0.23324 0.0
H622 H 0.13813 0.51314 0.22394 0.0
C623 C 0.3264 0.52786 0.23572 0.0
C624 C 0.303 0.50125 0.23373 0.0
H625 H 0.30256 0.56919 0.23428 0.0
H626 H 0.3789 0.53228 0.23856 0.0
C627 C 0.23453 0.49636 0.22925 0.0
C628 C 0.78235 0.24961 0.98048 0.0
C629 C 0.71358 0.25415 0.98032 0.0
H630 H 0.87932 0.26634 0.97942 0.0
C631 C 0.69028 0.28013 0.97744 0.0
H632 H 0.80197 0.22993 -0.01683 0.0
C633 C 0.73476 0.30113 0.97487 0.0
C634 C 0.8038 0.29673 0.97545 0.0
H635 H 0.63754 0.28414 0.97668 0.0
H636 H 0.71466 0.32071 0.97227 0.0
C637 C 0.82685 0.27062 0.97822 0.0
C638 C 0.693 0.52092 0.7415 0.0
C639 C 0.71228 0.54517 0.7302 0.0
H640 H 0.72237 0.48189 0.75176 0.0
C641 C 0.77858 0.54803 0.7199 0.0
H642 H 0.64274 0.51815 0.75028 0.0
C643 C 0.8244 0.52719 0.72087 0.0
C644 C 0.80513 0.50295 0.73218 0.0
H645 H 0.79504 0.56622 0.7106 0.0
H646 H 0.87467 0.52996 0.7121 0.0
C647 C 0.73882 0.50009 0.74246 0.0
C648 C 0.5578 1.0215 0.95621 0.0
C649 C 0.54434 0.04789 0.97373 0.0
H650 H 0.53168 0.97965 0.94933 0.0
C651 C 0.49261 0.05187 -0.00098 0.0
H652 H 0.59661 1.01776 0.93622 0.0
C653 C 0.45542 0.02997 0.00666 0.0
C654 C 0.46902 1.00355 -0.0108 0.0
H655 H 0.48161 0.07185 0.01347 0.0
H656 H 0.41665 0.0337 0.02666 0.0
C657 C 0.52061 0.9996 0.96382 0.0
C658 C 0.45844 0.26812 0.20418 0.0
C659 C 0.47186 0.29452 0.22168 0.0
H660 H 0.48449 0.22624 0.1976 0.0
C661 C 0.52319 0.29851 0.24725 0.0
H662 H 0.41989 0.26438 0.18401 0.0
C663 C 0.56015 0.27661 0.25512 0.0
C664 C 0.5467 0.25021 0.23764 0.0
H665 H 0.53409 0.31847 0.26174 0.0
H666 H 0.5987 0.28034 0.27529 0.0
C667 C 0.49539 0.24622 0.21206 0.0
C668 C 0.53975 0.79698 0.72231 0.0
C669 C 0.47005 0.79605 0.72353 0.0
H670 H 0.63131 0.77647 0.72779 0.0
C671 C 0.43948 0.77273 0.73226 0.0
H672 H 0.56497 0.8144 0.71518 0.0
C673 C 0.47759 0.75093 0.73956 0.0
C674 C 0.54728 0.75186 0.73833 0.0
H675 H 0.38602 0.77144 0.73408 0.0
H676 H 0.45236 0.73351 0.74669 0.0
C677 C 0.57786 0.77518 0.72961 0.0
C678 C 0.49571 0.54721 0.49664 0.0
C679 C 0.5475 0.54337 0.47138 0.0
H680 H 0.4196 0.52891 0.524 0.0
C681 C 0.56129 0.51699 0.45384 0.0
H682 H 0.48447 0.56712 0.5112 0.0
C683 C 0.52416 0.49502 0.46133 0.0
C684 C 0.47226 0.4989 0.4865 0.0
H685 H 0.60021 0.51332 0.43391 0.0
H686 H 0.53534 0.47507 0.44684 0.0
C687 C 0.45856 0.52526 0.50408 0.0
C688 C 0.28861 0.18228 0.37435 0.0
C689 C 0.26006 0.15931 0.38512 0.0
H690 H 0.36878 0.19805 0.34649 0.0
C691 C 0.29162 0.13413 0.37579 0.0
H692 H 0.26571 0.20198 0.38156 0.0
C693 C 0.34984 0.13187 0.35537 0.0
C694 C 0.37851 0.15486 0.34481 0.0
H695 H 0.27072 0.11612 0.38381 0.0
H696 H 0.37263 0.11218 0.34785 0.0
C697 C 0.34779 0.18012 0.35468 0.0
C698 C 0.81319 0.14889 0.31643 0.0
C699 C 0.75504 0.13733 0.32799 0.0
H700 H 0.91548 0.15908 0.32732 0.0
C701 C 0.7567 0.1267 0.36015 0.0
H702 H 0.81374 0.15709 0.29161 0.0
C703 C 0.81486 0.12795 0.38056 0.0
C704 C 0.87288 0.13959 0.36909 0.0
H705 H 0.71295 0.11755 0.36973 0.0
H706 H 0.81455 0.11966 0.40532 0.0
C707 C 0.87164 0.14983 0.33666 0.0
C708 C 0.28712 0.11433 0.83771 0.0
C709 C 0.25852 0.13702 0.82614 0.0
H710 H 0.36737 0.09912 0.86618 0.0
C711 C 0.28998 0.16226 0.83475 0.0
H712 H 0.26429 0.09458 0.83107 0.0
C713 C 0.34822 0.16488 0.8552 0.0
C714 C 0.37698 0.14217 0.86652 0.0
H715 H 0.26903 0.18005 0.82612 0.0
H716 H 0.371 0.18462 0.86213 0.0
C717 C 0.3463 0.11684 0.8574 0.0
C718 C 0.81282 0.16856 0.82954 0.0
C719 C 0.87107 0.15715 0.84121 0.0
H720 H 0.7108 0.17881 0.84022 0.0
C721 C 0.8701 0.14716 0.87383 0.0
H722 H 0.81227 0.17664 0.80464 0.0
C723 C 0.81173 0.14815 0.89407 0.0
C724 C 0.75336 0.15949 0.88233 0.0
H725 H 0.9141 0.13807 0.88331 0.0
H726 H 0.81251 0.14017 0.91904 0.0
C727 C 0.75473 0.16983 0.84995 0.0
C728 C 0.70357 0.87876 0.63157 0.0
C729 C 0.64555 0.89033 0.61989 0.0
H730 H 0.80548 0.86827 0.62091 0.0
C731 C 0.64676 0.90035 0.5873 0.0
H732 H 0.70391 0.87066 0.65646 0.0
C733 C 0.70518 0.89924 0.56709 0.0
C734 C 0.76333 0.88775 0.57885 0.0
H735 H 0.60293 0.90955 0.57782 0.0
H736 H 0.70459 0.90725 0.54214 0.0
C737 C 0.76172 0.87737 0.61119 0.0
C738 C 0.22651 0.88563 0.62659 0.0
C739 C 0.25811 0.91085 0.63516 0.0
H740 H 0.14552 0.8633 0.59912 0.0
C741 C 0.22972 0.93352 0.62346 0.0
H742 H 0.24728 0.86784 0.63532 0.0
C743 C 0.17065 0.93103 0.60366 0.0
C744 C 0.13986 0.90572 0.59458 0.0
H745 H 0.25266 0.95326 0.63005 0.0
H746 H 0.14974 0.94873 0.59477 0.0
C747 C 0.16838 0.88303 0.60604 0.0
C748 C 0.70278 0.89905 0.14559 0.0
C749 C 0.76109 0.91061 0.13426 0.0
H750 H 0.60051 0.88894 0.13428 0.0
C751 C 0.75996 0.92123 0.10208 0.0
H752 H 0.70189 0.8909 0.17043 0.0
C753 C 0.70218 0.91987 0.08133 0.0
C754 C 0.64397 0.90828 0.09262 0.0
H755 H 0.80395 0.93035 0.0927 0.0
H756 H 0.70287 0.928 0.05647 0.0
C757 C 0.64461 0.89812 0.12511 0.0
C758 C 0.14455 0.90037 0.08636 0.0
C759 C 0.1439 0.8902 0.11883 0.0
H760 H 0.20187 0.90759 0.04113 0.0
C761 C 0.20207 0.87857 0.13019 0.0
H762 H 0.10046 0.90957 0.07715 0.0
C763 C 0.25988 0.87721 0.10954 0.0
C764 C 0.26104 0.88786 0.07739 0.0
H765 H 0.20272 0.87044 0.15506 0.0
H766 H 0.30386 0.86807 0.11897 0.0
C767 C 0.20274 0.89943 0.06598 0.0
C768 C 0.31252 0.64891 0.89569 0.0
C769 C 0.25434 0.6605 0.88413 0.0
H770 H 0.41467 0.63853 0.8847 0.0
C771 C 0.25585 0.67104 0.8519 0.0
H772 H 0.31318 0.64077 0.92055 0.0
C773 C 0.31387 0.66966 0.83141 0.0
C774 C 0.3719 0.65796 0.84287 0.0
H775 H 0.21208 0.68021 0.84233 0.0
H776 H 0.31343 0.67785 0.80659 0.0
C777 C 0.37082 0.64782 0.87538 0.0
C778 C 0.78812 0.61453 0.83846 0.0
C779 C 0.75935 0.63723 0.82701 0.0
H780 H 0.86854 0.59932 0.86681 0.0
C781 C 0.79076 0.66249 0.83565 0.0
H782 H 0.76533 0.59477 0.83179 0.0
C783 C 0.84907 0.6651 0.85605 0.0
C784 C 0.87794 0.64238 0.86727 0.0
H785 H 0.76968 0.68029 0.82711 0.0
H786 H 0.87176 0.68485 0.86305 0.0
C787 C 0.84736 0.61704 0.85809 0.0
C788 C 0.31211 0.64974 0.31801 0.0
C789 C 0.25373 0.63844 0.32973 0.0
H790 H 0.41463 0.65959 0.3287 0.0
C791 C 0.25522 0.62796 0.362 0.0
H792 H 0.3128 0.65783 0.29312 0.0
C793 C 0.31346 0.62905 0.38232 0.0
C794 C 0.37173 0.64041 0.37069 0.0
H795 H 0.2113 0.61901 0.37171 0.0
H796 H 0.31301 0.62084 0.40714 0.0
C797 C 0.37062 0.65055 0.33817 0.0
C798 C 0.79035 0.63432 0.37677 0.0
C799 C 0.75881 0.65951 0.38595 0.0
H800 H 0.87135 0.61226 0.34898 0.0
C801 C 0.78721 0.6824 0.37488 0.0
H802 H 0.76957 0.61637 0.38502 0.0
C803 C 0.84629 0.68014 0.35513 0.0
C804 C 0.87709 0.65487 0.34545 0.0
H805 H 0.76432 0.70211 0.38196 0.0
H806 H 0.86721 0.69802 0.34676 0.0
C807 C 0.84849 0.63196 0.35628 0.0
C808 C 0.67106 0.36623 0.10639 0.0
C809 C 0.63983 0.39139 0.11622 0.0
H810 H 0.75346 0.34458 0.07954 0.0
C811 C 0.66806 0.41445 0.1056 0.0
H812 H 0.65042 0.34823 0.11459 0.0
C813 C 0.7263 0.41234 0.08519 0.0
C814 C 0.7583 0.38726 0.07589 0.0
H815 H 0.64487 0.43407 0.11303 0.0
H816 H 0.74681 0.4304 0.07711 0.0
C817 C 0.73023 0.36422 0.08673 0.0
C818 C 0.20383 0.41716 0.07958 0.0
C819 C 0.14541 0.40589 0.09117 0.0
H820 H 0.30612 0.42696 0.09022 0.0
C821 C 0.14634 0.39566 0.12362 0.0
H822 H 0.20442 0.42543 0.05482 0.0
C823 C 0.20484 0.39629 0.14376 0.0
C824 C 0.26337 0.4075 0.13209 0.0
H825 H 0.10219 0.38669 0.13305 0.0
H826 H 0.20402 0.38813 0.1686 0.0
C827 C 0.26206 0.41807 0.09989 0.0
C828 C 0.72747 0.38562 0.62641 0.0
C829 C 0.75872 0.41091 0.63503 0.0
H830 H 0.64667 0.36315 0.599 0.0
C831 C 0.72992 0.43356 0.62347 0.0
H832 H 0.74857 0.36785 0.63504 0.0
C833 C 0.67076 0.43097 0.60375 0.0
C834 C 0.64031 0.40559 0.59462 0.0
H835 H 0.75259 0.45334 0.63012 0.0
H836 H 0.64954 0.44865 0.59496 0.0
C837 C 0.66925 0.38293 0.60595 0.0
C838 C 0.20447 0.37896 0.63156 0.0
C839 C 0.14636 0.39044 0.61985 0.0
H840 H 0.30637 0.36847 0.62089 0.0
C841 C 0.14747 0.40031 0.58715 0.0
H842 H 0.20492 0.37096 0.65653 0.0
C843 C 0.20583 0.39913 0.56687 0.0
C844 C 0.26405 0.38772 0.57866 0.0
H845 H 0.10358 0.40945 0.57762 0.0
H846 H 0.20515 0.40703 0.54183 0.0
C847 C 0.26256 0.3775 0.61113 0.0
C848 C 0.06954 0.1454 0.62312 0.0
C849 C 0.12935 0.14594 0.64232 0.0
H850 H 0.02249 0.14534 0.57261 0.0
C851 C 0.18974 0.14665 0.62384 0.0
H852 H 0.02211 0.14484 0.63647 0.0
C853 C 0.18997 0.14695 0.58675 0.0
C854 C 0.1298 0.14659 0.56777 0.0
H855 H 0.2366 0.1471 0.63801 0.0
H856 H 0.237 0.14758 0.57303 0.0
C857 C 0.06977 0.14573 0.58639 0.0
C858 C 0.95118 0.89473 0.37326 0.0
C859 C 0.89131 0.89452 0.39218 0.0
H860 H 0.99817 0.89628 0.32308 0.0
C861 C 0.83094 0.89559 0.37372 0.0
H862 H 0.99854 0.89397 0.38667 0.0
C863 C 0.8307 0.89696 0.33696 0.0
C864 C 0.89082 0.89733 0.3182 0.0
H865 H 0.78401 0.89552 0.38768 0.0
H866 H 0.78363 0.89778 0.32329 0.0
C867 C 0.95094 0.89614 0.33675 0.0
C868 C 0.06364 0.65081 0.08858 0.0
C869 C 0.12371 0.65152 0.06992 0.0
H870 H 0.01637 0.64877 0.13864 0.0
C871 C 0.1839 0.65069 0.08854 0.0
H872 H 0.0164 0.65134 0.07499 0.0
C873 C 0.18388 0.64918 0.12522 0.0
C874 C 0.12366 0.6484 0.14378 0.0
H875 H 0.23096 0.65115 0.0748 0.0
H876 H 0.23092 0.64861 0.13899 0.0
C877 C 0.06362 0.64925 0.12508 0.0
C878 C 0.94763 0.40195 0.87463 0.0
C879 C 0.8876 0.40088 0.89319 0.0
H880 H 0.99529 0.40317 0.82462 0.0
C881 C 0.82743 0.40051 0.87421 0.0
H882 H 0.9949 0.40236 0.88841 0.0
C883 C 0.82767 0.40099 0.83715 0.0
C884 C 0.88806 0.40188 0.81872 0.0
H885 H 0.78042 0.39973 0.88789 0.0
H886 H 0.78082 0.40051 0.82297 0.0
C887 C 0.94785 0.40246 0.83794 0.0
C888 C 0.56404 0.14862 0.12386 0.0
C889 C 0.62413 0.14756 0.14245 0.0
H890 H 0.51664 0.15111 0.07392 0.0
C891 C 0.68429 0.14836 0.12383 0.0
H892 H 0.51683 0.14813 0.13745 0.0
C893 C 0.68418 0.15012 0.08721 0.0
C894 C 0.62392 0.15116 0.0687 0.0
H895 H 0.73138 0.14765 0.13751 0.0
H896 H 0.73119 0.15058 0.07343 0.0
C897 C 0.56393 0.15042 0.08743 0.0
C898 C 0.44832 0.90132 0.83775 0.0
C899 C 0.38835 0.90115 0.81875 0.0
H900 H 0.49572 0.90078 0.88806 0.0
C901 C 0.32809 0.90037 0.83731 0.0
H902 H 0.49566 0.9019 0.82431 0.0
C903 C 0.32814 0.89971 0.87431 0.0
C904 C 0.38845 0.89976 0.89311 0.0
H905 H 0.28113 0.90018 0.82329 0.0
H906 H 0.28119 0.89911 0.88811 0.0
C907 C 0.44837 0.90062 0.8744 0.0
C908 C 0.5695 0.64579 0.58756 0.0
C909 C 0.6295 0.64674 0.56893 0.0
H910 H 0.52194 0.6448 0.63765 0.0
C911 C 0.6897 0.64714 0.58788 0.0
H912 H 0.52221 0.64536 0.5738 0.0
C913 C 0.68954 0.6468 0.62497 0.0
C914 C 0.62918 0.64602 0.64346 0.0
H915 H 0.73669 0.64783 0.57415 0.0
H916 H 0.73642 0.6473 0.63912 0.0
C917 C 0.56935 0.64543 0.62428 0.0
C918 C 0.33328 0.39629 0.33656 0.0
C919 C 0.39344 0.39681 0.31787 0.0
H920 H 0.28637 0.39486 0.38718 0.0
C921 C 0.45353 0.39591 0.33651 0.0
H922 H 0.2862 0.3969 0.32285 0.0
C923 C 0.45363 0.39464 0.37309 0.0
C924 C 0.39364 0.39427 0.39191 0.0
H925 H 0.50075 0.39619 0.32286 0.0
H926 H 0.50092 0.3941 0.38664 0.0
C927 C 0.33338 0.39506 0.37333 0.0
loop_
_geom_bond_atom_site_label_1
_geom_bond_atom_site_label_2
_geom_bond_distance
_geom_bond_site_symmetry_2
_ccdc_geom_bond_type
Co0 N4 2.148 . S
Co0 N10 2.128 . S
Co0 N20 2.194 . S
Co0 O25 2.351 . S
Co0 O26 2.155 . S
Co0 O27 2.096 . S
C1 N4 1.301 . S
C1 N5 1.328 . S
C1 H6 0.930 . S
C2 C3 1.333 . S
C2 N4 1.317 . S
C2 H7 0.930 . S
C3 C2 1.333 . S
C3 N5 1.350 . S
C3 H29 0.931 . S
N4 Co0 2.148 . S
N4 C1 1.301 . S
N4 C2 1.317 . S
N5 C1 1.328 . S
N5 C3 1.350 . S
H6 C1 0.930 . S
H7 C2 0.930 . S
C8 O9 1.224 . S
C8 O27 1.247 . S
O9 C8 1.224 . S
N10 Co0 2.128 . S
N10 C11 1.355 . S
N10 C13 1.311 . S
C11 N10 1.355 . S
C11 C12 1.363 . S
C11 H23 0.929 . S
C12 C11 1.363 . S
C12 N14 1.375 . S
C12 H30 0.931 . S
C13 N10 1.311 . S
C13 N14 1.347 . S
C13 H24 0.929 . S
N14 C12 1.375 . S
N14 C13 1.347 . S
C15 C18 1.365 . S
C15 N20 1.328 1_655 S
C15 H21 0.929 . S
C16 C17 1.362 . S
C16 C19 1.378 1_655 S
C16 H31 0.929 . S
C17 C16 1.362 . S
C17 C18 1.366 . S
C18 C15 1.365 . S
C18 C17 1.366 . S
C18 H32 0.930 . S
C19 C16 1.378 1_455 S
C19 N20 1.315 . S
C19 H22 0.930 . S
N20 Co0 2.194 . S
N20 C15 1.328 1_455 S
N20 C19 1.315 . S
H21 C15 0.929 . S
H22 C19 0.930 . S
H23 C11 0.929 . S
H24 C13 0.929 . S
O25 Co0 2.351 . S
O25 C28 1.244 . S
O26 Co0 2.155 . S
O26 C28 1.240 . S
O27 Co0 2.096 . S
O27 C8 1.247 . S
C28 O25 1.244 . S
C28 O26 1.240 . S
H29 C3 0.931 . S
H30 C12 0.931 . S
H31 C16 0.929 . S
H32 C18 0.930 . S
Co33 N37 2.148 . S
Co33 N43 2.128 . S
Co33 N53 2.194 . S
Co33 O58 2.351 . S
Co33 O59 2.155 . S
Co33 O60 2.096 . S
C34 N37 1.301 . S
C34 N38 1.328 . S
C34 H39 0.930 . S
C35 C36 1.333 . S
C35 N37 1.317 . S
C35 H40 0.930 . S
C36 C35 1.333 . S
C36 N38 1.350 . S
C36 H62 0.931 . S
N37 Co33 2.148 . S
N37 C34 1.301 . S
N37 C35 1.317 . S
N38 C34 1.328 . S
N38 C36 1.350 . S
H39 C34 0.930 . S
H40 C35 0.930 . S
C41 O42 1.224 . S
C41 O60 1.247 . S
O42 C41 1.224 . S
N43 Co33 2.128 . S
N43 C44 1.355 . S
N43 C46 1.311 . S
C44 N43 1.355 . S
C44 C45 1.363 . S
C44 H56 0.929 . S
C45 C44 1.363 . S
C45 N47 1.375 . S
C45 H63 0.931 . S
C46 N43 1.311 . S
C46 N47 1.347 . S
C46 H57 0.929 . S
N47 C45 1.375 . S
N47 C46 1.347 . S
C48 C51 1.365 . S
C48 N53 1.328 1_655 S
C48 H54 0.929 . S
C49 C50 1.362 . S
C49 C52 1.378 1_655 S
C49 H64 0.929 . S
C50 C49 1.362 . S
C50 C51 1.366 . S
C51 C48 1.365 . S
C51 C50 1.366 . S
C51 H65 0.930 . S
C52 C49 1.378 1_455 S
C52 N53 1.315 . S
C52 H55 0.930 . S
N53 Co33 2.194 . S
N53 C48 1.328 1_455 S
N53 C52 1.315 . S
H54 C48 0.929 . S
H55 C52 0.930 . S
H56 C44 0.929 . S
H57 C46 0.929 . S
O58 Co33 2.351 . S
O58 C61 1.244 . S
O59 Co33 2.155 . S
O59 C61 1.240 . S
O60 Co33 2.096 . S
O60 C41 1.247 . S
C61 O58 1.244 . S
C61 O59 1.240 . S
H62 C36 0.931 . S
H63 C45 0.931 . S
H64 C49 0.929 . S
H65 C51 0.930 . S
Co66 N70 2.148 . S
Co66 N76 2.128 . S
Co66 N86 2.194 . S
Co66 O91 2.351 . S
Co66 O92 2.155 . S
Co66 O93 2.096 . S
C67 N70 1.301 . S
C67 N71 1.328 . S
C67 H72 0.930 . S
C68 C69 1.333 . S
C68 N70 1.317 . S
C68 H73 0.930 . S
C69 C68 1.333 . S
C69 N71 1.350 . S
C69 H95 0.931 . S
N70 Co66 2.148 . S
N70 C67 1.301 . S
N70 C68 1.317 . S
N71 C67 1.328 . S
N71 C69 1.350 . S
H72 C67 0.930 . S
H73 C68 0.930 . S
C74 O75 1.224 . S
C74 O93 1.247 . S
O75 C74 1.224 . S
N76 Co66 2.128 . S
N76 C77 1.355 . S
N76 C79 1.311 . S
C77 N76 1.355 . S
C77 C78 1.363 . S
C77 H89 0.929 . S
C78 C77 1.363 . S
C78 N80 1.375 . S
C78 H96 0.931 . S
C79 N76 1.311 . S
C79 N80 1.347 . S
C79 H90 0.929 . S
N80 C78 1.375 . S
N80 C79 1.347 . S
C81 C84 1.365 . S
C81 N86 1.328 1_455 S
C81 H87 0.929 . S
C82 C83 1.362 . S
C82 C85 1.378 1_455 S
C82 H97 0.929 . S
C83 C82 1.362 . S
C83 C84 1.366 . S
C84 C81 1.365 . S
C84 C83 1.366 . S
C84 H98 0.930 . S
C85 C82 1.378 1_655 S
C85 N86 1.315 . S
C85 H88 0.930 . S
N86 Co66 2.194 . S
N86 C81 1.328 1_655 S
N86 C85 1.315 . S
H87 C81 0.929 . S
H88 C85 0.930 . S
H89 C77 0.929 . S
H90 C79 0.929 . S
O91 Co66 2.351 . S
O91 C94 1.244 . S
O92 Co66 2.155 . S
O92 C94 1.240 . S
O93 Co66 2.096 . S
O93 C74 1.247 . S
C94 O91 1.244 . S
C94 O92 1.240 . S
H95 C69 0.931 . S
H96 C78 0.931 . S
H97 C82 0.929 . S
H98 C84 0.930 . S
Co99 N103 2.148 . S
Co99 N109 2.128 . S
Co99 N119 2.194 . S
Co99 O124 2.351 . S
Co99 O125 2.155 . S
Co99 O126 2.096 . S
C100 N103 1.301 . S
C100 N104 1.328 . S
C100 H105 0.930 . S
C101 C102 1.333 . S
C101 N103 1.317 . S
C101 H106 0.930 . S
C102 C101 1.333 . S
C102 N104 1.350 . S
C102 H128 0.931 . S
N103 Co99 2.148 . S
N103 C100 1.301 . S
N103 C101 1.317 . S
N104 C100 1.328 . S
N104 C102 1.350 . S
H105 C100 0.930 . S
H106 C101 0.930 . S
C107 O108 1.224 . S
C107 O126 1.247 . S
O108 C107 1.224 . S
N109 Co99 2.128 . S
N109 C110 1.355 . S
N109 C112 1.311 . S
C110 N109 1.355 . S
C110 C111 1.363 . S
C110 H122 0.929 . S
C111 C110 1.363 . S
C111 N113 1.375 . S
C111 H129 0.931 . S
C112 N109 1.311 . S
C112 N113 1.347 . S
C112 H123 0.929 . S
N113 C111 1.375 . S
N113 C112 1.347 . S
C114 C117 1.365 . S
C114 N119 1.328 1_455 S
C114 H120 0.929 . S
C115 C116 1.362 . S
C115 C118 1.378 1_455 S
C115 H130 0.929 . S
C116 C115 1.362 . S
C116 C117 1.366 . S
C117 C114 1.365 . S
C117 C116 1.366 . S
C117 H131 0.930 . S
C118 C115 1.378 1_655 S
C118 N119 1.315 . S
C118 H121 0.930 . S
N119 Co99 2.194 . S
N119 C114 1.328 1_655 S
N119 C118 1.315 . S
H120 C114 0.929 . S
H121 C118 0.930 . S
H122 C110 0.929 . S
H123 C112 0.929 . S
O124 Co99 2.351 . S
O124 C127 1.244 . S
O125 Co99 2.155 . S
O125 C127 1.240 . S
O126 Co99 2.096 . S
O126 C107 1.247 . S
C127 O124 1.244 . S
C127 O125 1.240 . S
H128 C102 0.931 . S
H129 C111 0.931 . S
H130 C115 0.929 . S
H131 C117 0.930 . S
Co132 N136 2.148 . S
Co132 N142 2.128 . S
Co132 N152 2.194 . S
Co132 O157 2.351 1_556 S
Co132 O158 2.155 1_556 S
Co132 O159 2.096 . S
C133 N136 1.301 . S
C133 N137 1.328 . S
C133 H138 0.930 1_556 S
C134 C135 1.333 . S
C134 N136 1.317 . S
C134 H139 0.930 . S
C135 C134 1.333 . S
C135 N137 1.350 . S
C135 H161 0.931 . S
N136 Co132 2.148 . S
N136 C133 1.301 . S
N136 C134 1.317 . S
N137 C133 1.328 . S
N137 C135 1.350 . S
H138 C133 0.930 1_554 S
H139 C134 0.930 . S
C140 O141 1.224 . S
C140 O159 1.247 . S
O141 C140 1.224 . S
N142 Co132 2.128 . S
N142 C143 1.355 . S
N142 C145 1.311 . S
C143 N142 1.355 . S
C143 C144 1.363 . S
C143 H155 0.929 1_556 S
C144 C143 1.363 . S
C144 N146 1.375 . S
C144 H162 0.931 . S
C145 N142 1.311 . S
C145 N146 1.347 . S
C145 H156 0.929 . S
N146 C144 1.375 . S
N146 C145 1.347 . S
C147 C150 1.365 . S
C147 N152 1.328 1_655 S
C147 H153 0.929 . S
C148 C149 1.362 . S
C148 C151 1.378 1_655 S
C148 H163 0.929 . S
C149 C148 1.362 . S
C149 C150 1.366 . S
C150 C147 1.365 . S
C150 C149 1.366 . S
C150 H164 0.930 . S
C151 C148 1.378 1_455 S
C151 N152 1.315 . S
C151 H154 0.930 . S
N152 Co132 2.194 . S
N152 C147 1.328 1_455 S
N152 C151 1.315 . S
H153 C147 0.929 . S
H154 C151 0.930 . S
H155 C143 0.929 1_554 S
H156 C145 0.929 . S
O157 Co132 2.351 1_554 S
O157 C160 1.244 . S
O158 Co132 2.155 1_554 S
O158 C160 1.240 . S
O159 Co132 2.096 . S
O159 C140 1.247 . S
C160 O157 1.244 . S
C160 O158 1.240 . S
H161 C135 0.931 . S
H162 C144 0.931 . S
H163 C148 0.929 . S
H164 C150 0.930 . S
Co165 N169 2.148 . S
Co165 N175 2.128 . S
Co165 N185 2.194 . S
Co165 O190 2.351 . S
Co165 O191 2.155 . S
Co165 O192 2.096 . S
C166 N169 1.301 . S
C166 N170 1.328 . S
C166 H171 0.930 . S
C167 C168 1.333 . S
C167 N169 1.317 . S
C167 H172 0.930 . S
C168 C167 1.333 . S
C168 N170 1.350 . S
C168 H194 0.931 . S
N169 Co165 2.148 . S
N169 C166 1.301 . S
N169 C167 1.317 . S
N170 C166 1.328 . S
N170 C168 1.350 . S
H171 C166 0.930 . S
H172 C167 0.930 . S
C173 O174 1.224 . S
C173 O192 1.247 . S
O174 C173 1.224 . S
N175 Co165 2.128 . S
N175 C176 1.355 . S
N175 C178 1.311 . S
C176 N175 1.355 . S
C176 C177 1.363 . S
C176 H188 0.929 . S
C177 C176 1.363 . S
C177 N179 1.375 . S
C177 H195 0.931 . S
C178 N175 1.311 . S
C178 N179 1.347 . S
C178 H189 0.929 . S
N179 C177 1.375 . S
N179 C178 1.347 . S
C180 C183 1.365 . S
C180 N185 1.328 1_655 S
C180 H186 0.929 . S
C181 C182 1.362 . S
C181 C184 1.378 1_655 S
C181 H196 0.929 . S
C182 C181 1.362 . S
C182 C183 1.366 . S
C183 C180 1.365 . S
C183 C182 1.366 . S
C183 H197 0.930 . S
C184 C181 1.378 1_455 S
C184 N185 1.315 . S
C184 H187 0.930 . S
N185 Co165 2.194 . S
N185 C180 1.328 1_455 S
N185 C184 1.315 . S
H186 C180 0.929 . S
H187 C184 0.930 . S
H188 C176 0.929 . S
H189 C178 0.929 . S
O190 Co165 2.351 . S
O190 C193 1.244 . S
O191 Co165 2.155 . S
O191 C193 1.240 . S
O192 Co165 2.096 . S
O192 C173 1.247 . S
C193 O190 1.244 . S
C193 O191 1.240 . S
H194 C168 0.931 . S
H195 C177 0.931 . S
H196 C181 0.929 . S
H197 C183 0.930 . S
Co198 N202 2.148 . S
Co198 N208 2.128 . S
Co198 N218 2.194 . S
Co198 O223 2.351 1_554 S
Co198 O224 2.155 1_554 S
Co198 O225 2.096 . S
C199 N202 1.301 . S
C199 N203 1.328 . S
C199 H204 0.930 1_554 S
C200 C201 1.333 . S
C200 N202 1.317 . S
C200 H205 0.930 . S
C201 C200 1.333 . S
C201 N203 1.350 . S
C201 H227 0.931 . S
N202 Co198 2.148 . S
N202 C199 1.301 . S
N202 C200 1.317 . S
N203 C199 1.328 . S
N203 C201 1.350 . S
H204 C199 0.930 1_556 S
H205 C200 0.930 . S
C206 O207 1.224 . S
C206 O225 1.247 . S
O207 C206 1.224 . S
N208 Co198 2.128 . S
N208 C209 1.355 . S
N208 C211 1.311 . S
C209 N208 1.355 . S
C209 C210 1.363 . S
C209 H221 0.929 1_554 S
C210 C209 1.363 . S
C210 N212 1.375 . S
C210 H228 0.931 . S
C211 N208 1.311 . S
C211 N212 1.347 . S
C211 H222 0.929 . S
N212 C210 1.375 . S
N212 C211 1.347 . S
C213 C216 1.365 . S
C213 N218 1.328 1_455 S
C213 H219 0.929 . S
C214 C215 1.362 . S
C214 C217 1.378 1_455 S
C214 H229 0.929 . S
C215 C214 1.362 . S
C215 C216 1.366 . S
C216 C213 1.365 . S
C216 C215 1.366 . S
C216 H230 0.930 . S
C217 C214 1.378 1_655 S
C217 N218 1.315 . S
C217 H220 0.930 . S
N218 Co198 2.194 . S
N218 C213 1.328 1_655 S
N218 C217 1.315 . S
H219 C213 0.929 . S
H220 C217 0.930 . S
H221 C209 0.929 1_556 S
H222 C211 0.929 . S
O223 Co198 2.351 1_556 S
O223 C226 1.244 . S
O224 Co198 2.155 1_556 S
O224 C226 1.240 . S
O225 Co198 2.096 . S
O225 C206 1.247 . S
C226 O223 1.244 . S
C226 O224 1.240 . S
H227 C201 0.931 . S
H228 C210 0.931 . S
H229 C214 0.929 . S
H230 C216 0.930 . S
Co231 N235 2.148 . S
Co231 N241 2.128 . S
Co231 N251 2.194 . S
Co231 O256 2.351 . S
Co231 O257 2.155 . S
Co231 O258 2.096 . S
C232 N235 1.301 . S
C232 N236 1.328 . S
C232 H237 0.930 . S
C233 C234 1.333 . S
C233 N235 1.317 . S
C233 H238 0.930 . S
C234 C233 1.333 . S
C234 N236 1.350 . S
C234 H260 0.931 . S
N235 Co231 2.148 . S
N235 C232 1.301 . S
N235 C233 1.317 . S
N236 C232 1.328 . S
N236 C234 1.350 . S
H237 C232 0.930 . S
H238 C233 0.930 . S
C239 O240 1.224 . S
C239 O258 1.247 . S
O240 C239 1.224 . S
N241 Co231 2.128 . S
N241 C242 1.355 . S
N241 C244 1.311 . S
C242 N241 1.355 . S
C242 C243 1.363 . S
C242 H254 0.929 . S
C243 C242 1.363 . S
C243 N245 1.375 . S
C243 H261 0.931 . S
C244 N241 1.311 . S
C244 N245 1.347 . S
C244 H255 0.929 . S
N245 C243 1.375 . S
N245 C244 1.347 . S
C246 C249 1.365 . S
C246 N251 1.328 1_455 S
C246 H252 0.929 . S
C247 C248 1.362 . S
C247 C250 1.378 1_455 S
C247 H262 0.929 . S
C248 C247 1.362 . S
C248 C249 1.366 . S
C249 C246 1.365 . S
C249 C248 1.366 . S
C249 H263 0.930 . S
C250 C247 1.378 1_655 S
C250 N251 1.315 . S
C250 H253 0.930 . S
N251 Co231 2.194 . S
N251 C246 1.328 1_655 S
N251 C250 1.315 . S
H252 C246 0.929 . S
H253 C250 0.930 . S
H254 C242 0.929 . S
H255 C244 0.929 . S
O256 Co231 2.351 . S
O256 C259 1.244 . S
O257 Co231 2.155 . S
O257 C259 1.240 . S
O258 Co231 2.096 . S
O258 C239 1.247 . S
C259 O256 1.244 . S
C259 O257 1.240 . S
H260 C234 0.931 . S
H261 C243 0.931 . S
H262 C247 0.929 . S
H263 C249 0.930 . S
Co264 N268 2.148 . S
Co264 N274 2.128 . S
Co264 N284 2.194 . S
Co264 O289 2.351 1_556 S
Co264 O290 2.155 1_556 S
Co264 O291 2.096 . S
C265 N268 1.301 . S
C265 N269 1.328 . S
C265 H270 0.930 1_556 S
C266 C267 1.333 . S
C266 N268 1.317 . S
C266 H271 0.930 . S
C267 C266 1.333 . S
C267 N269 1.350 . S
C267 H293 0.931 . S
N268 Co264 2.148 . S
N268 C265 1.301 . S
N268 C266 1.317 . S
N269 C265 1.328 . S
N269 C267 1.350 . S
H270 C265 0.930 1_554 S
H271 C266 0.930 . S
C272 O273 1.224 . S
C272 O291 1.247 . S
O273 C272 1.224 . S
N274 Co264 2.128 . S
N274 C275 1.355 . S
N274 C277 1.311 . S
C275 N274 1.355 . S
C275 C276 1.363 . S
C275 H287 0.929 1_556 S
C276 C275 1.363 . S
C276 N278 1.375 . S
C276 H294 0.931 . S
C277 N274 1.311 . S
C277 N278 1.347 . S
C277 H288 0.929 . S
N278 C276 1.375 . S
N278 C277 1.347 . S
C279 C282 1.365 . S
C279 N284 1.328 . S
C279 H285 0.929 . S
C280 C281 1.362 . S
C280 C283 1.378 . S
C280 H295 0.929 . S
C281 C280 1.362 . S
C281 C282 1.366 . S
C282 C279 1.365 . S
C282 C281 1.366 . S
C282 H296 0.930 . S
C283 C280 1.378 . S
C283 N284 1.315 . S
C283 H286 0.930 . S
N284 Co264 2.194 . S
N284 C279 1.328 . S
N284 C283 1.315 . S
H285 C279 0.929 . S
H286 C283 0.930 . S
H287 C275 0.929 1_554 S
H288 C277 0.929 . S
O289 Co264 2.351 1_554 S
O289 C292 1.244 . S
O290 Co264 2.155 1_554 S
O290 C292 1.240 . S
O291 Co264 2.096 . S
O291 C272 1.247 . S
C292 O289 1.244 . S
C292 O290 1.240 . S
H293 C267 0.931 . S
H294 C276 0.931 . S
H295 C280 0.929 . S
H296 C282 0.930 . S
Co297 N301 2.148 . S
Co297 N307 2.128 . S
Co297 N317 2.194 . S
Co297 O322 2.351 . S
Co297 O323 2.155 . S
Co297 O324 2.096 . S
C298 N301 1.301 . S
C298 N302 1.328 . S
C298 H303 0.930 . S
C299 C300 1.333 . S
C299 N301 1.317 . S
C299 H304 0.930 . S
C300 C299 1.333 . S
C300 N302 1.350 . S
C300 H326 0.931 . S
N301 Co297 2.148 . S
N301 C298 1.301 . S
N301 C299 1.317 . S
N302 C298 1.328 . S
N302 C300 1.350 . S
H303 C298 0.930 . S
H304 C299 0.930 . S
C305 O306 1.224 . S
C305 O324 1.247 . S
O306 C305 1.224 . S
N307 Co297 2.128 . S
N307 C308 1.355 . S
N307 C310 1.311 . S
C308 N307 1.355 . S
C308 C309 1.363 . S
C308 H320 0.929 . S
C309 C308 1.363 . S
C309 N311 1.375 . S
C309 H327 0.931 . S
C310 N307 1.311 . S
C310 N311 1.347 . S
C310 H321 0.929 . S
N311 C309 1.375 . S
N311 C310 1.347 . S
C312 C315 1.365 . S
C312 N317 1.328 . S
C312 H318 0.929 . S
C313 C314 1.362 . S
C313 C316 1.378 . S
C313 H328 0.929 . S
C314 C313 1.362 . S
C314 C315 1.366 . S
C315 C312 1.365 . S
C315 C314 1.366 . S
C315 H329 0.930 . S
C316 C313 1.378 . S
C316 N317 1.315 . S
C316 H319 0.930 . S
N317 Co297 2.194 . S
N317 C312 1.328 . S
N317 C316 1.315 . S
H318 C312 0.929 . S
H319 C316 0.930 . S
H320 C308 0.929 . S
H321 C310 0.929 . S
O322 Co297 2.351 . S
O322 C325 1.244 . S
O323 Co297 2.155 . S
O323 C325 1.240 . S
O324 Co297 2.096 . S
O324 C305 1.247 . S
C325 O322 1.244 . S
C325 O323 1.240 . S
H326 C300 0.931 . S
H327 C309 0.931 . S
H328 C313 0.929 . S
H329 C315 0.930 . S
Co330 N334 2.148 . S
Co330 N340 2.128 . S
Co330 N350 2.194 . S
Co330 O355 2.351 1_554 S
Co330 O356 2.155 1_554 S
Co330 O357 2.096 . S
C331 N334 1.301 . S
C331 N335 1.328 . S
C331 H336 0.930 1_554 S
C332 C333 1.333 . S
C332 N334 1.317 . S
C332 H337 0.930 . S
C333 C332 1.333 . S
C333 N335 1.350 . S
C333 H359 0.931 . S
N334 Co330 2.148 . S
N334 C331 1.301 . S
N334 C332 1.317 . S
N335 C331 1.328 . S
N335 C333 1.350 . S
H336 C331 0.930 1_556 S
H337 C332 0.930 . S
C338 O339 1.224 . S
C338 O357 1.247 . S
O339 C338 1.224 . S
N340 Co330 2.128 . S
N340 C341 1.355 . S
N340 C343 1.311 . S
C341 N340 1.355 . S
C341 C342 1.363 . S
C341 H353 0.929 1_554 S
C342 C341 1.363 . S
C342 N344 1.375 . S
C342 H360 0.931 . S
C343 N340 1.311 . S
C343 N344 1.347 . S
C343 H354 0.929 . S
N344 C342 1.375 . S
N344 C343 1.347 . S
C345 C348 1.365 . S
C345 N350 1.328 . S
C345 H351 0.929 . S
C346 C347 1.362 . S
C346 C349 1.378 . S
C346 H361 0.929 . S
C347 C346 1.362 . S
C347 C348 1.366 . S
C348 C345 1.365 . S
C348 C347 1.366 . S
C348 H362 0.930 . S
C349 C346 1.378 . S
C349 N350 1.315 . S
C349 H352 0.930 . S
N350 Co330 2.194 . S
N350 C345 1.328 . S
N350 C349 1.315 . S
H351 C345 0.929 . S
H352 C349 0.930 . S
H353 C341 0.929 1_556 S
H354 C343 0.929 . S
O355 Co330 2.351 1_556 S
O355 C358 1.244 . S
O356 Co330 2.155 1_556 S
O356 C358 1.240 . S
O357 Co330 2.096 . S
O357 C338 1.247 . S
C358 O355 1.244 . S
C358 O356 1.240 . S
H359 C333 0.931 . S
H360 C342 0.931 . S
H361 C346 0.929 . S
H362 C348 0.930 . S
Co363 N367 2.148 . S
Co363 N373 2.128 . S
Co363 N383 2.194 . S
Co363 O388 2.351 . S
Co363 O389 2.155 . S
Co363 O390 2.096 . S
C364 N367 1.301 . S
C364 N368 1.328 . S
C364 H369 0.930 . S
C365 C366 1.333 . S
C365 N367 1.317 . S
C365 H370 0.930 . S
C366 C365 1.333 . S
C366 N368 1.350 . S
C366 H392 0.931 . S
N367 Co363 2.148 . S
N367 C364 1.301 . S
N367 C365 1.317 . S
N368 C364 1.328 . S
N368 C366 1.350 . S
H369 C364 0.930 . S
H370 C365 0.930 . S
C371 O372 1.224 . S
C371 O390 1.247 . S
O372 C371 1.224 . S
N373 Co363 2.128 . S
N373 C374 1.355 . S
N373 C376 1.311 . S
C374 N373 1.355 . S
C374 C375 1.363 . S
C374 H386 0.929 . S
C375 C374 1.363 . S
C375 N377 1.375 . S
C375 H393 0.931 . S
C376 N373 1.311 . S
C376 N377 1.347 . S
C376 H387 0.929 . S
N377 C375 1.375 . S
N377 C376 1.347 . S
C378 C381 1.365 . S
C378 N383 1.328 . S
C378 H384 0.929 . S
C379 C380 1.362 . S
C379 C382 1.378 . S
C379 H394 0.929 . S
C380 C379 1.362 . S
C380 C381 1.366 . S
C381 C378 1.365 . S
C381 C380 1.366 . S
C381 H395 0.930 . S
C382 C379 1.378 . S
C382 N383 1.315 . S
C382 H385 0.930 . S
N383 Co363 2.194 . S
N383 C378 1.328 . S
N383 C382 1.315 . S
H384 C378 0.929 . S
H385 C382 0.930 . S
H386 C374 0.929 . S
H387 C376 0.929 . S
O388 Co363 2.351 . S
O388 C391 1.244 . S
O389 Co363 2.155 . S
O389 C391 1.240 . S
O390 Co363 2.096 . S
O390 C371 1.247 . S
C391 O388 1.244 . S
C391 O389 1.240 . S
H392 C366 0.931 . S
H393 C375 0.931 . S
H394 C379 0.929 . S
H395 C381 0.930 . S
Co396 N400 2.148 . S
Co396 N406 2.128 . S
Co396 N416 2.194 . S
Co396 O421 2.351 . S
Co396 O422 2.155 . S
Co396 O423 2.096 . S
C397 N400 1.301 . S
C397 N401 1.328 . S
C397 H402 0.930 . S
C398 C399 1.333 . S
C398 N400 1.317 . S
C398 H403 0.930 . S
C399 C398 1.333 . S
C399 N401 1.350 . S
C399 H425 0.931 . S
N400 Co396 2.148 . S
N400 C397 1.301 . S
N400 C398 1.317 . S
N401 C397 1.328 . S
N401 C399 1.350 . S
H402 C397 0.930 . S
H403 C398 0.930 . S
C404 O405 1.224 . S
C404 O423 1.247 . S
O405 C404 1.224 . S
N406 Co396 2.128 . S
N406 C407 1.355 . S
N406 C409 1.311 . S
C407 N406 1.355 . S
C407 C408 1.363 . S
C407 H419 0.929 . S
C408 C407 1.363 . S
C408 N410 1.375 . S
C408 H426 0.931 . S
C409 N406 1.311 . S
C409 N410 1.347 . S
C409 H420 0.929 . S
N410 C408 1.375 . S
N410 C409 1.347 . S
C411 C414 1.365 . S
C411 N416 1.328 . S
C411 H417 0.929 . S
C412 C413 1.362 . S
C412 C415 1.378 . S
C412 H427 0.929 . S
C413 C412 1.362 . S
C413 C414 1.366 . S
C414 C411 1.365 . S
C414 C413 1.366 . S
C414 H428 0.930 . S
C415 C412 1.378 . S
C415 N416 1.315 . S
C415 H418 0.930 . S
N416 Co396 2.194 . S
N416 C411 1.328 . S
N416 C415 1.315 . S
H417 C411 0.929 . S
H418 C415 0.930 . S
H419 C407 0.929 . S
H420 C409 0.929 . S
O421 Co396 2.351 . S
O421 C424 1.244 . S
O422 Co396 2.155 . S
O422 C424 1.240 . S
O423 Co396 2.096 . S
O423 C404 1.247 . S
C424 O421 1.244 . S
C424 O422 1.240 . S
H425 C399 0.931 . S
H426 C408 0.931 . S
H427 C412 0.929 . S
H428 C414 0.930 . S
Co429 N433 2.148 . S
Co429 N439 2.128 . S
Co429 N449 2.194 . S
Co429 O454 2.351 . S
Co429 O455 2.155 . S
Co429 O456 2.096 . S
C430 N433 1.301 . S
C430 N434 1.328 . S
C430 H435 0.930 . S
C431 C432 1.333 . S
C431 N433 1.317 . S
C431 H436 0.930 . S
C432 C431 1.333 . S
C432 N434 1.350 . S
C432 H458 0.931 . S
N433 Co429 2.148 . S
N433 C430 1.301 . S
N433 C431 1.317 . S
N434 C430 1.328 . S
N434 C432 1.350 . S
H435 C430 0.930 . S
H436 C431 0.930 . S
C437 O438 1.224 . S
C437 O456 1.247 . S
O438 C437 1.224 . S
N439 Co429 2.128 . S
N439 C440 1.355 . S
N439 C442 1.311 . S
C440 N439 1.355 . S
C440 C441 1.363 . S
C440 H452 0.929 . S
C441 C440 1.363 . S
C441 N443 1.375 . S
C441 H459 0.931 . S
C442 N439 1.311 . S
C442 N443 1.347 . S
C442 H453 0.929 . S
N443 C441 1.375 . S
N443 C442 1.347 . S
C444 C447 1.365 . S
C444 N449 1.328 . S
C444 H450 0.929 . S
C445 C446 1.362 . S
C445 C448 1.378 . S
C445 H460 0.929 . S
C446 C445 1.362 . S
C446 C447 1.366 . S
C447 C444 1.365 . S
C447 C446 1.366 . S
C447 H461 0.930 . S
C448 C445 1.378 . S
C448 N449 1.315 . S
C448 H451 0.930 . S
N449 Co429 2.194 . S
N449 C444 1.328 . S
N449 C448 1.315 . S
H450 C444 0.929 . S
H451 C448 0.930 . S
H452 C440 0.929 . S
H453 C442 0.929 . S
O454 Co429 2.351 . S
O454 C457 1.244 . S
O455 Co429 2.155 . S
O455 C457 1.240 . S
O456 Co429 2.096 . S
O456 C437 1.247 . S
C457 O454 1.244 . S
C457 O455 1.240 . S
H458 C432 0.931 . S
H459 C441 0.931 . S
H460 C445 0.929 . S
H461 C447 0.930 . S
Co462 N466 2.148 . S
Co462 N472 2.128 . S
Co462 N482 2.194 . S
Co462 O487 2.351 . S
Co462 O488 2.155 . S
Co462 O489 2.096 . S
C463 N466 1.301 . S
C463 N467 1.328 . S
C463 H468 0.930 . S
C464 C465 1.333 . S
C464 N466 1.317 . S
C464 H469 0.930 . S
C465 C464 1.333 . S
C465 N467 1.350 . S
C465 H491 0.931 . S
N466 Co462 2.148 . S
N466 C463 1.301 . S
N466 C464 1.317 . S
N467 C463 1.328 . S
N467 C465 1.350 . S
H468 C463 0.930 . S
H469 C464 0.930 . S
C470 O471 1.224 . S
C470 O489 1.247 . S
O471 C470 1.224 . S
N472 Co462 2.128 . S
N472 C473 1.355 . S
N472 C475 1.311 . S
C473 N472 1.355 . S
C473 C474 1.363 . S
C473 H485 0.929 . S
C474 C473 1.363 . S
C474 N476 1.375 . S
C474 H492 0.931 . S
C475 N472 1.311 . S
C475 N476 1.347 . S
C475 H486 0.929 . S
N476 C474 1.375 . S
N476 C475 1.347 . S
C477 C480 1.365 . S
C477 N482 1.328 . S
C477 H483 0.929 . S
C478 C479 1.362 . S
C478 C481 1.378 . S
C478 H493 0.929 . S
C479 C478 1.362 . S
C479 C480 1.366 . S
C480 C477 1.365 . S
C480 C479 1.366 . S
C480 H494 0.930 . S
C481 C478 1.378 . S
C481 N482 1.315 . S
C481 H484 0.930 . S
N482 Co462 2.194 . S
N482 C477 1.328 . S
N482 C481 1.315 . S
H483 C477 0.929 . S
H484 C481 0.930 . S
H485 C473 0.929 . S
H486 C475 0.929 . S
O487 Co462 2.351 . S
O487 C490 1.244 . S
O488 Co462 2.155 . S
O488 C490 1.240 . S
O489 Co462 2.096 . S
O489 C470 1.247 . S
C490 O487 1.244 . S
C490 O488 1.240 . S
H491 C465 0.931 . S
H492 C474 0.931 . S
H493 C478 0.929 . S
H494 C480 0.930 . S
Co495 N499 2.148 . S
Co495 N505 2.128 . S
Co495 N515 2.194 . S
Co495 O520 2.351 . S
Co495 O521 2.155 . S
Co495 O522 2.096 . S
C496 N499 1.301 . S
C496 N500 1.328 . S
C496 H501 0.930 . S
C497 C498 1.333 . S
C497 N499 1.317 . S
C497 H502 0.930 . S
C498 C497 1.333 . S
C498 N500 1.350 . S
C498 H524 0.931 . S
N499 Co495 2.148 . S
N499 C496 1.301 . S
N499 C497 1.317 . S
N500 C496 1.328 . S
N500 C498 1.350 . S
H501 C496 0.930 . S
H502 C497 0.930 . S
C503 O504 1.224 . S
C503 O522 1.247 . S
O504 C503 1.224 . S
N505 Co495 2.128 . S
N505 C506 1.355 . S
N505 C508 1.311 . S
C506 N505 1.355 . S
C506 C507 1.363 . S
C506 H518 0.929 . S
C507 C506 1.363 . S
C507 N509 1.375 . S
C507 H525 0.931 . S
C508 N505 1.311 . S
C508 N509 1.347 . S
C508 H519 0.929 . S
N509 C507 1.375 . S
N509 C508 1.347 . S
C510 C513 1.365 . S
C510 N515 1.328 . S
C510 H516 0.929 . S
C511 C512 1.362 . S
C511 C514 1.378 . S
C511 H526 0.929 . S
C512 C511 1.362 . S
C512 C513 1.366 . S
C513 C510 1.365 . S
C513 C512 1.366 . S
C513 H527 0.930 . S
C514 C511 1.378 . S
C514 N515 1.315 . S
C514 H517 0.930 . S
N515 Co495 2.194 . S
N515 C510 1.328 . S
N515 C514 1.315 . S
H516 C510 0.929 . S
H517 C514 0.930 . S
H518 C506 0.929 . S
H519 C508 0.929 . S
O520 Co495 2.351 . S
O520 C523 1.244 . S
O521 Co495 2.155 . S
O521 C523 1.240 . S
O522 Co495 2.096 . S
O522 C503 1.247 . S
C523 O520 1.244 . S
C523 O521 1.240 . S
H524 C498 0.931 . S
H525 C507 0.931 . S
H526 C511 0.929 . S
H527 C513 0.930 . S
C528 C529 1.387 . S
C528 H532 0.950 . S
C528 C537 1.390 . S
C529 C528 1.387 . S
C529 C531 1.387 . S
H530 C537 0.950 . S
C531 C529 1.387 . S
C531 C533 1.390 . S
C531 H535 0.950 . S
H532 C528 0.950 . S
C533 C531 1.390 . S
C533 C534 1.387 . S
C533 H536 0.950 . S
C534 C533 1.387 . S
C534 C537 1.387 . S
H535 C531 0.950 . S
H536 C533 0.950 . S
C537 C528 1.390 . S
C537 H530 0.950 . S
C537 C534 1.387 . S
C538 C539 1.387 . S
C538 H542 0.950 . S
C538 C547 1.395 1_565 S
C539 C538 1.387 . S
C539 C541 1.383 1_655 S
H540 C547 0.950 . S
C541 C539 1.383 1_455 S
C541 C543 1.395 1_565 S
C541 H545 0.950 . S
H542 C538 0.950 . S
C543 C541 1.395 1_545 S
C543 C544 1.387 . S
C543 H546 0.950 . S
C544 C543 1.387 . S
C544 C547 1.383 1_455 S
H545 C541 0.950 . S
H546 C543 0.950 . S
C547 C538 1.395 1_545 S
C547 H540 0.950 . S
C547 C544 1.383 1_655 S
C548 C549 1.387 . S
C548 H552 0.950 . S
C548 C557 1.390 1_545 S
C549 C548 1.387 . S
C549 C551 1.387 . S
H550 C557 0.950 . S
C551 C549 1.387 . S
C551 C553 1.390 1_545 S
C551 H555 0.950 . S
H552 C548 0.950 . S
C553 C551 1.390 1_565 S
C553 C554 1.387 . S
C553 H556 0.950 . S
C554 C553 1.387 . S
C554 C557 1.387 . S
H555 C551 0.950 . S
H556 C553 0.950 . S
C557 C548 1.390 1_565 S
C557 H550 0.950 . S
C557 C554 1.387 . S
C558 C559 1.387 . S
C558 H562 0.950 . S
C558 C567 1.390 . S
C559 C558 1.387 . S
C559 C561 1.387 1_655 S
H560 C567 0.950 . S
C561 C559 1.387 1_455 S
C561 C563 1.390 . S
C561 H565 0.950 . S
H562 C558 0.950 . S
C563 C561 1.390 . S
C563 C564 1.387 . S
C563 H566 0.950 . S
C564 C563 1.387 . S
C564 C567 1.387 1_455 S
H565 C561 0.950 . S
H566 C563 0.950 . S
C567 C558 1.390 . S
C567 H560 0.950 . S
C567 C564 1.387 1_655 S
C568 C569 1.387 . S
C568 H572 0.950 . S
C568 C577 1.390 . S
C569 C568 1.387 . S
C569 C571 1.387 . S
H570 C577 0.950 . S
C571 C569 1.387 . S
C571 C573 1.390 . S
C571 H575 0.950 . S
H572 C568 0.950 . S
C573 C571 1.390 . S
C573 C574 1.387 . S
C573 H576 0.950 . S
C574 C573 1.387 . S
C574 C577 1.387 . S
H575 C571 0.950 . S
H576 C573 0.950 . S
C577 C568 1.390 . S
C577 H570 0.950 . S
C577 C574 1.387 . S
C578 C579 1.387 . S
C578 H582 0.950 . S
C578 C587 1.390 1_565 S
C579 C578 1.387 . S
C579 C581 1.387 . S
H580 C587 0.950 . S
C581 C579 1.387 . S
C581 C583 1.390 1_565 S
C581 H585 0.950 . S
H582 C578 0.950 . S
C583 C581 1.390 1_545 S
C583 C584 1.387 . S
C583 H586 0.950 . S
C584 C583 1.387 . S
C584 C587 1.387 . S
H585 C581 0.950 . S
H586 C583 0.950 . S
C587 C578 1.390 1_545 S
C587 H580 0.950 . S
C587 C584 1.387 . S
C588 C589 1.387 . S
C588 H592 0.950 . S
C588 C597 1.390 1_655 S
C589 C588 1.387 . S
C589 C591 1.387 . S
H590 C597 0.950 . S
C591 C589 1.387 . S
C591 C593 1.390 1_655 S
C591 H595 0.950 . S
H592 C588 0.950 . S
C593 C591 1.390 1_455 S
C593 C594 1.387 . S
C593 H596 0.950 . S
C594 C593 1.387 . S
C594 C597 1.387 . S
H595 C591 0.950 . S
H596 C593 0.950 . S
C597 C588 1.390 1_455 S
C597 H590 0.950 . S
C597 C594 1.387 . S
C598 C599 1.387 . S
C598 H602 0.950 . S
C598 C607 1.390 . S
C599 C598 1.387 . S
C599 C601 1.387 1_554 S
H600 C607 0.950 . S
C601 C599 1.387 1_556 S
C601 C603 1.390 . S
C601 H605 0.950 . S
H602 C598 0.950 . S
C603 C601 1.390 . S
C603 C604 1.387 . S
C603 H606 0.950 . S
C604 C603 1.387 . S
C604 C607 1.387 1_556 S
H605 C601 0.950 . S
H606 C603 0.950 . S
C607 C598 1.390 . S
C607 H600 0.950 . S
C607 C604 1.387 1_554 S
C608 C609 1.387 . S
C608 H612 0.950 . S
C608 C617 1.390 . S
C609 C608 1.387 . S
C609 C611 1.387 1_654 S
H610 C617 0.950 . S
C611 C609 1.387 1_456 S
C611 C613 1.390 . S
C611 H615 0.950 . S
H612 C608 0.950 . S
C613 C611 1.390 . S
C613 C614 1.387 . S
C613 H616 0.950 . S
C614 C613 1.387 . S
C614 C617 1.387 1_456 S
H615 C611 0.950 . S
H616 C613 0.950 . S
C617 C608 1.390 . S
C617 H610 0.950 . S
C617 C614 1.387 1_654 S
C618 C619 1.387 . S
C618 H622 0.950 . S
C618 C627 1.390 . S
C619 C618 1.387 . S
C619 C621 1.387 . S
H620 C627 0.950 . S
C621 C619 1.387 . S
C621 C623 1.390 . S
C621 H625 0.950 . S
H622 C618 0.950 . S
C623 C621 1.390 . S
C623 C624 1.387 . S
C623 H626 0.950 . S
C624 C623 1.387 . S
C624 C627 1.387 . S
H625 C621 0.950 . S
H626 C623 0.950 . S
C627 C618 1.390 . S
C627 H620 0.950 . S
C627 C624 1.387 . S
C628 C629 1.387 1_554 S
C628 H632 0.950 . S
C628 C637 1.390 . S
C629 C628 1.387 1_556 S
C629 C631 1.387 . S
H630 C637 0.950 . S
C631 C629 1.387 . S
C631 C633 1.390 . S
C631 H635 0.950 . S
H632 C628 0.950 . S
C633 C631 1.390 . S
C633 C634 1.387 1_556 S
C633 H636 0.950 . S
C634 C633 1.387 1_554 S
C634 C637 1.387 . S
H635 C631 0.950 . S
H636 C633 0.950 . S
C637 C628 1.390 . S
C637 H630 0.950 . S
C637 C634 1.387 . S
C638 C639 1.387 . S
C638 H642 0.950 . S
C638 C647 1.390 . S
C639 C638 1.387 . S
C639 C641 1.387 . S
H640 C647 0.950 . S
C641 C639 1.387 . S
C641 C643 1.390 . S
C641 H645 0.950 . S
H642 C638 0.950 . S
C643 C641 1.390 . S
C643 C644 1.387 . S
C643 H646 0.950 . S
C644 C643 1.387 . S
C644 C647 1.387 . S
H645 C641 0.950 . S
H646 C643 0.950 . S
C647 C638 1.390 . S
C647 H640 0.950 . S
C647 C644 1.387 . S
C648 C649 1.399 . S
C648 H652 0.946 . S
C648 C657 1.375 1_545 S
C649 C648 1.399 . S
C649 C651 1.387 1_556 S
H650 C657 0.950 . S
C651 C649 1.387 1_554 S
C651 C653 1.375 1_545 S
C651 H655 0.950 . S
H652 C648 0.946 . S
C653 C651 1.375 1_565 S
C653 C654 1.399 . S
C653 H656 0.946 . S
C654 C653 1.399 . S
C654 C657 1.387 1_554 S
H655 C651 0.950 . S
H656 C653 0.946 . S
C657 C648 1.375 1_565 S
C657 H650 0.950 . S
C657 C654 1.387 1_556 S
C658 C659 1.387 . S
C658 H662 0.950 . S
C658 C667 1.390 . S
C659 C658 1.387 . S
C659 C661 1.387 . S
H660 C667 0.950 . S
C661 C659 1.387 . S
C661 C663 1.390 . S
C661 H665 0.950 . S
H662 C658 0.950 . S
C663 C661 1.390 . S
C663 C664 1.387 . S
C663 H666 0.950 . S
C664 C663 1.387 . S
C664 C667 1.387 . S
H665 C661 0.950 . S
H666 C663 0.950 . S
C667 C658 1.390 . S
C667 H660 0.950 . S
C667 C664 1.387 . S
C668 C669 1.387 . S
C668 H672 0.950 . S
C668 C677 1.390 . S
C669 C668 1.387 . S
C669 C671 1.387 . S
H670 C677 0.950 . S
C671 C669 1.387 . S
C671 C673 1.390 . S
C671 H675 0.950 . S
H672 C668 0.950 . S
C673 C671 1.390 . S
C673 C674 1.387 . S
C673 H676 0.950 . S
C674 C673 1.387 . S
C674 C677 1.387 . S
H675 C671 0.950 . S
H676 C673 0.950 . S
C677 C668 1.390 . S
C677 H670 0.950 . S
C677 C674 1.387 . S
C678 C679 1.387 . S
C678 H682 0.950 . S
C678 C687 1.390 . S
C679 C678 1.387 . S
C679 C681 1.387 . S
H680 C687 0.950 . S
C681 C679 1.387 . S
C681 C683 1.390 . S
C681 H685 0.950 . S
H682 C678 0.950 . S
C683 C681 1.390 . S
C683 C684 1.387 . S
C683 H686 0.950 . S
C684 C683 1.387 . S
C684 C687 1.387 . S
H685 C681 0.950 . S
H686 C683 0.950 . S
C687 C678 1.390 . S
C687 H680 0.950 . S
C687 C684 1.387 . S
C688 C689 1.387 . S
C688 H692 0.950 . S
C688 C697 1.390 . S
C689 C688 1.387 . S
C689 C691 1.387 . S
H690 C697 0.950 . S
C691 C689 1.387 . S
C691 C693 1.390 . S
C691 H695 0.950 . S
H692 C688 0.950 . S
C693 C691 1.390 . S
C693 C694 1.387 . S
C693 H696 0.950 . S
C694 C693 1.387 . S
C694 C697 1.387 . S
H695 C691 0.950 . S
H696 C693 0.950 . S
C697 C688 1.390 . S
C697 H690 0.950 . S
C697 C694 1.387 . S
C698 C699 1.387 . S
C698 H702 0.950 . S
C698 C707 1.390 . S
C699 C698 1.387 . S
C699 C701 1.387 . S
H700 C707 0.950 . S
C701 C699 1.387 . S
C701 C703 1.390 . S
C701 H705 0.950 . S
H702 C698 0.950 . S
C703 C701 1.390 . S
C703 C704 1.387 . S
C703 H706 0.950 . S
C704 C703 1.387 . S
C704 C707 1.387 . S
H705 C701 0.950 . S
H706 C703 0.950 . S
C707 C698 1.390 . S
C707 H700 0.950 . S
C707 C704 1.387 . S
C708 C709 1.387 . S
C708 H712 0.950 . S
C708 C717 1.390 . S
C709 C708 1.387 . S
C709 C711 1.387 . S
H710 C717 0.950 . S
C711 C709 1.387 . S
C711 C713 1.390 . S
C711 H715 0.950 . S
H712 C708 0.950 . S
C713 C711 1.390 . S
C713 C714 1.387 . S
C713 H716 0.950 . S
C714 C713 1.387 . S
C714 C717 1.387 . S
H715 C711 0.950 . S
H716 C713 0.950 . S
C717 C708 1.390 . S
C717 H710 0.950 . S
C717 C714 1.387 . S
C718 C719 1.387 . S
C718 H722 0.950 . S
C718 C727 1.390 . S
C719 C718 1.387 . S
C719 C721 1.387 . S
H720 C727 0.950 . S
C721 C719 1.387 . S
C721 C723 1.390 . S
C721 H725 0.950 . S
H722 C718 0.950 . S
C723 C721 1.390 . S
C723 C724 1.387 . S
C723 H726 0.950 . S
C724 C723 1.387 . S
C724 C727 1.387 . S
H725 C721 0.950 . S
H726 C723 0.950 . S
C727 C718 1.390 . S
C727 H720 0.950 . S
C727 C724 1.387 . S
C728 C729 1.387 . S
C728 H732 0.950 . S
C728 C737 1.390 . S
C729 C728 1.387 . S
C729 C731 1.387 . S
H730 C737 0.950 . S
C731 C729 1.387 . S
C731 C733 1.390 . S
C731 H735 0.950 . S
H732 C728 0.950 . S
C733 C731 1.390 . S
C733 C734 1.387 . S
C733 H736 0.950 . S
C734 C733 1.387 . S
C734 C737 1.387 . S
H735 C731 0.950 . S
H736 C733 0.950 . S
C737 C728 1.390 . S
C737 H730 0.950 . S
C737 C734 1.387 . S
C738 C739 1.387 . S
C738 H742 0.950 . S
C738 C747 1.390 . S
C739 C738 1.387 . S
C739 C741 1.387 . S
H740 C747 0.950 . S
C741 C739 1.387 . S
C741 C743 1.390 . S
C741 H745 0.950 . S
H742 C738 0.950 . S
C743 C741 1.390 . S
C743 C744 1.387 . S
C743 H746 0.950 . S
C744 C743 1.387 . S
C744 C747 1.387 . S
H745 C741 0.950 . S
H746 C743 0.950 . S
C747 C738 1.390 . S
C747 H740 0.950 . S
C747 C744 1.387 . S
C748 C749 1.387 . S
C748 H752 0.950 . S
C748 C757 1.390 . S
C749 C748 1.387 . S
C749 C751 1.387 . S
H750 C757 0.950 . S
C751 C749 1.387 . S
C751 C753 1.390 . S
C751 H755 0.950 . S
H752 C748 0.950 . S
C753 C751 1.390 . S
C753 C754 1.387 . S
C753 H756 0.950 . S
C754 C753 1.387 . S
C754 C757 1.387 . S
H755 C751 0.950 . S
H756 C753 0.950 . S
C757 C748 1.390 . S
C757 H750 0.950 . S
C757 C754 1.387 . S
C758 C759 1.387 . S
C758 H762 0.950 . S
C758 C767 1.390 . S
C759 C758 1.387 . S
C759 C761 1.387 . S
H760 C767 0.950 . S
C761 C759 1.387 . S
C761 C763 1.390 . S
C761 H765 0.950 . S
H762 C758 0.950 . S
C763 C761 1.390 . S
C763 C764 1.387 . S
C763 H766 0.950 . S
C764 C763 1.387 . S
C764 C767 1.387 . S
H765 C761 0.950 . S
H766 C763 0.950 . S
C767 C758 1.390 . S
C767 H760 0.950 . S
C767 C764 1.387 . S
C768 C769 1.387 . S
C768 H772 0.950 . S
C768 C777 1.390 . S
C769 C768 1.387 . S
C769 C771 1.387 . S
H770 C777 0.950 . S
C771 C769 1.387 . S
C771 C773 1.390 . S
C771 H775 0.950 . S
H772 C768 0.950 . S
C773 C771 1.390 . S
C773 C774 1.387 . S
C773 H776 0.950 . S
C774 C773 1.387 . S
C774 C777 1.387 . S
H775 C771 0.950 . S
H776 C773 0.950 . S
C777 C768 1.390 . S
C777 H770 0.950 . S
C777 C774 1.387 . S
C778 C779 1.387 . S
C778 H782 0.950 . S
C778 C787 1.390 . S
C779 C778 1.387 . S
C779 C781 1.387 . S
H780 C787 0.950 . S
C781 C779 1.387 . S
C781 C783 1.390 . S
C781 H785 0.950 . S
H782 C778 0.950 . S
C783 C781 1.390 . S
C783 C784 1.387 . S
C783 H786 0.950 . S
C784 C783 1.387 . S
C784 C787 1.387 . S
H785 C781 0.950 . S
H786 C783 0.950 . S
C787 C778 1.390 . S
C787 H780 0.950 . S
C787 C784 1.387 . S
C788 C789 1.387 . S
C788 H792 0.950 . S
C788 C797 1.390 . S
C789 C788 1.387 . S
C789 C791 1.387 . S
H790 C797 0.950 . S
C791 C789 1.387 . S
C791 C793 1.390 . S
C791 H795 0.950 . S
H792 C788 0.950 . S
C793 C791 1.390 . S
C793 C794 1.387 . S
C793 H796 0.950 . S
C794 C793 1.387 . S
C794 C797 1.387 . S
H795 C791 0.950 . S
H796 C793 0.950 . S
C797 C788 1.390 . S
C797 H790 0.950 . S
C797 C794 1.387 . S
C798 C799 1.387 . S
C798 H802 0.950 . S
C798 C807 1.390 . S
C799 C798 1.387 . S
C799 C801 1.387 . S
H800 C807 0.950 . S
C801 C799 1.387 . S
C801 C803 1.390 . S
C801 H805 0.950 . S
H802 C798 0.950 . S
C803 C801 1.390 . S
C803 C804 1.387 . S
C803 H806 0.950 . S
C804 C803 1.387 . S
C804 C807 1.387 . S
H805 C801 0.950 . S
H806 C803 0.950 . S
C807 C798 1.390 . S
C807 H800 0.950 . S
C807 C804 1.387 . S
C808 C809 1.387 . S
C808 H812 0.950 . S
C808 C817 1.390 . S
C809 C808 1.387 . S
C809 C811 1.387 . S
H810 C817 0.950 . S
C811 C809 1.387 . S
C811 C813 1.390 . S
C811 H815 0.950 . S
H812 C808 0.950 . S
C813 C811 1.390 . S
C813 C814 1.387 . S
C813 H816 0.950 . S
C814 C813 1.387 . S
C814 C817 1.387 . S
H815 C811 0.950 . S
H816 C813 0.950 . S
C817 C808 1.390 . S
C817 H810 0.950 . S
C817 C814 1.387 . S
C818 C819 1.387 . S
C818 H822 0.950 . S
C818 C827 1.390 . S
C819 C818 1.387 . S
C819 C821 1.387 . S
H820 C827 0.950 . S
C821 C819 1.387 . S
C821 C823 1.390 . S
C821 H825 0.950 . S
H822 C818 0.950 . S
C823 C821 1.390 . S
C823 C824 1.387 . S
C823 H826 0.950 . S
C824 C823 1.387 . S
C824 C827 1.387 . S
H825 C821 0.950 . S
H826 C823 0.950 . S
C827 C818 1.390 . S
C827 H820 0.950 . S
C827 C824 1.387 . S
C828 C829 1.387 . S
C828 H832 0.950 . S
C828 C837 1.390 . S
C829 C828 1.387 . S
C829 C831 1.387 . S
H830 C837 0.950 . S
C831 C829 1.387 . S
C831 C833 1.390 . S
C831 H835 0.950 . S
H832 C828 0.950 . S
C833 C831 1.390 . S
C833 C834 1.387 . S
C833 H836 0.950 . S
C834 C833 1.387 . S
C834 C837 1.387 . S
H835 C831 0.950 . S
H836 C833 0.950 . S
C837 C828 1.390 . S
C837 H830 0.950 . S
C837 C834 1.387 . S
C838 C839 1.387 . S
C838 H842 0.950 . S
C838 C847 1.390 . S
C839 C838 1.387 . S
C839 C841 1.387 . S
H840 C847 0.950 . S
C841 C839 1.387 . S
C841 C843 1.390 . S
C841 H845 0.950 . S
H842 C838 0.950 . S
C843 C841 1.390 . S
C843 C844 1.387 . S
C843 H846 0.950 . S
C844 C843 1.387 . S
C844 C847 1.387 . S
H845 C841 0.950 . S
H846 C843 0.950 . S
C847 C838 1.390 . S
C847 H840 0.950 . S
C847 C844 1.387 . S
C848 C849 1.387 . S
C848 H852 0.950 1_455 S
C848 C857 1.390 . S
C849 C848 1.387 . S
C849 C851 1.387 . S
H850 C857 0.950 1_655 S
C851 C849 1.387 . S
C851 C853 1.390 . S
C851 H855 0.950 . S
H852 C848 0.950 1_655 S
C853 C851 1.390 . S
C853 C854 1.387 . S
C853 H856 0.950 . S
C854 C853 1.387 . S
C854 C857 1.387 . S
H855 C851 0.950 . S
H856 C853 0.950 . S
C857 C848 1.390 . S
C857 H850 0.950 1_455 S
C857 C854 1.387 . S
C858 C859 1.387 . S
C858 H862 0.950 1_655 S
C858 C867 1.390 . S
C859 C858 1.387 . S
C859 C861 1.387 . S
H860 C867 0.950 1_455 S
C861 C859 1.387 . S
C861 C863 1.390 . S
C861 H865 0.950 . S
H862 C858 0.950 1_455 S
C863 C861 1.390 . S
C863 C864 1.387 . S
C863 H866 0.950 . S
C864 C863 1.387 . S
C864 C867 1.387 . S
H865 C861 0.950 . S
H866 C863 0.950 . S
C867 C858 1.390 . S
C867 H860 0.950 1_655 S
C867 C864 1.387 . S
C868 C869 1.387 . S
C868 H872 0.950 1_455 S
C868 C877 1.390 . S
C869 C868 1.387 . S
C869 C871 1.387 . S
H870 C877 0.950 1_655 S
C871 C869 1.387 . S
C871 C873 1.390 . S
C871 H875 0.950 . S
H872 C868 0.950 1_655 S
C873 C871 1.390 . S
C873 C874 1.387 . S
C873 H876 0.950 . S
C874 C873 1.387 . S
C874 C877 1.387 . S
H875 C871 0.950 . S
H876 C873 0.950 . S
C877 C868 1.390 . S
C877 H870 0.950 1_455 S
C877 C874 1.387 . S
C878 C879 1.387 . S
C878 H882 0.950 1_655 S
C878 C887 1.390 . S
C879 C878 1.387 . S
C879 C881 1.387 . S
H880 C887 0.950 1_455 S
C881 C879 1.387 . S
C881 C883 1.390 . S
C881 H885 0.950 . S
H882 C878 0.950 1_455 S
C883 C881 1.390 . S
C883 C884 1.387 . S
C883 H886 0.950 . S
C884 C883 1.387 . S
C884 C887 1.387 . S
H885 C881 0.950 . S
H886 C883 0.950 . S
C887 C878 1.390 . S
C887 H880 0.950 1_655 S
C887 C884 1.387 . S
C888 C889 1.387 . S
C888 H892 0.950 . S
C888 C897 1.390 . S
C889 C888 1.387 . S
C889 C891 1.387 . S
H890 C897 0.950 . S
C891 C889 1.387 . S
C891 C893 1.390 . S
C891 H895 0.950 . S
H892 C888 0.950 . S
C893 C891 1.390 . S
C893 C894 1.387 . S
C893 H896 0.950 . S
C894 C893 1.387 . S
C894 C897 1.387 . S
H895 C891 0.950 . S
H896 C893 0.950 . S
C897 C888 1.390 . S
C897 H890 0.950 . S
C897 C894 1.387 . S
C898 C899 1.387 . S
C898 H902 0.950 . S
C898 C907 1.390 . S
C899 C898 1.387 . S
C899 C901 1.387 . S
H900 C907 0.950 . S
C901 C899 1.387 . S
C901 C903 1.390 . S
C901 H905 0.950 . S
H902 C898 0.950 . S
C903 C901 1.390 . S
C903 C904 1.387 . S
C903 H906 0.950 . S
C904 C903 1.387 . S
C904 C907 1.387 . S
H905 C901 0.950 . S
H906 C903 0.950 . S
C907 C898 1.390 . S
C907 H900 0.950 . S
C907 C904 1.387 . S
C908 C909 1.387 . S
C908 H912 0.950 . S
C908 C917 1.390 . S
C909 C908 1.387 . S
C909 C911 1.387 . S
H910 C917 0.950 . S
C911 C909 1.387 . S
C911 C913 1.390 . S
C911 H915 0.950 . S
H912 C908 0.950 . S
C913 C911 1.390 . S
C913 C914 1.387 . S
C913 H916 0.950 . S
C914 C913 1.387 . S
C914 C917 1.387 . S
H915 C911 0.950 . S
H916 C913 0.950 . S
C917 C908 1.390 . S
C917 H910 0.950 . S
C917 C914 1.387 . S
C918 C919 1.387 . S
C918 H922 0.950 . S
C918 C927 1.390 . S
C919 C918 1.387 . S
C919 C921 1.387 . S
H920 C927 0.950 . S
C921 C919 1.387 . S
C921 C923 1.390 . S
C921 H925 0.950 . S
H922 C918 0.950 . S
C923 C921 1.390 . S
C923 C924 1.387 . S
C923 H926 0.950 . S
C924 C923 1.387 . S
C924 C927 1.387 . S
H925 C921 0.950 . S
H926 C923 0.950 . S
C927 C918 1.390 . S
C927 H920 0.950 . S
C927 C924 1.387 . S
C529 N14 1.645 . S
C534 N476 1.645 . S
C539 N71 1.620 . S
C544 N5 1.620 . S
C549 N47 1.644 . S
C554 N377 1.644 . S
C559 N236 1.620 . S
C564 N38 1.620 . S
C569 N80 1.645 . S
C574 N410 1.645 . S
C579 N113 1.645 . S
C584 N311 1.645 . S
C589 N104 1.620 . S
C594 N170 1.620 . S
C599 N344 1.645 . S
C604 N146 1.645 . S
C609 N203 1.620 . S
C614 N137 1.620 . S
C619 N179 1.645 . S
C624 N509 1.645 . S
C629 N278 1.644 . S
C634 N212 1.644 . S
C639 N443 1.645 . S
C644 N245 1.645 . S
C649 N269 1.620 . S
C654 N335 1.620 . S
C659 N500 1.620 . S
C664 N302 1.620 . S
C669 N368 1.620 . S
C674 N434 1.620 . S
C679 N401 1.620 . S
C684 N467 1.620 . S
C689 C8 1.317 . S
C694 C314 1.315 . S
C699 C305 1.319 . S
C704 C17 1.316 . S
C709 C41 1.317 . S
C714 C281 1.315 . S
C719 C50 1.315 . S
C724 C272 1.317 . S
C729 C380 1.316 . S
C734 C74 1.319 . S
C739 C371 1.317 . S
C744 C83 1.315 . S
C749 C107 1.317 . S
C754 C347 1.315 . S
C759 C116 1.315 . S
C764 C338 1.317 . S
C769 C140 1.319 . S
C774 C446 1.316 . S
C779 C437 1.317 . S
C784 C149 1.315 . S
C789 C173 1.319 . S
C794 C413 1.316 . S
C799 C404 1.319 . S
C804 C182 1.316 . S
C809 C512 1.316 . S
C814 C206 1.319 . S
C819 C215 1.316 . S
C824 C503 1.319 . S
C829 C239 1.317 . S
C834 C479 1.315 . S
C839 C248 1.316 . S
C844 C470 1.319 . S
C849 C61 1.134 . S
C854 C28 1.134 . S
C859 C94 1.134 . S
C864 C127 1.134 . S
C869 C160 1.134 . S
C874 C193 1.134 . S
C879 C226 1.134 . S
C884 C259 1.134 . S
C889 C325 1.134 . S
C894 C292 1.134 . S
C899 C391 1.134 . S
C904 C358 1.134 . S
C909 C424 1.134 . S
C914 C457 1.134 . S
C919 C523 1.134 . S
C924 C490 1.134 . S
