# Generated by pormake.
# Topology fcs, (5)-cn, num edge types: 1
# Building blocks:
#     Node 0, Type 0, BuildingBlock: BEQFEK_clean_sbu_0, # of connection points: 5
#     Node 1, Type 0, BuildingBlock: BEQFEK_clean_sbu_0, # of connection points: 5
#     Node 2, Type 0, BuildingBlock: BEQFEK_clean_sbu_0, # of connection points: 5
#     Node 3, Type 0, BuildingBlock: BEQFEK_clean_sbu_0, # of connection points: 5
#     Node 4, Type 0, BuildingBlock: BEQFEK_clean_sbu_0, # of connection points: 5
#     Node 5, Type 0, BuildingBlock: BEQFEK_clean_sbu_0, # of connection points: 5
#     Node 6, Type 0, BuildingBlock: BEQFEK_clean_sbu_0, # of connection points: 5
#     Node 7, Type 0, BuildingBlock: BEQFEK_clean_sbu_0, # of connection points: 5
#     Node 8, Type 0, BuildingBlock: BEQFEK_clean_sbu_0, # of connection points: 5
#     Node 9, Type 0, BuildingBlock: BEQFEK_clean_sbu_0, # of connection points: 5
#     Node 10, Type 0, BuildingBlock: BEQFEK_clean_sbu_0, # of connection points: 5
#     Node 11, Type 0, BuildingBlock: BEQFEK_clean_sbu_0, # of connection points: 5
#     Node 12, Type 0, BuildingBlock: BEQFEK_clean_sbu_0, # of connection points: 5
#     Node 13, Type 0, BuildingBlock: BEQFEK_clean_sbu_0, # of connection points: 5
#     Node 14, Type 0, BuildingBlock: BEQFEK_clean_sbu_0, # of connection points: 5
#     Node 15, Type 0, BuildingBlock: BEQFEK_clean_sbu_0, # of connection points: 5
#     Node 16, Type 0, BuildingBlock: BEQFEK_clean_sbu_0, # of connection points: 5
#     Node 17, Type 0, BuildingBlock: BEQFEK_clean_sbu_0, # of connection points: 5
#     Node 18, Type 0, BuildingBlock: BEQFEK_clean_sbu_0, # of connection points: 5
#     Node 19, Type 0, BuildingBlock: BEQFEK_clean_sbu_0, # of connection points: 5
#     Node 20, Type 0, BuildingBlock: BEQFEK_clean_sbu_0, # of connection points: 5
#     Node 21, Type 0, BuildingBlock: BEQFEK_clean_sbu_0, # of connection points: 5
#     Node 22, Type 0, BuildingBlock: BEQFEK_clean_sbu_0, # of connection points: 5
#     Node 23, Type 0, BuildingBlock: BEQFEK_clean_sbu_0, # of connection points: 5
#     Node 24, Type 0, BuildingBlock: BEQFEK_clean_sbu_0, # of connection points: 5
#     Node 25, Type 0, BuildingBlock: BEQFEK_clean_sbu_0, # of connection points: 5
#     Node 26, Type 0, BuildingBlock: BEQFEK_clean_sbu_0, # of connection points: 5
#     Node 27, Type 0, BuildingBlock: BEQFEK_clean_sbu_0, # of connection points: 5
#     Node 28, Type 0, BuildingBlock: BEQFEK_clean_sbu_0, # of connection points: 5
#     Node 29, Type 0, BuildingBlock: BEQFEK_clean_sbu_0, # of connection points: 5
#     Node 30, Type 0, BuildingBlock: BEQFEK_clean_sbu_0, # of connection points: 5
#     Node 31, Type 0, BuildingBlock: BEQFEK_clean_sbu_0, # of connection points: 5
#     Node 32, Type 0, BuildingBlock: BEQFEK_clean_sbu_0, # of connection points: 5
#     Node 33, Type 0, BuildingBlock: BEQFEK_clean_sbu_0, # of connection points: 5
#     Node 34, Type 0, BuildingBlock: BEQFEK_clean_sbu_0, # of connection points: 5
#     Node 35, Type 0, BuildingBlock: BEQFEK_clean_sbu_0, # of connection points: 5
#     Node 36, Type 0, BuildingBlock: BEQFEK_clean_sbu_0, # of connection points: 5
#     Node 37, Type 0, BuildingBlock: BEQFEK_clean_sbu_0, # of connection points: 5
#     Node 38, Type 0, BuildingBlock: BEQFEK_clean_sbu_0, # of connection points: 5
#     Node 39, Type 0, BuildingBlock: BEQFEK_clean_sbu_0, # of connection points: 5
#     Node 40, Type 0, BuildingBlock: BEQFEK_clean_sbu_0, # of connection points: 5
#     Node 41, Type 0, BuildingBlock: BEQFEK_clean_sbu_0, # of connection points: 5
#     Node 42, Type 0, BuildingBlock: BEQFEK_clean_sbu_0, # of connection points: 5
#     Node 43, Type 0, BuildingBlock: BEQFEK_clean_sbu_0, # of connection points: 5
#     Node 44, Type 0, BuildingBlock: BEQFEK_clean_sbu_0, # of connection points: 5
#     Node 45, Type 0, BuildingBlock: BEQFEK_clean_sbu_0, # of connection points: 5
#     Node 46, Type 0, BuildingBlock: BEQFEK_clean_sbu_0, # of connection points: 5
#     Node 47, Type 0, BuildingBlock: BEQFEK_clean_sbu_0, # of connection points: 5
#     Edge 48, Type (0, 0), BuildingBlock: OJICUG_clean_linker_0, # of connection points: 2
#     Edge 49, Type (0, 0), BuildingBlock: OJICUG_clean_linker_0, # of connection points: 2
#     Edge 50, Type (0, 0), BuildingBlock: OJICUG_clean_linker_0, # of connection points: 2
#     Edge 51, Type (0, 0), BuildingBlock: OJICUG_clean_linker_0, # of connection points: 2
#     Edge 52, Type (0, 0), BuildingBlock: OJICUG_clean_linker_0, # of connection points: 2
#     Edge 53, Type (0, 0), BuildingBlock: OJICUG_clean_linker_0, # of connection points: 2
#     Edge 54, Type (0, 0), BuildingBlock: OJICUG_clean_linker_0, # of connection points: 2
#     Edge 55, Type (0, 0), BuildingBlock: OJICUG_clean_linker_0, # of connection points: 2
#     Edge 56, Type (0, 0), BuildingBlock: OJICUG_clean_linker_0, # of connection points: 2
#     Edge 57, Type (0, 0), BuildingBlock: OJICUG_clean_linker_0, # of connection points: 2
#     Edge 58, Type (0, 0), BuildingBlock: OJICUG_clean_linker_0, # of connection points: 2
#     Edge 59, Type (0, 0), BuildingBlock: OJICUG_clean_linker_0, # of connection points: 2
#     Edge 60, Type (0, 0), BuildingBlock: OJICUG_clean_linker_0, # of connection points: 2
#     Edge 61, Type (0, 0), BuildingBlock: OJICUG_clean_linker_0, # of connection points: 2
#     Edge 62, Type (0, 0), BuildingBlock: OJICUG_clean_linker_0, # of connection points: 2
#     Edge 63, Type (0, 0), BuildingBlock: OJICUG_clean_linker_0, # of connection points: 2
#     Edge 64, Type (0, 0), BuildingBlock: OJICUG_clean_linker_0, # of connection points: 2
#     Edge 65, Type (0, 0), BuildingBlock: OJICUG_clean_linker_0, # of connection points: 2
#     Edge 66, Type (0, 0), BuildingBlock: OJICUG_clean_linker_0, # of connection points: 2
#     Edge 67, Type (0, 0), BuildingBlock: OJICUG_clean_linker_0, # of connection points: 2
#     Edge 68, Type (0, 0), BuildingBlock: OJICUG_clean_linker_0, # of connection points: 2
#     Edge 69, Type (0, 0), BuildingBlock: OJICUG_clean_linker_0, # of connection points: 2
#     Edge 70, Type (0, 0), BuildingBlock: OJICUG_clean_linker_0, # of connection points: 2
#     Edge 71, Type (0, 0), BuildingBlock: OJICUG_clean_linker_0, # of connection points: 2
#     Edge 72, Type (0, 0), BuildingBlock: OJICUG_clean_linker_0, # of connection points: 2
#     Edge 73, Type (0, 0), BuildingBlock: OJICUG_clean_linker_0, # of connection points: 2
#     Edge 74, Type (0, 0), BuildingBlock: OJICUG_clean_linker_0, # of connection points: 2
#     Edge 75, Type (0, 0), BuildingBlock: OJICUG_clean_linker_0, # of connection points: 2
#     Edge 76, Type (0, 0), BuildingBlock: OJICUG_clean_linker_0, # of connection points: 2
#     Edge 77, Type (0, 0), BuildingBlock: OJICUG_clean_linker_0, # of connection points: 2
#     Edge 78, Type (0, 0), BuildingBlock: OJICUG_clean_linker_0, # of connection points: 2
#     Edge 79, Type (0, 0), BuildingBlock: OJICUG_clean_linker_0, # of connection points: 2
#     Edge 80, Type (0, 0), BuildingBlock: OJICUG_clean_linker_0, # of connection points: 2
#     Edge 81, Type (0, 0), BuildingBlock: OJICUG_clean_linker_0, # of connection points: 2
#     Edge 82, Type (0, 0), BuildingBlock: OJICUG_clean_linker_0, # of connection points: 2
#     Edge 83, Type (0, 0), BuildingBlock: OJICUG_clean_linker_0, # of connection points: 2
#     Edge 84, Type (0, 0), BuildingBlock: OJICUG_clean_linker_0, # of connection points: 2
#     Edge 85, Type (0, 0), BuildingBlock: OJICUG_clean_linker_0, # of connection points: 2
#     Edge 86, Type (0, 0), BuildingBlock: OJICUG_clean_linker_0, # of connection points: 2
#     Edge 87, Type (0, 0), BuildingBlock: OJICUG_clean_linker_0, # of connection points: 2
#     Edge 88, Type (0, 0), BuildingBlock: OJICUG_clean_linker_0, # of connection points: 2
#     Edge 89, Type (0, 0), BuildingBlock: OJICUG_clean_linker_0, # of connection points: 2
#     Edge 90, Type (0, 0), BuildingBlock: OJICUG_clean_linker_0, # of connection points: 2
#     Edge 91, Type (0, 0), BuildingBlock: OJICUG_clean_linker_0, # of connection points: 2
#     Edge 92, Type (0, 0), BuildingBlock: OJICUG_clean_linker_0, # of connection points: 2
#     Edge 93, Type (0, 0), BuildingBlock: OJICUG_clean_linker_0, # of connection points: 2
#     Edge 94, Type (0, 0), BuildingBlock: OJICUG_clean_linker_0, # of connection points: 2
#     Edge 95, Type (0, 0), BuildingBlock: OJICUG_clean_linker_0, # of connection points: 2
#     Edge 96, Type (0, 0), BuildingBlock: OJICUG_clean_linker_0, # of connection points: 2
#     Edge 97, Type (0, 0), BuildingBlock: OJICUG_clean_linker_0, # of connection points: 2
#     Edge 98, Type (0, 0), BuildingBlock: OJICUG_clean_linker_0, # of connection points: 2
#     Edge 99, Type (0, 0), BuildingBlock: OJICUG_clean_linker_0, # of connection points: 2
#     Edge 100, Type (0, 0), BuildingBlock: OJICUG_clean_linker_0, # of connection points: 2
#     Edge 101, Type (0, 0), BuildingBlock: OJICUG_clean_linker_0, # of connection points: 2
#     Edge 102, Type (0, 0), BuildingBlock: OJICUG_clean_linker_0, # of connection points: 2
#     Edge 103, Type (0, 0), BuildingBlock: OJICUG_clean_linker_0, # of connection points: 2
#     Edge 104, Type (0, 0), BuildingBlock: OJICUG_clean_linker_0, # of connection points: 2
#     Edge 105, Type (0, 0), BuildingBlock: OJICUG_clean_linker_0, # of connection points: 2
#     Edge 106, Type (0, 0), BuildingBlock: OJICUG_clean_linker_0, # of connection points: 2
#     Edge 107, Type (0, 0), BuildingBlock: OJICUG_clean_linker_0, # of connection points: 2
#     Edge 108, Type (0, 0), BuildingBlock: OJICUG_clean_linker_0, # of connection points: 2
#     Edge 109, Type (0, 0), BuildingBlock: OJICUG_clean_linker_0, # of connection points: 2
#     Edge 110, Type (0, 0), BuildingBlock: OJICUG_clean_linker_0, # of connection points: 2
#     Edge 111, Type (0, 0), BuildingBlock: OJICUG_clean_linker_0, # of connection points: 2
#     Edge 112, Type (0, 0), BuildingBlock: OJICUG_clean_linker_0, # of connection points: 2
#     Edge 113, Type (0, 0), BuildingBlock: OJICUG_clean_linker_0, # of connection points: 2
#     Edge 114, Type (0, 0), BuildingBlock: OJICUG_clean_linker_0, # of connection points: 2
#     Edge 115, Type (0, 0), BuildingBlock: OJICUG_clean_linker_0, # of connection points: 2
#     Edge 116, Type (0, 0), BuildingBlock: OJICUG_clean_linker_0, # of connection points: 2
#     Edge 117, Type (0, 0), BuildingBlock: OJICUG_clean_linker_0, # of connection points: 2
#     Edge 118, Type (0, 0), BuildingBlock: OJICUG_clean_linker_0, # of connection points: 2
#     Edge 119, Type (0, 0), BuildingBlock: OJICUG_clean_linker_0, # of connection points: 2
#     Edge 120, Type (0, 0), BuildingBlock: OJICUG_clean_linker_0, # of connection points: 2
#     Edge 121, Type (0, 0), BuildingBlock: OJICUG_clean_linker_0, # of connection points: 2
#     Edge 122, Type (0, 0), BuildingBlock: OJICUG_clean_linker_0, # of connection points: 2
#     Edge 123, Type (0, 0), BuildingBlock: OJICUG_clean_linker_0, # of connection points: 2
#     Edge 124, Type (0, 0), BuildingBlock: OJICUG_clean_linker_0, # of connection points: 2
#     Edge 125, Type (0, 0), BuildingBlock: OJICUG_clean_linker_0, # of connection points: 2
#     Edge 126, Type (0, 0), BuildingBlock: OJICUG_clean_linker_0, # of connection points: 2
#     Edge 127, Type (0, 0), BuildingBlock: OJICUG_clean_linker_0, # of connection points: 2
#     Edge 128, Type (0, 0), BuildingBlock: OJICUG_clean_linker_0, # of connection points: 2
#     Edge 129, Type (0, 0), BuildingBlock: OJICUG_clean_linker_0, # of connection points: 2
#     Edge 130, Type (0, 0), BuildingBlock: OJICUG_clean_linker_0, # of connection points: 2
#     Edge 131, Type (0, 0), BuildingBlock: OJICUG_clean_linker_0, # of connection points: 2
#     Edge 132, Type (0, 0), BuildingBlock: OJICUG_clean_linker_0, # of connection points: 2
#     Edge 133, Type (0, 0), BuildingBlock: OJICUG_clean_linker_0, # of connection points: 2
#     Edge 134, Type (0, 0), BuildingBlock: OJICUG_clean_linker_0, # of connection points: 2
#     Edge 135, Type (0, 0), BuildingBlock: OJICUG_clean_linker_0, # of connection points: 2
#     Edge 136, Type (0, 0), BuildingBlock: OJICUG_clean_linker_0, # of connection points: 2
#     Edge 137, Type (0, 0), BuildingBlock: OJICUG_clean_linker_0, # of connection points: 2
#     Edge 138, Type (0, 0), BuildingBlock: OJICUG_clean_linker_0, # of connection points: 2
#     Edge 139, Type (0, 0), BuildingBlock: OJICUG_clean_linker_0, # of connection points: 2
#     Edge 140, Type (0, 0), BuildingBlock: OJICUG_clean_linker_0, # of connection points: 2
#     Edge 141, Type (0, 0), BuildingBlock: OJICUG_clean_linker_0, # of connection points: 2
#     Edge 142, Type (0, 0), BuildingBlock: OJICUG_clean_linker_0, # of connection points: 2
#     Edge 143, Type (0, 0), BuildingBlock: OJICUG_clean_linker_0, # of connection points: 2
#     Edge 144, Type (0, 0), BuildingBlock: OJICUG_clean_linker_0, # of connection points: 2
#     Edge 145, Type (0, 0), BuildingBlock: OJICUG_clean_linker_0, # of connection points: 2
#     Edge 146, Type (0, 0), BuildingBlock: OJICUG_clean_linker_0, # of connection points: 2
#     Edge 147, Type (0, 0), BuildingBlock: OJICUG_clean_linker_0, # of connection points: 2
#     Edge 148, Type (0, 0), BuildingBlock: OJICUG_clean_linker_0, # of connection points: 2
#     Edge 149, Type (0, 0), BuildingBlock: OJICUG_clean_linker_0, # of connection points: 2
#     Edge 150, Type (0, 0), BuildingBlock: OJICUG_clean_linker_0, # of connection points: 2
#     Edge 151, Type (0, 0), BuildingBlock: OJICUG_clean_linker_0, # of connection points: 2
#     Edge 152, Type (0, 0), BuildingBlock: OJICUG_clean_linker_0, # of connection points: 2
#     Edge 153, Type (0, 0), BuildingBlock: OJICUG_clean_linker_0, # of connection points: 2
#     Edge 154, Type (0, 0), BuildingBlock: OJICUG_clean_linker_0, # of connection points: 2
#     Edge 155, Type (0, 0), BuildingBlock: OJICUG_clean_linker_0, # of connection points: 2
#     Edge 156, Type (0, 0), BuildingBlock: OJICUG_clean_linker_0, # of connection points: 2
#     Edge 157, Type (0, 0), BuildingBlock: OJICUG_clean_linker_0, # of connection points: 2
#     Edge 158, Type (0, 0), BuildingBlock: OJICUG_clean_linker_0, # of connection points: 2
#     Edge 159, Type (0, 0), BuildingBlock: OJICUG_clean_linker_0, # of connection points: 2
#     Edge 160, Type (0, 0), BuildingBlock: OJICUG_clean_linker_0, # of connection points: 2
#     Edge 161, Type (0, 0), BuildingBlock: OJICUG_clean_linker_0, # of connection points: 2
#     Edge 162, Type (0, 0), BuildingBlock: OJICUG_clean_linker_0, # of connection points: 2
#     Edge 163, Type (0, 0), BuildingBlock: OJICUG_clean_linker_0, # of connection points: 2
#     Edge 164, Type (0, 0), BuildingBlock: OJICUG_clean_linker_0, # of connection points: 2
#     Edge 165, Type (0, 0), BuildingBlock: OJICUG_clean_linker_0, # of connection points: 2
#     Edge 166, Type (0, 0), BuildingBlock: OJICUG_clean_linker_0, # of connection points: 2
#     Edge 167, Type (0, 0), BuildingBlock: OJICUG_clean_linker_0, # of connection points: 2
# Relax obj value: 0.297
# Max RMSD: 0.230
# Mean RMSD: 0.230
data_MOF--net-fcs--node1-BEQFEK_clean_sbu_0--edge1-OJICUG_clean_linker_0
_symmetry_space_group_name_H-M    P1
_symmetry_Int_Tables_number       1
_symmetry_cell_setting            triclinic
loop_
_symmetry_equiv_pos_as_xyz
'x, y, z'
_cell_length_a     46.139744
_cell_length_b     46.147387
_cell_length_c     46.13025
_cell_angle_alpha  89.997151
_cell_angle_beta   89.974176
_cell_angle_gamma 89.990252
loop_
_atom_site_label
_atom_site_type_symbol
_atom_site_fract_x
_atom_site_fract_y
_atom_site_fract_z
_atom_type_partial_charge
Co0 Co 0.15289 0.13446 0.30087 0.0
Co1 Co 0.08542 0.13045 0.31004 0.0
C2 C 0.12436 0.14955 0.35784 0.0
O3 O 0.14719 0.14501 0.34272 0.0
O4 O 0.09915 0.14351 0.34816 0.0
C5 C 0.2124 0.11206 0.28916 0.0
O6 O 0.20663 0.08819 0.30357 0.0
C7 C 0.0247 0.12295 0.32997 0.0
C8 C 0.00334 0.10886 0.28945 0.0
C9 C 0.99822 0.11477 0.31834 0.0
N10 N 0.0448 0.12167 0.30895 0.0
N11 N 0.03184 0.11325 0.28478 0.0
C12 C 0.03075 0.13216 0.36045 0.0
H13 H 0.04999 0.12037 0.36875 0.0
H14 H 0.01191 0.12802 0.37484 0.0
H15 H 0.03585 0.15564 0.36063 0.0
C16 C 0.14051 0.07835 0.2715 0.0
N17 N 0.13279 0.1011 0.28808 0.0
N18 N 0.1062 0.09728 0.29724 0.0
C19 C 0.09741 0.07037 0.29004 0.0
C20 C 0.11877 0.05738 0.27296 0.0
C21 C 0.16434 0.07975 0.24945 0.0
H22 H 0.17046 0.10258 0.24507 0.0
H23 H 0.18352 0.06782 0.25737 0.0
H24 H 0.15733 0.06952 0.22883 0.0
O25 O 0.13862 0.16793 0.28052 0.0
O26 O 0.09083 0.16576 0.28457 0.0
H27 H 0.05276 0.05845 0.2857 0.0
H28 H 0.07421 0.03341 0.30656 0.0
C29 C 0.07045 0.05669 0.30184 0.0
H30 H 0.06358 0.06777 0.32206 0.0
H31 H 0.04248 0.11068 0.26498 0.0
O32 O 0.19402 0.13259 0.28889 0.0
C33 C 0.11375 0.17858 0.27586 0.0
Co34 Co 0.38388 0.59701 0.95054 0.0
Co35 Co 0.38113 0.66398 0.93968 0.0
C36 C 0.39982 0.62376 0.89296 0.0
O37 O 0.39489 0.60139 0.90865 0.0
O38 O 0.39378 0.64927 0.90181 0.0
C39 C 0.36192 0.53736 0.96389 0.0
O40 O 0.33858 0.54105 0.94801 0.0
C41 C 0.36855 0.724 0.91966 0.0
C42 C 0.3699 0.74732 0.96156 0.0
C43 C 0.36559 0.75123 0.93218 0.0
N44 N 0.37397 0.70475 0.94085 0.0
N45 N 0.37456 0.71885 0.9658 0.0
C46 C 0.36812 0.71656 0.88807 0.0
H47 H 0.38635 0.7018 0.88294 0.0
H48 H 0.34767 0.705 0.88297 0.0
H49 H 0.36973 0.73618 0.87428 0.0
C50 C 0.32681 0.61047 0.97797 0.0
N51 N 0.3505 0.61779 0.96251 0.0
N52 N 0.3475 0.64436 0.95304 0.0
C53 C 0.32046 0.65365 0.95902 0.0
C54 C 0.30619 0.63254 0.97547 0.0
C55 C 0.32673 0.58642 -0.00017 0.0
H56 H 0.34924 0.58047 0.00583 0.0
H57 H 0.31565 0.56715 0.99088 0.0
H58 H 0.315 0.59315 0.01974 0.0
O59 O 0.41783 0.61097 0.9705 0.0
O60 O 0.41652 0.65852 0.96469 0.0
H61 H 0.31128 0.69895 0.96257 0.0
H62 H 0.28478 0.67863 0.94197 0.0
C63 C 0.3082 0.68107 0.94679 0.0
H64 H 0.31957 0.6868 0.92643 0.0
H65 H 0.37855 0.70901 0.98577 0.0
O66 O 0.38157 0.55665 0.96403 0.0
C67 C 0.42908 0.63576 0.97401 0.0
Co68 Co 0.84121 0.36502 0.29865 0.0
Co69 Co 0.90754 0.36773 0.31331 0.0
C70 C 0.86569 0.34848 0.35759 0.0
O71 O 0.84464 0.35265 0.34003 0.0
O72 O 0.89176 0.355 0.3509 0.0
C73 C 0.78238 0.38852 0.28573 0.0
O74 O 0.78778 0.41205 0.3008 0.0
C75 C 0.96837 0.37298 0.33405 0.0
C76 C 0.98962 0.39021 0.29464 0.0
C77 C 0.99487 0.38193 0.32291 0.0
N78 N 0.94821 0.37601 0.31327 0.0
N79 N 0.96113 0.38619 0.28977 0.0
C80 C 0.96209 0.36224 0.364 0.0
H81 H 0.94302 0.37391 0.37288 0.0
H82 H 0.98093 0.36533 0.37863 0.0
H83 H 0.95649 0.33888 0.36298 0.0
C84 C 0.85564 0.42226 0.27328 0.0
N85 N 0.86226 0.3985 0.28881 0.0
N86 N 0.88808 0.40161 0.3001 0.0
C87 C 0.89731 0.42891 0.29528 0.0
C88 C 0.87717 0.44304 0.27762 0.0
C89 C 0.83317 0.4223 0.2498 0.0
H90 H 0.82712 0.39981 0.24387 0.0
H91 H 0.81358 0.43396 0.25716 0.0
H92 H 0.84152 0.43354 0.23023 0.0
O93 O 0.85589 0.33245 0.27752 0.0
O94 O 0.90285 0.33253 0.28729 0.0
H95 H 0.94209 0.4412 0.29498 0.0
H96 H 0.91903 0.46466 0.31594 0.0
C97 C 0.92327 0.44176 0.3099 0.0
H98 H 0.92879 0.42927 0.3297 0.0
H99 H 0.95042 0.39037 0.27028 0.0
O100 O 0.80079 0.36804 0.2852 0.0
C101 C 0.88071 0.32091 0.27546 0.0
Co102 Co 0.61664 0.89982 0.94659 0.0
Co103 Co 0.61449 0.83167 0.94503 0.0
C104 C 0.59539 0.87184 0.89479 0.0
O105 O 0.6037 0.89574 0.90613 0.0
O106 O 0.59922 0.84752 0.90762 0.0
C107 C 0.62586 0.96606 0.96079 0.0
O108 O 0.6199 0.97916 0.93622 0.0
C109 C 0.62878 0.77246 0.92378 0.0
C110 C 0.61495 0.74628 0.96146 0.0
C111 C 0.62656 0.74409 0.93388 0.0
N112 N 0.6191 0.79045 0.9446 0.0
N113 N 0.61113 0.77461 0.96711 0.0
C114 C 0.63788 0.78226 0.89423 0.0
H115 H 0.63072 0.80481 0.89011 0.0
H116 H 0.66187 0.78157 0.89274 0.0
H117 H 0.62887 0.76762 0.8774 0.0
C118 C 0.6772 0.88746 0.96108 0.0
N119 N 0.65044 0.87828 0.9541 0.0
N120 N 0.64939 0.84995 0.9561 0.0
C121 C 0.67529 0.84015 0.9655 0.0
C122 C 0.6938 0.86373 0.96914 0.0
C123 C 0.68722 0.9182 0.95827 0.0
H124 H 0.67552 0.92912 0.94033 0.0
H125 H 0.71089 0.91915 0.95406 0.0
H126 H 0.6827 0.92996 0.9787 0.0
O127 O 0.58239 0.88708 0.96913 0.0
O128 O 0.58252 0.83923 0.97201 0.0
H129 H 0.70046 0.80684 0.98704 0.0
H130 H 0.68497 0.79685 0.95246 0.0
C131 C 0.68125 0.80914 0.97281 0.0
H132 H 0.66221 0.79964 0.98394 0.0
H133 H 0.60257 0.78316 0.98623 0.0
O134 O 0.62408 0.93871 0.96267 0.0
C135 C 0.57087 0.86353 0.97759 0.0
Co136 Co 0.15548 0.86333 0.20209 0.0
Co137 Co 0.08996 0.86728 0.18542 0.0
C138 C 0.13142 0.8463 0.14252 0.0
O139 O 0.15171 0.84919 0.16116 0.0
O140 O 0.10553 0.85434 0.14797 0.0
C141 C 0.21398 0.88849 0.21113 0.0
O142 O 0.20663 0.91161 0.19624 0.0
C143 C 0.02928 0.87166 0.16409 0.0
C144 C 0.00755 0.89005 0.2027 0.0
C145 C 0.00257 0.88067 0.17471 0.0
N146 N 0.04925 0.8756 0.18492 0.0
N147 N 0.03604 0.88648 0.20794 0.0
C148 C 0.03598 0.86021 0.13449 0.0
H149 H 0.0547 0.87219 0.12531 0.0
H150 H 0.01713 0.8623 0.1197 0.0
H151 H 0.0423 0.83707 0.13622 0.0
C152 C 0.14179 0.92134 0.2258 0.0
N153 N 0.13512 0.89765 0.21019 0.0
N154 N 0.10959 0.90114 0.19833 0.0
C155 C 0.10065 0.92857 0.20297 0.0
C156 C 0.12064 0.94242 0.22102 0.0
C157 C 0.16386 0.92105 0.24964 0.0
H158 H 0.16985 0.89847 0.25535 0.0
H159 H 0.18355 0.93276 0.24271 0.0
H160 H 0.1552 0.93207 0.2692 0.0
O161 O 0.1407 0.8325 0.22628 0.0
O162 O 0.09469 0.83259 0.21228 0.0
H163 H 0.05598 0.94127 0.20287 0.0
H164 H 0.07944 0.96453 0.18215 0.0
C165 C 0.07494 0.94167 0.18813 0.0
H166 H 0.06948 0.92921 0.16829 0.0
H167 H 0.04652 0.89138 0.22737 0.0
O168 O 0.19639 0.86741 0.21338 0.0
C169 C 0.11549 0.82161 0.22692 0.0
Co170 Co 0.11152 0.59543 0.0486 0.0
Co171 Co 0.11383 0.66251 0.05936 0.0
C172 C 0.09642 0.62207 0.10655 0.0
O173 O 0.10111 0.59974 0.09073 0.0
O174 O 0.10184 0.64761 0.09741 0.0
C175 C 0.13428 0.53622 0.03532 0.0
O176 O 0.15776 0.54081 0.05075 0.0
C177 C 0.12713 0.72259 0.07916 0.0
C178 C 0.12448 0.74596 0.03737 0.0
C179 C 0.12992 0.74979 0.06657 0.0
N180 N 0.1208 0.70337 0.05818 0.0
N181 N 0.11943 0.71752 0.03328 0.0
C182 C 0.12891 0.71528 0.11073 0.0
H183 H 0.11371 0.69753 0.11607 0.0
H184 H 0.15121 0.7079 0.11586 0.0
H185 H 0.12384 0.73442 0.12439 0.0
C186 C 0.16816 0.60952 0.02037 0.0
N187 N 0.14461 0.61655 0.0362 0.0
N188 N 0.14748 0.64313 0.04566 0.0
C189 C 0.17434 0.65271 0.03933 0.0
C190 C 0.18858 0.6318 0.02262 0.0
C191 C 0.1682 0.58554 0.99845 0.0
H192 H 0.14569 0.57922 0.99288 0.0
H193 H 0.17978 0.56645 0.00715 0.0
H194 H 0.17946 0.5925 0.97835 0.0
O195 O 0.07732 0.60914 0.02886 0.0
O196 O 0.07835 0.65672 0.03447 0.0
H197 H 0.18296 0.69814 0.03601 0.0
H198 H 0.21007 0.67792 0.05594 0.0
C199 C 0.18653 0.68015 0.05156 0.0
H200 H 0.17551 0.68554 0.07219 0.0
H201 H 0.11471 0.70774 0.01344 0.0
O202 O 0.1141 0.55495 0.03525 0.0
C203 C 0.06594 0.63385 0.02522 0.0
Co204 Co 0.84382 0.63384 0.19577 0.0
Co205 Co 0.91175 0.63151 0.18974 0.0
C206 C 0.87385 0.64909 0.14014 0.0
O207 O 0.85046 0.64327 0.15388 0.0
O208 O 0.89872 0.64465 0.1514 0.0
C209 C 0.78553 0.60867 0.20638 0.0
O210 O 0.79353 0.5848 0.19307 0.0
C211 C 0.97267 0.62385 0.1703 0.0
C212 C 0.99394 0.61065 0.21116 0.0
C213 C -0.00089 0.6158 0.18212 0.0
N214 N 0.95254 0.62325 0.19136 0.0
N215 N 0.96545 0.61533 0.21572 0.0
C216 C 0.9667 0.63222 0.13957 0.0
H217 H 0.94743 0.62027 0.13157 0.0
H218 H 0.98555 0.62762 0.12534 0.0
H219 H 0.9617 0.65571 0.13873 0.0
C220 C 0.85703 0.57901 0.2272 0.0
N221 N 0.86456 0.60149 0.21019 0.0
N222 N 0.89132 0.59791 0.2015 0.0
C223 C 0.90044 0.57129 0.20926 0.0
C224 C 0.87905 0.55829 0.22631 0.0
C225 C 0.8334 0.58089 0.24943 0.0
H226 H 0.82677 0.60376 0.25283 0.0
H227 H 0.81442 0.56823 0.24229 0.0
H228 H 0.84087 0.57171 0.27038 0.0
O229 O 0.85637 0.66847 0.21529 0.0
O230 O 0.90447 0.66615 0.21592 0.0
H231 H 0.94517 0.55993 0.2143 0.0
H232 H 0.92431 0.53455 0.19321 0.0
C233 C 0.92773 0.55788 0.19792 0.0
H234 H 0.93476 0.56896 0.17776 0.0
H235 H 0.95477 0.61314 0.23554 0.0
O236 O 0.80238 0.6305 0.20639 0.0
C237 C 0.88076 0.67909 0.22208 0.0
Co238 Co 0.88454 0.90137 0.0487 0.0
Co239 Co 0.8825 0.83341 0.05506 0.0
C240 C 0.90138 0.87252 0.10394 0.0
O241 O 0.89536 0.89581 0.09017 0.0
O242 O 0.89616 0.84755 0.09316 0.0
C243 C 0.86616 0.96343 0.03957 0.0
O244 O 0.84436 0.96126 0.05776 0.0
C245 C 0.87458 0.77315 0.07583 0.0
C246 C 0.86629 0.75025 0.03454 0.0
C247 C 0.86866 0.74613 0.06409 0.0
N248 N 0.87527 0.79261 0.05419 0.0
N249 N 0.87033 0.77873 0.02958 0.0
C250 C 0.88003 0.78028 0.10697 0.0
H251 H 0.86806 0.80026 0.11293 0.0
H252 H 0.8734 0.7622 0.1214 0.0
H253 H 0.90349 0.78453 0.11 0.0
C254 C 0.82614 0.88971 0.0228 0.0
N255 N 0.85058 0.8813 0.03659 0.0
N256 N 0.84883 0.85337 0.04208 0.0
C257 C 0.82249 0.84369 0.03377 0.0
C258 C 0.8075 0.8663 0.02103 0.0
C259 C 0.82208 0.91807 0.00766 0.0
H260 H 0.84318 0.92641 -0.00014 0.0
H261 H 0.81193 0.93373 0.02275 0.0
H262 H 0.80741 0.91568 0.98874 0.0
O263 O 0.91851 0.8872 0.02814 0.0
O264 O 0.91699 0.8393 0.02966 0.0
H265 H 0.81641 0.79963 0.02097 0.0
H266 H 0.78694 0.81444 0.04155 0.0
C267 C 0.81091 0.81395 0.03946 0.0
H268 H 0.82032 0.805 0.05966 0.0
H269 H 0.86994 0.78874 0.0093 0.0
O270 O 0.88335 0.94221 0.03614 0.0
C271 C 0.92956 0.86273 0.02229 0.0
Co272 Co 0.29615 0.15353 0.13566 0.0
Co273 Co 0.30929 0.08701 0.13284 0.0
C274 C 0.35514 0.12789 0.15028 0.0
O275 O 0.33793 0.14929 0.14642 0.0
O276 O 0.34765 0.10195 0.14417 0.0
C277 C 0.2852 0.21222 0.11145 0.0
O278 O 0.30009 0.20568 0.08808 0.0
C279 C 0.32908 0.02611 0.12637 0.0
C280 C 0.28815 0.00484 0.11324 0.0
C281 C 0.31706 -0.00039 0.11884 0.0
N282 N 0.30818 0.04632 0.12507 0.0
N283 N 0.28379 0.03342 0.11726 0.0
C284 C 0.35979 0.03224 0.13471 0.0
H285 H 0.36842 0.04992 0.12087 0.0
H286 H 0.37365 0.0127 0.13244 0.0
H287 H 0.3604 0.03994 0.15749 0.0
C288 C 0.26891 0.13947 0.07893 0.0
N289 N 0.28459 0.1325 0.10254 0.0
N290 N 0.29517 0.10639 0.0993 0.0
C291 C 0.28965 0.09719 0.07212 0.0
C292 C 0.27235 0.11777 0.0581 0.0
C293 C 0.24634 0.16282 0.07898 0.0
H294 H 0.24082 0.1692 0.10151 0.0
H295 H 0.25441 0.18204 0.06721 0.0
H296 H 0.2264 0.15522 0.06789 0.0
O297 O 0.27606 0.1397 0.16954 0.0
O298 O 0.28482 0.09252 0.16891 0.0
H299 H 0.28785 0.05229 0.06058 0.0
H300 H 0.30897 0.07439 0.03623 0.0
C301 C 0.30327 0.07067 0.05931 0.0
H302 H 0.3232 0.06481 0.07143 0.0
H303 H 0.26406 0.0442 0.11471 0.0
O304 O 0.28389 0.19429 0.13233 0.0
C305 C 0.27412 0.11489 0.18117 0.0
Co306 Co 0.40248 0.44691 0.11363 0.0
Co307 Co 0.33509 0.43722 0.1182 0.0
C308 C 0.37403 0.39021 0.09735 0.0
O309 O 0.39681 0.40538 0.10195 0.0
O310 O 0.3488 0.39955 0.10388 0.0
C311 C 0.46189 0.46036 0.13523 0.0
O312 O 0.45699 0.44563 0.1591 0.0
C313 C 0.2742 0.41765 0.12552 0.0
C314 C 0.25373 0.45767 0.14221 0.0
C315 C 0.24803 0.42928 0.13472 0.0
N316 N 0.29467 0.43823 0.1277 0.0
N317 N 0.28223 0.4621 0.1376 0.0
C318 C 0.27968 0.38761 0.11467 0.0
H319 H 0.29892 0.37842 0.12578 0.0
H320 H 0.26067 0.37332 0.1183 0.0
H321 H 0.28456 0.38855 0.09114 0.0
C322 C 0.39037 0.47514 0.17024 0.0
N323 N 0.38273 0.45859 0.14747 0.0
N324 N 0.35634 0.44894 0.15149 0.0
C325 C 0.34775 0.45567 0.17859 0.0
C326 C 0.36893 0.47302 0.19143 0.0
C327 C 0.41332 0.49807 0.16851 0.0
H328 H 0.41894 0.5027 0.1456 0.0
H329 H 0.43297 0.49094 0.18021 0.0
H330 H 0.40565 0.51841 0.17883 0.0
O331 O 0.38751 0.46824 0.08139 0.0
O332 O 0.33978 0.46394 0.08367 0.0
H333 H 0.30326 0.45897 0.19156 0.0
H334 H 0.32562 0.43811 0.21572 0.0
C335 C 0.32128 0.44314 0.19259 0.0
H336 H 0.31454 0.42303 0.18126 0.0
H337 H 0.29322 0.48155 0.14108 0.0
O338 O 0.44339 0.45971 0.11482 0.0
C339 C 0.36258 0.47337 0.07116 0.0
Co340 Co 0.69899 0.34444 0.13328 0.0
Co341 Co 0.68646 0.41124 0.12905 0.0
C342 C 0.64045 0.37043 0.14777 0.0
O343 O 0.65694 0.34849 0.14365 0.0
O344 O 0.64868 0.3961 0.14151 0.0
C345 C 0.71155 0.28524 0.11089 0.0
O346 O 0.6965 0.29069 0.08734 0.0
C347 C 0.66564 0.47182 0.12322 0.0
C348 C 0.70514 0.4935 0.10682 0.0
C349 C 0.67669 0.49846 0.11468 0.0
N350 N 0.6866 0.45183 0.12035 0.0
N351 N 0.71017 0.46499 0.11064 0.0
C352 C 0.6357 0.46538 0.13385 0.0
H353 H 0.62692 0.44638 0.12202 0.0
H354 H 0.62101 0.48419 0.13086 0.0
H355 H 0.63671 0.45967 0.15719 0.0
C356 C 0.7269 0.35763 0.0765 0.0
N357 N 0.71083 0.36491 0.09978 0.0
N358 N 0.70035 0.391 0.096 0.0
C359 C 0.70625 0.3998 0.06878 0.0
C360 C 0.72384 0.37911 0.05539 0.0
C361 C 0.74943 0.33424 0.07711 0.0
H362 H 0.75471 0.32821 0.09977 0.0
H363 H 0.74145 0.31488 0.06549 0.0
H364 H 0.76952 0.34166 0.06612 0.0
O365 O 0.71844 0.35949 0.16701 0.0
O366 O 0.71138 0.40691 0.16477 0.0
H367 H 0.70753 0.44442 0.05597 0.0
H368 H 0.68695 0.42138 0.03216 0.0
C369 C 0.69239 0.42581 0.05517 0.0
H370 H 0.67229 0.43174 0.06699 0.0
H371 H 0.72983 0.45449 0.1068 0.0
O372 O 0.71225 0.30378 0.13126 0.0
C373 C 0.72122 0.3846 0.17778 0.0
Co374 Co 0.59635 0.04944 0.11175 0.0
Co375 Co 0.66319 0.06025 0.11809 0.0
C376 C 0.62439 0.10748 0.09884 0.0
O377 O 0.60206 0.09135 0.1021 0.0
O378 O 0.64975 0.09858 0.10538 0.0
C379 C 0.53743 0.03941 0.1348 0.0
O380 O 0.54452 0.05381 0.15832 0.0
C381 C 0.72411 0.07907 0.12577 0.0
C382 C 0.74416 0.03886 0.14251 0.0
C383 C 0.75014 0.0672 0.13499 0.0
N384 N 0.70345 0.05871 0.12795 0.0
N385 N 0.71563 0.03471 0.13789 0.0
C386 C 0.71889 0.10915 0.11491 0.0
H387 H 0.70054 0.11894 0.12701 0.0
H388 H 0.73841 0.12298 0.11735 0.0
H389 H 0.71261 0.10818 0.09171 0.0
C390 C 0.60782 0.0201 0.16826 0.0
N391 N 0.61571 0.03679 0.14563 0.0
N392 N 0.64166 0.04715 0.15044 0.0
C393 C 0.64974 0.04057 0.17768 0.0
C394 C 0.62872 0.02259 0.19001 0.0
C395 C 0.58451 0.99759 0.16636 0.0
H396 H 0.57865 0.99339 0.14342 0.0
H397 H 0.56506 0.00501 0.17819 0.0
H398 H 0.59188 0.97704 0.17646 0.0
O399 O 0.61117 0.02928 0.07813 0.0
O400 O 0.65881 0.03484 0.08277 0.0
H401 H 0.69404 0.03903 0.19165 0.0
H402 H 0.6703 0.05901 0.21531 0.0
C403 C 0.67537 0.05411 0.1923 0.0
H404 H 0.68161 0.07445 0.18107 0.0
H405 H 0.70444 0.01536 0.14133 0.0
O406 O 0.55512 0.03829 0.11369 0.0
C407 C 0.63678 0.02539 0.06903 0.0
Co408 Co 0.29819 0.84528 0.36103 0.0
Co409 Co 0.31191 0.91141 0.36616 0.0
C410 C 0.35765 0.87004 0.34869 0.0
O411 O 0.34023 0.84874 0.35204 0.0
O412 O 0.35023 0.89602 0.35485 0.0
C413 C 0.28521 0.78561 0.38045 0.0
O414 O 0.30116 0.78949 0.40372 0.0
C415 C 0.33121 0.97232 0.37376 0.0
C416 C 0.29017 0.99263 0.38813 0.0
C417 C 0.31884 0.99847 0.38196 0.0
N418 N 0.31074 0.95172 0.37527 0.0
N419 N 0.28628 0.96405 0.3838 0.0
C420 C 0.36171 0.96697 0.3642 0.0
H421 H 0.37093 0.94867 0.3768 0.0
H422 H 0.37543 0.98652 0.36707 0.0
H423 H 0.36171 0.96049 0.34103 0.0
C424 C 0.27032 0.85761 0.41802 0.0
N425 N 0.28616 0.86516 0.39468 0.0
N426 N 0.29687 0.8911 0.39873 0.0
C427 C 0.29116 0.89962 0.42608 0.0
C428 C 0.27356 0.87884 0.43936 0.0
C429 C 0.24841 0.83366 0.41762 0.0
H430 H 0.2426 0.82797 0.39499 0.0
H431 H 0.25736 0.81429 0.42853 0.0
H432 H 0.22846 0.84028 0.42933 0.0
O433 O 0.27986 0.86086 0.32724 0.0
O434 O 0.28809 0.90799 0.32962 0.0
H435 H 0.29033 0.94419 0.43906 0.0
H436 H 0.31048 0.9208 0.46295 0.0
C437 C 0.30524 0.92538 0.43992 0.0
H438 H 0.32548 0.93111 0.42825 0.0
H439 H 0.26678 0.9529 0.38646 0.0
O440 O 0.28422 0.80521 0.36122 0.0
C441 C 0.27802 0.88596 0.31638 0.0
Co442 Co 0.09464 0.44845 0.88335 0.0
Co443 Co 0.16193 0.4381 0.88021 0.0
C444 C 0.12242 0.39133 0.89998 0.0
O445 O 0.09991 0.40685 0.89516 0.0
O446 O 0.14786 0.40035 0.89384 0.0
C447 C 0.03511 0.46046 0.86077 0.0
O448 O 0.04023 0.44513 0.83732 0.0
C449 C 0.22316 0.41894 0.87491 0.0
C450 C 0.24357 0.45854 0.85716 0.0
C451 C 0.24941 0.43051 0.86584 0.0
N452 N 0.20256 0.43925 0.87165 0.0
N453 N 0.21497 0.46288 0.86117 0.0
C454 C 0.21758 0.38903 0.88606 0.0
H455 H 0.1987 0.37956 0.87457 0.0
H456 H 0.23674 0.37478 0.88312 0.0
H457 H 0.21206 0.39026 0.90943 0.0
C458 C 0.1075 0.47472 0.82583 0.0
N459 N 0.11506 0.45968 0.84967 0.0
N460 N 0.14149 0.44988 0.84645 0.0
C461 C 0.15029 0.45499 0.81906 0.0
C462 C 0.12916 0.47144 0.80494 0.0
C463 C 0.08396 0.49711 0.82577 0.0
H464 H 0.07782 0.50297 0.84827 0.0
H465 H 0.06469 0.48876 0.81427 0.0
H466 H 0.09131 0.51695 0.81432 0.0
O467 O 0.10888 0.46964 0.91624 0.0
O468 O 0.15653 0.46429 0.91497 0.0
H469 H 0.19495 0.45729 0.8065 0.0
H470 H 0.17277 0.43517 0.78326 0.0
C471 C 0.17684 0.44153 0.80611 0.0
H472 H 0.18333 0.42207 0.81866 0.0
H473 H 0.20385 0.48208 0.85676 0.0
O474 O 0.05377 0.46109 0.88102 0.0
C475 C 0.13367 0.47394 0.92719 0.0
Co476 Co 0.7014 0.65108 0.35808 0.0
Co477 Co 0.68933 0.58441 0.36326 0.0
C478 C 0.64264 0.62559 0.34563 0.0
O479 O 0.65907 0.64764 0.34937 0.0
O480 O 0.65133 0.5999 0.35126 0.0
C481 C 0.71475 0.7115 0.37541 0.0
O482 O 0.69715 0.70919 0.39769 0.0
C483 C 0.6679 0.52427 0.37139 0.0
C484 C 0.70759 0.50263 0.38734 0.0
C485 C 0.67887 0.49779 0.38053 0.0
N486 N 0.68917 0.54407 0.37299 0.0
N487 N 0.71283 0.53094 0.38248 0.0
C488 C 0.63777 0.53075 0.36136 0.0
H489 H 0.62939 0.55 0.37308 0.0
H490 H 0.62304 0.51208 0.36499 0.0
H491 H 0.63827 0.53612 0.33792 0.0
C492 C 0.7284 0.63963 0.41592 0.0
N493 N 0.7135 0.63147 0.39213 0.0
N494 N 0.70369 0.60512 0.39598 0.0
C495 C 0.70897 0.5969 0.42353 0.0
C496 C 0.72548 0.61829 0.4372 0.0
C497 C 0.74899 0.66471 0.41627 0.0
H498 H 0.75571 0.67035 0.3939 0.0
H499 H 0.73839 0.68368 0.42642 0.0
H500 H 0.76866 0.65935 0.42904 0.0
O501 O 0.71951 0.63495 0.32434 0.0
O502 O 0.71388 0.58749 0.32696 0.0
H503 H 0.71025 0.55241 0.43679 0.0
H504 H 0.68938 0.57562 0.46023 0.0
C505 C 0.69506 0.571 0.4373 0.0
H506 H 0.67507 0.56493 0.42541 0.0
H507 H 0.7327 0.54132 0.38547 0.0
O508 O 0.71643 0.69093 0.35729 0.0
C509 C 0.72282 0.60996 0.31359 0.0
Co510 Co 0.90345 0.04965 0.88512 0.0
Co511 Co 0.83539 0.0565 0.88404 0.0
C512 C 0.87537 0.10561 0.90059 0.0
O513 O 0.89853 0.09151 0.8948 0.0
O514 O 0.85032 0.09469 0.8962 0.0
C515 C 0.96488 0.03934 0.86488 0.0
O516 O 0.96232 0.05729 0.84293 0.0
C517 C 0.77564 0.07876 0.87657 0.0
C518 C 0.75119 0.03805 0.87024 0.0
C519 C 0.74809 0.06778 0.87181 0.0
N520 N 0.7944 0.05652 0.87754 0.0
N521 N 0.7796 0.03226 0.87374 0.0
C522 C 0.7839 0.10985 0.8804 0.0
H523 H 0.80443 0.11436 0.86871 0.0
H524 H 0.7666 0.12451 0.87235 0.0
H525 H 0.78743 0.11412 0.90378 0.0
C526 C 0.8905 0.02223 0.82781 0.0
N527 N 0.88255 0.0368 0.85195 0.0
N528 N 0.8546 0.04236 0.85046 0.0
C529 C 0.84449 0.03326 0.82455 0.0
C530 C 0.86685 0.02007 0.80969 0.0
C531 C 0.91862 0.00668 0.8236 0.0
H532 H 0.92719 -0.0008 0.84471 0.0
H533 H 0.93423 0.02133 0.81277 0.0
H534 H 0.91578 0.9875 0.80935 0.0
O535 O 0.88962 0.03003 0.91994 0.0
O536 O 0.84167 0.03185 0.91904 0.0
H537 H 0.80047 0.01968 0.8204 0.0
H538 H 0.81428 0.03856 0.78936 0.0
C539 C 0.81442 0.03795 0.81343 0.0
H540 H 0.80547 0.05857 0.82188 0.0
H541 H 0.78891 0.01165 0.87383 0.0
O542 O 0.94423 0.03664 0.88292 0.0
C543 C 0.86523 0.02457 0.93144 0.0
Co544 Co 0.13444 0.2988 0.15354 0.0
Co545 Co 0.13021 0.31017 0.08655 0.0
C546 C 0.1487 0.35689 0.12673 0.0
O547 O 0.14446 0.34086 0.149 0.0
O548 O 0.14267 0.34812 0.10118 0.0
C549 C 0.11241 0.286 0.21281 0.0
O550 O 0.08887 0.30116 0.20768 0.0
C551 C 0.12383 0.33006 0.02571 0.0
C552 C 0.1073 0.2902 0.00481 0.0
C553 C 0.11496 0.3186 -0.00064 0.0
N554 N 0.12131 0.30938 0.04603 0.0
N555 N 0.11154 0.2856 0.03333 0.0
C556 C 0.13455 0.36007 0.03156 0.0
H557 H 0.12265 0.36932 0.0503 0.0
H558 H 0.13177 0.37435 0.01239 0.0
H559 H 0.15784 0.35907 0.03746 0.0
C560 C 0.07774 0.27061 0.14081 0.0
N561 N 0.10102 0.28654 0.13328 0.0
N562 N 0.09719 0.29671 0.10707 0.0
C563 C 0.06994 0.29082 0.09843 0.0
C564 C 0.05658 0.27352 0.11939 0.0
C565 C 0.07843 0.24818 0.16429 0.0
H566 H 0.10112 0.24287 0.17022 0.0
H567 H 0.0669 0.25624 0.18369 0.0
H568 H 0.06741 0.22808 0.15701 0.0
O569 O 0.16822 0.27943 0.13865 0.0
O570 O 0.1659 0.28523 0.09107 0.0
H571 H 0.05696 0.28913 0.05385 0.0
H572 H 0.03328 0.31 0.07681 0.0
C573 C 0.05627 0.30446 0.07233 0.0
H574 H 0.06811 0.32445 0.06615 0.0
H575 H 0.10787 0.26609 0.04418 0.0
O576 O 0.13272 0.28563 0.1942 0.0
C577 C 0.17897 0.27601 0.11361 0.0
Co578 Co 0.13043 0.69659 0.34617 0.0
Co579 Co 0.13306 0.69056 0.41469 0.0
C580 C 0.15065 0.64197 0.37547 0.0
O581 O 0.14422 0.65614 0.35255 0.0
O582 O 0.14574 0.65223 0.40069 0.0
C583 C 0.11443 0.70749 0.27803 0.0
O584 O 0.10669 0.68528 0.26201 0.0
C585 C 0.12139 0.67142 0.47505 0.0
C586 C 0.13191 0.71131 0.49943 0.0
C587 C 0.12248 0.68306 0.50285 0.0
N588 N 0.12944 0.69205 0.45608 0.0
N589 N 0.13549 0.71586 0.47082 0.0
C590 C 0.11514 0.64069 0.46677 0.0
H591 H 0.11218 0.63872 0.44301 0.0
H592 H 0.09533 0.63278 0.47779 0.0
H593 H 0.13349 0.62676 0.47369 0.0
C594 C 0.07209 0.71817 0.36115 0.0
N595 N 0.09768 0.7064 0.36881 0.0
N596 N 0.09832 0.7031 0.3971 0.0
C597 C 0.07289 0.71213 0.40832 0.0
C598 C 0.05554 0.72213 0.38594 0.0
C599 C 0.06502 0.72821 0.33112 0.0
H600 H 0.08299 0.74191 0.32296 0.0
H601 H 0.06288 0.70912 0.31667 0.0
H602 H 0.04473 0.74104 0.33034 0.0
O603 O 0.16429 0.72029 0.35658 0.0
O604 O 0.16623 0.71573 0.40455 0.0
H605 H 0.07802 0.72655 0.45203 0.0
H606 H 0.04167 0.71481 0.44334 0.0
C607 C 0.06505 0.71048 0.43975 0.0
H608 H 0.07017 0.68856 0.44811 0.0
H609 H 0.1424 0.73519 0.46133 0.0
O610 O 0.12067 0.70329 0.30458 0.0
C611 C 0.17679 0.72496 0.38076 0.0
Co612 Co 0.94868 0.61288 0.90136 0.0
Co613 Co 0.93829 0.61653 0.83414 0.0
C614 C 0.89105 0.59812 0.87383 0.0
O615 O 0.90679 0.60245 0.89626 0.0
O616 O 0.90017 0.60402 0.84837 0.0
C617 C 0.95953 0.635 0.96108 0.0
O618 O 0.94415 0.65834 0.95564 0.0
C619 C 0.91821 0.62357 0.77331 0.0
C620 C 0.95849 0.63863 0.75211 0.0
C621 C 0.92976 0.63213 0.74689 0.0
N622 N 0.93916 0.62519 0.79348 0.0
N623 N 0.96318 0.63414 0.78059 0.0
C624 C 0.88787 0.61391 0.77933 0.0
H625 H 0.87911 0.62617 0.79808 0.0
H626 H 0.87363 0.61711 0.76021 0.0
H627 H 0.88811 0.59062 0.7853 0.0
C628 C 0.97641 0.6699 0.88878 0.0
N629 N 0.9609 0.64639 0.88109 0.0
N630 N 0.95133 0.64987 0.85461 0.0
C631 C 0.95719 0.67711 0.84585 0.0
C632 C 0.97388 0.69088 0.86708 0.0
C633 C 0.99802 0.66963 0.91302 0.0
H634 H 0.00343 0.64706 0.91925 0.0
H635 H 0.98906 0.68108 0.93207 0.0
H636 H 0.01822 0.6809 0.9064 0.0
O637 O 0.96883 0.57925 0.88703 0.0
O638 O 0.96348 0.58093 0.83936 0.0
H639 H 0.95975 0.68927 0.8011 0.0
H640 H 0.93837 0.71336 0.82322 0.0
C641 C 0.94406 0.69033 0.81927 0.0
H642 H 0.92419 0.67837 0.81294 0.0
H643 H 0.98287 0.63714 0.7913 0.0
O644 O 0.96093 0.61489 0.94231 0.0
C645 C 0.97271 0.56826 0.86216 0.0
Co646 Co 0.87085 0.80345 0.3476 0.0
Co647 Co 0.86481 0.80565 0.41566 0.0
C648 C 0.84822 0.85578 0.37501 0.0
O649 O 0.85703 0.84377 0.35162 0.0
O650 O 0.85105 0.84342 0.3997 0.0
C651 C 0.86386 0.78179 0.28946 0.0
O652 O 0.83636 0.78827 0.29304 0.0
C653 C 0.8769 0.82554 0.47553 0.0
C654 C 0.85969 0.78864 0.5008 0.0
C655 C 0.8728 0.81545 0.50367 0.0
N656 N 0.86688 0.80542 0.45699 0.0
N657 N 0.85688 0.78334 0.47228 0.0
C658 C 0.88832 0.85446 0.46633 0.0
H659 H 0.88251 0.85908 0.44349 0.0
H660 H 0.91229 0.85439 0.46814 0.0
H661 H 0.87973 0.87178 0.48066 0.0
C662 C 0.93038 0.78818 0.36391 0.0
N663 N 0.9033 0.79603 0.3713 0.0
N664 N 0.90051 0.79433 0.39956 0.0
C665 C 0.92545 0.78421 0.411 0.0
C666 C 0.94509 0.77974 0.38862 0.0
C667 C 0.94263 0.78989 0.33392 0.0
H668 H 0.93214 0.80762 0.32153 0.0
H669 H 0.96638 0.79372 0.33467 0.0
H670 H 0.93893 0.76907 0.32268 0.0
O671 O 0.83622 0.7797 0.35777 0.0
O672 O 0.8334 0.77908 0.4057 0.0
H673 H 0.94926 0.76377 0.44595 0.0
H674 H 0.93104 0.7972 0.45502 0.0
C675 C 0.92943 0.77686 0.44232 0.0
H676 H 0.91033 0.76463 0.45024 0.0
H677 H 0.84769 0.76478 0.4632 0.0
O678 O 0.88205 0.78994 0.30836 0.0
C679 C 0.82341 0.77215 0.38103 0.0
Co680 Co 0.54883 0.38224 0.40119 0.0
Co681 Co 0.55969 0.37847 0.33401 0.0
C682 C 0.60636 0.39802 0.37349 0.0
O683 O 0.59066 0.39363 0.396 0.0
O684 O 0.59751 0.39145 0.34811 0.0
C685 C 0.53632 0.35971 0.46056 0.0
O686 O 0.55133 0.33611 0.45523 0.0
C687 C 0.57926 0.37135 0.27308 0.0
C688 C 0.53873 0.35637 0.25231 0.0
C689 C 0.56741 0.36285 0.24679 0.0
N690 N 0.55852 0.36972 0.29346 0.0
N691 N 0.53436 0.3608 0.28085 0.0
C692 C 0.60963 0.38109 0.27875 0.0
H693 H 0.61844 0.36929 0.29776 0.0
H694 H 0.6238 0.37741 0.25964 0.0
H695 H 0.60945 0.40452 0.28411 0.0
C696 C 0.52138 0.32513 0.38813 0.0
N697 N 0.53708 0.34864 0.3808 0.0
N698 N 0.54714 0.34517 0.35451 0.0
C699 C 0.54156 0.31796 0.3456 0.0
C700 C 0.52445 0.30417 0.36646 0.0
C701 C 0.49889 0.32553 0.41158 0.0
H702 H 0.49344 0.34815 0.41766 0.0
H703 H 0.50698 0.31397 0.43094 0.0
H704 H 0.47886 0.31445 0.40419 0.0
O705 O 0.52839 0.41558 0.38674 0.0
O706 O 0.53432 0.41379 0.33914 0.0
H707 H 0.53987 0.30575 0.30082 0.0
H708 H 0.56109 0.28187 0.3233 0.0
C709 C 0.55525 0.30485 0.31924 0.0
H710 H 0.57512 0.31699 0.31322 0.0
H711 H 0.51478 0.35782 0.29178 0.0
O712 O 0.53599 0.38013 0.44207 0.0
C713 C 0.52479 0.42648 0.36179 0.0
Co714 Co 0.36055 0.69825 0.65249 0.0
Co715 Co 0.36361 0.68819 0.58519 0.0
C716 C 0.34573 0.64078 0.62521 0.0
O717 O 0.35029 0.65622 0.64784 0.0
O718 O 0.35136 0.65024 0.59981 0.0
C719 C 0.38106 0.71226 0.71299 0.0
O720 O 0.40422 0.69583 0.71085 0.0
C721 C 0.37712 0.66901 0.52482 0.0
C722 C 0.37471 0.71116 0.50209 0.0
C723 C 0.37987 0.68199 0.49779 0.0
N724 N 0.37101 0.68974 0.54438 0.0
N725 N 0.36981 0.71486 0.53061 0.0
C726 C 0.37868 0.63733 0.53162 0.0
H727 H 0.36382 0.63188 0.54965 0.0
H728 H 0.40108 0.63184 0.53841 0.0
H729 H 0.37309 0.62406 0.51235 0.0
C730 C 0.41779 0.72544 0.6396 0.0
N731 N 0.39395 0.71043 0.6319 0.0
N732 N 0.39696 0.70142 0.60516 0.0
C733 C 0.42407 0.70728 0.59605 0.0
C734 C 0.43837 0.72317 0.6175 0.0
C735 C 0.41826 0.74657 0.66427 0.0
H736 H 0.39588 0.75301 0.67022 0.0
H737 H 0.42902 0.73674 0.68331 0.0
H738 H 0.43052 0.76636 0.6582 0.0
O739 O 0.3265 0.71796 0.63827 0.0
O740 O 0.3282 0.7131 0.59063 0.0
H741 H 0.43293 0.711 0.55067 0.0
H742 H 0.45992 0.69085 0.57081 0.0
C743 C 0.4364 0.69529 0.56854 0.0
H744 H 0.42534 0.67475 0.56289 0.0
H745 H 0.36523 0.73457 0.54071 0.0
O746 O 0.36234 0.71222 0.6928 0.0
C747 C 0.31546 0.72199 0.61346 0.0
Co748 Co 0.94646 0.38435 0.59369 0.0
Co749 Co 0.93625 0.38011 0.6609 0.0
C750 C 0.88898 0.399 0.62149 0.0
O751 O 0.90456 0.39461 0.59893 0.0
O752 O 0.89817 0.39296 0.64689 0.0
C753 C 0.95892 0.36263 0.53415 0.0
O754 O 0.94397 0.33894 0.53921 0.0
C755 C 0.9169 0.37318 0.72188 0.0
C756 C 0.9573 0.35763 0.7425 0.0
C757 C 0.92875 0.36457 0.74814 0.0
N758 N 0.93751 0.37117 0.70141 0.0
N759 N 0.9616 0.36195 0.71394 0.0
C760 C 0.88665 0.38337 0.71632 0.0
H761 H 0.8775 0.37146 0.69754 0.0
H762 H 0.87256 0.38019 0.73557 0.0
H763 H 0.88717 0.40672 0.7106 0.0
C764 C 0.97473 0.32759 0.60596 0.0
N765 N 0.95882 0.35081 0.6137 0.0
N766 N 0.94914 0.34701 0.64011 0.0
C767 C 0.95532 0.3198 0.64872 0.0
C768 C 0.97228 0.30648 0.62747 0.0
C769 C 0.99695 0.32839 0.58227 0.0
H770 H 0.00201 0.35108 0.57619 0.0
H771 H 0.98881 0.31665 0.56304 0.0
H772 H 0.01722 0.31759 0.58941 0.0
O773 O 0.96638 0.4179 0.60833 0.0
O774 O 0.96151 0.41555 0.65601 0.0
H775 H 0.95816 0.30738 0.69338 0.0
H776 H 0.93722 0.28309 0.67116 0.0
C777 C 0.94246 0.30621 0.67525 0.0
H778 H 0.9224 0.3178 0.68172 0.0
H779 H 0.98112 0.35873 0.70294 0.0
O780 O 0.95909 0.38286 0.55284 0.0
C781 C 0.97047 0.42854 0.6333 0.0
Co782 Co 0.05248 0.11394 0.59428 0.0
Co783 Co 0.06313 0.12004 0.66121 0.0
C784 C 0.11006 0.09998 0.62187 0.0
O785 O 0.09448 0.10424 0.59931 0.0
O786 O 0.10089 0.10628 0.64722 0.0
C787 C 0.04066 0.13616 0.53522 0.0
O788 O 0.05522 0.15984 0.54138 0.0
C789 C 0.08258 0.12657 0.72213 0.0
C790 C 0.04295 0.14424 0.74258 0.0
C791 C 0.07104 0.1357 0.74837 0.0
N792 N 0.06225 0.12974 0.70156 0.0
N793 N 0.0386 0.14021 0.71398 0.0
C794 C 0.11227 0.11477 0.71669 0.0
H795 H 0.12205 0.126 0.69781 0.0
H796 H 0.12649 0.11743 0.7359 0.0
H797 H 0.11055 0.09142 0.71122 0.0
C798 C 0.02327 0.17059 0.60616 0.0
N799 N 0.03995 0.14788 0.61385 0.0
N800 N 0.05041 0.15256 0.6398 0.0
C801 C 0.04392 0.17977 0.64805 0.0
C802 C 0.02588 0.19222 0.62719 0.0
C803 C 0.00058 0.16886 0.58301 0.0
H804 H 0.99618 0.14596 0.57717 0.0
H805 H 0.00793 0.18069 0.56353 0.0
H806 H 0.98013 0.17906 0.59056 0.0
O807 O 0.03302 0.08008 0.60947 0.0
O808 O 0.03702 0.0853 0.65719 0.0
H809 H 0.04268 0.19371 0.6924 0.0
H810 H 0.06264 0.21727 0.66857 0.0
C811 C 0.05766 0.19428 0.67364 0.0
H812 H 0.07798 0.18295 0.67976 0.0
H813 H 0.0193 0.14433 0.70293 0.0
O814 O 0.04022 0.11538 0.55332 0.0
C815 C 0.02846 0.0712 0.63504 0.0
Co816 Co 0.65459 0.63094 0.79783 0.0
Co817 Co 0.58803 0.62767 0.81172 0.0
C818 C 0.62947 0.648 0.85623 0.0
O819 O 0.65088 0.64386 0.83907 0.0
O820 O 0.60359 0.6412 0.84913 0.0
C821 C 0.71411 0.60872 0.78505 0.0
O822 O 0.70954 0.58527 0.80054 0.0
C823 C 0.52735 0.62277 0.83289 0.0
C824 C 0.50582 0.60447 0.79414 0.0
C825 C 0.50074 0.61359 0.8222 0.0
N826 N 0.54739 0.61906 0.81208 0.0
N827 N 0.5343 0.60825 0.78897 0.0
C828 C 0.53382 0.63446 0.86243 0.0
H829 H 0.55239 0.62245 0.87187 0.0
H830 H 0.51481 0.63262 0.87706 0.0
H831 H 0.54031 0.65753 0.86053 0.0
C832 C 0.64125 0.57299 0.77331 0.0
N833 N 0.63407 0.59695 0.78833 0.0
N834 N 0.608 0.59375 0.7991 0.0
C835 C 0.59915 0.56628 0.79446 0.0
C836 C 0.61982 0.5521 0.77748 0.0
C837 C 0.6642 0.57271 0.75029 0.0
H838 H 0.67016 0.59514 0.74401 0.0
H839 H 0.6837 0.56132 0.75825 0.0
H840 H 0.65635 0.56104 0.73076 0.0
O841 O 0.63946 0.66291 0.77612 0.0
O842 O 0.59234 0.66244 0.78505 0.0
H843 H 0.55449 0.55362 0.79328 0.0
H844 H 0.57726 0.53047 0.81485 0.0
C845 C 0.57297 0.55331 0.8086 0.0
H846 H 0.56693 0.56586 0.82821 0.0
H847 H 0.54486 0.60355 0.76951 0.0
O848 O 0.69505 0.62859 0.78431 0.0
C849 C 0.61455 0.67407 0.77335 0.0
Co850 Co 0.88689 0.09661 0.45183 0.0
Co851 Co 0.88395 0.16362 0.44069 0.0
C852 C 0.90085 0.1229 0.39351 0.0
O853 O 0.89654 0.10064 0.40955 0.0
O854 O 0.89534 0.1485 0.4025 0.0
C855 C 0.8664 0.03682 0.46548 0.0
O856 O 0.84341 0.04025 0.44904 0.0
C857 C 0.87108 0.22335 0.42005 0.0
C858 C 0.87182 0.24711 0.46172 0.0
C859 C 0.86772 0.25069 0.43226 0.0
N860 N 0.87655 0.20439 0.44149 0.0
N861 N 0.87678 0.21874 0.4663 0.0
C862 C 0.87104 0.21548 0.38858 0.0
H863 H 0.89059 0.20245 0.38357 0.0
H864 H 0.85181 0.20185 0.38385 0.0
H865 H 0.87073 0.23492 0.37444 0.0
C866 C 0.82993 0.11009 0.47982 0.0
N867 N 0.85362 0.11745 0.46435 0.0
N868 N 0.85063 0.14409 0.45506 0.0
C869 C 0.82364 0.15344 0.46127 0.0
C870 C 0.80939 0.13228 0.47765 0.0
C871 C 0.8295 0.08542 0.50092 0.0
H872 H 0.8519 0.07926 0.50706 0.0
H873 H 0.81853 0.06651 0.4911 0.0
H874 H 0.81747 0.09152 0.52085 0.0
O875 O 0.92117 0.11097 0.47066 0.0
O876 O 0.92 0.1585 0.4649 0.0
H877 H 0.8146 0.19878 0.46471 0.0
H878 H 0.78774 0.17842 0.44466 0.0
C879 C 0.81125 0.18082 0.44908 0.0
H880 H 0.82228 0.1864 0.42849 0.0
H881 H 0.88067 0.20914 0.48641 0.0
O882 O 0.88571 0.05638 0.46611 0.0
C883 C 0.93262 0.13566 0.47395 0.0
Co884 Co 0.34124 0.86544 0.79831 0.0
Co885 Co 0.40732 0.86716 0.81308 0.0
C886 C 0.36514 0.84872 0.85736 0.0
O887 O 0.34421 0.85312 0.83973 0.0
O888 O 0.3913 0.85475 0.85064 0.0
C889 C 0.28278 0.88937 0.78515 0.0
O890 O 0.28844 0.91303 0.79993 0.0
C891 C 0.46773 0.87142 0.83448 0.0
C892 C 0.49006 0.88713 0.79501 0.0
C893 C 0.49465 0.87919 0.8235 0.0
N894 N 0.448 0.87462 0.81335 0.0
N895 N 0.46152 0.88394 0.78983 0.0
C896 C 0.46061 0.86188 0.86465 0.0
H897 H 0.44157 0.87419 0.87269 0.0
H898 H 0.47916 0.86521 0.87959 0.0
H899 H 0.45464 0.83859 0.86437 0.0
C900 C 0.35675 0.92224 0.77229 0.0
N901 N 0.36274 0.89863 0.78833 0.0
N902 N 0.38857 0.90137 0.79967 0.0
C903 C 0.39844 0.92836 0.79445 0.0
C904 C 0.37876 0.94266 0.77636 0.0
C905 C 0.33433 0.92223 0.74877 0.0
H906 H 0.32811 0.89971 0.74309 0.0
H907 H 0.31477 0.93403 0.75602 0.0
H908 H 0.34278 0.93318 0.72908 0.0
O909 O 0.35551 0.8328 0.77707 0.0
O910 O 0.40242 0.8321 0.78691 0.0
H911 H 0.44347 0.93971 0.79439 0.0
H912 H 0.42071 0.96379 0.81507 0.0
C913 C 0.42455 0.94079 0.80916 0.0
H914 H 0.42965 0.92834 0.8291 0.0
H915 H 0.45121 0.88803 0.77011 0.0
O916 O 0.30098 0.86873 0.78482 0.0
C917 C 0.38016 0.82098 0.77486 0.0
Co918 Co 0.11257 0.40288 0.44958 0.0
Co919 Co 0.11619 0.33555 0.43995 0.0
C920 C 0.09664 0.37437 0.39268 0.0
O921 O 0.10127 0.39709 0.40792 0.0
O922 O 0.10323 0.34916 0.40191 0.0
C923 C 0.13627 0.46193 0.45997 0.0
O924 O 0.16006 0.45502 0.44592 0.0
C925 C 0.12286 0.27476 0.42016 0.0
C926 C 0.13757 0.25339 0.46046 0.0
C927 C 0.13103 0.24824 0.43171 0.0
N928 N 0.12464 0.29488 0.44111 0.0
N929 N 0.1334 0.28192 0.46515 0.0
C930 C 0.11364 0.28092 0.38971 0.0
H931 H 0.12546 0.30016 0.38143 0.0
H932 H 0.11777 0.26214 0.37525 0.0
H933 H 0.09015 0.28604 0.38954 0.0
C934 C 0.16883 0.38995 0.4786 0.0
N935 N 0.14588 0.38254 0.46215 0.0
N936 N 0.14951 0.35607 0.45264 0.0
C937 C 0.17644 0.34708 0.45941 0.0
C938 C 0.18974 0.36813 0.47668 0.0
C939 C 0.16771 0.41366 0.50078 0.0
H940 H 0.14495 0.42008 0.50515 0.0
H941 H 0.17985 0.43274 0.49294 0.0
H942 H 0.17785 0.40639 0.52135 0.0
O943 O 0.07903 0.38909 0.47022 0.0
O944 O 0.0807 0.34137 0.46507 0.0
H945 H 0.18835 0.30231 0.46259 0.0
H946 H 0.21304 0.32415 0.44165 0.0
C947 C 0.18985 0.32034 0.4468 0.0
H948 H 0.17834 0.3139 0.42669 0.0
H949 H 0.13643 0.29258 0.48487 0.0
O950 O 0.11525 0.44413 0.46081 0.0
C951 C 0.06803 0.36423 0.47417 0.0
Co952 Co 0.65479 0.36079 0.69699 0.0
Co953 Co 0.58799 0.36537 0.68552 0.0
C954 C 0.62826 0.34795 0.63855 0.0
O955 O 0.65023 0.35224 0.6549 0.0
O956 O 0.60251 0.35337 0.64714 0.0
C957 C 0.71246 0.38581 0.70846 0.0
O958 O 0.70445 0.40942 0.69471 0.0
C959 C 0.52725 0.37337 0.66576 0.0
C960 C 0.50634 0.38731 0.70662 0.0
C961 C 0.50094 0.38173 0.67773 0.0
N962 N 0.5475 0.37428 0.68664 0.0
N963 N 0.53481 0.38259 0.71099 0.0
C964 C 0.53308 0.36444 0.63515 0.0
H965 H 0.55143 0.37733 0.62643 0.0
H966 H 0.51372 0.36748 0.62121 0.0
H967 H 0.53969 0.34131 0.63479 0.0
C968 C 0.6411 0.41572 0.72808 0.0
N969 N 0.63412 0.39352 0.71047 0.0
N970 N 0.60827 0.39803 0.69975 0.0
C971 C 0.59933 0.4248 0.70719 0.0
C972 C 0.61973 0.43702 0.7259 0.0
C973 C 0.66384 0.41352 0.75115 0.0
H974 H 0.67012 0.39058 0.7547 0.0
H975 H 0.6832 0.426 0.74471 0.0
H976 H 0.65568 0.42276 0.77182 0.0
O977 O 0.6408 0.32586 0.71532 0.0
O978 O 0.59299 0.32974 0.71059 0.0
H979 H 0.55472 0.43762 0.70913 0.0
H980 H 0.57784 0.46241 0.68982 0.0
C981 C 0.57335 0.43915 0.69404 0.0
H982 H 0.56741 0.42841 0.67336 0.0
H983 H 0.54563 0.38491 0.73072 0.0
O984 O 0.69573 0.36392 0.70876 0.0
C985 C 0.61545 0.316 0.7191 0.0
Co986 Co 0.6136 0.09505 0.54627 0.0
Co987 Co 0.61558 0.16152 0.55962 0.0
C988 C 0.59854 0.12025 0.60542 0.0
O989 O 0.60266 0.09893 0.58812 0.0
O990 O 0.60435 0.14631 0.59803 0.0
C991 C 0.63657 0.03584 0.5333 0.0
O992 O 0.66004 0.04051 0.54872 0.0
C993 C 0.62572 0.22236 0.5787 0.0
C994 C 0.62751 0.24422 0.53602 0.0
C995 C 0.62916 0.24918 0.56548 0.0
N996 N 0.62235 0.20231 0.55786 0.0
N997 N 0.62368 0.21553 0.53245 0.0
C998 C 0.62389 0.21602 0.61045 0.0
H999 H 0.63601 0.19584 0.61541 0.0
H1000 H 0.63246 0.23423 0.62359 0.0
H1001 H 0.60087 0.21231 0.61635 0.0
C1002 C 0.67057 0.10965 0.51962 0.0
N1003 N 0.64666 0.1164 0.53496 0.0
N1004 N 0.64939 0.14262 0.54539 0.0
C1005 C 0.67647 0.15223 0.54004 0.0
C1006 C 0.69107 0.1317 0.5231 0.0
C1007 C 0.67109 0.08608 0.49725 0.0
H1008 H 0.64869 0.07987 0.49108 0.0
H1009 H 0.68239 0.06678 0.50584 0.0
H1010 H 0.68282 0.09341 0.47756 0.0
O1011 O 0.5797 0.1087 0.52629 0.0
O1012 O 0.57962 0.15577 0.53518 0.0
H1013 H 0.68601 0.19754 0.53783 0.0
H1014 H 0.7117 0.17658 0.55876 0.0
C1015 C 0.68844 0.17929 0.55331 0.0
H1016 H 0.67642 0.18469 0.57342 0.0
H1017 H 0.62159 0.20492 0.51258 0.0
O1018 O 0.61653 0.0547 0.53278 0.0
C1019 C 0.56773 0.13331 0.52438 0.0
Co1020 Co 0.34693 0.13519 0.69917 0.0
Co1021 Co 0.41455 0.13333 0.69031 0.0
C1022 C 0.37522 0.14915 0.64179 0.0
O1023 O 0.35251 0.14463 0.6571 0.0
O1024 O 0.40057 0.14407 0.65163 0.0
C1025 C 0.2876 0.1115 0.71031 0.0
O1026 O 0.29356 0.08795 0.69544 0.0
C1027 C 0.4745 0.12133 0.67027 0.0
C1028 C 0.49861 0.12419 0.71161 0.0
C1029 C 0.5021 0.11939 0.68223 0.0
N1030 N 0.45554 0.12676 0.69173 0.0
N1031 N 0.47009 0.12817 0.71638 0.0
C1032 C 0.4663 0.12044 0.63889 0.0
H1033 H 0.45799 0.14203 0.63239 0.0
H1034 H 0.44846 0.10462 0.63573 0.0
H1035 H 0.48489 0.11471 0.62479 0.0
C1036 C 0.36053 0.07965 0.72877 0.0
N1037 N 0.36814 0.10285 0.71282 0.0
N1038 N 0.39507 0.09987 0.70436 0.0
C1039 C 0.40441 0.07312 0.71154 0.0
C1040 C 0.38278 0.05921 0.72759 0.0
C1041 C 0.33606 0.08014 0.75016 0.0
H1042 H 0.32954 0.10276 0.75501 0.0
H1043 H 0.31723 0.06827 0.74136 0.0
H1044 H 0.34259 0.06938 0.77066 0.0
O1045 O 0.35973 0.16988 0.71854 0.0
O1046 O 0.40751 0.16954 0.71409 0.0
H1047 H 0.44957 0.06461 0.71752 0.0
H1048 H 0.43052 0.03712 0.69707 0.0
C1049 C 0.43249 0.06075 0.70104 0.0
H1050 H 0.43907 0.0714 0.68054 0.0
H1051 H 0.46055 0.13239 0.73646 0.0
O1052 O 0.30586 0.13212 0.7111 0.0
C1053 C 0.38416 0.18177 0.7225 0.0
Co1054 Co 0.38492 0.40161 0.54838 0.0
Co1055 Co 0.38138 0.33467 0.55942 0.0
C1056 C 0.40101 0.37506 0.60584 0.0
O1057 O 0.39607 0.39745 0.59018 0.0
O1058 O 0.39504 0.34952 0.59696 0.0
C1059 C 0.36494 0.46216 0.53361 0.0
O1060 O 0.34205 0.46094 0.55052 0.0
C1061 C 0.37588 0.27383 0.57947 0.0
C1062 C 0.35819 0.25293 0.54011 0.0
C1063 C 0.36684 0.24745 0.56822 0.0
N1064 N 0.37259 0.29417 0.55893 0.0
N1065 N 0.36212 0.28147 0.53544 0.0
C1066 C 0.38724 0.27974 0.60925 0.0
H1067 H 0.37596 0.29885 0.61852 0.0
H1068 H 0.38425 0.26081 0.62379 0.0
H1069 H 0.41065 0.28505 0.60779 0.0
C1070 C 0.32701 0.38922 0.52264 0.0
N1071 N 0.35105 0.38143 0.53728 0.0
N1072 N 0.34776 0.35504 0.54714 0.0
C1073 C 0.32025 0.34645 0.54239 0.0
C1074 C 0.30603 0.36768 0.52612 0.0
C1075 C 0.32656 0.4133 0.50085 0.0
H1076 H 0.34892 0.41871 0.49388 0.0
H1077 H 0.31627 0.43279 0.51034 0.0
H1078 H 0.31389 0.4069 0.48143 0.0
O1079 O 0.41827 0.38666 0.52813 0.0
O1080 O 0.41629 0.33908 0.53331 0.0
H1081 H 0.30752 0.30183 0.54066 0.0
H1082 H 0.28447 0.32435 0.56269 0.0
C1083 C 0.30726 0.32011 0.55622 0.0
H1084 H 0.31988 0.31379 0.57569 0.0
H1085 H 0.35776 0.29235 0.51608 0.0
O1086 O 0.3833 0.44163 0.53387 0.0
C1087 C 0.42903 0.36176 0.52398 0.0
Co1088 Co 0.79821 0.65294 0.63265 0.0
Co1089 Co 0.80995 0.58617 0.62825 0.0
C1090 C 0.85634 0.62595 0.64777 0.0
O1091 O 0.84011 0.64811 0.64369 0.0
O1092 O 0.84795 0.60044 0.64108 0.0
C1093 C 0.78589 0.71212 0.61025 0.0
O1094 O 0.80081 0.70658 0.58663 0.0
C1095 C 0.82902 0.52501 0.62264 0.0
C1096 C 0.78918 0.50472 0.60529 0.0
C1097 C 0.81727 0.49881 0.61371 0.0
N1098 N 0.80878 0.54568 0.61946 0.0
N1099 N 0.785 0.53334 0.60923 0.0
C1100 C 0.85892 0.53044 0.6339 0.0
H1101 H 0.86871 0.54894 0.62206 0.0
H1102 H 0.87294 0.51104 0.63151 0.0
H1103 H 0.85757 0.53653 0.65713 0.0
C1104 C 0.77057 0.64026 0.57543 0.0
N1105 N 0.78641 0.63283 0.59884 0.0
N1106 N 0.79678 0.60671 0.59505 0.0
C1107 C 0.79114 0.59806 0.56773 0.0
C1108 C 0.77376 0.61888 0.55421 0.0
C1109 C 0.74797 0.66356 0.57603 0.0
H1110 H 0.74267 0.66962 0.59869 0.0
H1111 H 0.75588 0.6829 0.56434 0.0
H1112 H 0.72791 0.65605 0.56509 0.0
O1113 O 0.77803 0.6382 0.66611 0.0
O1114 O 0.78491 0.59078 0.66386 0.0
H1115 H 0.78978 0.5535 0.55465 0.0
H1116 H 0.81089 0.57656 0.53129 0.0
C1117 C 0.80504 0.57203 0.55419 0.0
H1118 H 0.82489 0.56589 0.5663 0.0
H1119 H 0.76577 0.5445 0.60505 0.0
O1120 O 0.7855 0.69374 0.63077 0.0
C1121 C 0.77504 0.6131 0.67684 0.0
Co1122 Co 0.90215 0.94776 0.6198 0.0
Co1123 Co 0.83427 0.94055 0.61819 0.0
C1124 C 0.87702 0.89309 0.59951 0.0
O1125 O 0.89989 0.90738 0.60607 0.0
O1126 O 0.85147 0.90315 0.60398 0.0
C1127 C 0.96732 0.9639 0.62548 0.0
O1128 O 0.9791 0.94029 0.61481 0.0
C1129 C 0.7742 0.91787 0.62409 0.0
C1130 C 0.75 0.95885 0.62994 0.0
C1131 C 0.7467 0.92916 0.62872 0.0
N1132 N 0.79314 0.93996 0.62331 0.0
N1133 N 0.77846 0.96436 0.62661 0.0
C1134 C 0.78227 0.88684 0.61945 0.0
H1135 H 0.80213 0.88166 0.63198 0.0
H1136 H 0.76437 0.8721 0.62587 0.0
H1137 H 0.78727 0.88347 0.59615 0.0
C1138 C 0.88959 0.95993 0.68074 0.0
N1139 N 0.88055 0.95311 0.65388 0.0
N1140 N 0.85212 0.95195 0.65352 0.0
C1141 C 0.84213 0.95851 0.68029 0.0
C1142 C 0.86565 0.96426 0.69826 0.0
C1143 C 0.92065 0.96073 0.69006 0.0
H1144 H 0.93337 0.94423 0.67805 0.0
H1145 H 0.92262 0.95661 0.71369 0.0
H1146 H 0.92975 0.98243 0.68548 0.0
O1147 O 0.88828 0.97016 0.58635 0.0
O1148 O 0.8405 0.96768 0.58561 0.0
H1149 H 0.80129 0.97994 0.67736 0.0
H1150 H 0.80722 0.9629 0.71168 0.0
C1151 C 0.81071 0.96064 0.68807 0.0
H1152 H 0.79912 0.94106 0.68039 0.0
H1153 H 0.7879 0.98491 0.62638 0.0
O1154 O 0.93999 0.96617 0.62712 0.0
C1155 C 0.86421 0.97617 0.57451 0.0
Co1156 Co 0.19754 0.84526 0.63351 0.0
Co1157 Co 0.18692 0.91225 0.62884 0.0
C1158 C 0.13979 0.87311 0.64807 0.0
O1159 O 0.15565 0.85067 0.6441 0.0
O1160 O 0.14871 0.89848 0.64152 0.0
C1161 C 0.20876 0.78571 0.61153 0.0
O1162 O 0.19387 0.79138 0.58793 0.0
C1163 C 0.16861 0.97355 0.62272 0.0
C1164 C 0.20916 0.99348 0.60659 0.0
C1165 C 0.18089 -0.00035 0.61423 0.0
N1166 N 0.18872 0.95269 0.62004 0.0
N1167 N 0.21291 0.9648 0.61051 0.0
C1168 C 0.13838 0.96845 0.63325 0.0
H1169 H 0.12884 0.94977 0.62152 0.0
H1170 H 0.12453 0.98787 0.63012 0.0
H1171 H 0.13905 0.96284 0.65663 0.0
C1172 C 0.22576 0.85742 0.57649 0.0
N1173 N 0.20983 0.86513 0.59975 0.0
N1174 N 0.20002 0.89146 0.59587 0.0
C1175 C 0.2062 0.90008 0.56866 0.0
C1176 C 0.2233 0.87894 0.55534 0.0
C1177 C 0.24771 0.8335 0.57718 0.0
H1178 H 0.25277 0.82733 0.59986 0.0
H1179 H 0.23928 0.81436 0.5655 0.0
H1180 H 0.26801 0.84042 0.56627 0.0
O1181 O 0.21769 0.85988 0.66703 0.0
O1182 O 0.21178 0.90742 0.66438 0.0
H1183 H 0.20872 0.94468 0.55591 0.0
H1184 H 0.18765 0.92221 0.53198 0.0
C1185 C 0.1931 0.92646 0.55503 0.0
H1186 H 0.17313 0.93292 0.56678 0.0
H1187 H 0.23213 0.95344 0.60684 0.0
O1188 O 0.20968 0.80426 0.63186 0.0
C1189 C 0.22117 0.88501 0.67753 0.0
Co1190 Co 0.09336 0.54682 0.61156 0.0
Co1191 Co 0.15995 0.55957 0.61567 0.0
C1192 C 0.11937 0.60602 0.59878 0.0
O1193 O 0.09772 0.58897 0.60198 0.0
O1194 O 0.14516 0.59806 0.60493 0.0
C1195 C 0.0348 0.53477 0.63518 0.0
O1196 O 0.04136 0.54924 0.65881 0.0
C1197 C 0.22061 0.57938 0.62334 0.0
C1198 C 0.24173 0.53858 0.63708 0.0
C1199 C 0.24699 0.5675 0.63152 0.0
N1200 N 0.20045 0.55845 0.62432 0.0
N1201 N 0.21325 0.53412 0.63251 0.0
C1202 C 0.21455 0.61004 0.61476 0.0
H1203 H 0.19637 0.61858 0.62802 0.0
H1204 H 0.23389 0.62404 0.61765 0.0
H1205 H 0.20759 0.61059 0.59174 0.0
C1206 C 0.10699 0.51762 0.66753 0.0
N1207 N 0.11402 0.53424 0.64457 0.0
N1208 N 0.14001 0.54488 0.64846 0.0
C1209 C 0.14901 0.53848 0.67549 0.0
C1210 C 0.12852 0.52045 0.6886 0.0
C1211 C 0.08381 0.49491 0.66652 0.0
H1212 H 0.0776 0.49017 0.64378 0.0
H1213 H 0.06447 0.50241 0.6785 0.0
H1214 H 0.0915 0.47463 0.67694 0.0
O1215 O 0.10779 0.52774 0.57739 0.0
O1216 O 0.15512 0.53567 0.57919 0.0
H1217 H 0.19373 0.5372 0.68791 0.0
H1218 H 0.17072 0.55711 0.71239 0.0
C1219 C 0.17502 0.5522 0.68922 0.0
H1220 H 0.18072 0.5726 0.67782 0.0
H1221 H 0.2025 0.51437 0.63486 0.0
O1222 O 0.05258 0.53422 0.61413 0.0
C1223 C 0.13283 0.52561 0.56627 0.0
Co1224 Co 0.79683 0.34592 0.86033 0.0
Co1225 Co 0.80835 0.41285 0.86457 0.0
C1226 C 0.85513 0.37218 0.84654 0.0
O1227 O 0.83906 0.34993 0.85078 0.0
O1228 O 0.8463 0.39779 0.8523 0.0
C1229 C 0.78217 0.28629 0.87972 0.0
O1230 O 0.79867 0.2894 0.90272 0.0
C1231 C 0.82861 0.4735 0.87168 0.0
C1232 C 0.78855 0.49452 0.88762 0.0
C1233 C 0.81712 0.49984 0.88053 0.0
N1234 N 0.80777 0.4533 0.87367 0.0
N1235 N 0.78388 0.46606 0.88312 0.0
C1236 C 0.85878 0.46757 0.86141 0.0
H1237 H 0.86772 0.44867 0.87329 0.0
H1238 H 0.8731 0.48663 0.8646 0.0
H1239 H 0.85815 0.46187 0.83805 0.0
C1240 C 0.7694 0.35838 0.91766 0.0
N1241 N 0.78467 0.36608 0.89397 0.0
N1242 N 0.79467 0.39238 0.8976 0.0
C1243 C 0.78932 0.40094 0.92502 0.0
C1244 C 0.77255 0.37982 0.93878 0.0
C1245 C 0.74753 0.3344 0.9177 0.0
H1246 H 0.74126 0.32872 0.8952 0.0
H1247 H 0.75668 0.31509 0.92854 0.0
H1248 H 0.72779 0.34101 0.92977 0.0
O1249 O 0.77828 0.36132 0.82662 0.0
O1250 O 0.78364 0.40886 0.82861 0.0
H1251 H 0.78777 0.44552 0.93789 0.0
H1252 H 0.80891 0.42266 0.96142 0.0
C1253 C 0.80311 0.42705 0.93848 0.0
H1254 H 0.82299 0.43317 0.92641 0.0
H1255 H 0.76426 0.45529 0.8864 0.0
O1256 O 0.782 0.30588 0.86043 0.0
C1257 C 0.77477 0.38616 0.81561 0.0
Co1258 Co 0.59391 0.946 0.38327 0.0
Co1259 Co 0.66105 0.93584 0.37934 0.0
C1260 C 0.62165 0.88889 0.39911 0.0
O1261 O 0.59908 0.90434 0.39448 0.0
O1262 O 0.64702 0.89811 0.39304 0.0
C1263 C 0.5341 0.95712 0.36148 0.0
O1264 O 0.53927 0.94183 0.33802 0.0
C1265 C 0.72197 0.91631 0.37425 0.0
C1266 C 0.74299 0.95588 0.35717 0.0
C1267 C 0.74846 0.92776 0.36582 0.0
N1268 N 0.70159 0.93676 0.37069 0.0
N1269 N 0.71434 0.96037 0.36057 0.0
C1270 C 0.71603 0.88643 0.38531 0.0
H1271 H 0.69698 0.87725 0.37386 0.0
H1272 H 0.73497 0.87193 0.38222 0.0
H1273 H 0.71068 0.88766 0.40872 0.0
C1274 C 0.60616 0.97276 0.32571 0.0
N1275 N 0.61389 0.95746 0.34934 0.0
N1276 N 0.64037 0.94785 0.34587 0.0
C1277 C 0.64908 0.95345 0.31857 0.0
C1278 C 0.62783 0.97 0.30476 0.0
C1279 C 0.58215 0.99463 0.32584 0.0
H1280 H 0.57588 0.00016 0.34839 0.0
H1281 H 0.5631 0.9859 0.31425 0.0
H1282 H 0.58906 0.01474 0.31458 0.0
O1283 O 0.60851 0.96703 0.41625 0.0
O1284 O 0.65616 0.96206 0.41398 0.0
H1285 H 0.6938 0.95605 0.30624 0.0
H1286 H 0.67171 0.93456 0.28234 0.0
C1287 C 0.67568 0.94033 0.30536 0.0
H1288 H 0.68213 0.92055 0.31744 0.0
H1289 H 0.70345 0.97971 0.35619 0.0
O1290 O 0.553 0.95826 0.38147 0.0
C1291 C 0.6335 0.9715 0.42669 0.0
Co1292 Co 0.20093 0.152 0.86246 0.0
Co1293 Co 0.18998 0.0851 0.86587 0.0
C1294 C 0.1431 0.12533 0.84763 0.0
O1295 O 0.15904 0.14754 0.85224 0.0
O1296 O 0.15197 0.09973 0.85327 0.0
C1297 C 0.21137 0.21173 0.88422 0.0
O1298 O 0.1958 0.20639 0.90747 0.0
C1299 C 0.16955 0.02449 0.87211 0.0
C1300 C 0.20934 0.00302 0.88807 0.0
C1301 C 0.18077 0.99797 0.88076 0.0
N1302 N 0.19053 0.04452 0.8744 0.0
N1303 N 0.21427 0.03149 0.88386 0.0
C1304 C 0.13941 0.03079 0.862 0.0
H1305 H 0.13063 0.04958 0.87418 0.0
H1306 H 0.12493 0.01182 0.86497 0.0
H1307 H 0.14005 0.0368 0.83872 0.0
C1308 C 0.22822 0.13927 0.9197 0.0
N1309 N 0.21294 0.13167 0.896 0.0
N1310 N 0.20322 0.10524 0.89934 0.0
C1311 C 0.20882 0.09639 0.92662 0.0
C1312 C 0.22545 0.11751 0.94059 0.0
C1313 C 0.24959 0.16372 0.91987 0.0
H1314 H 0.25536 0.17004 0.8974 0.0
H1315 H 0.2402 0.18265 0.93117 0.0
H1316 H 0.26963 0.15729 0.93153 0.0
O1317 O 0.22085 0.13764 0.82868 0.0
O1318 O 0.21524 0.09004 0.83031 0.0
H1319 H 0.21104 0.05169 0.93897 0.0
H1320 H 0.18949 0.07395 0.96274 0.0
C1321 C 0.19541 0.06991 0.93976 0.0
H1322 H 0.17564 0.06363 0.92761 0.0
H1323 H 0.23393 0.04209 0.88738 0.0
O1324 O 0.21328 0.19276 0.86438 0.0
C1325 C 0.22455 0.11278 0.81762 0.0
Co1326 Co 0.4062 0.54947 0.38278 0.0
Co1327 Co 0.33988 0.56421 0.37942 0.0
C1328 C 0.38161 0.60825 0.39951 0.0
O1329 O 0.40265 0.59068 0.39538 0.0
O1330 O 0.35556 0.60165 0.39282 0.0
C1331 C 0.46471 0.53544 0.35955 0.0
O1332 O 0.45928 0.55023 0.33583 0.0
C1333 C 0.27875 0.58429 0.37473 0.0
C1334 C 0.25816 0.54505 0.35638 0.0
C1335 C 0.2524 0.57289 0.3657 0.0
N1336 N 0.29931 0.56407 0.37079 0.0
N1337 N 0.28678 0.54065 0.35997 0.0
C1338 C 0.28439 0.61386 0.38675 0.0
H1339 H 0.30369 0.62337 0.37599 0.0
H1340 H 0.26545 0.62837 0.38369 0.0
H1341 H 0.28929 0.61201 0.41022 0.0
C1342 C 0.39208 0.52342 0.32599 0.0
N1343 N 0.38554 0.53982 0.34917 0.0
N1344 N 0.35981 0.55125 0.34563 0.0
C1345 C 0.35069 0.5457 0.31843 0.0
C1346 C 0.37072 0.52739 0.30501 0.0
C1347 C 0.41383 0.49929 0.327 0.0
H1348 H 0.41957 0.49404 0.34975 0.0
H1349 H 0.43368 0.50556 0.31514 0.0
H1350 H 0.40494 0.47956 0.31649 0.0
O1351 O 0.39096 0.52778 0.41448 0.0
O1352 O 0.34397 0.53746 0.41416 0.0
H1353 H 0.30607 0.54529 0.30546 0.0
H1354 H 0.32955 0.56564 0.28196 0.0
C1355 C 0.32494 0.56012 0.30493 0.0
H1356 H 0.31929 0.58017 0.31696 0.0
H1357 H 0.29781 0.52149 0.3552 0.0
O1358 O 0.44658 0.53575 0.38029 0.0
C1359 C 0.36598 0.52516 0.4255 0.0
Co1360 Co 0.63325 0.7971 0.65177 0.0
Co1361 Co 0.62897 0.80702 0.58461 0.0
C1362 C 0.64837 0.85432 0.62363 0.0
O1363 O 0.64399 0.83909 0.64646 0.0
O1364 O 0.64194 0.84488 0.59844 0.0
C1365 C 0.61216 0.78274 0.71141 0.0
O1366 O 0.58826 0.79776 0.70763 0.0
C1367 C 0.62186 0.82678 0.52396 0.0
C1368 C 0.60647 0.78658 0.50287 0.0
C1369 C 0.6134 0.8152 0.49756 0.0
N1370 N 0.6199 0.80596 0.54418 0.0
N1371 N 0.6107 0.78199 0.5314 0.0
C1372 C 0.6317 0.85707 0.52989 0.0
H1373 H 0.6204 0.86557 0.54935 0.0
H1374 H 0.62745 0.87156 0.51116 0.0
H1375 H 0.65529 0.85686 0.53453 0.0
C1376 C 0.57632 0.76869 0.63933 0.0
N1377 N 0.59962 0.78462 0.63177 0.0
N1378 N 0.5959 0.79444 0.60544 0.0
C1379 C 0.56868 0.78857 0.59675 0.0
C1380 C 0.5552 0.77139 0.61777 0.0
C1381 C 0.57716 0.74621 0.6628 0.0
H1382 H 0.5999 0.74082 0.66844 0.0
H1383 H 0.56588 0.75425 0.68238 0.0
H1384 H 0.56605 0.72613 0.65559 0.0
O1385 O 0.66684 0.77727 0.63706 0.0
O1386 O 0.6645 0.78187 0.58937 0.0
H1387 H 0.55606 0.7869 0.55207 0.0
H1388 H 0.53228 0.80794 0.57485 0.0
C1389 C 0.55524 0.80222 0.57054 0.0
H1390 H 0.56722 0.82217 0.56444 0.0
H1391 H 0.60749 0.76237 0.54218 0.0
O1392 O 0.63204 0.78374 0.69236 0.0
C1393 C 0.67756 0.77314 0.61212 0.0
Co1394 Co 0.62786 0.19506 0.84719 0.0
Co1395 Co 0.6292 0.19393 0.91538 0.0
C1396 C 0.65028 0.14388 0.87606 0.0
O1397 O 0.64238 0.15504 0.85189 0.0
O1398 O 0.6456 0.15662 0.90033 0.0
C1399 C 0.62619 0.20979 0.78194 0.0
O1400 O 0.64341 0.18895 0.773 0.0
C1401 C 0.62201 0.17328 0.97588 0.0
C1402 C 0.6247 0.21478 -0.00023 0.0
C1403 C 0.62125 0.1853 0.00343 0.0
N1404 N 0.62523 0.19484 0.9566 0.0
N1405 N 0.62687 0.21955 0.97106 0.0
C1406 C 0.62258 0.14181 0.96818 0.0
H1407 H 0.61112 0.13823 0.94734 0.0
H1408 H 0.61272 0.12843 0.98557 0.0
H1409 H 0.64547 0.13496 0.96529 0.0
C1410 C 0.56664 0.20606 0.85824 0.0
N1411 N 0.5935 0.20095 0.86833 0.0
N1412 N 0.5935 0.20279 0.89675 0.0
C1413 C 0.56643 0.2099 0.90555 0.0
C1414 C 0.54871 0.21265 0.88133 0.0
C1415 C 0.55772 0.20252 0.82723 0.0
H1416 H 0.57107 0.18561 0.81657 0.0
H1417 H 0.53447 0.1965 0.82572 0.0
H1418 H 0.56077 0.22325 0.81561 0.0
O1419 O 0.66111 0.21882 0.85977 0.0
O1420 O 0.6603 0.22193 0.90752 0.0
H1421 H 0.54141 0.23255 0.93784 0.0
H1422 H 0.54716 0.19464 0.94472 0.0
C1423 C 0.55745 0.2147 0.93635 0.0
H1424 H 0.57615 0.22011 0.95009 0.0
H1425 H 0.62969 0.23975 0.96128 0.0
O1426 O 0.61989 0.21186 0.8086 0.0
C1427 C 0.67204 0.2278 0.88336 0.0
Co1428 Co 0.44982 0.11071 0.40182 0.0
Co1429 Co 0.43882 0.11336 0.33467 0.0
C1430 C 0.39155 0.09705 0.37486 0.0
O1431 O 0.40777 0.10114 0.39699 0.0
O1432 O 0.40038 0.10247 0.34919 0.0
C1433 C 0.46092 0.13422 0.46104 0.0
O1434 O 0.44577 0.15759 0.45509 0.0
C1435 C 0.4188 0.12581 0.27477 0.0
C1436 C 0.46036 0.12347 0.25093 0.0
C1437 C 0.43099 0.12806 0.24729 0.0
N1438 N 0.44014 0.12037 0.29382 0.0
N1439 N 0.46492 0.11929 0.27944 0.0
C1440 C 0.38734 0.1263 0.28268 0.0
H1441 H 0.38434 0.13805 0.30345 0.0
H1442 H 0.37397 0.13647 0.26552 0.0
H1443 H 0.37981 0.1037 0.28594 0.0
C1444 C 0.47833 0.16688 0.38806 0.0
N1445 N 0.46254 0.14346 0.38075 0.0
N1446 N 0.45307 0.14659 0.35419 0.0
C1447 C 0.45948 0.17349 0.34485 0.0
C1448 C 0.47613 0.18744 0.36597 0.0
C1449 C 0.50002 0.16675 0.41224 0.0
H1450 H 0.50527 0.14421 0.41874 0.0
H1451 H 0.49125 0.17851 0.43117 0.0
H1452 H 0.52027 0.1778 0.4054 0.0
O1453 O 0.46925 0.07626 0.38826 0.0
O1454 O 0.46282 0.07731 0.34071 0.0
H1455 H 0.46306 0.18242 0.29949 0.0
H1456 H 0.44329 0.20953 0.31981 0.0
C1457 C 0.44745 0.18598 0.31744 0.0
H1458 H 0.42677 0.17513 0.31182 0.0
H1459 H 0.48495 0.11515 0.2891 0.0
O1460 O 0.46211 0.11368 0.44273 0.0
C1461 C 0.47224 0.06479 0.36348 0.0
Co1462 Co 0.36239 0.30114 0.84325 0.0
Co1463 Co 0.36546 0.3082 0.91124 0.0
C1464 C 0.34837 0.35746 0.87205 0.0
O1465 O 0.35325 0.34301 0.84888 0.0
O1466 O 0.35341 0.3468 0.89711 0.0
C1467 C 0.38208 0.29104 0.78196 0.0
O1468 O 0.40461 0.30812 0.78529 0.0
C1469 C 0.37365 0.32829 0.97182 0.0
C1470 C 0.38198 0.2867 0.99412 0.0
C1471 C 0.37962 0.31617 0.99866 0.0
N1472 N 0.37296 0.30695 0.95203 0.0
N1473 N 0.3779 0.28215 0.96557 0.0
C1474 C 0.36774 0.35946 0.96523 0.0
H1475 H 0.37977 0.366 0.94546 0.0
H1476 H 0.37396 0.37364 0.98364 0.0
H1477 H 0.34426 0.36217 0.96083 0.0
C1478 C 0.41913 0.27211 0.85491 0.0
N1479 N 0.39579 0.2877 0.86326 0.0
N1480 N 0.39834 0.29383 0.89101 0.0
C1481 C 0.42431 0.28424 0.90048 0.0
C1482 C 0.438 0.26996 0.87802 0.0
C1483 C 0.42156 0.2553 0.82731 0.0
H1484 H 0.39978 0.2492 0.81933 0.0
H1485 H 0.43324 0.26847 0.81101 0.0
H1486 H 0.43431 0.23517 0.83067 0.0
O1487 O 0.32793 0.28162 0.85767 0.0
O1488 O 0.33015 0.28388 0.90556 0.0
H1489 H 0.43146 0.27147 0.94441 0.0
H1490 H 0.46076 0.29147 0.92864 0.0
C1491 C 0.43677 0.28984 0.92988 0.0
H1492 H 0.42798 0.31023 0.93904 0.0
H1493 H 0.3782 0.26201 0.95529 0.0
O1494 O 0.36354 0.28876 0.80222 0.0
C1495 C 0.31713 0.27639 0.88242 0.0
Co1496 Co 0.04918 0.88514 0.90165 0.0
Co1497 Co 0.05852 0.88205 0.83436 0.0
C1498 C 0.10642 0.89993 0.87357 0.0
O1499 O 0.0911 0.89531 0.89626 0.0
O1500 O 0.09682 0.89435 0.84823 0.0
C1501 C 0.03787 0.86322 0.96122 0.0
O1502 O 0.05318 0.8398 0.95593 0.0
C1503 C 0.07801 0.87551 0.77338 0.0
C1504 C 0.03778 0.8599 0.75251 0.0
C1505 C 0.06637 0.86686 0.74705 0.0
N1506 N 0.05726 0.87356 0.79371 0.0
N1507 N 0.03326 0.8643 0.78104 0.0
C1508 C 0.10833 0.88535 0.7792 0.0
H1509 H 0.11727 0.87317 0.7979 0.0
H1510 H 0.12251 0.88219 0.76001 0.0
H1511 H 0.10799 0.90865 0.78511 0.0
C1512 C 0.02089 0.82832 0.88901 0.0
N1513 N 0.03641 0.85184 0.88133 0.0
N1514 N 0.04567 0.84854 0.85472 0.0
C1515 C 0.03972 0.82135 0.84586 0.0
C1516 C 0.0232 0.80746 0.86716 0.0
C1517 C -0.00061 0.82851 0.91335 0.0
H1518 H 0.99404 0.85107 0.91971 0.0
H1519 H 0.00841 0.81692 0.93228 0.0
H1520 H 0.97913 0.81732 0.90677 0.0
O1521 O 0.02926 0.91897 0.8878 0.0
O1522 O 0.0336 0.91784 0.84005 0.0
H1523 H 0.03692 0.80922 0.80111 0.0
H1524 H 0.05854 0.78521 0.82304 0.0
C1525 C 0.05273 0.80823 0.81916 0.0
H1526 H 0.07251 0.82027 0.81269 0.0
H1527 H 0.0137 0.86099 0.79192 0.0
O1528 O 0.03697 0.88338 0.94251 0.0
C1529 C 0.02496 0.93032 0.86319 0.0
Co1530 Co 0.86272 0.1984 0.15384 0.0
Co1531 Co 0.86692 0.18716 0.08684 0.0
C1532 C 0.84874 0.14026 0.12718 0.0
O1533 O 0.85296 0.15625 0.14948 0.0
O1534 O 0.85452 0.1492 0.10161 0.0
C1535 C 0.88359 0.21244 0.21367 0.0
O1536 O 0.90724 0.197 0.21009 0.0
C1537 C 0.87361 0.16713 0.02605 0.0
C1538 C 0.88965 0.20713 0.00503 0.0
C1539 C 0.8823 0.17864 -0.00036 0.0
N1540 N 0.87589 0.18788 0.04632 0.0
N1541 N 0.8854 0.21174 0.03356 0.0
C1542 C 0.86343 0.13695 0.03202 0.0
H1543 H 0.87498 0.12821 0.05122 0.0
H1544 H 0.86712 0.12249 0.01315 0.0
H1545 H 0.83995 0.13746 0.03722 0.0
C1546 C 0.91958 0.2264 0.14119 0.0
N1547 N 0.8962 0.21063 0.13361 0.0
N1548 N 0.89993 0.20061 0.10734 0.0
C1549 C 0.92719 0.20643 0.09865 0.0
C1550 C 0.94066 0.22357 0.11966 0.0
C1551 C 0.9191 0.24856 0.16494 0.0
H1552 H 0.89646 0.25423 0.17072 0.0
H1553 H 0.93031 0.24008 0.18436 0.0
H1554 H 0.93051 0.26857 0.15798 0.0
O1555 O 0.82889 0.21771 0.13884 0.0
O1556 O 0.83127 0.21223 0.09125 0.0
H1557 H 0.93996 0.20816 0.054 0.0
H1558 H 0.96379 0.18733 0.07682 0.0
C1559 C 0.94078 0.19283 0.07248 0.0
H1560 H 0.92896 0.17281 0.06637 0.0
H1561 H 0.88885 0.23131 0.04436 0.0
O1562 O 0.86405 0.21221 0.19426 0.0
C1563 C 0.81819 0.22139 0.11383 0.0
Co1564 Co 0.44962 0.88802 0.09715 0.0
Co1565 Co 0.43973 0.88505 0.16426 0.0
C1566 C 0.39192 0.90216 0.12454 0.0
O1567 O 0.40761 0.89772 0.10207 0.0
O1568 O 0.40128 0.89685 0.15005 0.0
C1569 C 0.4616 0.86781 0.0371 0.0
O1570 O 0.44508 0.84495 0.04099 0.0
C1571 C 0.42038 0.87189 0.22427 0.0
C1572 C 0.46222 0.87465 0.24756 0.0
C1573 C 0.43296 0.86968 0.25156 0.0
N1574 N 0.44141 0.87769 0.20496 0.0
N1575 N 0.46635 0.87899 0.21901 0.0
C1576 C 0.38882 0.87102 0.21685 0.0
H1577 H 0.3858 0.86216 0.19469 0.0
H1578 H 0.3764 0.85787 0.23265 0.0
H1579 H 0.38014 0.89345 0.21715 0.0
C1580 C 0.47737 0.83083 0.10985 0.0
N1581 N 0.46225 0.85461 0.11756 0.0
N1582 N 0.45334 0.8516 0.14435 0.0
C1583 C 0.45939 0.82452 0.15346 0.0
C1584 C 0.47534 0.81021 0.13197 0.0
C1585 C 0.49803 0.83038 0.08481 0.0
H1586 H 0.50409 0.85276 0.07853 0.0
H1587 H 0.48783 0.81942 0.0661 0.0
H1588 H 0.51804 0.81833 0.09056 0.0
O1589 O 0.46903 0.922 0.11113 0.0
O1590 O 0.46426 0.92086 0.15875 0.0
H1591 H 0.46327 0.81542 0.19877 0.0
H1592 H 0.44284 0.78868 0.1786 0.0
C1593 C 0.44744 0.81215 0.18098 0.0
H1594 H 0.42699 0.82331 0.18682 0.0
H1595 H 0.4862 0.88345 0.2091 0.0
O1596 O 0.46288 0.88709 0.05665 0.0
C1597 C 0.47301 0.93338 0.13574 0.0
Co1598 Co 0.54701 0.61447 0.09594 0.0
Co1599 Co 0.55697 0.61726 0.16309 0.0
C1600 C 0.6041 0.59802 0.12381 0.0
O1601 O 0.58867 0.60288 0.10126 0.0
O1602 O 0.59495 0.60413 0.1492 0.0
C1603 C 0.5364 0.63731 0.03639 0.0
O1604 O 0.55155 0.66072 0.04208 0.0
C1605 C 0.57703 0.62476 0.22368 0.0
C1606 C 0.53608 0.63693 0.24547 0.0
C1607 C 0.56522 0.63214 0.25031 0.0
N1608 N 0.55583 0.62536 0.20375 0.0
N1609 N 0.53143 0.63269 0.21695 0.0
C1610 C 0.60782 0.6169 0.2173 0.0
H1611 H 0.61552 0.62932 0.19819 0.0
H1612 H 0.62212 0.62128 0.23614 0.0
H1613 H 0.60894 0.59353 0.21179 0.0
C1614 C 0.51989 0.67184 0.10908 0.0
N1615 N 0.53521 0.64808 0.11644 0.0
N1616 N 0.54468 0.65108 0.14299 0.0
C1617 C 0.53905 0.67822 0.15217 0.0
C1618 C 0.52254 0.69254 0.1311 0.0
C1619 C 0.49817 0.67194 0.08493 0.0
H1620 H 0.49264 0.64946 0.07848 0.0
H1621 H 0.5071 0.68353 0.06596 0.0
H1622 H 0.47804 0.68322 0.09177 0.0
O1623 O 0.52598 0.58107 0.10964 0.0
O1624 O 0.53136 0.58211 0.1573 0.0
H1625 H 0.53619 0.68921 0.19718 0.0
H1626 H 0.55798 0.71375 0.17585 0.0
C1627 C 0.55204 0.69069 0.17917 0.0
H1628 H 0.57178 0.67844 0.18534 0.0
H1629 H 0.51151 0.63469 0.20643 0.0
O1630 O 0.53515 0.617 0.05495 0.0
C1631 C 0.52192 0.56985 0.13438 0.0
C1632 C 0.08609 0.24941 0.24358 0.0
C1633 C 0.11221 0.26206 0.23413 0.0
H1634 H 0.06582 0.21254 0.26366 0.0
C1635 C 0.13844 0.24811 0.2405 0.0
H1636 H 0.06549 0.25963 0.23891 0.0
C1637 C 0.1386 0.22123 0.25407 0.0
C1638 C 0.11251 0.20749 0.2619 0.0
H1639 H 0.15894 0.25732 0.23368 0.0
H1640 H 0.15939 0.21098 0.25779 0.0
C1641 C 0.08623 0.22224 0.2573 0.0
C1642 C 0.49999 0.61143 0.00675 0.0
C1643 C 0.51308 0.63774 0.01445 0.0
H1644 H 0.46334 0.59024 0.98867 0.0
C1645 C 0.49972 0.66388 0.00613 0.0
H1646 H 0.50986 0.59094 0.01262 0.0
C1647 C 0.47246 0.66356 0.99262 0.0
C1648 C 0.45837 0.63711 0.98711 0.0
H1649 H 0.50932 0.68453 0.01176 0.0
H1650 H 0.46208 0.68395 0.98739 0.0
C1651 C 0.47301 0.6111 0.99336 0.0
C1652 C 0.85669 0.27967 0.25045 0.0
C1653 C 0.88235 0.29213 0.26123 0.0
H1654 H 0.83684 0.24433 0.22853 0.0
C1655 C 0.90824 0.2761 0.25955 0.0
H1656 H 0.83614 0.29095 0.25173 0.0
C1657 C 0.90856 0.2488 0.24603 0.0
C1658 C 0.88298 0.23718 0.2341 0.0
H1659 H 0.92824 0.28483 0.26818 0.0
H1660 H 0.92901 0.23751 0.24371 0.0
C1661 C 0.85698 0.2526 0.23735 0.0
C1662 C 0.5253 0.83915 0.99474 0.0
C1663 C 0.54187 0.86452 0.99125 0.0
H1664 H 0.48598 0.82035 0.01079 0.0
C1665 C 0.5296 0.89126 -0.00094 0.0
H1666 H 0.53382 0.81826 0.98824 0.0
C1667 C 0.50215 0.89246 0.0116 0.0
C1668 C 0.48624 0.86698 0.01664 0.0
H1669 H 0.54145 0.91131 0.9961 0.0
H1670 H 0.49393 0.91331 0.01865 0.0
C1671 C 0.49763 0.84039 0.00712 0.0
C1672 C 0.09472 0.77161 0.2303 0.0
C1673 C 0.11189 0.79371 0.24225 0.0
H1674 H 0.08262 0.72677 0.23186 0.0
C1675 C 0.12902 0.78751 0.26668 0.0
H1676 H 0.08175 0.77564 0.21114 0.0
C1677 C 0.12933 0.7597 0.2787 0.0
C1678 C 0.11306 0.73728 0.2661 0.0
H1679 H 0.1427 0.80409 0.27613 0.0
H1680 H 0.14301 0.75552 0.29732 0.0
C1681 C 0.09555 0.74357 0.24193 0.0
C1682 C 0.99553 0.66153 0.99218 0.0
C1683 C 0.98268 0.63536 0.9832 0.0
H1684 H 0.03252 0.6818 0.01198 0.0
C1685 C 0.99602 0.60911 0.99068 0.0
H1686 H 0.98574 0.68215 0.98671 0.0
C1687 C 0.02271 0.60892 0.00463 0.0
C1688 C 0.03685 0.63501 0.01165 0.0
H1689 H 0.98655 0.58859 0.98429 0.0
H1690 H 0.0326 0.58811 0.00916 0.0
C1691 C 0.02252 0.66136 0.00623 0.0
C1692 C 0.85418 0.75276 0.24491 0.0
C1693 C 0.87216 0.7589 0.26857 0.0
H1694 H 0.84334 0.72277 0.21136 0.0
C1695 C 0.89565 0.74023 0.27448 0.0
H1696 H 0.83609 0.76678 0.23966 0.0
C1697 C 0.89987 0.71492 0.25827 0.0
C1698 C 0.88046 0.70781 0.23609 0.0
H1699 H 0.90957 0.744 0.29288 0.0
H1700 H 0.91704 0.70008 0.26431 0.0
C1701 C 0.8583 0.7275 0.22884 0.0
C1702 C -0.00041 0.88877 0.9889 0.0
C1703 C 0.01393 0.86272 0.9825 0.0
H1704 H 0.96175 0.90914 0.00559 0.0
C1705 C 0.00138 0.83641 0.99146 0.0
H1706 H 0.00875 0.90942 0.98245 0.0
C1707 C 0.9739 0.83615 0.00444 0.0
C1708 C 0.95873 0.86222 0.00892 0.0
H1709 H 0.0119 0.81595 0.98681 0.0
H1710 H 0.9643 0.81556 0.01035 0.0
C1711 C 0.97237 0.88854 0.00183 0.0
C1712 C 0.25644 0.08669 0.2248 0.0
C1713 C 0.2612 0.11323 0.21057 0.0
H1714 H 0.238 0.06536 0.26185 0.0
C1715 C 0.25425 0.1391 0.22515 0.0
H1716 H 0.26218 0.06642 0.21446 0.0
C1717 C 0.24099 0.13853 0.2522 0.0
C1718 C 0.23405 0.11208 0.26547 0.0
H1719 H 0.25836 0.16005 0.21538 0.0
H1720 H 0.23467 0.15891 0.26202 0.0
C1721 C 0.24302 0.08613 0.25213 0.0
C1722 C 0.33633 0.50415 -0.00089 0.0
C1723 C 0.362 0.51695 0.98865 0.0
H1724 H 0.31601 0.48057 0.0339 0.0
C1725 C 0.38742 0.5144 0.00513 0.0
H1726 H 0.3163 0.50598 0.98701 0.0
C1727 C 0.38705 0.50083 0.03195 0.0
C1728 C 0.36135 0.48882 0.04306 0.0
H1729 H 0.4076 0.52398 0.99787 0.0
H1730 H 0.40713 0.50009 0.04409 0.0
C1731 C 0.33601 0.49014 0.02617 0.0
C1732 C 0.73954 0.36116 0.22276 0.0
C1733 C 0.734 0.38677 0.20716 0.0
H1734 H 0.75796 0.34187 0.26049 0.0
C1735 C 0.74002 0.41358 0.22035 0.0
H1736 H 0.73442 0.34007 0.2138 0.0
C1737 C 0.75331 0.41453 0.24771 0.0
C1738 C 0.76084 0.38869 0.26207 0.0
H1739 H 0.73539 0.43369 0.20917 0.0
H1740 H 0.75937 0.43537 0.25664 0.0
C1741 C 0.75268 0.36213 0.24983 0.0
C1742 C 0.64204 0.96748 0.01252 0.0
C1743 C 0.63299 0.9825 0.98745 0.0
H1744 H 0.65112 0.96967 0.0581 0.0
C1745 C 0.62895 0.01262 0.98904 0.0
H1746 H 0.64524 0.94424 0.0122 0.0
C1747 C 0.63217 0.02701 0.01556 0.0
C1748 C 0.64006 0.01162 0.04064 0.0
H1749 H 0.62192 0.02479 0.97024 0.0
H1750 H 0.62726 0.04995 0.01679 0.0
C1751 C 0.64564 0.98195 0.03884 0.0
C1752 C 0.26183 0.86279 0.27062 0.0
C1753 C 0.26578 0.88829 0.28686 0.0
H1754 H 0.2434 0.84321 0.23306 0.0
C1755 C 0.25793 0.91499 0.27448 0.0
H1756 H 0.26856 0.84187 0.27891 0.0
C1757 C 0.2438 0.91571 0.24755 0.0
C1758 C 0.23723 0.88972 0.23297 0.0
H1759 H 0.2614 0.93505 0.28616 0.0
H1760 H 0.23606 0.93629 0.23936 0.0
C1761 C 0.24781 0.86352 0.24402 0.0
C1762 C 0.10865 0.49759 0.96868 0.0
C1763 C 0.13474 0.48829 0.95592 0.0
H1764 H 0.08801 0.51854 0.00422 0.0
C1765 C 0.16067 0.49144 0.97164 0.0
H1766 H 0.08809 0.49514 0.95761 0.0
C1767 C 0.16053 0.50498 -0.00107 0.0
C1768 C 0.13445 0.51554 0.01081 0.0
H1769 H 0.18104 0.48394 0.9627 0.0
H1770 H 0.18094 0.50847 0.00997 0.0
C1771 C 0.1085 0.51079 0.99572 0.0
C1772 C 0.75456 0.63403 0.24214 0.0
C1773 C 0.76329 0.60782 0.22951 0.0
H1774 H 0.73565 0.65517 0.27833 0.0
C1775 C 0.75551 0.58162 0.24315 0.0
H1776 H 0.75982 0.65458 0.23205 0.0
C1777 C 0.74186 0.58187 0.27039 0.0
C1778 C 0.73555 0.60832 0.2841 0.0
H1779 H 0.76178 0.561 0.23385 0.0
H1780 H 0.73725 0.56149 0.2811 0.0
C1781 C 0.741 0.63429 0.26902 0.0
C1782 C 0.89173 0.99064 0.0011 0.0
C1783 C 0.86579 0.9849 0.01587 0.0
H1784 H 0.91184 0.007 0.96293 0.0
C1785 C 0.83946 0.99431 0.00375 0.0
H1786 H 0.91232 0.98356 0.0099 0.0
C1787 C 0.83904 0.00737 0.97629 0.0
C1788 C 0.86496 0.01138 0.96072 0.0
H1789 H 0.81908 0.98986 0.01452 0.0
H1790 H 0.81841 0.01361 0.96699 0.0
C1791 C 0.89135 0.00371 0.97392 0.0
C1792 C 0.24842 0.2421 0.08461 0.0
C1793 C 0.26241 0.23465 0.11069 0.0
H1794 H 0.21039 0.26048 0.0649 0.0
C1795 C 0.25035 0.24382 0.13702 0.0
H1796 H 0.25729 0.23538 0.06394 0.0
C1797 C 0.22364 0.25768 0.13758 0.0
C1798 C 0.20822 0.26292 0.11178 0.0
H1799 H 0.26077 0.23868 0.15744 0.0
H1800 H 0.21473 0.26347 0.15852 0.0
C1801 C 0.22139 0.25607 0.08516 0.0
C1802 C 0.24616 0.75949 0.35437 0.0
C1803 C 0.26101 0.76474 0.38043 0.0
H1804 H 0.20782 0.74359 0.33407 0.0
C1805 C 0.24886 0.75501 0.4066 0.0
H1806 H 0.25506 0.76663 0.33383 0.0
C1807 C 0.22138 0.7422 0.40682 0.0
C1808 C 0.20575 0.73867 0.38084 0.0
H1809 H 0.25971 0.75887 0.42705 0.0
H1810 H 0.21219 0.73562 0.4274 0.0
C1811 C 0.21885 0.74667 0.35456 0.0
C1812 C 0.00691 0.49805 0.88671 0.0
C1813 C 0.01373 0.48436 0.86045 0.0
H1814 H 0.98942 0.53505 0.90776 0.0
C1815 C 0.00478 0.49734 0.8343 0.0
H1816 H 0.01333 0.48858 0.90723 0.0
C1817 C 0.99121 0.5246 0.8345 0.0
C1818 C 0.98628 0.53912 0.86084 0.0
H1819 H 0.0098 0.48732 0.81367 0.0
H1820 H 0.98532 0.53457 0.81408 0.0
C1821 C 0.99349 0.52501 0.88692 0.0
C1822 C 0.74975 0.7427 0.40255 0.0
C1823 C 0.73949 0.7318 0.37607 0.0
H1824 H 0.78473 0.76307 0.42509 0.0
C1825 C 0.7564 0.73562 0.35097 0.0
H1826 H 0.73736 0.7399 0.42231 0.0
C1827 C 0.78365 0.74864 0.35255 0.0
C1828 C 0.79469 0.75799 0.37932 0.0
H1829 H 0.74905 0.72744 0.33022 0.0
H1830 H 0.79628 0.75079 0.33287 0.0
C1831 C 0.77717 0.75546 0.4042 0.0
C1832 C 0.49374 0.49747 0.33326 0.0
C1833 C 0.48549 0.51106 0.35932 0.0
H1834 H 0.51208 0.45952 0.31337 0.0
C1835 C 0.49237 0.49766 0.38571 0.0
H1836 H 0.48865 0.50727 0.31254 0.0
C1837 C 0.50512 0.47039 0.38617 0.0
C1838 C 0.51164 0.45574 0.36022 0.0
H1839 H 0.4865 0.50762 0.40616 0.0
H1840 H 0.50929 0.46061 0.4071 0.0
C1841 C 0.50668 0.46994 0.33371 0.0
C1842 C 0.27225 0.74094 0.58563 0.0
C1843 C 0.28636 0.73553 0.6121 0.0
H1844 H 0.23555 0.76025 0.56455 0.0
C1845 C 0.27196 0.74243 0.63809 0.0
H1846 H 0.28246 0.73527 0.56526 0.0
C1847 C 0.24519 0.75625 0.6377 0.0
C1848 C 0.23204 0.7637 0.61133 0.0
H1849 H 0.28169 0.73791 0.65898 0.0
H1850 H 0.23551 0.76255 0.65816 0.0
C1851 C 0.24519 0.75483 0.58525 0.0
C1852 C 0.00451 0.49811 0.66186 0.0
C1853 C 0.01266 0.51165 0.63573 0.0
H1854 H 0.98534 0.46058 0.68179 0.0
C1855 C 0.00422 0.49908 0.6094 0.0
H1856 H 0.01068 0.50733 0.68254 0.0
C1857 C 0.99023 0.47244 0.60897 0.0
C1858 C 0.98409 0.45757 0.6349 0.0
H1859 H 0.0099 0.50911 0.58892 0.0
H1860 H 0.98496 0.46318 0.58805 0.0
C1861 C 0.99041 0.47115 0.66144 0.0
C1862 C 0.98643 0.04041 0.64819 0.0
C1863 C 0.01489 0.04269 0.63821 0.0
H1864 H 0.94887 0.01385 0.65135 0.0
C1865 C 0.02886 0.01817 0.62673 0.0
H1866 H 0.9752 0.05924 0.65661 0.0
C1867 C 0.01409 0.99182 0.62418 0.0
C1868 C 0.98487 0.98989 0.63244 0.0
H1869 H 0.05087 0.01975 0.61866 0.0
H1870 H 0.02504 0.97354 0.61433 0.0
C1871 C 0.97146 0.01432 0.6451 0.0
C1872 C 0.58749 0.71935 0.75796 0.0
C1873 C 0.6129 0.7025 0.75842 0.0
H1874 H 0.56728 0.75871 0.74327 0.0
C1875 C 0.6383 0.71398 0.74608 0.0
H1876 H 0.56771 0.71138 0.76778 0.0
C1877 C 0.63829 0.74107 0.73303 0.0
C1878 C 0.61276 0.75751 0.73129 0.0
H1879 H 0.65847 0.70196 0.74622 0.0
H1880 H 0.65826 0.7486 0.72321 0.0
C1881 C 0.5874 0.74667 0.74443 0.0
C1882 C 0.97622 0.11051 0.49337 0.0
C1883 C 0.96209 0.1367 0.48668 0.0
H1884 H 0.01275 0.0899 0.51269 0.0
C1885 C 0.97681 0.16293 0.4915 0.0
H1886 H 0.96605 0.08976 0.48923 0.0
C1887 C 0.0042 0.16291 0.50474 0.0
C1888 C 0.01704 0.13666 0.51357 0.0
H1889 H 0.96683 0.18343 0.48592 0.0
H1890 H 0.01433 0.18346 0.50978 0.0
C1891 C 0.00331 0.1105 0.50651 0.0
C1892 C 0.35594 0.75554 0.73251 0.0
C1893 C 0.38056 0.73766 0.73265 0.0
H1894 H 0.33707 0.79576 0.74423 0.0
C1895 C 0.40547 0.74709 0.74759 0.0
H1896 H 0.33636 0.74916 0.72123 0.0
C1897 C 0.40587 0.77438 0.76119 0.0
C1898 C 0.38144 0.79259 0.75987 0.0
H1899 H 0.42489 0.73392 0.7479 0.0
H1900 H 0.42525 0.78123 0.77252 0.0
C1901 C 0.35647 0.78259 0.74559 0.0
C1902 C 0.99619 0.33647 0.50406 0.0
C1903 C 0.98322 0.36254 0.51322 0.0
H1904 H 0.03373 0.31629 0.48517 0.0
C1905 C 0.99731 0.3888 0.50726 0.0
H1906 H 0.98586 0.31584 0.50836 0.0
C1907 C 0.02465 0.38902 0.49461 0.0
C1908 C 0.03871 0.36297 0.48727 0.0
H1909 H 0.98784 0.40927 0.51381 0.0
H1910 H 0.03497 0.40982 0.49121 0.0
C1911 C 0.02381 0.33668 0.49126 0.0
C1912 C 0.60129 0.25741 0.77372 0.0
C1913 C 0.61869 0.23464 0.76292 0.0
H1914 H 0.58602 0.30098 0.76783 0.0
C1915 C 0.63159 0.23783 0.73555 0.0
H1916 H 0.59138 0.25605 0.7949 0.0
C1917 C 0.62902 0.26401 0.72048 0.0
C1918 C 0.61295 0.28712 0.73218 0.0
H1919 H 0.64507 0.22084 0.72656 0.0
H1920 H 0.64056 0.26665 0.70018 0.0
C1921 C 0.5982 0.2833 0.75832 0.0
C1922 C 0.52406 0.10849 0.50477 0.0
C1923 C 0.53844 0.13458 0.51126 0.0
H1924 H 0.48764 0.08807 0.48502 0.0
C1925 C 0.52422 0.16094 0.50562 0.0
H1926 H 0.53382 0.08768 0.50957 0.0
C1927 C 0.49716 0.16108 0.49168 0.0
C1928 C 0.4841 0.13485 0.48314 0.0
H1929 H 0.53443 0.18139 0.51097 0.0
H1930 H 0.48749 0.18167 0.48591 0.0
C1931 C 0.49728 0.10864 0.49101 0.0
C1932 C 0.40919 0.25509 0.75119 0.0
C1933 C 0.38276 0.26689 0.76089 0.0
H1934 H 0.43067 0.21841 0.73204 0.0
C1935 C 0.35706 0.25153 0.75569 0.0
H1936 H 0.42942 0.26635 0.75506 0.0
C1937 C 0.35782 0.22416 0.74315 0.0
C1938 C 0.38433 0.21129 0.73522 0.0
H1939 H 0.33635 0.26003 0.76284 0.0
H1940 H 0.33746 0.2128 0.74039 0.0
C1941 C 0.40998 0.22742 0.73852 0.0
C1942 C 0.47221 0.38626 0.50273 0.0
C1943 C 0.45798 0.36028 0.51004 0.0
H1944 H 0.50864 0.40633 0.48261 0.0
C1945 C 0.47226 0.33384 0.50489 0.0
H1946 H 0.46237 0.40715 0.50697 0.0
C1947 C 0.49939 0.33348 0.49105 0.0
C1948 C 0.51249 0.35954 0.48204 0.0
H1949 H 0.4622 0.31349 0.51084 0.0
H1950 H 0.50921 0.31279 0.48591 0.0
C1951 C 0.49905 0.38588 0.48904 0.0
C1952 C 0.74352 0.58308 0.74703 0.0
C1953 C 0.73547 0.60886 0.76123 0.0
H1954 H 0.7618 0.564 0.70862 0.0
C1955 C 0.74291 0.6355 0.74868 0.0
H1956 H 0.73799 0.56219 0.75618 0.0
C1957 C 0.75595 0.63654 0.72154 0.0
C1958 C 0.76209 0.61092 0.70616 0.0
H1959 H 0.73718 0.65571 0.75918 0.0
H1960 H 0.76054 0.65766 0.71237 0.0
C1961 C 0.7567 0.5841 0.71961 0.0
C1962 C 0.89161 0.01204 0.5061 0.0
C1963 C 0.86595 0.0166 0.49036 0.0
H1964 H 0.91109 0.99656 0.54502 0.0
C1965 C 0.83962 0.00649 0.5019 0.0
H1966 H 0.91227 0.01954 0.4978 0.0
C1967 C 0.83884 0.99363 0.52942 0.0
C1968 C 0.86441 0.99045 0.54574 0.0
H1969 H 0.81943 0.00988 0.49041 0.0
H1970 H 0.81818 0.98653 0.53802 0.0
C1971 C 0.89086 -0.0008 0.53341 0.0
C1972 C 0.24037 0.91411 0.71976 0.0
C1973 C 0.23421 0.88724 0.70676 0.0
H1974 H 0.25993 0.93607 0.75582 0.0
C1975 C 0.23976 0.8617 0.72246 0.0
H1976 H 0.23574 0.93418 0.7085 0.0
C1977 C 0.25298 0.86281 0.74949 0.0
C1978 C 0.26122 0.88944 0.76155 0.0
H1979 H 0.23458 0.84058 0.71362 0.0
H1980 H 0.25825 0.8426 0.76024 0.0
C1981 C 0.25376 0.9152 0.74705 0.0
C1982 C 0.16168 0.5064 0.52377 0.0
C1983 C 0.13493 0.51286 0.53686 0.0
H1984 H 0.18332 0.48596 0.48798 0.0
C1985 C 0.10928 0.50732 0.52132 0.0
H1986 H 0.18184 0.51105 0.53486 0.0
C1987 C 0.11012 0.49342 0.49462 0.0
C1988 C 0.13661 0.48452 0.48268 0.0
H1989 H 0.08824 0.51286 0.53018 0.0
H1990 H 0.08981 0.48801 0.48414 0.0
C1991 C 0.16252 0.49241 0.49675 0.0
C1992 C 0.75573 0.41365 0.77211 0.0
C1993 C 0.7621 0.38738 0.78614 0.0
H1994 H 0.73583 0.43396 0.73528 0.0
C1995 C 0.75689 0.3612 0.77136 0.0
H1996 H 0.76019 0.43417 0.78259 0.0
C1997 C 0.74349 0.36108 0.74443 0.0
C1998 C 0.73465 0.38709 0.73152 0.0
H1999 H 0.76233 0.34046 0.78092 0.0
H2000 H 0.73841 0.34038 0.73456 0.0
C2001 C 0.74221 0.4135 0.74484 0.0
C2002 C 0.60998 0.00806 0.49597 0.0
C2003 C 0.63644 0.01444 0.50949 0.0
H2004 H 0.58842 0.99043 0.45936 0.0
C2005 C 0.66235 0.00486 0.49652 0.0
H2006 H 0.58964 0.01506 0.50542 0.0
C2007 C 0.66174 0.99075 0.46956 0.0
C2008 C 0.63522 0.986 0.4553 0.0
H2009 H 0.68311 0.00967 0.50636 0.0
H2010 H 0.68198 0.98418 0.45964 0.0
C2011 C 0.60937 0.99419 0.46927 0.0
C2012 C 0.24471 0.13749 0.77405 0.0
C2013 C 0.238 0.11143 0.78843 0.0
H2014 H 0.26439 0.1578 0.73751 0.0
C2015 C 0.24342 0.08505 0.77416 0.0
H2016 H 0.24018 0.15834 0.78386 0.0
C2017 C 0.25715 0.08485 0.74697 0.0
C2018 C 0.26578 0.11102 0.73382 0.0
H2019 H 0.2379 0.06464 0.78433 0.0
H2020 H 0.26264 0.06422 0.73721 0.0
C2021 C 0.25829 0.13727 0.74716 0.0
C2022 C 0.34168 0.4988 0.49997 0.0
C2023 C 0.36537 0.48115 0.5077 0.0
H2024 H 0.32287 0.52656 0.46744 0.0
C2025 C 0.38844 0.47817 0.48802 0.0
H2026 H 0.32343 0.50131 0.51452 0.0
C2027 C 0.38762 0.49155 0.46117 0.0
C2028 C 0.36407 0.50905 0.45314 0.0
H2029 H 0.40701 0.46467 0.49291 0.0
H2030 H 0.40577 0.48813 0.44664 0.0
C2031 C 0.34107 0.51276 0.47285 0.0
C2032 C 0.74863 0.7406 0.63629 0.0
C2033 C 0.762 0.73348 0.60995 0.0
H2034 H 0.71166 0.7579 0.65756 0.0
C2035 C 0.74862 0.74192 0.58385 0.0
H2036 H 0.75847 0.73465 0.65677 0.0
C2037 C 0.72116 0.75503 0.58419 0.0
C2038 C 0.70688 0.76009 0.61065 0.0
H2039 H 0.75845 0.73676 0.56316 0.0
H2040 H 0.71083 0.76044 0.56382 0.0
C2041 C 0.72147 0.75361 0.63665 0.0
C2042 C 0.71286 0.25055 0.85599 0.0
C2043 C 0.7008 0.24197 0.8826 0.0
H2044 H 0.74858 0.27029 0.83415 0.0
C2045 C 0.71756 0.24474 0.90794 0.0
H2046 H 0.70083 0.24821 0.83597 0.0
C2047 C 0.74536 0.25683 0.90678 0.0
C2048 C 0.75673 0.2668 0.88033 0.0
H2049 H 0.70918 0.23767 0.92871 0.0
H2050 H 0.75726 0.25973 0.92681 0.0
C2051 C 0.74044 0.26284 0.85489 0.0
C2052 C 0.50354 0.99381 0.33526 0.0
C2053 C 0.51234 0.98061 0.36133 0.0
H2054 H 0.48451 0.03135 0.31528 0.0
C2055 C 0.50525 0.99396 0.3877 0.0
H2056 H 0.50872 0.98403 0.31456 0.0
C2057 C 0.49192 0.02097 0.3881 0.0
C2058 C 0.48514 0.0354 0.36211 0.0
H2059 H 0.51152 0.98424 0.40815 0.0
H2060 H 0.48771 0.03084 0.40899 0.0
C2061 C 0.49011 0.0211 0.33565 0.0
C2062 C 0.24735 0.24275 0.91057 0.0
C2063 C 0.23415 0.23414 0.88448 0.0
H2064 H 0.28456 0.26228 0.93054 0.0
C2065 C 0.24698 0.24211 0.85809 0.0
H2066 H 0.23796 0.23686 0.93126 0.0
C2067 C 0.27359 0.25623 0.85766 0.0
C2068 C 0.2881 0.26281 0.88364 0.0
H2069 H 0.23721 0.23593 0.83764 0.0
H2070 H 0.28317 0.26112 0.83678 0.0
C2071 C 0.27425 0.25687 0.91015 0.0
C2072 C 0.00411 0.9728 0.88918 0.0
C2073 C 0.01179 0.95967 0.8627 0.0
H2074 H 0.98457 0.00882 0.91053 0.0
C2075 C 0.00793 0.97544 0.83689 0.0
H2076 H 0.00724 0.96174 0.90965 0.0
C2077 C 0.99509 0.00306 0.83756 0.0
C2078 C 0.98586 0.01516 0.86404 0.0
H2079 H 0.01416 0.96622 0.81622 0.0
H2080 H 0.99078 0.01406 0.81729 0.0
C2081 C 0.99145 0.0001 0.88981 0.0
C2082 C 0.77546 0.24071 0.08541 0.0
C2083 C 0.7891 0.23492 0.11204 0.0
H2084 H 0.73916 0.26047 0.06399 0.0
C2085 C 0.77428 0.24158 0.13787 0.0
H2086 H 0.786 0.23526 0.06515 0.0
C2087 C 0.74759 0.25552 0.13722 0.0
C2088 C 0.7349 0.26332 0.11075 0.0
H2089 H 0.78361 0.23677 0.15888 0.0
H2090 H 0.73759 0.2616 0.1576 0.0
C2091 C 0.74845 0.25474 0.08477 0.0
C2092 C 0.49207 0.97719 0.1626 0.0
C2093 C 0.48639 0.96255 0.13649 0.0
H2094 H 0.51184 0.0142 0.18267 0.0
C2095 C 0.49301 0.9764 0.11012 0.0
H2096 H 0.48656 0.96744 0.18323 0.0
C2097 C 0.50698 0.00305 0.10979 0.0
C2098 C 0.51495 0.01661 0.13578 0.0
H2099 H 0.48824 0.9663 0.08947 0.0
H2100 H 0.51312 0.01222 0.08904 0.0
C2101 C 0.50613 0.00417 0.16224 0.0
C2102 C 0.48684 0.50029 0.1092 0.0
C2103 C 0.48221 0.48524 0.13522 0.0
H2104 H 0.50194 0.53863 0.08868 0.0
C2105 C 0.49243 0.49746 0.16127 0.0
H2106 H 0.4794 0.49152 0.08872 0.0
C2107 C 0.5053 0.52505 0.16135 0.0
C2108 C 0.50826 0.54075 0.13537 0.0
H2109 H 0.48911 0.48646 0.18174 0.0
H2110 H 0.51242 0.53425 0.18174 0.0
C2111 C 0.49951 0.52762 0.10927 0.0
C2112 C 0.14508 0.01363 0.25405 0.0
C2113 C 0.1188 0.02812 0.25917 0.0
H2114 H 0.16642 0.97751 0.23518 0.0
C2115 C 0.09292 0.01432 0.25093 0.0
H2116 H 0.16552 0.02271 0.26084 0.0
C2117 C 0.09332 0.98641 0.2391 0.0
C2118 C 0.1197 0.97228 0.23339 0.0
H2119 H 0.0722 0.02487 0.25348 0.0
H2120 H 0.07281 0.97601 0.23486 0.0
C2121 C 0.14556 0.98677 0.24027 0.0
C2122 C 0.26145 0.65884 0.99381 0.0
C2123 C 0.27599 0.63281 0.98743 0.0
H2124 H 0.22202 0.67923 0.0065 0.0
C2125 C 0.26122 0.60666 0.99255 0.0
H2126 H 0.27198 0.67956 0.99124 0.0
C2127 C 0.23367 0.60648 0.005 0.0
C2128 C 0.21863 0.63243 0.0103 0.0
H2129 H 0.2707 0.58604 0.98699 0.0
H2130 H 0.22446 0.58572 0.01051 0.0
C2131 C 0.23281 0.65866 0.00388 0.0
C2132 C 0.90494 0.51513 0.24822 0.0
C2133 C 0.87904 0.52908 0.24024 0.0
H2134 H 0.92503 0.47656 0.26365 0.0
C2135 C 0.85276 0.51465 0.24549 0.0
H2136 H 0.92568 0.5256 0.24562 0.0
C2137 C 0.85229 0.48771 0.25909 0.0
C2138 C 0.87814 0.47301 0.26554 0.0
H2139 H 0.83229 0.52375 0.23886 0.0
H2140 H 0.83143 0.47853 0.26432 0.0
C2141 C 0.90453 0.48709 0.25974 0.0
C2142 C 0.7574 0.88566 0.01594 0.0
C2143 C 0.77853 0.86552 0.00757 0.0
H2144 H 0.7137 0.90017 0.01097 0.0
C2145 C 0.77193 0.84488 0.98623 0.0
H2146 H 0.76205 0.90167 0.03247 0.0
C2147 C 0.74448 0.84442 0.97339 0.0
C2148 C 0.72314 0.8643 0.98207 0.0
H2149 H 0.78813 0.82941 0.97922 0.0
H2150 H 0.73998 0.82866 0.95658 0.0
C2151 C 0.72986 0.8849 0.00348 0.0
C2152 C 0.24414 0.09113 0.98499 0.0
C2153 C 0.23748 0.11724 0.97071 0.0
H2154 H 0.25753 0.07052 0.02408 0.0
C2155 C 0.2425 0.14332 0.9856 0.0
H2156 H 0.2416 0.07049 0.97431 0.0
C2157 C 0.25489 0.14337 0.01317 0.0
C2158 C 0.26044 0.11732 0.02795 0.0
H2159 H 0.23683 0.16397 0.97622 0.0
H2160 H 0.26018 0.16408 0.02262 0.0
C2161 C 0.25446 0.09116 0.01352 0.0
C2162 C 0.34333 0.50765 0.2619 0.0
C2163 C 0.36973 0.51413 0.27561 0.0
H2164 H 0.32219 0.49199 0.22398 0.0
C2165 C 0.39561 0.50717 0.26118 0.0
H2166 H 0.32285 0.51191 0.27235 0.0
C2167 C 0.39516 0.49271 0.23472 0.0
C2168 C 0.36886 0.48698 0.22053 0.0
H2169 H 0.41645 0.51278 0.27018 0.0
H2170 H 0.41563 0.48599 0.2256 0.0
C2171 C 0.34292 0.49509 0.23432 0.0
C2172 C 0.75371 0.40594 0.98313 0.0
C2173 C 0.76048 0.3799 0.96884 0.0
H2174 H 0.73969 0.42636 0.02205 0.0
C2175 C 0.75536 0.35372 0.98354 0.0
H2176 H 0.75643 0.42663 0.97258 0.0
C2177 C 0.74254 0.35353 0.01093 0.0
C2178 C 0.73658 0.37954 0.02561 0.0
H2179 H 0.76118 0.33314 0.97408 0.0
H2180 H 0.7372 0.33279 0.02029 0.0
C2181 C 0.74291 0.40577 0.01145 0.0
C2182 C 0.65471 0.00201 0.23355 0.0
C2183 C 0.62868 0.00869 0.21923 0.0
H2184 H 0.67504 0.98743 0.27223 0.0
C2185 C 0.60246 0.00197 0.2332 0.0
H2186 H 0.67545 0.00569 0.22343 0.0
C2187 C 0.6023 0.98819 0.26011 0.0
C2188 C 0.62829 0.98282 0.27506 0.0
H2189 H 0.58183 0.0075 0.2237 0.0
H2190 H 0.58163 0.98187 0.26904 0.0
C2191 C 0.6545 0.99027 0.26146 0.0
C2192 C 0.25491 0.85298 0.48372 0.0
C2193 C 0.26093 0.87907 0.46919 0.0
H2194 H 0.2358 0.8324 0.52021 0.0
C2195 C 0.25458 0.90522 0.48348 0.0
H2196 H 0.26033 0.83229 0.47427 0.0
C2197 C 0.24343 0.90524 0.51166 0.0
C2198 C 0.2363 0.87914 0.52567 0.0
H2199 H 0.25795 0.92587 0.47304 0.0
H2200 H 0.24061 0.92587 0.52228 0.0
C2201 C 0.24176 0.85303 0.51096 0.0
C2202 C 0.15544 0.49021 0.76062 0.0
C2203 C 0.12938 0.48334 0.77485 0.0
H2204 H 0.17586 0.50448 0.72177 0.0
C2205 C 0.10322 0.48831 0.7601 0.0
H2206 H 0.17611 0.48755 0.77119 0.0
C2207 C 0.10301 0.50123 0.7328 0.0
C2208 C 0.12902 0.5074 0.7182 0.0
H2209 H 0.08265 0.48232 0.76947 0.0
H2210 H 0.08226 0.50656 0.72347 0.0
C2211 C 0.15527 0.5011 0.73234 0.0
C2212 C 0.74448 0.59229 0.48156 0.0
C2213 C 0.73753 0.61832 0.46733 0.0
H2214 H 0.7584 0.57176 0.52042 0.0
C2215 C 0.74245 0.64447 0.48217 0.0
H2216 H 0.742 0.57162 0.47091 0.0
C2217 C 0.75511 0.64461 0.50967 0.0
C2218 C 0.76118 0.61856 0.5243 0.0
H2219 H 0.73659 0.66506 0.47275 0.0
H2220 H 0.76026 0.66534 0.51915 0.0
C2221 C 0.75512 0.59239 0.50994 0.0
C2222 C 0.8501 0.98019 0.77735 0.0
C2223 C 0.86586 0.00586 0.78123 0.0
H2224 H 0.83869 0.94591 0.74804 0.0
C2225 C 0.88181 0.01742 0.75817 0.0
H2226 H 0.83814 0.97076 0.79523 0.0
C2227 C 0.88149 0.00381 0.73121 0.0
C2228 C 0.86569 0.97811 0.7271 0.0
H2229 H 0.89426 0.03714 0.76096 0.0
H2230 H 0.89342 0.01352 0.71347 0.0
C2231 C 0.85031 0.96615 0.75048 0.0
C2232 C 0.98508 0.24191 0.14541 0.0
C2233 C 0.9704 0.23628 0.11934 0.0
H2234 H 0.02168 0.26072 0.16599 0.0
C2235 C 0.98445 0.24306 0.09316 0.0
H2236 H 0.97578 0.23619 0.1661 0.0
C2237 C 0.01263 0.25415 0.09309 0.0
C2238 C 0.02684 0.2608 0.1192 0.0
H2239 H 0.97385 0.24006 0.07254 0.0
H2240 H 0.0231 0.25726 0.07241 0.0
C2241 C 0.0123 0.25505 0.14535 0.0
C2242 C 0.97729 0.74022 0.37135 0.0
C2243 C 0.97301 0.76429 0.38946 0.0
H2244 H 0.00691 0.70773 0.35641 0.0
C2245 C 0.99563 0.77379 0.40736 0.0
H2246 H 0.95996 0.7323 0.35764 0.0
C2247 C 0.02246 0.75972 0.40663 0.0
C2248 C 0.02685 0.736 0.38806 0.0
H2249 H 0.99274 0.79244 0.42133 0.0
H2250 H 0.03997 0.76776 0.42004 0.0
C2251 C 0.004 0.72616 0.37068 0.0
C2252 C 0.00389 0.76338 0.84075 0.0
C2253 C 0.01063 0.77755 0.86688 0.0
H2254 H 0.99009 0.72457 0.82005 0.0
C2255 C 0.00511 0.76276 0.89295 0.0
H2256 H 0.00674 0.77394 0.8201 0.0
C2257 C 0.99209 0.73547 0.89294 0.0
C2258 C 0.98644 0.7208 0.86684 0.0
H2259 H 0.01086 0.77199 0.91364 0.0
H2260 H 0.98646 0.72615 0.91362 0.0
C2261 C 0.99305 0.73507 0.84073 0.0
C2262 C 0.49316 0.2323 0.39182 0.0
C2263 C 0.4885 0.21735 0.3657 0.0
H2264 H 0.51098 0.26911 0.41276 0.0
C2265 C 0.49575 0.23138 0.33965 0.0
H2266 H 0.48693 0.22313 0.4124 0.0
C2267 C 0.50627 0.2598 0.33975 0.0
C2268 C 0.51208 0.27424 0.36597 0.0
H2269 H 0.49347 0.2206 0.31901 0.0
H2270 H 0.50961 0.27024 0.31911 0.0
C2271 C 0.50593 0.25966 0.392 0.0
C2272 C 0.48358 0.73942 0.64336 0.0
C2273 C 0.46843 0.73518 0.61727 0.0
H2274 H 0.52059 0.75692 0.66427 0.0
C2275 C 0.48235 0.74266 0.59123 0.0
H2276 H 0.47443 0.73303 0.66392 0.0
C2277 C 0.5108 0.75306 0.59127 0.0
C2278 C 0.52538 0.75867 0.61744 0.0
H2279 H 0.47144 0.74073 0.57062 0.0
H2280 H 0.52109 0.75655 0.57058 0.0
C2281 C 0.511 0.75214 0.6435 0.0
C2282 C 0.99104 0.26233 0.6015 0.0
C2283 C 0.98554 0.27698 0.62765 0.0
H2284 H 0.01058 0.22623 0.58065 0.0
C2285 C 0.99318 0.26323 0.65372 0.0
H2286 H 0.9846 0.27138 0.58092 0.0
C2287 C 0.00519 0.23544 0.65365 0.0
C2288 C 0.01191 0.22139 0.62745 0.0
H2289 H 0.99021 0.2738 0.67437 0.0
H2290 H 0.009 0.22517 0.67429 0.0
C2291 C 0.00505 0.23554 0.60138 0.0
C2292 C 0.59317 0.4801 0.74699 0.0
C2293 C 0.61934 0.46607 0.74012 0.0
H2294 H 0.57254 0.51867 0.7618 0.0
C2295 C 0.64544 0.48029 0.74669 0.0
H2296 H 0.57254 0.46972 0.74334 0.0
C2297 C 0.64539 0.50726 0.76027 0.0
C2298 C 0.61932 0.52205 0.76559 0.0
H2299 H 0.66613 0.47102 0.74103 0.0
H2300 H 0.66602 0.51648 0.76633 0.0
C2301 C 0.59315 0.50806 0.75869 0.0
C2302 C 0.73639 0.10635 0.50611 0.0
C2303 C 0.7215 0.13234 0.5117 0.0
H2304 H 0.77346 0.08589 0.48819 0.0
C2305 C 0.73612 0.15855 0.50628 0.0
H2306 H 0.7269 0.08558 0.51104 0.0
C2307 C 0.76488 0.15863 0.49649 0.0
C2308 C 0.77917 0.13258 0.48958 0.0
H2309 H 0.72555 0.17918 0.50935 0.0
H2310 H 0.7757 0.17927 0.49445 0.0
C2311 C 0.76411 0.1065 0.49405 0.0
C2312 C 0.35487 0.98746 0.7566 0.0
C2313 C 0.38038 0.97261 0.76404 0.0
H2314 H 0.33581 0.02393 0.73625 0.0
C2315 C 0.40703 0.98672 0.7594 0.0
H2316 H 0.33377 0.97836 0.76079 0.0
C2317 C 0.40796 0.01508 0.74859 0.0
C2318 C 0.38241 0.02932 0.74006 0.0
H2319 H 0.42735 0.97609 0.76387 0.0
H2320 H 0.42878 0.02564 0.74709 0.0
C2321 C 0.35597 0.01465 0.74359 0.0
C2322 C 0.26112 0.39363 0.50916 0.0
C2323 C 0.27583 0.36749 0.51442 0.0
H2324 H 0.22469 0.41449 0.49042 0.0
C2325 C 0.2615 0.34142 0.50786 0.0
H2326 H 0.27055 0.41424 0.51489 0.0
C2327 C 0.23324 0.34155 0.49693 0.0
C2328 C 0.21923 0.36773 0.49011 0.0
H2329 H 0.27198 0.32073 0.51074 0.0
H2330 H 0.22265 0.32095 0.49388 0.0
C2331 C 0.23388 0.39376 0.49607 0.0
C2332 C 0.49738 0.21759 0.89876 0.0
C2333 C 0.5196 0.22593 0.8797 0.0
H2334 H 0.45387 0.22549 0.91333 0.0
C2335 C 0.51448 0.2484 0.85978 0.0
H2336 H 0.50065 0.20005 0.914 0.0
C2337 C 0.48775 0.26244 0.85906 0.0
C2338 C 0.46593 0.25464 0.87863 0.0
H2339 H 0.5314 0.25573 0.84526 0.0
H2340 H 0.48435 0.27987 0.84369 0.0
C2341 C 0.47076 0.23206 0.89839 0.0
C2342 C 0.50442 0.7375 0.10571 0.0
C2343 C 0.51039 0.72269 0.13167 0.0
H2344 H 0.48581 0.77431 0.08538 0.0
C2345 C 0.50462 0.73716 0.15791 0.0
H2346 H 0.50944 0.72815 0.0849 0.0
C2347 C 0.49446 0.76575 0.15809 0.0
C2348 C 0.48735 0.78002 0.1321 0.0
H2349 H 0.50776 0.72665 0.17854 0.0
H2350 H 0.49237 0.77647 0.17877 0.0
C2351 C 0.49189 0.76503 0.10595 0.0
C2352 C 0.15319 0.17947 0.39322 0.0
C2353 C 0.12619 0.16946 0.38307 0.0
H2354 H 0.17584 0.21256 0.41704 0.0
C2355 C 0.10084 0.18356 0.39266 0.0
H2356 H 0.17313 0.1692 0.38629 0.0
C2357 C 0.10255 0.20867 0.40936 0.0
C2358 C 0.12953 0.21973 0.41758 0.0
H2359 H 0.07964 0.17665 0.38541 0.0
H2360 H 0.08281 0.22015 0.41487 0.0
C2361 C 0.15481 0.20436 0.41059 0.0
C2362 C 0.43022 0.59376 0.85896 0.0
C2363 C 0.42058 0.62112 0.86849 0.0
H2364 H 0.46346 0.56998 0.83647 0.0
C2365 C 0.43582 0.64597 0.85933 0.0
H2366 H 0.41908 0.57419 0.8656 0.0
C2367 C 0.46156 0.64339 0.84371 0.0
C2368 C 0.47215 0.61604 0.8361 0.0
H2369 H 0.42923 0.66744 0.86615 0.0
H2370 H 0.47374 0.66275 0.83839 0.0
C2371 C 0.45572 0.59129 0.84259 0.0
C2372 C 0.83967 0.3069 0.38005 0.0
C2373 C 0.86127 0.32837 0.38216 0.0
H2374 H 0.82527 0.26493 0.39399 0.0
C2375 C 0.8824 0.32587 0.40396 0.0
H2376 H 0.82317 0.30799 0.36339 0.0
C2377 C 0.88332 0.30126 0.42163 0.0
C2378 C 0.86358 0.27855 0.41727 0.0
H2379 H 0.89933 0.342 0.40608 0.0
H2380 H 0.90069 0.29908 0.43729 0.0
C2381 C 0.84104 0.28203 0.39725 0.0
C2382 C 0.53183 0.85002 0.84897 0.0
C2383 C 0.52299 0.87677 0.83779 0.0
H2384 H 0.56271 0.82709 0.8744 0.0
C2385 C 0.54098 0.90106 0.841 0.0
H2386 H 0.51846 0.83092 0.84614 0.0
C2387 C 0.56634 0.89912 0.85758 0.0
C2388 C 0.57423 0.87268 0.87063 0.0
H2389 H 0.5346 0.92183 0.83209 0.0
H2390 H 0.57878 0.91863 0.86154 0.0
C2391 C 0.55739 0.84788 0.86488 0.0
C2392 C 0.11527 0.82463 0.09547 0.0
C2393 C 0.13614 0.82667 0.11759 0.0
H2394 H 0.09727 0.79844 0.06155 0.0
C2395 C 0.15796 0.80539 0.11926 0.0
H2396 H 0.09827 0.84072 0.09354 0.0
C2397 C 0.15687 0.78093 0.10149 0.0
C2398 C 0.13439 0.7777 0.08135 0.0
H2399 H 0.1744 0.80625 0.13599 0.0
H2400 H 0.17271 0.76386 0.1045 0.0
C2401 C 0.11459 0.80041 0.07727 0.0
C2402 C 0.04054 0.59088 0.15768 0.0
C2403 C 0.02759 0.61642 0.16785 0.0
H2404 H 0.07351 0.5724 0.13064 0.0
C2405 C 0.0408 0.64311 0.16226 0.0
H2406 H 0.03063 0.57004 0.16203 0.0
C2407 C 0.06557 0.64454 0.14497 0.0
C2408 C 0.0772 0.61929 0.13227 0.0
H2409 H 0.03114 0.66301 0.17016 0.0
H2410 H 0.07412 0.66575 0.13974 0.0
C2411 C 0.06519 0.59228 0.13994 0.0
C2412 C 0.89661 0.70709 0.08777 0.0
C2413 C 0.86979 0.71805 0.07896 0.0
H2414 H 0.91907 0.6755 0.11269 0.0
C2415 C 0.84435 0.70299 0.08598 0.0
H2416 H 0.91646 0.71839 0.08228 0.0
C2417 C 0.84564 0.67841 0.10379 0.0
C2418 C 0.87246 0.66853 0.11453 0.0
H2419 H 0.82345 0.71114 0.07905 0.0
H2420 H 0.82556 0.66835 0.11062 0.0
C2421 C 0.898 0.68235 0.10502 0.0
C2422 C 0.93827 0.84909 0.13575 0.0
C2423 C 0.92233 0.87407 0.12833 0.0
H2424 H 0.97669 0.83193 0.15541 0.0
C2425 C 0.93136 0.901 0.13955 0.0
H2426 H 0.93215 0.82796 0.12762 0.0
C2427 C 0.95691 0.90306 0.15587 0.0
C2428 C 0.97402 0.87837 0.16065 0.0
H2429 H 0.9197 0.92067 0.13428 0.0
H2430 H 0.96414 0.92412 0.16331 0.0
C2431 C 0.96404 0.85131 0.15136 0.0
C2432 C 0.41799 0.10879 0.1986 0.0
C2433 C 0.41594 0.13095 0.2193 0.0
H2434 H 0.40047 0.09062 0.15965 0.0
C2435 C 0.39822 0.15495 0.21376 0.0
H2436 H 0.43191 0.09026 0.20236 0.0
C2437 C 0.38082 0.15563 0.18898 0.0
C2438 C 0.38041 0.13195 0.16968 0.0
H2439 H 0.39687 0.17256 0.22925 0.0
H2440 H 0.3659 0.17357 0.18638 0.0
C2441 C 0.40018 0.10915 0.17407 0.0
C2442 C 0.35039 0.35486 0.06396 0.0
C2443 C 0.3759 0.36519 0.07721 0.0
H2444 H 0.33186 0.33187 0.0281 0.0
C2445 C 0.40286 0.35587 0.06629 0.0
H2446 H 0.32922 0.36151 0.0716 0.0
C2447 C 0.40418 0.33857 0.04135 0.0
C2448 C 0.37863 0.33062 0.02698 0.0
H2449 H 0.42291 0.36337 0.07589 0.0
H2450 H 0.42511 0.33271 0.03245 0.0
C2451 C 0.35178 0.33806 0.03889 0.0
C2452 C 0.58587 0.3906 0.20473 0.0
C2453 C 0.58121 0.36383 0.21812 0.0
H2454 H 0.60695 0.41358 0.17067 0.0
C2455 C 0.59145 0.33845 0.20494 0.0
H2456 H 0.57781 0.41036 0.21455 0.0
C2457 C 0.60843 0.34014 0.17981 0.0
C2458 C 0.61523 0.36727 0.16754 0.0
H2459 H 0.58775 0.31755 0.21498 0.0
H2460 H 0.61788 0.32041 0.17128 0.0
C2461 C 0.60239 0.39231 0.17945 0.0
C2462 C 0.59556 0.13986 0.06615 0.0
C2463 C 0.62195 0.13349 0.08011 0.0
H2464 H 0.57486 0.16113 0.03025 0.0
C2465 C 0.64726 0.1479 0.0709 0.0
H2466 H 0.57562 0.12933 0.07269 0.0
C2467 C 0.64667 0.16595 0.04661 0.0
C2468 C 0.62083 0.16996 0.03127 0.0
H2469 H 0.66797 0.14363 0.08107 0.0
H2470 H 0.66671 0.17543 0.03885 0.0
C2471 C 0.59508 0.1578 0.04172 0.0
C2472 C 0.40274 0.88869 0.32495 0.0
C2473 C 0.38305 0.86586 0.3295 0.0
H2474 H 0.4342 0.90758 0.29637 0.0
C2475 C 0.38354 0.84203 0.31037 0.0
H2476 H 0.40298 0.9073 0.33926 0.0
C2477 C 0.4008 0.84266 0.2855 0.0
C2478 C 0.4183 0.86675 0.27972 0.0
H2479 H 0.36874 0.82402 0.31312 0.0
H2480 H 0.39946 0.82496 0.27012 0.0
C2481 C 0.42041 0.88899 0.30032 0.0
C2482 C 0.09278 0.35775 0.93108 0.0
C2483 C 0.11995 0.36633 0.92008 0.0
H2484 H 0.06996 0.33557 0.96517 0.0
C2485 C 0.1452 0.35538 0.93334 0.0
H2486 H 0.0729 0.36572 0.92146 0.0
C2487 C 0.1434 0.33897 0.95866 0.0
C2488 C 0.11638 0.33245 0.97074 0.0
H2489 H 0.16653 0.36133 0.92557 0.0
H2490 H 0.16317 0.33236 0.96948 0.0
C2491 C 0.09103 0.34075 0.95619 0.0
C2492 C 0.58415 0.60532 0.29276 0.0
C2493 C 0.57978 0.63175 0.27858 0.0
H2494 H 0.60642 0.5828 0.32641 0.0
C2495 C 0.59167 0.65716 0.29015 0.0
H2496 H 0.57492 0.58554 0.28411 0.0
C2497 C 0.60984 0.65576 0.31441 0.0
C2498 C 0.61643 0.62884 0.32726 0.0
H2499 H 0.58829 0.67779 0.27945 0.0
H2500 H 0.62041 0.67543 0.32164 0.0
C2501 C 0.60206 0.60389 0.31709 0.0
C2502 C 0.85364 0.15664 0.96003 0.0
C2503 C 0.88065 0.16484 0.97099 0.0
H2504 H 0.83064 0.13295 0.92792 0.0
C2505 C 0.90584 0.15835 0.95525 0.0
H2506 H 0.83395 0.1619 0.97173 0.0
C2507 C 0.90414 0.1413 0.93015 0.0
C2508 C 0.87714 0.13096 0.92034 0.0
H2509 H 0.92689 0.16488 0.96334 0.0
H2510 H 0.92406 0.13463 0.91965 0.0
C2511 C 0.85184 0.14027 0.93472 0.0
C2512 C 0.20698 0.40975 0.10626 0.0
C2513 C 0.21927 0.41572 0.1333 0.0
H2514 H 0.17371 0.38789 0.08297 0.0
C2515 C 0.20482 0.40709 0.15861 0.0
H2516 H 0.21773 0.41661 0.08652 0.0
C2517 C 0.17964 0.39023 0.15675 0.0
C2518 C 0.16849 0.38211 0.12949 0.0
H2519 H 0.21397 0.41186 0.17971 0.0
H2520 H 0.17013 0.38193 0.17655 0.0
C2521 C 0.18159 0.39349 0.10435 0.0
C2522 C 0.18136 0.60818 0.34573 0.0
C2523 C 0.17151 0.6176 0.37308 0.0
H2524 H 0.2151 0.58641 0.32204 0.0
C2525 C 0.18665 0.60854 0.39801 0.0
H2526 H 0.17028 0.61469 0.32609 0.0
C2527 C 0.21263 0.59331 0.3955 0.0
C2528 C 0.22352 0.58605 0.36815 0.0
H2529 H 0.17975 0.61517 0.41945 0.0
H2530 H 0.22478 0.58808 0.41491 0.0
C2531 C 0.20712 0.59229 0.34334 0.0
C2532 C 0.85753 0.56704 0.90349 0.0
C2533 C 0.86559 0.57862 0.87639 0.0
H2534 H 0.83557 0.5326 0.92597 0.0
C2535 C 0.85374 0.56625 0.8511 0.0
H2536 H 0.86616 0.57598 0.9234 0.0
C2537 C 0.83703 0.54113 0.85266 0.0
C2538 C 0.83112 0.52838 0.87951 0.0
H2539 H 0.85924 0.57453 0.82984 0.0
H2540 H 0.82976 0.53093 0.83279 0.0
C2541 C 0.84027 0.54211 0.90501 0.0
C2542 C 0.81897 0.8914 0.34594 0.0
C2543 C 0.82783 0.88056 0.37309 0.0
H2544 H 0.78649 0.91518 0.32243 0.0
C2545 C 0.81242 0.8891 0.39803 0.0
H2546 H 0.83028 0.8853 0.32629 0.0
C2547 C 0.78711 0.9054 0.39561 0.0
C2548 C 0.77712 0.91414 0.36835 0.0
H2549 H 0.8186 0.88141 0.41933 0.0
H2550 H 0.77466 0.9102 0.41496 0.0
C2551 C 0.79383 0.90828 0.34364 0.0
C2552 C 0.65697 0.458 0.35209 0.0
C2553 C 0.66462 0.46937 0.3791 0.0
H2554 H 0.63401 0.42538 0.32904 0.0
C2555 C 0.65754 0.45405 0.4044 0.0
H2556 H 0.66264 0.46939 0.33233 0.0
C2557 C 0.64064 0.42885 0.40272 0.0
C2558 C 0.63112 0.41845 0.37563 0.0
H2559 H 0.66366 0.46244 0.42546 0.0
H2560 H 0.63362 0.41857 0.42263 0.0
C2561 C 0.64079 0.43257 0.35032 0.0
C2562 C 0.31508 0.60649 0.65448 0.0
C2563 C 0.32609 0.61542 0.62743 0.0
H2564 H 0.28097 0.58395 0.67694 0.0
C2565 C 0.31299 0.60463 0.60201 0.0
H2566 H 0.3246 0.6143 0.67447 0.0
C2567 C 0.28775 0.58814 0.60355 0.0
C2568 C 0.27559 0.58135 0.63045 0.0
H2569 H 0.32075 0.61087 0.58075 0.0
H2570 H 0.277 0.58175 0.58367 0.0
C2571 C 0.29002 0.58939 0.65596 0.0
C2572 C 0.85337 0.43263 0.64436 0.0
C2573 C 0.86386 0.41895 0.61913 0.0
H2574 H 0.83112 0.46933 0.66217 0.0
C2575 C 0.85501 0.42966 0.59193 0.0
H2576 H 0.85954 0.42509 0.6657 0.0
C2577 C 0.83832 0.45495 0.59009 0.0
C2578 C 0.83064 0.46998 0.61536 0.0
H2579 H 0.86262 0.4197 0.57207 0.0
H2580 H 0.83299 0.46373 0.56897 0.0
C2581 C 0.8373 0.45815 0.64245 0.0
C2582 C 0.1606 0.04385 0.59064 0.0
C2583 C 0.16787 0.02861 0.61589 0.0
H2584 H 0.13679 0.07941 0.57259 0.0
C2585 C 0.16101 0.04033 0.64299 0.0
H2586 H 0.16607 0.03514 0.56952 0.0
C2587 C 0.14514 0.06597 0.64489 0.0
C2588 C 0.13504 0.07988 0.61963 0.0
H2589 H 0.16685 0.02896 0.6627 0.0
H2590 H 0.13877 0.07341 0.66621 0.0
C2591 C 0.1441 0.06927 0.59246 0.0
C2592 C 0.65541 0.68883 0.88047 0.0
C2593 C 0.63331 0.66778 0.88119 0.0
H2594 H 0.67062 0.72964 0.89657 0.0
C2595 C 0.61147 0.67016 0.90229 0.0
H2596 H 0.67256 0.68773 0.86446 0.0
C2597 C 0.61039 0.69428 0.92057 0.0
C2598 C 0.63078 0.71671 0.91775 0.0
H2599 H 0.59419 0.65431 0.90344 0.0
H2600 H 0.59244 0.69624 0.9356 0.0
C2601 C 0.65403 0.71318 0.89846 0.0
C2602 C 0.93098 0.09275 0.35944 0.0
C2603 C 0.91999 0.12001 0.36776 0.0
H2604 H 0.96476 0.06976 0.33692 0.0
C2605 C 0.93269 0.14511 0.35581 0.0
H2606 H 0.9218 0.07298 0.36816 0.0
C2607 C 0.95753 0.14316 0.3387 0.0
C2608 C 0.96971 0.11613 0.33249 0.0
H2609 H 0.92496 0.1665 0.36156 0.0
H2610 H 0.96802 0.16287 0.33143 0.0
C2611 C 0.95566 0.09085 0.34179 0.0
C2612 C 0.38162 0.82602 0.90376 0.0
C2613 C 0.36036 0.82893 0.88212 0.0
H2614 H 0.39962 0.79889 0.93696 0.0
C2615 C 0.33818 0.80804 0.88037 0.0
H2616 H 0.39899 0.84171 0.90562 0.0
C2617 C 0.33911 0.78321 0.89765 0.0
C2618 C 0.36179 0.77925 0.91743 0.0
H2619 H 0.32154 0.80948 0.86387 0.0
H2620 H 0.32293 0.76647 0.89459 0.0
C2621 C 0.38212 0.80147 0.92152 0.0
C2622 C 0.0601 0.351 0.36057 0.0
C2623 C 0.07553 0.37615 0.36847 0.0
H2624 H 0.02189 0.33346 0.3409 0.0
C2625 C 0.0658 0.40313 0.35804 0.0
H2626 H 0.06673 0.32982 0.36815 0.0
C2627 C 0.0401 0.405 0.34192 0.0
C2628 C 0.02354 0.38004 0.33667 0.0
H2629 H 0.07707 0.42292 0.36373 0.0
H2630 H 0.03233 0.42605 0.33501 0.0
C2631 C 0.03416 0.353 0.34525 0.0
C2632 C 0.65662 0.31069 0.61142 0.0
C2633 C 0.63177 0.32839 0.6133 0.0
H2634 H 0.6748 0.271 0.59527 0.0
C2635 C 0.60779 0.32187 0.59561 0.0
H2636 H 0.67552 0.31496 0.62467 0.0
C2637 C 0.60762 0.29674 0.57868 0.0
C2638 C 0.63126 0.2777 0.57942 0.0
H2639 H 0.58834 0.33499 0.59648 0.0
H2640 H 0.58832 0.29125 0.56649 0.0
C2641 C 0.65619 0.28533 0.5949 0.0
C2642 C 0.55964 0.09242 0.63074 0.0
C2643 C 0.57925 0.11584 0.63077 0.0
H2644 H 0.51933 0.07557 0.64675 0.0
C2645 C 0.57538 0.13813 0.65122 0.0
H2646 H 0.56184 0.07489 0.61528 0.0
C2647 C 0.55106 0.13827 0.66936 0.0
C2648 C 0.53001 0.11646 0.66694 0.0
H2649 H 0.59006 0.15644 0.65184 0.0
H2650 H 0.5477 0.15646 0.68383 0.0
C2651 C 0.53507 0.09291 0.64846 0.0
C2652 C 0.3457 0.17836 0.6065 0.0
C2653 C 0.37292 0.16845 0.61616 0.0
H2654 H 0.3225 0.21154 0.58337 0.0
C2655 C 0.39805 0.1825 0.60594 0.0
H2656 H 0.32591 0.16809 0.61386 0.0
C2657 C 0.39595 0.20769 0.58942 0.0
C2658 C 0.36877 0.21882 0.58198 0.0
H2659 H 0.41942 0.1756 0.61274 0.0
H2660 H 0.41555 0.21921 0.58351 0.0
C2661 C 0.34368 0.20332 0.58931 0.0
C2662 C 0.45854 0.40633 0.65485 0.0
C2663 C 0.47226 0.38083 0.66401 0.0
H2664 H 0.42419 0.42472 0.62958 0.0
C2665 C 0.4592 0.35403 0.65867 0.0
H2666 H 0.46829 0.42725 0.65917 0.0
C2667 C 0.4337 0.35249 0.64253 0.0
C2668 C 0.42121 0.37775 0.63074 0.0
H2669 H 0.4694 0.33417 0.66596 0.0
H2670 H 0.42516 0.33124 0.63745 0.0
C2671 C 0.43319 0.40483 0.63821 0.0
C2672 C 0.89382 0.60338 0.67968 0.0
C2673 C 0.88142 0.62865 0.6678 0.0
H2674 H 0.91821 0.58484 0.71465 0.0
C2675 C 0.88861 0.65562 0.68019 0.0
H2676 H 0.88893 0.5822 0.67083 0.0
C2677 C 0.90569 0.65697 0.70527 0.0
C2678 C 0.9156 0.63141 0.71836 0.0
H2679 H 0.8795 0.67552 0.6717 0.0
H2680 H 0.90978 0.67779 0.71533 0.0
C2681 C 0.91042 0.60475 0.70492 0.0
C2682 C 0.85636 0.84869 0.57651 0.0
C2683 C 0.87974 0.86786 0.57998 0.0
H2684 H 0.83611 0.81682 0.54958 0.0
C2685 C 0.90296 0.86655 0.56021 0.0
H2686 H 0.83821 0.84915 0.59141 0.0
C2687 C 0.90143 0.84852 0.53591 0.0
C2688 C 0.87688 0.83122 0.53123 0.0
H2689 H 0.92128 0.8811 0.56219 0.0
H2690 H 0.91898 0.84889 0.52033 0.0
C2691 C 0.8551 0.83031 0.55249 0.0
C2692 C 0.10607 0.84379 0.67932 0.0
C2693 C 0.11455 0.87083 0.66793 0.0
H2694 H 0.08383 0.8214 0.71367 0.0
C2695 C 0.10336 0.89622 0.68072 0.0
H2696 H 0.11424 0.82382 0.67009 0.0
C2697 C 0.08677 0.89473 0.70596 0.0
C2698 C 0.08032 0.86788 0.71843 0.0
H2699 H 0.10928 0.91745 0.67267 0.0
H2700 H 0.08 0.91463 0.71645 0.0
C2701 C 0.0889 0.84235 0.70436 0.0
C2702 C 0.14054 0.66905 0.55177 0.0
C2703 C 0.11857 0.66796 0.53079 0.0
H2704 H 0.15775 0.65057 0.59068 0.0
C2705 C 0.0938 0.65119 0.53614 0.0
H2706 H 0.15962 0.68231 0.54835 0.0
C2707 C 0.0924 0.63341 0.56065 0.0
C2708 C 0.11596 0.63187 0.58001 0.0
H2709 H 0.07599 0.651 0.52087 0.0
H2710 H 0.07392 0.61912 0.563 0.0
C2711 C 0.13935 0.65104 0.57611 0.0
C2712 C 0.90557 0.34036 0.79059 0.0
C2713 C 0.91504 0.36574 0.77685 0.0
H2714 H 0.87946 0.3223 0.82449 0.0
C2715 C 0.90954 0.39265 0.78965 0.0
H2716 H 0.90993 0.31937 0.78102 0.0
C2717 C 0.89288 0.39441 0.81481 0.0
C2718 C 0.88067 0.36928 0.82716 0.0
H2719 H 0.91703 0.41242 0.77941 0.0
H2720 H 0.88764 0.41574 0.82308 0.0
C2721 C 0.88838 0.3421 0.81557 0.0
C2722 C 0.59208 0.85408 0.42888 0.0
C2723 C 0.6193 0.86366 0.4189 0.0
H2724 H 0.56891 0.83075 0.46197 0.0
C2725 C 0.64445 0.85344 0.43288 0.0
H2726 H 0.57229 0.8615 0.41866 0.0
C2727 C 0.64237 0.83669 0.45793 0.0
C2728 C 0.61521 0.8291 0.469 0.0
H2729 H 0.66581 0.86024 0.42595 0.0
H2730 H 0.66199 0.83071 0.46938 0.0
C2731 C 0.59008 0.8367 0.45372 0.0
C2732 C 0.10958 0.15595 0.81753 0.0
C2733 C 0.11787 0.12845 0.82792 0.0
H2734 H 0.08794 0.17975 0.78379 0.0
C2735 C 0.10666 0.10362 0.81413 0.0
H2736 H 0.11774 0.17552 0.8276 0.0
C2737 C 0.09044 0.10616 0.78876 0.0
C2738 C 0.08437 0.13351 0.77718 0.0
H2739 H 0.11238 0.08208 0.82144 0.0
H2740 H 0.08371 0.08671 0.77745 0.0
C2741 C 0.09277 0.15843 0.79237 0.0
C2742 C 0.40798 0.63081 0.44079 0.0
C2743 C 0.38607 0.6328 0.41963 0.0
H2744 H 0.42273 0.64458 0.48266 0.0
C2745 C 0.36482 0.65445 0.42245 0.0
H2746 H 0.42462 0.6143 0.43941 0.0
C2747 C 0.36406 0.67201 0.44714 0.0
C2748 C 0.3841 0.66767 0.4696 0.0
H2749 H 0.34766 0.6565 0.40655 0.0
H2750 H 0.34656 0.68747 0.44964 0.0
C2751 C 0.40677 0.64785 0.46575 0.0
C2752 C 0.70383 0.90692 0.65321 0.0
C2753 C 0.71891 0.91376 0.62771 0.0
H2754 H 0.66872 0.88293 0.67208 0.0
C2755 C 0.70776 0.90516 0.60092 0.0
H2756 H 0.71207 0.91383 0.67408 0.0
C2757 C 0.68267 0.88844 0.5996 0.0
C2758 C 0.66864 0.87925 0.62517 0.0
H2759 H 0.71903 0.91059 0.58102 0.0
H2760 H 0.67561 0.88098 0.57851 0.0
C2761 C 0.67892 0.88956 0.652 0.0
C2762 C 0.67852 0.10508 0.84996 0.0
C2763 C 0.67115 0.11944 0.87589 0.0
H2764 H 0.70894 0.07699 0.82843 0.0
C2765 C 0.6878 0.114 0.9009 0.0
H2766 H 0.66627 0.10884 0.83029 0.0
C2767 C 0.71243 0.09661 0.89951 0.0
C2768 C 0.72055 0.08365 0.87335 0.0
H2769 H 0.68299 0.12467 0.92125 0.0
H2770 H 0.72567 0.09395 0.91873 0.0
C2771 C 0.70297 0.08706 0.84879 0.0
C2772 C 0.35935 0.06537 0.40508 0.0
C2773 C 0.36592 0.07791 0.37801 0.0
H2774 H 0.33917 0.0298 0.42742 0.0
C2775 C 0.35273 0.06644 0.35296 0.0
H2776 H 0.369 0.07361 0.42482 0.0
C2777 C 0.33631 0.04112 0.35452 0.0
C2778 C 0.33218 0.02728 0.38117 0.0
H2779 H 0.35707 0.07553 0.33175 0.0
H2780 H 0.32804 0.03154 0.33474 0.0
C2781 C 0.34255 0.04017 0.40662 0.0
C2782 C 0.31857 0.39302 0.84344 0.0
C2783 C 0.32883 0.38299 0.8704 0.0
H2784 H 0.285 0.41625 0.82093 0.0
C2785 C 0.31498 0.39271 0.89584 0.0
H2786 H 0.32868 0.38604 0.82342 0.0
C2787 C 0.28965 0.40913 0.89425 0.0
C2788 C 0.27818 0.41691 0.8673 0.0
H2789 H 0.32219 0.38566 0.91701 0.0
H2790 H 0.27831 0.41468 0.91406 0.0
C2791 C 0.29348 0.41006 0.84194 0.0
C2792 C 0.15852 0.95482 0.90467 0.0
C2793 C 0.16655 0.96954 0.87933 0.0
H2794 H 0.13335 0.92027 0.92288 0.0
C2795 C 0.15937 0.95788 0.8523 0.0
H2796 H 0.1642 0.96349 0.92575 0.0
C2797 C 0.14259 0.93283 0.85053 0.0
C2798 C 0.13189 0.91945 0.87583 0.0
H2799 H 0.16575 0.96885 0.83253 0.0
H2800 H 0.13613 0.92542 0.82923 0.0
C2801 C 0.14112 0.92999 0.90297 0.0
C2802 C 0.79144 0.08643 0.10666 0.0
C2803 C 0.77898 0.08056 0.13367 0.0
H2804 H 0.82461 0.10854 0.08344 0.0
C2805 C 0.79316 0.08947 0.15901 0.0
H2806 H 0.78088 0.07936 0.08691 0.0
C2807 C 0.81818 0.10658 0.1572 0.0
C2808 C 0.82938 0.11473 0.12996 0.0
H2809 H 0.78388 0.0848 0.18008 0.0
H2810 H 0.82743 0.11512 0.17701 0.0
C2811 C 0.81664 0.10297 0.10481 0.0
C2812 C 0.34176 0.95871 0.09369 0.0
C2813 C 0.33116 0.97111 0.1193 0.0
H2814 H 0.36884 0.926 0.075 0.0
C2815 C 0.33585 0.95717 0.1458 0.0
H2816 H 0.33801 0.96917 0.07299 0.0
C2817 C 0.35292 0.93222 0.14704 0.0
C2818 C 0.36614 0.9212 0.1218 0.0
H2819 H 0.32748 0.96637 0.16573 0.0
H2820 H 0.3576 0.92304 0.16814 0.0
C2821 C 0.35914 0.93388 0.09489 0.0
C2822 C 0.65583 0.54301 0.09197 0.0
C2823 C 0.66258 0.52694 0.11687 0.0
H2824 H 0.63207 0.57896 0.0745 0.0
C2825 C 0.65458 0.53751 0.14413 0.0
H2826 H 0.66219 0.53523 0.07074 0.0
C2827 C 0.6383 0.56286 0.14645 0.0
C2828 C 0.62893 0.57769 0.12144 0.0
H2829 H 0.66 0.52555 0.1636 0.0
H2830 H 0.6312 0.56942 0.16783 0.0
C2831 C 0.63885 0.56812 0.09419 0.0
loop_
_geom_bond_atom_site_label_1
_geom_bond_atom_site_label_2
_geom_bond_distance
_geom_bond_site_symmetry_2
_ccdc_geom_bond_type
Co0 O3 1.970 . S
Co0 N17 1.989 . S
Co0 O25 1.967 . S
Co0 O32 1.920 . S
Co1 O4 1.966 . S
Co1 N10 2.022 . S
Co1 N18 1.993 . S
Co1 O26 1.941 . S
C2 O3 1.258 . S
C2 O4 1.263 . S
O3 Co0 1.970 . S
O3 C2 1.258 . S
O4 Co1 1.966 . S
O4 C2 1.263 . S
C5 O6 1.235 . S
C5 O32 1.289 . S
O6 C5 1.235 . S
C7 C9 1.400 . S
C7 N10 1.351 . S
C7 C12 1.501 . S
C8 C9 1.387 . S
C8 N11 1.341 . S
C9 C7 1.400 . S
C9 C8 1.387 . S
N10 Co1 2.022 . S
N10 C7 1.351 . S
N10 N11 1.365 . S
N11 C8 1.341 . S
N11 N10 1.365 . S
N11 H31 0.862 . S
C12 C7 1.501 . S
C12 H13 0.961 . S
C12 H14 0.961 . S
C12 H15 0.960 . S
H13 C12 0.961 . S
H14 C12 0.961 . S
H15 C12 0.960 . S
C16 N17 1.342 . S
C16 C20 1.401 . S
C16 C21 1.499 . S
N17 Co0 1.989 . S
N17 C16 1.342 . S
N17 N18 1.388 . S
N18 Co1 1.993 . S
N18 N17 1.388 . S
N18 C19 1.346 . S
C19 N18 1.346 . S
C19 C20 1.396 . S
C19 C29 1.510 . S
C20 C16 1.401 . S
C20 C19 1.396 . S
C21 C16 1.499 . S
C21 H22 0.959 . S
C21 H23 0.960 . S
C21 H24 0.961 . S
H22 C21 0.959 . S
H23 C21 0.960 . S
H24 C21 0.961 . S
O25 Co0 1.967 . S
O25 C33 1.258 . S
O26 Co1 1.941 . S
O26 C33 1.266 . S
H27 C29 0.959 . S
H28 C29 0.961 . S
C29 C19 1.510 . S
C29 H27 0.959 . S
C29 H28 0.961 . S
C29 H30 0.960 . S
H30 C29 0.960 . S
H31 N11 0.862 . S
O32 Co0 1.920 . S
O32 C5 1.289 . S
C33 O25 1.258 . S
C33 O26 1.266 . S
Co34 O37 1.970 . S
Co34 N51 1.989 . S
Co34 O59 1.967 . S
Co34 O66 1.920 . S
Co35 O38 1.966 . S
Co35 N44 2.022 . S
Co35 N52 1.993 . S
Co35 O60 1.941 . S
C36 O37 1.258 . S
C36 O38 1.263 . S
O37 Co34 1.970 . S
O37 C36 1.258 . S
O38 Co35 1.966 . S
O38 C36 1.263 . S
C39 O40 1.235 . S
C39 O66 1.289 . S
O40 C39 1.235 . S
C41 C43 1.400 . S
C41 N44 1.351 . S
C41 C46 1.501 . S
C42 C43 1.387 . S
C42 N45 1.341 . S
C43 C41 1.400 . S
C43 C42 1.387 . S
N44 Co35 2.022 . S
N44 C41 1.351 . S
N44 N45 1.365 . S
N45 C42 1.341 . S
N45 N44 1.365 . S
N45 H65 0.862 . S
C46 C41 1.501 . S
C46 H47 0.961 . S
C46 H48 0.961 . S
C46 H49 0.960 . S
H47 C46 0.961 . S
H48 C46 0.961 . S
H49 C46 0.960 . S
C50 N51 1.342 . S
C50 C54 1.401 . S
C50 C55 1.499 . S
N51 Co34 1.989 . S
N51 C50 1.342 . S
N51 N52 1.388 . S
N52 Co35 1.993 . S
N52 N51 1.388 . S
N52 C53 1.346 . S
C53 N52 1.346 . S
C53 C54 1.396 . S
C53 C63 1.510 . S
C54 C50 1.401 . S
C54 C53 1.396 . S
C55 C50 1.499 . S
C55 H56 0.959 . S
C55 H57 0.960 . S
C55 H58 0.961 1_556 S
H56 C55 0.959 . S
H57 C55 0.960 . S
H58 C55 0.961 1_554 S
O59 Co34 1.967 . S
O59 C67 1.258 . S
O60 Co35 1.941 . S
O60 C67 1.266 . S
H61 C63 0.959 . S
H62 C63 0.961 . S
C63 C53 1.510 . S
C63 H61 0.959 . S
C63 H62 0.961 . S
C63 H64 0.960 . S
H64 C63 0.960 . S
H65 N45 0.862 . S
O66 Co34 1.920 . S
O66 C39 1.289 . S
C67 O59 1.258 . S
C67 O60 1.266 . S
Co68 O71 1.970 . S
Co68 N85 1.989 . S
Co68 O93 1.967 . S
Co68 O100 1.920 . S
Co69 O72 1.966 . S
Co69 N78 2.022 . S
Co69 N86 1.993 . S
Co69 O94 1.941 . S
C70 O71 1.258 . S
C70 O72 1.263 . S
O71 Co68 1.970 . S
O71 C70 1.258 . S
O72 Co69 1.966 . S
O72 C70 1.263 . S
C73 O74 1.235 . S
C73 O100 1.289 . S
O74 C73 1.235 . S
C75 C77 1.400 . S
C75 N78 1.351 . S
C75 C80 1.501 . S
C76 C77 1.387 . S
C76 N79 1.341 . S
C77 C75 1.400 . S
C77 C76 1.387 . S
N78 Co69 2.022 . S
N78 C75 1.351 . S
N78 N79 1.365 . S
N79 C76 1.341 . S
N79 N78 1.365 . S
N79 H99 0.862 . S
C80 C75 1.501 . S
C80 H81 0.961 . S
C80 H82 0.961 . S
C80 H83 0.960 . S
H81 C80 0.961 . S
H82 C80 0.961 . S
H83 C80 0.960 . S
C84 N85 1.342 . S
C84 C88 1.401 . S
C84 C89 1.499 . S
N85 Co68 1.989 . S
N85 C84 1.342 . S
N85 N86 1.388 . S
N86 Co69 1.993 . S
N86 N85 1.388 . S
N86 C87 1.346 . S
C87 N86 1.346 . S
C87 C88 1.396 . S
C87 C97 1.510 . S
C88 C84 1.401 . S
C88 C87 1.396 . S
C89 C84 1.499 . S
C89 H90 0.959 . S
C89 H91 0.960 . S
C89 H92 0.961 . S
H90 C89 0.959 . S
H91 C89 0.960 . S
H92 C89 0.961 . S
O93 Co68 1.967 . S
O93 C101 1.258 . S
O94 Co69 1.941 . S
O94 C101 1.266 . S
H95 C97 0.959 . S
H96 C97 0.961 . S
C97 C87 1.510 . S
C97 H95 0.959 . S
C97 H96 0.961 . S
C97 H98 0.960 . S
H98 C97 0.960 . S
H99 N79 0.862 . S
O100 Co68 1.920 . S
O100 C73 1.289 . S
C101 O93 1.258 . S
C101 O94 1.266 . S
Co102 O105 1.970 . S
Co102 N119 1.989 . S
Co102 O127 1.967 . S
Co102 O134 1.920 . S
Co103 O106 1.966 . S
Co103 N112 2.022 . S
Co103 N120 1.993 . S
Co103 O128 1.941 . S
C104 O105 1.258 . S
C104 O106 1.263 . S
O105 Co102 1.970 . S
O105 C104 1.258 . S
O106 Co103 1.966 . S
O106 C104 1.263 . S
C107 O108 1.235 . S
C107 O134 1.289 . S
O108 C107 1.235 . S
C109 C111 1.400 . S
C109 N112 1.351 . S
C109 C114 1.501 . S
C110 C111 1.387 . S
C110 N113 1.341 . S
C111 C109 1.400 . S
C111 C110 1.387 . S
N112 Co103 2.022 . S
N112 C109 1.351 . S
N112 N113 1.365 . S
N113 C110 1.341 . S
N113 N112 1.365 . S
N113 H133 0.862 . S
C114 C109 1.501 . S
C114 H115 0.961 . S
C114 H116 0.961 . S
C114 H117 0.960 . S
H115 C114 0.961 . S
H116 C114 0.961 . S
H117 C114 0.960 . S
C118 N119 1.342 . S
C118 C122 1.401 . S
C118 C123 1.499 . S
N119 Co102 1.989 . S
N119 C118 1.342 . S
N119 N120 1.388 . S
N120 Co103 1.993 . S
N120 N119 1.388 . S
N120 C121 1.346 . S
C121 N120 1.346 . S
C121 C122 1.396 . S
C121 C131 1.510 . S
C122 C118 1.401 . S
C122 C121 1.396 . S
C123 C118 1.499 . S
C123 H124 0.959 . S
C123 H125 0.960 . S
C123 H126 0.961 1_556 S
H124 C123 0.959 . S
H125 C123 0.960 . S
H126 C123 0.961 1_554 S
O127 Co102 1.967 . S
O127 C135 1.258 . S
O128 Co103 1.941 . S
O128 C135 1.266 . S
H129 C131 0.959 . S
H130 C131 0.961 . S
C131 C121 1.510 . S
C131 H129 0.959 . S
C131 H130 0.961 . S
C131 H132 0.960 . S
H132 C131 0.960 . S
H133 N113 0.862 . S
O134 Co102 1.920 . S
O134 C107 1.289 . S
C135 O127 1.258 . S
C135 O128 1.266 . S
Co136 O139 1.970 . S
Co136 N153 1.989 . S
Co136 O161 1.967 . S
Co136 O168 1.920 . S
Co137 O140 1.966 . S
Co137 N146 2.022 . S
Co137 N154 1.993 . S
Co137 O162 1.941 . S
C138 O139 1.258 . S
C138 O140 1.263 . S
O139 Co136 1.970 . S
O139 C138 1.258 . S
O140 Co137 1.966 . S
O140 C138 1.263 . S
C141 O142 1.235 . S
C141 O168 1.289 . S
O142 C141 1.235 . S
C143 C145 1.400 . S
C143 N146 1.351 . S
C143 C148 1.501 . S
C144 C145 1.387 . S
C144 N147 1.341 . S
C145 C143 1.400 . S
C145 C144 1.387 . S
N146 Co137 2.022 . S
N146 C143 1.351 . S
N146 N147 1.365 . S
N147 C144 1.341 . S
N147 N146 1.365 . S
N147 H167 0.862 . S
C148 C143 1.501 . S
C148 H149 0.961 . S
C148 H150 0.961 . S
C148 H151 0.960 . S
H149 C148 0.961 . S
H150 C148 0.961 . S
H151 C148 0.960 . S
C152 N153 1.342 . S
C152 C156 1.401 . S
C152 C157 1.499 . S
N153 Co136 1.989 . S
N153 C152 1.342 . S
N153 N154 1.388 . S
N154 Co137 1.993 . S
N154 N153 1.388 . S
N154 C155 1.346 . S
C155 N154 1.346 . S
C155 C156 1.396 . S
C155 C165 1.510 . S
C156 C152 1.401 . S
C156 C155 1.396 . S
C157 C152 1.499 . S
C157 H158 0.959 . S
C157 H159 0.960 . S
C157 H160 0.961 . S
H158 C157 0.959 . S
H159 C157 0.960 . S
H160 C157 0.961 . S
O161 Co136 1.967 . S
O161 C169 1.258 . S
O162 Co137 1.941 . S
O162 C169 1.266 . S
H163 C165 0.959 . S
H164 C165 0.961 . S
C165 C155 1.510 . S
C165 H163 0.959 . S
C165 H164 0.961 . S
C165 H166 0.960 . S
H166 C165 0.960 . S
H167 N147 0.862 . S
O168 Co136 1.920 . S
O168 C141 1.289 . S
C169 O161 1.258 . S
C169 O162 1.266 . S
Co170 O173 1.970 . S
Co170 N187 1.989 . S
Co170 O195 1.967 . S
Co170 O202 1.920 . S
Co171 O174 1.966 . S
Co171 N180 2.022 . S
Co171 N188 1.993 . S
Co171 O196 1.941 . S
C172 O173 1.258 . S
C172 O174 1.263 . S
O173 Co170 1.970 . S
O173 C172 1.258 . S
O174 Co171 1.966 . S
O174 C172 1.263 . S
C175 O176 1.235 . S
C175 O202 1.289 . S
O176 C175 1.235 . S
C177 C179 1.400 . S
C177 N180 1.351 . S
C177 C182 1.501 . S
C178 C179 1.387 . S
C178 N181 1.341 . S
C179 C177 1.400 . S
C179 C178 1.387 . S
N180 Co171 2.022 . S
N180 C177 1.351 . S
N180 N181 1.365 . S
N181 C178 1.341 . S
N181 N180 1.365 . S
N181 H201 0.862 . S
C182 C177 1.501 . S
C182 H183 0.961 . S
C182 H184 0.961 . S
C182 H185 0.960 . S
H183 C182 0.961 . S
H184 C182 0.961 . S
H185 C182 0.960 . S
C186 N187 1.342 . S
C186 C190 1.401 . S
C186 C191 1.499 . S
N187 Co170 1.989 . S
N187 C186 1.342 . S
N187 N188 1.388 . S
N188 Co171 1.993 . S
N188 N187 1.388 . S
N188 C189 1.346 . S
C189 N188 1.346 . S
C189 C190 1.396 . S
C189 C199 1.510 . S
C190 C186 1.401 . S
C190 C189 1.396 . S
C191 C186 1.499 . S
C191 H192 0.959 . S
C191 H193 0.960 . S
C191 H194 0.961 1_554 S
H192 C191 0.959 . S
H193 C191 0.960 . S
H194 C191 0.961 1_556 S
O195 Co170 1.967 . S
O195 C203 1.258 . S
O196 Co171 1.941 . S
O196 C203 1.266 . S
H197 C199 0.959 . S
H198 C199 0.961 . S
C199 C189 1.510 . S
C199 H197 0.959 . S
C199 H198 0.961 . S
C199 H200 0.960 . S
H200 C199 0.960 . S
H201 N181 0.862 . S
O202 Co170 1.920 . S
O202 C175 1.289 . S
C203 O195 1.258 . S
C203 O196 1.266 . S
Co204 O207 1.970 . S
Co204 N221 1.989 . S
Co204 O229 1.967 . S
Co204 O236 1.920 . S
Co205 O208 1.966 . S
Co205 N214 2.022 . S
Co205 N222 1.993 . S
Co205 O230 1.941 . S
C206 O207 1.258 . S
C206 O208 1.263 . S
O207 Co204 1.970 . S
O207 C206 1.258 . S
O208 Co205 1.966 . S
O208 C206 1.263 . S
C209 O210 1.235 . S
C209 O236 1.289 . S
O210 C209 1.235 . S
C211 C213 1.400 . S
C211 N214 1.351 . S
C211 C216 1.501 . S
C212 C213 1.387 . S
C212 N215 1.341 . S
C213 C211 1.400 . S
C213 C212 1.387 . S
N214 Co205 2.022 . S
N214 C211 1.351 . S
N214 N215 1.365 . S
N215 C212 1.341 . S
N215 N214 1.365 . S
N215 H235 0.862 . S
C216 C211 1.501 . S
C216 H217 0.961 . S
C216 H218 0.961 . S
C216 H219 0.960 . S
H217 C216 0.961 . S
H218 C216 0.961 . S
H219 C216 0.960 . S
C220 N221 1.342 . S
C220 C224 1.401 . S
C220 C225 1.499 . S
N221 Co204 1.989 . S
N221 C220 1.342 . S
N221 N222 1.388 . S
N222 Co205 1.993 . S
N222 N221 1.388 . S
N222 C223 1.346 . S
C223 N222 1.346 . S
C223 C224 1.396 . S
C223 C233 1.510 . S
C224 C220 1.401 . S
C224 C223 1.396 . S
C225 C220 1.499 . S
C225 H226 0.959 . S
C225 H227 0.960 . S
C225 H228 0.961 . S
H226 C225 0.959 . S
H227 C225 0.960 . S
H228 C225 0.961 . S
O229 Co204 1.967 . S
O229 C237 1.258 . S
O230 Co205 1.941 . S
O230 C237 1.266 . S
H231 C233 0.959 . S
H232 C233 0.961 . S
C233 C223 1.510 . S
C233 H231 0.959 . S
C233 H232 0.961 . S
C233 H234 0.960 . S
H234 C233 0.960 . S
H235 N215 0.862 . S
O236 Co204 1.920 . S
O236 C209 1.289 . S
C237 O229 1.258 . S
C237 O230 1.266 . S
Co238 O241 1.970 . S
Co238 N255 1.989 . S
Co238 O263 1.967 . S
Co238 O270 1.920 . S
Co239 O242 1.966 . S
Co239 N248 2.022 . S
Co239 N256 1.993 . S
Co239 O264 1.941 . S
C240 O241 1.258 . S
C240 O242 1.263 . S
O241 Co238 1.970 . S
O241 C240 1.258 . S
O242 Co239 1.966 . S
O242 C240 1.263 . S
C243 O244 1.235 . S
C243 O270 1.289 . S
O244 C243 1.235 . S
C245 C247 1.400 . S
C245 N248 1.351 . S
C245 C250 1.501 . S
C246 C247 1.387 . S
C246 N249 1.341 . S
C247 C245 1.400 . S
C247 C246 1.387 . S
N248 Co239 2.022 . S
N248 C245 1.351 . S
N248 N249 1.365 . S
N249 C246 1.341 . S
N249 N248 1.365 . S
N249 H269 0.862 . S
C250 C245 1.501 . S
C250 H251 0.961 . S
C250 H252 0.961 . S
C250 H253 0.960 . S
H251 C250 0.961 . S
H252 C250 0.961 . S
H253 C250 0.960 . S
C254 N255 1.342 . S
C254 C258 1.401 . S
C254 C259 1.499 . S
N255 Co238 1.989 . S
N255 C254 1.342 . S
N255 N256 1.388 . S
N256 Co239 1.993 . S
N256 N255 1.388 . S
N256 C257 1.346 . S
C257 N256 1.346 . S
C257 C258 1.396 . S
C257 C267 1.510 . S
C258 C254 1.401 . S
C258 C257 1.396 . S
C259 C254 1.499 . S
C259 H260 0.959 . S
C259 H261 0.960 . S
C259 H262 0.961 1_554 S
H260 C259 0.959 . S
H261 C259 0.960 . S
H262 C259 0.961 1_556 S
O263 Co238 1.967 . S
O263 C271 1.258 . S
O264 Co239 1.941 . S
O264 C271 1.266 . S
H265 C267 0.959 . S
H266 C267 0.961 . S
C267 C257 1.510 . S
C267 H265 0.959 . S
C267 H266 0.961 . S
C267 H268 0.960 . S
H268 C267 0.960 . S
H269 N249 0.862 . S
O270 Co238 1.920 . S
O270 C243 1.289 . S
C271 O263 1.258 . S
C271 O264 1.266 . S
Co272 O275 1.970 . S
Co272 N289 1.989 . S
Co272 O297 1.967 . S
Co272 O304 1.920 . S
Co273 O276 1.966 . S
Co273 N282 2.022 . S
Co273 N290 1.993 . S
Co273 O298 1.941 . S
C274 O275 1.258 . S
C274 O276 1.263 . S
O275 Co272 1.970 . S
O275 C274 1.258 . S
O276 Co273 1.966 . S
O276 C274 1.263 . S
C277 O278 1.235 . S
C277 O304 1.289 . S
O278 C277 1.235 . S
C279 C281 1.400 . S
C279 N282 1.351 . S
C279 C284 1.501 . S
C280 C281 1.387 . S
C280 N283 1.341 . S
C281 C279 1.400 . S
C281 C280 1.387 . S
N282 Co273 2.022 . S
N282 C279 1.351 . S
N282 N283 1.365 . S
N283 C280 1.341 . S
N283 N282 1.365 . S
N283 H303 0.862 . S
C284 C279 1.501 . S
C284 H285 0.961 . S
C284 H286 0.961 . S
C284 H287 0.960 . S
H285 C284 0.961 . S
H286 C284 0.961 . S
H287 C284 0.960 . S
C288 N289 1.342 . S
C288 C292 1.401 . S
C288 C293 1.499 . S
N289 Co272 1.989 . S
N289 C288 1.342 . S
N289 N290 1.388 . S
N290 Co273 1.993 . S
N290 N289 1.388 . S
N290 C291 1.346 . S
C291 N290 1.346 . S
C291 C292 1.396 . S
C291 C301 1.510 . S
C292 C288 1.401 . S
C292 C291 1.396 . S
C293 C288 1.499 . S
C293 H294 0.959 . S
C293 H295 0.960 . S
C293 H296 0.961 . S
H294 C293 0.959 . S
H295 C293 0.960 . S
H296 C293 0.961 . S
O297 Co272 1.967 . S
O297 C305 1.258 . S
O298 Co273 1.941 . S
O298 C305 1.266 . S
H299 C301 0.959 . S
H300 C301 0.961 . S
C301 C291 1.510 . S
C301 H299 0.959 . S
C301 H300 0.961 . S
C301 H302 0.960 . S
H302 C301 0.960 . S
H303 N283 0.862 . S
O304 Co272 1.920 . S
O304 C277 1.289 . S
C305 O297 1.258 . S
C305 O298 1.266 . S
Co306 O309 1.970 . S
Co306 N323 1.989 . S
Co306 O331 1.967 . S
Co306 O338 1.920 . S
Co307 O310 1.966 . S
Co307 N316 2.022 . S
Co307 N324 1.993 . S
Co307 O332 1.941 . S
C308 O309 1.258 . S
C308 O310 1.263 . S
O309 Co306 1.970 . S
O309 C308 1.258 . S
O310 Co307 1.966 . S
O310 C308 1.263 . S
C311 O312 1.235 . S
C311 O338 1.289 . S
O312 C311 1.235 . S
C313 C315 1.400 . S
C313 N316 1.351 . S
C313 C318 1.501 . S
C314 C315 1.387 . S
C314 N317 1.341 . S
C315 C313 1.400 . S
C315 C314 1.387 . S
N316 Co307 2.022 . S
N316 C313 1.351 . S
N316 N317 1.365 . S
N317 C314 1.341 . S
N317 N316 1.365 . S
N317 H337 0.862 . S
C318 C313 1.501 . S
C318 H319 0.961 . S
C318 H320 0.961 . S
C318 H321 0.960 . S
H319 C318 0.961 . S
H320 C318 0.961 . S
H321 C318 0.960 . S
C322 N323 1.342 . S
C322 C326 1.401 . S
C322 C327 1.499 . S
N323 Co306 1.989 . S
N323 C322 1.342 . S
N323 N324 1.388 . S
N324 Co307 1.993 . S
N324 N323 1.388 . S
N324 C325 1.346 . S
C325 N324 1.346 . S
C325 C326 1.396 . S
C325 C335 1.510 . S
C326 C322 1.401 . S
C326 C325 1.396 . S
C327 C322 1.499 . S
C327 H328 0.959 . S
C327 H329 0.960 . S
C327 H330 0.961 . S
H328 C327 0.959 . S
H329 C327 0.960 . S
H330 C327 0.961 . S
O331 Co306 1.967 . S
O331 C339 1.258 . S
O332 Co307 1.941 . S
O332 C339 1.266 . S
H333 C335 0.959 . S
H334 C335 0.961 . S
C335 C325 1.510 . S
C335 H333 0.959 . S
C335 H334 0.961 . S
C335 H336 0.960 . S
H336 C335 0.960 . S
H337 N317 0.862 . S
O338 Co306 1.920 . S
O338 C311 1.289 . S
C339 O331 1.258 . S
C339 O332 1.266 . S
Co340 O343 1.970 . S
Co340 N357 1.989 . S
Co340 O365 1.967 . S
Co340 O372 1.920 . S
Co341 O344 1.966 . S
Co341 N350 2.022 . S
Co341 N358 1.993 . S
Co341 O366 1.941 . S
C342 O343 1.258 . S
C342 O344 1.263 . S
O343 Co340 1.970 . S
O343 C342 1.258 . S
O344 Co341 1.966 . S
O344 C342 1.263 . S
C345 O346 1.235 . S
C345 O372 1.289 . S
O346 C345 1.235 . S
C347 C349 1.400 . S
C347 N350 1.351 . S
C347 C352 1.501 . S
C348 C349 1.387 . S
C348 N351 1.341 . S
C349 C347 1.400 . S
C349 C348 1.387 . S
N350 Co341 2.022 . S
N350 C347 1.351 . S
N350 N351 1.365 . S
N351 C348 1.341 . S
N351 N350 1.365 . S
N351 H371 0.862 . S
C352 C347 1.501 . S
C352 H353 0.961 . S
C352 H354 0.961 . S
C352 H355 0.960 . S
H353 C352 0.961 . S
H354 C352 0.961 . S
H355 C352 0.960 . S
C356 N357 1.342 . S
C356 C360 1.401 . S
C356 C361 1.499 . S
N357 Co340 1.989 . S
N357 C356 1.342 . S
N357 N358 1.388 . S
N358 Co341 1.993 . S
N358 N357 1.388 . S
N358 C359 1.346 . S
C359 N358 1.346 . S
C359 C360 1.396 . S
C359 C369 1.510 . S
C360 C356 1.401 . S
C360 C359 1.396 . S
C361 C356 1.499 . S
C361 H362 0.959 . S
C361 H363 0.960 . S
C361 H364 0.961 . S
H362 C361 0.959 . S
H363 C361 0.960 . S
H364 C361 0.961 . S
O365 Co340 1.967 . S
O365 C373 1.258 . S
O366 Co341 1.941 . S
O366 C373 1.266 . S
H367 C369 0.959 . S
H368 C369 0.961 . S
C369 C359 1.510 . S
C369 H367 0.959 . S
C369 H368 0.961 . S
C369 H370 0.960 . S
H370 C369 0.960 . S
H371 N351 0.862 . S
O372 Co340 1.920 . S
O372 C345 1.289 . S
C373 O365 1.258 . S
C373 O366 1.266 . S
Co374 O377 1.970 . S
Co374 N391 1.989 . S
Co374 O399 1.967 . S
Co374 O406 1.920 . S
Co375 O378 1.966 . S
Co375 N384 2.022 . S
Co375 N392 1.993 . S
Co375 O400 1.941 . S
C376 O377 1.258 . S
C376 O378 1.263 . S
O377 Co374 1.970 . S
O377 C376 1.258 . S
O378 Co375 1.966 . S
O378 C376 1.263 . S
C379 O380 1.235 . S
C379 O406 1.289 . S
O380 C379 1.235 . S
C381 C383 1.400 . S
C381 N384 1.351 . S
C381 C386 1.501 . S
C382 C383 1.387 . S
C382 N385 1.341 . S
C383 C381 1.400 . S
C383 C382 1.387 . S
N384 Co375 2.022 . S
N384 C381 1.351 . S
N384 N385 1.365 . S
N385 C382 1.341 . S
N385 N384 1.365 . S
N385 H405 0.862 . S
C386 C381 1.501 . S
C386 H387 0.961 . S
C386 H388 0.961 . S
C386 H389 0.960 . S
H387 C386 0.961 . S
H388 C386 0.961 . S
H389 C386 0.960 . S
C390 N391 1.342 . S
C390 C394 1.401 . S
C390 C395 1.499 . S
N391 Co374 1.989 . S
N391 C390 1.342 . S
N391 N392 1.388 . S
N392 Co375 1.993 . S
N392 N391 1.388 . S
N392 C393 1.346 . S
C393 N392 1.346 . S
C393 C394 1.396 . S
C393 C403 1.510 . S
C394 C390 1.401 . S
C394 C393 1.396 . S
C395 C390 1.499 . S
C395 H396 0.959 . S
C395 H397 0.960 . S
C395 H398 0.961 1_545 S
H396 C395 0.959 . S
H397 C395 0.960 . S
H398 C395 0.961 1_565 S
O399 Co374 1.967 . S
O399 C407 1.258 . S
O400 Co375 1.941 . S
O400 C407 1.266 . S
H401 C403 0.959 . S
H402 C403 0.961 . S
C403 C393 1.510 . S
C403 H401 0.959 . S
C403 H402 0.961 . S
C403 H404 0.960 . S
H404 C403 0.960 . S
H405 N385 0.862 . S
O406 Co374 1.920 . S
O406 C379 1.289 . S
C407 O399 1.258 . S
C407 O400 1.266 . S
Co408 O411 1.970 . S
Co408 N425 1.989 . S
Co408 O433 1.967 . S
Co408 O440 1.920 . S
Co409 O412 1.966 . S
Co409 N418 2.022 . S
Co409 N426 1.993 . S
Co409 O434 1.941 . S
C410 O411 1.258 . S
C410 O412 1.263 . S
O411 Co408 1.970 . S
O411 C410 1.258 . S
O412 Co409 1.966 . S
O412 C410 1.263 . S
C413 O414 1.235 . S
C413 O440 1.289 . S
O414 C413 1.235 . S
C415 C417 1.400 . S
C415 N418 1.351 . S
C415 C420 1.501 . S
C416 C417 1.387 . S
C416 N419 1.341 . S
C417 C415 1.400 . S
C417 C416 1.387 . S
N418 Co409 2.022 . S
N418 C415 1.351 . S
N418 N419 1.365 . S
N419 C416 1.341 . S
N419 N418 1.365 . S
N419 H439 0.862 . S
C420 C415 1.501 . S
C420 H421 0.961 . S
C420 H422 0.961 . S
C420 H423 0.960 . S
H421 C420 0.961 . S
H422 C420 0.961 . S
H423 C420 0.960 . S
C424 N425 1.342 . S
C424 C428 1.401 . S
C424 C429 1.499 . S
N425 Co408 1.989 . S
N425 C424 1.342 . S
N425 N426 1.388 . S
N426 Co409 1.993 . S
N426 N425 1.388 . S
N426 C427 1.346 . S
C427 N426 1.346 . S
C427 C428 1.396 . S
C427 C437 1.510 . S
C428 C424 1.401 . S
C428 C427 1.396 . S
C429 C424 1.499 . S
C429 H430 0.959 . S
C429 H431 0.960 . S
C429 H432 0.961 . S
H430 C429 0.959 . S
H431 C429 0.960 . S
H432 C429 0.961 . S
O433 Co408 1.967 . S
O433 C441 1.258 . S
O434 Co409 1.941 . S
O434 C441 1.266 . S
H435 C437 0.959 . S
H436 C437 0.961 . S
C437 C427 1.510 . S
C437 H435 0.959 . S
C437 H436 0.961 . S
C437 H438 0.960 . S
H438 C437 0.960 . S
H439 N419 0.862 . S
O440 Co408 1.920 . S
O440 C413 1.289 . S
C441 O433 1.258 . S
C441 O434 1.266 . S
Co442 O445 1.970 . S
Co442 N459 1.989 . S
Co442 O467 1.967 . S
Co442 O474 1.920 . S
Co443 O446 1.966 . S
Co443 N452 2.022 . S
Co443 N460 1.993 . S
Co443 O468 1.941 . S
C444 O445 1.258 . S
C444 O446 1.263 . S
O445 Co442 1.970 . S
O445 C444 1.258 . S
O446 Co443 1.966 . S
O446 C444 1.263 . S
C447 O448 1.235 . S
C447 O474 1.289 . S
O448 C447 1.235 . S
C449 C451 1.400 . S
C449 N452 1.351 . S
C449 C454 1.501 . S
C450 C451 1.387 . S
C450 N453 1.341 . S
C451 C449 1.400 . S
C451 C450 1.387 . S
N452 Co443 2.022 . S
N452 C449 1.351 . S
N452 N453 1.365 . S
N453 C450 1.341 . S
N453 N452 1.365 . S
N453 H473 0.862 . S
C454 C449 1.501 . S
C454 H455 0.961 . S
C454 H456 0.961 . S
C454 H457 0.960 . S
H455 C454 0.961 . S
H456 C454 0.961 . S
H457 C454 0.960 . S
C458 N459 1.342 . S
C458 C462 1.401 . S
C458 C463 1.499 . S
N459 Co442 1.989 . S
N459 C458 1.342 . S
N459 N460 1.388 . S
N460 Co443 1.993 . S
N460 N459 1.388 . S
N460 C461 1.346 . S
C461 N460 1.346 . S
C461 C462 1.396 . S
C461 C471 1.510 . S
C462 C458 1.401 . S
C462 C461 1.396 . S
C463 C458 1.499 . S
C463 H464 0.959 . S
C463 H465 0.960 . S
C463 H466 0.961 . S
H464 C463 0.959 . S
H465 C463 0.960 . S
H466 C463 0.961 . S
O467 Co442 1.967 . S
O467 C475 1.258 . S
O468 Co443 1.941 . S
O468 C475 1.266 . S
H469 C471 0.959 . S
H470 C471 0.961 . S
C471 C461 1.510 . S
C471 H469 0.959 . S
C471 H470 0.961 . S
C471 H472 0.960 . S
H472 C471 0.960 . S
H473 N453 0.862 . S
O474 Co442 1.920 . S
O474 C447 1.289 . S
C475 O467 1.258 . S
C475 O468 1.266 . S
Co476 O479 1.970 . S
Co476 N493 1.989 . S
Co476 O501 1.967 . S
Co476 O508 1.920 . S
Co477 O480 1.966 . S
Co477 N486 2.022 . S
Co477 N494 1.993 . S
Co477 O502 1.941 . S
C478 O479 1.258 . S
C478 O480 1.263 . S
O479 Co476 1.970 . S
O479 C478 1.258 . S
O480 Co477 1.966 . S
O480 C478 1.263 . S
C481 O482 1.235 . S
C481 O508 1.289 . S
O482 C481 1.235 . S
C483 C485 1.400 . S
C483 N486 1.351 . S
C483 C488 1.501 . S
C484 C485 1.387 . S
C484 N487 1.341 . S
C485 C483 1.400 . S
C485 C484 1.387 . S
N486 Co477 2.022 . S
N486 C483 1.351 . S
N486 N487 1.365 . S
N487 C484 1.341 . S
N487 N486 1.365 . S
N487 H507 0.862 . S
C488 C483 1.501 . S
C488 H489 0.961 . S
C488 H490 0.961 . S
C488 H491 0.960 . S
H489 C488 0.961 . S
H490 C488 0.961 . S
H491 C488 0.960 . S
C492 N493 1.342 . S
C492 C496 1.401 . S
C492 C497 1.499 . S
N493 Co476 1.989 . S
N493 C492 1.342 . S
N493 N494 1.388 . S
N494 Co477 1.993 . S
N494 N493 1.388 . S
N494 C495 1.346 . S
C495 N494 1.346 . S
C495 C496 1.396 . S
C495 C505 1.510 . S
C496 C492 1.401 . S
C496 C495 1.396 . S
C497 C492 1.499 . S
C497 H498 0.959 . S
C497 H499 0.960 . S
C497 H500 0.961 . S
H498 C497 0.959 . S
H499 C497 0.960 . S
H500 C497 0.961 . S
O501 Co476 1.967 . S
O501 C509 1.258 . S
O502 Co477 1.941 . S
O502 C509 1.266 . S
H503 C505 0.959 . S
H504 C505 0.961 . S
C505 C495 1.510 . S
C505 H503 0.959 . S
C505 H504 0.961 . S
C505 H506 0.960 . S
H506 C505 0.960 . S
H507 N487 0.862 . S
O508 Co476 1.920 . S
O508 C481 1.289 . S
C509 O501 1.258 . S
C509 O502 1.266 . S
Co510 O513 1.970 . S
Co510 N527 1.989 . S
Co510 O535 1.967 . S
Co510 O542 1.920 . S
Co511 O514 1.966 . S
Co511 N520 2.022 . S
Co511 N528 1.993 . S
Co511 O536 1.941 . S
C512 O513 1.258 . S
C512 O514 1.263 . S
O513 Co510 1.970 . S
O513 C512 1.258 . S
O514 Co511 1.966 . S
O514 C512 1.263 . S
C515 O516 1.235 . S
C515 O542 1.289 . S
O516 C515 1.235 . S
C517 C519 1.400 . S
C517 N520 1.351 . S
C517 C522 1.501 . S
C518 C519 1.387 . S
C518 N521 1.341 . S
C519 C517 1.400 . S
C519 C518 1.387 . S
N520 Co511 2.022 . S
N520 C517 1.351 . S
N520 N521 1.365 . S
N521 C518 1.341 . S
N521 N520 1.365 . S
N521 H541 0.862 . S
C522 C517 1.501 . S
C522 H523 0.961 . S
C522 H524 0.961 . S
C522 H525 0.960 . S
H523 C522 0.961 . S
H524 C522 0.961 . S
H525 C522 0.960 . S
C526 N527 1.342 . S
C526 C530 1.401 . S
C526 C531 1.499 . S
N527 Co510 1.989 . S
N527 C526 1.342 . S
N527 N528 1.388 . S
N528 Co511 1.993 . S
N528 N527 1.388 . S
N528 C529 1.346 . S
C529 N528 1.346 . S
C529 C530 1.396 . S
C529 C539 1.510 . S
C530 C526 1.401 . S
C530 C529 1.396 . S
C531 C526 1.499 . S
C531 H532 0.959 . S
C531 H533 0.960 . S
C531 H534 0.961 1_545 S
H532 C531 0.959 . S
H533 C531 0.960 . S
H534 C531 0.961 1_565 S
O535 Co510 1.967 . S
O535 C543 1.258 . S
O536 Co511 1.941 . S
O536 C543 1.266 . S
H537 C539 0.959 . S
H538 C539 0.961 . S
C539 C529 1.510 . S
C539 H537 0.959 . S
C539 H538 0.961 . S
C539 H540 0.960 . S
H540 C539 0.960 . S
H541 N521 0.862 . S
O542 Co510 1.920 . S
O542 C515 1.289 . S
C543 O535 1.258 . S
C543 O536 1.266 . S
Co544 O547 1.970 . S
Co544 N561 1.989 . S
Co544 O569 1.967 . S
Co544 O576 1.920 . S
Co545 O548 1.966 . S
Co545 N554 2.022 . S
Co545 N562 1.993 . S
Co545 O570 1.941 . S
C546 O547 1.258 . S
C546 O548 1.263 . S
O547 Co544 1.970 . S
O547 C546 1.258 . S
O548 Co545 1.966 . S
O548 C546 1.263 . S
C549 O550 1.235 . S
C549 O576 1.289 . S
O550 C549 1.235 . S
C551 C553 1.400 . S
C551 N554 1.351 . S
C551 C556 1.501 . S
C552 C553 1.387 . S
C552 N555 1.341 . S
C553 C551 1.400 . S
C553 C552 1.387 . S
N554 Co545 2.022 . S
N554 C551 1.351 . S
N554 N555 1.365 . S
N555 C552 1.341 . S
N555 N554 1.365 . S
N555 H575 0.862 . S
C556 C551 1.501 . S
C556 H557 0.961 . S
C556 H558 0.961 . S
C556 H559 0.960 . S
H557 C556 0.961 . S
H558 C556 0.961 . S
H559 C556 0.960 . S
C560 N561 1.342 . S
C560 C564 1.401 . S
C560 C565 1.499 . S
N561 Co544 1.989 . S
N561 C560 1.342 . S
N561 N562 1.388 . S
N562 Co545 1.993 . S
N562 N561 1.388 . S
N562 C563 1.346 . S
C563 N562 1.346 . S
C563 C564 1.396 . S
C563 C573 1.510 . S
C564 C560 1.401 . S
C564 C563 1.396 . S
C565 C560 1.499 . S
C565 H566 0.959 . S
C565 H567 0.960 . S
C565 H568 0.961 . S
H566 C565 0.959 . S
H567 C565 0.960 . S
H568 C565 0.961 . S
O569 Co544 1.967 . S
O569 C577 1.258 . S
O570 Co545 1.941 . S
O570 C577 1.266 . S
H571 C573 0.959 . S
H572 C573 0.961 . S
C573 C563 1.510 . S
C573 H571 0.959 . S
C573 H572 0.961 . S
C573 H574 0.960 . S
H574 C573 0.960 . S
H575 N555 0.862 . S
O576 Co544 1.920 . S
O576 C549 1.289 . S
C577 O569 1.258 . S
C577 O570 1.266 . S
Co578 O581 1.970 . S
Co578 N595 1.989 . S
Co578 O603 1.967 . S
Co578 O610 1.920 . S
Co579 O582 1.966 . S
Co579 N588 2.022 . S
Co579 N596 1.993 . S
Co579 O604 1.941 . S
C580 O581 1.258 . S
C580 O582 1.263 . S
O581 Co578 1.970 . S
O581 C580 1.258 . S
O582 Co579 1.966 . S
O582 C580 1.263 . S
C583 O584 1.235 . S
C583 O610 1.289 . S
O584 C583 1.235 . S
C585 C587 1.400 . S
C585 N588 1.351 . S
C585 C590 1.501 . S
C586 C587 1.387 . S
C586 N589 1.341 . S
C587 C585 1.400 . S
C587 C586 1.387 . S
N588 Co579 2.022 . S
N588 C585 1.351 . S
N588 N589 1.365 . S
N589 C586 1.341 . S
N589 N588 1.365 . S
N589 H609 0.862 . S
C590 C585 1.501 . S
C590 H591 0.961 . S
C590 H592 0.961 . S
C590 H593 0.960 . S
H591 C590 0.961 . S
H592 C590 0.961 . S
H593 C590 0.960 . S
C594 N595 1.342 . S
C594 C598 1.401 . S
C594 C599 1.499 . S
N595 Co578 1.989 . S
N595 C594 1.342 . S
N595 N596 1.388 . S
N596 Co579 1.993 . S
N596 N595 1.388 . S
N596 C597 1.346 . S
C597 N596 1.346 . S
C597 C598 1.396 . S
C597 C607 1.510 . S
C598 C594 1.401 . S
C598 C597 1.396 . S
C599 C594 1.499 . S
C599 H600 0.959 . S
C599 H601 0.960 . S
C599 H602 0.961 . S
H600 C599 0.959 . S
H601 C599 0.960 . S
H602 C599 0.961 . S
O603 Co578 1.967 . S
O603 C611 1.258 . S
O604 Co579 1.941 . S
O604 C611 1.266 . S
H605 C607 0.959 . S
H606 C607 0.961 . S
C607 C597 1.510 . S
C607 H605 0.959 . S
C607 H606 0.961 . S
C607 H608 0.960 . S
H608 C607 0.960 . S
H609 N589 0.862 . S
O610 Co578 1.920 . S
O610 C583 1.289 . S
C611 O603 1.258 . S
C611 O604 1.266 . S
Co612 O615 1.970 . S
Co612 N629 1.989 . S
Co612 O637 1.967 . S
Co612 O644 1.920 . S
Co613 O616 1.966 . S
Co613 N622 2.022 . S
Co613 N630 1.993 . S
Co613 O638 1.941 . S
C614 O615 1.258 . S
C614 O616 1.263 . S
O615 Co612 1.970 . S
O615 C614 1.258 . S
O616 Co613 1.966 . S
O616 C614 1.263 . S
C617 O618 1.235 . S
C617 O644 1.289 . S
O618 C617 1.235 . S
C619 C621 1.400 . S
C619 N622 1.351 . S
C619 C624 1.501 . S
C620 C621 1.387 . S
C620 N623 1.341 . S
C621 C619 1.400 . S
C621 C620 1.387 . S
N622 Co613 2.022 . S
N622 C619 1.351 . S
N622 N623 1.365 . S
N623 C620 1.341 . S
N623 N622 1.365 . S
N623 H643 0.862 . S
C624 C619 1.501 . S
C624 H625 0.961 . S
C624 H626 0.961 . S
C624 H627 0.960 . S
H625 C624 0.961 . S
H626 C624 0.961 . S
H627 C624 0.960 . S
C628 N629 1.342 . S
C628 C632 1.401 . S
C628 C633 1.499 . S
N629 Co612 1.989 . S
N629 C628 1.342 . S
N629 N630 1.388 . S
N630 Co613 1.993 . S
N630 N629 1.388 . S
N630 C631 1.346 . S
C631 N630 1.346 . S
C631 C632 1.396 . S
C631 C641 1.510 . S
C632 C628 1.401 . S
C632 C631 1.396 . S
C633 C628 1.499 . S
C633 H634 0.959 . S
C633 H635 0.960 . S
C633 H636 0.961 1_655 S
H634 C633 0.959 . S
H635 C633 0.960 . S
H636 C633 0.961 1_455 S
O637 Co612 1.967 . S
O637 C645 1.258 . S
O638 Co613 1.941 . S
O638 C645 1.266 . S
H639 C641 0.959 . S
H640 C641 0.961 . S
C641 C631 1.510 . S
C641 H639 0.959 . S
C641 H640 0.961 . S
C641 H642 0.960 . S
H642 C641 0.960 . S
H643 N623 0.862 . S
O644 Co612 1.920 . S
O644 C617 1.289 . S
C645 O637 1.258 . S
C645 O638 1.266 . S
Co646 O649 1.970 . S
Co646 N663 1.989 . S
Co646 O671 1.967 . S
Co646 O678 1.920 . S
Co647 O650 1.966 . S
Co647 N656 2.022 . S
Co647 N664 1.993 . S
Co647 O672 1.941 . S
C648 O649 1.258 . S
C648 O650 1.263 . S
O649 Co646 1.970 . S
O649 C648 1.258 . S
O650 Co647 1.966 . S
O650 C648 1.263 . S
C651 O652 1.235 . S
C651 O678 1.289 . S
O652 C651 1.235 . S
C653 C655 1.400 . S
C653 N656 1.351 . S
C653 C658 1.501 . S
C654 C655 1.387 . S
C654 N657 1.341 . S
C655 C653 1.400 . S
C655 C654 1.387 . S
N656 Co647 2.022 . S
N656 C653 1.351 . S
N656 N657 1.365 . S
N657 C654 1.341 . S
N657 N656 1.365 . S
N657 H677 0.862 . S
C658 C653 1.501 . S
C658 H659 0.961 . S
C658 H660 0.961 . S
C658 H661 0.960 . S
H659 C658 0.961 . S
H660 C658 0.961 . S
H661 C658 0.960 . S
C662 N663 1.342 . S
C662 C666 1.401 . S
C662 C667 1.499 . S
N663 Co646 1.989 . S
N663 C662 1.342 . S
N663 N664 1.388 . S
N664 Co647 1.993 . S
N664 N663 1.388 . S
N664 C665 1.346 . S
C665 N664 1.346 . S
C665 C666 1.396 . S
C665 C675 1.510 . S
C666 C662 1.401 . S
C666 C665 1.396 . S
C667 C662 1.499 . S
C667 H668 0.959 . S
C667 H669 0.960 . S
C667 H670 0.961 . S
H668 C667 0.959 . S
H669 C667 0.960 . S
H670 C667 0.961 . S
O671 Co646 1.967 . S
O671 C679 1.258 . S
O672 Co647 1.941 . S
O672 C679 1.266 . S
H673 C675 0.959 . S
H674 C675 0.961 . S
C675 C665 1.510 . S
C675 H673 0.959 . S
C675 H674 0.961 . S
C675 H676 0.960 . S
H676 C675 0.960 . S
H677 N657 0.862 . S
O678 Co646 1.920 . S
O678 C651 1.289 . S
C679 O671 1.258 . S
C679 O672 1.266 . S
Co680 O683 1.970 . S
Co680 N697 1.989 . S
Co680 O705 1.967 . S
Co680 O712 1.920 . S
Co681 O684 1.966 . S
Co681 N690 2.022 . S
Co681 N698 1.993 . S
Co681 O706 1.941 . S
C682 O683 1.258 . S
C682 O684 1.263 . S
O683 Co680 1.970 . S
O683 C682 1.258 . S
O684 Co681 1.966 . S
O684 C682 1.263 . S
C685 O686 1.235 . S
C685 O712 1.289 . S
O686 C685 1.235 . S
C687 C689 1.400 . S
C687 N690 1.351 . S
C687 C692 1.501 . S
C688 C689 1.387 . S
C688 N691 1.341 . S
C689 C687 1.400 . S
C689 C688 1.387 . S
N690 Co681 2.022 . S
N690 C687 1.351 . S
N690 N691 1.365 . S
N691 C688 1.341 . S
N691 N690 1.365 . S
N691 H711 0.862 . S
C692 C687 1.501 . S
C692 H693 0.961 . S
C692 H694 0.961 . S
C692 H695 0.960 . S
H693 C692 0.961 . S
H694 C692 0.961 . S
H695 C692 0.960 . S
C696 N697 1.342 . S
C696 C700 1.401 . S
C696 C701 1.499 . S
N697 Co680 1.989 . S
N697 C696 1.342 . S
N697 N698 1.388 . S
N698 Co681 1.993 . S
N698 N697 1.388 . S
N698 C699 1.346 . S
C699 N698 1.346 . S
C699 C700 1.396 . S
C699 C709 1.510 . S
C700 C696 1.401 . S
C700 C699 1.396 . S
C701 C696 1.499 . S
C701 H702 0.959 . S
C701 H703 0.960 . S
C701 H704 0.961 . S
H702 C701 0.959 . S
H703 C701 0.960 . S
H704 C701 0.961 . S
O705 Co680 1.967 . S
O705 C713 1.258 . S
O706 Co681 1.941 . S
O706 C713 1.266 . S
H707 C709 0.959 . S
H708 C709 0.961 . S
C709 C699 1.510 . S
C709 H707 0.959 . S
C709 H708 0.961 . S
C709 H710 0.960 . S
H710 C709 0.960 . S
H711 N691 0.862 . S
O712 Co680 1.920 . S
O712 C685 1.289 . S
C713 O705 1.258 . S
C713 O706 1.266 . S
Co714 O717 1.970 . S
Co714 N731 1.989 . S
Co714 O739 1.967 . S
Co714 O746 1.920 . S
Co715 O718 1.966 . S
Co715 N724 2.022 . S
Co715 N732 1.993 . S
Co715 O740 1.941 . S
C716 O717 1.258 . S
C716 O718 1.263 . S
O717 Co714 1.970 . S
O717 C716 1.258 . S
O718 Co715 1.966 . S
O718 C716 1.263 . S
C719 O720 1.235 . S
C719 O746 1.289 . S
O720 C719 1.235 . S
C721 C723 1.400 . S
C721 N724 1.351 . S
C721 C726 1.501 . S
C722 C723 1.387 . S
C722 N725 1.341 . S
C723 C721 1.400 . S
C723 C722 1.387 . S
N724 Co715 2.022 . S
N724 C721 1.351 . S
N724 N725 1.365 . S
N725 C722 1.341 . S
N725 N724 1.365 . S
N725 H745 0.862 . S
C726 C721 1.501 . S
C726 H727 0.961 . S
C726 H728 0.961 . S
C726 H729 0.960 . S
H727 C726 0.961 . S
H728 C726 0.961 . S
H729 C726 0.960 . S
C730 N731 1.342 . S
C730 C734 1.401 . S
C730 C735 1.499 . S
N731 Co714 1.989 . S
N731 C730 1.342 . S
N731 N732 1.388 . S
N732 Co715 1.993 . S
N732 N731 1.388 . S
N732 C733 1.346 . S
C733 N732 1.346 . S
C733 C734 1.396 . S
C733 C743 1.510 . S
C734 C730 1.401 . S
C734 C733 1.396 . S
C735 C730 1.499 . S
C735 H736 0.959 . S
C735 H737 0.960 . S
C735 H738 0.961 . S
H736 C735 0.959 . S
H737 C735 0.960 . S
H738 C735 0.961 . S
O739 Co714 1.967 . S
O739 C747 1.258 . S
O740 Co715 1.941 . S
O740 C747 1.266 . S
H741 C743 0.959 . S
H742 C743 0.961 . S
C743 C733 1.510 . S
C743 H741 0.959 . S
C743 H742 0.961 . S
C743 H744 0.960 . S
H744 C743 0.960 . S
H745 N725 0.862 . S
O746 Co714 1.920 . S
O746 C719 1.289 . S
C747 O739 1.258 . S
C747 O740 1.266 . S
Co748 O751 1.970 . S
Co748 N765 1.989 . S
Co748 O773 1.967 . S
Co748 O780 1.920 . S
Co749 O752 1.966 . S
Co749 N758 2.022 . S
Co749 N766 1.993 . S
Co749 O774 1.941 . S
C750 O751 1.258 . S
C750 O752 1.263 . S
O751 Co748 1.970 . S
O751 C750 1.258 . S
O752 Co749 1.966 . S
O752 C750 1.263 . S
C753 O754 1.235 . S
C753 O780 1.289 . S
O754 C753 1.235 . S
C755 C757 1.400 . S
C755 N758 1.351 . S
C755 C760 1.501 . S
C756 C757 1.387 . S
C756 N759 1.341 . S
C757 C755 1.400 . S
C757 C756 1.387 . S
N758 Co749 2.022 . S
N758 C755 1.351 . S
N758 N759 1.365 . S
N759 C756 1.341 . S
N759 N758 1.365 . S
N759 H779 0.862 . S
C760 C755 1.501 . S
C760 H761 0.961 . S
C760 H762 0.961 . S
C760 H763 0.960 . S
H761 C760 0.961 . S
H762 C760 0.961 . S
H763 C760 0.960 . S
C764 N765 1.342 . S
C764 C768 1.401 . S
C764 C769 1.499 . S
N765 Co748 1.989 . S
N765 C764 1.342 . S
N765 N766 1.388 . S
N766 Co749 1.993 . S
N766 N765 1.388 . S
N766 C767 1.346 . S
C767 N766 1.346 . S
C767 C768 1.396 . S
C767 C777 1.510 . S
C768 C764 1.401 . S
C768 C767 1.396 . S
C769 C764 1.499 . S
C769 H770 0.959 . S
C769 H771 0.960 . S
C769 H772 0.961 1_655 S
H770 C769 0.959 . S
H771 C769 0.960 . S
H772 C769 0.961 1_455 S
O773 Co748 1.967 . S
O773 C781 1.258 . S
O774 Co749 1.941 . S
O774 C781 1.266 . S
H775 C777 0.959 . S
H776 C777 0.961 . S
C777 C767 1.510 . S
C777 H775 0.959 . S
C777 H776 0.961 . S
C777 H778 0.960 . S
H778 C777 0.960 . S
H779 N759 0.862 . S
O780 Co748 1.920 . S
O780 C753 1.289 . S
C781 O773 1.258 . S
C781 O774 1.266 . S
Co782 O785 1.970 . S
Co782 N799 1.989 . S
Co782 O807 1.967 . S
Co782 O814 1.920 . S
Co783 O786 1.966 . S
Co783 N792 2.022 . S
Co783 N800 1.993 . S
Co783 O808 1.941 . S
C784 O785 1.258 . S
C784 O786 1.263 . S
O785 Co782 1.970 . S
O785 C784 1.258 . S
O786 Co783 1.966 . S
O786 C784 1.263 . S
C787 O788 1.235 . S
C787 O814 1.289 . S
O788 C787 1.235 . S
C789 C791 1.400 . S
C789 N792 1.351 . S
C789 C794 1.501 . S
C790 C791 1.387 . S
C790 N793 1.341 . S
C791 C789 1.400 . S
C791 C790 1.387 . S
N792 Co783 2.022 . S
N792 C789 1.351 . S
N792 N793 1.365 . S
N793 C790 1.341 . S
N793 N792 1.365 . S
N793 H813 0.862 . S
C794 C789 1.501 . S
C794 H795 0.961 . S
C794 H796 0.961 . S
C794 H797 0.960 . S
H795 C794 0.961 . S
H796 C794 0.961 . S
H797 C794 0.960 . S
C798 N799 1.342 . S
C798 C802 1.401 . S
C798 C803 1.499 . S
N799 Co782 1.989 . S
N799 C798 1.342 . S
N799 N800 1.388 . S
N800 Co783 1.993 . S
N800 N799 1.388 . S
N800 C801 1.346 . S
C801 N800 1.346 . S
C801 C802 1.396 . S
C801 C811 1.510 . S
C802 C798 1.401 . S
C802 C801 1.396 . S
C803 C798 1.499 . S
C803 H804 0.959 . S
C803 H805 0.960 . S
C803 H806 0.961 1_455 S
H804 C803 0.959 . S
H805 C803 0.960 . S
H806 C803 0.961 1_655 S
O807 Co782 1.967 . S
O807 C815 1.258 . S
O808 Co783 1.941 . S
O808 C815 1.266 . S
H809 C811 0.959 . S
H810 C811 0.961 . S
C811 C801 1.510 . S
C811 H809 0.959 . S
C811 H810 0.961 . S
C811 H812 0.960 . S
H812 C811 0.960 . S
H813 N793 0.862 . S
O814 Co782 1.920 . S
O814 C787 1.289 . S
C815 O807 1.258 . S
C815 O808 1.266 . S
Co816 O819 1.970 . S
Co816 N833 1.989 . S
Co816 O841 1.967 . S
Co816 O848 1.920 . S
Co817 O820 1.966 . S
Co817 N826 2.022 . S
Co817 N834 1.993 . S
Co817 O842 1.941 . S
C818 O819 1.258 . S
C818 O820 1.263 . S
O819 Co816 1.970 . S
O819 C818 1.258 . S
O820 Co817 1.966 . S
O820 C818 1.263 . S
C821 O822 1.235 . S
C821 O848 1.289 . S
O822 C821 1.235 . S
C823 C825 1.400 . S
C823 N826 1.351 . S
C823 C828 1.501 . S
C824 C825 1.387 . S
C824 N827 1.341 . S
C825 C823 1.400 . S
C825 C824 1.387 . S
N826 Co817 2.022 . S
N826 C823 1.351 . S
N826 N827 1.365 . S
N827 C824 1.341 . S
N827 N826 1.365 . S
N827 H847 0.862 . S
C828 C823 1.501 . S
C828 H829 0.961 . S
C828 H830 0.961 . S
C828 H831 0.960 . S
H829 C828 0.961 . S
H830 C828 0.961 . S
H831 C828 0.960 . S
C832 N833 1.342 . S
C832 C836 1.401 . S
C832 C837 1.499 . S
N833 Co816 1.989 . S
N833 C832 1.342 . S
N833 N834 1.388 . S
N834 Co817 1.993 . S
N834 N833 1.388 . S
N834 C835 1.346 . S
C835 N834 1.346 . S
C835 C836 1.396 . S
C835 C845 1.510 . S
C836 C832 1.401 . S
C836 C835 1.396 . S
C837 C832 1.499 . S
C837 H838 0.959 . S
C837 H839 0.960 . S
C837 H840 0.961 . S
H838 C837 0.959 . S
H839 C837 0.960 . S
H840 C837 0.961 . S
O841 Co816 1.967 . S
O841 C849 1.258 . S
O842 Co817 1.941 . S
O842 C849 1.266 . S
H843 C845 0.959 . S
H844 C845 0.961 . S
C845 C835 1.510 . S
C845 H843 0.959 . S
C845 H844 0.961 . S
C845 H846 0.960 . S
H846 C845 0.960 . S
H847 N827 0.862 . S
O848 Co816 1.920 . S
O848 C821 1.289 . S
C849 O841 1.258 . S
C849 O842 1.266 . S
Co850 O853 1.970 . S
Co850 N867 1.989 . S
Co850 O875 1.967 . S
Co850 O882 1.920 . S
Co851 O854 1.966 . S
Co851 N860 2.022 . S
Co851 N868 1.993 . S
Co851 O876 1.941 . S
C852 O853 1.258 . S
C852 O854 1.263 . S
O853 Co850 1.970 . S
O853 C852 1.258 . S
O854 Co851 1.966 . S
O854 C852 1.263 . S
C855 O856 1.235 . S
C855 O882 1.289 . S
O856 C855 1.235 . S
C857 C859 1.400 . S
C857 N860 1.351 . S
C857 C862 1.501 . S
C858 C859 1.387 . S
C858 N861 1.341 . S
C859 C857 1.400 . S
C859 C858 1.387 . S
N860 Co851 2.022 . S
N860 C857 1.351 . S
N860 N861 1.365 . S
N861 C858 1.341 . S
N861 N860 1.365 . S
N861 H881 0.862 . S
C862 C857 1.501 . S
C862 H863 0.961 . S
C862 H864 0.961 . S
C862 H865 0.960 . S
H863 C862 0.961 . S
H864 C862 0.961 . S
H865 C862 0.960 . S
C866 N867 1.342 . S
C866 C870 1.401 . S
C866 C871 1.499 . S
N867 Co850 1.989 . S
N867 C866 1.342 . S
N867 N868 1.388 . S
N868 Co851 1.993 . S
N868 N867 1.388 . S
N868 C869 1.346 . S
C869 N868 1.346 . S
C869 C870 1.396 . S
C869 C879 1.510 . S
C870 C866 1.401 . S
C870 C869 1.396 . S
C871 C866 1.499 . S
C871 H872 0.959 . S
C871 H873 0.960 . S
C871 H874 0.961 . S
H872 C871 0.959 . S
H873 C871 0.960 . S
H874 C871 0.961 . S
O875 Co850 1.967 . S
O875 C883 1.258 . S
O876 Co851 1.941 . S
O876 C883 1.266 . S
H877 C879 0.959 . S
H878 C879 0.961 . S
C879 C869 1.510 . S
C879 H877 0.959 . S
C879 H878 0.961 . S
C879 H880 0.960 . S
H880 C879 0.960 . S
H881 N861 0.862 . S
O882 Co850 1.920 . S
O882 C855 1.289 . S
C883 O875 1.258 . S
C883 O876 1.266 . S
Co884 O887 1.970 . S
Co884 N901 1.989 . S
Co884 O909 1.967 . S
Co884 O916 1.920 . S
Co885 O888 1.966 . S
Co885 N894 2.022 . S
Co885 N902 1.993 . S
Co885 O910 1.941 . S
C886 O887 1.258 . S
C886 O888 1.263 . S
O887 Co884 1.970 . S
O887 C886 1.258 . S
O888 Co885 1.966 . S
O888 C886 1.263 . S
C889 O890 1.235 . S
C889 O916 1.289 . S
O890 C889 1.235 . S
C891 C893 1.400 . S
C891 N894 1.351 . S
C891 C896 1.501 . S
C892 C893 1.387 . S
C892 N895 1.341 . S
C893 C891 1.400 . S
C893 C892 1.387 . S
N894 Co885 2.022 . S
N894 C891 1.351 . S
N894 N895 1.365 . S
N895 C892 1.341 . S
N895 N894 1.365 . S
N895 H915 0.862 . S
C896 C891 1.501 . S
C896 H897 0.961 . S
C896 H898 0.961 . S
C896 H899 0.960 . S
H897 C896 0.961 . S
H898 C896 0.961 . S
H899 C896 0.960 . S
C900 N901 1.342 . S
C900 C904 1.401 . S
C900 C905 1.499 . S
N901 Co884 1.989 . S
N901 C900 1.342 . S
N901 N902 1.388 . S
N902 Co885 1.993 . S
N902 N901 1.388 . S
N902 C903 1.346 . S
C903 N902 1.346 . S
C903 C904 1.396 . S
C903 C913 1.510 . S
C904 C900 1.401 . S
C904 C903 1.396 . S
C905 C900 1.499 . S
C905 H906 0.959 . S
C905 H907 0.960 . S
C905 H908 0.961 . S
H906 C905 0.959 . S
H907 C905 0.960 . S
H908 C905 0.961 . S
O909 Co884 1.967 . S
O909 C917 1.258 . S
O910 Co885 1.941 . S
O910 C917 1.266 . S
H911 C913 0.959 . S
H912 C913 0.961 . S
C913 C903 1.510 . S
C913 H911 0.959 . S
C913 H912 0.961 . S
C913 H914 0.960 . S
H914 C913 0.960 . S
H915 N895 0.862 . S
O916 Co884 1.920 . S
O916 C889 1.289 . S
C917 O909 1.258 . S
C917 O910 1.266 . S
Co918 O921 1.970 . S
Co918 N935 1.989 . S
Co918 O943 1.967 . S
Co918 O950 1.920 . S
Co919 O922 1.966 . S
Co919 N928 2.022 . S
Co919 N936 1.993 . S
Co919 O944 1.941 . S
C920 O921 1.258 . S
C920 O922 1.263 . S
O921 Co918 1.970 . S
O921 C920 1.258 . S
O922 Co919 1.966 . S
O922 C920 1.263 . S
C923 O924 1.235 . S
C923 O950 1.289 . S
O924 C923 1.235 . S
C925 C927 1.400 . S
C925 N928 1.351 . S
C925 C930 1.501 . S
C926 C927 1.387 . S
C926 N929 1.341 . S
C927 C925 1.400 . S
C927 C926 1.387 . S
N928 Co919 2.022 . S
N928 C925 1.351 . S
N928 N929 1.365 . S
N929 C926 1.341 . S
N929 N928 1.365 . S
N929 H949 0.862 . S
C930 C925 1.501 . S
C930 H931 0.961 . S
C930 H932 0.961 . S
C930 H933 0.960 . S
H931 C930 0.961 . S
H932 C930 0.961 . S
H933 C930 0.960 . S
C934 N935 1.342 . S
C934 C938 1.401 . S
C934 C939 1.499 . S
N935 Co918 1.989 . S
N935 C934 1.342 . S
N935 N936 1.388 . S
N936 Co919 1.993 . S
N936 N935 1.388 . S
N936 C937 1.346 . S
C937 N936 1.346 . S
C937 C938 1.396 . S
C937 C947 1.510 . S
C938 C934 1.401 . S
C938 C937 1.396 . S
C939 C934 1.499 . S
C939 H940 0.959 . S
C939 H941 0.960 . S
C939 H942 0.961 . S
H940 C939 0.959 . S
H941 C939 0.960 . S
H942 C939 0.961 . S
O943 Co918 1.967 . S
O943 C951 1.258 . S
O944 Co919 1.941 . S
O944 C951 1.266 . S
H945 C947 0.959 . S
H946 C947 0.961 . S
C947 C937 1.510 . S
C947 H945 0.959 . S
C947 H946 0.961 . S
C947 H948 0.960 . S
H948 C947 0.960 . S
H949 N929 0.862 . S
O950 Co918 1.920 . S
O950 C923 1.289 . S
C951 O943 1.258 . S
C951 O944 1.266 . S
Co952 O955 1.970 . S
Co952 N969 1.989 . S
Co952 O977 1.967 . S
Co952 O984 1.920 . S
Co953 O956 1.966 . S
Co953 N962 2.022 . S
Co953 N970 1.993 . S
Co953 O978 1.941 . S
C954 O955 1.258 . S
C954 O956 1.263 . S
O955 Co952 1.970 . S
O955 C954 1.258 . S
O956 Co953 1.966 . S
O956 C954 1.263 . S
C957 O958 1.235 . S
C957 O984 1.289 . S
O958 C957 1.235 . S
C959 C961 1.400 . S
C959 N962 1.351 . S
C959 C964 1.501 . S
C960 C961 1.387 . S
C960 N963 1.341 . S
C961 C959 1.400 . S
C961 C960 1.387 . S
N962 Co953 2.022 . S
N962 C959 1.351 . S
N962 N963 1.365 . S
N963 C960 1.341 . S
N963 N962 1.365 . S
N963 H983 0.862 . S
C964 C959 1.501 . S
C964 H965 0.961 . S
C964 H966 0.961 . S
C964 H967 0.960 . S
H965 C964 0.961 . S
H966 C964 0.961 . S
H967 C964 0.960 . S
C968 N969 1.342 . S
C968 C972 1.401 . S
C968 C973 1.499 . S
N969 Co952 1.989 . S
N969 C968 1.342 . S
N969 N970 1.388 . S
N970 Co953 1.993 . S
N970 N969 1.388 . S
N970 C971 1.346 . S
C971 N970 1.346 . S
C971 C972 1.396 . S
C971 C981 1.510 . S
C972 C968 1.401 . S
C972 C971 1.396 . S
C973 C968 1.499 . S
C973 H974 0.959 . S
C973 H975 0.960 . S
C973 H976 0.961 . S
H974 C973 0.959 . S
H975 C973 0.960 . S
H976 C973 0.961 . S
O977 Co952 1.967 . S
O977 C985 1.258 . S
O978 Co953 1.941 . S
O978 C985 1.266 . S
H979 C981 0.959 . S
H980 C981 0.961 . S
C981 C971 1.510 . S
C981 H979 0.959 . S
C981 H980 0.961 . S
C981 H982 0.960 . S
H982 C981 0.960 . S
H983 N963 0.862 . S
O984 Co952 1.920 . S
O984 C957 1.289 . S
C985 O977 1.258 . S
C985 O978 1.266 . S
Co986 O989 1.970 . S
Co986 N1003 1.989 . S
Co986 O1011 1.967 . S
Co986 O1018 1.920 . S
Co987 O990 1.966 . S
Co987 N996 2.022 . S
Co987 N1004 1.993 . S
Co987 O1012 1.941 . S
C988 O989 1.258 . S
C988 O990 1.263 . S
O989 Co986 1.970 . S
O989 C988 1.258 . S
O990 Co987 1.966 . S
O990 C988 1.263 . S
C991 O992 1.235 . S
C991 O1018 1.289 . S
O992 C991 1.235 . S
C993 C995 1.400 . S
C993 N996 1.351 . S
C993 C998 1.501 . S
C994 C995 1.387 . S
C994 N997 1.341 . S
C995 C993 1.400 . S
C995 C994 1.387 . S
N996 Co987 2.022 . S
N996 C993 1.351 . S
N996 N997 1.365 . S
N997 C994 1.341 . S
N997 N996 1.365 . S
N997 H1017 0.862 . S
C998 C993 1.501 . S
C998 H999 0.961 . S
C998 H1000 0.961 . S
C998 H1001 0.960 . S
H999 C998 0.961 . S
H1000 C998 0.961 . S
H1001 C998 0.960 . S
C1002 N1003 1.342 . S
C1002 C1006 1.401 . S
C1002 C1007 1.499 . S
N1003 Co986 1.989 . S
N1003 C1002 1.342 . S
N1003 N1004 1.388 . S
N1004 Co987 1.993 . S
N1004 N1003 1.388 . S
N1004 C1005 1.346 . S
C1005 N1004 1.346 . S
C1005 C1006 1.396 . S
C1005 C1015 1.510 . S
C1006 C1002 1.401 . S
C1006 C1005 1.396 . S
C1007 C1002 1.499 . S
C1007 H1008 0.959 . S
C1007 H1009 0.960 . S
C1007 H1010 0.961 . S
H1008 C1007 0.959 . S
H1009 C1007 0.960 . S
H1010 C1007 0.961 . S
O1011 Co986 1.967 . S
O1011 C1019 1.258 . S
O1012 Co987 1.941 . S
O1012 C1019 1.266 . S
H1013 C1015 0.959 . S
H1014 C1015 0.961 . S
C1015 C1005 1.510 . S
C1015 H1013 0.959 . S
C1015 H1014 0.961 . S
C1015 H1016 0.960 . S
H1016 C1015 0.960 . S
H1017 N997 0.862 . S
O1018 Co986 1.920 . S
O1018 C991 1.289 . S
C1019 O1011 1.258 . S
C1019 O1012 1.266 . S
Co1020 O1023 1.970 . S
Co1020 N1037 1.989 . S
Co1020 O1045 1.967 . S
Co1020 O1052 1.920 . S
Co1021 O1024 1.966 . S
Co1021 N1030 2.022 . S
Co1021 N1038 1.993 . S
Co1021 O1046 1.941 . S
C1022 O1023 1.258 . S
C1022 O1024 1.263 . S
O1023 Co1020 1.970 . S
O1023 C1022 1.258 . S
O1024 Co1021 1.966 . S
O1024 C1022 1.263 . S
C1025 O1026 1.235 . S
C1025 O1052 1.289 . S
O1026 C1025 1.235 . S
C1027 C1029 1.400 . S
C1027 N1030 1.351 . S
C1027 C1032 1.501 . S
C1028 C1029 1.387 . S
C1028 N1031 1.341 . S
C1029 C1027 1.400 . S
C1029 C1028 1.387 . S
N1030 Co1021 2.022 . S
N1030 C1027 1.351 . S
N1030 N1031 1.365 . S
N1031 C1028 1.341 . S
N1031 N1030 1.365 . S
N1031 H1051 0.862 . S
C1032 C1027 1.501 . S
C1032 H1033 0.961 . S
C1032 H1034 0.961 . S
C1032 H1035 0.960 . S
H1033 C1032 0.961 . S
H1034 C1032 0.961 . S
H1035 C1032 0.960 . S
C1036 N1037 1.342 . S
C1036 C1040 1.401 . S
C1036 C1041 1.499 . S
N1037 Co1020 1.989 . S
N1037 C1036 1.342 . S
N1037 N1038 1.388 . S
N1038 Co1021 1.993 . S
N1038 N1037 1.388 . S
N1038 C1039 1.346 . S
C1039 N1038 1.346 . S
C1039 C1040 1.396 . S
C1039 C1049 1.510 . S
C1040 C1036 1.401 . S
C1040 C1039 1.396 . S
C1041 C1036 1.499 . S
C1041 H1042 0.959 . S
C1041 H1043 0.960 . S
C1041 H1044 0.961 . S
H1042 C1041 0.959 . S
H1043 C1041 0.960 . S
H1044 C1041 0.961 . S
O1045 Co1020 1.967 . S
O1045 C1053 1.258 . S
O1046 Co1021 1.941 . S
O1046 C1053 1.266 . S
H1047 C1049 0.959 . S
H1048 C1049 0.961 . S
C1049 C1039 1.510 . S
C1049 H1047 0.959 . S
C1049 H1048 0.961 . S
C1049 H1050 0.960 . S
H1050 C1049 0.960 . S
H1051 N1031 0.862 . S
O1052 Co1020 1.920 . S
O1052 C1025 1.289 . S
C1053 O1045 1.258 . S
C1053 O1046 1.266 . S
Co1054 O1057 1.970 . S
Co1054 N1071 1.989 . S
Co1054 O1079 1.967 . S
Co1054 O1086 1.920 . S
Co1055 O1058 1.966 . S
Co1055 N1064 2.022 . S
Co1055 N1072 1.993 . S
Co1055 O1080 1.941 . S
C1056 O1057 1.258 . S
C1056 O1058 1.263 . S
O1057 Co1054 1.970 . S
O1057 C1056 1.258 . S
O1058 Co1055 1.966 . S
O1058 C1056 1.263 . S
C1059 O1060 1.235 . S
C1059 O1086 1.289 . S
O1060 C1059 1.235 . S
C1061 C1063 1.400 . S
C1061 N1064 1.351 . S
C1061 C1066 1.501 . S
C1062 C1063 1.387 . S
C1062 N1065 1.341 . S
C1063 C1061 1.400 . S
C1063 C1062 1.387 . S
N1064 Co1055 2.022 . S
N1064 C1061 1.351 . S
N1064 N1065 1.365 . S
N1065 C1062 1.341 . S
N1065 N1064 1.365 . S
N1065 H1085 0.862 . S
C1066 C1061 1.501 . S
C1066 H1067 0.961 . S
C1066 H1068 0.961 . S
C1066 H1069 0.960 . S
H1067 C1066 0.961 . S
H1068 C1066 0.961 . S
H1069 C1066 0.960 . S
C1070 N1071 1.342 . S
C1070 C1074 1.401 . S
C1070 C1075 1.499 . S
N1071 Co1054 1.989 . S
N1071 C1070 1.342 . S
N1071 N1072 1.388 . S
N1072 Co1055 1.993 . S
N1072 N1071 1.388 . S
N1072 C1073 1.346 . S
C1073 N1072 1.346 . S
C1073 C1074 1.396 . S
C1073 C1083 1.510 . S
C1074 C1070 1.401 . S
C1074 C1073 1.396 . S
C1075 C1070 1.499 . S
C1075 H1076 0.959 . S
C1075 H1077 0.960 . S
C1075 H1078 0.961 . S
H1076 C1075 0.959 . S
H1077 C1075 0.960 . S
H1078 C1075 0.961 . S
O1079 Co1054 1.967 . S
O1079 C1087 1.258 . S
O1080 Co1055 1.941 . S
O1080 C1087 1.266 . S
H1081 C1083 0.959 . S
H1082 C1083 0.961 . S
C1083 C1073 1.510 . S
C1083 H1081 0.959 . S
C1083 H1082 0.961 . S
C1083 H1084 0.960 . S
H1084 C1083 0.960 . S
H1085 N1065 0.862 . S
O1086 Co1054 1.920 . S
O1086 C1059 1.289 . S
C1087 O1079 1.258 . S
C1087 O1080 1.266 . S
Co1088 O1091 1.970 . S
Co1088 N1105 1.989 . S
Co1088 O1113 1.967 . S
Co1088 O1120 1.920 . S
Co1089 O1092 1.966 . S
Co1089 N1098 2.022 . S
Co1089 N1106 1.993 . S
Co1089 O1114 1.941 . S
C1090 O1091 1.258 . S
C1090 O1092 1.263 . S
O1091 Co1088 1.970 . S
O1091 C1090 1.258 . S
O1092 Co1089 1.966 . S
O1092 C1090 1.263 . S
C1093 O1094 1.235 . S
C1093 O1120 1.289 . S
O1094 C1093 1.235 . S
C1095 C1097 1.400 . S
C1095 N1098 1.351 . S
C1095 C1100 1.501 . S
C1096 C1097 1.387 . S
C1096 N1099 1.341 . S
C1097 C1095 1.400 . S
C1097 C1096 1.387 . S
N1098 Co1089 2.022 . S
N1098 C1095 1.351 . S
N1098 N1099 1.365 . S
N1099 C1096 1.341 . S
N1099 N1098 1.365 . S
N1099 H1119 0.862 . S
C1100 C1095 1.501 . S
C1100 H1101 0.961 . S
C1100 H1102 0.961 . S
C1100 H1103 0.960 . S
H1101 C1100 0.961 . S
H1102 C1100 0.961 . S
H1103 C1100 0.960 . S
C1104 N1105 1.342 . S
C1104 C1108 1.401 . S
C1104 C1109 1.499 . S
N1105 Co1088 1.989 . S
N1105 C1104 1.342 . S
N1105 N1106 1.388 . S
N1106 Co1089 1.993 . S
N1106 N1105 1.388 . S
N1106 C1107 1.346 . S
C1107 N1106 1.346 . S
C1107 C1108 1.396 . S
C1107 C1117 1.510 . S
C1108 C1104 1.401 . S
C1108 C1107 1.396 . S
C1109 C1104 1.499 . S
C1109 H1110 0.959 . S
C1109 H1111 0.960 . S
C1109 H1112 0.961 . S
H1110 C1109 0.959 . S
H1111 C1109 0.960 . S
H1112 C1109 0.961 . S
O1113 Co1088 1.967 . S
O1113 C1121 1.258 . S
O1114 Co1089 1.941 . S
O1114 C1121 1.266 . S
H1115 C1117 0.959 . S
H1116 C1117 0.961 . S
C1117 C1107 1.510 . S
C1117 H1115 0.959 . S
C1117 H1116 0.961 . S
C1117 H1118 0.960 . S
H1118 C1117 0.960 . S
H1119 N1099 0.862 . S
O1120 Co1088 1.920 . S
O1120 C1093 1.289 . S
C1121 O1113 1.258 . S
C1121 O1114 1.266 . S
Co1122 O1125 1.970 . S
Co1122 N1139 1.989 . S
Co1122 O1147 1.967 . S
Co1122 O1154 1.920 . S
Co1123 O1126 1.966 . S
Co1123 N1132 2.022 . S
Co1123 N1140 1.993 . S
Co1123 O1148 1.941 . S
C1124 O1125 1.258 . S
C1124 O1126 1.263 . S
O1125 Co1122 1.970 . S
O1125 C1124 1.258 . S
O1126 Co1123 1.966 . S
O1126 C1124 1.263 . S
C1127 O1128 1.235 . S
C1127 O1154 1.289 . S
O1128 C1127 1.235 . S
C1129 C1131 1.400 . S
C1129 N1132 1.351 . S
C1129 C1134 1.501 . S
C1130 C1131 1.387 . S
C1130 N1133 1.341 . S
C1131 C1129 1.400 . S
C1131 C1130 1.387 . S
N1132 Co1123 2.022 . S
N1132 C1129 1.351 . S
N1132 N1133 1.365 . S
N1133 C1130 1.341 . S
N1133 N1132 1.365 . S
N1133 H1153 0.862 . S
C1134 C1129 1.501 . S
C1134 H1135 0.961 . S
C1134 H1136 0.961 . S
C1134 H1137 0.960 . S
H1135 C1134 0.961 . S
H1136 C1134 0.961 . S
H1137 C1134 0.960 . S
C1138 N1139 1.342 . S
C1138 C1142 1.401 . S
C1138 C1143 1.499 . S
N1139 Co1122 1.989 . S
N1139 C1138 1.342 . S
N1139 N1140 1.388 . S
N1140 Co1123 1.993 . S
N1140 N1139 1.388 . S
N1140 C1141 1.346 . S
C1141 N1140 1.346 . S
C1141 C1142 1.396 . S
C1141 C1151 1.510 . S
C1142 C1138 1.401 . S
C1142 C1141 1.396 . S
C1143 C1138 1.499 . S
C1143 H1144 0.959 . S
C1143 H1145 0.960 . S
C1143 H1146 0.961 1_565 S
H1144 C1143 0.959 . S
H1145 C1143 0.960 . S
H1146 C1143 0.961 1_545 S
O1147 Co1122 1.967 . S
O1147 C1155 1.258 . S
O1148 Co1123 1.941 . S
O1148 C1155 1.266 . S
H1149 C1151 0.959 . S
H1150 C1151 0.961 . S
C1151 C1141 1.510 . S
C1151 H1149 0.959 . S
C1151 H1150 0.961 . S
C1151 H1152 0.960 . S
H1152 C1151 0.960 . S
H1153 N1133 0.862 . S
O1154 Co1122 1.920 . S
O1154 C1127 1.289 . S
C1155 O1147 1.258 . S
C1155 O1148 1.266 . S
Co1156 O1159 1.970 . S
Co1156 N1173 1.989 . S
Co1156 O1181 1.967 . S
Co1156 O1188 1.920 . S
Co1157 O1160 1.966 . S
Co1157 N1166 2.022 . S
Co1157 N1174 1.993 . S
Co1157 O1182 1.941 . S
C1158 O1159 1.258 . S
C1158 O1160 1.263 . S
O1159 Co1156 1.970 . S
O1159 C1158 1.258 . S
O1160 Co1157 1.966 . S
O1160 C1158 1.263 . S
C1161 O1162 1.235 . S
C1161 O1188 1.289 . S
O1162 C1161 1.235 . S
C1163 C1165 1.400 . S
C1163 N1166 1.351 . S
C1163 C1168 1.501 . S
C1164 C1165 1.387 . S
C1164 N1167 1.341 . S
C1165 C1163 1.400 . S
C1165 C1164 1.387 . S
N1166 Co1157 2.022 . S
N1166 C1163 1.351 . S
N1166 N1167 1.365 . S
N1167 C1164 1.341 . S
N1167 N1166 1.365 . S
N1167 H1187 0.862 . S
C1168 C1163 1.501 . S
C1168 H1169 0.961 . S
C1168 H1170 0.961 . S
C1168 H1171 0.960 . S
H1169 C1168 0.961 . S
H1170 C1168 0.961 . S
H1171 C1168 0.960 . S
C1172 N1173 1.342 . S
C1172 C1176 1.401 . S
C1172 C1177 1.499 . S
N1173 Co1156 1.989 . S
N1173 C1172 1.342 . S
N1173 N1174 1.388 . S
N1174 Co1157 1.993 . S
N1174 N1173 1.388 . S
N1174 C1175 1.346 . S
C1175 N1174 1.346 . S
C1175 C1176 1.396 . S
C1175 C1185 1.510 . S
C1176 C1172 1.401 . S
C1176 C1175 1.396 . S
C1177 C1172 1.499 . S
C1177 H1178 0.959 . S
C1177 H1179 0.960 . S
C1177 H1180 0.961 . S
H1178 C1177 0.959 . S
H1179 C1177 0.960 . S
H1180 C1177 0.961 . S
O1181 Co1156 1.967 . S
O1181 C1189 1.258 . S
O1182 Co1157 1.941 . S
O1182 C1189 1.266 . S
H1183 C1185 0.959 . S
H1184 C1185 0.961 . S
C1185 C1175 1.510 . S
C1185 H1183 0.959 . S
C1185 H1184 0.961 . S
C1185 H1186 0.960 . S
H1186 C1185 0.960 . S
H1187 N1167 0.862 . S
O1188 Co1156 1.920 . S
O1188 C1161 1.289 . S
C1189 O1181 1.258 . S
C1189 O1182 1.266 . S
Co1190 O1193 1.970 . S
Co1190 N1207 1.989 . S
Co1190 O1215 1.967 . S
Co1190 O1222 1.920 . S
Co1191 O1194 1.966 . S
Co1191 N1200 2.022 . S
Co1191 N1208 1.993 . S
Co1191 O1216 1.941 . S
C1192 O1193 1.258 . S
C1192 O1194 1.263 . S
O1193 Co1190 1.970 . S
O1193 C1192 1.258 . S
O1194 Co1191 1.966 . S
O1194 C1192 1.263 . S
C1195 O1196 1.235 . S
C1195 O1222 1.289 . S
O1196 C1195 1.235 . S
C1197 C1199 1.400 . S
C1197 N1200 1.351 . S
C1197 C1202 1.501 . S
C1198 C1199 1.387 . S
C1198 N1201 1.341 . S
C1199 C1197 1.400 . S
C1199 C1198 1.387 . S
N1200 Co1191 2.022 . S
N1200 C1197 1.351 . S
N1200 N1201 1.365 . S
N1201 C1198 1.341 . S
N1201 N1200 1.365 . S
N1201 H1221 0.862 . S
C1202 C1197 1.501 . S
C1202 H1203 0.961 . S
C1202 H1204 0.961 . S
C1202 H1205 0.960 . S
H1203 C1202 0.961 . S
H1204 C1202 0.961 . S
H1205 C1202 0.960 . S
C1206 N1207 1.342 . S
C1206 C1210 1.401 . S
C1206 C1211 1.499 . S
N1207 Co1190 1.989 . S
N1207 C1206 1.342 . S
N1207 N1208 1.388 . S
N1208 Co1191 1.993 . S
N1208 N1207 1.388 . S
N1208 C1209 1.346 . S
C1209 N1208 1.346 . S
C1209 C1210 1.396 . S
C1209 C1219 1.510 . S
C1210 C1206 1.401 . S
C1210 C1209 1.396 . S
C1211 C1206 1.499 . S
C1211 H1212 0.959 . S
C1211 H1213 0.960 . S
C1211 H1214 0.961 . S
H1212 C1211 0.959 . S
H1213 C1211 0.960 . S
H1214 C1211 0.961 . S
O1215 Co1190 1.967 . S
O1215 C1223 1.258 . S
O1216 Co1191 1.941 . S
O1216 C1223 1.266 . S
H1217 C1219 0.959 . S
H1218 C1219 0.961 . S
C1219 C1209 1.510 . S
C1219 H1217 0.959 . S
C1219 H1218 0.961 . S
C1219 H1220 0.960 . S
H1220 C1219 0.960 . S
H1221 N1201 0.862 . S
O1222 Co1190 1.920 . S
O1222 C1195 1.289 . S
C1223 O1215 1.258 . S
C1223 O1216 1.266 . S
Co1224 O1227 1.970 . S
Co1224 N1241 1.989 . S
Co1224 O1249 1.967 . S
Co1224 O1256 1.920 . S
Co1225 O1228 1.966 . S
Co1225 N1234 2.022 . S
Co1225 N1242 1.993 . S
Co1225 O1250 1.941 . S
C1226 O1227 1.258 . S
C1226 O1228 1.263 . S
O1227 Co1224 1.970 . S
O1227 C1226 1.258 . S
O1228 Co1225 1.966 . S
O1228 C1226 1.263 . S
C1229 O1230 1.235 . S
C1229 O1256 1.289 . S
O1230 C1229 1.235 . S
C1231 C1233 1.400 . S
C1231 N1234 1.351 . S
C1231 C1236 1.501 . S
C1232 C1233 1.387 . S
C1232 N1235 1.341 . S
C1233 C1231 1.400 . S
C1233 C1232 1.387 . S
N1234 Co1225 2.022 . S
N1234 C1231 1.351 . S
N1234 N1235 1.365 . S
N1235 C1232 1.341 . S
N1235 N1234 1.365 . S
N1235 H1255 0.862 . S
C1236 C1231 1.501 . S
C1236 H1237 0.961 . S
C1236 H1238 0.961 . S
C1236 H1239 0.960 . S
H1237 C1236 0.961 . S
H1238 C1236 0.961 . S
H1239 C1236 0.960 . S
C1240 N1241 1.342 . S
C1240 C1244 1.401 . S
C1240 C1245 1.499 . S
N1241 Co1224 1.989 . S
N1241 C1240 1.342 . S
N1241 N1242 1.388 . S
N1242 Co1225 1.993 . S
N1242 N1241 1.388 . S
N1242 C1243 1.346 . S
C1243 N1242 1.346 . S
C1243 C1244 1.396 . S
C1243 C1253 1.510 . S
C1244 C1240 1.401 . S
C1244 C1243 1.396 . S
C1245 C1240 1.499 . S
C1245 H1246 0.959 . S
C1245 H1247 0.960 . S
C1245 H1248 0.961 . S
H1246 C1245 0.959 . S
H1247 C1245 0.960 . S
H1248 C1245 0.961 . S
O1249 Co1224 1.967 . S
O1249 C1257 1.258 . S
O1250 Co1225 1.941 . S
O1250 C1257 1.266 . S
H1251 C1253 0.959 . S
H1252 C1253 0.961 . S
C1253 C1243 1.510 . S
C1253 H1251 0.959 . S
C1253 H1252 0.961 . S
C1253 H1254 0.960 . S
H1254 C1253 0.960 . S
H1255 N1235 0.862 . S
O1256 Co1224 1.920 . S
O1256 C1229 1.289 . S
C1257 O1249 1.258 . S
C1257 O1250 1.266 . S
Co1258 O1261 1.970 . S
Co1258 N1275 1.989 . S
Co1258 O1283 1.967 . S
Co1258 O1290 1.920 . S
Co1259 O1262 1.966 . S
Co1259 N1268 2.022 . S
Co1259 N1276 1.993 . S
Co1259 O1284 1.941 . S
C1260 O1261 1.258 . S
C1260 O1262 1.263 . S
O1261 Co1258 1.970 . S
O1261 C1260 1.258 . S
O1262 Co1259 1.966 . S
O1262 C1260 1.263 . S
C1263 O1264 1.235 . S
C1263 O1290 1.289 . S
O1264 C1263 1.235 . S
C1265 C1267 1.400 . S
C1265 N1268 1.351 . S
C1265 C1270 1.501 . S
C1266 C1267 1.387 . S
C1266 N1269 1.341 . S
C1267 C1265 1.400 . S
C1267 C1266 1.387 . S
N1268 Co1259 2.022 . S
N1268 C1265 1.351 . S
N1268 N1269 1.365 . S
N1269 C1266 1.341 . S
N1269 N1268 1.365 . S
N1269 H1289 0.862 . S
C1270 C1265 1.501 . S
C1270 H1271 0.961 . S
C1270 H1272 0.961 . S
C1270 H1273 0.960 . S
H1271 C1270 0.961 . S
H1272 C1270 0.961 . S
H1273 C1270 0.960 . S
C1274 N1275 1.342 . S
C1274 C1278 1.401 . S
C1274 C1279 1.499 . S
N1275 Co1258 1.989 . S
N1275 C1274 1.342 . S
N1275 N1276 1.388 . S
N1276 Co1259 1.993 . S
N1276 N1275 1.388 . S
N1276 C1277 1.346 . S
C1277 N1276 1.346 . S
C1277 C1278 1.396 . S
C1277 C1287 1.510 . S
C1278 C1274 1.401 . S
C1278 C1277 1.396 . S
C1279 C1274 1.499 . S
C1279 H1280 0.959 . S
C1279 H1281 0.960 . S
C1279 H1282 0.961 1_565 S
H1280 C1279 0.959 . S
H1281 C1279 0.960 . S
H1282 C1279 0.961 1_545 S
O1283 Co1258 1.967 . S
O1283 C1291 1.258 . S
O1284 Co1259 1.941 . S
O1284 C1291 1.266 . S
H1285 C1287 0.959 . S
H1286 C1287 0.961 . S
C1287 C1277 1.510 . S
C1287 H1285 0.959 . S
C1287 H1286 0.961 . S
C1287 H1288 0.960 . S
H1288 C1287 0.960 . S
H1289 N1269 0.862 . S
O1290 Co1258 1.920 . S
O1290 C1263 1.289 . S
C1291 O1283 1.258 . S
C1291 O1284 1.266 . S
Co1292 O1295 1.970 . S
Co1292 N1309 1.989 . S
Co1292 O1317 1.967 . S
Co1292 O1324 1.920 . S
Co1293 O1296 1.966 . S
Co1293 N1302 2.022 . S
Co1293 N1310 1.993 . S
Co1293 O1318 1.941 . S
C1294 O1295 1.258 . S
C1294 O1296 1.263 . S
O1295 Co1292 1.970 . S
O1295 C1294 1.258 . S
O1296 Co1293 1.966 . S
O1296 C1294 1.263 . S
C1297 O1298 1.235 . S
C1297 O1324 1.289 . S
O1298 C1297 1.235 . S
C1299 C1301 1.400 . S
C1299 N1302 1.351 . S
C1299 C1304 1.501 . S
C1300 C1301 1.387 . S
C1300 N1303 1.341 . S
C1301 C1299 1.400 . S
C1301 C1300 1.387 . S
N1302 Co1293 2.022 . S
N1302 C1299 1.351 . S
N1302 N1303 1.365 . S
N1303 C1300 1.341 . S
N1303 N1302 1.365 . S
N1303 H1323 0.862 . S
C1304 C1299 1.501 . S
C1304 H1305 0.961 . S
C1304 H1306 0.961 . S
C1304 H1307 0.960 . S
H1305 C1304 0.961 . S
H1306 C1304 0.961 . S
H1307 C1304 0.960 . S
C1308 N1309 1.342 . S
C1308 C1312 1.401 . S
C1308 C1313 1.499 . S
N1309 Co1292 1.989 . S
N1309 C1308 1.342 . S
N1309 N1310 1.388 . S
N1310 Co1293 1.993 . S
N1310 N1309 1.388 . S
N1310 C1311 1.346 . S
C1311 N1310 1.346 . S
C1311 C1312 1.396 . S
C1311 C1321 1.510 . S
C1312 C1308 1.401 . S
C1312 C1311 1.396 . S
C1313 C1308 1.499 . S
C1313 H1314 0.959 . S
C1313 H1315 0.960 . S
C1313 H1316 0.961 . S
H1314 C1313 0.959 . S
H1315 C1313 0.960 . S
H1316 C1313 0.961 . S
O1317 Co1292 1.967 . S
O1317 C1325 1.258 . S
O1318 Co1293 1.941 . S
O1318 C1325 1.266 . S
H1319 C1321 0.959 . S
H1320 C1321 0.961 . S
C1321 C1311 1.510 . S
C1321 H1319 0.959 . S
C1321 H1320 0.961 . S
C1321 H1322 0.960 . S
H1322 C1321 0.960 . S
H1323 N1303 0.862 . S
O1324 Co1292 1.920 . S
O1324 C1297 1.289 . S
C1325 O1317 1.258 . S
C1325 O1318 1.266 . S
Co1326 O1329 1.970 . S
Co1326 N1343 1.989 . S
Co1326 O1351 1.967 . S
Co1326 O1358 1.920 . S
Co1327 O1330 1.966 . S
Co1327 N1336 2.022 . S
Co1327 N1344 1.993 . S
Co1327 O1352 1.941 . S
C1328 O1329 1.258 . S
C1328 O1330 1.263 . S
O1329 Co1326 1.970 . S
O1329 C1328 1.258 . S
O1330 Co1327 1.966 . S
O1330 C1328 1.263 . S
C1331 O1332 1.235 . S
C1331 O1358 1.289 . S
O1332 C1331 1.235 . S
C1333 C1335 1.400 . S
C1333 N1336 1.351 . S
C1333 C1338 1.501 . S
C1334 C1335 1.387 . S
C1334 N1337 1.341 . S
C1335 C1333 1.400 . S
C1335 C1334 1.387 . S
N1336 Co1327 2.022 . S
N1336 C1333 1.351 . S
N1336 N1337 1.365 . S
N1337 C1334 1.341 . S
N1337 N1336 1.365 . S
N1337 H1357 0.862 . S
C1338 C1333 1.501 . S
C1338 H1339 0.961 . S
C1338 H1340 0.961 . S
C1338 H1341 0.960 . S
H1339 C1338 0.961 . S
H1340 C1338 0.961 . S
H1341 C1338 0.960 . S
C1342 N1343 1.342 . S
C1342 C1346 1.401 . S
C1342 C1347 1.499 . S
N1343 Co1326 1.989 . S
N1343 C1342 1.342 . S
N1343 N1344 1.388 . S
N1344 Co1327 1.993 . S
N1344 N1343 1.388 . S
N1344 C1345 1.346 . S
C1345 N1344 1.346 . S
C1345 C1346 1.396 . S
C1345 C1355 1.510 . S
C1346 C1342 1.401 . S
C1346 C1345 1.396 . S
C1347 C1342 1.499 . S
C1347 H1348 0.959 . S
C1347 H1349 0.960 . S
C1347 H1350 0.961 . S
H1348 C1347 0.959 . S
H1349 C1347 0.960 . S
H1350 C1347 0.961 . S
O1351 Co1326 1.967 . S
O1351 C1359 1.258 . S
O1352 Co1327 1.941 . S
O1352 C1359 1.266 . S
H1353 C1355 0.959 . S
H1354 C1355 0.961 . S
C1355 C1345 1.510 . S
C1355 H1353 0.959 . S
C1355 H1354 0.961 . S
C1355 H1356 0.960 . S
H1356 C1355 0.960 . S
H1357 N1337 0.862 . S
O1358 Co1326 1.920 . S
O1358 C1331 1.289 . S
C1359 O1351 1.258 . S
C1359 O1352 1.266 . S
Co1360 O1363 1.970 . S
Co1360 N1377 1.989 . S
Co1360 O1385 1.967 . S
Co1360 O1392 1.920 . S
Co1361 O1364 1.966 . S
Co1361 N1370 2.022 . S
Co1361 N1378 1.993 . S
Co1361 O1386 1.941 . S
C1362 O1363 1.258 . S
C1362 O1364 1.263 . S
O1363 Co1360 1.970 . S
O1363 C1362 1.258 . S
O1364 Co1361 1.966 . S
O1364 C1362 1.263 . S
C1365 O1366 1.235 . S
C1365 O1392 1.289 . S
O1366 C1365 1.235 . S
C1367 C1369 1.400 . S
C1367 N1370 1.351 . S
C1367 C1372 1.501 . S
C1368 C1369 1.387 . S
C1368 N1371 1.341 . S
C1369 C1367 1.400 . S
C1369 C1368 1.387 . S
N1370 Co1361 2.022 . S
N1370 C1367 1.351 . S
N1370 N1371 1.365 . S
N1371 C1368 1.341 . S
N1371 N1370 1.365 . S
N1371 H1391 0.862 . S
C1372 C1367 1.501 . S
C1372 H1373 0.961 . S
C1372 H1374 0.961 . S
C1372 H1375 0.960 . S
H1373 C1372 0.961 . S
H1374 C1372 0.961 . S
H1375 C1372 0.960 . S
C1376 N1377 1.342 . S
C1376 C1380 1.401 . S
C1376 C1381 1.499 . S
N1377 Co1360 1.989 . S
N1377 C1376 1.342 . S
N1377 N1378 1.388 . S
N1378 Co1361 1.993 . S
N1378 N1377 1.388 . S
N1378 C1379 1.346 . S
C1379 N1378 1.346 . S
C1379 C1380 1.396 . S
C1379 C1389 1.510 . S
C1380 C1376 1.401 . S
C1380 C1379 1.396 . S
C1381 C1376 1.499 . S
C1381 H1382 0.959 . S
C1381 H1383 0.960 . S
C1381 H1384 0.961 . S
H1382 C1381 0.959 . S
H1383 C1381 0.960 . S
H1384 C1381 0.961 . S
O1385 Co1360 1.967 . S
O1385 C1393 1.258 . S
O1386 Co1361 1.941 . S
O1386 C1393 1.266 . S
H1387 C1389 0.959 . S
H1388 C1389 0.961 . S
C1389 C1379 1.510 . S
C1389 H1387 0.959 . S
C1389 H1388 0.961 . S
C1389 H1390 0.960 . S
H1390 C1389 0.960 . S
H1391 N1371 0.862 . S
O1392 Co1360 1.920 . S
O1392 C1365 1.289 . S
C1393 O1385 1.258 . S
C1393 O1386 1.266 . S
Co1394 O1397 1.970 . S
Co1394 N1411 1.989 . S
Co1394 O1419 1.967 . S
Co1394 O1426 1.920 . S
Co1395 O1398 1.966 . S
Co1395 N1404 2.022 . S
Co1395 N1412 1.993 . S
Co1395 O1420 1.941 . S
C1396 O1397 1.258 . S
C1396 O1398 1.263 . S
O1397 Co1394 1.970 . S
O1397 C1396 1.258 . S
O1398 Co1395 1.966 . S
O1398 C1396 1.263 . S
C1399 O1400 1.235 . S
C1399 O1426 1.289 . S
O1400 C1399 1.235 . S
C1401 C1403 1.400 . S
C1401 N1404 1.351 . S
C1401 C1406 1.501 . S
C1402 C1403 1.387 . S
C1402 N1405 1.341 . S
C1403 C1401 1.400 . S
C1403 C1402 1.387 . S
N1404 Co1395 2.022 . S
N1404 C1401 1.351 . S
N1404 N1405 1.365 . S
N1405 C1402 1.341 . S
N1405 N1404 1.365 . S
N1405 H1425 0.862 . S
C1406 C1401 1.501 . S
C1406 H1407 0.961 . S
C1406 H1408 0.961 . S
C1406 H1409 0.960 . S
H1407 C1406 0.961 . S
H1408 C1406 0.961 . S
H1409 C1406 0.960 . S
C1410 N1411 1.342 . S
C1410 C1414 1.401 . S
C1410 C1415 1.499 . S
N1411 Co1394 1.989 . S
N1411 C1410 1.342 . S
N1411 N1412 1.388 . S
N1412 Co1395 1.993 . S
N1412 N1411 1.388 . S
N1412 C1413 1.346 . S
C1413 N1412 1.346 . S
C1413 C1414 1.396 . S
C1413 C1423 1.510 . S
C1414 C1410 1.401 . S
C1414 C1413 1.396 . S
C1415 C1410 1.499 . S
C1415 H1416 0.959 . S
C1415 H1417 0.960 . S
C1415 H1418 0.961 . S
H1416 C1415 0.959 . S
H1417 C1415 0.960 . S
H1418 C1415 0.961 . S
O1419 Co1394 1.967 . S
O1419 C1427 1.258 . S
O1420 Co1395 1.941 . S
O1420 C1427 1.266 . S
H1421 C1423 0.959 . S
H1422 C1423 0.961 . S
C1423 C1413 1.510 . S
C1423 H1421 0.959 . S
C1423 H1422 0.961 . S
C1423 H1424 0.960 . S
H1424 C1423 0.960 . S
H1425 N1405 0.862 . S
O1426 Co1394 1.920 . S
O1426 C1399 1.289 . S
C1427 O1419 1.258 . S
C1427 O1420 1.266 . S
Co1428 O1431 1.970 . S
Co1428 N1445 1.989 . S
Co1428 O1453 1.967 . S
Co1428 O1460 1.920 . S
Co1429 O1432 1.966 . S
Co1429 N1438 2.022 . S
Co1429 N1446 1.993 . S
Co1429 O1454 1.941 . S
C1430 O1431 1.258 . S
C1430 O1432 1.263 . S
O1431 Co1428 1.970 . S
O1431 C1430 1.258 . S
O1432 Co1429 1.966 . S
O1432 C1430 1.263 . S
C1433 O1434 1.235 . S
C1433 O1460 1.289 . S
O1434 C1433 1.235 . S
C1435 C1437 1.400 . S
C1435 N1438 1.351 . S
C1435 C1440 1.501 . S
C1436 C1437 1.387 . S
C1436 N1439 1.341 . S
C1437 C1435 1.400 . S
C1437 C1436 1.387 . S
N1438 Co1429 2.022 . S
N1438 C1435 1.351 . S
N1438 N1439 1.365 . S
N1439 C1436 1.341 . S
N1439 N1438 1.365 . S
N1439 H1459 0.862 . S
C1440 C1435 1.501 . S
C1440 H1441 0.961 . S
C1440 H1442 0.961 . S
C1440 H1443 0.960 . S
H1441 C1440 0.961 . S
H1442 C1440 0.961 . S
H1443 C1440 0.960 . S
C1444 N1445 1.342 . S
C1444 C1448 1.401 . S
C1444 C1449 1.499 . S
N1445 Co1428 1.989 . S
N1445 C1444 1.342 . S
N1445 N1446 1.388 . S
N1446 Co1429 1.993 . S
N1446 N1445 1.388 . S
N1446 C1447 1.346 . S
C1447 N1446 1.346 . S
C1447 C1448 1.396 . S
C1447 C1457 1.510 . S
C1448 C1444 1.401 . S
C1448 C1447 1.396 . S
C1449 C1444 1.499 . S
C1449 H1450 0.959 . S
C1449 H1451 0.960 . S
C1449 H1452 0.961 . S
H1450 C1449 0.959 . S
H1451 C1449 0.960 . S
H1452 C1449 0.961 . S
O1453 Co1428 1.967 . S
O1453 C1461 1.258 . S
O1454 Co1429 1.941 . S
O1454 C1461 1.266 . S
H1455 C1457 0.959 . S
H1456 C1457 0.961 . S
C1457 C1447 1.510 . S
C1457 H1455 0.959 . S
C1457 H1456 0.961 . S
C1457 H1458 0.960 . S
H1458 C1457 0.960 . S
H1459 N1439 0.862 . S
O1460 Co1428 1.920 . S
O1460 C1433 1.289 . S
C1461 O1453 1.258 . S
C1461 O1454 1.266 . S
Co1462 O1465 1.970 . S
Co1462 N1479 1.989 . S
Co1462 O1487 1.967 . S
Co1462 O1494 1.920 . S
Co1463 O1466 1.966 . S
Co1463 N1472 2.022 . S
Co1463 N1480 1.993 . S
Co1463 O1488 1.941 . S
C1464 O1465 1.258 . S
C1464 O1466 1.263 . S
O1465 Co1462 1.970 . S
O1465 C1464 1.258 . S
O1466 Co1463 1.966 . S
O1466 C1464 1.263 . S
C1467 O1468 1.235 . S
C1467 O1494 1.289 . S
O1468 C1467 1.235 . S
C1469 C1471 1.400 . S
C1469 N1472 1.351 . S
C1469 C1474 1.501 . S
C1470 C1471 1.387 . S
C1470 N1473 1.341 . S
C1471 C1469 1.400 . S
C1471 C1470 1.387 . S
N1472 Co1463 2.022 . S
N1472 C1469 1.351 . S
N1472 N1473 1.365 . S
N1473 C1470 1.341 . S
N1473 N1472 1.365 . S
N1473 H1493 0.862 . S
C1474 C1469 1.501 . S
C1474 H1475 0.961 . S
C1474 H1476 0.961 . S
C1474 H1477 0.960 . S
H1475 C1474 0.961 . S
H1476 C1474 0.961 . S
H1477 C1474 0.960 . S
C1478 N1479 1.342 . S
C1478 C1482 1.401 . S
C1478 C1483 1.499 . S
N1479 Co1462 1.989 . S
N1479 C1478 1.342 . S
N1479 N1480 1.388 . S
N1480 Co1463 1.993 . S
N1480 N1479 1.388 . S
N1480 C1481 1.346 . S
C1481 N1480 1.346 . S
C1481 C1482 1.396 . S
C1481 C1491 1.510 . S
C1482 C1478 1.401 . S
C1482 C1481 1.396 . S
C1483 C1478 1.499 . S
C1483 H1484 0.959 . S
C1483 H1485 0.960 . S
C1483 H1486 0.961 . S
H1484 C1483 0.959 . S
H1485 C1483 0.960 . S
H1486 C1483 0.961 . S
O1487 Co1462 1.967 . S
O1487 C1495 1.258 . S
O1488 Co1463 1.941 . S
O1488 C1495 1.266 . S
H1489 C1491 0.959 . S
H1490 C1491 0.961 . S
C1491 C1481 1.510 . S
C1491 H1489 0.959 . S
C1491 H1490 0.961 . S
C1491 H1492 0.960 . S
H1492 C1491 0.960 . S
H1493 N1473 0.862 . S
O1494 Co1462 1.920 . S
O1494 C1467 1.289 . S
C1495 O1487 1.258 . S
C1495 O1488 1.266 . S
Co1496 O1499 1.970 . S
Co1496 N1513 1.989 . S
Co1496 O1521 1.967 . S
Co1496 O1528 1.920 . S
Co1497 O1500 1.966 . S
Co1497 N1506 2.022 . S
Co1497 N1514 1.993 . S
Co1497 O1522 1.941 . S
C1498 O1499 1.258 . S
C1498 O1500 1.263 . S
O1499 Co1496 1.970 . S
O1499 C1498 1.258 . S
O1500 Co1497 1.966 . S
O1500 C1498 1.263 . S
C1501 O1502 1.235 . S
C1501 O1528 1.289 . S
O1502 C1501 1.235 . S
C1503 C1505 1.400 . S
C1503 N1506 1.351 . S
C1503 C1508 1.501 . S
C1504 C1505 1.387 . S
C1504 N1507 1.341 . S
C1505 C1503 1.400 . S
C1505 C1504 1.387 . S
N1506 Co1497 2.022 . S
N1506 C1503 1.351 . S
N1506 N1507 1.365 . S
N1507 C1504 1.341 . S
N1507 N1506 1.365 . S
N1507 H1527 0.862 . S
C1508 C1503 1.501 . S
C1508 H1509 0.961 . S
C1508 H1510 0.961 . S
C1508 H1511 0.960 . S
H1509 C1508 0.961 . S
H1510 C1508 0.961 . S
H1511 C1508 0.960 . S
C1512 N1513 1.342 . S
C1512 C1516 1.401 . S
C1512 C1517 1.499 . S
N1513 Co1496 1.989 . S
N1513 C1512 1.342 . S
N1513 N1514 1.388 . S
N1514 Co1497 1.993 . S
N1514 N1513 1.388 . S
N1514 C1515 1.346 . S
C1515 N1514 1.346 . S
C1515 C1516 1.396 . S
C1515 C1525 1.510 . S
C1516 C1512 1.401 . S
C1516 C1515 1.396 . S
C1517 C1512 1.499 . S
C1517 H1518 0.959 . S
C1517 H1519 0.960 . S
C1517 H1520 0.961 1_455 S
H1518 C1517 0.959 . S
H1519 C1517 0.960 . S
H1520 C1517 0.961 1_655 S
O1521 Co1496 1.967 . S
O1521 C1529 1.258 . S
O1522 Co1497 1.941 . S
O1522 C1529 1.266 . S
H1523 C1525 0.959 . S
H1524 C1525 0.961 . S
C1525 C1515 1.510 . S
C1525 H1523 0.959 . S
C1525 H1524 0.961 . S
C1525 H1526 0.960 . S
H1526 C1525 0.960 . S
H1527 N1507 0.862 . S
O1528 Co1496 1.920 . S
O1528 C1501 1.289 . S
C1529 O1521 1.258 . S
C1529 O1522 1.266 . S
Co1530 O1533 1.970 . S
Co1530 N1547 1.989 . S
Co1530 O1555 1.967 . S
Co1530 O1562 1.920 . S
Co1531 O1534 1.966 . S
Co1531 N1540 2.022 . S
Co1531 N1548 1.993 . S
Co1531 O1556 1.941 . S
C1532 O1533 1.258 . S
C1532 O1534 1.263 . S
O1533 Co1530 1.970 . S
O1533 C1532 1.258 . S
O1534 Co1531 1.966 . S
O1534 C1532 1.263 . S
C1535 O1536 1.235 . S
C1535 O1562 1.289 . S
O1536 C1535 1.235 . S
C1537 C1539 1.400 . S
C1537 N1540 1.351 . S
C1537 C1542 1.501 . S
C1538 C1539 1.387 . S
C1538 N1541 1.341 . S
C1539 C1537 1.400 . S
C1539 C1538 1.387 . S
N1540 Co1531 2.022 . S
N1540 C1537 1.351 . S
N1540 N1541 1.365 . S
N1541 C1538 1.341 . S
N1541 N1540 1.365 . S
N1541 H1561 0.862 . S
C1542 C1537 1.501 . S
C1542 H1543 0.961 . S
C1542 H1544 0.961 . S
C1542 H1545 0.960 . S
H1543 C1542 0.961 . S
H1544 C1542 0.961 . S
H1545 C1542 0.960 . S
C1546 N1547 1.342 . S
C1546 C1550 1.401 . S
C1546 C1551 1.499 . S
N1547 Co1530 1.989 . S
N1547 C1546 1.342 . S
N1547 N1548 1.388 . S
N1548 Co1531 1.993 . S
N1548 N1547 1.388 . S
N1548 C1549 1.346 . S
C1549 N1548 1.346 . S
C1549 C1550 1.396 . S
C1549 C1559 1.510 . S
C1550 C1546 1.401 . S
C1550 C1549 1.396 . S
C1551 C1546 1.499 . S
C1551 H1552 0.959 . S
C1551 H1553 0.960 . S
C1551 H1554 0.961 . S
H1552 C1551 0.959 . S
H1553 C1551 0.960 . S
H1554 C1551 0.961 . S
O1555 Co1530 1.967 . S
O1555 C1563 1.258 . S
O1556 Co1531 1.941 . S
O1556 C1563 1.266 . S
H1557 C1559 0.959 . S
H1558 C1559 0.961 . S
C1559 C1549 1.510 . S
C1559 H1557 0.959 . S
C1559 H1558 0.961 . S
C1559 H1560 0.960 . S
H1560 C1559 0.960 . S
H1561 N1541 0.862 . S
O1562 Co1530 1.920 . S
O1562 C1535 1.289 . S
C1563 O1555 1.258 . S
C1563 O1556 1.266 . S
Co1564 O1567 1.970 . S
Co1564 N1581 1.989 . S
Co1564 O1589 1.967 . S
Co1564 O1596 1.920 . S
Co1565 O1568 1.966 . S
Co1565 N1574 2.022 . S
Co1565 N1582 1.993 . S
Co1565 O1590 1.941 . S
C1566 O1567 1.258 . S
C1566 O1568 1.263 . S
O1567 Co1564 1.970 . S
O1567 C1566 1.258 . S
O1568 Co1565 1.966 . S
O1568 C1566 1.263 . S
C1569 O1570 1.235 . S
C1569 O1596 1.289 . S
O1570 C1569 1.235 . S
C1571 C1573 1.400 . S
C1571 N1574 1.351 . S
C1571 C1576 1.501 . S
C1572 C1573 1.387 . S
C1572 N1575 1.341 . S
C1573 C1571 1.400 . S
C1573 C1572 1.387 . S
N1574 Co1565 2.022 . S
N1574 C1571 1.351 . S
N1574 N1575 1.365 . S
N1575 C1572 1.341 . S
N1575 N1574 1.365 . S
N1575 H1595 0.862 . S
C1576 C1571 1.501 . S
C1576 H1577 0.961 . S
C1576 H1578 0.961 . S
C1576 H1579 0.960 . S
H1577 C1576 0.961 . S
H1578 C1576 0.961 . S
H1579 C1576 0.960 . S
C1580 N1581 1.342 . S
C1580 C1584 1.401 . S
C1580 C1585 1.499 . S
N1581 Co1564 1.989 . S
N1581 C1580 1.342 . S
N1581 N1582 1.388 . S
N1582 Co1565 1.993 . S
N1582 N1581 1.388 . S
N1582 C1583 1.346 . S
C1583 N1582 1.346 . S
C1583 C1584 1.396 . S
C1583 C1593 1.510 . S
C1584 C1580 1.401 . S
C1584 C1583 1.396 . S
C1585 C1580 1.499 . S
C1585 H1586 0.959 . S
C1585 H1587 0.960 . S
C1585 H1588 0.961 . S
H1586 C1585 0.959 . S
H1587 C1585 0.960 . S
H1588 C1585 0.961 . S
O1589 Co1564 1.967 . S
O1589 C1597 1.258 . S
O1590 Co1565 1.941 . S
O1590 C1597 1.266 . S
H1591 C1593 0.959 . S
H1592 C1593 0.961 . S
C1593 C1583 1.510 . S
C1593 H1591 0.959 . S
C1593 H1592 0.961 . S
C1593 H1594 0.960 . S
H1594 C1593 0.960 . S
H1595 N1575 0.862 . S
O1596 Co1564 1.920 . S
O1596 C1569 1.289 . S
C1597 O1589 1.258 . S
C1597 O1590 1.266 . S
Co1598 O1601 1.970 . S
Co1598 N1615 1.989 . S
Co1598 O1623 1.967 . S
Co1598 O1630 1.920 . S
Co1599 O1602 1.966 . S
Co1599 N1608 2.022 . S
Co1599 N1616 1.993 . S
Co1599 O1624 1.941 . S
C1600 O1601 1.258 . S
C1600 O1602 1.263 . S
O1601 Co1598 1.970 . S
O1601 C1600 1.258 . S
O1602 Co1599 1.966 . S
O1602 C1600 1.263 . S
C1603 O1604 1.235 . S
C1603 O1630 1.289 . S
O1604 C1603 1.235 . S
C1605 C1607 1.400 . S
C1605 N1608 1.351 . S
C1605 C1610 1.501 . S
C1606 C1607 1.387 . S
C1606 N1609 1.341 . S
C1607 C1605 1.400 . S
C1607 C1606 1.387 . S
N1608 Co1599 2.022 . S
N1608 C1605 1.351 . S
N1608 N1609 1.365 . S
N1609 C1606 1.341 . S
N1609 N1608 1.365 . S
N1609 H1629 0.862 . S
C1610 C1605 1.501 . S
C1610 H1611 0.961 . S
C1610 H1612 0.961 . S
C1610 H1613 0.960 . S
H1611 C1610 0.961 . S
H1612 C1610 0.961 . S
H1613 C1610 0.960 . S
C1614 N1615 1.342 . S
C1614 C1618 1.401 . S
C1614 C1619 1.499 . S
N1615 Co1598 1.989 . S
N1615 C1614 1.342 . S
N1615 N1616 1.388 . S
N1616 Co1599 1.993 . S
N1616 N1615 1.388 . S
N1616 C1617 1.346 . S
C1617 N1616 1.346 . S
C1617 C1618 1.396 . S
C1617 C1627 1.510 . S
C1618 C1614 1.401 . S
C1618 C1617 1.396 . S
C1619 C1614 1.499 . S
C1619 H1620 0.959 . S
C1619 H1621 0.960 . S
C1619 H1622 0.961 . S
H1620 C1619 0.959 . S
H1621 C1619 0.960 . S
H1622 C1619 0.961 . S
O1623 Co1598 1.967 . S
O1623 C1631 1.258 . S
O1624 Co1599 1.941 . S
O1624 C1631 1.266 . S
H1625 C1627 0.959 . S
H1626 C1627 0.961 . S
C1627 C1617 1.510 . S
C1627 H1625 0.959 . S
C1627 H1626 0.961 . S
C1627 H1628 0.960 . S
H1628 C1627 0.960 . S
H1629 N1609 0.862 . S
O1630 Co1598 1.920 . S
O1630 C1603 1.289 . S
C1631 O1623 1.258 . S
C1631 O1624 1.266 . S
C1632 C1633 1.387 . S
C1632 H1636 0.950 . S
C1632 C1641 1.390 . S
C1633 C1632 1.387 . S
C1633 C1635 1.387 . S
H1634 C1641 0.950 . S
C1635 C1633 1.387 . S
C1635 C1637 1.390 . S
C1635 H1639 0.950 . S
H1636 C1632 0.950 . S
C1637 C1635 1.390 . S
C1637 C1638 1.387 . S
C1637 H1640 0.950 . S
C1638 C1637 1.387 . S
C1638 C1641 1.387 . S
H1639 C1635 0.950 . S
H1640 C1637 0.950 . S
C1641 C1632 1.390 . S
C1641 H1634 0.950 . S
C1641 C1638 1.387 . S
C1642 C1643 1.372 1_556 S
C1642 H1646 0.960 . S
C1642 C1651 1.397 . S
C1643 C1642 1.372 1_554 S
C1643 C1645 1.387 . S
H1644 C1651 0.950 . S
C1645 C1643 1.387 . S
C1645 C1647 1.390 . S
C1645 H1649 0.950 . S
H1646 C1642 0.960 . S
C1647 C1645 1.390 . S
C1647 C1648 1.387 . S
C1647 H1650 0.950 . S
C1648 C1647 1.387 . S
C1648 C1651 1.387 1_554 S
H1649 C1645 0.950 . S
H1650 C1647 0.950 . S
C1651 C1642 1.397 . S
C1651 H1644 0.950 . S
C1651 C1648 1.387 1_556 S
C1652 C1653 1.387 . S
C1652 H1656 0.950 . S
C1652 C1661 1.390 . S
C1653 C1652 1.387 . S
C1653 C1655 1.387 . S
H1654 C1661 0.950 . S
C1655 C1653 1.387 . S
C1655 C1657 1.390 . S
C1655 H1659 0.950 . S
H1656 C1652 0.950 . S
C1657 C1655 1.390 . S
C1657 C1658 1.387 . S
C1657 H1660 0.950 . S
C1658 C1657 1.387 . S
C1658 C1661 1.387 . S
H1659 C1655 0.950 . S
H1660 C1657 0.950 . S
C1661 C1652 1.390 . S
C1661 H1654 0.950 . S
C1661 C1658 1.387 . S
C1662 C1663 1.387 . S
C1662 H1666 0.950 . S
C1662 C1671 1.390 . S
C1663 C1662 1.387 . S
C1663 C1665 1.387 1_554 S
H1664 C1671 0.950 . S
C1665 C1663 1.387 1_556 S
C1665 C1667 1.390 . S
C1665 H1669 0.950 . S
H1666 C1662 0.950 . S
C1667 C1665 1.390 . S
C1667 C1668 1.387 1_556 S
C1667 H1670 0.950 . S
C1668 C1667 1.387 1_554 S
C1668 C1671 1.387 . S
H1669 C1665 0.950 . S
H1670 C1667 0.950 . S
C1671 C1662 1.390 . S
C1671 H1664 0.950 . S
C1671 C1668 1.387 . S
C1672 C1673 1.387 . S
C1672 H1676 0.950 . S
C1672 C1681 1.390 . S
C1673 C1672 1.387 . S
C1673 C1675 1.387 . S
H1674 C1681 0.950 . S
C1675 C1673 1.387 . S
C1675 C1677 1.390 . S
C1675 H1679 0.950 . S
H1676 C1672 0.950 . S
C1677 C1675 1.390 . S
C1677 C1678 1.387 . S
C1677 H1680 0.950 . S
C1678 C1677 1.387 . S
C1678 C1681 1.387 . S
H1679 C1675 0.950 . S
H1680 C1677 0.950 . S
C1681 C1672 1.390 . S
C1681 H1674 0.950 . S
C1681 C1678 1.387 . S
C1682 C1683 1.387 1_455 S
C1682 H1686 0.965 . S
C1682 C1691 1.390 . S
C1683 C1682 1.387 1_655 S
C1683 C1685 1.387 1_655 S
H1684 C1691 0.950 . S
C1685 C1683 1.387 1_455 S
C1685 C1687 1.385 1_556 S
C1685 H1689 0.950 . S
H1686 C1682 0.965 . S
C1687 C1685 1.385 1_554 S
C1687 C1688 1.385 1_554 S
C1687 H1690 0.958 . S
C1688 C1687 1.385 1_556 S
C1688 C1691 1.387 . S
H1689 C1685 0.950 . S
H1690 C1687 0.958 . S
C1691 C1682 1.390 . S
C1691 H1684 0.950 . S
C1691 C1688 1.387 . S
C1692 C1693 1.387 . S
C1692 H1696 0.950 . S
C1692 C1701 1.390 . S
C1693 C1692 1.387 . S
C1693 C1695 1.387 . S
H1694 C1701 0.950 . S
C1695 C1693 1.387 . S
C1695 C1697 1.390 . S
C1695 H1699 0.950 . S
H1696 C1692 0.950 . S
C1697 C1695 1.390 . S
C1697 C1698 1.387 . S
C1697 H1700 0.950 . S
C1698 C1697 1.387 . S
C1698 C1701 1.387 . S
H1699 C1695 0.950 . S
H1700 C1697 0.950 . S
C1701 C1692 1.390 . S
C1701 H1694 0.950 . S
C1701 C1698 1.387 . S
C1702 C1703 1.387 1_655 S
C1702 H1706 0.950 . S
C1702 C1711 1.390 . S
C1703 C1702 1.387 1_455 S
C1703 C1705 1.387 1_455 S
H1704 C1711 0.950 . S
C1705 C1703 1.387 1_655 S
C1705 C1707 1.390 . S
C1705 H1709 0.938 1_655 S
H1706 C1702 0.950 . S
C1707 C1705 1.390 . S
C1707 C1708 1.387 . S
C1707 H1710 0.950 . S
C1708 C1707 1.387 . S
C1708 C1711 1.387 . S
H1709 C1705 0.938 1_455 S
H1710 C1707 0.950 . S
C1711 C1702 1.390 . S
C1711 H1704 0.950 . S
C1711 C1708 1.387 . S
C1712 C1713 1.387 . S
C1712 H1716 0.950 . S
C1712 C1721 1.390 . S
C1713 C1712 1.387 . S
C1713 C1715 1.387 . S
H1714 C1721 0.950 . S
C1715 C1713 1.387 . S
C1715 C1717 1.390 . S
C1715 H1719 0.950 . S
H1716 C1712 0.950 . S
C1717 C1715 1.390 . S
C1717 C1718 1.387 . S
C1717 H1720 0.950 . S
C1718 C1717 1.387 . S
C1718 C1721 1.387 . S
H1719 C1715 0.950 . S
H1720 C1717 0.950 . S
C1721 C1712 1.390 . S
C1721 H1714 0.950 . S
C1721 C1718 1.387 . S
C1722 C1723 1.387 1_554 S
C1722 H1726 0.950 1_554 S
C1722 C1731 1.390 . S
C1723 C1722 1.387 1_556 S
C1723 C1725 1.387 1_556 S
H1724 C1731 0.950 . S
C1725 C1723 1.387 1_554 S
C1725 C1727 1.390 . S
C1725 H1729 0.950 . S
H1726 C1722 0.950 1_556 S
C1727 C1725 1.390 . S
C1727 C1728 1.387 . S
C1727 H1730 0.950 . S
C1728 C1727 1.387 . S
C1728 C1731 1.387 . S
H1729 C1725 0.950 . S
H1730 C1727 0.950 . S
C1731 C1722 1.390 . S
C1731 H1724 0.950 . S
C1731 C1728 1.387 . S
C1732 C1733 1.387 . S
C1732 H1736 0.950 . S
C1732 C1741 1.390 . S
C1733 C1732 1.387 . S
C1733 C1735 1.387 . S
H1734 C1741 0.950 . S
C1735 C1733 1.387 . S
C1735 C1737 1.390 . S
C1735 H1739 0.950 . S
H1736 C1732 0.950 . S
C1737 C1735 1.390 . S
C1737 C1738 1.387 . S
C1737 H1740 0.950 . S
C1738 C1737 1.387 . S
C1738 C1741 1.387 . S
H1739 C1735 0.950 . S
H1740 C1737 0.950 . S
C1741 C1732 1.390 . S
C1741 H1734 0.950 . S
C1741 C1738 1.387 . S
C1742 C1743 1.387 1_554 S
C1742 H1746 0.950 . S
C1742 C1751 1.390 . S
C1743 C1742 1.387 1_556 S
C1743 C1745 1.387 1_566 S
H1744 C1751 0.950 . S
C1745 C1743 1.387 1_544 S
C1745 C1747 1.390 . S
C1745 H1749 0.948 1_554 S
H1746 C1742 0.950 . S
C1747 C1745 1.390 . S
C1747 C1748 1.387 1_545 S
C1747 H1750 0.950 . S
C1748 C1747 1.387 1_565 S
C1748 C1751 1.387 . S
H1749 C1745 0.948 1_556 S
H1750 C1747 0.950 . S
C1751 C1742 1.390 . S
C1751 H1744 0.950 . S
C1751 C1748 1.387 . S
C1752 C1753 1.387 . S
C1752 H1756 0.950 . S
C1752 C1761 1.390 . S
C1753 C1752 1.387 . S
C1753 C1755 1.387 . S
H1754 C1761 0.950 . S
C1755 C1753 1.387 . S
C1755 C1757 1.390 . S
C1755 H1759 0.950 . S
H1756 C1752 0.950 . S
C1757 C1755 1.390 . S
C1757 C1758 1.387 . S
C1757 H1760 0.950 . S
C1758 C1757 1.387 . S
C1758 C1761 1.387 . S
H1759 C1755 0.950 . S
H1760 C1757 0.950 . S
C1761 C1752 1.390 . S
C1761 H1754 0.950 . S
C1761 C1758 1.387 . S
C1762 C1763 1.387 . S
C1762 H1766 0.950 . S
C1762 C1771 1.390 . S
C1763 C1762 1.387 . S
C1763 C1765 1.387 . S
H1764 C1771 0.950 . S
C1765 C1763 1.387 . S
C1765 C1767 1.390 . S
C1765 H1769 0.950 . S
H1766 C1762 0.950 . S
C1767 C1765 1.390 . S
C1767 C1768 1.387 1_556 S
C1767 H1770 0.950 1_556 S
C1768 C1767 1.387 1_554 S
C1768 C1771 1.387 1_554 S
H1769 C1765 0.950 . S
H1770 C1767 0.950 1_554 S
C1771 C1762 1.390 . S
C1771 H1764 0.950 . S
C1771 C1768 1.387 1_556 S
C1772 C1773 1.387 . S
C1772 H1776 0.950 . S
C1772 C1781 1.390 . S
C1773 C1772 1.387 . S
C1773 C1775 1.387 . S
H1774 C1781 0.950 . S
C1775 C1773 1.387 . S
C1775 C1777 1.390 . S
C1775 H1779 0.950 . S
H1776 C1772 0.950 . S
C1777 C1775 1.390 . S
C1777 C1778 1.387 . S
C1777 H1780 0.950 . S
C1778 C1777 1.387 . S
C1778 C1781 1.387 . S
H1779 C1775 0.950 . S
H1780 C1777 0.950 . S
C1781 C1772 1.390 . S
C1781 H1774 0.950 . S
C1781 C1778 1.387 . S
C1782 C1783 1.387 1_556 S
C1782 H1786 0.950 . S
C1782 C1791 1.390 . S
C1783 C1782 1.387 1_554 S
C1783 C1785 1.387 1_554 S
H1784 C1791 0.950 . S
C1785 C1783 1.387 1_556 S
C1785 C1787 1.390 . S
C1785 H1789 0.929 1_556 S
H1786 C1782 0.950 . S
C1787 C1785 1.390 . S
C1787 C1788 1.387 . S
C1787 H1790 0.950 . S
C1788 C1787 1.387 . S
C1788 C1791 1.387 . S
H1789 C1785 0.929 1_554 S
H1790 C1787 0.950 . S
C1791 C1782 1.390 . S
C1791 H1784 0.950 . S
C1791 C1788 1.387 . S
C1792 C1793 1.387 . S
C1792 H1796 0.950 . S
C1792 C1801 1.390 . S
C1793 C1792 1.387 . S
C1793 C1795 1.387 . S
H1794 C1801 0.950 . S
C1795 C1793 1.387 . S
C1795 C1797 1.390 . S
C1795 H1799 0.950 . S
H1796 C1792 0.950 . S
C1797 C1795 1.390 . S
C1797 C1798 1.387 . S
C1797 H1800 0.950 . S
C1798 C1797 1.387 . S
C1798 C1801 1.387 . S
H1799 C1795 0.950 . S
H1800 C1797 0.950 . S
C1801 C1792 1.390 . S
C1801 H1794 0.950 . S
C1801 C1798 1.387 . S
C1802 C1803 1.387 . S
C1802 H1806 0.950 . S
C1802 C1811 1.390 . S
C1803 C1802 1.387 . S
C1803 C1805 1.387 . S
H1804 C1811 0.950 . S
C1805 C1803 1.387 . S
C1805 C1807 1.390 . S
C1805 H1809 0.950 . S
H1806 C1802 0.950 . S
C1807 C1805 1.390 . S
C1807 C1808 1.387 . S
C1807 H1810 0.950 . S
C1808 C1807 1.387 . S
C1808 C1811 1.387 . S
H1809 C1805 0.950 . S
H1810 C1807 0.950 . S
C1811 C1802 1.390 . S
C1811 H1804 0.950 . S
C1811 C1808 1.387 . S
C1812 C1813 1.387 . S
C1812 H1816 0.950 . S
C1812 C1821 1.390 . S
C1813 C1812 1.387 . S
C1813 C1815 1.387 . S
H1814 C1821 0.950 . S
C1815 C1813 1.387 . S
C1815 C1817 1.390 . S
C1815 H1819 0.950 . S
H1816 C1812 0.950 . S
C1817 C1815 1.390 . S
C1817 C1818 1.387 . S
C1817 H1820 0.952 . S
C1818 C1817 1.387 . S
C1818 C1821 1.387 . S
H1819 C1815 0.950 . S
H1820 C1817 0.952 . S
C1821 C1812 1.390 . S
C1821 H1814 0.950 . S
C1821 C1818 1.387 . S
C1822 C1823 1.387 . S
C1822 H1826 0.950 . S
C1822 C1831 1.390 . S
C1823 C1822 1.387 . S
C1823 C1825 1.387 . S
H1824 C1831 0.950 . S
C1825 C1823 1.387 . S
C1825 C1827 1.390 . S
C1825 H1829 0.950 . S
H1826 C1822 0.950 . S
C1827 C1825 1.390 . S
C1827 C1828 1.387 . S
C1827 H1830 0.950 . S
C1828 C1827 1.387 . S
C1828 C1831 1.387 . S
H1829 C1825 0.950 . S
H1830 C1827 0.950 . S
C1831 C1822 1.390 . S
C1831 H1824 0.950 . S
C1831 C1828 1.387 . S
C1832 C1833 1.387 . S
C1832 H1836 0.950 . S
C1832 C1841 1.390 . S
C1833 C1832 1.387 . S
C1833 C1835 1.387 . S
H1834 C1841 0.950 . S
C1835 C1833 1.387 . S
C1835 C1837 1.390 . S
C1835 H1839 0.950 . S
H1836 C1832 0.950 . S
C1837 C1835 1.390 . S
C1837 C1838 1.387 . S
C1837 H1840 0.950 . S
C1838 C1837 1.387 . S
C1838 C1841 1.387 . S
H1839 C1835 0.950 . S
H1840 C1837 0.950 . S
C1841 C1832 1.390 . S
C1841 H1834 0.950 . S
C1841 C1838 1.387 . S
C1842 C1843 1.387 . S
C1842 H1846 0.950 . S
C1842 C1851 1.390 . S
C1843 C1842 1.387 . S
C1843 C1845 1.387 . S
H1844 C1851 0.950 . S
C1845 C1843 1.387 . S
C1845 C1847 1.390 . S
C1845 H1849 0.950 . S
H1846 C1842 0.950 . S
C1847 C1845 1.390 . S
C1847 C1848 1.387 . S
C1847 H1850 0.950 . S
C1848 C1847 1.387 . S
C1848 C1851 1.387 . S
H1849 C1845 0.950 . S
H1850 C1847 0.950 . S
C1851 C1842 1.390 . S
C1851 H1844 0.950 . S
C1851 C1848 1.387 . S
C1852 C1853 1.387 . S
C1852 H1856 0.950 . S
C1852 C1861 1.390 . S
C1853 C1852 1.387 . S
C1853 C1855 1.387 . S
H1854 C1861 0.950 . S
C1855 C1853 1.387 . S
C1855 C1857 1.390 . S
C1855 H1859 0.950 . S
H1856 C1852 0.950 . S
C1857 C1855 1.390 . S
C1857 C1858 1.387 . S
C1857 H1860 0.950 1_455 S
C1858 C1857 1.387 . S
C1858 C1861 1.387 . S
H1859 C1855 0.950 . S
H1860 C1857 0.950 1_655 S
C1861 C1852 1.390 . S
C1861 H1854 0.950 . S
C1861 C1858 1.387 . S
C1862 C1863 1.387 . S
C1862 H1866 0.950 . S
C1862 C1871 1.390 . S
C1863 C1862 1.387 . S
C1863 C1865 1.387 1_655 S
H1864 C1871 0.950 . S
C1865 C1863 1.387 1_455 S
C1865 C1867 1.390 . S
C1865 H1869 0.950 . S
H1866 C1862 0.950 . S
C1867 C1865 1.390 . S
C1867 C1868 1.387 1_445 S
C1867 H1870 0.954 . S
C1868 C1867 1.387 1_665 S
C1868 C1871 1.387 1_565 S
H1869 C1865 0.950 . S
H1870 C1867 0.954 . S
C1871 C1862 1.390 . S
C1871 H1864 0.950 . S
C1871 C1868 1.387 1_545 S
C1872 C1873 1.387 . S
C1872 H1876 0.950 . S
C1872 C1881 1.390 . S
C1873 C1872 1.387 . S
C1873 C1875 1.387 . S
H1874 C1881 0.950 . S
C1875 C1873 1.387 . S
C1875 C1877 1.390 . S
C1875 H1879 0.950 . S
H1876 C1872 0.950 . S
C1877 C1875 1.390 . S
C1877 C1878 1.387 . S
C1877 H1880 0.950 . S
C1878 C1877 1.387 . S
C1878 C1881 1.387 . S
H1879 C1875 0.950 . S
H1880 C1877 0.950 . S
C1881 C1872 1.390 . S
C1881 H1874 0.950 . S
C1881 C1878 1.387 . S
C1882 C1883 1.387 . S
C1882 H1886 0.950 . S
C1882 C1891 1.390 . S
C1883 C1882 1.387 . S
C1883 C1885 1.387 . S
H1884 C1891 0.950 . S
C1885 C1883 1.387 . S
C1885 C1887 1.390 . S
C1885 H1889 0.950 . S
H1886 C1882 0.950 . S
C1887 C1885 1.390 . S
C1887 C1888 1.387 1_655 S
C1887 H1890 0.953 . S
C1888 C1887 1.387 1_455 S
C1888 C1891 1.387 1_455 S
H1889 C1885 0.950 . S
H1890 C1887 0.953 . S
C1891 C1882 1.390 . S
C1891 H1884 0.950 . S
C1891 C1888 1.387 1_655 S
C1892 C1893 1.387 . S
C1892 H1896 0.950 . S
C1892 C1901 1.390 . S
C1893 C1892 1.387 . S
C1893 C1895 1.387 . S
H1894 C1901 0.950 . S
C1895 C1893 1.387 . S
C1895 C1897 1.390 . S
C1895 H1899 0.950 . S
H1896 C1892 0.950 . S
C1897 C1895 1.390 . S
C1897 C1898 1.387 . S
C1897 H1900 0.950 . S
C1898 C1897 1.387 . S
C1898 C1901 1.387 . S
H1899 C1895 0.950 . S
H1900 C1897 0.950 . S
C1901 C1892 1.390 . S
C1901 H1894 0.950 . S
C1901 C1898 1.387 . S
C1902 C1903 1.387 1_455 S
C1902 H1906 0.950 1_455 S
C1902 C1911 1.390 . S
C1903 C1902 1.387 1_655 S
C1903 C1905 1.387 1_655 S
H1904 C1911 0.950 . S
C1905 C1903 1.387 1_455 S
C1905 C1907 1.390 . S
C1905 H1909 0.950 . S
H1906 C1902 0.950 1_655 S
C1907 C1905 1.390 . S
C1907 C1908 1.387 . S
C1907 H1910 0.950 . S
C1908 C1907 1.387 . S
C1908 C1911 1.387 . S
H1909 C1905 0.950 . S
H1910 C1907 0.950 . S
C1911 C1902 1.390 . S
C1911 H1904 0.950 . S
C1911 C1908 1.387 . S
C1912 C1913 1.387 . S
C1912 H1916 0.950 . S
C1912 C1921 1.390 . S
C1913 C1912 1.387 . S
C1913 C1915 1.387 . S
H1914 C1921 0.950 . S
C1915 C1913 1.387 . S
C1915 C1917 1.390 . S
C1915 H1919 0.950 . S
H1916 C1912 0.950 . S
C1917 C1915 1.390 . S
C1917 C1918 1.387 . S
C1917 H1920 0.950 . S
C1918 C1917 1.387 . S
C1918 C1921 1.387 . S
H1919 C1915 0.950 . S
H1920 C1917 0.950 . S
C1921 C1912 1.390 . S
C1921 H1914 0.950 . S
C1921 C1918 1.387 . S
C1922 C1923 1.387 . S
C1922 H1926 0.950 . S
C1922 C1931 1.390 . S
C1923 C1922 1.387 . S
C1923 C1925 1.387 . S
H1924 C1931 0.950 . S
C1925 C1923 1.387 . S
C1925 C1927 1.390 . S
C1925 H1929 0.950 . S
H1926 C1922 0.950 . S
C1927 C1925 1.390 . S
C1927 C1928 1.387 . S
C1927 H1930 0.950 . S
C1928 C1927 1.387 . S
C1928 C1931 1.387 . S
H1929 C1925 0.950 . S
H1930 C1927 0.950 . S
C1931 C1922 1.390 . S
C1931 H1924 0.950 . S
C1931 C1928 1.387 . S
C1932 C1933 1.387 . S
C1932 H1936 0.950 . S
C1932 C1941 1.390 . S
C1933 C1932 1.387 . S
C1933 C1935 1.387 . S
H1934 C1941 0.950 . S
C1935 C1933 1.387 . S
C1935 C1937 1.390 . S
C1935 H1939 0.950 . S
H1936 C1932 0.950 . S
C1937 C1935 1.390 . S
C1937 C1938 1.387 . S
C1937 H1940 0.950 . S
C1938 C1937 1.387 . S
C1938 C1941 1.387 . S
H1939 C1935 0.950 . S
H1940 C1937 0.950 . S
C1941 C1932 1.390 . S
C1941 H1934 0.950 . S
C1941 C1938 1.387 . S
C1942 C1943 1.387 . S
C1942 H1946 0.950 . S
C1942 C1951 1.390 . S
C1943 C1942 1.387 . S
C1943 C1945 1.387 . S
H1944 C1951 0.950 . S
C1945 C1943 1.387 . S
C1945 C1947 1.390 . S
C1945 H1949 0.950 . S
H1946 C1942 0.950 . S
C1947 C1945 1.390 . S
C1947 C1948 1.387 . S
C1947 H1950 0.950 . S
C1948 C1947 1.387 . S
C1948 C1951 1.387 . S
H1949 C1945 0.950 . S
H1950 C1947 0.950 . S
C1951 C1942 1.390 . S
C1951 H1944 0.950 . S
C1951 C1948 1.387 . S
C1952 C1953 1.387 . S
C1952 H1956 0.950 . S
C1952 C1961 1.390 . S
C1953 C1952 1.387 . S
C1953 C1955 1.387 . S
H1954 C1961 0.950 . S
C1955 C1953 1.387 . S
C1955 C1957 1.390 . S
C1955 H1959 0.950 . S
H1956 C1952 0.950 . S
C1957 C1955 1.390 . S
C1957 C1958 1.387 . S
C1957 H1960 0.950 . S
C1958 C1957 1.387 . S
C1958 C1961 1.387 . S
H1959 C1955 0.950 . S
H1960 C1957 0.950 . S
C1961 C1952 1.390 . S
C1961 H1954 0.950 . S
C1961 C1958 1.387 . S
C1962 C1963 1.387 . S
C1962 H1966 0.950 . S
C1962 C1971 1.390 . S
C1963 C1962 1.387 . S
C1963 C1965 1.387 . S
H1964 C1971 0.950 . S
C1965 C1963 1.387 . S
C1965 C1967 1.390 1_545 S
C1965 H1969 0.953 . S
H1966 C1962 0.950 . S
C1967 C1965 1.390 1_565 S
C1967 C1968 1.387 1_565 S
C1967 H1970 0.950 . S
C1968 C1967 1.387 1_545 S
C1968 C1971 1.387 . S
H1969 C1965 0.953 . S
H1970 C1967 0.950 . S
C1971 C1962 1.390 . S
C1971 H1964 0.950 . S
C1971 C1968 1.387 . S
C1972 C1973 1.387 . S
C1972 H1976 0.950 . S
C1972 C1981 1.390 . S
C1973 C1972 1.387 . S
C1973 C1975 1.387 . S
H1974 C1981 0.950 . S
C1975 C1973 1.387 . S
C1975 C1977 1.390 . S
C1975 H1979 0.950 . S
H1976 C1972 0.950 . S
C1977 C1975 1.390 . S
C1977 C1978 1.387 . S
C1977 H1980 0.950 . S
C1978 C1977 1.387 . S
C1978 C1981 1.387 . S
H1979 C1975 0.950 . S
H1980 C1977 0.950 . S
C1981 C1972 1.390 . S
C1981 H1974 0.950 . S
C1981 C1978 1.387 . S
C1982 C1983 1.387 . S
C1982 H1986 0.950 . S
C1982 C1991 1.390 . S
C1983 C1982 1.387 . S
C1983 C1985 1.387 . S
H1984 C1991 0.950 . S
C1985 C1983 1.387 . S
C1985 C1987 1.390 . S
C1985 H1989 0.950 . S
H1986 C1982 0.950 . S
C1987 C1985 1.390 . S
C1987 C1988 1.387 . S
C1987 H1990 0.950 . S
C1988 C1987 1.387 . S
C1988 C1991 1.387 . S
H1989 C1985 0.950 . S
H1990 C1987 0.950 . S
C1991 C1982 1.390 . S
C1991 H1984 0.950 . S
C1991 C1988 1.387 . S
C1992 C1993 1.387 . S
C1992 H1996 0.950 . S
C1992 C2001 1.390 . S
C1993 C1992 1.387 . S
C1993 C1995 1.387 . S
H1994 C2001 0.950 . S
C1995 C1993 1.387 . S
C1995 C1997 1.390 . S
C1995 H1999 0.950 . S
H1996 C1992 0.950 . S
C1997 C1995 1.390 . S
C1997 C1998 1.387 . S
C1997 H2000 0.950 . S
C1998 C1997 1.387 . S
C1998 C2001 1.387 . S
H1999 C1995 0.950 . S
H2000 C1997 0.950 . S
C2001 C1992 1.390 . S
C2001 H1994 0.950 . S
C2001 C1998 1.387 . S
C2002 C2003 1.387 . S
C2002 H2006 0.950 . S
C2002 C2011 1.390 . S
C2003 C2002 1.387 . S
C2003 C2005 1.387 . S
H2004 C2011 0.950 . S
C2005 C2003 1.387 . S
C2005 C2007 1.390 1_545 S
C2005 H2009 0.950 1_545 S
H2006 C2002 0.950 . S
C2007 C2005 1.390 1_565 S
C2007 C2008 1.387 1_565 S
C2007 H2010 0.950 . S
C2008 C2007 1.387 1_545 S
C2008 C2011 1.387 . S
H2009 C2005 0.950 1_565 S
H2010 C2007 0.950 . S
C2011 C2002 1.390 . S
C2011 H2004 0.950 . S
C2011 C2008 1.387 . S
C2012 C2013 1.387 . S
C2012 H2016 0.950 . S
C2012 C2021 1.390 . S
C2013 C2012 1.387 . S
C2013 C2015 1.387 . S
H2014 C2021 0.950 . S
C2015 C2013 1.387 . S
C2015 C2017 1.390 . S
C2015 H2019 0.950 . S
H2016 C2012 0.950 . S
C2017 C2015 1.390 . S
C2017 C2018 1.387 . S
C2017 H2020 0.950 . S
C2018 C2017 1.387 . S
C2018 C2021 1.387 . S
H2019 C2015 0.950 . S
H2020 C2017 0.950 . S
C2021 C2012 1.390 . S
C2021 H2014 0.950 . S
C2021 C2018 1.387 . S
C2022 C2023 1.387 . S
C2022 H2026 0.950 . S
C2022 C2031 1.390 . S
C2023 C2022 1.387 . S
C2023 C2025 1.387 . S
H2024 C2031 0.950 . S
C2025 C2023 1.387 . S
C2025 C2027 1.390 . S
C2025 H2029 0.950 . S
H2026 C2022 0.950 . S
C2027 C2025 1.390 . S
C2027 C2028 1.387 . S
C2027 H2030 0.950 . S
C2028 C2027 1.387 . S
C2028 C2031 1.387 . S
H2029 C2025 0.950 . S
H2030 C2027 0.950 . S
C2031 C2022 1.390 . S
C2031 H2024 0.950 . S
C2031 C2028 1.387 . S
C2032 C2033 1.387 . S
C2032 H2036 0.950 . S
C2032 C2041 1.390 . S
C2033 C2032 1.387 . S
C2033 C2035 1.387 . S
H2034 C2041 0.950 . S
C2035 C2033 1.387 . S
C2035 C2037 1.390 . S
C2035 H2039 0.950 . S
H2036 C2032 0.950 . S
C2037 C2035 1.390 . S
C2037 C2038 1.387 . S
C2037 H2040 0.950 . S
C2038 C2037 1.387 . S
C2038 C2041 1.387 . S
H2039 C2035 0.950 . S
H2040 C2037 0.950 . S
C2041 C2032 1.390 . S
C2041 H2034 0.950 . S
C2041 C2038 1.387 . S
C2042 C2043 1.387 . S
C2042 H2046 0.950 . S
C2042 C2051 1.390 . S
C2043 C2042 1.387 . S
C2043 C2045 1.387 . S
H2044 C2051 0.950 . S
C2045 C2043 1.387 . S
C2045 C2047 1.390 . S
C2045 H2049 0.950 . S
H2046 C2042 0.950 . S
C2047 C2045 1.390 . S
C2047 C2048 1.387 . S
C2047 H2050 0.950 . S
C2048 C2047 1.387 . S
C2048 C2051 1.387 . S
H2049 C2045 0.950 . S
H2050 C2047 0.950 . S
C2051 C2042 1.390 . S
C2051 H2044 0.950 . S
C2051 C2048 1.387 . S
C2052 C2053 1.387 1_545 S
C2052 H2056 0.972 . S
C2052 C2061 1.390 . S
C2053 C2052 1.387 1_565 S
C2053 C2055 1.387 1_565 S
H2054 C2061 0.950 . S
C2055 C2053 1.387 1_545 S
C2055 C2057 1.390 . S
C2055 H2059 0.950 . S
H2056 C2052 0.972 . S
C2057 C2055 1.390 . S
C2057 C2058 1.387 . S
C2057 H2060 0.950 . S
C2058 C2057 1.387 . S
C2058 C2061 1.387 . S
H2059 C2055 0.950 . S
H2060 C2057 0.950 . S
C2061 C2052 1.390 . S
C2061 H2054 0.950 . S
C2061 C2058 1.387 . S
C2062 C2063 1.387 . S
C2062 H2066 0.950 . S
C2062 C2071 1.390 . S
C2063 C2062 1.387 . S
C2063 C2065 1.387 . S
H2064 C2071 0.950 . S
C2065 C2063 1.387 . S
C2065 C2067 1.390 . S
C2065 H2069 0.950 . S
H2066 C2062 0.950 . S
C2067 C2065 1.390 . S
C2067 C2068 1.387 . S
C2067 H2070 0.950 . S
C2068 C2067 1.387 . S
C2068 C2071 1.387 . S
H2069 C2065 0.950 . S
H2070 C2067 0.950 . S
C2071 C2062 1.390 . S
C2071 H2064 0.950 . S
C2071 C2068 1.387 . S
C2072 C2073 1.387 . S
C2072 H2076 0.950 . S
C2072 C2081 1.390 . S
C2073 C2072 1.387 . S
C2073 C2075 1.387 1_655 S
H2074 C2081 0.950 . S
C2075 C2073 1.387 1_455 S
C2075 C2077 1.390 1_455 S
C2075 H2079 0.950 . S
H2076 C2072 0.950 . S
C2077 C2075 1.390 1_655 S
C2077 C2078 1.387 1_565 S
C2077 H2080 0.950 1_565 S
C2078 C2077 1.387 1_545 S
C2078 C2081 1.387 1_545 S
H2079 C2075 0.950 . S
H2080 C2077 0.950 1_545 S
C2081 C2072 1.390 . S
C2081 H2074 0.950 . S
C2081 C2078 1.387 1_565 S
C2082 C2083 1.387 . S
C2082 H2086 0.950 . S
C2082 C2091 1.390 . S
C2083 C2082 1.387 . S
C2083 C2085 1.387 . S
H2084 C2091 0.950 . S
C2085 C2083 1.387 . S
C2085 C2087 1.390 . S
C2085 H2089 0.950 . S
H2086 C2082 0.950 . S
C2087 C2085 1.390 . S
C2087 C2088 1.387 . S
C2087 H2090 0.950 . S
C2088 C2087 1.387 . S
C2088 C2091 1.387 . S
H2089 C2085 0.950 . S
H2090 C2087 0.950 . S
C2091 C2082 1.390 . S
C2091 H2084 0.950 . S
C2091 C2088 1.387 . S
C2092 C2093 1.387 . S
C2092 H2096 0.950 . S
C2092 C2101 1.390 . S
C2093 C2092 1.387 . S
C2093 C2095 1.387 . S
H2094 C2101 0.950 1_545 S
C2095 C2093 1.387 . S
C2095 C2097 1.390 . S
C2095 H2099 0.950 . S
H2096 C2092 0.950 . S
C2097 C2095 1.390 . S
C2097 C2098 1.387 1_565 S
C2097 H2100 0.950 . S
C2098 C2097 1.387 1_545 S
C2098 C2101 1.387 1_545 S
H2099 C2095 0.950 . S
H2100 C2097 0.950 . S
C2101 C2092 1.390 . S
C2101 H2094 0.950 1_565 S
C2101 C2098 1.387 1_565 S
C2102 C2103 1.387 . S
C2102 H2106 0.950 . S
C2102 C2111 1.390 . S
C2103 C2102 1.387 . S
C2103 C2105 1.387 . S
H2104 C2111 0.950 . S
C2105 C2103 1.387 . S
C2105 C2107 1.390 . S
C2105 H2109 0.950 . S
H2106 C2102 0.950 . S
C2107 C2105 1.390 . S
C2107 C2108 1.387 . S
C2107 H2110 0.950 . S
C2108 C2107 1.387 . S
C2108 C2111 1.387 . S
H2109 C2105 0.950 . S
H2110 C2107 0.950 . S
C2111 C2102 1.390 . S
C2111 H2104 0.950 . S
C2111 C2108 1.387 . S
C2112 C2113 1.387 . S
C2112 H2116 0.950 . S
C2112 C2121 1.390 1_545 S
C2113 C2112 1.387 . S
C2113 C2115 1.387 . S
H2114 C2121 0.950 . S
C2115 C2113 1.387 . S
C2115 C2117 1.390 1_545 S
C2115 H2119 0.950 . S
H2116 C2112 0.950 . S
C2117 C2115 1.390 1_565 S
C2117 C2118 1.387 . S
C2117 H2120 0.950 . S
C2118 C2117 1.387 . S
C2118 C2121 1.387 . S
H2119 C2115 0.950 . S
H2120 C2117 0.950 . S
C2121 C2112 1.390 1_565 S
C2121 H2114 0.950 . S
C2121 C2118 1.387 . S
C2122 C2123 1.387 . S
C2122 H2126 0.950 . S
C2122 C2131 1.390 1_556 S
C2123 C2122 1.387 . S
C2123 C2125 1.387 . S
H2124 C2131 0.950 . S
C2125 C2123 1.387 . S
C2125 C2127 1.390 1_556 S
C2125 H2129 0.950 . S
H2126 C2122 0.950 . S
C2127 C2125 1.390 1_554 S
C2127 C2128 1.387 . S
C2127 H2130 0.950 . S
C2128 C2127 1.387 . S
C2128 C2131 1.387 . S
H2129 C2125 0.950 . S
H2130 C2127 0.950 . S
C2131 C2122 1.390 1_554 S
C2131 H2124 0.950 . S
C2131 C2128 1.387 . S
C2132 C2133 1.387 . S
C2132 H2136 0.950 . S
C2132 C2141 1.390 . S
C2133 C2132 1.387 . S
C2133 C2135 1.387 . S
H2134 C2141 0.950 . S
C2135 C2133 1.387 . S
C2135 C2137 1.390 . S
C2135 H2139 0.950 . S
H2136 C2132 0.950 . S
C2137 C2135 1.390 . S
C2137 C2138 1.387 . S
C2137 H2140 0.950 . S
C2138 C2137 1.387 . S
C2138 C2141 1.387 . S
H2139 C2135 0.950 . S
H2140 C2137 0.950 . S
C2141 C2132 1.390 . S
C2141 H2134 0.950 . S
C2141 C2138 1.387 . S
C2142 C2143 1.387 . S
C2142 H2146 0.950 . S
C2142 C2151 1.390 1_554 S
C2143 C2142 1.387 . S
C2143 C2145 1.387 . S
H2144 C2151 0.950 . S
C2145 C2143 1.387 . S
C2145 C2147 1.390 1_554 S
C2145 H2149 0.950 . S
H2146 C2142 0.950 . S
C2147 C2145 1.390 1_556 S
C2147 C2148 1.387 . S
C2147 H2150 0.950 . S
C2148 C2147 1.387 . S
C2148 C2151 1.387 . S
H2149 C2145 0.950 . S
H2150 C2147 0.950 . S
C2151 C2142 1.390 1_556 S
C2151 H2144 0.950 . S
C2151 C2148 1.387 . S
C2152 C2153 1.387 . S
C2152 H2156 0.950 . S
C2152 C2161 1.390 1_556 S
C2153 C2152 1.387 . S
C2153 C2155 1.387 . S
H2154 C2161 0.950 . S
C2155 C2153 1.387 . S
C2155 C2157 1.390 1_556 S
C2155 H2159 0.950 . S
H2156 C2152 0.950 . S
C2157 C2155 1.390 1_554 S
C2157 C2158 1.387 . S
C2157 H2160 0.950 . S
C2158 C2157 1.387 . S
C2158 C2161 1.387 . S
H2159 C2155 0.950 . S
H2160 C2157 0.950 . S
C2161 C2152 1.390 1_554 S
C2161 H2154 0.950 . S
C2161 C2158 1.387 . S
C2162 C2163 1.387 . S
C2162 H2166 0.950 . S
C2162 C2171 1.390 . S
C2163 C2162 1.387 . S
C2163 C2165 1.387 . S
H2164 C2171 0.950 . S
C2165 C2163 1.387 . S
C2165 C2167 1.390 . S
C2165 H2169 0.950 . S
H2166 C2162 0.950 . S
C2167 C2165 1.390 . S
C2167 C2168 1.387 . S
C2167 H2170 0.950 . S
C2168 C2167 1.387 . S
C2168 C2171 1.387 . S
H2169 C2165 0.950 . S
H2170 C2167 0.950 . S
C2171 C2162 1.390 . S
C2171 H2164 0.950 . S
C2171 C2168 1.387 . S
C2172 C2173 1.387 . S
C2172 H2176 0.950 . S
C2172 C2181 1.390 1_556 S
C2173 C2172 1.387 . S
C2173 C2175 1.387 . S
H2174 C2181 0.950 . S
C2175 C2173 1.387 . S
C2175 C2177 1.390 1_556 S
C2175 H2179 0.950 . S
H2176 C2172 0.950 . S
C2177 C2175 1.390 1_554 S
C2177 C2178 1.387 . S
C2177 H2180 0.950 . S
C2178 C2177 1.387 . S
C2178 C2181 1.387 . S
H2179 C2175 0.950 . S
H2180 C2177 0.950 . S
C2181 C2172 1.390 1_554 S
C2181 H2174 0.950 . S
C2181 C2178 1.387 . S
C2182 C2183 1.387 . S
C2182 H2186 0.950 . S
C2182 C2191 1.390 1_545 S
C2183 C2182 1.387 . S
C2183 C2185 1.387 . S
H2184 C2191 0.950 . S
C2185 C2183 1.387 . S
C2185 C2187 1.390 1_545 S
C2185 H2189 0.950 . S
H2186 C2182 0.950 . S
C2187 C2185 1.390 1_565 S
C2187 C2188 1.387 . S
C2187 H2190 0.950 . S
C2188 C2187 1.387 . S
C2188 C2191 1.387 . S
H2189 C2185 0.950 . S
H2190 C2187 0.950 . S
C2191 C2182 1.390 1_565 S
C2191 H2184 0.950 . S
C2191 C2188 1.387 . S
C2192 C2193 1.387 . S
C2192 H2196 0.950 . S
C2192 C2201 1.390 . S
C2193 C2192 1.387 . S
C2193 C2195 1.387 . S
H2194 C2201 0.950 . S
C2195 C2193 1.387 . S
C2195 C2197 1.390 . S
C2195 H2199 0.950 . S
H2196 C2192 0.950 . S
C2197 C2195 1.390 . S
C2197 C2198 1.387 . S
C2197 H2200 0.950 . S
C2198 C2197 1.387 . S
C2198 C2201 1.387 . S
H2199 C2195 0.950 . S
H2200 C2197 0.950 . S
C2201 C2192 1.390 . S
C2201 H2194 0.950 . S
C2201 C2198 1.387 . S
C2202 C2203 1.387 . S
C2202 H2206 0.950 . S
C2202 C2211 1.390 . S
C2203 C2202 1.387 . S
C2203 C2205 1.387 . S
H2204 C2211 0.950 . S
C2205 C2203 1.387 . S
C2205 C2207 1.390 . S
C2205 H2209 0.950 . S
H2206 C2202 0.950 . S
C2207 C2205 1.390 . S
C2207 C2208 1.387 . S
C2207 H2210 0.950 . S
C2208 C2207 1.387 . S
C2208 C2211 1.387 . S
H2209 C2205 0.950 . S
H2210 C2207 0.950 . S
C2211 C2202 1.390 . S
C2211 H2204 0.950 . S
C2211 C2208 1.387 . S
C2212 C2213 1.387 . S
C2212 H2216 0.950 . S
C2212 C2221 1.390 . S
C2213 C2212 1.387 . S
C2213 C2215 1.387 . S
H2214 C2221 0.950 . S
C2215 C2213 1.387 . S
C2215 C2217 1.390 . S
C2215 H2219 0.950 . S
H2216 C2212 0.950 . S
C2217 C2215 1.390 . S
C2217 C2218 1.387 . S
C2217 H2220 0.950 . S
C2218 C2217 1.387 . S
C2218 C2221 1.387 . S
H2219 C2215 0.950 . S
H2220 C2217 0.950 . S
C2221 C2212 1.390 . S
C2221 H2214 0.950 . S
C2221 C2218 1.387 . S
C2222 C2223 1.387 . S
C2222 H2226 0.950 . S
C2222 C2231 1.390 1_545 S
C2223 C2222 1.387 . S
C2223 C2225 1.387 . S
H2224 C2231 0.950 . S
C2225 C2223 1.387 . S
C2225 C2227 1.390 1_545 S
C2225 H2229 0.950 . S
H2226 C2222 0.950 . S
C2227 C2225 1.390 1_565 S
C2227 C2228 1.387 . S
C2227 H2230 0.950 . S
C2228 C2227 1.387 . S
C2228 C2231 1.387 . S
H2229 C2225 0.950 . S
H2230 C2227 0.950 . S
C2231 C2222 1.390 1_565 S
C2231 H2224 0.950 . S
C2231 C2228 1.387 . S
C2232 C2233 1.387 . S
C2232 H2236 0.950 . S
C2232 C2241 1.390 1_655 S
C2233 C2232 1.387 . S
C2233 C2235 1.387 . S
H2234 C2241 0.950 . S
C2235 C2233 1.387 . S
C2235 C2237 1.390 1_655 S
C2235 H2239 0.950 . S
H2236 C2232 0.950 . S
C2237 C2235 1.390 1_455 S
C2237 C2238 1.387 . S
C2237 H2240 0.950 . S
C2238 C2237 1.387 . S
C2238 C2241 1.387 . S
H2239 C2235 0.950 . S
H2240 C2237 0.950 . S
C2241 C2232 1.390 1_455 S
C2241 H2234 0.950 . S
C2241 C2238 1.387 . S
C2242 C2243 1.387 . S
C2242 H2246 0.950 . S
C2242 C2251 1.390 1_655 S
C2243 C2242 1.387 . S
C2243 C2245 1.387 . S
H2244 C2251 0.950 . S
C2245 C2243 1.387 . S
C2245 C2247 1.390 1_655 S
C2245 H2249 0.950 . S
H2246 C2242 0.950 . S
C2247 C2245 1.390 1_455 S
C2247 C2248 1.387 . S
C2247 H2250 0.950 . S
C2248 C2247 1.387 . S
C2248 C2251 1.387 . S
H2249 C2245 0.950 . S
H2250 C2247 0.950 . S
C2251 C2242 1.390 1_455 S
C2251 H2244 0.950 . S
C2251 C2248 1.387 . S
C2252 C2253 1.387 . S
C2252 H2256 0.950 . S
C2252 C2261 1.390 1_455 S
C2253 C2252 1.387 . S
C2253 C2255 1.387 . S
H2254 C2261 0.950 . S
C2255 C2253 1.387 . S
C2255 C2257 1.390 1_455 S
C2255 H2259 0.950 . S
H2256 C2252 0.950 . S
C2257 C2255 1.390 1_655 S
C2257 C2258 1.387 . S
C2257 H2260 0.950 . S
C2258 C2257 1.387 . S
C2258 C2261 1.387 . S
H2259 C2255 0.950 . S
H2260 C2257 0.950 . S
C2261 C2252 1.390 1_655 S
C2261 H2254 0.950 . S
C2261 C2258 1.387 . S
C2262 C2263 1.387 . S
C2262 H2266 0.950 . S
C2262 C2271 1.390 . S
C2263 C2262 1.387 . S
C2263 C2265 1.387 . S
H2264 C2271 0.950 . S
C2265 C2263 1.387 . S
C2265 C2267 1.390 . S
C2265 H2269 0.950 . S
H2266 C2262 0.950 . S
C2267 C2265 1.390 . S
C2267 C2268 1.387 . S
C2267 H2270 0.950 . S
C2268 C2267 1.387 . S
C2268 C2271 1.387 . S
H2269 C2265 0.950 . S
H2270 C2267 0.950 . S
C2271 C2262 1.390 . S
C2271 H2264 0.950 . S
C2271 C2268 1.387 . S
C2272 C2273 1.387 . S
C2272 H2276 0.950 . S
C2272 C2281 1.390 . S
C2273 C2272 1.387 . S
C2273 C2275 1.387 . S
H2274 C2281 0.950 . S
C2275 C2273 1.387 . S
C2275 C2277 1.390 . S
C2275 H2279 0.950 . S
H2276 C2272 0.950 . S
C2277 C2275 1.390 . S
C2277 C2278 1.387 . S
C2277 H2280 0.950 . S
C2278 C2277 1.387 . S
C2278 C2281 1.387 . S
H2279 C2275 0.950 . S
H2280 C2277 0.950 . S
C2281 C2272 1.390 . S
C2281 H2274 0.950 . S
C2281 C2278 1.387 . S
C2282 C2283 1.387 . S
C2282 H2286 0.950 . S
C2282 C2291 1.390 1_655 S
C2283 C2282 1.387 . S
C2283 C2285 1.387 . S
H2284 C2291 0.950 . S
C2285 C2283 1.387 . S
C2285 C2287 1.390 1_655 S
C2285 H2289 0.950 . S
H2286 C2282 0.950 . S
C2287 C2285 1.390 1_455 S
C2287 C2288 1.387 . S
C2287 H2290 0.950 . S
C2288 C2287 1.387 . S
C2288 C2291 1.387 . S
H2289 C2285 0.950 . S
H2290 C2287 0.950 . S
C2291 C2282 1.390 1_455 S
C2291 H2284 0.950 . S
C2291 C2288 1.387 . S
C2292 C2293 1.387 . S
C2292 H2296 0.950 . S
C2292 C2301 1.390 . S
C2293 C2292 1.387 . S
C2293 C2295 1.387 . S
H2294 C2301 0.950 . S
C2295 C2293 1.387 . S
C2295 C2297 1.390 . S
C2295 H2299 0.950 . S
H2296 C2292 0.950 . S
C2297 C2295 1.390 . S
C2297 C2298 1.387 . S
C2297 H2300 0.950 . S
C2298 C2297 1.387 . S
C2298 C2301 1.387 . S
H2299 C2295 0.950 . S
H2300 C2297 0.950 . S
C2301 C2292 1.390 . S
C2301 H2294 0.950 . S
C2301 C2298 1.387 . S
C2302 C2303 1.387 . S
C2302 H2306 0.950 . S
C2302 C2311 1.390 . S
C2303 C2302 1.387 . S
C2303 C2305 1.387 . S
H2304 C2311 0.950 . S
C2305 C2303 1.387 . S
C2305 C2307 1.390 . S
C2305 H2309 0.950 . S
H2306 C2302 0.950 . S
C2307 C2305 1.390 . S
C2307 C2308 1.387 . S
C2307 H2310 0.950 . S
C2308 C2307 1.387 . S
C2308 C2311 1.387 . S
H2309 C2305 0.950 . S
H2310 C2307 0.950 . S
C2311 C2302 1.390 . S
C2311 H2304 0.950 . S
C2311 C2308 1.387 . S
C2312 C2313 1.387 . S
C2312 H2316 0.950 . S
C2312 C2321 1.390 1_565 S
C2313 C2312 1.387 . S
C2313 C2315 1.387 . S
H2314 C2321 0.950 . S
C2315 C2313 1.387 . S
C2315 C2317 1.390 1_565 S
C2315 H2319 0.950 . S
H2316 C2312 0.950 . S
C2317 C2315 1.390 1_545 S
C2317 C2318 1.387 . S
C2317 H2320 0.950 . S
C2318 C2317 1.387 . S
C2318 C2321 1.387 . S
H2319 C2315 0.950 . S
H2320 C2317 0.950 . S
C2321 C2312 1.390 1_545 S
C2321 H2314 0.950 . S
C2321 C2318 1.387 . S
C2322 C2323 1.387 . S
C2322 H2326 0.950 . S
C2322 C2331 1.390 . S
C2323 C2322 1.387 . S
C2323 C2325 1.387 . S
H2324 C2331 0.950 . S
C2325 C2323 1.387 . S
C2325 C2327 1.390 . S
C2325 H2329 0.950 . S
H2326 C2322 0.950 . S
C2327 C2325 1.390 . S
C2327 C2328 1.387 . S
C2327 H2330 0.950 . S
C2328 C2327 1.387 . S
C2328 C2331 1.387 . S
H2329 C2325 0.950 . S
H2330 C2327 0.950 . S
C2331 C2322 1.390 . S
C2331 H2324 0.950 . S
C2331 C2328 1.387 . S
C2332 C2333 1.387 . S
C2332 H2336 0.950 . S
C2332 C2341 1.390 . S
C2333 C2332 1.387 . S
C2333 C2335 1.387 . S
H2334 C2341 0.950 . S
C2335 C2333 1.387 . S
C2335 C2337 1.390 . S
C2335 H2339 0.950 . S
H2336 C2332 0.950 . S
C2337 C2335 1.390 . S
C2337 C2338 1.387 . S
C2337 H2340 0.950 . S
C2338 C2337 1.387 . S
C2338 C2341 1.387 . S
H2339 C2335 0.950 . S
H2340 C2337 0.950 . S
C2341 C2332 1.390 . S
C2341 H2334 0.950 . S
C2341 C2338 1.387 . S
C2342 C2343 1.387 . S
C2342 H2346 0.950 . S
C2342 C2351 1.390 . S
C2343 C2342 1.387 . S
C2343 C2345 1.387 . S
H2344 C2351 0.950 . S
C2345 C2343 1.387 . S
C2345 C2347 1.390 . S
C2345 H2349 0.950 . S
H2346 C2342 0.950 . S
C2347 C2345 1.390 . S
C2347 C2348 1.387 . S
C2347 H2350 0.950 . S
C2348 C2347 1.387 . S
C2348 C2351 1.387 . S
H2349 C2345 0.950 . S
H2350 C2347 0.950 . S
C2351 C2342 1.390 . S
C2351 H2344 0.950 . S
C2351 C2348 1.387 . S
C2352 C2353 1.387 . S
C2352 H2356 0.950 . S
C2352 C2361 1.390 . S
C2353 C2352 1.387 . S
C2353 C2355 1.387 . S
H2354 C2361 0.950 . S
C2355 C2353 1.387 . S
C2355 C2357 1.390 . S
C2355 H2359 0.950 . S
H2356 C2352 0.950 . S
C2357 C2355 1.390 . S
C2357 C2358 1.387 . S
C2357 H2360 0.950 . S
C2358 C2357 1.387 . S
C2358 C2361 1.387 . S
H2359 C2355 0.950 . S
H2360 C2357 0.950 . S
C2361 C2352 1.390 . S
C2361 H2354 0.950 . S
C2361 C2358 1.387 . S
C2362 C2363 1.387 . S
C2362 H2366 0.950 . S
C2362 C2371 1.390 . S
C2363 C2362 1.387 . S
C2363 C2365 1.387 . S
H2364 C2371 0.950 . S
C2365 C2363 1.387 . S
C2365 C2367 1.390 . S
C2365 H2369 0.950 . S
H2366 C2362 0.950 . S
C2367 C2365 1.390 . S
C2367 C2368 1.387 . S
C2367 H2370 0.950 . S
C2368 C2367 1.387 . S
C2368 C2371 1.387 . S
H2369 C2365 0.950 . S
H2370 C2367 0.950 . S
C2371 C2362 1.390 . S
C2371 H2364 0.950 . S
C2371 C2368 1.387 . S
C2372 C2373 1.387 . S
C2372 H2376 0.950 . S
C2372 C2381 1.390 . S
C2373 C2372 1.387 . S
C2373 C2375 1.387 . S
H2374 C2381 0.950 . S
C2375 C2373 1.387 . S
C2375 C2377 1.390 . S
C2375 H2379 0.950 . S
H2376 C2372 0.950 . S
C2377 C2375 1.390 . S
C2377 C2378 1.387 . S
C2377 H2380 0.950 . S
C2378 C2377 1.387 . S
C2378 C2381 1.387 . S
H2379 C2375 0.950 . S
H2380 C2377 0.950 . S
C2381 C2372 1.390 . S
C2381 H2374 0.950 . S
C2381 C2378 1.387 . S
C2382 C2383 1.387 . S
C2382 H2386 0.950 . S
C2382 C2391 1.390 . S
C2383 C2382 1.387 . S
C2383 C2385 1.387 . S
H2384 C2391 0.950 . S
C2385 C2383 1.387 . S
C2385 C2387 1.390 . S
C2385 H2389 0.950 . S
H2386 C2382 0.950 . S
C2387 C2385 1.390 . S
C2387 C2388 1.387 . S
C2387 H2390 0.950 . S
C2388 C2387 1.387 . S
C2388 C2391 1.387 . S
H2389 C2385 0.950 . S
H2390 C2387 0.950 . S
C2391 C2382 1.390 . S
C2391 H2384 0.950 . S
C2391 C2388 1.387 . S
C2392 C2393 1.387 . S
C2392 H2396 0.950 . S
C2392 C2401 1.390 . S
C2393 C2392 1.387 . S
C2393 C2395 1.387 . S
H2394 C2401 0.950 . S
C2395 C2393 1.387 . S
C2395 C2397 1.390 . S
C2395 H2399 0.950 . S
H2396 C2392 0.950 . S
C2397 C2395 1.390 . S
C2397 C2398 1.387 . S
C2397 H2400 0.950 . S
C2398 C2397 1.387 . S
C2398 C2401 1.387 . S
H2399 C2395 0.950 . S
H2400 C2397 0.950 . S
C2401 C2392 1.390 . S
C2401 H2394 0.950 . S
C2401 C2398 1.387 . S
C2402 C2403 1.387 . S
C2402 H2406 0.950 . S
C2402 C2411 1.390 . S
C2403 C2402 1.387 . S
C2403 C2405 1.387 . S
H2404 C2411 0.950 . S
C2405 C2403 1.387 . S
C2405 C2407 1.390 . S
C2405 H2409 0.950 . S
H2406 C2402 0.950 . S
C2407 C2405 1.390 . S
C2407 C2408 1.387 . S
C2407 H2410 0.950 . S
C2408 C2407 1.387 . S
C2408 C2411 1.387 . S
H2409 C2405 0.950 . S
H2410 C2407 0.950 . S
C2411 C2402 1.390 . S
C2411 H2404 0.950 . S
C2411 C2408 1.387 . S
C2412 C2413 1.387 . S
C2412 H2416 0.950 . S
C2412 C2421 1.390 . S
C2413 C2412 1.387 . S
C2413 C2415 1.387 . S
H2414 C2421 0.950 . S
C2415 C2413 1.387 . S
C2415 C2417 1.390 . S
C2415 H2419 0.950 . S
H2416 C2412 0.950 . S
C2417 C2415 1.390 . S
C2417 C2418 1.387 . S
C2417 H2420 0.950 . S
C2418 C2417 1.387 . S
C2418 C2421 1.387 . S
H2419 C2415 0.950 . S
H2420 C2417 0.950 . S
C2421 C2412 1.390 . S
C2421 H2414 0.950 . S
C2421 C2418 1.387 . S
C2422 C2423 1.387 . S
C2422 H2426 0.950 . S
C2422 C2431 1.390 . S
C2423 C2422 1.387 . S
C2423 C2425 1.387 . S
H2424 C2431 0.950 . S
C2425 C2423 1.387 . S
C2425 C2427 1.390 . S
C2425 H2429 0.950 . S
H2426 C2422 0.950 . S
C2427 C2425 1.390 . S
C2427 C2428 1.387 . S
C2427 H2430 0.950 . S
C2428 C2427 1.387 . S
C2428 C2431 1.387 . S
H2429 C2425 0.950 . S
H2430 C2427 0.950 . S
C2431 C2422 1.390 . S
C2431 H2424 0.950 . S
C2431 C2428 1.387 . S
C2432 C2433 1.387 . S
C2432 H2436 0.950 . S
C2432 C2441 1.390 . S
C2433 C2432 1.387 . S
C2433 C2435 1.387 . S
H2434 C2441 0.950 . S
C2435 C2433 1.387 . S
C2435 C2437 1.390 . S
C2435 H2439 0.950 . S
H2436 C2432 0.950 . S
C2437 C2435 1.390 . S
C2437 C2438 1.387 . S
C2437 H2440 0.950 . S
C2438 C2437 1.387 . S
C2438 C2441 1.387 . S
H2439 C2435 0.950 . S
H2440 C2437 0.950 . S
C2441 C2432 1.390 . S
C2441 H2434 0.950 . S
C2441 C2438 1.387 . S
C2442 C2443 1.387 . S
C2442 H2446 0.950 . S
C2442 C2451 1.390 . S
C2443 C2442 1.387 . S
C2443 C2445 1.387 . S
H2444 C2451 0.950 . S
C2445 C2443 1.387 . S
C2445 C2447 1.390 . S
C2445 H2449 0.950 . S
H2446 C2442 0.950 . S
C2447 C2445 1.390 . S
C2447 C2448 1.387 . S
C2447 H2450 0.950 . S
C2448 C2447 1.387 . S
C2448 C2451 1.387 . S
H2449 C2445 0.950 . S
H2450 C2447 0.950 . S
C2451 C2442 1.390 . S
C2451 H2444 0.950 . S
C2451 C2448 1.387 . S
C2452 C2453 1.387 . S
C2452 H2456 0.950 . S
C2452 C2461 1.390 . S
C2453 C2452 1.387 . S
C2453 C2455 1.387 . S
H2454 C2461 0.950 . S
C2455 C2453 1.387 . S
C2455 C2457 1.390 . S
C2455 H2459 0.950 . S
H2456 C2452 0.950 . S
C2457 C2455 1.390 . S
C2457 C2458 1.387 . S
C2457 H2460 0.950 . S
C2458 C2457 1.387 . S
C2458 C2461 1.387 . S
H2459 C2455 0.950 . S
H2460 C2457 0.950 . S
C2461 C2452 1.390 . S
C2461 H2454 0.950 . S
C2461 C2458 1.387 . S
C2462 C2463 1.387 . S
C2462 H2466 0.950 . S
C2462 C2471 1.390 . S
C2463 C2462 1.387 . S
C2463 C2465 1.387 . S
H2464 C2471 0.950 . S
C2465 C2463 1.387 . S
C2465 C2467 1.390 . S
C2465 H2469 0.950 . S
H2466 C2462 0.950 . S
C2467 C2465 1.390 . S
C2467 C2468 1.387 . S
C2467 H2470 0.950 . S
C2468 C2467 1.387 . S
C2468 C2471 1.387 . S
H2469 C2465 0.950 . S
H2470 C2467 0.950 . S
C2471 C2462 1.390 . S
C2471 H2464 0.950 . S
C2471 C2468 1.387 . S
C2472 C2473 1.387 . S
C2472 H2476 0.950 . S
C2472 C2481 1.390 . S
C2473 C2472 1.387 . S
C2473 C2475 1.387 . S
H2474 C2481 0.950 . S
C2475 C2473 1.387 . S
C2475 C2477 1.390 . S
C2475 H2479 0.950 . S
H2476 C2472 0.950 . S
C2477 C2475 1.390 . S
C2477 C2478 1.387 . S
C2477 H2480 0.950 . S
C2478 C2477 1.387 . S
C2478 C2481 1.387 . S
H2479 C2475 0.950 . S
H2480 C2477 0.950 . S
C2481 C2472 1.390 . S
C2481 H2474 0.950 . S
C2481 C2478 1.387 . S
C2482 C2483 1.387 . S
C2482 H2486 0.950 . S
C2482 C2491 1.390 . S
C2483 C2482 1.387 . S
C2483 C2485 1.387 . S
H2484 C2491 0.950 . S
C2485 C2483 1.387 . S
C2485 C2487 1.390 . S
C2485 H2489 0.950 . S
H2486 C2482 0.950 . S
C2487 C2485 1.390 . S
C2487 C2488 1.387 . S
C2487 H2490 0.950 . S
C2488 C2487 1.387 . S
C2488 C2491 1.387 . S
H2489 C2485 0.950 . S
H2490 C2487 0.950 . S
C2491 C2482 1.390 . S
C2491 H2484 0.950 . S
C2491 C2488 1.387 . S
C2492 C2493 1.387 . S
C2492 H2496 0.950 . S
C2492 C2501 1.390 . S
C2493 C2492 1.387 . S
C2493 C2495 1.387 . S
H2494 C2501 0.950 . S
C2495 C2493 1.387 . S
C2495 C2497 1.390 . S
C2495 H2499 0.950 . S
H2496 C2492 0.950 . S
C2497 C2495 1.390 . S
C2497 C2498 1.387 . S
C2497 H2500 0.950 . S
C2498 C2497 1.387 . S
C2498 C2501 1.387 . S
H2499 C2495 0.950 . S
H2500 C2497 0.950 . S
C2501 C2492 1.390 . S
C2501 H2494 0.950 . S
C2501 C2498 1.387 . S
C2502 C2503 1.387 . S
C2502 H2506 0.950 . S
C2502 C2511 1.390 . S
C2503 C2502 1.387 . S
C2503 C2505 1.387 . S
H2504 C2511 0.950 . S
C2505 C2503 1.387 . S
C2505 C2507 1.390 . S
C2505 H2509 0.950 . S
H2506 C2502 0.950 . S
C2507 C2505 1.390 . S
C2507 C2508 1.387 . S
C2507 H2510 0.950 . S
C2508 C2507 1.387 . S
C2508 C2511 1.387 . S
H2509 C2505 0.950 . S
H2510 C2507 0.950 . S
C2511 C2502 1.390 . S
C2511 H2504 0.950 . S
C2511 C2508 1.387 . S
C2512 C2513 1.387 . S
C2512 H2516 0.950 . S
C2512 C2521 1.390 . S
C2513 C2512 1.387 . S
C2513 C2515 1.387 . S
H2514 C2521 0.950 . S
C2515 C2513 1.387 . S
C2515 C2517 1.390 . S
C2515 H2519 0.950 . S
H2516 C2512 0.950 . S
C2517 C2515 1.390 . S
C2517 C2518 1.387 . S
C2517 H2520 0.950 . S
C2518 C2517 1.387 . S
C2518 C2521 1.387 . S
H2519 C2515 0.950 . S
H2520 C2517 0.950 . S
C2521 C2512 1.390 . S
C2521 H2514 0.950 . S
C2521 C2518 1.387 . S
C2522 C2523 1.387 . S
C2522 H2526 0.950 . S
C2522 C2531 1.390 . S
C2523 C2522 1.387 . S
C2523 C2525 1.387 . S
H2524 C2531 0.950 . S
C2525 C2523 1.387 . S
C2525 C2527 1.390 . S
C2525 H2529 0.950 . S
H2526 C2522 0.950 . S
C2527 C2525 1.390 . S
C2527 C2528 1.387 . S
C2527 H2530 0.950 . S
C2528 C2527 1.387 . S
C2528 C2531 1.387 . S
H2529 C2525 0.950 . S
H2530 C2527 0.950 . S
C2531 C2522 1.390 . S
C2531 H2524 0.950 . S
C2531 C2528 1.387 . S
C2532 C2533 1.387 . S
C2532 H2536 0.950 . S
C2532 C2541 1.390 . S
C2533 C2532 1.387 . S
C2533 C2535 1.387 . S
H2534 C2541 0.950 . S
C2535 C2533 1.387 . S
C2535 C2537 1.390 . S
C2535 H2539 0.950 . S
H2536 C2532 0.950 . S
C2537 C2535 1.390 . S
C2537 C2538 1.387 . S
C2537 H2540 0.950 . S
C2538 C2537 1.387 . S
C2538 C2541 1.387 . S
H2539 C2535 0.950 . S
H2540 C2537 0.950 . S
C2541 C2532 1.390 . S
C2541 H2534 0.950 . S
C2541 C2538 1.387 . S
C2542 C2543 1.387 . S
C2542 H2546 0.950 . S
C2542 C2551 1.390 . S
C2543 C2542 1.387 . S
C2543 C2545 1.387 . S
H2544 C2551 0.950 . S
C2545 C2543 1.387 . S
C2545 C2547 1.390 . S
C2545 H2549 0.950 . S
H2546 C2542 0.950 . S
C2547 C2545 1.390 . S
C2547 C2548 1.387 . S
C2547 H2550 0.950 . S
C2548 C2547 1.387 . S
C2548 C2551 1.387 . S
H2549 C2545 0.950 . S
H2550 C2547 0.950 . S
C2551 C2542 1.390 . S
C2551 H2544 0.950 . S
C2551 C2548 1.387 . S
C2552 C2553 1.387 . S
C2552 H2556 0.950 . S
C2552 C2561 1.390 . S
C2553 C2552 1.387 . S
C2553 C2555 1.387 . S
H2554 C2561 0.950 . S
C2555 C2553 1.387 . S
C2555 C2557 1.390 . S
C2555 H2559 0.950 . S
H2556 C2552 0.950 . S
C2557 C2555 1.390 . S
C2557 C2558 1.387 . S
C2557 H2560 0.950 . S
C2558 C2557 1.387 . S
C2558 C2561 1.387 . S
H2559 C2555 0.950 . S
H2560 C2557 0.950 . S
C2561 C2552 1.390 . S
C2561 H2554 0.950 . S
C2561 C2558 1.387 . S
C2562 C2563 1.387 . S
C2562 H2566 0.950 . S
C2562 C2571 1.390 . S
C2563 C2562 1.387 . S
C2563 C2565 1.387 . S
H2564 C2571 0.950 . S
C2565 C2563 1.387 . S
C2565 C2567 1.390 . S
C2565 H2569 0.950 . S
H2566 C2562 0.950 . S
C2567 C2565 1.390 . S
C2567 C2568 1.387 . S
C2567 H2570 0.950 . S
C2568 C2567 1.387 . S
C2568 C2571 1.387 . S
H2569 C2565 0.950 . S
H2570 C2567 0.950 . S
C2571 C2562 1.390 . S
C2571 H2564 0.950 . S
C2571 C2568 1.387 . S
C2572 C2573 1.387 . S
C2572 H2576 0.950 . S
C2572 C2581 1.390 . S
C2573 C2572 1.387 . S
C2573 C2575 1.387 . S
H2574 C2581 0.950 . S
C2575 C2573 1.387 . S
C2575 C2577 1.390 . S
C2575 H2579 0.950 . S
H2576 C2572 0.950 . S
C2577 C2575 1.390 . S
C2577 C2578 1.387 . S
C2577 H2580 0.950 . S
C2578 C2577 1.387 . S
C2578 C2581 1.387 . S
H2579 C2575 0.950 . S
H2580 C2577 0.950 . S
C2581 C2572 1.390 . S
C2581 H2574 0.950 . S
C2581 C2578 1.387 . S
C2582 C2583 1.387 . S
C2582 H2586 0.950 . S
C2582 C2591 1.390 . S
C2583 C2582 1.387 . S
C2583 C2585 1.387 . S
H2584 C2591 0.950 . S
C2585 C2583 1.387 . S
C2585 C2587 1.390 . S
C2585 H2589 0.950 . S
H2586 C2582 0.950 . S
C2587 C2585 1.390 . S
C2587 C2588 1.387 . S
C2587 H2590 0.950 . S
C2588 C2587 1.387 . S
C2588 C2591 1.387 . S
H2589 C2585 0.950 . S
H2590 C2587 0.950 . S
C2591 C2582 1.390 . S
C2591 H2584 0.950 . S
C2591 C2588 1.387 . S
C2592 C2593 1.387 . S
C2592 H2596 0.950 . S
C2592 C2601 1.390 . S
C2593 C2592 1.387 . S
C2593 C2595 1.387 . S
H2594 C2601 0.950 . S
C2595 C2593 1.387 . S
C2595 C2597 1.390 . S
C2595 H2599 0.950 . S
H2596 C2592 0.950 . S
C2597 C2595 1.390 . S
C2597 C2598 1.387 . S
C2597 H2600 0.950 . S
C2598 C2597 1.387 . S
C2598 C2601 1.387 . S
H2599 C2595 0.950 . S
H2600 C2597 0.950 . S
C2601 C2592 1.390 . S
C2601 H2594 0.950 . S
C2601 C2598 1.387 . S
C2602 C2603 1.387 . S
C2602 H2606 0.950 . S
C2602 C2611 1.390 . S
C2603 C2602 1.387 . S
C2603 C2605 1.387 . S
H2604 C2611 0.950 . S
C2605 C2603 1.387 . S
C2605 C2607 1.390 . S
C2605 H2609 0.950 . S
H2606 C2602 0.950 . S
C2607 C2605 1.390 . S
C2607 C2608 1.387 . S
C2607 H2610 0.950 . S
C2608 C2607 1.387 . S
C2608 C2611 1.387 . S
H2609 C2605 0.950 . S
H2610 C2607 0.950 . S
C2611 C2602 1.390 . S
C2611 H2604 0.950 . S
C2611 C2608 1.387 . S
C2612 C2613 1.387 . S
C2612 H2616 0.950 . S
C2612 C2621 1.390 . S
C2613 C2612 1.387 . S
C2613 C2615 1.387 . S
H2614 C2621 0.950 . S
C2615 C2613 1.387 . S
C2615 C2617 1.390 . S
C2615 H2619 0.950 . S
H2616 C2612 0.950 . S
C2617 C2615 1.390 . S
C2617 C2618 1.387 . S
C2617 H2620 0.950 . S
C2618 C2617 1.387 . S
C2618 C2621 1.387 . S
H2619 C2615 0.950 . S
H2620 C2617 0.950 . S
C2621 C2612 1.390 . S
C2621 H2614 0.950 . S
C2621 C2618 1.387 . S
C2622 C2623 1.387 . S
C2622 H2626 0.950 . S
C2622 C2631 1.390 . S
C2623 C2622 1.387 . S
C2623 C2625 1.387 . S
H2624 C2631 0.950 . S
C2625 C2623 1.387 . S
C2625 C2627 1.390 . S
C2625 H2629 0.950 . S
H2626 C2622 0.950 . S
C2627 C2625 1.390 . S
C2627 C2628 1.387 . S
C2627 H2630 0.950 . S
C2628 C2627 1.387 . S
C2628 C2631 1.387 . S
H2629 C2625 0.950 . S
H2630 C2627 0.950 . S
C2631 C2622 1.390 . S
C2631 H2624 0.950 . S
C2631 C2628 1.387 . S
C2632 C2633 1.387 . S
C2632 H2636 0.950 . S
C2632 C2641 1.390 . S
C2633 C2632 1.387 . S
C2633 C2635 1.387 . S
H2634 C2641 0.950 . S
C2635 C2633 1.387 . S
C2635 C2637 1.390 . S
C2635 H2639 0.950 . S
H2636 C2632 0.950 . S
C2637 C2635 1.390 . S
C2637 C2638 1.387 . S
C2637 H2640 0.950 . S
C2638 C2637 1.387 . S
C2638 C2641 1.387 . S
H2639 C2635 0.950 . S
H2640 C2637 0.950 . S
C2641 C2632 1.390 . S
C2641 H2634 0.950 . S
C2641 C2638 1.387 . S
C2642 C2643 1.387 . S
C2642 H2646 0.950 . S
C2642 C2651 1.390 . S
C2643 C2642 1.387 . S
C2643 C2645 1.387 . S
H2644 C2651 0.950 . S
C2645 C2643 1.387 . S
C2645 C2647 1.390 . S
C2645 H2649 0.950 . S
H2646 C2642 0.950 . S
C2647 C2645 1.390 . S
C2647 C2648 1.387 . S
C2647 H2650 0.950 . S
C2648 C2647 1.387 . S
C2648 C2651 1.387 . S
H2649 C2645 0.950 . S
H2650 C2647 0.950 . S
C2651 C2642 1.390 . S
C2651 H2644 0.950 . S
C2651 C2648 1.387 . S
C2652 C2653 1.387 . S
C2652 H2656 0.950 . S
C2652 C2661 1.390 . S
C2653 C2652 1.387 . S
C2653 C2655 1.387 . S
H2654 C2661 0.950 . S
C2655 C2653 1.387 . S
C2655 C2657 1.390 . S
C2655 H2659 0.950 . S
H2656 C2652 0.950 . S
C2657 C2655 1.390 . S
C2657 C2658 1.387 . S
C2657 H2660 0.950 . S
C2658 C2657 1.387 . S
C2658 C2661 1.387 . S
H2659 C2655 0.950 . S
H2660 C2657 0.950 . S
C2661 C2652 1.390 . S
C2661 H2654 0.950 . S
C2661 C2658 1.387 . S
C2662 C2663 1.387 . S
C2662 H2666 0.950 . S
C2662 C2671 1.390 . S
C2663 C2662 1.387 . S
C2663 C2665 1.387 . S
H2664 C2671 0.950 . S
C2665 C2663 1.387 . S
C2665 C2667 1.390 . S
C2665 H2669 0.950 . S
H2666 C2662 0.950 . S
C2667 C2665 1.390 . S
C2667 C2668 1.387 . S
C2667 H2670 0.950 . S
C2668 C2667 1.387 . S
C2668 C2671 1.387 . S
H2669 C2665 0.950 . S
H2670 C2667 0.950 . S
C2671 C2662 1.390 . S
C2671 H2664 0.950 . S
C2671 C2668 1.387 . S
C2672 C2673 1.387 . S
C2672 H2676 0.950 . S
C2672 C2681 1.390 . S
C2673 C2672 1.387 . S
C2673 C2675 1.387 . S
H2674 C2681 0.950 . S
C2675 C2673 1.387 . S
C2675 C2677 1.390 . S
C2675 H2679 0.950 . S
H2676 C2672 0.950 . S
C2677 C2675 1.390 . S
C2677 C2678 1.387 . S
C2677 H2680 0.950 . S
C2678 C2677 1.387 . S
C2678 C2681 1.387 . S
H2679 C2675 0.950 . S
H2680 C2677 0.950 . S
C2681 C2672 1.390 . S
C2681 H2674 0.950 . S
C2681 C2678 1.387 . S
C2682 C2683 1.387 . S
C2682 H2686 0.950 . S
C2682 C2691 1.390 . S
C2683 C2682 1.387 . S
C2683 C2685 1.387 . S
H2684 C2691 0.950 . S
C2685 C2683 1.387 . S
C2685 C2687 1.390 . S
C2685 H2689 0.950 . S
H2686 C2682 0.950 . S
C2687 C2685 1.390 . S
C2687 C2688 1.387 . S
C2687 H2690 0.950 . S
C2688 C2687 1.387 . S
C2688 C2691 1.387 . S
H2689 C2685 0.950 . S
H2690 C2687 0.950 . S
C2691 C2682 1.390 . S
C2691 H2684 0.950 . S
C2691 C2688 1.387 . S
C2692 C2693 1.387 . S
C2692 H2696 0.950 . S
C2692 C2701 1.390 . S
C2693 C2692 1.387 . S
C2693 C2695 1.387 . S
H2694 C2701 0.950 . S
C2695 C2693 1.387 . S
C2695 C2697 1.390 . S
C2695 H2699 0.950 . S
H2696 C2692 0.950 . S
C2697 C2695 1.390 . S
C2697 C2698 1.387 . S
C2697 H2700 0.950 . S
C2698 C2697 1.387 . S
C2698 C2701 1.387 . S
H2699 C2695 0.950 . S
H2700 C2697 0.950 . S
C2701 C2692 1.390 . S
C2701 H2694 0.950 . S
C2701 C2698 1.387 . S
C2702 C2703 1.387 . S
C2702 H2706 0.950 . S
C2702 C2711 1.390 . S
C2703 C2702 1.387 . S
C2703 C2705 1.387 . S
H2704 C2711 0.950 . S
C2705 C2703 1.387 . S
C2705 C2707 1.390 . S
C2705 H2709 0.950 . S
H2706 C2702 0.950 . S
C2707 C2705 1.390 . S
C2707 C2708 1.387 . S
C2707 H2710 0.950 . S
C2708 C2707 1.387 . S
C2708 C2711 1.387 . S
H2709 C2705 0.950 . S
H2710 C2707 0.950 . S
C2711 C2702 1.390 . S
C2711 H2704 0.950 . S
C2711 C2708 1.387 . S
C2712 C2713 1.387 . S
C2712 H2716 0.950 . S
C2712 C2721 1.390 . S
C2713 C2712 1.387 . S
C2713 C2715 1.387 . S
H2714 C2721 0.950 . S
C2715 C2713 1.387 . S
C2715 C2717 1.390 . S
C2715 H2719 0.950 . S
H2716 C2712 0.950 . S
C2717 C2715 1.390 . S
C2717 C2718 1.387 . S
C2717 H2720 0.950 . S
C2718 C2717 1.387 . S
C2718 C2721 1.387 . S
H2719 C2715 0.950 . S
H2720 C2717 0.950 . S
C2721 C2712 1.390 . S
C2721 H2714 0.950 . S
C2721 C2718 1.387 . S
C2722 C2723 1.387 . S
C2722 H2726 0.950 . S
C2722 C2731 1.390 . S
C2723 C2722 1.387 . S
C2723 C2725 1.387 . S
H2724 C2731 0.950 . S
C2725 C2723 1.387 . S
C2725 C2727 1.390 . S
C2725 H2729 0.950 . S
H2726 C2722 0.950 . S
C2727 C2725 1.390 . S
C2727 C2728 1.387 . S
C2727 H2730 0.950 . S
C2728 C2727 1.387 . S
C2728 C2731 1.387 . S
H2729 C2725 0.950 . S
H2730 C2727 0.950 . S
C2731 C2722 1.390 . S
C2731 H2724 0.950 . S
C2731 C2728 1.387 . S
C2732 C2733 1.387 . S
C2732 H2736 0.950 . S
C2732 C2741 1.390 . S
C2733 C2732 1.387 . S
C2733 C2735 1.387 . S
H2734 C2741 0.950 . S
C2735 C2733 1.387 . S
C2735 C2737 1.390 . S
C2735 H2739 0.950 . S
H2736 C2732 0.950 . S
C2737 C2735 1.390 . S
C2737 C2738 1.387 . S
C2737 H2740 0.950 . S
C2738 C2737 1.387 . S
C2738 C2741 1.387 . S
H2739 C2735 0.950 . S
H2740 C2737 0.950 . S
C2741 C2732 1.390 . S
C2741 H2734 0.950 . S
C2741 C2738 1.387 . S
C2742 C2743 1.387 . S
C2742 H2746 0.950 . S
C2742 C2751 1.390 . S
C2743 C2742 1.387 . S
C2743 C2745 1.387 . S
H2744 C2751 0.950 . S
C2745 C2743 1.387 . S
C2745 C2747 1.390 . S
C2745 H2749 0.950 . S
H2746 C2742 0.950 . S
C2747 C2745 1.390 . S
C2747 C2748 1.387 . S
C2747 H2750 0.950 . S
C2748 C2747 1.387 . S
C2748 C2751 1.387 . S
H2749 C2745 0.950 . S
H2750 C2747 0.950 . S
C2751 C2742 1.390 . S
C2751 H2744 0.950 . S
C2751 C2748 1.387 . S
C2752 C2753 1.387 . S
C2752 H2756 0.950 . S
C2752 C2761 1.390 . S
C2753 C2752 1.387 . S
C2753 C2755 1.387 . S
H2754 C2761 0.950 . S
C2755 C2753 1.387 . S
C2755 C2757 1.390 . S
C2755 H2759 0.950 . S
H2756 C2752 0.950 . S
C2757 C2755 1.390 . S
C2757 C2758 1.387 . S
C2757 H2760 0.950 . S
C2758 C2757 1.387 . S
C2758 C2761 1.387 . S
H2759 C2755 0.950 . S
H2760 C2757 0.950 . S
C2761 C2752 1.390 . S
C2761 H2754 0.950 . S
C2761 C2758 1.387 . S
C2762 C2763 1.387 . S
C2762 H2766 0.950 . S
C2762 C2771 1.390 . S
C2763 C2762 1.387 . S
C2763 C2765 1.387 . S
H2764 C2771 0.950 . S
C2765 C2763 1.387 . S
C2765 C2767 1.390 . S
C2765 H2769 0.950 . S
H2766 C2762 0.950 . S
C2767 C2765 1.390 . S
C2767 C2768 1.387 . S
C2767 H2770 0.950 . S
C2768 C2767 1.387 . S
C2768 C2771 1.387 . S
H2769 C2765 0.950 . S
H2770 C2767 0.950 . S
C2771 C2762 1.390 . S
C2771 H2764 0.950 . S
C2771 C2768 1.387 . S
C2772 C2773 1.387 . S
C2772 H2776 0.950 . S
C2772 C2781 1.390 . S
C2773 C2772 1.387 . S
C2773 C2775 1.387 . S
H2774 C2781 0.950 . S
C2775 C2773 1.387 . S
C2775 C2777 1.390 . S
C2775 H2779 0.950 . S
H2776 C2772 0.950 . S
C2777 C2775 1.390 . S
C2777 C2778 1.387 . S
C2777 H2780 0.950 . S
C2778 C2777 1.387 . S
C2778 C2781 1.387 . S
H2779 C2775 0.950 . S
H2780 C2777 0.950 . S
C2781 C2772 1.390 . S
C2781 H2774 0.950 . S
C2781 C2778 1.387 . S
C2782 C2783 1.387 . S
C2782 H2786 0.950 . S
C2782 C2791 1.390 . S
C2783 C2782 1.387 . S
C2783 C2785 1.387 . S
H2784 C2791 0.950 . S
C2785 C2783 1.387 . S
C2785 C2787 1.390 . S
C2785 H2789 0.950 . S
H2786 C2782 0.950 . S
C2787 C2785 1.390 . S
C2787 C2788 1.387 . S
C2787 H2790 0.950 . S
C2788 C2787 1.387 . S
C2788 C2791 1.387 . S
H2789 C2785 0.950 . S
H2790 C2787 0.950 . S
C2791 C2782 1.390 . S
C2791 H2784 0.950 . S
C2791 C2788 1.387 . S
C2792 C2793 1.387 . S
C2792 H2796 0.950 . S
C2792 C2801 1.390 . S
C2793 C2792 1.387 . S
C2793 C2795 1.387 . S
H2794 C2801 0.950 . S
C2795 C2793 1.387 . S
C2795 C2797 1.390 . S
C2795 H2799 0.950 . S
H2796 C2792 0.950 . S
C2797 C2795 1.390 . S
C2797 C2798 1.387 . S
C2797 H2800 0.950 . S
C2798 C2797 1.387 . S
C2798 C2801 1.387 . S
H2799 C2795 0.950 . S
H2800 C2797 0.950 . S
C2801 C2792 1.390 . S
C2801 H2794 0.950 . S
C2801 C2798 1.387 . S
C2802 C2803 1.387 . S
C2802 H2806 0.950 . S
C2802 C2811 1.390 . S
C2803 C2802 1.387 . S
C2803 C2805 1.387 . S
H2804 C2811 0.950 . S
C2805 C2803 1.387 . S
C2805 C2807 1.390 . S
C2805 H2809 0.950 . S
H2806 C2802 0.950 . S
C2807 C2805 1.390 . S
C2807 C2808 1.387 . S
C2807 H2810 0.950 . S
C2808 C2807 1.387 . S
C2808 C2811 1.387 . S
H2809 C2805 0.950 . S
H2810 C2807 0.950 . S
C2811 C2802 1.390 . S
C2811 H2804 0.950 . S
C2811 C2808 1.387 . S
C2812 C2813 1.387 . S
C2812 H2816 0.950 . S
C2812 C2821 1.390 . S
C2813 C2812 1.387 . S
C2813 C2815 1.387 . S
H2814 C2821 0.950 . S
C2815 C2813 1.387 . S
C2815 C2817 1.390 . S
C2815 H2819 0.950 . S
H2816 C2812 0.950 . S
C2817 C2815 1.390 . S
C2817 C2818 1.387 . S
C2817 H2820 0.950 . S
C2818 C2817 1.387 . S
C2818 C2821 1.387 . S
H2819 C2815 0.950 . S
H2820 C2817 0.950 . S
C2821 C2812 1.390 . S
C2821 H2814 0.950 . S
C2821 C2818 1.387 . S
C2822 C2823 1.387 . S
C2822 H2826 0.950 . S
C2822 C2831 1.390 . S
C2823 C2822 1.387 . S
C2823 C2825 1.387 . S
H2824 C2831 0.950 . S
C2825 C2823 1.387 . S
C2825 C2827 1.390 . S
C2825 H2829 0.950 . S
H2826 C2822 0.950 . S
C2827 C2825 1.390 . S
C2827 C2828 1.387 . S
C2827 H2830 0.950 . S
C2828 C2827 1.387 . S
C2828 C2831 1.387 . S
H2829 C2825 0.950 . S
H2830 C2827 0.950 . S
C2831 C2822 1.390 . S
C2831 H2824 0.950 . S
C2831 C2828 1.387 . S
C1633 C549 1.511 . S
C1638 C33 1.528 . S
C1643 C1603 1.511 . S
C1648 C67 1.528 1_554 S
C1653 C101 1.524 . S
C1658 C1535 1.507 . S
C1663 C135 1.525 1_554 S
C1668 C1569 1.508 . S
C1673 C169 1.527 . S
C1678 C583 1.509 . S
C1683 C617 1.507 . S
C1688 C203 1.525 1_556 S
C1693 C651 1.508 . S
C1698 C237 1.526 . S
C1703 C1501 1.511 . S
C1708 C271 1.528 1_556 S
C1713 C305 1.528 . S
C1718 C5 1.511 . S
C1723 C39 1.508 . S
C1728 C339 1.525 . S
C1733 C373 1.525 . S
C1738 C73 1.507 . S
C1743 C107 1.508 . S
C1748 C407 1.526 1_565 S
C1753 C441 1.525 . S
C1758 C141 1.507 . S
C1763 C475 1.528 . S
C1768 C175 1.511 . S
C1773 C209 1.507 . S
C1778 C509 1.525 . S
C1783 C243 1.511 . S
C1788 C543 1.528 1_565 S
C1793 C277 1.511 . S
C1798 C577 1.528 . S
C1803 C413 1.508 . S
C1808 C611 1.525 . S
C1813 C447 1.511 . S
C1818 C645 1.528 1_455 S
C1823 C481 1.511 . S
C1828 C679 1.528 . S
C1833 C1331 1.507 . S
C1838 C713 1.525 . S
C1843 C747 1.528 . S
C1848 C1161 1.511 . S
C1853 C1195 1.507 . S
C1858 C781 1.525 1_455 S
C1863 C815 1.526 1_655 S
C1868 C1127 1.508 . S
C1873 C849 1.528 . S
C1878 C1365 1.510 . S
C1883 C883 1.528 . S
C1888 C787 1.511 . S
C1893 C719 1.509 . S
C1898 C917 1.526 . S
C1903 C753 1.507 . S
C1908 C951 1.524 . S
C1913 C1399 1.510 . S
C1918 C985 1.527 . S
C1923 C1019 1.528 . S
C1928 C1433 1.511 . S
C1933 C1467 1.511 . S
C1938 C1053 1.528 . S
C1943 C1087 1.528 . S
C1948 C685 1.511 . S
C1953 C821 1.510 . S
C1958 C1121 1.527 . S
C1963 C855 1.511 . S
C1968 C1155 1.528 1_545 S
C1973 C1189 1.528 . S
C1978 C889 1.511 . S
C1983 C1223 1.525 . S
C1988 C923 1.508 . S
C1993 C1257 1.528 . S
C1998 C957 1.511 . S
C2003 C991 1.511 . S
C2008 C1291 1.528 1_545 S
C2013 C1325 1.524 . S
C2018 C1025 1.507 . S
C2023 C1059 1.509 . S
C2028 C1359 1.526 . S
C2033 C1093 1.507 . S
C2038 C1393 1.525 . S
C2043 C1427 1.525 . S
C2048 C1229 1.507 . S
C2053 C1263 1.507 . S
C2058 C1461 1.525 . S
C2063 C1297 1.511 . S
C2068 C1495 1.528 . S
C2073 C1529 1.528 1_655 S
C2078 C515 1.511 . S
C2083 C1563 1.528 . S
C2088 C345 1.511 . S
C2093 C1597 1.525 . S
C2098 C379 1.507 . S
C2103 C311 1.511 . S
C2108 C1631 1.528 . S
C2113 C20 1.460 . S
C2118 C156 1.460 . S
C2123 C54 1.460 . S
C2128 C190 1.460 . S
C2133 C224 1.464 . S
C2138 C88 1.464 . S
C2143 C258 1.464 . S
C2148 C122 1.464 . S
C2153 C1312 1.464 . S
C2158 C292 1.464 . S
C2163 C1346 1.460 . S
C2168 C326 1.460 . S
C2173 C1244 1.464 . S
C2178 C360 1.464 . S
C2183 C394 1.460 . S
C2188 C1278 1.460 . S
C2193 C428 1.460 . S
C2198 C1176 1.460 . S
C2203 C462 1.460 . S
C2208 C1210 1.460 . S
C2213 C496 1.464 . S
C2218 C1108 1.464 . S
C2223 C530 1.460 . S
C2228 C1142 1.460 . S
C2233 C1550 1.460 . S
C2238 C564 1.460 . S
C2243 C666 1.460 . S
C2248 C598 1.460 . S
C2253 C1516 1.460 . S
C2258 C632 1.460 . S
C2263 C1448 1.464 . S
C2268 C700 1.464 . S
C2273 C734 1.460 . S
C2278 C1380 1.460 . S
C2283 C768 1.464 . S
C2288 C802 1.464 . S
C2293 C972 1.464 . S
C2298 C836 1.464 . S
C2303 C1006 1.464 . S
C2308 C870 1.464 . S
C2313 C904 1.460 . S
C2318 C1040 1.460 . S
C2323 C1074 1.464 . S
C2328 C938 1.464 . S
C2333 C1414 1.464 . S
C2338 C1482 1.464 . S
C2343 C1618 1.464 . S
C2348 C1584 1.464 . S
C2353 C2 1.534 . S
C2358 C927 1.462 . S
C2363 C36 1.531 . S
C2368 C825 1.457 . S
C2373 C70 1.533 . S
C2378 C859 1.459 . S
C2383 C893 1.461 . S
C2388 C104 1.533 . S
C2393 C138 1.531 . S
C2398 C179 1.458 . S
C2403 C213 1.457 1_455 S
C2408 C172 1.531 . S
C2413 C247 1.457 . S
C2418 C206 1.531 . S
C2423 C240 1.534 . S
C2428 C145 1.462 1_655 S
C2433 C1437 1.457 . S
C2438 C274 1.531 . S
C2443 C308 1.533 . S
C2448 C1471 1.462 1_554 S
C2453 C689 1.457 . S
C2458 C342 1.531 . S
C2463 C376 1.531 . S
C2468 C1403 1.457 1_554 S
C2473 C410 1.531 . S
C2478 C1573 1.457 . S
C2483 C444 1.531 . S
C2488 C553 1.457 1_556 S
C2493 C1607 1.457 . S
C2498 C478 1.531 . S
C2503 C1539 1.462 1_556 S
C2508 C512 1.533 . S
C2513 C315 1.457 . S
C2518 C546 1.531 . S
C2523 C580 1.534 . S
C2528 C1335 1.462 . S
C2533 C614 1.531 . S
C2538 C1233 1.457 . S
C2543 C648 1.534 . S
C2548 C1267 1.462 . S
C2553 C485 1.461 . S
C2558 C682 1.533 . S
C2563 C716 1.533 . S
C2568 C1199 1.461 . S
C2573 C750 1.534 . S
C2578 C1097 1.462 . S
C2583 C1165 1.457 1_545 S
C2588 C784 1.531 . S
C2593 C818 1.534 . S
C2598 C111 1.460 . S
C2603 C852 1.531 . S
C2608 C9 1.457 1_655 S
C2613 C886 1.531 . S
C2618 C43 1.458 . S
C2623 C920 1.533 . S
C2628 C77 1.462 1_455 S
C2633 C954 1.534 . S
C2638 C995 1.461 . S
C2643 C988 1.531 . S
C2648 C1029 1.458 . S
C2653 C1022 1.534 . S
C2658 C1063 1.462 . S
C2663 C961 1.457 . S
C2668 C1056 1.531 . S
C2673 C1090 1.531 . S
C2678 C621 1.457 . S
C2683 C1124 1.534 . S
C2688 C655 1.459 . S
C2693 C1158 1.534 . S
C2698 C1505 1.462 . S
C2703 C587 1.461 . S
C2708 C1192 1.534 . S
C2713 C757 1.462 . S
C2718 C1226 1.534 . S
C2723 C1260 1.531 . S
C2728 C1369 1.457 . S
C2733 C1294 1.534 . S
C2738 C791 1.462 . S
C2743 C1328 1.531 . S
C2748 C723 1.458 . S
C2753 C1131 1.462 . S
C2758 C1362 1.534 . S
C2763 C1396 1.533 . S
C2768 C519 1.462 . S
C2773 C1430 1.531 . S
C2778 C417 1.457 1_545 S
C2783 C1464 1.534 . S
C2788 C451 1.462 . S
C2793 C1301 1.457 1_565 S
C2798 C1498 1.531 . S
C2803 C383 1.457 . S
C2808 C1532 1.531 . S
C2813 C281 1.457 1_565 S
C2818 C1566 1.531 . S
C2823 C349 1.457 . S
C2828 C1600 1.532 . S
