# Generated by pormake.
# Topology qtz-e, (6)-cn, num edge types: 1
# Building blocks:
#     Node 0, Type 0, BuildingBlock: CUKXOW_clean_sbu_0, # of connection points: 6
#     Node 1, Type 0, BuildingBlock: CUKXOW_clean_sbu_0, # of connection points: 6
#     Node 2, Type 0, BuildingBlock: CUKXOW_clean_sbu_0, # of connection points: 6
#     Node 3, Type 0, BuildingBlock: CUKXOW_clean_sbu_0, # of connection points: 6
#     Node 4, Type 0, BuildingBlock: CUKXOW_clean_sbu_0, # of connection points: 6
#     Node 5, Type 0, BuildingBlock: CUKXOW_clean_sbu_0, # of connection points: 6
#     Edge 6, Type (0, 0), BuildingBlock: FUNLAD_clean_linker_1, # of connection points: 2
#     Edge 7, Type (0, 0), BuildingBlock: FUNLAD_clean_linker_1, # of connection points: 2
#     Edge 8, Type (0, 0), BuildingBlock: FUNLAD_clean_linker_1, # of connection points: 2
#     Edge 9, Type (0, 0), BuildingBlock: FUNLAD_clean_linker_1, # of connection points: 2
#     Edge 10, Type (0, 0), BuildingBlock: FUNLAD_clean_linker_1, # of connection points: 2
#     Edge 11, Type (0, 0), BuildingBlock: FUNLAD_clean_linker_1, # of connection points: 2
#     Edge 12, Type (0, 0), BuildingBlock: FUNLAD_clean_linker_1, # of connection points: 2
#     Edge 13, Type (0, 0), BuildingBlock: FUNLAD_clean_linker_1, # of connection points: 2
#     Edge 14, Type (0, 0), BuildingBlock: FUNLAD_clean_linker_1, # of connection points: 2
#     Edge 15, Type (0, 0), BuildingBlock: FUNLAD_clean_linker_1, # of connection points: 2
#     Edge 16, Type (0, 0), BuildingBlock: FUNLAD_clean_linker_1, # of connection points: 2
#     Edge 17, Type (0, 0), BuildingBlock: FUNLAD_clean_linker_1, # of connection points: 2
#     Edge 18, Type (0, 0), BuildingBlock: FUNLAD_clean_linker_1, # of connection points: 2
#     Edge 19, Type (0, 0), BuildingBlock: FUNLAD_clean_linker_1, # of connection points: 2
#     Edge 20, Type (0, 0), BuildingBlock: FUNLAD_clean_linker_1, # of connection points: 2
#     Edge 21, Type (0, 0), BuildingBlock: FUNLAD_clean_linker_1, # of connection points: 2
#     Edge 22, Type (0, 0), BuildingBlock: FUNLAD_clean_linker_1, # of connection points: 2
#     Edge 23, Type (0, 0), BuildingBlock: FUNLAD_clean_linker_1, # of connection points: 2
# Relax obj value: 0.117
# Max RMSD: 0.164
# Mean RMSD: 0.164
data_MOF--net-qtz-e--node1-CUKXOW_clean_sbu_0--edge1-FUNLAD_clean_linker_1
_symmetry_space_group_name_H-M    P1
_symmetry_Int_Tables_number       1
_symmetry_cell_setting            triclinic
loop_
_symmetry_equiv_pos_as_xyz
'x, y, z'
_cell_length_a     27.415043
_cell_length_b     27.140044
_cell_length_c     38.649326
_cell_angle_alpha  90.496567
_cell_angle_beta   89.188877
_cell_angle_gamma 119.56836
loop_
_atom_site_label
_atom_site_type_symbol
_atom_site_fract_x
_atom_site_fract_y
_atom_site_fract_z
_atom_type_partial_charge
Tb0 Tb 0.17992 0.38964 0.05782 0.0
C1 C 0.31068 0.46803 0.06086 0.0
Tb2 Tb 0.23851 0.47938 1.0018 0.0
O3 O 0.20521 0.33197 0.03357 0.0
O4 O 0.19615 0.38991 1.00372 0.0
O5 O 0.26396 0.43854 0.0794 0.0
C6 C 0.29657 0.543 0.94776 0.0
O7 O 0.31032 0.48437 1.02868 0.0
C8 C 0.20116 0.51076 0.05595 0.0
C9 C 0.10955 0.40824 0.99995 0.0
O10 O 0.30054 0.50062 0.95977 0.0
O11 O 0.26053 0.54967 0.96622 0.0
O12 O 0.20638 0.53182 1.02533 0.0
O13 O 0.22228 0.47897 0.05582 0.0
O14 O 0.1554 0.43234 0.9804 0.0
O15 O 0.10978 0.3916 0.03219 0.0
C16 C 0.11932 0.33296 0.11359 0.0
O17 O 0.10737 0.36288 0.09302 0.0
O18 O 0.1648 0.33432 0.10256 0.0
C19 C 0.21454 0.35572 1.00343 0.0
Tb20 Tb 0.79369 0.15754 0.38634 0.0
C21 C 0.88197 0.28671 0.38267 0.0
Tb22 Tb 0.7795 0.23601 0.33385 0.0
O23 O 0.86903 0.16897 0.35725 0.0
O24 O 0.80453 0.17447 0.33301 0.0
O25 O 0.85556 0.24203 0.40313 0.0
C26 C 0.76919 0.28739 0.27867 0.0
O27 O 0.86511 0.28869 0.35104 0.0
C28 C 0.74856 0.23965 0.39788 0.0
C29 C 0.68903 0.10516 0.33655 0.0
O30 O 0.81269 0.28194 0.28519 0.0
O31 O 0.73171 0.26383 0.30298 0.0
O32 O 0.76686 0.28228 0.37684 0.0
O33 O 0.74445 0.19746 0.3817 0.0
O34 O 0.70902 0.15425 0.31999 0.0
O35 O 0.71417 0.09663 0.3632 0.0
C36 C 0.77664 0.10251 0.44579 0.0
O37 O 0.78636 0.08513 0.4162 0.0
O38 O 0.7779 0.1503 0.44162 0.0
C39 C 0.8526 0.18097 0.32853 0.0
Tb40 Tb 0.6198 0.79567 0.72219 0.0
C41 C 0.56384 0.87367 0.72876 0.0
Tb42 Tb 0.54285 0.79684 0.66482 0.0
O43 O 0.69696 0.84793 0.69264 0.0
O44 O 0.62462 0.85269 0.68329 0.0
O45 O 0.58277 0.84416 0.74555 0.0
C46 C 0.49664 0.80874 0.60739 0.0
O47 O 0.55757 0.87061 0.69474 0.0
C48 C 0.49406 0.72523 0.71623 0.0
C49 C 0.59518 0.71615 0.65672 0.0
O50 O 0.47313 0.79702 0.63781 0.0
O51 O 0.54587 0.81334 0.60922 0.0
O52 O 0.46899 0.74676 0.69883 0.0
O53 O 0.54057 0.74001 0.70241 0.0
O54 O 0.5719 0.74255 0.64095 0.0
O55 O 0.60938 0.72444 0.68999 0.0
C56 C 0.64856 0.77531 0.78398 0.0
O57 O 0.67819 0.78509 0.75574 0.0
O58 O 0.60364 0.77766 0.77747 0.0
C59 C 0.6729 0.86641 0.67177 0.0
Tb60 Tb 0.81935 0.62159 0.05307 0.0
C61 C 0.68969 0.56928 0.07296 0.0
Tb62 Tb 0.72643 0.53081 1.00618 0.0
O63 O 0.84851 0.68267 1.01055 0.0
O64 O 0.76408 0.61955 1.0145 0.0
O65 O 0.74234 0.59512 0.0838 0.0
C66 C 0.65688 0.47703 0.95418 0.0
O67 O 0.67484 0.54739 0.04154 0.0
C68 C 0.74923 0.49273 0.06213 0.0
C69 C 0.85344 0.56818 0.99139 0.0
O70 O 0.66301 0.52251 0.96928 0.0
O71 O 0.68994 0.46162 0.96828 0.0
O72 O 0.7015 0.4648 0.04633 0.0
O73 O 0.78156 0.53432 0.04409 0.0
O74 O 0.80364 0.55173 0.97754 0.0
O75 O 0.86772 0.59286 1.02237 0.0
C76 C 0.88401 0.67734 0.10677 0.0
O77 O 0.87856 0.63077 0.09356 0.0
O78 O 0.85399 0.69315 0.08935 0.0
C79 C 0.79983 0.65883 0.99573 0.0
Tb80 Tb 0.15809 0.81901 0.39575 0.0
C81 C 0.0793 0.68762 0.39816 0.0
Tb82 Tb 0.18321 0.74376 0.34598 0.0
O83 O 0.08836 0.80872 0.3627 0.0
O84 O 0.15633 0.80371 0.34224 0.0
O85 O 0.09976 0.73543 0.41618 0.0
C86 C 0.18078 0.6742 0.29597 0.0
O87 O 0.10135 0.68385 0.36803 0.0
C88 C 0.23625 0.77064 0.40475 0.0
C89 C 0.26555 0.87411 0.34511 0.0
O90 O 0.1555 0.70396 0.29503 0.0
O91 O 0.20725 0.68358 0.32491 0.0
O92 O 0.25613 0.75994 0.37672 0.0
O93 O 0.18687 0.76016 0.39971 0.0
O94 O 0.24662 0.82592 0.32759 0.0
O95 O 0.23904 0.88051 0.37244 0.0
C96 C 0.17122 0.88669 0.44964 0.0
O97 O 0.12749 0.86356 0.42985 0.0
O98 O 0.20744 0.87242 0.43873 0.0
C99 C 0.10868 0.79621 0.33548 0.0
Tb100 Tb 0.3743 0.21619 0.7177 0.0
C101 C 0.38539 0.10856 0.72966 0.0
Tb102 Tb 0.45603 0.19355 0.67169 0.0
O103 O 0.30185 0.14426 0.69199 0.0
O104 O 0.37831 0.19027 0.66672 0.0
O105 O 0.37906 0.1488 0.74512 0.0
C106 C 0.50543 0.16949 0.6196 0.0
O107 O 0.40373 0.11301 0.6973 0.0
C108 C 0.49223 0.23468 0.73376 0.0
C109 C 0.45421 0.30747 0.66185 0.0
O110 O 0.4542 0.13701 0.63027 0.0
O111 O 0.52887 0.21526 0.63833 0.0
O112 O 0.5096 0.20494 0.71642 0.0
O113 O 0.46121 0.24433 0.71473 0.0
O114 O 0.46684 0.27036 0.64784 0.0
O115 O 0.4226 0.29727 0.69041 0.0
C116 C 0.32985 0.25446 0.76562 0.0
O117 O 0.32191 0.25379 0.73245 0.0
O118 O 0.36204 0.23307 0.77163 0.0
C119 C 0.33081 0.14775 0.66426 0.0
H120 H 0.21245 0.62262 0.2704 0.0
C121 C 0.18387 0.63926 0.26765 0.0
H122 H 0.12798 0.64843 0.23498 0.0
H123 H 0.25815 0.63679 0.10117 0.0
H124 H 0.28172 0.73515 0.10136 0.0
H125 H 0.25217 0.77465 0.14974 0.0
H126 H 0.19983 0.71609 0.19847 0.0
C127 C 0.15525 0.63033 0.23823 0.0
C128 C 0.16699 0.60385 0.20762 0.0
C129 C 0.19489 0.6379 0.17839 0.0
C130 C 0.20973 0.61448 0.14977 0.0
C131 C 0.24238 0.65107 0.12252 0.0
C132 C 0.25705 0.70804 0.12254 0.0
C133 C 0.24058 0.73031 0.14981 0.0
C134 C 0.2103 0.69603 0.17759 0.0
H135 H 0.16165 0.55337 0.08362 0.0
C136 C 0.18578 0.53187 0.08702 0.0
H137 H 0.22955 0.5087 0.12174 0.0
H138 H 0.11257 0.52644 0.25918 0.0
H139 H 0.0936 0.42921 0.26039 0.0
H140 H 0.11936 0.38863 0.21081 0.0
H141 H 0.16275 0.44431 0.15937 0.0
C142 C 0.20503 0.52984 0.11847 0.0
C143 C 0.19367 0.55601 0.1495 0.0
C144 C 0.1672 0.52238 0.17917 0.0
C145 C 0.15346 0.54619 0.20814 0.0
C146 C 0.12574 0.51118 0.237 0.0
C147 C 0.11425 0.45517 0.23794 0.0
C148 C 0.12856 0.43224 0.20997 0.0
C149 C 0.15373 0.46486 0.18062 0.0
H150 H 0.50956 0.11638 0.57726 0.0
C151 C 0.53121 0.1581 0.58915 0.0
H152 H 0.60017 0.24086 0.587 0.0
H153 H 0.76649 0.20826 0.49188 0.0
H154 H 0.81264 0.22505 0.54724 0.0
H155 H 0.76385 0.22588 0.60119 0.0
H156 H 0.66877 0.21032 0.6 0.0
C157 C 0.57841 0.19946 0.57468 0.0
C158 C 0.60422 0.19097 0.54259 0.0
C159 C 0.65974 0.19991 0.54376 0.0
C160 C 0.68764 0.19859 0.51276 0.0
C161 C 0.74325 0.20832 0.51466 0.0
C162 C 0.77024 0.21806 0.54629 0.0
C163 C 0.74279 0.21862 0.57665 0.0
C164 C 0.68828 0.20984 0.57556 0.0
H165 H 0.73199 0.27748 0.44416 0.0
C166 C 0.72407 0.23778 0.43232 0.0
H167 H 0.67833 0.14841 0.43539 0.0
H168 H 0.49853 0.17483 0.52997 0.0
H169 H 0.4504 0.14979 0.4753 0.0
H170 H 0.49685 0.14072 0.42243 0.0
H171 H 0.59235 0.15784 0.42402 0.0
C172 C 0.68928 0.18848 0.44797 0.0
C173 C 0.6596 0.18715 0.48073 0.0
C174 C 0.60314 0.17511 0.47969 0.0
C175 C 0.57572 0.17832 0.51048 0.0
C176 C 0.52071 0.17027 0.50799 0.0
C177 C 0.49265 0.15645 0.47656 0.0
C178 C 0.51884 0.15152 0.44678 0.0
C179 C 0.57363 0.16131 0.44809 0.0
H180 H 0.31002 0.60416 0.90692 0.0
C181 C 0.3241 0.57575 0.91643 0.0
H182 H 0.37741 0.54141 0.90806 0.0
H183 H 0.39104 0.57862 0.74599 0.0
H184 H 0.3533 0.47707 0.7508 0.0
H185 H 0.32922 0.43033 0.80787 0.0
H186 H 0.34261 0.48471 0.86031 0.0
C187 C 0.36395 0.5705 0.89896 0.0
C188 C 0.38585 0.59977 0.86513 0.0
C189 C 0.37768 0.56719 0.83465 0.0
C190 C 0.39159 0.59413 0.80172 0.0
C191 C 0.38196 0.56047 0.77167 0.0
C192 C 0.36007 0.50208 0.77405 0.0
C193 C 0.34649 0.47576 0.80616 0.0
C194 C 0.35462 0.50761 0.83614 0.0
H195 H 0.50081 0.67624 0.75897 0.0
C196 C 0.47455 0.69185 0.74822 0.0
H197 H 0.40229 0.69964 0.75562 0.0
H198 H 0.41969 0.67614 0.91861 0.0
H199 H 0.46121 0.77814 0.91389 0.0
H200 H 0.48075 0.82426 0.85671 0.0
H201 H 0.45959 0.7687 0.80397 0.0
C202 C 0.42772 0.6822 0.7651 0.0
C203 C 0.41372 0.65357 0.79938 0.0
C204 C 0.42458 0.68645 0.82991 0.0
C205 C 0.41173 0.6597 0.86284 0.0
C206 C 0.42618 0.69398 0.89293 0.0
C207 C 0.45062 0.75266 0.89058 0.0
C208 C 0.46174 0.77864 0.8584 0.0
C209 C 0.44922 0.74619 0.82833 0.0
H210 H 0.72124 0.3117 0.24476 0.0
C211 C 0.76221 0.31557 0.24855 0.0
H212 H 0.84515 0.34959 0.22963 0.0
H213 H 0.77238 0.36546 0.07663 0.0
H214 H 0.81251 0.30377 0.06926 0.0
H215 H 0.84477 0.27283 0.11964 0.0
H216 H 0.83722 0.30339 0.17764 0.0
C217 C 0.80434 0.3462 0.22636 0.0
C218 C 0.79438 0.3726 0.19568 0.0
C219 C 0.79951 0.35447 0.162 0.0
C220 C 0.78065 0.37203 0.133 0.0
C221 C 0.78565 0.35297 0.0996 0.0
C222 C 0.80861 0.31758 0.095 0.0
C223 C 0.82683 0.30021 0.12336 0.0
C224 C 0.82224 0.3181 0.15655 0.0
H225 H 0.80746 0.50517 0.10402 0.0
C226 C 0.76683 0.47563 0.09325 0.0
H227 H 0.6965 0.39352 0.09624 0.0
H228 H 0.79239 0.42651 0.25552 0.0
H229 H 0.75727 0.49246 0.26247 0.0
H230 H 0.72041 0.51948 0.21257 0.0
H231 H 0.71896 0.48114 0.15545 0.0
C232 C 0.73593 0.42462 0.10761 0.0
C233 C 0.75743 0.40811 0.13779 0.0
C234 C 0.75613 0.42957 0.17113 0.0
C235 C 0.7755 0.41248 0.20006 0.0
C236 C 0.77588 0.4362 0.23291 0.0
C237 C 0.75637 0.47454 0.2372 0.0
C238 C 0.73585 0.48994 0.20909 0.0
C239 C 0.73546 0.46774 0.1764 0.0
H240 H 0.49225 0.81528 0.55091 0.0
C241 C 0.47019 0.8115 0.5752 0.0
H242 H 0.39687 0.80368 0.59913 0.0
H243 H 0.33327 0.89067 0.46272 0.0
H244 H 0.36528 0.97392 0.49921 0.0
H245 H 0.40781 0.97893 0.55576 0.0
H246 H 0.41879 0.90051 0.5763 0.0
C247 C 0.41878 0.80608 0.575 0.0
C248 C 0.38994 0.80171 0.54185 0.0
C249 C 0.3821 0.84698 0.53079 0.0
C250 C 0.35706 0.84388 0.49825 0.0
C251 C 0.35131 0.89043 0.48738 0.0
C252 C 0.3697 0.93858 0.50801 0.0
C253 C 0.39376 0.94143 0.53987 0.0
C254 C 0.39988 0.89624 0.55131 0.0
H255 H 0.23922 0.78343 0.46132 0.0
C256 C 0.26326 0.78339 0.43873 0.0
H257 H 0.33885 0.79024 0.41984 0.0
H258 H 0.39145 0.70405 0.55749 0.0
H259 H 0.35902 0.6207 0.52123 0.0
H260 H 0.31736 0.61608 0.46431 0.0
H261 H 0.30771 0.69473 0.44342 0.0
C262 C 0.31548 0.79201 0.44233 0.0
C263 C 0.33955 0.79525 0.47703 0.0
C264 C 0.34589 0.7493 0.48856 0.0
C265 C 0.37056 0.75226 0.52115 0.0
C266 C 0.37448 0.70484 0.53255 0.0
C267 C 0.35563 0.65647 0.51209 0.0
C268 C 0.33214 0.65385 0.48007 0.0
C269 C 0.32705 0.69946 0.46835 0.0
H270 H 0.58686 0.45971 0.91963 0.0
C271 C 0.61878 0.44837 0.92524 0.0
H272 H 0.65597 0.39928 0.91103 0.0
H273 H 0.45956 0.20916 0.82649 0.0
H274 H 0.46226 0.15687 0.87632 0.0
H275 H 0.5215 0.2068 0.92636 0.0
H276 H 0.578 0.30921 0.92697 0.0
C277 C 0.62442 0.411 0.905 0.0
C278 C 0.58647 0.38176 0.87535 0.0
C279 C 0.55429 0.32173 0.87521 0.0
C280 C 0.52113 0.29277 0.84605 0.0
C281 C 0.48755 0.23302 0.84726 0.0
C282 C 0.48812 0.20254 0.8759 0.0
C283 C 0.52138 0.23067 0.90409 0.0
C284 C 0.55389 0.28952 0.904 0.0
H285 H 0.54448 0.25326 0.77998 0.0
C286 C 0.51324 0.26073 0.76781 0.0
H287 H 0.46638 0.30293 0.77051 0.0
H288 H 0.64533 0.49736 0.86534 0.0
H289 H 0.63377 0.54888 0.81847 0.0
H290 H 0.56661 0.49868 0.77191 0.0
H291 H 0.51602 0.39629 0.76953 0.0
C292 C 0.49606 0.29412 0.78345 0.0
C293 C 0.52099 0.32376 0.81673 0.0
C294 C 0.5482 0.38377 0.81838 0.0
C295 C 0.58299 0.41291 0.847 0.0
C296 C 0.61504 0.47284 0.84581 0.0
C297 C 0.60919 0.50313 0.81884 0.0
C298 C 0.5719 0.47481 0.79238 0.0
C299 C 0.54284 0.41587 0.79148 0.0
H300 H 0.40217 0.51057 0.05998 0.0
C301 C 0.36549 0.48728 0.0766 0.0
H302 H 0.33666 0.45185 0.12646 0.0
H303 H 0.56167 0.43476 0.1162 0.0
H304 H 0.4909 0.3365 0.1277 0.0
H305 H 0.39155 0.30997 0.13684 0.0
H306 H 0.36236 0.38149 0.13471 0.0
C307 C 0.3724 0.47665 0.10953 0.0
C308 C 0.43003 0.49395 0.12109 0.0
C309 C 0.44621 0.45224 0.12422 0.0
C310 C 0.50316 0.46741 0.11872 0.0
C311 C 0.51854 0.42482 0.11999 0.0
C312 C 0.47849 0.36862 0.12664 0.0
C313 C 0.42253 0.35369 0.1318 0.0
C314 C 0.40626 0.39489 0.13044 0.0
H315 H 0.65608 0.5825 0.12272 0.0
C316 C 0.64505 0.56314 0.09723 0.0
H317 H 0.58018 0.51179 0.063 0.0
H318 H 0.41375 0.58459 0.12683 0.0
H319 H 0.48524 0.68401 0.11991 0.0
H320 H 0.58405 0.71071 0.10824 0.0
H321 H 0.61219 0.63887 0.10392 0.0
C322 C 0.59115 0.53322 0.08791 0.0
C323 C 0.54303 0.52394 0.11016 0.0
C324 C 0.52844 0.56706 0.11356 0.0
C325 C 0.47155 0.55181 0.11958 0.0
C326 C 0.45669 0.59472 0.12183 0.0
C327 C 0.49716 0.65153 0.118 0.0
C328 C 0.55281 0.66655 0.11145 0.0
C329 C 0.56846 0.62491 0.10899 0.0
H330 H 0.02364 0.63683 0.44126 0.0
C331 C 0.038 0.63485 0.41519 0.0
H332 H 0.04136 0.5825 0.37563 0.0
H333 H 0.02182 0.38115 0.4538 0.0
H334 H 0.1239 0.44006 0.45434 0.0
H335 H 0.16914 0.54199 0.4403 0.0
H336 H 0.11291 0.58554 0.4255 0.0
C337 C 0.02497 0.58471 0.40102 0.0
C338 C -0.00152 0.53164 0.42109 0.0
C339 C 0.03205 0.50787 0.43087 0.0
C340 C 0.00628 0.44956 0.43908 0.0
C341 C 0.04016 0.42557 0.44727 0.0
C342 C 0.09842 0.45886 0.44777 0.0
C343 C 0.1239 0.51626 0.43985 0.0
C344 C 0.09128 0.5407 0.43133 0.0
H345 H 0.95308 0.37242 0.3787 0.0
C346 C 0.92568 0.34 0.39706 0.0
H347 H 0.89143 0.32433 0.44781 0.0
H348 H 0.92278 0.56795 0.4107 0.0
H349 H 0.82115 0.51041 0.41501 0.0
H350 H 0.77649 0.40922 0.43079 0.0
H351 H 0.83329 0.36503 0.44222 0.0
C352 C 0.92231 0.35475 0.42989 0.0
C353 C 0.94745 0.41586 0.43753 0.0
C354 C 0.91383 0.44162 0.43339 0.0
C355 C 0.93949 0.49982 0.42462 0.0
C356 C 0.90515 0.52389 0.41776 0.0
C357 C 0.8469 0.49134 0.42015 0.0
C358 C 0.82173 0.43436 0.42902 0.0
C359 C 0.85464 0.40947 0.43543 0.0
H360 H 0.42034 0.08265 0.77065 0.0
C361 C 0.38816 0.0657 0.75097 0.0
H362 H 0.33768 -0.00224 0.71901 0.0
H363 H 0.52616 0.9469 0.67133 0.0
H364 H 0.49108 0.96195 0.61807 0.0
H365 H 0.41954 0.99195 0.61848 0.0
H366 H 0.38237 0.00581 0.67187 0.0
C367 C 0.37095 0.01386 0.73795 0.0
C368 C 0.40996 0.99037 0.73811 0.0
C369 C 0.4324 0.98391 0.70609 0.0
C370 C 0.47568 0.96948 0.70584 0.0
C371 C 0.4952 0.9604 0.67345 0.0
C372 C 0.475 0.96838 0.64241 0.0
C373 C 0.43474 0.9851 0.64264 0.0
C374 C 0.41354 0.99277 0.67388 0.0
H375 H 0.50622 0.87806 0.76651 0.0
C376 C 0.53963 0.90321 0.74816 0.0
H377 H 0.57981 0.97595 0.71768 0.0
H378 H 0.36863 0.98781 0.80321 0.0
H379 H 0.4083 0.97917 0.85719 0.0
H380 H 0.49212 0.96758 0.85695 0.0
H381 H 0.53569 0.96288 0.80289 0.0
C382 C 0.5459 0.95215 0.73607 0.0
C383 C 0.49878 0.96468 0.73751 0.0
C384 C 0.47604 0.97067 0.76946 0.0
C385 C 0.43002 0.98113 0.76967 0.0
C386 C 0.40535 0.98271 0.80177 0.0
C387 C 0.42745 0.97744 0.83286 0.0
C388 C 0.47449 0.97067 0.83272 0.0
C389 C 0.4988 0.9675 0.80147 0.0
H390 H 0.5503 0.6398 0.62655 0.0
C391 C 0.58959 0.66526 0.63982 0.0
H392 H 0.66264 0.67295 0.66004 0.0
H393 H 0.56778 0.42491 0.70575 0.0
H394 H 0.65273 0.47658 0.73926 0.0
H395 H 0.71711 0.57824 0.72893 0.0
H396 H 0.69859 0.62814 0.68395 0.0
C397 C 0.62496 0.64546 0.64585 0.0
C398 C 0.60666 0.5838 0.64151 0.0
C399 C 0.61906 0.55568 0.66777 0.0
C400 C 0.58173 0.49724 0.67395 0.0
C401 C 0.59445 0.46953 0.70029 0.0
C402 C 0.64312 0.49861 0.71963 0.0
C403 C 0.67933 0.55588 0.71383 0.0
C404 C 0.66764 0.58435 0.68828 0.0
H405 H 0.506 0.37025 0.62256 0.0
C406 C 0.48299 0.36444 0.64673 0.0
H407 H 0.47052 0.40502 0.68984 0.0
H408 H 0.59603 0.61699 0.57717 0.0
H409 H 0.52055 0.56182 0.53649 0.0
H410 H 0.44726 0.46419 0.55078 0.0
H411 H 0.45048 0.42006 0.6045 0.0
C412 C 0.48945 0.40992 0.66429 0.0
C413 C 0.53296 0.46763 0.65362 0.0
C414 C 0.52743 0.49309 0.62318 0.0
C415 C 0.56674 0.55064 0.61616 0.0
C416 C 0.56468 0.5742 0.58415 0.0
C417 C 0.52202 0.543 0.56075 0.0
C418 C 0.48087 0.48796 0.56876 0.0
C419 C 0.48326 0.46305 0.59964 0.0
H420 H 0.07127 0.44397 0.96748 0.0
C421 C 0.06152 0.41255 0.98754 0.0
H422 H 0.00325 0.35876 1.02423 0.0
H423 H 0.90701 0.52201 0.05656 0.0
H424 H 0.90917 0.48397 0.1125 0.0
H425 H 0.94314 0.41563 0.11833 0.0
H426 H 0.97258 0.38308 0.06825 0.0
C427 C 0.01177 0.38965 1.00413 0.0
C428 C 0.9754 0.41612 1.00046 0.0
C429 C 0.95873 0.43485 0.03047 0.0
C430 C 0.94138 0.47609 1.02732 0.0
C431 C 0.92288 0.49264 0.05747 0.0
C432 C 0.92358 0.4709 0.08983 0.0
C433 C 0.94258 0.43235 0.09309 0.0
C434 C 0.95981 0.41425 0.06391 0.0
H435 H 0.86279 0.50669 0.95926 0.0
C436 C 0.88504 0.54172 0.97714 0.0
H437 H 0.95239 0.58231 1.01128 0.0
H438 H 0.97821 0.36966 0.9382 0.0
H439 H 0.97404 0.40566 0.88133 0.0
H440 H 0.96105 0.48906 0.876 0.0
H441 H 0.94918 0.53488 0.92706 0.0
C442 C 0.93122 0.54808 0.99273 0.0
C443 C 0.94304 0.50017 0.99447 0.0
C444 C 0.95424 0.47722 0.96428 0.0
C445 C 0.96676 0.43253 0.96734 0.0
C446 C 0.97197 0.40602 0.93694 0.0
C447 C 0.96934 0.42603 0.90435 0.0
C448 C 0.96176 0.47279 0.90135 0.0
C449 C 0.95449 0.49842 0.93089 0.0
H450 H 0.33452 0.96237 0.34751 0.0
C451 C 0.32111 0.92103 0.33596 0.0
H452 H 0.34592 0.86934 0.30812 0.0
H453 H 0.57538 0.05982 0.24869 0.0
H454 H 0.52163 0.02414 0.19602 0.0
H455 H 0.42005 0.95635 0.19857 0.0
H456 H 0.37169 0.92344 0.25378 0.0
C457 C 0.35851 0.91072 0.31934 0.0
C458 C 0.41891 0.95319 0.31799 0.0
C459 C 0.44609 0.97258 0.2855 0.0
C460 C 0.50436 0.01223 0.28403 0.0
C461 C 0.53099 0.0301 0.25127 0.0
C462 C 0.50065 0.00994 0.22085 0.0
C463 C 0.44347 0.97174 0.22228 0.0
C464 C 0.41626 0.95314 0.25415 0.0
H465 H 0.61758 0.01843 0.33929 0.0
C466 C 0.63241 0.06015 0.32812 0.0
H467 H 0.60958 0.11464 0.3028 0.0
H468 H 0.38295 0.91566 0.3847 0.0
H469 H 0.435 0.95669 0.4371 0.0
H470 H 0.53157 0.03683 0.43463 0.0
H471 H 0.5775 0.07485 0.37958 0.0
C472 C 0.59582 0.07287 0.31354 0.0
C473 C 0.53477 0.0329 0.31505 0.0
C474 C 0.507 0.01544 0.34762 0.0
C475 C 0.44974 0.97305 0.34909 0.0
C476 C 0.42502 0.95098 0.38191 0.0
C477 C 0.45459 0.97369 0.41231 0.0
C478 C 0.50911 0.01857 0.41091 0.0
C479 C 0.53519 0.0395 0.37905 0.0
H480 H 0.27899 0.2924 0.78447 0.0
C481 C 0.30677 0.27677 0.79234 0.0
H482 H 0.34937 0.26451 0.83346 0.0
H483 H 0.34567 0.43699 0.94007 0.0
H484 H 0.44299 0.48788 0.92087 0.0
H485 H 0.47507 0.45423 0.8706 0.0
H486 H 0.41015 0.36977 0.83923 0.0
C487 C 0.31981 0.27811 0.8259 0.0
C488 C 0.29845 0.30147 0.85364 0.0
C489 C 0.33669 0.35146 0.87145 0.0
C490 C 0.31802 0.37132 0.90017 0.0
C491 C 0.35749 0.4206 0.91784 0.0
C492 C 0.41349 0.45008 0.90714 0.0
C493 C 0.43155 0.43118 0.87884 0.0
C494 C 0.39384 0.38248 0.86113 0.0
H495 H 0.24473 0.30412 0.976 0.0
C496 C 0.23494 0.33801 0.97273 0.0
H497 H 0.23218 0.39583 0.9376 0.0
H498 H 0.21425 0.20242 0.82679 0.0
H499 H 0.11665 0.15381 0.84482 0.0
H500 H 0.08355 0.19114 0.89257 0.0
H501 H 0.14818 0.27702 0.92294 0.0
C502 C 0.24146 0.36173 0.94137 0.0
C503 C 0.26095 0.34158 0.91088 0.0
C504 C 0.22239 0.29245 0.89252 0.0
C505 C 0.24123 0.27187 0.86424 0.0
C506 C 0.20215 0.22104 0.84768 0.0
C507 C 0.14594 0.19247 0.8579 0.0
C508 C 0.12732 0.21342 0.88483 0.0
C509 C 0.1649 0.26272 0.90207 0.0
H510 H 0.86081 0.20516 0.27401 0.0
C511 C 0.88394 0.20189 0.29568 0.0
H512 H 0.96257 0.21535 0.31237 0.0
H513 H 0.03012 0.19688 0.15547 0.0
H514 H 0.02241 0.11177 0.18037 0.0
H515 H -0.01006 0.08493 0.24065 0.0
H516 H 0.96422 0.14276 0.27619 0.0
C517 C 0.93865 0.21907 0.29137 0.0
C518 C 0.96629 0.24038 0.25681 0.0
C519 C 0.98389 0.20779 0.23686 0.0
C520 C 0.00488 0.22461 0.20249 0.0
C521 C 0.0174 0.18832 0.18234 0.0
C522 C 0.01233 0.13875 0.19616 0.0
C523 C -0.00614 0.12353 0.23005 0.0
C524 C 0.97934 0.15722 0.25019 0.0
H525 H 0.11249 0.29603 0.16511 0.0
C526 C 0.09008 0.30678 0.14637 0.0
H527 H 0.0161 0.30818 0.13488 0.0
H528 H 0.94162 0.31587 0.28898 0.0
H529 H 0.94599 0.39925 0.26356 0.0
H530 H 0.97881 0.42657 0.20339 0.0
H531 H 0.00916 0.37192 0.16873 0.0
C532 C 0.03797 0.29706 0.15381 0.0
C533 C 0.0108 0.27566 0.18855 0.0
C534 C -0.00828 0.30748 0.20824 0.0
C535 C 0.97078 0.2906 0.2426 0.0
C536 C 0.95545 0.32523 0.26231 0.0
C537 C 0.95822 0.37355 0.24814 0.0
C538 C 0.97673 0.38894 0.21428 0.0
C539 C -0.00619 0.35684 0.19457 0.0
H540 H 0.74031 0.90374 0.63256 0.0
C541 C 0.69905 0.89739 0.63953 0.0
H542 H 0.63269 0.911 0.62495 0.0
H543 H 0.82993 0.11126 0.53078 0.0
H544 H 0.85036 0.16472 0.58427 0.0
H545 H 0.80159 0.11865 0.63864 0.0
H546 H 0.73314 0.01835 0.63995 0.0
C547 C 0.67371 0.91649 0.61841 0.0
C548 C 0.70095 0.94493 0.58522 0.0
C549 C 0.7391 0.00391 0.5846 0.0
C550 C 0.76491 0.03108 0.55285 0.0
C551 C 0.80634 0.08916 0.55363 0.0
C552 C 0.81905 0.12023 0.58429 0.0
C553 C 0.79174 0.09425 0.61492 0.0
C554 C 0.75251 0.03669 0.6153 0.0
H555 H 0.73927 0.08583 0.49757 0.0
C556 C 0.75976 0.07177 0.47881 0.0
H557 H 0.78936 0.0148 0.46849 0.0
H558 H 0.63612 0.83024 0.57818 0.0
H559 H 0.61152 0.77693 0.52446 0.0
H560 H 0.64885 0.8251 0.46858 0.0
H561 H 0.7115 0.92649 0.46613 0.0
C562 C 0.76936 0.0295 0.48717 0.0
C563 C 0.74935 -8e-05 0.52126 0.0
C564 C 0.71198 0.94058 0.5221 0.0
C565 C 0.68874 0.91298 0.55419 0.0
C566 C 0.65313 0.85351 0.55441 0.0
C567 C 0.63905 0.82236 0.52379 0.0
C568 C 0.66019 0.84946 0.49235 0.0
C569 C 0.69627 0.90781 0.49134 0.0
H570 H 0.63365 0.75695 0.83957 0.0
C571 C 0.66083 0.76023 0.81792 0.0
H572 H 0.72938 0.75078 0.80115 0.0
H573 H 0.81915 0.78369 0.95582 0.0
H574 H 0.88689 0.87327 0.93046 0.0
H575 H 0.87571 0.89756 0.87085 0.0
H576 H 0.79585 0.83276 0.83663 0.0
C577 C 0.70145 0.74705 0.82245 0.0
C578 C 0.71061 0.72927 0.85703 0.0
C579 C 0.75916 0.76606 0.87594 0.0
C580 C 0.76717 0.75069 0.90963 0.0
C581 C 0.8131 0.79107 0.9292 0.0
C582 C 0.85187 0.84321 0.91515 0.0
C583 C 0.84546 0.85698 0.88166 0.0
C584 C 0.79949 0.81926 0.86226 0.0
H585 H 0.82156 0.69379 0.94309 0.0
C586 C 0.78828 0.67687 0.96251 0.0
H587 H 0.70767 0.66093 0.977 0.0
H588 H 0.61273 0.64846 0.82769 0.0
H589 H 0.54229 0.56137 0.85427 0.0
H590 H 0.55612 0.5345 0.91256 0.0
H591 H 0.63996 0.59494 0.94466 0.0
C592 C 0.73988 0.67672 0.95688 0.0
C593 C 0.72841 0.69666 0.9235 0.0
C594 C 0.67845 0.66101 0.90515 0.0
C595 C 0.66988 0.67701 0.87176 0.0
C596 C 0.62058 0.6396 0.8536 0.0
C597 C 0.5799 0.5891 0.86843 0.0
C598 C 0.5878 0.57387 0.90116 0.0
C599 C 0.63647 0.60899 0.91929 0.0
H600 H 0.109 0.77587 0.28045 0.0
C601 C 0.08328 0.77905 0.30106 0.0
H602 H 0.00315 0.7669 0.31462 0.0
H603 H 0.01218 0.79595 0.14376 0.0
H604 H 0.06777 0.89602 0.15676 0.0
H605 H 0.09498 0.92904 0.21673 0.0
H606 H 0.06756 0.86188 0.26398 0.0
C607 C 0.03047 0.76606 0.29427 0.0
C608 C 0.00755 0.7465 0.25893 0.0
C609 C 0.02142 0.78625 0.23183 0.0
C610 C 0.00331 0.76727 0.19747 0.0
C611 C 0.02178 0.80793 0.17059 0.0
C612 C 0.05438 0.86559 0.17764 0.0
C613 C 0.06989 0.88417 0.21137 0.0
C614 C 0.05394 0.84517 0.23824 0.0
H615 H 0.9052 0.7359 0.15098 0.0
C616 C 0.91309 0.70397 0.1392 0.0
H617 H 0.95298 0.65511 0.14339 0.0
H618 H 0.97614 0.65942 0.3046 0.0
H619 H 0.9219 0.55895 0.29173 0.0
H620 H 0.88772 0.52582 0.23275 0.0
H621 H 0.90595 0.59235 0.18653 0.0
C622 C 0.94612 0.68775 0.15515 0.0
C623 C 0.96875 0.70848 0.19057 0.0
C624 C 0.95555 0.66869 0.21772 0.0
C625 C 0.97512 0.68778 0.25185 0.0
C626 C 0.96218 0.64718 0.27828 0.0
C627 C 0.93102 0.58941 0.27128 0.0
C628 C 0.91158 0.57073 0.2381 0.0
C629 C 0.92291 0.6096 0.21166 0.0
H630 H 0.34197 0.1241 0.61165 0.0
C631 C 0.31255 0.11129 0.63333 0.0
H632 H 0.23284 0.04934 0.65195 0.0
H633 H 0.21309 0.0295 0.48033 0.0
H634 H 0.20121 0.11183 0.48586 0.0
H635 H 0.20854 0.15689 0.54269 0.0
H636 H 0.22898 0.12031 0.59427 0.0
C637 C 0.26259 0.06424 0.63046 0.0
C638 C 0.24843 0.03096 0.5976 0.0
C639 C 0.23315 0.05062 0.56803 0.0
C640 C 0.22619 0.02288 0.53553 0.0
C641 C 0.21577 0.04669 0.50599 0.0
C642 C 0.20945 0.09446 0.50872 0.0
C643 C 0.21379 0.11996 0.54068 0.0
C644 C 0.22567 0.09861 0.57006 0.0
H645 H 0.14162 0.92407 0.49023 0.0
C646 C 0.17726 0.92017 0.48118 0.0
H647 H 0.26009 0.93863 0.49018 0.0
H648 H 0.27917 0.98356 0.64893 0.0
H649 H 0.29133 0.90104 0.64377 0.0
H650 H 0.27414 0.84944 0.58841 0.0
H651 H 0.24535 0.88021 0.53783 0.0
C652 C 0.22529 0.94406 0.49916 0.0
C653 C 0.23163 0.97352 0.53304 0.0
C654 C 0.24627 0.95351 0.56284 0.0
C655 C 0.25512 0.98254 0.59502 0.0
C656 C 0.27151 0.96276 0.62398 0.0
C657 C 0.27854 0.91542 0.6214 0.0
C658 C 0.26889 0.88639 0.59024 0.0
C659 C 0.25262 0.90476 0.5613 0.0
loop_
_geom_bond_atom_site_label_1
_geom_bond_atom_site_label_2
_geom_bond_distance
_geom_bond_site_symmetry_2
_ccdc_geom_bond_type
Tb0 O3 2.453 1_554 S
Tb0 O4 2.596 1_554 S
Tb0 O5 2.374 . S
Tb0 O13 2.343 . S
Tb0 O15 2.353 1_554 S
Tb0 O17 2.427 . S
Tb0 O18 2.513 . S
C1 O5 1.251 . S
C1 O7 1.263 . S
Tb2 O4 2.343 . S
Tb2 O7 2.353 1_556 S
Tb2 O10 2.427 . S
Tb2 O11 2.513 . S
Tb2 O12 2.453 1_556 S
Tb2 O13 2.596 1_556 S
Tb2 O14 2.374 . S
O3 Tb0 2.453 1_556 S
O3 C19 1.245 . S
O4 Tb0 2.596 1_556 S
O4 Tb2 2.343 . S
O4 C19 1.259 . S
O5 Tb0 2.374 . S
O5 C1 1.251 . S
C6 O10 1.275 . S
C6 O11 1.246 . S
O7 C1 1.263 . S
O7 Tb2 2.353 1_554 S
C8 O12 1.245 . S
C8 O13 1.259 . S
C9 O14 1.250 . S
C9 O15 1.263 . S
O10 Tb2 2.427 . S
O10 C6 1.275 . S
O11 Tb2 2.513 . S
O11 C6 1.246 . S
O12 Tb2 2.453 1_554 S
O12 C8 1.245 . S
O13 Tb0 2.343 . S
O13 Tb2 2.596 1_554 S
O13 C8 1.259 . S
O14 Tb2 2.374 . S
O14 C9 1.250 . S
O15 Tb0 2.353 1_556 S
O15 C9 1.263 . S
C16 O17 1.275 . S
C16 O18 1.246 . S
O17 Tb0 2.427 . S
O17 C16 1.275 . S
O18 Tb0 2.513 . S
O18 C16 1.246 . S
C19 O3 1.245 . S
C19 O4 1.259 . S
Tb20 O23 2.453 . S
Tb20 O24 2.596 . S
Tb20 O25 2.374 . S
Tb20 O33 2.343 . S
Tb20 O35 2.353 . S
Tb20 O37 2.427 . S
Tb20 O38 2.513 . S
C21 O25 1.251 . S
C21 O27 1.263 . S
Tb22 O24 2.343 . S
Tb22 O27 2.353 . S
Tb22 O30 2.427 . S
Tb22 O31 2.513 . S
Tb22 O32 2.453 . S
Tb22 O33 2.596 . S
Tb22 O34 2.374 . S
O23 Tb20 2.453 . S
O23 C39 1.245 . S
O24 Tb20 2.596 . S
O24 Tb22 2.343 . S
O24 C39 1.259 . S
O25 Tb20 2.374 . S
O25 C21 1.251 . S
C26 O30 1.275 . S
C26 O31 1.246 . S
O27 C21 1.263 . S
O27 Tb22 2.353 . S
C28 O32 1.245 . S
C28 O33 1.259 . S
C29 O34 1.250 . S
C29 O35 1.263 . S
O30 Tb22 2.427 . S
O30 C26 1.275 . S
O31 Tb22 2.513 . S
O31 C26 1.246 . S
O32 Tb22 2.453 . S
O32 C28 1.245 . S
O33 Tb20 2.343 . S
O33 Tb22 2.596 . S
O33 C28 1.259 . S
O34 Tb22 2.374 . S
O34 C29 1.250 . S
O35 Tb20 2.353 . S
O35 C29 1.263 . S
C36 O37 1.275 . S
C36 O38 1.246 . S
O37 Tb20 2.427 . S
O37 C36 1.275 . S
O38 Tb20 2.513 . S
O38 C36 1.246 . S
C39 O23 1.245 . S
C39 O24 1.259 . S
Tb40 O43 2.453 . S
Tb40 O44 2.596 . S
Tb40 O45 2.374 . S
Tb40 O53 2.343 . S
Tb40 O55 2.353 . S
Tb40 O57 2.427 . S
Tb40 O58 2.513 . S
C41 O45 1.251 . S
C41 O47 1.263 . S
Tb42 O44 2.343 . S
Tb42 O47 2.353 . S
Tb42 O50 2.427 . S
Tb42 O51 2.513 . S
Tb42 O52 2.453 . S
Tb42 O53 2.596 . S
Tb42 O54 2.374 . S
O43 Tb40 2.453 . S
O43 C59 1.245 . S
O44 Tb40 2.596 . S
O44 Tb42 2.343 . S
O44 C59 1.259 . S
O45 Tb40 2.374 . S
O45 C41 1.251 . S
C46 O50 1.275 . S
C46 O51 1.246 . S
O47 C41 1.263 . S
O47 Tb42 2.353 . S
C48 O52 1.245 . S
C48 O53 1.259 . S
C49 O54 1.250 . S
C49 O55 1.263 . S
O50 Tb42 2.427 . S
O50 C46 1.275 . S
O51 Tb42 2.513 . S
O51 C46 1.246 . S
O52 Tb42 2.453 . S
O52 C48 1.245 . S
O53 Tb40 2.343 . S
O53 Tb42 2.596 . S
O53 C48 1.259 . S
O54 Tb42 2.374 . S
O54 C49 1.250 . S
O55 Tb40 2.353 . S
O55 C49 1.263 . S
C56 O57 1.275 . S
C56 O58 1.246 . S
O57 Tb40 2.427 . S
O57 C56 1.275 . S
O58 Tb40 2.513 . S
O58 C56 1.246 . S
C59 O43 1.245 . S
C59 O44 1.259 . S
Tb60 O63 2.453 1_554 S
Tb60 O64 2.596 1_554 S
Tb60 O65 2.374 . S
Tb60 O73 2.343 . S
Tb60 O75 2.353 1_554 S
Tb60 O77 2.427 . S
Tb60 O78 2.513 . S
C61 O65 1.251 . S
C61 O67 1.263 . S
Tb62 O64 2.343 . S
Tb62 O67 2.353 1_556 S
Tb62 O70 2.427 . S
Tb62 O71 2.513 . S
Tb62 O72 2.453 1_556 S
Tb62 O73 2.596 1_556 S
Tb62 O74 2.374 . S
O63 Tb60 2.453 1_556 S
O63 C79 1.245 . S
O64 Tb60 2.596 1_556 S
O64 Tb62 2.343 . S
O64 C79 1.259 . S
O65 Tb60 2.374 . S
O65 C61 1.251 . S
C66 O70 1.275 . S
C66 O71 1.246 . S
O67 C61 1.263 . S
O67 Tb62 2.353 1_554 S
C68 O72 1.245 . S
C68 O73 1.259 . S
C69 O74 1.250 . S
C69 O75 1.263 . S
O70 Tb62 2.427 . S
O70 C66 1.275 . S
O71 Tb62 2.513 . S
O71 C66 1.246 . S
O72 Tb62 2.453 1_554 S
O72 C68 1.245 . S
O73 Tb60 2.343 . S
O73 Tb62 2.596 1_554 S
O73 C68 1.259 . S
O74 Tb62 2.374 . S
O74 C69 1.250 . S
O75 Tb60 2.353 1_556 S
O75 C69 1.263 . S
C76 O77 1.275 . S
C76 O78 1.246 . S
O77 Tb60 2.427 . S
O77 C76 1.275 . S
O78 Tb60 2.513 . S
O78 C76 1.246 . S
C79 O63 1.245 . S
C79 O64 1.259 . S
Tb80 O83 2.453 . S
Tb80 O84 2.596 . S
Tb80 O85 2.374 . S
Tb80 O93 2.343 . S
Tb80 O95 2.353 . S
Tb80 O97 2.427 . S
Tb80 O98 2.513 . S
C81 O85 1.251 . S
C81 O87 1.263 . S
Tb82 O84 2.343 . S
Tb82 O87 2.353 . S
Tb82 O90 2.427 . S
Tb82 O91 2.513 . S
Tb82 O92 2.453 . S
Tb82 O93 2.596 . S
Tb82 O94 2.374 . S
O83 Tb80 2.453 . S
O83 C99 1.245 . S
O84 Tb80 2.596 . S
O84 Tb82 2.343 . S
O84 C99 1.259 . S
O85 Tb80 2.374 . S
O85 C81 1.251 . S
C86 O90 1.275 . S
C86 O91 1.246 . S
O87 C81 1.263 . S
O87 Tb82 2.353 . S
C88 O92 1.245 . S
C88 O93 1.259 . S
C89 O94 1.250 . S
C89 O95 1.263 . S
O90 Tb82 2.427 . S
O90 C86 1.275 . S
O91 Tb82 2.513 . S
O91 C86 1.246 . S
O92 Tb82 2.453 . S
O92 C88 1.245 . S
O93 Tb80 2.343 . S
O93 Tb82 2.596 . S
O93 C88 1.259 . S
O94 Tb82 2.374 . S
O94 C89 1.250 . S
O95 Tb80 2.353 . S
O95 C89 1.263 . S
C96 O97 1.275 . S
C96 O98 1.246 . S
O97 Tb80 2.427 . S
O97 C96 1.275 . S
O98 Tb80 2.513 . S
O98 C96 1.246 . S
C99 O83 1.245 . S
C99 O84 1.259 . S
Tb100 O103 2.453 . S
Tb100 O104 2.596 . S
Tb100 O105 2.374 . S
Tb100 O113 2.343 . S
Tb100 O115 2.353 . S
Tb100 O117 2.427 . S
Tb100 O118 2.513 . S
C101 O105 1.251 . S
C101 O107 1.263 . S
Tb102 O104 2.343 . S
Tb102 O107 2.353 . S
Tb102 O110 2.427 . S
Tb102 O111 2.513 . S
Tb102 O112 2.453 . S
Tb102 O113 2.596 . S
Tb102 O114 2.374 . S
O103 Tb100 2.453 . S
O103 C119 1.245 . S
O104 Tb100 2.596 . S
O104 Tb102 2.343 . S
O104 C119 1.259 . S
O105 Tb100 2.374 . S
O105 C101 1.251 . S
C106 O110 1.275 . S
C106 O111 1.246 . S
O107 C101 1.263 . S
O107 Tb102 2.353 . S
C108 O112 1.245 . S
C108 O113 1.259 . S
C109 O114 1.250 . S
C109 O115 1.263 . S
O110 Tb102 2.427 . S
O110 C106 1.275 . S
O111 Tb102 2.513 . S
O111 C106 1.246 . S
O112 Tb102 2.453 . S
O112 C108 1.245 . S
O113 Tb100 2.343 . S
O113 Tb102 2.596 . S
O113 C108 1.259 . S
O114 Tb102 2.374 . S
O114 C109 1.250 . S
O115 Tb100 2.353 . S
O115 C109 1.263 . S
C116 O117 1.275 . S
C116 O118 1.246 . S
O117 Tb100 2.427 . S
O117 C116 1.275 . S
O118 Tb100 2.513 . S
O118 C116 1.246 . S
C119 O103 1.245 . S
C119 O104 1.259 . S
H120 C121 0.951 . S
C121 H120 0.951 . S
C121 C127 1.265 . S
H122 C127 0.950 . S
H123 C131 0.949 . S
H124 C132 0.950 . S
H125 C133 0.951 . S
H126 C134 0.951 . S
C127 C121 1.265 . S
C127 H122 0.950 . S
C127 C128 1.478 . S
C128 C127 1.478 . S
C128 C129 1.397 . S
C128 C145 1.394 . S
C129 C128 1.397 . S
C129 C130 1.438 . S
C129 C134 1.429 . S
C130 C129 1.438 . S
C130 C131 1.428 . S
C130 C143 1.394 . S
C131 H123 0.949 . S
C131 C130 1.428 . S
C131 C132 1.345 . S
C132 H124 0.950 . S
C132 C131 1.345 . S
C132 C133 1.424 . S
C133 H125 0.951 . S
C133 C132 1.424 . S
C133 C134 1.347 . S
C134 H126 0.951 . S
C134 C129 1.429 . S
C134 C133 1.347 . S
H135 C136 0.951 . S
C136 H135 0.951 . S
C136 C142 1.265 . S
H137 C142 0.950 . S
H138 C146 0.949 . S
H139 C147 0.950 . S
H140 C148 0.951 . S
H141 C149 0.951 . S
C142 C136 1.265 . S
C142 H137 0.950 . S
C142 C143 1.478 . S
C143 C130 1.394 . S
C143 C142 1.478 . S
C143 C144 1.397 . S
C144 C143 1.397 . S
C144 C145 1.438 . S
C144 C149 1.429 . S
C145 C128 1.394 . S
C145 C144 1.438 . S
C145 C146 1.428 . S
C146 H138 0.949 . S
C146 C145 1.428 . S
C146 C147 1.345 . S
C147 H139 0.950 . S
C147 C146 1.345 . S
C147 C148 1.424 . S
C148 H140 0.951 . S
C148 C147 1.424 . S
C148 C149 1.347 . S
C149 H141 0.951 . S
C149 C144 1.429 . S
C149 C148 1.347 . S
H150 C151 0.951 . S
C151 H150 0.951 . S
C151 C157 1.265 . S
H152 C157 0.950 . S
H153 C161 0.949 . S
H154 C162 0.950 . S
H155 C163 0.951 . S
H156 C164 0.951 . S
C157 C151 1.265 . S
C157 H152 0.950 . S
C157 C158 1.478 . S
C158 C157 1.478 . S
C158 C159 1.397 . S
C158 C175 1.394 . S
C159 C158 1.397 . S
C159 C160 1.438 . S
C159 C164 1.429 . S
C160 C159 1.438 . S
C160 C161 1.428 . S
C160 C173 1.394 . S
C161 H153 0.949 . S
C161 C160 1.428 . S
C161 C162 1.345 . S
C162 H154 0.950 . S
C162 C161 1.345 . S
C162 C163 1.424 . S
C163 H155 0.951 . S
C163 C162 1.424 . S
C163 C164 1.347 . S
C164 H156 0.951 . S
C164 C159 1.429 . S
C164 C163 1.347 . S
H165 C166 0.951 . S
C166 H165 0.951 . S
C166 C172 1.265 . S
H167 C172 0.950 . S
H168 C176 0.949 . S
H169 C177 0.950 . S
H170 C178 0.951 . S
H171 C179 0.951 . S
C172 C166 1.265 . S
C172 H167 0.950 . S
C172 C173 1.478 . S
C173 C160 1.394 . S
C173 C172 1.478 . S
C173 C174 1.397 . S
C174 C173 1.397 . S
C174 C175 1.438 . S
C174 C179 1.429 . S
C175 C158 1.394 . S
C175 C174 1.438 . S
C175 C176 1.428 . S
C176 H168 0.949 . S
C176 C175 1.428 . S
C176 C177 1.345 . S
C177 H169 0.950 . S
C177 C176 1.345 . S
C177 C178 1.424 . S
C178 H170 0.951 . S
C178 C177 1.424 . S
C178 C179 1.347 . S
C179 H171 0.951 . S
C179 C174 1.429 . S
C179 C178 1.347 . S
H180 C181 0.951 . S
C181 H180 0.951 . S
C181 C187 1.265 . S
H182 C187 0.950 . S
H183 C191 0.949 . S
H184 C192 0.950 . S
H185 C193 0.951 . S
H186 C194 0.951 . S
C187 C181 1.265 . S
C187 H182 0.950 . S
C187 C188 1.478 . S
C188 C187 1.478 . S
C188 C189 1.397 . S
C188 C205 1.394 . S
C189 C188 1.397 . S
C189 C190 1.438 . S
C189 C194 1.429 . S
C190 C189 1.438 . S
C190 C191 1.428 . S
C190 C203 1.394 . S
C191 H183 0.949 . S
C191 C190 1.428 . S
C191 C192 1.345 . S
C192 H184 0.950 . S
C192 C191 1.345 . S
C192 C193 1.424 . S
C193 H185 0.951 . S
C193 C192 1.424 . S
C193 C194 1.347 . S
C194 H186 0.951 . S
C194 C189 1.429 . S
C194 C193 1.347 . S
H195 C196 0.951 . S
C196 H195 0.951 . S
C196 C202 1.265 . S
H197 C202 0.950 . S
H198 C206 0.949 . S
H199 C207 0.950 . S
H200 C208 0.951 . S
H201 C209 0.951 . S
C202 C196 1.265 . S
C202 H197 0.950 . S
C202 C203 1.478 . S
C203 C190 1.394 . S
C203 C202 1.478 . S
C203 C204 1.397 . S
C204 C203 1.397 . S
C204 C205 1.438 . S
C204 C209 1.429 . S
C205 C188 1.394 . S
C205 C204 1.438 . S
C205 C206 1.428 . S
C206 H198 0.949 . S
C206 C205 1.428 . S
C206 C207 1.345 . S
C207 H199 0.950 . S
C207 C206 1.345 . S
C207 C208 1.424 . S
C208 H200 0.951 . S
C208 C207 1.424 . S
C208 C209 1.347 . S
C209 H201 0.951 . S
C209 C204 1.429 . S
C209 C208 1.347 . S
H210 C211 0.951 . S
C211 H210 0.951 . S
C211 C217 1.265 . S
H212 C217 0.950 . S
H213 C221 0.949 . S
H214 C222 0.950 . S
H215 C223 0.951 . S
H216 C224 0.951 . S
C217 C211 1.265 . S
C217 H212 0.950 . S
C217 C218 1.478 . S
C218 C217 1.478 . S
C218 C219 1.397 . S
C218 C235 1.394 . S
C219 C218 1.397 . S
C219 C220 1.438 . S
C219 C224 1.429 . S
C220 C219 1.438 . S
C220 C221 1.428 . S
C220 C233 1.394 . S
C221 H213 0.949 . S
C221 C220 1.428 . S
C221 C222 1.345 . S
C222 H214 0.950 . S
C222 C221 1.345 . S
C222 C223 1.424 . S
C223 H215 0.951 . S
C223 C222 1.424 . S
C223 C224 1.347 . S
C224 H216 0.951 . S
C224 C219 1.429 . S
C224 C223 1.347 . S
H225 C226 0.951 . S
C226 H225 0.951 . S
C226 C232 1.265 . S
H227 C232 0.950 . S
H228 C236 0.949 . S
H229 C237 0.950 . S
H230 C238 0.951 . S
H231 C239 0.951 . S
C232 C226 1.265 . S
C232 H227 0.950 . S
C232 C233 1.478 . S
C233 C220 1.394 . S
C233 C232 1.478 . S
C233 C234 1.397 . S
C234 C233 1.397 . S
C234 C235 1.438 . S
C234 C239 1.429 . S
C235 C218 1.394 . S
C235 C234 1.438 . S
C235 C236 1.428 . S
C236 H228 0.949 . S
C236 C235 1.428 . S
C236 C237 1.345 . S
C237 H229 0.950 . S
C237 C236 1.345 . S
C237 C238 1.424 . S
C238 H230 0.951 . S
C238 C237 1.424 . S
C238 C239 1.347 . S
C239 H231 0.951 . S
C239 C234 1.429 . S
C239 C238 1.347 . S
H240 C241 0.951 . S
C241 H240 0.951 . S
C241 C247 1.265 . S
H242 C247 0.950 . S
H243 C251 0.949 . S
H244 C252 0.950 . S
H245 C253 0.951 . S
H246 C254 0.951 . S
C247 C241 1.265 . S
C247 H242 0.950 . S
C247 C248 1.478 . S
C248 C247 1.478 . S
C248 C249 1.397 . S
C248 C265 1.394 . S
C249 C248 1.397 . S
C249 C250 1.438 . S
C249 C254 1.429 . S
C250 C249 1.438 . S
C250 C251 1.428 . S
C250 C263 1.394 . S
C251 H243 0.949 . S
C251 C250 1.428 . S
C251 C252 1.345 . S
C252 H244 0.950 . S
C252 C251 1.345 . S
C252 C253 1.424 . S
C253 H245 0.951 . S
C253 C252 1.424 . S
C253 C254 1.347 . S
C254 H246 0.951 . S
C254 C249 1.429 . S
C254 C253 1.347 . S
H255 C256 0.951 . S
C256 H255 0.951 . S
C256 C262 1.265 . S
H257 C262 0.950 . S
H258 C266 0.949 . S
H259 C267 0.950 . S
H260 C268 0.951 . S
H261 C269 0.951 . S
C262 C256 1.265 . S
C262 H257 0.950 . S
C262 C263 1.478 . S
C263 C250 1.394 . S
C263 C262 1.478 . S
C263 C264 1.397 . S
C264 C263 1.397 . S
C264 C265 1.438 . S
C264 C269 1.429 . S
C265 C248 1.394 . S
C265 C264 1.438 . S
C265 C266 1.428 . S
C266 H258 0.949 . S
C266 C265 1.428 . S
C266 C267 1.345 . S
C267 H259 0.950 . S
C267 C266 1.345 . S
C267 C268 1.424 . S
C268 H260 0.951 . S
C268 C267 1.424 . S
C268 C269 1.347 . S
C269 H261 0.951 . S
C269 C264 1.429 . S
C269 C268 1.347 . S
H270 C271 0.951 . S
C271 H270 0.951 . S
C271 C277 1.265 . S
H272 C277 0.950 . S
H273 C281 0.949 . S
H274 C282 0.950 . S
H275 C283 0.951 . S
H276 C284 0.951 . S
C277 C271 1.265 . S
C277 H272 0.950 . S
C277 C278 1.478 . S
C278 C277 1.478 . S
C278 C279 1.397 . S
C278 C295 1.394 . S
C279 C278 1.397 . S
C279 C280 1.438 . S
C279 C284 1.429 . S
C280 C279 1.438 . S
C280 C281 1.428 . S
C280 C293 1.394 . S
C281 H273 0.949 . S
C281 C280 1.428 . S
C281 C282 1.345 . S
C282 H274 0.950 . S
C282 C281 1.345 . S
C282 C283 1.424 . S
C283 H275 0.951 . S
C283 C282 1.424 . S
C283 C284 1.347 . S
C284 H276 0.951 . S
C284 C279 1.429 . S
C284 C283 1.347 . S
H285 C286 0.951 . S
C286 H285 0.951 . S
C286 C292 1.265 . S
H287 C292 0.950 . S
H288 C296 0.949 . S
H289 C297 0.950 . S
H290 C298 0.951 . S
H291 C299 0.951 . S
C292 C286 1.265 . S
C292 H287 0.950 . S
C292 C293 1.478 . S
C293 C280 1.394 . S
C293 C292 1.478 . S
C293 C294 1.397 . S
C294 C293 1.397 . S
C294 C295 1.438 . S
C294 C299 1.429 . S
C295 C278 1.394 . S
C295 C294 1.438 . S
C295 C296 1.428 . S
C296 H288 0.949 . S
C296 C295 1.428 . S
C296 C297 1.345 . S
C297 H289 0.950 . S
C297 C296 1.345 . S
C297 C298 1.424 . S
C298 H290 0.951 . S
C298 C297 1.424 . S
C298 C299 1.347 . S
C299 H291 0.951 . S
C299 C294 1.429 . S
C299 C298 1.347 . S
H300 C301 0.951 . S
C301 H300 0.951 . S
C301 C307 1.265 . S
H302 C307 0.950 . S
H303 C311 0.949 . S
H304 C312 0.950 . S
H305 C313 0.951 . S
H306 C314 0.951 . S
C307 C301 1.265 . S
C307 H302 0.950 . S
C307 C308 1.478 . S
C308 C307 1.478 . S
C308 C309 1.397 1_554 S
C308 C325 1.394 . S
C309 C308 1.397 1_556 S
C309 C310 1.438 . S
C309 C314 1.429 . S
C310 C309 1.438 . S
C310 C311 1.428 . S
C310 C323 1.394 1_556 S
C311 H303 0.949 . S
C311 C310 1.428 . S
C311 C312 1.345 . S
C312 H304 0.950 . S
C312 C311 1.345 . S
C312 C313 1.424 . S
C313 H305 0.951 . S
C313 C312 1.424 . S
C313 C314 1.347 . S
C314 H306 0.951 . S
C314 C309 1.429 . S
C314 C313 1.347 . S
H315 C316 0.951 . S
C316 H315 0.951 . S
C316 C322 1.265 . S
H317 C322 0.950 . S
H318 C326 0.949 . S
H319 C327 0.950 . S
H320 C328 0.951 . S
H321 C329 0.951 . S
C322 C316 1.265 . S
C322 H317 0.950 . S
C322 C323 1.478 . S
C323 C310 1.394 1_554 S
C323 C322 1.478 . S
C323 C324 1.397 . S
C324 C323 1.397 . S
C324 C325 1.438 . S
C324 C329 1.429 . S
C325 C308 1.394 . S
C325 C324 1.438 . S
C325 C326 1.428 . S
C326 H318 0.949 . S
C326 C325 1.428 . S
C326 C327 1.345 . S
C327 H319 0.950 . S
C327 C326 1.345 . S
C327 C328 1.424 . S
C328 H320 0.951 . S
C328 C327 1.424 . S
C328 C329 1.347 . S
C329 H321 0.951 . S
C329 C324 1.429 . S
C329 C328 1.347 . S
H330 C331 0.951 . S
C331 H330 0.951 . S
C331 C337 1.265 . S
H332 C337 0.950 . S
H333 C341 0.949 . S
H334 C342 0.950 . S
H335 C343 0.951 . S
H336 C344 0.951 . S
C337 C331 1.265 . S
C337 H332 0.950 . S
C337 C338 1.478 . S
C338 C337 1.478 . S
C338 C339 1.397 . S
C338 C355 1.394 . S
C339 C338 1.397 . S
C339 C340 1.438 1_455 S
C339 C344 1.429 . S
C340 C339 1.438 1_655 S
C340 C341 1.428 . S
C340 C353 1.394 . S
C341 H333 0.949 . S
C341 C340 1.428 . S
C341 C342 1.345 1_655 S
C342 H334 0.950 . S
C342 C341 1.345 1_455 S
C342 C343 1.424 . S
C343 H335 0.951 . S
C343 C342 1.424 . S
C343 C344 1.347 . S
C344 H336 0.951 . S
C344 C339 1.429 . S
C344 C343 1.347 . S
H345 C346 0.951 . S
C346 H345 0.951 . S
C346 C352 1.265 . S
H347 C352 0.950 . S
H348 C356 0.949 . S
H349 C357 0.950 . S
H350 C358 0.951 . S
H351 C359 0.951 . S
C352 C346 1.265 . S
C352 H347 0.950 . S
C352 C353 1.478 . S
C353 C340 1.394 . S
C353 C352 1.478 . S
C353 C354 1.397 . S
C354 C353 1.397 . S
C354 C355 1.438 1_655 S
C354 C359 1.429 . S
C355 C338 1.394 . S
C355 C354 1.438 1_455 S
C355 C356 1.428 . S
C356 H348 0.949 . S
C356 C355 1.428 . S
C356 C357 1.345 1_455 S
C357 H349 0.950 . S
C357 C356 1.345 1_655 S
C357 C358 1.424 . S
C358 H350 0.951 . S
C358 C357 1.424 . S
C358 C359 1.347 . S
C359 H351 0.951 . S
C359 C354 1.429 . S
C359 C358 1.347 . S
H360 C361 0.951 . S
C361 H360 0.951 . S
C361 C367 1.265 . S
H362 C367 0.950 . S
H363 C371 0.949 . S
H364 C372 0.950 . S
H365 C373 0.951 . S
H366 C374 0.951 . S
C367 C361 1.265 . S
C367 H362 0.950 . S
C367 C368 1.478 . S
C368 C367 1.478 . S
C368 C369 1.397 1_545 S
C368 C385 1.394 . S
C369 C368 1.397 1_565 S
C369 C370 1.438 . S
C369 C374 1.429 . S
C370 C369 1.438 . S
C370 C371 1.428 . S
C370 C383 1.394 . S
C371 H363 0.949 . S
C371 C370 1.428 . S
C371 C372 1.345 . S
C372 H364 0.950 . S
C372 C371 1.345 . S
C372 C373 1.424 . S
C373 H365 0.951 . S
C373 C372 1.424 . S
C373 C374 1.347 . S
C374 H366 0.951 . S
C374 C369 1.429 . S
C374 C373 1.347 . S
H375 C376 0.951 . S
C376 H375 0.951 . S
C376 C382 1.265 . S
H377 C382 0.950 . S
H378 C386 0.949 . S
H379 C387 0.950 . S
H380 C388 0.951 . S
H381 C389 0.951 . S
C382 C376 1.265 . S
C382 H377 0.950 . S
C382 C383 1.478 . S
C383 C370 1.394 . S
C383 C382 1.478 . S
C383 C384 1.397 1_565 S
C384 C383 1.397 1_545 S
C384 C385 1.438 . S
C384 C389 1.429 . S
C385 C368 1.394 . S
C385 C384 1.438 . S
C385 C386 1.428 . S
C386 H378 0.949 . S
C386 C385 1.428 . S
C386 C387 1.345 . S
C387 H379 0.950 . S
C387 C386 1.345 . S
C387 C388 1.424 . S
C388 H380 0.951 . S
C388 C387 1.424 . S
C388 C389 1.347 . S
C389 H381 0.951 . S
C389 C384 1.429 . S
C389 C388 1.347 . S
H390 C391 0.951 . S
C391 H390 0.951 . S
C391 C397 1.265 . S
H392 C397 0.950 . S
H393 C401 0.949 . S
H394 C402 0.950 . S
H395 C403 0.951 . S
H396 C404 0.951 . S
C397 C391 1.265 . S
C397 H392 0.950 . S
C397 C398 1.478 . S
C398 C397 1.478 . S
C398 C399 1.397 . S
C398 C415 1.394 . S
C399 C398 1.397 . S
C399 C400 1.438 . S
C399 C404 1.429 . S
C400 C399 1.438 . S
C400 C401 1.428 . S
C400 C413 1.394 . S
C401 H393 0.949 . S
C401 C400 1.428 . S
C401 C402 1.345 . S
C402 H394 0.950 . S
C402 C401 1.345 . S
C402 C403 1.424 . S
C403 H395 0.951 . S
C403 C402 1.424 . S
C403 C404 1.347 . S
C404 H396 0.951 . S
C404 C399 1.429 . S
C404 C403 1.347 . S
H405 C406 0.951 . S
C406 H405 0.951 . S
C406 C412 1.265 . S
H407 C412 0.950 . S
H408 C416 0.949 . S
H409 C417 0.950 . S
H410 C418 0.951 . S
H411 C419 0.951 . S
C412 C406 1.265 . S
C412 H407 0.950 . S
C412 C413 1.478 . S
C413 C400 1.394 . S
C413 C412 1.478 . S
C413 C414 1.397 . S
C414 C413 1.397 . S
C414 C415 1.438 . S
C414 C419 1.429 . S
C415 C398 1.394 . S
C415 C414 1.438 . S
C415 C416 1.428 . S
C416 H408 0.949 . S
C416 C415 1.428 . S
C416 C417 1.345 . S
C417 H409 0.950 . S
C417 C416 1.345 . S
C417 C418 1.424 . S
C418 H410 0.951 . S
C418 C417 1.424 . S
C418 C419 1.347 . S
C419 H411 0.951 . S
C419 C414 1.429 . S
C419 C418 1.347 . S
H420 C421 0.951 . S
C421 H420 0.951 . S
C421 C427 1.265 . S
H422 C427 0.950 . S
H423 C431 0.949 . S
H424 C432 0.950 . S
H425 C433 0.951 . S
H426 C434 0.951 1_455 S
C427 C421 1.265 . S
C427 H422 0.950 . S
C427 C428 1.478 . S
C428 C427 1.478 . S
C428 C429 1.397 1_456 S
C428 C445 1.394 . S
C429 C428 1.397 1_654 S
C429 C430 1.438 . S
C429 C434 1.429 . S
C430 C429 1.438 . S
C430 C431 1.428 . S
C430 C443 1.394 1_554 S
C431 H423 0.949 . S
C431 C430 1.428 . S
C431 C432 1.345 . S
C432 H424 0.950 . S
C432 C431 1.345 . S
C432 C433 1.424 . S
C433 H425 0.951 . S
C433 C432 1.424 . S
C433 C434 1.347 . S
C434 H426 0.951 1_655 S
C434 C429 1.429 . S
C434 C433 1.347 . S
H435 C436 0.951 . S
C436 H435 0.951 . S
C436 C442 1.265 . S
H437 C442 0.950 . S
H438 C446 0.949 . S
H439 C447 0.950 . S
H440 C448 0.951 . S
H441 C449 0.951 1_655 S
C442 C436 1.265 . S
C442 H437 0.950 . S
C442 C443 1.478 . S
C443 C430 1.394 1_556 S
C443 C442 1.478 . S
C443 C444 1.397 1_655 S
C444 C443 1.397 1_455 S
C444 C445 1.438 . S
C444 C449 1.429 . S
C445 C428 1.394 . S
C445 C444 1.438 . S
C445 C446 1.428 . S
C446 H438 0.949 . S
C446 C445 1.428 . S
C446 C447 1.345 . S
C447 H439 0.950 . S
C447 C446 1.345 . S
C447 C448 1.424 . S
C448 H440 0.951 . S
C448 C447 1.424 . S
C448 C449 1.347 . S
C449 H441 0.951 1_455 S
C449 C444 1.429 . S
C449 C448 1.347 . S
H450 C451 0.951 . S
C451 H450 0.951 . S
C451 C457 1.265 . S
H452 C457 0.950 . S
H453 C461 0.949 . S
H454 C462 0.950 . S
H455 C463 0.951 . S
H456 C464 0.951 . S
C457 C451 1.265 . S
C457 H452 0.950 . S
C457 C458 1.478 . S
C458 C457 1.478 . S
C458 C459 1.397 . S
C458 C475 1.394 . S
C459 C458 1.397 . S
C459 C460 1.438 1_565 S
C459 C464 1.429 . S
C460 C459 1.438 1_545 S
C460 C461 1.428 . S
C460 C473 1.394 . S
C461 H453 0.949 . S
C461 C460 1.428 . S
C461 C462 1.345 1_545 S
C462 H454 0.950 . S
C462 C461 1.345 1_565 S
C462 C463 1.424 . S
C463 H455 0.951 . S
C463 C462 1.424 . S
C463 C464 1.347 . S
C464 H456 0.951 . S
C464 C459 1.429 . S
C464 C463 1.347 . S
H465 C466 0.951 . S
C466 H465 0.951 . S
C466 C472 1.265 . S
H467 C472 0.950 . S
H468 C476 0.949 . S
H469 C477 0.950 . S
H470 C478 0.951 . S
H471 C479 0.951 . S
C472 C466 1.265 . S
C472 H467 0.950 . S
C472 C473 1.478 . S
C473 C460 1.394 . S
C473 C472 1.478 . S
C473 C474 1.397 . S
C474 C473 1.397 . S
C474 C475 1.438 1_545 S
C474 C479 1.429 . S
C475 C458 1.394 . S
C475 C474 1.438 1_565 S
C475 C476 1.428 . S
C476 H468 0.949 . S
C476 C475 1.428 . S
C476 C477 1.345 1_565 S
C477 H469 0.950 . S
C477 C476 1.345 1_545 S
C477 C478 1.424 . S
C478 H470 0.951 . S
C478 C477 1.424 . S
C478 C479 1.347 . S
C479 H471 0.951 . S
C479 C474 1.429 . S
C479 C478 1.347 . S
H480 C481 0.951 . S
C481 H480 0.951 . S
C481 C487 1.265 . S
H482 C487 0.950 . S
H483 C491 0.949 . S
H484 C492 0.950 . S
H485 C493 0.951 . S
H486 C494 0.951 . S
C487 C481 1.265 . S
C487 H482 0.950 . S
C487 C488 1.478 . S
C488 C487 1.478 . S
C488 C489 1.397 . S
C488 C505 1.394 . S
C489 C488 1.397 . S
C489 C490 1.438 . S
C489 C494 1.429 . S
C490 C489 1.438 . S
C490 C491 1.428 . S
C490 C503 1.394 . S
C491 H483 0.949 . S
C491 C490 1.428 . S
C491 C492 1.345 . S
C492 H484 0.950 . S
C492 C491 1.345 . S
C492 C493 1.424 . S
C493 H485 0.951 . S
C493 C492 1.424 . S
C493 C494 1.347 . S
C494 H486 0.951 . S
C494 C489 1.429 . S
C494 C493 1.347 . S
H495 C496 0.951 . S
C496 H495 0.951 . S
C496 C502 1.265 . S
H497 C502 0.950 . S
H498 C506 0.949 . S
H499 C507 0.950 . S
H500 C508 0.951 . S
H501 C509 0.951 . S
C502 C496 1.265 . S
C502 H497 0.950 . S
C502 C503 1.478 . S
C503 C490 1.394 . S
C503 C502 1.478 . S
C503 C504 1.397 . S
C504 C503 1.397 . S
C504 C505 1.438 . S
C504 C509 1.429 . S
C505 C488 1.394 . S
C505 C504 1.438 . S
C505 C506 1.428 . S
C506 H498 0.949 . S
C506 C505 1.428 . S
C506 C507 1.345 . S
C507 H499 0.950 . S
C507 C506 1.345 . S
C507 C508 1.424 . S
C508 H500 0.951 . S
C508 C507 1.424 . S
C508 C509 1.347 . S
C509 H501 0.951 . S
C509 C504 1.429 . S
C509 C508 1.347 . S
H510 C511 0.951 . S
C511 H510 0.951 . S
C511 C517 1.265 . S
H512 C517 0.950 . S
H513 C521 0.949 . S
H514 C522 0.950 . S
H515 C523 0.951 . S
H516 C524 0.951 . S
C517 C511 1.265 . S
C517 H512 0.950 . S
C517 C518 1.478 . S
C518 C517 1.478 . S
C518 C519 1.397 . S
C518 C535 1.394 . S
C519 C518 1.397 . S
C519 C520 1.438 1_655 S
C519 C524 1.429 . S
C520 C519 1.438 1_455 S
C520 C521 1.428 . S
C520 C533 1.394 . S
C521 H513 0.949 . S
C521 C520 1.428 . S
C521 C522 1.345 . S
C522 H514 0.950 . S
C522 C521 1.345 . S
C522 C523 1.424 . S
C523 H515 0.951 . S
C523 C522 1.424 . S
C523 C524 1.347 1_455 S
C524 H516 0.951 . S
C524 C519 1.429 . S
C524 C523 1.347 1_655 S
H525 C526 0.951 . S
C526 H525 0.951 . S
C526 C532 1.265 . S
H527 C532 0.950 . S
H528 C536 0.949 . S
H529 C537 0.950 . S
H530 C538 0.951 . S
H531 C539 0.942 1_455 S
C532 C526 1.265 . S
C532 H527 0.950 . S
C532 C533 1.478 . S
C533 C520 1.394 . S
C533 C532 1.478 . S
C533 C534 1.397 1_455 S
C534 C533 1.397 1_655 S
C534 C535 1.438 . S
C534 C539 1.422 . S
C535 C518 1.394 . S
C535 C534 1.438 . S
C535 C536 1.428 . S
C536 H528 0.949 . S
C536 C535 1.428 . S
C536 C537 1.345 . S
C537 H529 0.950 . S
C537 C536 1.345 . S
C537 C538 1.424 . S
C538 H530 0.951 . S
C538 C537 1.424 . S
C538 C539 1.363 . S
C539 H531 0.942 1_655 S
C539 C534 1.422 . S
C539 C538 1.363 . S
H540 C541 0.951 . S
C541 H540 0.951 . S
C541 C547 1.265 . S
H542 C547 0.950 . S
H543 C551 0.949 . S
H544 C552 0.950 . S
H545 C553 0.951 . S
H546 C554 0.951 . S
C547 C541 1.265 . S
C547 H542 0.950 . S
C547 C548 1.478 . S
C548 C547 1.478 . S
C548 C549 1.397 1_565 S
C548 C565 1.394 . S
C549 C548 1.397 1_545 S
C549 C550 1.438 . S
C549 C554 1.429 . S
C550 C549 1.438 . S
C550 C551 1.428 . S
C550 C563 1.394 . S
C551 H543 0.949 . S
C551 C550 1.428 . S
C551 C552 1.345 . S
C552 H544 0.950 . S
C552 C551 1.345 . S
C552 C553 1.424 . S
C553 H545 0.951 . S
C553 C552 1.424 . S
C553 C554 1.347 . S
C554 H546 0.951 . S
C554 C549 1.429 . S
C554 C553 1.347 . S
H555 C556 0.951 . S
C556 H555 0.951 . S
C556 C562 1.265 . S
H557 C562 0.950 . S
H558 C566 0.949 . S
H559 C567 0.950 . S
H560 C568 0.951 . S
H561 C569 0.951 . S
C562 C556 1.265 . S
C562 H557 0.950 . S
C562 C563 1.478 . S
C563 C550 1.394 . S
C563 C562 1.478 . S
C563 C564 1.397 1_545 S
C564 C563 1.397 1_565 S
C564 C565 1.438 . S
C564 C569 1.429 . S
C565 C548 1.394 . S
C565 C564 1.438 . S
C565 C566 1.428 . S
C566 H558 0.949 . S
C566 C565 1.428 . S
C566 C567 1.345 . S
C567 H559 0.950 . S
C567 C566 1.345 . S
C567 C568 1.424 . S
C568 H560 0.951 . S
C568 C567 1.424 . S
C568 C569 1.347 . S
C569 H561 0.951 . S
C569 C564 1.429 . S
C569 C568 1.347 . S
H570 C571 0.951 . S
C571 H570 0.951 . S
C571 C577 1.265 . S
H572 C577 0.950 . S
H573 C581 0.949 . S
H574 C582 0.950 . S
H575 C583 0.951 . S
H576 C584 0.951 . S
C577 C571 1.265 . S
C577 H572 0.950 . S
C577 C578 1.478 . S
C578 C577 1.478 . S
C578 C579 1.397 . S
C578 C595 1.394 . S
C579 C578 1.397 . S
C579 C580 1.438 . S
C579 C584 1.429 . S
C580 C579 1.438 . S
C580 C581 1.428 . S
C580 C593 1.394 . S
C581 H573 0.949 . S
C581 C580 1.428 . S
C581 C582 1.345 . S
C582 H574 0.950 . S
C582 C581 1.345 . S
C582 C583 1.424 . S
C583 H575 0.951 . S
C583 C582 1.424 . S
C583 C584 1.347 . S
C584 H576 0.951 . S
C584 C579 1.429 . S
C584 C583 1.347 . S
H585 C586 0.951 . S
C586 H585 0.951 . S
C586 C592 1.265 . S
H587 C592 0.950 . S
H588 C596 0.949 . S
H589 C597 0.950 . S
H590 C598 0.951 . S
H591 C599 0.951 . S
C592 C586 1.265 . S
C592 H587 0.950 . S
C592 C593 1.478 . S
C593 C580 1.394 . S
C593 C592 1.478 . S
C593 C594 1.397 . S
C594 C593 1.397 . S
C594 C595 1.438 . S
C594 C599 1.429 . S
C595 C578 1.394 . S
C595 C594 1.438 . S
C595 C596 1.428 . S
C596 H588 0.949 . S
C596 C595 1.428 . S
C596 C597 1.345 . S
C597 H589 0.950 . S
C597 C596 1.345 . S
C597 C598 1.424 . S
C598 H590 0.951 . S
C598 C597 1.424 . S
C598 C599 1.347 . S
C599 H591 0.951 . S
C599 C594 1.429 . S
C599 C598 1.347 . S
H600 C601 0.951 . S
C601 H600 0.951 . S
C601 C607 1.265 . S
H602 C607 0.950 . S
H603 C611 0.949 . S
H604 C612 0.950 1_655 S
H605 C613 0.951 . S
H606 C614 0.951 . S
C607 C601 1.265 . S
C607 H602 0.950 . S
C607 C608 1.478 . S
C608 C607 1.478 . S
C608 C609 1.397 . S
C608 C625 1.394 . S
C609 C608 1.397 . S
C609 C610 1.438 1_455 S
C609 C614 1.429 . S
C610 C609 1.438 1_655 S
C610 C611 1.428 . S
C610 C623 1.394 . S
C611 H603 0.949 . S
C611 C610 1.428 . S
C611 C612 1.345 1_655 S
C612 H604 0.950 1_455 S
C612 C611 1.345 1_455 S
C612 C613 1.424 . S
C613 H605 0.951 . S
C613 C612 1.424 . S
C613 C614 1.347 . S
C614 H606 0.951 . S
C614 C609 1.429 . S
C614 C613 1.347 . S
H615 C616 0.951 . S
C616 H615 0.951 . S
C616 C622 1.265 . S
H617 C622 0.950 . S
H618 C626 0.949 . S
H619 C627 0.950 . S
H620 C628 0.951 . S
H621 C629 0.951 . S
C622 C616 1.265 . S
C622 H617 0.950 . S
C622 C623 1.478 . S
C623 C610 1.394 . S
C623 C622 1.478 . S
C623 C624 1.397 . S
C624 C623 1.397 . S
C624 C625 1.438 1_655 S
C624 C629 1.429 . S
C625 C608 1.394 . S
C625 C624 1.438 1_455 S
C625 C626 1.428 . S
C626 H618 0.949 . S
C626 C625 1.428 . S
C626 C627 1.345 . S
C627 H619 0.950 . S
C627 C626 1.345 . S
C627 C628 1.424 1_455 S
C628 H620 0.951 . S
C628 C627 1.424 1_655 S
C628 C629 1.347 . S
C629 H621 0.951 . S
C629 C624 1.429 . S
C629 C628 1.347 . S
H630 C631 0.951 . S
C631 H630 0.951 . S
C631 C637 1.265 . S
H632 C637 0.950 . S
H633 C641 0.949 . S
H634 C642 0.950 . S
H635 C643 0.951 . S
H636 C644 0.951 . S
C637 C631 1.265 . S
C637 H632 0.950 . S
C637 C638 1.478 . S
C638 C637 1.478 . S
C638 C639 1.397 . S
C638 C655 1.394 1_545 S
C639 C638 1.397 . S
C639 C640 1.438 . S
C639 C644 1.429 . S
C640 C639 1.438 . S
C640 C641 1.428 . S
C640 C653 1.394 1_545 S
C641 H633 0.949 . S
C641 C640 1.428 . S
C641 C642 1.345 . S
C642 H634 0.950 . S
C642 C641 1.345 . S
C642 C643 1.424 . S
C643 H635 0.951 . S
C643 C642 1.424 . S
C643 C644 1.347 . S
C644 H636 0.951 . S
C644 C639 1.429 . S
C644 C643 1.347 . S
H645 C646 0.951 . S
C646 H645 0.951 . S
C646 C652 1.265 . S
H647 C652 0.950 . S
H648 C656 0.949 1_545 S
H649 C657 0.950 . S
H650 C658 0.951 . S
H651 C659 0.951 . S
C652 C646 1.265 . S
C652 H647 0.950 . S
C652 C653 1.478 . S
C653 C640 1.394 1_565 S
C653 C652 1.478 . S
C653 C654 1.397 . S
C654 C653 1.397 . S
C654 C655 1.438 . S
C654 C659 1.429 . S
C655 C638 1.394 1_565 S
C655 C654 1.438 . S
C655 C656 1.428 . S
C656 H648 0.949 1_565 S
C656 C655 1.428 . S
C656 C657 1.345 . S
C657 H649 0.950 . S
C657 C656 1.345 . S
C657 C658 1.424 . S
C658 H650 0.951 . S
C658 C657 1.424 . S
C658 C659 1.347 . S
C659 H651 0.951 . S
C659 C654 1.429 . S
C659 C658 1.347 . S
C121 C86 1.325 . S
C136 C8 1.340 . S
C151 C106 1.379 . S
C166 C28 1.260 . S
C181 C6 1.388 . S
C196 C48 1.361 . S
C211 C26 1.330 . S
C226 C68 1.352 . S
C241 C46 1.391 . S
C256 C88 1.356 . S
C271 C66 1.359 . S
C286 C108 1.250 . S
C301 C1 0.663 . S
C316 C61 0.659 . S
C331 C81 0.876 . S
C346 C21 0.875 . S
C361 C101 0.658 . S
C376 C41 0.660 . S
C391 C49 0.736 . S
C406 C109 0.735 . S
C421 C9 0.735 . S
C436 C69 0.738 . S
C451 C89 0.838 . S
C466 C29 0.842 . S
C481 C116 1.498 . S
C496 C19 1.492 . S
C511 C39 1.529 . S
C526 C16 1.556 . S
C541 C59 1.472 . S
C556 C36 1.525 . S
C571 C56 1.549 . S
C586 C79 1.503 . S
C601 C99 1.541 . S
C616 C76 1.553 . S
C631 C119 1.529 . S
C646 C96 1.516 . S
