# Generated by pormake.
# Topology neb, (4)-cn, num edge types: 1
# Building blocks:
#     Node 0, Type 0, BuildingBlock: QUQFOY_clean_sbu_1, # of connection points: 4
#     Node 1, Type 0, BuildingBlock: QUQFOY_clean_sbu_1, # of connection points: 4
#     Node 2, Type 0, BuildingBlock: QUQFOY_clean_sbu_1, # of connection points: 4
#     Node 3, Type 0, BuildingBlock: QUQFOY_clean_sbu_1, # of connection points: 4
#     Node 4, Type 0, BuildingBlock: QUQFOY_clean_sbu_1, # of connection points: 4
#     Node 5, Type 0, BuildingBlock: QUQFOY_clean_sbu_1, # of connection points: 4
#     Node 6, Type 0, BuildingBlock: QUQFOY_clean_sbu_1, # of connection points: 4
#     Node 7, Type 0, BuildingBlock: QUQFOY_clean_sbu_1, # of connection points: 4
#     Node 8, Type 0, BuildingBlock: QUQFOY_clean_sbu_1, # of connection points: 4
#     Node 9, Type 0, BuildingBlock: QUQFOY_clean_sbu_1, # of connection points: 4
#     Node 10, Type 0, BuildingBlock: QUQFOY_clean_sbu_1, # of connection points: 4
#     Node 11, Type 0, BuildingBlock: QUQFOY_clean_sbu_1, # of connection points: 4
#     Node 12, Type 0, BuildingBlock: QUQFOY_clean_sbu_1, # of connection points: 4
#     Node 13, Type 0, BuildingBlock: QUQFOY_clean_sbu_1, # of connection points: 4
#     Node 14, Type 0, BuildingBlock: QUQFOY_clean_sbu_1, # of connection points: 4
#     Node 15, Type 0, BuildingBlock: QUQFOY_clean_sbu_1, # of connection points: 4
#     Edge 16, Type (0, 0), BuildingBlock: CIFDUS_clean_linker_0, # of connection points: 2
#     Edge 17, Type (0, 0), BuildingBlock: CIFDUS_clean_linker_0, # of connection points: 2
#     Edge 18, Type (0, 0), BuildingBlock: CIFDUS_clean_linker_0, # of connection points: 2
#     Edge 19, Type (0, 0), BuildingBlock: CIFDUS_clean_linker_0, # of connection points: 2
#     Edge 20, Type (0, 0), BuildingBlock: CIFDUS_clean_linker_0, # of connection points: 2
#     Edge 21, Type (0, 0), BuildingBlock: CIFDUS_clean_linker_0, # of connection points: 2
#     Edge 22, Type (0, 0), BuildingBlock: CIFDUS_clean_linker_0, # of connection points: 2
#     Edge 23, Type (0, 0), BuildingBlock: CIFDUS_clean_linker_0, # of connection points: 2
#     Edge 24, Type (0, 0), BuildingBlock: CIFDUS_clean_linker_0, # of connection points: 2
#     Edge 25, Type (0, 0), BuildingBlock: CIFDUS_clean_linker_0, # of connection points: 2
#     Edge 26, Type (0, 0), BuildingBlock: CIFDUS_clean_linker_0, # of connection points: 2
#     Edge 27, Type (0, 0), BuildingBlock: CIFDUS_clean_linker_0, # of connection points: 2
#     Edge 28, Type (0, 0), BuildingBlock: CIFDUS_clean_linker_0, # of connection points: 2
#     Edge 29, Type (0, 0), BuildingBlock: CIFDUS_clean_linker_0, # of connection points: 2
#     Edge 30, Type (0, 0), BuildingBlock: CIFDUS_clean_linker_0, # of connection points: 2
#     Edge 31, Type (0, 0), BuildingBlock: CIFDUS_clean_linker_0, # of connection points: 2
#     Edge 32, Type (0, 0), BuildingBlock: CIFDUS_clean_linker_0, # of connection points: 2
#     Edge 33, Type (0, 0), BuildingBlock: CIFDUS_clean_linker_0, # of connection points: 2
#     Edge 34, Type (0, 0), BuildingBlock: CIFDUS_clean_linker_0, # of connection points: 2
#     Edge 35, Type (0, 0), BuildingBlock: CIFDUS_clean_linker_0, # of connection points: 2
#     Edge 36, Type (0, 0), BuildingBlock: CIFDUS_clean_linker_0, # of connection points: 2
#     Edge 37, Type (0, 0), BuildingBlock: CIFDUS_clean_linker_0, # of connection points: 2
#     Edge 38, Type (0, 0), BuildingBlock: CIFDUS_clean_linker_0, # of connection points: 2
#     Edge 39, Type (0, 0), BuildingBlock: CIFDUS_clean_linker_0, # of connection points: 2
#     Edge 40, Type (0, 0), BuildingBlock: CIFDUS_clean_linker_0, # of connection points: 2
#     Edge 41, Type (0, 0), BuildingBlock: CIFDUS_clean_linker_0, # of connection points: 2
#     Edge 42, Type (0, 0), BuildingBlock: CIFDUS_clean_linker_0, # of connection points: 2
#     Edge 43, Type (0, 0), BuildingBlock: CIFDUS_clean_linker_0, # of connection points: 2
#     Edge 44, Type (0, 0), BuildingBlock: CIFDUS_clean_linker_0, # of connection points: 2
#     Edge 45, Type (0, 0), BuildingBlock: CIFDUS_clean_linker_0, # of connection points: 2
#     Edge 46, Type (0, 0), BuildingBlock: CIFDUS_clean_linker_0, # of connection points: 2
#     Edge 47, Type (0, 0), BuildingBlock: CIFDUS_clean_linker_0, # of connection points: 2
# Relax obj value: 0.021
# Max RMSD: 0.098
# Mean RMSD: 0.098
data_MOF--net-neb--node1-QUQFOY_clean_sbu_1--edge1-CIFDUS_clean_linker_0
_symmetry_space_group_name_H-M    P1
_symmetry_Int_Tables_number       1
_symmetry_cell_setting            triclinic
loop_
_symmetry_equiv_pos_as_xyz
'x, y, z'
_cell_length_a     41.730714
_cell_length_b     20.547391
_cell_length_c     67.268717
_cell_angle_alpha  89.973754
_cell_angle_beta   91.006902
_cell_angle_gamma 89.365509
loop_
_atom_site_label
_atom_site_type_symbol
_atom_site_fract_x
_atom_site_fract_y
_atom_site_fract_z
_atom_type_partial_charge
O0 O 0.14482 0.01653 0.44208 0.0
Cd1 Cd 0.13186 0.09692 0.45833 0.0
Cd2 Cd 0.1988 0.10807 0.45745 0.0
O3 O 0.19755 0.0158 0.44552 0.0
O4 O 0.08574 0.07967 0.46328 0.0
O5 O 0.12243 0.08262 0.48732 0.0
C6 C 0.09314 0.07201 0.4818 0.0
C7 C 0.23853 0.13789 0.48064 0.0
C8 C 0.1719 -0.01027 0.43913 0.0
C9 C 0.15694 0.20758 0.43534 0.0
O10 O 0.18428 0.18141 0.43855 0.0
O11 O 0.13217 0.18531 0.44359 0.0
O12 O 0.24513 0.12669 0.46232 0.0
O13 O 0.20931 0.12958 0.4861 0.0
O14 O 0.19279 0.01756 0.85343 0.0
Cd15 Cd 0.20608 0.09715 0.83724 0.0
Cd16 Cd 0.13996 0.11531 0.84024 0.0
O17 O 0.13996 0.02158 0.85117 0.0
O18 O 0.25174 0.07477 0.83196 0.0
O19 O 0.21458 0.08098 0.80822 0.0
C20 C 0.24374 0.06695 0.81356 0.0
C21 C 0.10166 0.15286 0.81704 0.0
C22 C 0.16566 -0.00729 0.85672 0.0
C23 C 0.1846 0.20859 0.86162 0.0
O24 O 0.15679 0.18468 0.85955 0.0
O25 O 0.20808 0.18523 0.85206 0.0
O26 O 0.09426 0.14073 0.83518 0.0
O27 O 0.13079 0.14099 0.81177 0.0
O28 O 0.93405 0.92375 0.60524 0.0
Cd29 Cd 0.95149 0.85445 0.58615 0.0
Cd30 Cd 0.88721 0.83192 0.58434 0.0
O31 O 0.88215 0.92047 0.59858 0.0
O32 O 0.99656 0.8825 0.58222 0.0
O33 O 0.9604 0.88028 0.55785 0.0
C34 C 0.98911 0.894 0.56388 0.0
C35 C 0.85495 0.8 0.55737 0.0
C36 C 0.90583 0.94588 0.60771 0.0
C37 C 0.93122 0.73361 0.60513 0.0
O38 O 0.90311 0.7565 0.60216 0.0
O39 O 0.95524 0.76182 0.5978 0.0
O40 O 0.84382 0.80361 0.5751 0.0
O41 O 0.88417 0.81794 0.55475 0.0
O42 O 0.90512 0.91018 0.1898 0.0
Cd43 Cd 0.89698 0.83378 0.20841 0.0
Cd44 Cd 0.96156 0.83062 0.20742 0.0
O45 O 0.95766 0.91874 0.19253 0.0
O46 O 0.85289 0.85212 0.21794 0.0
O47 O 0.89596 0.8526 0.23763 0.0
C48 C 0.86554 0.86316 0.23522 0.0
C49 C 0.99524 0.80973 0.23471 0.0
C50 C 0.9308 0.93955 0.18576 0.0
C51 C 0.92464 0.71916 0.18878 0.0
O52 O 0.95096 0.74883 0.19126 0.0
O53 O 0.8988 0.74234 0.19576 0.0
O54 O 1.00651 0.81547 0.21705 0.0
O55 O 0.96496 0.82054 0.23704 0.0
O56 O 0.14592 0.51771 0.94527 0.0
Cd57 Cd 0.13371 0.5991 0.96128 0.0
Cd58 Cd 0.19741 0.61389 0.95784 0.0
O59 O 0.19874 0.52059 0.94665 0.0
O60 O 0.08992 0.57699 0.97019 0.0
O61 O 0.13107 0.58936 0.99095 0.0
C62 C 0.10147 0.57352 0.98805 0.0
C63 C 0.23012 0.65046 0.98382 0.0
C64 C 0.17301 0.49216 0.94153 0.0
C65 C 0.15325 0.70842 0.93612 0.0
O66 O 0.18118 0.68396 0.93836 0.0
O67 O 0.12988 0.68581 0.94572 0.0
O68 O 0.24127 0.64124 0.96625 0.0
O69 O 0.20054 0.63577 0.98685 0.0
O70 O 0.20539 0.51459 0.35284 0.0
Cd71 Cd 0.21858 0.59465 0.33673 0.0
Cd72 Cd 0.15377 0.60913 0.33692 0.0
O73 O 0.15277 0.51677 0.34887 0.0
O74 O 0.26432 0.57468 0.33094 0.0
O75 O 0.22655 0.58098 0.30756 0.0
C76 C 0.25601 0.56826 0.31252 0.0
C77 C 0.12196 0.64354 0.31 0.0
C78 C 0.17818 0.48919 0.35551 0.0
C79 C 0.19385 0.70601 0.35982 0.0
O80 O 0.16659 0.68106 0.35644 0.0
O81 O 0.21869 0.68278 0.35162 0.0
O82 O 0.10994 0.63462 0.32732 0.0
O83 O 0.15196 0.6295 0.30772 0.0
O84 O 0.93779 0.41465 0.10547 0.0
Cd85 Cd 0.95339 0.34523 0.08588 0.0
Cd86 Cd 0.89069 0.32237 0.08561 0.0
O87 O 0.88564 0.41061 0.09998 0.0
O88 O 0.99582 0.37774 0.07741 0.0
O89 O 0.95429 0.36683 0.0568 0.0
C90 C 0.98347 0.3854 0.05985 0.0
C91 C 0.85826 0.29107 0.05874 0.0
C92 C 0.90971 0.43645 0.10856 0.0
C93 C 0.93624 0.22487 0.10559 0.0
O94 O 0.9079 0.2471 0.10306 0.0
O95 O 0.95972 0.25349 0.09777 0.0
O96 O 0.8474 0.2932 0.07657 0.0
O97 O 0.88732 0.30987 0.05602 0.0
O98 O 0.89674 0.41844 0.68913 0.0
Cd99 Cd 0.88916 0.34233 0.70797 0.0
Cd100 Cd 0.95456 0.33979 0.70688 0.0
O101 O 0.94923 0.42771 0.69201 0.0
O102 O 0.84507 0.35964 0.71769 0.0
O103 O 0.8883 0.36186 0.73722 0.0
C104 C 0.85777 0.3714 0.73492 0.0
C105 C 0.99375 0.31991 0.73144 0.0
C106 C 0.92237 0.44802 0.68511 0.0
C107 C 0.91728 0.22768 0.68849 0.0
O108 O 0.94352 0.25763 0.69097 0.0
O109 O 0.89135 0.25068 0.6954 0.0
O110 O 1.00117 0.32782 0.71308 0.0
O111 O 0.96404 0.32771 0.73612 0.0
O112 O 0.65588 -0.00512 0.93674 0.0
Cd113 Cd 0.63993 0.06643 0.95558 0.0
Cd114 Cd 0.70277 0.08914 0.9563 0.0
O115 O 0.70796 6e-05 0.94245 0.0
O116 O 0.59727 0.03583 0.96439 0.0
O117 O 0.63885 0.04803 0.98488 0.0
C118 C 0.60953 0.03004 0.98205 0.0
C119 C 0.7349 0.12161 0.98318 0.0
C120 C 0.68409 -0.02679 0.93396 0.0
C121 C 0.65801 0.18546 0.93518 0.0
O122 O 0.68626 0.1635 0.93825 0.0
O123 O 0.63423 0.15728 0.94284 0.0
O124 O 0.74601 0.11835 0.96544 0.0
O125 O 0.70574 0.10337 0.98583 0.0
O126 O 0.70068 -0.00136 0.35028 0.0
Cd127 Cd 0.71234 0.07799 0.33346 0.0
Cd128 Cd 0.64845 0.09356 0.33599 0.0
O129 O 0.64788 0.00149 0.34816 0.0
O130 O 0.75621 0.05437 0.32457 0.0
O131 O 0.71469 0.06511 0.3039 0.0
C132 C 0.74446 0.04914 0.30681 0.0
C133 C 0.61568 0.12654 0.30935 0.0
C134 C 0.67372 -0.02639 0.35395 0.0
C135 C 0.6913 0.18998 0.35729 0.0
O136 O 0.66361 0.16576 0.35485 0.0
O137 O 0.71519 0.1661 0.34823 0.0
O138 O 0.60437 0.11979 0.32696 0.0
O139 O 0.6455 0.11169 0.30672 0.0
O140 O 0.44998 0.91106 0.10196 0.0
Cd141 Cd 0.45817 0.83338 0.08363 0.0
Cd142 Cd 0.39351 0.83448 0.08348 0.0
O143 O 0.39752 0.92207 0.09849 0.0
O144 O 0.50216 0.84791 0.07359 0.0
O145 O 0.45863 0.85015 0.05427 0.0
C146 C 0.4892 0.8583 0.05631 0.0
C147 C 0.35898 0.8157 0.05654 0.0
C148 C 0.42414 0.94159 0.10565 0.0
C149 C 0.42902 0.72083 0.10293 0.0
O150 O 0.40297 0.75201 0.09977 0.0
O151 O 0.45537 0.74244 0.09658 0.0
O152 O 0.34826 0.82266 0.07429 0.0
O153 O 0.38924 0.82428 0.05387 0.0
O154 O 0.39376 0.91813 0.69223 0.0
Cd155 Cd 0.38004 0.83929 0.70861 0.0
Cd156 Cd 0.44503 0.82215 0.70714 0.0
O157 O 0.44648 0.91501 0.69555 0.0
O158 O 0.33439 0.86186 0.7138 0.0
O159 O 0.37158 0.85624 0.73756 0.0
C160 C 0.34242 0.87015 0.73219 0.0
C161 C 0.47724 0.78443 0.73347 0.0
C162 C 0.42097 0.94314 0.68929 0.0
C163 C 0.4026 0.72722 0.68509 0.0
O164 O 0.43017 0.75176 0.68764 0.0
O165 O 0.37854 0.75062 0.69409 0.0
O166 O 0.48882 0.79362 0.71604 0.0
O167 O 0.44755 0.80025 0.73622 0.0
O168 O 0.64893 0.49831 0.44049 0.0
Cd169 Cd 0.63506 0.57791 0.45677 0.0
Cd170 Cd 0.7002 0.59209 0.45559 0.0
O171 O 0.70167 0.49969 0.44362 0.0
O172 O 0.58927 0.55786 0.46173 0.0
O173 O 0.6261 0.56187 0.48569 0.0
C174 C 0.59697 0.54963 0.48019 0.0
C175 C 0.73189 0.62603 0.48247 0.0
C176 C 0.67619 0.47247 0.43742 0.0
C177 C 0.65804 0.68972 0.43358 0.0
O178 O 0.68566 0.66433 0.43635 0.0
O179 O 0.63383 0.66666 0.44224 0.0
O180 O 0.74383 0.6178 0.46507 0.0
O181 O 0.70209 0.61164 0.48483 0.0
O182 O 0.69273 0.49947 0.85147 0.0
Cd183 Cd 0.7018 0.5771 0.83346 0.0
Cd184 Cd 0.63691 0.58028 0.83335 0.0
O185 O 0.64029 0.49117 0.84773 0.0
O186 O 0.74619 0.5595 0.8242 0.0
O187 O 0.70356 0.55996 0.80414 0.0
C188 C 0.73396 0.54947 0.80674 0.0
C189 C 0.60317 0.6043 0.80629 0.0
C190 C 0.66683 0.46992 0.85487 0.0
C191 C 0.67311 0.69039 0.85334 0.0
O192 O 0.64698 0.66063 0.85026 0.0
O193 O 0.69929 0.66793 0.84662 0.0
O194 O 0.59196 0.59661 0.82388 0.0
O195 O 0.63341 0.59336 0.80381 0.0
O196 O 0.44528 0.41588 0.60224 0.0
Cd197 Cd 0.45787 0.33638 0.58555 0.0
Cd198 Cd 0.39133 0.3235 0.58812 0.0
O199 O 0.39244 0.41603 0.59987 0.0
O200 O 0.50369 0.35522 0.58031 0.0
O201 O 0.46644 0.35304 0.55658 0.0
C202 C 0.49575 0.36428 0.56193 0.0
C203 C 0.35155 0.29234 0.56519 0.0
C204 C 0.41833 0.44243 0.60571 0.0
C205 C 0.43515 0.22496 0.60905 0.0
O206 O 0.40752 0.25084 0.6068 0.0
O207 O 0.45906 0.24746 0.59995 0.0
O208 O 0.34512 0.30307 0.58357 0.0
O209 O 0.38059 0.30175 0.55956 0.0
O210 O 0.40884 0.4168 0.18582 0.0
Cd211 Cd 0.39162 0.34752 0.20475 0.0
Cd212 Cd 0.45554 0.32289 0.20717 0.0
O213 O 0.46057 0.41112 0.19293 0.0
O214 O 0.3468 0.3774 0.20959 0.0
O215 O 0.38412 0.37216 0.23329 0.0
C216 C 0.35516 0.38761 0.22784 0.0
C217 C 0.48828 0.29139 0.23412 0.0
C218 C 0.4371 0.43776 0.18365 0.0
C219 C 0.41235 0.22606 0.18592 0.0
O220 O 0.44035 0.24765 0.18931 0.0
O221 O 0.38805 0.25536 0.19288 0.0
O222 O 0.49916 0.29415 0.21632 0.0
O223 O 0.4589 0.30946 0.23679 0.0
H224 H 0.35903 0.24787 0.52734 0.0
H225 H 0.2878 0.27881 0.57221 0.0
H226 H 0.24681 0.23205 0.5504 0.0
H227 H 0.23103 0.18188 0.51857 0.0
H228 H 0.30232 0.15082 0.47373 0.0
H229 H 0.34329 0.19742 0.49556 0.0
C230 C 0.33451 0.24476 0.5323 0.0
C231 C 0.32655 0.26706 0.55137 0.0
C232 C 0.31102 0.21722 0.51973 0.0
C233 C 0.29465 0.26216 0.5576 0.0
C234 C 0.27115 0.23523 0.54515 0.0
C235 C 0.25556 0.1849 0.51362 0.0
C236 C 0.26353 0.16268 0.49454 0.0
C237 C 0.27907 0.21232 0.52621 0.0
C238 C 0.29545 0.16742 0.48834 0.0
C239 C 0.31895 0.19427 0.50081 0.0
H240 H 0.97796 0.94611 0.5271 0.0
H241 H 0.05277 0.91299 0.57118 0.0
H242 H 0.09109 -0.03135 0.55032 0.0
H243 H 0.1037 0.02559 0.51933 0.0
H244 H 1.02892 0.05851 0.47522 0.0
H245 H 0.99031 0.0051 0.49642 0.0
C246 C 1.00269 0.95073 0.53209 0.0
C247 C 1.01248 0.92501 0.55062 0.0
C248 C 1.02461 -0.01656 0.5201 0.0
C249 C 1.04457 0.9321 0.55695 0.0
C250 C 0.06652 -0.03586 0.54505 0.0
C251 C 0.07888 0.0218 0.51446 0.0
C252 C 0.06926 0.04618 0.49573 0.0
C253 C 0.05682 -0.00987 0.52661 0.0
C254 C 1.03702 0.04027 0.48958 0.0
C255 C 1.01491 0.00944 0.50166 0.0
H256 H 0.35563 0.92533 0.76812 0.0
H257 H 0.27793 0.88595 0.72685 0.0
H258 H 0.24088 0.94674 0.74772 0.0
H259 H 0.23053 0.0121 0.77757 0.0
H260 H 0.30824 0.05144 0.81884 0.0
H261 H 0.3453 -0.00921 0.79795 0.0
C262 C 0.33052 0.92936 0.76383 0.0
C263 C 0.31955 0.90076 0.74602 0.0
C264 C 0.3094 -0.03462 0.77573 0.0
C265 C 0.287 0.90726 0.74053 0.0
C266 C 0.2658 0.94235 0.7524 0.0
C267 C 0.25566 0.00812 0.78185 0.0
C268 C 0.26661 0.03663 0.79967 0.0
C269 C 0.27678 -0.02784 0.76994 0.0
C270 C 0.29918 0.03019 0.80515 0.0
C271 C 0.32038 -0.00482 0.79327 0.0
H272 H 0.11182 0.20453 0.78036 0.0
H273 H 1.0375 0.16851 0.82267 0.0
H274 H 0.99796 0.22066 0.80058 0.0
H275 H 0.98413 0.27496 0.76896 0.0
H276 H 0.05839 0.31072 0.7266 0.0
H277 H 0.09821 0.26123 0.74907 0.0
C278 C 0.08695 0.20779 0.7847 0.0
C279 C 0.07766 0.18222 0.8031 0.0
C280 C 0.06429 0.23844 0.77199 0.0
C281 C 1.04535 0.18753 0.80857 0.0
C282 C 1.02268 0.21756 0.79597 0.0
C283 C 1.00908 0.27267 0.76475 0.0
C284 C 1.01821 0.29668 0.74612 0.0
C285 C 1.03186 0.24324 0.77764 0.0
C286 C 0.05065 0.29274 0.74085 0.0
C287 C 0.07346 0.26414 0.75366 0.0
H288 H 0.79512 0.74953 0.55951 0.0
H289 H 0.87091 0.78659 0.51829 0.0
H290 H 0.83992 0.73435 0.4917 0.0
H291 H 0.79157 0.67724 0.48023 0.0
H292 H 0.7157 0.64069 0.52145 0.0
H293 H 0.74665 0.69311 0.54801 0.0
C294 C 0.80482 0.74661 0.54469 0.0
C295 C 0.83531 0.77219 0.54092 0.0
C296 C 0.78698 0.71603 0.5295 0.0
C297 C 0.8475 0.76757 0.52162 0.0
C298 C 0.82983 0.73746 0.50641 0.0
C299 C 0.78185 0.68033 0.49505 0.0
C300 C 0.75138 0.6547 0.49884 0.0
C301 C 0.79964 0.71117 0.51021 0.0
C302 C 0.7391 0.65974 0.51811 0.0
C303 C 0.75675 0.68991 0.5333 0.0
H304 H 0.80454 -0.00227 0.3101 0.0
H305 H 0.7275 0.03308 0.26765 0.0
H306 H 0.75764 -0.02416 0.24205 0.0
H307 H 0.80551 0.91476 0.23187 0.0
H308 H 0.88267 0.88013 0.27427 0.0
H309 H 0.85251 0.93731 0.29987 0.0
C310 C 0.79441 -0.00651 0.29521 0.0
C311 C 0.76383 0.01997 0.29079 0.0
C312 C 0.81168 0.95985 0.28064 0.0
C313 C 0.75103 0.01349 0.27144 0.0
C314 C 0.76818 -0.01957 0.25682 0.0
C315 C 0.81563 0.91911 0.24676 0.0
C316 C 0.84623 0.89276 0.25119 0.0
C317 C 0.7984 0.95297 0.26131 0.0
C318 C 0.85912 0.89964 0.2705 0.0
C319 C 0.84195 0.93261 0.28512 0.0
H320 H 0.05685 0.76583 0.23289 0.0
H321 H 0.97976 0.79766 0.27385 0.0
H322 H 1.01198 0.74797 0.3006 0.0
H323 H 0.06141 0.6929 0.31213 0.0
H324 H 0.13844 0.66055 0.27117 0.0
H325 H 0.10668 0.71247 0.24459 0.0
C326 C 1.04718 0.76257 0.24772 0.0
C327 C 1.01592 0.78567 0.25135 0.0
C328 C 0.06567 0.73309 0.26296 0.0
C329 C 1.00375 0.78051 0.27063 0.0
C330 C 1.02211 0.75179 0.28592 0.0
C331 C 0.07123 0.69686 0.29737 0.0
C332 C 0.10222 0.67242 0.29364 0.0
C333 C 0.05295 0.72727 0.2822 0.0
C334 C 0.11463 0.67862 0.27445 0.0
C335 C 0.09652 0.70852 0.25925 0.0
H336 H 0.29757 0.77452 0.05935 0.0
H337 H 0.37299 0.8023 1.01717 0.0
H338 H 0.33987 0.75291 0.99104 0.0
H339 H 0.29023 0.69874 0.98046 0.0
H340 H 0.2151 0.66992 0.02278 0.0
H341 H 0.24758 0.72229 0.04863 0.0
C342 C 0.30668 0.7705 0.04439 0.0
C343 C 0.33773 0.79232 0.04023 0.0
C344 C 0.28772 0.74108 0.02953 0.0
C345 C 0.34917 0.78614 1.02078 0.0
C346 C 0.3303 0.75759 1.00586 0.0
C347 C 0.28097 0.70363 0.99536 0.0
C348 C 0.25031 0.68001 0.99969 0.0
C349 C 0.2997 0.73417 1.01012 0.0
C350 C 0.23864 0.68734 1.01904 0.0
C351 C 0.25717 0.71749 0.03382 0.0
H352 H 1.04225 0.52091 0.9848 0.0
H353 H 0.11765 0.56257 0.02753 0.0
H354 H 0.08794 0.50693 0.0534 0.0
H355 H 1.04137 0.4438 0.0636 0.0
H356 H 0.96623 0.40153 1.02075 0.0
H357 H 0.99531 0.45955 0.99511 0.0
C358 C 0.05208 0.51849 0.99982 0.0
C359 C 0.08212 0.54608 1.00423 0.0
C360 C 1.03513 0.48557 1.01452 0.0
C361 C 0.09455 0.542 0.02374 0.0
C362 C 0.07765 0.50988 0.03852 0.0
C363 C 1.03139 0.44695 0.04863 0.0
C364 C 1.00173 0.41795 0.04407 0.0
C365 C 0.04811 0.48084 0.03401 0.0
C366 C 0.98906 0.42309 0.02464 0.0
C367 C 1.00562 0.45647 1.00999 0.0
H368 H 0.36828 0.43725 0.2646 0.0
H369 H 0.29126 0.41052 0.22183 0.0
H370 H 0.25422 0.46754 0.24363 0.0
H371 H 0.2434 0.52399 0.27506 0.0
H372 H 0.32041 0.55047 0.31786 0.0
H373 H 0.3577 0.49558 0.29574 0.0
C374 C 0.34335 0.44354 0.26011 0.0
C375 C 0.33256 0.41925 0.24166 0.0
C376 C 0.32218 0.47703 0.27264 0.0
C377 C 0.30022 0.4285 0.23598 0.0
C378 C 0.279 0.46133 0.24841 0.0
C379 C 0.26842 0.51847 0.27944 0.0
C380 C 0.27907 0.54148 0.29807 0.0
C381 C 0.28971 0.48594 0.26676 0.0
C382 C 0.31154 0.53333 0.30359 0.0
C383 C 0.3329 0.50164 0.29098 0.0
H384 H 0.79378 0.17613 0.98089 0.0
H385 H 0.71988 0.12962 0.02253 0.0
H386 H 0.75113 0.17972 0.04939 0.0
H387 H 0.79925 0.23703 0.06102 0.0
H388 H 0.87313 0.28362 1.01936 0.0
H389 H 0.84184 0.23369 0.99249 0.0
C390 C 0.78455 0.17657 0.99586 0.0
C391 C 0.75455 0.14887 0.99969 0.0
C392 C 0.80251 0.20597 1.0112 0.0
C393 C 0.74291 0.15035 1.01916 0.0
C394 C 0.76073 0.17919 0.03453 0.0
C395 C 0.80847 0.23667 0.04604 0.0
C396 C 0.83849 0.26428 0.04222 0.0
C397 C 0.79048 0.20738 0.0307 0.0
C398 C 0.85008 0.26294 0.02273 0.0
C399 C 0.83225 0.23419 1.00736 0.0
H400 H 0.79546 0.50483 0.80971 0.0
H401 H 0.7165 0.52858 0.76792 0.0
H402 H 0.74741 0.47306 0.74235 0.0
H403 H 0.79649 0.41672 0.73198 0.0
H404 H 0.87558 0.39315 0.77368 0.0
H405 H 0.84472 0.44888 0.79927 0.0
C406 C 0.78508 0.49845 0.79496 0.0
C407 C 0.75372 0.52118 0.79073 0.0
C408 C 0.80284 0.46573 0.7804 0.0
C409 C 0.7406 0.51188 0.77157 0.0
C410 C 0.75821 0.47983 0.75696 0.0
C411 C 0.80692 0.4232 0.74672 0.0
C412 C 0.83826 0.40035 0.75093 0.0
C413 C 0.78923 0.45609 0.76126 0.0
C414 C 0.85147 0.40991 0.77005 0.0
C415 C 0.83389 0.44206 0.78467 0.0
H416 H 0.5494 -0.0194 0.97958 0.0
H417 H 0.62816 0.01157 1.02084 0.0
H418 H 0.59852 0.95793 0.0471 0.0
H419 H 0.55016 0.90306 0.0584 0.0
H420 H 0.47104 0.87362 1.01731 0.0
H421 H 0.50115 0.92512 0.99084 0.0
C422 C 0.56007 -0.02408 0.99433 0.0
C423 C 0.59095 0.00038 0.99824 0.0
C424 C 0.54296 0.94474 1.00934 0.0
C425 C 0.60441 -0.00651 1.01743 0.0
C426 C 0.58752 0.96259 0.03244 0.0
C427 C 0.53959 0.90726 0.04361 0.0
C428 C 0.50842 0.88419 0.03983 0.0
C429 C 0.55682 0.93791 0.02855 0.0
C430 C 0.49501 0.89074 1.02062 0.0
C431 C 0.51216 0.92043 1.00549 0.0
H432 H 0.54882 0.24217 0.23192 0.0
H433 H 0.47303 0.27988 0.27337 0.0
H434 H 0.50545 0.23066 0.30014 0.0
H435 H 0.55513 0.17621 0.31171 0.0
H436 H 0.63089 0.13895 0.27019 0.0
H437 H 0.59847 0.18825 0.24348 0.0
C438 C 0.5394 0.24 0.24683 0.0
C439 C 0.50853 0.2649 0.25062 0.0
C440 C 0.55807 0.21123 0.26211 0.0
C441 C 0.49673 0.26132 0.27003 0.0
C442 C 0.51522 0.23297 0.28534 0.0
C443 C 0.56452 0.1785 0.29679 0.0
C444 C 0.59539 0.15362 0.29296 0.0
C445 C 0.54585 0.20747 0.28153 0.0
C446 C 0.60721 0.15751 0.27357 0.0
C447 C 0.58871 0.18588 0.25828 0.0
H448 H 0.53716 0.73228 0.73042 0.0
H449 H 0.46141 0.76471 0.77228 0.0
H450 H 0.49295 0.70842 0.79811 0.0
H451 H 0.54219 0.65109 0.80891 0.0
H452 H 0.61814 0.61944 0.76714 0.0
H453 H 0.5861 0.6735 0.74109 0.0
C454 C 0.52758 0.72739 0.74522 0.0
C455 C 0.497 0.75312 0.74941 0.0
C456 C 0.54574 0.69448 0.75996 0.0
C457 C 0.4849 0.74572 0.76864 0.0
C458 C 0.50289 0.71329 0.78341 0.0
C459 C 0.55164 0.65533 0.79405 0.0
C460 C 0.58253 0.63095 0.78998 0.0
C461 C 0.53329 0.68739 0.77923 0.0
C462 C 0.59444 0.63749 0.77068 0.0
C463 C 0.57618 0.66871 0.75579 0.0
H464 H 0.48339 0.41865 0.52565 0.0
H465 H 0.56027 0.37543 0.5675 0.0
H466 H 0.59805 0.43214 0.54652 0.0
H467 H 0.60928 0.49516 0.51643 0.0
H468 H 0.53247 0.5382 0.47452 0.0
H469 H 0.49466 0.48148 0.49551 0.0
C470 C 0.50848 0.42096 0.53005 0.0
C471 C 0.51899 0.39251 0.54806 0.0
C472 C 0.53004 0.45458 0.51806 0.0
C473 C 0.55153 0.3967 0.55367 0.0
C474 C 0.57316 0.42945 0.54174 0.0
C475 C 0.58419 0.4928 0.51201 0.0
C476 C 0.5737 0.52124 0.494 0.0
C477 C 0.56264 0.45912 0.52399 0.0
C478 C 0.54118 0.51694 0.48836 0.0
C479 C 0.51954 0.4842 0.5003 0.0
H480 H 0.14753 0.74874 0.38414 0.0
H481 H 0.24572 0.78348 0.36843 0.0
H482 H 0.24859 0.87182 0.39288 0.0
H483 H 0.22213 0.94166 0.41788 0.0
H484 H 0.12367 0.90481 0.43269 0.0
H485 H 0.12222 0.81394 0.40955 0.0
C486 C 0.16962 0.7756 0.38595 0.0
C487 C 0.19626 0.75996 0.37431 0.0
C488 C 0.17111 0.82563 0.39999 0.0
C489 C 0.22478 0.79483 0.37712 0.0
C490 C 0.22645 0.8452 0.39112 0.0
C491 C 0.20056 0.91306 0.41623 0.0
C492 C 0.17301 0.93009 0.42693 0.0
C493 C 0.19967 0.86124 0.40258 0.0
C494 C 0.14513 0.89297 0.42454 0.0
C495 C 0.14423 0.84109 0.41128 0.0
H496 H 0.20242 0.24627 0.41014 0.0
H497 H 0.10539 0.28924 0.42753 0.0
H498 H 0.10221 0.3776 0.40301 0.0
H499 H 0.12824 0.44529 0.37748 0.0
H500 H 0.22552 0.39983 0.36102 0.0
H501 H 0.22709 0.30893 0.38419 0.0
C502 C 0.18052 0.27496 0.4087 0.0
C503 C 0.15432 0.26165 0.42084 0.0
C504 C 0.17882 0.32491 0.3946 0.0
C505 C 0.12601 0.29879 0.41846 0.0
C506 C 0.12416 0.34917 0.40442 0.0
C507 C 0.14954 0.41476 0.37877 0.0
C508 C 0.17676 0.4294 0.36761 0.0
C509 C 0.15053 0.3629 0.39246 0.0
C510 C 0.20432 0.38983 0.36954 0.0
C511 C 0.2053 0.33794 0.38282 0.0
H512 H 0.14388 0.24552 0.89017 0.0
H513 H 0.23627 0.28994 0.86606 0.0
H514 H 0.24251 0.37875 0.89015 0.0
H515 H 0.21985 0.4475 0.91691 0.0
H516 H 0.12696 0.4009 0.94001 0.0
H517 H 0.12306 0.30838 0.9176 0.0
C518 C 0.16542 0.27459 0.89008 0.0
C519 C 0.18936 0.26177 0.87614 0.0
C520 C 0.16883 0.32491 0.9039 0.0
C521 C 0.21736 0.2992 0.87655 0.0
C522 C 0.22094 0.34986 0.89033 0.0
C523 C 0.19907 0.4163 0.91724 0.0
C524 C 0.17365 0.43116 0.93 0.0
C525 C 0.19665 0.36358 0.90396 0.0
C526 C 0.14673 0.39073 0.9302 0.0
C527 C 0.14441 0.33792 0.91736 0.0
H528 H 0.19411 0.74364 0.90769 0.0
H529 H 0.10131 0.79131 0.93135 0.0
H530 H 0.09529 0.88074 0.90732 0.0
H531 H 0.11838 0.94931 0.88087 0.0
H532 H 0.21178 0.89963 0.85837 0.0
H533 H 0.21533 0.80623 0.88054 0.0
C534 C 0.17251 0.77352 0.90769 0.0
C535 C 0.14841 0.76149 0.92149 0.0
C536 C 0.16927 0.82425 0.89395 0.0
C537 C 0.12034 0.79995 0.92096 0.0
C538 C 0.11689 0.85098 0.90722 0.0
C539 C 0.13919 0.91727 0.88063 0.0
C540 C 0.16487 0.93149 0.86811 0.0
C541 C 0.14141 0.86406 0.89378 0.0
C542 C 0.19184 0.88997 0.868 0.0
C543 C 0.19394 0.83665 0.8807 0.0
H544 H 0.8689 0.17808 0.66525 0.0
H545 H 0.96692 0.1438 0.68446 0.0
H546 H 0.97148 0.05341 0.66133 0.0
H547 H 0.94925 -0.01128 0.63454 0.0
H548 H 0.85167 0.02061 0.61421 0.0
H549 H 0.84534 0.1077 0.63885 0.0
C550 C 0.891 0.14997 0.66456 0.0
C551 C 0.91758 0.16766 0.67648 0.0
C552 C 0.89373 0.0985 0.65085 0.0
C553 C 0.94621 0.13136 0.67535 0.0
C554 C 0.94889 0.07979 0.66209 0.0
C555 C 0.92653 0.01468 0.63537 0.0
C556 C 0.90111 -0.00127 0.62236 0.0
C557 C 0.92308 0.06393 0.64951 0.0
C558 C 0.87172 0.03229 0.62396 0.0
C559 C 0.86808 0.08194 0.63807 0.0
H560 H 0.97031 0.50382 0.66381 0.0
H561 H 0.86911 0.51876 0.67581 0.0
H562 H 0.8631 0.60593 0.65162 0.0
H563 H 0.88574 0.67655 0.62689 0.0
H564 H 0.98676 0.66558 0.61439 0.0
H565 H 0.99354 0.57758 0.63878 0.0
C566 C 0.94706 0.52667 0.66124 0.0
C567 C 0.92021 0.50465 0.67159 0.0
C568 C 0.9436 0.57682 0.64707 0.0
C569 C 0.89016 0.53443 0.668 0.0
C570 C 0.88663 0.58428 0.65413 0.0
C571 C 0.9093 0.65482 0.62933 0.0
C572 C 0.93566 0.67745 0.61873 0.0
C573 C 0.91306 0.60535 0.64347 0.0
C574 C 0.966 0.64887 0.62229 0.0
C575 C 0.96992 0.59877 0.63629 0.0
H576 H 0.95455 0.48056 0.13422 0.0
H577 H 0.85569 0.5102 0.11621 0.0
H578 H 0.8505 0.59759 0.14086 0.0
H579 H 0.87529 0.66863 0.1666 0.0
H580 H 0.97452 0.63656 0.18353 0.0
H581 H 0.97812 0.54611 0.16036 0.0
C582 C 0.9318 0.50609 0.13557 0.0
C583 C 0.90566 0.48943 0.12321 0.0
C584 C 0.92901 0.55551 0.1497 0.0
C585 C 0.87626 0.52245 0.12546 0.0
C586 C 0.87328 0.57226 0.13956 0.0
C587 C 0.89748 0.64105 0.1654 0.0
C588 C 0.92464 0.65936 0.17668 0.0
C589 C 0.89961 0.5895 0.15169 0.0
C590 C 0.95336 0.62368 0.1749 0.0
C591 C 0.95548 0.57206 0.16162 0.0
H592 H 0.97794 -0.00588 0.16338 0.0
H593 H 0.87793 0.01302 0.17821 0.0
H594 H 0.87101 0.10064 0.1543 0.0
H595 H 0.89231 0.16996 0.12889 0.0
H596 H 0.9921 0.15576 0.11346 0.0
H597 H 1.00003 0.06765 0.13776 0.0
C598 C 0.95479 0.01801 0.16149 0.0
C599 C 0.92849 -0.00318 0.17252 0.0
C600 C 0.95077 0.0685 0.14746 0.0
C601 C 0.89854 0.02795 0.16984 0.0
C602 C 0.89449 0.07807 0.15613 0.0
C603 C 0.91585 0.14754 0.13066 0.0
C604 C 0.9415 0.16913 0.11924 0.0
C605 C 0.92027 0.09812 0.14473 0.0
C606 C 0.97186 0.13977 0.12199 0.0
C607 C 0.97643 0.08962 0.13594 0.0
H608 H 0.72147 0.74169 0.8763 0.0
H609 H 0.62244 0.77107 0.85844 0.0
H610 H 0.6175 0.8606 0.88182 0.0
H611 H 0.63992 0.92672 0.90821 0.0
H612 H 0.73865 0.9004 0.92696 0.0
H613 H 0.74503 0.81307 0.90242 0.0
C614 C 0.69902 0.76845 0.87736 0.0
C615 C 0.67233 0.74962 0.86573 0.0
C616 C 0.69612 0.81962 0.89116 0.0
C617 C 0.64328 0.7843 0.86733 0.0
C618 C 0.64037 0.83542 0.88073 0.0
C619 C 0.66289 0.90187 0.90707 0.0
C620 C 0.68865 0.91956 0.91958 0.0
C621 C 0.6664 0.85261 0.89294 0.0
C622 C 0.71834 0.88738 0.9176 0.0
C623 C 0.72202 0.83762 0.90353 0.0
H624 H 0.7026 0.23813 0.91187 0.0
H625 H 0.60264 0.25541 0.92661 0.0
H626 H 0.5957 0.34318 0.9021 0.0
H627 H 0.6188 0.41613 0.87668 0.0
H628 H 0.71899 0.39457 0.86261 0.0
H629 H 0.72483 0.30655 0.88651 0.0
C630 C 0.67924 0.26114 0.90989 0.0
C631 C 0.65326 0.24057 0.92121 0.0
C632 C 0.67539 0.31045 0.89572 0.0
C633 C 0.62312 0.27061 0.91818 0.0
C634 C 0.61912 0.32059 0.90411 0.0
C635 C 0.64175 0.39152 0.87871 0.0
C636 C 0.66843 0.41211 0.86793 0.0
C637 C 0.64514 0.3409 0.89275 0.0
C638 C 0.6981 0.38008 0.8708 0.0
C639 C 0.70154 0.32976 0.8845 0.0
H640 H 0.64919 0.2274 0.38494 0.0
H641 H 0.74277 0.27157 0.36259 0.0
H642 H 0.74794 0.36024 0.38685 0.0
H643 H 0.72414 0.42856 0.41341 0.0
H644 H 0.63015 0.38167 0.43473 0.0
H645 H 0.62714 0.28987 0.41202 0.0
C646 C 0.67076 0.25641 0.38526 0.0
C647 C 0.69536 0.24351 0.37178 0.0
C648 C 0.67357 0.30652 0.39918 0.0
C649 C 0.72336 0.28088 0.37272 0.0
C650 C 0.72633 0.33145 0.3866 0.0
C651 C 0.70331 0.39745 0.41327 0.0
C652 C 0.67733 0.41201 0.42564 0.0
C653 C 0.70142 0.34507 0.39982 0.0
C654 C 0.65034 0.37173 0.42524 0.0
C655 C 0.64854 0.31933 0.41223 0.0
H656 H 0.70192 0.72974 0.40753 0.0
H657 H 0.60576 0.77041 0.42699 0.0
H658 H 0.6009 0.85948 0.40279 0.0
H659 H 0.62527 0.92845 0.37694 0.0
H660 H 0.72172 0.8851 0.35834 0.0
H661 H 0.72492 0.79364 0.38124 0.0
C662 C 0.67985 0.75808 0.4066 0.0
C663 C 0.65439 0.74394 0.41922 0.0
C664 C 0.67721 0.80845 0.39269 0.0
C665 C 0.62582 0.78061 0.41752 0.0
C666 C 0.62302 0.83141 0.40367 0.0
C667 C 0.64674 0.8983 0.37773 0.0
C668 C 0.67327 0.91372 0.36604 0.0
C669 C 0.64868 0.84602 0.39123 0.0
C670 C 0.70106 0.87456 0.36729 0.0
C671 C 0.70297 0.82231 0.38041 0.0
H672 H 0.45854 0.16812 0.16446 0.0
H673 H 0.35725 0.15987 0.17604 0.0
H674 H 0.35136 0.07261 0.15144 0.0
H675 H 0.37546 -0.00139 0.12653 0.0
H676 H 0.47688 0.01088 0.11543 0.0
H677 H 0.48201 0.09744 0.13979 0.0
C678 C 0.43512 0.14713 0.16178 0.0
C679 C 0.40843 0.17029 0.17219 0.0
C680 C 0.43186 0.09812 0.14751 0.0
C681 C 0.37826 0.14272 0.1683 0.0
C682 C 0.37485 0.09305 0.15417 0.0
C683 C 0.39856 0.02079 0.12932 0.0
C684 C 0.42574 -0.00185 0.11918 0.0
C685 C 0.40151 0.07056 0.14359 0.0
C686 C 0.45559 0.02704 0.12307 0.0
C687 C 0.45861 0.07651 0.13704 0.0
H688 H 0.39423 0.48441 0.15673 0.0
H689 H 0.4917 0.50899 0.17767 0.0
H690 H 0.49901 0.5959 0.1532 0.0
H691 H 0.47647 0.66791 0.12665 0.0
H692 H 0.37858 0.64093 0.10672 0.0
H693 H 0.37291 0.55102 0.12985 0.0
C694 C 0.41713 0.50875 0.15607 0.0
C695 C 0.44225 0.49075 0.16919 0.0
C696 C 0.42115 0.55789 0.142 0.0
C697 C 0.47187 0.52226 0.16783 0.0
C698 C 0.47608 0.5718 0.15381 0.0
C699 C 0.45413 0.64153 0.12719 0.0
C700 C 0.42794 0.66113 0.11506 0.0
C701 C 0.45077 0.59029 0.14087 0.0
C702 C 0.39902 0.62702 0.116 0.0
C703 C 0.39569 0.57572 0.12925 0.0
H704 H 0.44626 0.68595 0.65882 0.0
H705 H 0.35037 0.64862 0.67863 0.0
H706 H 0.34554 0.55971 0.65448 0.0
H707 H 0.36991 0.48969 0.62866 0.0
H708 H 0.46618 0.52925 0.60983 0.0
H709 H 0.46926 0.62103 0.63256 0.0
C710 C 0.42425 0.65841 0.65797 0.0
C711 C 0.39886 0.6734 0.67068 0.0
C712 C 0.42164 0.60804 0.64411 0.0
C713 C 0.37037 0.63774 0.66909 0.0
C714 C 0.36758 0.58704 0.65527 0.0
C715 C 0.39132 0.5191 0.62936 0.0
C716 C 0.41784 0.50254 0.61766 0.0
C717 C 0.39319 0.57146 0.64278 0.0
C718 C 0.44554 0.5407 0.61879 0.0
C719 C 0.44738 0.59312 0.6318 0.0
H720 H 0.39334 0.1895 0.63693 0.0
H721 H 0.4865 0.14062 0.61401 0.0
H722 H 0.49197 0.05178 0.63827 0.0
H723 H 0.46858 -0.01524 0.66504 0.0
H724 H 0.37502 0.03623 0.68694 0.0
H725 H 0.3717 0.12817 0.6642 0.0
C726 C 0.41488 0.1594 0.63712 0.0
C727 C 0.43927 0.17106 0.62348 0.0
C728 C 0.41788 0.10921 0.65106 0.0
C729 C 0.46723 0.13228 0.62426 0.0
C730 C 0.47039 0.08163 0.63815 0.0
C731 C 0.44779 0.01691 0.66502 0.0
C732 C 0.42202 0.00365 0.67756 0.0
C733 C 0.44571 0.06931 0.65155 0.0
C734 C 0.39506 0.04522 0.67732 0.0
C735 C 0.39307 0.09767 0.66429 0.0
loop_
_geom_bond_atom_site_label_1
_geom_bond_atom_site_label_2
_geom_bond_distance
_geom_bond_site_symmetry_2
_ccdc_geom_bond_type
O0 Cd1 2.223 . S
O0 C8 1.315 . S
Cd1 O0 2.223 . S
Cd1 O4 2.297 . S
Cd1 O5 2.439 . S
Cd1 O11 2.240 . S
Cd2 O3 2.240 . S
Cd2 O10 2.223 . S
Cd2 O12 2.297 . S
Cd2 O13 2.439 . S
O3 Cd2 2.240 . S
O3 C8 1.279 . S
O4 Cd1 2.297 . S
O4 C6 1.247 . S
O5 Cd1 2.439 . S
O5 C6 1.208 . S
C6 O4 1.247 . S
C6 O5 1.208 . S
C7 O12 1.247 . S
C7 O13 1.208 . S
C8 O0 1.315 . S
C8 O3 1.279 . S
C9 O10 1.315 . S
C9 O11 1.279 . S
O10 Cd2 2.223 . S
O10 C9 1.315 . S
O11 Cd1 2.240 . S
O11 C9 1.279 . S
O12 Cd2 2.297 . S
O12 C7 1.247 . S
O13 Cd2 2.439 . S
O13 C7 1.208 . S
O14 Cd15 2.223 . S
O14 C22 1.315 . S
Cd15 O14 2.223 . S
Cd15 O18 2.297 . S
Cd15 O19 2.439 . S
Cd15 O25 2.240 . S
Cd16 O17 2.240 . S
Cd16 O24 2.223 . S
Cd16 O26 2.297 . S
Cd16 O27 2.439 . S
O17 Cd16 2.240 . S
O17 C22 1.279 . S
O18 Cd15 2.297 . S
O18 C20 1.247 . S
O19 Cd15 2.439 . S
O19 C20 1.208 . S
C20 O18 1.247 . S
C20 O19 1.208 . S
C21 O26 1.247 . S
C21 O27 1.208 . S
C22 O14 1.315 . S
C22 O17 1.279 . S
C23 O24 1.315 . S
C23 O25 1.279 . S
O24 Cd16 2.223 . S
O24 C23 1.315 . S
O25 Cd15 2.240 . S
O25 C23 1.279 . S
O26 Cd16 2.297 . S
O26 C21 1.247 . S
O27 Cd16 2.439 . S
O27 C21 1.208 . S
O28 Cd29 2.223 . S
O28 C36 1.315 . S
Cd29 O28 2.223 . S
Cd29 O32 2.297 . S
Cd29 O33 2.439 . S
Cd29 O39 2.240 . S
Cd30 O31 2.240 . S
Cd30 O38 2.223 . S
Cd30 O40 2.297 . S
Cd30 O41 2.439 . S
O31 Cd30 2.240 . S
O31 C36 1.279 . S
O32 Cd29 2.297 . S
O32 C34 1.247 . S
O33 Cd29 2.439 . S
O33 C34 1.208 . S
C34 O32 1.247 . S
C34 O33 1.208 . S
C35 O40 1.247 . S
C35 O41 1.208 . S
C36 O28 1.315 . S
C36 O31 1.279 . S
C37 O38 1.315 . S
C37 O39 1.279 . S
O38 Cd30 2.223 . S
O38 C37 1.315 . S
O39 Cd29 2.240 . S
O39 C37 1.279 . S
O40 Cd30 2.297 . S
O40 C35 1.247 . S
O41 Cd30 2.439 . S
O41 C35 1.208 . S
O42 Cd43 2.223 . S
O42 C50 1.315 . S
Cd43 O42 2.223 . S
Cd43 O46 2.297 . S
Cd43 O47 2.439 . S
Cd43 O53 2.240 . S
Cd44 O45 2.240 . S
Cd44 O52 2.223 . S
Cd44 O54 2.297 . S
Cd44 O55 2.439 . S
O45 Cd44 2.240 . S
O45 C50 1.279 . S
O46 Cd43 2.297 . S
O46 C48 1.247 . S
O47 Cd43 2.439 . S
O47 C48 1.208 . S
C48 O46 1.247 . S
C48 O47 1.208 . S
C49 O54 1.247 . S
C49 O55 1.208 . S
C50 O42 1.315 . S
C50 O45 1.279 . S
C51 O52 1.315 . S
C51 O53 1.279 . S
O52 Cd44 2.223 . S
O52 C51 1.315 . S
O53 Cd43 2.240 . S
O53 C51 1.279 . S
O54 Cd44 2.297 . S
O54 C49 1.247 . S
O55 Cd44 2.439 . S
O55 C49 1.208 . S
O56 Cd57 2.223 . S
O56 C64 1.315 . S
Cd57 O56 2.223 . S
Cd57 O60 2.297 . S
Cd57 O61 2.439 . S
Cd57 O67 2.240 . S
Cd58 O59 2.240 . S
Cd58 O66 2.223 . S
Cd58 O68 2.297 . S
Cd58 O69 2.439 . S
O59 Cd58 2.240 . S
O59 C64 1.279 . S
O60 Cd57 2.297 . S
O60 C62 1.247 . S
O61 Cd57 2.439 . S
O61 C62 1.208 . S
C62 O60 1.247 . S
C62 O61 1.208 . S
C63 O68 1.247 . S
C63 O69 1.208 . S
C64 O56 1.315 . S
C64 O59 1.279 . S
C65 O66 1.315 . S
C65 O67 1.279 . S
O66 Cd58 2.223 . S
O66 C65 1.315 . S
O67 Cd57 2.240 . S
O67 C65 1.279 . S
O68 Cd58 2.297 . S
O68 C63 1.247 . S
O69 Cd58 2.439 . S
O69 C63 1.208 . S
O70 Cd71 2.223 . S
O70 C78 1.315 . S
Cd71 O70 2.223 . S
Cd71 O74 2.297 . S
Cd71 O75 2.439 . S
Cd71 O81 2.240 . S
Cd72 O73 2.240 . S
Cd72 O80 2.223 . S
Cd72 O82 2.297 . S
Cd72 O83 2.439 . S
O73 Cd72 2.240 . S
O73 C78 1.279 . S
O74 Cd71 2.297 . S
O74 C76 1.247 . S
O75 Cd71 2.439 . S
O75 C76 1.208 . S
C76 O74 1.247 . S
C76 O75 1.208 . S
C77 O82 1.247 . S
C77 O83 1.208 . S
C78 O70 1.315 . S
C78 O73 1.279 . S
C79 O80 1.315 . S
C79 O81 1.279 . S
O80 Cd72 2.223 . S
O80 C79 1.315 . S
O81 Cd71 2.240 . S
O81 C79 1.279 . S
O82 Cd72 2.297 . S
O82 C77 1.247 . S
O83 Cd72 2.439 . S
O83 C77 1.208 . S
O84 Cd85 2.223 . S
O84 C92 1.315 . S
Cd85 O84 2.223 . S
Cd85 O88 2.297 . S
Cd85 O89 2.439 . S
Cd85 O95 2.240 . S
Cd86 O87 2.240 . S
Cd86 O94 2.223 . S
Cd86 O96 2.297 . S
Cd86 O97 2.439 . S
O87 Cd86 2.240 . S
O87 C92 1.279 . S
O88 Cd85 2.297 . S
O88 C90 1.247 . S
O89 Cd85 2.439 . S
O89 C90 1.208 . S
C90 O88 1.247 . S
C90 O89 1.208 . S
C91 O96 1.247 . S
C91 O97 1.208 . S
C92 O84 1.315 . S
C92 O87 1.279 . S
C93 O94 1.315 . S
C93 O95 1.279 . S
O94 Cd86 2.223 . S
O94 C93 1.315 . S
O95 Cd85 2.240 . S
O95 C93 1.279 . S
O96 Cd86 2.297 . S
O96 C91 1.247 . S
O97 Cd86 2.439 . S
O97 C91 1.208 . S
O98 Cd99 2.223 . S
O98 C106 1.315 . S
Cd99 O98 2.223 . S
Cd99 O102 2.297 . S
Cd99 O103 2.439 . S
Cd99 O109 2.240 . S
Cd100 O101 2.240 . S
Cd100 O108 2.223 . S
Cd100 O110 2.297 . S
Cd100 O111 2.439 . S
O101 Cd100 2.240 . S
O101 C106 1.279 . S
O102 Cd99 2.297 . S
O102 C104 1.247 . S
O103 Cd99 2.439 . S
O103 C104 1.208 . S
C104 O102 1.247 . S
C104 O103 1.208 . S
C105 O110 1.247 . S
C105 O111 1.208 . S
C106 O98 1.315 . S
C106 O101 1.279 . S
C107 O108 1.315 . S
C107 O109 1.279 . S
O108 Cd100 2.223 . S
O108 C107 1.315 . S
O109 Cd99 2.240 . S
O109 C107 1.279 . S
O110 Cd100 2.297 . S
O110 C105 1.247 . S
O111 Cd100 2.439 . S
O111 C105 1.208 . S
O112 Cd113 2.223 . S
O112 C120 1.315 . S
Cd113 O112 2.223 . S
Cd113 O116 2.297 . S
Cd113 O117 2.439 . S
Cd113 O123 2.240 . S
Cd114 O115 2.240 . S
Cd114 O122 2.223 . S
Cd114 O124 2.297 . S
Cd114 O125 2.439 . S
O115 Cd114 2.240 . S
O115 C120 1.279 . S
O116 Cd113 2.297 . S
O116 C118 1.247 . S
O117 Cd113 2.439 . S
O117 C118 1.208 . S
C118 O116 1.247 . S
C118 O117 1.208 . S
C119 O124 1.247 . S
C119 O125 1.208 . S
C120 O112 1.315 . S
C120 O115 1.279 . S
C121 O122 1.315 . S
C121 O123 1.279 . S
O122 Cd114 2.223 . S
O122 C121 1.315 . S
O123 Cd113 2.240 . S
O123 C121 1.279 . S
O124 Cd114 2.297 . S
O124 C119 1.247 . S
O125 Cd114 2.439 . S
O125 C119 1.208 . S
O126 Cd127 2.223 . S
O126 C134 1.315 . S
Cd127 O126 2.223 . S
Cd127 O130 2.297 . S
Cd127 O131 2.439 . S
Cd127 O137 2.240 . S
Cd128 O129 2.240 . S
Cd128 O136 2.223 . S
Cd128 O138 2.297 . S
Cd128 O139 2.439 . S
O129 Cd128 2.240 . S
O129 C134 1.279 . S
O130 Cd127 2.297 . S
O130 C132 1.247 . S
O131 Cd127 2.439 . S
O131 C132 1.208 . S
C132 O130 1.247 . S
C132 O131 1.208 . S
C133 O138 1.247 . S
C133 O139 1.208 . S
C134 O126 1.315 . S
C134 O129 1.279 . S
C135 O136 1.315 . S
C135 O137 1.279 . S
O136 Cd128 2.223 . S
O136 C135 1.315 . S
O137 Cd127 2.240 . S
O137 C135 1.279 . S
O138 Cd128 2.297 . S
O138 C133 1.247 . S
O139 Cd128 2.439 . S
O139 C133 1.208 . S
O140 Cd141 2.223 . S
O140 C148 1.315 . S
Cd141 O140 2.223 . S
Cd141 O144 2.297 . S
Cd141 O145 2.439 . S
Cd141 O151 2.240 . S
Cd142 O143 2.240 . S
Cd142 O150 2.223 . S
Cd142 O152 2.297 . S
Cd142 O153 2.439 . S
O143 Cd142 2.240 . S
O143 C148 1.279 . S
O144 Cd141 2.297 . S
O144 C146 1.247 . S
O145 Cd141 2.439 . S
O145 C146 1.208 . S
C146 O144 1.247 . S
C146 O145 1.208 . S
C147 O152 1.247 . S
C147 O153 1.208 . S
C148 O140 1.315 . S
C148 O143 1.279 . S
C149 O150 1.315 . S
C149 O151 1.279 . S
O150 Cd142 2.223 . S
O150 C149 1.315 . S
O151 Cd141 2.240 . S
O151 C149 1.279 . S
O152 Cd142 2.297 . S
O152 C147 1.247 . S
O153 Cd142 2.439 . S
O153 C147 1.208 . S
O154 Cd155 2.223 . S
O154 C162 1.315 . S
Cd155 O154 2.223 . S
Cd155 O158 2.297 . S
Cd155 O159 2.439 . S
Cd155 O165 2.240 . S
Cd156 O157 2.240 . S
Cd156 O164 2.223 . S
Cd156 O166 2.297 . S
Cd156 O167 2.439 . S
O157 Cd156 2.240 . S
O157 C162 1.279 . S
O158 Cd155 2.297 . S
O158 C160 1.247 . S
O159 Cd155 2.439 . S
O159 C160 1.208 . S
C160 O158 1.247 . S
C160 O159 1.208 . S
C161 O166 1.247 . S
C161 O167 1.208 . S
C162 O154 1.315 . S
C162 O157 1.279 . S
C163 O164 1.315 . S
C163 O165 1.279 . S
O164 Cd156 2.223 . S
O164 C163 1.315 . S
O165 Cd155 2.240 . S
O165 C163 1.279 . S
O166 Cd156 2.297 . S
O166 C161 1.247 . S
O167 Cd156 2.439 . S
O167 C161 1.208 . S
O168 Cd169 2.223 . S
O168 C176 1.315 . S
Cd169 O168 2.223 . S
Cd169 O172 2.297 . S
Cd169 O173 2.439 . S
Cd169 O179 2.240 . S
Cd170 O171 2.240 . S
Cd170 O178 2.223 . S
Cd170 O180 2.297 . S
Cd170 O181 2.439 . S
O171 Cd170 2.240 . S
O171 C176 1.279 . S
O172 Cd169 2.297 . S
O172 C174 1.247 . S
O173 Cd169 2.439 . S
O173 C174 1.208 . S
C174 O172 1.247 . S
C174 O173 1.208 . S
C175 O180 1.247 . S
C175 O181 1.208 . S
C176 O168 1.315 . S
C176 O171 1.279 . S
C177 O178 1.315 . S
C177 O179 1.279 . S
O178 Cd170 2.223 . S
O178 C177 1.315 . S
O179 Cd169 2.240 . S
O179 C177 1.279 . S
O180 Cd170 2.297 . S
O180 C175 1.247 . S
O181 Cd170 2.439 . S
O181 C175 1.208 . S
O182 Cd183 2.223 . S
O182 C190 1.315 . S
Cd183 O182 2.223 . S
Cd183 O186 2.297 . S
Cd183 O187 2.439 . S
Cd183 O193 2.240 . S
Cd184 O185 2.240 . S
Cd184 O192 2.223 . S
Cd184 O194 2.297 . S
Cd184 O195 2.439 . S
O185 Cd184 2.240 . S
O185 C190 1.279 . S
O186 Cd183 2.297 . S
O186 C188 1.247 . S
O187 Cd183 2.439 . S
O187 C188 1.208 . S
C188 O186 1.247 . S
C188 O187 1.208 . S
C189 O194 1.247 . S
C189 O195 1.208 . S
C190 O182 1.315 . S
C190 O185 1.279 . S
C191 O192 1.315 . S
C191 O193 1.279 . S
O192 Cd184 2.223 . S
O192 C191 1.315 . S
O193 Cd183 2.240 . S
O193 C191 1.279 . S
O194 Cd184 2.297 . S
O194 C189 1.247 . S
O195 Cd184 2.439 . S
O195 C189 1.208 . S
O196 Cd197 2.223 . S
O196 C204 1.315 . S
Cd197 O196 2.223 . S
Cd197 O200 2.297 . S
Cd197 O201 2.439 . S
Cd197 O207 2.240 . S
Cd198 O199 2.240 . S
Cd198 O206 2.223 . S
Cd198 O208 2.297 . S
Cd198 O209 2.439 . S
O199 Cd198 2.240 . S
O199 C204 1.279 . S
O200 Cd197 2.297 . S
O200 C202 1.247 . S
O201 Cd197 2.439 . S
O201 C202 1.208 . S
C202 O200 1.247 . S
C202 O201 1.208 . S
C203 O208 1.247 . S
C203 O209 1.208 . S
C204 O196 1.315 . S
C204 O199 1.279 . S
C205 O206 1.315 . S
C205 O207 1.279 . S
O206 Cd198 2.223 . S
O206 C205 1.315 . S
O207 Cd197 2.240 . S
O207 C205 1.279 . S
O208 Cd198 2.297 . S
O208 C203 1.247 . S
O209 Cd198 2.439 . S
O209 C203 1.208 . S
O210 Cd211 2.223 . S
O210 C218 1.315 . S
Cd211 O210 2.223 . S
Cd211 O214 2.297 . S
Cd211 O215 2.439 . S
Cd211 O221 2.240 . S
Cd212 O213 2.240 . S
Cd212 O220 2.223 . S
Cd212 O222 2.297 . S
Cd212 O223 2.439 . S
O213 Cd212 2.240 . S
O213 C218 1.279 . S
O214 Cd211 2.297 . S
O214 C216 1.247 . S
O215 Cd211 2.439 . S
O215 C216 1.208 . S
C216 O214 1.247 . S
C216 O215 1.208 . S
C217 O222 1.247 . S
C217 O223 1.208 . S
C218 O210 1.315 . S
C218 O213 1.279 . S
C219 O220 1.315 . S
C219 O221 1.279 . S
O220 Cd212 2.223 . S
O220 C219 1.315 . S
O221 Cd211 2.240 . S
O221 C219 1.279 . S
O222 Cd212 2.297 . S
O222 C217 1.247 . S
O223 Cd212 2.439 . S
O223 C217 1.208 . S
H224 C230 0.930 . S
H225 C233 0.930 . S
H226 C234 0.930 . S
H227 C235 0.930 . S
H228 C238 0.930 . S
H229 C239 0.930 . S
C230 H224 0.930 . S
C230 C231 1.355 . S
C230 C232 1.415 . S
C231 C230 1.355 . S
C231 C233 1.419 . S
C232 C230 1.415 . S
C232 C237 1.425 . S
C232 C239 1.409 . S
C233 H225 0.930 . S
C233 C231 1.419 . S
C233 C234 1.362 . S
C234 H226 0.930 . S
C234 C233 1.362 . S
C234 C237 1.409 . S
C235 H227 0.930 . S
C235 C236 1.355 . S
C235 C237 1.415 . S
C236 C235 1.355 . S
C236 C238 1.419 . S
C237 C232 1.425 . S
C237 C234 1.409 . S
C237 C235 1.415 . S
C238 H228 0.930 . S
C238 C236 1.419 . S
C238 C239 1.362 . S
C239 H229 0.930 . S
C239 C232 1.409 . S
C239 C238 1.362 . S
H240 C246 0.930 . S
H241 C249 0.930 . S
H242 C250 0.930 . S
H243 C251 0.930 . S
H244 C254 0.930 . S
H245 C255 0.930 . S
C246 H240 0.930 . S
C246 C247 1.355 . S
C246 C248 1.415 . S
C247 C246 1.355 . S
C247 C249 1.419 1_565 S
C248 C246 1.415 . S
C248 C253 1.425 1_665 S
C248 C255 1.409 . S
C249 H241 0.930 . S
C249 C247 1.419 1_545 S
C249 C250 1.362 1_655 S
C250 H242 0.930 . S
C250 C249 1.362 1_455 S
C250 C253 1.409 . S
C251 H243 0.930 . S
C251 C252 1.355 . S
C251 C253 1.415 . S
C252 C251 1.355 . S
C252 C254 1.419 1_545 S
C253 C248 1.425 1_445 S
C253 C250 1.409 . S
C253 C251 1.415 . S
C254 H244 0.930 . S
C254 C252 1.419 1_565 S
C254 C255 1.362 1_455 S
C255 H245 0.930 . S
C255 C248 1.409 . S
C255 C254 1.362 1_655 S
H256 C262 0.930 . S
H257 C265 0.930 . S
H258 C266 0.930 . S
H259 C267 0.930 . S
H260 C270 0.930 . S
H261 C271 0.930 . S
C262 H256 0.930 . S
C262 C263 1.355 1_545 S
C262 C264 1.415 . S
C263 C262 1.355 1_565 S
C263 C265 1.419 . S
C264 C262 1.415 . S
C264 C269 1.425 1_545 S
C264 C271 1.409 . S
C265 H257 0.930 . S
C265 C263 1.419 . S
C265 C266 1.362 . S
C266 H258 0.930 . S
C266 C265 1.362 . S
C266 C269 1.409 . S
C267 H259 0.930 . S
C267 C268 1.355 1_565 S
C267 C269 1.415 . S
C268 C267 1.355 1_545 S
C268 C270 1.419 . S
C269 C264 1.425 1_565 S
C269 C266 1.409 . S
C269 C267 1.415 . S
C270 H260 0.930 . S
C270 C268 1.419 . S
C270 C271 1.362 . S
C271 H261 0.930 . S
C271 C264 1.409 . S
C271 C270 1.362 . S
H272 C278 0.930 . S
H273 C281 0.930 . S
H274 C282 0.930 . S
H275 C283 0.930 . S
H276 C286 0.930 . S
H277 C287 0.930 . S
C278 H272 0.930 . S
C278 C279 1.355 . S
C278 C280 1.415 . S
C279 C278 1.355 . S
C279 C281 1.419 . S
C280 C278 1.415 . S
C280 C285 1.425 1_455 S
C280 C287 1.409 . S
C281 H273 0.930 . S
C281 C279 1.419 . S
C281 C282 1.362 1_455 S
C282 H274 0.930 . S
C282 C281 1.362 1_655 S
C282 C285 1.409 . S
C283 H275 0.930 . S
C283 C284 1.355 . S
C283 C285 1.415 . S
C284 C283 1.355 . S
C284 C286 1.419 . S
C285 C280 1.425 1_655 S
C285 C282 1.409 . S
C285 C283 1.415 . S
C286 H276 0.930 . S
C286 C284 1.419 . S
C286 C287 1.362 1_655 S
C287 H277 0.930 . S
C287 C280 1.409 . S
C287 C286 1.362 1_455 S
H288 C294 0.930 . S
H289 C297 0.930 . S
H290 C298 0.930 . S
H291 C299 0.930 . S
H292 C302 0.930 . S
H293 C303 0.930 . S
C294 H288 0.930 . S
C294 C295 1.355 . S
C294 C296 1.415 . S
C295 C294 1.355 . S
C295 C297 1.419 . S
C296 C294 1.415 . S
C296 C301 1.425 . S
C296 C303 1.409 . S
C297 H289 0.930 . S
C297 C295 1.419 . S
C297 C298 1.362 . S
C298 H290 0.930 . S
C298 C297 1.362 . S
C298 C301 1.409 . S
C299 H291 0.930 . S
C299 C300 1.355 . S
C299 C301 1.415 . S
C300 C299 1.355 . S
C300 C302 1.419 . S
C301 C296 1.425 . S
C301 C298 1.409 . S
C301 C299 1.415 . S
C302 H292 0.930 . S
C302 C300 1.419 . S
C302 C303 1.362 . S
C303 H293 0.930 . S
C303 C296 1.409 . S
C303 C302 1.362 . S
H304 C310 0.930 . S
H305 C313 0.930 . S
H306 C314 0.930 . S
H307 C315 0.930 . S
H308 C318 0.930 . S
H309 C319 0.930 . S
C310 H304 0.930 . S
C310 C311 1.355 . S
C310 C312 1.415 . S
C311 C310 1.355 . S
C311 C313 1.419 1_545 S
C312 C310 1.415 . S
C312 C317 1.425 1_545 S
C312 C319 1.409 . S
C313 H305 0.930 . S
C313 C311 1.419 1_565 S
C313 C314 1.362 . S
C314 H306 0.930 . S
C314 C313 1.362 . S
C314 C317 1.409 . S
C315 H307 0.930 . S
C315 C316 1.355 . S
C315 C317 1.415 . S
C316 C315 1.355 . S
C316 C318 1.419 1_565 S
C317 C312 1.425 1_565 S
C317 C314 1.409 . S
C317 C315 1.415 . S
C318 H308 0.930 . S
C318 C316 1.419 1_545 S
C318 C319 1.362 . S
C319 H309 0.930 . S
C319 C312 1.409 . S
C319 C318 1.362 . S
H320 C326 0.930 . S
H321 C329 0.930 . S
H322 C330 0.930 . S
H323 C331 0.930 . S
H324 C334 0.930 . S
H325 C335 0.930 . S
C326 H320 0.930 . S
C326 C327 1.355 . S
C326 C328 1.415 . S
C327 C326 1.355 . S
C327 C329 1.419 . S
C328 C326 1.415 . S
C328 C333 1.425 1_655 S
C328 C335 1.409 1_655 S
C329 H321 0.930 . S
C329 C327 1.419 . S
C329 C330 1.362 . S
C330 H322 0.930 . S
C330 C329 1.362 . S
C330 C333 1.409 1_655 S
C331 H323 0.930 . S
C331 C332 1.355 . S
C331 C333 1.415 . S
C332 C331 1.355 . S
C332 C334 1.419 . S
C333 C328 1.425 1_455 S
C333 C330 1.409 1_455 S
C333 C331 1.415 . S
C334 H324 0.930 . S
C334 C332 1.419 . S
C334 C335 1.362 . S
C335 H325 0.930 . S
C335 C328 1.409 1_455 S
C335 C334 1.362 . S
H336 C342 0.930 . S
H337 C345 0.944 . S
H338 C346 0.930 . S
H339 C347 0.930 . S
H340 C350 0.944 . S
H341 C351 0.930 . S
C342 H336 0.930 . S
C342 C343 1.355 . S
C342 C344 1.415 . S
C343 C342 1.355 . S
C343 C345 1.371 1_554 S
C344 C342 1.415 . S
C344 C349 1.425 1_554 S
C344 C351 1.409 . S
C345 H337 0.944 . S
C345 C343 1.371 1_556 S
C345 C346 1.398 . S
C346 H338 0.930 . S
C346 C345 1.398 . S
C346 C349 1.409 . S
C347 H339 0.930 . S
C347 C348 1.355 . S
C347 C349 1.415 . S
C348 C347 1.355 . S
C348 C350 1.371 1_556 S
C349 C344 1.425 1_556 S
C349 C346 1.409 . S
C349 C347 1.415 . S
C350 H340 0.944 . S
C350 C348 1.371 1_554 S
C350 C351 1.398 . S
C351 H341 0.930 . S
C351 C344 1.409 . S
C351 C350 1.398 . S
H352 C358 0.930 . S
H353 C361 0.930 . S
H354 C362 0.930 . S
H355 C363 0.930 . S
H356 C366 0.930 . S
H357 C367 0.930 . S
C358 H352 0.930 . S
C358 C359 1.355 . S
C358 C360 1.415 1_455 S
C359 C358 1.355 . S
C359 C361 1.419 . S
C360 C358 1.415 1_655 S
C360 C365 1.425 1_656 S
C360 C367 1.409 . S
C361 H353 0.930 . S
C361 C359 1.419 . S
C361 C362 1.362 1_556 S
C362 H354 0.930 . S
C362 C361 1.362 1_554 S
C362 C365 1.409 . S
C363 H355 0.930 . S
C363 C364 1.355 . S
C363 C365 1.415 1_655 S
C364 C363 1.355 . S
C364 C366 1.419 . S
C365 C360 1.425 1_454 S
C365 C362 1.409 . S
C365 C363 1.415 1_455 S
C366 H356 0.930 . S
C366 C364 1.419 . S
C366 C367 1.362 1_554 S
C367 H357 0.930 . S
C367 C360 1.409 . S
C367 C366 1.362 1_556 S
H368 C374 0.930 . S
H369 C377 0.930 . S
H370 C378 0.930 . S
H371 C379 0.930 . S
H372 C382 0.930 . S
H373 C383 0.930 . S
C374 H368 0.930 . S
C374 C375 1.355 . S
C374 C376 1.415 . S
C375 C374 1.355 . S
C375 C377 1.419 . S
C376 C374 1.415 . S
C376 C381 1.425 . S
C376 C383 1.409 . S
C377 H369 0.930 . S
C377 C375 1.419 . S
C377 C378 1.362 . S
C378 H370 0.930 . S
C378 C377 1.362 . S
C378 C381 1.409 . S
C379 H371 0.930 . S
C379 C380 1.355 . S
C379 C381 1.415 . S
C380 C379 1.355 . S
C380 C382 1.419 . S
C381 C376 1.425 . S
C381 C378 1.409 . S
C381 C379 1.415 . S
C382 H372 0.930 . S
C382 C380 1.419 . S
C382 C383 1.362 . S
C383 H373 0.930 . S
C383 C376 1.409 . S
C383 C382 1.362 . S
H384 C390 0.930 . S
H385 C393 0.940 . S
H386 C394 0.930 . S
H387 C395 0.930 . S
H388 C398 0.940 . S
H389 C399 0.930 . S
C390 H384 0.930 . S
C390 C391 1.355 . S
C390 C392 1.415 . S
C391 C390 1.355 . S
C391 C393 1.384 1_556 S
C392 C390 1.415 . S
C392 C397 1.425 1_556 S
C392 C399 1.409 . S
C393 H385 0.940 . S
C393 C391 1.384 1_554 S
C393 C394 1.388 . S
C394 H386 0.930 . S
C394 C393 1.388 . S
C394 C397 1.409 . S
C395 H387 0.930 . S
C395 C396 1.355 . S
C395 C397 1.415 . S
C396 C395 1.355 . S
C396 C398 1.384 1_554 S
C397 C392 1.425 1_554 S
C397 C394 1.409 . S
C397 C395 1.415 . S
C398 H388 0.940 . S
C398 C396 1.384 1_556 S
C398 C399 1.388 . S
C399 H389 0.930 . S
C399 C392 1.409 . S
C399 C398 1.388 . S
H400 C406 0.930 . S
H401 C409 0.930 . S
H402 C410 0.930 . S
H403 C411 0.930 . S
H404 C414 0.930 . S
H405 C415 0.930 . S
C406 H400 0.930 . S
C406 C407 1.355 . S
C406 C408 1.415 . S
C407 C406 1.355 . S
C407 C409 1.419 . S
C408 C406 1.415 . S
C408 C413 1.425 . S
C408 C415 1.409 . S
C409 H401 0.930 . S
C409 C407 1.419 . S
C409 C410 1.362 . S
C410 H402 0.930 . S
C410 C409 1.362 . S
C410 C413 1.409 . S
C411 H403 0.930 . S
C411 C412 1.355 . S
C411 C413 1.415 . S
C412 C411 1.355 . S
C412 C414 1.419 . S
C413 C408 1.425 . S
C413 C410 1.409 . S
C413 C411 1.415 . S
C414 H404 0.930 . S
C414 C412 1.419 . S
C414 C415 1.362 . S
C415 H405 0.930 . S
C415 C408 1.409 . S
C415 C414 1.362 . S
H416 C422 0.930 . S
H417 C425 0.925 1_554 S
H418 C426 0.930 . S
H419 C427 0.930 . S
H420 C430 0.925 1_556 S
H421 C431 0.930 . S
C422 H416 0.930 . S
C422 C423 1.355 . S
C422 C424 1.415 . S
C423 C422 1.355 . S
C423 C425 1.446 . S
C424 C422 1.415 . S
C424 C429 1.425 1_546 S
C424 C431 1.409 . S
C425 H417 0.925 1_556 S
C425 C423 1.446 . S
C425 C426 1.342 1_546 S
C426 H418 0.930 . S
C426 C425 1.342 1_564 S
C426 C429 1.409 . S
C427 H419 0.930 . S
C427 C428 1.355 . S
C427 C429 1.415 . S
C428 C427 1.355 . S
C428 C430 1.446 . S
C429 C424 1.425 1_564 S
C429 C426 1.409 . S
C429 C427 1.415 . S
C430 H420 0.925 1_554 S
C430 C428 1.446 . S
C430 C431 1.342 1_564 S
C431 H421 0.930 . S
C431 C424 1.409 . S
C431 C430 1.342 1_546 S
H432 C438 0.930 . S
H433 C441 0.930 . S
H434 C442 0.930 . S
H435 C443 0.930 . S
H436 C446 0.930 . S
H437 C447 0.930 . S
C438 H432 0.930 . S
C438 C439 1.355 . S
C438 C440 1.415 . S
C439 C438 1.355 . S
C439 C441 1.419 . S
C440 C438 1.415 . S
C440 C445 1.425 . S
C440 C447 1.409 . S
C441 H433 0.930 . S
C441 C439 1.419 . S
C441 C442 1.362 . S
C442 H434 0.930 . S
C442 C441 1.362 . S
C442 C445 1.409 . S
C443 H435 0.930 . S
C443 C444 1.355 . S
C443 C445 1.415 . S
C444 C443 1.355 . S
C444 C446 1.419 . S
C445 C440 1.425 . S
C445 C442 1.409 . S
C445 C443 1.415 . S
C446 H436 0.930 . S
C446 C444 1.419 . S
C446 C447 1.362 . S
C447 H437 0.930 . S
C447 C440 1.409 . S
C447 C446 1.362 . S
H448 C454 0.930 . S
H449 C457 0.930 . S
H450 C458 0.930 . S
H451 C459 0.930 . S
H452 C462 0.930 . S
H453 C463 0.930 . S
C454 H448 0.930 . S
C454 C455 1.355 . S
C454 C456 1.415 . S
C455 C454 1.355 . S
C455 C457 1.419 . S
C456 C454 1.415 . S
C456 C461 1.425 . S
C456 C463 1.409 . S
C457 H449 0.930 . S
C457 C455 1.419 . S
C457 C458 1.362 . S
C458 H450 0.930 . S
C458 C457 1.362 . S
C458 C461 1.409 . S
C459 H451 0.930 . S
C459 C460 1.355 . S
C459 C461 1.415 . S
C460 C459 1.355 . S
C460 C462 1.419 . S
C461 C456 1.425 . S
C461 C458 1.409 . S
C461 C459 1.415 . S
C462 H452 0.930 . S
C462 C460 1.419 . S
C462 C463 1.362 . S
C463 H453 0.930 . S
C463 C456 1.409 . S
C463 C462 1.362 . S
H464 C470 0.930 . S
H465 C473 0.930 . S
H466 C474 0.930 . S
H467 C475 0.930 . S
H468 C478 0.930 . S
H469 C479 0.930 . S
C470 H464 0.930 . S
C470 C471 1.355 . S
C470 C472 1.415 . S
C471 C470 1.355 . S
C471 C473 1.419 . S
C472 C470 1.415 . S
C472 C477 1.425 . S
C472 C479 1.409 . S
C473 H465 0.930 . S
C473 C471 1.419 . S
C473 C474 1.362 . S
C474 H466 0.930 . S
C474 C473 1.362 . S
C474 C477 1.409 . S
C475 H467 0.930 . S
C475 C476 1.355 . S
C475 C477 1.415 . S
C476 C475 1.355 . S
C476 C478 1.419 . S
C477 C472 1.425 . S
C477 C474 1.409 . S
C477 C475 1.415 . S
C478 H468 0.930 . S
C478 C476 1.419 . S
C478 C479 1.362 . S
C479 H469 0.930 . S
C479 C472 1.409 . S
C479 C478 1.362 . S
H480 C486 0.930 . S
H481 C489 0.930 . S
H482 C490 0.930 . S
H483 C491 0.930 . S
H484 C494 0.930 1_545 S
H485 C495 0.930 . S
C486 H480 0.930 . S
C486 C487 1.355 . S
C486 C488 1.415 . S
C487 C486 1.355 . S
C487 C489 1.419 . S
C488 C486 1.415 . S
C488 C493 1.425 . S
C488 C495 1.409 . S
C489 H481 0.930 . S
C489 C487 1.419 . S
C489 C490 1.362 . S
C490 H482 0.930 . S
C490 C489 1.362 . S
C490 C493 1.409 . S
C491 H483 0.930 . S
C491 C492 1.355 . S
C491 C493 1.415 . S
C492 C491 1.355 . S
C492 C494 1.419 . S
C493 C488 1.425 . S
C493 C490 1.409 . S
C493 C491 1.415 . S
C494 H484 0.930 1_565 S
C494 C492 1.419 . S
C494 C495 1.362 . S
C495 H485 0.930 . S
C495 C488 1.409 . S
C495 C494 1.362 . S
H496 C502 0.930 . S
H497 C505 0.930 . S
H498 C506 0.930 . S
H499 C507 0.930 . S
H500 C510 0.930 . S
H501 C511 0.930 . S
C502 H496 0.930 . S
C502 C503 1.355 . S
C502 C504 1.415 . S
C503 C502 1.355 . S
C503 C505 1.419 . S
C504 C502 1.415 . S
C504 C509 1.425 . S
C504 C511 1.409 . S
C505 H497 0.930 . S
C505 C503 1.419 . S
C505 C506 1.362 . S
C506 H498 0.930 . S
C506 C505 1.362 . S
C506 C509 1.409 . S
C507 H499 0.930 . S
C507 C508 1.355 . S
C507 C509 1.415 . S
C508 C507 1.355 . S
C508 C510 1.419 . S
C509 C504 1.425 . S
C509 C506 1.409 . S
C509 C507 1.415 . S
C510 H500 0.930 . S
C510 C508 1.419 . S
C510 C511 1.362 . S
C511 H501 0.930 . S
C511 C504 1.409 . S
C511 C510 1.362 . S
H512 C518 0.930 . S
H513 C521 0.930 . S
H514 C522 0.930 . S
H515 C523 0.930 . S
H516 C526 0.930 . S
H517 C527 0.930 . S
C518 H512 0.930 . S
C518 C519 1.355 . S
C518 C520 1.415 . S
C519 C518 1.355 . S
C519 C521 1.419 . S
C520 C518 1.415 . S
C520 C525 1.425 . S
C520 C527 1.409 . S
C521 H513 0.930 . S
C521 C519 1.419 . S
C521 C522 1.362 . S
C522 H514 0.930 . S
C522 C521 1.362 . S
C522 C525 1.409 . S
C523 H515 0.930 . S
C523 C524 1.355 . S
C523 C525 1.415 . S
C524 C523 1.355 . S
C524 C526 1.419 . S
C525 C520 1.425 . S
C525 C522 1.409 . S
C525 C523 1.415 . S
C526 H516 0.930 . S
C526 C524 1.419 . S
C526 C527 1.362 . S
C527 H517 0.930 . S
C527 C520 1.409 . S
C527 C526 1.362 . S
H528 C534 0.930 . S
H529 C537 0.930 . S
H530 C538 0.930 . S
H531 C539 0.930 . S
H532 C542 0.930 . S
H533 C543 0.930 . S
C534 H528 0.930 . S
C534 C535 1.355 . S
C534 C536 1.415 . S
C535 C534 1.355 . S
C535 C537 1.419 . S
C536 C534 1.415 . S
C536 C541 1.425 . S
C536 C543 1.409 . S
C537 H529 0.930 . S
C537 C535 1.419 . S
C537 C538 1.362 . S
C538 H530 0.930 . S
C538 C537 1.362 . S
C538 C541 1.409 . S
C539 H531 0.930 . S
C539 C540 1.355 . S
C539 C541 1.415 . S
C540 C539 1.355 . S
C540 C542 1.419 . S
C541 C536 1.425 . S
C541 C538 1.409 . S
C541 C539 1.415 . S
C542 H532 0.930 . S
C542 C540 1.419 . S
C542 C543 1.362 . S
C543 H533 0.930 . S
C543 C536 1.409 . S
C543 C542 1.362 . S
H544 C550 0.930 . S
H545 C553 0.930 . S
H546 C554 0.930 . S
H547 C555 0.930 . S
H548 C558 0.930 . S
H549 C559 0.930 . S
C550 H544 0.930 . S
C550 C551 1.355 . S
C550 C552 1.415 . S
C551 C550 1.355 . S
C551 C553 1.419 . S
C552 C550 1.415 . S
C552 C557 1.425 . S
C552 C559 1.409 . S
C553 H545 0.930 . S
C553 C551 1.419 . S
C553 C554 1.362 . S
C554 H546 0.930 . S
C554 C553 1.362 . S
C554 C557 1.409 . S
C555 H547 0.930 . S
C555 C556 1.355 . S
C555 C557 1.415 . S
C556 C555 1.355 . S
C556 C558 1.419 1_545 S
C557 C552 1.425 . S
C557 C554 1.409 . S
C557 C555 1.415 . S
C558 H548 0.930 . S
C558 C556 1.419 1_565 S
C558 C559 1.362 1_565 S
C559 H549 0.930 . S
C559 C552 1.409 . S
C559 C558 1.362 1_545 S
H560 C566 0.930 . S
H561 C569 0.930 . S
H562 C570 0.930 . S
H563 C571 0.930 . S
H564 C574 0.930 . S
H565 C575 0.930 . S
C566 H560 0.930 . S
C566 C567 1.355 . S
C566 C568 1.415 . S
C567 C566 1.355 . S
C567 C569 1.419 . S
C568 C566 1.415 . S
C568 C573 1.425 . S
C568 C575 1.409 . S
C569 H561 0.930 . S
C569 C567 1.419 . S
C569 C570 1.362 . S
C570 H562 0.930 . S
C570 C569 1.362 . S
C570 C573 1.409 . S
C571 H563 0.930 . S
C571 C572 1.355 . S
C571 C573 1.415 . S
C572 C571 1.355 . S
C572 C574 1.419 . S
C573 C568 1.425 . S
C573 C570 1.409 . S
C573 C571 1.415 . S
C574 H564 0.930 . S
C574 C572 1.419 . S
C574 C575 1.362 . S
C575 H565 0.930 . S
C575 C568 1.409 . S
C575 C574 1.362 . S
H576 C582 0.930 . S
H577 C585 0.930 . S
H578 C586 0.930 . S
H579 C587 0.930 . S
H580 C590 0.930 . S
H581 C591 0.930 . S
C582 H576 0.930 . S
C582 C583 1.355 . S
C582 C584 1.415 . S
C583 C582 1.355 . S
C583 C585 1.419 . S
C584 C582 1.415 . S
C584 C589 1.425 . S
C584 C591 1.409 . S
C585 H577 0.930 . S
C585 C583 1.419 . S
C585 C586 1.362 . S
C586 H578 0.930 . S
C586 C585 1.362 . S
C586 C589 1.409 . S
C587 H579 0.930 . S
C587 C588 1.355 . S
C587 C589 1.415 . S
C588 C587 1.355 . S
C588 C590 1.419 . S
C589 C584 1.425 . S
C589 C586 1.409 . S
C589 C587 1.415 . S
C590 H580 0.930 . S
C590 C588 1.419 . S
C590 C591 1.362 . S
C591 H581 0.930 . S
C591 C584 1.409 . S
C591 C590 1.362 . S
H592 C598 0.930 . S
H593 C601 0.930 . S
H594 C602 0.930 . S
H595 C603 0.930 . S
H596 C606 0.930 . S
H597 C607 0.930 . S
C598 H592 0.930 . S
C598 C599 1.355 . S
C598 C600 1.415 . S
C599 C598 1.355 . S
C599 C601 1.419 1_545 S
C600 C598 1.415 . S
C600 C605 1.425 . S
C600 C607 1.409 . S
C601 H593 0.930 . S
C601 C599 1.419 1_565 S
C601 C602 1.362 1_565 S
C602 H594 0.930 . S
C602 C601 1.362 1_545 S
C602 C605 1.409 . S
C603 H595 0.930 . S
C603 C604 1.355 . S
C603 C605 1.415 . S
C604 C603 1.355 . S
C604 C606 1.419 . S
C605 C600 1.425 . S
C605 C602 1.409 . S
C605 C603 1.415 . S
C606 H596 0.930 . S
C606 C604 1.419 . S
C606 C607 1.362 . S
C607 H597 0.930 . S
C607 C600 1.409 . S
C607 C606 1.362 . S
H608 C614 0.930 . S
H609 C617 0.930 . S
H610 C618 0.930 . S
H611 C619 0.930 . S
H612 C622 0.930 1_545 S
H613 C623 0.930 . S
C614 H608 0.930 . S
C614 C615 1.355 . S
C614 C616 1.415 . S
C615 C614 1.355 . S
C615 C617 1.419 . S
C616 C614 1.415 . S
C616 C621 1.425 . S
C616 C623 1.409 . S
C617 H609 0.930 . S
C617 C615 1.419 . S
C617 C618 1.362 . S
C618 H610 0.930 . S
C618 C617 1.362 . S
C618 C621 1.409 . S
C619 H611 0.930 . S
C619 C620 1.355 . S
C619 C621 1.415 . S
C620 C619 1.355 . S
C620 C622 1.419 . S
C621 C616 1.425 . S
C621 C618 1.409 . S
C621 C619 1.415 . S
C622 H612 0.930 1_565 S
C622 C620 1.419 . S
C622 C623 1.362 . S
C623 H613 0.930 . S
C623 C616 1.409 . S
C623 C622 1.362 . S
H624 C630 0.930 . S
H625 C633 0.930 . S
H626 C634 0.930 . S
H627 C635 0.930 . S
H628 C638 0.930 . S
H629 C639 0.930 . S
C630 H624 0.930 . S
C630 C631 1.355 . S
C630 C632 1.415 . S
C631 C630 1.355 . S
C631 C633 1.419 . S
C632 C630 1.415 . S
C632 C637 1.425 . S
C632 C639 1.409 . S
C633 H625 0.930 . S
C633 C631 1.419 . S
C633 C634 1.362 . S
C634 H626 0.930 . S
C634 C633 1.362 . S
C634 C637 1.409 . S
C635 H627 0.930 . S
C635 C636 1.355 . S
C635 C637 1.415 . S
C636 C635 1.355 . S
C636 C638 1.419 . S
C637 C632 1.425 . S
C637 C634 1.409 . S
C637 C635 1.415 . S
C638 H628 0.930 . S
C638 C636 1.419 . S
C638 C639 1.362 . S
C639 H629 0.930 . S
C639 C632 1.409 . S
C639 C638 1.362 . S
H640 C646 0.930 . S
H641 C649 0.930 . S
H642 C650 0.930 . S
H643 C651 0.930 . S
H644 C654 0.930 . S
H645 C655 0.930 . S
C646 H640 0.930 . S
C646 C647 1.355 . S
C646 C648 1.415 . S
C647 C646 1.355 . S
C647 C649 1.419 . S
C648 C646 1.415 . S
C648 C653 1.425 . S
C648 C655 1.409 . S
C649 H641 0.930 . S
C649 C647 1.419 . S
C649 C650 1.362 . S
C650 H642 0.930 . S
C650 C649 1.362 . S
C650 C653 1.409 . S
C651 H643 0.930 . S
C651 C652 1.355 . S
C651 C653 1.415 . S
C652 C651 1.355 . S
C652 C654 1.419 . S
C653 C648 1.425 . S
C653 C650 1.409 . S
C653 C651 1.415 . S
C654 H644 0.930 . S
C654 C652 1.419 . S
C654 C655 1.362 . S
C655 H645 0.930 . S
C655 C648 1.409 . S
C655 C654 1.362 . S
H656 C662 0.930 . S
H657 C665 0.930 . S
H658 C666 0.930 . S
H659 C667 0.930 . S
H660 C670 0.930 1_545 S
H661 C671 0.930 . S
C662 H656 0.930 . S
C662 C663 1.355 . S
C662 C664 1.415 . S
C663 C662 1.355 . S
C663 C665 1.419 . S
C664 C662 1.415 . S
C664 C669 1.425 . S
C664 C671 1.409 . S
C665 H657 0.930 . S
C665 C663 1.419 . S
C665 C666 1.362 . S
C666 H658 0.930 . S
C666 C665 1.362 . S
C666 C669 1.409 . S
C667 H659 0.930 . S
C667 C668 1.355 . S
C667 C669 1.415 . S
C668 C667 1.355 . S
C668 C670 1.419 . S
C669 C664 1.425 . S
C669 C666 1.409 . S
C669 C667 1.415 . S
C670 H660 0.930 1_565 S
C670 C668 1.419 . S
C670 C671 1.362 . S
C671 H661 0.930 . S
C671 C664 1.409 . S
C671 C670 1.362 . S
H672 C678 0.930 . S
H673 C681 0.930 . S
H674 C682 0.930 . S
H675 C683 0.930 . S
H676 C686 0.930 1_565 S
H677 C687 0.930 . S
C678 H672 0.930 . S
C678 C679 1.355 . S
C678 C680 1.415 . S
C679 C678 1.355 . S
C679 C681 1.419 . S
C680 C678 1.415 . S
C680 C685 1.425 . S
C680 C687 1.409 . S
C681 H673 0.930 . S
C681 C679 1.419 . S
C681 C682 1.362 . S
C682 H674 0.930 . S
C682 C681 1.362 . S
C682 C685 1.409 . S
C683 H675 0.930 . S
C683 C684 1.355 . S
C683 C685 1.415 . S
C684 C683 1.355 . S
C684 C686 1.419 . S
C685 C680 1.425 . S
C685 C682 1.409 . S
C685 C683 1.415 . S
C686 H676 0.930 1_545 S
C686 C684 1.419 . S
C686 C687 1.362 . S
C687 H677 0.930 . S
C687 C680 1.409 . S
C687 C686 1.362 . S
H688 C694 0.930 . S
H689 C697 0.930 . S
H690 C698 0.930 . S
H691 C699 0.930 . S
H692 C702 0.930 . S
H693 C703 0.930 . S
C694 H688 0.930 . S
C694 C695 1.355 . S
C694 C696 1.415 . S
C695 C694 1.355 . S
C695 C697 1.419 . S
C696 C694 1.415 . S
C696 C701 1.425 . S
C696 C703 1.409 . S
C697 H689 0.930 . S
C697 C695 1.419 . S
C697 C698 1.362 . S
C698 H690 0.930 . S
C698 C697 1.362 . S
C698 C701 1.409 . S
C699 H691 0.930 . S
C699 C700 1.355 . S
C699 C701 1.415 . S
C700 C699 1.355 . S
C700 C702 1.419 . S
C701 C696 1.425 . S
C701 C698 1.409 . S
C701 C699 1.415 . S
C702 H692 0.930 . S
C702 C700 1.419 . S
C702 C703 1.362 . S
C703 H693 0.930 . S
C703 C696 1.409 . S
C703 C702 1.362 . S
H704 C710 0.930 . S
H705 C713 0.930 . S
H706 C714 0.930 . S
H707 C715 0.930 . S
H708 C718 0.930 . S
H709 C719 0.930 . S
C710 H704 0.930 . S
C710 C711 1.355 . S
C710 C712 1.415 . S
C711 C710 1.355 . S
C711 C713 1.419 . S
C712 C710 1.415 . S
C712 C717 1.425 . S
C712 C719 1.409 . S
C713 H705 0.930 . S
C713 C711 1.419 . S
C713 C714 1.362 . S
C714 H706 0.930 . S
C714 C713 1.362 . S
C714 C717 1.409 . S
C715 H707 0.930 . S
C715 C716 1.355 . S
C715 C717 1.415 . S
C716 C715 1.355 . S
C716 C718 1.419 . S
C717 C712 1.425 . S
C717 C714 1.409 . S
C717 C715 1.415 . S
C718 H708 0.930 . S
C718 C716 1.419 . S
C718 C719 1.362 . S
C719 H709 0.930 . S
C719 C712 1.409 . S
C719 C718 1.362 . S
H720 C726 0.930 . S
H721 C729 0.930 . S
H722 C730 0.930 . S
H723 C731 0.930 1_565 S
H724 C734 0.930 . S
H725 C735 0.930 . S
C726 H720 0.930 . S
C726 C727 1.355 . S
C726 C728 1.415 . S
C727 C726 1.355 . S
C727 C729 1.419 . S
C728 C726 1.415 . S
C728 C733 1.425 . S
C728 C735 1.409 . S
C729 H721 0.930 . S
C729 C727 1.419 . S
C729 C730 1.362 . S
C730 H722 0.930 . S
C730 C729 1.362 . S
C730 C733 1.409 . S
C731 H723 0.930 1_545 S
C731 C732 1.355 . S
C731 C733 1.415 . S
C732 C731 1.355 . S
C732 C734 1.419 . S
C733 C728 1.425 . S
C733 C730 1.409 . S
C733 C731 1.415 . S
C734 H724 0.930 . S
C734 C732 1.419 . S
C734 C735 1.362 . S
C735 H725 0.930 . S
C735 C728 1.409 . S
C735 C734 1.362 . S
C231 C203 1.460 . S
C236 C7 1.460 . S
C247 C34 1.463 . S
C252 C6 1.463 . S
C263 C160 1.453 . S
C268 C20 1.453 . S
C279 C21 1.460 . S
C284 C105 1.460 . S
C295 C35 1.504 . S
C300 C175 1.504 . S
C311 C132 1.515 . S
C316 C48 1.515 . S
C327 C49 1.493 . S
C332 C77 1.493 . S
C343 C147 1.515 . S
C348 C63 1.515 . S
C359 C62 1.517 . S
C364 C90 1.517 . S
C375 C216 1.474 . S
C380 C76 1.474 . S
C391 C119 1.505 . S
C396 C91 1.505 . S
C407 C188 1.467 . S
C412 C104 1.467 . S
C423 C118 1.509 . S
C428 C146 1.509 . S
C439 C217 1.472 . S
C444 C133 1.472 . S
C455 C161 1.503 . S
C460 C189 1.503 . S
C471 C202 1.480 . S
C476 C174 1.480 . S
C487 C79 1.686 . S
C492 C8 1.652 1_565 S
C503 C9 1.682 . S
C508 C78 1.662 . S
C519 C23 1.678 . S
C524 C64 1.653 . S
C535 C65 1.676 . S
C540 C22 1.654 1_565 S
C551 C107 1.664 . S
C556 C36 1.681 1_545 S
C567 C106 1.655 . S
C572 C37 1.686 . S
C583 C92 1.684 . S
C588 C51 1.659 . S
C599 C50 1.663 1_545 S
C604 C93 1.682 . S
C615 C191 1.660 . S
C620 C120 1.684 1_565 S
C631 C121 1.682 . S
C636 C190 1.663 . S
C647 C135 1.681 . S
C652 C176 1.652 . S
C663 C177 1.686 . S
C668 C134 1.655 1_565 S
C679 C219 1.680 . S
C684 C148 1.665 1_545 S
C695 C218 1.675 . S
C700 C149 1.672 . S
C711 C163 1.686 . S
C716 C204 1.653 . S
C727 C205 1.669 . S
C732 C162 1.659 1_545 S
