# Generated by pormake.
# Topology uov, (4)-cn, num edge types: 1
# Building blocks:
#     Node 0, Type 0, BuildingBlock: QUQFOY_clean_sbu_1, # of connection points: 4
#     Node 1, Type 0, BuildingBlock: QUQFOY_clean_sbu_1, # of connection points: 4
#     Node 2, Type 0, BuildingBlock: QUQFOY_clean_sbu_1, # of connection points: 4
#     Node 3, Type 0, BuildingBlock: QUQFOY_clean_sbu_1, # of connection points: 4
#     Node 4, Type 0, BuildingBlock: QUQFOY_clean_sbu_1, # of connection points: 4
#     Node 5, Type 0, BuildingBlock: QUQFOY_clean_sbu_1, # of connection points: 4
#     Node 6, Type 0, BuildingBlock: QUQFOY_clean_sbu_1, # of connection points: 4
#     Node 7, Type 0, BuildingBlock: QUQFOY_clean_sbu_1, # of connection points: 4
#     Edge 8, Type (0, 0), BuildingBlock: FUNLAD_clean_linker_0, # of connection points: 2
#     Edge 9, Type (0, 0), BuildingBlock: FUNLAD_clean_linker_0, # of connection points: 2
#     Edge 10, Type (0, 0), BuildingBlock: FUNLAD_clean_linker_0, # of connection points: 2
#     Edge 11, Type (0, 0), BuildingBlock: FUNLAD_clean_linker_0, # of connection points: 2
#     Edge 12, Type (0, 0), BuildingBlock: FUNLAD_clean_linker_0, # of connection points: 2
#     Edge 13, Type (0, 0), BuildingBlock: FUNLAD_clean_linker_0, # of connection points: 2
#     Edge 14, Type (0, 0), BuildingBlock: FUNLAD_clean_linker_0, # of connection points: 2
#     Edge 15, Type (0, 0), BuildingBlock: FUNLAD_clean_linker_0, # of connection points: 2
#     Edge 16, Type (0, 0), BuildingBlock: FUNLAD_clean_linker_0, # of connection points: 2
#     Edge 17, Type (0, 0), BuildingBlock: FUNLAD_clean_linker_0, # of connection points: 2
#     Edge 18, Type (0, 0), BuildingBlock: FUNLAD_clean_linker_0, # of connection points: 2
#     Edge 19, Type (0, 0), BuildingBlock: FUNLAD_clean_linker_0, # of connection points: 2
#     Edge 20, Type (0, 0), BuildingBlock: FUNLAD_clean_linker_0, # of connection points: 2
#     Edge 21, Type (0, 0), BuildingBlock: FUNLAD_clean_linker_0, # of connection points: 2
#     Edge 22, Type (0, 0), BuildingBlock: FUNLAD_clean_linker_0, # of connection points: 2
#     Edge 23, Type (0, 0), BuildingBlock: FUNLAD_clean_linker_0, # of connection points: 2
# Relax obj value: 0.031
# Max RMSD: 0.048
# Mean RMSD: 0.048
data_MOF--net-uov--node1-QUQFOY_clean_sbu_1--edge1-FUNLAD_clean_linker_0
_symmetry_space_group_name_H-M    P1
_symmetry_Int_Tables_number       1
_symmetry_cell_setting            triclinic
loop_
_symmetry_equiv_pos_as_xyz
'x, y, z'
_cell_length_a     36.868611
_cell_length_b     36.877308
_cell_length_c     52.204386
_cell_angle_alpha  90.000285
_cell_angle_beta   89.983301
_cell_angle_gamma 89.984099
loop_
_atom_site_label
_atom_site_type_symbol
_atom_site_fract_x
_atom_site_fract_y
_atom_site_fract_z
_atom_type_partial_charge
O0 O 0.98712 0.26075 0.57607 0.0
Cd1 Cd 0.03791 0.28231 0.58153 0.0
Cd2 Cd 0.04533 0.21774 0.61007 0.0
O3 O 0.99163 0.21109 0.59948 0.0
O4 O 0.03336 0.3313 0.56616 0.0
O5 O 0.04399 0.32279 0.60737 0.0
C6 C 0.03841 0.34486 0.58858 0.0
C7 C 0.0637 0.20009 0.65109 0.0
C8 C 0.97324 0.23186 0.58499 0.0
C9 C 0.09454 0.22948 0.56413 0.0
O10 O 0.08442 0.20938 0.58254 0.0
O11 O 0.07987 0.2602 0.56049 0.0
O12 O 0.05534 0.1767 0.63377 0.0
O13 O 0.0603 0.23404 0.64549 0.0
O14 O 0.25702 0.00946 0.42767 0.0
Cd15 Cd 0.27892 0.95859 0.42327 0.0
Cd16 Cd 0.21372 0.94939 0.39558 0.0
O17 O 0.20718 0.00369 0.40459 0.0
O18 O 0.32785 0.96414 0.43859 0.0
O19 O 0.31958 0.95143 0.39765 0.0
C20 C 0.34154 0.95793 0.41635 0.0
C21 C 0.19559 0.92799 0.35541 0.0
C22 C 0.22799 0.0228 0.41856 0.0
C23 C 0.22645 0.90299 0.44277 0.0
O24 O 0.2058 0.9122 0.42443 0.0
O25 O 0.25735 0.91766 0.44552 0.0
O26 O 0.17239 0.93784 0.37247 0.0
O27 O 0.22961 0.93175 0.3607 0.0
O28 O 0.00973 0.7511 0.58645 0.0
Cd29 Cd 0.95888 0.72973 0.59176 0.0
Cd30 Cd 0.95091 0.79726 0.61809 0.0
O31 O 0.00525 0.80187 0.6086 0.0
O32 O 0.9652 0.68067 0.57679 0.0
O33 O 0.9525 0.68923 0.61764 0.0
C34 C 0.95984 0.66713 0.59917 0.0
C35 C 0.9316 0.82061 0.65755 0.0
C36 C 0.02374 0.78019 0.59487 0.0
C37 C 0.90377 0.78224 0.57144 0.0
O38 O 0.91359 0.80379 0.58911 0.0
O39 O 0.91776 0.75089 0.56948 0.0
O40 O 0.94224 0.84136 0.63922 0.0
O41 O 0.93278 0.786 0.65383 0.0
O42 O 0.74974 0.99214 0.42235 0.0
Cd43 Cd 0.72581 0.04161 0.4159 0.0
Cd44 Cd 0.79303 0.05139 0.38993 0.0
O45 O 0.80105 0.99804 0.40095 0.0
O46 O 0.67673 0.03334 0.43037 0.0
O47 O 0.68573 0.04528 0.38945 0.0
C48 C 0.66352 0.03753 0.40777 0.0
C49 C 0.81397 0.07099 0.34997 0.0
C50 C 0.77981 0.97919 0.41477 0.0
C51 C 0.77473 0.10034 0.43514 0.0
O52 O 0.79685 0.0907 0.41777 0.0
O53 O 0.74423 0.08471 0.43752 0.0
O54 O 0.83592 0.06335 0.36836 0.0
O55 O 0.77972 0.06599 0.35383 0.0
O56 O 0.99254 0.25986 0.06821 0.0
Cd57 Cd 0.94318 0.28071 0.07918 0.0
Cd58 Cd 0.93895 0.21188 0.10134 0.0
O59 O 0.99194 0.20745 0.08856 0.0
O60 O 0.94766 0.33171 0.06766 0.0
O61 O 0.94187 0.31687 0.10842 0.0
C62 C 0.94627 0.34168 0.09125 0.0
C63 C 0.92243 0.18906 0.14142 0.0
C64 C 0.00801 0.23031 0.07427 0.0
C65 C 0.88527 0.23163 0.05947 0.0
O66 O 0.89831 0.20783 0.07445 0.0
O67 O 0.89833 0.26347 0.05898 0.0
O68 O 0.93016 0.16793 0.12255 0.0
O69 O 0.92569 0.2236 0.13792 0.0
O70 O 0.25295 0.97869 0.91606 0.0
Cd71 Cd 0.27435 0.02974 0.91195 0.0
Cd72 Cd 0.20853 0.03849 0.88648 0.0
O73 O 0.20188 0.98392 0.89439 0.0
O74 O 0.32406 0.0217 0.92526 0.0
O75 O 0.31335 0.03711 0.88512 0.0
C76 C 0.33632 0.02779 0.90259 0.0
C77 C 0.19234 0.0612 0.84634 0.0
C78 C 0.22384 0.9649 0.9075 0.0
C79 C 0.22255 0.08345 0.93421 0.0
O80 O 0.20118 0.07428 0.91627 0.0
O81 O 0.25407 0.06968 0.93578 0.0
O82 O 0.16827 0.05171 0.86292 0.0
O83 O 0.22609 0.05665 0.85221 0.0
O84 O 0.00597 0.74658 0.07658 0.0
Cd85 Cd 0.05381 0.71889 0.08141 0.0
Cd86 Cd 0.07152 0.78456 0.10762 0.0
O87 O 0.01877 0.79713 0.09737 0.0
O88 O 0.04208 0.67129 0.06583 0.0
O89 O 0.05625 0.67715 0.10669 0.0
C90 C 0.04697 0.65648 0.08785 0.0
C91 C 0.09334 0.80584 0.14699 0.0
C92 C 0.99689 0.77796 0.08426 0.0
C93 C 0.11542 0.76332 0.06069 0.0
O94 O 0.10979 0.78541 0.07892 0.0
O95 O 0.09639 0.73482 0.05844 0.0
O96 O 0.08721 0.82734 0.12808 0.0
O97 O 0.08595 0.77189 0.14394 0.0
O98 O 0.71911 0.00127 0.93224 0.0
Cd99 Cd 0.71025 0.94864 0.92052 0.0
Cd100 Cd 0.7715 0.96147 0.89572 0.0
O101 O 0.76214 0.01512 0.90468 0.0
O102 O 0.65959 0.93925 0.93136 0.0
O103 O 0.67623 0.94145 0.89065 0.0
C104 C 0.65077 0.93824 0.9075 0.0
C105 C 0.78868 0.94274 0.85482 0.0
C106 C 0.7403 0.02453 0.92231 0.0
C107 C 0.77421 0.90905 0.93964 0.0
O108 O 0.79185 0.93002 0.92491 0.0
O109 O 0.73976 0.9089 0.93906 0.0
O110 O 0.81049 0.96059 0.86943 0.0
O111 O 0.7561 0.93696 0.863 0.0
C112 C 0.96945 0.60488 0.5821 0.0
C113 C 0.96449 0.62773 0.60333 0.0
C114 C 0.97804 0.56843 0.58545 0.0
C115 C 0.98227 0.55387 0.61016 0.0
C116 C 0.97531 0.5761 0.63146 0.0
C117 C 0.96667 0.61285 0.62809 0.0
C118 C 0.99349 0.51549 0.61375 0.0
C119 C 0.01649 0.49926 0.59725 0.0
C120 C 0.02461 0.45985 0.59681 0.0
C121 C 0.03573 0.44469 0.57345 0.0
C122 C 0.04117 0.40747 0.57112 0.0
C123 C 0.0363 0.38449 0.59226 0.0
H124 H 0.01326 0.44795 0.6368 0.0
C125 C 0.02697 0.39967 0.61607 0.0
C126 C 0.02092 0.4371 0.61833 0.0
H127 H 0.02313 0.38251 0.6327 0.0
H128 H 0.96735 0.61528 0.56275 0.0
H129 H 0.98148 0.55174 0.56856 0.0
H130 H 0.9777 0.56532 0.65069 0.0
H131 H 0.9628 0.62978 0.64483 0.0
H132 H 0.9821 0.50059 0.62977 0.0
H133 H 0.02818 0.5153 0.58185 0.0
H134 H 0.0391 0.46157 0.55662 0.0
H135 H 0.04865 0.3966 0.55257 0.0
C136 C 0.60137 0.02549 0.42429 0.0
C137 C 0.62437 0.03147 0.40327 0.0
C138 C 0.56514 0.01626 0.42062 0.0
C139 C 0.55094 0.01238 0.39577 0.0
C140 C 0.57334 0.02013 0.37469 0.0
C141 C 0.60988 0.0294 0.37838 0.0
C142 C 0.51265 0.00106 0.39183 0.0
C143 C 0.49624 0.97787 0.40809 0.0
C144 C 0.45675 0.97018 0.40843 0.0
C145 C 0.44128 0.95959 0.43181 0.0
C146 C 0.40397 0.9547 0.43405 0.0
C147 C 0.38122 0.95954 0.41278 0.0
H148 H 0.44532 0.98115 0.36833 0.0
C149 C 0.39668 0.96831 0.38896 0.0
C150 C 0.43421 0.97387 0.38681 0.0
H151 H 0.37969 0.97212 0.37225 0.0
H152 H 0.61144 0.02745 0.44373 0.0
H153 H 0.5483 0.01222 0.43737 0.0
H154 H 0.56283 0.01802 0.35537 0.0
H155 H 0.62692 0.03405 0.3618 0.0
H156 H 0.49787 0.01275 0.37587 0.0
H157 H 0.51211 0.9659 0.42347 0.0
H158 H 0.458 0.95625 0.44873 0.0
H159 H 0.39286 0.94764 0.4526 0.0
C160 C 0.95189 0.40628 0.07837 0.0
C161 C 0.95229 0.38015 0.09792 0.0
C162 C 0.9627 0.44174 0.08326 0.0
C163 C 0.97457 0.45195 0.10781 0.0
C164 C 0.97256 0.42663 0.12785 0.0
C165 C 0.96164 0.39084 0.12293 0.0
C166 C 0.98964 0.48875 0.11224 0.0
C167 C 0.01067 0.50462 0.09433 0.0
C168 C 0.02257 0.54307 0.0945 0.0
C169 C 0.03319 0.55823 0.07103 0.0
C170 C 0.042 0.59481 0.06921 0.0
C171 C 0.04103 0.61715 0.09094 0.0
H172 H 0.0155 0.55419 0.13512 0.0
C173 C 0.03216 0.60186 0.11479 0.0
C174 C 0.02276 0.56506 0.11658 0.0
H175 H 0.03132 0.61854 0.13186 0.0
H176 H 0.94415 0.39912 0.059 0.0
H177 H 0.96239 0.46104 0.06762 0.0
H178 H 0.98094 0.4341 0.14703 0.0
H179 H 0.962 0.37129 0.13841 0.0
H180 H 0.98293 0.50258 0.12995 0.0
H181 H 0.01773 0.48903 0.07735 0.0
H182 H 0.03361 0.54195 0.05374 0.0
H183 H 0.04907 0.60573 0.05059 0.0
C184 C 0.39799 0.00857 0.91638 0.0
C185 C 0.37502 0.021 0.89679 0.0
C186 C 0.43334 0.99777 0.91095 0.0
C187 C 0.44671 0.99908 0.88576 0.0
C188 C 0.42459 0.01336 0.86633 0.0
C189 C 0.38882 0.02394 0.87174 0.0
C190 C 0.48408 0.98645 0.88004 0.0
C191 C 0.49803 0.95719 0.892 0.0
C192 C 0.53719 0.9478 0.89263 0.0
C193 C 0.54978 0.92763 0.91362 0.0
C194 C 0.58682 0.92266 0.91757 0.0
C195 C 0.61212 0.93709 0.9003 0.0
H196 H 0.55366 0.97496 0.85753 0.0
C197 C 0.59963 0.95466 0.8781 0.0
C198 C 0.56239 0.9602 0.87433 0.0
H199 H 0.61865 0.96601 0.86447 0.0
H200 H 0.38846 0.00633 0.93594 0.0
H201 H 0.45019 0.98831 0.92657 0.0
H202 H 0.4346 0.0153 0.84687 0.0
H203 H 0.37181 0.03357 0.85626 0.0
H204 H 0.50037 0.0025 0.86697 0.0
H205 H 0.48032 0.9414 0.90439 0.0
H206 H 0.53101 0.91739 0.92787 0.0
H207 H 0.5957 0.90876 0.93475 0.0
C208 C 0.24051 0.08118 0.4413 0.0
C209 C 0.21675 0.05959 0.42675 0.0
C210 C 0.22819 0.11287 0.45306 0.0
C211 C 0.19171 0.12348 0.45069 0.0
C212 C 0.16884 0.1037 0.43435 0.0
C213 C 0.18119 0.07196 0.42252 0.0
C214 C 0.17593 0.15285 0.46669 0.0
C215 C 0.18763 0.15931 0.49073 0.0
C216 C 0.16668 0.18103 0.50951 0.0
C217 C 0.16759 0.17051 0.53532 0.0
C218 C 0.14506 0.18721 0.55326 0.0
C219 C 0.1217 0.2154 0.54585 0.0
H220 H 0.14408 0.21984 0.48261 0.0
C221 C 0.12251 0.22766 0.52035 0.0
C222 C 0.14467 0.21047 0.50226 0.0
H223 H 0.10488 0.24944 0.51413 0.0
H224 H 0.26832 0.07286 0.4445 0.0
H225 H 0.24699 0.1283 0.46466 0.0
H226 H 0.14074 0.11159 0.43191 0.0
H227 H 0.16228 0.05617 0.41123 0.0
H228 H 0.15097 0.16539 0.46006 0.0
H229 H 0.21044 0.14397 0.4982 0.0
H230 H 0.18457 0.14814 0.54145 0.0
H231 H 0.1453 0.17742 0.57282 0.0
C232 C 0.22618 0.87736 0.48726 0.0
C233 C 0.21288 0.87695 0.46202 0.0
C234 C 0.20957 0.85634 0.50627 0.0
C235 C 0.17967 0.83426 0.5002 0.0
C236 C 0.16808 0.83209 0.47465 0.0
C237 C 0.18422 0.85349 0.45581 0.0
C238 C 0.15854 0.81459 0.51996 0.0
C239 C 0.15308 0.82772 0.54376 0.0
C240 C 0.12409 0.81324 0.56067 0.0
C241 C 0.10498 0.83729 0.57657 0.0
C242 C 0.07339 0.82604 0.58913 0.0
C243 C 0.06053 0.79042 0.58609 0.0
H244 H 0.12802 0.75713 0.54833 0.0
C245 C 0.08154 0.76555 0.57204 0.0
C246 C 0.11308 0.77678 0.55955 0.0
H247 H 0.07284 0.73768 0.56976 0.0
H248 H 0.24835 0.89509 0.49258 0.0
H249 H 0.21975 0.85788 0.52568 0.0
H250 H 0.14533 0.81502 0.46944 0.0
H251 H 0.17363 0.85231 0.43647 0.0
H252 H 0.14271 0.79154 0.51342 0.0
H253 H 0.16609 0.8529 0.54943 0.0
H254 H 0.1132 0.86542 0.57805 0.0
H255 H 0.05805 0.8458 0.60001 0.0
C256 C 0.76681 0.92177 0.43851 0.0
C257 C 0.79134 0.94329 0.42455 0.0
C258 C 0.77881 0.89118 0.45176 0.0
C259 C 0.81571 0.8816 0.4515 0.0
C260 C 0.83961 0.90118 0.43577 0.0
C261 C 0.8276 0.93185 0.42246 0.0
C262 C 0.83054 0.85355 0.46903 0.0
C263 C 0.81682 0.84837 0.49269 0.0
C264 C 0.83619 0.82781 0.51289 0.0
C265 C 0.83357 0.84003 0.53827 0.0
C266 C 0.85456 0.82427 0.5575 0.0
C267 C 0.878 0.79534 0.55185 0.0
H268 H 0.86018 0.7871 0.48808 0.0
C269 C 0.87885 0.78144 0.52677 0.0
C270 C 0.85829 0.79771 0.50738 0.0
H271 H 0.89663 0.7591 0.52189 0.0
H272 H 0.7385 0.92935 0.44008 0.0
H273 H 0.75934 0.87582 0.46286 0.0
H274 H 0.8681 0.89404 0.43497 0.0
H275 H 0.84713 0.94762 0.41168 0.0
H276 H 0.85616 0.84096 0.46386 0.0
H277 H 0.7933 0.86392 0.49874 0.0
H278 H 0.81646 0.86295 0.54305 0.0
H279 H 0.8531 0.83533 0.5767 0.0
C280 C 0.77295 0.12769 0.47909 0.0
C281 C 0.78636 0.12798 0.45388 0.0
C282 C 0.78849 0.15001 0.49781 0.0
C283 C 0.81737 0.17326 0.49145 0.0
C284 C 0.82882 0.17539 0.46586 0.0
C285 C 0.81379 0.1527 0.44732 0.0
C286 C 0.8379 0.19403 0.51097 0.0
C287 C 0.84424 0.18131 0.53477 0.0
C288 C 0.87322 0.19665 0.55132 0.0
C289 C 0.89271 0.17327 0.56749 0.0
C290 C 0.92423 0.18522 0.57979 0.0
C291 C 0.93669 0.22088 0.57619 0.0
H292 H 0.86865 0.25238 0.5382 0.0
C293 C 0.91538 0.24509 0.56181 0.0
C294 C 0.88387 0.23318 0.54961 0.0
H295 H 0.92376 0.27299 0.55912 0.0
H296 H 0.75172 0.10897 0.48464 0.0
H297 H 0.77842 0.14845 0.51726 0.0
H298 H 0.85077 0.19334 0.46042 0.0
H299 H 0.82441 0.15379 0.42798 0.0
H300 H 0.85284 0.2175 0.50416 0.0
H301 H 0.83207 0.15581 0.54068 0.0
H302 H 0.8848 0.14511 0.56941 0.0
H303 H 0.93981 0.16597 0.59094 0.0
C304 C 0.77165 0.08435 0.92773 0.0
C305 C 0.74264 0.06118 0.93378 0.0
C306 C 0.77823 0.11536 0.94243 0.0
C307 C 0.75566 0.12396 0.96338 0.0
C308 C 0.725 0.10237 0.96797 0.0
C309 C 0.7185 0.07137 0.95334 0.0
C310 C 0.76628 0.15088 0.98322 0.0
C311 C 0.79282 0.17557 0.98021 0.0
C312 C 0.81108 0.1932 0.00231 0.0
C313 C 0.82972 0.22599 0.99865 0.0
C314 C 0.85214 0.23993 0.01791 0.0
C315 C 0.85691 0.22082 0.04098 0.0
H316 H 0.80135 0.14937 0.02938 0.0
C317 C 0.83705 0.18887 0.04505 0.0
C318 C 0.81438 0.17521 0.02599 0.0
H319 H 0.84014 0.17354 0.06262 0.0
H320 H 0.79071 0.07734 0.91274 0.0
H321 H 0.80243 0.13082 0.9383 0.0
H322 H 0.70712 0.10829 0.98391 0.0
H323 H 0.69564 0.05433 0.95834 0.0
H324 H 0.75365 0.14803 0.00192 0.0
H325 H 0.80342 0.18143 0.96126 0.0
H326 H 0.82795 0.24017 0.98051 0.0
H327 H 0.86726 0.26455 0.01417 0.0
C328 C 0.17851 0.12976 0.94981 0.0
C329 C 0.20888 0.10779 0.95454 0.0
C330 C 0.16178 0.1486 0.96973 0.0
C331 C 0.17499 0.14581 0.99495 0.0
C332 C 0.20611 0.12486 0.99956 0.0
C333 C 0.22321 0.10633 0.97948 0.0
C334 C 0.15421 0.16098 0.01687 0.0
C335 C 0.13297 0.19048 0.0145 0.0
C336 C 0.1053 0.20166 0.03363 0.0
C337 C 0.09105 0.23685 0.03204 0.0
C338 C 0.06067 0.24671 0.04638 0.0
C339 C 0.04354 0.22145 0.06254 0.0
H340 H 0.09915 0.1493 0.05236 0.0
C341 C 0.05895 0.18679 0.06526 0.0
C342 C 0.08949 0.17693 0.05091 0.0
H343 H 0.04642 0.16667 0.07752 0.0
H344 H 0.16679 0.13137 0.93081 0.0
H345 H 0.13731 0.16364 0.96547 0.0
H346 H 0.21662 0.122 0.01884 0.0
H347 H 0.24642 0.08936 0.98375 0.0
H348 H 0.15552 0.1466 0.03499 0.0
H349 H 0.13469 0.20656 0.99709 0.0
H350 H 0.10258 0.25641 0.01886 0.0
H351 H 0.04973 0.27375 0.04391 0.0
C352 C 0.13676 0.76063 0.01519 0.0
C353 C 0.14136 0.77346 0.04035 0.0
C354 C 0.15662 0.77579 0.99502 0.0
C355 C 0.18167 0.80373 0.99979 0.0
C356 C 0.18842 0.81423 0.02518 0.0
C357 C 0.1682 0.79956 0.04525 0.0
C358 C 0.19918 0.82462 0.97892 0.0
C359 C 0.18211 0.83246 0.95675 0.0
C360 C 0.19449 0.86229 0.93974 0.0
C361 C 0.16845 0.88298 0.9266 0.0
C362 C 0.17824 0.91539 0.9145 0.0
C363 C 0.21433 0.92754 0.91531 0.0
H364 H 0.25217 0.8566 0.94727 0.0
C365 C 0.24088 0.90509 0.92639 0.0
C366 C 0.23112 0.87269 0.93834 0.0
H367 H 0.26909 0.91328 0.9268 0.0
H368 H 0.11636 0.7404 0.01086 0.0
H369 H 0.15156 0.76639 0.9757 0.0
H370 H 0.20789 0.83543 0.02939 0.0
H371 H 0.1726 0.8097 0.06447 0.0
H372 H 0.22406 0.83879 0.9838 0.0
H373 H 0.15547 0.821 0.95306 0.0
H374 H 0.14009 0.87529 0.92707 0.0
H375 H 0.15721 0.93192 0.90592 0.0
C376 C 0.83128 0.89307 0.9627 0.0
C377 C 0.79403 0.88712 0.95883 0.0
C378 C 0.84986 0.87483 0.98203 0.0
C379 C 0.83169 0.85005 0.99796 0.0
C380 C 0.79483 0.84294 0.99354 0.0
C381 C 0.77601 0.86161 0.97431 0.0
C382 C 0.85147 0.83043 0.01845 0.0
C383 C 0.8784 0.84634 0.03179 0.0
C384 C 0.90384 0.82679 0.04901 0.0
C385 C 0.92626 0.84723 0.06528 0.0
C386 C 0.95513 0.83093 0.07825 0.0
C387 C 0.96236 0.79381 0.07503 0.0
H388 H 0.89337 0.7724 0.03462 0.0
C389 C 0.93846 0.77288 0.06011 0.0
C390 C 0.90956 0.78916 0.04719 0.0
H391 H 0.94315 0.74415 0.05729 0.0
H392 H 0.84612 0.91234 0.95106 0.0
H393 H 0.8786 0.87995 0.9843 0.0
H394 H 0.78043 0.82347 0.0053 0.0
H395 H 0.74735 0.85628 0.97172 0.0
H396 H 0.84365 0.80261 0.02239 0.0
H397 H 0.88318 0.8752 0.02915 0.0
H398 H 0.92249 0.87627 0.06704 0.0
H399 H 0.97291 0.84786 0.08964 0.0
C400 C 0.08987 0.15185 0.67903 0.0
C401 C 0.0782 0.1879 0.67606 0.0
C402 C 0.10456 0.14001 0.7022 0.0
C403 C 0.10769 0.16391 0.72304 0.0
C404 C 0.09544 0.19978 0.72028 0.0
C405 C 0.08122 0.21183 0.69689 0.0
C406 C 0.12166 0.15132 0.74817 0.0
C407 C 0.14735 0.12548 0.75035 0.0
C408 C 0.15903 0.11037 0.77538 0.0
C409 C 0.19458 0.09727 0.77827 0.0
C410 C 0.20572 0.08154 0.80138 0.0
C411 C 0.18118 0.07784 0.8218 0.0
H412 H 0.10667 0.1156 0.79406 0.0
C413 C 0.14549 0.09057 0.81876 0.0
C414 C 0.13456 0.10677 0.79586 0.0
H415 H 0.1259 0.08813 0.83413 0.0
H416 H 0.0879 0.1327 0.66336 0.0
H417 H 0.11272 0.1119 0.70387 0.0
H418 H 0.09716 0.21858 0.73618 0.0
H419 H 0.07235 0.23973 0.6952 0.0
H420 H 0.11089 0.16418 0.76529 0.0
H421 H 0.16078 0.11534 0.73326 0.0
H422 H 0.21381 0.09936 0.76264 0.0
H423 H 0.23336 0.07189 0.80314 0.0
C424 C 0.11005 0.79911 0.19345 0.0
C425 C 0.1095 0.81997 0.17093 0.0
C426 C 0.12556 0.81302 0.21589 0.0
C427 C 0.14112 0.8479 0.21608 0.0
C428 C 0.14123 0.86828 0.19343 0.0
C429 C 0.12528 0.85467 0.17118 0.0
C430 C 0.1577 0.86383 0.23942 0.0
C431 C 0.14489 0.85734 0.26311 0.0
C432 C 0.15884 0.87613 0.28625 0.0
C433 C 0.13487 0.88274 0.30656 0.0
C434 C 0.14676 0.90033 0.32869 0.0
C435 C 0.18316 0.91112 0.33123 0.0
H436 H 0.21471 0.88156 0.27358 0.0
C437 C 0.20737 0.9042 0.31102 0.0
C438 C 0.19531 0.88698 0.28866 0.0
H439 H 0.23564 0.91191 0.31252 0.0
H440 H 0.09835 0.77218 0.19377 0.0
H441 H 0.1258 0.79625 0.23291 0.0
H442 H 0.15323 0.8951 0.19302 0.0
H443 H 0.12565 0.8713 0.15408 0.0
H444 H 0.17886 0.88399 0.23676 0.0
H445 H 0.12128 0.84001 0.26545 0.0
H446 H 0.10672 0.87451 0.30525 0.0
H447 H 0.12745 0.90492 0.34398 0.0
C448 C 0.89883 0.81529 0.69967 0.0
C449 C 0.91738 0.83655 0.68156 0.0
C450 C 0.88375 0.83132 0.72158 0.0
C451 C 0.88711 0.86891 0.72577 0.0
C452 C 0.90641 0.88982 0.70794 0.0
C453 C 0.92113 0.87393 0.68603 0.0
C454 C 0.87224 0.88731 0.74883 0.0
C455 C 0.84373 0.87498 0.76246 0.0
C456 C 0.82947 0.89408 0.78551 0.0
C457 C 0.79333 0.88843 0.79309 0.0
C458 C 0.77954 0.90507 0.81518 0.0
C459 C 0.80178 0.92748 0.83025 0.0
H460 H 0.87991 0.92087 0.79604 0.0
C461 C 0.83785 0.93328 0.82258 0.0
C462 C 0.8516 0.91668 0.8006 0.0
H463 H 0.85589 0.95002 0.8339 0.0
H464 H 0.89558 0.78639 0.69678 0.0
H465 H 0.86998 0.81412 0.73527 0.0
H466 H 0.90977 0.91873 0.7108 0.0
H467 H 0.9354 0.89109 0.67253 0.0
H468 H 0.88431 0.9132 0.75385 0.0
H469 H 0.82935 0.85095 0.75604 0.0
H470 H 0.77574 0.87096 0.78197 0.0
H471 H 0.7517 0.89981 0.82068 0.0
C472 C 0.80565 0.09031 0.30415 0.0
C473 C 0.8279 0.08684 0.32586 0.0
C474 C 0.81899 0.10658 0.2818 0.0
C475 C 0.85473 0.11999 0.2809 0.0
C476 C 0.87671 0.11684 0.30268 0.0
C477 C 0.86361 0.10013 0.32481 0.0
C478 C 0.86974 0.13814 0.25784 0.0
C479 C 0.86052 0.12849 0.23387 0.0
C480 C 0.87754 0.1447 0.21078 0.0
C481 C 0.88154 0.12317 0.18883 0.0
C482 C 0.89703 0.13744 0.16662 0.0
C483 C 0.90822 0.17386 0.16566 0.0
H484 H 0.88549 0.19871 0.22641 0.0
C485 C 0.90401 0.19561 0.18756 0.0
C486 C 0.88895 0.18113 0.20998 0.0
H487 H 0.91209 0.22384 0.18734 0.0
H488 H 0.77793 0.0806 0.30446 0.0
H489 H 0.80105 0.10932 0.2655 0.0
H490 H 0.90424 0.12713 0.30253 0.0
H491 H 0.88137 0.09823 0.34128 0.0
H492 H 0.89109 0.15804 0.26071 0.0
H493 H 0.84191 0.106 0.231 0.0
H494 H 0.8728 0.09512 0.1889 0.0
H495 H 0.89956 0.12001 0.15001 0.0
loop_
_geom_bond_atom_site_label_1
_geom_bond_atom_site_label_2
_geom_bond_distance
_geom_bond_site_symmetry_2
_ccdc_geom_bond_type
O0 Cd1 2.223 . S
O0 C8 1.315 . S
Cd1 O0 2.223 . S
Cd1 O4 2.297 . S
Cd1 O5 2.439 . S
Cd1 O11 2.240 . S
Cd2 O3 2.240 . S
Cd2 O10 2.223 . S
Cd2 O12 2.297 . S
Cd2 O13 2.439 . S
O3 Cd2 2.240 . S
O3 C8 1.279 . S
O4 Cd1 2.297 . S
O4 C6 1.247 . S
O5 Cd1 2.439 . S
O5 C6 1.208 . S
C6 O4 1.247 . S
C6 O5 1.208 . S
C7 O12 1.247 . S
C7 O13 1.208 . S
C8 O0 1.315 . S
C8 O3 1.279 . S
C9 O10 1.315 . S
C9 O11 1.279 . S
O10 Cd2 2.223 . S
O10 C9 1.315 . S
O11 Cd1 2.240 . S
O11 C9 1.279 . S
O12 Cd2 2.297 . S
O12 C7 1.247 . S
O13 Cd2 2.439 . S
O13 C7 1.208 . S
O14 Cd15 2.223 . S
O14 C22 1.315 . S
Cd15 O14 2.223 . S
Cd15 O18 2.297 . S
Cd15 O19 2.439 . S
Cd15 O25 2.240 . S
Cd16 O17 2.240 . S
Cd16 O24 2.223 . S
Cd16 O26 2.297 . S
Cd16 O27 2.439 . S
O17 Cd16 2.240 . S
O17 C22 1.279 . S
O18 Cd15 2.297 . S
O18 C20 1.247 . S
O19 Cd15 2.439 . S
O19 C20 1.208 . S
C20 O18 1.247 . S
C20 O19 1.208 . S
C21 O26 1.247 . S
C21 O27 1.208 . S
C22 O14 1.315 . S
C22 O17 1.279 . S
C23 O24 1.315 . S
C23 O25 1.279 . S
O24 Cd16 2.223 . S
O24 C23 1.315 . S
O25 Cd15 2.240 . S
O25 C23 1.279 . S
O26 Cd16 2.297 . S
O26 C21 1.247 . S
O27 Cd16 2.439 . S
O27 C21 1.208 . S
O28 Cd29 2.223 . S
O28 C36 1.315 . S
Cd29 O28 2.223 . S
Cd29 O32 2.297 . S
Cd29 O33 2.439 . S
Cd29 O39 2.240 . S
Cd30 O31 2.240 . S
Cd30 O38 2.223 . S
Cd30 O40 2.297 . S
Cd30 O41 2.439 . S
O31 Cd30 2.240 . S
O31 C36 1.279 . S
O32 Cd29 2.297 . S
O32 C34 1.247 . S
O33 Cd29 2.439 . S
O33 C34 1.208 . S
C34 O32 1.247 . S
C34 O33 1.208 . S
C35 O40 1.247 . S
C35 O41 1.208 . S
C36 O28 1.315 . S
C36 O31 1.279 . S
C37 O38 1.315 . S
C37 O39 1.279 . S
O38 Cd30 2.223 . S
O38 C37 1.315 . S
O39 Cd29 2.240 . S
O39 C37 1.279 . S
O40 Cd30 2.297 . S
O40 C35 1.247 . S
O41 Cd30 2.439 . S
O41 C35 1.208 . S
O42 Cd43 2.223 . S
O42 C50 1.315 . S
Cd43 O42 2.223 . S
Cd43 O46 2.297 . S
Cd43 O47 2.439 . S
Cd43 O53 2.240 . S
Cd44 O45 2.240 . S
Cd44 O52 2.223 . S
Cd44 O54 2.297 . S
Cd44 O55 2.439 . S
O45 Cd44 2.240 . S
O45 C50 1.279 . S
O46 Cd43 2.297 . S
O46 C48 1.247 . S
O47 Cd43 2.439 . S
O47 C48 1.208 . S
C48 O46 1.247 . S
C48 O47 1.208 . S
C49 O54 1.247 . S
C49 O55 1.208 . S
C50 O42 1.315 . S
C50 O45 1.279 . S
C51 O52 1.315 . S
C51 O53 1.279 . S
O52 Cd44 2.223 . S
O52 C51 1.315 . S
O53 Cd43 2.240 . S
O53 C51 1.279 . S
O54 Cd44 2.297 . S
O54 C49 1.247 . S
O55 Cd44 2.439 . S
O55 C49 1.208 . S
O56 Cd57 2.223 . S
O56 C64 1.315 . S
Cd57 O56 2.223 . S
Cd57 O60 2.297 . S
Cd57 O61 2.439 . S
Cd57 O67 2.240 . S
Cd58 O59 2.240 . S
Cd58 O66 2.223 . S
Cd58 O68 2.297 . S
Cd58 O69 2.439 . S
O59 Cd58 2.240 . S
O59 C64 1.279 . S
O60 Cd57 2.297 . S
O60 C62 1.247 . S
O61 Cd57 2.439 . S
O61 C62 1.208 . S
C62 O60 1.247 . S
C62 O61 1.208 . S
C63 O68 1.247 . S
C63 O69 1.208 . S
C64 O56 1.315 . S
C64 O59 1.279 . S
C65 O66 1.315 . S
C65 O67 1.279 . S
O66 Cd58 2.223 . S
O66 C65 1.315 . S
O67 Cd57 2.240 . S
O67 C65 1.279 . S
O68 Cd58 2.297 . S
O68 C63 1.247 . S
O69 Cd58 2.439 . S
O69 C63 1.208 . S
O70 Cd71 2.223 . S
O70 C78 1.315 . S
Cd71 O70 2.223 . S
Cd71 O74 2.297 . S
Cd71 O75 2.439 . S
Cd71 O81 2.240 . S
Cd72 O73 2.240 . S
Cd72 O80 2.223 . S
Cd72 O82 2.297 . S
Cd72 O83 2.439 . S
O73 Cd72 2.240 . S
O73 C78 1.279 . S
O74 Cd71 2.297 . S
O74 C76 1.247 . S
O75 Cd71 2.439 . S
O75 C76 1.208 . S
C76 O74 1.247 . S
C76 O75 1.208 . S
C77 O82 1.247 . S
C77 O83 1.208 . S
C78 O70 1.315 . S
C78 O73 1.279 . S
C79 O80 1.315 . S
C79 O81 1.279 . S
O80 Cd72 2.223 . S
O80 C79 1.315 . S
O81 Cd71 2.240 . S
O81 C79 1.279 . S
O82 Cd72 2.297 . S
O82 C77 1.247 . S
O83 Cd72 2.439 . S
O83 C77 1.208 . S
O84 Cd85 2.223 . S
O84 C92 1.315 . S
Cd85 O84 2.223 . S
Cd85 O88 2.297 . S
Cd85 O89 2.439 . S
Cd85 O95 2.240 . S
Cd86 O87 2.240 . S
Cd86 O94 2.223 . S
Cd86 O96 2.297 . S
Cd86 O97 2.439 . S
O87 Cd86 2.240 . S
O87 C92 1.279 . S
O88 Cd85 2.297 . S
O88 C90 1.247 . S
O89 Cd85 2.439 . S
O89 C90 1.208 . S
C90 O88 1.247 . S
C90 O89 1.208 . S
C91 O96 1.247 . S
C91 O97 1.208 . S
C92 O84 1.315 . S
C92 O87 1.279 . S
C93 O94 1.315 . S
C93 O95 1.279 . S
O94 Cd86 2.223 . S
O94 C93 1.315 . S
O95 Cd85 2.240 . S
O95 C93 1.279 . S
O96 Cd86 2.297 . S
O96 C91 1.247 . S
O97 Cd86 2.439 . S
O97 C91 1.208 . S
O98 Cd99 2.223 . S
O98 C106 1.315 . S
Cd99 O98 2.223 . S
Cd99 O102 2.297 . S
Cd99 O103 2.439 . S
Cd99 O109 2.240 . S
Cd100 O101 2.240 . S
Cd100 O108 2.223 . S
Cd100 O110 2.297 . S
Cd100 O111 2.439 . S
O101 Cd100 2.240 . S
O101 C106 1.279 . S
O102 Cd99 2.297 . S
O102 C104 1.247 . S
O103 Cd99 2.439 . S
O103 C104 1.208 . S
C104 O102 1.247 . S
C104 O103 1.208 . S
C105 O110 1.247 . S
C105 O111 1.208 . S
C106 O98 1.315 . S
C106 O101 1.279 . S
C107 O108 1.315 . S
C107 O109 1.279 . S
O108 Cd100 2.223 . S
O108 C107 1.315 . S
O109 Cd99 2.240 . S
O109 C107 1.279 . S
O110 Cd100 2.297 . S
O110 C105 1.247 . S
O111 Cd100 2.439 . S
O111 C105 1.208 . S
C112 C113 1.386 . S
C112 C114 1.383 . S
C112 H128 0.951 . S
C113 C112 1.386 . S
C113 C117 1.383 . S
C114 C112 1.383 . S
C114 C115 1.402 . S
C114 H129 0.951 . S
C115 C114 1.402 . S
C115 C116 1.375 1_655 S
C115 C118 1.481 1_655 S
C116 C115 1.375 1_455 S
C116 C117 1.367 1_455 S
C116 H130 0.951 . S
C117 C113 1.383 . S
C117 C116 1.367 1_655 S
C117 H131 0.950 . S
C118 C115 1.481 1_455 S
C118 C119 1.297 . S
C118 H132 0.950 . S
C119 C118 1.297 . S
C119 C120 1.479 . S
C119 H133 0.950 1_455 S
C120 C119 1.479 . S
C120 C121 1.375 . S
C120 C126 1.404 . S
C121 C120 1.375 . S
C121 C122 1.369 . S
C121 H134 0.950 1_455 S
C122 C121 1.369 . S
C122 C123 1.392 . S
C122 H135 0.951 . S
C123 C122 1.392 . S
C123 C125 1.384 . S
H124 C126 0.949 . S
C125 C123 1.384 . S
C125 C126 1.385 . S
C125 H127 0.950 . S
C126 C120 1.404 . S
C126 H124 0.949 . S
C126 C125 1.385 . S
H127 C125 0.950 . S
H128 C112 0.951 . S
H129 C114 0.951 . S
H130 C116 0.951 . S
H131 C117 0.950 . S
H132 C118 0.950 . S
H133 C119 0.950 1_655 S
H134 C121 0.950 1_655 S
H135 C122 0.951 . S
C136 C137 1.386 . S
C136 C138 1.383 . S
C136 H152 0.951 . S
C137 C136 1.386 . S
C137 C141 1.383 . S
C138 C136 1.383 . S
C138 C139 1.402 . S
C138 H153 0.951 . S
C139 C138 1.402 . S
C139 C140 1.375 . S
C139 C142 1.481 . S
C140 C139 1.375 . S
C140 C141 1.367 . S
C140 H154 0.951 . S
C141 C137 1.383 . S
C141 C140 1.367 . S
C141 H155 0.950 . S
C142 C139 1.481 . S
C142 C143 1.297 . S
C142 H156 0.950 1_545 S
C143 C142 1.297 . S
C143 C144 1.479 1_545 S
C143 H157 0.950 . S
C144 C143 1.479 1_565 S
C144 C145 1.375 . S
C144 C150 1.404 . S
C145 C144 1.375 . S
C145 C146 1.369 . S
C145 H158 0.950 1_565 S
C146 C145 1.369 . S
C146 C147 1.392 . S
C146 H159 0.951 . S
C147 C146 1.392 . S
C147 C149 1.384 . S
H148 C150 0.949 . S
C149 C147 1.384 . S
C149 C150 1.385 . S
C149 H151 0.950 . S
C150 C144 1.404 . S
C150 H148 0.949 . S
C150 C149 1.385 . S
H151 C149 0.950 . S
H152 C136 0.951 . S
H153 C138 0.951 . S
H154 C140 0.951 . S
H155 C141 0.950 . S
H156 C142 0.950 1_565 S
H157 C143 0.950 . S
H158 C145 0.950 1_545 S
H159 C146 0.951 . S
C160 C161 1.386 . S
C160 C162 1.383 . S
C160 H176 0.951 . S
C161 C160 1.386 . S
C161 C165 1.383 . S
C162 C160 1.383 . S
C162 C163 1.402 . S
C162 H177 0.951 . S
C163 C162 1.402 . S
C163 C164 1.375 . S
C163 C166 1.481 . S
C164 C163 1.375 . S
C164 C165 1.367 . S
C164 H178 0.951 . S
C165 C161 1.383 . S
C165 C164 1.367 . S
C165 H179 0.950 . S
C166 C163 1.481 . S
C166 C167 1.297 . S
C166 H180 0.950 1_655 S
C167 C166 1.297 . S
C167 C168 1.479 1_655 S
C167 H181 0.950 . S
C168 C167 1.479 1_455 S
C168 C169 1.375 . S
C168 C174 1.404 . S
C169 C168 1.375 . S
C169 C170 1.369 . S
C169 H182 0.950 1_455 S
C170 C169 1.369 . S
C170 C171 1.392 . S
C170 H183 0.951 . S
C171 C170 1.392 . S
C171 C173 1.384 . S
H172 C174 0.949 . S
C173 C171 1.384 . S
C173 C174 1.385 . S
C173 H175 0.950 . S
C174 C168 1.404 . S
C174 H172 0.949 . S
C174 C173 1.385 . S
H175 C173 0.950 . S
H176 C160 0.951 . S
H177 C162 0.951 . S
H178 C164 0.951 . S
H179 C165 0.950 . S
H180 C166 0.950 1_455 S
H181 C167 0.950 . S
H182 C169 0.950 1_655 S
H183 C170 0.951 . S
C184 C185 1.386 . S
C184 C186 1.383 . S
C184 H200 0.951 . S
C185 C184 1.386 . S
C185 C189 1.383 . S
C186 C184 1.383 . S
C186 C187 1.402 . S
C186 H201 0.951 . S
C187 C186 1.402 . S
C187 C188 1.375 . S
C187 C190 1.481 1_545 S
C188 C187 1.375 . S
C188 C189 1.367 . S
C188 H202 0.951 . S
C189 C185 1.383 . S
C189 C188 1.367 . S
C189 H203 0.950 . S
C190 C187 1.481 1_565 S
C190 C191 1.297 . S
C190 H204 0.950 . S
C191 C190 1.297 . S
C191 C192 1.479 . S
C191 H205 0.950 . S
C192 C191 1.479 . S
C192 C193 1.375 . S
C192 C198 1.404 . S
C193 C192 1.375 . S
C193 C194 1.369 . S
C193 H206 0.950 . S
C194 C193 1.369 . S
C194 C195 1.392 . S
C194 H207 0.951 . S
C195 C194 1.392 . S
C195 C197 1.384 . S
H196 C198 0.949 . S
C197 C195 1.384 . S
C197 C198 1.385 . S
C197 H199 0.950 . S
C198 C192 1.404 . S
C198 H196 0.949 . S
C198 C197 1.385 . S
H199 C197 0.950 . S
H200 C184 0.951 . S
H201 C186 0.951 . S
H202 C188 0.951 . S
H203 C189 0.950 . S
H204 C190 0.950 . S
H205 C191 0.950 . S
H206 C193 0.950 . S
H207 C194 0.951 . S
C208 C209 1.386 1_545 S
C208 C210 1.383 . S
C208 H224 0.951 1_545 S
C209 C208 1.386 1_565 S
C209 C213 1.383 1_565 S
C210 C208 1.383 . S
C210 C211 1.402 . S
C210 H225 0.951 . S
C211 C210 1.402 . S
C211 C212 1.375 . S
C211 C214 1.481 . S
C212 C211 1.375 . S
C212 C213 1.367 . S
C212 H226 0.951 . S
C213 C209 1.383 1_545 S
C213 C212 1.367 . S
C213 H227 0.950 . S
C214 C211 1.481 . S
C214 C215 1.297 . S
C214 H228 0.950 . S
C215 C214 1.297 . S
C215 C216 1.479 . S
C215 H229 0.950 . S
C216 C215 1.479 . S
C216 C217 1.375 . S
C216 C222 1.404 . S
C217 C216 1.375 . S
C217 C218 1.369 . S
C217 H230 0.950 . S
C218 C217 1.369 . S
C218 C219 1.392 . S
C218 H231 0.951 . S
C219 C218 1.392 . S
C219 C221 1.384 . S
H220 C222 0.949 . S
C221 C219 1.384 . S
C221 C222 1.385 . S
C221 H223 0.950 . S
C222 C216 1.404 . S
C222 H220 0.949 . S
C222 C221 1.385 . S
H223 C221 0.950 . S
H224 C208 0.951 1_565 S
H225 C210 0.951 . S
H226 C212 0.951 . S
H227 C213 0.950 . S
H228 C214 0.950 . S
H229 C215 0.950 . S
H230 C217 0.950 . S
H231 C218 0.951 . S
C232 C233 1.386 . S
C232 C234 1.383 . S
C232 H248 0.951 . S
C233 C232 1.386 . S
C233 C237 1.383 . S
C234 C232 1.383 . S
C234 C235 1.402 . S
C234 H249 0.951 . S
C235 C234 1.402 . S
C235 C236 1.375 . S
C235 C238 1.481 . S
C236 C235 1.375 . S
C236 C237 1.367 . S
C236 H250 0.951 . S
C237 C233 1.383 . S
C237 C236 1.367 . S
C237 H251 0.950 . S
C238 C235 1.481 . S
C238 C239 1.297 . S
C238 H252 0.950 . S
C239 C238 1.297 . S
C239 C240 1.479 . S
C239 H253 0.950 . S
C240 C239 1.479 . S
C240 C241 1.375 . S
C240 C246 1.404 . S
C241 C240 1.375 . S
C241 C242 1.369 . S
C241 H254 0.950 . S
C242 C241 1.369 . S
C242 C243 1.392 1_455 S
C242 H255 0.951 . S
C243 C242 1.392 1_655 S
C243 C245 1.384 . S
H244 C246 0.949 . S
C245 C243 1.384 . S
C245 C246 1.385 1_655 S
C245 H247 0.950 . S
C246 C240 1.404 . S
C246 H244 0.949 . S
C246 C245 1.385 1_455 S
H247 C245 0.950 . S
H248 C232 0.951 . S
H249 C234 0.951 . S
H250 C236 0.951 . S
H251 C237 0.950 . S
H252 C238 0.950 . S
H253 C239 0.950 . S
H254 C241 0.950 . S
H255 C242 0.951 . S
C256 C257 1.386 . S
C256 C258 1.383 1_545 S
C256 H272 0.951 . S
C257 C256 1.386 . S
C257 C261 1.383 1_545 S
C258 C256 1.383 1_565 S
C258 C259 1.402 . S
C258 H273 0.951 . S
C259 C258 1.402 . S
C259 C260 1.375 . S
C259 C262 1.481 . S
C260 C259 1.375 . S
C260 C261 1.367 . S
C260 H274 0.951 . S
C261 C257 1.383 1_565 S
C261 C260 1.367 . S
C261 H275 0.950 . S
C262 C259 1.481 . S
C262 C263 1.297 . S
C262 H276 0.950 . S
C263 C262 1.297 . S
C263 C264 1.479 . S
C263 H277 0.950 . S
C264 C263 1.479 . S
C264 C265 1.375 . S
C264 C270 1.404 . S
C265 C264 1.375 . S
C265 C266 1.369 . S
C265 H278 0.950 . S
C266 C265 1.369 . S
C266 C267 1.392 . S
C266 H279 0.951 . S
C267 C266 1.392 . S
C267 C269 1.384 . S
H268 C270 0.949 . S
C269 C267 1.384 . S
C269 C270 1.385 . S
C269 H271 0.950 . S
C270 C264 1.404 . S
C270 H268 0.949 . S
C270 C269 1.385 . S
H271 C269 0.950 . S
H272 C256 0.951 . S
H273 C258 0.951 . S
H274 C260 0.951 . S
H275 C261 0.950 . S
H276 C262 0.950 . S
H277 C263 0.950 . S
H278 C265 0.950 . S
H279 C266 0.951 . S
C280 C281 1.386 . S
C280 C282 1.383 . S
C280 H296 0.951 . S
C281 C280 1.386 . S
C281 C285 1.383 . S
C282 C280 1.383 . S
C282 C283 1.402 . S
C282 H297 0.951 . S
C283 C282 1.402 . S
C283 C284 1.375 . S
C283 C286 1.481 . S
C284 C283 1.375 . S
C284 C285 1.367 . S
C284 H298 0.951 . S
C285 C281 1.383 . S
C285 C284 1.367 . S
C285 H299 0.950 . S
C286 C283 1.481 . S
C286 C287 1.297 . S
C286 H300 0.950 . S
C287 C286 1.297 . S
C287 C288 1.479 . S
C287 H301 0.950 . S
C288 C287 1.479 . S
C288 C289 1.375 . S
C288 C294 1.404 . S
C289 C288 1.375 . S
C289 C290 1.369 . S
C289 H302 0.950 . S
C290 C289 1.369 . S
C290 C291 1.392 1_655 S
C290 H303 0.951 . S
C291 C290 1.392 1_455 S
C291 C293 1.384 . S
H292 C294 0.949 . S
C293 C291 1.384 . S
C293 C294 1.385 1_455 S
C293 H295 0.950 . S
C294 C288 1.404 . S
C294 H292 0.949 . S
C294 C293 1.385 1_655 S
H295 C293 0.950 . S
H296 C280 0.951 . S
H297 C282 0.951 . S
H298 C284 0.951 . S
H299 C285 0.950 . S
H300 C286 0.950 . S
H301 C287 0.950 . S
H302 C289 0.950 . S
H303 C290 0.951 . S
C304 C305 1.386 1_545 S
C304 C306 1.383 . S
C304 H320 0.951 . S
C305 C304 1.386 1_565 S
C305 C309 1.383 . S
C306 C304 1.383 . S
C306 C307 1.402 . S
C306 H321 0.951 . S
C307 C306 1.402 . S
C307 C308 1.375 . S
C307 C310 1.481 1_556 S
C308 C307 1.375 . S
C308 C309 1.367 1_545 S
C308 H322 0.952 1_546 S
C309 C305 1.383 . S
C309 C308 1.367 1_565 S
C309 H323 0.950 . S
C310 C307 1.481 1_554 S
C310 C311 1.297 . S
C310 H324 0.950 . S
C311 C310 1.297 . S
C311 C312 1.479 . S
C311 H325 0.969 . S
C312 C311 1.479 . S
C312 C313 1.375 . S
C312 C318 1.404 . S
C313 C312 1.375 . S
C313 C314 1.369 . S
C313 H326 0.950 . S
C314 C313 1.369 . S
C314 C315 1.392 . S
C314 H327 0.951 . S
C315 C314 1.392 . S
C315 C317 1.384 . S
H316 C318 0.949 . S
C317 C315 1.384 . S
C317 C318 1.385 . S
C317 H319 0.950 . S
C318 C312 1.404 . S
C318 H316 0.949 . S
C318 C317 1.385 . S
H319 C317 0.950 . S
H320 C304 0.951 . S
H321 C306 0.951 . S
H322 C308 0.952 1_564 S
H323 C309 0.950 . S
H324 C310 0.950 . S
H325 C311 0.969 . S
H326 C313 0.950 . S
H327 C314 0.951 . S
C328 C329 1.386 . S
C328 C330 1.383 . S
C328 H344 0.951 . S
C329 C328 1.386 . S
C329 C333 1.383 . S
C330 C328 1.383 . S
C330 C331 1.402 . S
C330 H345 0.951 . S
C331 C330 1.402 . S
C331 C332 1.375 . S
C331 C334 1.481 1_556 S
C332 C331 1.375 . S
C332 C333 1.367 . S
C332 H346 0.951 1_556 S
C333 C329 1.383 . S
C333 C332 1.367 . S
C333 H347 0.950 . S
C334 C331 1.481 1_554 S
C334 C335 1.297 1_554 S
C334 H348 0.950 . S
C335 C334 1.297 1_556 S
C335 C336 1.479 1_556 S
C335 H349 0.950 . S
C336 C335 1.479 1_554 S
C336 C337 1.375 . S
C336 C342 1.404 . S
C337 C336 1.375 . S
C337 C338 1.369 1_455 S
C337 H350 0.950 1_554 S
C338 C337 1.369 1_655 S
C338 C339 1.392 . S
C338 H351 0.951 . S
C339 C338 1.392 . S
C339 C341 1.384 1_655 S
H340 C342 0.949 . S
C341 C339 1.384 1_455 S
C341 C342 1.385 . S
C341 H343 0.950 . S
C342 C336 1.404 . S
C342 H340 0.949 . S
C342 C341 1.385 . S
H343 C341 0.950 . S
H344 C328 0.951 . S
H345 C330 0.951 . S
H346 C332 0.951 1_554 S
H347 C333 0.950 . S
H348 C334 0.950 . S
H349 C335 0.950 . S
H350 C337 0.950 1_556 S
H351 C338 0.951 . S
C352 C353 1.386 . S
C352 C354 1.383 . S
C352 H368 0.951 . S
C353 C352 1.386 . S
C353 C357 1.383 . S
C354 C352 1.383 . S
C354 C355 1.402 . S
C354 H369 0.951 1_554 S
C355 C354 1.402 . S
C355 C356 1.375 . S
C355 C358 1.481 . S
C356 C355 1.375 . S
C356 C357 1.367 . S
C356 H370 0.951 . S
C357 C353 1.383 . S
C357 C356 1.367 . S
C357 H371 0.950 . S
C358 C355 1.481 . S
C358 C359 1.297 1_554 S
C358 H372 0.950 . S
C359 C358 1.297 1_556 S
C359 C360 1.479 . S
C359 H373 0.950 . S
C360 C359 1.479 . S
C360 C361 1.375 . S
C360 C366 1.404 . S
C361 C360 1.375 . S
C361 C362 1.369 . S
C361 H374 0.950 . S
C362 C361 1.369 . S
C362 C363 1.392 1_565 S
C362 H375 0.951 . S
C363 C362 1.392 1_545 S
C363 C365 1.384 . S
H364 C366 0.949 1_554 S
C365 C363 1.384 . S
C365 C366 1.385 1_545 S
C365 H367 0.950 . S
C366 C360 1.404 . S
C366 H364 0.949 1_556 S
C366 C365 1.385 1_565 S
H367 C365 0.950 . S
H368 C352 0.951 . S
H369 C354 0.951 1_556 S
H370 C356 0.951 . S
H371 C357 0.950 . S
H372 C358 0.950 . S
H373 C359 0.950 . S
H374 C361 0.950 . S
H375 C362 0.951 . S
C376 C377 1.386 . S
C376 C378 1.383 . S
C376 H392 0.951 . S
C377 C376 1.386 . S
C377 C381 1.383 . S
C378 C376 1.383 . S
C378 C379 1.402 . S
C378 H393 0.957 . S
C379 C378 1.402 . S
C379 C380 1.375 . S
C379 C382 1.481 . S
C380 C379 1.375 . S
C380 C381 1.367 . S
C380 H394 0.951 . S
C381 C377 1.383 . S
C381 C380 1.367 . S
C381 H395 0.950 . S
C382 C379 1.481 . S
C382 C383 1.297 1_556 S
C382 H396 0.950 . S
C383 C382 1.297 1_554 S
C383 C384 1.479 . S
C383 H397 0.950 . S
C384 C383 1.479 . S
C384 C385 1.375 . S
C384 C390 1.404 . S
C385 C384 1.375 . S
C385 C386 1.369 . S
C385 H398 0.950 . S
C386 C385 1.369 . S
C386 C387 1.392 1_655 S
C386 H399 0.951 1_655 S
C387 C386 1.392 1_455 S
C387 C389 1.384 1_455 S
H388 C390 0.949 . S
C389 C387 1.384 1_655 S
C389 C390 1.385 . S
C389 H391 0.950 . S
C390 C384 1.404 . S
C390 H388 0.949 . S
C390 C389 1.385 . S
H391 C389 0.950 . S
H392 C376 0.951 . S
H393 C378 0.957 . S
H394 C380 0.951 . S
H395 C381 0.950 . S
H396 C382 0.950 . S
H397 C383 0.950 . S
H398 C385 0.950 . S
H399 C386 0.951 1_455 S
C400 C401 1.386 . S
C400 C402 1.383 . S
C400 H416 0.951 . S
C401 C400 1.386 . S
C401 C405 1.383 . S
C402 C400 1.383 . S
C402 C403 1.402 . S
C402 H417 0.951 . S
C403 C402 1.402 . S
C403 C404 1.375 . S
C403 C406 1.481 . S
C404 C403 1.375 . S
C404 C405 1.367 . S
C404 H418 0.951 . S
C405 C401 1.383 . S
C405 C404 1.367 . S
C405 H419 0.950 . S
C406 C403 1.481 . S
C406 C407 1.297 . S
C406 H420 0.950 . S
C407 C406 1.297 . S
C407 C408 1.479 . S
C407 H421 0.950 . S
C408 C407 1.479 . S
C408 C409 1.375 . S
C408 C414 1.404 . S
C409 C408 1.375 . S
C409 C410 1.369 . S
C409 H422 0.950 . S
C410 C409 1.369 . S
C410 C411 1.392 . S
C410 H423 0.951 . S
C411 C410 1.392 . S
C411 C413 1.384 . S
H412 C414 0.949 . S
C413 C411 1.384 . S
C413 C414 1.385 . S
C413 H415 0.950 . S
C414 C408 1.404 . S
C414 H412 0.949 . S
C414 C413 1.385 . S
H415 C413 0.950 . S
H416 C400 0.951 . S
H417 C402 0.951 . S
H418 C404 0.951 . S
H419 C405 0.950 . S
H420 C406 0.950 . S
H421 C407 0.950 . S
H422 C409 0.950 . S
H423 C410 0.951 . S
C424 C425 1.386 . S
C424 C426 1.383 . S
C424 H440 0.951 . S
C425 C424 1.386 . S
C425 C429 1.383 . S
C426 C424 1.383 . S
C426 C427 1.402 . S
C426 H441 0.951 . S
C427 C426 1.402 . S
C427 C428 1.375 . S
C427 C430 1.481 . S
C428 C427 1.375 . S
C428 C429 1.367 . S
C428 H442 0.951 . S
C429 C425 1.383 . S
C429 C428 1.367 . S
C429 H443 0.950 . S
C430 C427 1.481 . S
C430 C431 1.297 . S
C430 H444 0.950 . S
C431 C430 1.297 . S
C431 C432 1.479 . S
C431 H445 0.950 . S
C432 C431 1.479 . S
C432 C433 1.375 . S
C432 C438 1.404 . S
C433 C432 1.375 . S
C433 C434 1.369 . S
C433 H446 0.950 . S
C434 C433 1.369 . S
C434 C435 1.392 . S
C434 H447 0.951 . S
C435 C434 1.392 . S
C435 C437 1.384 . S
H436 C438 0.949 . S
C437 C435 1.384 . S
C437 C438 1.385 . S
C437 H439 0.950 . S
C438 C432 1.404 . S
C438 H436 0.949 . S
C438 C437 1.385 . S
H439 C437 0.950 . S
H440 C424 0.951 . S
H441 C426 0.951 . S
H442 C428 0.951 . S
H443 C429 0.950 . S
H444 C430 0.950 . S
H445 C431 0.950 . S
H446 C433 0.950 . S
H447 C434 0.951 . S
C448 C449 1.386 . S
C448 C450 1.383 . S
C448 H464 0.951 . S
C449 C448 1.386 . S
C449 C453 1.383 . S
C450 C448 1.383 . S
C450 C451 1.402 . S
C450 H465 0.951 . S
C451 C450 1.402 . S
C451 C452 1.375 . S
C451 C454 1.481 . S
C452 C451 1.375 . S
C452 C453 1.367 . S
C452 H466 0.951 . S
C453 C449 1.383 . S
C453 C452 1.367 . S
C453 H467 0.950 . S
C454 C451 1.481 . S
C454 C455 1.297 . S
C454 H468 0.950 . S
C455 C454 1.297 . S
C455 C456 1.479 . S
C455 H469 0.950 . S
C456 C455 1.479 . S
C456 C457 1.375 . S
C456 C462 1.404 . S
C457 C456 1.375 . S
C457 C458 1.369 . S
C457 H470 0.950 . S
C458 C457 1.369 . S
C458 C459 1.392 . S
C458 H471 0.951 . S
C459 C458 1.392 . S
C459 C461 1.384 . S
H460 C462 0.949 . S
C461 C459 1.384 . S
C461 C462 1.385 . S
C461 H463 0.950 . S
C462 C456 1.404 . S
C462 H460 0.949 . S
C462 C461 1.385 . S
H463 C461 0.950 . S
H464 C448 0.951 . S
H465 C450 0.951 . S
H466 C452 0.951 . S
H467 C453 0.950 . S
H468 C454 0.950 . S
H469 C455 0.950 . S
H470 C457 0.950 . S
H471 C458 0.951 . S
C472 C473 1.386 . S
C472 C474 1.383 . S
C472 H488 0.951 . S
C473 C472 1.386 . S
C473 C477 1.383 . S
C474 C472 1.383 . S
C474 C475 1.402 . S
C474 H489 0.951 . S
C475 C474 1.402 . S
C475 C476 1.375 . S
C475 C478 1.481 . S
C476 C475 1.375 . S
C476 C477 1.367 . S
C476 H490 0.951 . S
C477 C473 1.383 . S
C477 C476 1.367 . S
C477 H491 0.950 . S
C478 C475 1.481 . S
C478 C479 1.297 . S
C478 H492 0.950 . S
C479 C478 1.297 . S
C479 C480 1.479 . S
C479 H493 0.950 . S
C480 C479 1.479 . S
C480 C481 1.375 . S
C480 C486 1.404 . S
C481 C480 1.375 . S
C481 C482 1.369 . S
C481 H494 0.950 . S
C482 C481 1.369 . S
C482 C483 1.392 . S
C482 H495 0.951 . S
C483 C482 1.392 . S
C483 C485 1.384 . S
H484 C486 0.949 . S
C485 C483 1.384 . S
C485 C486 1.385 . S
C485 H487 0.950 . S
C486 C480 1.404 . S
C486 H484 0.949 . S
C486 C485 1.385 . S
H487 C485 0.950 . S
H488 C472 0.951 . S
H489 C474 0.951 . S
H490 C476 0.951 . S
H491 C477 0.950 . S
H492 C478 0.950 . S
H493 C479 0.950 . S
H494 C481 0.950 . S
H495 C482 0.951 . S
C113 C34 1.381 . S
C123 C6 1.360 . S
C137 C48 1.415 . S
C147 C20 1.392 . S
C161 C62 1.416 . S
C171 C90 1.388 . S
C185 C76 1.398 . S
C195 C104 1.389 . S
C209 C22 1.409 . S
C219 C9 1.401 . S
C233 C23 1.324 . S
C243 C36 1.418 . S
C257 C50 1.398 . S
C267 C37 1.377 . S
C281 C51 1.322 . S
C291 C8 1.413 . S
C305 C106 1.388 . S
C315 C65 1.346 . S
C329 C79 1.354 . S
C339 C64 1.404 . S
C353 C93 1.323 . S
C363 C78 1.409 . S
C377 C107 1.382 . S
C387 C92 1.402 . S
C401 C7 1.614 . S
C411 C77 1.634 . S
C425 C91 1.613 . S
C435 C21 1.638 . S
C449 C35 1.583 . S
C459 C105 1.570 . S
C473 C49 1.611 . S
C483 C63 1.638 . S
