# Generated by pormake.
# Topology ukk, (4)-cn, num edge types: 1
# Building blocks:
#     Node 0, Type 0, BuildingBlock: QUQFOY_clean_sbu_1, # of connection points: 4
#     Node 1, Type 0, BuildingBlock: QUQFOY_clean_sbu_1, # of connection points: 4
#     Node 2, Type 0, BuildingBlock: QUQFOY_clean_sbu_1, # of connection points: 4
#     Node 3, Type 0, BuildingBlock: QUQFOY_clean_sbu_1, # of connection points: 4
#     Node 4, Type 0, BuildingBlock: QUQFOY_clean_sbu_1, # of connection points: 4
#     Node 5, Type 0, BuildingBlock: QUQFOY_clean_sbu_1, # of connection points: 4
#     Node 6, Type 0, BuildingBlock: QUQFOY_clean_sbu_1, # of connection points: 4
#     Node 7, Type 0, BuildingBlock: QUQFOY_clean_sbu_1, # of connection points: 4
#     Node 8, Type 0, BuildingBlock: QUQFOY_clean_sbu_1, # of connection points: 4
#     Node 9, Type 0, BuildingBlock: QUQFOY_clean_sbu_1, # of connection points: 4
#     Node 10, Type 0, BuildingBlock: QUQFOY_clean_sbu_1, # of connection points: 4
#     Node 11, Type 0, BuildingBlock: QUQFOY_clean_sbu_1, # of connection points: 4
#     Node 12, Type 0, BuildingBlock: QUQFOY_clean_sbu_1, # of connection points: 4
#     Node 13, Type 0, BuildingBlock: QUQFOY_clean_sbu_1, # of connection points: 4
#     Node 14, Type 0, BuildingBlock: QUQFOY_clean_sbu_1, # of connection points: 4
#     Node 15, Type 0, BuildingBlock: QUQFOY_clean_sbu_1, # of connection points: 4
#     Edge 16, Type (0, 0), BuildingBlock: AJUNOK_clean_linker_0, # of connection points: 2
#     Edge 17, Type (0, 0), BuildingBlock: AJUNOK_clean_linker_0, # of connection points: 2
#     Edge 18, Type (0, 0), BuildingBlock: AJUNOK_clean_linker_0, # of connection points: 2
#     Edge 19, Type (0, 0), BuildingBlock: AJUNOK_clean_linker_0, # of connection points: 2
#     Edge 20, Type (0, 0), BuildingBlock: AJUNOK_clean_linker_0, # of connection points: 2
#     Edge 21, Type (0, 0), BuildingBlock: AJUNOK_clean_linker_0, # of connection points: 2
#     Edge 22, Type (0, 0), BuildingBlock: AJUNOK_clean_linker_0, # of connection points: 2
#     Edge 23, Type (0, 0), BuildingBlock: AJUNOK_clean_linker_0, # of connection points: 2
#     Edge 24, Type (0, 0), BuildingBlock: AJUNOK_clean_linker_0, # of connection points: 2
#     Edge 25, Type (0, 0), BuildingBlock: AJUNOK_clean_linker_0, # of connection points: 2
#     Edge 26, Type (0, 0), BuildingBlock: AJUNOK_clean_linker_0, # of connection points: 2
#     Edge 27, Type (0, 0), BuildingBlock: AJUNOK_clean_linker_0, # of connection points: 2
#     Edge 28, Type (0, 0), BuildingBlock: AJUNOK_clean_linker_0, # of connection points: 2
#     Edge 29, Type (0, 0), BuildingBlock: AJUNOK_clean_linker_0, # of connection points: 2
#     Edge 30, Type (0, 0), BuildingBlock: AJUNOK_clean_linker_0, # of connection points: 2
#     Edge 31, Type (0, 0), BuildingBlock: AJUNOK_clean_linker_0, # of connection points: 2
#     Edge 32, Type (0, 0), BuildingBlock: AJUNOK_clean_linker_0, # of connection points: 2
#     Edge 33, Type (0, 0), BuildingBlock: AJUNOK_clean_linker_0, # of connection points: 2
#     Edge 34, Type (0, 0), BuildingBlock: AJUNOK_clean_linker_0, # of connection points: 2
#     Edge 35, Type (0, 0), BuildingBlock: AJUNOK_clean_linker_0, # of connection points: 2
#     Edge 36, Type (0, 0), BuildingBlock: AJUNOK_clean_linker_0, # of connection points: 2
#     Edge 37, Type (0, 0), BuildingBlock: AJUNOK_clean_linker_0, # of connection points: 2
#     Edge 38, Type (0, 0), BuildingBlock: AJUNOK_clean_linker_0, # of connection points: 2
#     Edge 39, Type (0, 0), BuildingBlock: AJUNOK_clean_linker_0, # of connection points: 2
#     Edge 40, Type (0, 0), BuildingBlock: AJUNOK_clean_linker_0, # of connection points: 2
#     Edge 41, Type (0, 0), BuildingBlock: AJUNOK_clean_linker_0, # of connection points: 2
#     Edge 42, Type (0, 0), BuildingBlock: AJUNOK_clean_linker_0, # of connection points: 2
#     Edge 43, Type (0, 0), BuildingBlock: AJUNOK_clean_linker_0, # of connection points: 2
#     Edge 44, Type (0, 0), BuildingBlock: AJUNOK_clean_linker_0, # of connection points: 2
#     Edge 45, Type (0, 0), BuildingBlock: AJUNOK_clean_linker_0, # of connection points: 2
#     Edge 46, Type (0, 0), BuildingBlock: AJUNOK_clean_linker_0, # of connection points: 2
#     Edge 47, Type (0, 0), BuildingBlock: AJUNOK_clean_linker_0, # of connection points: 2
# Relax obj value: 0.045
# Max RMSD: 0.175
# Mean RMSD: 0.175
data_MOF--net-ukk--node1-QUQFOY_clean_sbu_1--edge1-AJUNOK_clean_linker_0
_symmetry_space_group_name_H-M    P1
_symmetry_Int_Tables_number       1
_symmetry_cell_setting            triclinic
loop_
_symmetry_equiv_pos_as_xyz
'x, y, z'
_cell_length_a     37.226809
_cell_length_b     37.260468
_cell_length_c     18.42935
_cell_angle_alpha  89.838574
_cell_angle_beta   90.068814
_cell_angle_gamma 89.980998
loop_
_atom_site_label
_atom_site_type_symbol
_atom_site_fract_x
_atom_site_fract_y
_atom_site_fract_z
_atom_type_partial_charge
O0 O 0.34437 0.18476 0.10217 0.0
Cd1 Cd 0.36644 0.13532 0.08612 0.0
Cd2 Cd 0.35322 0.13257 0.22616 0.0
O3 O 0.31558 0.17272 0.20396 0.0
O4 O 0.35613 0.1247 0.98084 0.0
O5 O 0.32693 0.0989 0.0714 0.0
C6 C 0.32943 0.10522 1.00254 0.0
C7 C 0.34986 0.07539 0.27826 0.0
C8 C 0.32115 0.19327 0.14953 0.0
C9 C 0.42927 0.144 0.18366 0.0
O10 O 0.40468 0.15076 0.22918 0.0
O11 O 0.4209 0.13183 0.12092 0.0
O12 O 0.3481 0.10375 0.31843 0.0
O13 O 0.34927 0.07986 0.20861 0.0
O14 O 0.18916 0.69879 0.94242 0.0
Cd15 Cd 0.14072 0.67566 0.9637 0.0
Cd16 Cd 0.13689 0.68464 0.82113 0.0
O17 O 0.17712 0.72306 0.83582 0.0
O18 O 0.13247 0.68771 0.06915 0.0
O19 O 0.10272 0.71369 0.97945 0.0
C20 C 0.11119 0.71304 0.04756 0.0
C21 C 0.07962 0.68695 0.76805 0.0
C22 C 0.19772 0.71981 0.89095 0.0
C23 C 0.15296 0.61037 0.87589 0.0
O24 O 0.15628 0.63346 0.82556 0.0
O25 O 0.14062 0.62011 0.93767 0.0
O26 O 0.10818 0.68695 0.7282 0.0
O27 O 0.08394 0.68941 0.83757 0.0
O28 O 0.69734 0.85099 0.09503 0.0
Cd29 Cd 0.67418 0.89987 0.07753 0.0
Cd30 Cd 0.68649 0.90313 0.21836 0.0
O31 O 0.72459 0.86319 0.19837 0.0
O32 O 0.68378 0.90972 0.97158 0.0
O33 O 0.71245 0.93742 0.06033 0.0
C34 C 0.70985 0.93034 0.99185 0.0
C35 C 0.69014 0.96037 0.27017 0.0
C36 C 0.71976 0.84247 0.14412 0.0
C37 C 0.61081 0.88877 0.17239 0.0
O38 O 0.63508 0.88422 0.21999 0.0
O39 O 0.61941 0.90118 0.10987 0.0
O40 O 0.69158 0.93193 0.31045 0.0
O41 O 0.69054 0.95592 0.20055 0.0
O42 O 0.85644 0.34538 0.94446 0.0
Cd43 Cd 0.90506 0.36843 0.96219 0.0
Cd44 Cd 0.90809 0.35658 0.82189 0.0
O45 O 0.86979 0.31679 0.84347 0.0
O46 O 0.9141 0.35869 0.06857 0.0
O47 O 0.94207 0.32972 0.98075 0.0
C48 C 0.93443 0.33228 0.04897 0.0
C49 C 0.96746 0.35745 0.78078 0.0
C50 C 0.84882 0.32182 0.89733 0.0
C51 C 0.89205 0.43137 0.86661 0.0
O52 O 0.88676 0.40697 0.81979 0.0
O53 O 0.90586 0.42303 0.92819 0.0
O54 O 0.94134 0.35254 0.73543 0.0
O55 O 0.95979 0.35726 0.84922 0.0
O56 O 0.34559 0.35005 0.19164 0.0
Cd57 Cd 0.36973 0.39779 0.21385 0.0
Cd58 Cd 0.3593 0.40369 0.0719 0.0
O59 O 0.31974 0.3647 0.08791 0.0
O60 O 0.35866 0.40562 0.32005 0.0
O61 O 0.33205 0.43576 0.23161 0.0
C62 C 0.33319 0.42699 0.29952 0.0
C63 C 0.35834 0.46306 0.02987 0.0
C64 C 0.32346 0.34301 0.14119 0.0
C65 C 0.43384 0.38627 0.12067 0.0
O66 O 0.41006 0.38312 0.07163 0.0
O67 O 0.42485 0.39809 0.18337 0.0
O68 O 0.35572 0.43665 0.98472 0.0
O69 O 0.35752 0.45542 0.09835 0.0
O70 O 0.35494 0.69314 0.84865 0.0
Cd71 Cd 0.4038 0.67043 0.83015 0.0
Cd72 Cd 0.40911 0.68404 0.96907 0.0
O73 O 0.37024 0.72315 0.94699 0.0
O74 O 0.41374 0.68045 0.72423 0.0
O75 O 0.4403 0.70967 0.81364 0.0
C76 C 0.43351 0.70708 0.74505 0.0
C77 C 0.46859 0.68342 1.01019 0.0
C78 C 0.34805 0.71711 0.89546 0.0
C79 C 0.39411 0.60869 0.93047 0.0
O80 O 0.38813 0.63382 0.97515 0.0
O81 O 0.40661 0.61628 0.86746 0.0
O82 O 0.44255 0.68892 0.05532 0.0
O83 O 0.46078 0.68298 0.94182 0.0
O84 O 0.69962 0.68427 0.18466 0.0
Cd85 Cd 0.67673 0.6356 0.20495 0.0
Cd86 Cd 0.68891 0.63061 0.06379 0.0
O87 O 0.72642 0.67142 0.08111 0.0
O88 O 0.68695 0.62699 0.31109 0.0
O89 O 0.71541 0.59853 0.22314 0.0
C90 C 0.7131 0.60637 0.29132 0.0
C91 C 0.69242 0.57297 1.01411 0.0
C92 C 0.72188 0.69236 0.13509 0.0
C93 C 0.61313 0.64381 0.10906 0.0
O94 O 0.63729 0.64852 0.06153 0.0
O95 O 0.62189 0.63319 0.17284 0.0
O96 O 0.69343 0.60103 0.97271 0.0
O97 O 0.69364 0.57803 0.08353 0.0
O98 O 0.69072 0.33969 0.8523 0.0
Cd99 Cd 0.64224 0.36293 0.83125 0.0
Cd100 Cd 0.63703 0.35302 0.97269 0.0
O101 O 0.6774 0.31481 0.95767 0.0
O102 O 0.63339 0.35171 0.72576 0.0
O103 O 0.60442 0.32479 0.81529 0.0
C104 C 0.61223 0.32625 0.74697 0.0
C105 C 0.57944 0.35001 0.02383 0.0
C106 C 0.69873 0.31849 0.9039 0.0
C107 C 0.65347 0.42766 0.92152 0.0
O108 O 0.65632 0.40425 0.97135 0.0
O109 O 0.64187 0.41827 0.8589 0.0
O110 O 0.60773 0.34959 0.06461 0.0
O111 O 0.58423 0.3484 0.95437 0.0
O112 O 0.84761 0.68683 0.59187 0.0
Cd113 Cd 0.8711 0.63832 0.57351 0.0
Cd114 Cd 0.85935 0.63403 0.71427 0.0
O115 O 0.82071 0.6737 0.69512 0.0
O116 O 0.85983 0.62856 0.46819 0.0
O117 O 0.83305 0.60041 0.55891 0.0
C118 C 0.83415 0.60788 0.49035 0.0
C119 C 0.85634 0.57654 0.76597 0.0
C120 C 0.82518 0.6948 0.64112 0.0
C121 C 0.9347 0.64984 0.66742 0.0
O122 O 0.91055 0.65358 0.71538 0.0
O123 O 0.92609 0.63764 0.60481 0.0
O124 O 0.85498 0.60483 0.80635 0.0
O125 O 0.85563 0.58122 0.69639 0.0
O126 O 0.68875 0.19206 0.44528 0.0
Cd127 Cd 0.64109 0.1677 0.46717 0.0
Cd128 Cd 0.63413 0.17914 0.32643 0.0
O129 O 0.67268 0.21908 0.34362 0.0
O130 O 0.63264 0.17897 0.57292 0.0
O131 O 0.60288 0.2052 0.48349 0.0
C132 C 0.61135 0.20436 0.55154 0.0
C133 C 0.57471 0.17903 0.2842 0.0
C134 C 0.695 0.21492 0.39571 0.0
C135 C 0.65285 0.1046 0.3722 0.0
O136 O 0.65562 0.12885 0.32398 0.0
O137 O 0.64108 0.11287 0.43535 0.0
O138 O 0.60113 0.18296 0.23927 0.0
O139 O 0.58223 0.17933 0.35272 0.0
O140 O 0.20025 0.35292 0.61629 0.0
Cd141 Cd 0.1776 0.40133 0.59206 0.0
Cd142 Cd 0.18809 0.40747 0.73495 0.0
O143 O 0.22498 0.36574 0.72207 0.0
O144 O 0.18766 0.40713 0.48522 0.0
O145 O 0.21607 0.43815 0.56964 0.0
C146 C 0.21363 0.42853 0.5024 0.0
C147 C 0.19195 0.4648 0.78585 0.0
C148 C 0.22129 0.34468 0.668 0.0
C149 C 0.11267 0.39497 0.6848 0.0
O150 O 0.13608 0.39077 0.73415 0.0
O151 O 0.12241 0.40438 0.6209 0.0
O152 O 0.19139 0.43657 0.82675 0.0
O153 O 0.19463 0.46003 0.71649 0.0
O154 O 0.35402 0.8432 0.44482 0.0
Cd155 Cd 0.40225 0.86673 0.46619 0.0
Cd156 Cd 0.40794 0.85663 0.32497 0.0
O157 O 0.36786 0.81813 0.34019 0.0
O158 O 0.41124 0.85443 0.57126 0.0
O159 O 0.44051 0.82897 0.48067 0.0
C160 C 0.43245 0.82928 0.54893 0.0
C161 C 0.4654 0.85398 0.27306 0.0
C162 C 0.34634 0.82181 0.39361 0.0
C163 C 0.39054 0.93119 0.37539 0.0
O164 O 0.38818 0.90768 0.32591 0.0
O165 O 0.40213 0.92206 0.43828 0.0
O166 O 0.43698 0.85344 0.23268 0.0
O167 O 0.46085 0.85235 0.34259 0.0
O168 O 0.84295 0.85328 0.68527 0.0
Cd169 Cd 0.86661 0.90148 0.70656 0.0
Cd170 Cd 0.85633 0.90649 0.56379 0.0
O171 O 0.81885 0.86542 0.57848 0.0
O172 O 0.85523 0.90949 0.81226 0.0
O173 O 0.829 0.93966 0.72344 0.0
C174 C 0.82994 0.931 0.79144 0.0
C175 C 0.85139 0.9636 0.51142 0.0
C176 C 0.82197 0.84485 0.6337 0.0
C177 C 0.93156 0.89143 0.61585 0.0
O178 O 0.90815 0.88877 0.56603 0.0
O179 O 0.92201 0.90204 0.67901 0.0
O180 O 0.85319 0.93532 0.47111 0.0
O181 O 0.8491 0.95901 0.58088 0.0
O182 O 0.85361 0.19664 0.34851 0.0
Cd183 Cd 0.90206 0.17323 0.32953 0.0
Cd184 Cd 0.90504 0.18309 0.4713 0.0
O185 O 0.8654 0.22197 0.45386 0.0
O186 O 0.91143 0.18532 0.22442 0.0
O187 O 0.94028 0.21109 0.31526 0.0
C188 C 0.93245 0.21061 0.24685 0.0
C189 C 0.96215 0.18501 0.52513 0.0
C190 C 0.84498 0.21829 0.3986 0.0
C191 C 0.88776 0.10885 0.4183 0.0
O192 O 0.88481 0.13223 0.46787 0.0
O193 O 0.90118 0.11781 0.35686 0.0
O194 O 0.93346 0.18559 0.56461 0.0
O195 O 0.95808 0.18699 0.45547 0.0
O196 O 0.19295 0.18645 0.70815 0.0
Cd197 Cd 0.16997 0.1375 0.72448 0.0
Cd198 Cd 0.18261 0.13443 0.58425 0.0
O199 O 0.22115 0.17384 0.6062 0.0
O200 O 0.18128 0.12642 0.82936 0.0
O201 O 0.20852 0.09996 0.73745 0.0
C202 C 0.20731 0.10646 0.8063 0.0
C203 C 0.1858 0.07721 0.53198 0.0
C204 C 0.21602 0.19466 0.6602 0.0
C205 C 0.10691 0.14919 0.62911 0.0
O206 O 0.1314 0.15391 0.58216 0.0
O207 O 0.11521 0.13631 0.69148 0.0
O208 O 0.18771 0.1057 0.49193 0.0
O209 O 0.18591 0.08154 0.6016 0.0
O210 O 0.18783 0.84687 0.35158 0.0
Cd211 Cd 0.139 0.86973 0.33353 0.0
Cd212 Cd 0.13566 0.85698 0.47415 0.0
O213 O 0.17537 0.81858 0.45375 0.0
O214 O 0.1301 0.86015 0.22719 0.0
O215 O 0.10201 0.83105 0.31501 0.0
C216 C 0.10971 0.83374 0.24678 0.0
C217 C 0.0775 0.85418 0.5222 0.0
C218 C 0.19607 0.82375 0.39948 0.0
C219 C 0.15047 0.9326 0.42901 0.0
O220 O 0.15511 0.90811 0.47615 0.0
O221 O 0.13774 0.92436 0.36658 0.0
O222 O 0.10524 0.85198 0.56434 0.0
O223 O 0.08314 0.85401 0.45291 0.0
C224 C 0.36249 0.97454 0.28811 0.0
C225 C 0.37847 0.96849 0.3567 0.0
C226 C 0.35188 1.00878 0.2652 0.0
C227 C 0.35639 0.03897 0.30964 0.0
H228 H 0.35849 0.95262 0.25047 0.0
H229 H 0.34069 1.01162 0.21119 0.0
S230 S 0.39519 0.03842 0.49564 0.0
N231 N 0.39695 0.99597 0.47021 0.0
N232 N 0.37695 0.06061 0.42713 0.0
C233 C 0.37117 0.03347 0.37947 0.0
C234 C 0.38221 0.99828 0.40292 0.0
C235 C 1.01284 0.68435 0.78154 0.0
C236 C 0.04307 0.6807 0.73666 0.0
C237 C 0.97845 0.67465 0.75775 0.0
C238 C 0.97225 0.66057 0.68769 0.0
H239 H 1.01572 0.69422 0.83648 0.0
H240 H 0.95654 0.67791 0.79578 0.0
S241 S 0.0421 0.64684 0.54701 0.0
N242 N 0.06449 0.66299 0.61716 0.0
N243 N 0.99962 0.64474 0.57251 0.0
C244 C 1.00208 0.65757 0.64123 0.0
C245 C 0.03742 0.66765 0.66558 0.0
C246 C 0.6849 0.02682 0.25509 0.0
C247 C 0.68425 0.99688 0.30152 0.0
C248 C 0.67504 0.061 0.27929 0.0
C249 C 0.66382 0.06729 0.35138 0.0
H250 H 0.6924 0.02385 0.19864 0.0
H251 H 0.6758 0.08266 0.23999 0.0
S252 S 0.65917 0.99835 0.49677 0.0
N253 N 0.67283 0.97592 0.42467 0.0
N254 N 0.6543 0.04045 0.47014 0.0
C255 C 0.66397 0.03781 0.39933 0.0
C256 C 0.67421 1.00267 0.37452 0.0
C257 C 0.04976 0.37199 0.6584 0.0
C258 C 0.07446 0.38858 0.70553 0.0
C259 C 1.01529 0.36154 0.68289 0.0
C260 C 1.00441 0.36707 0.75547 0.0
H261 H 0.05746 0.36605 0.60306 0.0
H262 H 0.99724 0.34866 0.64492 0.0
S263 S 0.05773 0.41357 0.89769 0.0
N264 N 0.08429 0.41296 0.82617 0.0
N265 N 0.02056 0.39314 0.87198 0.0
C266 C 0.02861 0.38472 0.80209 0.0
C267 C 0.06327 0.39554 0.77716 0.0
C268 C 0.36858 0.50881 0.92973 0.0
C269 C 0.36581 0.50054 1.00444 0.0
C270 C 0.37853 0.54343 0.90541 0.0
C271 C 0.3861 0.57117 0.95486 0.0
H272 H 0.36327 0.48833 0.88955 0.0
H273 H 0.3798 0.54859 0.8476 0.0
S274 S 0.38495 0.56316 0.15633 0.0
N275 N 0.37269 0.52318 0.12735 0.0
N276 N 0.39171 0.58724 0.08245 0.0
C277 C 0.38389 0.563 0.02966 0.0
C278 C 0.37364 0.52806 0.05419 0.0
C279 C 0.51552 0.67687 0.10958 0.0
C280 C 0.50557 0.67379 0.03579 0.0
C281 C 0.54976 0.66586 0.13452 0.0
C282 C 0.57526 0.6512 0.08661 0.0
H283 H 0.49681 0.68806 0.14837 0.0
H284 H 0.55661 0.66973 0.19109 0.0
S285 S 0.56148 0.63352 0.89003 0.0
N286 N 0.52372 0.65252 0.91655 0.0
N287 N 0.58701 0.63161 0.9631 0.0
C288 C 0.56513 0.64691 1.01338 0.0
C289 C 0.53067 0.65827 0.98806 0.0
C290 C 0.67968 0.47197 1.00878 0.0
C291 C 0.66485 0.46523 0.93948 0.0
C292 C 0.6899 0.50644 0.03061 0.0
C293 C 0.68608 0.53622 0.9844 0.0
H294 H 0.68312 0.45042 0.04774 0.0
H295 H 0.70027 0.50979 0.08514 0.0
S296 S 0.65027 0.53379 0.79601 0.0
N297 N 0.64813 0.4916 0.82351 0.0
N298 N 0.66734 0.55666 0.86454 0.0
C299 C 0.67234 0.53002 0.91399 0.0
C300 C 0.66173 0.49459 0.89163 0.0
C301 C 0.47824 0.36222 0.03101 0.0
C302 C 0.47149 0.37553 0.10144 0.0
C303 C 0.51279 0.35273 1.00807 0.0
C304 C 0.54266 0.35583 0.05424 0.0
H305 H 0.45664 0.35945 0.992 0.0
H306 H 0.5161 0.34351 0.95278 0.0
S307 S 0.5402 0.38736 0.24546 0.0
N308 N 0.49794 0.38989 0.21844 0.0
N309 N 0.56313 0.37201 0.17539 0.0
C310 C 0.53646 0.36802 0.12572 0.0
C311 C 0.50094 0.37789 0.1492 0.0
C312 C 0.8685 0.47546 0.77533 0.0
C313 C 0.8817 0.46895 0.84609 0.0
C314 C 0.8591 0.50992 0.75152 0.0
C315 C 0.86216 0.5399 0.79712 0.0
H316 H 0.86577 0.45374 0.73678 0.0
H317 H 0.84994 0.51308 0.69604 0.0
S318 S 0.89362 0.53807 0.98867 0.0
N319 N 0.89609 0.49576 0.96262 0.0
N320 N 0.87835 0.56077 0.91793 0.0
C321 C 0.87433 0.53395 0.86883 0.0
C322 C 0.88416 0.49855 0.89318 0.0
C323 C 0.52852 0.17176 0.18377 0.0
C324 C 0.53747 0.17073 0.25835 0.0
C325 C 0.49399 0.1619 0.15871 0.0
C326 C 0.46711 0.15056 0.20731 0.0
H327 H 0.54831 0.18035 0.14435 0.0
H328 H 0.48809 0.16398 0.10129 0.0
S329 S 0.47749 0.1396 0.40695 0.0
N330 N 0.51664 0.15524 0.3796 0.0
N331 N 0.45276 0.13645 0.33298 0.0
C332 C 0.47611 0.14847 0.28161 0.0
C333 C 0.51091 0.15864 0.30699 0.0
C334 C 0.18266 0.56615 0.79322 0.0
C335 C 0.16469 0.57275 0.85942 0.0
C336 C 0.19274 0.53153 0.77195 0.0
C337 C 0.18569 0.50151 0.81581 0.0
H338 H 0.18866 0.58794 0.75615 0.0
H339 H 0.20554 0.52828 0.71961 0.0
S340 S 0.14083 0.50342 0.99596 0.0
N341 N 0.14149 0.54592 0.97016 0.0
N342 N 0.16051 0.48062 0.93031 0.0
C343 C 0.16889 0.50754 0.88346 0.0
C344 C 0.1584 0.5431 0.90517 0.0
C345 C 0.53208 0.85706 0.28799 0.0
C346 C 0.50207 0.85981 0.24207 0.0
C347 C 0.56658 0.86625 0.26417 0.0
C348 C 0.57312 0.87888 0.19301 0.0
H349 H 0.52895 0.84827 0.34372 0.0
H350 H 0.58831 0.86374 0.30298 0.0
S351 S 0.50393 0.88989 0.04952 0.0
N352 N 0.4812 0.87518 0.12058 0.0
N353 N 0.5463 0.89247 0.07582 0.0
C354 C 0.54349 0.88106 0.14564 0.0
C355 C 0.50804 0.8715 0.17004 0.0
C356 C 0.87836 1.00632 0.41997 0.0
C357 C 0.85579 1.00027 0.48033 0.0
C358 C 0.88774 0.04141 0.39773 0.0
C359 C 0.87474 0.07171 0.43494 0.0
H360 H 0.89034 0.98378 0.39195 0.0
H361 H 0.90639 0.04474 0.35316 0.0
S362 S 0.80964 0.07013 0.58835 0.0
N363 N 0.81754 0.02742 0.57123 0.0
N364 N 0.83406 0.09286 0.52938 0.0
C365 C 0.85014 0.06577 0.49224 0.0
C366 C 0.84098 0.03025 0.51498 0.0
C367 C 0.02896 0.18255 0.5127 0.0
C368 C 0.99858 0.17889 0.5572 0.0
C369 C 0.06332 0.17317 0.53731 0.0
C370 C 0.06934 0.15941 0.60784 0.0
H371 H 0.02624 0.19222 0.45747 0.0
H372 H 0.08535 0.17644 0.49955 0.0
S373 S 0.99899 0.14562 0.74764 0.0
N374 N 0.97678 0.16139 0.67672 0.0
N375 N 0.0416 0.14373 0.72293 0.0
C376 C 0.03933 0.15631 0.65385 0.0
C377 C 1.00402 0.16607 0.62866 0.0
C378 C 0.17251 0.97635 0.52187 0.0
C379 C 0.16053 0.97012 0.4502 0.0
C380 C 0.1819 1.01063 0.54624 0.0
C381 C 0.18003 0.04074 0.50039 0.0
H382 H 0.17431 0.95454 0.56069 0.0
H383 H 0.19013 1.01354 0.60233 0.0
S384 S 0.152 0.03967 0.30667 0.0
N385 N 0.14856 0.99732 0.33262 0.0
N386 N 0.16624 0.06204 0.37844 0.0
C387 C 0.16903 0.03508 0.42788 0.0
C388 C 0.15924 0.99984 0.4029 0.0
C389 C 0.977 0.8714 0.5245 0.0
C390 C 0.96936 0.88115 0.59691 0.0
C391 C 1.01151 0.86142 0.5023 0.0
C392 C 0.04051 0.86054 0.5511 0.0
H393 H 0.95615 0.87174 0.48347 0.0
H394 H 1.01549 0.85495 0.4456 0.0
S395 S 0.03546 0.88202 0.74779 0.0
N396 N 0.99395 0.88804 0.71829 0.0
N397 N 0.05916 0.86939 0.67653 0.0
C398 C 0.03341 0.86941 0.62425 0.0
C399 C 0.9979 0.87972 0.64705 0.0
C400 C 0.3047 0.28797 0.20762 0.0
C401 C 0.30764 0.30653 0.141 0.0
C402 C 0.30406 0.25036 0.21029 0.0
C403 C 0.3065 0.23017 0.14635 0.0
H404 H 0.30649 0.30246 0.2584 0.0
H405 H 0.30573 0.23728 0.26277 0.0
S406 S 0.30404 0.26573 0.95805 0.0
N407 N 0.30504 0.30191 1.00961 0.0
N408 N 0.30372 0.23119 1.01445 0.0
C409 C 0.30399 0.2484 0.0794 0.0
C410 C 0.3045 0.2867 0.0767 0.0
C411 C 0.25472 0.73478 0.82665 0.0
C412 C 0.23484 0.73417 0.89131 0.0
C413 C 0.2924 0.73385 0.82837 0.0
C414 C 0.31137 0.73254 0.89469 0.0
H415 H 0.2413 0.73196 0.77478 0.0
H416 H 0.30662 0.73071 0.7775 0.0
S417 S 0.27167 0.73929 0.07821 0.0
N418 N 0.23678 0.73931 1.02282 0.0
N419 N 0.30753 0.73731 0.02578 0.0
C420 C 0.29191 0.73706 0.95911 0.0
C421 C 0.25357 0.73791 0.95743 0.0
C422 C 0.73514 0.78729 0.07469 0.0
C423 C 0.73484 0.80563 0.14166 0.0
C424 C 0.73605 0.74969 0.07176 0.0
C425 C 0.73652 0.72926 0.13581 0.0
H426 H 0.73128 0.80192 0.02438 0.0
H427 H 0.73234 0.73675 1.01971 0.0
S428 S 0.74621 0.76413 0.32323 0.0
N429 N 0.74282 0.8005 0.27221 0.0
N430 N 0.74452 0.72982 0.26677 0.0
C431 C 0.74149 0.74729 0.20218 0.0
C432 C 0.74072 0.78557 0.20515 0.0
C433 C 0.75468 0.30089 0.83908 0.0
C434 C 0.73591 0.30428 0.90526 0.0
C435 C 0.79236 0.30159 0.83682 0.0
C436 C 0.8124 0.3059 0.90075 0.0
H437 H 0.74015 0.3012 0.7881 0.0
H438 H 0.80547 0.30279 0.78442 0.0
S439 S 0.77662 0.30732 0.08856 0.0
N440 N 0.74049 0.3054 0.03668 0.0
N441 N 0.81122 0.30634 0.0327 0.0
C442 C 0.79412 0.30413 0.96764 0.0
C443 C 0.7558 0.30338 0.96991 0.0
C444 C 0.80922 0.75016 0.57222 0.0
C445 C 0.80966 0.73146 0.63899 0.0
C446 C 0.8081 0.78776 0.56968 0.0
C447 C 0.8075 0.80785 0.63393 0.0
H448 H 0.8132 0.73583 0.52177 0.0
H449 H 0.81176 0.80097 0.51776 0.0
S450 S 0.79758 0.77185 0.82085 0.0
N451 N 0.80139 0.7358 0.76947 0.0
N452 N 0.79911 0.80649 0.7648 0.0
C453 C 0.80245 0.78942 0.70005 0.0
C454 C 0.80352 0.75112 0.70262 0.0
C455 C 0.78816 0.23517 0.46155 0.0
C456 C 0.80791 0.2328 0.3969 0.0
C457 C 0.75048 0.23417 0.46023 0.0
C458 C 0.73139 0.23098 0.39433 0.0
H459 H 0.80167 0.23371 0.51356 0.0
H460 H 0.73637 0.23232 0.51152 0.0
S461 S 0.77066 0.23296 0.20996 0.0
N462 N 0.80566 0.23459 0.26495 0.0
N463 N 0.73492 0.2323 0.26287 0.0
C464 C 0.75068 0.2339 0.32932 0.0
C465 C 0.78902 0.23489 0.33058 0.0
C466 C 0.23282 0.28728 0.73325 0.0
C467 C 0.23527 0.30753 0.66916 0.0
C468 C 0.23103 0.24971 0.73052 0.0
C469 C 0.23175 0.23121 0.66372 0.0
H470 H 0.22823 0.30044 0.78476 0.0
H471 H 0.2257 0.23532 0.78055 0.0
S472 S 0.24851 0.27193 0.48325 0.0
N473 N 0.24638 0.30642 0.5392 0.0
N474 N 0.24296 0.23579 0.53412 0.0
C475 C 0.23964 0.25094 0.60076 0.0
C476 C 0.24136 0.2892 0.60353 0.0
C477 C 0.25278 0.80426 0.46034 0.0
C478 C 0.23278 0.80846 0.39629 0.0
C479 C 0.29047 0.80381 0.45828 0.0
C480 C 0.30929 0.80734 0.39217 0.0
H481 H 0.23961 0.80528 0.51268 0.0
H482 H 0.30493 0.80418 0.50934 0.0
S483 S 0.2688 0.81012 0.20863 0.0
N484 N 0.23413 0.80896 0.26431 0.0
N485 N 0.30487 0.80846 0.26073 0.0
C486 C 0.28948 0.80637 0.32743 0.0
C487 C 0.25116 0.80689 0.32949 0.0
C488 C 0.23374 0.09753 0.93119 0.0
C489 C 0.23816 0.09724 0.85527 0.0
C490 C 0.26349 0.09677 0.9786 0.0
C491 C 0.29906 0.09665 0.95221 0.0
H492 H 0.20711 0.10001 0.95427 0.0
H493 H 0.25853 0.0989 0.03633 0.0
S494 S 0.32559 0.0923 0.75849 0.0
N495 N 0.28126 0.09338 0.75634 0.0
N496 N 0.33681 0.09328 0.84519 0.0
C497 C 0.30384 0.09434 0.87666 0.0
C498 C 0.27354 0.09425 0.82837 0.0
C499 C 0.1013 0.76807 0.22087 0.0
C500 C 0.10157 0.8038 0.19529 0.0
C501 C 0.10219 0.73868 0.17282 0.0
C502 C 0.10231 0.74365 0.097 0.0
H503 H 0.10297 0.76267 0.27856 0.0
H504 H 0.1043 0.71188 0.19534 0.0
S505 S 0.09916 0.8317 1.00197 0.0
N506 N 0.09954 0.8423 0.08893 0.0
N507 N 0.09976 0.78741 0.99889 0.0
C508 C 0.09993 0.77921 0.07078 0.0
C509 C 0.09998 0.80913 0.11975 0.0
C510 C 0.77544 0.93936 0.96571 0.0
C511 C 0.73964 0.9394 0.94055 0.0
C512 C 0.80472 0.93902 0.91726 0.0
C513 C 0.79955 0.93976 0.84153 0.0
H514 H 0.78097 0.93693 0.02324 0.0
H515 H 0.83159 0.93653 0.93934 0.0
S516 S 0.71122 0.9445 0.74781 0.0
N517 N 0.70083 0.94298 0.83487 0.0
N518 N 0.75554 0.94381 0.74412 0.0
C519 C 0.76392 0.94265 0.81587 0.0
C520 C 0.7341 0.94204 0.8652 0.0
C521 C 0.94214 0.23689 0.12211 0.0
C522 C 0.94158 0.24147 0.19795 0.0
C523 C 0.94312 0.26653 0.07439 0.0
C524 C 0.94251 0.30213 0.10033 0.0
H525 H 0.94028 0.2102 0.09927 0.0
H526 H 0.94177 0.26142 1.01662 0.0
S527 S 0.94379 0.32903 0.29393 0.0
N528 N 0.94341 0.28472 0.29655 0.0
N529 N 0.94382 0.34008 0.20708 0.0
C530 C 0.94372 0.30708 0.17594 0.0
C531 C 0.94365 0.27689 0.22458 0.0
C532 C 0.27899 0.43851 0.47385 0.0
C533 C 0.24311 0.43625 0.44944 0.0
C534 C 0.30814 0.43753 0.425 0.0
C535 C 0.30267 0.43542 0.34949 0.0
H536 H 0.28476 0.43856 0.53148 0.0
H537 H 0.33519 0.43707 0.44673 0.0
S538 S 0.21398 0.43201 0.25705 0.0
N539 N 0.20392 0.43367 0.34422 0.0
N540 N 0.25827 0.4333 0.25268 0.0
C541 C 0.26688 0.43554 0.32421 0.0
C542 C 0.23727 0.43556 0.37401 0.0
C543 C 0.44144 0.80267 0.67354 0.0
C544 C 0.44152 0.79834 0.59765 0.0
C545 C 0.44215 0.77289 0.72085 0.0
C546 C 0.44191 0.73739 0.6944 0.0
H547 H 0.43923 0.82928 0.69667 0.0
H548 H 0.44028 0.77781 0.77863 0.0
S549 S 0.44524 0.71113 0.50055 0.0
N550 N 0.44459 0.75544 0.49852 0.0
N551 N 0.4445 0.69978 0.58723 0.0
C552 C 0.44387 0.73268 0.61881 0.0
C553 C 0.44409 0.76302 0.57059 0.0
C554 C 0.77888 0.59782 0.31701 0.0
C555 C 0.74318 0.59803 0.34261 0.0
C556 C 0.80837 0.5987 0.36507 0.0
C557 C 0.80353 0.59878 0.44088 0.0
H558 H 0.78415 0.5996 0.25931 0.0
H559 H 0.83515 0.6009 0.34255 0.0
S560 S 0.71556 0.59516 0.53584 0.0
N561 N 0.70482 0.59567 0.44887 0.0
N562 N 0.75989 0.59589 0.53896 0.0
C563 C 0.76799 0.59623 0.46708 0.0
C564 C 0.73797 0.59626 0.41811 0.0
C565 C 0.60372 0.23068 0.67663 0.0
C566 C 0.60278 0.23514 0.60071 0.0
C567 C 0.6034 0.26041 0.72386 0.0
C568 C 0.60321 0.29593 0.69717 0.0
H569 H 0.60631 0.20405 0.69977 0.0
H570 H 0.60597 0.25547 0.78159 0.0
S571 S 0.59773 0.32254 0.50342 0.0
N572 N 0.59849 0.27824 0.50156 0.0
N573 N 0.59939 0.33371 0.59002 0.0
C574 C 0.60044 0.30075 0.62167 0.0
C575 C 0.5998 0.27051 0.57362 0.0
loop_
_geom_bond_atom_site_label_1
_geom_bond_atom_site_label_2
_geom_bond_distance
_geom_bond_site_symmetry_2
_ccdc_geom_bond_type
O0 Cd1 2.223 . S
O0 C8 1.315 . S
Cd1 O0 2.223 . S
Cd1 O4 2.297 1_554 S
Cd1 O5 2.439 . S
Cd1 O11 2.240 . S
Cd2 O3 2.240 . S
Cd2 O10 2.223 . S
Cd2 O12 2.297 . S
Cd2 O13 2.439 . S
O3 Cd2 2.240 . S
O3 C8 1.279 . S
O4 Cd1 2.297 1_556 S
O4 C6 1.247 . S
O5 Cd1 2.439 . S
O5 C6 1.208 1_554 S
C6 O4 1.247 . S
C6 O5 1.208 1_556 S
C7 O12 1.247 . S
C7 O13 1.208 . S
C8 O0 1.315 . S
C8 O3 1.279 . S
C9 O10 1.315 . S
C9 O11 1.279 . S
O10 Cd2 2.223 . S
O10 C9 1.315 . S
O11 Cd1 2.240 . S
O11 C9 1.279 . S
O12 Cd2 2.297 . S
O12 C7 1.247 . S
O13 Cd2 2.439 . S
O13 C7 1.208 . S
O14 Cd15 2.223 . S
O14 C22 1.315 . S
Cd15 O14 2.223 . S
Cd15 O18 2.297 1_556 S
Cd15 O19 2.439 . S
Cd15 O25 2.240 . S
Cd16 O17 2.240 . S
Cd16 O24 2.223 . S
Cd16 O26 2.297 . S
Cd16 O27 2.439 . S
O17 Cd16 2.240 . S
O17 C22 1.279 . S
O18 Cd15 2.297 1_554 S
O18 C20 1.247 . S
O19 Cd15 2.439 . S
O19 C20 1.208 1_556 S
C20 O18 1.247 . S
C20 O19 1.208 1_554 S
C21 O26 1.247 . S
C21 O27 1.208 . S
C22 O14 1.315 . S
C22 O17 1.279 . S
C23 O24 1.315 . S
C23 O25 1.279 . S
O24 Cd16 2.223 . S
O24 C23 1.315 . S
O25 Cd15 2.240 . S
O25 C23 1.279 . S
O26 Cd16 2.297 . S
O26 C21 1.247 . S
O27 Cd16 2.439 . S
O27 C21 1.208 . S
O28 Cd29 2.223 . S
O28 C36 1.315 . S
Cd29 O28 2.223 . S
Cd29 O32 2.297 1_554 S
Cd29 O33 2.439 . S
Cd29 O39 2.240 . S
Cd30 O31 2.240 . S
Cd30 O38 2.223 . S
Cd30 O40 2.297 . S
Cd30 O41 2.439 . S
O31 Cd30 2.240 . S
O31 C36 1.279 . S
O32 Cd29 2.297 1_556 S
O32 C34 1.247 . S
O33 Cd29 2.439 . S
O33 C34 1.208 1_554 S
C34 O32 1.247 . S
C34 O33 1.208 1_556 S
C35 O40 1.247 . S
C35 O41 1.208 . S
C36 O28 1.315 . S
C36 O31 1.279 . S
C37 O38 1.315 . S
C37 O39 1.279 . S
O38 Cd30 2.223 . S
O38 C37 1.315 . S
O39 Cd29 2.240 . S
O39 C37 1.279 . S
O40 Cd30 2.297 . S
O40 C35 1.247 . S
O41 Cd30 2.439 . S
O41 C35 1.208 . S
O42 Cd43 2.223 . S
O42 C50 1.315 . S
Cd43 O42 2.223 . S
Cd43 O46 2.297 1_556 S
Cd43 O47 2.439 . S
Cd43 O53 2.240 . S
Cd44 O45 2.240 . S
Cd44 O52 2.223 . S
Cd44 O54 2.297 . S
Cd44 O55 2.439 . S
O45 Cd44 2.240 . S
O45 C50 1.279 . S
O46 Cd43 2.297 1_554 S
O46 C48 1.247 . S
O47 Cd43 2.439 . S
O47 C48 1.208 1_556 S
C48 O46 1.247 . S
C48 O47 1.208 1_554 S
C49 O54 1.247 . S
C49 O55 1.208 . S
C50 O42 1.315 . S
C50 O45 1.279 . S
C51 O52 1.315 . S
C51 O53 1.279 . S
O52 Cd44 2.223 . S
O52 C51 1.315 . S
O53 Cd43 2.240 . S
O53 C51 1.279 . S
O54 Cd44 2.297 . S
O54 C49 1.247 . S
O55 Cd44 2.439 . S
O55 C49 1.208 . S
O56 Cd57 2.223 . S
O56 C64 1.315 . S
Cd57 O56 2.223 . S
Cd57 O60 2.297 . S
Cd57 O61 2.439 . S
Cd57 O67 2.240 . S
Cd58 O59 2.240 . S
Cd58 O66 2.223 1_554 S
Cd58 O68 2.297 1_554 S
Cd58 O69 2.439 . S
O59 Cd58 2.240 . S
O59 C64 1.279 . S
O60 Cd57 2.297 . S
O60 C62 1.247 . S
O61 Cd57 2.439 . S
O61 C62 1.208 . S
C62 O60 1.247 . S
C62 O61 1.208 . S
C63 O68 1.247 . S
C63 O69 1.208 1_556 S
C64 O56 1.315 . S
C64 O59 1.279 . S
C65 O66 1.315 1_554 S
C65 O67 1.279 . S
O66 Cd58 2.223 1_556 S
O66 C65 1.315 1_556 S
O67 Cd57 2.240 . S
O67 C65 1.279 . S
O68 Cd58 2.297 1_556 S
O68 C63 1.247 . S
O69 Cd58 2.439 . S
O69 C63 1.208 1_554 S
O70 Cd71 2.223 . S
O70 C78 1.315 . S
Cd71 O70 2.223 . S
Cd71 O74 2.297 . S
Cd71 O75 2.439 . S
Cd71 O81 2.240 . S
Cd72 O73 2.240 . S
Cd72 O80 2.223 1_556 S
Cd72 O82 2.297 1_556 S
Cd72 O83 2.439 . S
O73 Cd72 2.240 . S
O73 C78 1.279 . S
O74 Cd71 2.297 . S
O74 C76 1.247 . S
O75 Cd71 2.439 . S
O75 C76 1.208 . S
C76 O74 1.247 . S
C76 O75 1.208 . S
C77 O82 1.247 . S
C77 O83 1.208 1_554 S
C78 O70 1.315 . S
C78 O73 1.279 . S
C79 O80 1.315 1_556 S
C79 O81 1.279 . S
O80 Cd72 2.223 1_554 S
O80 C79 1.315 1_554 S
O81 Cd71 2.240 . S
O81 C79 1.279 . S
O82 Cd72 2.297 1_554 S
O82 C77 1.247 . S
O83 Cd72 2.439 . S
O83 C77 1.208 1_556 S
O84 Cd85 2.223 . S
O84 C92 1.315 . S
Cd85 O84 2.223 . S
Cd85 O88 2.297 . S
Cd85 O89 2.439 . S
Cd85 O95 2.240 . S
Cd86 O87 2.240 . S
Cd86 O94 2.223 1_554 S
Cd86 O96 2.297 1_554 S
Cd86 O97 2.439 . S
O87 Cd86 2.240 . S
O87 C92 1.279 . S
O88 Cd85 2.297 . S
O88 C90 1.247 . S
O89 Cd85 2.439 . S
O89 C90 1.208 . S
C90 O88 1.247 . S
C90 O89 1.208 . S
C91 O96 1.247 . S
C91 O97 1.208 1_556 S
C92 O84 1.315 . S
C92 O87 1.279 . S
C93 O94 1.315 1_554 S
C93 O95 1.279 . S
O94 Cd86 2.223 1_556 S
O94 C93 1.315 1_556 S
O95 Cd85 2.240 . S
O95 C93 1.279 . S
O96 Cd86 2.297 1_556 S
O96 C91 1.247 . S
O97 Cd86 2.439 . S
O97 C91 1.208 1_554 S
O98 Cd99 2.223 . S
O98 C106 1.315 . S
Cd99 O98 2.223 . S
Cd99 O102 2.297 . S
Cd99 O103 2.439 . S
Cd99 O109 2.240 . S
Cd100 O101 2.240 . S
Cd100 O108 2.223 1_556 S
Cd100 O110 2.297 1_556 S
Cd100 O111 2.439 . S
O101 Cd100 2.240 . S
O101 C106 1.279 . S
O102 Cd99 2.297 . S
O102 C104 1.247 . S
O103 Cd99 2.439 . S
O103 C104 1.208 . S
C104 O102 1.247 . S
C104 O103 1.208 . S
C105 O110 1.247 . S
C105 O111 1.208 1_554 S
C106 O98 1.315 . S
C106 O101 1.279 . S
C107 O108 1.315 1_556 S
C107 O109 1.279 . S
O108 Cd100 2.223 1_554 S
O108 C107 1.315 1_554 S
O109 Cd99 2.240 . S
O109 C107 1.279 . S
O110 Cd100 2.297 1_554 S
O110 C105 1.247 . S
O111 Cd100 2.439 . S
O111 C105 1.208 1_556 S
O112 Cd113 2.223 . S
O112 C120 1.315 . S
Cd113 O112 2.223 . S
Cd113 O116 2.297 . S
Cd113 O117 2.439 . S
Cd113 O123 2.240 . S
Cd114 O115 2.240 . S
Cd114 O122 2.223 . S
Cd114 O124 2.297 . S
Cd114 O125 2.439 . S
O115 Cd114 2.240 . S
O115 C120 1.279 . S
O116 Cd113 2.297 . S
O116 C118 1.247 . S
O117 Cd113 2.439 . S
O117 C118 1.208 . S
C118 O116 1.247 . S
C118 O117 1.208 . S
C119 O124 1.247 . S
C119 O125 1.208 . S
C120 O112 1.315 . S
C120 O115 1.279 . S
C121 O122 1.315 . S
C121 O123 1.279 . S
O122 Cd114 2.223 . S
O122 C121 1.315 . S
O123 Cd113 2.240 . S
O123 C121 1.279 . S
O124 Cd114 2.297 . S
O124 C119 1.247 . S
O125 Cd114 2.439 . S
O125 C119 1.208 . S
O126 Cd127 2.223 . S
O126 C134 1.315 . S
Cd127 O126 2.223 . S
Cd127 O130 2.297 . S
Cd127 O131 2.439 . S
Cd127 O137 2.240 . S
Cd128 O129 2.240 . S
Cd128 O136 2.223 . S
Cd128 O138 2.297 . S
Cd128 O139 2.439 . S
O129 Cd128 2.240 . S
O129 C134 1.279 . S
O130 Cd127 2.297 . S
O130 C132 1.247 . S
O131 Cd127 2.439 . S
O131 C132 1.208 . S
C132 O130 1.247 . S
C132 O131 1.208 . S
C133 O138 1.247 . S
C133 O139 1.208 . S
C134 O126 1.315 . S
C134 O129 1.279 . S
C135 O136 1.315 . S
C135 O137 1.279 . S
O136 Cd128 2.223 . S
O136 C135 1.315 . S
O137 Cd127 2.240 . S
O137 C135 1.279 . S
O138 Cd128 2.297 . S
O138 C133 1.247 . S
O139 Cd128 2.439 . S
O139 C133 1.208 . S
O140 Cd141 2.223 . S
O140 C148 1.315 . S
Cd141 O140 2.223 . S
Cd141 O144 2.297 . S
Cd141 O145 2.439 . S
Cd141 O151 2.240 . S
Cd142 O143 2.240 . S
Cd142 O150 2.223 . S
Cd142 O152 2.297 . S
Cd142 O153 2.439 . S
O143 Cd142 2.240 . S
O143 C148 1.279 . S
O144 Cd141 2.297 . S
O144 C146 1.247 . S
O145 Cd141 2.439 . S
O145 C146 1.208 . S
C146 O144 1.247 . S
C146 O145 1.208 . S
C147 O152 1.247 . S
C147 O153 1.208 . S
C148 O140 1.315 . S
C148 O143 1.279 . S
C149 O150 1.315 . S
C149 O151 1.279 . S
O150 Cd142 2.223 . S
O150 C149 1.315 . S
O151 Cd141 2.240 . S
O151 C149 1.279 . S
O152 Cd142 2.297 . S
O152 C147 1.247 . S
O153 Cd142 2.439 . S
O153 C147 1.208 . S
O154 Cd155 2.223 . S
O154 C162 1.315 . S
Cd155 O154 2.223 . S
Cd155 O158 2.297 . S
Cd155 O159 2.439 . S
Cd155 O165 2.240 . S
Cd156 O157 2.240 . S
Cd156 O164 2.223 . S
Cd156 O166 2.297 . S
Cd156 O167 2.439 . S
O157 Cd156 2.240 . S
O157 C162 1.279 . S
O158 Cd155 2.297 . S
O158 C160 1.247 . S
O159 Cd155 2.439 . S
O159 C160 1.208 . S
C160 O158 1.247 . S
C160 O159 1.208 . S
C161 O166 1.247 . S
C161 O167 1.208 . S
C162 O154 1.315 . S
C162 O157 1.279 . S
C163 O164 1.315 . S
C163 O165 1.279 . S
O164 Cd156 2.223 . S
O164 C163 1.315 . S
O165 Cd155 2.240 . S
O165 C163 1.279 . S
O166 Cd156 2.297 . S
O166 C161 1.247 . S
O167 Cd156 2.439 . S
O167 C161 1.208 . S
O168 Cd169 2.223 . S
O168 C176 1.315 . S
Cd169 O168 2.223 . S
Cd169 O172 2.297 . S
Cd169 O173 2.439 . S
Cd169 O179 2.240 . S
Cd170 O171 2.240 . S
Cd170 O178 2.223 . S
Cd170 O180 2.297 . S
Cd170 O181 2.439 . S
O171 Cd170 2.240 . S
O171 C176 1.279 . S
O172 Cd169 2.297 . S
O172 C174 1.247 . S
O173 Cd169 2.439 . S
O173 C174 1.208 . S
C174 O172 1.247 . S
C174 O173 1.208 . S
C175 O180 1.247 . S
C175 O181 1.208 . S
C176 O168 1.315 . S
C176 O171 1.279 . S
C177 O178 1.315 . S
C177 O179 1.279 . S
O178 Cd170 2.223 . S
O178 C177 1.315 . S
O179 Cd169 2.240 . S
O179 C177 1.279 . S
O180 Cd170 2.297 . S
O180 C175 1.247 . S
O181 Cd170 2.439 . S
O181 C175 1.208 . S
O182 Cd183 2.223 . S
O182 C190 1.315 . S
Cd183 O182 2.223 . S
Cd183 O186 2.297 . S
Cd183 O187 2.439 . S
Cd183 O193 2.240 . S
Cd184 O185 2.240 . S
Cd184 O192 2.223 . S
Cd184 O194 2.297 . S
Cd184 O195 2.439 . S
O185 Cd184 2.240 . S
O185 C190 1.279 . S
O186 Cd183 2.297 . S
O186 C188 1.247 . S
O187 Cd183 2.439 . S
O187 C188 1.208 . S
C188 O186 1.247 . S
C188 O187 1.208 . S
C189 O194 1.247 . S
C189 O195 1.208 . S
C190 O182 1.315 . S
C190 O185 1.279 . S
C191 O192 1.315 . S
C191 O193 1.279 . S
O192 Cd184 2.223 . S
O192 C191 1.315 . S
O193 Cd183 2.240 . S
O193 C191 1.279 . S
O194 Cd184 2.297 . S
O194 C189 1.247 . S
O195 Cd184 2.439 . S
O195 C189 1.208 . S
O196 Cd197 2.223 . S
O196 C204 1.315 . S
Cd197 O196 2.223 . S
Cd197 O200 2.297 . S
Cd197 O201 2.439 . S
Cd197 O207 2.240 . S
Cd198 O199 2.240 . S
Cd198 O206 2.223 . S
Cd198 O208 2.297 . S
Cd198 O209 2.439 . S
O199 Cd198 2.240 . S
O199 C204 1.279 . S
O200 Cd197 2.297 . S
O200 C202 1.247 . S
O201 Cd197 2.439 . S
O201 C202 1.208 . S
C202 O200 1.247 . S
C202 O201 1.208 . S
C203 O208 1.247 . S
C203 O209 1.208 . S
C204 O196 1.315 . S
C204 O199 1.279 . S
C205 O206 1.315 . S
C205 O207 1.279 . S
O206 Cd198 2.223 . S
O206 C205 1.315 . S
O207 Cd197 2.240 . S
O207 C205 1.279 . S
O208 Cd198 2.297 . S
O208 C203 1.247 . S
O209 Cd198 2.439 . S
O209 C203 1.208 . S
O210 Cd211 2.223 . S
O210 C218 1.315 . S
Cd211 O210 2.223 . S
Cd211 O214 2.297 . S
Cd211 O215 2.439 . S
Cd211 O221 2.240 . S
Cd212 O213 2.240 . S
Cd212 O220 2.223 . S
Cd212 O222 2.297 . S
Cd212 O223 2.439 . S
O213 Cd212 2.240 . S
O213 C218 1.279 . S
O214 Cd211 2.297 . S
O214 C216 1.247 . S
O215 Cd211 2.439 . S
O215 C216 1.208 . S
C216 O214 1.247 . S
C216 O215 1.208 . S
C217 O222 1.247 . S
C217 O223 1.208 . S
C218 O210 1.315 . S
C218 O213 1.279 . S
C219 O220 1.315 . S
C219 O221 1.279 . S
O220 Cd212 2.223 . S
O220 C219 1.315 . S
O221 Cd211 2.240 . S
O221 C219 1.279 . S
O222 Cd212 2.297 . S
O222 C217 1.247 . S
O223 Cd212 2.439 . S
O223 C217 1.208 . S
C224 C225 1.369 . S
C224 C226 1.419 . S
C224 H228 0.930 . S
C225 C224 1.369 . S
C225 C234 1.429 . S
C226 C224 1.419 . S
C226 C227 1.363 1_565 S
C226 H229 0.929 . S
C227 C226 1.363 1_545 S
C227 C233 1.428 1_545 S
H228 C224 0.930 . S
H229 C226 0.929 . S
S230 N231 1.613 . S
S230 N232 1.610 1_565 S
N231 S230 1.613 . S
N231 C234 1.350 . S
N232 S230 1.610 1_545 S
N232 C233 1.351 1_545 S
C233 C227 1.428 1_565 S
C233 N232 1.351 1_565 S
C233 C234 1.434 . S
C234 C225 1.429 . S
C234 N231 1.350 . S
C234 C233 1.434 . S
C235 C236 1.369 1_655 S
C235 C237 1.419 . S
C235 H239 0.930 . S
C236 C235 1.369 1_455 S
C236 C245 1.427 1_455 S
C237 C235 1.419 . S
C237 C238 1.363 . S
C237 H240 0.929 . S
C238 C237 1.363 . S
C238 C244 1.428 . S
H239 C235 0.930 . S
H240 C237 0.929 . S
S241 N242 1.613 . S
S241 N243 1.610 1_455 S
N242 S241 1.613 . S
N242 C245 1.343 1_455 S
N243 S241 1.610 1_655 S
N243 C244 1.351 . S
C244 C238 1.428 . S
C244 N243 1.351 . S
C244 C245 1.443 . S
C245 C236 1.427 1_655 S
C245 N242 1.343 1_655 S
C245 C244 1.443 . S
C246 C247 1.369 1_545 S
C246 C248 1.419 . S
C246 H250 0.930 1_545 S
C247 C246 1.369 1_565 S
C247 C256 1.429 1_565 S
C248 C246 1.419 . S
C248 C249 1.363 . S
C248 H251 0.929 . S
C249 C248 1.363 . S
C249 C255 1.428 . S
H250 C246 0.930 1_565 S
H251 C248 0.929 . S
S252 N253 1.637 . S
S252 N254 1.610 . S
N253 S252 1.637 . S
N253 C256 1.361 . S
N254 S252 1.610 . S
N254 C255 1.351 . S
C255 C249 1.428 . S
C255 N254 1.351 . S
C255 C256 1.434 . S
C256 C247 1.429 1_545 S
C256 N253 1.361 . S
C256 C255 1.434 . S
C257 C258 1.369 . S
C257 C259 1.419 . S
C257 H261 0.930 . S
C258 C257 1.369 . S
C258 C267 1.429 . S
C259 C257 1.419 . S
C259 C260 1.363 1_455 S
C259 H262 0.929 . S
C260 C259 1.363 1_655 S
C260 C266 1.428 1_655 S
H261 C257 0.930 . S
H262 C259 0.929 . S
S263 N264 1.613 . S
S263 N265 1.610 1_455 S
N264 S263 1.613 . S
N264 C267 1.350 . S
N265 S263 1.610 1_655 S
N265 C266 1.351 1_655 S
C266 C260 1.428 1_455 S
C266 N265 1.351 1_455 S
C266 C267 1.434 . S
C267 C258 1.429 . S
C267 N264 1.350 . S
C267 C266 1.434 . S
C268 C269 1.369 . S
C268 C270 1.419 . S
C268 H272 0.930 . S
C269 C268 1.369 . S
C269 C278 1.429 1_556 S
C270 C268 1.419 . S
C270 C271 1.363 . S
C270 H273 0.929 . S
C271 C270 1.363 . S
C271 C277 1.428 1_556 S
H272 C268 0.930 . S
H273 C270 0.929 . S
S274 N275 1.613 . S
S274 N276 1.610 . S
N275 S274 1.613 . S
N275 C278 1.350 . S
N276 S274 1.610 . S
N276 C277 1.351 . S
C277 C271 1.428 1_554 S
C277 N276 1.351 . S
C277 C278 1.434 . S
C278 C269 1.429 1_554 S
C278 N275 1.350 . S
C278 C277 1.434 . S
C279 C280 1.369 . S
C279 C281 1.419 . S
C279 H283 0.930 . S
C280 C279 1.369 . S
C280 C289 1.429 1_554 S
C281 C279 1.419 . S
C281 C282 1.363 . S
C281 H284 0.929 . S
C282 C281 1.363 . S
C282 C288 1.428 1_554 S
H283 C279 0.930 . S
H284 C281 0.929 . S
S285 N286 1.613 . S
S285 N287 1.610 . S
N286 S285 1.613 . S
N286 C289 1.350 . S
N287 S285 1.610 . S
N287 C288 1.351 . S
C288 C282 1.428 1_556 S
C288 N287 1.351 . S
C288 C289 1.434 . S
C289 C280 1.429 1_556 S
C289 N286 1.350 . S
C289 C288 1.434 . S
C290 C291 1.369 . S
C290 C292 1.419 1_556 S
C290 H294 0.930 1_556 S
C291 C290 1.369 . S
C291 C300 1.429 . S
C292 C290 1.419 1_554 S
C292 C293 1.363 1_554 S
C292 H295 0.929 . S
C293 C292 1.363 1_556 S
C293 C299 1.428 . S
H294 C290 0.930 1_554 S
H295 C292 0.929 . S
S296 N297 1.613 . S
S296 N298 1.610 . S
N297 S296 1.613 . S
N297 C300 1.350 . S
N298 S296 1.610 . S
N298 C299 1.351 . S
C299 C293 1.428 . S
C299 N298 1.351 . S
C299 C300 1.434 . S
C300 C291 1.429 . S
C300 N297 1.350 . S
C300 C299 1.434 . S
C301 C302 1.369 . S
C301 C303 1.419 . S
C301 H305 0.930 . S
C302 C301 1.369 . S
C302 C311 1.429 . S
C303 C301 1.419 . S
C303 C304 1.363 . S
C303 H306 0.929 1_554 S
C304 C303 1.363 . S
C304 C310 1.428 . S
H305 C301 0.930 . S
H306 C303 0.929 1_556 S
S307 N308 1.613 . S
S307 N309 1.610 . S
N308 S307 1.613 . S
N308 C311 1.350 . S
N309 S307 1.610 . S
N309 C310 1.351 . S
C310 C304 1.428 . S
C310 N309 1.351 . S
C310 C311 1.434 . S
C311 C302 1.429 . S
C311 N308 1.350 . S
C311 C310 1.434 . S
C312 C313 1.369 . S
C312 C314 1.419 . S
C312 H316 0.930 . S
C313 C312 1.369 . S
C313 C322 1.429 . S
C314 C312 1.419 . S
C314 C315 1.363 . S
C314 H317 0.929 . S
C315 C314 1.363 . S
C315 C321 1.428 . S
H316 C312 0.930 . S
H317 C314 0.929 . S
S318 N319 1.613 . S
S318 N320 1.610 . S
N319 S318 1.613 . S
N319 C322 1.350 . S
N320 S318 1.610 . S
N320 C321 1.351 . S
C321 C315 1.428 . S
C321 N320 1.351 . S
C321 C322 1.434 . S
C322 C313 1.429 . S
C322 N319 1.350 . S
C322 C321 1.434 . S
C323 C324 1.369 . S
C323 C325 1.419 . S
C323 H327 0.930 . S
C324 C323 1.369 . S
C324 C333 1.429 . S
C325 C323 1.419 . S
C325 C326 1.363 . S
C325 H328 0.929 . S
C326 C325 1.363 . S
C326 C332 1.428 . S
H327 C323 0.930 . S
H328 C325 0.929 . S
S329 N330 1.613 . S
S329 N331 1.610 . S
N330 S329 1.613 . S
N330 C333 1.350 . S
N331 S329 1.610 . S
N331 C332 1.351 . S
C332 C326 1.428 . S
C332 N331 1.351 . S
C332 C333 1.434 . S
C333 C324 1.429 . S
C333 N330 1.350 . S
C333 C332 1.434 . S
C334 C335 1.369 . S
C334 C336 1.419 . S
C334 H338 0.930 . S
C335 C334 1.369 . S
C335 C344 1.429 . S
C336 C334 1.419 . S
C336 C337 1.363 . S
C336 H339 0.929 . S
C337 C336 1.363 . S
C337 C343 1.428 . S
H338 C334 0.930 . S
H339 C336 0.929 . S
S340 N341 1.613 . S
S340 N342 1.610 . S
N341 S340 1.613 . S
N341 C344 1.350 . S
N342 S340 1.610 . S
N342 C343 1.351 . S
C343 C337 1.428 . S
C343 N342 1.351 . S
C343 C344 1.434 . S
C344 C335 1.429 . S
C344 N341 1.350 . S
C344 C343 1.434 . S
C345 C346 1.369 . S
C345 C347 1.419 . S
C345 H349 0.930 . S
C346 C345 1.369 . S
C346 C355 1.429 . S
C347 C345 1.419 . S
C347 C348 1.363 . S
C347 H350 0.929 . S
C348 C347 1.363 . S
C348 C354 1.428 . S
H349 C345 0.930 . S
H350 C347 0.929 . S
S351 N352 1.613 . S
S351 N353 1.610 . S
N352 S351 1.613 . S
N352 C355 1.350 . S
N353 S351 1.610 . S
N353 C354 1.351 . S
C354 C348 1.428 . S
C354 N353 1.351 . S
C354 C355 1.434 . S
C355 C346 1.429 . S
C355 N352 1.350 . S
C355 C354 1.434 . S
C356 C357 1.367 1_545 S
C356 C358 1.430 . S
C356 H360 0.921 1_545 S
C357 C356 1.367 1_565 S
C357 C366 1.429 1_565 S
C358 C356 1.430 . S
C358 C359 1.363 . S
C358 H361 0.929 . S
C359 C358 1.363 . S
C359 C365 1.428 . S
H360 C356 0.921 1_565 S
H361 C358 0.929 . S
S362 N363 1.613 . S
S362 N364 1.610 . S
N363 S362 1.613 . S
N363 C366 1.350 . S
N364 S362 1.610 . S
N364 C365 1.351 . S
C365 C359 1.428 . S
C365 N364 1.351 . S
C365 C366 1.434 . S
C366 C357 1.429 1_545 S
C366 N363 1.350 . S
C366 C365 1.434 . S
C367 C368 1.369 1_455 S
C367 C369 1.419 . S
C367 H371 0.930 . S
C368 C367 1.369 1_655 S
C368 C377 1.429 1_655 S
C369 C367 1.419 . S
C369 C370 1.363 . S
C369 H372 0.929 . S
C370 C369 1.363 . S
C370 C376 1.428 . S
H371 C367 0.930 . S
H372 C369 0.929 . S
S373 N374 1.613 1_455 S
S373 N375 1.610 . S
N374 S373 1.613 1_655 S
N374 C377 1.350 1_655 S
N375 S373 1.610 . S
N375 C376 1.351 . S
C376 C370 1.428 . S
C376 N375 1.351 . S
C376 C377 1.434 . S
C377 C368 1.429 1_455 S
C377 N374 1.350 1_455 S
C377 C376 1.434 . S
C378 C379 1.369 . S
C378 C380 1.419 . S
C378 H382 0.930 . S
C379 C378 1.369 . S
C379 C388 1.429 . S
C380 C378 1.419 . S
C380 C381 1.363 1_565 S
C380 H383 0.929 1_565 S
C381 C380 1.363 1_545 S
C381 C387 1.428 1_545 S
H382 C378 0.930 . S
H383 C380 0.929 1_545 S
S384 N385 1.613 . S
S384 N386 1.610 . S
N385 S384 1.613 . S
N385 C388 1.350 . S
N386 S384 1.610 . S
N386 C387 1.351 . S
C387 C381 1.428 1_565 S
C387 N386 1.351 . S
C387 C388 1.434 . S
C388 C379 1.429 . S
C388 N385 1.350 . S
C388 C387 1.434 . S
C389 C390 1.369 . S
C389 C391 1.419 . S
C389 H393 0.930 . S
C390 C389 1.369 . S
C390 C399 1.429 . S
C391 C389 1.419 . S
C391 C392 1.363 1_655 S
C391 H394 0.929 1_655 S
C392 C391 1.363 1_455 S
C392 C398 1.428 1_455 S
H393 C389 0.930 . S
H394 C391 0.929 1_455 S
S395 N396 1.613 . S
S395 N397 1.610 . S
N396 S395 1.613 . S
N396 C399 1.350 . S
N397 S395 1.610 . S
N397 C398 1.351 . S
C398 C392 1.428 1_655 S
C398 N397 1.351 . S
C398 C399 1.434 . S
C399 C390 1.429 . S
C399 N396 1.350 . S
C399 C398 1.434 . S
C400 C401 1.369 . S
C400 C402 1.419 . S
C400 H404 0.930 . S
C401 C400 1.369 . S
C401 C410 1.429 . S
C402 C400 1.419 . S
C402 C403 1.363 . S
C402 H405 0.929 . S
C403 C402 1.363 . S
C403 C409 1.428 . S
H404 C400 0.930 . S
H405 C402 0.929 . S
S406 N407 1.613 . S
S406 N408 1.610 . S
N407 S406 1.613 . S
N407 C410 1.350 . S
N408 S406 1.610 . S
N408 C409 1.351 . S
C409 C403 1.428 . S
C409 N408 1.351 . S
C409 C410 1.434 . S
C410 C401 1.429 . S
C410 N407 1.350 . S
C410 C409 1.434 . S
C411 C412 1.369 . S
C411 C413 1.419 . S
C411 H415 0.930 . S
C412 C411 1.369 . S
C412 C421 1.429 . S
C413 C411 1.419 . S
C413 C414 1.363 . S
C413 H416 0.929 . S
C414 C413 1.363 . S
C414 C420 1.428 . S
H415 C411 0.930 . S
H416 C413 0.929 . S
S417 N418 1.613 . S
S417 N419 1.610 . S
N418 S417 1.613 . S
N418 C421 1.350 . S
N419 S417 1.610 . S
N419 C420 1.351 . S
C420 C414 1.428 . S
C420 N419 1.351 . S
C420 C421 1.434 . S
C421 C412 1.429 . S
C421 N418 1.350 . S
C421 C420 1.434 . S
C422 C423 1.369 . S
C422 C424 1.419 . S
C422 H426 0.930 . S
C423 C422 1.369 . S
C423 C432 1.429 . S
C424 C422 1.419 . S
C424 C425 1.363 . S
C424 H427 0.929 . S
C425 C424 1.363 . S
C425 C431 1.428 . S
H426 C422 0.930 . S
H427 C424 0.929 . S
S428 N429 1.613 . S
S428 N430 1.610 . S
N429 S428 1.613 . S
N429 C432 1.350 . S
N430 S428 1.610 . S
N430 C431 1.351 . S
C431 C425 1.428 . S
C431 N430 1.351 . S
C431 C432 1.434 . S
C432 C423 1.429 . S
C432 N429 1.350 . S
C432 C431 1.434 . S
C433 C434 1.369 . S
C433 C435 1.419 . S
C433 H437 0.930 . S
C434 C433 1.369 . S
C434 C443 1.429 . S
C435 C433 1.419 . S
C435 C436 1.363 . S
C435 H438 0.929 . S
C436 C435 1.363 . S
C436 C442 1.428 . S
H437 C433 0.930 . S
H438 C435 0.929 . S
S439 N440 1.613 . S
S439 N441 1.610 1_554 S
N440 S439 1.613 . S
N440 C443 1.350 1_554 S
N441 S439 1.610 1_556 S
N441 C442 1.351 . S
C442 C436 1.428 . S
C442 N441 1.351 . S
C442 C443 1.434 . S
C443 C434 1.429 . S
C443 N440 1.350 1_556 S
C443 C442 1.434 . S
C444 C445 1.369 . S
C444 C446 1.419 . S
C444 H448 0.930 . S
C445 C444 1.369 . S
C445 C454 1.429 . S
C446 C444 1.419 . S
C446 C447 1.363 . S
C446 H449 0.929 . S
C447 C446 1.363 . S
C447 C453 1.428 . S
H448 C444 0.930 . S
H449 C446 0.929 . S
S450 N451 1.613 . S
S450 N452 1.610 . S
N451 S450 1.613 . S
N451 C454 1.350 . S
N452 S450 1.610 . S
N452 C453 1.351 . S
C453 C447 1.428 . S
C453 N452 1.351 . S
C453 C454 1.434 . S
C454 C445 1.429 . S
C454 N451 1.350 . S
C454 C453 1.434 . S
C455 C456 1.369 . S
C455 C457 1.419 . S
C455 H459 0.930 . S
C456 C455 1.369 . S
C456 C465 1.429 . S
C457 C455 1.419 . S
C457 C458 1.363 . S
C457 H460 0.929 . S
C458 C457 1.363 . S
C458 C464 1.428 . S
H459 C455 0.930 . S
H460 C457 0.929 . S
S461 N462 1.613 . S
S461 N463 1.610 . S
N462 S461 1.613 . S
N462 C465 1.350 . S
N463 S461 1.610 . S
N463 C464 1.351 . S
C464 C458 1.428 . S
C464 N463 1.351 . S
C464 C465 1.434 . S
C465 C456 1.429 . S
C465 N462 1.350 . S
C465 C464 1.434 . S
C466 C467 1.369 . S
C466 C468 1.419 . S
C466 H470 0.930 . S
C467 C466 1.369 . S
C467 C476 1.429 . S
C468 C466 1.419 . S
C468 C469 1.363 . S
C468 H471 0.929 . S
C469 C468 1.363 . S
C469 C475 1.428 . S
H470 C466 0.930 . S
H471 C468 0.929 . S
S472 N473 1.613 . S
S472 N474 1.610 . S
N473 S472 1.613 . S
N473 C476 1.350 . S
N474 S472 1.610 . S
N474 C475 1.351 . S
C475 C469 1.428 . S
C475 N474 1.351 . S
C475 C476 1.434 . S
C476 C467 1.429 . S
C476 N473 1.350 . S
C476 C475 1.434 . S
C477 C478 1.369 . S
C477 C479 1.419 . S
C477 H481 0.930 . S
C478 C477 1.369 . S
C478 C487 1.429 . S
C479 C477 1.419 . S
C479 C480 1.363 . S
C479 H482 0.929 . S
C480 C479 1.363 . S
C480 C486 1.428 . S
H481 C477 0.930 . S
H482 C479 0.929 . S
S483 N484 1.613 . S
S483 N485 1.610 . S
N484 S483 1.613 . S
N484 C487 1.350 . S
N485 S483 1.610 . S
N485 C486 1.351 . S
C486 C480 1.428 . S
C486 N485 1.351 . S
C486 C487 1.434 . S
C487 C478 1.429 . S
C487 N484 1.350 . S
C487 C486 1.434 . S
C488 C489 1.369 . S
C488 C490 1.419 . S
C488 H492 0.930 . S
C489 C488 1.369 . S
C489 C498 1.429 . S
C490 C488 1.419 . S
C490 C491 1.363 . S
C490 H493 0.929 . S
C491 C490 1.363 . S
C491 C497 1.428 . S
H492 C488 0.930 . S
H493 C490 0.929 . S
S494 N495 1.613 . S
S494 N496 1.610 . S
N495 S494 1.613 . S
N495 C498 1.350 . S
N496 S494 1.610 . S
N496 C497 1.351 . S
C497 C491 1.428 . S
C497 N496 1.351 . S
C497 C498 1.434 . S
C498 C489 1.429 . S
C498 N495 1.350 . S
C498 C497 1.434 . S
C499 C500 1.369 . S
C499 C501 1.419 . S
C499 H503 0.930 . S
C500 C499 1.369 . S
C500 C509 1.429 . S
C501 C499 1.419 . S
C501 C502 1.363 . S
C501 H504 0.929 . S
C502 C501 1.363 . S
C502 C508 1.428 . S
H503 C499 0.930 . S
H504 C501 0.929 . S
S505 N506 1.613 . S
S505 N507 1.610 1_554 S
N506 S505 1.613 . S
N506 C509 1.350 . S
N507 S505 1.610 1_556 S
N507 C508 1.351 1_556 S
C508 C502 1.428 . S
C508 N507 1.351 1_554 S
C508 C509 1.434 . S
C509 C500 1.429 . S
C509 N506 1.350 . S
C509 C508 1.434 . S
C510 C511 1.369 . S
C510 C512 1.419 . S
C510 H514 0.930 . S
C511 C510 1.369 . S
C511 C520 1.429 . S
C512 C510 1.419 . S
C512 C513 1.363 . S
C512 H515 0.929 . S
C513 C512 1.363 . S
C513 C519 1.428 . S
H514 C510 0.930 . S
H515 C512 0.929 . S
S516 N517 1.613 . S
S516 N518 1.610 . S
N517 S516 1.613 . S
N517 C520 1.350 . S
N518 S516 1.610 . S
N518 C519 1.351 . S
C519 C513 1.428 . S
C519 N518 1.351 . S
C519 C520 1.434 . S
C520 C511 1.429 . S
C520 N517 1.350 . S
C520 C519 1.434 . S
C521 C522 1.369 . S
C521 C523 1.419 . S
C521 H525 0.930 . S
C522 C521 1.369 . S
C522 C531 1.429 . S
C523 C521 1.419 . S
C523 C524 1.363 . S
C523 H526 0.929 . S
C524 C523 1.363 . S
C524 C530 1.428 . S
H525 C521 0.930 . S
H526 C523 0.929 . S
S527 N528 1.613 . S
S527 N529 1.610 . S
N528 S527 1.613 . S
N528 C531 1.350 . S
N529 S527 1.610 . S
N529 C530 1.351 . S
C530 C524 1.428 . S
C530 N529 1.351 . S
C530 C531 1.434 . S
C531 C522 1.429 . S
C531 N528 1.350 . S
C531 C530 1.434 . S
C532 C533 1.369 . S
C532 C534 1.419 . S
C532 H536 0.930 . S
C533 C532 1.369 . S
C533 C542 1.429 . S
C534 C532 1.419 . S
C534 C535 1.363 . S
C534 H537 0.929 . S
C535 C534 1.363 . S
C535 C541 1.428 . S
H536 C532 0.930 . S
H537 C534 0.929 . S
S538 N539 1.613 . S
S538 N540 1.610 . S
N539 S538 1.613 . S
N539 C542 1.350 . S
N540 S538 1.610 . S
N540 C541 1.351 . S
C541 C535 1.428 . S
C541 N540 1.351 . S
C541 C542 1.434 . S
C542 C533 1.429 . S
C542 N539 1.350 . S
C542 C541 1.434 . S
C543 C544 1.369 . S
C543 C545 1.419 . S
C543 H547 0.930 . S
C544 C543 1.369 . S
C544 C553 1.429 . S
C545 C543 1.419 . S
C545 C546 1.363 . S
C545 H548 0.929 . S
C546 C545 1.363 . S
C546 C552 1.428 . S
H547 C543 0.930 . S
H548 C545 0.929 . S
S549 N550 1.613 . S
S549 N551 1.610 . S
N550 S549 1.613 . S
N550 C553 1.350 . S
N551 S549 1.610 . S
N551 C552 1.351 . S
C552 C546 1.428 . S
C552 N551 1.351 . S
C552 C553 1.434 . S
C553 C544 1.429 . S
C553 N550 1.350 . S
C553 C552 1.434 . S
C554 C555 1.369 . S
C554 C556 1.419 . S
C554 H558 0.930 . S
C555 C554 1.369 . S
C555 C564 1.429 . S
C556 C554 1.419 . S
C556 C557 1.363 . S
C556 H559 0.929 . S
C557 C556 1.363 . S
C557 C563 1.428 . S
H558 C554 0.930 . S
H559 C556 0.929 . S
S560 N561 1.613 . S
S560 N562 1.610 . S
N561 S560 1.613 . S
N561 C564 1.350 . S
N562 S560 1.610 . S
N562 C563 1.351 . S
C563 C557 1.428 . S
C563 N562 1.351 . S
C563 C564 1.434 . S
C564 C555 1.429 . S
C564 N561 1.350 . S
C564 C563 1.434 . S
C565 C566 1.369 . S
C565 C567 1.419 . S
C565 H569 0.930 . S
C566 C565 1.369 . S
C566 C575 1.429 . S
C567 C565 1.419 . S
C567 C568 1.363 . S
C567 H570 0.929 . S
C568 C567 1.363 . S
C568 C574 1.428 . S
H569 C565 0.930 . S
H570 C567 0.929 . S
S571 N572 1.613 . S
S571 N573 1.610 . S
N572 S571 1.613 . S
N572 C575 1.350 . S
N573 S571 1.610 . S
N573 C574 1.351 . S
C574 C568 1.428 . S
C574 N573 1.351 . S
C574 C575 1.434 . S
C575 C566 1.429 . S
C575 N572 1.350 . S
C575 C574 1.434 . S
C225 C163 1.489 . S
C227 C7 1.479 . S
C236 C21 1.478 . S
C238 C121 1.489 . S
C247 C35 1.479 . S
C249 C135 1.489 . S
C258 C149 1.485 . S
C260 C49 1.477 . S
C269 C63 1.479 . S
C271 C79 1.485 . S
C280 C77 1.476 . S
C282 C93 1.486 . S
C291 C107 1.487 . S
C293 C91 1.481 . S
C302 C65 1.487 . S
C304 C105 1.476 . S
C313 C51 1.489 . S
C315 C119 1.477 . S
C324 C133 1.477 . S
C326 C9 1.485 . S
C335 C23 1.487 . S
C337 C147 1.481 . S
C346 C161 1.477 . S
C348 C37 1.489 . S
C357 C175 1.482 . S
C359 C191 1.486 . S
C368 C189 1.475 . S
C370 C205 1.488 . S
C379 C219 1.487 . S
C381 C203 1.481 . S
C390 C177 1.488 . S
C392 C217 1.480 . S
C401 C64 1.356 . S
C403 C8 1.346 . S
C412 C22 1.350 . S
C414 C78 1.356 . S
C423 C36 1.354 . S
C425 C92 1.352 . S
C434 C106 1.356 . S
C436 C50 1.345 . S
C445 C120 1.359 . S
C447 C176 1.345 . S
C456 C190 1.346 . S
C458 C134 1.352 . S
C467 C148 1.346 . S
C469 C204 1.357 . S
C478 C218 1.344 . S
C480 C162 1.357 . S
C489 C202 1.400 . S
C491 C6 1.399 . S
C500 C216 1.397 . S
C502 C20 1.400 . S
C511 C34 1.396 . S
C513 C174 1.397 . S
C522 C188 1.399 . S
C524 C48 1.396 . S
C533 C146 1.396 . S
C535 C62 1.396 . S
C544 C160 1.398 . S
C546 C76 1.396 . S
C555 C90 1.396 . S
C557 C118 1.396 . S
C566 C132 1.397 . S
C568 C104 1.396 . S
