# Generated by pormake.
# Topology uol, (4)-cn, num edge types: 1
# Building blocks:
#     Node 0, Type 0, BuildingBlock: QUQFOY_clean_sbu_1, # of connection points: 4
#     Node 1, Type 0, BuildingBlock: QUQFOY_clean_sbu_1, # of connection points: 4
#     Node 2, Type 0, BuildingBlock: QUQFOY_clean_sbu_1, # of connection points: 4
#     Node 3, Type 0, BuildingBlock: QUQFOY_clean_sbu_1, # of connection points: 4
#     Node 4, Type 0, BuildingBlock: QUQFOY_clean_sbu_1, # of connection points: 4
#     Node 5, Type 0, BuildingBlock: QUQFOY_clean_sbu_1, # of connection points: 4
#     Node 6, Type 0, BuildingBlock: QUQFOY_clean_sbu_1, # of connection points: 4
#     Node 7, Type 0, BuildingBlock: QUQFOY_clean_sbu_1, # of connection points: 4
#     Node 8, Type 0, BuildingBlock: QUQFOY_clean_sbu_1, # of connection points: 4
#     Node 9, Type 0, BuildingBlock: QUQFOY_clean_sbu_1, # of connection points: 4
#     Node 10, Type 0, BuildingBlock: QUQFOY_clean_sbu_1, # of connection points: 4
#     Node 11, Type 0, BuildingBlock: QUQFOY_clean_sbu_1, # of connection points: 4
#     Edge 12, Type (0, 0), BuildingBlock: XUDNAN_clean_linker_2, # of connection points: 2
#     Edge 13, Type (0, 0), BuildingBlock: XUDNAN_clean_linker_2, # of connection points: 2
#     Edge 14, Type (0, 0), BuildingBlock: XUDNAN_clean_linker_2, # of connection points: 2
#     Edge 15, Type (0, 0), BuildingBlock: XUDNAN_clean_linker_2, # of connection points: 2
#     Edge 16, Type (0, 0), BuildingBlock: XUDNAN_clean_linker_2, # of connection points: 2
#     Edge 17, Type (0, 0), BuildingBlock: XUDNAN_clean_linker_2, # of connection points: 2
#     Edge 18, Type (0, 0), BuildingBlock: XUDNAN_clean_linker_2, # of connection points: 2
#     Edge 19, Type (0, 0), BuildingBlock: XUDNAN_clean_linker_2, # of connection points: 2
#     Edge 20, Type (0, 0), BuildingBlock: XUDNAN_clean_linker_2, # of connection points: 2
#     Edge 21, Type (0, 0), BuildingBlock: XUDNAN_clean_linker_2, # of connection points: 2
#     Edge 22, Type (0, 0), BuildingBlock: XUDNAN_clean_linker_2, # of connection points: 2
#     Edge 23, Type (0, 0), BuildingBlock: XUDNAN_clean_linker_2, # of connection points: 2
#     Edge 24, Type (0, 0), BuildingBlock: XUDNAN_clean_linker_2, # of connection points: 2
#     Edge 25, Type (0, 0), BuildingBlock: XUDNAN_clean_linker_2, # of connection points: 2
#     Edge 26, Type (0, 0), BuildingBlock: XUDNAN_clean_linker_2, # of connection points: 2
#     Edge 27, Type (0, 0), BuildingBlock: XUDNAN_clean_linker_2, # of connection points: 2
#     Edge 28, Type (0, 0), BuildingBlock: XUDNAN_clean_linker_2, # of connection points: 2
#     Edge 29, Type (0, 0), BuildingBlock: XUDNAN_clean_linker_2, # of connection points: 2
#     Edge 30, Type (0, 0), BuildingBlock: XUDNAN_clean_linker_2, # of connection points: 2
#     Edge 31, Type (0, 0), BuildingBlock: XUDNAN_clean_linker_2, # of connection points: 2
#     Edge 32, Type (0, 0), BuildingBlock: XUDNAN_clean_linker_2, # of connection points: 2
#     Edge 33, Type (0, 0), BuildingBlock: XUDNAN_clean_linker_2, # of connection points: 2
#     Edge 34, Type (0, 0), BuildingBlock: XUDNAN_clean_linker_2, # of connection points: 2
#     Edge 35, Type (0, 0), BuildingBlock: XUDNAN_clean_linker_2, # of connection points: 2
# Relax obj value: 0.041
# Max RMSD: 0.148
# Mean RMSD: 0.148
data_MOF--net-uol--node1-QUQFOY_clean_sbu_1--edge1-XUDNAN_clean_linker_2
_symmetry_space_group_name_H-M    P1
_symmetry_Int_Tables_number       1
_symmetry_cell_setting            triclinic
loop_
_symmetry_equiv_pos_as_xyz
'x, y, z'
_cell_length_a     33.060734
_cell_length_b     32.959892
_cell_length_c     71.286029
_cell_angle_alpha  89.934314
_cell_angle_beta   90.037728
_cell_angle_gamma 120.0816
loop_
_atom_site_label
_atom_site_type_symbol
_atom_site_fract_x
_atom_site_fract_y
_atom_site_fract_z
_atom_type_partial_charge
O0 O 0.19048 0.34411 0.08928 0.0
Cd1 Cd 0.19189 0.37517 0.11466 0.0
Cd2 Cd 0.12024 0.2876 0.12246 0.0
O3 O 0.1242 0.2777 0.09383 0.0
O4 O 0.21732 0.44387 0.1107 0.0
O5 O 0.14405 0.39467 0.11893 0.0
C6 C 0.17613 0.4368 0.1146 0.0
C7 C 0.05057 0.2622 0.13907 0.0
C8 C 0.15835 0.30466 0.08325 0.0
C9 C 0.21116 0.32434 0.14425 0.0
O10 O 0.17179 0.29008 0.13944 0.0
O11 O 0.22617 0.3644 0.13677 0.0
O12 O 0.06294 0.23289 0.13337 0.0
O13 O 0.07592 0.30554 0.13406 0.0
O14 O 0.84581 0.18966 0.26147 0.0
Cd15 Cd 0.81655 0.18093 0.28783 0.0
Cd16 Cd 0.84724 0.11873 0.28975 0.0
O17 O 0.86052 0.13127 0.26113 0.0
O18 O 0.77367 0.20722 0.28611 0.0
O19 O 0.7487 0.13199 0.29076 0.0
C20 C 0.73914 0.16508 0.28817 0.0
C21 C 0.80102 0.04669 0.30454 0.0
C22 C 0.8599 0.16525 0.25283 0.0
C23 C 0.89244 0.20277 0.31538 0.0
O24 O 0.89421 0.16885 0.30777 0.0
O25 O 0.86131 0.21251 0.3104 0.0
O26 O 0.84266 0.05892 0.2988 0.0
O27 O 0.78433 0.07366 0.30045 0.0
O28 O 0.65938 0.83374 0.42462 0.0
Cd29 Cd 0.63952 0.80527 0.45121 0.0
Cd30 Cd 0.73387 0.83743 0.45331 0.0
O31 O 0.73264 0.84944 0.42466 0.0
O32 O 0.57034 0.76218 0.45019 0.0
O33 O 0.62044 0.73732 0.45494 0.0
C34 C 0.57769 0.72767 0.45277 0.0
C35 C 0.77471 0.80472 0.46762 0.0
C36 C 0.69814 0.84826 0.41616 0.0
C37 C 0.69364 0.88175 0.47873 0.0
O38 O 0.72951 0.88362 0.47138 0.0
O39 O 0.65289 0.85089 0.47346 0.0
O40 O 0.79626 0.84541 0.45974 0.0
O41 O 0.72977 0.78049 0.46582 0.0
O42 O 0.84308 0.6734 0.58673 0.0
Cd43 Cd 0.83783 0.6401 0.61203 0.0
Cd44 Cd 0.91376 0.72942 0.61983 0.0
O45 O 0.90948 0.73968 0.59127 0.0
O46 O 0.79332 0.57265 0.60675 0.0
O47 O 0.86669 0.59862 0.61488 0.0
C48 C 0.8264 0.56384 0.61021 0.0
C49 C 0.98368 0.7535 0.63599 0.0
C50 C 0.87539 0.71276 0.58068 0.0
C51 C 0.82432 0.69539 0.64213 0.0
O52 O 0.864 0.72902 0.63728 0.0
O53 O 0.80786 0.65543 0.63443 0.0
O54 O 0.97206 0.78339 0.63028 0.0
O55 O 0.95738 0.71012 0.63119 0.0
O56 O 0.18772 0.82383 0.75812 0.0
Cd57 Cd 0.21419 0.82808 0.78476 0.0
Cd58 Cd 0.18453 0.89504 0.78644 0.0
O59 O 0.17424 0.88303 0.75769 0.0
O60 O 0.23842 0.78379 0.78278 0.0
O61 O 0.28475 0.85929 0.78799 0.0
C62 C 0.28005 0.81842 0.78528 0.0
C63 C 0.22011 0.96839 0.80113 0.0
C64 C 0.17496 0.84921 0.74937 0.0
C65 C 0.13672 0.81026 0.81161 0.0
O66 O 0.13592 0.84468 0.80397 0.0
O67 O 0.1673 0.79961 0.80685 0.0
O68 O 0.18011 0.95162 0.79292 0.0
O69 O 0.24211 0.94536 0.7995 0.0
O70 O 0.35458 0.16451 0.92101 0.0
Cd71 Cd 0.38656 0.19156 0.94655 0.0
Cd72 Cd 0.29493 0.17644 0.95415 0.0
O73 O 0.28912 0.1661 0.92523 0.0
O74 O 0.45421 0.21577 0.94169 0.0
O75 O 0.42683 0.26204 0.94987 0.0
C76 C 0.46212 0.25741 0.94531 0.0
C77 C 0.25634 0.20956 0.97023 0.0
C78 C 0.31608 0.15889 0.91473 0.0
C79 C 0.33033 0.12027 0.97577 0.0
O80 O 0.29671 0.12616 0.9708 0.0
O81 O 0.37064 0.14495 0.96857 0.0
O82 O 0.23373 0.16944 0.96206 0.0
O83 O 0.30116 0.23298 0.96807 0.0
O84 O 0.67652 0.8253 0.79885 0.0
Cd85 Cd 0.6529 0.829 0.77237 0.0
Cd86 Cd 0.74711 0.895 0.77013 0.0
O87 O 0.74934 0.88408 0.79881 0.0
O88 O 0.58458 0.78449 0.77491 0.0
O89 O 0.61311 0.85986 0.76955 0.0
C90 C 0.57722 0.81895 0.77252 0.0
C91 C 0.76793 0.96526 0.75486 0.0
C92 C 0.71506 0.85046 0.80735 0.0
C93 C 0.7115 0.81164 0.74475 0.0
O94 O 0.74688 0.84604 0.75227 0.0
O95 O 0.67046 0.80076 0.7499 0.0
O96 O 0.79941 0.95601 0.76073 0.0
O97 O 0.72476 0.93636 0.75916 0.0
O98 O 0.85089 0.65735 0.96646 0.0
Cd99 Cd 0.82597 0.63313 0.93971 0.0
Cd100 Cd 0.85351 0.72854 0.93685 0.0
O101 O 0.86578 0.73062 0.96557 0.0
O102 O 0.80127 0.56435 0.94206 0.0
O103 O 0.75569 0.59354 0.9356 0.0
C104 C 0.76 0.55726 0.93864 0.0
C105 C 0.80836 0.75412 0.92134 0.0
C106 C 0.86425 0.69645 0.97458 0.0
C107 C 0.90295 0.69264 0.91244 0.0
O108 O 0.90212 0.72777 0.91924 0.0
O109 O 0.87395 0.65139 0.91799 0.0
O110 O 0.84943 0.78365 0.92763 0.0
O111 O 0.79122 0.71022 0.92539 0.0
O112 O 0.19663 0.84002 0.1316 0.0
Cd113 Cd 0.18912 0.81104 0.10516 0.0
Cd114 Cd 0.12706 0.84227 0.10266 0.0
O115 O 0.13931 0.85611 0.13124 0.0
O116 O 0.21543 0.76804 0.10673 0.0
O117 O 0.14056 0.74298 0.10176 0.0
C118 C 0.17361 0.73342 0.10423 0.0
C119 C 0.05519 0.79714 0.08785 0.0
C120 C 0.17242 0.85485 0.1399 0.0
C121 C 0.21105 0.88671 0.07714 0.0
O122 O 0.177 0.88858 0.08445 0.0
O123 O 0.22105 0.85602 0.0826 0.0
O124 O 0.06826 0.83914 0.09351 0.0
O125 O 0.08111 0.77938 0.09209 0.0
O126 O 0.36101 0.1884 0.2972 0.0
Cd127 Cd 0.38235 0.18075 0.27086 0.0
Cd128 Cd 0.28946 0.11836 0.2685 0.0
O129 O 0.28791 0.13007 0.29715 0.0
O130 O 0.45145 0.20705 0.27282 0.0
O131 O 0.40146 0.13199 0.26774 0.0
C132 C 0.44399 0.16502 0.27055 0.0
C133 C 0.26389 0.04696 0.25328 0.0
C134 C 0.32228 0.16373 0.30566 0.0
C135 C 0.32897 0.20315 0.24319 0.0
O136 O 0.29314 0.16891 0.25057 0.0
O137 O 0.36974 0.21307 0.24838 0.0
O138 O 0.23441 0.05905 0.25906 0.0
O139 O 0.30742 0.07354 0.25764 0.0
O140 O 0.16935 0.33932 0.47003 0.0
Cd141 Cd 0.19926 0.37114 0.44475 0.0
Cd142 Cd 0.18321 0.28354 0.43644 0.0
O143 O 0.1684 0.27264 0.46503 0.0
O144 O 0.24321 0.43966 0.44886 0.0
O145 O 0.2664 0.38998 0.44031 0.0
C146 C 0.27697 0.43219 0.44476 0.0
C147 C 0.22728 0.25791 0.41982 0.0
C148 C 0.16147 0.29944 0.47581 0.0
C149 C 0.13001 0.32175 0.41474 0.0
O150 O 0.13519 0.28732 0.41923 0.0
O151 O 0.15442 0.36129 0.42267 0.0
O152 O 0.18534 0.2288 0.42531 0.0
O153 O 0.24563 0.30109 0.42507 0.0
O154 O 0.82465 0.16904 0.63304 0.0
Cd155 Cd 0.82706 0.19419 0.60619 0.0
Cd156 Cd 0.895 0.16616 0.60384 0.0
O157 O 0.88414 0.1562 0.63267 0.0
O158 O 0.78443 0.22048 0.60785 0.0
O159 O 0.85968 0.2647 0.60185 0.0
C160 C 0.81952 0.26144 0.60448 0.0
C161 C 0.96779 0.20107 0.58878 0.0
C162 C 0.85079 0.1567 0.64143 0.0
C163 C 0.8088 0.11592 0.57959 0.0
O164 O 0.84443 0.11668 0.58667 0.0
O165 O 0.79724 0.14571 0.58463 0.0
O166 O 0.95101 0.16115 0.59716 0.0
O167 O 0.94513 0.22343 0.59042 0.0
H168 H 0.2371 0.70301 0.10456 0.0
H169 H 0.08812 0.65283 0.10568 0.0
H170 H 0.07226 0.57136 0.1087 0.0
H171 H 0.2296 0.6069 0.07717 0.0
H172 H 0.27647 0.60596 0.08973 0.0
H173 H 0.27568 0.65999 0.08747 0.0
H174 H 0.28032 0.66926 0.12364 0.0
H175 H 0.28081 0.61511 0.12602 0.0
H176 H 0.23713 0.62271 0.13805 0.0
H177 H 0.07312 0.49533 0.11297 0.0
H178 H 0.09033 0.43071 0.11589 0.0
H179 H 0.23864 0.53089 0.11098 0.0
C180 C 0.2011 0.6749 0.10535 0.0
C181 C 0.16383 0.68433 0.10493 0.0
C182 C 0.11724 0.64648 0.10593 0.0
C183 C 0.1079 0.60009 0.10771 0.0
C184 C 0.1455 0.59209 0.10831 0.0
C185 C 0.19116 0.62845 0.10696 0.0
C186 C 0.22531 0.61053 0.10778 0.0
C187 C 0.25341 0.62149 0.08945 0.0
C188 C 0.2578 0.6306 0.12489 0.0
C189 C 0.19182 0.55842 0.10994 0.0
C190 C 0.14594 0.54846 0.11032 0.0
C191 C 0.10891 0.50275 0.11257 0.0
C192 C 0.11905 0.46628 0.11429 0.0
C193 C 0.16581 0.47567 0.11361 0.0
C194 C 0.20251 0.52247 0.11146 0.0
H195 H 0.70858 0.22827 0.28521 0.0
H196 H 0.6591 0.07897 0.2872 0.0
H197 H 0.57812 0.06234 0.28229 0.0
H198 H 0.61035 0.22317 0.30978 0.0
H199 H 0.61053 0.26871 0.2957 0.0
H200 H 0.66416 0.26836 0.29963 0.0
H201 H 0.67663 0.26925 0.2637 0.0
H202 H 0.62281 0.26915 0.25966 0.0
H203 H 0.63163 0.22427 0.24933 0.0
H204 H 0.50253 0.06235 0.27603 0.0
H205 H 0.43815 0.07897 0.27116 0.0
H206 H 0.53761 0.22825 0.27385 0.0
C207 C 0.68073 0.19204 0.28474 0.0
C208 C 0.69022 0.15491 0.28658 0.0
C209 C 0.65269 0.10801 0.28588 0.0
C210 C 0.60659 0.09822 0.28303 0.0
C211 C 0.59857 0.1357 0.281 0.0
C212 C 0.63459 0.18166 0.28201 0.0
C213 C 0.61676 0.21563 0.27952 0.0
C214 C 0.62599 0.24573 0.29721 0.0
C215 C 0.63824 0.24638 0.26201 0.0
C216 C 0.56508 0.18165 0.27688 0.0
C217 C 0.55524 0.13569 0.27768 0.0
C218 C 0.50985 0.09822 0.27546 0.0
C219 C 0.47352 0.10801 0.27262 0.0
C220 C 0.48278 0.15489 0.27214 0.0
C221 C 0.52931 0.19202 0.27416 0.0
H222 H 0.484 0.69777 0.45334 0.0
H223 H 0.58199 0.64663 0.4514 0.0
H224 H 0.51585 0.56523 0.44903 0.0
H225 H 0.3964 0.6027 0.48154 0.0
H226 H 0.34821 0.60192 0.46937 0.0
H227 H 0.40334 0.65574 0.47117 0.0
H228 H 0.40628 0.6642 0.43497 0.0
H229 H 0.35132 0.61027 0.43305 0.0
H230 H 0.40183 0.61715 0.4206 0.0
H231 H 0.43833 0.48935 0.44541 0.0
H232 H 0.35618 0.4252 0.44302 0.0
H233 H 0.30947 0.52646 0.44834 0.0
C234 C 0.49163 0.66948 0.45252 0.0
C235 C 0.53824 0.67861 0.45252 0.0
C236 C 0.5466 0.64051 0.45148 0.0
C237 C 0.50925 0.59416 0.45007 0.0
C238 C 0.46373 0.58648 0.44988 0.0
C239 C 0.45484 0.62311 0.45127 0.0
C240 C 0.40283 0.60559 0.45087 0.0
C241 C 0.38676 0.61717 0.46934 0.0
C242 C 0.38982 0.62549 0.43386 0.0
C243 C 0.38374 0.55337 0.44888 0.0
C244 C 0.41938 0.543 0.44824 0.0
C245 C 0.41019 0.4971 0.44603 0.0
C246 C 0.3634 0.4609 0.44462 0.0
C247 C 0.32634 0.47073 0.44556 0.0
C248 C 0.33693 0.51769 0.44768 0.0
H249 H 0.8903 0.53273 0.61166 0.0
H250 H 0.7423 0.48458 0.6054 0.0
H251 H 0.72576 0.40334 0.60261 0.0
H252 H 0.89319 0.45092 0.57837 0.0
H253 H 0.93406 0.4416 0.5918 0.0
H254 H 0.93508 0.49666 0.59343 0.0
H255 H 0.92524 0.48699 0.62948 0.0
H256 H 0.92435 0.432 0.62796 0.0
H257 H 0.87673 0.43453 0.63909 0.0
H258 H 0.72403 0.32762 0.6012 0.0
H259 H 0.73736 0.2606 0.60086 0.0
H260 H 0.88663 0.35562 0.60704 0.0
C261 C 0.85445 0.50504 0.60973 0.0
C262 C 0.81759 0.51515 0.60877 0.0
C263 C 0.77118 0.4779 0.60615 0.0
C264 C 0.76136 0.43153 0.60455 0.0
C265 C 0.79831 0.42274 0.60547 0.0
C266 C 0.84396 0.45827 0.60795 0.0
C267 C 0.87694 0.43867 0.60838 0.0
C268 C 0.91188 0.45813 0.59202 0.0
C269 C 0.9023 0.44864 0.62736 0.0
C270 C 0.84252 0.38666 0.6059 0.0
C271 C 0.79739 0.3785 0.60428 0.0
C272 C 0.75922 0.3335 0.60236 0.0
C273 C 0.76718 0.29563 0.60221 0.0
C274 C 0.81302 0.30279 0.60385 0.0
C275 C 0.85125 0.34907 0.60556 0.0
H276 H 0.54853 0.88484 0.7741 0.0
H277 H 0.49674 0.73489 0.77404 0.0
H278 H 0.41644 0.71966 0.77781 0.0
H279 H 0.46878 0.88242 0.80906 0.0
H280 H 0.46048 0.92696 0.79804 0.0
H281 H 0.51458 0.92705 0.79484 0.0
H282 H 0.50413 0.92531 0.75878 0.0
H283 H 0.45018 0.92557 0.76187 0.0
H284 H 0.45096 0.87978 0.74836 0.0
H285 H 0.3424 0.71956 0.78187 0.0
H286 H 0.27708 0.73458 0.7852 0.0
H287 H 0.37444 0.8846 0.78312 0.0
C288 C 0.52021 0.84885 0.77473 0.0
C289 C 0.52903 0.81105 0.77375 0.0
C290 C 0.49102 0.76446 0.77478 0.0
C291 C 0.44518 0.75537 0.77693 0.0
C292 C 0.43769 0.79322 0.7781 0.0
C293 C 0.47392 0.83905 0.77698 0.0
C294 C 0.45566 0.87301 0.77878 0.0
C295 C 0.4761 0.9042 0.79622 0.0
C296 C 0.46583 0.90267 0.76088 0.0
C297 C 0.40362 0.83895 0.78106 0.0
C298 C 0.39432 0.79316 0.78062 0.0
C299 C 0.34915 0.75525 0.78224 0.0
C300 C 0.31225 0.76421 0.78413 0.0
C301 C 0.32053 0.81075 0.78445 0.0
C302 C 0.367 0.84865 0.78305 0.0
H303 H 0.49114 0.35227 0.94611 0.0
H304 H 0.54239 0.25436 0.94163 0.0
H305 H 0.62289 0.32033 0.93896 0.0
H306 H 0.57225 0.43649 0.91265 0.0
H307 H 0.58011 0.48706 0.92546 0.0
H308 H 0.52588 0.43228 0.92731 0.0
H309 H 0.53492 0.43414 0.96344 0.0
H310 H 0.58908 0.48901 0.9617 0.0
H311 H 0.5876 0.43988 0.9735 0.0
H312 H 0.69748 0.39543 0.93727 0.0
H313 H 0.76304 0.47663 0.9363 0.0
H314 H 0.66557 0.52816 0.94085 0.0
C315 C 0.51936 0.3448 0.94463 0.0
C316 C 0.51035 0.29802 0.94411 0.0
C317 C 0.54825 0.28976 0.94204 0.0
C318 C 0.5942 0.32704 0.94051 0.0
C319 C 0.6019 0.37257 0.94096 0.0
C320 C 0.56571 0.38181 0.94292 0.0
C321 C 0.58413 0.43434 0.94281 0.0
C322 C 0.56442 0.44836 0.92606 0.0
C323 C 0.57329 0.45027 0.96148 0.0
C324 C 0.63624 0.45296 0.94059 0.0
C325 C 0.64547 0.41651 0.9396 0.0
C326 C 0.69075 0.42433 0.93795 0.0
C327 C 0.72779 0.47065 0.93744 0.0
C328 C 0.71952 0.50882 0.93843 0.0
C329 C 0.67298 0.49974 0.93988 0.0
H330 H 0.24872 0.17842 0.224 0.0
H331 H 0.39359 0.28915 0.2284 0.0
H332 H 0.37988 0.33389 0.20363 0.0
H333 H 0.23999 0.18362 0.17417 0.0
H334 H 0.1803 0.17104 0.17491 0.0
H335 H 0.20208 0.14896 0.19304 0.0
H336 H 0.17748 0.18905 0.21828 0.0
H337 H 0.15574 0.21136 0.20022 0.0
H338 H 0.19874 0.25112 0.21668 0.0
H339 H 0.34826 0.36691 0.17843 0.0
H340 H 0.30334 0.38267 0.15448 0.0
H341 H 0.18093 0.24814 0.16698 0.0
C342 C 0.27769 0.21217 0.21987 0.0
C343 C 0.32218 0.23044 0.22824 0.0
C344 C 0.35918 0.27448 0.22218 0.0
C345 C 0.35167 0.30015 0.20817 0.0
C346 C 0.30713 0.28104 0.20029 0.0
C347 C 0.27095 0.23783 0.2059 0.0
C348 C 0.22657 0.22415 0.19515 0.0
C349 C 0.21137 0.1793 0.18363 0.0
C350 C 0.18734 0.21862 0.20837 0.0
C351 C 0.24314 0.26651 0.18262 0.0
C352 C 0.28957 0.2992 0.18576 0.0
C353 C 0.31193 0.34141 0.17583 0.0
C354 C 0.28616 0.35012 0.1623 0.0
C355 C 0.23869 0.31658 0.15876 0.0
C356 C 0.21723 0.27444 0.16918 0.0
H357 H 0.95342 0.18159 0.33237 0.0
H358 H 0.90886 0.28506 0.3323 0.0
H359 H 0.96669 0.3292 0.35727 0.0
H360 H 0.96823 0.17987 0.38162 0.0
H361 H 0.01836 0.1722 0.37972 0.0
H362 H 0.97477 0.1505 0.36152 0.0
H363 H 0.03871 0.19875 0.33682 0.0
H364 H 0.0825 0.22066 0.35496 0.0
H365 H 0.0758 0.26106 0.34002 0.0
H366 H 0.03094 0.36189 0.38259 0.0
H367 H 0.09152 0.37724 0.40654 0.0
H368 H 0.09019 0.25013 0.38965 0.0
C369 C 0.95582 0.21369 0.33747 0.0
C370 C 0.92671 0.22999 0.33028 0.0
C371 C 0.93082 0.27191 0.33757 0.0
C372 C 0.96365 0.29724 0.35171 0.0
C373 C 0.99184 0.28002 0.35844 0.0
C374 C 0.98793 0.23902 0.35155 0.0
C375 C 0.02098 0.22682 0.36134 0.0
C376 C 0.99396 0.17956 0.37166 0.0
C377 C 0.05661 0.22685 0.34746 0.0
C378 C 0.04411 0.26722 0.37494 0.0
C379 C 0.02736 0.29791 0.37304 0.0
C380 C 0.04417 0.33797 0.38419 0.0
C381 C 0.07861 0.34648 0.39772 0.0
C382 C 0.09538 0.31476 0.40005 0.0
C383 C 0.0779 0.27491 0.38837 0.0
H384 H 0.83694 0.06454 0.5592 0.0
H385 H 0.72011 0.08819 0.56664 0.0
H386 H 0.67618 0.02923 0.542 0.0
H387 H 0.82853 0.0535 0.50945 0.0
H388 H 0.84521 0.00918 0.50874 0.0
H389 H 0.86601 0.05164 0.5274 0.0
H390 H 0.83148 0.98452 0.55195 0.0
H391 H 0.81055 0.94183 0.53336 0.0
H392 H 0.77042 0.94052 0.55078 0.0
H393 H 0.64484 0.96572 0.51652 0.0
H394 H 0.63138 0.90807 0.49146 0.0
H395 H 0.77099 0.93062 0.50045 0.0
C396 C 0.80197 0.05718 0.55579 0.0
C397 C 0.78179 0.08071 0.56496 0.0
C398 C 0.73622 0.07051 0.55982 0.0
C399 C 0.711 0.03701 0.54588 0.0
C400 C 0.73206 0.01445 0.53712 0.0
C401 C 0.77671 0.02449 0.54183 0.0
C402 C 0.79243 0.9969 0.53 0.0
C403 C 0.83558 0.02977 0.5182 0.0
C404 C 0.80175 0.96399 0.54226 0.0
C405 C 0.74969 0.96967 0.51785 0.0
C406 C 0.71494 0.97973 0.52222 0.0
C407 C 0.67195 0.95782 0.51294 0.0
C408 C 0.66456 0.92509 0.49877 0.0
C409 C 0.70025 0.91519 0.4939 0.0
C410 C 0.74317 0.93781 0.50367 0.0
H411 H 0.85714 0.77006 0.66598 0.0
H412 H 0.7322 0.63861 0.65232 0.0
H413 H 0.68908 0.65333 0.67731 0.0
H414 H 0.84031 0.76184 0.71587 0.0
H415 H 0.86316 0.8239 0.71875 0.0
H416 H 0.88353 0.80283 0.69975 0.0
H417 H 0.86028 0.84709 0.67592 0.0
H418 H 0.83985 0.8683 0.69484 0.0
H419 H 0.80117 0.83634 0.67574 0.0
H420 H 0.65937 0.68442 0.70349 0.0
H421 H 0.64668 0.72735 0.72917 0.0
H422 H 0.79243 0.83654 0.72574 0.0
C423 C 0.82066 0.74431 0.66815 0.0
C424 C 0.79796 0.70327 0.65711 0.0
C425 C 0.75031 0.67032 0.66061 0.0
C426 C 0.72554 0.67841 0.67474 0.0
C427 C 0.74908 0.71939 0.68533 0.0
C428 C 0.79568 0.7516 0.68224 0.0
C429 C 0.8133 0.79261 0.6956 0.0
C430 C 0.85238 0.79543 0.70824 0.0
C431 C 0.82959 0.8388 0.68488 0.0
C432 C 0.76926 0.77871 0.70667 0.0
C433 C 0.73247 0.73651 0.70054 0.0
C434 C 0.68803 0.71736 0.70846 0.0
C435 C 0.68113 0.74201 0.72301 0.0
C436 C 0.71859 0.78516 0.72956 0.0
C437 C 0.76313 0.80343 0.72122 0.0
H438 H 0.95011 0.77014 0.8904 0.0
H439 H 0.93303 0.63261 0.90069 0.0
H440 H 0.99143 0.64723 0.87592 0.0
H441 H 0.96041 0.76779 0.84034 0.0
H442 H 1.00261 0.82947 0.83872 0.0
H443 H 0.96027 0.80806 0.85741 0.0
H444 H 0.02712 0.84574 0.88189 0.0
H445 H 0.06967 0.86725 0.86329 0.0
H446 H 0.07291 0.83119 0.88158 0.0
H447 H 0.05436 0.67906 0.85049 0.0
H448 H 0.11221 0.72297 0.82554 0.0
H449 H 0.08387 0.83742 0.83153 0.0
C450 C 0.95872 0.74308 0.88754 0.0
C451 C 0.93733 0.70036 0.89758 0.0
C452 C 0.94907 0.66562 0.89317 0.0
C453 C 0.98223 0.67367 0.87917 0.0
C454 C 1.00278 0.71635 0.86959 0.0
C455 C 0.99108 0.75024 0.87351 0.0
C456 C 0.01713 0.79272 0.86101 0.0
C457 C 0.98307 0.7999 0.84864 0.0
C458 C 0.04857 0.83682 0.87264 0.0
C459 C 0.04575 0.77774 0.84949 0.0
C460 C 0.03734 0.73375 0.85467 0.0
C461 C 0.06092 0.71337 0.84624 0.0
C462 C 0.09377 0.73858 0.83212 0.0
C463 C 0.1023 0.78344 0.82648 0.0
C464 C 0.07779 0.80298 0.83534 0.0
H465 H 0.18665 0.94246 0.05772 0.0
H466 H 0.29555 0.90594 0.06182 0.0
H467 H 0.33913 0.9623 0.03628 0.0
H468 H 0.18849 0.9526 1.00778 0.0
H469 H 0.1773 1.00078 1.00809 0.0
H470 H 0.15584 0.95836 0.02681 0.0
H471 H 0.1987 0.02504 0.05112 0.0
H472 H 0.22031 0.06767 0.03248 0.0
H473 H 0.26064 0.06482 0.04871 0.0
H474 H 0.37128 0.02492 1.01037 0.0
H475 H 0.38689 0.08452 0.9859 0.0
H476 H 0.25469 0.07618 0.99891 0.0
C477 C 0.21976 0.94632 0.05337 0.0
C478 C 0.23784 0.91999 0.06187 0.0
C479 C 0.28105 0.92581 0.05552 0.0
C480 C 0.30605 0.95777 0.04105 0.0
C481 C 0.28712 0.98324 0.03302 0.0
C482 C 0.24477 0.97751 0.03893 0.0
C483 C 0.23121 0.0081 0.02793 0.0
C484 C 0.18551 0.97816 0.017 0.0
C485 C 0.22752 0.0435 0.04083 0.0
C486 C 0.27262 0.03223 0.01488 0.0
C487 C 0.30475 0.0178 0.01802 0.0
C488 C 0.34619 0.03624 1.00776 0.0
C489 C 0.35482 0.07012 0.99391 0.0
C490 C 0.32193 0.08485 0.99038 0.0
C491 C 0.28042 0.06545 1.00108 0.0
H492 H 0.23707 0.33788 0.06149 0.0
H493 H 0.08887 0.2353 0.06202 0.0
H494 H 0.0967 0.20634 0.03102 0.0
H495 H 0.24905 0.36142 1.01054 0.0
H496 H 0.30548 0.36555 1.00957 0.0
H497 H 0.28722 0.38203 0.03065 0.0
H498 H 0.30143 0.32353 0.04986 0.0
H499 H 0.31983 0.30701 0.02889 0.0
H500 H 0.27293 0.26284 0.04285 0.0
H501 H 0.12162 0.1849 1.00115 0.0
H502 H 0.16219 0.16862 0.97583 0.0
H503 H 0.29495 0.28362 0.99507 0.0
C504 C 0.20602 0.30998 0.05491 0.0
C505 C 0.16219 0.28918 0.06411 0.0
C506 C 0.12272 0.25192 0.05522 0.0
C507 C 0.12681 0.2354 0.03757 0.0
C508 C 0.17064 0.25634 0.029 0.0
C509 C 0.20961 0.29269 0.03742 0.0
C510 C 0.25342 0.30627 0.02607 0.0
C511 C 0.27506 0.35682 0.01877 0.0
C512 C 0.28897 0.29948 0.03761 0.0
C513 C 0.23319 0.27119 1.01015 0.0
C514 C 0.18527 0.24326 1.01196 0.0
C515 C 0.15906 0.20684 0.9995 0.0
C516 C 0.18249 0.19791 0.98512 0.0
C517 C 0.2318 0.22497 0.98336 0.0
C518 C 0.25721 0.26277 0.99584 0.0
H519 H 0.90735 0.13291 0.23111 0.0
H520 H 0.8544 0.22979 0.23058 0.0
H521 H 0.8909 0.2595 0.1998 0.0
H522 H 0.01662 0.20993 0.21181 0.0
H523 H 0.02092 0.16683 0.19775 0.0
H524 H 0.98633 0.14917 0.21882 0.0
H525 H 0.91412 0.08913 0.19984 0.0
H526 H 0.94859 0.10659 0.17867 0.0
H527 H 0.8952 0.10869 0.1798 0.0
H528 H 0.94096 0.28589 0.17109 0.0
H529 H 0.99882 0.30447 0.14577 0.0
H530 H 0.01692 0.1888 0.16375 0.0
C531 C 0.90255 0.15962 0.22433 0.0
C532 C 0.87786 0.17888 0.23335 0.0
C533 C 0.87309 0.21436 0.22406 0.0
C534 C 0.89363 0.23148 0.20649 0.0
C535 C 0.91859 0.21258 0.19819 0.0
C536 C 0.9228 0.17712 0.20668 0.0
C537 C 0.95393 0.165 0.1952 0.0
C538 C 0.99699 0.17325 0.20658 0.0
C539 C 0.9263 0.11434 0.18794 0.0
C540 C 0.96748 0.20003 0.17925 0.0
C541 C 0.94655 0.22703 0.18122 0.0
C542 C 0.95679 0.26434 0.16915 0.0
C543 C 0.98971 0.2747 0.15483 0.0
C544 C 0.01167 0.24759 0.15258 0.0
C545 C 0.99969 0.20931 0.16479 0.0
H546 H 0.83802 0.00934 0.32871 0.0
H547 H 0.70657 0.995 0.31013 0.0
H548 H 0.6649 0.93512 0.33465 0.0
H549 H 0.79283 0.88538 0.34357 0.0
H550 H 0.83052 0.90281 0.36382 0.0
H551 H 0.84893 0.93848 0.34293 0.0
H552 H 0.86197 0.01033 0.36243 0.0
H553 H 0.84339 0.97492 0.38332 0.0
H554 H 0.81451 1.00655 0.37623 0.0
H555 H 0.63866 0.88303 0.36292 0.0
H556 H 0.62964 0.84481 0.39354 0.0
H557 H 0.77877 0.89531 0.39492 0.0
C558 C 0.80027 0.99239 0.3294 0.0
C559 C 0.77532 1.00608 0.31727 0.0
C560 C 0.72621 0.98454 0.3191 0.0
C561 C 0.70229 0.95047 0.33297 0.0
C562 C 0.72804 0.9386 0.34502 0.0
C563 C 0.77598 0.95893 0.3434 0.0
C564 C 0.79595 0.9439 0.35939 0.0
C565 C 0.81838 0.91597 0.35198 0.0
C566 C 0.83101 0.98646 0.37103 0.0
C567 C 0.7519 0.91274 0.37049 0.0
C568 C 0.71307 0.90963 0.36177 0.0
C569 C 0.66876 0.88482 0.36976 0.0
C570 C 0.66402 0.86325 0.38723 0.0
C571 C 0.70343 0.86684 0.39672 0.0
C572 C 0.74782 0.89136 0.38799 0.0
H573 H 0.79721 0.67777 0.55854 0.0
H574 H 0.94438 0.78355 0.55965 0.0
H575 H 0.93625 0.81195 0.52852 0.0
H576 H 0.78712 0.65453 0.50759 0.0
H577 H 0.72991 0.64853 0.50637 0.0
H578 H 0.74857 0.63281 0.52756 0.0
H579 H 0.7317 0.68964 0.5466 0.0
H580 H 0.71285 0.70534 0.52553 0.0
H581 H 0.75872 0.75028 0.5396 0.0
H582 H 0.91072 0.83256 0.49844 0.0
H583 H 0.86919 0.8477 0.47309 0.0
H584 H 0.73798 0.7297 0.49196 0.0
C585 C 0.82802 0.70627 0.55207 0.0
C586 C 0.87162 0.72812 0.56148 0.0
C587 C 0.91072 0.7661 0.5527 0.0
C588 C 0.90646 0.78232 0.53498 0.0
C589 C 0.86284 0.76029 0.52621 0.0
C590 C 0.82425 0.72321 0.53451 0.0
C591 C 0.78044 0.70844 0.52299 0.0
C592 C 0.76033 0.65808 0.5157 0.0
C593 C 0.74379 0.71377 0.53436 0.0
C594 C 0.80014 0.7437 0.5071 0.0
C595 C 0.84788 0.77278 0.50906 0.0
C596 C 0.87345 0.80968 0.49667 0.0
C597 C 0.84948 0.81795 0.48227 0.0
C598 C 0.80029 0.78973 0.48041 0.0
C599 C 0.77564 0.75141 0.49277 0.0
H600 H 0.12874 0.88266 0.7275 0.0
H601 H 0.18091 0.78516 0.72702 0.0
H602 H 0.14429 0.75565 0.69624 0.0
H603 H 0.01954 0.80634 0.70848 0.0
H604 H 0.01523 0.84942 0.69436 0.0
H605 H 0.05023 0.86718 0.71533 0.0
H606 H 0.12226 0.92672 0.6961 0.0
H607 H 0.08737 0.90922 0.67504 0.0
H608 H 0.14058 0.90676 0.67603 0.0
H609 H 0.0933 0.72892 0.66772 0.0
H610 H 0.03476 0.71031 0.64263 0.0
H611 H 0.01847 0.82709 0.66045 0.0
C612 C 0.13346 0.85595 0.72071 0.0
C613 C 0.15785 0.83637 0.72976 0.0
C614 C 0.16246 0.80084 0.72047 0.0
C615 C 0.14184 0.78383 0.7029 0.0
C616 C 0.11699 0.8029 0.69461 0.0
C617 C 0.11314 0.83857 0.70307 0.0
C618 C 0.08199 0.85082 0.69165 0.0
C619 C 0.03922 0.84295 0.70314 0.0
C620 C 0.10972 0.90139 0.68427 0.0
C621 C 0.06795 0.81559 0.67579 0.0
C622 C 0.08864 0.78836 0.67773 0.0
C623 C 0.07771 0.75071 0.66578 0.0
C624 C 0.0444 0.74031 0.6516 0.0
C625 C 0.0228 0.76776 0.64936 0.0
C626 C 0.03544 0.80632 0.66146 0.0
H627 H 0.34845 0.11294 0.89279 0.0
H628 H 0.24916 0.16254 0.89312 0.0
H629 H 0.22097 0.12747 0.86179 0.0
H630 H 0.37386 0.12592 0.8419 0.0
H631 H 0.37627 0.07254 0.8408 0.0
H632 H 0.39287 0.10677 0.86205 0.0
H633 H 0.33258 0.03404 0.88081 0.0
H634 H 0.31596 0.99963 0.85969 0.0
H635 H 0.27227 1.00342 0.87346 0.0
H636 H 0.19939 0.08174 0.83164 0.0
H637 H 0.18198 0.02447 0.80629 0.0
H638 H 0.29381 1.00249 0.82596 0.0
C639 C 0.32152 0.11741 0.8861 0.0
C640 C 0.30138 0.14102 0.89534 0.0
C641 C 0.2653 0.14488 0.88629 0.0
C642 C 0.24923 0.12525 0.86845 0.0
C643 C 0.26943 0.10169 0.85985 0.0
C644 C 0.30468 0.09752 0.86841 0.0
C645 C 0.31739 0.06662 0.85704 0.0
C646 C 0.36811 0.09465 0.85003 0.0
C647 C 0.30903 0.02338 0.86843 0.0
C648 C 0.28304 0.05311 0.84093 0.0
C649 C 0.25627 0.07438 0.84266 0.0
C650 C 0.22048 0.06531 0.83005 0.0
C651 C 0.21091 0.0327 0.81565 0.0
C652 C 0.23669 0.00909 0.81401 0.0
C653 C 0.27398 0.02046 0.8266 0.0
H654 H 0.79526 0.88266 0.82892 0.0
H655 H 0.64504 0.78824 0.83013 0.0
H656 H 0.65182 0.75931 0.86108 0.0
H657 H 0.82584 0.80488 0.84869 0.0
H658 H 0.87397 0.84781 0.86251 0.0
H659 H 0.85718 0.86539 0.84136 0.0
H660 H 0.84696 0.92703 0.86004 0.0
H661 H 0.86383 0.90966 0.88129 0.0
H662 H 0.80894 0.90882 0.88021 0.0
H663 H 0.67528 0.7326 0.88974 0.0
H664 H 0.71431 0.71331 0.91499 0.0
H665 H 0.84857 0.82715 0.8966 0.0
C666 C 0.7637 0.85673 0.8359 0.0
C667 C 0.71962 0.83785 0.82699 0.0
C668 C 0.67927 0.80335 0.83654 0.0
C669 C 0.68267 0.78668 0.85422 0.0
C670 C 0.72663 0.80506 0.86239 0.0
C671 C 0.76643 0.83969 0.85367 0.0
C672 C 0.80969 0.8513 0.86509 0.0
C673 C 0.84365 0.84176 0.85373 0.0
C674 C 0.83377 0.90223 0.87207 0.0
C675 C 0.78802 0.81688 0.88122 0.0
C676 C 0.74002 0.79062 0.87941 0.0
C677 C 0.71273 0.75367 0.89159 0.0
C678 C 0.73513 0.7429 0.90587 0.0
C679 C 0.78424 0.76934 0.908 0.0
C680 C 0.8108 0.80729 0.89568 0.0
H681 H 0.91273 0.77819 0.99525 0.0
H682 H 0.85491 0.62749 0.99848 0.0
H683 H 0.89031 0.63632 0.02965 0.0
H684 H 0.02044 0.80923 0.01515 0.0
H685 H 0.02668 0.85887 0.02819 0.0
H686 H 0.99201 0.84061 1.00715 0.0
H687 H 0.92092 0.83274 0.02559 0.0
H688 H 0.95548 0.85111 0.04674 0.0
H689 H 0.90093 0.79633 0.04626 0.0
H690 H 0.94067 0.66175 0.05825 0.0
H691 H 0.99995 0.70249 0.083 0.0
H692 H 0.02251 0.83619 0.06252 0.0
C693 C 0.9065 0.74696 1.00272 0.0
C694 C 0.88086 0.70213 0.99433 0.0
C695 C 0.87435 0.66225 1.00451 0.0
C696 C 0.89424 0.66684 0.0223 0.0
C697 C 0.9203 0.71152 0.02994 0.0
C698 C 0.9261 0.75089 0.0206 0.0
C699 C 0.95843 0.79509 0.03146 0.0
C700 C 1.00195 0.82786 0.01979 0.0
C701 C 0.93237 0.8203 0.0379 0.0
C702 C 0.97091 0.77443 0.04802 0.0
C703 C 0.94836 0.72611 0.0469 0.0
C704 C 0.95768 0.69948 0.05955 0.0
C705 C 0.9914 0.72287 0.07355 0.0
C706 C 0.01501 0.77232 0.07493 0.0
C707 C 1.00388 0.79823 0.06219 0.0
H708 H 0.1389 0.9021 0.16111 0.0
H709 H 0.23623 0.84996 0.16275 0.0
H710 H 0.26419 0.88648 0.19367 0.0
H711 H 0.21422 0.01178 0.18068 0.0
H712 H 0.17033 0.01564 0.19428 0.0
H713 H 0.15402 0.98108 0.17319 0.0
H714 H 0.09353 0.90838 0.1919 0.0
H715 H 0.10969 0.94281 0.2131 0.0
H716 H 0.11224 0.88948 0.21222 0.0
H717 H 0.28882 0.93659 0.22242 0.0
H718 H 0.30612 0.99483 0.24751 0.0
H719 H 0.19101 0.01202 0.22844 0.0
C720 C 0.16536 0.89748 0.16815 0.0
C721 C 0.18522 0.87297 0.15941 0.0
C722 C 0.22033 0.86846 0.16905 0.0
C723 C 0.23644 0.88902 0.1867 0.0
C724 C 0.21692 0.91374 0.19473 0.0
C725 C 0.18185 0.91774 0.18588 0.0
C726 C 0.16891 0.94869 0.19712 0.0
C727 C 0.1774 0.99185 0.18563 0.0
C728 C 0.11807 0.92065 0.20399 0.0
C729 C 0.20305 0.96241 0.21335 0.0
C730 C 0.2303 0.94168 0.21173 0.0
C731 C 0.26704 0.95223 0.22409 0.0
C732 C 0.27664 0.98534 0.23829 0.0
C733 C 0.24935 0.00719 0.24017 0.0
C734 C 0.21155 0.99479 0.22772 0.0
H735 H 0.24182 0.13173 0.32695 0.0
H736 H 0.39198 0.22638 0.32846 0.0
H737 H 0.3847 0.25507 0.35938 0.0
H738 H 0.21087 0.20949 0.34664 0.0
H739 H 0.16253 0.16626 0.36029 0.0
H740 H 0.17969 0.14913 0.33915 0.0
H741 H 0.18963 0.08713 0.35778 0.0
H742 H 0.17238 0.10406 0.37901 0.0
H743 H 0.22731 0.10497 0.37804 0.0
H744 H 0.36077 0.28077 0.38819 0.0
H745 H 0.32138 0.29901 0.41357 0.0
H746 H 0.18735 0.18596 0.39455 0.0
C747 C 0.27327 0.15772 0.33397 0.0
C748 C 0.31749 0.17666 0.32519 0.0
C749 C 0.35767 0.21122 0.33479 0.0
C750 C 0.35396 0.22774 0.35244 0.0
C751 C 0.30988 0.2092 0.36051 0.0
C752 C 0.27024 0.17464 0.3517 0.0
C753 C 0.22678 0.16277 0.363 0.0
C754 C 0.193 0.17251 0.35159 0.0
C755 C 0.20261 0.11169 0.36987 0.0
C756 C 0.24815 0.19686 0.37923 0.0
C757 C 0.29618 0.22322 0.37753 0.0
C758 C 0.32328 0.25969 0.38991 0.0
C759 C 0.30066 0.26986 0.40427 0.0
C760 C 0.2515 0.24338 0.40625 0.0
C761 C 0.22513 0.20593 0.39372 0.0
H762 H 0.11525 0.33161 0.49769 0.0
H763 H 0.16179 0.22973 0.49679 0.0
H764 H 0.12503 0.20005 0.52777 0.0
H765 H 0.12654 0.35434 0.54863 0.0
H766 H 0.07397 0.35797 0.54971 0.0
H767 H 0.10865 0.37495 0.5286 0.0
H768 H 0.03615 0.31629 0.50939 0.0
H769 H 1.00129 0.29932 0.53038 0.0
H770 H 1.00438 0.25551 0.51634 0.0
H771 H 0.0789 0.17809 0.55779 0.0
H772 H 0.02199 0.16111 0.58318 0.0
H773 H 1.00302 0.2756 0.56412 0.0
C774 C 0.11858 0.3037 0.50418 0.0
C775 C 0.14191 0.28334 0.49489 0.0
C776 C 0.14434 0.24603 0.50366 0.0
C777 C 0.12375 0.22911 0.5213 0.0
C778 C 0.10062 0.24967 0.52998 0.0
C779 C 0.09769 0.28598 0.52166 0.0
C780 C 0.06724 0.29909 0.53309 0.0
C781 C 0.09582 0.34959 0.54044 0.0
C782 C 0.02475 0.29211 0.52162 0.0
C783 C 0.05267 0.26385 0.54897 0.0
C784 C 0.07298 0.23622 0.54707 0.0
C785 C 0.06314 0.19978 0.5595 0.0
C786 C 0.03076 0.19047 0.57393 0.0
C787 C 1.00811 0.21714 0.57577 0.0
C788 C 0.02019 0.25501 0.56332 0.0
H789 H 0.84089 1.00385 0.73015 0.0
H790 H 0.72088 0.01281 0.74888 0.0
H791 H 0.73564 0.07082 0.72389 0.0
H792 H 0.91482 0.12749 0.71421 0.0
H793 H 0.93557 0.1104 0.69402 0.0
H794 H 0.92043 0.07587 0.7152 0.0
H795 H 0.86292 1.002 0.69636 0.0
H796 H 0.87767 0.03625 0.67519 0.0
H797 H 0.81757 1.00294 0.68264 0.0
H798 H 0.75887 0.12185 0.6953 0.0
H799 H 0.78562 0.15886 0.66435 0.0
H800 H 0.88859 0.11384 0.66294 0.0
C801 C 0.81869 0.01924 0.72938 0.0
C802 C 0.78028 1.00463 0.74171 0.0
C803 C 0.75083 0.02404 0.73976 0.0
C804 C 0.75903 0.05705 0.72563 0.0
C805 C 0.79655 0.0699 0.71342 0.0
C806 C 0.82585 0.05151 0.71511 0.0
C807 C 0.86033 0.06699 0.69893 0.0
C808 C 0.91078 0.09698 0.70602 0.0
C809 C 0.85423 0.02452 0.68762 0.0
C810 C 0.84525 0.09621 0.68766 0.0
C811 C 0.80892 0.09803 0.69645 0.0
C812 C 0.78757 0.12101 0.68838 0.0
C813 C 0.80305 0.14191 0.67072 0.0
C814 C 0.83935 0.13945 0.66111 0.0
C815 C 0.86118 0.11691 0.66995 0.0
loop_
_geom_bond_atom_site_label_1
_geom_bond_atom_site_label_2
_geom_bond_distance
_geom_bond_site_symmetry_2
_ccdc_geom_bond_type
O0 Cd1 2.223 . S
O0 C8 1.315 . S
Cd1 O0 2.223 . S
Cd1 O4 2.297 . S
Cd1 O5 2.439 . S
Cd1 O11 2.240 . S
Cd2 O3 2.240 . S
Cd2 O10 2.223 . S
Cd2 O12 2.297 . S
Cd2 O13 2.439 . S
O3 Cd2 2.240 . S
O3 C8 1.279 . S
O4 Cd1 2.297 . S
O4 C6 1.247 . S
O5 Cd1 2.439 . S
O5 C6 1.208 . S
C6 O4 1.247 . S
C6 O5 1.208 . S
C7 O12 1.247 . S
C7 O13 1.208 . S
C8 O0 1.315 . S
C8 O3 1.279 . S
C9 O10 1.315 . S
C9 O11 1.279 . S
O10 Cd2 2.223 . S
O10 C9 1.315 . S
O11 Cd1 2.240 . S
O11 C9 1.279 . S
O12 Cd2 2.297 . S
O12 C7 1.247 . S
O13 Cd2 2.439 . S
O13 C7 1.208 . S
O14 Cd15 2.223 . S
O14 C22 1.315 . S
Cd15 O14 2.223 . S
Cd15 O18 2.297 . S
Cd15 O19 2.439 . S
Cd15 O25 2.240 . S
Cd16 O17 2.240 . S
Cd16 O24 2.223 . S
Cd16 O26 2.297 . S
Cd16 O27 2.439 . S
O17 Cd16 2.240 . S
O17 C22 1.279 . S
O18 Cd15 2.297 . S
O18 C20 1.247 . S
O19 Cd15 2.439 . S
O19 C20 1.208 . S
C20 O18 1.247 . S
C20 O19 1.208 . S
C21 O26 1.247 . S
C21 O27 1.208 . S
C22 O14 1.315 . S
C22 O17 1.279 . S
C23 O24 1.315 . S
C23 O25 1.279 . S
O24 Cd16 2.223 . S
O24 C23 1.315 . S
O25 Cd15 2.240 . S
O25 C23 1.279 . S
O26 Cd16 2.297 . S
O26 C21 1.247 . S
O27 Cd16 2.439 . S
O27 C21 1.208 . S
O28 Cd29 2.223 . S
O28 C36 1.315 . S
Cd29 O28 2.223 . S
Cd29 O32 2.297 . S
Cd29 O33 2.439 . S
Cd29 O39 2.240 . S
Cd30 O31 2.240 . S
Cd30 O38 2.223 . S
Cd30 O40 2.297 . S
Cd30 O41 2.439 . S
O31 Cd30 2.240 . S
O31 C36 1.279 . S
O32 Cd29 2.297 . S
O32 C34 1.247 . S
O33 Cd29 2.439 . S
O33 C34 1.208 . S
C34 O32 1.247 . S
C34 O33 1.208 . S
C35 O40 1.247 . S
C35 O41 1.208 . S
C36 O28 1.315 . S
C36 O31 1.279 . S
C37 O38 1.315 . S
C37 O39 1.279 . S
O38 Cd30 2.223 . S
O38 C37 1.315 . S
O39 Cd29 2.240 . S
O39 C37 1.279 . S
O40 Cd30 2.297 . S
O40 C35 1.247 . S
O41 Cd30 2.439 . S
O41 C35 1.208 . S
O42 Cd43 2.223 . S
O42 C50 1.315 . S
Cd43 O42 2.223 . S
Cd43 O46 2.297 . S
Cd43 O47 2.439 . S
Cd43 O53 2.240 . S
Cd44 O45 2.240 . S
Cd44 O52 2.223 . S
Cd44 O54 2.297 . S
Cd44 O55 2.439 . S
O45 Cd44 2.240 . S
O45 C50 1.279 . S
O46 Cd43 2.297 . S
O46 C48 1.247 . S
O47 Cd43 2.439 . S
O47 C48 1.208 . S
C48 O46 1.247 . S
C48 O47 1.208 . S
C49 O54 1.247 . S
C49 O55 1.208 . S
C50 O42 1.315 . S
C50 O45 1.279 . S
C51 O52 1.315 . S
C51 O53 1.279 . S
O52 Cd44 2.223 . S
O52 C51 1.315 . S
O53 Cd43 2.240 . S
O53 C51 1.279 . S
O54 Cd44 2.297 . S
O54 C49 1.247 . S
O55 Cd44 2.439 . S
O55 C49 1.208 . S
O56 Cd57 2.223 . S
O56 C64 1.315 . S
Cd57 O56 2.223 . S
Cd57 O60 2.297 . S
Cd57 O61 2.439 . S
Cd57 O67 2.240 . S
Cd58 O59 2.240 . S
Cd58 O66 2.223 . S
Cd58 O68 2.297 . S
Cd58 O69 2.439 . S
O59 Cd58 2.240 . S
O59 C64 1.279 . S
O60 Cd57 2.297 . S
O60 C62 1.247 . S
O61 Cd57 2.439 . S
O61 C62 1.208 . S
C62 O60 1.247 . S
C62 O61 1.208 . S
C63 O68 1.247 . S
C63 O69 1.208 . S
C64 O56 1.315 . S
C64 O59 1.279 . S
C65 O66 1.315 . S
C65 O67 1.279 . S
O66 Cd58 2.223 . S
O66 C65 1.315 . S
O67 Cd57 2.240 . S
O67 C65 1.279 . S
O68 Cd58 2.297 . S
O68 C63 1.247 . S
O69 Cd58 2.439 . S
O69 C63 1.208 . S
O70 Cd71 2.223 . S
O70 C78 1.315 . S
Cd71 O70 2.223 . S
Cd71 O74 2.297 . S
Cd71 O75 2.439 . S
Cd71 O81 2.240 . S
Cd72 O73 2.240 . S
Cd72 O80 2.223 . S
Cd72 O82 2.297 1_556 S
Cd72 O83 2.439 . S
O73 Cd72 2.240 . S
O73 C78 1.279 . S
O74 Cd71 2.297 . S
O74 C76 1.247 . S
O75 Cd71 2.439 . S
O75 C76 1.208 . S
C76 O74 1.247 . S
C76 O75 1.208 . S
C77 O82 1.247 . S
C77 O83 1.208 1_554 S
C78 O70 1.315 . S
C78 O73 1.279 . S
C79 O80 1.315 . S
C79 O81 1.279 . S
O80 Cd72 2.223 . S
O80 C79 1.315 . S
O81 Cd71 2.240 . S
O81 C79 1.279 . S
O82 Cd72 2.297 1_554 S
O82 C77 1.247 . S
O83 Cd72 2.439 . S
O83 C77 1.208 1_556 S
O84 Cd85 2.223 . S
O84 C92 1.315 . S
Cd85 O84 2.223 . S
Cd85 O88 2.297 . S
Cd85 O89 2.439 . S
Cd85 O95 2.240 . S
Cd86 O87 2.240 . S
Cd86 O94 2.223 . S
Cd86 O96 2.297 . S
Cd86 O97 2.439 . S
O87 Cd86 2.240 . S
O87 C92 1.279 . S
O88 Cd85 2.297 . S
O88 C90 1.247 . S
O89 Cd85 2.439 . S
O89 C90 1.208 . S
C90 O88 1.247 . S
C90 O89 1.208 . S
C91 O96 1.247 . S
C91 O97 1.208 . S
C92 O84 1.315 . S
C92 O87 1.279 . S
C93 O94 1.315 . S
C93 O95 1.279 . S
O94 Cd86 2.223 . S
O94 C93 1.315 . S
O95 Cd85 2.240 . S
O95 C93 1.279 . S
O96 Cd86 2.297 . S
O96 C91 1.247 . S
O97 Cd86 2.439 . S
O97 C91 1.208 . S
O98 Cd99 2.223 . S
O98 C106 1.315 . S
Cd99 O98 2.223 . S
Cd99 O102 2.297 . S
Cd99 O103 2.439 . S
Cd99 O109 2.240 . S
Cd100 O101 2.240 . S
Cd100 O108 2.223 . S
Cd100 O110 2.297 . S
Cd100 O111 2.439 . S
O101 Cd100 2.240 . S
O101 C106 1.279 . S
O102 Cd99 2.297 . S
O102 C104 1.247 . S
O103 Cd99 2.439 . S
O103 C104 1.208 . S
C104 O102 1.247 . S
C104 O103 1.208 . S
C105 O110 1.247 . S
C105 O111 1.208 . S
C106 O98 1.315 . S
C106 O101 1.279 . S
C107 O108 1.315 . S
C107 O109 1.279 . S
O108 Cd100 2.223 . S
O108 C107 1.315 . S
O109 Cd99 2.240 . S
O109 C107 1.279 . S
O110 Cd100 2.297 . S
O110 C105 1.247 . S
O111 Cd100 2.439 . S
O111 C105 1.208 . S
O112 Cd113 2.223 . S
O112 C120 1.315 . S
Cd113 O112 2.223 . S
Cd113 O116 2.297 . S
Cd113 O117 2.439 . S
Cd113 O123 2.240 . S
Cd114 O115 2.240 . S
Cd114 O122 2.223 . S
Cd114 O124 2.297 . S
Cd114 O125 2.439 . S
O115 Cd114 2.240 . S
O115 C120 1.279 . S
O116 Cd113 2.297 . S
O116 C118 1.247 . S
O117 Cd113 2.439 . S
O117 C118 1.208 . S
C118 O116 1.247 . S
C118 O117 1.208 . S
C119 O124 1.247 . S
C119 O125 1.208 . S
C120 O112 1.315 . S
C120 O115 1.279 . S
C121 O122 1.315 . S
C121 O123 1.279 . S
O122 Cd114 2.223 . S
O122 C121 1.315 . S
O123 Cd113 2.240 . S
O123 C121 1.279 . S
O124 Cd114 2.297 . S
O124 C119 1.247 . S
O125 Cd114 2.439 . S
O125 C119 1.208 . S
O126 Cd127 2.223 . S
O126 C134 1.315 . S
Cd127 O126 2.223 . S
Cd127 O130 2.297 . S
Cd127 O131 2.439 . S
Cd127 O137 2.240 . S
Cd128 O129 2.240 . S
Cd128 O136 2.223 . S
Cd128 O138 2.297 . S
Cd128 O139 2.439 . S
O129 Cd128 2.240 . S
O129 C134 1.279 . S
O130 Cd127 2.297 . S
O130 C132 1.247 . S
O131 Cd127 2.439 . S
O131 C132 1.208 . S
C132 O130 1.247 . S
C132 O131 1.208 . S
C133 O138 1.247 . S
C133 O139 1.208 . S
C134 O126 1.315 . S
C134 O129 1.279 . S
C135 O136 1.315 . S
C135 O137 1.279 . S
O136 Cd128 2.223 . S
O136 C135 1.315 . S
O137 Cd127 2.240 . S
O137 C135 1.279 . S
O138 Cd128 2.297 . S
O138 C133 1.247 . S
O139 Cd128 2.439 . S
O139 C133 1.208 . S
O140 Cd141 2.223 . S
O140 C148 1.315 . S
Cd141 O140 2.223 . S
Cd141 O144 2.297 . S
Cd141 O145 2.439 . S
Cd141 O151 2.240 . S
Cd142 O143 2.240 . S
Cd142 O150 2.223 . S
Cd142 O152 2.297 . S
Cd142 O153 2.439 . S
O143 Cd142 2.240 . S
O143 C148 1.279 . S
O144 Cd141 2.297 . S
O144 C146 1.247 . S
O145 Cd141 2.439 . S
O145 C146 1.208 . S
C146 O144 1.247 . S
C146 O145 1.208 . S
C147 O152 1.247 . S
C147 O153 1.208 . S
C148 O140 1.315 . S
C148 O143 1.279 . S
C149 O150 1.315 . S
C149 O151 1.279 . S
O150 Cd142 2.223 . S
O150 C149 1.315 . S
O151 Cd141 2.240 . S
O151 C149 1.279 . S
O152 Cd142 2.297 . S
O152 C147 1.247 . S
O153 Cd142 2.439 . S
O153 C147 1.208 . S
O154 Cd155 2.223 . S
O154 C162 1.315 . S
Cd155 O154 2.223 . S
Cd155 O158 2.297 . S
Cd155 O159 2.439 . S
Cd155 O165 2.240 . S
Cd156 O157 2.240 . S
Cd156 O164 2.223 . S
Cd156 O166 2.297 . S
Cd156 O167 2.439 . S
O157 Cd156 2.240 . S
O157 C162 1.279 . S
O158 Cd155 2.297 . S
O158 C160 1.247 . S
O159 Cd155 2.439 . S
O159 C160 1.208 . S
C160 O158 1.247 . S
C160 O159 1.208 . S
C161 O166 1.247 . S
C161 O167 1.208 . S
C162 O154 1.315 . S
C162 O157 1.279 . S
C163 O164 1.315 . S
C163 O165 1.279 . S
O164 Cd156 2.223 . S
O164 C163 1.315 . S
O165 Cd155 2.240 . S
O165 C163 1.279 . S
O166 Cd156 2.297 . S
O166 C161 1.247 . S
O167 Cd156 2.439 . S
O167 C161 1.208 . S
H168 C180 0.930 . S
H169 C182 0.930 . S
H170 C183 0.930 . S
H171 C187 0.959 . S
H172 C187 0.959 . S
H173 C187 0.961 . S
H174 C188 0.960 . S
H175 C188 0.961 . S
H176 C188 0.959 . S
H177 C191 0.929 . S
H178 C192 0.931 . S
H179 C194 0.930 . S
C180 H168 0.930 . S
C180 C181 1.399 . S
C180 C185 1.399 . S
C181 C180 1.399 . S
C181 C182 1.376 . S
C182 H169 0.930 . S
C182 C181 1.376 . S
C182 C183 1.388 . S
C183 H170 0.930 . S
C183 C182 1.388 . S
C183 C184 1.390 . S
C184 C183 1.390 . S
C184 C185 1.394 . S
C184 C190 1.465 . S
C185 C180 1.399 . S
C185 C184 1.394 . S
C185 C186 1.516 . S
C186 C185 1.516 . S
C186 C187 1.502 . S
C186 C188 1.561 . S
C186 C189 1.526 . S
C187 H171 0.959 . S
C187 H172 0.959 . S
C187 H173 0.961 . S
C187 C186 1.502 . S
C188 H174 0.960 . S
C188 H175 0.961 . S
C188 H176 0.959 . S
C188 C186 1.561 . S
C189 C186 1.526 . S
C189 C190 1.396 . S
C189 C194 1.390 . S
C190 C184 1.465 . S
C190 C189 1.396 . S
C190 C191 1.399 . S
C191 H177 0.929 . S
C191 C190 1.399 . S
C191 C192 1.385 . S
C192 H178 0.931 . S
C192 C191 1.385 . S
C192 C193 1.389 . S
C193 C192 1.389 . S
C193 C194 1.387 . S
C194 H179 0.930 . S
C194 C189 1.390 . S
C194 C193 1.387 . S
H195 C207 0.930 . S
H196 C209 0.930 . S
H197 C210 0.930 . S
H198 C214 0.959 . S
H199 C214 0.959 . S
H200 C214 0.961 . S
H201 C215 0.960 . S
H202 C215 0.961 . S
H203 C215 0.959 . S
H204 C218 0.929 . S
H205 C219 0.931 . S
H206 C221 0.930 . S
C207 H195 0.930 . S
C207 C208 1.399 . S
C207 C212 1.399 . S
C208 C207 1.399 . S
C208 C209 1.376 . S
C209 H196 0.930 . S
C209 C208 1.376 . S
C209 C210 1.388 . S
C210 H197 0.930 . S
C210 C209 1.388 . S
C210 C211 1.390 . S
C211 C210 1.390 . S
C211 C212 1.394 . S
C211 C217 1.465 . S
C212 C207 1.399 . S
C212 C211 1.394 . S
C212 C213 1.516 . S
C213 C212 1.516 . S
C213 C214 1.502 . S
C213 C215 1.561 . S
C213 C216 1.526 . S
C214 H198 0.959 . S
C214 H199 0.959 . S
C214 H200 0.961 . S
C214 C213 1.502 . S
C215 H201 0.960 . S
C215 H202 0.961 . S
C215 H203 0.959 . S
C215 C213 1.561 . S
C216 C213 1.526 . S
C216 C217 1.396 . S
C216 C221 1.390 . S
C217 C211 1.465 . S
C217 C216 1.396 . S
C217 C218 1.399 . S
C218 H204 0.929 . S
C218 C217 1.399 . S
C218 C219 1.385 . S
C219 H205 0.931 . S
C219 C218 1.385 . S
C219 C220 1.389 . S
C220 C219 1.389 . S
C220 C221 1.387 . S
C221 H206 0.930 . S
C221 C216 1.390 . S
C221 C220 1.387 . S
H222 C234 0.930 . S
H223 C236 0.930 . S
H224 C237 0.930 . S
H225 C241 0.959 . S
H226 C241 0.959 . S
H227 C241 0.961 . S
H228 C242 0.960 . S
H229 C242 0.961 . S
H230 C242 0.959 . S
H231 C245 0.929 . S
H232 C246 0.931 . S
H233 C248 0.930 . S
C234 H222 0.930 . S
C234 C235 1.399 . S
C234 C239 1.399 . S
C235 C234 1.399 . S
C235 C236 1.376 . S
C236 H223 0.930 . S
C236 C235 1.376 . S
C236 C237 1.388 . S
C237 H224 0.930 . S
C237 C236 1.388 . S
C237 C238 1.390 . S
C238 C237 1.390 . S
C238 C239 1.394 . S
C238 C244 1.465 . S
C239 C234 1.399 . S
C239 C238 1.394 . S
C239 C240 1.516 . S
C240 C239 1.516 . S
C240 C241 1.502 . S
C240 C242 1.561 . S
C240 C243 1.526 . S
C241 H225 0.959 . S
C241 H226 0.959 . S
C241 H227 0.961 . S
C241 C240 1.502 . S
C242 H228 0.960 . S
C242 H229 0.961 . S
C242 H230 0.959 . S
C242 C240 1.561 . S
C243 C240 1.526 . S
C243 C244 1.396 . S
C243 C248 1.390 . S
C244 C238 1.465 . S
C244 C243 1.396 . S
C244 C245 1.399 . S
C245 H231 0.929 . S
C245 C244 1.399 . S
C245 C246 1.385 . S
C246 H232 0.931 . S
C246 C245 1.385 . S
C246 C247 1.389 . S
C247 C246 1.389 . S
C247 C248 1.387 . S
C248 H233 0.930 . S
C248 C243 1.390 . S
C248 C247 1.387 . S
H249 C261 0.930 . S
H250 C263 0.930 . S
H251 C264 0.930 . S
H252 C268 0.959 . S
H253 C268 0.959 . S
H254 C268 0.961 . S
H255 C269 0.960 . S
H256 C269 0.961 . S
H257 C269 0.959 . S
H258 C272 0.929 . S
H259 C273 0.931 . S
H260 C275 0.930 . S
C261 H249 0.930 . S
C261 C262 1.399 . S
C261 C266 1.399 . S
C262 C261 1.399 . S
C262 C263 1.376 . S
C263 H250 0.930 . S
C263 C262 1.376 . S
C263 C264 1.388 . S
C264 H251 0.930 . S
C264 C263 1.388 . S
C264 C265 1.390 . S
C265 C264 1.390 . S
C265 C266 1.394 . S
C265 C271 1.465 . S
C266 C261 1.399 . S
C266 C265 1.394 . S
C266 C267 1.516 . S
C267 C266 1.516 . S
C267 C268 1.502 . S
C267 C269 1.561 . S
C267 C270 1.526 . S
C268 H252 0.959 . S
C268 H253 0.959 . S
C268 H254 0.961 . S
C268 C267 1.502 . S
C269 H255 0.960 . S
C269 H256 0.961 . S
C269 H257 0.959 . S
C269 C267 1.561 . S
C270 C267 1.526 . S
C270 C271 1.396 . S
C270 C275 1.390 . S
C271 C265 1.465 . S
C271 C270 1.396 . S
C271 C272 1.399 . S
C272 H258 0.929 . S
C272 C271 1.399 . S
C272 C273 1.385 . S
C273 H259 0.931 . S
C273 C272 1.385 . S
C273 C274 1.389 . S
C274 C273 1.389 . S
C274 C275 1.387 . S
C275 H260 0.930 . S
C275 C270 1.390 . S
C275 C274 1.387 . S
H276 C288 0.930 . S
H277 C290 0.930 . S
H278 C291 0.930 . S
H279 C295 0.959 . S
H280 C295 0.959 . S
H281 C295 0.961 . S
H282 C296 0.960 . S
H283 C296 0.961 . S
H284 C296 0.959 . S
H285 C299 0.929 . S
H286 C300 0.931 . S
H287 C302 0.930 . S
C288 H276 0.930 . S
C288 C289 1.399 . S
C288 C293 1.399 . S
C289 C288 1.399 . S
C289 C290 1.376 . S
C290 H277 0.930 . S
C290 C289 1.376 . S
C290 C291 1.388 . S
C291 H278 0.930 . S
C291 C290 1.388 . S
C291 C292 1.390 . S
C292 C291 1.390 . S
C292 C293 1.394 . S
C292 C298 1.465 . S
C293 C288 1.399 . S
C293 C292 1.394 . S
C293 C294 1.516 . S
C294 C293 1.516 . S
C294 C295 1.502 . S
C294 C296 1.561 . S
C294 C297 1.526 . S
C295 H279 0.959 . S
C295 H280 0.959 . S
C295 H281 0.961 . S
C295 C294 1.502 . S
C296 H282 0.960 . S
C296 H283 0.961 . S
C296 H284 0.959 . S
C296 C294 1.561 . S
C297 C294 1.526 . S
C297 C298 1.396 . S
C297 C302 1.390 . S
C298 C292 1.465 . S
C298 C297 1.396 . S
C298 C299 1.399 . S
C299 H285 0.929 . S
C299 C298 1.399 . S
C299 C300 1.385 . S
C300 H286 0.931 . S
C300 C299 1.385 . S
C300 C301 1.389 . S
C301 C300 1.389 . S
C301 C302 1.387 . S
C302 H287 0.930 . S
C302 C297 1.390 . S
C302 C301 1.387 . S
H303 C315 0.930 . S
H304 C317 0.930 . S
H305 C318 0.930 . S
H306 C322 0.959 . S
H307 C322 0.959 . S
H308 C322 0.961 . S
H309 C323 0.960 . S
H310 C323 0.961 . S
H311 C323 0.959 . S
H312 C326 0.929 . S
H313 C327 0.931 . S
H314 C329 0.930 . S
C315 H303 0.930 . S
C315 C316 1.399 . S
C315 C320 1.399 . S
C316 C315 1.399 . S
C316 C317 1.376 . S
C317 H304 0.930 . S
C317 C316 1.376 . S
C317 C318 1.388 . S
C318 H305 0.930 . S
C318 C317 1.388 . S
C318 C319 1.390 . S
C319 C318 1.390 . S
C319 C320 1.394 . S
C319 C325 1.465 . S
C320 C315 1.399 . S
C320 C319 1.394 . S
C320 C321 1.516 . S
C321 C320 1.516 . S
C321 C322 1.502 . S
C321 C323 1.561 . S
C321 C324 1.526 . S
C322 H306 0.959 . S
C322 H307 0.959 . S
C322 H308 0.961 . S
C322 C321 1.502 . S
C323 H309 0.960 . S
C323 H310 0.961 . S
C323 H311 0.959 . S
C323 C321 1.561 . S
C324 C321 1.526 . S
C324 C325 1.396 . S
C324 C329 1.390 . S
C325 C319 1.465 . S
C325 C324 1.396 . S
C325 C326 1.399 . S
C326 H312 0.929 . S
C326 C325 1.399 . S
C326 C327 1.385 . S
C327 H313 0.931 . S
C327 C326 1.385 . S
C327 C328 1.389 . S
C328 C327 1.389 . S
C328 C329 1.387 . S
C329 H314 0.930 . S
C329 C324 1.390 . S
C329 C328 1.387 . S
H330 C342 0.930 . S
H331 C344 0.930 . S
H332 C345 0.930 . S
H333 C349 0.959 . S
H334 C349 0.959 . S
H335 C349 0.961 . S
H336 C350 0.960 . S
H337 C350 0.961 . S
H338 C350 0.959 . S
H339 C353 0.929 . S
H340 C354 0.931 . S
H341 C356 0.930 . S
C342 H330 0.930 . S
C342 C343 1.399 . S
C342 C347 1.399 . S
C343 C342 1.399 . S
C343 C344 1.376 . S
C344 H331 0.930 . S
C344 C343 1.376 . S
C344 C345 1.388 . S
C345 H332 0.930 . S
C345 C344 1.388 . S
C345 C346 1.390 . S
C346 C345 1.390 . S
C346 C347 1.394 . S
C346 C352 1.465 . S
C347 C342 1.399 . S
C347 C346 1.394 . S
C347 C348 1.516 . S
C348 C347 1.516 . S
C348 C349 1.502 . S
C348 C350 1.561 . S
C348 C351 1.526 . S
C349 H333 0.959 . S
C349 H334 0.959 . S
C349 H335 0.961 . S
C349 C348 1.502 . S
C350 H336 0.960 . S
C350 H337 0.961 . S
C350 H338 0.959 . S
C350 C348 1.561 . S
C351 C348 1.526 . S
C351 C352 1.396 . S
C351 C356 1.390 . S
C352 C346 1.465 . S
C352 C351 1.396 . S
C352 C353 1.399 . S
C353 H339 0.929 . S
C353 C352 1.399 . S
C353 C354 1.385 . S
C354 H340 0.931 . S
C354 C353 1.385 . S
C354 C355 1.389 . S
C355 C354 1.389 . S
C355 C356 1.387 . S
C356 H341 0.930 . S
C356 C351 1.390 . S
C356 C355 1.387 . S
H357 C369 0.930 . S
H358 C371 0.930 . S
H359 C372 0.930 . S
H360 C376 0.959 . S
H361 C376 0.959 . S
H362 C376 0.961 . S
H363 C377 0.960 1_655 S
H364 C377 0.961 . S
H365 C377 0.959 . S
H366 C380 0.929 . S
H367 C381 0.931 . S
H368 C383 0.930 . S
C369 H357 0.930 . S
C369 C370 1.399 . S
C369 C374 1.399 . S
C370 C369 1.399 . S
C370 C371 1.376 . S
C371 H358 0.930 . S
C371 C370 1.376 . S
C371 C372 1.388 . S
C372 H359 0.930 . S
C372 C371 1.388 . S
C372 C373 1.390 . S
C373 C372 1.390 . S
C373 C374 1.394 . S
C373 C379 1.465 1_655 S
C374 C369 1.399 . S
C374 C373 1.394 . S
C374 C375 1.516 1_655 S
C375 C374 1.516 1_455 S
C375 C376 1.502 . S
C375 C377 1.561 . S
C375 C378 1.526 . S
C376 H360 0.959 . S
C376 H361 0.959 . S
C376 H362 0.961 . S
C376 C375 1.502 . S
C377 H363 0.960 1_455 S
C377 H364 0.961 . S
C377 H365 0.959 . S
C377 C375 1.561 . S
C378 C375 1.526 . S
C378 C379 1.396 . S
C378 C383 1.390 . S
C379 C373 1.465 1_455 S
C379 C378 1.396 . S
C379 C380 1.399 . S
C380 H366 0.929 . S
C380 C379 1.399 . S
C380 C381 1.385 . S
C381 H367 0.931 . S
C381 C380 1.385 . S
C381 C382 1.389 . S
C382 C381 1.389 . S
C382 C383 1.387 . S
C383 H368 0.930 . S
C383 C378 1.390 . S
C383 C382 1.387 . S
H384 C396 0.930 . S
H385 C398 0.930 . S
H386 C399 0.930 . S
H387 C403 0.959 . S
H388 C403 0.959 . S
H389 C403 0.961 1_545 S
H390 C404 0.960 . S
H391 C404 0.961 . S
H392 C404 0.959 . S
H393 C407 0.929 . S
H394 C408 0.931 . S
H395 C410 0.930 . S
C396 H384 0.930 . S
C396 C397 1.399 . S
C396 C401 1.399 . S
C397 C396 1.399 . S
C397 C398 1.376 . S
C398 H385 0.930 . S
C398 C397 1.376 . S
C398 C399 1.388 . S
C399 H386 0.930 . S
C399 C398 1.388 . S
C399 C400 1.390 . S
C400 C399 1.390 . S
C400 C401 1.394 . S
C400 C406 1.465 1_545 S
C401 C396 1.399 . S
C401 C400 1.394 . S
C401 C402 1.516 1_545 S
C402 C401 1.516 1_565 S
C402 C403 1.502 . S
C402 C404 1.561 . S
C402 C405 1.526 . S
C403 H387 0.959 . S
C403 H388 0.959 . S
C403 H389 0.961 1_565 S
C403 C402 1.502 . S
C404 H390 0.960 . S
C404 H391 0.961 . S
C404 H392 0.959 . S
C404 C402 1.561 . S
C405 C402 1.526 . S
C405 C406 1.396 . S
C405 C410 1.390 . S
C406 C400 1.465 1_565 S
C406 C405 1.396 . S
C406 C407 1.399 . S
C407 H393 0.929 . S
C407 C406 1.399 . S
C407 C408 1.385 . S
C408 H394 0.931 . S
C408 C407 1.385 . S
C408 C409 1.389 . S
C409 C408 1.389 . S
C409 C410 1.387 . S
C410 H395 0.930 . S
C410 C405 1.390 . S
C410 C409 1.387 . S
H411 C423 0.930 . S
H412 C425 0.930 . S
H413 C426 0.930 . S
H414 C430 0.959 . S
H415 C430 0.959 . S
H416 C430 0.961 . S
H417 C431 0.960 . S
H418 C431 0.961 . S
H419 C431 0.959 . S
H420 C434 0.929 . S
H421 C435 0.931 . S
H422 C437 0.930 . S
C423 H411 0.930 . S
C423 C424 1.399 . S
C423 C428 1.399 . S
C424 C423 1.399 . S
C424 C425 1.376 . S
C425 H412 0.930 . S
C425 C424 1.376 . S
C425 C426 1.388 . S
C426 H413 0.930 . S
C426 C425 1.388 . S
C426 C427 1.390 . S
C427 C426 1.390 . S
C427 C428 1.394 . S
C427 C433 1.465 . S
C428 C423 1.399 . S
C428 C427 1.394 . S
C428 C429 1.516 . S
C429 C428 1.516 . S
C429 C430 1.502 . S
C429 C431 1.561 . S
C429 C432 1.526 . S
C430 H414 0.959 . S
C430 H415 0.959 . S
C430 H416 0.961 . S
C430 C429 1.502 . S
C431 H417 0.960 . S
C431 H418 0.961 . S
C431 H419 0.959 . S
C431 C429 1.561 . S
C432 C429 1.526 . S
C432 C433 1.396 . S
C432 C437 1.390 . S
C433 C427 1.465 . S
C433 C432 1.396 . S
C433 C434 1.399 . S
C434 H420 0.929 . S
C434 C433 1.399 . S
C434 C435 1.385 . S
C435 H421 0.931 . S
C435 C434 1.385 . S
C435 C436 1.389 . S
C436 C435 1.389 . S
C436 C437 1.387 . S
C437 H422 0.930 . S
C437 C432 1.390 . S
C437 C436 1.387 . S
H438 C450 0.930 . S
H439 C452 0.930 . S
H440 C453 0.930 . S
H441 C457 0.959 . S
H442 C457 0.959 1_455 S
H443 C457 0.961 . S
H444 C458 0.960 1_655 S
H445 C458 0.961 . S
H446 C458 0.959 . S
H447 C461 0.929 . S
H448 C462 0.931 . S
H449 C464 0.930 . S
C450 H438 0.930 . S
C450 C451 1.399 . S
C450 C455 1.399 . S
C451 C450 1.399 . S
C451 C452 1.376 . S
C452 H439 0.930 . S
C452 C451 1.376 . S
C452 C453 1.388 . S
C453 H440 0.930 . S
C453 C452 1.388 . S
C453 C454 1.390 . S
C454 C453 1.390 . S
C454 C455 1.394 . S
C454 C460 1.465 1_655 S
C455 C450 1.399 . S
C455 C454 1.394 . S
C455 C456 1.516 . S
C456 C455 1.516 . S
C456 C457 1.502 . S
C456 C458 1.561 1_655 S
C456 C459 1.525 1_655 S
C457 H441 0.959 . S
C457 H442 0.959 1_655 S
C457 H443 0.961 . S
C457 C456 1.502 . S
C458 H444 0.960 1_455 S
C458 H445 0.961 . S
C458 H446 0.959 . S
C458 C456 1.561 1_455 S
C459 C456 1.525 1_455 S
C459 C460 1.396 . S
C459 C464 1.390 . S
C460 C454 1.465 1_455 S
C460 C459 1.396 . S
C460 C461 1.399 . S
C461 H447 0.929 . S
C461 C460 1.399 . S
C461 C462 1.385 . S
C462 H448 0.931 . S
C462 C461 1.385 . S
C462 C463 1.389 . S
C463 C462 1.389 . S
C463 C464 1.387 . S
C464 H449 0.930 . S
C464 C459 1.390 . S
C464 C463 1.387 . S
H465 C477 0.930 . S
H466 C479 0.930 . S
H467 C480 0.930 1_556 S
H468 C484 0.959 . S
H469 C484 0.959 . S
H470 C484 0.961 . S
H471 C485 0.960 . S
H472 C485 0.961 . S
H473 C485 0.959 . S
H474 C488 0.929 . S
H475 C489 0.931 . S
H476 C491 0.930 . S
C477 H465 0.930 . S
C477 C478 1.399 . S
C477 C482 1.399 . S
C478 C477 1.399 . S
C478 C479 1.376 . S
C479 H466 0.930 . S
C479 C478 1.376 . S
C479 C480 1.388 . S
C480 H467 0.930 1_554 S
C480 C479 1.388 . S
C480 C481 1.390 . S
C481 C480 1.390 . S
C481 C482 1.394 . S
C481 C487 1.465 1_565 S
C482 C477 1.399 . S
C482 C481 1.394 . S
C482 C483 1.516 1_565 S
C483 C482 1.516 1_545 S
C483 C484 1.502 . S
C483 C485 1.561 . S
C483 C486 1.526 . S
C484 H468 0.959 . S
C484 H469 0.959 . S
C484 H470 0.961 . S
C484 C483 1.502 . S
C485 H471 0.960 . S
C485 H472 0.961 . S
C485 H473 0.959 . S
C485 C483 1.561 . S
C486 C483 1.526 . S
C486 C487 1.396 . S
C486 C491 1.390 . S
C487 C481 1.465 1_545 S
C487 C486 1.396 . S
C487 C488 1.399 1_554 S
C488 H474 0.929 . S
C488 C487 1.399 1_556 S
C488 C489 1.385 . S
C489 H475 0.931 . S
C489 C488 1.385 . S
C489 C490 1.389 . S
C490 C489 1.389 . S
C490 C491 1.387 1_556 S
C491 H476 0.930 . S
C491 C486 1.390 . S
C491 C490 1.387 1_554 S
H492 C504 0.930 . S
H493 C506 0.930 . S
H494 C507 0.930 . S
H495 C511 0.959 . S
H496 C511 0.959 . S
H497 C511 0.961 . S
H498 C512 0.960 . S
H499 C512 0.961 . S
H500 C512 0.959 . S
H501 C515 0.929 . S
H502 C516 0.931 . S
H503 C518 0.930 . S
C504 H492 0.930 . S
C504 C505 1.399 . S
C504 C509 1.399 . S
C505 C504 1.399 . S
C505 C506 1.376 . S
C506 H493 0.930 . S
C506 C505 1.376 . S
C506 C507 1.388 . S
C507 H494 0.930 . S
C507 C506 1.388 . S
C507 C508 1.390 . S
C508 C507 1.390 . S
C508 C509 1.394 . S
C508 C514 1.465 . S
C509 C504 1.399 . S
C509 C508 1.394 . S
C509 C510 1.516 . S
C510 C509 1.516 . S
C510 C511 1.502 . S
C510 C512 1.561 . S
C510 C513 1.526 . S
C511 H495 0.959 . S
C511 H496 0.959 . S
C511 H497 0.961 . S
C511 C510 1.502 . S
C512 H498 0.960 . S
C512 H499 0.961 . S
C512 H500 0.959 . S
C512 C510 1.561 . S
C513 C510 1.526 . S
C513 C514 1.396 . S
C513 C518 1.390 . S
C514 C508 1.465 . S
C514 C513 1.396 . S
C514 C515 1.399 . S
C515 H501 0.929 . S
C515 C514 1.399 . S
C515 C516 1.385 . S
C516 H502 0.931 . S
C516 C515 1.385 . S
C516 C517 1.389 . S
C517 C516 1.389 . S
C517 C518 1.387 . S
C518 H503 0.930 . S
C518 C513 1.390 . S
C518 C517 1.387 . S
H519 C531 0.930 . S
H520 C533 0.930 . S
H521 C534 0.930 . S
H522 C538 0.959 1_455 S
H523 C538 0.959 1_455 S
H524 C538 0.961 . S
H525 C539 0.960 . S
H526 C539 0.961 . S
H527 C539 0.959 . S
H528 C542 0.929 . S
H529 C543 0.931 . S
H530 C545 0.930 1_455 S
C531 H519 0.930 . S
C531 C532 1.399 . S
C531 C536 1.399 . S
C532 C531 1.399 . S
C532 C533 1.376 . S
C533 H520 0.930 . S
C533 C532 1.376 . S
C533 C534 1.388 . S
C534 H521 0.930 . S
C534 C533 1.388 . S
C534 C535 1.390 . S
C535 C534 1.390 . S
C535 C536 1.394 . S
C535 C541 1.465 . S
C536 C531 1.399 . S
C536 C535 1.394 . S
C536 C537 1.516 . S
C537 C536 1.516 . S
C537 C538 1.502 . S
C537 C539 1.561 . S
C537 C540 1.526 . S
C538 H522 0.959 1_655 S
C538 H523 0.959 1_655 S
C538 H524 0.961 . S
C538 C537 1.502 . S
C539 H525 0.960 . S
C539 H526 0.961 . S
C539 H527 0.959 . S
C539 C537 1.561 . S
C540 C537 1.526 . S
C540 C541 1.396 . S
C540 C545 1.390 . S
C541 C535 1.465 . S
C541 C540 1.396 . S
C541 C542 1.399 . S
C542 H528 0.929 . S
C542 C541 1.399 . S
C542 C543 1.385 . S
C543 H529 0.931 . S
C543 C542 1.385 . S
C543 C544 1.389 . S
C544 C543 1.389 . S
C544 C545 1.387 . S
C545 H530 0.930 1_655 S
C545 C540 1.390 . S
C545 C544 1.387 . S
H546 C558 0.930 1_545 S
H547 C560 0.930 . S
H548 C561 0.930 . S
H549 C565 0.959 . S
H550 C565 0.959 . S
H551 C565 0.961 1_545 S
H552 C566 0.960 1_545 S
H553 C566 0.961 . S
H554 C566 0.959 . S
H555 C569 0.929 . S
H556 C570 0.931 . S
H557 C572 0.930 . S
C558 H546 0.930 1_565 S
C558 C559 1.399 . S
C558 C563 1.399 . S
C559 C558 1.399 . S
C559 C560 1.376 . S
C560 H547 0.930 . S
C560 C559 1.376 . S
C560 C561 1.388 . S
C561 H548 0.930 . S
C561 C560 1.388 . S
C561 C562 1.390 . S
C562 C561 1.390 . S
C562 C563 1.394 . S
C562 C568 1.465 . S
C563 C558 1.399 . S
C563 C562 1.394 . S
C563 C564 1.516 . S
C564 C563 1.516 . S
C564 C565 1.502 . S
C564 C566 1.561 . S
C564 C567 1.526 . S
C565 H549 0.959 . S
C565 H550 0.959 . S
C565 H551 0.961 1_565 S
C565 C564 1.502 . S
C566 H552 0.960 1_565 S
C566 H553 0.961 . S
C566 H554 0.959 . S
C566 C564 1.561 . S
C567 C564 1.526 . S
C567 C568 1.396 . S
C567 C572 1.390 . S
C568 C562 1.465 . S
C568 C567 1.396 . S
C568 C569 1.399 . S
C569 H555 0.929 . S
C569 C568 1.399 . S
C569 C570 1.385 . S
C570 H556 0.931 . S
C570 C569 1.385 . S
C570 C571 1.389 . S
C571 C570 1.389 . S
C571 C572 1.387 . S
C572 H557 0.930 . S
C572 C567 1.390 . S
C572 C571 1.387 . S
H573 C585 0.930 . S
H574 C587 0.930 . S
H575 C588 0.930 . S
H576 C592 0.959 . S
H577 C592 0.959 . S
H578 C592 0.961 . S
H579 C593 0.960 . S
H580 C593 0.961 . S
H581 C593 0.959 . S
H582 C596 0.929 . S
H583 C597 0.931 . S
H584 C599 0.930 . S
C585 H573 0.930 . S
C585 C586 1.399 . S
C585 C590 1.399 . S
C586 C585 1.399 . S
C586 C587 1.376 . S
C587 H574 0.930 . S
C587 C586 1.376 . S
C587 C588 1.388 . S
C588 H575 0.930 . S
C588 C587 1.388 . S
C588 C589 1.390 . S
C589 C588 1.390 . S
C589 C590 1.394 . S
C589 C595 1.465 . S
C590 C585 1.399 . S
C590 C589 1.394 . S
C590 C591 1.516 . S
C591 C590 1.516 . S
C591 C592 1.502 . S
C591 C593 1.561 . S
C591 C594 1.526 . S
C592 H576 0.959 . S
C592 H577 0.959 . S
C592 H578 0.961 . S
C592 C591 1.502 . S
C593 H579 0.960 . S
C593 H580 0.961 . S
C593 H581 0.959 . S
C593 C591 1.561 . S
C594 C591 1.526 . S
C594 C595 1.396 . S
C594 C599 1.390 . S
C595 C589 1.465 . S
C595 C594 1.396 . S
C595 C596 1.399 . S
C596 H582 0.929 . S
C596 C595 1.399 . S
C596 C597 1.385 . S
C597 H583 0.931 . S
C597 C596 1.385 . S
C597 C598 1.389 . S
C598 C597 1.389 . S
C598 C599 1.387 . S
C599 H584 0.930 . S
C599 C594 1.390 . S
C599 C598 1.387 . S
H600 C612 0.930 . S
H601 C614 0.930 . S
H602 C615 0.930 . S
H603 C619 0.959 . S
H604 C619 0.959 . S
H605 C619 0.961 . S
H606 C620 0.960 . S
H607 C620 0.961 . S
H608 C620 0.959 . S
H609 C623 0.929 . S
H610 C624 0.931 1_655 S
H611 C626 0.930 . S
C612 H600 0.930 . S
C612 C613 1.399 . S
C612 C617 1.399 . S
C613 C612 1.399 . S
C613 C614 1.376 . S
C614 H601 0.930 . S
C614 C613 1.376 . S
C614 C615 1.388 . S
C615 H602 0.930 . S
C615 C614 1.388 . S
C615 C616 1.390 . S
C616 C615 1.390 . S
C616 C617 1.394 . S
C616 C622 1.465 . S
C617 C612 1.399 . S
C617 C616 1.394 . S
C617 C618 1.516 . S
C618 C617 1.516 . S
C618 C619 1.502 . S
C618 C620 1.561 . S
C618 C621 1.526 . S
C619 H603 0.959 . S
C619 H604 0.959 . S
C619 H605 0.961 . S
C619 C618 1.502 . S
C620 H606 0.960 . S
C620 H607 0.961 . S
C620 H608 0.959 . S
C620 C618 1.561 . S
C621 C618 1.526 . S
C621 C622 1.396 . S
C621 C626 1.390 . S
C622 C616 1.465 . S
C622 C621 1.396 . S
C622 C623 1.399 . S
C623 H609 0.929 . S
C623 C622 1.399 . S
C623 C624 1.385 . S
C624 H610 0.931 1_455 S
C624 C623 1.385 . S
C624 C625 1.389 . S
C625 C624 1.389 . S
C625 C626 1.387 . S
C626 H611 0.930 . S
C626 C621 1.390 . S
C626 C625 1.387 . S
H627 C639 0.930 . S
H628 C641 0.930 . S
H629 C642 0.930 . S
H630 C646 0.959 . S
H631 C646 0.959 1_565 S
H632 C646 0.961 . S
H633 C647 0.960 . S
H634 C647 0.961 . S
H635 C647 0.959 . S
H636 C650 0.929 . S
H637 C651 0.931 . S
H638 C653 0.930 . S
C639 H627 0.930 . S
C639 C640 1.399 . S
C639 C644 1.399 . S
C640 C639 1.399 . S
C640 C641 1.376 . S
C641 H628 0.930 . S
C641 C640 1.376 . S
C641 C642 1.388 . S
C642 H629 0.930 . S
C642 C641 1.388 . S
C642 C643 1.390 . S
C643 C642 1.390 . S
C643 C644 1.394 . S
C643 C649 1.465 . S
C644 C639 1.399 . S
C644 C643 1.394 . S
C644 C645 1.516 . S
C645 C644 1.516 . S
C645 C646 1.502 . S
C645 C647 1.561 1_545 S
C645 C648 1.526 . S
C646 H630 0.959 . S
C646 H631 0.959 1_545 S
C646 H632 0.961 . S
C646 C645 1.502 . S
C647 H633 0.960 . S
C647 H634 0.961 . S
C647 H635 0.959 . S
C647 C645 1.561 1_565 S
C648 C645 1.526 . S
C648 C649 1.396 . S
C648 C653 1.390 1_545 S
C649 C643 1.465 . S
C649 C648 1.396 . S
C649 C650 1.399 . S
C650 H636 0.929 . S
C650 C649 1.399 . S
C650 C651 1.385 . S
C651 H637 0.931 . S
C651 C650 1.385 . S
C651 C652 1.389 . S
C652 C651 1.389 . S
C652 C653 1.387 1_545 S
C653 H638 0.930 . S
C653 C648 1.390 1_565 S
C653 C652 1.387 1_565 S
H654 C666 0.930 . S
H655 C668 0.930 . S
H656 C669 0.930 . S
H657 C673 0.959 . S
H658 C673 0.959 . S
H659 C673 0.961 . S
H660 C674 0.960 . S
H661 C674 0.961 . S
H662 C674 0.959 . S
H663 C677 0.929 . S
H664 C678 0.931 . S
H665 C680 0.930 . S
C666 H654 0.930 . S
C666 C667 1.399 . S
C666 C671 1.399 . S
C667 C666 1.399 . S
C667 C668 1.376 . S
C668 H655 0.930 . S
C668 C667 1.376 . S
C668 C669 1.388 . S
C669 H656 0.930 . S
C669 C668 1.388 . S
C669 C670 1.390 . S
C670 C669 1.390 . S
C670 C671 1.394 . S
C670 C676 1.465 . S
C671 C666 1.399 . S
C671 C670 1.394 . S
C671 C672 1.516 . S
C672 C671 1.516 . S
C672 C673 1.502 . S
C672 C674 1.561 . S
C672 C675 1.526 . S
C673 H657 0.959 . S
C673 H658 0.959 . S
C673 H659 0.961 . S
C673 C672 1.502 . S
C674 H660 0.960 . S
C674 H661 0.961 . S
C674 H662 0.959 . S
C674 C672 1.561 . S
C675 C672 1.526 . S
C675 C676 1.396 . S
C675 C680 1.390 . S
C676 C670 1.465 . S
C676 C675 1.396 . S
C676 C677 1.399 . S
C677 H663 0.929 . S
C677 C676 1.399 . S
C677 C678 1.385 . S
C678 H664 0.931 . S
C678 C677 1.385 . S
C678 C679 1.389 . S
C679 C678 1.389 . S
C679 C680 1.387 . S
C680 H665 0.930 . S
C680 C675 1.390 . S
C680 C679 1.387 . S
H681 C693 0.930 . S
H682 C695 0.930 . S
H683 C696 0.930 . S
H684 C700 0.959 . S
H685 C700 0.959 . S
H686 C700 0.961 . S
H687 C701 0.960 . S
H688 C701 0.972 . S
H689 C701 0.959 . S
H690 C704 0.923 1_554 S
H691 C705 0.931 . S
H692 C707 0.930 . S
C693 H681 0.930 . S
C693 C694 1.399 . S
C693 C698 1.399 . S
C694 C693 1.399 . S
C694 C695 1.376 . S
C695 H682 0.930 . S
C695 C694 1.376 . S
C695 C696 1.388 . S
C696 H683 0.930 . S
C696 C695 1.388 . S
C696 C697 1.390 . S
C697 C696 1.390 . S
C697 C698 1.394 . S
C697 C703 1.465 . S
C698 C693 1.399 . S
C698 C697 1.394 . S
C698 C699 1.516 . S
C699 C698 1.516 . S
C699 C700 1.502 1_655 S
C699 C701 1.561 . S
C699 C702 1.526 . S
C700 H684 0.959 . S
C700 H685 0.959 . S
C700 H686 0.961 . S
C700 C699 1.502 1_455 S
C701 H687 0.960 . S
C701 H688 0.972 . S
C701 H689 0.959 . S
C701 C699 1.561 . S
C702 C699 1.526 . S
C702 C703 1.396 . S
C702 C707 1.390 1_655 S
C703 C697 1.465 . S
C703 C702 1.396 . S
C703 C704 1.399 . S
C704 H690 0.923 1_556 S
C704 C703 1.399 . S
C704 C705 1.385 1_556 S
C705 H691 0.931 . S
C705 C704 1.385 1_554 S
C705 C706 1.389 . S
C706 C705 1.389 . S
C706 C707 1.387 1_654 S
C707 H692 0.930 . S
C707 C702 1.390 1_455 S
C707 C706 1.387 1_456 S
H708 C720 0.930 . S
H709 C722 0.930 . S
H710 C723 0.930 . S
H711 C727 0.959 . S
H712 C727 0.959 . S
H713 C727 0.961 . S
H714 C728 0.960 . S
H715 C728 0.961 . S
H716 C728 0.959 . S
H717 C731 0.929 . S
H718 C732 0.931 . S
H719 C734 0.930 . S
C720 H708 0.930 . S
C720 C721 1.399 . S
C720 C725 1.399 . S
C721 C720 1.399 . S
C721 C722 1.376 . S
C722 H709 0.930 . S
C722 C721 1.376 . S
C722 C723 1.388 . S
C723 H710 0.930 . S
C723 C722 1.388 . S
C723 C724 1.390 . S
C724 C723 1.390 . S
C724 C725 1.394 . S
C724 C730 1.465 . S
C725 C720 1.399 . S
C725 C724 1.394 . S
C725 C726 1.516 . S
C726 C725 1.516 . S
C726 C727 1.502 . S
C726 C728 1.561 . S
C726 C729 1.526 . S
C727 H711 0.959 . S
C727 H712 0.959 . S
C727 H713 0.961 . S
C727 C726 1.502 . S
C728 H714 0.960 . S
C728 H715 0.961 . S
C728 H716 0.959 . S
C728 C726 1.561 . S
C729 C726 1.526 . S
C729 C730 1.396 . S
C729 C734 1.390 . S
C730 C724 1.465 . S
C730 C729 1.396 . S
C730 C731 1.399 . S
C731 H717 0.929 . S
C731 C730 1.399 . S
C731 C732 1.385 1_565 S
C732 H718 0.931 . S
C732 C731 1.385 1_545 S
C732 C733 1.389 1_545 S
C733 C732 1.389 1_565 S
C733 C734 1.387 . S
C734 H719 0.930 . S
C734 C729 1.390 . S
C734 C733 1.387 . S
H735 C747 0.930 . S
H736 C749 0.930 . S
H737 C750 0.930 . S
H738 C754 0.959 . S
H739 C754 0.959 . S
H740 C754 0.961 . S
H741 C755 0.960 . S
H742 C755 0.961 . S
H743 C755 0.959 . S
H744 C758 0.929 . S
H745 C759 0.931 . S
H746 C761 0.930 . S
C747 H735 0.930 . S
C747 C748 1.399 . S
C747 C752 1.399 . S
C748 C747 1.399 . S
C748 C749 1.376 . S
C749 H736 0.930 . S
C749 C748 1.376 . S
C749 C750 1.388 . S
C750 H737 0.930 . S
C750 C749 1.388 . S
C750 C751 1.390 . S
C751 C750 1.390 . S
C751 C752 1.394 . S
C751 C757 1.465 . S
C752 C747 1.399 . S
C752 C751 1.394 . S
C752 C753 1.516 . S
C753 C752 1.516 . S
C753 C754 1.502 . S
C753 C755 1.561 . S
C753 C756 1.526 . S
C754 H738 0.959 . S
C754 H739 0.959 . S
C754 H740 0.961 . S
C754 C753 1.502 . S
C755 H741 0.960 . S
C755 H742 0.961 . S
C755 H743 0.959 . S
C755 C753 1.561 . S
C756 C753 1.526 . S
C756 C757 1.396 . S
C756 C761 1.390 . S
C757 C751 1.465 . S
C757 C756 1.396 . S
C757 C758 1.399 . S
C758 H744 0.929 . S
C758 C757 1.399 . S
C758 C759 1.385 . S
C759 H745 0.931 . S
C759 C758 1.385 . S
C759 C760 1.389 . S
C760 C759 1.389 . S
C760 C761 1.387 . S
C761 H746 0.930 . S
C761 C756 1.390 . S
C761 C760 1.387 . S
H762 C774 0.930 . S
H763 C776 0.930 . S
H764 C777 0.930 . S
H765 C781 0.959 . S
H766 C781 0.959 . S
H767 C781 0.961 . S
H768 C782 0.960 . S
H769 C782 0.961 . S
H770 C782 0.959 . S
H771 C785 0.929 1_655 S
H772 C786 0.931 . S
H773 C788 0.930 . S
C774 H762 0.930 . S
C774 C775 1.399 . S
C774 C779 1.399 . S
C775 C774 1.399 . S
C775 C776 1.376 . S
C776 H763 0.930 . S
C776 C775 1.376 . S
C776 C777 1.388 . S
C777 H764 0.930 . S
C777 C776 1.388 . S
C777 C778 1.390 . S
C778 C777 1.390 . S
C778 C779 1.394 . S
C778 C784 1.465 . S
C779 C774 1.399 . S
C779 C778 1.394 . S
C779 C780 1.516 . S
C780 C779 1.516 . S
C780 C781 1.502 . S
C780 C782 1.561 . S
C780 C783 1.526 . S
C781 H765 0.959 . S
C781 H766 0.959 . S
C781 H767 0.961 . S
C781 C780 1.502 . S
C782 H768 0.960 . S
C782 H769 0.961 . S
C782 H770 0.959 . S
C782 C780 1.561 . S
C783 C780 1.526 . S
C783 C784 1.396 . S
C783 C788 1.390 . S
C784 C778 1.465 . S
C784 C783 1.396 . S
C784 C785 1.399 . S
C785 H771 0.929 1_455 S
C785 C784 1.399 . S
C785 C786 1.385 1_455 S
C786 H772 0.931 . S
C786 C785 1.385 1_655 S
C786 C787 1.389 1_655 S
C787 C786 1.389 1_455 S
C787 C788 1.387 . S
C788 H773 0.930 . S
C788 C783 1.390 . S
C788 C787 1.387 . S
H789 C801 0.930 . S
H790 C803 0.930 . S
H791 C804 0.930 . S
H792 C808 0.959 . S
H793 C808 0.959 . S
H794 C808 0.961 1_565 S
H795 C809 0.960 . S
H796 C809 0.961 . S
H797 C809 0.959 1_545 S
H798 C812 0.929 . S
H799 C813 0.931 . S
H800 C815 0.930 . S
C801 H789 0.930 . S
C801 C802 1.399 1_565 S
C801 C806 1.399 1_565 S
C802 C801 1.399 1_545 S
C802 C803 1.376 . S
C803 H790 0.930 . S
C803 C802 1.376 . S
C803 C804 1.388 . S
C804 H791 0.930 . S
C804 C803 1.388 . S
C804 C805 1.390 . S
C805 C804 1.390 . S
C805 C806 1.394 . S
C805 C811 1.465 . S
C806 C801 1.399 1_545 S
C806 C805 1.394 . S
C806 C807 1.516 . S
C807 C806 1.516 . S
C807 C808 1.502 . S
C807 C809 1.561 1_545 S
C807 C810 1.526 . S
C808 H792 0.959 . S
C808 H793 0.959 . S
C808 H794 0.961 1_545 S
C808 C807 1.502 . S
C809 H795 0.960 . S
C809 H796 0.961 . S
C809 H797 0.959 1_565 S
C809 C807 1.561 1_565 S
C810 C807 1.526 . S
C810 C811 1.396 . S
C810 C815 1.390 . S
C811 C805 1.465 . S
C811 C810 1.396 . S
C811 C812 1.399 . S
C812 H798 0.929 . S
C812 C811 1.399 . S
C812 C813 1.385 . S
C813 H799 0.931 . S
C813 C812 1.385 . S
C813 C814 1.389 . S
C814 C813 1.389 . S
C814 C815 1.387 . S
C815 H800 0.930 . S
C815 C810 1.390 . S
C815 C814 1.387 . S
C181 C118 1.327 . S
C193 C6 1.347 . S
C208 C20 1.360 . S
C220 C132 1.372 . S
C235 C34 1.373 . S
C247 C146 1.364 . S
C262 C48 1.324 . S
C274 C160 1.339 . S
C289 C90 1.344 . S
C301 C62 1.327 . S
C316 C76 1.325 . S
C328 C104 1.328 . S
C343 C135 1.001 . S
C355 C9 1.033 . S
C370 C23 1.010 . S
C382 C149 0.978 . S
C397 C163 1.064 . S
C409 C37 1.048 . S
C424 C51 1.055 . S
C436 C93 1.064 . S
C451 C107 1.042 . S
C463 C65 1.061 . S
C478 C121 1.053 . S
C490 C79 1.025 . S
C505 C8 1.431 . S
C517 C77 1.418 . S
C532 C22 1.397 . S
C544 C7 1.466 1_655 S
C559 C21 1.466 1_565 S
C571 C36 1.399 . S
C586 C50 1.436 . S
C598 C35 1.415 . S
C613 C64 1.383 . S
C625 C49 1.466 1_455 S
C640 C78 1.452 . S
C652 C63 1.423 1_545 S
C667 C92 1.396 . S
C679 C105 1.467 . S
C694 C106 1.418 . S
C706 C119 1.453 1_655 S
C721 C120 1.388 . S
C733 C133 1.457 1_565 S
C748 C134 1.384 . S
C760 C147 1.468 . S
C775 C148 1.434 . S
C787 C161 1.416 1_455 S
C802 C91 1.464 1_545 S
C814 C162 1.402 . S
