# Generated by pormake.
# Topology sml, (6)-cn, num edge types: 1
# Building blocks:
#     Node 0, Type 0, BuildingBlock: VOLQOD_clean_sbu_1, # of connection points: 6
#     Node 1, Type 0, BuildingBlock: VOLQOD_clean_sbu_1, # of connection points: 6
#     Node 2, Type 0, BuildingBlock: VOLQOD_clean_sbu_1, # of connection points: 6
#     Node 3, Type 0, BuildingBlock: VOLQOD_clean_sbu_1, # of connection points: 6
#     Node 4, Type 0, BuildingBlock: VOLQOD_clean_sbu_1, # of connection points: 6
#     Node 5, Type 0, BuildingBlock: VOLQOD_clean_sbu_1, # of connection points: 6
#     Edge 6, Type (0, 0), BuildingBlock: XUDNAN_clean_linker_2, # of connection points: 2
#     Edge 7, Type (0, 0), BuildingBlock: XUDNAN_clean_linker_2, # of connection points: 2
#     Edge 8, Type (0, 0), BuildingBlock: XUDNAN_clean_linker_2, # of connection points: 2
#     Edge 9, Type (0, 0), BuildingBlock: XUDNAN_clean_linker_2, # of connection points: 2
#     Edge 10, Type (0, 0), BuildingBlock: XUDNAN_clean_linker_2, # of connection points: 2
#     Edge 11, Type (0, 0), BuildingBlock: XUDNAN_clean_linker_2, # of connection points: 2
#     Edge 12, Type (0, 0), BuildingBlock: XUDNAN_clean_linker_2, # of connection points: 2
#     Edge 13, Type (0, 0), BuildingBlock: XUDNAN_clean_linker_2, # of connection points: 2
#     Edge 14, Type (0, 0), BuildingBlock: XUDNAN_clean_linker_2, # of connection points: 2
#     Edge 15, Type (0, 0), BuildingBlock: XUDNAN_clean_linker_2, # of connection points: 2
#     Edge 16, Type (0, 0), BuildingBlock: XUDNAN_clean_linker_2, # of connection points: 2
#     Edge 17, Type (0, 0), BuildingBlock: XUDNAN_clean_linker_2, # of connection points: 2
#     Edge 18, Type (0, 0), BuildingBlock: XUDNAN_clean_linker_2, # of connection points: 2
#     Edge 19, Type (0, 0), BuildingBlock: XUDNAN_clean_linker_2, # of connection points: 2
#     Edge 20, Type (0, 0), BuildingBlock: XUDNAN_clean_linker_2, # of connection points: 2
#     Edge 21, Type (0, 0), BuildingBlock: XUDNAN_clean_linker_2, # of connection points: 2
#     Edge 22, Type (0, 0), BuildingBlock: XUDNAN_clean_linker_2, # of connection points: 2
#     Edge 23, Type (0, 0), BuildingBlock: XUDNAN_clean_linker_2, # of connection points: 2
# Relax obj value: 0.293
# Max RMSD: 0.187
# Mean RMSD: 0.187
data_MOF--net-sml--node1-VOLQOD_clean_sbu_1--edge1-XUDNAN_clean_linker_2
_symmetry_space_group_name_H-M    P1
_symmetry_Int_Tables_number       1
_symmetry_cell_setting            triclinic
loop_
_symmetry_equiv_pos_as_xyz
'x, y, z'
_cell_length_a     43.436744
_cell_length_b     43.321805
_cell_length_c     15.568227
_cell_angle_alpha  90.10606
_cell_angle_beta   90.025018
_cell_angle_gamma 119.95493
loop_
_atom_site_label
_atom_site_type_symbol
_atom_site_fract_x
_atom_site_fract_y
_atom_site_fract_z
_atom_type_partial_charge
O0 O 0.11713 0.38864 -0.0136 0.0
Zn1 Zn 0.16411 0.43287 0.9724 0.0
O2 O 0.20313 0.42408 -0.00458 0.0
Zn3 Zn 0.23665 0.46086 0.07352 0.0
Zn4 Zn 0.18328 0.37646 0.04299 0.0
Zn5 Zn 0.22823 0.42568 0.89328 0.0
O6 O 0.28621 0.49061 0.0236 0.0
O7 O 0.27906 0.46361 0.89792 0.0
O8 O 0.16567 0.47053 0.05029 0.0
O9 O 0.21906 0.49412 0.11022 0.0
O10 O 0.23736 0.43773 0.18345 0.0
O11 O 0.1917 0.38276 0.16754 0.0
O12 O 0.20431 0.34854 -0.00954 0.0
O13 O 0.16467 0.44717 0.85082 0.0
O14 O 0.22867 0.38015 0.87261 0.0
O15 O 0.20654 0.43741 0.79643 0.0
C16 C 0.1075 0.35687 0.00845 0.0
C17 C 0.29849 0.48744 0.95191 0.0
C18 C 0.21402 0.408 0.21484 0.0
C19 C 0.18964 0.49341 0.09953 0.0
C20 C 0.22024 0.35289 0.91901 0.0
C21 C 0.18312 0.44666 0.78822 0.0
O22 O 0.12993 0.34765 0.03073 0.0
O23 O 0.73872 0.11284 0.32584 0.0
Zn24 Zn 0.73397 0.1528 0.27572 0.0
O25 O 0.77684 0.1982 0.29987 0.0
Zn26 Zn 0.7663 0.22492 0.38123 0.0
Zn27 Zn 0.81465 0.18971 0.3416 0.0
Zn28 Zn 0.79197 0.22646 0.19817 0.0
O29 O 0.7828 0.27534 0.34661 0.0
O30 O 0.79742 0.27501 0.21074 0.0
O31 O 0.69009 0.15097 0.32675 0.0
O32 O 0.71411 0.20113 0.40324 0.0
O33 O 0.78856 0.22455 0.49008 0.0
O34 O 0.82725 0.20639 0.46348 0.0
O35 O 0.85781 0.21144 0.2633 0.0
O36 O 0.72762 0.1446 0.14853 0.0
O37 O 0.83892 0.23363 0.16086 0.0
O38 O 0.75845 0.20077 0.10431 0.0
C39 C 0.76514 0.11025 0.35185 0.0
C40 C 0.79366 0.29101 0.27485 0.0
C41 C 0.81204 0.21727 0.51527 0.0
C42 C 0.68722 0.17253 0.37734 0.0
C43 C 0.86234 0.22727 0.19148 0.0
C44 C 0.73716 0.16792 0.08974 0.0
O45 O 0.79632 0.1372 0.3552 0.0
O46 O 0.62614 0.7361 0.66946 0.0
Zn47 Zn 0.58119 0.73294 0.62582 0.0
O48 O 0.58254 0.77827 0.64313 0.0
Zn49 Zn 0.53844 0.76895 0.69683 0.0
Zn50 Zn 0.6234 0.80992 0.71275 0.0
Zn51 Zn 0.58714 0.80179 0.53663 0.0
O52 O 0.51317 0.78964 0.63141 0.0
O53 O 0.54628 0.80994 0.51425 0.0
O54 O 0.53933 0.69273 0.68527 0.0
O55 O 0.50553 0.71646 0.7148 0.0
O56 O 0.54779 0.78685 0.81632 0.0
O57 O 0.60578 0.80796 0.83153 0.0
O58 O 0.65135 0.86021 0.66577 0.0
O59 O 0.5771 0.72042 0.50066 0.0
O60 O 0.62996 0.84973 0.53299 0.0
O61 O 0.58917 0.77234 0.44321 0.0
C62 C 0.65415 0.76102 0.70415 0.0
C63 C 0.51944 0.80469 0.55828 0.0
C64 C 0.57525 0.79805 0.86337 0.0
C65 C 0.51054 0.6899 0.71358 0.0
C66 C 0.65174 0.87055 0.58899 0.0
C67 C 0.58357 0.74071 0.43629 0.0
O68 O 0.65704 0.79105 0.72177 0.0
O69 O 0.90132 0.61674 0.96411 0.0
Zn70 Zn 0.85276 0.57464 0.93954 0.0
O71 O 0.81602 0.58745 0.95904 0.0
Zn72 Zn 0.78141 0.5576 0.04344 0.0
Zn73 Zn 0.83855 0.63621 -0.00159 0.0
Zn74 Zn 0.78965 0.58241 0.85754 0.0
O75 O 0.73091 0.52958 -0.00116 0.0
O76 O 0.74101 0.53953 0.8593 0.0
O77 O 0.8436 0.53226 0.01319 0.0
O78 O 0.79493 0.52238 0.08392 0.0
O79 O 0.78438 0.58495 0.14878 0.0
O80 O 0.83481 0.63507 0.12521 0.0
O81 O 0.81671 0.66283 0.94447 0.0
O82 O 0.85541 0.56451 0.81456 0.0
O83 O 0.78439 0.62538 0.84039 0.0
O84 O 0.81475 0.5762 0.76076 0.0
C85 C 0.91224 0.64991 0.97216 0.0
C86 C 0.72027 0.52306 0.92127 0.0
C87 C 0.81129 0.61322 0.17636 0.0
C88 C 0.81932 0.51501 0.0685 0.0
C89 C 0.79593 0.65487 0.88015 0.0
C90 C 0.83878 0.56791 0.75143 0.0
O91 O 0.8909 0.66186 -0.02148 0.0
O92 O 0.26666 0.88778 0.32895 0.0
Zn93 Zn 0.26649 0.84405 0.28288 0.0
O94 O 0.22558 0.80166 0.32977 0.0
Zn95 Zn 0.2378 0.77772 0.41392 0.0
Zn96 Zn 0.18925 0.81225 0.36289 0.0
Zn97 Zn 0.21088 0.77062 0.23523 0.0
O98 O 0.22181 0.72576 0.38514 0.0
O99 O 0.19272 0.7201 0.26419 0.0
O100 O 0.31124 0.84456 0.32281 0.0
O101 O 0.29065 0.80385 0.42715 0.0
O102 O 0.21248 0.77736 0.52014 0.0
O103 O 0.17157 0.79178 0.48109 0.0
O104 O 0.15067 0.79492 0.27009 0.0
O105 O 0.26084 0.84071 0.15207 0.0
O106 O 0.17283 0.77368 0.17262 0.0
O107 O 0.25394 0.78772 0.16465 0.0
C108 C 0.24266 0.89171 0.36614 0.0
C109 C 0.20166 0.70656 0.32448 0.0
C110 C 0.18586 0.78124 0.53677 0.0
C111 C 0.31638 0.8281 0.38427 0.0
C112 C 0.14976 0.78196 0.19557 0.0
C113 C 0.25638 0.81227 0.1165 0.0
O114 O 0.21179 0.86526 0.38012 0.0
O115 O 0.38303 0.26675 0.69102 0.0
Zn116 Zn 0.42808 0.27092 0.64561 0.0
O117 O 0.42815 0.22636 0.65778 0.0
Zn118 Zn 0.47309 0.23907 0.70869 0.0
Zn119 Zn 0.38821 0.1942 0.72899 0.0
Zn120 Zn 0.42684 0.20374 0.55138 0.0
O121 O 0.49486 0.21168 0.66167 0.0
O122 O 0.46939 0.1967 0.53333 0.0
O123 O 0.46955 0.31116 0.70742 0.0
O124 O 0.50808 0.29176 0.70223 0.0
O125 O 0.46496 0.23037 0.83184 0.0
O126 O 0.40652 0.19689 0.84864 0.0
O127 O 0.3618 0.1443 0.67828 0.0
O128 O 0.43134 0.28355 0.52128 0.0
O129 O 0.38451 0.15476 0.54643 0.0
O130 O 0.42461 0.2339 0.45953 0.0
C131 C 0.35541 0.24154 0.72583 0.0
C132 C 0.49216 0.19831 0.58744 0.0
C133 C 0.43785 0.21425 0.87964 0.0
C134 C 0.50098 0.31651 0.71608 0.0
C135 C 0.36241 0.13387 0.60187 0.0
C136 C 0.42746 0.26458 0.45538 0.0
O137 O 0.35306 0.21159 0.74151 0.0
H138 H 0.34664 0.29764 0.68108 0.0
H139 H 0.29984 0.20127 0.83473 0.0
H140 H 0.2561 0.21655 0.89252 0.0
H141 H 0.34164 0.35284 0.83494 0.0
H142 H 0.33113 0.37819 0.76087 0.0
H143 H 0.35593 0.3576 0.72464 0.0
H144 H 0.30926 0.32426 0.60508 0.0
H145 H 0.28434 0.34493 0.64074 0.0
H146 H 0.26307 0.29708 0.63344 0.0
H147 H 0.22207 0.2462 0.94574 0.0
H148 H 0.19916 0.2864 -0.01502 0.0
H149 H 0.26771 0.36206 0.79291 0.0
C150 C 0.32682 0.27935 0.72571 0.0
C151 C 0.32665 0.24824 0.7533 0.0
C152 C 0.30033 0.22515 0.81216 0.0
C153 C 0.2754 0.23362 0.84541 0.0
C154 C 0.27687 0.26498 0.81823 0.0
C155 C 0.30168 0.28725 0.75892 0.0
C156 C 0.29906 0.3203 0.74352 0.0
C157 C 0.33401 0.35421 0.76746 0.0
C158 C 0.28828 0.32171 0.65015 0.0
C159 C 0.26957 0.31371 0.80527 0.0
C160 C 0.25693 0.28162 0.84756 0.0
C161 C 0.23134 0.27111 0.91196 0.0
C162 C 0.21858 0.29415 0.93399 0.0
C163 C 0.23141 0.32725 0.89159 0.0
C164 C 0.25687 0.33672 0.82564 0.0
H165 H 0.07081 0.30948 0.13605 0.0
H166 H 0.05841 0.34801 0.88905 0.0
H167 H 0.99322 0.31083 0.90117 0.0
H168 H 0.99023 0.21743 0.12313 0.0
H169 H 0.97996 0.2183 0.23496 0.0
H170 H 0.02553 0.24179 0.19935 0.0
H171 H 0.03336 0.30006 0.26644 0.0
H172 H 0.9879 0.2769 0.30167 0.0
H173 H 1.0037 0.31587 0.23496 0.0
H174 H 0.93082 0.27662 0.94669 0.0
H175 H 0.87425 0.24928 0.02501 0.0
H176 H 0.92594 0.2345 0.24742 0.0
C177 C 0.05425 0.30891 0.08333 0.0
C178 C 0.06932 0.33089 0.01084 0.0
C179 C 0.04712 0.3309 0.94448 0.0
C180 C 0.01017 0.30979 0.95069 0.0
C181 C 0.99593 0.28913 0.02407 0.0
C182 C 0.01718 0.28849 0.08943 0.0
C183 C 0.99504 0.26788 0.1663 0.0
C184 C 0.99786 0.23435 0.18182 0.0
C185 C 0.00563 0.2916 0.24706 0.0
C186 C 0.95825 0.25825 0.13509 0.0
C187 C 0.95942 0.27014 0.05216 0.0
C188 C 0.92942 0.26673 0.01118 0.0
C189 C 0.89743 0.25132 0.05656 0.0
C190 C 0.89565 0.23978 0.14252 0.0
C191 C 0.92637 0.24265 0.18151 0.0
H192 H 0.71078 0.0441 0.31175 0.0
H193 H 0.8038 0.09942 0.47484 0.0
H194 H 0.787 0.043 0.55047 0.0
H195 H 0.65232 0.99015 0.46767 0.0
H196 H 0.62871 0.95136 0.40026 0.0
H197 H 0.65014 0.99505 0.3532 0.0
H198 H 0.6862 0.9773 0.25201 0.0
H199 H 0.6645 0.9333 0.29804 0.0
H200 H 0.71232 0.95949 0.29709 0.0
H201 H 0.75515 0.9817 0.62029 0.0
H202 H 0.71445 0.91954 0.66719 0.0
H203 H 0.64455 0.90547 0.45306 0.0
C204 C 0.72803 0.04419 0.36211 0.0
C205 C 0.75857 0.07598 0.38741 0.0
C206 C 0.78046 0.07516 0.45384 0.0
C207 C 0.77105 0.04332 0.49743 0.0
C208 C 0.74008 0.01256 0.47257 0.0
C209 C 0.71933 0.01268 0.40523 0.0
C210 C 0.68672 0.97656 0.39268 0.0
C211 C 0.65247 0.97842 0.40419 0.0
C212 C 0.6875 0.96073 0.30475 0.0
C213 C 0.69173 0.95635 0.46507 0.0
C214 C 0.72256 0.97738 0.51074 0.0
C215 C 0.73128 0.96477 0.58398 0.0
C216 C 0.70797 0.9296 0.61047 0.0
C217 C 0.6766 0.90763 0.56327 0.0
C218 C 0.66865 0.92136 0.48971 0.0
H219 H 0.65988 0.70255 0.66472 0.0
H220 H 0.71368 0.80395 0.79944 0.0
H221 H 0.75932 0.79008 0.84963 0.0
H222 H 0.67123 0.6525 0.82228 0.0
H223 H 0.67827 0.6244 0.74887 0.0
H224 H 0.65214 0.64399 0.71603 0.0
H225 H 0.69332 0.67266 0.58455 0.0
H226 H 0.71957 0.65301 0.61689 0.0
H227 H 0.74052 0.70045 0.6008 0.0
H228 H 0.79541 0.76236 0.89718 0.0
H229 H 0.81995 0.72351 0.93498 0.0
H230 H 0.74276 0.64117 0.7664 0.0
C231 C 0.68153 0.72215 0.70363 0.0
C232 C 0.6832 0.75433 0.7281 0.0
C233 C 0.71192 0.77916 0.77952 0.0
C234 C 0.738 0.77155 0.80831 0.0
C235 C 0.73514 0.73924 0.78428 0.0
C236 C 0.7078 0.71509 0.73247 0.0
C237 C 0.70957 0.68143 0.71969 0.0
C238 C 0.67581 0.64867 0.75379 0.0
C239 C 0.71615 0.67662 0.62484 0.0
C240 C 0.74158 0.68998 0.77445 0.0
C241 C 0.75616 0.72351 0.81074 0.0
C242 C 0.78457 0.73626 0.86811 0.0
C243 C 0.79824 0.71397 0.8894 0.0
C244 C 0.78339 0.67938 0.85332 0.0
C245 C 0.75504 0.66762 0.79426 0.0
H246 H 0.0858 0.778 0.23126 0.0
H247 H 0.14505 0.76273 0.02732 0.0
H248 H 0.09121 0.73381 0.93832 0.0
H249 H 0.01169 0.69799 0.21697 0.0
H250 H 0.97963 0.71217 0.23493 0.0
H251 H 0.02394 0.73823 0.27664 0.0
H252 H 0.03172 0.79396 0.19612 0.0
H253 H 0.98705 0.76818 0.15509 0.0
H254 H 0.0237 0.79159 0.08203 0.0
H255 H 0.0296 0.69444 0.88717 0.0
H256 H 0.96475 0.65492 0.86766 0.0
H257 H 0.9453 0.69936 0.09695 0.0
C258 C 0.08773 0.76982 0.16666 0.0
C259 C 0.11957 0.77233 0.13667 0.0
C260 C 0.1209 0.76082 0.0521 0.0
C261 C 0.09044 0.74444 0.00075 0.0
C262 C 0.05895 0.74044 0.03406 0.0
C263 C 0.0575 0.75365 0.11406 0.0
C264 C 0.01968 0.74319 0.13738 0.0
C265 C 0.00808 0.72161 0.22141 0.0
C266 C 0.01528 0.7762 0.14295 0.0
C267 C 1.00002 0.72029 0.06054 0.0
C268 C 0.0232 0.71918 0.00145 0.0
C269 C 0.01116 0.69606 0.93114 0.0
C270 C 0.97446 0.67357 0.92086 0.0
C271 C 0.95046 0.6749 -0.02016 0.0
C272 C 0.96334 0.69887 0.04963 0.0
H273 H 0.37116 0.09697 0.47132 0.0
H274 H 0.29828 0.08653 0.6747 0.0
H275 H 0.25715 0.0244 0.62857 0.0
H276 H 0.30564 0.04342 0.3108 0.0
H277 H 0.33106 0.02379 0.27168 0.0
H278 H 0.35347 0.06794 0.31733 0.0
H279 H 0.38552 0.04842 0.42651 0.0
H280 H 0.36342 0.00433 0.38087 0.0
H281 H 0.35957 0.01035 0.49416 0.0
H282 H 0.22445 0.96334 0.56014 0.0
H283 H 0.20539 0.90632 0.48557 0.0
H284 H 0.3014 0.95659 0.3313 0.0
C285 C 0.34637 0.08177 0.50574 0.0
C286 C 0.33769 0.09662 0.57612 0.0
C287 C 0.30538 0.07563 0.62056 0.0
C288 C 0.28182 0.04045 0.59448 0.0
C289 C 0.29119 0.02671 0.52449 0.0
C290 C 0.3229 0.04663 0.48143 0.0
C291 C 0.3279 0.02507 0.41188 0.0
C292 C 0.32961 0.04101 0.32264 0.0
C293 C 0.36105 0.02185 0.42946 0.0
C294 C 0.29411 0.98969 0.42278 0.0
C295 C 0.27303 0.99133 0.48714 0.0
C296 C 0.24071 0.96178 0.50957 0.0
C297 C 0.23006 0.92953 0.46647 0.0
C298 C 0.2519 0.92694 0.40243 0.0
C299 C 0.28407 0.95767 0.37973 0.0
H300 H 0.22632 0.49208 0.66889 0.0
H301 H 0.11966 0.40541 0.71367 0.0
H302 H 0.11454 0.38796 0.56152 0.0
H303 H 0.20993 0.50636 0.42373 0.0
H304 H 0.25483 0.51701 0.40091 0.0
H305 H 0.24457 0.53039 0.50164 0.0
H306 H 0.27347 0.49847 0.57961 0.0
H307 H 0.2814 0.48248 0.48045 0.0
H308 H 0.25556 0.45129 0.56345 0.0
H309 H 0.12923 0.36763 0.42847 0.0
H310 H 0.15416 0.35762 0.29674 0.0
H311 H 0.25165 0.45841 0.33693 0.0
C312 C 0.201 0.47134 0.64442 0.0
C313 C 0.17335 0.45004 0.7012 0.0
C314 C 0.14076 0.42226 0.66973 0.0
C315 C 0.13784 0.41193 0.58374 0.0
C316 C 0.16737 0.43066 0.5311 0.0
C317 C 0.19769 0.4611 0.55861 0.0
C318 C 0.22725 0.47356 0.49321 0.0
C319 C 0.23456 0.5089 0.45244 0.0
C320 C 0.26139 0.47659 0.53157 0.0
C321 C 0.21014 0.44331 0.4297 0.0
C322 C 0.17557 0.41909 0.45214 0.0
C323 C 0.1557 0.3872 0.40791 0.0
C324 C 0.1705 0.38139 0.33429 0.0
C325 C 0.2047 0.4076 0.30561 0.0
C326 C 0.2253 0.43807 0.35649 0.0
H327 H 0.72539 0.20161 0.96092 0.0
H328 H 0.74298 0.11383 0.01768 0.0
H329 H 0.76796 0.11863 0.87261 0.0
H330 H 0.71081 0.1864 0.71955 0.0
H331 H 0.73446 0.23392 0.70333 0.0
H332 H 0.70855 0.21546 0.79923 0.0
H333 H 0.7648 0.25717 0.88822 0.0
H334 H 0.79166 0.27367 0.79328 0.0
H335 H 0.8041 0.25337 0.87715 0.0
H336 H 0.80168 0.14124 0.73301 0.0
H337 H 0.82729 0.16992 0.5939 0.0
H338 H 0.79411 0.24767 0.64257 0.0
C339 C 0.73235 0.18194 0.94053 0.0
C340 C 0.73239 0.15744 -0.00051 0.0
C341 C 0.74232 0.13245 0.97238 0.0
C342 C 0.7572 0.13548 0.89079 0.0
C343 C 0.76125 0.16324 0.83812 0.0
C344 C 0.74797 0.18526 0.86079 0.0
C345 C 0.75899 0.21548 0.79819 0.0
C346 C 0.72627 0.21262 0.75231 0.0
C347 C 0.78119 0.25205 0.8419 0.0
C348 C 0.78144 0.20772 0.73813 0.0
C349 C 0.78234 0.17744 0.76149 0.0
C350 C 0.80086 0.16479 0.71361 0.0
C351 C 0.81607 0.18177 0.6357 0.0
C352 C 0.81247 0.21091 0.60757 0.0
C353 C 0.79733 0.2255 0.66267 0.0
H354 H 0.63367 0.76478 0.31526 0.0
H355 H 0.52276 0.69031 0.36387 0.0
H356 H 0.50843 0.69523 0.21311 0.0
H357 H 0.62316 0.82246 0.21525 0.0
H358 H 0.6564 0.83618 0.13241 0.0
H359 H 0.66178 0.81777 0.23066 0.0
H360 H 0.66618 0.76783 0.15003 0.0
H361 H 0.66362 0.78753 0.05033 0.0
H362 H 0.63292 0.74115 0.07131 0.0
H363 H 0.50405 0.72283 0.07802 0.0
H364 H 0.51183 0.75646 0.94506 0.0
H365 H 0.62613 0.8144 -0.01394 0.0
C366 C 0.60694 0.74737 0.29177 0.0
C367 C 0.57929 0.72698 0.34946 0.0
C368 C 0.54424 0.70541 0.31921 0.0
C369 C 0.53584 0.70855 0.23413 0.0
C370 C 0.56313 0.73261 0.18115 0.0
C371 C 0.59831 0.75042 0.20735 0.0
C372 C 0.62188 0.77828 0.14277 0.0
C373 C 0.64194 0.81585 0.18276 0.0
C374 C 0.64766 0.76807 0.10109 0.0
C375 C 0.59415 0.77518 0.07971 0.0
C376 C 0.56052 0.74865 0.10262 0.0
C377 C 0.5304 0.74281 0.05764 0.0
C378 C 0.5351 0.76268 -0.01681 0.0
C379 C 0.56973 0.78781 0.95444 0.0
C380 C 0.59937 0.79522 0.00583 0.0
H381 H 0.79685 0.52581 0.62671 0.0
H382 H 0.90298 0.61183 0.68114 0.0
H383 H 0.90886 0.63254 0.53116 0.0
H384 H 0.81085 0.51434 0.38691 0.0
H385 H 0.76663 0.50604 0.36378 0.0
H386 H 0.77579 0.49156 0.46415 0.0
H387 H 0.75027 0.526 0.54442 0.0
H388 H 0.74278 0.54264 0.44578 0.0
H389 H 0.77003 0.57337 0.52847 0.0
H390 H 0.89646 0.65282 0.39163 0.0
H391 H 0.87289 0.66244 0.25638 0.0
H392 H 0.77294 0.5647 0.30018 0.0
C393 C 0.82223 0.5473 0.60478 0.0
C394 C 0.84963 0.56708 0.66372 0.0
C395 C 0.88215 0.59597 0.63541 0.0
C396 C 0.8854 0.60822 0.55087 0.0
C397 C 0.85605 0.59069 0.49665 0.0
C398 C 0.82552 0.56001 0.52149 0.0
C399 C 0.79599 0.54897 0.45665 0.0
C400 C 0.78678 0.51311 0.41532 0.0
C401 C 0.76286 0.5477 0.49629 0.0
C402 C 0.81397 0.57923 0.39384 0.0
C403 C 0.84861 0.6029 0.4174 0.0
C404 C 0.86968 0.63394 0.37122 0.0
C405 C 0.85578 0.63952 0.29542 0.0
C406 C 0.82112 0.61414 0.26717 0.0
C407 C 0.79956 0.58457 0.3195 0.0
H408 H 0.19773 0.83334 0.64886 0.0
H409 H 0.15383 0.71953 0.62387 0.0
H410 H 0.15909 0.71471 0.78009 0.0
H411 H 0.2627 0.84849 0.77239 0.0
H412 H 0.26366 0.88153 0.8446 0.0
H413 H 0.24465 0.87616 0.73945 0.0
H414 H 0.18485 0.86468 0.80324 0.0
H415 H 0.20412 0.87179 0.90915 0.0
H416 H 0.16337 0.83126 0.88518 0.0
H417 H 0.18635 0.72421 0.91987 0.0
H418 H 0.22231 0.74514 0.05028 0.0
H419 H 0.24921 0.85393 -0.00767 0.0
C420 C 0.18682 0.80723 0.67784 0.0
C421 C 0.17446 0.7766 0.62598 0.0
C422 C 0.16233 0.74294 0.66377 0.0
C423 C 0.16546 0.74009 0.75223 0.0
C424 C 0.18071 0.7712 0.80122 0.0
C425 C 0.19015 0.80411 0.76632 0.0
C426 C 0.21113 0.83386 0.83036 0.0
C427 C 0.24768 0.8616 0.79449 0.0
C428 C 0.18957 0.85143 0.85868 0.0
C429 C 0.21483 0.81282 0.90309 0.0
C430 C 0.19661 0.77674 0.88506 0.0
C431 C 0.19956 0.7522 0.93648 0.0
C432 C 0.22061 0.76458 0.00999 0.0
C433 C 0.23839 0.80129 0.03229 0.0
C434 C 0.23556 0.82572 -0.02236 0.0
H435 H 0.37663 0.23978 0.33582 0.0
H436 H 0.48656 0.31778 0.3847 0.0
H437 H 0.50049 0.31672 0.23179 0.0
H438 H 0.38914 0.1865 0.22622 0.0
H439 H 0.35568 0.17278 0.14371 0.0
H440 H 0.34941 0.18897 0.24454 0.0
H441 H 0.34246 0.2386 0.17085 0.0
H442 H 0.34597 0.2211 0.06843 0.0
H443 H 0.37513 0.26744 0.09382 0.0
H444 H 0.50609 0.29131 0.09602 0.0
H445 H 0.50016 0.25838 0.9628 0.0
H446 H 0.3858 0.19648 0.00026 0.0
C447 C 0.40286 0.25872 0.31226 0.0
C448 C 0.43055 0.27908 0.37011 0.0
C449 C 0.46506 0.30269 0.33988 0.0
C450 C 0.47322 0.30184 0.25346 0.0
C451 C 0.44617 0.27796 0.19937 0.0
C452 C 0.41121 0.25809 0.22625 0.0
C453 C 0.38829 0.23072 0.15957 0.0
C454 C 0.36958 0.19252 0.19577 0.0
C455 C 0.36138 0.24004 0.12083 0.0
C456 C 0.4164 0.23605 0.09517 0.0
C457 C 0.44947 0.26353 0.11895 0.0
C458 C 0.48011 0.27083 0.07452 0.0
C459 C 0.47648 0.25139 -0.00012 0.0
C460 C 0.44236 0.22522 0.97021 0.0
C461 C 0.41219 0.21654 0.0206 0.0
H462 H 0.23632 0.55058 0.19859 0.0
H463 H 0.1275 0.49492 0.10505 0.0
H464 H 0.11637 0.53903 0.17679 0.0
H465 H 0.21719 0.58011 0.40789 0.0
H466 H 0.25757 0.62266 0.40348 0.0
H467 H 0.25596 0.58393 0.35567 0.0
H468 H 0.27634 0.61672 0.20991 0.0
H469 H 0.2784 0.65558 0.25722 0.0
H470 H 0.25163 0.63572 0.16275 0.0
H471 H 0.11887 0.59241 0.23943 0.0
H472 H 0.13579 0.65347 0.28448 0.0
H473 H 0.24231 0.67498 0.34215 0.0
C474 C 0.20996 0.5473 0.19449 0.0
C475 C 0.1828 0.51923 0.14606 0.0
C476 C 0.1488 0.51617 0.14152 0.0
C477 C 0.14209 0.54095 0.18272 0.0
C478 C 0.16952 0.56852 0.22891 0.0
C479 C 0.20279 0.57188 0.23524 0.0
C480 C 0.22853 0.60597 0.28172 0.0
C481 C 0.24051 0.59766 0.36729 0.0
C482 C 0.2606 0.6299 0.22446 0.0
C483 C 0.20497 0.62209 0.29652 0.0
C484 C 0.17082 0.59958 0.26702 0.0
C485 C 0.1452 0.60993 0.26475 0.0
C486 C 0.15501 0.64459 0.29043 0.0
C487 C 0.19004 0.66842 0.31833 0.0
C488 C 0.21502 0.65671 0.32404 0.0
H489 H 0.63501 0.18119 0.30357 0.0
H490 H 0.66392 0.14659 0.53541 0.0
H491 H 0.61136 0.14176 0.60939 0.0
H492 H 0.61137 0.2368 0.40227 0.0
H493 H 0.57433 0.22782 0.33378 0.0
H494 H 0.60981 0.22192 0.29328 0.0
H495 H 0.56482 0.15648 0.25298 0.0
H496 H 0.52902 0.16229 0.29258 0.0
H497 H 0.53508 0.1268 0.3337 0.0
H498 H 0.56294 0.15028 0.66434 0.0
H499 H 0.51921 0.16912 0.69655 0.0
H500 H 0.51975 0.19739 0.42914 0.0
C501 C 0.62921 0.17118 0.36872 0.0
C502 C 0.65261 0.1633 0.41372 0.0
C503 C 0.64556 0.15185 0.49993 0.0
C504 C 0.61587 0.14908 0.54225 0.0
C505 C 0.59362 0.15789 0.49716 0.0
C506 C 0.59961 0.16835 0.41201 0.0
C507 C 0.57375 0.17996 0.38158 0.0
C508 C 0.59351 0.21893 0.35097 0.0
C509 C 0.54921 0.15488 0.31103 0.0
C510 C 0.55339 0.17583 0.46385 0.0
C511 C 0.5651 0.16271 0.52933 0.0
C512 C 0.55292 0.15977 0.61325 0.0
C513 C 0.52829 0.17076 0.63102 0.0
C514 C 0.51595 0.18438 0.56515 0.0
C515 C 0.5282 0.18633 0.4802 0.0
H516 H 0.33501 0.5597 -0.02497 0.0
H517 H 0.34363 0.47202 0.86705 0.0
H518 H 0.40171 0.51464 0.80381 0.0
H519 H 0.36613 0.61313 0.79473 0.0
H520 H 0.39021 0.65503 0.85081 0.0
H521 H 0.35258 0.61808 0.90093 0.0
H522 H 0.39143 0.62248 0.03189 0.0
H523 H 0.42918 0.65983 -0.01733 0.0
H524 H 0.43193 0.62138 0.01519 0.0
H525 H 0.45587 0.56632 0.74209 0.0
H526 H 0.50222 0.6239 0.68359 0.0
H527 H 0.45658 0.67814 0.82381 0.0
C528 C 0.34983 0.54959 0.94066 0.0
C529 C 0.33537 0.5127 0.92703 0.0
C530 C 0.35464 0.50027 0.87883 0.0
C531 C 0.38759 0.52423 0.84282 0.0
C532 C 0.40069 0.56054 0.85492 0.0
C533 C 0.38251 0.57325 0.90275 0.0
C534 C 0.40065 0.61352 0.8982 0.0
C535 C 0.37591 0.62563 0.8588 0.0
C536 C 0.4141 0.63028 -0.01271 0.0
C537 C 0.43126 0.62128 0.83871 0.0
C538 C 0.43116 0.59042 0.81578 0.0
C539 C 0.4564 0.59073 0.76005 0.0
C540 C 0.48256 0.62352 0.72698 0.0
C541 C 0.48286 0.65544 0.74867 0.0
C542 C 0.45686 0.65415 0.80545 0.0
H543 H 0.82319 0.33523 0.13622 0.0
H544 H 0.77925 0.32992 0.39001 0.0
H545 H 0.78642 0.38951 0.36874 0.0
H546 H 0.88828 0.43188 0.14114 0.0
H547 H 0.88194 0.43729 0.02891 0.0
H548 H 0.87654 0.39562 0.06709 0.0
H549 H 0.8131 0.36222 0.00233 0.0
H550 H 0.81822 0.4037 0.96421 0.0
H551 H 0.78133 0.3755 0.03272 0.0
H552 H 0.79144 0.44561 0.31429 0.0
H553 H 0.79675 0.49662 0.23193 0.0
H554 H 0.84015 0.46759 0.01596 0.0
C555 C 0.81557 0.3468 0.1879 0.0
C556 C 0.80063 0.32787 0.2648 0.0
C557 C 0.79087 0.34392 0.33067 0.0
C558 C 0.79488 0.37779 0.31927 0.0
C559 C 0.80912 0.39542 0.24218 0.0
C560 C 0.81968 0.38072 0.17792 0.0
C561 C 0.83257 0.40458 0.09957 0.0
C562 C 0.87219 0.41815 0.08325 0.0
C563 C 0.80994 0.38535 0.02005 0.0
C564 C 0.82649 0.43445 0.12885 0.0
C565 C 0.81308 0.42863 0.21152 0.0
C566 C 0.80258 0.45085 0.25025 0.0
C567 C 0.80556 0.47963 0.20298 0.0
C568 C 0.81921 0.48613 0.11832 0.0
C569 C 0.83036 0.46359 0.0813 0.0
H570 H 0.33749 0.80485 0.52281 0.0
H571 H 0.37699 0.86617 0.28797 0.0
H572 H 0.43543 0.8708 0.31255 0.0
H573 H 0.42115 0.85178 0.64611 0.0
H574 H 0.41332 0.81126 0.69758 0.0
H575 H 0.37632 0.81661 0.66619 0.0
H576 H 0.35036 0.75808 0.57784 0.0
H577 H 0.38737 0.75273 0.60812 0.0
H578 H 0.37726 0.75355 0.49613 0.0
H579 H 0.48711 0.86272 0.35491 0.0
H580 H 0.52883 0.84529 0.41505 0.0
H581 H 0.45474 0.78965 0.62223 0.0
C582 C 0.35855 0.81985 0.47716 0.0
C583 C 0.35266 0.83512 0.40337 0.0
C584 C 0.38096 0.85441 0.34522 0.0
C585 C 0.4142 0.85714 0.35859 0.0
C586 C 0.4187 0.84079 0.43082 0.0
C587 C 0.39174 0.8229 0.48963 0.0
C588 C 0.40247 0.80588 0.55937 0.0
C589 C 0.40338 0.82238 0.64753 0.0
C590 C 0.37791 0.76516 0.56034 0.0
C591 C 0.43939 0.81608 0.52936 0.0
C592 C 0.44843 0.8364 0.45547 0.0
C593 C 0.48052 0.84726 0.41342 0.0
C594 C 0.50395 0.83707 0.44787 0.0
C595 C 0.4951 0.81618 0.52355 0.0
C596 C 0.46248 0.8059 0.56485 0.0
H597 H 0.69943 0.47344 0.79478 0.0
H598 H 0.65927 0.50899 0.00491 0.0
H599 H 0.59776 0.46204 0.96871 0.0
H600 H 0.62726 0.44831 0.64537 0.0
H601 H 0.62781 0.40916 0.60819 0.0
H602 H 0.66811 0.44702 0.6469 0.0
H603 H 0.67603 0.40686 0.75751 0.0
H604 H 0.63591 0.36886 0.71883 0.0
H605 H 0.64048 0.38048 0.83119 0.0
H606 H 0.54073 0.41222 0.90587 0.0
H607 H 0.49318 0.35799 0.8357 0.0
H608 H 0.57178 0.35167 0.67655 0.0
C609 C 0.67758 0.47146 0.83261 0.0
C610 C 0.68373 0.49493 0.90178 0.0
C611 C 0.65483 0.49119 0.95145 0.0
C612 C 0.61993 0.46481 0.93105 0.0
C613 C 0.61471 0.44209 0.86202 0.0
C614 C 0.64283 0.44474 0.81467 0.0
C615 C 0.63047 0.41541 0.74807 0.0
C616 C 0.63891 0.43091 0.65673 0.0
C617 C 0.64668 0.39149 0.76496 0.0
C618 C 0.59092 0.39583 0.76502 0.0
C619 C 0.58226 0.41205 0.82979 0.0
C620 C 0.54722 0.39919 0.85546 0.0
C621 C 0.52042 0.36856 0.81496 0.0
C622 C 0.52896 0.35077 0.75102 0.0
C623 C 0.56462 0.36475 0.72554 0.0
loop_
_geom_bond_atom_site_label_1
_geom_bond_atom_site_label_2
_geom_bond_distance
_geom_bond_site_symmetry_2
_ccdc_geom_bond_type
O0 Zn1 1.953 1_554 S
O0 C16 1.225 . S
Zn1 O0 1.953 1_556 S
Zn1 O2 1.949 1_556 S
Zn1 O8 1.919 1_556 S
Zn1 O13 1.924 . S
O2 Zn1 1.949 1_554 S
O2 Zn3 1.923 . S
O2 Zn4 1.950 . S
O2 Zn5 1.945 1_554 S
Zn3 O2 1.923 . S
Zn3 O6 1.933 . S
Zn3 O9 1.941 . S
Zn3 O10 1.965 . S
Zn4 O2 1.950 . S
Zn4 O11 1.938 . S
Zn4 O12 1.906 . S
Zn4 O22 1.953 . S
Zn5 O2 1.945 1_556 S
Zn5 O7 1.932 . S
Zn5 O14 1.977 . S
Zn5 O15 1.910 . S
O6 Zn3 1.933 . S
O6 C17 1.226 1_554 S
O7 Zn5 1.932 . S
O7 C17 1.307 . S
O8 Zn1 1.919 1_554 S
O8 C19 1.253 . S
O9 Zn3 1.941 . S
O9 C19 1.283 . S
O10 Zn3 1.965 . S
O10 C18 1.303 . S
O11 Zn4 1.938 . S
O11 C18 1.247 . S
O12 Zn4 1.906 . S
O12 C20 1.304 1_554 S
O13 Zn1 1.924 . S
O13 C21 1.311 . S
O14 Zn5 1.977 . S
O14 C20 1.272 . S
O15 Zn5 1.910 . S
O15 C21 1.231 . S
C16 O0 1.225 . S
C16 O22 1.298 . S
C17 O6 1.226 1_556 S
C17 O7 1.307 . S
C18 O10 1.303 . S
C18 O11 1.247 . S
C19 O8 1.253 . S
C19 O9 1.283 . S
C20 O12 1.304 1_556 S
C20 O14 1.272 . S
C21 O13 1.311 . S
C21 O15 1.231 . S
O22 Zn4 1.953 . S
O22 C16 1.298 . S
O23 Zn24 1.953 . S
O23 C39 1.225 . S
Zn24 O23 1.953 . S
Zn24 O25 1.949 . S
Zn24 O31 1.919 . S
Zn24 O36 1.924 . S
O25 Zn24 1.949 . S
O25 Zn26 1.923 . S
O25 Zn27 1.950 . S
O25 Zn28 1.945 . S
Zn26 O25 1.923 . S
Zn26 O29 1.933 . S
Zn26 O32 1.941 . S
Zn26 O33 1.965 . S
Zn27 O25 1.950 . S
Zn27 O34 1.938 . S
Zn27 O35 1.906 . S
Zn27 O45 1.953 . S
Zn28 O25 1.945 . S
Zn28 O30 1.932 . S
Zn28 O37 1.977 . S
Zn28 O38 1.910 . S
O29 Zn26 1.933 . S
O29 C40 1.226 . S
O30 Zn28 1.932 . S
O30 C40 1.307 . S
O31 Zn24 1.919 . S
O31 C42 1.253 . S
O32 Zn26 1.941 . S
O32 C42 1.283 . S
O33 Zn26 1.965 . S
O33 C41 1.303 . S
O34 Zn27 1.938 . S
O34 C41 1.247 . S
O35 Zn27 1.906 . S
O35 C43 1.304 . S
O36 Zn24 1.924 . S
O36 C44 1.311 . S
O37 Zn28 1.977 . S
O37 C43 1.272 . S
O38 Zn28 1.910 . S
O38 C44 1.231 . S
C39 O23 1.225 . S
C39 O45 1.298 . S
C40 O29 1.226 . S
C40 O30 1.307 . S
C41 O33 1.303 . S
C41 O34 1.247 . S
C42 O31 1.253 . S
C42 O32 1.283 . S
C43 O35 1.304 . S
C43 O37 1.272 . S
C44 O36 1.311 . S
C44 O38 1.231 . S
O45 Zn27 1.953 . S
O45 C39 1.298 . S
O46 Zn47 1.953 . S
O46 C62 1.225 . S
Zn47 O46 1.953 . S
Zn47 O48 1.949 . S
Zn47 O54 1.919 . S
Zn47 O59 1.924 . S
O48 Zn47 1.949 . S
O48 Zn49 1.923 . S
O48 Zn50 1.950 . S
O48 Zn51 1.945 . S
Zn49 O48 1.923 . S
Zn49 O52 1.933 . S
Zn49 O55 1.941 . S
Zn49 O56 1.965 . S
Zn50 O48 1.950 . S
Zn50 O57 1.938 . S
Zn50 O58 1.906 . S
Zn50 O68 1.953 . S
Zn51 O48 1.945 . S
Zn51 O53 1.932 . S
Zn51 O60 1.977 . S
Zn51 O61 1.910 . S
O52 Zn49 1.933 . S
O52 C63 1.226 . S
O53 Zn51 1.932 . S
O53 C63 1.307 . S
O54 Zn47 1.919 . S
O54 C65 1.253 . S
O55 Zn49 1.941 . S
O55 C65 1.283 . S
O56 Zn49 1.965 . S
O56 C64 1.303 . S
O57 Zn50 1.938 . S
O57 C64 1.247 . S
O58 Zn50 1.906 . S
O58 C66 1.304 . S
O59 Zn47 1.924 . S
O59 C67 1.311 . S
O60 Zn51 1.977 . S
O60 C66 1.272 . S
O61 Zn51 1.910 . S
O61 C67 1.231 . S
C62 O46 1.225 . S
C62 O68 1.298 . S
C63 O52 1.226 . S
C63 O53 1.307 . S
C64 O56 1.303 . S
C64 O57 1.247 . S
C65 O54 1.253 . S
C65 O55 1.283 . S
C66 O58 1.304 . S
C66 O60 1.272 . S
C67 O59 1.311 . S
C67 O61 1.231 . S
O68 Zn50 1.953 . S
O68 C62 1.298 . S
O69 Zn70 1.953 1_554 S
O69 C85 1.225 . S
Zn70 O69 1.953 1_556 S
Zn70 O71 1.949 1_556 S
Zn70 O77 1.919 1_556 S
Zn70 O82 1.924 . S
O71 Zn70 1.949 1_554 S
O71 Zn72 1.923 . S
O71 Zn73 1.950 . S
O71 Zn74 1.945 1_554 S
Zn72 O71 1.923 . S
Zn72 O75 1.933 . S
Zn72 O78 1.941 . S
Zn72 O79 1.965 . S
Zn73 O71 1.950 . S
Zn73 O80 1.938 . S
Zn73 O81 1.906 . S
Zn73 O91 1.953 . S
Zn74 O71 1.945 1_556 S
Zn74 O76 1.932 . S
Zn74 O83 1.977 . S
Zn74 O84 1.910 . S
O75 Zn72 1.933 . S
O75 C86 1.226 1_554 S
O76 Zn74 1.932 . S
O76 C86 1.307 . S
O77 Zn70 1.919 1_554 S
O77 C88 1.253 . S
O78 Zn72 1.941 . S
O78 C88 1.283 . S
O79 Zn72 1.965 . S
O79 C87 1.303 . S
O80 Zn73 1.938 . S
O80 C87 1.247 . S
O81 Zn73 1.906 . S
O81 C89 1.304 1_554 S
O82 Zn70 1.924 . S
O82 C90 1.311 . S
O83 Zn74 1.977 . S
O83 C89 1.272 . S
O84 Zn74 1.910 . S
O84 C90 1.231 . S
C85 O69 1.225 . S
C85 O91 1.298 . S
C86 O75 1.226 1_556 S
C86 O76 1.307 . S
C87 O79 1.303 . S
C87 O80 1.247 . S
C88 O77 1.253 . S
C88 O78 1.283 . S
C89 O81 1.304 1_556 S
C89 O83 1.272 . S
C90 O82 1.311 . S
C90 O84 1.231 . S
O91 Zn73 1.953 . S
O91 C85 1.298 . S
O92 Zn93 1.953 . S
O92 C108 1.225 . S
Zn93 O92 1.953 . S
Zn93 O94 1.949 . S
Zn93 O100 1.919 . S
Zn93 O105 1.924 . S
O94 Zn93 1.949 . S
O94 Zn95 1.923 . S
O94 Zn96 1.950 . S
O94 Zn97 1.945 . S
Zn95 O94 1.923 . S
Zn95 O98 1.933 . S
Zn95 O101 1.941 . S
Zn95 O102 1.965 . S
Zn96 O94 1.950 . S
Zn96 O103 1.938 . S
Zn96 O104 1.906 . S
Zn96 O114 1.953 . S
Zn97 O94 1.945 . S
Zn97 O99 1.932 . S
Zn97 O106 1.977 . S
Zn97 O107 1.910 . S
O98 Zn95 1.933 . S
O98 C109 1.226 . S
O99 Zn97 1.932 . S
O99 C109 1.307 . S
O100 Zn93 1.919 . S
O100 C111 1.253 . S
O101 Zn95 1.941 . S
O101 C111 1.283 . S
O102 Zn95 1.965 . S
O102 C110 1.303 . S
O103 Zn96 1.938 . S
O103 C110 1.247 . S
O104 Zn96 1.906 . S
O104 C112 1.304 . S
O105 Zn93 1.924 . S
O105 C113 1.311 . S
O106 Zn97 1.977 . S
O106 C112 1.272 . S
O107 Zn97 1.910 . S
O107 C113 1.231 . S
C108 O92 1.225 . S
C108 O114 1.298 . S
C109 O98 1.226 . S
C109 O99 1.307 . S
C110 O102 1.303 . S
C110 O103 1.247 . S
C111 O100 1.253 . S
C111 O101 1.283 . S
C112 O104 1.304 . S
C112 O106 1.272 . S
C113 O105 1.311 . S
C113 O107 1.231 . S
O114 Zn96 1.953 . S
O114 C108 1.298 . S
O115 Zn116 1.953 . S
O115 C131 1.225 . S
Zn116 O115 1.953 . S
Zn116 O117 1.949 . S
Zn116 O123 1.919 . S
Zn116 O128 1.924 . S
O117 Zn116 1.949 . S
O117 Zn118 1.923 . S
O117 Zn119 1.950 . S
O117 Zn120 1.945 . S
Zn118 O117 1.923 . S
Zn118 O121 1.933 . S
Zn118 O124 1.941 . S
Zn118 O125 1.965 . S
Zn119 O117 1.950 . S
Zn119 O126 1.938 . S
Zn119 O127 1.906 . S
Zn119 O137 1.953 . S
Zn120 O117 1.945 . S
Zn120 O122 1.932 . S
Zn120 O129 1.977 . S
Zn120 O130 1.910 . S
O121 Zn118 1.933 . S
O121 C132 1.226 . S
O122 Zn120 1.932 . S
O122 C132 1.307 . S
O123 Zn116 1.919 . S
O123 C134 1.253 . S
O124 Zn118 1.941 . S
O124 C134 1.283 . S
O125 Zn118 1.965 . S
O125 C133 1.303 . S
O126 Zn119 1.938 . S
O126 C133 1.247 . S
O127 Zn119 1.906 . S
O127 C135 1.304 . S
O128 Zn116 1.924 . S
O128 C136 1.311 . S
O129 Zn120 1.977 . S
O129 C135 1.272 . S
O130 Zn120 1.910 . S
O130 C136 1.231 . S
C131 O115 1.225 . S
C131 O137 1.298 . S
C132 O121 1.226 . S
C132 O122 1.307 . S
C133 O125 1.303 . S
C133 O126 1.247 . S
C134 O123 1.253 . S
C134 O124 1.283 . S
C135 O127 1.304 . S
C135 O129 1.272 . S
C136 O128 1.311 . S
C136 O130 1.231 . S
O137 Zn119 1.953 . S
O137 C131 1.298 . S
H138 C150 0.930 . S
H139 C152 0.930 . S
H140 C153 0.930 . S
H141 C157 0.959 . S
H142 C157 0.959 . S
H143 C157 0.961 . S
H144 C158 0.960 . S
H145 C158 0.961 . S
H146 C158 0.959 . S
H147 C161 0.929 . S
H148 C162 0.931 . S
H149 C164 0.930 . S
C150 H138 0.930 . S
C150 C151 1.399 . S
C150 C155 1.399 . S
C151 C150 1.399 . S
C151 C152 1.376 . S
C152 H139 0.930 . S
C152 C151 1.376 . S
C152 C153 1.388 . S
C153 H140 0.930 . S
C153 C152 1.388 . S
C153 C154 1.390 . S
C154 C153 1.390 . S
C154 C155 1.394 . S
C154 C160 1.465 . S
C155 C150 1.399 . S
C155 C154 1.394 . S
C155 C156 1.516 . S
C156 C155 1.516 . S
C156 C157 1.502 . S
C156 C158 1.561 . S
C156 C159 1.526 . S
C157 H141 0.959 . S
C157 H142 0.959 . S
C157 H143 0.961 . S
C157 C156 1.502 . S
C158 H144 0.960 . S
C158 H145 0.961 . S
C158 H146 0.959 . S
C158 C156 1.561 . S
C159 C156 1.526 . S
C159 C160 1.396 . S
C159 C164 1.390 . S
C160 C154 1.465 . S
C160 C159 1.396 . S
C160 C161 1.399 . S
C161 H147 0.929 . S
C161 C160 1.399 . S
C161 C162 1.385 . S
C162 H148 0.931 . S
C162 C161 1.385 . S
C162 C163 1.389 . S
C163 C162 1.389 . S
C163 C164 1.387 . S
C164 H149 0.930 . S
C164 C159 1.390 . S
C164 C163 1.387 . S
H165 C177 0.930 . S
H166 C179 0.930 . S
H167 C180 0.930 . S
H168 C184 0.959 . S
H169 C184 0.959 . S
H170 C184 0.961 1_556 S
H171 C185 0.945 1_455 S
H172 C185 0.961 . S
H173 C185 0.959 . S
H174 C188 0.929 . S
H175 C189 0.931 . S
H176 C191 0.930 . S
C177 H165 0.930 . S
C177 C178 1.399 . S
C177 C182 1.399 . S
C178 C177 1.399 . S
C178 C179 1.376 . S
C179 H166 0.930 . S
C179 C178 1.376 . S
C179 C180 1.388 . S
C180 H167 0.930 . S
C180 C179 1.388 . S
C180 C181 1.390 . S
C181 C180 1.390 . S
C181 C182 1.394 . S
C181 C187 1.465 1_455 S
C182 C177 1.399 . S
C182 C181 1.394 . S
C182 C183 1.516 1_455 S
C183 C182 1.516 1_655 S
C183 C184 1.502 . S
C183 C185 1.561 . S
C183 C186 1.526 . S
C184 H168 0.959 . S
C184 H169 0.959 . S
C184 H170 0.961 1_554 S
C184 C183 1.502 . S
C185 H171 0.945 1_655 S
C185 H172 0.961 . S
C185 H173 0.959 . S
C185 C183 1.561 . S
C186 C183 1.526 . S
C186 C187 1.396 . S
C186 C191 1.390 . S
C187 C181 1.465 1_655 S
C187 C186 1.396 . S
C187 C188 1.399 . S
C188 H174 0.929 . S
C188 C187 1.399 . S
C188 C189 1.385 . S
C189 H175 0.931 . S
C189 C188 1.385 . S
C189 C190 1.389 . S
C190 C189 1.389 . S
C190 C191 1.387 . S
C191 H176 0.930 . S
C191 C186 1.390 . S
C191 C190 1.387 . S
H192 C204 0.930 . S
H193 C206 0.930 . S
H194 C207 0.930 . S
H195 C211 0.959 . S
H196 C211 0.959 . S
H197 C211 0.961 . S
H198 C212 0.960 . S
H199 C212 0.961 . S
H200 C212 0.959 . S
H201 C215 0.929 . S
H202 C216 0.931 . S
H203 C218 0.930 . S
C204 H192 0.930 . S
C204 C205 1.399 . S
C204 C209 1.399 . S
C205 C204 1.399 . S
C205 C206 1.376 . S
C206 H193 0.930 . S
C206 C205 1.376 . S
C206 C207 1.388 . S
C207 H194 0.930 . S
C207 C206 1.388 . S
C207 C208 1.390 . S
C208 C207 1.390 . S
C208 C209 1.394 . S
C208 C214 1.465 1_545 S
C209 C204 1.399 . S
C209 C208 1.394 . S
C209 C210 1.516 1_545 S
C210 C209 1.516 1_565 S
C210 C211 1.502 . S
C210 C212 1.561 . S
C210 C213 1.526 . S
C211 H195 0.959 . S
C211 H196 0.959 . S
C211 H197 0.961 . S
C211 C210 1.502 . S
C212 H198 0.960 . S
C212 H199 0.961 . S
C212 H200 0.959 . S
C212 C210 1.561 . S
C213 C210 1.526 . S
C213 C214 1.396 . S
C213 C218 1.390 . S
C214 C208 1.465 1_565 S
C214 C213 1.396 . S
C214 C215 1.399 . S
C215 H201 0.929 . S
C215 C214 1.399 . S
C215 C216 1.385 . S
C216 H202 0.931 . S
C216 C215 1.385 . S
C216 C217 1.389 . S
C217 C216 1.389 . S
C217 C218 1.387 . S
C218 H203 0.930 . S
C218 C213 1.390 . S
C218 C217 1.387 . S
H219 C231 0.930 . S
H220 C233 0.930 . S
H221 C234 0.930 . S
H222 C238 0.959 . S
H223 C238 0.959 . S
H224 C238 0.961 . S
H225 C239 0.960 . S
H226 C239 0.961 . S
H227 C239 0.959 . S
H228 C242 0.929 . S
H229 C243 0.931 . S
H230 C245 0.930 . S
C231 H219 0.930 . S
C231 C232 1.399 . S
C231 C236 1.399 . S
C232 C231 1.399 . S
C232 C233 1.376 . S
C233 H220 0.930 . S
C233 C232 1.376 . S
C233 C234 1.388 . S
C234 H221 0.930 . S
C234 C233 1.388 . S
C234 C235 1.390 . S
C235 C234 1.390 . S
C235 C236 1.394 . S
C235 C241 1.465 . S
C236 C231 1.399 . S
C236 C235 1.394 . S
C236 C237 1.516 . S
C237 C236 1.516 . S
C237 C238 1.502 . S
C237 C239 1.561 . S
C237 C240 1.526 . S
C238 H222 0.959 . S
C238 H223 0.959 . S
C238 H224 0.961 . S
C238 C237 1.502 . S
C239 H225 0.960 . S
C239 H226 0.961 . S
C239 H227 0.959 . S
C239 C237 1.561 . S
C240 C237 1.526 . S
C240 C241 1.396 . S
C240 C245 1.390 . S
C241 C235 1.465 . S
C241 C240 1.396 . S
C241 C242 1.399 . S
C242 H228 0.929 . S
C242 C241 1.399 . S
C242 C243 1.385 . S
C243 H229 0.931 . S
C243 C242 1.385 . S
C243 C244 1.389 . S
C244 C243 1.389 . S
C244 C245 1.387 . S
C245 H230 0.930 . S
C245 C240 1.390 . S
C245 C244 1.387 . S
H246 C258 0.930 . S
H247 C260 0.930 . S
H248 C261 0.930 . S
H249 C265 0.959 1_655 S
H250 C265 0.959 1_655 S
H251 C265 0.961 . S
H252 C266 0.960 . S
H253 C266 0.961 . S
H254 C266 0.959 . S
H255 C269 0.929 . S
H256 C270 0.931 . S
H257 C272 0.930 . S
C258 H246 0.930 . S
C258 C259 1.399 . S
C258 C263 1.399 . S
C259 C258 1.399 . S
C259 C260 1.376 . S
C260 H247 0.930 . S
C260 C259 1.376 . S
C260 C261 1.388 . S
C261 H248 0.930 . S
C261 C260 1.388 . S
C261 C262 1.390 . S
C262 C261 1.390 . S
C262 C263 1.394 . S
C262 C268 1.465 . S
C263 C258 1.399 . S
C263 C262 1.394 . S
C263 C264 1.516 . S
C264 C263 1.516 . S
C264 C265 1.502 . S
C264 C266 1.561 . S
C264 C267 1.526 1_455 S
C265 H249 0.959 1_455 S
C265 H250 0.959 1_455 S
C265 H251 0.961 . S
C265 C264 1.502 . S
C266 H252 0.960 . S
C266 H253 0.961 . S
C266 H254 0.959 . S
C266 C264 1.561 . S
C267 C264 1.526 1_655 S
C267 C268 1.396 1_655 S
C267 C272 1.390 . S
C268 C262 1.465 . S
C268 C267 1.396 1_455 S
C268 C269 1.399 1_455 S
C269 H255 0.929 . S
C269 C268 1.399 1_655 S
C269 C270 1.385 . S
C270 H256 0.931 . S
C270 C269 1.385 . S
C270 C271 1.389 . S
C271 C270 1.389 . S
C271 C272 1.387 . S
C272 H257 0.930 . S
C272 C267 1.390 . S
C272 C271 1.387 . S
H273 C285 0.930 . S
H274 C287 0.930 . S
H275 C288 0.930 . S
H276 C292 0.959 . S
H277 C292 0.959 . S
H278 C292 0.961 1_545 S
H279 C293 0.960 1_545 S
H280 C293 0.961 . S
H281 C293 0.959 . S
H282 C296 0.929 1_545 S
H283 C297 0.931 . S
H284 C299 0.930 . S
C285 H273 0.930 . S
C285 C286 1.399 . S
C285 C290 1.399 . S
C286 C285 1.399 . S
C286 C287 1.376 . S
C287 H274 0.930 . S
C287 C286 1.376 . S
C287 C288 1.388 . S
C288 H275 0.930 . S
C288 C287 1.388 . S
C288 C289 1.390 . S
C289 C288 1.390 . S
C289 C290 1.394 . S
C289 C295 1.465 . S
C290 C285 1.399 . S
C290 C289 1.394 . S
C290 C291 1.530 . S
C291 C290 1.530 . S
C291 C292 1.493 1_545 S
C291 C293 1.563 1_545 S
C291 C294 1.521 1_545 S
C292 H276 0.959 . S
C292 H277 0.959 . S
C292 H278 0.961 1_565 S
C292 C291 1.493 1_565 S
C293 H279 0.960 1_565 S
C293 H280 0.961 . S
C293 H281 0.959 . S
C293 C291 1.563 1_565 S
C294 C291 1.521 1_565 S
C294 C295 1.396 1_565 S
C294 C299 1.390 . S
C295 C289 1.465 . S
C295 C294 1.396 1_545 S
C295 C296 1.399 1_545 S
C296 H282 0.929 1_565 S
C296 C295 1.399 1_565 S
C296 C297 1.385 . S
C297 H283 0.931 . S
C297 C296 1.385 . S
C297 C298 1.389 . S
C298 C297 1.389 . S
C298 C299 1.387 . S
C299 H284 0.930 . S
C299 C294 1.390 . S
C299 C298 1.387 . S
H300 C312 0.930 . S
H301 C314 0.930 . S
H302 C315 0.930 . S
H303 C319 0.959 . S
H304 C319 0.959 . S
H305 C319 0.961 . S
H306 C320 0.960 . S
H307 C320 0.961 . S
H308 C320 0.959 . S
H309 C323 0.929 . S
H310 C324 0.931 . S
H311 C326 0.930 . S
C312 H300 0.930 . S
C312 C313 1.399 . S
C312 C317 1.399 . S
C313 C312 1.399 . S
C313 C314 1.376 . S
C314 H301 0.930 . S
C314 C313 1.376 . S
C314 C315 1.388 . S
C315 H302 0.930 . S
C315 C314 1.388 . S
C315 C316 1.390 . S
C316 C315 1.390 . S
C316 C317 1.394 . S
C316 C322 1.465 . S
C317 C312 1.399 . S
C317 C316 1.394 . S
C317 C318 1.516 . S
C318 C317 1.516 . S
C318 C319 1.502 . S
C318 C320 1.561 . S
C318 C321 1.526 . S
C319 H303 0.959 . S
C319 H304 0.959 . S
C319 H305 0.961 . S
C319 C318 1.502 . S
C320 H306 0.960 . S
C320 H307 0.961 . S
C320 H308 0.959 . S
C320 C318 1.561 . S
C321 C318 1.526 . S
C321 C322 1.396 . S
C321 C326 1.390 . S
C322 C316 1.465 . S
C322 C321 1.396 . S
C322 C323 1.399 . S
C323 H309 0.929 . S
C323 C322 1.399 . S
C323 C324 1.385 . S
C324 H310 0.931 . S
C324 C323 1.385 . S
C324 C325 1.389 . S
C325 C324 1.389 . S
C325 C326 1.387 . S
C326 H311 0.930 . S
C326 C321 1.390 . S
C326 C325 1.387 . S
H327 C339 0.930 . S
H328 C341 0.930 . S
H329 C342 0.930 . S
H330 C346 0.959 . S
H331 C346 0.959 . S
H332 C346 0.961 . S
H333 C347 0.960 . S
H334 C347 0.961 . S
H335 C347 0.959 . S
H336 C350 0.929 . S
H337 C351 0.931 . S
H338 C353 0.930 . S
C339 H327 0.930 . S
C339 C340 1.399 . S
C339 C344 1.399 1_554 S
C340 C339 1.399 . S
C340 C341 1.376 . S
C341 H328 0.930 . S
C341 C340 1.376 . S
C341 C342 1.388 1_554 S
C342 H329 0.930 . S
C342 C341 1.388 1_556 S
C342 C343 1.390 . S
C343 C342 1.390 . S
C343 C344 1.394 . S
C343 C349 1.465 . S
C344 C339 1.399 1_556 S
C344 C343 1.394 . S
C344 C345 1.516 . S
C345 C344 1.516 . S
C345 C346 1.502 . S
C345 C347 1.561 . S
C345 C348 1.526 . S
C346 H330 0.959 . S
C346 H331 0.959 . S
C346 H332 0.961 . S
C346 C345 1.502 . S
C347 H333 0.960 . S
C347 H334 0.961 . S
C347 H335 0.959 . S
C347 C345 1.561 . S
C348 C345 1.526 . S
C348 C349 1.396 . S
C348 C353 1.390 . S
C349 C343 1.465 . S
C349 C348 1.396 . S
C349 C350 1.399 . S
C350 H336 0.929 . S
C350 C349 1.399 . S
C350 C351 1.385 . S
C351 H337 0.931 . S
C351 C350 1.385 . S
C351 C352 1.389 . S
C352 C351 1.389 . S
C352 C353 1.387 . S
C353 H338 0.930 . S
C353 C348 1.390 . S
C353 C352 1.387 . S
H354 C366 0.930 . S
H355 C368 0.930 . S
H356 C369 0.930 . S
H357 C373 0.959 . S
H358 C373 0.959 . S
H359 C373 0.961 . S
H360 C374 0.960 . S
H361 C374 0.961 . S
H362 C374 0.959 . S
H363 C377 0.929 . S
H364 C378 0.931 . S
H365 C380 0.930 . S
C366 H354 0.930 . S
C366 C367 1.399 . S
C366 C371 1.399 . S
C367 C366 1.399 . S
C367 C368 1.376 . S
C368 H355 0.930 . S
C368 C367 1.376 . S
C368 C369 1.388 . S
C369 H356 0.930 . S
C369 C368 1.388 . S
C369 C370 1.390 . S
C370 C369 1.390 . S
C370 C371 1.394 . S
C370 C376 1.465 . S
C371 C366 1.399 . S
C371 C370 1.394 . S
C371 C372 1.516 . S
C372 C371 1.516 . S
C372 C373 1.502 . S
C372 C374 1.561 . S
C372 C375 1.526 . S
C373 H357 0.959 . S
C373 H358 0.959 . S
C373 H359 0.961 . S
C373 C372 1.502 . S
C374 H360 0.960 . S
C374 H361 0.961 . S
C374 H362 0.959 . S
C374 C372 1.561 . S
C375 C372 1.526 . S
C375 C376 1.396 . S
C375 C380 1.390 . S
C376 C370 1.465 . S
C376 C375 1.396 . S
C376 C377 1.399 . S
C377 H363 0.929 . S
C377 C376 1.399 . S
C377 C378 1.385 1_554 S
C378 H364 0.931 . S
C378 C377 1.385 1_556 S
C378 C379 1.389 . S
C379 C378 1.389 . S
C379 C380 1.387 1_556 S
C380 H365 0.930 . S
C380 C375 1.390 . S
C380 C379 1.387 1_554 S
H381 C393 0.930 . S
H382 C395 0.930 . S
H383 C396 0.930 . S
H384 C400 0.959 . S
H385 C400 0.959 . S
H386 C400 0.961 . S
H387 C401 0.960 . S
H388 C401 0.961 . S
H389 C401 0.959 . S
H390 C404 0.929 . S
H391 C405 0.931 . S
H392 C407 0.930 . S
C393 H381 0.930 . S
C393 C394 1.399 . S
C393 C398 1.399 . S
C394 C393 1.399 . S
C394 C395 1.376 . S
C395 H382 0.930 . S
C395 C394 1.376 . S
C395 C396 1.388 . S
C396 H383 0.930 . S
C396 C395 1.388 . S
C396 C397 1.390 . S
C397 C396 1.390 . S
C397 C398 1.394 . S
C397 C403 1.465 . S
C398 C393 1.399 . S
C398 C397 1.394 . S
C398 C399 1.516 . S
C399 C398 1.516 . S
C399 C400 1.502 . S
C399 C401 1.561 . S
C399 C402 1.526 . S
C400 H384 0.959 . S
C400 H385 0.959 . S
C400 H386 0.961 . S
C400 C399 1.502 . S
C401 H387 0.960 . S
C401 H388 0.961 . S
C401 H389 0.959 . S
C401 C399 1.561 . S
C402 C399 1.526 . S
C402 C403 1.396 . S
C402 C407 1.390 . S
C403 C397 1.465 . S
C403 C402 1.396 . S
C403 C404 1.399 . S
C404 H390 0.929 . S
C404 C403 1.399 . S
C404 C405 1.385 . S
C405 H391 0.931 . S
C405 C404 1.385 . S
C405 C406 1.389 . S
C406 C405 1.389 . S
C406 C407 1.387 . S
C407 H392 0.930 . S
C407 C402 1.390 . S
C407 C406 1.387 . S
H408 C420 0.930 . S
H409 C422 0.930 . S
H410 C423 0.930 . S
H411 C427 0.959 . S
H412 C427 0.959 . S
H413 C427 0.961 . S
H414 C428 0.960 . S
H415 C428 0.961 . S
H416 C428 0.959 . S
H417 C431 0.929 . S
H418 C432 0.931 . S
H419 C434 0.930 1_554 S
C420 H408 0.930 . S
C420 C421 1.399 . S
C420 C425 1.399 . S
C421 C420 1.399 . S
C421 C422 1.376 . S
C422 H409 0.930 . S
C422 C421 1.376 . S
C422 C423 1.388 . S
C423 H410 0.930 . S
C423 C422 1.388 . S
C423 C424 1.390 . S
C424 C423 1.390 . S
C424 C425 1.394 . S
C424 C430 1.465 . S
C425 C420 1.399 . S
C425 C424 1.394 . S
C425 C426 1.516 . S
C426 C425 1.516 . S
C426 C427 1.502 . S
C426 C428 1.561 . S
C426 C429 1.526 . S
C427 H411 0.959 . S
C427 H412 0.959 . S
C427 H413 0.961 . S
C427 C426 1.502 . S
C428 H414 0.960 . S
C428 H415 0.961 . S
C428 H416 0.959 . S
C428 C426 1.561 . S
C429 C426 1.526 . S
C429 C430 1.396 . S
C429 C434 1.390 . S
C430 C424 1.465 . S
C430 C429 1.396 . S
C430 C431 1.399 . S
C431 H417 0.929 . S
C431 C430 1.399 . S
C431 C432 1.385 1_556 S
C432 H418 0.931 . S
C432 C431 1.385 1_554 S
C432 C433 1.389 . S
C433 C432 1.389 . S
C433 C434 1.387 1_554 S
C434 H419 0.930 1_556 S
C434 C429 1.390 . S
C434 C433 1.387 1_556 S
H435 C447 0.930 . S
H436 C449 0.930 . S
H437 C450 0.930 . S
H438 C454 0.959 . S
H439 C454 0.959 . S
H440 C454 0.961 . S
H441 C455 0.960 . S
H442 C455 0.961 . S
H443 C455 0.959 . S
H444 C458 0.929 . S
H445 C459 0.931 . S
H446 C461 0.930 . S
C447 H435 0.930 . S
C447 C448 1.399 . S
C447 C452 1.399 . S
C448 C447 1.399 . S
C448 C449 1.376 . S
C449 H436 0.930 . S
C449 C448 1.376 . S
C449 C450 1.388 . S
C450 H437 0.930 . S
C450 C449 1.388 . S
C450 C451 1.390 . S
C451 C450 1.390 . S
C451 C452 1.394 . S
C451 C457 1.465 . S
C452 C447 1.399 . S
C452 C451 1.394 . S
C452 C453 1.516 . S
C453 C452 1.516 . S
C453 C454 1.502 . S
C453 C455 1.561 . S
C453 C456 1.526 . S
C454 H438 0.959 . S
C454 H439 0.959 . S
C454 H440 0.961 . S
C454 C453 1.502 . S
C455 H441 0.960 . S
C455 H442 0.961 . S
C455 H443 0.959 . S
C455 C453 1.561 . S
C456 C453 1.526 . S
C456 C457 1.396 . S
C456 C461 1.390 . S
C457 C451 1.465 . S
C457 C456 1.396 . S
C457 C458 1.399 . S
C458 H444 0.929 . S
C458 C457 1.399 . S
C458 C459 1.385 1_554 S
C459 H445 0.931 . S
C459 C458 1.385 1_556 S
C459 C460 1.389 . S
C460 C459 1.389 . S
C460 C461 1.387 1_556 S
C461 H446 0.930 . S
C461 C456 1.390 . S
C461 C460 1.387 1_554 S
H462 C474 0.930 . S
H463 C476 0.930 1_556 S
H464 C477 0.930 1_556 S
H465 C481 0.959 . S
H466 C481 0.959 . S
H467 C481 0.961 . S
H468 C482 0.960 . S
H469 C482 0.961 . S
H470 C482 0.959 . S
H471 C485 0.929 . S
H472 C486 0.931 . S
H473 C488 0.930 . S
C474 H462 0.930 . S
C474 C475 1.399 . S
C474 C479 1.399 . S
C475 C474 1.399 . S
C475 C476 1.376 . S
C476 H463 0.930 1_554 S
C476 C475 1.376 . S
C476 C477 1.388 . S
C477 H464 0.930 1_554 S
C477 C476 1.388 . S
C477 C478 1.390 . S
C478 C477 1.390 . S
C478 C479 1.394 . S
C478 C484 1.465 . S
C479 C474 1.399 . S
C479 C478 1.394 . S
C479 C480 1.516 . S
C480 C479 1.516 . S
C480 C481 1.502 . S
C480 C482 1.561 . S
C480 C483 1.526 . S
C481 H465 0.959 . S
C481 H466 0.959 . S
C481 H467 0.961 . S
C481 C480 1.502 . S
C482 H468 0.960 . S
C482 H469 0.961 . S
C482 H470 0.959 . S
C482 C480 1.561 . S
C483 C480 1.526 . S
C483 C484 1.396 . S
C483 C488 1.390 . S
C484 C478 1.465 . S
C484 C483 1.396 . S
C484 C485 1.399 . S
C485 H471 0.929 . S
C485 C484 1.399 . S
C485 C486 1.385 . S
C486 H472 0.931 . S
C486 C485 1.385 . S
C486 C487 1.389 . S
C487 C486 1.389 . S
C487 C488 1.387 . S
C488 H473 0.930 . S
C488 C483 1.390 . S
C488 C487 1.387 . S
H489 C501 0.930 . S
H490 C503 0.930 . S
H491 C504 0.930 . S
H492 C508 0.959 . S
H493 C508 0.959 . S
H494 C508 0.961 . S
H495 C509 0.960 . S
H496 C509 0.961 . S
H497 C509 0.959 . S
H498 C512 0.929 . S
H499 C513 0.931 . S
H500 C515 0.930 . S
C501 H489 0.930 . S
C501 C502 1.399 . S
C501 C506 1.399 . S
C502 C501 1.399 . S
C502 C503 1.376 . S
C503 H490 0.930 . S
C503 C502 1.376 . S
C503 C504 1.388 . S
C504 H491 0.930 . S
C504 C503 1.388 . S
C504 C505 1.390 . S
C505 C504 1.390 . S
C505 C506 1.394 . S
C505 C511 1.465 . S
C506 C501 1.399 . S
C506 C505 1.394 . S
C506 C507 1.516 . S
C507 C506 1.516 . S
C507 C508 1.502 . S
C507 C509 1.561 . S
C507 C510 1.526 . S
C508 H492 0.959 . S
C508 H493 0.959 . S
C508 H494 0.961 . S
C508 C507 1.502 . S
C509 H495 0.960 . S
C509 H496 0.961 . S
C509 H497 0.959 . S
C509 C507 1.561 . S
C510 C507 1.526 . S
C510 C511 1.396 . S
C510 C515 1.390 . S
C511 C505 1.465 . S
C511 C510 1.396 . S
C511 C512 1.399 . S
C512 H498 0.929 . S
C512 C511 1.399 . S
C512 C513 1.385 . S
C513 H499 0.931 . S
C513 C512 1.385 . S
C513 C514 1.389 . S
C514 C513 1.389 . S
C514 C515 1.387 . S
C515 H500 0.930 . S
C515 C510 1.390 . S
C515 C514 1.387 . S
H516 C528 0.930 . S
H517 C530 0.930 . S
H518 C531 0.930 . S
H519 C535 0.959 . S
H520 C535 0.959 . S
H521 C535 0.961 1_554 S
H522 C536 0.960 . S
H523 C536 0.961 . S
H524 C536 0.959 . S
H525 C539 0.929 . S
H526 C540 0.931 . S
H527 C542 0.930 . S
C528 H516 0.930 . S
C528 C529 1.399 . S
C528 C533 1.399 . S
C529 C528 1.399 . S
C529 C530 1.376 . S
C530 H517 0.930 . S
C530 C529 1.376 . S
C530 C531 1.388 . S
C531 H518 0.930 . S
C531 C530 1.388 . S
C531 C532 1.390 . S
C532 C531 1.390 . S
C532 C533 1.394 . S
C532 C538 1.465 . S
C533 C528 1.399 . S
C533 C532 1.394 . S
C533 C534 1.516 . S
C534 C533 1.516 . S
C534 C535 1.502 . S
C534 C536 1.561 . S
C534 C537 1.526 . S
C535 H519 0.959 . S
C535 H520 0.959 . S
C535 H521 0.961 1_556 S
C535 C534 1.502 . S
C536 H522 0.960 . S
C536 H523 0.961 . S
C536 H524 0.959 . S
C536 C534 1.561 . S
C537 C534 1.526 . S
C537 C538 1.396 . S
C537 C542 1.390 . S
C538 C532 1.465 . S
C538 C537 1.396 . S
C538 C539 1.399 . S
C539 H525 0.929 . S
C539 C538 1.399 . S
C539 C540 1.385 . S
C540 H526 0.931 . S
C540 C539 1.385 . S
C540 C541 1.389 . S
C541 C540 1.389 . S
C541 C542 1.387 . S
C542 H527 0.930 . S
C542 C537 1.390 . S
C542 C541 1.387 . S
H543 C555 0.930 . S
H544 C557 0.930 . S
H545 C558 0.930 . S
H546 C562 0.959 . S
H547 C562 0.952 1_556 S
H548 C562 0.961 . S
H549 C563 0.960 . S
H550 C563 0.961 . S
H551 C563 0.959 1_554 S
H552 C566 0.929 . S
H553 C567 0.931 . S
H554 C569 0.930 1_556 S
C555 H543 0.930 . S
C555 C556 1.399 . S
C555 C560 1.399 . S
C556 C555 1.399 . S
C556 C557 1.376 . S
C557 H544 0.930 . S
C557 C556 1.376 . S
C557 C558 1.388 . S
C558 H545 0.930 . S
C558 C557 1.388 . S
C558 C559 1.390 . S
C559 C558 1.390 . S
C559 C560 1.394 . S
C559 C565 1.465 . S
C560 C555 1.399 . S
C560 C559 1.394 . S
C560 C561 1.516 . S
C561 C560 1.516 . S
C561 C562 1.502 . S
C561 C563 1.561 1_554 S
C561 C564 1.526 . S
C562 H546 0.959 . S
C562 H547 0.952 1_554 S
C562 H548 0.961 . S
C562 C561 1.502 . S
C563 H549 0.960 . S
C563 H550 0.961 . S
C563 H551 0.959 1_556 S
C563 C561 1.561 1_556 S
C564 C561 1.526 . S
C564 C565 1.396 . S
C564 C569 1.390 . S
C565 C559 1.465 . S
C565 C564 1.396 . S
C565 C566 1.399 . S
C566 H552 0.929 . S
C566 C565 1.399 . S
C566 C567 1.385 . S
C567 H553 0.931 . S
C567 C566 1.385 . S
C567 C568 1.389 . S
C568 C567 1.389 . S
C568 C569 1.387 . S
C569 H554 0.930 1_554 S
C569 C564 1.390 . S
C569 C568 1.387 . S
H570 C582 0.930 . S
H571 C584 0.930 . S
H572 C585 0.930 . S
H573 C589 0.959 . S
H574 C589 0.959 . S
H575 C589 0.961 . S
H576 C590 0.960 . S
H577 C590 0.961 . S
H578 C590 0.959 . S
H579 C593 0.929 . S
H580 C594 0.931 . S
H581 C596 0.930 . S
C582 H570 0.930 . S
C582 C583 1.399 . S
C582 C587 1.399 . S
C583 C582 1.399 . S
C583 C584 1.376 . S
C584 H571 0.930 . S
C584 C583 1.376 . S
C584 C585 1.388 . S
C585 H572 0.930 . S
C585 C584 1.388 . S
C585 C586 1.390 . S
C586 C585 1.390 . S
C586 C587 1.394 . S
C586 C592 1.465 . S
C587 C582 1.399 . S
C587 C586 1.394 . S
C587 C588 1.516 . S
C588 C587 1.516 . S
C588 C589 1.502 . S
C588 C590 1.561 . S
C588 C591 1.526 . S
C589 H573 0.959 . S
C589 H574 0.959 . S
C589 H575 0.961 . S
C589 C588 1.502 . S
C590 H576 0.960 . S
C590 H577 0.961 . S
C590 H578 0.959 . S
C590 C588 1.561 . S
C591 C588 1.526 . S
C591 C592 1.396 . S
C591 C596 1.390 . S
C592 C586 1.465 . S
C592 C591 1.396 . S
C592 C593 1.399 . S
C593 H579 0.929 . S
C593 C592 1.399 . S
C593 C594 1.385 . S
C594 H580 0.931 . S
C594 C593 1.385 . S
C594 C595 1.389 . S
C595 C594 1.389 . S
C595 C596 1.387 . S
C596 H581 0.930 . S
C596 C591 1.390 . S
C596 C595 1.387 . S
H597 C609 0.930 . S
H598 C611 0.930 1_554 S
H599 C612 0.930 . S
H600 C616 0.959 . S
H601 C616 0.959 . S
H602 C616 0.961 . S
H603 C617 0.960 . S
H604 C617 0.961 . S
H605 C617 0.959 . S
H606 C620 0.929 . S
H607 C621 0.931 . S
H608 C623 0.930 . S
C609 H597 0.930 . S
C609 C610 1.399 . S
C609 C614 1.399 . S
C610 C609 1.399 . S
C610 C611 1.376 . S
C611 H598 0.930 1_556 S
C611 C610 1.376 . S
C611 C612 1.388 . S
C612 H599 0.930 . S
C612 C611 1.388 . S
C612 C613 1.390 . S
C613 C612 1.390 . S
C613 C614 1.394 . S
C613 C619 1.465 . S
C614 C609 1.399 . S
C614 C613 1.394 . S
C614 C615 1.516 . S
C615 C614 1.516 . S
C615 C616 1.502 . S
C615 C617 1.561 . S
C615 C618 1.526 . S
C616 H600 0.959 . S
C616 H601 0.959 . S
C616 H602 0.961 . S
C616 C615 1.502 . S
C617 H603 0.960 . S
C617 H604 0.961 . S
C617 H605 0.959 . S
C617 C615 1.561 . S
C618 C615 1.526 . S
C618 C619 1.396 . S
C618 C623 1.390 . S
C619 C613 1.465 . S
C619 C618 1.396 . S
C619 C620 1.399 . S
C620 H606 0.929 . S
C620 C619 1.399 . S
C620 C621 1.385 . S
C621 H607 0.931 . S
C621 C620 1.385 . S
C621 C622 1.389 . S
C622 C621 1.389 . S
C622 C623 1.387 . S
C623 H608 0.930 . S
C623 C618 1.390 . S
C623 C622 1.387 . S
C151 C131 1.490 . S
C163 C20 1.438 . S
C178 C16 1.437 . S
C190 C43 1.480 . S
C205 C39 1.450 . S
C217 C66 1.486 . S
C232 C62 1.485 . S
C244 C89 1.457 . S
C259 C112 1.452 . S
C271 C85 1.443 . S
C286 C135 1.428 . S
C298 C108 1.487 . S
C313 C21 0.702 . S
C325 C18 0.726 . S
C340 C44 0.815 . S
C352 C41 0.733 . S
C367 C67 0.833 . S
C379 C64 0.732 . S
C394 C90 0.701 . S
C406 C87 0.726 . S
C421 C110 0.720 . S
C433 C113 0.640 . S
C448 C136 0.819 . S
C460 C133 0.729 . S
C475 C19 1.599 . S
C487 C109 1.592 . S
C502 C42 1.545 . S
C514 C132 1.614 . S
C529 C17 1.591 . S
C541 C65 1.598 . S
C556 C40 1.610 . S
C568 C88 1.552 . S
C583 C111 1.605 . S
C595 C63 1.594 . S
C610 C86 1.625 . S
C622 C134 1.544 . S
