# Generated by pormake.
# Topology uke, (4)-cn, num edge types: 1
# Building blocks:
#     Node 0, Type 0, BuildingBlock: GALJAG_clean_sbu_0, # of connection points: 4
#     Node 1, Type 0, BuildingBlock: GALJAG_clean_sbu_0, # of connection points: 4
#     Node 2, Type 0, BuildingBlock: GALJAG_clean_sbu_0, # of connection points: 4
#     Node 3, Type 0, BuildingBlock: GALJAG_clean_sbu_0, # of connection points: 4
#     Node 4, Type 0, BuildingBlock: GALJAG_clean_sbu_0, # of connection points: 4
#     Node 5, Type 0, BuildingBlock: GALJAG_clean_sbu_0, # of connection points: 4
#     Node 6, Type 0, BuildingBlock: GALJAG_clean_sbu_0, # of connection points: 4
#     Node 7, Type 0, BuildingBlock: GALJAG_clean_sbu_0, # of connection points: 4
#     Node 8, Type 0, BuildingBlock: GALJAG_clean_sbu_0, # of connection points: 4
#     Node 9, Type 0, BuildingBlock: GALJAG_clean_sbu_0, # of connection points: 4
#     Node 10, Type 0, BuildingBlock: GALJAG_clean_sbu_0, # of connection points: 4
#     Node 11, Type 0, BuildingBlock: GALJAG_clean_sbu_0, # of connection points: 4
#     Node 12, Type 0, BuildingBlock: GALJAG_clean_sbu_0, # of connection points: 4
#     Node 13, Type 0, BuildingBlock: GALJAG_clean_sbu_0, # of connection points: 4
#     Node 14, Type 0, BuildingBlock: GALJAG_clean_sbu_0, # of connection points: 4
#     Node 15, Type 0, BuildingBlock: GALJAG_clean_sbu_0, # of connection points: 4
#     Node 16, Type 0, BuildingBlock: GALJAG_clean_sbu_0, # of connection points: 4
#     Node 17, Type 0, BuildingBlock: GALJAG_clean_sbu_0, # of connection points: 4
#     Node 18, Type 0, BuildingBlock: GALJAG_clean_sbu_0, # of connection points: 4
#     Node 19, Type 0, BuildingBlock: GALJAG_clean_sbu_0, # of connection points: 4
#     Node 20, Type 0, BuildingBlock: GALJAG_clean_sbu_0, # of connection points: 4
#     Node 21, Type 0, BuildingBlock: GALJAG_clean_sbu_0, # of connection points: 4
#     Node 22, Type 0, BuildingBlock: GALJAG_clean_sbu_0, # of connection points: 4
#     Node 23, Type 0, BuildingBlock: GALJAG_clean_sbu_0, # of connection points: 4
#     Node 24, Type 0, BuildingBlock: GALJAG_clean_sbu_0, # of connection points: 4
#     Node 25, Type 0, BuildingBlock: GALJAG_clean_sbu_0, # of connection points: 4
#     Node 26, Type 0, BuildingBlock: GALJAG_clean_sbu_0, # of connection points: 4
#     Node 27, Type 0, BuildingBlock: GALJAG_clean_sbu_0, # of connection points: 4
#     Node 28, Type 0, BuildingBlock: GALJAG_clean_sbu_0, # of connection points: 4
#     Node 29, Type 0, BuildingBlock: GALJAG_clean_sbu_0, # of connection points: 4
#     Node 30, Type 0, BuildingBlock: GALJAG_clean_sbu_0, # of connection points: 4
#     Node 31, Type 0, BuildingBlock: GALJAG_clean_sbu_0, # of connection points: 4
#     Edge 32, Type (0, 0), BuildingBlock: XUDNAN_clean_linker_2, # of connection points: 2
#     Edge 33, Type (0, 0), BuildingBlock: XUDNAN_clean_linker_2, # of connection points: 2
#     Edge 34, Type (0, 0), BuildingBlock: XUDNAN_clean_linker_2, # of connection points: 2
#     Edge 35, Type (0, 0), BuildingBlock: XUDNAN_clean_linker_2, # of connection points: 2
#     Edge 36, Type (0, 0), BuildingBlock: XUDNAN_clean_linker_2, # of connection points: 2
#     Edge 37, Type (0, 0), BuildingBlock: XUDNAN_clean_linker_2, # of connection points: 2
#     Edge 38, Type (0, 0), BuildingBlock: XUDNAN_clean_linker_2, # of connection points: 2
#     Edge 39, Type (0, 0), BuildingBlock: XUDNAN_clean_linker_2, # of connection points: 2
#     Edge 40, Type (0, 0), BuildingBlock: XUDNAN_clean_linker_2, # of connection points: 2
#     Edge 41, Type (0, 0), BuildingBlock: XUDNAN_clean_linker_2, # of connection points: 2
#     Edge 42, Type (0, 0), BuildingBlock: XUDNAN_clean_linker_2, # of connection points: 2
#     Edge 43, Type (0, 0), BuildingBlock: XUDNAN_clean_linker_2, # of connection points: 2
#     Edge 44, Type (0, 0), BuildingBlock: XUDNAN_clean_linker_2, # of connection points: 2
#     Edge 45, Type (0, 0), BuildingBlock: XUDNAN_clean_linker_2, # of connection points: 2
#     Edge 46, Type (0, 0), BuildingBlock: XUDNAN_clean_linker_2, # of connection points: 2
#     Edge 47, Type (0, 0), BuildingBlock: XUDNAN_clean_linker_2, # of connection points: 2
#     Edge 48, Type (0, 0), BuildingBlock: XUDNAN_clean_linker_2, # of connection points: 2
#     Edge 49, Type (0, 0), BuildingBlock: XUDNAN_clean_linker_2, # of connection points: 2
#     Edge 50, Type (0, 0), BuildingBlock: XUDNAN_clean_linker_2, # of connection points: 2
#     Edge 51, Type (0, 0), BuildingBlock: XUDNAN_clean_linker_2, # of connection points: 2
#     Edge 52, Type (0, 0), BuildingBlock: XUDNAN_clean_linker_2, # of connection points: 2
#     Edge 53, Type (0, 0), BuildingBlock: XUDNAN_clean_linker_2, # of connection points: 2
#     Edge 54, Type (0, 0), BuildingBlock: XUDNAN_clean_linker_2, # of connection points: 2
#     Edge 55, Type (0, 0), BuildingBlock: XUDNAN_clean_linker_2, # of connection points: 2
#     Edge 56, Type (0, 0), BuildingBlock: XUDNAN_clean_linker_2, # of connection points: 2
#     Edge 57, Type (0, 0), BuildingBlock: XUDNAN_clean_linker_2, # of connection points: 2
#     Edge 58, Type (0, 0), BuildingBlock: XUDNAN_clean_linker_2, # of connection points: 2
#     Edge 59, Type (0, 0), BuildingBlock: XUDNAN_clean_linker_2, # of connection points: 2
#     Edge 60, Type (0, 0), BuildingBlock: XUDNAN_clean_linker_2, # of connection points: 2
#     Edge 61, Type (0, 0), BuildingBlock: XUDNAN_clean_linker_2, # of connection points: 2
#     Edge 62, Type (0, 0), BuildingBlock: XUDNAN_clean_linker_2, # of connection points: 2
#     Edge 63, Type (0, 0), BuildingBlock: XUDNAN_clean_linker_2, # of connection points: 2
#     Edge 64, Type (0, 0), BuildingBlock: XUDNAN_clean_linker_2, # of connection points: 2
#     Edge 65, Type (0, 0), BuildingBlock: XUDNAN_clean_linker_2, # of connection points: 2
#     Edge 66, Type (0, 0), BuildingBlock: XUDNAN_clean_linker_2, # of connection points: 2
#     Edge 67, Type (0, 0), BuildingBlock: XUDNAN_clean_linker_2, # of connection points: 2
#     Edge 68, Type (0, 0), BuildingBlock: XUDNAN_clean_linker_2, # of connection points: 2
#     Edge 69, Type (0, 0), BuildingBlock: XUDNAN_clean_linker_2, # of connection points: 2
#     Edge 70, Type (0, 0), BuildingBlock: XUDNAN_clean_linker_2, # of connection points: 2
#     Edge 71, Type (0, 0), BuildingBlock: XUDNAN_clean_linker_2, # of connection points: 2
#     Edge 72, Type (0, 0), BuildingBlock: XUDNAN_clean_linker_2, # of connection points: 2
#     Edge 73, Type (0, 0), BuildingBlock: XUDNAN_clean_linker_2, # of connection points: 2
#     Edge 74, Type (0, 0), BuildingBlock: XUDNAN_clean_linker_2, # of connection points: 2
#     Edge 75, Type (0, 0), BuildingBlock: XUDNAN_clean_linker_2, # of connection points: 2
#     Edge 76, Type (0, 0), BuildingBlock: XUDNAN_clean_linker_2, # of connection points: 2
#     Edge 77, Type (0, 0), BuildingBlock: XUDNAN_clean_linker_2, # of connection points: 2
#     Edge 78, Type (0, 0), BuildingBlock: XUDNAN_clean_linker_2, # of connection points: 2
#     Edge 79, Type (0, 0), BuildingBlock: XUDNAN_clean_linker_2, # of connection points: 2
#     Edge 80, Type (0, 0), BuildingBlock: XUDNAN_clean_linker_2, # of connection points: 2
#     Edge 81, Type (0, 0), BuildingBlock: XUDNAN_clean_linker_2, # of connection points: 2
#     Edge 82, Type (0, 0), BuildingBlock: XUDNAN_clean_linker_2, # of connection points: 2
#     Edge 83, Type (0, 0), BuildingBlock: XUDNAN_clean_linker_2, # of connection points: 2
#     Edge 84, Type (0, 0), BuildingBlock: XUDNAN_clean_linker_2, # of connection points: 2
#     Edge 85, Type (0, 0), BuildingBlock: XUDNAN_clean_linker_2, # of connection points: 2
#     Edge 86, Type (0, 0), BuildingBlock: XUDNAN_clean_linker_2, # of connection points: 2
#     Edge 87, Type (0, 0), BuildingBlock: XUDNAN_clean_linker_2, # of connection points: 2
#     Edge 88, Type (0, 0), BuildingBlock: XUDNAN_clean_linker_2, # of connection points: 2
#     Edge 89, Type (0, 0), BuildingBlock: XUDNAN_clean_linker_2, # of connection points: 2
#     Edge 90, Type (0, 0), BuildingBlock: XUDNAN_clean_linker_2, # of connection points: 2
#     Edge 91, Type (0, 0), BuildingBlock: XUDNAN_clean_linker_2, # of connection points: 2
#     Edge 92, Type (0, 0), BuildingBlock: XUDNAN_clean_linker_2, # of connection points: 2
#     Edge 93, Type (0, 0), BuildingBlock: XUDNAN_clean_linker_2, # of connection points: 2
#     Edge 94, Type (0, 0), BuildingBlock: XUDNAN_clean_linker_2, # of connection points: 2
#     Edge 95, Type (0, 0), BuildingBlock: XUDNAN_clean_linker_2, # of connection points: 2
# Relax obj value: 0.063
# Max RMSD: 0.130
# Mean RMSD: 0.130
data_MOF--net-uke--node1-GALJAG_clean_sbu_0--edge1-XUDNAN_clean_linker_2
_symmetry_space_group_name_H-M    P1
_symmetry_Int_Tables_number       1
_symmetry_cell_setting            triclinic
loop_
_symmetry_equiv_pos_as_xyz
'x, y, z'
_cell_length_a     21.273304
_cell_length_b     112.24237
_cell_length_c     52.596186
_cell_angle_alpha  90.007451
_cell_angle_beta   90.039474
_cell_angle_gamma 89.979809
loop_
_atom_site_label
_atom_site_type_symbol
_atom_site_fract_x
_atom_site_fract_y
_atom_site_fract_z
_atom_type_partial_charge
In0 In 0.048 0.05738 0.25464 0.0
O1 O 0.94128 0.05631 0.25943 0.0
O2 O 0.00123 0.05345 0.29168 0.0
C3 C 0.08636 0.0605 0.2067 0.0
C4 C 0.06752 0.07952 0.27187 0.0
C5 C 0.08846 0.03488 0.25881 0.0
O6 O 0.02854 0.05918 0.212 0.0
O7 O 0.12315 0.06044 0.22554 0.0
O8 O 0.11729 0.04343 0.26952 0.0
O9 O 0.03992 0.03779 0.24639 0.0
C10 C 0.94576 0.05413 0.28307 0.0
O11 O 0.1074 0.07131 0.27589 0.0
O12 O 0.01969 0.07651 0.2592 0.0
In13 In 0.18627 0.18678 0.26644 0.0
O14 O 0.28756 0.19179 0.27623 0.0
O15 O 0.22289 0.18981 0.30669 0.0
C16 C 0.19327 0.18365 0.21572 0.0
C17 C 0.1531 0.16441 0.27992 0.0
C18 C 0.11506 0.2067 0.26694 0.0
O19 O 0.24169 0.18497 0.22938 0.0
O20 O 0.14197 0.1838 0.2277 0.0
O21 O 0.09697 0.19698 0.27657 0.0
O22 O 0.16976 0.20646 0.25772 0.0
C23 C 0.27845 0.1921 0.29994 0.0
O24 O 0.1177 0.1733 0.2834 0.0
O25 O 0.20545 0.16683 0.26994 0.0
In26 In 0.09238 0.18925 0.9834 0.0
O27 O 0.15777 0.17673 0.96129 0.0
O28 O 0.07547 0.16968 0.97936 0.0
C29 C 0.12072 0.21247 0.98602 0.0
C30 C 0.99288 0.19149 0.95283 0.0
C31 C 0.12587 0.18483 0.0315 0.0
O32 O 0.15649 0.20521 0.97435 0.0
O33 O 0.0716 0.20795 0.99542 0.0
O34 O 0.06843 0.18555 0.02504 0.0
O35 O 0.165 0.18623 0.01368 0.0
C36 C 0.12397 0.16766 0.96616 0.0
O37 O 0.98714 0.18969 0.97657 0.0
O38 O 0.04883 0.19224 0.94477 0.0
In39 In 0.1595 0.05805 0.97294 0.0
O40 O 0.25047 0.04931 0.9597 0.0
O41 O 0.17984 0.0533 0.93209 0.0
C42 C 0.16863 0.0605 0.02353 0.0
C43 C 0.16302 0.08126 0.95986 0.0
C44 C 0.07351 0.04051 0.97301 0.0
O45 O 0.21476 0.05704 0.01023 0.0
O46 O 0.11933 0.06285 0.01121 0.0
O47 O 0.06107 0.05081 0.96443 0.0
O48 O 0.12901 0.03916 0.98098 0.0
C49 C 0.23376 0.04907 0.93659 0.0
O50 O 0.11202 0.07544 0.96021 0.0
O51 O 0.21122 0.07536 0.96588 0.0
In52 In 0.88946 0.94016 0.72296 0.0
O53 O 0.83613 0.9254 0.70214 0.0
O54 O 0.91667 0.92064 0.72403 0.0
C55 C 0.82937 0.96064 0.71218 0.0
C56 C 0.99792 0.9442 0.69814 0.0
C57 C 0.85199 0.93838 0.77168 0.0
O58 O 0.81483 0.95087 0.70168 0.0
O59 O 0.87457 0.96004 0.72769 0.0
O60 O 0.90889 0.9404 0.76596 0.0
O61 O 0.81548 0.9372 0.75295 0.0
C62 C 0.87215 0.91719 0.70996 0.0
O63 O 0.99552 0.94381 0.7222 0.0
O64 O 0.94596 0.94265 0.68704 0.0
In65 In 0.83872 0.80781 0.73312 0.0
O66 O 0.74298 0.79995 0.72358 0.0
O67 O 0.80928 0.80222 0.69352 0.0
C68 C 0.8277 0.81163 0.78344 0.0
C69 C 0.84296 0.83056 0.71651 0.0
C70 C 0.92181 0.78973 0.73174 0.0
O71 O 0.78185 0.80829 0.76993 0.0
O72 O 0.87852 0.81307 0.77153 0.0
O73 O 0.93365 0.79978 0.72191 0.0
O74 O 0.86843 0.78889 0.74199 0.0
C75 C 0.75479 0.79896 0.70009 0.0
O76 O 0.79259 0.82502 0.72069 0.0
O77 O 0.89253 0.82464 0.72061 0.0
In78 In 0.91531 0.81655 0.0168 0.0
O79 O 0.0213 0.81609 0.02304 0.0
O80 O 0.96037 0.81473 0.05532 0.0
C81 C 0.88401 0.81848 0.9677 0.0
C82 C 0.88137 0.83863 0.0305 0.0
C83 C 0.88089 0.79361 0.01998 0.0
O84 O 0.94115 0.81823 0.97469 0.0
O85 O 0.84423 0.81795 0.98547 0.0
O86 O 0.84666 0.80183 0.02919 0.0
O87 O 0.93167 0.79707 0.01001 0.0
C88 C 0.01612 0.81498 0.04697 0.0
O89 O 0.8502 0.82956 0.03752 0.0
O90 O 0.92903 0.83642 0.01696 0.0
In91 In 0.77456 0.94596 0.00516 0.0
O92 O 0.67664 0.9501 0.02007 0.0
O93 O 0.75394 0.95057 0.04615 0.0
C94 C 0.76945 0.94131 0.95514 0.0
C95 C 0.79664 0.92375 0.02183 0.0
C96 C 0.8269 0.9676 0.00043 0.0
O97 O 0.72025 0.9433 0.96806 0.0
O98 O 0.82015 0.94143 0.96764 0.0
O99 O 0.85786 0.95889 0.00952 0.0
O100 O 0.77076 0.96527 0.99446 0.0
C101 C 0.69534 0.9517 0.04274 0.0
O102 O 0.84087 0.93131 0.0201 0.0
O103 O 0.74323 0.92744 0.01497 0.0
In104 In 0.09932 0.56268 0.75391 0.0
O105 O 0.16871 0.57635 0.76995 0.0
O106 O 0.08025 0.5826 0.75675 0.0
C107 C 0.16758 0.54246 0.75615 0.0
C108 C 0.01007 0.55773 0.78868 0.0
C109 C 0.08648 0.56525 0.70322 0.0
O110 O 0.18998 0.55251 0.76215 0.0
O111 O 0.11077 0.54263 0.74925 0.0
O112 O 0.04008 0.56524 0.71819 0.0
O113 O 0.1392 0.56389 0.7138 0.0
C114 C 0.13271 0.58516 0.76645 0.0
O115 O -0.00058 0.55747 0.76507 0.0
O116 O 0.06565 0.56047 0.79468 0.0
In117 In 0.21467 0.69422 0.7593 0.0
O118 O 0.30331 0.69834 0.78213 0.0
O119 O 0.21352 0.69901 0.8007 0.0
C120 C 0.22603 0.69081 0.70929 0.0
C121 C 0.2006 0.67125 0.77138 0.0
C122 C 0.16198 0.71556 0.75254 0.0
O123 O 0.27338 0.69347 0.72295 0.0
O124 O 0.17473 0.68961 0.72116 0.0
O125 O 0.12984 0.70677 0.76064 0.0
O126 O 0.21954 0.71343 0.74851 0.0
C127 C 0.27258 0.70015 0.80251 0.0
O128 O 0.15326 0.67814 0.7697 0.0
O129 O 0.25329 0.67604 0.76701 0.0
In130 In 0.09805 0.69493 0.47847 0.0
O131 O 0.15161 0.68308 0.45022 0.0
O132 O 0.10125 0.67499 0.48096 0.0
C133 C 0.12716 0.71809 0.47518 0.0
C134 C 0.98947 0.69492 0.45267 0.0
C135 C 0.14052 0.69269 0.52618 0.0
O136 O 0.1626 0.71012 0.4658 0.0
O137 O 0.07726 0.7143 0.48534 0.0
O138 O 0.08212 0.69236 0.52111 0.0
O139 O 0.17628 0.69408 0.50721 0.0
C140 C 0.13476 0.67359 0.46141 0.0
O141 O 0.9906 0.69385 0.4767 0.0
O142 O 0.04256 0.6961 0.44224 0.0
In143 In 0.12339 0.5646 0.46712 0.0
O144 O 0.21861 0.55776 0.45269 0.0
O145 O 0.13996 0.55854 0.42726 0.0
C146 C 0.11209 0.5683 0.51704 0.0
C147 C 0.12845 0.58752 0.45332 0.0
C148 C 0.04591 0.54594 0.46974 0.0
O149 O 0.16231 0.56393 0.50777 0.0
O150 O 0.06995 0.57091 0.50102 0.0
O151 O 0.02769 0.5559 0.46091 0.0
O152 O 0.10289 0.5455 0.47659 0.0
C153 C 0.19716 0.55591 0.43047 0.0
O154 O 0.08324 0.58087 0.44648 0.0
O155 O 0.17026 0.58254 0.46672 0.0
In156 In 0.89619 0.43403 0.22408 0.0
O157 O 0.84685 0.41953 0.20094 0.0
O158 O 0.92885 0.41486 0.22209 0.0
C159 C 0.82763 0.45411 0.22082 0.0
C160 C 0.99696 0.4401 0.1964 0.0
C161 C 0.87118 0.43058 0.2735 0.0
O162 O 0.81019 0.44449 0.21036 0.0
O163 O 0.88003 0.45359 0.232 0.0
O164 O 0.92463 0.43415 0.26607 0.0
O165 O 0.83219 0.42846 0.25598 0.0
C166 C 0.88553 0.41147 0.20733 0.0
O167 O 0.00046 0.43849 0.2202 0.0
O168 O 0.94282 0.43878 0.18696 0.0
In169 In 0.85235 0.30462 0.22871 0.0
O170 O 0.91001 0.31791 0.205 0.0
O171 O 0.81839 0.32285 0.21846 0.0
C172 C 0.89657 0.28245 0.23463 0.0
C173 C 0.75297 0.29865 0.20064 0.0
C174 C 0.88223 0.31195 0.2755 0.0
O175 O 0.92521 0.2899 0.22056 0.0
O176 O 0.84681 0.28627 0.24484 0.0
O177 O 0.82595 0.30948 0.26947 0.0
O178 O 0.92202 0.31088 0.25783 0.0
C179 C 0.86696 0.32576 0.20616 0.0
O180 O 0.74778 0.30148 0.22392 0.0
O181 O 0.80845 0.29866 0.19188 0.0
In182 In 0.93744 0.31711 0.50976 0.0
O183 O 0.0379 0.31175 0.52031 0.0
O184 O 0.96969 0.31325 0.54975 0.0
C185 C 0.94429 0.31848 0.45903 0.0
C186 C 0.921 0.34023 0.52192 0.0
C187 C 0.86152 0.29798 0.51128 0.0
O188 O 0.99257 0.31696 0.47274 0.0
O189 O 0.893 0.31934 0.47099 0.0
O190 O 0.84142 0.30836 0.51607 0.0
O191 O 0.91933 0.29737 0.50613 0.0
C192 C 0.0257 0.31089 0.54376 0.0
O193 O 0.88777 0.33213 0.5318 0.0
O194 O 0.96109 0.33666 0.50606 0.0
In195 In 0.80643 0.44618 0.50595 0.0
O196 O 0.70248 0.44531 0.51664 0.0
O197 O 0.77006 0.44712 0.54629 0.0
C198 C 0.80112 0.44222 0.4558 0.0
C199 C 0.86312 0.42577 0.51976 0.0
C200 C 0.84233 0.46916 0.50366 0.0
O201 O 0.75295 0.44147 0.46987 0.0
O202 O 0.85133 0.44512 0.46708 0.0
O203 O 0.88095 0.46092 0.50893 0.0
O204 O 0.78646 0.46576 0.50039 0.0
C205 C 0.71291 0.44617 0.54025 0.0
O206 O 0.87703 0.43554 0.53038 0.0
O207 O 0.82247 0.42645 0.50245 0.0
In208 In 0.53585 0.05495 0.74273 0.0
O209 O 0.44731 0.04862 0.76294 0.0
O210 O 0.53631 0.04573 0.78081 0.0
C211 C 0.5024 0.0633 0.69693 0.0
C212 C 0.55418 0.07616 0.76519 0.0
C213 C 0.60293 0.03612 0.72668 0.0
O214 O 0.46473 0.05718 0.71027 0.0
O215 O 0.55535 0.06522 0.707 0.0
O216 O 0.62767 0.04415 0.7404 0.0
O217 O 0.5457 0.03772 0.72138 0.0
C218 C 0.47722 0.04476 0.7821 0.0
O219 O 0.59996 0.07025 0.75621 0.0
O220 O 0.50106 0.07129 0.76288 0.0
In221 In 0.60698 0.18539 0.77504 0.0
O222 O 0.70463 0.18903 0.79237 0.0
O223 O 0.62385 0.18827 0.8165 0.0
C224 C 0.5998 0.18419 0.7243 0.0
C225 C 0.59071 0.16208 0.78402 0.0
C226 C 0.54019 0.20559 0.77714 0.0
O227 O 0.65111 0.18695 0.73525 0.0
O228 O 0.55451 0.18192 0.73902 0.0
O229 O 0.51734 0.19563 0.78384 0.0
O230 O 0.59683 0.20529 0.76987 0.0
C231 C 0.68254 0.1897 0.81478 0.0
O232 O 0.54924 0.16976 0.78965 0.0
O233 O 0.64011 0.16622 0.77399 0.0
In234 In 0.62968 0.19644 0.48919 0.0
O235 O 0.71447 0.18392 0.48328 0.0
O236 O 0.62135 0.17694 0.48073 0.0
C237 C 0.66585 0.21922 0.49357 0.0
C238 C 0.56436 0.19873 0.44576 0.0
C239 C 0.60318 0.19259 0.53842 0.0
O240 O 0.70442 0.2111 0.48738 0.0
O241 O 0.61009 0.21577 0.49716 0.0
O242 O 0.56047 0.19298 0.52162 0.0
O243 O 0.65832 0.19413 0.53024 0.0
C244 C 0.67959 0.17491 0.47972 0.0
O245 O 0.53751 0.19678 0.46687 0.0
O246 O 0.62356 0.19964 0.44684 0.0
In247 In 0.6545 0.06622 0.48072 0.0
O248 O 0.72439 0.06049 0.45186 0.0
O249 O 0.62998 0.06414 0.4389 0.0
C250 C 0.58364 0.0717 0.52025 0.0
C251 C 0.69423 0.08852 0.47664 0.0
C252 C 0.64943 0.04358 0.49482 0.0
O253 O 0.64317 0.07095 0.52142 0.0
O254 O 0.55897 0.06984 0.49849 0.0
O255 O 0.60549 0.04882 0.48288 0.0
O256 O 0.69832 0.04982 0.49935 0.0
C257 C 0.68593 0.06097 0.4334 0.0
O258 O 0.6417 0.08496 0.46797 0.0
O259 O 0.72811 0.0806 0.48741 0.0
In260 In 0.41676 0.94401 0.24784 0.0
O261 O 0.49875 0.95042 0.22303 0.0
O262 O 0.40815 0.94822 0.20615 0.0
C263 C 0.44737 0.94534 0.29728 0.0
C264 C 0.42705 0.92055 0.23893 0.0
C265 C 0.32417 0.96013 0.25171 0.0
O266 O 0.47502 0.95159 0.28065 0.0
O267 O 0.40721 0.93809 0.28875 0.0
O268 O 0.31242 0.94931 0.24648 0.0
O269 O 0.3816 0.96257 0.25461 0.0
C270 C 0.46517 0.95099 0.20312 0.0
O271 O 0.37384 0.92556 0.24125 0.0
O272 O 0.47391 0.92737 0.24148 0.0
In273 In 0.3811 0.81071 0.23117 0.0
O274 O 0.44705 0.82538 0.21841 0.0
O275 O 0.35521 0.82997 0.23299 0.0
C276 C 0.39244 0.78733 0.23652 0.0
C277 C 0.31595 0.80958 0.18837 0.0
C278 C 0.411 0.81303 0.27958 0.0
O279 O 0.43676 0.7936 0.2271 0.0
O280 O 0.34241 0.79293 0.24218 0.0
O281 O 0.35374 0.81344 0.27228 0.0
O282 O 0.45188 0.81157 0.26225 0.0
C283 C 0.40756 0.83352 0.22416 0.0
O284 O 0.28891 0.81086 0.20984 0.0
O285 O 0.37554 0.80867 0.18893 0.0
In286 In 0.4222 0.81131 0.51431 0.0
O287 O 0.50708 0.80296 0.53367 0.0
O288 O 0.42219 0.80497 0.55504 0.0
C289 C 0.44767 0.81425 0.46492 0.0
C290 C 0.43023 0.83413 0.52934 0.0
C291 C 0.3374 0.79405 0.50677 0.0
O292 O 0.4871 0.80957 0.47998 0.0
O293 O 0.39694 0.81765 0.47504 0.0
O294 O 0.32129 0.80415 0.51553 0.0
O295 O 0.39543 0.79282 0.50246 0.0
C296 C 0.47889 0.80159 0.55469 0.0
O297 O 0.37729 0.82913 0.52624 0.0
O298 O 0.47728 0.82763 0.52489 0.0
In299 In 0.41699 0.94453 0.53303 0.0
O300 O 0.31838 0.94658 0.54991 0.0
O301 O 0.3971 0.9472 0.57496 0.0
C302 C 0.40338 0.94571 0.48222 0.0
C303 C 0.43571 0.92113 0.53984 0.0
C304 C 0.49058 0.96399 0.53519 0.0
O305 O 0.36543 0.95081 0.4972 0.0
O306 O 0.44611 0.93972 0.49283 0.0
O307 O 0.51317 0.9537 0.53918 0.0
O308 O 0.43217 0.96423 0.53122 0.0
C309 C 0.33809 0.94757 0.57253 0.0
O310 O 0.47845 0.92872 0.54438 0.0
O311 O 0.38442 0.92541 0.53187 0.0
In312 In 0.58359 0.55348 0.25893 0.0
O313 O 0.48307 0.54892 0.26819 0.0
O314 O 0.55187 0.54872 0.29837 0.0
C315 C 0.62286 0.55944 0.21279 0.0
C316 C 0.57963 0.5757 0.27601 0.0
C317 C 0.62243 0.53117 0.25263 0.0
O318 O 0.56504 0.55748 0.21744 0.0
O319 O 0.65979 0.55867 0.23167 0.0
O320 O 0.65428 0.53847 0.2661 0.0
O321 O 0.57184 0.53523 0.24331 0.0
C322 C 0.49482 0.54744 0.29173 0.0
O323 O 0.62691 0.56907 0.28085 0.0
O324 O 0.53693 0.57113 0.26234 0.0
In325 In 0.58742 0.68523 0.28169 0.0
O326 O 0.68402 0.68874 0.29925 0.0
O327 O 0.60301 0.68819 0.32342 0.0
C328 C 0.58085 0.68323 0.23112 0.0
C329 C 0.57151 0.66202 0.29139 0.0
C330 C 0.5284 0.70628 0.28042 0.0
O331 O 0.63254 0.68578 0.24203 0.0
O332 O 0.53492 0.68144 0.24586 0.0
O333 O 0.50093 0.69692 0.28829 0.0
O334 O 0.58543 0.70494 0.27426 0.0
C335 C 0.66193 0.68943 0.32166 0.0
O336 O 0.52828 0.66958 0.29561 0.0
O337 O 0.62197 0.66626 0.28246 0.0
In338 In 0.60592 0.69608 0.99563 0.0
O339 O 0.50999 0.70218 0.98105 0.0
O340 O 0.58156 0.69873 0.95383 0.0
C341 C 0.58316 0.69272 0.04553 0.0
C342 C 0.6345 0.67345 0.98267 0.0
C343 C 0.68004 0.71555 0.9981 0.0
O344 O 0.53958 0.69418 0.02948 0.0
O345 O 0.63793 0.69303 0.03641 0.0
O346 O 0.70074 0.70542 0.99175 0.0
O347 O 0.62185 0.71588 0.00265 0.0
C348 C 0.52538 0.70178 0.95787 0.0
O349 O 0.6733 0.6819 0.98024 0.0
O350 O 0.58187 0.67644 0.99163 0.0
In351 In 0.67439 0.5634 0.97934 0.0
O352 O 0.76307 0.55769 0.95827 0.0
O353 O 0.67677 0.55924 0.93752 0.0
C354 C 0.69187 0.56513 0.02952 0.0
C355 C 0.67126 0.58683 0.96938 0.0
C356 C 0.60039 0.54419 0.98297 0.0
O357 O 0.73586 0.56171 0.01493 0.0
O358 O 0.641 0.56782 0.01856 0.0
O359 O 0.57881 0.55421 0.97585 0.0
O360 O 0.65871 0.54398 0.98758 0.0
C361 C 0.73494 0.55692 0.93704 0.0
O362 O 0.62107 0.58073 0.97049 0.0
O363 O 0.72135 0.58106 0.97311 0.0
In364 In 0.39106 0.43985 0.73738 0.0
O365 O 0.47852 0.44121 0.71257 0.0
O366 O 0.38784 0.44197 0.69491 0.0
C367 C 0.41603 0.43738 0.78682 0.0
C368 C 0.35364 0.41732 0.73068 0.0
C369 C 0.35298 0.46249 0.74173 0.0
O370 O 0.45975 0.43806 0.77045 0.0
O371 O 0.36077 0.43788 0.77801 0.0
O372 O 0.314 0.4542 0.73699 0.0
O373 O 0.40963 0.45924 0.74376 0.0
C374 C 0.44689 0.44214 0.69218 0.0
O375 O 0.3146 0.4259 0.73017 0.0
O376 O 0.41022 0.42025 0.73442 0.0
In377 In 0.31632 0.30712 0.74423 0.0
O378 O 0.3674 0.32449 0.73478 0.0
O379 O 0.26658 0.32433 0.73909 0.0
C380 C 0.35478 0.28496 0.75223 0.0
C381 C 0.27153 0.30229 0.69853 0.0
C382 C 0.30688 0.31096 0.79359 0.0
O383 O 0.39374 0.29305 0.74565 0.0
O384 O 0.29786 0.28821 0.75416 0.0
O385 O 0.25867 0.30882 0.77996 0.0
O386 O 0.35932 0.31117 0.78206 0.0
C387 C 0.31578 0.33032 0.73445 0.0
O388 O 0.23618 0.30268 0.71805 0.0
O389 O 0.32972 0.30409 0.70244 0.0
In390 In 0.37365 0.31039 0.02732 0.0
O391 O 0.46386 0.30289 0.04389 0.0
O392 O 0.38388 0.30562 0.06834 0.0
C393 C 0.35544 0.31486 0.97839 0.0
C394 C 0.39295 0.33316 0.03941 0.0
C395 C 0.30295 0.29091 0.02368 0.0
O396 O 0.40699 0.31034 0.98617 0.0
O397 O 0.31548 0.3173 0.99545 0.0
O398 O 0.28222 0.30037 0.03415 0.0
O399 O 0.35926 0.29137 0.01585 0.0
C400 C 0.4406 0.30228 0.06618 0.0
O401 O 0.33954 0.32827 0.04278 0.0
O402 O 0.43528 0.32651 0.03015 0.0
In403 In 0.38691 0.4426 0.0222 0.0
O404 O 0.45037 0.42801 0.0382 0.0
O405 O 0.35719 0.42357 0.02535 0.0
C406 C 0.41725 0.4655 0.01734 0.0
C407 C 0.31367 0.44602 0.06237 0.0
C408 C 0.40531 0.43859 0.973 0.0
O409 O 0.45615 0.458 0.02654 0.0
O410 O 0.36396 0.46133 0.01125 0.0
O411 O 0.35011 0.43992 0.98197 0.0
O412 O 0.44972 0.43918 0.98902 0.0
C413 C 0.40856 0.42002 0.03493 0.0
O414 O 0.29059 0.44425 0.04033 0.0
O415 O 0.37322 0.44621 0.06366 0.0
H416 H 0.06861 0.06262 0.05541 0.0
H417 H 0.27205 0.0598 0.05464 0.0
H418 H 0.27309 0.06053 0.10172 0.0
H419 H 0.05479 0.0825 0.10954 0.0
H420 H 0.98546 0.0752 0.12159 0.0
H421 H 0.00129 0.07522 0.08794 0.0
H422 H 0.99521 0.05216 0.0873 0.0
H423 H 0.97939 0.05206 0.12091 0.0
H424 H 0.04469 0.04367 0.10843 0.0
H425 H 0.25138 0.0612 0.14858 0.0
H426 H 0.20904 0.06071 0.19215 0.0
H427 H 0.01901 0.06231 0.16218 0.0
C428 C 0.11349 0.0623 0.06513 0.0
C429 C 0.17039 0.06126 0.05148 0.0
C430 C 0.22804 0.06064 0.06483 0.0
C431 C 0.22903 0.06108 0.09149 0.0
C432 C 0.17194 0.06205 0.10437 0.0
C433 C 0.11523 0.06258 0.09164 0.0
C434 C 0.06031 0.06298 0.10993 0.0
C435 C 0.02329 0.07467 0.10707 0.0
C436 C 0.01739 0.05207 0.10643 0.0
C437 C 0.09492 0.06251 0.13503 0.0
C438 C 0.15929 0.0621 0.13138 0.0
C439 C 0.20112 0.06153 0.15167 0.0
C440 C 0.17653 0.06127 0.17634 0.0
C441 C 0.1107 0.06146 0.18052 0.0
C442 C 0.06949 0.06216 0.15955 0.0
H443 H 0.05383 0.18419 0.07494 0.0
H444 H 0.24604 0.1816 0.04782 0.0
H445 H 0.28379 0.17993 0.09197 0.0
H446 H 0.08687 0.20225 0.12823 0.0
H447 H 0.03044 0.19523 0.14892 0.0
H448 H 0.01768 0.1953 0.11509 0.0
H449 H 0.00873 0.17227 0.11522 0.0
H450 H 0.02124 0.17214 0.14911 0.0
H451 H 0.0715 0.16348 0.12861 0.0
H452 H 0.30171 0.17994 0.13896 0.0
H453 H 0.2978 0.18119 0.18588 0.0
H454 H 0.09431 0.18357 0.18257 0.0
C455 C 0.10372 0.18309 0.07831 0.0
C456 C 0.14697 0.18299 0.05797 0.0
C457 C 0.21201 0.18168 0.06313 0.0
C458 C 0.23397 0.18071 0.08814 0.0
C459 C 0.1903 0.18103 0.10781 0.0
C460 C 0.12653 0.18212 0.10322 0.0
C461 C 0.08991 0.18271 0.12787 0.0
C462 C 0.05414 0.19458 0.13015 0.0
C463 C 0.04521 0.17201 0.13034 0.0
C464 C 0.14316 0.18197 0.14695 0.0
C465 C 0.20067 0.18096 0.13498 0.0
C466 C 0.25691 0.18061 0.14859 0.0
C467 C 0.25427 0.18134 0.17519 0.0
C468 C 0.19582 0.18241 0.18781 0.0
C469 C 0.13967 0.18264 0.17344 0.0
H470 H 0.87065 0.94094 0.92326 0.0
H471 H 0.66721 0.93811 0.92414 0.0
H472 H 0.66701 0.93619 0.87725 0.0
H473 H 0.8806 0.95891 0.86804 0.0
H474 H 0.95143 0.95203 0.85629 0.0
H475 H 0.93589 0.95234 0.88992 0.0
H476 H 0.9468 0.92936 0.8919 0.0
H477 H 0.96256 0.92897 0.85826 0.0
H478 H 0.89927 0.92022 0.87128 0.0
H479 H 0.68894 0.93518 0.83044 0.0
H480 H 0.73048 0.93565 0.78673 0.0
H481 H 0.9199 0.9397 0.81626 0.0
C482 C 0.82606 0.93977 0.91363 0.0
C483 C 0.76887 0.93959 0.9273 0.0
C484 C 0.7115 0.93822 0.914 0.0
C485 C 0.71099 0.93711 0.88742 0.0
C486 C 0.76822 0.93744 0.8745 0.0
C487 C 0.82469 0.93875 0.88715 0.0
C488 C 0.87938 0.93937 0.86873 0.0
C489 C 0.91383 0.95137 0.87088 0.0
C490 C 0.92467 0.92885 0.87279 0.0
C491 C 0.84482 0.93829 0.84367 0.0
C492 C 0.7808 0.93709 0.84747 0.0
C493 C 0.73896 0.93608 0.82724 0.0
C494 C 0.76309 0.93636 0.80248 0.0
C495 C 0.82845 0.93772 0.79809 0.0
C496 C 0.86977 0.93864 0.81902 0.0
H497 H 0.95827 0.81869 0.92482 0.0
H498 H 0.76393 0.8187 0.95 0.0
H499 H 0.72835 0.81776 0.9055 0.0
H500 H 0.93268 0.83681 0.86765 0.0
H501 H 0.98866 0.8285 0.84904 0.0
H502 H 0.9991 0.82985 0.88291 0.0
H503 H 0.00284 0.80684 0.88691 0.0
H504 H 0.99213 0.80542 0.85309 0.0
H505 H 0.93865 0.79809 0.87456 0.0
H506 H 0.71347 0.81538 0.85872 0.0
H507 H 0.72081 0.81263 0.81217 0.0
H508 H 0.9242 0.81467 0.8171 0.0
C509 C 0.90829 0.81865 0.92092 0.0
C510 C 0.8639 0.81878 0.94085 0.0
C511 C 0.79883 0.81862 0.93502 0.0
C512 C 0.77807 0.81809 0.9098 0.0
C513 C 0.82292 0.8178 0.8906 0.0
C514 C 0.88665 0.81816 0.89577 0.0
C515 C 0.92489 0.81741 0.87155 0.0
C516 C 0.96361 0.82882 0.86756 0.0
C517 C 0.9671 0.80628 0.87154 0.0
C518 C 0.87268 0.81638 0.85208 0.0
C519 C 0.81423 0.81662 0.86347 0.0
C520 C 0.75893 0.81531 0.84951 0.0
C521 C 0.76353 0.81372 0.82314 0.0
C522 C 0.82296 0.81351 0.81109 0.0
C523 C 0.87808 0.81492 0.82579 0.0
H524 H 0.17472 0.56102 0.66635 0.0
H525 H 0.98302 0.57315 0.67772 0.0
H526 H 0.97159 0.57617 0.63145 0.0
H527 H 0.21434 0.581 0.61463 0.0
H528 H 0.25946 0.57001 0.59757 0.0
H529 H 0.2539 0.56927 0.63172 0.0
H530 H 0.21185 0.54765 0.62861 0.0
H531 H 0.21752 0.54831 0.59448 0.0
H532 H 0.14368 0.5446 0.60929 0.0
H533 H 0.9804 0.57781 0.58457 0.0
H534 H 0.00572 0.57673 0.53906 0.0
H535 H 0.19101 0.56284 0.55722 0.0
C536 C 0.13049 0.56437 0.65907 0.0
C537 C 0.07976 0.56692 0.67555 0.0
C538 C 0.02237 0.57115 0.66538 0.0
C539 C 0.01556 0.57293 0.63917 0.0
C540 C 0.06644 0.57036 0.62344 0.0
C541 C 0.12264 0.56608 0.6329 0.0
C542 C 0.16889 0.56352 0.61164 0.0
C543 C 0.22762 0.57143 0.61404 0.0
C544 C 0.1865 0.55023 0.61097 0.0
C545 C 0.12972 0.567 0.58873 0.0
C546 C 0.07105 0.57103 0.59609 0.0
C547 C 0.02614 0.57467 0.57854 0.0
C548 C 0.04111 0.57403 0.55271 0.0
C549 C 0.10037 0.56969 0.54457 0.0
C550 C 0.14546 0.56623 0.56288 0.0
H551 H 0.12694 0.68766 0.67719 0.0
H552 H 0.32935 0.69246 0.67809 0.0
H553 H 0.32997 0.69249 0.63097 0.0
H554 H 0.11873 0.66851 0.62125 0.0
H555 H 0.04693 0.67525 0.61008 0.0
H556 H 0.06355 0.67469 0.64366 0.0
H557 H 0.04996 0.6976 0.64649 0.0
H558 H 0.03364 0.69825 0.61294 0.0
H559 H 0.09635 0.70709 0.62619 0.0
H560 H 0.30718 0.69298 0.58389 0.0
H561 H 0.26354 0.69399 0.54048 0.0
H562 H 0.07542 0.68928 0.57075 0.0
C563 C 0.17163 0.68855 0.66753 0.0
C564 C 0.22826 0.68998 0.68127 0.0
C565 C 0.28554 0.69128 0.6679 0.0
C566 C 0.28628 0.69131 0.64118 0.0
C567 C 0.22935 0.69004 0.62824 0.0
C568 C 0.17312 0.68866 0.64099 0.0
C569 C 0.11806 0.68804 0.62276 0.0
C570 C 0.08488 0.6759 0.62455 0.0
C571 C 0.0718 0.69836 0.62737 0.0
C572 C 0.15192 0.68943 0.59767 0.0
C573 C 0.21612 0.69048 0.60123 0.0
C574 C 0.25706 0.69209 0.58089 0.0
C575 C 0.23175 0.69267 0.55631 0.0
C576 C 0.16605 0.69171 0.55224 0.0
C577 C 0.1258 0.69001 0.57325 0.0
H578 H 0.89631 0.44506 0.42147 0.0
H579 H 0.70353 0.43284 0.4285 0.0
H580 H 0.70319 0.42739 0.38296 0.0
H581 H 0.87916 0.45812 0.35984 0.0
H582 H 0.95653 0.45384 0.34929 0.0
H583 H 0.942 0.45638 0.38257 0.0
H584 H 0.9836 0.43521 0.39286 0.0
H585 H 0.99777 0.43257 0.35957 0.0
H586 H 0.94877 0.42249 0.3774 0.0
H587 H 0.72342 0.42348 0.33691 0.0
H588 H 0.76011 0.42254 0.29252 0.0
H589 H 0.93965 0.43753 0.31528 0.0
C590 C 0.85404 0.44122 0.41344 0.0
C591 C 0.79993 0.43934 0.42846 0.0
C592 C 0.74542 0.43437 0.41727 0.0
C593 C 0.7449 0.43119 0.39149 0.0
C594 C 0.79922 0.43309 0.37725 0.0
C595 C 0.85263 0.43806 0.38775 0.0
C596 C 0.90399 0.43954 0.36807 0.0
C597 C 0.92141 0.45276 0.36475 0.0
C598 C 0.96195 0.432 0.37489 0.0
C599 C 0.87093 0.4347 0.34477 0.0
C600 C 0.81074 0.43093 0.35057 0.0
C601 C 0.77049 0.42636 0.33214 0.0
C602 C 0.79184 0.42585 0.30699 0.0
C603 C 0.85278 0.42994 0.3005 0.0
C604 C 0.89308 0.43425 0.31974 0.0
H605 H 0.80877 0.31318 0.31838 0.0
H606 H 0.00035 0.31747 0.2915 0.0
H607 H 0.03625 0.32076 0.33547 0.0
H608 H 0.81856 0.33553 0.36983 0.0
H609 H 0.77047 0.32681 0.39101 0.0
H610 H 0.75888 0.3258 0.35713 0.0
H611 H 0.77462 0.30292 0.35941 0.0
H612 H 0.7867 0.30387 0.39322 0.0
H613 H 0.84554 0.29702 0.37336 0.0
H614 H 0.05321 0.32164 0.38238 0.0
H615 H 0.0487 0.32117 0.42935 0.0
H616 H 0.84615 0.31687 0.42577 0.0
C617 C 0.85803 0.31503 0.32173 0.0
C618 C 0.90175 0.31508 0.30156 0.0
C619 C 0.96599 0.3174 0.30669 0.0
C620 C 0.9869 0.3193 0.33159 0.0
C621 C 0.9429 0.31893 0.35113 0.0
C622 C 0.87973 0.31698 0.34651 0.0
C623 C 0.84273 0.31654 0.37107 0.0
C624 C 0.79483 0.32678 0.37233 0.0
C625 C 0.81053 0.30436 0.37445 0.0
C626 C 0.89522 0.31827 0.39016 0.0
C627 C 0.95261 0.31966 0.37827 0.0
C628 C 0.00845 0.32074 0.39195 0.0
C629 C 0.0055 0.32041 0.41857 0.0
C630 C 0.94711 0.31907 0.43109 0.0
C631 C 0.89136 0.31806 0.41666 0.0
H632 H 0.57508 0.07746 0.6675 0.0
H633 H 0.40235 0.057 0.66648 0.0
H634 H 0.39292 0.06049 0.6201 0.0
H635 H 0.53391 0.09896 0.61484 0.0
H636 H 0.61364 0.09862 0.60328 0.0
H637 H 0.59816 0.09693 0.63678 0.0
H638 H 0.66013 0.07703 0.63685 0.0
H639 H 0.67553 0.07863 0.60351 0.0
H640 H 0.63745 0.06536 0.61514 0.0
H641 H 0.41338 0.06319 0.57289 0.0
H642 H 0.46329 0.06419 0.53034 0.0
H643 H 0.62304 0.0825 0.56322 0.0
C644 C 0.53408 0.07404 0.65771 0.0
C645 C 0.48929 0.06701 0.67052 0.0
C646 C 0.43688 0.06252 0.657 0.0
C647 C 0.43113 0.06448 0.63068 0.0
C648 C 0.47777 0.07107 0.61837 0.0
C649 C 0.52795 0.07587 0.63161 0.0
C650 C 0.57644 0.08115 0.61394 0.0
C651 C 0.58076 0.09472 0.61742 0.0
C652 C 0.64113 0.07518 0.61758 0.0
C653 C 0.54765 0.078 0.58857 0.0
C654 C 0.48995 0.07248 0.59135 0.0
C655 C 0.45778 0.06776 0.57048 0.0
C656 C 0.48629 0.06838 0.54639 0.0
C657 C 0.54672 0.07347 0.54363 0.0
C658 C 0.57645 0.07868 0.56483 0.0
H659 H 0.68597 0.18948 0.68658 0.0
H660 H 0.49231 0.17874 0.69903 0.0
H661 H 0.47257 0.17949 0.653 0.0
H662 H 0.65473 0.21002 0.63633 0.0
H663 H 0.72384 0.20629 0.61819 0.0
H664 H 0.72409 0.20455 0.65223 0.0
H665 H 0.75545 0.18235 0.64723 0.0
H666 H 0.7556 0.18405 0.61317 0.0
H667 H 0.70785 0.17269 0.62776 0.0
H668 H 0.47156 0.18226 0.60595 0.0
H669 H 0.49181 0.18599 0.56033 0.0
H670 H 0.68609 0.19448 0.57793 0.0
C671 C 0.63966 0.18719 0.67956 0.0
C672 C 0.59075 0.18406 0.69642 0.0
C673 C 0.53063 0.18117 0.68651 0.0
C674 C 0.5188 0.18157 0.66036 0.0
C675 C 0.56763 0.18482 0.64426 0.0
C676 C 0.627 0.1875 0.65337 0.0
C677 C 0.67083 0.19083 0.63182 0.0
C678 C 0.69476 0.20368 0.63483 0.0
C679 C 0.72567 0.18195 0.62988 0.0
C680 C 0.62659 0.18969 0.60934 0.0
C681 C 0.56725 0.18625 0.61695 0.0
C682 C 0.51797 0.18488 0.59968 0.0
C683 C 0.5298 0.18705 0.57386 0.0
C684 C 0.59044 0.19047 0.56562 0.0
C685 C 0.6393 0.1918 0.58366 0.0
H686 H 0.41373 0.92927 0.44425 0.0
H687 H 0.39781 0.96716 0.45863 0.0
H688 H 0.41614 0.97126 0.41293 0.0
H689 H 0.53167 0.93012 0.39658 0.0
H690 H 0.49709 0.91868 0.37699 0.0
H691 H 0.48379 0.91867 0.41081 0.0
H692 H 0.36327 0.91888 0.40356 0.0
H693 H 0.37622 0.91863 0.36974 0.0
H694 H 0.32903 0.93025 0.38369 0.0
H695 H 0.44497 0.97115 0.36628 0.0
H696 H 0.45856 0.96687 0.32042 0.0
H697 H 0.44364 0.92904 0.33576 0.0
C698 C 0.41326 0.9384 0.4376 0.0
C699 C 0.40429 0.94792 0.4547 0.0
C700 C 0.40386 0.95977 0.44559 0.0
C701 C 0.41493 0.96217 0.41979 0.0
C702 C 0.42492 0.95259 0.40339 0.0
C703 C 0.42218 0.94093 0.41179 0.0
C704 C 0.43045 0.93224 0.39 0.0
C705 C 0.48926 0.92447 0.39384 0.0
C706 C 0.37121 0.92455 0.38654 0.0
C707 C 0.43902 0.94084 0.36809 0.0
C708 C 0.43719 0.95253 0.3763 0.0
C709 C 0.44588 0.96204 0.3596 0.0
C710 C 0.45427 0.95953 0.33367 0.0
C711 C 0.45242 0.94765 0.32475 0.0
C712 C 0.44552 0.9382 0.34222 0.0
H713 H 0.35934 0.81906 0.42894 0.0
H714 H 0.55701 0.8106 0.43848 0.0
H715 H 0.57025 0.81053 0.3917 0.0
H716 H 0.33372 0.80004 0.37682 0.0
H717 H 0.27916 0.80982 0.36093 0.0
H718 H 0.28667 0.81033 0.39499 0.0
H719 H 0.31131 0.83292 0.3928 0.0
H720 H 0.3036 0.8325 0.35869 0.0
H721 H 0.37479 0.83809 0.37297 0.0
H722 H 0.56048 0.81055 0.34416 0.0
H723 H 0.52854 0.81002 0.29912 0.0
H724 H 0.33597 0.81777 0.32086 0.0
C725 C 0.4057 0.8174 0.42122 0.0
C726 C 0.4574 0.81495 0.43724 0.0
C727 C 0.51697 0.81256 0.42646 0.0
C728 C 0.52488 0.81252 0.39997 0.0
C729 C 0.47264 0.81483 0.38469 0.0
C730 C 0.41419 0.81719 0.39492 0.0
C731 C 0.36481 0.81864 0.37441 0.0
C732 C 0.31306 0.80914 0.37695 0.0
C733 C 0.33701 0.83129 0.37474 0.0
C734 C 0.40447 0.8166 0.35097 0.0
C735 C 0.46663 0.81453 0.35732 0.0
C736 C 0.51203 0.81221 0.33896 0.0
C737 C 0.49336 0.81193 0.31343 0.0
C738 C 0.42974 0.81386 0.30653 0.0
C739 C 0.3849 0.81628 0.32558 0.0
H740 H 0.5958 0.56708 0.06312 0.0
H741 H 0.7985 0.56328 0.05893 0.0
H742 H 0.80375 0.56285 0.10605 0.0
H743 H 0.58897 0.58551 0.1199 0.0
H744 H 0.51966 0.57814 0.13175 0.0
H745 H 0.53302 0.57915 0.098 0.0
H746 H 0.52397 0.55619 0.09415 0.0
H747 H 0.51059 0.5551 0.12785 0.0
H748 H 0.5739 0.54685 0.1134 0.0
H749 H 0.78542 0.5622 0.1536 0.0
H750 H 0.7454 0.56014 0.19745 0.0
H751 H 0.55414 0.56355 0.16963 0.0
C752 C 0.6415 0.56633 0.07207 0.0
C753 C 0.69691 0.56533 0.05747 0.0
C754 C 0.7556 0.56412 0.06986 0.0
C755 C 0.75896 0.56391 0.09655 0.0
C756 C 0.70317 0.56484 0.11038 0.0
C757 C 0.64555 0.56596 0.09851 0.0
C758 C 0.59207 0.566 0.11745 0.0
C759 C 0.55634 0.57791 0.11673 0.0
C760 C 0.54754 0.5554 0.11294 0.0
C761 C 0.62843 0.56461 0.14194 0.0
C762 C 0.69248 0.5641 0.13753 0.0
C763 C 0.73542 0.56263 0.15726 0.0
C764 C 0.71221 0.56148 0.18209 0.0
C765 C 0.64666 0.56169 0.18689 0.0
C766 C 0.60446 0.56339 0.16654 0.0
H767 H 0.66846 0.68759 0.19337 0.0
H768 H 0.47215 0.67875 0.2059 0.0
H769 H 0.45224 0.67997 0.15995 0.0
H770 H 0.64312 0.70867 0.14394 0.0
H771 H 0.71059 0.70434 0.12539 0.0
H772 H 0.711 0.7023 0.15935 0.0
H773 H 0.7353 0.67985 0.15343 0.0
H774 H 0.7354 0.68183 0.11943 0.0
H775 H 0.68448 0.67089 0.13373 0.0
H776 H 0.45104 0.68333 0.11331 0.0
H777 H 0.47105 0.68732 0.06785 0.0
H778 H 0.66832 0.69334 0.08465 0.0
C779 C 0.62156 0.68578 0.18637 0.0
C780 C 0.57192 0.68308 0.20324 0.0
C781 C 0.51103 0.68082 0.19337 0.0
C782 C 0.4991 0.6815 0.16727 0.0
C783 C 0.54861 0.68437 0.15118 0.0
C784 C 0.60879 0.68634 0.16021 0.0
C785 C 0.65319 0.68937 0.13862 0.0
C786 C 0.6811 0.70191 0.14204 0.0
C787 C 0.70516 0.67992 0.13616 0.0
C788 C 0.60828 0.68892 0.11623 0.0
C789 C 0.54816 0.68606 0.12396 0.0
C790 C 0.49804 0.68547 0.10693 0.0
C791 C 0.50977 0.68779 0.08119 0.0
C792 C 0.57117 0.69057 0.07276 0.0
C793 C 0.62097 0.69114 0.09055 0.0
H794 H 0.32876 0.438 0.8247 0.0
H795 H 0.52924 0.43465 0.81116 0.0
H796 H 0.54753 0.43352 0.85759 0.0
H797 H 0.34038 0.45679 0.87854 0.0
H798 H 0.27473 0.45019 0.89498 0.0
H799 H 0.27736 0.45 0.86078 0.0
H800 H 0.26541 0.42702 0.86109 0.0
H801 H 0.26276 0.42714 0.89533 0.0
H802 H 0.32016 0.41811 0.87908 0.0
H803 H 0.54385 0.43349 0.90529 0.0
H804 H 0.51958 0.43503 0.95097 0.0
H805 H 0.3211 0.43864 0.93327 0.0
C806 C 0.37652 0.43691 0.83147 0.0
C807 C 0.42768 0.43636 0.81438 0.0
C808 C 0.48945 0.43506 0.82397 0.0
C809 C 0.50021 0.43439 0.85026 0.0
C810 C 0.44865 0.43504 0.86658 0.0
C811 C 0.38804 0.43628 0.85756 0.0
C812 C 0.34104 0.43724 0.87908 0.0
C813 C 0.30636 0.44927 0.87829 0.0
C814 C 0.29461 0.42675 0.87861 0.0
C815 C 0.38475 0.43648 0.90171 0.0
C816 C 0.44655 0.43512 0.89407 0.0
C817 C 0.49564 0.43449 0.91149 0.0
C818 C 0.48131 0.43539 0.9374 0.0
C819 C 0.4184 0.43694 0.94566 0.0
C820 C 0.36954 0.43738 0.92753 0.0
H821 H 0.40117 0.30872 0.8284 0.0
H822 H 0.20336 0.31749 0.82088 0.0
H823 H 0.19691 0.32079 0.8673 0.0
H824 H 0.38502 0.29219 0.88569 0.0
H825 H 0.45887 0.29704 0.89894 0.0
H826 H 0.44901 0.29626 0.86499 0.0
H827 H 0.48107 0.31846 0.86109 0.0
H828 H 0.49082 0.31933 0.89508 0.0
H829 H 0.43891 0.32957 0.87905 0.0
H830 H 0.21162 0.32288 0.91404 0.0
H831 H 0.24332 0.32202 0.95897 0.0
H832 H 0.4309 0.31089 0.93663 0.0
C833 C 0.35668 0.31146 0.83653 0.0
C834 C 0.30279 0.31297 0.82117 0.0
C835 C 0.2451 0.31632 0.83242 0.0
C836 C 0.24112 0.31826 0.85868 0.0
C837 C 0.29515 0.31669 0.87332 0.0
C838 C 0.35168 0.31325 0.86273 0.0
C839 C 0.40163 0.31144 0.88292 0.0
C840 C 0.42498 0.29846 0.88314 0.0
C841 C 0.45634 0.32023 0.87931 0.0
C842 C 0.36417 0.31432 0.90658 0.0
C843 C 0.30314 0.31749 0.90051 0.0
C844 C 0.25925 0.32043 0.91904 0.0
C845 C 0.27785 0.31992 0.94452 0.0
C846 C 0.33961 0.31637 0.95127 0.0
C847 C 0.38349 0.31367 0.93201 0.0
H848 H 0.34139 0.98292 0.26777 0.0
H849 H 0.19803 0.95856 0.2405 0.0
H850 H 0.1196 0.9749 0.2422 0.0
H851 H 0.24073 0.99983 0.31101 0.0
H852 H 0.27951 0.01373 0.304 0.0
H853 H 0.32261 0.99993 0.30221 0.0
H854 H 0.3539 0.00474 0.25571 0.0
H855 H 0.31089 0.01852 0.25733 0.0
H856 H 0.29329 0.00787 0.23268 0.0
H857 H 0.05969 0.99431 0.24375 0.0
H858 H 0.02186 0.01509 0.24573 0.0
H859 H 0.20463 0.02654 0.273 0.0
C860 C 0.29334 0.98096 0.26238 0.0
C861 C 0.27564 0.96948 0.25396 0.0
C862 C 0.21241 0.96729 0.24706 0.0
C863 C 0.16768 0.97651 0.248 0.0
C864 C 0.18703 0.98777 0.25611 0.0
C865 C 0.24831 0.98999 0.26334 0.0
C866 C 0.25792 0.00294 0.27043 0.0
C867 C 0.27626 0.00417 0.29859 0.0
C868 C 0.30688 0.00886 0.25299 0.0
C869 C 0.19267 0.00778 0.26555 0.0
C870 C 0.1524 0.99888 0.2574 0.0
C871 C 0.09059 0.00131 0.25041 0.0
C872 C 0.06962 0.01314 0.25155 0.0
C873 C 0.11026 0.02239 0.25968 0.0
C874 C 0.17229 0.01962 0.26708 0.0
H875 H 0.01154 0.27222 0.2227 0.0
H876 H 0.83245 0.26511 0.25928 0.0
H877 H 0.86937 0.24519 0.27155 0.0
H878 H 0.03592 0.24202 0.19855 0.0
H879 H 0.11944 0.24222 0.20432 0.0
H880 H 0.07846 0.2559 0.1975 0.0
H881 H 0.12113 0.26502 0.23934 0.0
H882 H 0.16181 0.25134 0.24638 0.0
H883 H 0.10706 0.25746 0.26904 0.0
H884 H 0.92515 0.22634 0.2811 0.0
H885 H 0.99651 0.20915 0.2859 0.0
H886 H 0.14039 0.22807 0.24355 0.0
C887 C 0.98001 0.2664 0.23304 0.0
C888 C 0.9191 0.27023 0.24001 0.0
C889 C 0.87935 0.2624 0.25374 0.0
C890 C 0.89984 0.25105 0.26084 0.0
C891 C 0.9603 0.2476 0.25409 0.0
C892 C -0.00016 0.25497 0.24039 0.0
C893 C 0.06291 0.249 0.23595 0.0
C894 C 0.07486 0.24717 0.20738 0.0
C895 C 0.11638 0.25613 0.24843 0.0
C896 C 0.05245 0.2372 0.24942 0.0
C897 C 0.99287 0.23661 0.25972 0.0
C898 C 0.97196 0.22666 0.27308 0.0
C899 C 0.01285 0.21696 0.27577 0.0
C900 C 0.07395 0.21729 0.26518 0.0
C901 C 0.094 0.22759 0.25196 0.0
H902 H 0.23367 0.22413 0.97863 0.0
H903 H 0.04137 0.2295 0.0037 0.0
H904 H 0.06636 0.25021 0.01535 0.0
H905 H 0.30548 0.24066 0.02797 0.0
H906 H 0.36619 0.24707 0.00837 0.0
H907 H 0.33264 0.23286 9e-05 0.0
H908 H 0.30328 0.24088 0.95544 0.0
H909 H 0.33735 0.25509 0.96349 0.0
H910 H 0.25697 0.25428 0.95277 0.0
H911 H 0.11309 0.26996 0.02677 0.0
H912 H 0.17825 0.2878 0.03514 0.0
H913 H 0.33998 0.26971 0.00285 0.0
C914 C 0.19665 0.22974 0.98612 0.0
C915 C 0.13555 0.22521 0.99017 0.0
C916 C 0.08855 0.23278 0.0004 0.0
C917 C 0.10223 0.24456 0.00711 0.0
C918 C 0.16317 0.2487 0.00346 0.0
C919 C 0.20957 0.24157 0.99303 0.0
C920 C 0.27172 0.24815 0.99192 0.0
C921 C 0.32195 0.2418 0.00805 0.0
C922 C 0.2936 0.24969 0.96426 0.0
C923 C 0.253 0.25998 0.00361 0.0
C924 C 0.19016 0.26012 0.0101 0.0
C925 C 0.16234 0.27 0.02162 0.0
C926 C 0.19969 0.28007 0.02641 0.0
C927 C 0.26406 0.28015 0.01968 0.0
C928 C 0.29084 0.26994 0.00821 0.0
H929 H 0.09251 0.01781 0.99019 0.0
H930 H 0.94889 0.04135 0.9599 0.0
H931 H 0.87021 0.02526 0.96439 0.0
H932 H 0.0373 0.99095 0.95983 0.0
H933 H 0.05632 0.98155 0.98653 0.0
H934 H 0.10112 0.99489 0.98077 0.0
H935 H 0.07651 0.0022 0.02642 0.0
H936 H 0.03131 0.98892 0.03228 0.0
H937 H 0.99585 0.00336 0.03662 0.0
H938 H 0.80752 0.00682 0.97266 0.0
H939 H 0.7646 0.98701 0.98263 0.0
H940 H 0.94916 0.97527 0.00754 0.0
C941 C 0.04453 0.01957 0.9844 0.0
C942 C 0.02667 0.03083 0.97466 0.0
C943 C 0.96351 0.03279 0.96733 0.0
C944 C 0.91857 0.02372 0.96988 0.0
C945 C 0.93769 0.01276 0.97974 0.0
C946 C 0.99919 0.01063 0.98678 0.0
C947 C 0.00749 0.99805 0.99677 0.0
C948 C 0.05326 0.99094 0.97997 0.0
C949 C 0.02906 0.99814 0.02468 0.0
C950 C 0.94091 0.99342 0.99427 0.0
C951 C 0.90149 0.00208 0.98446 0.0
C952 C 0.83792 0.99997 0.98032 0.0
C953 C 0.81403 0.98867 0.98609 0.0
C954 C 0.85354 0.97958 0.9959 0.0
C955 C 0.9178 0.98204 0.00017 0.0
H956 H 0.71229 0.02634 0.74562 0.0
H957 H 0.56738 0.02133 0.68851 0.0
H958 H 0.61521 0.00221 0.6761 0.0
H959 H 0.84221 0.01207 0.70949 0.0
H960 H 0.87489 0.00522 0.73753 0.0
H961 H 0.83377 0.01922 0.74 0.0
H962 H 0.75923 0.01004 0.77365 0.0
H963 H 0.79986 0.99603 0.7712 0.0
H964 H 0.71616 0.99668 0.76603 0.0
H965 H 0.67199 0.98288 0.67244 0.0
H966 H 0.73524 0.96457 0.67774 0.0
H967 H 0.84344 0.98187 0.7372 0.0
C968 C 0.69165 0.02133 0.73012 0.0
C969 C 0.63638 0.02533 0.71792 0.0
C970 C 0.6098 0.01843 0.69809 0.0
C971 C 0.63671 0.00757 0.69084 0.0
C972 C 0.69029 0.00371 0.70358 0.0
C973 C 0.71775 0.01038 0.72273 0.0
C974 C 0.77256 0.00375 0.73455 0.0
C975 C 0.83453 0.01047 0.73012 0.0
C976 C 0.76124 0.00149 0.76304 0.0
C977 C 0.77053 0.99224 0.71944 0.0
C978 C 0.72308 0.99246 0.70152 0.0
C979 C 0.70987 0.98264 0.68618 0.0
C980 C 0.7459 0.97228 0.68935 0.0
C981 C 0.79438 0.97182 0.70775 0.0
C982 C 0.80713 0.982 0.72276 0.0
H983 H 0.04194 0.72376 0.76236 0.0
H984 H 0.22211 0.73432 0.73084 0.0
H985 H 0.17981 0.75424 0.7214 0.0
H986 H 0.94522 0.73985 0.71745 0.0
H987 H 0.88744 0.74415 0.74076 0.0
H988 H 0.93138 0.73056 0.74485 0.0
H989 H 0.96843 0.73772 0.78925 0.0
H990 H 0.9245 0.75131 0.78531 0.0
H991 H 0.00745 0.75191 0.79221 0.0
H992 H 0.11874 0.77303 0.7152 0.0
H993 H 0.04266 0.78968 0.7139 0.0
H994 H 0.90267 0.76718 0.7499 0.0
C995 C 0.07235 0.73027 0.75346 0.0
C996 C 0.13528 0.72748 0.74734 0.0
C997 C 0.17373 0.73625 0.73576 0.0
C998 C 0.15016 0.7476 0.73025 0.0
C999 C 0.08803 0.75009 0.73649 0.0
C1000 C 0.04962 0.74171 0.74792 0.0
C1001 C 0.98486 0.74681 0.75298 0.0
C1002 C 0.93425 0.73993 0.73812 0.0
C1003 C 0.9705 0.74695 0.78164 0.0
C1004 C 0.99311 0.75932 0.74266 0.0
C1005 C 0.0529 0.76101 0.73314 0.0
C1006 C 0.07171 0.77183 0.72261 0.0
C1007 C 0.02826 0.78123 0.72192 0.0
C1008 C 0.96693 0.77973 0.7318 0.0
C1009 C 0.94929 0.7686 0.7422 0.0
H1010 H 0.64564 0.7382 0.01208 0.0
H1011 H 0.80698 0.71671 0.9908 0.0
H1012 H 0.87616 0.73416 0.99662 0.0
H1013 H 0.69482 0.76491 0.98062 0.0
H1014 H 0.66517 0.77472 0.00495 0.0
H1015 H 0.62862 0.76046 -0.00022 0.0
H1016 H 0.64607 0.7551 0.04718 0.0
H1017 H 0.68312 0.76933 0.05246 0.0
H1018 H 0.72424 0.75578 0.06037 0.0
H1019 H 0.92719 0.75385 0.0037 0.0
H1020 H 0.9572 0.77483 0.00998 0.0
H1021 H 0.76328 0.78377 0.02713 0.0
C1022 C 0.69557 0.73717 0.00867 0.0
C1023 C 0.72105 0.7261 0.00098 0.0
C1024 C 0.78651 0.7251 0.99667 0.0
C1025 C 0.82615 0.73495 1e-05 0.0
C1026 C 0.79961 0.74571 0.00773 0.0
C1027 C 0.73585 0.74691 0.01193 0.0
C1028 C 0.71929 0.75958 0.01951 0.0
C1029 C 0.67433 0.76525 5e-05 0.0
C1030 C 0.69154 0.75996 0.04649 0.0
C1031 C 0.78369 0.76534 0.01867 0.0
C1032 C 0.82928 0.75713 0.01196 0.0
C1033 C 0.89202 0.76034 0.00909 0.0
C1034 C 0.90855 0.77228 0.01272 0.0
C1035 C 0.86261 0.78091 0.01917 0.0
C1036 C 0.79949 0.77734 0.02256 0.0
H1037 H 0.12851 0.51983 0.74439 0.0
H1038 H 0.29176 0.54015 0.76832 0.0
H1039 H 0.3559 0.52182 0.76747 0.0
H1040 H 0.16393 0.4932 0.78077 0.0
H1041 H 0.13596 0.48318 0.75647 0.0
H1042 H 0.10246 0.49787 0.75936 0.0
H1043 H 0.1293 0.50213 0.71219 0.0
H1044 H 0.16306 0.48748 0.70917 0.0
H1045 H 0.20921 0.50044 0.70137 0.0
H1046 H 0.4027 0.50163 0.76294 0.0
H1047 H 0.42979 0.48057 0.7562 0.0
H1048 H 0.23616 0.47297 0.7356 0.0
C1049 C 0.17771 0.5204 0.74957 0.0
C1050 C 0.20528 0.53141 0.75644 0.0
C1051 C 0.26974 0.53182 0.76304 0.0
C1052 C 0.3065 0.52146 0.76259 0.0
C1053 C 0.27801 0.51077 0.75557 0.0
C1054 C 0.21508 0.51013 0.74928 0.0
C1055 C 0.19634 0.49751 0.74227 0.0
C1056 C 0.14674 0.49265 0.76083 0.0
C1057 C 0.17312 0.49686 0.71461 0.0
C1058 C 0.25874 0.49116 0.74548 0.0
C1059 C 0.30509 0.49902 0.75314 0.0
C1060 C 0.36681 0.49538 0.75705 0.0
C1061 C 0.38168 0.48338 0.7531 0.0
C1062 C 0.33507 0.47511 0.74538 0.0
C1063 C 0.27271 0.47908 0.74155 0.0
H1064 H 0.3651 0.77221 0.48733 0.0
H1065 H 0.20936 0.79377 0.51424 0.0
H1066 H 0.13641 0.77704 0.50551 0.0
H1067 H 0.28075 0.75703 0.43655 0.0
H1068 H 0.32111 0.74312 0.44182 0.0
H1069 H 0.35991 0.75701 0.44881 0.0
H1070 H 0.38045 0.74996 0.49502 0.0
H1071 H 0.3421 0.73605 0.48814 0.0
H1072 H 0.31527 0.7451 0.51429 0.0
H1073 H 0.08226 0.75752 0.49609 0.0
H1074 H 0.0511 0.73667 0.48802 0.0
H1075 H 0.24287 0.72811 0.46675 0.0
C1076 C 0.31555 0.77348 0.49124 0.0
C1077 C 0.29273 0.78429 0.50146 0.0
C1078 C 0.22771 0.78556 0.5064 0.0
C1079 C 0.18603 0.77613 0.50141 0.0
C1080 C 0.21027 0.76556 0.49137 0.0
C1081 C 0.27356 0.76421 0.48634 0.0
C1082 C 0.28839 0.75183 0.47664 0.0
C1083 C 0.31404 0.75228 0.44933 0.0
C1084 C 0.33424 0.74535 0.4946 0.0
C1085 C 0.22365 0.74629 0.47741 0.0
C1086 C 0.17914 0.75439 0.48577 0.0
C1087 C 0.11658 0.75115 0.48929 0.0
C1088 C 0.09938 0.7393 0.48465 0.0
C1089 C 0.14454 0.73081 0.47659 0.0
C1090 C 0.20717 0.73444 0.47248 0.0
H1091 H 0.96088 0.47887 0.50607 0.0
H1092 H 0.76548 0.48771 0.49149 0.0
H1093 H 0.79595 0.50834 0.48114 0.0
H1094 H 0.00335 0.50733 0.53488 0.0
H1095 H 0.08055 0.50746 0.52078 0.0
H1096 H 0.04287 0.49349 0.52796 0.0
H1097 H 0.05673 0.48689 0.48107 0.0
H1098 H 0.0939 0.50087 0.4737 0.0
H1099 H 0.02585 0.49613 0.45595 0.0
H1100 H 0.84806 0.52781 0.47042 0.0
H1101 H 0.91821 0.54503 0.46262 0.0
H1102 H 0.07888 0.52352 0.48462 0.0
C1103 C 0.9245 0.48519 0.50099 0.0
C1104 C 0.86085 0.4817 0.49962 0.0
C1105 C 0.81459 0.4902 0.49272 0.0
C1106 C 0.83138 0.50194 0.48675 0.0
C1107 C 0.89462 0.50505 0.48786 0.0
C1108 C 0.94042 0.49697 0.49502 0.0
C1109 C 0.00507 0.50259 0.49441 0.0
C1110 C 0.03469 0.50272 0.5211 0.0
C1111 C 0.04789 0.49624 0.47513 0.0
C1112 C 0.98842 0.51504 0.48562 0.0
C1113 C 0.92452 0.51629 0.48188 0.0
C1114 C 0.8982 0.52696 0.47341 0.0
C1115 C 0.93832 0.53667 0.46893 0.0
C1116 C 0.00382 0.5356 0.47303 0.0
C1117 C 0.02893 0.52462 0.48136 0.0
H1118 H 0.73531 0.52015 0.26427 0.0
H1119 H 0.55538 0.51439 0.2272 0.0
H1120 H 0.58898 0.49431 0.2144 0.0
H1121 H 0.82885 0.50495 0.21779 0.0
H1122 H 0.88201 0.49843 0.24058 0.0
H1123 H 0.84377 0.51237 0.24759 0.0
H1124 H 0.79868 0.50347 0.28922 0.0
H1125 H 0.83724 0.48954 0.28244 0.0
H1126 H 0.75363 0.48988 0.28791 0.0
H1127 H 0.64195 0.47501 0.20466 0.0
H1128 H 0.71028 0.45729 0.20049 0.0
H1129 H 0.85581 0.47536 0.24366 0.0
C1130 C 0.7029 0.51461 0.25367 0.0
C1131 C 0.64273 0.51886 0.24677 0.0
C1132 C 0.60176 0.51136 0.23273 0.0
C1133 C 0.62038 0.49993 0.2253 0.0
C1134 C 0.68017 0.49606 0.23204 0.0
C1135 C 0.72078 0.50311 0.24604 0.0
C1136 C 0.78255 0.49674 0.25066 0.0
C1137 C 0.83754 0.50353 0.23842 0.0
C1138 C 0.79365 0.49479 0.27926 0.0
C1139 C 0.77013 0.48505 0.23705 0.0
C1140 C 0.71084 0.48487 0.2264 0.0
C1141 C 0.68854 0.47503 0.21293 0.0
C1142 C 0.72767 0.46502 0.21059 0.0
C1143 C 0.78829 0.46496 0.22167 0.0
C1144 C 0.80975 0.47516 0.23488 0.0
H1145 H 0.8966 0.27517 0.50035 0.0
H1146 H 0.73486 0.29675 0.52064 0.0
H1147 H 0.66707 0.27886 0.5182 0.0
H1148 H 0.81816 0.25656 0.45529 0.0
H1149 H 0.86106 0.24331 0.46394 0.0
H1150 H 0.89682 0.25774 0.46782 0.0
H1151 H 0.91691 0.25325 0.51547 0.0
H1152 H 0.88146 0.23879 0.51173 0.0
H1153 H 0.85205 0.24893 0.53549 0.0
H1154 H 0.61732 0.2587 0.51298 0.0
H1155 H 0.58861 0.23766 0.5061 0.0
H1156 H 0.78329 0.22927 0.48902 0.0
C1157 C 0.84694 0.27614 0.5044 0.0
C1158 C 0.82085 0.28733 0.51073 0.0
C1159 C 0.75571 0.28824 0.51581 0.0
C1160 C 0.71695 0.27814 0.51444 0.0
C1161 C 0.74419 0.26725 0.50798 0.0
C1162 C 0.80772 0.26618 0.5031 0.0
C1163 C 0.82531 0.25349 0.49639 0.0
C1164 C 0.85189 0.25273 0.46925 0.0
C1165 C 0.87167 0.24831 0.51594 0.0
C1166 C 0.76166 0.24755 0.49821 0.0
C1167 C 0.71555 0.25565 0.50491 0.0
C1168 C 0.65302 0.25228 0.50776 0.0
C1169 C 0.63724 0.24031 0.50378 0.0
C1170 C 0.68376 0.23184 0.49701 0.0
C1171 C 0.74674 0.23554 0.49413 0.0
H1172 H 0.47134 0.27427 0.747 0.0
H1173 H 0.27903 0.26753 0.77064 0.0
H1174 H 0.30656 0.2468 0.7808 0.0
H1175 H 0.49585 0.24577 0.71732 0.0
H1176 H 0.57647 0.24444 0.72749 0.0
H1177 H 0.54244 0.25895 0.72264 0.0
H1178 H 0.57246 0.26488 0.76869 0.0
H1179 H 0.60643 0.25037 0.7737 0.0
H1180 H 0.54622 0.25578 0.79485 0.0
H1181 H 0.35337 0.22678 0.78802 0.0
H1182 H 0.41712 0.20843 0.79072 0.0
H1183 H 0.57903 0.22781 0.76223 0.0
C1184 C 0.4352 0.26842 0.75437 0.0
C1185 C 0.37307 0.27253 0.75803 0.0
C1186 C 0.32697 0.2646 0.76762 0.0
C1187 C 0.3421 0.2528 0.77353 0.0
C1188 C 0.40358 0.24901 0.76973 0.0
C1189 C 0.44946 0.25653 0.76031 0.0
C1190 C 0.51158 0.25004 0.75753 0.0
C1191 C 0.53281 0.24978 0.72958 0.0
C1192 C 0.56215 0.2556 0.77472 0.0
C1193 C 0.49313 0.23772 0.76674 0.0
C1194 C 0.43066 0.23735 0.77379 0.0
C1195 C 0.40245 0.22694 0.78262 0.0
C1196 C 0.43898 0.21657 0.78411 0.0
C1197 C 0.50293 0.21669 0.77674 0.0
C1198 C 0.53027 0.22745 0.7681 0.0
H1199 H 0.54142 0.03094 0.49441 0.0
H1200 H 0.73827 0.02819 0.51506 0.0
H1201 H 0.72052 0.00728 0.52904 0.0
H1202 H 0.48058 0.01422 0.54666 0.0
H1203 H 0.41899 0.00756 0.52788 0.0
H1204 H 0.44864 0.02209 0.5197 0.0
H1205 H 0.47389 0.01467 0.4741 0.0
H1206 H 0.44418 1.00014 0.48211 0.0
H1207 H 0.52292 0.00171 0.46995 0.0
H1208 H 0.67857 0.98597 0.53926 0.0
H1209 H 0.61729 0.96731 0.54554 0.0
H1210 H 0.44942 0.98548 0.51926 0.0
C1211 C 0.5811 0.02598 0.50181 0.0
C1212 C 0.64134 0.03114 0.5035 0.0
C1213 C 0.6917 0.02436 0.51356 0.0
C1214 C 0.68199 0.0125 0.52153 0.0
C1215 C 0.6216 0.00768 0.51949 0.0
C1216 C 0.57214 0.01431 0.50996 0.0
C1217 C 0.51158 0.00735 0.50965 0.0
C1218 C 0.46205 0.01315 0.52701 0.0
C1219 C 0.48672 0.00588 0.48233 0.0
C1220 C 0.53428 0.99567 0.52037 0.0
C1221 C 0.5978 0.99589 0.5259 0.0
C1222 C 0.62872 0.98578 0.53518 0.0
C1223 C 0.59367 0.97524 0.5387 0.0
C1224 C 0.52855 0.97498 0.53311 0.0
C1225 C 0.49896 0.98539 0.52404 0.0
H1226 H 0.57903 0.72687 0.26206 0.0
H1227 H 0.40448 0.71165 0.28971 0.0
H1228 H 0.34985 0.73066 0.28042 0.0
H1229 H 0.55477 0.75656 0.28654 0.0
H1230 H 0.59037 0.76365 0.25939 0.0
H1231 H 0.61519 0.74896 0.26881 0.0
H1232 H 0.59044 0.74113 0.22353 0.0
H1233 H 0.56491 0.75578 0.21404 0.0
H1234 H 0.51283 0.74322 0.21047 0.0
H1235 H 0.31454 0.75128 0.26745 0.0
H1236 H 0.30164 0.77215 0.2536 0.0
H1237 H 0.49958 0.77369 0.23393 0.0
C1238 C 0.52938 0.72754 0.26637 0.0
C1239 C 0.49593 0.7178 0.27669 0.0
C1240 C 0.431 0.71903 0.28191 0.0
C1241 C 0.39962 0.72977 0.27661 0.0
C1242 C 0.43392 0.73914 0.26609 0.0
C1243 C 0.49745 0.73815 0.26116 0.0
C1244 C 0.5236 0.7495 0.24974 0.0
C1245 C 0.57395 0.75499 0.26717 0.0
C1246 C 0.54945 0.74727 0.22285 0.0
C1247 C 0.46483 0.75709 0.24898 0.0
C1248 C 0.41359 0.75094 0.25846 0.0
C1249 C 0.35432 0.75616 0.25999 0.0
C1250 C 0.34747 0.76801 0.25201 0.0
C1251 C 0.39956 0.77453 0.24258 0.0
C1252 C 0.45879 0.76891 0.24082 0.0
H1253 H 0.53246 0.47657 0.02125 0.0
H1254 H 0.33659 0.48301 0.00257 0.0
H1255 H 0.36148 0.50389 0.99212 0.0
H1256 H 0.56319 0.50566 0.0495 0.0
H1257 H 0.64151 0.50659 0.03661 0.0
H1258 H 0.60769 0.49226 0.0437 0.0
H1259 H 0.62805 0.4855 0.9973 0.0
H1260 H 0.66152 0.49983 0.99003 0.0
H1261 H 0.59686 0.49421 0.9714 0.0
H1262 H 0.40801 0.52398 0.98238 0.0
H1263 H 0.47336 0.5419 0.97498 0.0
H1264 H 0.63852 0.5223 -0.00045 0.0
C1265 C 0.49476 0.48242 0.01525 0.0
C1266 C 0.43259 0.47817 0.0128 0.0
C1267 C 0.38462 0.48607 0.00462 0.0
C1268 C 0.39823 0.49795 0.99862 0.0
C1269 C 0.46009 0.50183 0.00087 0.0
C1270 C 0.50757 0.49432 0.00908 0.0
C1271 C 0.57034 0.50068 0.00927 0.0
C1272 C 0.59724 0.50133 0.03639 0.0
C1273 C 0.61692 0.4947 0.9909 0.0
C1274 C 0.5507 0.51287 -0.00022 0.0
C1275 C 0.48691 0.51337 0.99509 0.0
C1276 C 0.45806 0.52371 0.98605 0.0
C1277 C 0.49546 0.53383 0.98184 0.0
C1278 C 0.5609 0.53349 0.98663 0.0
C1279 C 0.58859 0.52284 0.99565 0.0
H1280 H 0.22114 0.14387 0.27335 0.0
H1281 H 0.03998 0.15708 0.29873 0.0
H1282 H 0.00314 0.13642 0.30449 0.0
H1283 H 0.16458 0.12038 0.23717 0.0
H1284 H 0.22636 0.11002 0.24507 0.0
H1285 H 0.24135 0.12578 0.24601 0.0
H1286 H 0.27785 0.12401 0.29286 0.0
H1287 H 0.26298 0.1082 0.29207 0.0
H1288 H 0.22632 0.11733 0.31603 0.0
H1289 H 0.98117 0.11474 0.30179 0.0
H1290 H 0.97634 0.09324 0.2921 0.0
H1291 H 0.17283 0.09364 0.27046 0.0
C1292 C 0.17416 0.14241 0.28064 0.0
C1293 C 0.1334 0.15208 0.28567 0.0
C1294 C 0.07205 0.14981 0.29486 0.0
C1295 C 0.05078 0.1381 0.29825 0.0
C1296 C 0.0917 0.12876 0.29266 0.0
C1297 C 0.15231 0.13076 0.28428 0.0
C1298 C 0.18522 0.11913 0.27797 0.0
C1299 C 0.20554 0.11882 0.24989 0.0
C1300 C 0.24143 0.11705 0.2958 0.0
C1301 C 0.13283 0.11032 0.28321 0.0
C1302 C 0.07947 0.11609 0.29186 0.0
C1303 C 0.02302 0.11008 0.29564 0.0
C1304 C 0.02067 0.09789 0.29005 0.0
C1305 C 0.07452 0.09183 0.28106 0.0
C1306 C 0.13167 0.09804 0.2781 0.0
H1307 H 0.04724 0.14831 0.96711 0.0
H1308 H 0.23726 0.15922 0.94846 0.0
H1309 H 0.26573 0.13811 0.9406 0.0
H1310 H 0.08587 0.12301 0.00112 0.0
H1311 H 0.02074 0.11413 0.99007 0.0
H1312 H 0.01383 0.13009 0.99119 0.0
H1313 H 0.98494 0.13051 0.94332 0.0
H1314 H 0.99143 0.11451 0.94206 0.0
H1315 H 0.0367 0.12359 0.92055 0.0
H1316 H 0.27605 0.11566 0.94033 0.0
H1317 H 0.26662 0.09385 0.94551 0.0
H1318 H 0.06842 0.09778 0.96277 0.0
C1319 C 0.0946 0.1463 0.96089 0.0
C1320 C 0.14016 0.15538 0.95837 0.0
C1321 C 0.20161 0.15239 0.95033 0.0
C1322 C 0.21811 0.14043 0.94585 0.0
C1323 C 0.17228 0.13166 0.94914 0.0
C1324 C 0.11153 0.13448 0.95615 0.0
C1325 C 0.07182 0.12341 0.95978 0.0
C1326 C 0.04662 0.12262 0.98716 0.0
C1327 C 0.01804 0.12298 0.94026 0.0
C1328 C 0.12019 0.11385 0.95455 0.0
C1329 C 0.1778 0.11877 0.94832 0.0
C1330 C 0.23091 0.11171 0.94469 0.0
C1331 C 0.22513 0.09934 0.94775 0.0
C1332 C 0.16662 0.09415 0.95425 0.0
C1333 C 0.11337 0.1015 0.95726 0.0
H1334 H 0.9479 0.89841 0.72259 0.0
H1335 H 0.77217 0.90719 0.68506 0.0
H1336 H 0.75067 0.88574 0.67892 0.0
H1337 H 0.98629 0.87212 0.68298 0.0
H1338 H 0.01886 0.86406 0.70954 0.0
H1339 H 0.02323 0.8801 0.70872 0.0
H1340 H 0.96791 0.88116 0.75254 0.0
H1341 H 0.96326 0.86516 0.75348 0.0
H1342 H 0.89284 0.87397 0.7567 0.0
H1343 H 0.74265 0.86352 0.6814 0.0
H1344 H 0.75014 0.84203 0.6909 0.0
H1345 H 0.93318 0.84755 0.72525 0.0
C1346 C 0.90539 0.89583 0.71269 0.0
C1347 C 0.86166 0.90446 0.70425 0.0
C1348 C 0.80638 0.90073 0.69156 0.0
C1349 C 0.79385 0.88857 0.68797 0.0
C1350 C 0.83746 0.88028 0.69691 0.0
C1351 C 0.89243 0.88375 0.70879 0.0
C1352 C 0.92991 0.87306 0.71782 0.0
C1353 C 0.99333 0.87229 0.70393 0.0
C1354 C 0.93897 0.87336 0.74686 0.0
C1355 C 0.88652 0.86304 0.70987 0.0
C1356 C 0.83359 0.86741 0.69773 0.0
C1357 C 0.78437 0.85998 0.69043 0.0
C1358 C 0.78897 0.8478 0.69597 0.0
C1359 C 0.84256 0.84315 0.7085 0.0
C1360 C 0.89241 0.85085 0.71511 0.0
H1361 H 0.89915 0.90913 0.01541 0.0
H1362 H 0.7111 0.9104 0.04698 0.0
H1363 H 0.7172 0.88898 0.05725 0.0
H1364 H 0.87916 0.88215 0.98432 0.0
H1365 H 0.95771 0.87664 0.98953 0.0
H1366 H 0.94343 0.89243 0.9886 0.0
H1367 H 0.99367 0.89476 0.03322 0.0
H1368 H 0.00846 0.87895 0.03423 0.0
H1369 H 0.96439 0.88598 0.05936 0.0
H1370 H 0.73884 0.86712 0.06014 0.0
H1371 H 0.77381 0.84628 0.05419 0.0
H1372 H 0.94601 0.85899 0.01932 0.0
C1373 C 0.86024 0.90494 0.02522 0.0
C1374 C 0.80501 0.9114 0.03074 0.0
C1375 C 0.75399 0.90558 0.04276 0.0
C1376 C 0.75708 0.89344 0.04875 0.0
C1377 C 0.81142 0.8872 0.04244 0.0
C1378 C 0.86217 0.89273 0.03095 0.0
C1379 C 0.91212 0.88372 0.02372 0.0
C1380 C 0.92374 0.88374 0.99483 0.0
C1381 C 0.97328 0.88599 0.03852 0.0
C1382 C 0.88075 0.87228 0.0323 0.0
C1383 C 0.82318 0.87449 0.04344 0.0
C1384 C 0.78422 0.86528 0.05173 0.0
C1385 C 0.80437 0.85347 0.04826 0.0
C1386 C 0.86256 0.85102 0.03636 0.0
C1387 C 0.9014 0.86058 0.02864 0.0
H1388 H 0.0636 0.60546 0.75875 0.0
H1389 H 0.24305 0.59286 0.78745 0.0
H1390 H 0.2755 0.61365 0.79554 0.0
H1391 H 0.12222 0.63031 0.72593 0.0
H1392 H 0.05688 0.63996 0.7332 0.0
H1393 H 0.04548 0.62409 0.73183 0.0
H1394 H 0.00057 0.62433 0.77761 0.0
H1395 H 0.01191 0.64023 0.77913 0.0
H1396 H 0.04644 0.63073 0.80299 0.0
H1397 H 0.292 0.63561 0.79697 0.0
H1398 H 0.29204 0.65743 0.79171 0.0
H1399 H 0.10101 0.65605 0.76296 0.0
C1400 C 0.1094 0.60707 0.76708 0.0
C1401 C 0.15085 0.59755 0.77256 0.0
C1402 C 0.21056 0.60002 0.78318 0.0
C1403 C 0.22928 0.61179 0.78791 0.0
C1404 C 0.18757 0.62098 0.78205 0.0
C1405 C 0.12877 0.61877 0.77196 0.0
C1406 C 0.09434 0.63029 0.76609 0.0
C1407 C 0.07885 0.63121 0.73757 0.0
C1408 C 0.03478 0.63146 0.78244 0.0
C1409 C 0.14363 0.63933 0.77388 0.0
C1410 C 0.19683 0.63373 0.7832 0.0
C1411 C 0.25033 0.6401 0.79006 0.0
C1412 C 0.24992 0.65248 0.78695 0.0
C1413 C 0.19633 0.6584 0.77715 0.0
C1414 C 0.14208 0.65176 0.77098 0.0
H1415 H 0.1843 0.65525 0.48785 0.0
H1416 H 0.10863 0.66484 0.41425 0.0
H1417 H 0.10471 0.64346 0.40223 0.0
H1418 H 0.28119 0.62933 0.46447 0.0
H1419 H 0.26612 0.62108 0.49323 0.0
H1420 H 0.27038 0.63711 0.49414 0.0
H1421 H 0.15991 0.63776 0.51483 0.0
H1422 H 0.15461 0.62179 0.51349 0.0
H1423 H 0.09459 0.6308 0.49879 0.0
H1424 H 0.0904 0.62088 0.40214 0.0
H1425 H 0.08401 0.59917 0.41101 0.0
H1426 H 0.17824 0.60474 0.48309 0.0
C1427 C 0.16933 0.65283 0.46885 0.0
C1428 C 0.14763 0.66157 0.45177 0.0
C1429 C 0.12678 0.65821 0.42728 0.0
C1430 C 0.12394 0.64611 0.42043 0.0
C1431 C 0.14361 0.63761 0.43812 0.0
C1432 C 0.16778 0.64087 0.46154 0.0
C1433 C 0.18342 0.63011 0.47762 0.0
C1434 C 0.25451 0.62936 0.48265 0.0
C1435 C 0.14587 0.63013 0.50265 0.0
C1436 C 0.16186 0.62026 0.46008 0.0
C1437 C 0.13863 0.6247 0.43743 0.0
C1438 C 0.11016 0.61728 0.41948 0.0
C1439 C 0.10625 0.60501 0.42472 0.0
C1440 C 0.13154 0.60034 0.44751 0.0
C1441 C 0.15991 0.60807 0.46524 0.0
H1442 H 0.95825 0.3422 0.21558 0.0
H1443 H 0.78329 0.33658 0.17531 0.0
H1444 H 0.77684 0.35811 0.1658 0.0
H1445 H 0.90956 0.36692 0.2469 0.0
H1446 H 0.98299 0.37492 0.2464 0.0
H1447 H 0.98292 0.35893 0.24472 0.0
H1448 H 0.04636 0.35965 0.20273 0.0
H1449 H 0.04753 0.37569 0.20446 0.0
H1450 H 0.0175 0.3684 0.17644 0.0
H1451 H 0.7802 0.38032 0.16662 0.0
H1452 H 0.79355 0.40159 0.17755 0.0
H1453 H 0.96404 0.39297 0.21898 0.0
C1454 C 0.92051 0.34548 0.20364 0.0
C1455 C 0.87226 0.33779 0.19542 0.0
C1456 C 0.8214 0.34238 0.18114 0.0
C1457 C 0.81735 0.35457 0.17571 0.0
C1458 C 0.8643 0.36207 0.18495 0.0
C1459 C 0.91521 0.3577 0.1985 0.0
C1460 C 0.95429 0.36779 0.20934 0.0
C1461 C 0.95758 0.36709 0.23856 0.0
C1462 C 0.02034 0.36789 0.19753 0.0
C1463 C 0.91612 0.37844 0.20064 0.0
C1464 C 0.86507 0.37497 0.1862 0.0
C1465 C 0.82066 0.38317 0.17752 0.0
C1466 C 0.82844 0.39522 0.18389 0.0
C1467 C 0.87985 0.39893 0.19903 0.0
C1468 C 0.92454 0.39042 0.20717 0.0
H1469 H 0.9432 0.35878 0.49035 0.0
H1470 H 0.8831 0.35032 0.56695 0.0
H1471 H 0.87655 0.37193 0.57686 0.0
H1472 H 0.03386 0.38544 0.50431 0.0
H1473 H 0.0069 0.39311 0.47623 0.0
H1474 H 0.01327 0.3771 0.47622 0.0
H1475 H 0.8961 0.37525 0.46309 0.0
H1476 H 0.88982 0.39122 0.46263 0.0
H1477 H 0.83681 0.38257 0.48195 0.0
H1478 H 0.87541 0.3947 0.57771 0.0
H1479 H 0.8612 0.41612 0.56733 0.0
H1480 H 0.9139 0.40905 0.48931 0.0
C1481 C 0.92931 0.36149 0.5093 0.0
C1482 C 0.91431 0.35297 0.52802 0.0
C1483 C 0.89482 0.35678 0.55241 0.0
C1484 C 0.89161 0.369 0.55823 0.0
C1485 C 0.90725 0.37721 0.53931 0.0
C1486 C 0.9245 0.37357 0.51519 0.0
C1487 C 0.93244 0.38402 0.49737 0.0
C1488 C 0.00069 0.38497 0.48799 0.0
C1489 C 0.88601 0.38322 0.47495 0.0
C1490 C 0.91617 0.39415 0.51508 0.0
C1491 C 0.90344 0.39013 0.5394 0.0
C1492 C 0.88565 0.39794 0.55878 0.0
C1493 C 0.87831 0.41008 0.55284 0.0
C1494 C 0.88747 0.41413 0.52767 0.0
C1495 C 0.90784 0.40613 0.50879 0.0
H1496 H 0.64456 0.09311 0.75553 0.0
H1497 H 0.474 0.08654 0.79841 0.0
H1498 H 0.47134 0.10759 0.81166 0.0
H1499 H 0.71203 0.11634 0.79937 0.0
H1500 H 0.74171 0.12502 0.77316 0.0
H1501 H 0.73636 0.10904 0.77047 0.0
H1502 H 0.6692 0.11142 0.72967 0.0
H1503 H 0.67375 0.12737 0.73238 0.0
H1504 H 0.59814 0.12016 0.73082 0.0
H1505 H 0.47822 0.12959 0.81549 0.0
H1506 H 0.49695 0.15121 0.81086 0.0
H1507 H 0.66295 0.14382 0.7656 0.0
C1508 C 0.60803 0.09605 0.76842 0.0
C1509 C 0.55981 0.08821 0.77616 0.0
C1510 C 0.51153 0.09242 0.79237 0.0
C1511 C 0.50968 0.10435 0.80005 0.0
C1512 C 0.55652 0.11198 0.79139 0.0
C1513 C 0.60518 0.10801 0.77612 0.0
C1514 C 0.6461 0.11832 0.76757 0.0
C1515 C 0.71302 0.11711 0.77829 0.0
C1516 C 0.64679 0.11938 0.73839 0.0
C1517 C 0.61155 0.12868 0.7797 0.0
C1518 C 0.56041 0.1248 0.79358 0.0
C1519 C 0.51878 0.13275 0.80507 0.0
C1520 C 0.52959 0.145 0.80224 0.0
C1521 C 0.58154 0.14917 0.78803 0.0
C1522 C 0.62333 0.14088 0.77689 0.0
H1523 H 0.61629 0.15665 0.45831 0.0
H1524 H 0.79424 0.16546 0.49376 0.0
H1525 H 0.82372 0.14403 0.49338 0.0
H1526 H 0.58574 0.13145 0.49281 0.0
H1527 H 0.55025 0.12323 0.46711 0.0
H1528 H 0.54796 0.13923 0.46699 0.0
H1529 H 0.60128 0.13961 0.42268 0.0
H1530 H 0.60319 0.12356 0.42252 0.0
H1531 H 0.67474 0.13189 0.41805 0.0
H1532 H 0.82579 0.12107 0.49416 0.0
H1533 H 0.80277 0.09938 0.49387 0.0
H1534 H 0.62425 0.10649 0.45699 0.0
C1535 C 0.66215 0.15412 0.46546 0.0
C1536 C 0.7031 0.16266 0.47603 0.0
C1537 C 0.76252 0.15902 0.48534 0.0
C1538 C 0.77946 0.14688 0.48526 0.0
C1539 C 0.7368 0.13861 0.47541 0.0
C1540 C 0.67976 0.14216 0.46531 0.0
C1541 C 0.64008 0.13166 0.45733 0.0
C1542 C 0.57735 0.13138 0.47194 0.0
C1543 C 0.62922 0.13168 0.42843 0.0
C1544 C 0.6826 0.12155 0.46524 0.0
C1545 C 0.73842 0.12565 0.4755 0.0
C1546 C 0.78272 0.1178 0.48572 0.0
C1547 C 0.76925 0.10551 0.48554 0.0
C1548 C 0.71193 0.10125 0.47528 0.0
C1549 C 0.66883 0.10942 0.46473 0.0
H1550 H 0.33761 0.90288 0.24112 0.0
H1551 H 0.53473 0.90922 0.22482 0.0
H1552 H 0.55004 0.88777 0.21667 0.0
H1553 H 0.36079 0.87574 0.27462 0.0
H1554 H 0.29054 0.86872 0.26268 0.0
H1555 H 0.29407 0.88469 0.26551 0.0
H1556 H 0.26582 0.88681 0.21777 0.0
H1557 H 0.26232 0.87083 0.21479 0.0
H1558 H 0.31321 0.87932 0.19427 0.0
H1559 H 0.5449 0.8655 0.21158 0.0
H1560 H 0.52013 0.84395 0.2118 0.0
H1561 H 0.32727 0.85212 0.2323 0.0
C1562 C 0.38379 0.89976 0.23559 0.0
C1563 C 0.43492 0.90771 0.23351 0.0
C1564 C 0.49486 0.90328 0.22654 0.0
C1565 C 0.50402 0.89111 0.22177 0.0
C1566 C 0.45281 0.88348 0.22414 0.0
C1567 C 0.39391 0.88761 0.23097 0.0
C1568 C 0.34753 0.87744 0.23341 0.0
C1569 C 0.32174 0.8766 0.26067 0.0
C1570 C 0.29407 0.87868 0.21389 0.0
C1571 C 0.38973 0.86697 0.22717 0.0
C1572 C 0.45013 0.87064 0.22162 0.0
C1573 C 0.49767 0.86252 0.21578 0.0
C1574 C 0.4832 0.85031 0.21592 0.0
C1575 C 0.42187 0.84637 0.22204 0.0
C1576 C 0.3746 0.85486 0.22747 0.0
H1577 H 0.35051 0.90348 0.53005 0.0
H1578 H 0.54127 0.90949 0.55642 0.0
H1579 H 0.55705 0.88773 0.55996 0.0
H1580 H 0.31748 0.87743 0.57 0.0
H1581 H 0.2727 0.87006 0.54551 0.0
H1582 H 0.27486 0.8861 0.54685 0.0
H1583 H 0.31429 0.88682 0.50027 0.0
H1584 H 0.31217 0.87081 0.49877 0.0
H1585 H 0.38397 0.87863 0.49158 0.0
H1586 H 0.55461 0.86552 0.55759 0.0
H1587 H 0.53497 0.84423 0.54929 0.0
H1588 H 0.34487 0.8525 0.52506 0.0
C1589 C 0.3954 0.90023 0.53686 0.0
C1590 C 0.44473 0.90816 0.54303 0.0
C1591 C 0.50288 0.90356 0.55165 0.0
C1592 C 0.51216 0.89123 0.55378 0.0
C1593 C 0.4627 0.88365 0.54735 0.0
C1594 C 0.40539 0.88796 0.53912 0.0
C1595 C 0.36098 0.8779 0.53222 0.0
C1596 C 0.30308 0.87788 0.54969 0.0
C1597 C 0.34175 0.87858 0.50404 0.0
C1598 C 0.40274 0.86723 0.53733 0.0
C1599 C 0.46106 0.87077 0.54621 0.0
C1600 C 0.50894 0.86263 0.55094 0.0
C1601 C 0.49733 0.85056 0.54611 0.0
C1602 C 0.43827 0.84673 0.53669 0.0
C1603 C 0.39005 0.85516 0.53267 0.0
H1604 H 0.65981 0.64456 0.28499 0.0
H1605 H 0.46506 0.65022 0.30636 0.0
H1606 H 0.45012 0.62843 0.30968 0.0
H1607 H 0.63454 0.62013 0.24576 0.0
H1608 H 0.70509 0.61225 0.2546 0.0
H1609 H 0.70244 0.62823 0.25682 0.0
H1610 H 0.73368 0.62704 0.30437 0.0
H1611 H 0.73643 0.61101 0.30231 0.0
H1612 H 0.68742 0.61809 0.32582 0.0
H1613 H 0.45281 0.60631 0.30544 0.0
H1614 H 0.4731 0.58525 0.29473 0.0
H1615 H 0.66737 0.59368 0.27777 0.0
C1616 C 0.61429 0.64123 0.29083 0.0
C1617 C 0.56352 0.64907 0.29548 0.0
C1618 C 0.50459 0.64437 0.30282 0.0
C1619 C 0.49577 0.63201 0.30481 0.0
C1620 C 0.54655 0.62452 0.29969 0.0
C1621 C 0.60482 0.62894 0.29304 0.0
C1622 C 0.6505 0.61896 0.28692 0.0
C1623 C 0.67451 0.61995 0.25939 0.0
C1624 C 0.70525 0.61877 0.306 0.0
C1625 C 0.60822 0.60822 0.29031 0.0
C1626 C 0.54856 0.61165 0.29788 0.0
C1627 C 0.4996 0.6035 0.30005 0.0
C1628 C 0.51152 0.59158 0.29389 0.0
C1629 C 0.57197 0.58789 0.28588 0.0
C1630 C 0.6213 0.59625 0.2846 0.0
H1631 H 0.55802 0.65396 0.98731 0.0
H1632 H 0.74463 0.66476 0.96326 0.0
H1633 H 0.77064 0.64377 0.95369 0.0
H1634 H 0.60392 0.62761 0.01852 0.0
H1635 H 0.53605 0.61909 0.00902 0.0
H1636 H 0.53044 0.63502 0.01202 0.0
H1637 H 0.4907 0.63649 0.96554 0.0
H1638 H 0.49632 0.62053 0.96237 0.0
H1639 H 0.53691 0.63009 0.94027 0.0
H1640 H 0.77909 0.62167 0.94995 0.0
H1641 H 0.77015 0.5998 0.95241 0.0
H1642 H 0.57718 0.60319 0.97806 0.0
C1643 C 0.60413 0.65192 0.97974 0.0
C1644 C 0.64937 0.66098 0.97596 0.0
C1645 C 0.70929 0.65796 0.96624 0.0
C1646 C 0.72438 0.64607 0.96069 0.0
C1647 C 0.67888 0.63735 0.96482 0.0
C1648 C 0.6199 0.64011 0.97406 0.0
C1649 C 0.58066 0.62898 0.97797 0.0
C1650 C 0.56168 0.6276 0.00605 0.0
C1651 C 0.52272 0.62903 0.96049 0.0
C1652 C 0.62731 0.61949 0.97002 0.0
C1653 C 0.6835 0.62454 0.96235 0.0
C1654 C 0.73512 0.61762 0.95559 0.0
C1655 C 0.72958 0.60521 0.9571 0.0
C1656 C 0.67282 0.59983 0.96522 0.0
C1657 C 0.62068 0.60707 0.97132 0.0
H1658 H 0.43084 0.39794 0.73326 0.0
H1659 H 0.23595 0.40812 0.72193 0.0
H1660 H 0.2067 0.38682 0.71876 0.0
H1661 H 0.431 0.3723 0.69052 0.0
H1662 H 0.48169 0.36365 0.71088 0.0
H1663 H 0.48767 0.37966 0.71059 0.0
H1664 H 0.47016 0.38015 0.75933 0.0
H1665 H 0.46415 0.36416 0.75979 0.0
H1666 H 0.40138 0.37313 0.77259 0.0
H1667 H 0.19827 0.36456 0.71924 0.0
H1668 H 0.20988 0.34285 0.72385 0.0
H1669 H 0.41091 0.34707 0.73482 0.0
C1670 C 0.38203 0.39571 0.72984 0.0
C1671 C 0.33555 0.40468 0.72775 0.0
C1672 C 0.27223 0.40139 0.72351 0.0
C1673 C 0.2553 0.38933 0.72164 0.0
C1674 C 0.30232 0.38072 0.72397 0.0
C1675 C 0.3644 0.38376 0.72795 0.0
C1676 C 0.40547 0.37279 0.73091 0.0
C1677 C 0.45434 0.37206 0.70944 0.0
C1678 C 0.43713 0.37255 0.75722 0.0
C1679 C 0.35659 0.36307 0.72841 0.0
C1680 C 0.2975 0.36785 0.72424 0.0
C1681 C 0.24432 0.36072 0.7223 0.0
C1682 C 0.25148 0.34839 0.72501 0.0
C1683 C 0.31138 0.34327 0.72964 0.0
C1684 C 0.36472 0.35072 0.73101 0.0
H1685 H 0.31992 0.40251 0.0357 0.0
H1686 H 0.51919 0.40873 0.04723 0.0
H1687 H 0.5353 0.38707 0.05362 0.0
H1688 H 0.30395 0.37811 0.08223 0.0
H1689 H 0.24841 0.37017 0.06265 0.0
H1690 H 0.25215 0.3862 0.0613 0.0
H1691 H 0.26975 0.38518 0.0126 0.0
H1692 H 0.26621 0.36918 0.01378 0.0
H1693 H 0.33394 0.37643 0.00024 0.0
H1694 H 0.53087 0.36464 0.0539 0.0
H1695 H 0.50626 0.34323 0.04969 0.0
H1696 H 0.30892 0.35172 0.03973 0.0
C1697 C 0.36688 0.39935 0.03995 0.0
C1698 C 0.41843 0.40728 0.04097 0.0
C1699 C 0.47908 0.4028 0.04648 0.0
C1700 C 0.48858 0.39053 0.05014 0.0
C1701 C 0.43679 0.38292 0.04856 0.0
C1702 C 0.37701 0.38718 0.04385 0.0
C1703 C 0.32967 0.37714 0.04191 0.0
C1704 C 0.28065 0.37796 0.0633 0.0
C1705 C 0.29807 0.37697 0.01557 0.0
C1706 C 0.37238 0.36648 0.04553 0.0
C1707 C 0.43396 0.37002 0.04944 0.0
C1708 C 0.48271 0.36179 0.05132 0.0
C1709 C 0.46829 0.34965 0.04884 0.0
C1710 C 0.40562 0.34585 0.0447 0.0
C1711 C 0.35698 0.35438 0.04348 0.0
H1712 H 0.9475 0.04693 0.33212 0.0
H1713 H 0.8219 0.05981 0.27327 0.0
H1714 H 0.73534 0.06088 0.30482 0.0
H1715 H 0.83035 0.02951 0.36857 0.0
H1716 H 0.86585 0.03369 0.39839 0.0
H1717 H 0.91372 0.03228 0.37029 0.0
H1718 H 0.95405 0.05387 0.37669 0.0
H1719 H 0.90613 0.05539 0.40461 0.0
H1720 H 0.89811 0.0659 0.3789 0.0
H1721 H 0.66658 0.06279 0.34473 0.0
H1722 H 0.62359 0.06526 0.38829 0.0
H1723 H 0.79704 0.05119 0.41957 0.0
C1724 C 0.90143 0.04971 0.32566 0.0
C1725 C 0.89121 0.05325 0.30029 0.0
C1726 C 0.83045 0.05696 0.29263 0.0
C1727 C 0.78113 0.05759 0.31042 0.0
C1728 C 0.79348 0.05436 0.33558 0.0
C1729 C 0.85221 0.05039 0.34303 0.0
C1730 C 0.85581 0.0484 0.37137 0.0
C1731 C 0.86708 0.03518 0.37751 0.0
C1732 C 0.90649 0.05637 0.38359 0.0
C1733 C 0.79056 0.05225 0.37898 0.0
C1734 C 0.7547 0.05552 0.35819 0.0
C1735 C 0.69401 0.06008 0.36107 0.0
C1736 C 0.66997 0.06146 0.38583 0.0
C1737 C 0.70702 0.05841 0.40724 0.0
C1738 C 0.76745 0.05356 0.40358 0.0
H1739 H 0.27182 0.19111 0.35192 0.0
H1740 H 0.39962 0.19862 0.28967 0.0
H1741 H 0.48538 0.20212 0.3205 0.0
H1742 H 0.33537 0.21293 0.39644 0.0
H1743 H 0.32501 0.20335 0.42363 0.0
H1744 H 0.27287 0.20208 0.39675 0.0
H1745 H 0.2999 0.17964 0.39291 0.0
H1746 H 0.35209 0.18084 0.41974 0.0
H1747 H 0.38093 0.17514 0.3899 0.0
H1748 H 0.55797 0.20397 0.35783 0.0
H1749 H 0.61315 0.20383 0.3991 0.0
H1750 H 0.43831 0.19502 0.43721 0.0
C1751 C 0.3177 0.19361 0.34479 0.0
C1752 C 0.32911 0.19464 0.31841 0.0
C1753 C 0.38988 0.1978 0.3098 0.0
C1754 C 0.43881 0.19983 0.32716 0.0
C1755 C 0.42612 0.19866 0.35304 0.0
C1756 C 0.36709 0.19562 0.36185 0.0
C1757 C 0.36652 0.1945 0.39056 0.0
C1758 C 0.32232 0.20377 0.40255 0.0
C1759 C 0.34883 0.18178 0.39875 0.0
C1760 C 0.43468 0.19724 0.39652 0.0
C1761 C 0.46811 0.19968 0.3746 0.0
C1762 C 0.53222 0.20215 0.37513 0.0
C1763 C 0.56313 0.20204 0.39867 0.0
C1764 C 0.52999 0.19945 0.42136 0.0
C1765 C 0.46479 0.19711 0.42021 0.0
H1766 H 0.81225 0.18994 0.81937 0.0
H1767 H 0.63932 0.19354 0.86254 0.0
H1768 H 0.70021 0.19525 0.90208 0.0
H1769 H 0.89253 0.17202 0.86435 0.0
H1770 H 0.96842 0.17881 0.85964 0.0
H1771 H 0.9119 0.17867 0.83415 0.0
H1772 H 0.91947 0.20165 0.83054 0.0
H1773 H 0.97629 0.20185 0.85597 0.0
H1774 H 0.90584 0.21071 0.8583 0.0
H1775 H 0.77785 0.19513 0.93727 0.0
H1776 H 0.86951 0.194 0.96603 0.0
H1777 H 0.99316 0.19092 0.90073 0.0
C1778 C 0.78742 0.19127 0.83711 0.0
C1779 C 0.72104 0.19161 0.83784 0.0
C1780 C 0.69014 0.19323 0.86147 0.0
C1781 C 0.72427 0.19423 0.88409 0.0
C1782 C 0.78944 0.19366 0.88284 0.0
C1783 C 0.82093 0.1923 0.86002 0.0
C1784 C 0.89133 0.19157 0.86432 0.0
C1785 C 0.91756 0.17955 0.85507 0.0
C1786 C 0.92522 0.20207 0.85152 0.0
C1787 C 0.89407 0.19254 0.89308 0.0
C1788 C 0.8347 0.19376 0.90333 0.0
C1789 C 0.82474 0.19432 0.9295 0.0
C1790 C 0.87698 0.19363 0.94567 0.0
C1791 C 0.9383 0.19245 0.93561 0.0
C1792 C 0.94682 0.19196 0.90895 0.0
H1793 H 0.2117 0.05028 0.88565 0.0
H1794 H 0.34968 0.0386 0.94108 0.0
H1795 H 0.4222 0.03319 0.90619 0.0
H1796 H 0.2494 0.02796 0.83538 0.0
H1797 H 0.23772 0.03873 0.81039 0.0
H1798 H 0.19317 0.03983 0.83944 0.0
H1799 H 0.23256 0.06149 0.8457 0.0
H1800 H 0.27699 0.06046 0.81675 0.0
H1801 H 0.31591 0.0644 0.84601 0.0
H1802 H 0.48398 0.03153 0.86585 0.0
H1803 H 0.53171 0.0344 0.82355 0.0
H1804 H 0.35318 0.04721 0.79448 0.0
C1805 C 0.25657 0.0463 0.89045 0.0
C1806 C 0.27505 0.04478 0.91602 0.0
C1807 C 0.33457 0.03978 0.92158 0.0
C1808 C 0.37587 0.03663 0.90189 0.0
C1809 C 0.35664 0.03848 0.87684 0.0
C1810 C 0.29828 0.04317 0.87109 0.0
C1811 C 0.29133 0.04546 0.84287 0.0
C1812 C 0.23985 0.03752 0.83134 0.0
C1813 C 0.27848 0.05874 0.83754 0.0
C1814 C 0.35581 0.04177 0.83371 0.0
C1815 C 0.39242 0.03756 0.85352 0.0
C1816 C 0.45543 0.03459 0.85012 0.0
C1817 C 0.48213 0.03627 0.82603 0.0
C1818 C 0.44592 0.04094 0.80574 0.0
C1819 C 0.38158 0.04339 0.80951 0.0
H1820 H 0.20916 0.94643 0.57315 0.0
H1821 H 0.37176 0.9507 0.62218 0.0
H1822 H 0.30227 0.95118 0.65975 0.0
H1823 H 0.1029 0.96555 0.60943 0.0
H1824 H 0.03577 0.95611 0.60384 0.0
H1825 H 0.09815 0.95681 0.58074 0.0
H1826 H 0.11114 0.93387 0.58324 0.0
H1827 H 0.04899 0.93311 0.60639 0.0
H1828 H 0.12517 0.92695 0.61365 0.0
H1829 H 0.21517 0.95018 0.69227 0.0
H1830 H 0.11678 0.94792 0.71697 0.0
H1831 H 0.01188 0.94435 0.64658 0.0
C1832 C 0.23005 0.94762 0.59176 0.0
C1833 C 0.29581 0.94857 0.59474 0.0
C1834 C 0.32143 0.94998 0.61944 0.0
C1835 C 0.28237 0.95027 0.64091 0.0
C1836 C 0.21776 0.94917 0.63736 0.0
C1837 C 0.19175 0.94791 0.6134 0.0
C1838 C 0.1211 0.94648 0.61484 0.0
C1839 C 0.08751 0.95686 0.60142 0.0
C1840 C 0.10042 0.93438 0.60389 0.0
C1841 C 0.11156 0.94698 0.64335 0.0
C1842 C 0.16778 0.94859 0.65603 0.0
C1843 C 0.17077 0.949 0.68253 0.0
C1844 C 0.11476 0.9477 0.6964 0.0
C1845 C 0.05677 0.946 0.68371 0.0
C1846 C 0.05544 0.94571 0.65685 0.0
H1847 H 0.76742 0.79831 0.64854 0.0
H1848 H 0.63324 0.79222 0.70924 0.0
H1849 H 0.54929 0.78923 0.67739 0.0
H1850 H 0.67203 0.81558 0.61184 0.0
H1851 H 0.69862 0.81009 0.5815 0.0
H1852 H 0.7501 0.80951 0.60856 0.0
H1853 H 0.76404 0.78675 0.6024 0.0
H1854 H 0.71272 0.78726 0.57513 0.0
H1855 H 0.69568 0.77728 0.60108 0.0
H1856 H 0.47783 0.79011 0.63974 0.0
H1857 H 0.42444 0.79449 0.59911 0.0
H1858 H 0.60533 0.79976 0.56282 0.0
C1859 C 0.72077 0.79598 0.65511 0.0
C1860 C 0.70678 0.79543 0.68131 0.0
C1861 C 0.64498 0.79261 0.68922 0.0
C1862 C 0.59707 0.79086 0.67127 0.0
C1863 C 0.61202 0.79185 0.64555 0.0
C1864 C 0.67254 0.79423 0.63746 0.0
C1865 C 0.67512 0.79608 0.60897 0.0
C1866 C 0.70043 0.80855 0.60235 0.0
C1867 C 0.7142 0.78625 0.59614 0.0
C1868 C 0.60617 0.7949 0.60241 0.0
C1869 C 0.57065 0.79228 0.62371 0.0
C1870 C 0.50523 0.79189 0.62284 0.0
C1871 C 0.47533 0.79443 0.59971 0.0
C1872 C 0.51089 0.79735 0.57784 0.0
C1873 C 0.5771 0.7973 0.57913 0.0
H1874 H 0.18832 0.81107 0.18135 0.0
H1875 H 0.36494 0.80828 0.14049 0.0
H1876 H 0.30769 0.80922 0.09971 0.0
H1877 H 0.09663 0.79306 0.13771 0.0
H1878 H 0.0271 0.80211 0.14101 0.0
H1879 H 0.08206 0.80097 0.16696 0.0
H1880 H 0.09269 0.82397 0.16792 0.0
H1881 H 0.03799 0.82518 0.14191 0.0
H1882 H 0.11496 0.83178 0.13936 0.0
H1883 H 0.23131 0.81115 0.06328 0.0
H1884 H 0.14067 0.81318 0.03404 0.0
H1885 H 0.01457 0.81443 0.09882 0.0
C1886 C 0.21489 0.81058 0.16383 0.0
C1887 C 0.28104 0.8096 0.16408 0.0
C1888 C 0.31418 0.80901 0.14074 0.0
C1889 C 0.28213 0.80956 0.11748 0.0
C1890 C 0.21694 0.81063 0.11787 0.0
C1891 C 0.18364 0.81107 0.14043 0.0
C1892 C 0.11382 0.81231 0.1356 0.0
C1893 C 0.07779 0.80147 0.14593 0.0
C1894 C 0.0884 0.82401 0.14686 0.0
C1895 C 0.11313 0.81258 0.10683 0.0
C1896 C 0.17303 0.81162 0.09693 0.0
C1897 C 0.18412 0.81185 0.0708 0.0
C1898 C 0.13247 0.81303 0.05435 0.0
C1899 C 0.07072 0.81393 0.06416 0.0
C1900 C 0.06123 0.81371 0.09074 0.0
H1901 H 0.72279 0.95177 0.09354 0.0
H1902 H 0.56943 0.95651 0.04003 0.0
H1903 H 0.4954 0.95891 0.07587 0.0
H1904 H 0.63979 0.93411 0.13664 0.0
H1905 H 0.67594 0.94021 0.16477 0.0
H1906 H 0.71792 0.94028 0.13509 0.0
H1907 H 0.73278 0.96314 0.13861 0.0
H1908 H 0.69081 0.96314 0.16837 0.0
H1909 H 0.66496 0.97258 0.14269 0.0
H1910 H 0.43716 0.95901 0.11705 0.0
H1911 H 0.39778 0.95644 0.16077 0.0
H1912 H 0.5888 0.95156 0.18784 0.0
C1913 C 0.67382 0.95355 0.08936 0.0
C1914 C 0.65179 0.95404 0.06402 0.0
C1915 C 0.58726 0.95615 0.05931 0.0
C1916 C 0.54496 0.95756 0.07954 0.0
C1917 C 0.56805 0.95685 0.10431 0.0
C1918 C 0.63097 0.95491 0.10931 0.0
C1919 C 0.6429 0.95364 0.13761 0.0
C1920 C 0.67076 0.94133 0.14388 0.0
C1921 C 0.68538 0.96373 0.14739 0.0
C1922 C 0.57658 0.95489 0.14772 0.0
C1923 C 0.53428 0.95686 0.12818 0.0
C1924 C 0.46988 0.95761 0.13253 0.0
C1925 C 0.44799 0.95612 0.15743 0.0
C1926 C 0.4903 0.95388 0.17769 0.0
C1927 C 0.55551 0.95347 0.17279 0.0
H1928 H 0.02189 0.55874 0.84043 0.0
H1929 H 0.88743 0.55165 0.78021 0.0
H1930 H 0.80399 0.54881 0.8123 0.0
H1931 H 0.95677 0.53758 0.88703 0.0
H1932 H 0.97183 0.54738 0.91349 0.0
H1933 H 0.02214 0.54778 0.88594 0.0
H1934 H 0.00105 0.57041 0.88106 0.0
H1935 H 0.95081 0.57008 0.90855 0.0
H1936 H 0.92115 0.57567 0.87874 0.0
H1937 H 0.73389 0.54848 0.85039 0.0
H1938 H 0.68141 0.55072 0.89193 0.0
H1939 H 0.86164 0.55772 0.9276 0.0
C1940 C 0.97508 0.55641 0.83402 0.0
C1941 C 0.96103 0.55537 0.80786 0.0
C1942 C 0.89916 0.55245 0.80017 0.0
C1943 C 0.85155 0.55079 0.81825 0.0
C1944 C 0.8668 0.55202 0.8439 0.0
C1945 C 0.92709 0.55472 0.8518 0.0
C1946 C 0.93027 0.55621 0.8804 0.0
C1947 C 0.97277 0.54666 0.89242 0.0
C1948 C 0.95209 0.56884 0.8876 0.0
C1949 C 0.86201 0.55422 0.8873 0.0
C1950 C 0.82633 0.55172 0.86597 0.0
C1951 C 0.76143 0.55027 0.86727 0.0
C1952 C 0.73206 0.55158 0.89093 0.0
C1953 C 0.7676 0.5543 0.91296 0.0
C1954 C 0.83351 0.55543 0.91114 0.0
H1955 H 0.39738 0.69796 0.81554 0.0
H1956 H 0.21505 0.70825 0.84531 0.0
H1957 H 0.26203 0.71136 0.88765 0.0
H1958 H 0.44419 0.68133 0.86879 0.0
H1959 H 0.52576 0.68564 0.86759 0.0
H1960 H 0.47957 0.68546 0.83892 0.0
H1961 H 0.50785 0.70757 0.8306 0.0
H1962 H 0.55436 0.70781 0.85925 0.0
H1963 H 0.49229 0.71855 0.85482 0.0
H1964 H 0.32622 0.71181 0.92737 0.0
H1965 H 0.40392 0.70949 0.96195 0.0
H1966 H 0.54472 0.69883 0.90676 0.0
C1967 C 0.36771 0.7011 0.83087 0.0
C1968 C 0.30267 0.70293 0.82713 0.0
C1969 C 0.26505 0.70682 0.84775 0.0
C1970 C 0.29131 0.70864 0.87186 0.0
C1971 C 0.35531 0.70656 0.87507 0.0
C1972 C 0.39315 0.7029 0.85516 0.0
C1973 C 0.45968 0.70054 0.86418 0.0
C1974 C 0.47836 0.68746 0.8596 0.0
C1975 C 0.50629 0.70913 0.85145 0.0
C1976 C 0.45289 0.7032 0.8923 0.0
C1977 C 0.39243 0.70676 0.89813 0.0
C1978 C 0.37394 0.70917 0.92302 0.0
C1979 C 0.41832 0.70781 0.94253 0.0
C1980 C 0.48034 0.70404 0.93702 0.0
C1981 C 0.49783 0.70185 0.91152 0.0
H1982 H 0.9803 0.6948 0.40101 0.0
H1983 H 0.8674 0.69423 0.46969 0.0
H1984 H 0.77075 0.69348 0.44341 0.0
H1985 H 0.8764 0.71309 0.36324 0.0
H1986 H 0.89143 0.70495 0.33433 0.0
H1987 H 0.95113 0.70584 0.35856 0.0
H1988 H 0.95743 0.68279 0.36007 0.0
H1989 H 0.89785 0.68183 0.33583 0.0
H1990 H 0.88696 0.67428 0.36575 0.0
H1991 H 0.68711 0.69249 0.40952 0.0
H1992 H 0.62225 0.69074 0.37083 0.0
H1993 H 0.79064 0.69168 0.3243 0.0
C1994 C 0.93524 0.69459 0.41057 0.0
C1995 C 0.93118 0.69463 0.4374 0.0
C1996 C 0.87144 0.69424 0.44917 0.0
C1997 C 0.81642 0.69383 0.4344 0.0
C1998 C 0.82221 0.69379 0.40797 0.0
C1999 C 0.88014 0.69413 0.39618 0.0
C2000 C 0.87379 0.69366 0.3675 0.0
C2001 C 0.89972 0.70507 0.35519 0.0
C2002 C 0.9059 0.68247 0.35666 0.0
C2003 C 0.80307 0.69294 0.36492 0.0
C2004 C 0.77421 0.69309 0.38848 0.0
C2005 C 0.70921 0.69239 0.39099 0.0
C2006 C 0.67281 0.6914 0.36888 0.0
C2007 C 0.70142 0.69109 0.34454 0.0
C2008 C 0.76743 0.69194 0.34261 0.0
H2009 H 0.50072 0.55088 0.34309 0.0
H2010 H 0.37521 0.5398 0.2825 0.0
H2011 H 0.28806 0.53833 0.31334 0.0
H2012 H 0.42869 0.53286 0.39507 0.0
H2013 H 0.43939 0.5446 0.41808 0.0
H2014 H 0.49414 0.54297 0.39215 0.0
H2015 H 0.47406 0.56488 0.37897 0.0
H2016 H 0.41919 0.56657 0.40471 0.0
H2017 H 0.39479 0.56973 0.37259 0.0
H2018 H 0.213 0.54026 0.34901 0.0
H2019 H 0.1531 0.54586 0.3872 0.0
H2020 H 0.32611 0.55603 0.42518 0.0
C2021 C 0.45529 0.54782 0.33648 0.0
C2022 C 0.44465 0.54531 0.3105 0.0
C2023 C 0.38427 0.54168 0.30237 0.0
C2024 C 0.33465 0.54078 0.31976 0.0
C2025 C 0.34629 0.54356 0.34516 0.0
C2026 C 0.40509 0.547 0.35356 0.0
C2027 C 0.40345 0.55068 0.38131 0.0
C2028 C 0.44381 0.54227 0.39762 0.0
C2029 C 0.42407 0.56374 0.38457 0.0
C2030 C 0.33414 0.54912 0.38698 0.0
C2031 C 0.30236 0.54484 0.36591 0.0
C2032 C 0.23742 0.54344 0.36575 0.0
C2033 C 0.20383 0.5467 0.3875 0.0
C2034 C 0.2351 0.55132 0.40914 0.0
C2035 C 0.30124 0.55232 0.40905 0.0
H2036 H 0.00116 0.44087 0.14464 0.0
H2037 H 0.11712 0.44511 0.21195 0.0
H2038 H 0.21002 0.44857 0.18461 0.0
H2039 H 0.11153 0.4246 0.10907 0.0
H2040 H 0.09111 0.43126 0.07899 0.0
H2041 H 0.03316 0.43021 0.10379 0.0
H2042 H 0.01483 0.45301 0.10144 0.0
H2043 H 0.07276 0.45414 0.07658 0.0
H2044 H 0.08063 0.46299 0.10499 0.0
H2045 H 0.29065 0.45043 0.14999 0.0
H2046 H 0.35418 0.45006 0.1108 0.0
H2047 H 0.18526 0.44428 0.06612 0.0
C2048 C 0.04591 0.4427 0.15366 0.0
C2049 C 0.05205 0.4428 0.1804 0.0
C2050 C 0.1115 0.44504 0.19149 0.0
C2051 C 0.16437 0.44704 0.17612 0.0
C2052 C 0.15677 0.44676 0.14979 0.0
C2053 C 0.09903 0.44464 0.13865 0.0
C2054 C 0.10402 0.4441 0.10996 0.0
C2055 C 0.08378 0.43181 0.09987 0.0
C2056 C 0.0658 0.45416 0.09751 0.0
C2057 C 0.17386 0.44606 0.10665 0.0
C2058 C 0.20332 0.44769 0.12984 0.0
C2059 C 0.26805 0.44926 0.13172 0.0
C2060 C 0.30369 0.44902 0.10934 0.0
C2061 C 0.27458 0.44717 0.08542 0.0
C2062 C 0.20873 0.44581 0.08411 0.0
H2063 H 0.75112 0.2972 0.14888 0.0
H2064 H 0.63077 0.29549 0.21535 0.0
H2065 H 0.5377 0.2937 0.18744 0.0
H2066 H 0.65448 0.31568 0.11367 0.0
H2067 H 0.67074 0.30891 0.08329 0.0
H2068 H 0.72831 0.3082 0.10829 0.0
H2069 H 0.73039 0.28517 0.10482 0.0
H2070 H 0.67281 0.28581 0.0797 0.0
H2071 H 0.65806 0.27691 0.10759 0.0
H2072 H 0.45787 0.2943 0.15271 0.0
H2073 H 0.39616 0.29774 0.11371 0.0
H2074 H 0.56839 0.29934 0.06967 0.0
C2075 C 0.70532 0.29614 0.15757 0.0
C2076 C 0.69801 0.29637 0.18425 0.0
C2077 C 0.63729 0.29526 0.19493 0.0
C2078 C 0.58427 0.29419 0.17924 0.0
C2079 C 0.59298 0.29424 0.15297 0.0
C2080 C 0.65199 0.29517 0.14219 0.0
C2081 C 0.64811 0.29616 0.11351 0.0
C2082 C 0.6771 0.30794 0.10416 0.0
C2083 C 0.67918 0.28536 0.10065 0.0
C2084 C 0.57756 0.29602 0.10987 0.0
C2085 C 0.5467 0.29472 0.13284 0.0
C2086 C 0.48146 0.29513 0.13458 0.0
C2087 C 0.44686 0.29712 0.11232 0.0
C2088 C 0.47756 0.29874 0.08868 0.0
C2089 C 0.54368 0.29794 0.08741 0.0
H2090 H 0.00552 0.30742 0.59421 0.0
H2091 H 0.15206 0.3071 0.53687 0.0
H2092 H 0.23105 0.30272 0.57022 0.0
H2093 H 0.0905 0.32226 0.64088 0.0
H2094 H 0.05815 0.31398 0.66716 0.0
H2095 H 0.01313 0.3158 0.63847 0.0
H2096 H 0.00178 0.29287 0.63462 0.0
H2097 H 0.04692 0.29097 0.66335 0.0
H2098 H 0.07123 0.28366 0.63447 0.0
H2099 H 0.29452 0.30029 0.61045 0.0
H2100 H 0.3375 0.30015 0.65412 0.0
H2101 H 0.14813 0.30179 0.68453 0.0
C2102 C 0.0541 0.30626 0.58857 0.0
C2103 C 0.07286 0.30758 0.56302 0.0
C2104 C 0.13684 0.30608 0.55639 0.0
C2105 C 0.18188 0.30356 0.57517 0.0
C2106 C 0.16182 0.30247 0.60031 0.0
C2107 C 0.09934 0.30371 0.60697 0.0
C2108 C 0.09015 0.30287 0.6354 0.0
C2109 C 0.06131 0.31441 0.64609 0.0
C2110 C 0.05016 0.29194 0.64236 0.0
C2111 C 0.1575 0.30131 0.64386 0.0
C2112 C 0.19816 0.30098 0.62336 0.0
C2113 C 0.26308 0.30037 0.62661 0.0
C2114 C 0.28702 0.3003 0.65147 0.0
C2115 C 0.24604 0.30089 0.67265 0.0
C2116 C 0.18052 0.30116 0.6687 0.0
H2117 H 0.5726 0.44328 0.68059 0.0
H2118 H 0.38669 0.44322 0.64649 0.0
H2119 H 0.43429 0.4445 0.60384 0.0
H2120 H 0.64263 0.46418 0.63659 0.0
H2121 H 0.71746 0.45665 0.63604 0.0
H2122 H 0.66868 0.45587 0.66397 0.0
H2123 H 0.6716 0.43279 0.66193 0.0
H2124 H 0.72032 0.43351 0.63399 0.0
H2125 H 0.64741 0.42535 0.63317 0.0
H2126 H 0.50198 0.44529 0.56481 0.0
H2127 H 0.5857 0.44592 0.5322 0.0
H2128 H 0.72692 0.44575 0.59181 0.0
C2129 C 0.54196 0.44358 0.66415 0.0
C2130 C 0.47601 0.44315 0.66682 0.0
C2131 C 0.4374 0.44355 0.64487 0.0
C2132 C 0.46395 0.44427 0.62056 0.0
C2133 C 0.52914 0.44463 0.61854 0.0
C2134 C 0.56767 0.44434 0.63972 0.0
C2135 C 0.63631 0.44478 0.63227 0.0
C2136 C 0.66812 0.45604 0.64284 0.0
C2137 C 0.67093 0.43343 0.64085 0.0
C2138 C 0.63027 0.44531 0.60361 0.0
C2139 C 0.5681 0.4452 0.59606 0.0
C2140 C 0.55089 0.44543 0.57048 0.0
C2141 C 0.59865 0.44578 0.55212 0.0
C2142 C 0.66261 0.44593 0.55951 0.0
C2143 C 0.67837 0.44571 0.58559 0.0
loop_
_geom_bond_atom_site_label_1
_geom_bond_atom_site_label_2
_geom_bond_distance
_geom_bond_site_symmetry_2
_ccdc_geom_bond_type
In0 O1 2.294 . S
In0 O2 2.326 . S
In0 O6 2.266 . S
In0 O7 2.326 . S
In0 O8 2.266 . S
In0 O9 2.326 . S
In0 O11 2.294 . S
In0 O12 2.326 . S
O1 In0 2.294 . S
O1 C10 1.240 . S
O2 In0 2.326 . S
O2 C10 1.252 . S
C3 O6 1.252 . S
C3 O7 1.260 . S
C4 O11 1.240 . S
C4 O12 1.252 . S
C5 O8 1.252 . S
C5 O9 1.260 . S
O6 In0 2.266 . S
O6 C3 1.252 . S
O7 In0 2.326 . S
O7 C3 1.260 . S
O8 In0 2.266 . S
O8 C5 1.252 . S
O9 In0 2.326 . S
O9 C5 1.260 . S
C10 O1 1.240 . S
C10 O2 1.252 . S
O11 In0 2.294 . S
O11 C4 1.240 . S
O12 In0 2.326 . S
O12 C4 1.252 . S
In13 O14 2.294 . S
In13 O15 2.326 . S
In13 O19 2.266 . S
In13 O20 2.326 . S
In13 O21 2.266 . S
In13 O22 2.326 . S
In13 O24 2.294 . S
In13 O25 2.326 . S
O14 In13 2.294 . S
O14 C23 1.240 . S
O15 In13 2.326 . S
O15 C23 1.252 . S
C16 O19 1.252 . S
C16 O20 1.260 . S
C17 O24 1.240 . S
C17 O25 1.252 . S
C18 O21 1.252 . S
C18 O22 1.260 . S
O19 In13 2.266 . S
O19 C16 1.252 . S
O20 In13 2.326 . S
O20 C16 1.260 . S
O21 In13 2.266 . S
O21 C18 1.252 . S
O22 In13 2.326 . S
O22 C18 1.260 . S
C23 O14 1.240 . S
C23 O15 1.252 . S
O24 In13 2.294 . S
O24 C17 1.240 . S
O25 In13 2.326 . S
O25 C17 1.252 . S
In26 O27 2.294 . S
In26 O28 2.326 . S
In26 O32 2.266 . S
In26 O33 2.326 . S
In26 O34 2.266 1_556 S
In26 O35 2.326 1_556 S
In26 O37 2.294 . S
In26 O38 2.326 . S
O27 In26 2.294 . S
O27 C36 1.240 . S
O28 In26 2.326 . S
O28 C36 1.252 . S
C29 O32 1.252 . S
C29 O33 1.260 . S
C30 O37 1.240 . S
C30 O38 1.252 . S
C31 O34 1.252 . S
C31 O35 1.260 . S
O32 In26 2.266 . S
O32 C29 1.252 . S
O33 In26 2.326 . S
O33 C29 1.260 . S
O34 In26 2.266 1_554 S
O34 C31 1.252 . S
O35 In26 2.326 1_554 S
O35 C31 1.260 . S
C36 O27 1.240 . S
C36 O28 1.252 . S
O37 In26 2.294 . S
O37 C30 1.240 . S
O38 In26 2.326 . S
O38 C30 1.252 . S
In39 O40 2.294 . S
In39 O41 2.326 . S
In39 O45 2.266 1_556 S
In39 O46 2.326 1_556 S
In39 O47 2.266 . S
In39 O48 2.326 . S
In39 O50 2.294 . S
In39 O51 2.326 . S
O40 In39 2.294 . S
O40 C49 1.240 . S
O41 In39 2.326 . S
O41 C49 1.252 . S
C42 O45 1.252 . S
C42 O46 1.260 . S
C43 O50 1.240 . S
C43 O51 1.252 . S
C44 O47 1.252 . S
C44 O48 1.260 . S
O45 In39 2.266 1_554 S
O45 C42 1.252 . S
O46 In39 2.326 1_554 S
O46 C42 1.260 . S
O47 In39 2.266 . S
O47 C44 1.252 . S
O48 In39 2.326 . S
O48 C44 1.260 . S
C49 O40 1.240 . S
C49 O41 1.252 . S
O50 In39 2.294 . S
O50 C43 1.240 . S
O51 In39 2.326 . S
O51 C43 1.252 . S
In52 O53 2.294 . S
In52 O54 2.326 . S
In52 O58 2.266 . S
In52 O59 2.326 . S
In52 O60 2.266 . S
In52 O61 2.326 . S
In52 O63 2.294 . S
In52 O64 2.326 . S
O53 In52 2.294 . S
O53 C62 1.240 . S
O54 In52 2.326 . S
O54 C62 1.252 . S
C55 O58 1.252 . S
C55 O59 1.260 . S
C56 O63 1.240 . S
C56 O64 1.252 . S
C57 O60 1.252 . S
C57 O61 1.260 . S
O58 In52 2.266 . S
O58 C55 1.252 . S
O59 In52 2.326 . S
O59 C55 1.260 . S
O60 In52 2.266 . S
O60 C57 1.252 . S
O61 In52 2.326 . S
O61 C57 1.260 . S
C62 O53 1.240 . S
C62 O54 1.252 . S
O63 In52 2.294 . S
O63 C56 1.240 . S
O64 In52 2.326 . S
O64 C56 1.252 . S
In65 O66 2.294 . S
In65 O67 2.326 . S
In65 O71 2.266 . S
In65 O72 2.326 . S
In65 O73 2.266 . S
In65 O74 2.326 . S
In65 O76 2.294 . S
In65 O77 2.326 . S
O66 In65 2.294 . S
O66 C75 1.240 . S
O67 In65 2.326 . S
O67 C75 1.252 . S
C68 O71 1.252 . S
C68 O72 1.260 . S
C69 O76 1.240 . S
C69 O77 1.252 . S
C70 O73 1.252 . S
C70 O74 1.260 . S
O71 In65 2.266 . S
O71 C68 1.252 . S
O72 In65 2.326 . S
O72 C68 1.260 . S
O73 In65 2.266 . S
O73 C70 1.252 . S
O74 In65 2.326 . S
O74 C70 1.260 . S
C75 O66 1.240 . S
C75 O67 1.252 . S
O76 In65 2.294 . S
O76 C69 1.240 . S
O77 In65 2.326 . S
O77 C69 1.252 . S
In78 O79 2.294 . S
In78 O80 2.326 . S
In78 O84 2.266 1_554 S
In78 O85 2.326 1_554 S
In78 O86 2.266 . S
In78 O87 2.326 . S
In78 O89 2.294 . S
In78 O90 2.326 . S
O79 In78 2.294 . S
O79 C88 1.240 . S
O80 In78 2.326 . S
O80 C88 1.252 . S
C81 O84 1.252 . S
C81 O85 1.260 . S
C82 O89 1.240 . S
C82 O90 1.252 . S
C83 O86 1.252 . S
C83 O87 1.260 . S
O84 In78 2.266 1_556 S
O84 C81 1.252 . S
O85 In78 2.326 1_556 S
O85 C81 1.260 . S
O86 In78 2.266 . S
O86 C83 1.252 . S
O87 In78 2.326 . S
O87 C83 1.260 . S
C88 O79 1.240 . S
C88 O80 1.252 . S
O89 In78 2.294 . S
O89 C82 1.240 . S
O90 In78 2.326 . S
O90 C82 1.252 . S
In91 O92 2.294 . S
In91 O93 2.326 . S
In91 O97 2.266 1_554 S
In91 O98 2.326 1_554 S
In91 O99 2.266 . S
In91 O100 2.326 . S
In91 O102 2.294 . S
In91 O103 2.326 . S
O92 In91 2.294 . S
O92 C101 1.240 . S
O93 In91 2.326 . S
O93 C101 1.252 . S
C94 O97 1.252 . S
C94 O98 1.260 . S
C95 O102 1.240 . S
C95 O103 1.252 . S
C96 O99 1.252 . S
C96 O100 1.260 . S
O97 In91 2.266 1_556 S
O97 C94 1.252 . S
O98 In91 2.326 1_556 S
O98 C94 1.260 . S
O99 In91 2.266 . S
O99 C96 1.252 . S
O100 In91 2.326 . S
O100 C96 1.260 . S
C101 O92 1.240 . S
C101 O93 1.252 . S
O102 In91 2.294 . S
O102 C95 1.240 . S
O103 In91 2.326 . S
O103 C95 1.252 . S
In104 O105 2.294 . S
In104 O106 2.326 . S
In104 O110 2.266 . S
In104 O111 2.326 . S
In104 O112 2.266 . S
In104 O113 2.326 . S
In104 O115 2.294 . S
In104 O116 2.326 . S
O105 In104 2.294 . S
O105 C114 1.240 . S
O106 In104 2.326 . S
O106 C114 1.252 . S
C107 O110 1.252 . S
C107 O111 1.260 . S
C108 O115 1.240 . S
C108 O116 1.252 . S
C109 O112 1.252 . S
C109 O113 1.260 . S
O110 In104 2.266 . S
O110 C107 1.252 . S
O111 In104 2.326 . S
O111 C107 1.260 . S
O112 In104 2.266 . S
O112 C109 1.252 . S
O113 In104 2.326 . S
O113 C109 1.260 . S
C114 O105 1.240 . S
C114 O106 1.252 . S
O115 In104 2.294 . S
O115 C108 1.240 . S
O116 In104 2.326 . S
O116 C108 1.252 . S
In117 O118 2.294 . S
In117 O119 2.326 . S
In117 O123 2.266 . S
In117 O124 2.326 . S
In117 O125 2.266 . S
In117 O126 2.326 . S
In117 O128 2.294 . S
In117 O129 2.326 . S
O118 In117 2.294 . S
O118 C127 1.240 . S
O119 In117 2.326 . S
O119 C127 1.252 . S
C120 O123 1.252 . S
C120 O124 1.260 . S
C121 O128 1.240 . S
C121 O129 1.252 . S
C122 O125 1.252 . S
C122 O126 1.260 . S
O123 In117 2.266 . S
O123 C120 1.252 . S
O124 In117 2.326 . S
O124 C120 1.260 . S
O125 In117 2.266 . S
O125 C122 1.252 . S
O126 In117 2.326 . S
O126 C122 1.260 . S
C127 O118 1.240 . S
C127 O119 1.252 . S
O128 In117 2.294 . S
O128 C121 1.240 . S
O129 In117 2.326 . S
O129 C121 1.252 . S
In130 O131 2.294 . S
In130 O132 2.326 . S
In130 O136 2.266 . S
In130 O137 2.326 . S
In130 O138 2.266 . S
In130 O139 2.326 . S
In130 O141 2.294 . S
In130 O142 2.326 . S
O131 In130 2.294 . S
O131 C140 1.240 . S
O132 In130 2.326 . S
O132 C140 1.252 . S
C133 O136 1.252 . S
C133 O137 1.260 . S
C134 O141 1.240 . S
C134 O142 1.252 . S
C135 O138 1.252 . S
C135 O139 1.260 . S
O136 In130 2.266 . S
O136 C133 1.252 . S
O137 In130 2.326 . S
O137 C133 1.260 . S
O138 In130 2.266 . S
O138 C135 1.252 . S
O139 In130 2.326 . S
O139 C135 1.260 . S
C140 O131 1.240 . S
C140 O132 1.252 . S
O141 In130 2.294 . S
O141 C134 1.240 . S
O142 In130 2.326 . S
O142 C134 1.252 . S
In143 O144 2.294 . S
In143 O145 2.326 . S
In143 O149 2.266 . S
In143 O150 2.326 . S
In143 O151 2.266 . S
In143 O152 2.326 . S
In143 O154 2.294 . S
In143 O155 2.326 . S
O144 In143 2.294 . S
O144 C153 1.240 . S
O145 In143 2.326 . S
O145 C153 1.252 . S
C146 O149 1.252 . S
C146 O150 1.260 . S
C147 O154 1.240 . S
C147 O155 1.252 . S
C148 O151 1.252 . S
C148 O152 1.260 . S
O149 In143 2.266 . S
O149 C146 1.252 . S
O150 In143 2.326 . S
O150 C146 1.260 . S
O151 In143 2.266 . S
O151 C148 1.252 . S
O152 In143 2.326 . S
O152 C148 1.260 . S
C153 O144 1.240 . S
C153 O145 1.252 . S
O154 In143 2.294 . S
O154 C147 1.240 . S
O155 In143 2.326 . S
O155 C147 1.252 . S
In156 O157 2.294 . S
In156 O158 2.326 . S
In156 O162 2.266 . S
In156 O163 2.326 . S
In156 O164 2.266 . S
In156 O165 2.326 . S
In156 O167 2.294 . S
In156 O168 2.326 . S
O157 In156 2.294 . S
O157 C166 1.240 . S
O158 In156 2.326 . S
O158 C166 1.252 . S
C159 O162 1.252 . S
C159 O163 1.260 . S
C160 O167 1.240 . S
C160 O168 1.252 . S
C161 O164 1.252 . S
C161 O165 1.260 . S
O162 In156 2.266 . S
O162 C159 1.252 . S
O163 In156 2.326 . S
O163 C159 1.260 . S
O164 In156 2.266 . S
O164 C161 1.252 . S
O165 In156 2.326 . S
O165 C161 1.260 . S
C166 O157 1.240 . S
C166 O158 1.252 . S
O167 In156 2.294 . S
O167 C160 1.240 . S
O168 In156 2.326 . S
O168 C160 1.252 . S
In169 O170 2.294 . S
In169 O171 2.326 . S
In169 O175 2.266 . S
In169 O176 2.326 . S
In169 O177 2.266 . S
In169 O178 2.326 . S
In169 O180 2.294 . S
In169 O181 2.326 . S
O170 In169 2.294 . S
O170 C179 1.240 . S
O171 In169 2.326 . S
O171 C179 1.252 . S
C172 O175 1.252 . S
C172 O176 1.260 . S
C173 O180 1.240 . S
C173 O181 1.252 . S
C174 O177 1.252 . S
C174 O178 1.260 . S
O175 In169 2.266 . S
O175 C172 1.252 . S
O176 In169 2.326 . S
O176 C172 1.260 . S
O177 In169 2.266 . S
O177 C174 1.252 . S
O178 In169 2.326 . S
O178 C174 1.260 . S
C179 O170 1.240 . S
C179 O171 1.252 . S
O180 In169 2.294 . S
O180 C173 1.240 . S
O181 In169 2.326 . S
O181 C173 1.252 . S
In182 O183 2.294 . S
In182 O184 2.326 . S
In182 O188 2.266 . S
In182 O189 2.326 . S
In182 O190 2.266 . S
In182 O191 2.326 . S
In182 O193 2.294 . S
In182 O194 2.326 . S
O183 In182 2.294 . S
O183 C192 1.240 . S
O184 In182 2.326 . S
O184 C192 1.252 . S
C185 O188 1.252 . S
C185 O189 1.260 . S
C186 O193 1.240 . S
C186 O194 1.252 . S
C187 O190 1.252 . S
C187 O191 1.260 . S
O188 In182 2.266 . S
O188 C185 1.252 . S
O189 In182 2.326 . S
O189 C185 1.260 . S
O190 In182 2.266 . S
O190 C187 1.252 . S
O191 In182 2.326 . S
O191 C187 1.260 . S
C192 O183 1.240 . S
C192 O184 1.252 . S
O193 In182 2.294 . S
O193 C186 1.240 . S
O194 In182 2.326 . S
O194 C186 1.252 . S
In195 O196 2.294 . S
In195 O197 2.326 . S
In195 O201 2.266 . S
In195 O202 2.326 . S
In195 O203 2.266 . S
In195 O204 2.326 . S
In195 O206 2.294 . S
In195 O207 2.326 . S
O196 In195 2.294 . S
O196 C205 1.240 . S
O197 In195 2.326 . S
O197 C205 1.252 . S
C198 O201 1.252 . S
C198 O202 1.260 . S
C199 O206 1.240 . S
C199 O207 1.252 . S
C200 O203 1.252 . S
C200 O204 1.260 . S
O201 In195 2.266 . S
O201 C198 1.252 . S
O202 In195 2.326 . S
O202 C198 1.260 . S
O203 In195 2.266 . S
O203 C200 1.252 . S
O204 In195 2.326 . S
O204 C200 1.260 . S
C205 O196 1.240 . S
C205 O197 1.252 . S
O206 In195 2.294 . S
O206 C199 1.240 . S
O207 In195 2.326 . S
O207 C199 1.252 . S
In208 O209 2.294 . S
In208 O210 2.326 . S
In208 O214 2.266 . S
In208 O215 2.326 . S
In208 O216 2.266 . S
In208 O217 2.326 . S
In208 O219 2.294 . S
In208 O220 2.326 . S
O209 In208 2.294 . S
O209 C218 1.240 . S
O210 In208 2.326 . S
O210 C218 1.252 . S
C211 O214 1.252 . S
C211 O215 1.260 . S
C212 O219 1.240 . S
C212 O220 1.252 . S
C213 O216 1.252 . S
C213 O217 1.260 . S
O214 In208 2.266 . S
O214 C211 1.252 . S
O215 In208 2.326 . S
O215 C211 1.260 . S
O216 In208 2.266 . S
O216 C213 1.252 . S
O217 In208 2.326 . S
O217 C213 1.260 . S
C218 O209 1.240 . S
C218 O210 1.252 . S
O219 In208 2.294 . S
O219 C212 1.240 . S
O220 In208 2.326 . S
O220 C212 1.252 . S
In221 O222 2.294 . S
In221 O223 2.326 . S
In221 O227 2.266 . S
In221 O228 2.326 . S
In221 O229 2.266 . S
In221 O230 2.326 . S
In221 O232 2.294 . S
In221 O233 2.326 . S
O222 In221 2.294 . S
O222 C231 1.240 . S
O223 In221 2.326 . S
O223 C231 1.252 . S
C224 O227 1.252 . S
C224 O228 1.260 . S
C225 O232 1.240 . S
C225 O233 1.252 . S
C226 O229 1.252 . S
C226 O230 1.260 . S
O227 In221 2.266 . S
O227 C224 1.252 . S
O228 In221 2.326 . S
O228 C224 1.260 . S
O229 In221 2.266 . S
O229 C226 1.252 . S
O230 In221 2.326 . S
O230 C226 1.260 . S
C231 O222 1.240 . S
C231 O223 1.252 . S
O232 In221 2.294 . S
O232 C225 1.240 . S
O233 In221 2.326 . S
O233 C225 1.252 . S
In234 O235 2.294 . S
In234 O236 2.326 . S
In234 O240 2.266 . S
In234 O241 2.326 . S
In234 O242 2.266 . S
In234 O243 2.326 . S
In234 O245 2.294 . S
In234 O246 2.326 . S
O235 In234 2.294 . S
O235 C244 1.240 . S
O236 In234 2.326 . S
O236 C244 1.252 . S
C237 O240 1.252 . S
C237 O241 1.260 . S
C238 O245 1.240 . S
C238 O246 1.252 . S
C239 O242 1.252 . S
C239 O243 1.260 . S
O240 In234 2.266 . S
O240 C237 1.252 . S
O241 In234 2.326 . S
O241 C237 1.260 . S
O242 In234 2.266 . S
O242 C239 1.252 . S
O243 In234 2.326 . S
O243 C239 1.260 . S
C244 O235 1.240 . S
C244 O236 1.252 . S
O245 In234 2.294 . S
O245 C238 1.240 . S
O246 In234 2.326 . S
O246 C238 1.252 . S
In247 O248 2.294 . S
In247 O249 2.326 . S
In247 O253 2.266 . S
In247 O254 2.326 . S
In247 O255 2.266 . S
In247 O256 2.326 . S
In247 O258 2.294 . S
In247 O259 2.326 . S
O248 In247 2.294 . S
O248 C257 1.240 . S
O249 In247 2.326 . S
O249 C257 1.252 . S
C250 O253 1.252 . S
C250 O254 1.260 . S
C251 O258 1.240 . S
C251 O259 1.252 . S
C252 O255 1.252 . S
C252 O256 1.260 . S
O253 In247 2.266 . S
O253 C250 1.252 . S
O254 In247 2.326 . S
O254 C250 1.260 . S
O255 In247 2.266 . S
O255 C252 1.252 . S
O256 In247 2.326 . S
O256 C252 1.260 . S
C257 O248 1.240 . S
C257 O249 1.252 . S
O258 In247 2.294 . S
O258 C251 1.240 . S
O259 In247 2.326 . S
O259 C251 1.252 . S
In260 O261 2.294 . S
In260 O262 2.326 . S
In260 O266 2.266 . S
In260 O267 2.326 . S
In260 O268 2.266 . S
In260 O269 2.326 . S
In260 O271 2.294 . S
In260 O272 2.326 . S
O261 In260 2.294 . S
O261 C270 1.240 . S
O262 In260 2.326 . S
O262 C270 1.252 . S
C263 O266 1.252 . S
C263 O267 1.260 . S
C264 O271 1.240 . S
C264 O272 1.252 . S
C265 O268 1.252 . S
C265 O269 1.260 . S
O266 In260 2.266 . S
O266 C263 1.252 . S
O267 In260 2.326 . S
O267 C263 1.260 . S
O268 In260 2.266 . S
O268 C265 1.252 . S
O269 In260 2.326 . S
O269 C265 1.260 . S
C270 O261 1.240 . S
C270 O262 1.252 . S
O271 In260 2.294 . S
O271 C264 1.240 . S
O272 In260 2.326 . S
O272 C264 1.252 . S
In273 O274 2.294 . S
In273 O275 2.326 . S
In273 O279 2.266 . S
In273 O280 2.326 . S
In273 O281 2.266 . S
In273 O282 2.326 . S
In273 O284 2.294 . S
In273 O285 2.326 . S
O274 In273 2.294 . S
O274 C283 1.240 . S
O275 In273 2.326 . S
O275 C283 1.252 . S
C276 O279 1.252 . S
C276 O280 1.260 . S
C277 O284 1.240 . S
C277 O285 1.252 . S
C278 O281 1.252 . S
C278 O282 1.260 . S
O279 In273 2.266 . S
O279 C276 1.252 . S
O280 In273 2.326 . S
O280 C276 1.260 . S
O281 In273 2.266 . S
O281 C278 1.252 . S
O282 In273 2.326 . S
O282 C278 1.260 . S
C283 O274 1.240 . S
C283 O275 1.252 . S
O284 In273 2.294 . S
O284 C277 1.240 . S
O285 In273 2.326 . S
O285 C277 1.252 . S
In286 O287 2.294 . S
In286 O288 2.326 . S
In286 O292 2.266 . S
In286 O293 2.326 . S
In286 O294 2.266 . S
In286 O295 2.326 . S
In286 O297 2.294 . S
In286 O298 2.326 . S
O287 In286 2.294 . S
O287 C296 1.240 . S
O288 In286 2.326 . S
O288 C296 1.252 . S
C289 O292 1.252 . S
C289 O293 1.260 . S
C290 O297 1.240 . S
C290 O298 1.252 . S
C291 O294 1.252 . S
C291 O295 1.260 . S
O292 In286 2.266 . S
O292 C289 1.252 . S
O293 In286 2.326 . S
O293 C289 1.260 . S
O294 In286 2.266 . S
O294 C291 1.252 . S
O295 In286 2.326 . S
O295 C291 1.260 . S
C296 O287 1.240 . S
C296 O288 1.252 . S
O297 In286 2.294 . S
O297 C290 1.240 . S
O298 In286 2.326 . S
O298 C290 1.252 . S
In299 O300 2.294 . S
In299 O301 2.326 . S
In299 O305 2.266 . S
In299 O306 2.326 . S
In299 O307 2.266 . S
In299 O308 2.326 . S
In299 O310 2.294 . S
In299 O311 2.326 . S
O300 In299 2.294 . S
O300 C309 1.240 . S
O301 In299 2.326 . S
O301 C309 1.252 . S
C302 O305 1.252 . S
C302 O306 1.260 . S
C303 O310 1.240 . S
C303 O311 1.252 . S
C304 O307 1.252 . S
C304 O308 1.260 . S
O305 In299 2.266 . S
O305 C302 1.252 . S
O306 In299 2.326 . S
O306 C302 1.260 . S
O307 In299 2.266 . S
O307 C304 1.252 . S
O308 In299 2.326 . S
O308 C304 1.260 . S
C309 O300 1.240 . S
C309 O301 1.252 . S
O310 In299 2.294 . S
O310 C303 1.240 . S
O311 In299 2.326 . S
O311 C303 1.252 . S
In312 O313 2.294 . S
In312 O314 2.326 . S
In312 O318 2.266 . S
In312 O319 2.326 . S
In312 O320 2.266 . S
In312 O321 2.326 . S
In312 O323 2.294 . S
In312 O324 2.326 . S
O313 In312 2.294 . S
O313 C322 1.240 . S
O314 In312 2.326 . S
O314 C322 1.252 . S
C315 O318 1.252 . S
C315 O319 1.260 . S
C316 O323 1.240 . S
C316 O324 1.252 . S
C317 O320 1.252 . S
C317 O321 1.260 . S
O318 In312 2.266 . S
O318 C315 1.252 . S
O319 In312 2.326 . S
O319 C315 1.260 . S
O320 In312 2.266 . S
O320 C317 1.252 . S
O321 In312 2.326 . S
O321 C317 1.260 . S
C322 O313 1.240 . S
C322 O314 1.252 . S
O323 In312 2.294 . S
O323 C316 1.240 . S
O324 In312 2.326 . S
O324 C316 1.252 . S
In325 O326 2.294 . S
In325 O327 2.326 . S
In325 O331 2.266 . S
In325 O332 2.326 . S
In325 O333 2.266 . S
In325 O334 2.326 . S
In325 O336 2.294 . S
In325 O337 2.326 . S
O326 In325 2.294 . S
O326 C335 1.240 . S
O327 In325 2.326 . S
O327 C335 1.252 . S
C328 O331 1.252 . S
C328 O332 1.260 . S
C329 O336 1.240 . S
C329 O337 1.252 . S
C330 O333 1.252 . S
C330 O334 1.260 . S
O331 In325 2.266 . S
O331 C328 1.252 . S
O332 In325 2.326 . S
O332 C328 1.260 . S
O333 In325 2.266 . S
O333 C330 1.252 . S
O334 In325 2.326 . S
O334 C330 1.260 . S
C335 O326 1.240 . S
C335 O327 1.252 . S
O336 In325 2.294 . S
O336 C329 1.240 . S
O337 In325 2.326 . S
O337 C329 1.252 . S
In338 O339 2.294 . S
In338 O340 2.326 . S
In338 O344 2.266 1_556 S
In338 O345 2.326 1_556 S
In338 O346 2.266 . S
In338 O347 2.326 . S
In338 O349 2.294 . S
In338 O350 2.326 . S
O339 In338 2.294 . S
O339 C348 1.240 . S
O340 In338 2.326 . S
O340 C348 1.252 . S
C341 O344 1.252 . S
C341 O345 1.260 . S
C342 O349 1.240 . S
C342 O350 1.252 . S
C343 O346 1.252 . S
C343 O347 1.260 . S
O344 In338 2.266 1_554 S
O344 C341 1.252 . S
O345 In338 2.326 1_554 S
O345 C341 1.260 . S
O346 In338 2.266 . S
O346 C343 1.252 . S
O347 In338 2.326 . S
O347 C343 1.260 . S
C348 O339 1.240 . S
C348 O340 1.252 . S
O349 In338 2.294 . S
O349 C342 1.240 . S
O350 In338 2.326 . S
O350 C342 1.252 . S
In351 O352 2.294 . S
In351 O353 2.326 . S
In351 O357 2.266 1_556 S
In351 O358 2.326 1_556 S
In351 O359 2.266 . S
In351 O360 2.326 . S
In351 O362 2.294 . S
In351 O363 2.326 . S
O352 In351 2.294 . S
O352 C361 1.240 . S
O353 In351 2.326 . S
O353 C361 1.252 . S
C354 O357 1.252 . S
C354 O358 1.260 . S
C355 O362 1.240 . S
C355 O363 1.252 . S
C356 O359 1.252 . S
C356 O360 1.260 . S
O357 In351 2.266 1_554 S
O357 C354 1.252 . S
O358 In351 2.326 1_554 S
O358 C354 1.260 . S
O359 In351 2.266 . S
O359 C356 1.252 . S
O360 In351 2.326 . S
O360 C356 1.260 . S
C361 O352 1.240 . S
C361 O353 1.252 . S
O362 In351 2.294 . S
O362 C355 1.240 . S
O363 In351 2.326 . S
O363 C355 1.252 . S
In364 O365 2.294 . S
In364 O366 2.326 . S
In364 O370 2.266 . S
In364 O371 2.326 . S
In364 O372 2.266 . S
In364 O373 2.326 . S
In364 O375 2.294 . S
In364 O376 2.326 . S
O365 In364 2.294 . S
O365 C374 1.240 . S
O366 In364 2.326 . S
O366 C374 1.252 . S
C367 O370 1.252 . S
C367 O371 1.260 . S
C368 O375 1.240 . S
C368 O376 1.252 . S
C369 O372 1.252 . S
C369 O373 1.260 . S
O370 In364 2.266 . S
O370 C367 1.252 . S
O371 In364 2.326 . S
O371 C367 1.260 . S
O372 In364 2.266 . S
O372 C369 1.252 . S
O373 In364 2.326 . S
O373 C369 1.260 . S
C374 O365 1.240 . S
C374 O366 1.252 . S
O375 In364 2.294 . S
O375 C368 1.240 . S
O376 In364 2.326 . S
O376 C368 1.252 . S
In377 O378 2.294 . S
In377 O379 2.326 . S
In377 O383 2.266 . S
In377 O384 2.326 . S
In377 O385 2.266 . S
In377 O386 2.326 . S
In377 O388 2.294 . S
In377 O389 2.326 . S
O378 In377 2.294 . S
O378 C387 1.240 . S
O379 In377 2.326 . S
O379 C387 1.252 . S
C380 O383 1.252 . S
C380 O384 1.260 . S
C381 O388 1.240 . S
C381 O389 1.252 . S
C382 O385 1.252 . S
C382 O386 1.260 . S
O383 In377 2.266 . S
O383 C380 1.252 . S
O384 In377 2.326 . S
O384 C380 1.260 . S
O385 In377 2.266 . S
O385 C382 1.252 . S
O386 In377 2.326 . S
O386 C382 1.260 . S
C387 O378 1.240 . S
C387 O379 1.252 . S
O388 In377 2.294 . S
O388 C381 1.240 . S
O389 In377 2.326 . S
O389 C381 1.252 . S
In390 O391 2.294 . S
In390 O392 2.326 . S
In390 O396 2.266 1_554 S
In390 O397 2.326 1_554 S
In390 O398 2.266 . S
In390 O399 2.326 . S
In390 O401 2.294 . S
In390 O402 2.326 . S
O391 In390 2.294 . S
O391 C400 1.240 . S
O392 In390 2.326 . S
O392 C400 1.252 . S
C393 O396 1.252 . S
C393 O397 1.260 . S
C394 O401 1.240 . S
C394 O402 1.252 . S
C395 O398 1.252 . S
C395 O399 1.260 . S
O396 In390 2.266 1_556 S
O396 C393 1.252 . S
O397 In390 2.326 1_556 S
O397 C393 1.260 . S
O398 In390 2.266 . S
O398 C395 1.252 . S
O399 In390 2.326 . S
O399 C395 1.260 . S
C400 O391 1.240 . S
C400 O392 1.252 . S
O401 In390 2.294 . S
O401 C394 1.240 . S
O402 In390 2.326 . S
O402 C394 1.252 . S
In403 O404 2.294 . S
In403 O405 2.326 . S
In403 O409 2.266 . S
In403 O410 2.326 . S
In403 O411 2.266 1_554 S
In403 O412 2.326 1_554 S
In403 O414 2.294 . S
In403 O415 2.326 . S
O404 In403 2.294 . S
O404 C413 1.240 . S
O405 In403 2.326 . S
O405 C413 1.252 . S
C406 O409 1.252 . S
C406 O410 1.260 . S
C407 O414 1.240 . S
C407 O415 1.252 . S
C408 O411 1.252 . S
C408 O412 1.260 . S
O409 In403 2.266 . S
O409 C406 1.252 . S
O410 In403 2.326 . S
O410 C406 1.260 . S
O411 In403 2.266 1_556 S
O411 C408 1.252 . S
O412 In403 2.326 1_556 S
O412 C408 1.260 . S
C413 O404 1.240 . S
C413 O405 1.252 . S
O414 In403 2.294 . S
O414 C407 1.240 . S
O415 In403 2.326 . S
O415 C407 1.252 . S
H416 C428 0.930 . S
H417 C430 0.930 . S
H418 C431 0.930 . S
H419 C435 0.959 . S
H420 C435 0.959 . S
H421 C435 0.961 . S
H422 C436 0.960 . S
H423 C436 0.961 . S
H424 C436 0.959 . S
H425 C439 0.929 . S
H426 C440 0.931 . S
H427 C442 0.930 . S
C428 H416 0.930 . S
C428 C429 1.399 . S
C428 C433 1.399 . S
C429 C428 1.399 . S
C429 C430 1.376 . S
C430 H417 0.930 . S
C430 C429 1.376 . S
C430 C431 1.388 . S
C431 H418 0.930 . S
C431 C430 1.388 . S
C431 C432 1.390 . S
C432 C431 1.390 . S
C432 C433 1.394 . S
C432 C438 1.465 . S
C433 C428 1.399 . S
C433 C432 1.394 . S
C433 C434 1.516 . S
C434 C433 1.516 . S
C434 C435 1.502 . S
C434 C436 1.561 . S
C434 C437 1.526 . S
C435 H419 0.959 . S
C435 H420 0.959 . S
C435 H421 0.961 . S
C435 C434 1.502 . S
C436 H422 0.960 . S
C436 H423 0.961 . S
C436 H424 0.959 . S
C436 C434 1.561 . S
C437 C434 1.526 . S
C437 C438 1.396 . S
C437 C442 1.390 . S
C438 C432 1.465 . S
C438 C437 1.396 . S
C438 C439 1.399 . S
C439 H425 0.929 . S
C439 C438 1.399 . S
C439 C440 1.385 . S
C440 H426 0.931 . S
C440 C439 1.385 . S
C440 C441 1.389 . S
C441 C440 1.389 . S
C441 C442 1.387 . S
C442 H427 0.930 . S
C442 C437 1.390 . S
C442 C441 1.387 . S
H443 C455 0.930 . S
H444 C457 0.930 . S
H445 C458 0.930 . S
H446 C462 0.959 . S
H447 C462 0.959 . S
H448 C462 0.961 . S
H449 C463 0.960 . S
H450 C463 0.961 . S
H451 C463 0.959 . S
H452 C466 0.929 . S
H453 C467 0.931 . S
H454 C469 0.930 . S
C455 H443 0.930 . S
C455 C456 1.399 . S
C455 C460 1.399 . S
C456 C455 1.399 . S
C456 C457 1.376 . S
C457 H444 0.930 . S
C457 C456 1.376 . S
C457 C458 1.388 . S
C458 H445 0.930 . S
C458 C457 1.388 . S
C458 C459 1.390 . S
C459 C458 1.390 . S
C459 C460 1.394 . S
C459 C465 1.465 . S
C460 C455 1.399 . S
C460 C459 1.394 . S
C460 C461 1.516 . S
C461 C460 1.516 . S
C461 C462 1.502 . S
C461 C463 1.561 . S
C461 C464 1.526 . S
C462 H446 0.959 . S
C462 H447 0.959 . S
C462 H448 0.961 . S
C462 C461 1.502 . S
C463 H449 0.960 . S
C463 H450 0.961 . S
C463 H451 0.959 . S
C463 C461 1.561 . S
C464 C461 1.526 . S
C464 C465 1.396 . S
C464 C469 1.390 . S
C465 C459 1.465 . S
C465 C464 1.396 . S
C465 C466 1.399 . S
C466 H452 0.929 . S
C466 C465 1.399 . S
C466 C467 1.385 . S
C467 H453 0.931 . S
C467 C466 1.385 . S
C467 C468 1.389 . S
C468 C467 1.389 . S
C468 C469 1.387 . S
C469 H454 0.930 . S
C469 C464 1.390 . S
C469 C468 1.387 . S
H470 C482 0.930 . S
H471 C484 0.930 . S
H472 C485 0.930 . S
H473 C489 0.959 . S
H474 C489 0.959 . S
H475 C489 0.961 . S
H476 C490 0.960 . S
H477 C490 0.961 . S
H478 C490 0.959 . S
H479 C493 0.929 . S
H480 C494 0.931 . S
H481 C496 0.930 . S
C482 H470 0.930 . S
C482 C483 1.399 . S
C482 C487 1.399 . S
C483 C482 1.399 . S
C483 C484 1.376 . S
C484 H471 0.930 . S
C484 C483 1.376 . S
C484 C485 1.388 . S
C485 H472 0.930 . S
C485 C484 1.388 . S
C485 C486 1.390 . S
C486 C485 1.390 . S
C486 C487 1.394 . S
C486 C492 1.465 . S
C487 C482 1.399 . S
C487 C486 1.394 . S
C487 C488 1.516 . S
C488 C487 1.516 . S
C488 C489 1.502 . S
C488 C490 1.561 . S
C488 C491 1.526 . S
C489 H473 0.959 . S
C489 H474 0.959 . S
C489 H475 0.961 . S
C489 C488 1.502 . S
C490 H476 0.960 . S
C490 H477 0.961 . S
C490 H478 0.959 . S
C490 C488 1.561 . S
C491 C488 1.526 . S
C491 C492 1.396 . S
C491 C496 1.390 . S
C492 C486 1.465 . S
C492 C491 1.396 . S
C492 C493 1.399 . S
C493 H479 0.929 . S
C493 C492 1.399 . S
C493 C494 1.385 . S
C494 H480 0.931 . S
C494 C493 1.385 . S
C494 C495 1.389 . S
C495 C494 1.389 . S
C495 C496 1.387 . S
C496 H481 0.930 . S
C496 C491 1.390 . S
C496 C495 1.387 . S
H497 C509 0.930 . S
H498 C511 0.930 . S
H499 C512 0.930 . S
H500 C516 0.959 . S
H501 C516 0.959 . S
H502 C516 0.961 . S
H503 C517 0.960 . S
H504 C517 0.961 . S
H505 C517 0.959 . S
H506 C520 0.929 . S
H507 C521 0.931 . S
H508 C523 0.930 . S
C509 H497 0.930 . S
C509 C510 1.399 . S
C509 C514 1.399 . S
C510 C509 1.399 . S
C510 C511 1.376 . S
C511 H498 0.930 . S
C511 C510 1.376 . S
C511 C512 1.388 . S
C512 H499 0.930 . S
C512 C511 1.388 . S
C512 C513 1.390 . S
C513 C512 1.390 . S
C513 C514 1.394 . S
C513 C519 1.465 . S
C514 C509 1.399 . S
C514 C513 1.394 . S
C514 C515 1.516 . S
C515 C514 1.516 . S
C515 C516 1.502 . S
C515 C517 1.561 . S
C515 C518 1.526 . S
C516 H500 0.959 . S
C516 H501 0.959 . S
C516 H502 0.961 . S
C516 C515 1.502 . S
C517 H503 0.960 . S
C517 H504 0.961 . S
C517 H505 0.959 . S
C517 C515 1.561 . S
C518 C515 1.526 . S
C518 C519 1.396 . S
C518 C523 1.390 . S
C519 C513 1.465 . S
C519 C518 1.396 . S
C519 C520 1.399 . S
C520 H506 0.929 . S
C520 C519 1.399 . S
C520 C521 1.385 . S
C521 H507 0.931 . S
C521 C520 1.385 . S
C521 C522 1.389 . S
C522 C521 1.389 . S
C522 C523 1.387 . S
C523 H508 0.930 . S
C523 C518 1.390 . S
C523 C522 1.387 . S
H524 C536 0.930 . S
H525 C538 0.930 . S
H526 C539 0.930 . S
H527 C543 0.959 . S
H528 C543 0.959 . S
H529 C543 0.961 . S
H530 C544 0.960 . S
H531 C544 0.961 . S
H532 C544 0.959 . S
H533 C547 0.929 . S
H534 C548 0.931 . S
H535 C550 0.930 . S
C536 H524 0.930 . S
C536 C537 1.399 . S
C536 C541 1.399 . S
C537 C536 1.399 . S
C537 C538 1.376 . S
C538 H525 0.930 . S
C538 C537 1.376 . S
C538 C539 1.388 . S
C539 H526 0.930 . S
C539 C538 1.388 . S
C539 C540 1.390 . S
C540 C539 1.390 . S
C540 C541 1.394 . S
C540 C546 1.465 . S
C541 C536 1.399 . S
C541 C540 1.394 . S
C541 C542 1.516 . S
C542 C541 1.516 . S
C542 C543 1.502 . S
C542 C544 1.561 . S
C542 C545 1.526 . S
C543 H527 0.959 . S
C543 H528 0.959 . S
C543 H529 0.961 . S
C543 C542 1.502 . S
C544 H530 0.960 . S
C544 H531 0.961 . S
C544 H532 0.959 . S
C544 C542 1.561 . S
C545 C542 1.526 . S
C545 C546 1.396 . S
C545 C550 1.390 . S
C546 C540 1.465 . S
C546 C545 1.396 . S
C546 C547 1.399 . S
C547 H533 0.929 . S
C547 C546 1.399 . S
C547 C548 1.385 . S
C548 H534 0.931 . S
C548 C547 1.385 . S
C548 C549 1.389 . S
C549 C548 1.389 . S
C549 C550 1.387 . S
C550 H535 0.930 . S
C550 C545 1.390 . S
C550 C549 1.387 . S
H551 C563 0.930 . S
H552 C565 0.930 . S
H553 C566 0.930 . S
H554 C570 0.959 . S
H555 C570 0.959 . S
H556 C570 0.961 . S
H557 C571 0.960 . S
H558 C571 0.961 . S
H559 C571 0.959 . S
H560 C574 0.929 . S
H561 C575 0.931 . S
H562 C577 0.930 . S
C563 H551 0.930 . S
C563 C564 1.399 . S
C563 C568 1.399 . S
C564 C563 1.399 . S
C564 C565 1.376 . S
C565 H552 0.930 . S
C565 C564 1.376 . S
C565 C566 1.388 . S
C566 H553 0.930 . S
C566 C565 1.388 . S
C566 C567 1.390 . S
C567 C566 1.390 . S
C567 C568 1.394 . S
C567 C573 1.465 . S
C568 C563 1.399 . S
C568 C567 1.394 . S
C568 C569 1.516 . S
C569 C568 1.516 . S
C569 C570 1.502 . S
C569 C571 1.561 . S
C569 C572 1.526 . S
C570 H554 0.959 . S
C570 H555 0.959 . S
C570 H556 0.961 . S
C570 C569 1.502 . S
C571 H557 0.960 . S
C571 H558 0.961 . S
C571 H559 0.959 . S
C571 C569 1.561 . S
C572 C569 1.526 . S
C572 C573 1.396 . S
C572 C577 1.390 . S
C573 C567 1.465 . S
C573 C572 1.396 . S
C573 C574 1.399 . S
C574 H560 0.929 . S
C574 C573 1.399 . S
C574 C575 1.385 . S
C575 H561 0.931 . S
C575 C574 1.385 . S
C575 C576 1.389 . S
C576 C575 1.389 . S
C576 C577 1.387 . S
C577 H562 0.930 . S
C577 C572 1.390 . S
C577 C576 1.387 . S
H578 C590 0.930 . S
H579 C592 0.930 . S
H580 C593 0.930 . S
H581 C597 0.959 . S
H582 C597 0.959 . S
H583 C597 0.961 . S
H584 C598 0.960 . S
H585 C598 0.961 . S
H586 C598 0.959 . S
H587 C601 0.929 . S
H588 C602 0.931 . S
H589 C604 0.930 . S
C590 H578 0.930 . S
C590 C591 1.399 . S
C590 C595 1.399 . S
C591 C590 1.399 . S
C591 C592 1.376 . S
C592 H579 0.930 . S
C592 C591 1.376 . S
C592 C593 1.388 . S
C593 H580 0.930 . S
C593 C592 1.388 . S
C593 C594 1.390 . S
C594 C593 1.390 . S
C594 C595 1.394 . S
C594 C600 1.465 . S
C595 C590 1.399 . S
C595 C594 1.394 . S
C595 C596 1.516 . S
C596 C595 1.516 . S
C596 C597 1.502 . S
C596 C598 1.561 . S
C596 C599 1.526 . S
C597 H581 0.959 . S
C597 H582 0.959 . S
C597 H583 0.961 . S
C597 C596 1.502 . S
C598 H584 0.960 . S
C598 H585 0.961 . S
C598 H586 0.959 . S
C598 C596 1.561 . S
C599 C596 1.526 . S
C599 C600 1.396 . S
C599 C604 1.390 . S
C600 C594 1.465 . S
C600 C599 1.396 . S
C600 C601 1.399 . S
C601 H587 0.929 . S
C601 C600 1.399 . S
C601 C602 1.385 . S
C602 H588 0.931 . S
C602 C601 1.385 . S
C602 C603 1.389 . S
C603 C602 1.389 . S
C603 C604 1.387 . S
C604 H589 0.930 . S
C604 C599 1.390 . S
C604 C603 1.387 . S
H605 C617 0.930 . S
H606 C619 0.930 . S
H607 C620 0.930 . S
H608 C624 0.959 . S
H609 C624 0.959 . S
H610 C624 0.961 . S
H611 C625 0.960 . S
H612 C625 0.961 . S
H613 C625 0.959 . S
H614 C628 0.929 . S
H615 C629 0.931 . S
H616 C631 0.930 . S
C617 H605 0.930 . S
C617 C618 1.399 . S
C617 C622 1.399 . S
C618 C617 1.399 . S
C618 C619 1.376 . S
C619 H606 0.930 . S
C619 C618 1.376 . S
C619 C620 1.388 . S
C620 H607 0.930 . S
C620 C619 1.388 . S
C620 C621 1.390 . S
C621 C620 1.390 . S
C621 C622 1.394 . S
C621 C627 1.465 . S
C622 C617 1.399 . S
C622 C621 1.394 . S
C622 C623 1.516 . S
C623 C622 1.516 . S
C623 C624 1.502 . S
C623 C625 1.561 . S
C623 C626 1.526 . S
C624 H608 0.959 . S
C624 H609 0.959 . S
C624 H610 0.961 . S
C624 C623 1.502 . S
C625 H611 0.960 . S
C625 H612 0.961 . S
C625 H613 0.959 . S
C625 C623 1.561 . S
C626 C623 1.526 . S
C626 C627 1.396 . S
C626 C631 1.390 . S
C627 C621 1.465 . S
C627 C626 1.396 . S
C627 C628 1.399 . S
C628 H614 0.929 . S
C628 C627 1.399 . S
C628 C629 1.385 . S
C629 H615 0.931 . S
C629 C628 1.385 . S
C629 C630 1.389 . S
C630 C629 1.389 . S
C630 C631 1.387 . S
C631 H616 0.930 . S
C631 C626 1.390 . S
C631 C630 1.387 . S
H632 C644 0.930 . S
H633 C646 0.930 . S
H634 C647 0.930 . S
H635 C651 0.959 . S
H636 C651 0.959 . S
H637 C651 0.961 . S
H638 C652 0.960 . S
H639 C652 0.961 . S
H640 C652 0.959 . S
H641 C655 0.929 . S
H642 C656 0.931 . S
H643 C658 0.930 . S
C644 H632 0.930 . S
C644 C645 1.399 . S
C644 C649 1.399 . S
C645 C644 1.399 . S
C645 C646 1.376 . S
C646 H633 0.930 . S
C646 C645 1.376 . S
C646 C647 1.388 . S
C647 H634 0.930 . S
C647 C646 1.388 . S
C647 C648 1.390 . S
C648 C647 1.390 . S
C648 C649 1.394 . S
C648 C654 1.465 . S
C649 C644 1.399 . S
C649 C648 1.394 . S
C649 C650 1.516 . S
C650 C649 1.516 . S
C650 C651 1.502 . S
C650 C652 1.561 . S
C650 C653 1.526 . S
C651 H635 0.959 . S
C651 H636 0.959 . S
C651 H637 0.961 . S
C651 C650 1.502 . S
C652 H638 0.960 . S
C652 H639 0.961 . S
C652 H640 0.959 . S
C652 C650 1.561 . S
C653 C650 1.526 . S
C653 C654 1.396 . S
C653 C658 1.390 . S
C654 C648 1.465 . S
C654 C653 1.396 . S
C654 C655 1.399 . S
C655 H641 0.929 . S
C655 C654 1.399 . S
C655 C656 1.385 . S
C656 H642 0.931 . S
C656 C655 1.385 . S
C656 C657 1.389 . S
C657 C656 1.389 . S
C657 C658 1.387 . S
C658 H643 0.930 . S
C658 C653 1.390 . S
C658 C657 1.387 . S
H659 C671 0.930 . S
H660 C673 0.930 . S
H661 C674 0.930 . S
H662 C678 0.959 . S
H663 C678 0.959 . S
H664 C678 0.961 . S
H665 C679 0.960 . S
H666 C679 0.961 . S
H667 C679 0.959 . S
H668 C682 0.929 . S
H669 C683 0.931 . S
H670 C685 0.930 . S
C671 H659 0.930 . S
C671 C672 1.399 . S
C671 C676 1.399 . S
C672 C671 1.399 . S
C672 C673 1.376 . S
C673 H660 0.930 . S
C673 C672 1.376 . S
C673 C674 1.388 . S
C674 H661 0.930 . S
C674 C673 1.388 . S
C674 C675 1.390 . S
C675 C674 1.390 . S
C675 C676 1.394 . S
C675 C681 1.465 . S
C676 C671 1.399 . S
C676 C675 1.394 . S
C676 C677 1.516 . S
C677 C676 1.516 . S
C677 C678 1.502 . S
C677 C679 1.561 . S
C677 C680 1.526 . S
C678 H662 0.959 . S
C678 H663 0.959 . S
C678 H664 0.961 . S
C678 C677 1.502 . S
C679 H665 0.960 . S
C679 H666 0.961 . S
C679 H667 0.959 . S
C679 C677 1.561 . S
C680 C677 1.526 . S
C680 C681 1.396 . S
C680 C685 1.390 . S
C681 C675 1.465 . S
C681 C680 1.396 . S
C681 C682 1.399 . S
C682 H668 0.929 . S
C682 C681 1.399 . S
C682 C683 1.385 . S
C683 H669 0.931 . S
C683 C682 1.385 . S
C683 C684 1.389 . S
C684 C683 1.389 . S
C684 C685 1.387 . S
C685 H670 0.930 . S
C685 C680 1.390 . S
C685 C684 1.387 . S
H686 C698 0.930 . S
H687 C700 0.930 . S
H688 C701 0.930 . S
H689 C705 0.959 . S
H690 C705 0.959 . S
H691 C705 0.961 . S
H692 C706 0.960 . S
H693 C706 0.961 . S
H694 C706 0.959 . S
H695 C709 0.929 . S
H696 C710 0.931 . S
H697 C712 0.930 . S
C698 H686 0.930 . S
C698 C699 1.399 . S
C698 C703 1.399 . S
C699 C698 1.399 . S
C699 C700 1.376 . S
C700 H687 0.930 . S
C700 C699 1.376 . S
C700 C701 1.388 . S
C701 H688 0.930 . S
C701 C700 1.388 . S
C701 C702 1.390 . S
C702 C701 1.390 . S
C702 C703 1.394 . S
C702 C708 1.465 . S
C703 C698 1.399 . S
C703 C702 1.394 . S
C703 C704 1.516 . S
C704 C703 1.516 . S
C704 C705 1.502 . S
C704 C706 1.561 . S
C704 C707 1.526 . S
C705 H689 0.959 . S
C705 H690 0.959 . S
C705 H691 0.961 . S
C705 C704 1.502 . S
C706 H692 0.960 . S
C706 H693 0.961 . S
C706 H694 0.959 . S
C706 C704 1.561 . S
C707 C704 1.526 . S
C707 C708 1.396 . S
C707 C712 1.390 . S
C708 C702 1.465 . S
C708 C707 1.396 . S
C708 C709 1.399 . S
C709 H695 0.929 . S
C709 C708 1.399 . S
C709 C710 1.385 . S
C710 H696 0.931 . S
C710 C709 1.385 . S
C710 C711 1.389 . S
C711 C710 1.389 . S
C711 C712 1.387 . S
C712 H697 0.930 . S
C712 C707 1.390 . S
C712 C711 1.387 . S
H713 C725 0.930 . S
H714 C727 0.930 . S
H715 C728 0.930 . S
H716 C732 0.959 . S
H717 C732 0.959 . S
H718 C732 0.961 . S
H719 C733 0.960 . S
H720 C733 0.961 . S
H721 C733 0.959 . S
H722 C736 0.929 . S
H723 C737 0.931 . S
H724 C739 0.930 . S
C725 H713 0.930 . S
C725 C726 1.399 . S
C725 C730 1.399 . S
C726 C725 1.399 . S
C726 C727 1.376 . S
C727 H714 0.930 . S
C727 C726 1.376 . S
C727 C728 1.388 . S
C728 H715 0.930 . S
C728 C727 1.388 . S
C728 C729 1.390 . S
C729 C728 1.390 . S
C729 C730 1.394 . S
C729 C735 1.465 . S
C730 C725 1.399 . S
C730 C729 1.394 . S
C730 C731 1.516 . S
C731 C730 1.516 . S
C731 C732 1.502 . S
C731 C733 1.561 . S
C731 C734 1.526 . S
C732 H716 0.959 . S
C732 H717 0.959 . S
C732 H718 0.961 . S
C732 C731 1.502 . S
C733 H719 0.960 . S
C733 H720 0.961 . S
C733 H721 0.959 . S
C733 C731 1.561 . S
C734 C731 1.526 . S
C734 C735 1.396 . S
C734 C739 1.390 . S
C735 C729 1.465 . S
C735 C734 1.396 . S
C735 C736 1.399 . S
C736 H722 0.929 . S
C736 C735 1.399 . S
C736 C737 1.385 . S
C737 H723 0.931 . S
C737 C736 1.385 . S
C737 C738 1.389 . S
C738 C737 1.389 . S
C738 C739 1.387 . S
C739 H724 0.930 . S
C739 C734 1.390 . S
C739 C738 1.387 . S
H740 C752 0.930 . S
H741 C754 0.930 . S
H742 C755 0.930 . S
H743 C759 0.959 . S
H744 C759 0.959 . S
H745 C759 0.961 . S
H746 C760 0.960 . S
H747 C760 0.961 . S
H748 C760 0.959 . S
H749 C763 0.929 . S
H750 C764 0.931 . S
H751 C766 0.930 . S
C752 H740 0.930 . S
C752 C753 1.399 . S
C752 C757 1.399 . S
C753 C752 1.399 . S
C753 C754 1.376 . S
C754 H741 0.930 . S
C754 C753 1.376 . S
C754 C755 1.388 . S
C755 H742 0.930 . S
C755 C754 1.388 . S
C755 C756 1.390 . S
C756 C755 1.390 . S
C756 C757 1.394 . S
C756 C762 1.465 . S
C757 C752 1.399 . S
C757 C756 1.394 . S
C757 C758 1.516 . S
C758 C757 1.516 . S
C758 C759 1.502 . S
C758 C760 1.561 . S
C758 C761 1.526 . S
C759 H743 0.959 . S
C759 H744 0.959 . S
C759 H745 0.961 . S
C759 C758 1.502 . S
C760 H746 0.960 . S
C760 H747 0.961 . S
C760 H748 0.959 . S
C760 C758 1.561 . S
C761 C758 1.526 . S
C761 C762 1.396 . S
C761 C766 1.390 . S
C762 C756 1.465 . S
C762 C761 1.396 . S
C762 C763 1.399 . S
C763 H749 0.929 . S
C763 C762 1.399 . S
C763 C764 1.385 . S
C764 H750 0.931 . S
C764 C763 1.385 . S
C764 C765 1.389 . S
C765 C764 1.389 . S
C765 C766 1.387 . S
C766 H751 0.930 . S
C766 C761 1.390 . S
C766 C765 1.387 . S
H767 C779 0.930 . S
H768 C781 0.930 . S
H769 C782 0.930 . S
H770 C786 0.959 . S
H771 C786 0.959 . S
H772 C786 0.961 . S
H773 C787 0.960 . S
H774 C787 0.961 . S
H775 C787 0.959 . S
H776 C790 0.929 . S
H777 C791 0.931 . S
H778 C793 0.930 . S
C779 H767 0.930 . S
C779 C780 1.399 . S
C779 C784 1.399 . S
C780 C779 1.399 . S
C780 C781 1.376 . S
C781 H768 0.930 . S
C781 C780 1.376 . S
C781 C782 1.388 . S
C782 H769 0.930 . S
C782 C781 1.388 . S
C782 C783 1.390 . S
C783 C782 1.390 . S
C783 C784 1.394 . S
C783 C789 1.465 . S
C784 C779 1.399 . S
C784 C783 1.394 . S
C784 C785 1.516 . S
C785 C784 1.516 . S
C785 C786 1.502 . S
C785 C787 1.561 . S
C785 C788 1.526 . S
C786 H770 0.959 . S
C786 H771 0.959 . S
C786 H772 0.961 . S
C786 C785 1.502 . S
C787 H773 0.960 . S
C787 H774 0.961 . S
C787 H775 0.959 . S
C787 C785 1.561 . S
C788 C785 1.526 . S
C788 C789 1.396 . S
C788 C793 1.390 . S
C789 C783 1.465 . S
C789 C788 1.396 . S
C789 C790 1.399 . S
C790 H776 0.929 . S
C790 C789 1.399 . S
C790 C791 1.385 . S
C791 H777 0.931 . S
C791 C790 1.385 . S
C791 C792 1.389 . S
C792 C791 1.389 . S
C792 C793 1.387 . S
C793 H778 0.930 . S
C793 C788 1.390 . S
C793 C792 1.387 . S
H794 C806 0.930 . S
H795 C808 0.930 . S
H796 C809 0.930 . S
H797 C813 0.959 . S
H798 C813 0.959 . S
H799 C813 0.961 . S
H800 C814 0.960 . S
H801 C814 0.961 . S
H802 C814 0.959 . S
H803 C817 0.929 . S
H804 C818 0.931 . S
H805 C820 0.930 . S
C806 H794 0.930 . S
C806 C807 1.399 . S
C806 C811 1.399 . S
C807 C806 1.399 . S
C807 C808 1.376 . S
C808 H795 0.930 . S
C808 C807 1.376 . S
C808 C809 1.388 . S
C809 H796 0.930 . S
C809 C808 1.388 . S
C809 C810 1.390 . S
C810 C809 1.390 . S
C810 C811 1.394 . S
C810 C816 1.465 . S
C811 C806 1.399 . S
C811 C810 1.394 . S
C811 C812 1.516 . S
C812 C811 1.516 . S
C812 C813 1.502 . S
C812 C814 1.561 . S
C812 C815 1.526 . S
C813 H797 0.959 . S
C813 H798 0.959 . S
C813 H799 0.961 . S
C813 C812 1.502 . S
C814 H800 0.960 . S
C814 H801 0.961 . S
C814 H802 0.959 . S
C814 C812 1.561 . S
C815 C812 1.526 . S
C815 C816 1.396 . S
C815 C820 1.390 . S
C816 C810 1.465 . S
C816 C815 1.396 . S
C816 C817 1.399 . S
C817 H803 0.929 . S
C817 C816 1.399 . S
C817 C818 1.385 . S
C818 H804 0.931 . S
C818 C817 1.385 . S
C818 C819 1.389 . S
C819 C818 1.389 . S
C819 C820 1.387 . S
C820 H805 0.930 . S
C820 C815 1.390 . S
C820 C819 1.387 . S
H821 C833 0.930 . S
H822 C835 0.930 . S
H823 C836 0.930 . S
H824 C840 0.959 . S
H825 C840 0.959 . S
H826 C840 0.961 . S
H827 C841 0.960 . S
H828 C841 0.961 . S
H829 C841 0.959 . S
H830 C844 0.929 . S
H831 C845 0.931 . S
H832 C847 0.930 . S
C833 H821 0.930 . S
C833 C834 1.399 . S
C833 C838 1.399 . S
C834 C833 1.399 . S
C834 C835 1.376 . S
C835 H822 0.930 . S
C835 C834 1.376 . S
C835 C836 1.388 . S
C836 H823 0.930 . S
C836 C835 1.388 . S
C836 C837 1.390 . S
C837 C836 1.390 . S
C837 C838 1.394 . S
C837 C843 1.465 . S
C838 C833 1.399 . S
C838 C837 1.394 . S
C838 C839 1.516 . S
C839 C838 1.516 . S
C839 C840 1.502 . S
C839 C841 1.561 . S
C839 C842 1.526 . S
C840 H824 0.959 . S
C840 H825 0.959 . S
C840 H826 0.961 . S
C840 C839 1.502 . S
C841 H827 0.960 . S
C841 H828 0.961 . S
C841 H829 0.959 . S
C841 C839 1.561 . S
C842 C839 1.526 . S
C842 C843 1.396 . S
C842 C847 1.390 . S
C843 C837 1.465 . S
C843 C842 1.396 . S
C843 C844 1.399 . S
C844 H830 0.929 . S
C844 C843 1.399 . S
C844 C845 1.385 . S
C845 H831 0.931 . S
C845 C844 1.385 . S
C845 C846 1.389 . S
C846 C845 1.389 . S
C846 C847 1.387 . S
C847 H832 0.930 . S
C847 C842 1.390 . S
C847 C846 1.387 . S
H848 C860 0.930 . S
H849 C862 0.930 . S
H850 C863 0.930 . S
H851 C867 0.959 . S
H852 C867 0.959 . S
H853 C867 0.961 . S
H854 C868 0.956 . S
H855 C868 0.961 . S
H856 C868 0.959 . S
H857 C871 0.929 . S
H858 C872 0.931 . S
H859 C874 0.930 . S
C860 H848 0.930 . S
C860 C861 1.399 . S
C860 C865 1.399 . S
C861 C860 1.399 . S
C861 C862 1.376 . S
C862 H849 0.930 . S
C862 C861 1.376 . S
C862 C863 1.388 . S
C863 H850 0.930 . S
C863 C862 1.388 . S
C863 C864 1.390 . S
C864 C863 1.390 . S
C864 C865 1.394 . S
C864 C870 1.465 1_565 S
C865 C860 1.399 . S
C865 C864 1.394 . S
C865 C866 1.516 1_565 S
C866 C865 1.516 1_545 S
C866 C867 1.502 . S
C866 C868 1.561 . S
C866 C869 1.526 . S
C867 H851 0.959 . S
C867 H852 0.959 . S
C867 H853 0.961 . S
C867 C866 1.502 . S
C868 H854 0.956 . S
C868 H855 0.961 . S
C868 H856 0.959 . S
C868 C866 1.561 . S
C869 C866 1.526 . S
C869 C870 1.396 . S
C869 C874 1.390 . S
C870 C864 1.465 1_545 S
C870 C869 1.396 . S
C870 C871 1.399 . S
C871 H857 0.929 . S
C871 C870 1.399 . S
C871 C872 1.385 . S
C872 H858 0.931 . S
C872 C871 1.385 . S
C872 C873 1.389 . S
C873 C872 1.389 . S
C873 C874 1.387 . S
C874 H859 0.930 . S
C874 C869 1.390 . S
C874 C873 1.387 . S
H875 C887 0.930 . S
H876 C889 0.930 . S
H877 C890 0.930 . S
H878 C894 0.959 . S
H879 C894 0.959 1_455 S
H880 C894 0.961 . S
H881 C895 0.960 . S
H882 C895 0.961 . S
H883 C895 0.959 . S
H884 C898 0.929 1_655 S
H885 C899 0.931 . S
H886 C901 0.930 . S
C887 H875 0.930 . S
C887 C888 1.399 . S
C887 C892 1.399 . S
C888 C887 1.399 . S
C888 C889 1.376 . S
C889 H876 0.930 . S
C889 C888 1.376 . S
C889 C890 1.388 . S
C890 H877 0.930 . S
C890 C889 1.388 . S
C890 C891 1.390 . S
C891 C890 1.390 . S
C891 C892 1.394 . S
C891 C897 1.465 1_655 S
C892 C887 1.399 . S
C892 C891 1.394 . S
C892 C893 1.516 1_655 S
C893 C892 1.516 1_455 S
C893 C894 1.502 1_455 S
C893 C895 1.561 . S
C893 C896 1.526 . S
C894 H878 0.959 . S
C894 H879 0.959 1_655 S
C894 H880 0.961 . S
C894 C893 1.502 1_655 S
C895 H881 0.960 . S
C895 H882 0.961 . S
C895 H883 0.959 . S
C895 C893 1.561 . S
C896 C893 1.526 . S
C896 C897 1.396 . S
C896 C901 1.390 . S
C897 C891 1.465 1_455 S
C897 C896 1.396 . S
C897 C898 1.399 . S
C898 H884 0.929 1_455 S
C898 C897 1.399 . S
C898 C899 1.385 . S
C899 H885 0.931 . S
C899 C898 1.385 . S
C899 C900 1.389 . S
C900 C899 1.389 . S
C900 C901 1.387 . S
C901 H886 0.930 . S
C901 C896 1.390 . S
C901 C900 1.387 . S
H902 C914 0.930 . S
H903 C916 0.930 . S
H904 C917 0.930 . S
H905 C921 0.959 . S
H906 C921 0.959 . S
H907 C921 0.961 . S
H908 C922 0.960 . S
H909 C922 0.961 . S
H910 C922 0.959 . S
H911 C925 0.929 . S
H912 C926 0.931 . S
H913 C928 0.930 . S
C914 H902 0.930 . S
C914 C915 1.399 . S
C914 C919 1.399 . S
C915 C914 1.399 . S
C915 C916 1.376 1_556 S
C916 H903 0.930 . S
C916 C915 1.376 1_554 S
C916 C917 1.388 . S
C917 H904 0.930 . S
C917 C916 1.388 . S
C917 C918 1.390 . S
C918 C917 1.390 . S
C918 C919 1.394 1_554 S
C918 C924 1.465 . S
C919 C914 1.399 . S
C919 C918 1.394 1_556 S
C919 C920 1.516 . S
C920 C919 1.516 . S
C920 C921 1.502 . S
C920 C922 1.561 . S
C920 C923 1.526 . S
C921 H905 0.959 . S
C921 H906 0.959 . S
C921 H907 0.961 . S
C921 C920 1.502 . S
C922 H908 0.960 . S
C922 H909 0.961 . S
C922 H910 0.959 . S
C922 C920 1.561 . S
C923 C920 1.526 . S
C923 C924 1.396 1_556 S
C923 C928 1.390 . S
C924 C918 1.465 . S
C924 C923 1.396 1_554 S
C924 C925 1.399 . S
C925 H911 0.929 . S
C925 C924 1.399 . S
C925 C926 1.385 . S
C926 H912 0.931 . S
C926 C925 1.385 . S
C926 C927 1.389 . S
C927 C926 1.389 . S
C927 C928 1.387 1_554 S
C928 H913 0.930 . S
C928 C923 1.390 . S
C928 C927 1.387 1_556 S
H929 C941 0.930 . S
H930 C943 0.930 . S
H931 C944 0.930 . S
H932 C948 0.970 . S
H933 C948 0.959 . S
H934 C948 0.961 1_545 S
H935 C949 0.960 . S
H936 C949 0.961 . S
H937 C949 0.959 . S
H938 C952 0.929 1_455 S
H939 C953 0.931 . S
H940 C955 0.930 . S
C941 H929 0.930 . S
C941 C942 1.399 . S
C941 C946 1.399 . S
C942 C941 1.399 . S
C942 C943 1.376 1_556 S
C943 H930 0.930 . S
C943 C942 1.376 1_554 S
C943 C944 1.388 . S
C944 H931 0.930 . S
C944 C943 1.388 . S
C944 C945 1.390 . S
C945 C944 1.390 . S
C945 C946 1.394 1_554 S
C945 C951 1.468 1_545 S
C946 C941 1.399 . S
C946 C945 1.394 1_556 S
C946 C947 1.516 1_445 S
C947 C946 1.516 1_665 S
C947 C948 1.502 . S
C947 C949 1.561 1_655 S
C947 C950 1.526 . S
C948 H932 0.970 . S
C948 H933 0.959 . S
C948 H934 0.961 1_565 S
C948 C947 1.502 . S
C949 H935 0.960 . S
C949 H936 0.961 . S
C949 H937 0.959 . S
C949 C947 1.561 1_455 S
C950 C947 1.526 . S
C950 C951 1.394 1_656 S
C950 C955 1.390 . S
C951 C945 1.468 1_565 S
C951 C950 1.394 1_454 S
C951 C952 1.398 1_455 S
C952 H938 0.929 1_655 S
C952 C951 1.398 1_655 S
C952 C953 1.385 . S
C953 H939 0.931 . S
C953 C952 1.385 . S
C953 C954 1.389 . S
C954 C953 1.389 . S
C954 C955 1.387 1_554 S
C955 H940 0.930 . S
C955 C950 1.390 . S
C955 C954 1.387 1_556 S
H956 C968 0.930 . S
H957 C970 0.930 . S
H958 C971 0.930 . S
H959 C975 0.949 1_545 S
H960 C975 0.995 . S
H961 C975 0.931 1_545 S
H962 C976 0.960 . S
H963 C976 0.961 . S
H964 C976 0.959 . S
H965 C979 0.929 . S
H966 C980 0.931 . S
H967 C982 0.930 . S
C968 H956 0.930 . S
C968 C969 1.399 . S
C968 C973 1.399 . S
C969 C968 1.399 . S
C969 C970 1.376 . S
C970 H957 0.930 . S
C970 C969 1.376 . S
C970 C971 1.388 . S
C971 H958 0.930 . S
C971 C970 1.388 . S
C971 C972 1.390 . S
C972 C971 1.390 . S
C972 C973 1.394 . S
C972 C978 1.465 1_545 S
C973 C968 1.399 . S
C973 C972 1.394 . S
C973 C974 1.516 1_545 S
C974 C973 1.516 1_565 S
C974 C975 1.508 . S
C974 C976 1.561 . S
C974 C977 1.526 . S
C975 H959 0.949 1_565 S
C975 H960 0.995 . S
C975 H961 0.931 1_565 S
C975 C974 1.508 . S
C976 H962 0.960 . S
C976 H963 0.961 . S
C976 H964 0.959 . S
C976 C974 1.561 . S
C977 C974 1.526 . S
C977 C978 1.396 . S
C977 C982 1.390 . S
C978 C972 1.465 1_565 S
C978 C977 1.396 . S
C978 C979 1.399 . S
C979 H965 0.929 . S
C979 C978 1.399 . S
C979 C980 1.385 . S
C980 H966 0.931 . S
C980 C979 1.385 . S
C980 C981 1.389 . S
C981 C980 1.389 . S
C981 C982 1.387 . S
C982 H967 0.930 . S
C982 C977 1.390 . S
C982 C981 1.387 . S
H983 C995 0.930 1_655 S
H984 C997 0.930 . S
H985 C998 0.930 . S
H986 C1002 0.959 . S
H987 C1002 0.959 . S
H988 C1002 0.961 . S
H989 C1003 0.960 . S
H990 C1003 0.961 . S
H991 C1003 0.959 1_455 S
H992 C1006 0.929 . S
H993 C1007 0.931 . S
H994 C1009 0.930 . S
C995 H983 0.930 1_455 S
C995 C996 1.399 . S
C995 C1000 1.399 . S
C996 C995 1.399 . S
C996 C997 1.376 . S
C997 H984 0.930 . S
C997 C996 1.376 . S
C997 C998 1.388 . S
C998 H985 0.930 . S
C998 C997 1.388 . S
C998 C999 1.390 . S
C999 C998 1.390 . S
C999 C1000 1.394 . S
C999 C1005 1.465 . S
C1000 C995 1.399 . S
C1000 C999 1.394 . S
C1000 C1001 1.516 1_455 S
C1001 C1000 1.516 1_655 S
C1001 C1002 1.502 . S
C1001 C1003 1.561 . S
C1001 C1004 1.526 . S
C1002 H986 0.959 . S
C1002 H987 0.959 . S
C1002 H988 0.961 . S
C1002 C1001 1.502 . S
C1003 H989 0.960 . S
C1003 H990 0.961 . S
C1003 H991 0.959 1_655 S
C1003 C1001 1.561 . S
C1004 C1001 1.526 . S
C1004 C1005 1.396 1_655 S
C1004 C1009 1.390 . S
C1005 C999 1.465 . S
C1005 C1004 1.396 1_455 S
C1005 C1006 1.399 . S
C1006 H992 0.929 . S
C1006 C1005 1.399 . S
C1006 C1007 1.385 . S
C1007 H993 0.931 . S
C1007 C1006 1.385 . S
C1007 C1008 1.389 1_455 S
C1008 C1007 1.389 1_655 S
C1008 C1009 1.387 . S
C1009 H994 0.930 . S
C1009 C1004 1.390 . S
C1009 C1008 1.387 . S
H1010 C1022 0.930 . S
H1011 C1024 0.930 . S
H1012 C1025 0.930 . S
H1013 C1029 0.959 . S
H1014 C1029 0.959 . S
H1015 C1029 0.961 . S
H1016 C1030 0.960 . S
H1017 C1030 0.961 . S
H1018 C1030 0.959 . S
H1019 C1033 0.929 . S
H1020 C1034 0.931 . S
H1021 C1036 0.930 . S
C1022 H1010 0.930 . S
C1022 C1023 1.399 1_554 S
C1022 C1027 1.399 . S
C1023 C1022 1.399 1_556 S
C1023 C1024 1.376 . S
C1024 H1011 0.930 . S
C1024 C1023 1.376 . S
C1024 C1025 1.388 . S
C1025 H1012 0.930 . S
C1025 C1024 1.388 . S
C1025 C1026 1.390 . S
C1026 C1025 1.390 . S
C1026 C1027 1.394 1_556 S
C1026 C1032 1.465 . S
C1027 C1022 1.399 . S
C1027 C1026 1.394 1_554 S
C1027 C1028 1.516 . S
C1028 C1027 1.516 . S
C1028 C1029 1.502 . S
C1028 C1030 1.561 . S
C1028 C1031 1.526 . S
C1029 H1013 0.959 . S
C1029 H1014 0.959 . S
C1029 H1015 0.961 . S
C1029 C1028 1.502 . S
C1030 H1016 0.960 . S
C1030 H1017 0.961 . S
C1030 H1018 0.959 . S
C1030 C1028 1.561 . S
C1031 C1028 1.526 . S
C1031 C1032 1.396 1_554 S
C1031 C1036 1.390 . S
C1032 C1026 1.465 . S
C1032 C1031 1.396 1_556 S
C1032 C1033 1.399 . S
C1033 H1019 0.929 . S
C1033 C1032 1.399 . S
C1033 C1034 1.385 . S
C1034 H1020 0.931 . S
C1034 C1033 1.385 . S
C1034 C1035 1.389 1_556 S
C1035 C1034 1.389 1_554 S
C1035 C1036 1.387 . S
C1036 H1021 0.930 . S
C1036 C1031 1.390 . S
C1036 C1035 1.387 . S
H1037 C1049 0.930 . S
H1038 C1051 0.930 . S
H1039 C1052 0.930 . S
H1040 C1056 0.959 . S
H1041 C1056 0.959 . S
H1042 C1056 0.961 . S
H1043 C1057 0.960 . S
H1044 C1057 0.961 . S
H1045 C1057 0.959 . S
H1046 C1060 0.929 . S
H1047 C1061 0.931 . S
H1048 C1063 0.930 . S
C1049 H1037 0.930 . S
C1049 C1050 1.399 . S
C1049 C1054 1.399 . S
C1050 C1049 1.399 . S
C1050 C1051 1.376 . S
C1051 H1038 0.930 . S
C1051 C1050 1.376 . S
C1051 C1052 1.388 . S
C1052 H1039 0.930 . S
C1052 C1051 1.388 . S
C1052 C1053 1.390 . S
C1053 C1052 1.390 . S
C1053 C1054 1.394 . S
C1053 C1059 1.465 . S
C1054 C1049 1.399 . S
C1054 C1053 1.394 . S
C1054 C1055 1.516 . S
C1055 C1054 1.516 . S
C1055 C1056 1.502 . S
C1055 C1057 1.561 . S
C1055 C1058 1.526 . S
C1056 H1040 0.959 . S
C1056 H1041 0.959 . S
C1056 H1042 0.961 . S
C1056 C1055 1.502 . S
C1057 H1043 0.960 . S
C1057 H1044 0.961 . S
C1057 H1045 0.959 . S
C1057 C1055 1.561 . S
C1058 C1055 1.526 . S
C1058 C1059 1.396 . S
C1058 C1063 1.390 . S
C1059 C1053 1.465 . S
C1059 C1058 1.396 . S
C1059 C1060 1.399 . S
C1060 H1046 0.929 . S
C1060 C1059 1.399 . S
C1060 C1061 1.385 . S
C1061 H1047 0.931 . S
C1061 C1060 1.385 . S
C1061 C1062 1.389 . S
C1062 C1061 1.389 . S
C1062 C1063 1.387 . S
C1063 H1048 0.930 . S
C1063 C1058 1.390 . S
C1063 C1062 1.387 . S
H1064 C1076 0.930 . S
H1065 C1078 0.930 . S
H1066 C1079 0.930 . S
H1067 C1083 0.959 . S
H1068 C1083 0.959 . S
H1069 C1083 0.961 . S
H1070 C1084 0.960 . S
H1071 C1084 0.961 . S
H1072 C1084 0.959 . S
H1073 C1087 0.929 . S
H1074 C1088 0.931 . S
H1075 C1090 0.930 . S
C1076 H1064 0.930 . S
C1076 C1077 1.399 . S
C1076 C1081 1.399 . S
C1077 C1076 1.399 . S
C1077 C1078 1.376 . S
C1078 H1065 0.930 . S
C1078 C1077 1.376 . S
C1078 C1079 1.388 . S
C1079 H1066 0.930 . S
C1079 C1078 1.388 . S
C1079 C1080 1.390 . S
C1080 C1079 1.390 . S
C1080 C1081 1.394 . S
C1080 C1086 1.465 . S
C1081 C1076 1.399 . S
C1081 C1080 1.394 . S
C1081 C1082 1.516 . S
C1082 C1081 1.516 . S
C1082 C1083 1.502 . S
C1082 C1084 1.561 . S
C1082 C1085 1.526 . S
C1083 H1067 0.959 . S
C1083 H1068 0.959 . S
C1083 H1069 0.961 . S
C1083 C1082 1.502 . S
C1084 H1070 0.960 . S
C1084 H1071 0.961 . S
C1084 H1072 0.959 . S
C1084 C1082 1.561 . S
C1085 C1082 1.526 . S
C1085 C1086 1.396 . S
C1085 C1090 1.390 . S
C1086 C1080 1.465 . S
C1086 C1085 1.396 . S
C1086 C1087 1.399 . S
C1087 H1073 0.929 . S
C1087 C1086 1.399 . S
C1087 C1088 1.385 . S
C1088 H1074 0.931 . S
C1088 C1087 1.385 . S
C1088 C1089 1.389 . S
C1089 C1088 1.389 . S
C1089 C1090 1.387 . S
C1090 H1075 0.930 . S
C1090 C1085 1.390 . S
C1090 C1089 1.387 . S
H1091 C1103 0.930 . S
H1092 C1105 0.930 . S
H1093 C1106 0.930 . S
H1094 C1110 0.959 . S
H1095 C1110 0.959 . S
H1096 C1110 0.961 . S
H1097 C1111 0.960 . S
H1098 C1111 0.961 . S
H1099 C1111 0.959 . S
H1100 C1114 0.929 1_655 S
H1101 C1115 0.931 . S
H1102 C1117 0.930 . S
C1103 H1091 0.930 . S
C1103 C1104 1.399 . S
C1103 C1108 1.399 . S
C1104 C1103 1.399 . S
C1104 C1105 1.376 . S
C1105 H1092 0.930 . S
C1105 C1104 1.376 . S
C1105 C1106 1.388 . S
C1106 H1093 0.930 . S
C1106 C1105 1.388 . S
C1106 C1107 1.390 . S
C1107 C1106 1.390 . S
C1107 C1108 1.394 . S
C1107 C1113 1.466 . S
C1108 C1103 1.399 . S
C1108 C1107 1.394 . S
C1108 C1109 1.516 1_655 S
C1109 C1108 1.516 1_455 S
C1109 C1110 1.502 . S
C1109 C1111 1.561 1_455 S
C1109 C1112 1.526 . S
C1110 H1094 0.959 . S
C1110 H1095 0.959 . S
C1110 H1096 0.961 . S
C1110 C1109 1.502 . S
C1111 H1097 0.960 . S
C1111 H1098 0.961 . S
C1111 H1099 0.959 . S
C1111 C1109 1.561 1_655 S
C1112 C1109 1.526 . S
C1112 C1113 1.395 1_455 S
C1112 C1117 1.390 . S
C1113 C1107 1.466 . S
C1113 C1112 1.395 1_655 S
C1113 C1114 1.398 1_655 S
C1114 H1100 0.929 1_455 S
C1114 C1113 1.398 1_455 S
C1114 C1115 1.385 . S
C1115 H1101 0.931 . S
C1115 C1114 1.385 . S
C1115 C1116 1.389 . S
C1116 C1115 1.389 . S
C1116 C1117 1.387 . S
C1117 H1102 0.930 . S
C1117 C1112 1.390 . S
C1117 C1116 1.387 . S
H1118 C1130 0.930 . S
H1119 C1132 0.930 . S
H1120 C1133 0.930 . S
H1121 C1137 0.959 . S
H1122 C1137 0.959 . S
H1123 C1137 0.961 . S
H1124 C1138 0.960 . S
H1125 C1138 0.961 . S
H1126 C1138 0.959 . S
H1127 C1141 0.929 . S
H1128 C1142 0.931 . S
H1129 C1144 0.930 . S
C1130 H1118 0.930 . S
C1130 C1131 1.399 . S
C1130 C1135 1.399 . S
C1131 C1130 1.399 . S
C1131 C1132 1.376 . S
C1132 H1119 0.930 . S
C1132 C1131 1.376 . S
C1132 C1133 1.388 . S
C1133 H1120 0.930 . S
C1133 C1132 1.388 . S
C1133 C1134 1.390 . S
C1134 C1133 1.390 . S
C1134 C1135 1.394 . S
C1134 C1140 1.465 . S
C1135 C1130 1.399 . S
C1135 C1134 1.394 . S
C1135 C1136 1.516 . S
C1136 C1135 1.516 . S
C1136 C1137 1.502 . S
C1136 C1138 1.561 . S
C1136 C1139 1.526 . S
C1137 H1121 0.959 . S
C1137 H1122 0.959 . S
C1137 H1123 0.961 . S
C1137 C1136 1.502 . S
C1138 H1124 0.960 . S
C1138 H1125 0.961 . S
C1138 H1126 0.959 . S
C1138 C1136 1.561 . S
C1139 C1136 1.526 . S
C1139 C1140 1.396 . S
C1139 C1144 1.390 . S
C1140 C1134 1.465 . S
C1140 C1139 1.396 . S
C1140 C1141 1.399 . S
C1141 H1127 0.929 . S
C1141 C1140 1.399 . S
C1141 C1142 1.385 . S
C1142 H1128 0.931 . S
C1142 C1141 1.385 . S
C1142 C1143 1.389 . S
C1143 C1142 1.389 . S
C1143 C1144 1.387 . S
C1144 H1129 0.930 . S
C1144 C1139 1.390 . S
C1144 C1143 1.387 . S
H1145 C1157 0.930 . S
H1146 C1159 0.930 . S
H1147 C1160 0.930 . S
H1148 C1164 0.959 . S
H1149 C1164 0.959 . S
H1150 C1164 0.961 . S
H1151 C1165 0.960 . S
H1152 C1165 0.961 . S
H1153 C1165 0.959 . S
H1154 C1168 0.929 . S
H1155 C1169 0.931 . S
H1156 C1171 0.930 . S
C1157 H1145 0.930 . S
C1157 C1158 1.399 . S
C1157 C1162 1.399 . S
C1158 C1157 1.399 . S
C1158 C1159 1.376 . S
C1159 H1146 0.930 . S
C1159 C1158 1.376 . S
C1159 C1160 1.388 . S
C1160 H1147 0.930 . S
C1160 C1159 1.388 . S
C1160 C1161 1.390 . S
C1161 C1160 1.390 . S
C1161 C1162 1.394 . S
C1161 C1167 1.465 . S
C1162 C1157 1.399 . S
C1162 C1161 1.394 . S
C1162 C1163 1.516 . S
C1163 C1162 1.516 . S
C1163 C1164 1.502 . S
C1163 C1165 1.561 . S
C1163 C1166 1.526 . S
C1164 H1148 0.959 . S
C1164 H1149 0.959 . S
C1164 H1150 0.961 . S
C1164 C1163 1.502 . S
C1165 H1151 0.960 . S
C1165 H1152 0.961 . S
C1165 H1153 0.959 . S
C1165 C1163 1.561 . S
C1166 C1163 1.526 . S
C1166 C1167 1.396 . S
C1166 C1171 1.390 . S
C1167 C1161 1.465 . S
C1167 C1166 1.396 . S
C1167 C1168 1.399 . S
C1168 H1154 0.929 . S
C1168 C1167 1.399 . S
C1168 C1169 1.385 . S
C1169 H1155 0.931 . S
C1169 C1168 1.385 . S
C1169 C1170 1.389 . S
C1170 C1169 1.389 . S
C1170 C1171 1.387 . S
C1171 H1156 0.930 . S
C1171 C1166 1.390 . S
C1171 C1170 1.387 . S
H1172 C1184 0.930 . S
H1173 C1186 0.930 . S
H1174 C1187 0.930 . S
H1175 C1191 0.959 . S
H1176 C1191 0.959 . S
H1177 C1191 0.961 . S
H1178 C1192 0.960 . S
H1179 C1192 0.961 . S
H1180 C1192 0.959 . S
H1181 C1195 0.929 . S
H1182 C1196 0.931 . S
H1183 C1198 0.930 . S
C1184 H1172 0.930 . S
C1184 C1185 1.399 . S
C1184 C1189 1.399 . S
C1185 C1184 1.399 . S
C1185 C1186 1.376 . S
C1186 H1173 0.930 . S
C1186 C1185 1.376 . S
C1186 C1187 1.388 . S
C1187 H1174 0.930 . S
C1187 C1186 1.388 . S
C1187 C1188 1.390 . S
C1188 C1187 1.390 . S
C1188 C1189 1.394 . S
C1188 C1194 1.465 . S
C1189 C1184 1.399 . S
C1189 C1188 1.394 . S
C1189 C1190 1.516 . S
C1190 C1189 1.516 . S
C1190 C1191 1.502 . S
C1190 C1192 1.561 . S
C1190 C1193 1.526 . S
C1191 H1175 0.959 . S
C1191 H1176 0.959 . S
C1191 H1177 0.961 . S
C1191 C1190 1.502 . S
C1192 H1178 0.960 . S
C1192 H1179 0.961 . S
C1192 H1180 0.959 . S
C1192 C1190 1.561 . S
C1193 C1190 1.526 . S
C1193 C1194 1.396 . S
C1193 C1198 1.390 . S
C1194 C1188 1.465 . S
C1194 C1193 1.396 . S
C1194 C1195 1.399 . S
C1195 H1181 0.929 . S
C1195 C1194 1.399 . S
C1195 C1196 1.385 . S
C1196 H1182 0.931 . S
C1196 C1195 1.385 . S
C1196 C1197 1.389 . S
C1197 C1196 1.389 . S
C1197 C1198 1.387 . S
C1198 H1183 0.930 . S
C1198 C1193 1.390 . S
C1198 C1197 1.387 . S
H1199 C1211 0.930 . S
H1200 C1213 0.930 . S
H1201 C1214 0.930 . S
H1202 C1218 0.988 . S
H1203 C1218 0.886 1_565 S
H1204 C1218 1.032 . S
H1205 C1219 0.978 . S
H1206 C1219 0.961 . S
H1207 C1219 0.959 . S
H1208 C1222 0.929 . S
H1209 C1223 0.931 . S
H1210 C1225 0.930 . S
C1211 H1199 0.930 . S
C1211 C1212 1.399 . S
C1211 C1216 1.399 . S
C1212 C1211 1.399 . S
C1212 C1213 1.376 . S
C1213 H1200 0.930 . S
C1213 C1212 1.376 . S
C1213 C1214 1.388 . S
C1214 H1201 0.930 . S
C1214 C1213 1.388 . S
C1214 C1215 1.390 . S
C1215 C1214 1.390 . S
C1215 C1216 1.394 . S
C1215 C1221 1.465 1_545 S
C1216 C1211 1.399 . S
C1216 C1215 1.394 . S
C1216 C1217 1.516 1_545 S
C1217 C1216 1.516 1_565 S
C1217 C1218 1.487 1_565 S
C1217 C1219 1.561 . S
C1217 C1220 1.526 . S
C1218 H1202 0.988 . S
C1218 H1203 0.886 1_545 S
C1218 H1204 1.032 . S
C1218 C1217 1.487 1_545 S
C1219 H1205 0.978 . S
C1219 H1206 0.961 . S
C1219 H1207 0.959 . S
C1219 C1217 1.561 . S
C1220 C1217 1.526 . S
C1220 C1221 1.396 . S
C1220 C1225 1.390 . S
C1221 C1215 1.465 1_565 S
C1221 C1220 1.396 . S
C1221 C1222 1.399 . S
C1222 H1208 0.929 . S
C1222 C1221 1.399 . S
C1222 C1223 1.385 . S
C1223 H1209 0.931 . S
C1223 C1222 1.385 . S
C1223 C1224 1.389 . S
C1224 C1223 1.389 . S
C1224 C1225 1.387 . S
C1225 H1210 0.930 . S
C1225 C1220 1.390 . S
C1225 C1224 1.387 . S
H1226 C1238 0.930 . S
H1227 C1240 0.930 . S
H1228 C1241 0.930 . S
H1229 C1245 0.959 . S
H1230 C1245 0.959 . S
H1231 C1245 0.961 . S
H1232 C1246 0.960 . S
H1233 C1246 0.961 . S
H1234 C1246 0.959 . S
H1235 C1249 0.929 . S
H1236 C1250 0.931 . S
H1237 C1252 0.930 . S
C1238 H1226 0.930 . S
C1238 C1239 1.399 . S
C1238 C1243 1.399 . S
C1239 C1238 1.399 . S
C1239 C1240 1.376 . S
C1240 H1227 0.930 . S
C1240 C1239 1.376 . S
C1240 C1241 1.388 . S
C1241 H1228 0.930 . S
C1241 C1240 1.388 . S
C1241 C1242 1.390 . S
C1242 C1241 1.390 . S
C1242 C1243 1.394 . S
C1242 C1248 1.465 . S
C1243 C1238 1.399 . S
C1243 C1242 1.394 . S
C1243 C1244 1.516 . S
C1244 C1243 1.516 . S
C1244 C1245 1.502 . S
C1244 C1246 1.561 . S
C1244 C1247 1.526 . S
C1245 H1229 0.959 . S
C1245 H1230 0.959 . S
C1245 H1231 0.961 . S
C1245 C1244 1.502 . S
C1246 H1232 0.960 . S
C1246 H1233 0.961 . S
C1246 H1234 0.959 . S
C1246 C1244 1.561 . S
C1247 C1244 1.526 . S
C1247 C1248 1.396 . S
C1247 C1252 1.390 . S
C1248 C1242 1.465 . S
C1248 C1247 1.396 . S
C1248 C1249 1.399 . S
C1249 H1235 0.929 . S
C1249 C1248 1.399 . S
C1249 C1250 1.385 . S
C1250 H1236 0.931 . S
C1250 C1249 1.385 . S
C1250 C1251 1.389 . S
C1251 C1250 1.389 . S
C1251 C1252 1.387 . S
C1252 H1237 0.930 . S
C1252 C1247 1.390 . S
C1252 C1251 1.387 . S
H1253 C1265 0.930 . S
H1254 C1267 0.930 . S
H1255 C1268 0.930 . S
H1256 C1272 0.959 . S
H1257 C1272 0.959 . S
H1258 C1272 0.961 . S
H1259 C1273 0.960 . S
H1260 C1273 0.961 . S
H1261 C1273 0.959 . S
H1262 C1276 0.929 . S
H1263 C1277 0.931 . S
H1264 C1279 0.930 . S
C1265 H1253 0.930 . S
C1265 C1266 1.399 . S
C1265 C1270 1.399 . S
C1266 C1265 1.399 . S
C1266 C1267 1.376 1_554 S
C1267 H1254 0.930 . S
C1267 C1266 1.376 1_556 S
C1267 C1268 1.388 . S
C1268 H1255 0.930 . S
C1268 C1267 1.388 . S
C1268 C1269 1.390 . S
C1269 C1268 1.390 . S
C1269 C1270 1.394 1_556 S
C1269 C1275 1.465 . S
C1270 C1265 1.399 . S
C1270 C1269 1.394 1_554 S
C1270 C1271 1.516 . S
C1271 C1270 1.516 . S
C1271 C1272 1.502 . S
C1271 C1273 1.561 . S
C1271 C1274 1.526 . S
C1272 H1256 0.959 . S
C1272 H1257 0.959 . S
C1272 H1258 0.961 . S
C1272 C1271 1.502 . S
C1273 H1259 0.960 . S
C1273 H1260 0.961 . S
C1273 H1261 0.959 . S
C1273 C1271 1.561 . S
C1274 C1271 1.526 . S
C1274 C1275 1.396 1_554 S
C1274 C1279 1.390 . S
C1275 C1269 1.465 . S
C1275 C1274 1.396 1_556 S
C1275 C1276 1.399 . S
C1276 H1262 0.929 . S
C1276 C1275 1.399 . S
C1276 C1277 1.385 . S
C1277 H1263 0.931 . S
C1277 C1276 1.385 . S
C1277 C1278 1.389 . S
C1278 C1277 1.389 . S
C1278 C1279 1.387 1_556 S
C1279 H1264 0.930 . S
C1279 C1274 1.390 . S
C1279 C1278 1.387 1_554 S
H1280 C1292 0.930 . S
H1281 C1294 0.930 . S
H1282 C1295 0.930 . S
H1283 C1299 0.959 . S
H1284 C1299 0.959 . S
H1285 C1299 0.961 . S
H1286 C1300 0.960 . S
H1287 C1300 0.961 . S
H1288 C1300 0.959 . S
H1289 C1303 0.929 . S
H1290 C1304 0.931 . S
H1291 C1306 0.930 . S
C1292 H1280 0.930 . S
C1292 C1293 1.399 . S
C1292 C1297 1.399 . S
C1293 C1292 1.399 . S
C1293 C1294 1.376 . S
C1294 H1281 0.930 . S
C1294 C1293 1.376 . S
C1294 C1295 1.388 . S
C1295 H1282 0.930 . S
C1295 C1294 1.388 . S
C1295 C1296 1.390 . S
C1296 C1295 1.390 . S
C1296 C1297 1.394 . S
C1296 C1302 1.465 . S
C1297 C1292 1.399 . S
C1297 C1296 1.394 . S
C1297 C1298 1.516 . S
C1298 C1297 1.516 . S
C1298 C1299 1.502 . S
C1298 C1300 1.561 . S
C1298 C1301 1.526 . S
C1299 H1283 0.959 . S
C1299 H1284 0.959 . S
C1299 H1285 0.961 . S
C1299 C1298 1.502 . S
C1300 H1286 0.960 . S
C1300 H1287 0.961 . S
C1300 H1288 0.959 . S
C1300 C1298 1.561 . S
C1301 C1298 1.526 . S
C1301 C1302 1.396 . S
C1301 C1306 1.390 . S
C1302 C1296 1.465 . S
C1302 C1301 1.396 . S
C1302 C1303 1.399 . S
C1303 H1289 0.929 . S
C1303 C1302 1.399 . S
C1303 C1304 1.385 . S
C1304 H1290 0.931 . S
C1304 C1303 1.385 . S
C1304 C1305 1.389 . S
C1305 C1304 1.389 . S
C1305 C1306 1.387 . S
C1306 H1291 0.930 . S
C1306 C1301 1.390 . S
C1306 C1305 1.387 . S
H1307 C1319 0.930 . S
H1308 C1321 0.930 1_554 S
H1309 C1322 0.930 1_554 S
H1310 C1326 0.959 . S
H1311 C1326 0.959 . S
H1312 C1326 0.961 . S
H1313 C1327 0.960 . S
H1314 C1327 0.961 . S
H1315 C1327 0.959 . S
H1316 C1330 0.929 1_554 S
H1317 C1331 0.931 1_554 S
H1318 C1333 0.930 . S
C1319 H1307 0.930 . S
C1319 C1320 1.399 . S
C1319 C1324 1.399 . S
C1320 C1319 1.399 . S
C1320 C1321 1.376 . S
C1321 H1308 0.930 1_556 S
C1321 C1320 1.376 . S
C1321 C1322 1.388 . S
C1322 H1309 0.930 1_556 S
C1322 C1321 1.388 . S
C1322 C1323 1.390 . S
C1323 C1322 1.390 . S
C1323 C1324 1.394 . S
C1323 C1329 1.465 . S
C1324 C1319 1.399 . S
C1324 C1323 1.394 . S
C1324 C1325 1.516 . S
C1325 C1324 1.516 . S
C1325 C1326 1.502 . S
C1325 C1327 1.561 . S
C1325 C1328 1.526 . S
C1326 H1310 0.959 . S
C1326 H1311 0.959 . S
C1326 H1312 0.961 . S
C1326 C1325 1.502 . S
C1327 H1313 0.960 . S
C1327 H1314 0.961 . S
C1327 H1315 0.959 . S
C1327 C1325 1.561 . S
C1328 C1325 1.526 . S
C1328 C1329 1.396 . S
C1328 C1333 1.390 . S
C1329 C1323 1.465 . S
C1329 C1328 1.396 . S
C1329 C1330 1.399 . S
C1330 H1316 0.929 1_556 S
C1330 C1329 1.399 . S
C1330 C1331 1.385 . S
C1331 H1317 0.931 1_556 S
C1331 C1330 1.385 . S
C1331 C1332 1.389 . S
C1332 C1331 1.389 . S
C1332 C1333 1.387 . S
C1333 H1318 0.930 . S
C1333 C1328 1.390 . S
C1333 C1332 1.387 . S
H1334 C1346 0.930 . S
H1335 C1348 0.930 . S
H1336 C1349 0.930 . S
H1337 C1353 0.959 . S
H1338 C1353 0.959 . S
H1339 C1353 0.961 . S
H1340 C1354 0.960 . S
H1341 C1354 0.961 . S
H1342 C1354 0.959 . S
H1343 C1357 0.929 . S
H1344 C1358 0.931 . S
H1345 C1360 0.930 . S
C1346 H1334 0.930 . S
C1346 C1347 1.399 . S
C1346 C1351 1.399 . S
C1347 C1346 1.399 . S
C1347 C1348 1.376 . S
C1348 H1335 0.930 . S
C1348 C1347 1.376 . S
C1348 C1349 1.388 . S
C1349 H1336 0.930 . S
C1349 C1348 1.388 . S
C1349 C1350 1.390 . S
C1350 C1349 1.390 . S
C1350 C1351 1.394 . S
C1350 C1356 1.465 . S
C1351 C1346 1.399 . S
C1351 C1350 1.394 . S
C1351 C1352 1.516 . S
C1352 C1351 1.516 . S
C1352 C1353 1.502 . S
C1352 C1354 1.561 . S
C1352 C1355 1.526 . S
C1353 H1337 0.959 . S
C1353 H1338 0.959 . S
C1353 H1339 0.961 . S
C1353 C1352 1.502 . S
C1354 H1340 0.960 . S
C1354 H1341 0.961 . S
C1354 H1342 0.959 . S
C1354 C1352 1.561 . S
C1355 C1352 1.526 . S
C1355 C1356 1.396 . S
C1355 C1360 1.390 . S
C1356 C1350 1.465 . S
C1356 C1355 1.396 . S
C1356 C1357 1.399 . S
C1357 H1343 0.929 . S
C1357 C1356 1.399 . S
C1357 C1358 1.385 . S
C1358 H1344 0.931 . S
C1358 C1357 1.385 . S
C1358 C1359 1.389 . S
C1359 C1358 1.389 . S
C1359 C1360 1.387 . S
C1360 H1345 0.930 . S
C1360 C1355 1.390 . S
C1360 C1359 1.387 . S
H1361 C1373 0.930 . S
H1362 C1375 0.930 1_556 S
H1363 C1376 0.930 1_556 S
H1364 C1380 0.959 . S
H1365 C1380 0.959 . S
H1366 C1380 0.961 . S
H1367 C1381 0.960 . S
H1368 C1381 0.961 . S
H1369 C1381 0.959 . S
H1370 C1384 0.902 1_556 S
H1371 C1385 0.931 1_556 S
H1372 C1387 0.930 . S
C1373 H1361 0.930 . S
C1373 C1374 1.399 . S
C1373 C1378 1.399 . S
C1374 C1373 1.399 . S
C1374 C1375 1.376 . S
C1375 H1362 0.930 1_554 S
C1375 C1374 1.376 . S
C1375 C1376 1.388 . S
C1376 H1363 0.930 1_554 S
C1376 C1375 1.388 . S
C1376 C1377 1.390 . S
C1377 C1376 1.390 . S
C1377 C1378 1.394 . S
C1377 C1383 1.465 . S
C1378 C1373 1.399 . S
C1378 C1377 1.394 . S
C1378 C1379 1.516 . S
C1379 C1378 1.516 . S
C1379 C1380 1.502 . S
C1379 C1381 1.561 . S
C1379 C1382 1.526 . S
C1380 H1364 0.959 . S
C1380 H1365 0.959 . S
C1380 H1366 0.961 . S
C1380 C1379 1.502 . S
C1381 H1367 0.960 . S
C1381 H1368 0.961 . S
C1381 H1369 0.959 . S
C1381 C1379 1.561 . S
C1382 C1379 1.526 . S
C1382 C1383 1.396 . S
C1382 C1387 1.390 . S
C1383 C1377 1.465 . S
C1383 C1382 1.396 . S
C1383 C1384 1.421 . S
C1384 H1370 0.902 1_554 S
C1384 C1383 1.421 . S
C1384 C1385 1.391 . S
C1385 H1371 0.931 1_554 S
C1385 C1384 1.391 . S
C1385 C1386 1.389 . S
C1386 C1385 1.389 . S
C1386 C1387 1.387 . S
C1387 H1372 0.930 . S
C1387 C1382 1.390 . S
C1387 C1386 1.387 . S
H1388 C1400 0.930 . S
H1389 C1402 0.930 . S
H1390 C1403 0.930 . S
H1391 C1407 0.959 . S
H1392 C1407 0.959 . S
H1393 C1407 0.961 . S
H1394 C1408 0.960 . S
H1395 C1408 0.961 . S
H1396 C1408 0.959 . S
H1397 C1411 0.929 . S
H1398 C1412 0.931 . S
H1399 C1414 0.930 . S
C1400 H1388 0.930 . S
C1400 C1401 1.399 . S
C1400 C1405 1.399 . S
C1401 C1400 1.399 . S
C1401 C1402 1.376 . S
C1402 H1389 0.930 . S
C1402 C1401 1.376 . S
C1402 C1403 1.388 . S
C1403 H1390 0.930 . S
C1403 C1402 1.388 . S
C1403 C1404 1.390 . S
C1404 C1403 1.390 . S
C1404 C1405 1.394 . S
C1404 C1410 1.465 . S
C1405 C1400 1.399 . S
C1405 C1404 1.394 . S
C1405 C1406 1.516 . S
C1406 C1405 1.516 . S
C1406 C1407 1.502 . S
C1406 C1408 1.561 . S
C1406 C1409 1.526 . S
C1407 H1391 0.959 . S
C1407 H1392 0.959 . S
C1407 H1393 0.961 . S
C1407 C1406 1.502 . S
C1408 H1394 0.960 . S
C1408 H1395 0.961 . S
C1408 H1396 0.959 . S
C1408 C1406 1.561 . S
C1409 C1406 1.526 . S
C1409 C1410 1.396 . S
C1409 C1414 1.390 . S
C1410 C1404 1.465 . S
C1410 C1409 1.396 . S
C1410 C1411 1.399 . S
C1411 H1397 0.929 . S
C1411 C1410 1.399 . S
C1411 C1412 1.385 . S
C1412 H1398 0.931 . S
C1412 C1411 1.385 . S
C1412 C1413 1.389 . S
C1413 C1412 1.389 . S
C1413 C1414 1.387 . S
C1414 H1399 0.930 . S
C1414 C1409 1.390 . S
C1414 C1413 1.387 . S
H1415 C1427 0.930 . S
H1416 C1429 0.930 . S
H1417 C1430 0.930 . S
H1418 C1434 0.959 . S
H1419 C1434 0.959 . S
H1420 C1434 0.961 . S
H1421 C1435 0.960 . S
H1422 C1435 0.961 . S
H1423 C1435 0.959 . S
H1424 C1438 0.929 . S
H1425 C1439 0.931 . S
H1426 C1441 0.930 . S
C1427 H1415 0.930 . S
C1427 C1428 1.399 . S
C1427 C1432 1.399 . S
C1428 C1427 1.399 . S
C1428 C1429 1.376 . S
C1429 H1416 0.930 . S
C1429 C1428 1.376 . S
C1429 C1430 1.388 . S
C1430 H1417 0.930 . S
C1430 C1429 1.388 . S
C1430 C1431 1.390 . S
C1431 C1430 1.390 . S
C1431 C1432 1.394 . S
C1431 C1437 1.465 . S
C1432 C1427 1.399 . S
C1432 C1431 1.394 . S
C1432 C1433 1.516 . S
C1433 C1432 1.516 . S
C1433 C1434 1.502 . S
C1433 C1435 1.561 . S
C1433 C1436 1.526 . S
C1434 H1418 0.959 . S
C1434 H1419 0.959 . S
C1434 H1420 0.961 . S
C1434 C1433 1.502 . S
C1435 H1421 0.960 . S
C1435 H1422 0.961 . S
C1435 H1423 0.959 . S
C1435 C1433 1.561 . S
C1436 C1433 1.526 . S
C1436 C1437 1.396 . S
C1436 C1441 1.390 . S
C1437 C1431 1.465 . S
C1437 C1436 1.396 . S
C1437 C1438 1.399 . S
C1438 H1424 0.929 . S
C1438 C1437 1.399 . S
C1438 C1439 1.385 . S
C1439 H1425 0.931 . S
C1439 C1438 1.385 . S
C1439 C1440 1.389 . S
C1440 C1439 1.389 . S
C1440 C1441 1.387 . S
C1441 H1426 0.930 . S
C1441 C1436 1.390 . S
C1441 C1440 1.387 . S
H1442 C1454 0.930 . S
H1443 C1456 0.930 . S
H1444 C1457 0.930 . S
H1445 C1461 0.959 . S
H1446 C1461 0.959 . S
H1447 C1461 0.961 . S
H1448 C1462 0.960 . S
H1449 C1462 0.961 . S
H1450 C1462 0.959 . S
H1451 C1465 0.929 . S
H1452 C1466 0.931 . S
H1453 C1468 0.930 . S
C1454 H1442 0.930 . S
C1454 C1455 1.399 . S
C1454 C1459 1.399 . S
C1455 C1454 1.399 . S
C1455 C1456 1.376 . S
C1456 H1443 0.930 . S
C1456 C1455 1.376 . S
C1456 C1457 1.388 . S
C1457 H1444 0.930 . S
C1457 C1456 1.388 . S
C1457 C1458 1.390 . S
C1458 C1457 1.390 . S
C1458 C1459 1.394 . S
C1458 C1464 1.465 . S
C1459 C1454 1.399 . S
C1459 C1458 1.394 . S
C1459 C1460 1.516 . S
C1460 C1459 1.516 . S
C1460 C1461 1.502 . S
C1460 C1462 1.561 . S
C1460 C1463 1.526 . S
C1461 H1445 0.959 . S
C1461 H1446 0.959 . S
C1461 H1447 0.961 . S
C1461 C1460 1.502 . S
C1462 H1448 0.960 . S
C1462 H1449 0.961 . S
C1462 H1450 0.959 . S
C1462 C1460 1.561 . S
C1463 C1460 1.526 . S
C1463 C1464 1.396 . S
C1463 C1468 1.390 . S
C1464 C1458 1.465 . S
C1464 C1463 1.396 . S
C1464 C1465 1.399 . S
C1465 H1451 0.929 . S
C1465 C1464 1.399 . S
C1465 C1466 1.385 . S
C1466 H1452 0.931 . S
C1466 C1465 1.385 . S
C1466 C1467 1.389 . S
C1467 C1466 1.389 . S
C1467 C1468 1.387 . S
C1468 H1453 0.930 . S
C1468 C1463 1.390 . S
C1468 C1467 1.387 . S
H1469 C1481 0.930 . S
H1470 C1483 0.930 . S
H1471 C1484 0.930 . S
H1472 C1488 0.959 1_455 S
H1473 C1488 0.959 1_455 S
H1474 C1488 0.961 1_455 S
H1475 C1489 0.960 . S
H1476 C1489 0.961 . S
H1477 C1489 0.959 . S
H1478 C1492 0.929 . S
H1479 C1493 0.931 . S
H1480 C1495 0.930 . S
C1481 H1469 0.930 . S
C1481 C1482 1.399 . S
C1481 C1486 1.399 . S
C1482 C1481 1.399 . S
C1482 C1483 1.376 . S
C1483 H1470 0.930 . S
C1483 C1482 1.376 . S
C1483 C1484 1.388 . S
C1484 H1471 0.930 . S
C1484 C1483 1.388 . S
C1484 C1485 1.390 . S
C1485 C1484 1.390 . S
C1485 C1486 1.394 . S
C1485 C1491 1.465 . S
C1486 C1481 1.399 . S
C1486 C1485 1.394 . S
C1486 C1487 1.516 . S
C1487 C1486 1.516 . S
C1487 C1488 1.502 . S
C1487 C1489 1.561 . S
C1487 C1490 1.526 . S
C1488 H1472 0.959 1_655 S
C1488 H1473 0.959 1_655 S
C1488 H1474 0.961 1_655 S
C1488 C1487 1.502 . S
C1489 H1475 0.960 . S
C1489 H1476 0.961 . S
C1489 H1477 0.959 . S
C1489 C1487 1.561 . S
C1490 C1487 1.526 . S
C1490 C1491 1.396 . S
C1490 C1495 1.390 . S
C1491 C1485 1.465 . S
C1491 C1490 1.396 . S
C1491 C1492 1.399 . S
C1492 H1478 0.929 . S
C1492 C1491 1.399 . S
C1492 C1493 1.385 . S
C1493 H1479 0.931 . S
C1493 C1492 1.385 . S
C1493 C1494 1.389 . S
C1494 C1493 1.389 . S
C1494 C1495 1.387 . S
C1495 H1480 0.930 . S
C1495 C1490 1.390 . S
C1495 C1494 1.387 . S
H1496 C1508 0.930 . S
H1497 C1510 0.930 . S
H1498 C1511 0.930 . S
H1499 C1515 0.959 . S
H1500 C1515 0.959 . S
H1501 C1515 0.961 . S
H1502 C1516 0.960 . S
H1503 C1516 0.961 . S
H1504 C1516 0.959 . S
H1505 C1519 0.929 . S
H1506 C1520 0.931 . S
H1507 C1522 0.930 . S
C1508 H1496 0.930 . S
C1508 C1509 1.399 . S
C1508 C1513 1.399 . S
C1509 C1508 1.399 . S
C1509 C1510 1.376 . S
C1510 H1497 0.930 . S
C1510 C1509 1.376 . S
C1510 C1511 1.388 . S
C1511 H1498 0.930 . S
C1511 C1510 1.388 . S
C1511 C1512 1.390 . S
C1512 C1511 1.390 . S
C1512 C1513 1.394 . S
C1512 C1518 1.465 . S
C1513 C1508 1.399 . S
C1513 C1512 1.394 . S
C1513 C1514 1.516 . S
C1514 C1513 1.516 . S
C1514 C1515 1.502 . S
C1514 C1516 1.561 . S
C1514 C1517 1.526 . S
C1515 H1499 0.959 . S
C1515 H1500 0.959 . S
C1515 H1501 0.961 . S
C1515 C1514 1.502 . S
C1516 H1502 0.960 . S
C1516 H1503 0.961 . S
C1516 H1504 0.959 . S
C1516 C1514 1.561 . S
C1517 C1514 1.526 . S
C1517 C1518 1.396 . S
C1517 C1522 1.390 . S
C1518 C1512 1.465 . S
C1518 C1517 1.396 . S
C1518 C1519 1.399 . S
C1519 H1505 0.929 . S
C1519 C1518 1.399 . S
C1519 C1520 1.385 . S
C1520 H1506 0.931 . S
C1520 C1519 1.385 . S
C1520 C1521 1.389 . S
C1521 C1520 1.389 . S
C1521 C1522 1.387 . S
C1522 H1507 0.930 . S
C1522 C1517 1.390 . S
C1522 C1521 1.387 . S
H1523 C1535 0.930 . S
H1524 C1537 0.930 . S
H1525 C1538 0.930 . S
H1526 C1542 0.959 . S
H1527 C1542 0.959 . S
H1528 C1542 0.961 . S
H1529 C1543 0.960 . S
H1530 C1543 0.961 . S
H1531 C1543 0.959 . S
H1532 C1546 0.929 . S
H1533 C1547 0.931 . S
H1534 C1549 0.930 . S
C1535 H1523 0.930 . S
C1535 C1536 1.399 . S
C1535 C1540 1.399 . S
C1536 C1535 1.399 . S
C1536 C1537 1.376 . S
C1537 H1524 0.930 . S
C1537 C1536 1.376 . S
C1537 C1538 1.388 . S
C1538 H1525 0.930 . S
C1538 C1537 1.388 . S
C1538 C1539 1.390 . S
C1539 C1538 1.390 . S
C1539 C1540 1.394 . S
C1539 C1545 1.465 . S
C1540 C1535 1.399 . S
C1540 C1539 1.394 . S
C1540 C1541 1.516 . S
C1541 C1540 1.516 . S
C1541 C1542 1.502 . S
C1541 C1543 1.561 . S
C1541 C1544 1.526 . S
C1542 H1526 0.959 . S
C1542 H1527 0.959 . S
C1542 H1528 0.961 . S
C1542 C1541 1.502 . S
C1543 H1529 0.960 . S
C1543 H1530 0.961 . S
C1543 H1531 0.959 . S
C1543 C1541 1.561 . S
C1544 C1541 1.526 . S
C1544 C1545 1.396 . S
C1544 C1549 1.390 . S
C1545 C1539 1.465 . S
C1545 C1544 1.396 . S
C1545 C1546 1.399 . S
C1546 H1532 0.929 . S
C1546 C1545 1.399 . S
C1546 C1547 1.385 . S
C1547 H1533 0.931 . S
C1547 C1546 1.385 . S
C1547 C1548 1.389 . S
C1548 C1547 1.389 . S
C1548 C1549 1.387 . S
C1549 H1534 0.930 . S
C1549 C1544 1.390 . S
C1549 C1548 1.387 . S
H1550 C1562 0.930 . S
H1551 C1564 0.930 . S
H1552 C1565 0.930 . S
H1553 C1569 0.959 . S
H1554 C1569 0.959 . S
H1555 C1569 0.961 . S
H1556 C1570 0.960 . S
H1557 C1570 0.961 . S
H1558 C1570 0.959 . S
H1559 C1573 0.929 . S
H1560 C1574 0.931 . S
H1561 C1576 0.930 . S
C1562 H1550 0.930 . S
C1562 C1563 1.399 . S
C1562 C1567 1.399 . S
C1563 C1562 1.399 . S
C1563 C1564 1.376 . S
C1564 H1551 0.930 . S
C1564 C1563 1.376 . S
C1564 C1565 1.388 . S
C1565 H1552 0.930 . S
C1565 C1564 1.388 . S
C1565 C1566 1.390 . S
C1566 C1565 1.390 . S
C1566 C1567 1.394 . S
C1566 C1572 1.465 . S
C1567 C1562 1.399 . S
C1567 C1566 1.394 . S
C1567 C1568 1.516 . S
C1568 C1567 1.516 . S
C1568 C1569 1.502 . S
C1568 C1570 1.561 . S
C1568 C1571 1.526 . S
C1569 H1553 0.959 . S
C1569 H1554 0.959 . S
C1569 H1555 0.961 . S
C1569 C1568 1.502 . S
C1570 H1556 0.960 . S
C1570 H1557 0.961 . S
C1570 H1558 0.959 . S
C1570 C1568 1.561 . S
C1571 C1568 1.526 . S
C1571 C1572 1.396 . S
C1571 C1576 1.390 . S
C1572 C1566 1.465 . S
C1572 C1571 1.396 . S
C1572 C1573 1.399 . S
C1573 H1559 0.929 . S
C1573 C1572 1.399 . S
C1573 C1574 1.385 . S
C1574 H1560 0.931 . S
C1574 C1573 1.385 . S
C1574 C1575 1.389 . S
C1575 C1574 1.389 . S
C1575 C1576 1.387 . S
C1576 H1561 0.930 . S
C1576 C1571 1.390 . S
C1576 C1575 1.387 . S
H1577 C1589 0.930 . S
H1578 C1591 0.930 . S
H1579 C1592 0.930 . S
H1580 C1596 0.959 . S
H1581 C1596 0.959 . S
H1582 C1596 0.961 . S
H1583 C1597 0.960 . S
H1584 C1597 0.961 . S
H1585 C1597 0.959 . S
H1586 C1600 0.929 . S
H1587 C1601 0.931 . S
H1588 C1603 0.930 . S
C1589 H1577 0.930 . S
C1589 C1590 1.399 . S
C1589 C1594 1.399 . S
C1590 C1589 1.399 . S
C1590 C1591 1.376 . S
C1591 H1578 0.930 . S
C1591 C1590 1.376 . S
C1591 C1592 1.388 . S
C1592 H1579 0.930 . S
C1592 C1591 1.388 . S
C1592 C1593 1.390 . S
C1593 C1592 1.390 . S
C1593 C1594 1.394 . S
C1593 C1599 1.465 . S
C1594 C1589 1.399 . S
C1594 C1593 1.394 . S
C1594 C1595 1.516 . S
C1595 C1594 1.516 . S
C1595 C1596 1.502 . S
C1595 C1597 1.561 . S
C1595 C1598 1.526 . S
C1596 H1580 0.959 . S
C1596 H1581 0.959 . S
C1596 H1582 0.961 . S
C1596 C1595 1.502 . S
C1597 H1583 0.960 . S
C1597 H1584 0.961 . S
C1597 H1585 0.959 . S
C1597 C1595 1.561 . S
C1598 C1595 1.526 . S
C1598 C1599 1.396 . S
C1598 C1603 1.390 . S
C1599 C1593 1.465 . S
C1599 C1598 1.396 . S
C1599 C1600 1.399 . S
C1600 H1586 0.929 . S
C1600 C1599 1.399 . S
C1600 C1601 1.385 . S
C1601 H1587 0.931 . S
C1601 C1600 1.385 . S
C1601 C1602 1.389 . S
C1602 C1601 1.389 . S
C1602 C1603 1.387 . S
C1603 H1588 0.930 . S
C1603 C1598 1.390 . S
C1603 C1602 1.387 . S
H1604 C1616 0.930 . S
H1605 C1618 0.930 . S
H1606 C1619 0.930 . S
H1607 C1623 0.959 . S
H1608 C1623 0.959 . S
H1609 C1623 0.961 . S
H1610 C1624 0.960 . S
H1611 C1624 0.961 . S
H1612 C1624 0.959 . S
H1613 C1627 0.929 . S
H1614 C1628 0.931 . S
H1615 C1630 0.930 . S
C1616 H1604 0.930 . S
C1616 C1617 1.399 . S
C1616 C1621 1.399 . S
C1617 C1616 1.399 . S
C1617 C1618 1.376 . S
C1618 H1605 0.930 . S
C1618 C1617 1.376 . S
C1618 C1619 1.388 . S
C1619 H1606 0.930 . S
C1619 C1618 1.388 . S
C1619 C1620 1.390 . S
C1620 C1619 1.390 . S
C1620 C1621 1.394 . S
C1620 C1626 1.465 . S
C1621 C1616 1.399 . S
C1621 C1620 1.394 . S
C1621 C1622 1.516 . S
C1622 C1621 1.516 . S
C1622 C1623 1.502 . S
C1622 C1624 1.561 . S
C1622 C1625 1.526 . S
C1623 H1607 0.959 . S
C1623 H1608 0.959 . S
C1623 H1609 0.961 . S
C1623 C1622 1.502 . S
C1624 H1610 0.960 . S
C1624 H1611 0.961 . S
C1624 H1612 0.959 . S
C1624 C1622 1.561 . S
C1625 C1622 1.526 . S
C1625 C1626 1.396 . S
C1625 C1630 1.390 . S
C1626 C1620 1.465 . S
C1626 C1625 1.396 . S
C1626 C1627 1.399 . S
C1627 H1613 0.929 . S
C1627 C1626 1.399 . S
C1627 C1628 1.385 . S
C1628 H1614 0.931 . S
C1628 C1627 1.385 . S
C1628 C1629 1.389 . S
C1629 C1628 1.389 . S
C1629 C1630 1.387 . S
C1630 H1615 0.930 . S
C1630 C1625 1.390 . S
C1630 C1629 1.387 . S
H1631 C1643 0.930 . S
H1632 C1645 0.930 1_554 S
H1633 C1646 0.930 1_554 S
H1634 C1650 0.959 . S
H1635 C1650 0.959 . S
H1636 C1650 0.961 . S
H1637 C1651 0.960 . S
H1638 C1651 0.961 . S
H1639 C1651 0.959 . S
H1640 C1654 0.902 1_554 S
H1641 C1655 0.931 1_554 S
H1642 C1657 0.930 . S
C1643 H1631 0.930 . S
C1643 C1644 1.399 . S
C1643 C1648 1.399 . S
C1644 C1643 1.399 . S
C1644 C1645 1.376 . S
C1645 H1632 0.930 1_556 S
C1645 C1644 1.376 . S
C1645 C1646 1.388 . S
C1646 H1633 0.930 1_556 S
C1646 C1645 1.388 . S
C1646 C1647 1.390 . S
C1647 C1646 1.390 . S
C1647 C1648 1.394 . S
C1647 C1653 1.465 . S
C1648 C1643 1.399 . S
C1648 C1647 1.394 . S
C1648 C1649 1.516 . S
C1649 C1648 1.516 . S
C1649 C1650 1.502 . S
C1649 C1651 1.561 . S
C1649 C1652 1.526 . S
C1650 H1634 0.959 . S
C1650 H1635 0.959 . S
C1650 H1636 0.961 . S
C1650 C1649 1.502 . S
C1651 H1637 0.960 . S
C1651 H1638 0.961 . S
C1651 H1639 0.959 . S
C1651 C1649 1.561 . S
C1652 C1649 1.526 . S
C1652 C1653 1.396 . S
C1652 C1657 1.390 . S
C1653 C1647 1.465 . S
C1653 C1652 1.396 . S
C1653 C1654 1.421 . S
C1654 H1640 0.902 1_556 S
C1654 C1653 1.421 . S
C1654 C1655 1.391 . S
C1655 H1641 0.931 1_556 S
C1655 C1654 1.391 . S
C1655 C1656 1.389 . S
C1656 C1655 1.389 . S
C1656 C1657 1.387 . S
C1657 H1642 0.930 . S
C1657 C1652 1.390 . S
C1657 C1656 1.387 . S
H1658 C1670 0.930 . S
H1659 C1672 0.930 . S
H1660 C1673 0.930 . S
H1661 C1677 0.959 . S
H1662 C1677 0.959 . S
H1663 C1677 0.961 . S
H1664 C1678 0.960 . S
H1665 C1678 0.961 . S
H1666 C1678 0.959 . S
H1667 C1681 0.929 . S
H1668 C1682 0.931 . S
H1669 C1684 0.930 . S
C1670 H1658 0.930 . S
C1670 C1671 1.399 . S
C1670 C1675 1.399 . S
C1671 C1670 1.399 . S
C1671 C1672 1.376 . S
C1672 H1659 0.930 . S
C1672 C1671 1.376 . S
C1672 C1673 1.388 . S
C1673 H1660 0.930 . S
C1673 C1672 1.388 . S
C1673 C1674 1.390 . S
C1674 C1673 1.390 . S
C1674 C1675 1.394 . S
C1674 C1680 1.465 . S
C1675 C1670 1.399 . S
C1675 C1674 1.394 . S
C1675 C1676 1.516 . S
C1676 C1675 1.516 . S
C1676 C1677 1.502 . S
C1676 C1678 1.561 . S
C1676 C1679 1.526 . S
C1677 H1661 0.959 . S
C1677 H1662 0.959 . S
C1677 H1663 0.961 . S
C1677 C1676 1.502 . S
C1678 H1664 0.960 . S
C1678 H1665 0.961 . S
C1678 H1666 0.959 . S
C1678 C1676 1.561 . S
C1679 C1676 1.526 . S
C1679 C1680 1.396 . S
C1679 C1684 1.390 . S
C1680 C1674 1.465 . S
C1680 C1679 1.396 . S
C1680 C1681 1.399 . S
C1681 H1667 0.929 . S
C1681 C1680 1.399 . S
C1681 C1682 1.385 . S
C1682 H1668 0.931 . S
C1682 C1681 1.385 . S
C1682 C1683 1.389 . S
C1683 C1682 1.389 . S
C1683 C1684 1.387 . S
C1684 H1669 0.930 . S
C1684 C1679 1.390 . S
C1684 C1683 1.387 . S
H1685 C1697 0.930 . S
H1686 C1699 0.930 . S
H1687 C1700 0.930 . S
H1688 C1704 0.959 . S
H1689 C1704 0.959 . S
H1690 C1704 0.961 . S
H1691 C1705 0.960 . S
H1692 C1705 0.961 . S
H1693 C1705 0.959 . S
H1694 C1708 0.929 . S
H1695 C1709 0.931 . S
H1696 C1711 0.930 . S
C1697 H1685 0.930 . S
C1697 C1698 1.399 . S
C1697 C1702 1.399 . S
C1698 C1697 1.399 . S
C1698 C1699 1.376 . S
C1699 H1686 0.930 . S
C1699 C1698 1.376 . S
C1699 C1700 1.388 . S
C1700 H1687 0.930 . S
C1700 C1699 1.388 . S
C1700 C1701 1.390 . S
C1701 C1700 1.390 . S
C1701 C1702 1.394 . S
C1701 C1707 1.465 . S
C1702 C1697 1.399 . S
C1702 C1701 1.394 . S
C1702 C1703 1.516 . S
C1703 C1702 1.516 . S
C1703 C1704 1.502 . S
C1703 C1705 1.561 1_554 S
C1703 C1706 1.526 . S
C1704 H1688 0.959 . S
C1704 H1689 0.959 . S
C1704 H1690 0.961 . S
C1704 C1703 1.502 . S
C1705 H1691 0.960 . S
C1705 H1692 0.961 . S
C1705 H1693 0.959 . S
C1705 C1703 1.561 1_556 S
C1706 C1703 1.526 . S
C1706 C1707 1.396 . S
C1706 C1711 1.390 . S
C1707 C1701 1.465 . S
C1707 C1706 1.396 . S
C1707 C1708 1.399 . S
C1708 H1694 0.929 . S
C1708 C1707 1.399 . S
C1708 C1709 1.385 . S
C1709 H1695 0.931 . S
C1709 C1708 1.385 . S
C1709 C1710 1.389 . S
C1710 C1709 1.389 . S
C1710 C1711 1.387 . S
C1711 H1696 0.930 . S
C1711 C1706 1.390 . S
C1711 C1710 1.387 . S
H1712 C1724 0.930 . S
H1713 C1726 0.930 . S
H1714 C1727 0.930 . S
H1715 C1731 0.959 . S
H1716 C1731 0.959 . S
H1717 C1731 0.961 . S
H1718 C1732 0.960 . S
H1719 C1732 0.961 . S
H1720 C1732 0.959 . S
H1721 C1735 0.929 . S
H1722 C1736 0.931 . S
H1723 C1738 0.930 . S
C1724 H1712 0.930 . S
C1724 C1725 1.399 . S
C1724 C1729 1.399 . S
C1725 C1724 1.399 . S
C1725 C1726 1.376 . S
C1726 H1713 0.930 . S
C1726 C1725 1.376 . S
C1726 C1727 1.388 . S
C1727 H1714 0.930 . S
C1727 C1726 1.388 . S
C1727 C1728 1.390 . S
C1728 C1727 1.390 . S
C1728 C1729 1.394 . S
C1728 C1734 1.465 . S
C1729 C1724 1.399 . S
C1729 C1728 1.394 . S
C1729 C1730 1.516 . S
C1730 C1729 1.516 . S
C1730 C1731 1.502 . S
C1730 C1732 1.561 . S
C1730 C1733 1.526 . S
C1731 H1715 0.959 . S
C1731 H1716 0.959 . S
C1731 H1717 0.961 . S
C1731 C1730 1.502 . S
C1732 H1718 0.960 . S
C1732 H1719 0.961 . S
C1732 H1720 0.959 . S
C1732 C1730 1.561 . S
C1733 C1730 1.526 . S
C1733 C1734 1.396 . S
C1733 C1738 1.390 . S
C1734 C1728 1.465 . S
C1734 C1733 1.396 . S
C1734 C1735 1.399 . S
C1735 H1721 0.929 . S
C1735 C1734 1.399 . S
C1735 C1736 1.385 . S
C1736 H1722 0.931 . S
C1736 C1735 1.385 . S
C1736 C1737 1.389 . S
C1737 C1736 1.389 . S
C1737 C1738 1.387 . S
C1738 H1723 0.930 . S
C1738 C1733 1.390 . S
C1738 C1737 1.387 . S
H1739 C1751 0.930 . S
H1740 C1753 0.930 . S
H1741 C1754 0.930 . S
H1742 C1758 0.959 . S
H1743 C1758 0.959 . S
H1744 C1758 0.961 . S
H1745 C1759 0.960 . S
H1746 C1759 0.961 . S
H1747 C1759 0.959 . S
H1748 C1762 0.929 . S
H1749 C1763 0.931 . S
H1750 C1765 0.930 . S
C1751 H1739 0.930 . S
C1751 C1752 1.399 . S
C1751 C1756 1.399 . S
C1752 C1751 1.399 . S
C1752 C1753 1.376 . S
C1753 H1740 0.930 . S
C1753 C1752 1.376 . S
C1753 C1754 1.388 . S
C1754 H1741 0.930 . S
C1754 C1753 1.388 . S
C1754 C1755 1.390 . S
C1755 C1754 1.390 . S
C1755 C1756 1.394 . S
C1755 C1761 1.465 . S
C1756 C1751 1.399 . S
C1756 C1755 1.394 . S
C1756 C1757 1.516 . S
C1757 C1756 1.516 . S
C1757 C1758 1.502 . S
C1757 C1759 1.561 . S
C1757 C1760 1.526 . S
C1758 H1742 0.959 . S
C1758 H1743 0.959 . S
C1758 H1744 0.961 . S
C1758 C1757 1.502 . S
C1759 H1745 0.960 . S
C1759 H1746 0.961 . S
C1759 H1747 0.959 . S
C1759 C1757 1.561 . S
C1760 C1757 1.526 . S
C1760 C1761 1.396 . S
C1760 C1765 1.390 . S
C1761 C1755 1.465 . S
C1761 C1760 1.396 . S
C1761 C1762 1.399 . S
C1762 H1748 0.929 . S
C1762 C1761 1.399 . S
C1762 C1763 1.385 . S
C1763 H1749 0.931 . S
C1763 C1762 1.385 . S
C1763 C1764 1.389 . S
C1764 C1763 1.389 . S
C1764 C1765 1.387 . S
C1765 H1750 0.930 . S
C1765 C1760 1.390 . S
C1765 C1764 1.387 . S
H1766 C1778 0.930 . S
H1767 C1780 0.930 . S
H1768 C1781 0.930 . S
H1769 C1785 0.959 . S
H1770 C1785 0.959 . S
H1771 C1785 0.961 . S
H1772 C1786 0.960 . S
H1773 C1786 0.961 . S
H1774 C1786 0.959 . S
H1775 C1789 0.929 . S
H1776 C1790 0.931 . S
H1777 C1792 0.930 . S
C1778 H1766 0.930 . S
C1778 C1779 1.399 . S
C1778 C1783 1.399 . S
C1779 C1778 1.399 . S
C1779 C1780 1.376 . S
C1780 H1767 0.930 . S
C1780 C1779 1.376 . S
C1780 C1781 1.388 . S
C1781 H1768 0.930 . S
C1781 C1780 1.388 . S
C1781 C1782 1.390 . S
C1782 C1781 1.390 . S
C1782 C1783 1.394 . S
C1782 C1788 1.465 . S
C1783 C1778 1.399 . S
C1783 C1782 1.394 . S
C1783 C1784 1.516 . S
C1784 C1783 1.516 . S
C1784 C1785 1.502 . S
C1784 C1786 1.561 . S
C1784 C1787 1.526 . S
C1785 H1769 0.959 . S
C1785 H1770 0.959 . S
C1785 H1771 0.961 . S
C1785 C1784 1.502 . S
C1786 H1772 0.960 . S
C1786 H1773 0.961 . S
C1786 H1774 0.959 . S
C1786 C1784 1.561 . S
C1787 C1784 1.526 . S
C1787 C1788 1.396 . S
C1787 C1792 1.390 . S
C1788 C1782 1.465 . S
C1788 C1787 1.396 . S
C1788 C1789 1.399 . S
C1789 H1775 0.929 . S
C1789 C1788 1.399 . S
C1789 C1790 1.385 . S
C1790 H1776 0.931 . S
C1790 C1789 1.385 . S
C1790 C1791 1.389 . S
C1791 C1790 1.389 . S
C1791 C1792 1.387 . S
C1792 H1777 0.930 . S
C1792 C1787 1.390 . S
C1792 C1791 1.387 . S
H1793 C1805 0.930 . S
H1794 C1807 0.930 . S
H1795 C1808 0.930 . S
H1796 C1812 0.959 . S
H1797 C1812 0.959 . S
H1798 C1812 0.961 . S
H1799 C1813 0.960 . S
H1800 C1813 0.961 . S
H1801 C1813 0.959 . S
H1802 C1816 0.929 . S
H1803 C1817 0.931 . S
H1804 C1819 0.930 . S
C1805 H1793 0.930 . S
C1805 C1806 1.399 . S
C1805 C1810 1.399 . S
C1806 C1805 1.399 . S
C1806 C1807 1.376 . S
C1807 H1794 0.930 . S
C1807 C1806 1.376 . S
C1807 C1808 1.388 . S
C1808 H1795 0.930 . S
C1808 C1807 1.388 . S
C1808 C1809 1.390 . S
C1809 C1808 1.390 . S
C1809 C1810 1.394 . S
C1809 C1815 1.465 . S
C1810 C1805 1.399 . S
C1810 C1809 1.394 . S
C1810 C1811 1.516 . S
C1811 C1810 1.516 . S
C1811 C1812 1.502 . S
C1811 C1813 1.561 . S
C1811 C1814 1.526 . S
C1812 H1796 0.959 . S
C1812 H1797 0.959 . S
C1812 H1798 0.961 . S
C1812 C1811 1.502 . S
C1813 H1799 0.960 . S
C1813 H1800 0.961 . S
C1813 H1801 0.959 . S
C1813 C1811 1.561 . S
C1814 C1811 1.526 . S
C1814 C1815 1.396 . S
C1814 C1819 1.390 . S
C1815 C1809 1.465 . S
C1815 C1814 1.396 . S
C1815 C1816 1.399 . S
C1816 H1802 0.929 . S
C1816 C1815 1.399 . S
C1816 C1817 1.385 . S
C1817 H1803 0.931 . S
C1817 C1816 1.385 . S
C1817 C1818 1.389 . S
C1818 C1817 1.389 . S
C1818 C1819 1.387 . S
C1819 H1804 0.930 . S
C1819 C1814 1.390 . S
C1819 C1818 1.387 . S
H1820 C1832 0.930 . S
H1821 C1834 0.930 . S
H1822 C1835 0.930 . S
H1823 C1839 0.959 . S
H1824 C1839 0.959 1_655 S
H1825 C1839 0.961 . S
H1826 C1840 0.960 . S
H1827 C1840 0.961 . S
H1828 C1840 0.959 . S
H1829 C1843 0.929 . S
H1830 C1844 0.931 . S
H1831 C1846 0.930 1_655 S
C1832 H1820 0.930 . S
C1832 C1833 1.399 . S
C1832 C1837 1.399 . S
C1833 C1832 1.399 . S
C1833 C1834 1.376 . S
C1834 H1821 0.930 . S
C1834 C1833 1.376 . S
C1834 C1835 1.388 . S
C1835 H1822 0.930 . S
C1835 C1834 1.388 . S
C1835 C1836 1.390 . S
C1836 C1835 1.390 . S
C1836 C1837 1.394 . S
C1836 C1842 1.465 . S
C1837 C1832 1.399 . S
C1837 C1836 1.394 . S
C1837 C1838 1.516 . S
C1838 C1837 1.516 . S
C1838 C1839 1.502 . S
C1838 C1840 1.561 . S
C1838 C1841 1.526 . S
C1839 H1823 0.959 . S
C1839 H1824 0.959 1_455 S
C1839 H1825 0.961 . S
C1839 C1838 1.502 . S
C1840 H1826 0.960 . S
C1840 H1827 0.961 . S
C1840 H1828 0.959 . S
C1840 C1838 1.561 . S
C1841 C1838 1.526 . S
C1841 C1842 1.396 . S
C1841 C1846 1.390 . S
C1842 C1836 1.465 . S
C1842 C1841 1.396 . S
C1842 C1843 1.399 . S
C1843 H1829 0.929 . S
C1843 C1842 1.399 . S
C1843 C1844 1.385 . S
C1844 H1830 0.931 . S
C1844 C1843 1.385 . S
C1844 C1845 1.389 . S
C1845 C1844 1.389 . S
C1845 C1846 1.387 . S
C1846 H1831 0.930 1_455 S
C1846 C1841 1.390 . S
C1846 C1845 1.387 . S
H1847 C1859 0.930 . S
H1848 C1861 0.930 . S
H1849 C1862 0.930 . S
H1850 C1866 0.959 . S
H1851 C1866 0.959 . S
H1852 C1866 0.961 . S
H1853 C1867 0.960 . S
H1854 C1867 0.961 . S
H1855 C1867 0.959 . S
H1856 C1870 0.929 . S
H1857 C1871 0.931 . S
H1858 C1873 0.930 . S
C1859 H1847 0.930 . S
C1859 C1860 1.399 . S
C1859 C1864 1.399 . S
C1860 C1859 1.399 . S
C1860 C1861 1.376 . S
C1861 H1848 0.930 . S
C1861 C1860 1.376 . S
C1861 C1862 1.388 . S
C1862 H1849 0.930 . S
C1862 C1861 1.388 . S
C1862 C1863 1.390 . S
C1863 C1862 1.390 . S
C1863 C1864 1.394 . S
C1863 C1869 1.465 . S
C1864 C1859 1.399 . S
C1864 C1863 1.394 . S
C1864 C1865 1.516 . S
C1865 C1864 1.516 . S
C1865 C1866 1.502 . S
C1865 C1867 1.561 . S
C1865 C1868 1.526 . S
C1866 H1850 0.959 . S
C1866 H1851 0.959 . S
C1866 H1852 0.961 . S
C1866 C1865 1.502 . S
C1867 H1853 0.960 . S
C1867 H1854 0.961 . S
C1867 H1855 0.959 . S
C1867 C1865 1.561 . S
C1868 C1865 1.526 . S
C1868 C1869 1.396 . S
C1868 C1873 1.390 . S
C1869 C1863 1.465 . S
C1869 C1868 1.396 . S
C1869 C1870 1.399 . S
C1870 H1856 0.929 . S
C1870 C1869 1.399 . S
C1870 C1871 1.385 . S
C1871 H1857 0.931 . S
C1871 C1870 1.385 . S
C1871 C1872 1.389 . S
C1872 C1871 1.389 . S
C1872 C1873 1.387 . S
C1873 H1858 0.930 . S
C1873 C1868 1.390 . S
C1873 C1872 1.387 . S
H1874 C1886 0.930 . S
H1875 C1888 0.930 . S
H1876 C1889 0.930 . S
H1877 C1893 0.959 . S
H1878 C1893 0.959 . S
H1879 C1893 0.961 . S
H1880 C1894 0.960 . S
H1881 C1894 0.961 . S
H1882 C1894 0.959 . S
H1883 C1897 0.929 . S
H1884 C1898 0.931 . S
H1885 C1900 0.930 . S
C1886 H1874 0.930 . S
C1886 C1887 1.399 . S
C1886 C1891 1.399 . S
C1887 C1886 1.399 . S
C1887 C1888 1.376 . S
C1888 H1875 0.930 . S
C1888 C1887 1.376 . S
C1888 C1889 1.388 . S
C1889 H1876 0.930 . S
C1889 C1888 1.388 . S
C1889 C1890 1.390 . S
C1890 C1889 1.390 . S
C1890 C1891 1.394 . S
C1890 C1896 1.465 . S
C1891 C1886 1.399 . S
C1891 C1890 1.394 . S
C1891 C1892 1.516 . S
C1892 C1891 1.516 . S
C1892 C1893 1.502 . S
C1892 C1894 1.561 . S
C1892 C1895 1.526 . S
C1893 H1877 0.959 . S
C1893 H1878 0.959 . S
C1893 H1879 0.961 . S
C1893 C1892 1.502 . S
C1894 H1880 0.960 . S
C1894 H1881 0.961 . S
C1894 H1882 0.959 . S
C1894 C1892 1.561 . S
C1895 C1892 1.526 . S
C1895 C1896 1.396 . S
C1895 C1900 1.390 . S
C1896 C1890 1.465 . S
C1896 C1895 1.396 . S
C1896 C1897 1.399 . S
C1897 H1883 0.929 . S
C1897 C1896 1.399 . S
C1897 C1898 1.385 . S
C1898 H1884 0.931 . S
C1898 C1897 1.385 . S
C1898 C1899 1.389 . S
C1899 C1898 1.389 . S
C1899 C1900 1.387 . S
C1900 H1885 0.930 . S
C1900 C1895 1.390 . S
C1900 C1899 1.387 . S
H1901 C1913 0.930 . S
H1902 C1915 0.930 . S
H1903 C1916 0.930 . S
H1904 C1920 0.959 . S
H1905 C1920 0.959 . S
H1906 C1920 0.961 . S
H1907 C1921 0.960 . S
H1908 C1921 0.961 . S
H1909 C1921 0.959 . S
H1910 C1924 0.929 . S
H1911 C1925 0.931 . S
H1912 C1927 0.930 . S
C1913 H1901 0.930 . S
C1913 C1914 1.399 . S
C1913 C1918 1.399 . S
C1914 C1913 1.399 . S
C1914 C1915 1.376 . S
C1915 H1902 0.930 . S
C1915 C1914 1.376 . S
C1915 C1916 1.388 . S
C1916 H1903 0.930 . S
C1916 C1915 1.388 . S
C1916 C1917 1.390 . S
C1917 C1916 1.390 . S
C1917 C1918 1.394 . S
C1917 C1923 1.465 . S
C1918 C1913 1.399 . S
C1918 C1917 1.394 . S
C1918 C1919 1.516 . S
C1919 C1918 1.516 . S
C1919 C1920 1.502 . S
C1919 C1921 1.561 . S
C1919 C1922 1.526 . S
C1920 H1904 0.959 . S
C1920 H1905 0.959 . S
C1920 H1906 0.961 . S
C1920 C1919 1.502 . S
C1921 H1907 0.960 . S
C1921 H1908 0.961 . S
C1921 H1909 0.959 . S
C1921 C1919 1.561 . S
C1922 C1919 1.526 . S
C1922 C1923 1.396 . S
C1922 C1927 1.390 . S
C1923 C1917 1.465 . S
C1923 C1922 1.396 . S
C1923 C1924 1.399 . S
C1924 H1910 0.929 . S
C1924 C1923 1.399 . S
C1924 C1925 1.385 . S
C1925 H1911 0.931 . S
C1925 C1924 1.385 . S
C1925 C1926 1.389 . S
C1926 C1925 1.389 . S
C1926 C1927 1.387 . S
C1927 H1912 0.930 . S
C1927 C1922 1.390 . S
C1927 C1926 1.387 . S
H1928 C1940 0.930 1_455 S
H1929 C1942 0.930 . S
H1930 C1943 0.930 . S
H1931 C1947 0.959 . S
H1932 C1947 0.959 . S
H1933 C1947 0.961 1_455 S
H1934 C1948 0.960 . S
H1935 C1948 0.961 . S
H1936 C1948 0.959 . S
H1937 C1951 0.929 . S
H1938 C1952 0.931 . S
H1939 C1954 0.930 . S
C1940 H1928 0.930 1_655 S
C1940 C1941 1.399 . S
C1940 C1945 1.399 . S
C1941 C1940 1.399 . S
C1941 C1942 1.376 . S
C1942 H1929 0.930 . S
C1942 C1941 1.376 . S
C1942 C1943 1.388 . S
C1943 H1930 0.930 . S
C1943 C1942 1.388 . S
C1943 C1944 1.390 . S
C1944 C1943 1.390 . S
C1944 C1945 1.394 . S
C1944 C1950 1.465 . S
C1945 C1940 1.399 . S
C1945 C1944 1.394 . S
C1945 C1946 1.516 . S
C1946 C1945 1.516 . S
C1946 C1947 1.502 . S
C1946 C1948 1.561 . S
C1946 C1949 1.526 . S
C1947 H1931 0.959 . S
C1947 H1932 0.959 . S
C1947 H1933 0.961 1_655 S
C1947 C1946 1.502 . S
C1948 H1934 0.960 . S
C1948 H1935 0.961 . S
C1948 H1936 0.959 . S
C1948 C1946 1.561 . S
C1949 C1946 1.526 . S
C1949 C1950 1.396 . S
C1949 C1954 1.390 . S
C1950 C1944 1.465 . S
C1950 C1949 1.396 . S
C1950 C1951 1.399 . S
C1951 H1937 0.929 . S
C1951 C1950 1.399 . S
C1951 C1952 1.385 . S
C1952 H1938 0.931 . S
C1952 C1951 1.385 . S
C1952 C1953 1.389 . S
C1953 C1952 1.389 . S
C1953 C1954 1.387 . S
C1954 H1939 0.930 . S
C1954 C1949 1.390 . S
C1954 C1953 1.387 . S
H1955 C1967 0.930 . S
H1956 C1969 0.930 . S
H1957 C1970 0.930 . S
H1958 C1974 0.959 . S
H1959 C1974 0.959 . S
H1960 C1974 0.961 . S
H1961 C1975 0.960 . S
H1962 C1975 0.961 . S
H1963 C1975 0.959 . S
H1964 C1978 0.929 . S
H1965 C1979 0.931 . S
H1966 C1981 0.930 . S
C1967 H1955 0.930 . S
C1967 C1968 1.399 . S
C1967 C1972 1.399 . S
C1968 C1967 1.399 . S
C1968 C1969 1.376 . S
C1969 H1956 0.930 . S
C1969 C1968 1.376 . S
C1969 C1970 1.388 . S
C1970 H1957 0.930 . S
C1970 C1969 1.388 . S
C1970 C1971 1.390 . S
C1971 C1970 1.390 . S
C1971 C1972 1.394 . S
C1971 C1977 1.465 . S
C1972 C1967 1.399 . S
C1972 C1971 1.394 . S
C1972 C1973 1.516 . S
C1973 C1972 1.516 . S
C1973 C1974 1.502 . S
C1973 C1975 1.561 . S
C1973 C1976 1.526 . S
C1974 H1958 0.959 . S
C1974 H1959 0.959 . S
C1974 H1960 0.961 . S
C1974 C1973 1.502 . S
C1975 H1961 0.960 . S
C1975 H1962 0.961 . S
C1975 H1963 0.959 . S
C1975 C1973 1.561 . S
C1976 C1973 1.526 . S
C1976 C1977 1.396 . S
C1976 C1981 1.390 . S
C1977 C1971 1.465 . S
C1977 C1976 1.396 . S
C1977 C1978 1.399 . S
C1978 H1964 0.929 . S
C1978 C1977 1.399 . S
C1978 C1979 1.385 . S
C1979 H1965 0.931 . S
C1979 C1978 1.385 . S
C1979 C1980 1.389 . S
C1980 C1979 1.389 . S
C1980 C1981 1.387 . S
C1981 H1966 0.930 . S
C1981 C1976 1.390 . S
C1981 C1980 1.387 . S
H1982 C1994 0.930 . S
H1983 C1996 0.930 . S
H1984 C1997 0.930 . S
H1985 C2001 0.959 . S
H1986 C2001 0.959 . S
H1987 C2001 0.961 . S
H1988 C2002 0.960 . S
H1989 C2002 0.961 . S
H1990 C2002 0.959 . S
H1991 C2005 0.929 . S
H1992 C2006 0.931 . S
H1993 C2008 0.930 . S
C1994 H1982 0.930 . S
C1994 C1995 1.399 . S
C1994 C1999 1.399 . S
C1995 C1994 1.399 . S
C1995 C1996 1.376 . S
C1996 H1983 0.930 . S
C1996 C1995 1.376 . S
C1996 C1997 1.388 . S
C1997 H1984 0.930 . S
C1997 C1996 1.388 . S
C1997 C1998 1.390 . S
C1998 C1997 1.390 . S
C1998 C1999 1.394 . S
C1998 C2004 1.465 . S
C1999 C1994 1.399 . S
C1999 C1998 1.394 . S
C1999 C2000 1.516 . S
C2000 C1999 1.516 . S
C2000 C2001 1.502 . S
C2000 C2002 1.561 . S
C2000 C2003 1.526 . S
C2001 H1985 0.959 . S
C2001 H1986 0.959 . S
C2001 H1987 0.961 . S
C2001 C2000 1.502 . S
C2002 H1988 0.960 . S
C2002 H1989 0.961 . S
C2002 H1990 0.959 . S
C2002 C2000 1.561 . S
C2003 C2000 1.526 . S
C2003 C2004 1.396 . S
C2003 C2008 1.390 . S
C2004 C1998 1.465 . S
C2004 C2003 1.396 . S
C2004 C2005 1.399 . S
C2005 H1991 0.929 . S
C2005 C2004 1.399 . S
C2005 C2006 1.385 . S
C2006 H1992 0.931 . S
C2006 C2005 1.385 . S
C2006 C2007 1.389 . S
C2007 C2006 1.389 . S
C2007 C2008 1.387 . S
C2008 H1993 0.930 . S
C2008 C2003 1.390 . S
C2008 C2007 1.387 . S
H2009 C2021 0.930 . S
H2010 C2023 0.930 . S
H2011 C2024 0.930 . S
H2012 C2028 0.959 . S
H2013 C2028 0.959 . S
H2014 C2028 0.961 . S
H2015 C2029 0.960 . S
H2016 C2029 0.961 . S
H2017 C2029 0.959 . S
H2018 C2032 0.929 . S
H2019 C2033 0.931 . S
H2020 C2035 0.930 . S
C2021 H2009 0.930 . S
C2021 C2022 1.399 . S
C2021 C2026 1.399 . S
C2022 C2021 1.399 . S
C2022 C2023 1.376 . S
C2023 H2010 0.930 . S
C2023 C2022 1.376 . S
C2023 C2024 1.388 . S
C2024 H2011 0.930 . S
C2024 C2023 1.388 . S
C2024 C2025 1.390 . S
C2025 C2024 1.390 . S
C2025 C2026 1.394 . S
C2025 C2031 1.465 . S
C2026 C2021 1.399 . S
C2026 C2025 1.394 . S
C2026 C2027 1.516 . S
C2027 C2026 1.516 . S
C2027 C2028 1.502 . S
C2027 C2029 1.561 . S
C2027 C2030 1.526 . S
C2028 H2012 0.959 . S
C2028 H2013 0.959 . S
C2028 H2014 0.961 . S
C2028 C2027 1.502 . S
C2029 H2015 0.960 . S
C2029 H2016 0.961 . S
C2029 H2017 0.959 . S
C2029 C2027 1.561 . S
C2030 C2027 1.526 . S
C2030 C2031 1.396 . S
C2030 C2035 1.390 . S
C2031 C2025 1.465 . S
C2031 C2030 1.396 . S
C2031 C2032 1.399 . S
C2032 H2018 0.929 . S
C2032 C2031 1.399 . S
C2032 C2033 1.385 . S
C2033 H2019 0.931 . S
C2033 C2032 1.385 . S
C2033 C2034 1.389 . S
C2034 C2033 1.389 . S
C2034 C2035 1.387 . S
C2035 H2020 0.930 . S
C2035 C2030 1.390 . S
C2035 C2034 1.387 . S
H2036 C2048 0.930 . S
H2037 C2050 0.930 . S
H2038 C2051 0.930 . S
H2039 C2055 0.959 . S
H2040 C2055 0.959 . S
H2041 C2055 0.961 . S
H2042 C2056 0.960 . S
H2043 C2056 0.961 . S
H2044 C2056 0.959 . S
H2045 C2059 0.929 . S
H2046 C2060 0.931 . S
H2047 C2062 0.930 . S
C2048 H2036 0.930 . S
C2048 C2049 1.399 . S
C2048 C2053 1.399 . S
C2049 C2048 1.399 . S
C2049 C2050 1.376 . S
C2050 H2037 0.930 . S
C2050 C2049 1.376 . S
C2050 C2051 1.388 . S
C2051 H2038 0.930 . S
C2051 C2050 1.388 . S
C2051 C2052 1.390 . S
C2052 C2051 1.390 . S
C2052 C2053 1.394 . S
C2052 C2058 1.465 . S
C2053 C2048 1.399 . S
C2053 C2052 1.394 . S
C2053 C2054 1.516 . S
C2054 C2053 1.516 . S
C2054 C2055 1.502 . S
C2054 C2056 1.561 . S
C2054 C2057 1.526 . S
C2055 H2039 0.959 . S
C2055 H2040 0.959 . S
C2055 H2041 0.961 . S
C2055 C2054 1.502 . S
C2056 H2042 0.960 . S
C2056 H2043 0.961 . S
C2056 H2044 0.959 . S
C2056 C2054 1.561 . S
C2057 C2054 1.526 . S
C2057 C2058 1.396 . S
C2057 C2062 1.390 . S
C2058 C2052 1.465 . S
C2058 C2057 1.396 . S
C2058 C2059 1.399 . S
C2059 H2045 0.929 . S
C2059 C2058 1.399 . S
C2059 C2060 1.385 . S
C2060 H2046 0.931 . S
C2060 C2059 1.385 . S
C2060 C2061 1.389 . S
C2061 C2060 1.389 . S
C2061 C2062 1.387 . S
C2062 H2047 0.930 . S
C2062 C2057 1.390 . S
C2062 C2061 1.387 . S
H2063 C2075 0.930 . S
H2064 C2077 0.930 . S
H2065 C2078 0.930 . S
H2066 C2082 0.959 . S
H2067 C2082 0.959 . S
H2068 C2082 0.961 . S
H2069 C2083 0.960 . S
H2070 C2083 0.961 . S
H2071 C2083 0.959 . S
H2072 C2086 0.929 . S
H2073 C2087 0.931 . S
H2074 C2089 0.930 . S
C2075 H2063 0.930 . S
C2075 C2076 1.399 . S
C2075 C2080 1.399 . S
C2076 C2075 1.399 . S
C2076 C2077 1.376 . S
C2077 H2064 0.930 . S
C2077 C2076 1.376 . S
C2077 C2078 1.388 . S
C2078 H2065 0.930 . S
C2078 C2077 1.388 . S
C2078 C2079 1.390 . S
C2079 C2078 1.390 . S
C2079 C2080 1.394 . S
C2079 C2085 1.465 . S
C2080 C2075 1.399 . S
C2080 C2079 1.394 . S
C2080 C2081 1.516 . S
C2081 C2080 1.516 . S
C2081 C2082 1.502 . S
C2081 C2083 1.561 . S
C2081 C2084 1.526 . S
C2082 H2066 0.959 . S
C2082 H2067 0.959 . S
C2082 H2068 0.961 . S
C2082 C2081 1.502 . S
C2083 H2069 0.960 . S
C2083 H2070 0.961 . S
C2083 H2071 0.959 . S
C2083 C2081 1.561 . S
C2084 C2081 1.526 . S
C2084 C2085 1.396 . S
C2084 C2089 1.390 . S
C2085 C2079 1.465 . S
C2085 C2084 1.396 . S
C2085 C2086 1.399 . S
C2086 H2072 0.929 . S
C2086 C2085 1.399 . S
C2086 C2087 1.385 . S
C2087 H2073 0.931 . S
C2087 C2086 1.385 . S
C2087 C2088 1.389 . S
C2088 C2087 1.389 . S
C2088 C2089 1.387 . S
C2089 H2074 0.930 . S
C2089 C2084 1.390 . S
C2089 C2088 1.387 . S
H2090 C2102 0.925 1_655 S
H2091 C2104 0.930 . S
H2092 C2105 0.930 . S
H2093 C2109 0.959 . S
H2094 C2109 0.959 . S
H2095 C2109 0.961 . S
H2096 C2110 0.960 . S
H2097 C2110 0.961 . S
H2098 C2110 0.959 . S
H2099 C2113 0.929 . S
H2100 C2114 0.931 . S
H2101 C2116 0.930 . S
C2102 H2090 0.925 1_455 S
C2102 C2103 1.399 . S
C2102 C2107 1.399 . S
C2103 C2102 1.399 . S
C2103 C2104 1.376 . S
C2104 H2091 0.930 . S
C2104 C2103 1.376 . S
C2104 C2105 1.388 . S
C2105 H2092 0.930 . S
C2105 C2104 1.388 . S
C2105 C2106 1.390 . S
C2106 C2105 1.390 . S
C2106 C2107 1.394 . S
C2106 C2112 1.465 . S
C2107 C2102 1.399 . S
C2107 C2106 1.394 . S
C2107 C2108 1.516 . S
C2108 C2107 1.516 . S
C2108 C2109 1.502 . S
C2108 C2110 1.561 . S
C2108 C2111 1.526 . S
C2109 H2093 0.959 . S
C2109 H2094 0.959 . S
C2109 H2095 0.961 . S
C2109 C2108 1.502 . S
C2110 H2096 0.960 . S
C2110 H2097 0.961 . S
C2110 H2098 0.959 . S
C2110 C2108 1.561 . S
C2111 C2108 1.526 . S
C2111 C2112 1.396 . S
C2111 C2116 1.390 . S
C2112 C2106 1.465 . S
C2112 C2111 1.396 . S
C2112 C2113 1.399 . S
C2113 H2099 0.929 . S
C2113 C2112 1.399 . S
C2113 C2114 1.385 . S
C2114 H2100 0.931 . S
C2114 C2113 1.385 . S
C2114 C2115 1.389 . S
C2115 C2114 1.389 . S
C2115 C2116 1.387 . S
C2116 H2101 0.930 . S
C2116 C2111 1.390 . S
C2116 C2115 1.387 . S
H2117 C2129 0.930 . S
H2118 C2131 0.930 . S
H2119 C2132 0.930 . S
H2120 C2136 0.959 . S
H2121 C2136 0.959 . S
H2122 C2136 0.961 . S
H2123 C2137 0.960 . S
H2124 C2137 0.961 . S
H2125 C2137 0.959 . S
H2126 C2140 0.929 . S
H2127 C2141 0.931 . S
H2128 C2143 0.930 . S
C2129 H2117 0.930 . S
C2129 C2130 1.399 . S
C2129 C2134 1.399 . S
C2130 C2129 1.399 . S
C2130 C2131 1.376 . S
C2131 H2118 0.930 . S
C2131 C2130 1.376 . S
C2131 C2132 1.388 . S
C2132 H2119 0.930 . S
C2132 C2131 1.388 . S
C2132 C2133 1.390 . S
C2133 C2132 1.390 . S
C2133 C2134 1.394 . S
C2133 C2139 1.465 . S
C2134 C2129 1.399 . S
C2134 C2133 1.394 . S
C2134 C2135 1.516 . S
C2135 C2134 1.516 . S
C2135 C2136 1.502 . S
C2135 C2137 1.561 . S
C2135 C2138 1.526 . S
C2136 H2120 0.959 . S
C2136 H2121 0.959 . S
C2136 H2122 0.961 . S
C2136 C2135 1.502 . S
C2137 H2123 0.960 . S
C2137 H2124 0.961 . S
C2137 H2125 0.959 . S
C2137 C2135 1.561 . S
C2138 C2135 1.526 . S
C2138 C2139 1.396 . S
C2138 C2143 1.390 . S
C2139 C2133 1.465 . S
C2139 C2138 1.396 . S
C2139 C2140 1.399 . S
C2140 H2126 0.929 . S
C2140 C2139 1.399 . S
C2140 C2141 1.385 . S
C2141 H2127 0.931 . S
C2141 C2140 1.385 . S
C2141 C2142 1.389 . S
C2142 C2141 1.389 . S
C2142 C2143 1.387 . S
C2143 H2128 0.930 . S
C2143 C2138 1.390 . S
C2143 C2142 1.387 . S
C429 C42 1.373 . S
C441 C3 1.357 . S
C456 C31 1.366 . S
C468 C16 1.380 . S
C483 C94 1.382 . S
C495 C57 1.370 . S
C510 C81 1.354 . S
C522 C68 1.371 . S
C537 C109 1.372 . S
C549 C146 1.357 . S
C564 C120 1.374 . S
C576 C135 1.356 . S
C591 C198 1.383 . S
C603 C161 1.367 . S
C618 C174 1.355 . S
C630 C185 1.368 . S
C645 C211 1.375 . S
C657 C250 1.356 . S
C672 C224 1.363 . S
C684 C239 1.382 . S
C699 C302 1.379 . S
C711 C263 1.377 . S
C726 C289 1.383 . S
C738 C278 1.369 . S
C753 C354 1.380 . S
C765 C315 1.355 . S
C780 C328 1.365 . S
C792 C341 1.381 . S
C807 C367 1.359 . S
C819 C408 1.361 . S
C834 C382 1.383 . S
C846 C393 1.369 . S
C861 C265 1.340 . S
C873 C5 1.336 . S
C888 C172 1.316 . S
C900 C18 1.357 . S
C915 C29 1.299 . S
C927 C395 1.366 . S
C942 C44 1.301 . S
C954 C96 1.360 . S
C969 C213 1.299 . S
C981 C55 1.364 . S
C996 C122 1.300 . S
C1008 C70 1.366 . S
C1023 C343 1.366 . S
C1035 C83 1.304 . S
C1050 C107 1.365 . S
C1062 C369 1.300 . S
C1077 C291 1.333 . S
C1089 C133 1.344 . S
C1104 C200 1.338 . S
C1116 C148 1.319 . S
C1131 C317 1.355 . S
C1143 C159 1.319 . S
C1158 C187 1.334 . S
C1170 C237 1.343 . S
C1185 C380 1.331 . S
C1197 C226 1.324 . S
C1212 C252 1.299 . S
C1224 C304 1.366 . S
C1239 C330 1.366 . S
C1251 C276 1.301 . S
C1266 C406 1.320 . S
C1278 C356 1.355 . S
C1293 C17 1.413 . S
C1305 C4 1.383 . S
C1320 C36 1.417 . S
C1332 C43 1.381 . S
C1347 C62 1.431 . S
C1359 C69 1.404 . S
C1374 C95 1.379 . S
C1386 C82 1.406 . S
C1401 C114 1.410 . S
C1413 C121 1.385 . S
C1428 C140 1.406 . S
C1440 C147 1.423 . S
C1455 C179 1.380 . S
C1467 C166 1.402 . S
C1482 C186 1.430 . S
C1494 C199 1.393 . S
C1509 C212 1.399 . S
C1521 C225 1.427 . S
C1536 C244 1.407 . S
C1548 C251 1.387 . S
C1563 C264 1.380 . S
C1575 C283 1.404 . S
C1590 C303 1.431 . S
C1602 C290 1.407 . S
C1617 C329 1.408 . S
C1629 C316 1.386 . S
C1644 C342 1.413 . S
C1656 C355 1.383 . S
C1671 C368 1.382 . S
C1683 C387 1.398 . S
C1698 C413 1.425 . S
C1710 C394 1.385 . S
C1725 C10 1.514 1_655 S
C1737 C257 1.514 . S
C1752 C23 1.504 . S
C1764 C238 1.505 . S
C1779 C231 1.515 . S
C1791 C30 1.515 1_655 S
C1806 C49 1.514 . S
C1818 C218 1.514 . S
C1833 C309 1.509 . S
C1845 C56 1.513 1_455 S
C1860 C75 1.506 . S
C1872 C296 1.505 . S
C1887 C277 1.512 . S
C1899 C88 1.514 1_455 S
C1914 C101 1.506 . S
C1926 C270 1.505 . S
C1941 C108 1.511 1_655 S
C1953 C361 1.512 . S
C1968 C127 1.513 . S
C1980 C348 1.513 . S
C1995 C134 1.504 1_655 S
C2007 C335 1.504 . S
C2022 C322 1.514 . S
C2034 C153 1.514 . S
C2049 C160 1.505 1_455 S
C2061 C407 1.504 . S
C2076 C173 1.506 . S
C2088 C400 1.505 . S
C2103 C192 1.507 1_455 S
C2115 C381 1.505 . S
C2130 C374 1.505 . S
C2142 C205 1.504 . S
