# Generated by pormake.
# Topology vcp, (7)-cn, num edge types: 1
# Building blocks:
#     Node 0, Type 0, BuildingBlock: HICVOG_clean_sbu_0, # of connection points: 7
#     Node 1, Type 0, BuildingBlock: HICVOG_clean_sbu_0, # of connection points: 7
#     Node 2, Type 0, BuildingBlock: HICVOG_clean_sbu_0, # of connection points: 7
#     Node 3, Type 0, BuildingBlock: HICVOG_clean_sbu_0, # of connection points: 7
#     Node 4, Type 0, BuildingBlock: HICVOG_clean_sbu_0, # of connection points: 7
#     Node 5, Type 0, BuildingBlock: HICVOG_clean_sbu_0, # of connection points: 7
#     Node 6, Type 0, BuildingBlock: HICVOG_clean_sbu_0, # of connection points: 7
#     Node 7, Type 0, BuildingBlock: HICVOG_clean_sbu_0, # of connection points: 7
#     Node 8, Type 0, BuildingBlock: HICVOG_clean_sbu_0, # of connection points: 7
#     Node 9, Type 0, BuildingBlock: HICVOG_clean_sbu_0, # of connection points: 7
#     Node 10, Type 0, BuildingBlock: HICVOG_clean_sbu_0, # of connection points: 7
#     Node 11, Type 0, BuildingBlock: HICVOG_clean_sbu_0, # of connection points: 7
#     Node 12, Type 0, BuildingBlock: HICVOG_clean_sbu_0, # of connection points: 7
#     Node 13, Type 0, BuildingBlock: HICVOG_clean_sbu_0, # of connection points: 7
#     Node 14, Type 0, BuildingBlock: HICVOG_clean_sbu_0, # of connection points: 7
#     Node 15, Type 0, BuildingBlock: HICVOG_clean_sbu_0, # of connection points: 7
#     Edge 16, Type (0, 0), BuildingBlock: EZIPEK_clean_linker_0, # of connection points: 2
#     Edge 17, Type (0, 0), BuildingBlock: EZIPEK_clean_linker_0, # of connection points: 2
#     Edge 18, Type (0, 0), BuildingBlock: EZIPEK_clean_linker_0, # of connection points: 2
#     Edge 19, Type (0, 0), BuildingBlock: EZIPEK_clean_linker_0, # of connection points: 2
#     Edge 20, Type (0, 0), BuildingBlock: EZIPEK_clean_linker_0, # of connection points: 2
#     Edge 21, Type (0, 0), BuildingBlock: EZIPEK_clean_linker_0, # of connection points: 2
#     Edge 22, Type (0, 0), BuildingBlock: EZIPEK_clean_linker_0, # of connection points: 2
#     Edge 23, Type (0, 0), BuildingBlock: EZIPEK_clean_linker_0, # of connection points: 2
#     Edge 24, Type (0, 0), BuildingBlock: EZIPEK_clean_linker_0, # of connection points: 2
#     Edge 25, Type (0, 0), BuildingBlock: EZIPEK_clean_linker_0, # of connection points: 2
#     Edge 26, Type (0, 0), BuildingBlock: EZIPEK_clean_linker_0, # of connection points: 2
#     Edge 27, Type (0, 0), BuildingBlock: EZIPEK_clean_linker_0, # of connection points: 2
#     Edge 28, Type (0, 0), BuildingBlock: EZIPEK_clean_linker_0, # of connection points: 2
#     Edge 29, Type (0, 0), BuildingBlock: EZIPEK_clean_linker_0, # of connection points: 2
#     Edge 30, Type (0, 0), BuildingBlock: EZIPEK_clean_linker_0, # of connection points: 2
#     Edge 31, Type (0, 0), BuildingBlock: EZIPEK_clean_linker_0, # of connection points: 2
#     Edge 32, Type (0, 0), BuildingBlock: EZIPEK_clean_linker_0, # of connection points: 2
#     Edge 33, Type (0, 0), BuildingBlock: EZIPEK_clean_linker_0, # of connection points: 2
#     Edge 34, Type (0, 0), BuildingBlock: EZIPEK_clean_linker_0, # of connection points: 2
#     Edge 35, Type (0, 0), BuildingBlock: EZIPEK_clean_linker_0, # of connection points: 2
#     Edge 36, Type (0, 0), BuildingBlock: EZIPEK_clean_linker_0, # of connection points: 2
#     Edge 37, Type (0, 0), BuildingBlock: EZIPEK_clean_linker_0, # of connection points: 2
#     Edge 38, Type (0, 0), BuildingBlock: EZIPEK_clean_linker_0, # of connection points: 2
#     Edge 39, Type (0, 0), BuildingBlock: EZIPEK_clean_linker_0, # of connection points: 2
#     Edge 40, Type (0, 0), BuildingBlock: EZIPEK_clean_linker_0, # of connection points: 2
#     Edge 41, Type (0, 0), BuildingBlock: EZIPEK_clean_linker_0, # of connection points: 2
#     Edge 42, Type (0, 0), BuildingBlock: EZIPEK_clean_linker_0, # of connection points: 2
#     Edge 43, Type (0, 0), BuildingBlock: EZIPEK_clean_linker_0, # of connection points: 2
#     Edge 44, Type (0, 0), BuildingBlock: EZIPEK_clean_linker_0, # of connection points: 2
#     Edge 45, Type (0, 0), BuildingBlock: EZIPEK_clean_linker_0, # of connection points: 2
#     Edge 46, Type (0, 0), BuildingBlock: EZIPEK_clean_linker_0, # of connection points: 2
#     Edge 47, Type (0, 0), BuildingBlock: EZIPEK_clean_linker_0, # of connection points: 2
#     Edge 48, Type (0, 0), BuildingBlock: EZIPEK_clean_linker_0, # of connection points: 2
#     Edge 49, Type (0, 0), BuildingBlock: EZIPEK_clean_linker_0, # of connection points: 2
#     Edge 50, Type (0, 0), BuildingBlock: EZIPEK_clean_linker_0, # of connection points: 2
#     Edge 51, Type (0, 0), BuildingBlock: EZIPEK_clean_linker_0, # of connection points: 2
#     Edge 52, Type (0, 0), BuildingBlock: EZIPEK_clean_linker_0, # of connection points: 2
#     Edge 53, Type (0, 0), BuildingBlock: EZIPEK_clean_linker_0, # of connection points: 2
#     Edge 54, Type (0, 0), BuildingBlock: EZIPEK_clean_linker_0, # of connection points: 2
#     Edge 55, Type (0, 0), BuildingBlock: EZIPEK_clean_linker_0, # of connection points: 2
#     Edge 56, Type (0, 0), BuildingBlock: EZIPEK_clean_linker_0, # of connection points: 2
#     Edge 57, Type (0, 0), BuildingBlock: EZIPEK_clean_linker_0, # of connection points: 2
#     Edge 58, Type (0, 0), BuildingBlock: EZIPEK_clean_linker_0, # of connection points: 2
#     Edge 59, Type (0, 0), BuildingBlock: EZIPEK_clean_linker_0, # of connection points: 2
#     Edge 60, Type (0, 0), BuildingBlock: EZIPEK_clean_linker_0, # of connection points: 2
#     Edge 61, Type (0, 0), BuildingBlock: EZIPEK_clean_linker_0, # of connection points: 2
#     Edge 62, Type (0, 0), BuildingBlock: EZIPEK_clean_linker_0, # of connection points: 2
#     Edge 63, Type (0, 0), BuildingBlock: EZIPEK_clean_linker_0, # of connection points: 2
#     Edge 64, Type (0, 0), BuildingBlock: EZIPEK_clean_linker_0, # of connection points: 2
#     Edge 65, Type (0, 0), BuildingBlock: EZIPEK_clean_linker_0, # of connection points: 2
#     Edge 66, Type (0, 0), BuildingBlock: EZIPEK_clean_linker_0, # of connection points: 2
#     Edge 67, Type (0, 0), BuildingBlock: EZIPEK_clean_linker_0, # of connection points: 2
#     Edge 68, Type (0, 0), BuildingBlock: EZIPEK_clean_linker_0, # of connection points: 2
#     Edge 69, Type (0, 0), BuildingBlock: EZIPEK_clean_linker_0, # of connection points: 2
#     Edge 70, Type (0, 0), BuildingBlock: EZIPEK_clean_linker_0, # of connection points: 2
#     Edge 71, Type (0, 0), BuildingBlock: EZIPEK_clean_linker_0, # of connection points: 2
# Relax obj value: 0.200
# Max RMSD: 0.229
# Mean RMSD: 0.229
data_MOF--net-vcp--node1-HICVOG_clean_sbu_0--edge1-EZIPEK_clean_linker_0
_symmetry_space_group_name_H-M    P1
_symmetry_Int_Tables_number       1
_symmetry_cell_setting            triclinic
loop_
_symmetry_equiv_pos_as_xyz
'x, y, z'
_cell_length_a     63.416084
_cell_length_b     19.333429
_cell_length_c     26.418848
_cell_angle_alpha  90.350606
_cell_angle_beta   89.994206
_cell_angle_gamma 89.872014
loop_
_atom_site_label
_atom_site_type_symbol
_atom_site_fract_x
_atom_site_fract_y
_atom_site_fract_z
_atom_type_partial_charge
Zn0 Zn 0.11687 0.10208 0.46869 0.0
C1 C 0.1468 0.21324 0.36137 0.0
N2 N 0.14462 0.26543 0.39488 0.0
C3 C 0.13734 0.23371 0.43647 0.0
N4 N 0.13461 0.16503 0.42869 0.0
N5 N 0.14157 0.15134 0.38218 0.0
C6 C 0.13733 1.00248 0.27625 0.0
O7 O 0.1234 0.98345 0.31018 0.0
O8 O 0.11855 0.11932 0.54387 0.0
Zn9 Zn 0.15565 0.06214 0.36342 0.0
N10 N 0.08748 0.10282 0.44566 0.0
C11 C 0.06387 0.11359 0.37598 0.0
C12 C 0.08414 0.11795 0.39616 0.0
C13 C 0.07125 0.08103 0.47564 0.0
N14 N 0.04777 0.09138 0.40553 0.0
C15 C 0.05084 0.07425 0.45484 0.0
O16 O 0.14654 0.97403 0.40066 0.0
C17 C 0.13561 0.95809 0.43925 0.0
O18 O 0.12531 1.00323 0.46381 0.0
H19 H 0.09725 0.13145 0.3722 0.0
H20 H 0.07433 0.06641 0.51443 0.0
C21 C 0.20296 0.05102 0.35617 0.0
C22 C 0.22292 0.05366 0.38022 0.0
C23 C 0.20649 0.09515 0.45523 0.0
C24 C 0.18688 0.09014 0.43213 0.0
N25 N 0.18536 0.06958 0.38309 0.0
N26 N 0.22395 0.07659 0.42893 0.0
H27 H 0.20145 0.03255 0.31759 0.0
C28 C 0.13522 0.09672 0.56486 0.0
O29 O 0.15094 0.07529 0.53643 0.0
O30 O 0.15274 0.0406 0.28931 0.0
H31 H 0.17273 0.1009 0.45338 0.0
H32 H 0.06106 0.12594 0.33667 0.0
H33 H 0.2078 0.11212 0.4942 0.0
Zn34 Zn 0.41251 0.92039 0.46673 0.0
C35 C 0.38174 0.8072 0.36044 0.0
N36 N 0.38375 0.75575 0.39411 0.0
C37 C 0.39153 0.78786 0.43529 0.0
N38 N 0.39475 0.85619 0.42702 0.0
N39 N 0.38758 0.86915 0.38069 0.0
C40 C 0.38884 0.02385 0.27277 0.0
O41 O 0.40083 0.05532 0.30616 0.0
O42 O 0.41086 0.90376 0.5417 0.0
Zn43 Zn 0.37352 0.95803 0.36171 0.0
N44 N 0.44191 0.92131 0.44342 0.0
C45 C 0.46551 0.90947 0.37369 0.0
C46 C 0.44533 0.90399 0.3942 0.0
C47 C 0.45795 0.94673 0.47269 0.0
N48 N 0.48143 0.93481 0.40262 0.0
C49 C 0.47827 0.9542 0.45159 0.0
O50 O 0.38254 0.04677 0.39911 0.0
C51 C 0.39338 0.06343 0.43781 0.0
O52 O 0.40376 0.01882 0.46228 0.0
H53 H 0.43232 0.88813 0.37066 0.0
H54 H 0.45478 0.96323 0.51117 0.0
C55 C 0.32619 0.96948 0.35508 0.0
C56 C 0.30627 0.96687 0.37928 0.0
C57 C 0.32279 0.92497 0.45367 0.0
C58 C 0.34237 0.9299 0.43043 0.0
N59 N 0.34383 0.95068 0.38163 0.0
N60 N 0.3053 0.94376 0.42775 0.0
H61 H 0.32766 0.98811 0.3167 0.0
C62 C 0.39386 0.92516 0.56205 0.0
O63 O 0.37826 0.94546 0.53305 0.0
O64 O 0.37606 0.97717 0.28703 0.0
H65 H 0.35654 0.91881 0.45139 0.0
H66 H 0.46837 0.89542 0.33458 0.0
H67 H 0.32153 0.90782 0.49245 0.0
Zn68 Zn 0.6151 0.91819 0.0398 0.0
C69 C 0.64318 0.80957 0.15087 0.0
N70 N 0.63986 0.75536 0.11977 0.0
C71 C 0.6335 0.78521 0.07648 0.0
N72 N 0.63253 0.85508 0.08114 0.0
N73 N 0.6398 0.87068 0.12705 0.0
C74 C 0.63728 0.02698 0.23194 0.0
O75 O 0.62508 0.05411 0.19716 0.0
O76 O 0.61806 0.90106 0.96478 0.0
Zn77 Zn 0.65423 0.95888 0.14521 0.0
N78 N 0.58518 0.91605 0.06014 0.0
C79 C 0.55976 0.88495 0.12245 0.0
C80 C 0.58048 0.88534 0.10488 0.0
C81 C 0.56975 0.94804 0.03257 0.0
N82 N 0.54442 0.91619 0.09497 0.0
C83 C 0.54875 0.94822 0.0505 0.0
O84 O 0.64498 0.04565 0.10727 0.0
C85 C 0.63375 0.06227 0.06939 0.0
O86 O 0.62319 0.01754 0.04514 0.0
H87 H 0.59272 0.86029 0.12638 0.0
H88 H 0.57376 0.97337 0.99745 0.0
C89 C 0.70183 0.96917 0.15099 0.0
C90 C 0.72172 0.96345 0.12668 0.0
C91 C 0.70486 0.9164 0.05408 0.0
C92 C 0.68535 0.92423 0.07732 0.0
N93 N 0.68403 0.94911 0.12536 0.0
N94 N 0.72248 0.93633 0.07909 0.0
H95 H 0.70053 0.99098 0.18869 0.0
C96 C 0.63495 0.92427 0.94527 0.0
O97 O 0.65007 0.94664 0.97504 0.0
O98 O 0.65112 0.98213 0.21948 0.0
H99 H 0.67114 0.91168 0.05687 0.0
H100 H 0.55588 0.85998 0.15778 0.0
H101 H 0.70598 0.8959 0.01598 0.0
Zn102 Zn 0.90966 0.09978 0.03528 0.0
C103 C 0.88131 0.21078 0.14825 0.0
N104 N 0.88211 0.2623 0.11441 0.0
C105 C 0.88847 0.23064 0.07166 0.0
N106 N 0.89206 0.16224 0.07874 0.0
N107 N 0.88642 0.14868 0.12629 0.0
C108 C 0.88979 1.00146 0.23461 0.0
O109 O 0.90346 0.97568 0.20223 0.0
O110 O 0.9068 0.11591 0.95937 0.0
Zn111 Zn 0.8731 0.05807 0.14408 0.0
N112 N 0.93954 0.10087 0.05701 0.0
C113 C 0.9632 0.12078 0.12571 0.0
C114 C 0.94295 0.12249 0.10534 0.0
C115 C 0.9558 0.07445 0.02866 0.0
N116 N 0.97933 0.09472 0.09771 0.0
C117 C 0.9763 0.07091 0.04974 0.0
O118 O 0.88407 0.96939 0.10765 0.0
C119 C 0.89378 0.95405 0.06675 0.0
O120 O 0.90226 1.0002 0.03976 0.0
H121 H 0.92988 0.13935 0.12837 0.0
H122 H 0.95274 0.05447 0.99103 0.0
C123 C 0.8256 0.04425 0.14866 0.0
C124 C 0.80581 0.0456 0.12366 0.0
C125 C 0.82282 0.08279 0.0486 0.0
C126 C 0.84224 0.07974 0.07282 0.0
N127 N 0.84342 0.06165 0.12226 0.0
N128 N 0.80517 0.0656 0.07442 0.0
H129 H 0.8268 0.02839 0.18776 0.0
C130 C 0.88851 0.12021 0.93977 0.0
O131 O 0.87211 0.12744 0.96958 0.0
O132 O 0.87511 0.0409 0.21904 0.0
H133 H 0.85649 0.09091 0.05232 0.0
H134 H 0.966 0.13844 0.16406 0.0
H135 H 0.8218 0.09777 0.00928 0.0
Zn136 Zn 0.9123 0.92549 0.54321 0.0
C137 C 0.89016 0.80217 0.64919 0.0
N138 N 0.89708 0.75425 0.61584 0.0
C139 C 0.90004 0.78971 0.57326 0.0
N140 N 0.89604 0.85759 0.5804 0.0
N141 N 0.8887 0.86605 0.62733 0.0
C142 C 0.88025 0.03811 0.7294 0.0
O143 O 0.8948 0.05798 0.6973 0.0
O144 O 0.91124 0.90971 0.46785 0.0
Zn145 Zn 0.86949 0.94732 0.64471 0.0
N146 N 0.94164 0.92678 0.56652 0.0
C147 C 0.96618 0.90108 0.6321 0.0
C148 C 0.94571 0.89973 0.61289 0.0
C149 C 0.95738 0.95633 0.53873 0.0
N150 N 0.98184 0.93015 0.60448 0.0
C151 C 0.97808 0.95831 0.5583 0.0
O152 O 0.87486 0.03618 0.60365 0.0
C153 C 0.8876 0.05903 0.57039 0.0
O154 O 0.90141 0.02058 0.55006 0.0
H155 H 0.93315 0.87726 0.6349 0.0
H156 H 0.95383 0.9783 0.50211 0.0
C157 C 0.82303 0.95745 0.64328 0.0
C158 C 0.80267 0.93522 0.62843 0.0
C159 C 0.81798 0.83454 0.59164 0.0
C160 C 0.83796 0.85711 0.60566 0.0
N161 N 0.8403 0.91847 0.6304 0.0
N162 N 0.80094 0.87402 0.60304 0.0
H163 H 0.82513 1.00547 0.66393 0.0
C164 C 0.8945 0.93049 0.44616 0.0
O165 O 0.87853 0.95175 0.47384 0.0
O166 O 0.86951 0.98465 0.71755 0.0
H167 H 0.8515 0.82567 0.59666 0.0
H168 H 0.9696 0.87935 0.66884 0.0
H169 H 0.81602 0.78598 0.57163 0.0
Zn170 Zn 0.61617 0.11175 0.53835 0.0
C171 C 0.64677 0.21963 0.64777 0.0
N172 N 0.64597 0.27149 0.61412 0.0
C173 C 0.63829 0.2407 0.57227 0.0
N174 N 0.63395 0.17307 0.58012 0.0
N175 N 0.64025 0.1588 0.62691 0.0
C176 C 0.63958 1.00244 0.73471 0.0
O177 O 0.62685 0.97194 0.70245 0.0
O178 O 0.61744 0.13432 0.46427 0.0
Zn179 Zn 0.65343 0.06835 0.64411 0.0
N180 N 0.58676 0.11031 0.56196 0.0
C181 C 0.56301 0.12523 0.63111 0.0
C182 C 0.58325 0.12937 0.6108 0.0
C183 C 0.57075 0.08392 0.53305 0.0
N184 N 0.54708 0.09938 0.60242 0.0
C185 C 0.55034 0.07793 0.55394 0.0
O186 O 0.6421 0.98158 0.60773 0.0
C187 C 0.63297 0.9665 0.5662 0.0
O188 O 0.62448 0.01261 0.53911 0.0
H189 H 0.59622 0.14581 0.63421 0.0
H190 H 0.57395 0.06611 0.4949 0.0
C191 C 0.701 0.05371 0.64317 0.0
C192 C 0.71997 0.05015 0.61472 0.0
C193 C 0.70115 0.08586 0.54164 0.0
C194 C 0.68253 0.08696 0.56922 0.0
N195 N 0.68261 0.0713 0.61918 0.0
N196 N 0.71929 0.06712 0.56482 0.0
H197 H 0.70077 0.04044 0.6829 0.0
C198 C 0.63351 0.10965 0.44164 0.0
O199 O 0.64903 0.08367 0.4683 0.0
O200 O 0.65236 0.04852 0.71927 0.0
H201 H 0.66785 0.09908 0.55082 0.0
H202 H 0.56007 0.14086 0.66987 0.0
H203 H 0.70115 0.09855 0.50182 0.0
Zn204 Zn 0.37104 0.06638 0.86139 0.0
C205 C 0.38904 0.23549 0.93643 0.0
N206 N 0.38159 0.26817 0.89549 0.0
C207 C 0.3798 0.21738 0.86077 0.0
N208 N 0.38536 0.15497 0.88045 0.0
N209 N 0.39232 0.16727 0.92718 0.0
C210 C 0.39251 0.0996 0.06205 0.0
O211 O 0.37676 0.07776 0.03405 0.0
O212 O 0.37328 0.04724 0.78668 0.0
Zn213 Zn 0.41041 0.10315 0.96573 0.0
N214 N 0.34144 0.07294 0.88314 0.0
C215 C 0.32119 0.09812 0.9569 0.0
C216 C 0.3405 0.09351 0.93226 0.0
C217 C 0.32352 0.05383 0.85767 0.0
N218 N 0.30344 0.07931 0.93199 0.0
C219 C 0.30387 0.05635 0.88324 0.0
O220 O 0.4017 1.00448 0.96103 0.0
C221 C 0.39133 0.96034 0.93576 0.0
O222 O 0.38056 0.97763 0.89721 0.0
H223 H 0.35488 0.10461 0.95238 0.0
H224 H 0.32457 0.03526 0.81903 0.0
C225 C 0.45602 0.07886 0.9709 0.0
C226 C 0.47639 0.07242 0.94967 0.0
C227 C 0.46323 0.11597 0.87208 0.0
C228 C 0.44302 0.1202 0.89268 0.0
N229 N 0.43976 0.10292 0.94181 0.0
N230 N 0.47936 0.09176 0.90079 0.0
H231 H 0.45301 0.06248 0.00933 0.0
C232 C 0.38755 1.00513 0.77228 0.0
O233 O 0.4007 0.97911 0.80549 0.0
O234 O 0.40923 0.12084 0.0407 0.0
H235 H 0.42989 0.13537 0.86929 0.0
H236 H 0.32036 0.11508 0.99595 0.0
H237 H 0.46598 0.13006 0.83307 0.0
Zn238 Zn 0.11549 0.91165 0.97104 0.0
C239 C 0.14733 0.80279 0.86421 0.0
N240 N 0.14713 0.75226 0.89892 0.0
C241 C 0.13918 0.78337 0.94028 0.0
N242 N 0.1341 0.8503 0.93119 0.0
N243 N 0.14031 0.8637 0.88413 0.0
C244 C 0.13791 0.01636 0.77509 0.0
O245 O 0.12457 0.04433 0.80726 0.0
O246 O 0.11645 0.89167 0.04555 0.0
Zn247 Zn 0.15315 0.95429 0.86557 0.0
N248 N 0.08617 0.91139 0.94659 0.0
C249 C 0.06238 0.89001 0.87847 0.0
C250 C 0.08264 0.88742 0.89892 0.0
C251 C 0.07017 0.94079 0.97409 0.0
N252 N 0.04645 0.91865 0.90584 0.0
C253 C 0.0497 0.94467 0.95314 0.0
O254 O 0.14185 0.04142 0.90122 0.0
C255 C 0.13219 0.05668 0.942 0.0
O256 O 0.12344 1.01066 0.96853 0.0
H257 H 0.09556 0.86784 0.87654 0.0
H258 H 0.07339 0.96212 0.01126 0.0
C259 C 0.20034 0.97172 0.86177 0.0
C260 C 0.22016 0.97117 0.88656 0.0
C261 C 0.20353 0.9312 0.96132 0.0
C262 C 0.18406 0.9333 0.93728 0.0
N263 N 0.1827 0.9524 0.88805 0.0
N264 N 0.22102 0.95019 0.93556 0.0
H265 H 0.19899 0.98831 0.82286 0.0
C266 C 0.13262 0.91607 0.0677 0.0
O267 O 0.14795 0.94197 0.04044 0.0
O268 O 0.15149 0.97275 0.79058 0.0
H269 H 0.16992 0.92047 0.95785 0.0
H270 H 0.05942 0.87057 0.84066 0.0
H271 H 0.20472 0.91542 1.00044 0.0
Zn272 Zn 0.61745 0.60321 0.4648 0.0
C273 C 0.6472 0.72123 0.36064 0.0
N274 N 0.64422 0.77142 0.3955 0.0
C275 C 0.637 0.73703 0.43595 0.0
N276 N 0.63485 0.66864 0.42616 0.0
N277 N 0.64237 0.65774 0.3797 0.0
C278 C 0.63937 0.50819 0.27267 0.0
O279 O 0.6267 0.4827 0.30711 0.0
O280 O 0.61906 0.6194 0.54006 0.0
Zn281 Zn 0.65748 0.57027 0.35997 0.0
N282 N 0.58794 0.60282 0.44232 0.0
C283 C 0.5637 0.62017 0.37465 0.0
C284 C 0.58413 0.62302 0.39403 0.0
C285 C 0.57207 0.57659 0.4715 0.0
N286 N 0.5479 0.59447 0.40361 0.0
C287 C 0.55146 0.57192 0.45151 0.0
O288 O 0.64919 0.48078 0.39716 0.0
C289 C 0.63789 0.46233 0.43458 0.0
O290 O 0.62667 0.50551 0.45871 0.0
H291 H 0.59698 0.63969 0.3704 0.0
H292 H 0.57552 0.55795 0.50916 0.0
C293 C 0.70468 0.55103 0.35413 0.0
C294 C 0.72508 0.56178 0.37475 0.0
C295 C 0.71018 0.63479 0.43786 0.0
C296 C 0.6902 0.62268 0.41835 0.0
N297 N 0.68762 0.58185 0.37689 0.0
N298 N 0.72705 0.60404 0.41581 0.0
H299 H 0.70243 0.5178 0.32148 0.0
C300 C 0.63549 0.59522 0.56119 0.0
O301 O 0.65091 0.57108 0.53293 0.0
O302 O 0.65385 0.55015 0.28566 0.0
H303 H 0.67668 0.64571 0.43597 0.0
H304 H 0.5605 0.63677 0.33637 0.0
H305 H 0.71227 0.66784 0.47066 0.0
Zn306 Zn 0.91181 0.41191 0.47332 0.0
C307 C 0.88459 0.30477 0.35881 0.0
N308 N 0.88629 0.25136 0.39089 0.0
C309 C 0.892 0.28151 0.4348 0.0
N310 N 0.89411 0.35088 0.42996 0.0
N311 N 0.88828 0.36619 0.38293 0.0
C312 C 0.89086 0.52059 0.27552 0.0
O313 O 0.90273 0.55319 0.30857 0.0
O314 O 0.9089 0.39549 0.54888 0.0
Zn315 Zn 0.87533 0.45664 0.36515 0.0
N316 N 0.94167 0.40685 0.45232 0.0
C317 C 0.96688 0.3695 0.39088 0.0
C318 C 0.94618 0.37255 0.40851 0.0
C319 C 0.95727 0.44007 0.47865 0.0
N320 N 0.98238 0.40198 0.41718 0.0
C321 C 0.97822 0.43756 0.4606 0.0
O322 O 0.88614 0.54404 0.40275 0.0
C323 C 0.8962 0.55895 0.44315 0.0
O324 O 0.90489 0.51232 0.46944 0.0
H325 H 0.9338 0.34679 0.38774 0.0
H326 H 0.95341 0.46855 0.51282 0.0
C327 C 0.82788 0.46677 0.35881 0.0
C328 C 0.80806 0.46719 0.3837 0.0
C329 C 0.82504 0.43512 0.46019 0.0
C330 C 0.84449 0.43707 0.4361 0.0
N331 N 0.84569 0.45214 0.3861 0.0
N332 N 0.8074 0.45047 0.43363 0.0
H333 H 0.82913 0.47984 0.31914 0.0
C334 C 0.89066 0.39307 0.56886 0.0
O335 O 0.8741 0.3865 0.5395 0.0
O336 O 0.8778 0.47515 0.29039 0.0
H337 H 0.85875 0.42763 0.45715 0.0
H338 H 0.97059 0.3417 0.35634 0.0
H339 H 0.82398 0.42269 0.49998 0.0
Zn340 Zn 0.15706 0.44839 0.15014 0.0
C341 C 0.13531 0.28295 0.07472 0.0
N342 N 0.14211 0.24807 0.11546 0.0
C343 C 0.14574 0.29852 0.14967 0.0
N344 N 0.14162 0.3623 0.13012 0.0
N345 N 0.13413 0.35175 0.08366 0.0
C346 C 0.13646 0.42572 0.9493 0.0
O347 O 0.15155 0.44737 0.97952 0.0
O348 O 0.15285 0.47007 0.22427 0.0
Zn349 Zn 0.11736 0.41797 0.0441 0.0
N350 N 0.18728 0.43255 0.13587 0.0
C351 C 0.21083 0.37067 0.08172 0.0
C352 C 0.19057 0.3848 0.09879 0.0
C353 C 0.20391 0.46776 0.15671 0.0
N354 N 0.22726 0.40601 0.10169 0.0
C355 C 0.22458 0.45481 0.13844 0.0
O356 O 0.12667 0.51589 0.05084 0.0
C357 C 0.1383 0.55796 0.0748 0.0
O358 O 0.14974 0.53812 0.11166 0.0
H359 H 0.17749 0.35739 0.08275 0.0
H360 H 0.2011 0.50611 0.18596 0.0
C361 C 0.07162 0.43902 0.03576 0.0
C362 C 0.05121 0.44668 0.05651 0.0
C363 C 0.06436 0.41133 0.13629 0.0
C364 C 0.08462 0.40622 0.11613 0.0
N365 N 0.08789 0.41877 0.06623 0.0
N366 N 0.04821 0.43194 0.10625 0.0
H367 H 0.07464 0.45182 0.9966 0.0
C368 C 0.14012 0.51823 0.23684 0.0
O369 O 0.12906 0.54997 0.20197 0.0
O370 O 0.11957 0.40211 0.96857 0.0
H371 H 0.0978 0.39453 0.14041 0.0
H372 H 0.21349 0.33227 0.05244 0.0
H373 H 0.06161 0.40099 0.17594 0.0
Zn374 Zn 0.37373 0.56893 0.14753 0.0
C375 C 0.39042 0.73903 0.07333 0.0
N376 N 0.38318 0.77132 0.11505 0.0
C377 C 0.38164 0.71998 0.14888 0.0
N378 N 0.38729 0.65794 0.12827 0.0
N379 N 0.39373 0.67066 0.0813 0.0
C380 C 0.39163 0.62407 0.94412 0.0
O381 O 0.37466 0.62923 0.97229 0.0
O382 O 0.37603 0.54902 0.22218 0.0
Zn383 Zn 0.41115 0.60628 0.04026 0.0
N384 N 0.34418 0.57511 0.12639 0.0
C385 C 0.32371 0.59254 0.05206 0.0
C386 C 0.34308 0.59065 0.07646 0.0
C387 C 0.32635 0.5599 0.1533 0.0
N388 N 0.30605 0.57637 0.07819 0.0
C389 C 0.30662 0.55909 0.12804 0.0
O390 O 0.40234 0.50757 0.04345 0.0
C391 C 0.39295 0.46312 0.07026 0.0
O392 O 0.38339 0.48016 0.11085 0.0
H393 H 0.35738 0.60001 0.05562 0.0
H394 H 0.32753 0.54637 0.19288 0.0
C395 C 0.45659 0.5785 0.0343 0.0
C396 C 0.4771 0.57352 0.05475 0.0
C397 C 0.46455 0.62158 0.13185 0.0
C398 C 0.44421 0.62488 0.11196 0.0
N399 N 0.44059 0.60481 0.06338 0.0
N400 N 0.48047 0.59585 0.10297 0.0
H401 H 0.45332 0.56026 0.9963 0.0
C402 C 0.39086 0.50913 0.23646 0.0
O403 O 0.40485 0.48708 0.20344 0.0
O404 O 0.40964 0.62347 0.96517 0.0
H405 H 0.43128 0.64188 0.13542 0.0
H406 H 0.32273 0.60527 0.01231 0.0
H407 H 0.46757 0.63802 0.17037 0.0
Zn408 Zn 0.4131 0.41901 0.54203 0.0
C409 C 0.38483 0.30988 0.65247 0.0
N410 N 0.38821 0.2561 0.62101 0.0
C411 C 0.39465 0.28633 0.57805 0.0
N412 N 0.39564 0.3561 0.58323 0.0
N413 N 0.38828 0.37144 0.62917 0.0
C414 C 0.38815 0.51631 0.73918 0.0
O415 O 0.40469 0.52891 0.71076 0.0
O416 O 0.41066 0.40008 0.46712 0.0
Zn417 Zn 0.3733 0.46014 0.64553 0.0
N418 N 0.44299 0.41642 0.56272 0.0
C419 C 0.46815 0.38738 0.62625 0.0
C420 C 0.44751 0.38713 0.60809 0.0
C421 C 0.45856 0.44679 0.53473 0.0
N422 N 0.48358 0.41765 0.59862 0.0
C423 C 0.47947 0.44769 0.55326 0.0
O424 O 0.38385 0.54811 0.61071 0.0
C425 C 0.39477 0.56418 0.57211 0.0
O426 O 0.40488 0.51885 0.54711 0.0
H427 H 0.43518 0.36307 0.62978 0.0
H428 H 0.45469 0.47085 0.49902 0.0
C429 C 0.32612 0.47136 0.64383 0.0
C430 C 0.30677 0.46764 0.61717 0.0
C431 C 0.32495 0.42273 0.54562 0.0
C432 C 0.34399 0.42857 0.57131 0.0
N433 N 0.34435 0.45156 0.61993 0.0
N434 N 0.30689 0.44255 0.56896 0.0
H435 H 0.3267 0.49148 0.68212 0.0
C436 C 0.39469 0.42735 0.44598 0.0
O437 O 0.38002 0.45608 0.47419 0.0
O438 O 0.37263 0.48358 0.72019 0.0
H439 H 0.35857 0.41568 0.55243 0.0
H440 H 0.47186 0.36383 0.66221 0.0
H441 H 0.32455 0.40375 0.50702 0.0
Zn442 Zn 0.11578 0.60372 0.54333 0.0
C443 C 0.14325 0.71376 0.65412 0.0
N444 N 0.13959 0.76753 0.62326 0.0
C445 C 0.1337 0.7371 0.57962 0.0
N446 N 0.13336 0.66723 0.58389 0.0
N447 N 0.1406 0.65219 0.62981 0.0
C448 C 0.1412 0.51191 0.7401 0.0
O449 O 0.12444 0.49935 0.71234 0.0
O450 O 0.1179 0.62098 0.46847 0.0
Zn451 Zn 0.15593 0.5643 0.64571 0.0
N452 N 0.08605 0.60654 0.565 0.0
C453 C 0.06086 0.6396 0.62772 0.0
C454 C 0.08149 0.63908 0.60945 0.0
C455 C 0.07057 0.57343 0.53822 0.0
N456 N 0.0455 0.60676 0.60119 0.0
C457 C 0.0497 0.57339 0.55686 0.0
O458 O 0.14532 0.47583 0.61151 0.0
C459 C 0.13432 0.45935 0.57303 0.0
O460 O 0.12416 0.50433 0.54826 0.0
H461 H 0.09375 0.66535 0.63022 0.0
H462 H 0.07448 0.54671 0.50333 0.0
C463 C 0.20302 0.55268 0.6436 0.0
C464 C 0.22243 0.55685 0.61724 0.0
C465 C 0.20441 0.60348 0.54645 0.0
C466 C 0.18532 0.59727 0.57184 0.0
N467 N 0.18485 0.57314 0.61994 0.0
N468 N 0.22242 0.58299 0.56956 0.0
H469 H 0.20237 0.53179 0.68147 0.0
C470 C 0.13429 0.59592 0.44749 0.0
O471 O 0.14938 0.57041 0.47581 0.0
O472 O 0.15687 0.54229 0.72014 0.0
H473 H 0.1708 0.6109 0.55315 0.0
H474 H 0.0571 0.66579 0.66288 0.0
H475 H 0.20489 0.62335 0.50828 0.0
Zn476 Zn 0.91214 0.58943 0.96573 0.0
C477 C 0.89066 0.71249 0.85893 0.0
N478 N 0.89701 0.7605 0.8928 0.0
C479 C 0.89964 0.72493 0.93551 0.0
N480 N 0.89597 0.65697 0.92795 0.0
N481 N 0.88926 0.64852 0.88055 0.0
C482 C 0.88314 0.47602 0.77994 0.0
O483 O 0.89684 0.45724 0.81436 0.0
O484 O 0.91057 0.60751 0.0406 0.0
Zn485 Zn 0.87053 0.56729 0.86226 0.0
N486 N 0.94158 0.58888 0.94307 0.0
C487 C 0.96618 0.6153 0.87782 0.0
C488 C 0.94566 0.61591 0.8967 0.0
C489 C 0.95738 0.56014 0.9712 0.0
N490 N 0.9819 0.58699 0.90577 0.0
C491 C 0.97814 0.55891 0.95196 0.0
O492 O 0.87562 0.47905 0.90438 0.0
C493 C 0.88795 0.45556 0.93838 0.0
O494 O 0.90165 0.49345 0.95959 0.0
H495 H 0.93307 0.63783 0.87441 0.0
H496 H 0.95385 0.53827 0.00784 0.0
C497 C 0.82413 0.55645 0.86127 0.0
C498 C 0.80358 0.57929 0.87414 0.0
C499 C 0.81822 0.68267 0.90797 0.0
C500 C 0.83837 0.6596 0.89585 0.0
N501 N 0.84115 0.59655 0.87372 0.0
N502 N 0.80142 0.64209 0.89716 0.0
H503 H 0.82657 0.50718 0.84247 0.0
C504 C 0.89413 0.58479 0.06248 0.0
O505 O 0.87837 0.56161 0.03501 0.0
O506 O 0.87188 0.52917 0.7899 0.0
H507 H 0.85169 0.69205 0.90427 0.0
H508 H 0.9696 0.63702 0.84109 0.0
H509 H 0.81592 0.73252 0.926 0.0
Zn510 Zn 0.6153 0.41963 0.9661 0.0
C511 C 0.64573 0.30527 0.85962 0.0
N512 N 0.64357 0.25396 0.89329 0.0
C513 C 0.6359 0.28655 0.93444 0.0
N514 N 0.63291 0.35495 0.92622 0.0
N515 N 0.64005 0.3675 0.87983 0.0
C516 C 0.63961 0.51848 0.77171 0.0
O517 O 0.62675 0.54749 0.80453 0.0
O518 O 0.61665 0.4032 0.04135 0.0
Zn519 Zn 0.65451 0.45533 0.86156 0.0
N520 N 0.58596 0.42059 0.94268 0.0
C521 C 0.56238 0.40911 0.87292 0.0
C522 C 0.58258 0.40364 0.89337 0.0
C523 C 0.56986 0.44525 0.97216 0.0
N524 N 0.5464 0.43391 0.90203 0.0
C525 C 0.54951 0.45281 0.95113 0.0
O526 O 0.64508 0.54491 0.89748 0.0
C527 C 0.63438 0.56216 0.93632 0.0
O528 O 0.62411 0.51799 0.96135 0.0
H529 H 0.59561 0.38789 0.86976 0.0
H530 H 0.57298 0.46114 0.01079 0.0
C531 C 0.70209 0.46298 0.86094 0.0
C532 C 0.72113 0.46566 0.88908 0.0
C533 C 0.70227 0.43319 0.96287 0.0
C534 C 0.68357 0.43349 0.93563 0.0
N535 N 0.68366 0.44787 0.88547 0.0
N536 N 0.72047 0.4498 0.93919 0.0
H537 H 0.70183 0.47555 0.82109 0.0
C538 C 0.63305 0.4273 0.06277 0.0
O539 O 0.64857 0.45043 0.03481 0.0
O540 O 0.65301 0.47387 0.78655 0.0
H541 H 0.66879 0.42435 0.9545 0.0
H542 H 0.55954 0.39538 0.83376 0.0
H543 H 0.70227 0.42162 1.00288 0.0
C544 C 0.03072 0.97241 0.48905 0.0
C545 C 0.03272 0.04527 0.48397 0.0
C546 C 0.9987 0.0617 0.52761 0.0
C547 C 0.99612 0.98877 0.5298 0.0
N548 N 1.00795 0.87446 0.5066 0.0
N549 N 0.01786 0.1595 0.49311 0.0
C550 C 1.01172 0.94407 0.50901 0.0
C551 C 0.01644 0.08996 0.50167 0.0
N552 N 0.04707 0.93022 0.47496 0.0
N553 N 0.98459 0.10388 0.55203 0.0
H554 H 0.03111 0.18244 0.47699 0.0
H555 H 1.00553 0.19414 0.49935 0.0
H556 H 0.9713 0.08523 0.5707 0.0
H557 H 0.9867 0.15688 0.55685 0.0
H558 H 0.04777 0.87769 0.48315 0.0
H559 H 0.06076 0.94846 0.45784 0.0
H560 H 0.01752 0.83936 0.48729 0.0
H561 H 0.99419 0.85198 0.5205 0.0
C562 C 0.52804 0.97406 0.53241 0.0
C563 C 0.53245 0.04552 0.52581 0.0
C564 C 0.49977 0.05846 0.4764 0.0
C565 C 0.49615 0.98611 0.48009 0.0
N566 N 0.50799 0.8732 0.50579 0.0
N567 N 0.52394 0.15494 0.48784 0.0
C568 C 0.51063 0.94339 0.50651 0.0
C569 C 0.51868 0.0875 0.49671 0.0
N570 N 0.54019 0.93589 0.56469 0.0
N571 N 0.48486 0.09952 0.45419 0.0
H572 H 0.53741 0.17805 0.50295 0.0
H573 H 0.51587 0.18687 0.46285 0.0
H574 H 0.47115 0.07981 0.43784 0.0
H575 H 0.48524 0.15331 0.45489 0.0
H576 H 0.53648 0.88582 0.57581 0.0
H577 H 0.55338 0.95589 0.58319 0.0
H578 H 0.51924 0.83836 0.5189 0.0
H579 H 0.495 0.8492 0.48901 0.0
C580 C 0.51032 0.08429 0.99904 0.0
C581 C 0.4945 0.04109 0.97769 0.0
C582 C 0.51593 0.9383 0.99759 0.0
C583 C 0.53098 0.98112 0.02223 0.0
N584 N 0.54127 0.0937 0.05289 0.0
N585 N 0.48102 0.92685 0.96065 0.0
C586 C 0.52789 0.05391 0.02454 0.0
C587 C 0.49696 0.96799 0.97827 0.0
N588 N 0.50868 0.1545 0.99432 0.0
N589 N 0.52016 0.86936 0.9912 0.0
H590 H 0.46736 0.94656 0.94417 0.0
H591 H 0.4806 0.87347 0.96535 0.0
H592 H 0.5339 0.84601 0.00465 0.0
H593 H 0.51104 0.83618 0.96916 0.0
H594 H 0.52077 0.18869 1.00346 0.0
H595 H 0.49558 0.17864 0.97826 0.0
H596 H 0.53867 0.1458 0.06091 0.0
H597 H 0.55436 0.07345 0.0716 0.0
C598 C 0.01978 0.94075 0.0161 0.0
C599 C 0.03162 0.9786 0.98004 0.0
C600 C 1.00713 0.0773 0.98932 0.0
C601 C 0.99455 0.03787 0.02294 0.0
N602 N 0.98784 0.93127 0.06667 0.0
N603 N 0.03604 0.08034 0.92891 0.0
C604 C 1.00065 0.96936 0.03594 0.0
C605 C 0.02512 0.04621 0.96573 0.0
N606 N 0.02701 0.87765 0.03172 0.0
N607 N 1.00228 0.14538 0.98149 0.0
H608 H 0.04996 0.06125 0.91303 0.0
H609 H 0.03086 0.12587 0.91214 0.0
H610 H 0.98895 0.16917 0.99693 0.0
H611 H 1.01204 0.1797 0.96242 0.0
H612 H 0.02054 0.84981 0.06144 0.0
H613 H 0.0405 0.85424 0.01679 0.0
H614 H 0.98991 0.87888 0.07384 0.0
H615 H 0.97413 0.9512 0.08301 0.0
C616 C 0.53011 0.46735 0.47553 0.0
C617 C 0.53366 0.53969 0.47988 0.0
C618 C 0.50039 0.55286 0.52729 0.0
C619 C 0.49734 0.48002 0.52501 0.0
N620 N 0.51013 0.36663 0.50191 0.0
N621 N 0.52372 0.65097 0.51349 0.0
C622 C 0.51248 0.43694 0.50054 0.0
C623 C 0.51917 0.58238 0.5067 0.0
N624 N 0.54327 0.42804 0.446 0.0
N625 N 0.48525 0.59374 0.54909 0.0
H626 H 0.53719 0.67407 0.49855 0.0
H627 H 0.51507 0.6844 0.53648 0.0
H628 H 0.47191 0.57375 0.56677 0.0
H629 H 0.48517 0.64747 0.54752 0.0
H630 H 0.54036 0.37673 0.4362 0.0
H631 H 0.55667 0.44792 0.42848 0.0
H632 H 0.52177 0.33171 0.49073 0.0
H633 H 0.49682 0.34259 0.51683 0.0
C634 C 0.02803 0.46668 0.53937 0.0
C635 C 0.03204 0.53777 0.52998 0.0
C636 C 1.00083 0.54302 0.47469 0.0
C637 C 0.99598 0.47338 0.48689 0.0
N638 N 1.00353 0.37012 0.53406 0.0
N639 N 0.02107 0.64636 0.49409 0.0
C640 C 1.00923 0.4355 0.52012 0.0
C641 C 0.01807 0.57671 0.49916 0.0
N642 N 0.04236 0.42891 0.56634 0.0
N643 N 0.98938 0.57619 0.43827 0.0
H644 H 0.03404 0.67225 0.50933 0.0
H645 H 1.01009 0.67935 0.47754 0.0
H646 H 0.97641 0.55378 0.42029 0.0
H647 H 0.99349 0.62398 0.42332 0.0
H648 H 0.04173 0.37544 0.57017 0.0
H649 H 0.05585 0.45058 0.58243 0.0
H650 H 1.01119 0.34167 0.56187 0.0
H651 H 0.99006 0.34558 0.52017 0.0
C652 C 0.03073 0.54731 0.02154 0.0
C653 C 0.03307 0.47459 0.02692 0.0
C654 C 0.99918 0.45653 0.9832 0.0
C655 C 0.99624 0.52933 0.98078 0.0
N656 N 1.00745 0.64421 1.00381 0.0
N657 N 0.01874 0.35977 0.01836 0.0
C658 C 1.01159 0.57477 1.00152 0.0
C659 C 0.01702 0.42915 0.00937 0.0
N660 N 0.04689 0.59019 0.03534 0.0
N661 N 0.98533 0.41364 0.95879 0.0
H662 H 0.03206 0.33751 0.03481 0.0
H663 H 1.00658 0.32465 0.0122 0.0
H664 H 0.97197 0.43163 0.93997 0.0
H665 H 0.98773 0.36071 0.95416 0.0
H666 H 0.04732 0.64271 0.02699 0.0
H667 H 0.06072 0.57251 0.05225 0.0
H668 H 0.01683 0.67973 0.02311 0.0
H669 H 0.99357 0.66604 0.9899 0.0
C670 C 0.49805 0.46933 0.02613 0.0
C671 C 0.4951 0.54222 0.02619 0.0
C672 C 0.52925 0.55662 0.98317 0.0
C673 C 0.53149 0.48351 0.98001 0.0
N674 N 0.51708 0.36973 0.99287 0.0
N675 N 0.50642 0.65537 1.00034 0.0
C676 C 0.51558 0.43973 0.99984 0.0
C677 C 0.51035 0.58592 1.00355 0.0
N678 N 0.48452 0.42856 0.05295 0.0
N679 N 0.54532 0.59804 0.96701 0.0
H680 H 0.49283 0.67839 0.01512 0.0
H681 H 0.5157 0.68966 0.97994 0.0
H682 H 0.55894 0.57864 0.94994 0.0
H683 H 0.54589 0.65117 0.97334 0.0
H684 H 0.48702 0.37612 0.05936 0.0
H685 H 0.47141 0.44822 0.07211 0.0
H686 H 0.50488 0.33545 1.00069 0.0
H687 H 0.53018 0.34592 0.97632 0.0
C688 C 0.11692 0.85206 0.46925 0.0
C689 C 0.13624 0.88689 0.4607 0.0
C690 C 0.15422 0.80252 0.51492 0.0
C691 C 0.13437 0.77675 0.53117 0.0
N692 N 0.09656 0.77903 0.52514 0.0
N693 N 0.17361 0.89657 0.47675 0.0
C694 C 0.11564 0.80105 0.50791 0.0
C695 C 0.15511 0.86136 0.48279 0.0
N696 N 0.09976 0.86847 0.44046 0.0
N697 N 0.17233 0.77172 0.53145 0.0
H698 H 0.17523 0.93905 0.45307 0.0
H699 H 0.18718 0.88642 0.49763 0.0
H700 H 0.1723 0.73133 0.55728 0.0
H701 H 0.18719 0.78236 0.51666 0.0
H702 H 0.08569 0.84082 0.44136 0.0
H703 H 0.10042 0.90561 0.41197 0.0
H704 H 0.08222 0.8004 0.51399 0.0
H705 H 0.09528 0.74214 0.55336 0.0
C706 C 0.41215 0.16934 0.46872 0.0
C707 C 0.39278 0.13507 0.45912 0.0
C708 C 0.37458 0.22165 0.51173 0.0
C709 C 0.39435 0.24674 0.52926 0.0
N710 N 0.4322 0.24254 0.52581 0.0
N711 N 0.3552 0.12744 0.47299 0.0
C712 C 0.41323 0.2211 0.50733 0.0
C713 C 0.37379 0.162 0.47989 0.0
N714 N 0.42954 0.15169 0.441 0.0
N715 N 0.35645 0.2539 0.52685 0.0
H716 H 0.35364 0.0842 0.44965 0.0
H717 H 0.34146 0.13891 0.49293 0.0
H718 H 0.35642 0.29513 0.55232 0.0
H719 H 0.34172 0.24362 0.51113 0.0
H720 H 0.44367 0.17895 0.44268 0.0
H721 H 0.42905 0.11403 0.41252 0.0
H722 H 0.44656 0.22022 0.51564 0.0
H723 H 0.43333 0.27995 0.55407 0.0
C724 C 0.65363 0.16482 0.03423 0.0
C725 C 0.63421 0.13403 0.04881 0.0
C726 C 0.61483 0.2206 0.99896 0.0
C727 C 0.63421 0.24973 0.98354 0.0
N728 N 0.67122 0.26467 0.99909 0.0
N729 N 0.59657 0.14552 0.05782 0.0
C730 C 0.65326 0.22723 0.00612 0.0
C731 C 0.61486 0.1666 0.03552 0.0
N732 N 0.67239 0.13175 0.04265 0.0
N733 N 0.59656 0.24156 0.97643 0.0
H734 H 0.59626 0.10684 0.08521 0.0
H735 H 0.58222 0.1709 0.05299 0.0
H736 H 0.59617 0.28188 0.95042 0.0
H737 H 0.58214 0.21685 0.98148 0.0
H738 H 0.68661 0.14791 0.02704 0.0
H739 H 0.6738 0.08491 0.06148 0.0
H740 H 0.68522 0.25527 0.01854 0.0
H741 H 0.67135 0.30948 0.9775 0.0
C742 C 0.91801 0.79936 0.99998 0.0
C743 C 0.89984 0.7619 0.98539 0.0
C744 C 0.87762 0.8412 0.03569 0.0
C745 C 0.89575 0.88079 0.04841 0.0
N746 N 0.93352 0.88468 0.0565 0.0
N747 N 0.86381 0.73255 1.00322 0.0
C748 C 0.91607 0.85528 0.03519 0.0
C749 C 0.88017 0.77772 0.00841 0.0
N750 N 0.93695 0.78345 0.97824 0.0
N751 N 0.85793 0.86631 0.04615 0.0
H752 H 0.8657 0.68443 0.98587 0.0
H753 H 0.84934 0.73869 0.02136 0.0
H754 H 0.85526 0.91222 0.06598 0.0
H755 H 0.84415 0.8441 0.03215 0.0
H756 H 0.95039 0.81387 0.98216 0.0
H757 H 0.93884 0.74071 0.95436 0.0
H758 H 0.94863 0.86448 0.05204 0.0
H759 H 0.93251 0.925 0.08288 0.0
C760 C 0.90593 0.16807 0.54755 0.0
C761 C 0.88662 0.13163 0.55183 0.0
C762 C 0.86995 0.21779 0.49698 0.0
C763 C 0.89018 0.24301 0.48335 0.0
N764 N 0.92775 0.241 0.49515 0.0
N765 N 0.84973 0.12195 0.5298 0.0
C766 C 0.90826 0.21895 0.50931 0.0
C767 C 0.86829 0.15754 0.52747 0.0
N768 N 0.92214 0.15277 0.57966 0.0
N769 N 0.85233 0.25087 0.47974 0.0
H770 H 0.84757 0.07826 0.55196 0.0
H771 H 0.83671 0.13344 0.50732 0.0
H772 H 0.85315 0.2946 0.45692 0.0
H773 H 0.83714 0.23928 0.49202 0.0
H774 H 0.93611 0.18095 0.5812 0.0
H775 H 0.9206 0.11626 0.60839 0.0
H776 H 0.94175 0.21965 0.50858 0.0
H777 H 0.92975 0.27777 0.46715 0.0
C778 C 0.65101 0.85331 0.54219 0.0
C779 C 0.63232 0.89376 0.54672 0.0
C780 C 0.61384 0.81229 0.49022 0.0
C781 C 0.63267 0.77378 0.48458 0.0
N782 N 0.66586 0.74144 0.5207 0.0
N783 N 0.59444 0.89819 0.53889 0.0
C784 C 0.65011 0.78891 0.51606 0.0
C785 C 0.61318 0.8685 0.52535 0.0
N786 N 0.66998 0.87805 0.55882 0.0
N787 N 0.59691 0.79698 0.46034 0.0
H788 H 0.59346 0.93774 0.56588 0.0
H789 H 0.57986 0.879 0.52746 0.0
H790 H 0.59678 0.75383 0.43647 0.0
H791 H 0.58356 0.82824 0.45782 0.0
H792 H 0.68427 0.85357 0.55091 0.0
H793 H 0.67192 0.92572 0.57661 0.0
H794 H 0.67835 0.74674 0.54604 0.0
H795 H 0.66454 0.69265 0.50431 0.0
C796 C 0.37158 0.80036 0.00449 0.0
C797 C 0.39103 0.77581 0.02401 0.0
C798 C 0.40976 0.85383 0.96674 0.0
C799 C 0.39051 0.88851 0.95604 0.0
N800 N 0.35264 0.89536 0.96631 0.0
N801 N 0.4289 0.77863 0.02403 0.0
C802 C 0.37119 0.86089 0.97415 0.0
C803 C 0.41024 0.80126 0.00437 0.0
N804 N 0.35337 0.7665 0.01628 0.0
N805 N 0.42754 0.87154 0.94082 0.0
H806 H 0.4296 0.73978 0.05114 0.0
H807 H 0.44342 0.80083 0.01563 0.0
H808 H 0.42748 0.90964 0.91297 0.0
H809 H 0.4416 0.84382 0.94319 0.0
H810 H 0.3389 0.77709 0.99934 0.0
H811 H 0.35322 0.72316 0.03953 0.0
H812 H 0.33859 0.88272 0.98441 0.0
H813 H 0.35133 0.93963 0.94435 0.0
C814 C 0.15002 0.16945 0.96723 0.0
C815 C 0.13137 0.12929 0.96159 0.0
C816 C 0.11255 0.20903 0.0189 0.0
C817 C 0.13136 0.24696 0.02577 0.0
N818 N 0.16483 0.28011 0.99159 0.0
N819 N 0.09343 0.12515 0.96797 0.0
C820 C 0.14896 0.23293 0.9945 0.0
C821 C 0.11209 0.15417 0.98267 0.0
N822 N 0.1691 0.14507 0.95081 0.0
N823 N 0.09549 0.2235 0.04865 0.0
H824 H 0.09264 0.08656 0.94023 0.0
H825 H 0.07875 0.144 0.97928 0.0
H826 H 0.09528 0.26543 0.07372 0.0
H827 H 0.0821 0.19249 0.04998 0.0
H828 H 0.18333 0.1691 0.95965 0.0
H829 H 0.17121 0.09808 0.93215 0.0
H830 H 0.17739 0.27575 0.96633 0.0
H831 H 0.16372 0.32779 0.0098 0.0
C832 C 0.65768 0.36034 0.47161 0.0
C833 C 0.63845 0.39013 0.45452 0.0
C834 C 0.61841 0.30556 0.50456 0.0
C835 C 0.63758 0.27803 0.52312 0.0
N836 N 0.67496 0.26364 0.51255 0.0
N837 N 0.60108 0.37727 0.44176 0.0
C838 C 0.65701 0.29997 0.50214 0.0
C839 C 0.61899 0.35761 0.46654 0.0
N840 N 0.6765 0.39255 0.46279 0.0
N841 N 0.59977 0.28533 0.52554 0.0
H842 H 0.60122 0.41458 0.41334 0.0
H843 H 0.58668 0.35206 0.44569 0.0
H844 H 0.59896 0.24678 0.55286 0.0
H845 H 0.58538 0.30921 0.51801 0.0
H846 H 0.69056 0.37809 0.48017 0.0
H847 H 0.67809 0.43672 0.44088 0.0
H848 H 0.6893 0.27219 0.4944 0.0
H849 H 0.67491 0.22038 0.53583 0.0
C850 C 0.88232 0.7379 0.49766 0.0
C851 C 0.90139 0.75247 0.52362 0.0
C852 C 0.91826 0.65653 0.47747 0.0
C853 C 0.89812 0.63215 0.46178 0.0
N854 N 0.86032 0.64972 0.45952 0.0
N855 N 0.93807 0.72788 0.53666 0.0
C856 C 0.87998 0.67364 0.47143 0.0
C857 C 0.91964 0.71304 0.5123 0.0
N858 N 0.86629 0.78503 0.49884 0.0
N859 N 0.93604 0.62561 0.45883 0.0
H860 H 0.93963 0.77104 0.56025 0.0
H861 H 0.95138 0.69624 0.53512 0.0
H862 H 0.93546 0.58539 0.43232 0.0
H863 H 0.95117 0.64431 0.46557 0.0
H864 H 0.85262 0.7802 0.47726 0.0
H865 H 0.86785 0.83287 0.51671 0.0
H866 H 0.8465 0.67406 0.47145 0.0
H867 H 0.85759 0.60277 0.44123 0.0
C868 C 0.11974 0.66508 0.04496 0.0
C869 C 0.13908 0.63065 0.0556 0.0
C870 C 0.15778 0.72191 0.00963 0.0
C871 C 0.13838 0.74597 0.98954 0.0
N872 N 0.10054 0.74012 0.98769 0.0
N873 N 0.17702 0.626 0.04568 0.0
C874 C 0.1192 0.71856 0.00797 0.0
C875 C 0.15834 0.65995 0.03849 0.0
N876 N 0.10189 0.64607 0.07014 0.0
N877 N 0.17583 0.75777 0.99985 0.0
H878 H 0.17848 0.58036 0.06604 0.0
H879 H 0.19106 0.6405 0.02827 0.0
H880 H 0.1758 0.80243 0.97802 0.0
H881 H 0.19021 0.74733 0.01729 0.0
H882 H 0.08768 0.67292 0.06742 0.0
H883 H 0.10197 0.60769 0.09778 0.0
H884 H 0.08614 0.71644 0.99506 0.0
H885 H 0.09976 0.77953 0.96106 0.0
C886 C 0.41133 0.35756 0.0358 0.0
C887 C 0.3922 0.39057 0.05044 0.0
C888 C 0.37251 0.29675 0.00921 0.0
C889 C 0.39128 0.27316 0.98555 0.0
N890 N 0.42887 0.28045 0.97615 0.0
N891 N 0.35404 0.39235 0.04873 0.0
C892 C 0.41087 0.30239 0.99966 0.0
C893 C 0.3726 0.35944 0.03771 0.0
N894 N 0.4299 0.37932 0.05651 0.0
N895 N 0.35439 0.25973 1.00318 0.0
H896 H 0.35307 0.4384 0.06916 0.0
H897 H 0.33951 0.3766 0.03441 0.0
H898 H 0.35395 0.21459 0.98162 0.0
H899 H 0.34058 0.26977 0.02331 0.0
H900 H 0.44417 0.3536 0.05095 0.0
H901 H 0.43058 0.41908 0.08338 0.0
H902 H 0.44338 0.30498 0.98012 0.0
H903 H 0.4289 0.23937 0.95044 0.0
C904 C 0.37439 0.66521 0.53576 0.0
C905 C 0.39396 0.63568 0.55085 0.0
C906 C 0.41287 0.72233 0.50011 0.0
C907 C 0.39334 0.75043 0.48431 0.0
N908 N 0.35617 0.76315 0.49924 0.0
N909 N 0.43149 0.64909 0.55975 0.0
C910 C 0.37438 0.72702 0.50684 0.0
C911 C 0.41311 0.66888 0.53718 0.0
N912 N 0.35583 0.63146 0.54467 0.0
N913 N 0.43105 0.74359 0.47744 0.0
H914 H 0.43201 0.61061 0.58729 0.0
H915 H 0.44564 0.6755 0.55504 0.0
H916 H 0.43125 0.78332 0.45096 0.0
H917 H 0.44558 0.71951 0.48281 0.0
H918 H 0.34151 0.64629 0.5287 0.0
H919 H 0.35469 0.58533 0.56448 0.0
H920 H 0.34221 0.75332 0.5187 0.0
H921 H 0.35572 0.80739 0.47708 0.0
C922 C 0.15433 0.29441 0.50869 0.0
C923 C 0.13542 0.27191 0.48536 0.0
C924 C 0.1157 0.35528 0.53744 0.0
C925 C 0.13494 0.38753 0.55188 0.0
N926 N 0.17314 0.38969 0.54688 0.0
N927 N 0.09781 0.28092 0.47675 0.0
C928 C 0.15446 0.35671 0.53752 0.0
C929 C 0.11593 0.3014 0.50029 0.0
N930 N 0.17238 0.25705 0.50182 0.0
N931 N 0.09725 0.37661 0.55918 0.0
H932 H 0.0976 0.24091 0.45014 0.0
H933 H 0.08337 0.30587 0.48151 0.0
H934 H 0.09676 0.41526 0.58694 0.0
H935 H 0.08293 0.35148 0.5535 0.0
H936 H 0.18625 0.26637 0.52185 0.0
H937 H 0.17273 0.21238 0.47971 0.0
H938 H 0.18747 0.37365 0.53144 0.0
H939 H 0.17442 0.43635 0.56638 0.0
C940 C 0.86824 0.295 0.0067 0.0
C941 C 0.88799 0.26821 0.02267 0.0
C942 C 0.90559 0.34501 0.96276 0.0
C943 C 0.8865 0.38276 0.95657 0.0
N944 N 0.84915 0.39351 0.97402 0.0
N945 N 0.92579 0.26811 0.01643 0.0
C946 C 0.86752 0.35672 0.97766 0.0
C947 C 0.90678 0.29217 0.99997 0.0
N948 N 0.85013 0.26219 0.02075 0.0
N949 N 0.92262 0.36062 0.93335 0.0
H950 H 0.92699 0.22971 0.04371 0.0
H951 H 0.94018 0.28914 0.00549 0.0
H952 H 0.92195 0.39834 0.90526 0.0
H953 H 0.9365 0.33168 0.93321 0.0
H954 H 0.83531 0.27484 0.00647 0.0
H955 H 0.8503 0.21778 0.04291 0.0
H956 H 0.83558 0.38141 0.9943 0.0
H957 H 0.84765 0.43893 0.95345 0.0
C958 C 0.65418 0.66019 0.9781 0.0
C959 C 0.63515 0.63393 0.9573 0.0
C960 C 0.61484 0.72012 0.00584 0.0
C961 C 0.63374 0.74508 0.0279 0.0
N962 N 0.67166 0.75133 0.02531 0.0
N963 N 0.5985 0.65234 0.93884 0.0
C964 C 0.65348 0.71959 0.01023 0.0
C965 C 0.61586 0.66887 0.9669 0.0
N966 N 0.67274 0.62538 0.97075 0.0
N967 N 0.59587 0.74151 0.02455 0.0
H968 H 0.59896 0.61492 0.91018 0.0
H969 H 0.58448 0.68045 0.94038 0.0
H970 H 0.59477 0.77808 0.05338 0.0
H971 H 0.58151 0.71961 0.01414 0.0
H972 H 0.6865 0.63612 0.99077 0.0
H973 H 0.67425 0.58285 0.94671 0.0
H974 H 0.68637 0.74066 0.00956 0.0
H975 H 0.67174 0.79258 0.05077 0.0
C976 C 0.26999 0.93949 0.3493 0.0
C977 C 0.28602 0.98974 0.35577 0.0
C978 C 0.25916 0.08115 0.35013 0.0
C979 C 0.24314 0.03088 0.35628 0.0
N980 N 0.233 0.91092 0.35975 0.0
N981 N 0.29618 0.10968 0.36034 0.0
C982 C 0.24839 0.95949 0.35382 0.0
C983 C 0.28076 0.06113 0.35413 0.0
N984 N 0.27562 0.87235 0.34018 0.0
N985 N 0.25351 0.14832 0.3418 0.0
H986 H 0.31214 0.09706 0.36227 0.0
H987 H 0.29311 0.1621 0.36592 0.0
H988 H 0.23773 0.1634 0.33884 0.0
H989 H 0.26424 0.18714 0.33306 0.0
H990 H 0.26486 0.83356 0.33118 0.0
H991 H 0.29139 0.85727 0.33686 0.0
H992 H 0.23608 0.85849 0.36475 0.0
H993 H 0.21704 0.92351 0.36204 0.0
C994 C 0.75808 0.93614 0.15673 0.0
C995 C 0.7422 0.9868 0.14908 0.0
C996 C 0.76946 0.07699 0.15201 0.0
C997 C 0.78531 0.02548 0.14743 0.0
N998 N 0.79498 0.90489 0.14719 0.0
N999 N 0.73254 0.10687 0.14101 0.0
C1000 C 0.77976 0.95464 0.15172 0.0
C1001 C 0.74776 0.05792 0.1486 0.0
N1002 N 0.75222 0.86995 0.1676 0.0
N1003 N 0.77535 0.14437 0.15847 0.0
H1004 H 0.71653 0.09507 0.13948 0.0
H1005 H 0.73582 0.15864 0.13385 0.0
H1006 H 0.79117 0.15884 0.16105 0.0
H1007 H 0.76475 0.18432 0.16608 0.0
H1008 H 0.76283 0.8312 0.17757 0.0
H1009 H 0.7364 0.85591 0.17135 0.0
H1010 H 0.79172 0.85234 0.14357 0.0
H1011 H 0.81098 0.9165 0.14463 0.0
C1012 C 0.77906 0.04199 0.62101 0.0
C1013 C 0.78269 0.97417 0.63968 0.0
C1014 C 0.74454 0.96015 0.65334 0.0
C1015 C 0.74096 0.02832 0.63536 0.0
N1016 N 0.75549 0.14096 0.61934 0.0
N1017 N 0.76963 0.87995 0.68997 0.0
C1018 C 0.75854 0.07159 0.62552 0.0
C1019 C 0.76564 0.93735 0.66164 0.0
N1020 N 0.79446 0.07622 0.59517 0.0
N1021 N 0.72818 0.91497 0.65867 0.0
H1022 H 0.78495 0.86295 0.69748 0.0
H1023 H 0.75798 0.85427 0.71033 0.0
H1024 H 0.71253 0.92798 0.65159 0.0
H1025 H 0.73037 0.86255 0.66604 0.0
H1026 H 0.79175 0.12248 0.57619 0.0
H1027 H 0.8094 0.05577 0.58851 0.0
H1028 H 0.76787 0.17602 0.61611 0.0
H1029 H 0.74063 0.16386 0.62304 0.0
C1030 C 0.26729 0.0839 0.85502 0.0
C1031 C 0.28336 0.03348 0.86089 0.0
C1032 C 0.25644 0.94237 0.85648 0.0
C1033 C 0.24044 0.99306 0.86276 0.0
N1034 N 0.23029 0.11314 0.86603 0.0
N1035 N 0.29353 0.91351 0.8654 0.0
C1036 C 0.2457 0.06429 0.86004 0.0
C1037 C 0.27807 0.96215 0.85966 0.0
N1038 N 0.27288 0.15083 0.84584 0.0
N1039 N 0.25075 0.87507 0.84865 0.0
H1040 H 0.3095 0.92597 0.86664 0.0
H1041 H 0.29052 0.86126 0.87127 0.0
H1042 H 0.23496 0.8601 0.84622 0.0
H1043 H 0.26143 0.83584 0.83981 0.0
H1044 H 0.26209 0.1897 0.83726 0.0
H1045 H 0.28863 0.16563 0.84207 0.0
H1046 H 0.23334 0.16566 0.87078 0.0
H1047 H 0.21435 0.10067 0.86857 0.0
C1048 C 0.77102 0.43627 0.36153 0.0
C1049 C 0.78754 0.48558 0.35916 0.0
C1050 C 0.76125 0.57502 0.33954 0.0
C1051 C 0.7449 0.52973 0.35475 0.0
N1052 N 0.73411 0.4154 0.37986 0.0
N1053 N 0.79835 0.60372 0.34546 0.0
C1054 C 0.74965 0.45921 0.3643 0.0
C1055 C 0.78273 0.55522 0.34659 0.0
N1056 N 0.77596 0.36751 0.3624 0.0
N1057 N 0.75607 0.63784 0.31969 0.0
H1058 H 0.81423 0.59171 0.35013 0.0
H1059 H 0.79544 0.65661 0.34284 0.0
H1060 H 0.74039 0.65288 0.31441 0.0
H1061 H 0.76707 0.67139 0.304 0.0
H1062 H 0.76473 0.32839 0.36009 0.0
H1063 H 0.79153 0.35004 0.36026 0.0
H1064 H 0.73705 0.36591 0.39356 0.0
H1065 H 0.71829 0.42979 0.3817 0.0
C1066 C 0.28206 0.46982 0.16632 0.0
C1067 C 0.28614 0.53926 0.15198 0.0
C1068 C 0.24802 0.56087 0.14458 0.0
C1069 C 0.24402 0.49069 0.15685 0.0
N1070 N 0.25634 0.387 0.19689 0.0
N1071 N 0.27312 0.65567 0.14542 0.0
C1072 C 0.26082 0.44853 0.17423 0.0
C1073 C 0.26905 0.58644 0.14775 0.0
N1074 N 0.29807 0.42253 0.16815 0.0
N1075 N 0.23223 0.60164 0.12601 0.0
H1076 H 0.28844 0.67517 0.14792 0.0
H1077 H 0.26136 0.69335 0.14632 0.0
H1078 H 0.21665 0.58532 0.12306 0.0
H1079 H 0.23486 0.65032 0.11058 0.0
H1080 H 0.29556 0.36963 0.17222 0.0
H1081 H 0.31381 0.4351 0.16213 0.0
H1082 H 0.26774 0.35621 0.2141 0.0
H1083 H 0.24085 0.37075 0.20292 0.0
C1084 C 0.24828 0.46155 0.63875 0.0
C1085 C 0.24313 0.53308 0.638 0.0
C1086 C 0.28085 0.56252 0.64004 0.0
C1087 C 0.28601 0.49102 0.63809 0.0
N1088 N 0.27524 0.37364 0.65164 0.0
N1089 N 0.25385 0.6502 0.65397 0.0
C1090 C 0.26983 0.44102 0.64329 0.0
C1091 C 0.25929 0.58297 0.64449 0.0
N1092 N 0.23286 0.41333 0.63132 0.0
N1093 N 0.29631 0.61086 0.63385 0.0
H1094 H 0.23814 0.66587 0.6574 0.0
H1095 H 0.26473 0.6885 0.66327 0.0
H1096 H 0.31225 0.59815 0.63127 0.0
H1097 H 0.29326 0.66325 0.62849 0.0
H1098 H 0.23592 0.36104 0.62509 0.0
H1099 H 0.21693 0.4261 0.6286 0.0
H1100 H 0.26433 0.33517 0.65997 0.0
H1101 H 0.29093 0.35791 0.65512 0.0
C1102 C 0.76687 0.57519 0.83954 0.0
C1103 C 0.78382 0.53952 0.86304 0.0
C1104 C 0.75968 0.44313 0.87912 0.0
C1105 C 0.74212 0.48619 0.86803 0.0
N1106 N 0.72949 0.59891 0.842 0.0
N1107 N 0.79541 0.43974 0.91071 0.0
C1108 C 0.74576 0.55338 0.84833 0.0
C1109 C 0.78015 0.47274 0.88344 0.0
N1110 N 0.77096 0.63076 0.80946 0.0
N1111 N 0.75664 0.37409 0.88679 0.0
H1112 H 0.81027 0.46047 0.91742 0.0
H1113 H 0.79261 0.39443 0.93077 0.0
H1114 H 0.74181 0.35119 0.88321 0.0
H1115 H 0.76904 0.33913 0.89111 0.0
H1116 H 0.75936 0.65538 0.78815 0.0
H1117 H 0.78631 0.64697 0.80163 0.0
H1118 H 0.73181 0.65081 0.83319 0.0
H1119 H 0.71384 0.58711 0.84983 0.0
C1120 C 0.13881 0.90818 0.2107 0.0
C1121 C 0.13509 0.97884 0.22326 0.0
C1122 C 0.12572 1.00334 0.1353 0.0
C1123 C 0.13156 0.9347 0.12185 0.0
N1124 N 0.14446 0.82199 0.1445 0.0
N1125 N 0.1263 0.09509 0.19823 0.0
C1126 C 0.13816 0.88688 0.15901 0.0
C1127 C 0.12893 0.02686 0.18571 0.0
N1128 N 0.14298 0.86164 0.24822 0.0
N1129 N 0.11648 0.04526 0.10008 0.0
H1130 H 0.12721 0.11355 0.23531 0.0
H1131 H 0.12437 0.1342 0.17175 0.0
H1132 H 0.1135 0.02924 0.06306 0.0
H1133 H 0.11 0.09351 0.10833 0.0
H1134 H 0.14348 0.80838 0.2425 0.0
H1135 H 0.14483 0.87586 0.2861 0.0
H1136 H 0.15167 0.78671 0.16856 0.0
H1137 H 0.14339 0.80431 0.10719 0.0
C1138 C 0.38804 0.13271 0.15317 0.0
C1139 C 0.39282 0.08168 0.11627 0.0
C1140 C 0.397 0.99436 0.18254 0.0
C1141 C 0.39013 0.04364 0.2189 0.0
N1142 N 0.37623 0.15696 0.23876 0.0
N1143 N 0.40006 0.96247 0.09413 0.0
C1144 C 0.38499 0.11231 0.20431 0.0
C1145 C 0.39675 0.01202 0.13047 0.0
N1146 N 0.38657 0.2006 0.13935 0.0
N1147 N 0.40473 0.93184 0.19797 0.0
H1148 H 0.40148 0.97373 0.05581 0.0
H1149 H 0.40022 0.90964 0.10153 0.0
H1150 H 0.40541 0.91722 0.23586 0.0
H1151 H 0.41224 0.89692 0.17381 0.0
H1152 H 0.38531 0.24129 0.16518 0.0
H1153 H 0.38831 0.21684 0.10199 0.0
H1154 H 0.37 0.205 0.2292 0.0
H1155 H 0.37345 0.14372 0.27639 0.0
C1156 C 0.61782 0.03355 0.31421 0.0
C1157 C 0.6356 0.05194 0.28476 0.0
C1158 C 0.64932 0.12122 0.35552 0.0
C1159 C 0.63301 0.0952 0.38671 0.0
N1160 N 0.60421 0.01485 0.39837 0.0
N1161 N 0.66902 0.11049 0.2771 0.0
C1162 C 0.61779 0.04861 0.36678 0.0
C1163 C 0.65162 0.09495 0.30537 0.0
N1164 N 0.60089 1.0019 0.29208 0.0
N1165 N 0.6622 0.1724 0.37353 0.0
H1166 H 0.67072 0.0956 0.23931 0.0
H1167 H 0.68233 0.13477 0.29183 0.0
H1168 H 0.66069 0.19314 0.40992 0.0
H1169 H 0.6731 0.19852 0.35129 0.0
H1170 H 0.58665 0.99397 0.31082 0.0
H1171 H 0.60033 0.98924 0.25371 0.0
H1172 H 0.59455 0.97441 0.3864 0.0
H1173 H 0.60398 0.02205 0.43748 0.0
C1174 C 0.89176 0.8948 0.3551 0.0
C1175 C 0.89481 0.94756 0.39173 0.0
C1176 C 0.89644 0.03515 0.32485 0.0
C1177 C 0.89137 0.98322 0.28874 0.0
N1178 N 0.88149 0.86558 0.26916 0.0
N1179 N 0.89951 0.06803 0.4133 0.0
C1180 C 0.88843 0.9134 0.30369 0.0
C1181 C 0.89697 0.01785 0.37709 0.0
N1182 N 0.89225 0.82699 0.36946 0.0
N1183 N 0.90162 0.10019 0.30891 0.0
H1184 H 0.90167 0.0572 0.45154 0.0
H1185 H 0.89868 0.12071 0.40606 0.0
H1186 H 0.90148 0.11461 0.27094 0.0
H1187 H 0.9076 0.13872 0.33248 0.0
H1188 H 0.89229 0.78564 0.34405 0.0
H1189 H 0.89438 0.81193 0.40695 0.0
H1190 H 0.8769 0.81566 0.27864 0.0
H1191 H 0.87862 0.87736 0.23131 0.0
C1192 C 0.89144 0.12925 0.79477 0.0
C1193 C 0.87872 0.07122 0.78134 0.0
C1194 C 0.87089 0.0516 0.87076 0.0
C1195 C 0.88519 0.10487 0.88496 0.0
N1196 N 0.90872 0.19674 0.86104 0.0
N1197 N 0.84716 1.01052 0.80601 0.0
C1198 C 0.89539 0.14449 0.84704 0.0
C1199 C 0.86561 0.04226 0.81906 0.0
N1200 N 0.89772 0.17395 0.75789 0.0
N1201 N 0.86326 1.00671 0.90609 0.0
H1202 H 0.84113 0.01185 0.76932 0.0
H1203 H 0.83634 0.99294 0.83267 0.0
H1204 H 0.86776 1.00783 0.94405 0.0
H1205 H 0.85437 0.96328 0.89651 0.0
H1206 H 0.90677 0.21778 0.76431 0.0
H1207 H 0.89148 0.17246 0.7214 0.0
H1208 H 0.91858 0.22278 0.83618 0.0
H1209 H 0.91063 0.21269 0.89851 0.0
C1210 C 0.6324 0.03228 0.8255 0.0
C1211 C 0.63877 0.9828 0.78875 0.0
C1212 C 0.63994 0.89252 0.85386 0.0
C1213 C 0.63541 0.94333 0.89114 0.0
N1214 N 0.62912 0.06284 0.91408 0.0
N1215 N 0.65158 0.86844 0.76805 0.0
C1216 C 0.63224 0.01365 0.87742 0.0
C1217 C 0.64326 0.91343 0.80289 0.0
N1218 N 0.6254 0.09595 0.81054 0.0
N1219 N 0.64091 0.82432 0.86718 0.0
H1220 H 0.65459 0.88216 0.73061 0.0
H1221 H 0.65724 0.81947 0.77707 0.0
H1222 H 0.63913 0.80764 0.90444 0.0
H1223 H 0.6419 0.78389 0.84108 0.0
H1224 H 0.6182 0.13139 0.83484 0.0
H1225 H 0.62504 0.11142 0.77282 0.0
H1226 H 0.62955 0.11578 0.90727 0.0
H1227 H 0.62718 0.05104 0.95215 0.0
C1228 C 0.39498 0.03473 0.68205 0.0
C1229 C 0.38935 0.9846 0.71851 0.0
C1230 C 0.38979 0.89348 0.65329 0.0
C1231 C 0.39354 0.94454 0.61622 0.0
N1232 N 0.39841 0.06435 0.59356 0.0
N1233 N 0.37847 0.86852 0.73892 0.0
C1234 C 0.39573 0.0154 0.63013 0.0
C1235 C 0.3861 0.9144 0.70425 0.0
N1236 N 0.40053 0.1 0.69735 0.0
N1237 N 0.38991 0.82507 0.63975 0.0
H1238 H 0.37536 0.88198 0.77649 0.0
H1239 H 0.37348 0.8188 0.72963 0.0
H1240 H 0.39205 0.8083 0.60249 0.0
H1241 H 0.3895 0.7848 0.66572 0.0
H1242 H 0.40708 0.13677 0.67347 0.0
H1243 H 0.40021 0.11616 0.73508 0.0
H1244 H 0.39725 0.11728 0.60029 0.0
H1245 H 0.40083 0.05214 0.5556 0.0
C1246 C 0.13245 1.0063 0.63195 0.0
C1247 C 0.13488 0.07716 0.61892 0.0
C1248 C 0.14074 0.10716 0.708 0.0
C1249 C 0.13721 0.0369 0.72127 0.0
N1250 N 0.12629 0.92171 0.69777 0.0
N1251 N 0.13817 0.19657 0.64396 0.0
C1252 C 0.13224 0.98689 0.68374 0.0
C1253 C 0.13798 0.12816 0.65686 0.0
N1254 N 0.13038 0.95737 0.59472 0.0
N1255 N 0.14772 0.15301 0.74389 0.0
H1256 H 0.1368 0.21339 0.60664 0.0
H1257 H 0.13809 0.23685 0.67029 0.0
H1258 H 0.15036 0.13932 0.78149 0.0
H1259 H 0.15263 0.20308 0.73581 0.0
H1260 H 0.13145 0.90446 0.6011 0.0
H1261 H 0.12859 0.96953 0.55667 0.0
H1262 H 0.12006 0.88523 0.67285 0.0
H1263 H 0.1259 0.90539 0.73531 0.0
C1264 C 0.64027 0.41661 0.20506 0.0
C1265 C 0.63692 0.48692 0.21916 0.0
C1266 C 0.62985 0.51704 0.13088 0.0
C1267 C 0.63259 0.44634 0.11702 0.0
N1268 N 0.63686 0.32709 0.14051 0.0
N1269 N 0.6252 0.60192 0.19812 0.0
C1270 C 0.6366 0.39548 0.15411 0.0
C1271 C 0.63084 0.53668 0.18275 0.0
N1272 N 0.648 0.37092 0.23982 0.0
N1273 N 0.62641 0.56548 0.09425 0.0
H1274 H 0.62569 0.61816 0.23582 0.0
H1275 H 0.61848 0.6387 0.17444 0.0
H1276 H 0.62366 0.55272 0.05648 0.0
H1277 H 0.62708 0.61855 0.10065 0.0
H1278 H 0.65287 0.32089 0.23087 0.0
H1279 H 0.65118 0.3846 0.2773 0.0
H1280 H 0.63755 0.28675 0.16637 0.0
H1281 H 0.63474 0.31027 0.10326 0.0
C1282 C 0.91006 0.5204 0.1928 0.0
C1283 C 0.89207 0.53944 0.22152 0.0
C1284 C 0.87725 0.59861 0.14781 0.0
C1285 C 0.89403 0.57243 0.11772 0.0
N1286 N 0.92378 0.49449 0.10952 0.0
N1287 N 0.85753 0.59182 0.22628 0.0
C1288 C 0.90984 0.52985 0.13962 0.0
C1289 C 0.8753 0.5769 0.19893 0.0
N1290 N 0.92744 0.49345 0.21616 0.0
N1291 N 0.86366 0.6463 0.12806 0.0
H1292 H 0.85599 0.58061 0.26467 0.0
H1293 H 0.84379 0.61153 0.21026 0.0
H1294 H 0.86488 0.66407 0.09106 0.0
H1295 H 0.85243 0.67286 0.14941 0.0
H1296 H 0.94177 0.48564 0.19767 0.0
H1297 H 0.92817 0.48454 0.25498 0.0
H1298 H 0.93406 0.45695 0.12332 0.0
H1299 H 0.92364 0.49677 0.07013 0.0
C1300 C 0.13975 0.62847 0.35688 0.0
C1301 C 0.13403 0.57822 0.39307 0.0
C1302 C 0.12983 0.49114 0.3259 0.0
C1303 C 0.13782 0.53916 0.29049 0.0
N1304 N 0.1529 0.65089 0.27238 0.0
N1305 N 0.12501 0.46031 0.41378 0.0
C1306 C 0.1433 0.60742 0.30587 0.0
C1307 C 0.12947 0.5091 0.37807 0.0
N1308 N 0.14169 0.69622 0.37131 0.0
N1309 N 0.12165 0.42962 0.30939 0.0
H1310 H 0.12296 0.47214 0.45197 0.0
H1311 H 0.12443 0.40746 0.40606 0.0
H1312 H 0.12137 0.41493 0.27135 0.0
H1313 H 0.11338 0.39593 0.33265 0.0
H1314 H 0.14367 0.73662 0.34587 0.0
H1315 H 0.13965 0.71284 0.40866 0.0
H1316 H 0.15939 0.69832 0.28269 0.0
H1317 H 0.15603 0.63718 0.23487 0.0
C1318 C 0.38894 0.41653 0.30267 0.0
C1319 C 0.39242 0.48704 0.28991 0.0
C1320 C 0.40086 0.51412 0.37833 0.0
C1321 C 0.39549 0.44535 0.39177 0.0
N1322 N 0.38349 0.33145 0.36898 0.0
N1323 N 0.40042 0.60416 0.31494 0.0
C1324 C 0.38945 0.39636 0.35448 0.0
C1325 C 0.39796 0.53621 0.32763 0.0
N1326 N 0.38509 0.36904 0.26522 0.0
N1327 N 0.40948 0.55747 0.41386 0.0
H1328 H 0.39993 0.62163 0.27773 0.0
H1329 H 0.40181 0.64395 0.34136 0.0
H1330 H 0.41225 0.54261 0.45111 0.0
H1331 H 0.41565 0.60601 0.40585 0.0
H1332 H 0.38486 0.31588 0.27101 0.0
H1333 H 0.38312 0.3824 0.22733 0.0
H1334 H 0.3767 0.29515 0.34479 0.0
H1335 H 0.38436 0.3147 0.40641 0.0
C1336 C 0.3916 0.61621 0.79999 0.0
C1337 C 0.38716 0.5449 0.79164 0.0
C1338 C 0.38293 0.52858 0.88325 0.0
C1339 C 0.38965 0.59788 0.89157 0.0
N1340 N 0.40227 0.70626 0.85916 0.0
N1341 N 0.37998 0.43164 0.82545 0.0
C1342 C 0.3946 0.64125 0.85028 0.0
C1343 C 0.38294 0.50085 0.83327 0.0
N1344 N 0.39181 0.66075 0.75996 0.0
N1345 N 0.37653 0.48897 0.92319 0.0
H1346 H 0.37877 0.40934 0.78975 0.0
H1347 H 0.37998 0.39527 0.85425 0.0
H1348 H 0.37775 0.50462 0.96084 0.0
H1349 H 0.36877 0.44185 0.91917 0.0
H1350 H 0.39308 0.71417 0.76385 0.0
H1351 H 0.38853 0.64521 0.72292 0.0
H1352 H 0.40847 0.73769 0.83099 0.0
H1353 H 0.40376 0.72724 0.89546 0.0
C1354 C 0.14478 0.53609 0.8334 0.0
C1355 C 0.14189 0.48773 0.79345 0.0
C1356 C 0.13674 0.39524 0.8562 0.0
C1357 C 0.13715 0.44577 0.89528 0.0
N1358 N 0.13597 0.5663 0.91948 0.0
N1359 N 0.1353 0.3702 0.76606 0.0
C1360 C 0.13968 0.51667 0.88345 0.0
C1361 C 0.1378 0.41691 0.80466 0.0
N1362 N 0.15273 0.60037 0.82431 0.0
N1363 N 0.13614 0.32667 0.86844 0.0
H1364 H 0.13838 0.38198 0.72831 0.0
H1365 H 0.12965 0.32021 0.7711 0.0
H1366 H 0.1349 0.30951 0.90565 0.0
H1367 H 0.13815 0.28663 0.84236 0.0
H1368 H 0.15766 0.63332 0.85328 0.0
H1369 H 0.1567 0.61816 0.78856 0.0
H1370 H 0.13521 0.61885 0.91125 0.0
H1371 H 0.13108 0.55481 0.9561 0.0
C1372 C 0.89744 0.38971 0.71305 0.0
C1373 C 0.88252 0.44162 0.72822 0.0
C1374 C 0.87296 0.45899 0.63944 0.0
C1375 C 0.88782 0.40818 0.62385 0.0
N1376 N 0.91047 0.3132 0.64658 0.0
N1377 N 0.84889 0.49217 0.70577 0.0
C1378 C 0.89913 0.37033 0.66087 0.0
C1379 C 0.86802 0.46603 0.69147 0.0
N1380 N 0.90959 0.35686 0.74811 0.0
N1381 N 0.86416 0.50321 0.60519 0.0
H1382 H 0.84334 0.48891 0.74282 0.0
H1383 H 0.83737 0.50663 0.6797 0.0
H1384 H 0.86839 0.50401 0.56706 0.0
H1385 H 0.85453 0.54452 0.61601 0.0
H1386 H 0.92364 0.33166 0.73901 0.0
H1387 H 0.90493 0.3507 0.78558 0.0
H1388 H 0.91722 0.27869 0.672 0.0
H1389 H 0.91167 0.29668 0.60908 0.0
C1390 C 0.63924 0.62821 0.65267 0.0
C1391 C 0.63505 0.5771 0.61543 0.0
C1392 C 0.63178 0.48889 0.68133 0.0
C1393 C 0.63833 0.53829 0.71785 0.0
N1394 N 0.65091 0.65283 0.73831 0.0
N1395 N 0.62839 0.45784 0.59281 0.0
C1396 C 0.64267 0.60758 0.70361 0.0
C1397 C 0.63167 0.50709 0.62935 0.0
N1398 N 0.63967 0.69641 0.63941 0.0
N1399 N 0.62458 0.42576 0.69658 0.0
H1400 H 0.6264 0.46953 0.55469 0.0
H1401 H 0.62862 0.40494 0.59984 0.0
H1402 H 0.62421 0.41074 0.7344 0.0
H1403 H 0.61719 0.39076 0.6724 0.0
H1404 H 0.64061 0.73688 0.66549 0.0
H1405 H 0.63717 0.71286 0.6024 0.0
H1406 H 0.65651 0.7017 0.72904 0.0
H1407 H 0.65386 0.63945 0.77584 0.0
C1408 C 0.12743 0.27101 0.23135 0.0
C1409 C 0.14671 0.28103 0.2049 0.0
C1410 C 0.16614 0.23514 0.27891 0.0
C1411 C 0.14686 0.22878 0.30589 0.0
N1412 N 0.10957 0.25402 0.31104 0.0
N1413 N 0.18402 0.25972 0.19933 0.0
C1414 C 0.12766 0.25033 0.28292 0.0
C1415 C 0.16601 0.2597 0.22768 0.0
N1416 N 0.10865 0.2762 0.20612 0.0
N1417 N 0.18463 0.22027 0.30317 0.0
H1418 H 0.18434 0.2767 0.16202 0.0
H1419 H 0.19835 0.23919 0.21114 0.0
H1420 H 0.18508 0.20106 0.33996 0.0
H1421 H 0.19952 0.22991 0.28836 0.0
H1422 H 0.09428 0.26051 0.22124 0.0
H1423 H 0.10751 0.289 0.16805 0.0
H1424 H 0.09585 0.27828 0.29862 0.0
H1425 H 0.10863 0.23868 0.34864 0.0
C1426 C 0.4006 0.77442 0.28024 0.0
C1427 C 0.38129 0.79024 0.30511 0.0
C1428 C 0.36191 0.74718 0.23013 0.0
C1429 C 0.38132 0.73709 0.20416 0.0
N1430 N 0.41886 0.75839 0.20093 0.0
N1431 N 0.34345 0.79559 0.30339 0.0
C1432 C 0.40055 0.75571 0.2282 0.0
C1433 C 0.36187 0.77768 0.27986 0.0
N1434 N 0.41908 0.7733 0.30691 0.0
N1435 N 0.34359 0.72713 0.20722 0.0
H1436 H 0.34307 0.81649 0.33988 0.0
H1437 H 0.32873 0.79393 0.28607 0.0
H1438 H 0.34324 0.70659 0.17063 0.0
H1439 H 0.32897 0.72684 0.22509 0.0
H1440 H 0.43316 0.75408 0.29208 0.0
H1441 H 0.41999 0.78412 0.34547 0.0
H1442 H 0.43277 0.7795 0.21515 0.0
H1443 H 0.41973 0.7466 0.16251 0.0
C1444 C 0.6654 0.73923 0.2754 0.0
C1445 C 0.64685 0.74031 0.30557 0.0
C1446 C 0.62901 0.80829 0.23936 0.0
C1447 C 0.64645 0.79888 0.20647 0.0
N1448 N 0.68089 0.75037 0.19158 0.0
N1449 N 0.60982 0.76839 0.31265 0.0
C1450 C 0.66453 0.76258 0.22406 0.0
C1451 C 0.62832 0.77254 0.28629 0.0
N1452 N 0.68405 0.71903 0.2964 0.0
N1453 N 0.61313 0.85249 0.22625 0.0
H1454 H 0.60865 0.745 0.34785 0.0
H1455 H 0.59524 0.78259 0.29782 0.0
H1456 H 0.6138 0.88351 0.19431 0.0
H1457 H 0.60052 0.86478 0.24984 0.0
H1458 H 0.69853 0.72296 0.27806 0.0
H1459 H 0.6852 0.70414 0.33407 0.0
H1460 H 0.69341 0.71737 0.19992 0.0
H1461 H 0.6814 0.7711 0.15521 0.0
C1462 C 0.90001 0.26543 0.22239 0.0
C1463 C 0.88204 0.22889 0.20389 0.0
C1464 C 0.86415 0.25203 0.28552 0.0
C1465 C 0.88172 0.29167 0.30282 0.0
N1466 N 0.91473 0.34658 0.28324 0.0
N1467 N 0.84565 0.19821 0.2147 0.0
C1468 C 0.8991 0.3016 0.26977 0.0
C1469 C 0.86373 0.22505 0.23472 0.0
N1470 N 0.9182 0.26504 0.1946 0.0
N1471 N 0.84782 0.23993 0.31797 0.0
H1472 H 0.84498 0.17803 0.17807 0.0
H1473 H 0.83108 0.20015 0.2328 0.0
H1474 H 0.84671 0.26375 0.35344 0.0
H1475 H 0.83584 0.20455 0.3106 0.0
H1476 H 0.93268 0.28214 0.20824 0.0
H1477 H 0.91934 0.24238 0.15889 0.0
H1478 H 0.92725 0.35976 0.25985 0.0
H1479 H 0.91416 0.37671 0.31592 0.0
C1480 C 0.88334 0.71044 0.71476 0.0
C1481 C 0.88578 0.78196 0.70305 0.0
C1482 C 0.88316 0.80415 0.79356 0.0
C1483 C 0.88617 0.73283 0.80514 0.0
N1484 N 0.89988 0.62696 0.76837 0.0
N1485 N 0.89866 0.88907 0.73951 0.0
C1486 C 0.88906 0.68732 0.76364 0.0
C1487 C 0.88846 0.82773 0.74451 0.0
N1488 N 0.87602 0.66405 0.68002 0.0
N1489 N 0.87566 0.84989 0.82855 0.0
H1490 H 0.90519 0.90554 0.70552 0.0
H1491 H 0.90244 0.91949 0.77103 0.0
H1492 H 0.86896 0.83415 0.86265 0.0
H1493 H 0.87367 0.90197 0.81992 0.0
H1494 H 0.87429 0.6119 0.68891 0.0
H1495 H 0.86923 0.67929 0.64588 0.0
H1496 H 0.90378 0.59684 0.73674 0.0
H1497 H 0.9067 0.61113 0.80225 0.0
C1498 C 0.6272 0.27176 0.77926 0.0
C1499 C 0.64638 0.28828 0.80435 0.0
C1500 C 0.66611 0.24609 0.72957 0.0
C1501 C 0.64682 0.23614 0.70316 0.0
N1502 N 0.60925 0.25705 0.69947 0.0
N1503 N 0.6842 0.29494 0.80305 0.0
C1504 C 0.62745 0.25375 0.72709 0.0
C1505 C 0.66591 0.27649 0.77931 0.0
N1506 N 0.60865 0.27045 0.80561 0.0
N1507 N 0.68453 0.2256 0.7072 0.0
H1508 H 0.68443 0.31569 0.83959 0.0
H1509 H 0.69894 0.29397 0.78576 0.0
H1510 H 0.68502 0.20414 0.67087 0.0
H1511 H 0.69906 0.22536 0.72548 0.0
H1512 H 0.5947 0.25071 0.79059 0.0
H1513 H 0.60754 0.28206 0.84403 0.0
H1514 H 0.59517 0.27699 0.71381 0.0
H1515 H 0.60869 0.24786 0.66066 0.0
C1516 C 0.36338 0.25976 0.72407 0.0
C1517 C 0.38134 0.29769 0.70776 0.0
C1518 C 0.39912 0.26995 0.78783 0.0
C1519 C 0.38068 0.23611 0.8058 0.0
N1520 N 0.34396 0.2097 0.79438 0.0
N1521 N 0.41416 0.35261 0.72974 0.0
C1522 C 0.36242 0.23396 0.77478 0.0
C1523 C 0.3986 0.30657 0.74125 0.0
N1524 N 0.34726 0.24812 0.69083 0.0
N1525 N 0.41737 0.26701 0.81531 0.0
H1526 H 0.41369 0.38356 0.69776 0.0
H1527 H 0.42605 0.36686 0.75486 0.0
H1528 H 0.41838 0.24357 0.85056 0.0
H1529 H 0.43194 0.28271 0.80135 0.0
H1530 H 0.33491 0.21412 0.6979 0.0
H1531 H 0.34676 0.27065 0.65503 0.0
H1532 H 0.32953 0.2129 0.77576 0.0
H1533 H 0.34288 0.19075 0.83113 0.0
C1534 C 0.16394 0.76594 0.72657 0.0
C1535 C 0.14657 0.72541 0.70962 0.0
C1536 C 0.12883 0.74601 0.79116 0.0
C1537 C 0.14665 0.78345 0.80924 0.0
N1538 N 0.18281 0.81695 0.79775 0.0
N1539 N 0.11471 0.66409 0.73051 0.0
C1540 C 0.16469 0.79012 0.77789 0.0
C1541 C 0.12968 0.71176 0.74332 0.0
N1542 N 0.17972 0.78156 0.69336 0.0
N1543 N 0.11086 0.74338 0.81969 0.0
H1544 H 0.11508 0.63608 0.69686 0.0
H1545 H 0.10334 0.64599 0.75556 0.0
H1546 H 0.10975 0.76406 0.85603 0.0
H1547 H 0.09649 0.72534 0.80595 0.0
H1548 H 0.19146 0.81769 0.70104 0.0
H1549 H 0.18052 0.76017 0.65704 0.0
H1550 H 0.19718 0.81719 0.77869 0.0
H1551 H 0.1838 0.83421 0.83511 0.0
loop_
_geom_bond_atom_site_label_1
_geom_bond_atom_site_label_2
_geom_bond_distance
_geom_bond_site_symmetry_2
_ccdc_geom_bond_type
Zn0 N4 2.020 . S
Zn0 O8 2.019 . S
Zn0 N10 2.119 . S
Zn0 O18 1.975 1_545 S
C1 N2 1.334 . S
C1 N5 1.336 . S
N2 C1 1.334 . S
N2 C3 1.334 . S
C3 N2 1.334 . S
C3 N4 1.336 . S
N4 Zn0 2.020 . S
N4 C3 1.336 . S
N4 N5 1.354 . S
N5 C1 1.336 . S
N5 N4 1.354 . S
N5 Zn9 2.020 . S
C6 O7 1.244 1_565 S
C6 O30 1.257 . S
O7 C6 1.244 1_545 S
O8 Zn0 2.019 . S
O8 C28 1.257 . S
Zn9 N5 2.020 . S
Zn9 O16 1.975 1_545 S
Zn9 N25 2.119 . S
Zn9 O30 2.019 1_545 S
N10 Zn0 2.119 . S
N10 C12 1.334 . S
N10 C13 1.328 . S
C11 C12 1.391 1_565 S
C11 N14 1.329 1_565 S
C11 H32 0.930 . S
C12 N10 1.334 . S
C12 C11 1.391 1_545 S
C12 H19 0.930 . S
C13 N10 1.328 . S
C13 C15 1.392 . S
C13 H20 0.930 . S
N14 C11 1.329 1_545 S
N14 C15 1.331 . S
C15 C13 1.392 . S
C15 N14 1.331 . S
O16 Zn9 1.975 1_565 S
O16 C17 1.252 . S
C17 O16 1.252 . S
C17 O18 1.252 . S
O18 Zn0 1.975 1_565 S
O18 C17 1.252 . S
H19 C12 0.930 . S
H20 C13 0.930 . S
C21 C22 1.392 . S
C21 N25 1.328 . S
C21 H27 0.930 . S
C22 C21 1.392 . S
C22 N26 1.331 . S
C23 C24 1.391 . S
C23 N26 1.329 . S
C23 H33 0.930 . S
C24 C23 1.391 . S
C24 N25 1.334 . S
C24 H31 0.930 . S
N25 Zn9 2.119 . S
N25 C21 1.328 . S
N25 C24 1.334 . S
N26 C22 1.331 . S
N26 C23 1.329 . S
H27 C21 0.930 . S
C28 O8 1.257 . S
C28 O29 1.244 . S
O29 C28 1.244 . S
O30 C6 1.257 . S
O30 Zn9 2.019 1_565 S
H31 C24 0.930 . S
H32 C11 0.930 . S
H33 C23 0.930 . S
Zn34 N38 2.020 . S
Zn34 O42 2.019 . S
Zn34 N44 2.119 . S
Zn34 O52 1.975 1_565 S
C35 N36 1.334 . S
C35 N39 1.336 . S
N36 C35 1.334 . S
N36 C37 1.334 . S
C37 N36 1.334 . S
C37 N38 1.336 . S
N38 Zn34 2.020 . S
N38 C37 1.336 . S
N38 N39 1.354 . S
N39 C35 1.336 . S
N39 N38 1.354 . S
N39 Zn43 2.020 . S
C40 O41 1.244 1_545 S
C40 O64 1.257 . S
O41 C40 1.244 1_565 S
O42 Zn34 2.019 . S
O42 C62 1.257 . S
Zn43 N39 2.020 . S
Zn43 O50 1.975 1_565 S
Zn43 N59 2.119 . S
Zn43 O64 2.019 1_565 S
N44 Zn34 2.119 . S
N44 C46 1.334 . S
N44 C47 1.328 . S
C45 C46 1.391 1_545 S
C45 N48 1.329 1_545 S
C45 H66 0.930 . S
C46 N44 1.334 . S
C46 C45 1.391 1_565 S
C46 H53 0.930 . S
C47 N44 1.328 . S
C47 C49 1.392 . S
C47 H54 0.930 . S
N48 C45 1.329 1_565 S
N48 C49 1.331 . S
C49 C47 1.392 . S
C49 N48 1.331 . S
O50 Zn43 1.975 1_545 S
O50 C51 1.252 . S
C51 O50 1.252 . S
C51 O52 1.252 . S
O52 Zn34 1.975 1_545 S
O52 C51 1.252 . S
H53 C46 0.930 . S
H54 C47 0.930 . S
C55 C56 1.392 . S
C55 N59 1.328 . S
C55 H61 0.930 . S
C56 C55 1.392 . S
C56 N60 1.331 . S
C57 C58 1.391 . S
C57 N60 1.329 . S
C57 H67 0.930 . S
C58 C57 1.391 . S
C58 N59 1.334 . S
C58 H65 0.930 . S
N59 Zn43 2.119 . S
N59 C55 1.328 . S
N59 C58 1.334 . S
N60 C56 1.331 . S
N60 C57 1.329 . S
H61 C55 0.930 . S
C62 O42 1.257 . S
C62 O63 1.244 . S
O63 C62 1.244 . S
O64 C40 1.257 . S
O64 Zn43 2.019 1_545 S
H65 C58 0.930 . S
H66 C45 0.930 . S
H67 C57 0.930 . S
Zn68 N72 2.020 . S
Zn68 O76 2.019 1_554 S
Zn68 N78 2.119 . S
Zn68 O86 1.975 1_565 S
C69 N70 1.334 . S
C69 N73 1.336 . S
N70 C69 1.334 . S
N70 C71 1.334 . S
C71 N70 1.334 . S
C71 N72 1.336 . S
N72 Zn68 2.020 . S
N72 C71 1.336 . S
N72 N73 1.354 . S
N73 C69 1.336 . S
N73 N72 1.354 . S
N73 Zn77 2.020 . S
C74 O75 1.244 1_545 S
C74 O98 1.257 . S
O75 C74 1.244 1_565 S
O76 Zn68 2.019 1_556 S
O76 C96 1.257 . S
Zn77 N73 2.020 . S
Zn77 O84 1.975 1_565 S
Zn77 N93 2.119 . S
Zn77 O98 2.019 1_565 S
N78 Zn68 2.119 . S
N78 C80 1.334 . S
N78 C81 1.328 . S
C79 C80 1.391 1_545 S
C79 N82 1.329 1_545 S
C79 H100 0.930 . S
C80 N78 1.334 . S
C80 C79 1.391 1_565 S
C80 H87 0.930 . S
C81 N78 1.328 . S
C81 C83 1.392 . S
C81 H88 0.930 1_554 S
N82 C79 1.329 1_565 S
N82 C83 1.331 . S
C83 C81 1.392 . S
C83 N82 1.331 . S
O84 Zn77 1.975 1_545 S
O84 C85 1.252 . S
C85 O84 1.252 . S
C85 O86 1.252 . S
O86 Zn68 1.975 1_545 S
O86 C85 1.252 . S
H87 C80 0.930 . S
H88 C81 0.930 1_556 S
C89 C90 1.392 . S
C89 N93 1.328 . S
C89 H95 0.930 . S
C90 C89 1.392 . S
C90 N94 1.331 . S
C91 C92 1.391 . S
C91 N94 1.329 . S
C91 H101 0.930 . S
C92 C91 1.391 . S
C92 N93 1.334 . S
C92 H99 0.930 . S
N93 Zn77 2.119 . S
N93 C89 1.328 . S
N93 C92 1.334 . S
N94 C90 1.331 . S
N94 C91 1.329 . S
H95 C89 0.930 . S
C96 O76 1.257 . S
C96 O97 1.244 . S
O97 C96 1.244 . S
O98 C74 1.257 . S
O98 Zn77 2.019 1_545 S
H99 C92 0.930 . S
H100 C79 0.930 . S
H101 C91 0.930 . S
Zn102 N106 2.020 . S
Zn102 O110 2.019 1_554 S
Zn102 N112 2.119 . S
Zn102 O120 1.975 1_545 S
C103 N104 1.334 . S
C103 N107 1.336 . S
N104 C103 1.334 . S
N104 C105 1.334 . S
C105 N104 1.334 . S
C105 N106 1.336 . S
N106 Zn102 2.020 . S
N106 C105 1.336 . S
N106 N107 1.354 . S
N107 C103 1.336 . S
N107 N106 1.354 . S
N107 Zn111 2.020 . S
C108 O109 1.244 1_565 S
C108 O132 1.257 . S
O109 C108 1.244 1_545 S
O110 Zn102 2.019 1_556 S
O110 C130 1.257 . S
Zn111 N107 2.020 . S
Zn111 O118 1.975 1_545 S
Zn111 N127 2.119 . S
Zn111 O132 2.019 1_545 S
N112 Zn102 2.119 . S
N112 C114 1.334 . S
N112 C115 1.328 . S
C113 C114 1.391 1_565 S
C113 N116 1.329 1_565 S
C113 H134 0.930 . S
C114 N112 1.334 . S
C114 C113 1.391 1_545 S
C114 H121 0.930 . S
C115 N112 1.328 . S
C115 C117 1.392 . S
C115 H122 0.930 1_554 S
N116 C113 1.329 1_545 S
N116 C117 1.331 . S
C117 C115 1.392 . S
C117 N116 1.331 . S
O118 Zn111 1.975 1_565 S
O118 C119 1.252 . S
C119 O118 1.252 . S
C119 O120 1.252 . S
O120 Zn102 1.975 1_565 S
O120 C119 1.252 . S
H121 C114 0.930 . S
H122 C115 0.930 1_556 S
C123 C124 1.392 . S
C123 N127 1.328 . S
C123 H129 0.930 . S
C124 C123 1.392 . S
C124 N128 1.331 . S
C125 C126 1.391 . S
C125 N128 1.329 . S
C125 H135 0.930 . S
C126 C125 1.391 . S
C126 N127 1.334 . S
C126 H133 0.930 . S
N127 Zn111 2.119 . S
N127 C123 1.328 . S
N127 C126 1.334 . S
N128 C124 1.331 . S
N128 C125 1.329 . S
H129 C123 0.930 . S
C130 O110 1.257 . S
C130 O131 1.244 . S
O131 C130 1.244 . S
O132 C108 1.257 . S
O132 Zn111 2.019 1_565 S
H133 C126 0.930 . S
H134 C113 0.930 . S
H135 C125 0.930 . S
Zn136 N140 2.020 . S
Zn136 O144 2.019 . S
Zn136 N146 2.119 . S
Zn136 O154 1.975 1_565 S
C137 N138 1.334 . S
C137 N141 1.336 . S
N138 C137 1.334 . S
N138 C139 1.334 . S
C139 N138 1.334 . S
C139 N140 1.336 . S
N140 Zn136 2.020 . S
N140 C139 1.336 . S
N140 N141 1.354 . S
N141 C137 1.336 . S
N141 N140 1.354 . S
N141 Zn145 2.020 . S
C142 O143 1.244 1_545 S
C142 O166 1.257 . S
O143 C142 1.244 1_565 S
O144 Zn136 2.019 . S
O144 C164 1.257 . S
Zn145 N141 2.020 . S
Zn145 O152 1.975 1_565 S
Zn145 N161 2.119 . S
Zn145 O166 2.019 1_565 S
N146 Zn136 2.119 . S
N146 C148 1.334 . S
N146 C149 1.328 . S
C147 C148 1.391 1_545 S
C147 N150 1.329 1_545 S
C147 H168 0.930 . S
C148 N146 1.334 . S
C148 C147 1.391 1_565 S
C148 H155 0.930 . S
C149 N146 1.328 . S
C149 C151 1.392 . S
C149 H156 0.930 . S
N150 C147 1.329 1_565 S
N150 C151 1.331 . S
C151 C149 1.392 . S
C151 N150 1.331 . S
O152 Zn145 1.975 1_545 S
O152 C153 1.252 . S
C153 O152 1.252 . S
C153 O154 1.252 . S
O154 Zn136 1.975 1_545 S
O154 C153 1.252 . S
H155 C148 0.930 . S
H156 C149 0.930 . S
C157 C158 1.392 . S
C157 N161 1.328 . S
C157 H163 0.930 . S
C158 C157 1.392 . S
C158 N162 1.331 . S
C159 C160 1.391 . S
C159 N162 1.329 . S
C159 H169 0.930 . S
C160 C159 1.391 . S
C160 N161 1.334 . S
C160 H167 0.930 . S
N161 Zn145 2.119 . S
N161 C157 1.328 . S
N161 C160 1.334 . S
N162 C158 1.331 . S
N162 C159 1.329 . S
H163 C157 0.930 . S
C164 O144 1.257 . S
C164 O165 1.244 . S
O165 C164 1.244 . S
O166 C142 1.257 . S
O166 Zn145 2.019 1_545 S
H167 C160 0.930 . S
H168 C147 0.930 . S
H169 C159 0.930 . S
Zn170 N174 2.020 . S
Zn170 O178 2.019 . S
Zn170 N180 2.119 . S
Zn170 O188 1.975 1_545 S
C171 N172 1.334 . S
C171 N175 1.336 . S
N172 C171 1.334 . S
N172 C173 1.334 . S
C173 N172 1.334 . S
C173 N174 1.336 . S
N174 Zn170 2.020 . S
N174 C173 1.336 . S
N174 N175 1.354 . S
N175 C171 1.336 . S
N175 N174 1.354 . S
N175 Zn179 2.020 . S
C176 O177 1.244 1_565 S
C176 O200 1.257 . S
O177 C176 1.244 1_545 S
O178 Zn170 2.019 . S
O178 C198 1.257 . S
Zn179 N175 2.020 . S
Zn179 O186 1.975 1_545 S
Zn179 N195 2.119 . S
Zn179 O200 2.019 1_545 S
N180 Zn170 2.119 . S
N180 C182 1.334 . S
N180 C183 1.328 . S
C181 C182 1.391 1_565 S
C181 N184 1.329 1_565 S
C181 H202 0.930 . S
C182 N180 1.334 . S
C182 C181 1.391 1_545 S
C182 H189 0.930 . S
C183 N180 1.328 . S
C183 C185 1.392 . S
C183 H190 0.930 . S
N184 C181 1.329 1_545 S
N184 C185 1.331 . S
C185 C183 1.392 . S
C185 N184 1.331 . S
O186 Zn179 1.975 1_565 S
O186 C187 1.252 . S
C187 O186 1.252 . S
C187 O188 1.252 . S
O188 Zn170 1.975 1_565 S
O188 C187 1.252 . S
H189 C182 0.930 . S
H190 C183 0.930 . S
C191 C192 1.392 . S
C191 N195 1.328 . S
C191 H197 0.930 . S
C192 C191 1.392 . S
C192 N196 1.331 . S
C193 C194 1.391 . S
C193 N196 1.329 . S
C193 H203 0.930 . S
C194 C193 1.391 . S
C194 N195 1.334 . S
C194 H201 0.930 . S
N195 Zn179 2.119 . S
N195 C191 1.328 . S
N195 C194 1.334 . S
N196 C192 1.331 . S
N196 C193 1.329 . S
H197 C191 0.930 . S
C198 O178 1.257 . S
C198 O199 1.244 . S
O199 C198 1.244 . S
O200 C176 1.257 . S
O200 Zn179 2.019 1_565 S
H201 C194 0.930 . S
H202 C181 0.930 . S
H203 C193 0.930 . S
Zn204 N208 2.020 . S
Zn204 O212 2.019 1_545 S
Zn204 N214 2.119 . S
Zn204 O222 1.975 1_545 S
C205 N206 1.334 . S
C205 N209 1.336 . S
N206 C205 1.334 . S
N206 C207 1.334 . S
C207 N206 1.334 . S
C207 N208 1.336 . S
N208 Zn204 2.020 . S
N208 C207 1.336 . S
N208 N209 1.354 . S
N209 C205 1.336 . S
N209 N208 1.354 . S
N209 Zn213 2.020 . S
C210 O211 1.244 . S
C210 O234 1.257 . S
O211 C210 1.244 . S
O212 Zn204 2.019 1_565 S
O212 C232 1.257 . S
Zn213 N209 2.020 . S
Zn213 O220 1.975 1_545 S
Zn213 N229 2.119 . S
Zn213 O234 2.019 1_556 S
N214 Zn204 2.119 . S
N214 C216 1.334 . S
N214 C217 1.328 . S
C215 C216 1.391 . S
C215 N218 1.329 . S
C215 H236 0.930 . S
C216 N214 1.334 . S
C216 C215 1.391 . S
C216 H223 0.930 . S
C217 N214 1.328 . S
C217 C219 1.392 . S
C217 H224 0.930 . S
N218 C215 1.329 . S
N218 C219 1.331 . S
C219 C217 1.392 . S
C219 N218 1.331 . S
O220 Zn213 1.975 1_565 S
O220 C221 1.252 . S
C221 O220 1.252 . S
C221 O222 1.252 . S
O222 Zn204 1.975 1_565 S
O222 C221 1.252 . S
H223 C216 0.930 . S
H224 C217 0.930 . S
C225 C226 1.392 . S
C225 N229 1.328 . S
C225 H231 0.930 1_556 S
C226 C225 1.392 . S
C226 N230 1.331 . S
C227 C228 1.391 1_565 S
C227 N230 1.329 1_565 S
C227 H237 0.930 . S
C228 C227 1.391 1_545 S
C228 N229 1.334 . S
C228 H235 0.930 . S
N229 Zn213 2.119 . S
N229 C225 1.328 . S
N229 C228 1.334 . S
N230 C226 1.331 . S
N230 C227 1.329 1_545 S
H231 C225 0.930 1_554 S
C232 O212 1.257 . S
C232 O233 1.244 1_565 S
O233 C232 1.244 1_545 S
O234 C210 1.257 . S
O234 Zn213 2.019 1_554 S
H235 C228 0.930 . S
H236 C215 0.930 . S
H237 C227 0.930 . S
Zn238 N242 2.020 . S
Zn238 O246 2.019 1_556 S
Zn238 N248 2.119 . S
Zn238 O256 1.975 1_565 S
C239 N240 1.334 . S
C239 N243 1.336 . S
N240 C239 1.334 . S
N240 C241 1.334 . S
C241 N240 1.334 . S
C241 N242 1.336 . S
N242 Zn238 2.020 . S
N242 C241 1.336 . S
N242 N243 1.354 . S
N243 C239 1.336 . S
N243 N242 1.354 . S
N243 Zn247 2.020 . S
C244 O245 1.244 1_545 S
C244 O268 1.257 . S
O245 C244 1.244 1_565 S
O246 Zn238 2.019 1_554 S
O246 C266 1.257 . S
Zn247 N243 2.020 . S
Zn247 O254 1.975 1_565 S
Zn247 N263 2.119 . S
Zn247 O268 2.019 1_565 S
N248 Zn238 2.119 . S
N248 C250 1.334 . S
N248 C251 1.328 . S
C249 C250 1.391 1_545 S
C249 N252 1.329 1_545 S
C249 H270 0.930 . S
C250 N248 1.334 . S
C250 C249 1.391 1_565 S
C250 H257 0.930 . S
C251 N248 1.328 . S
C251 C253 1.392 . S
C251 H258 0.930 1_556 S
N252 C249 1.329 1_565 S
N252 C253 1.331 . S
C253 C251 1.392 . S
C253 N252 1.331 . S
O254 Zn247 1.975 1_545 S
O254 C255 1.252 . S
C255 O254 1.252 . S
C255 O256 1.252 . S
O256 Zn238 1.975 1_545 S
O256 C255 1.252 . S
H257 C250 0.930 . S
H258 C251 0.930 1_554 S
C259 C260 1.392 . S
C259 N263 1.328 . S
C259 H265 0.930 . S
C260 C259 1.392 . S
C260 N264 1.331 . S
C261 C262 1.391 . S
C261 N264 1.329 . S
C261 H271 0.930 . S
C262 C261 1.391 . S
C262 N263 1.334 . S
C262 H269 0.930 . S
N263 Zn247 2.119 . S
N263 C259 1.328 . S
N263 C262 1.334 . S
N264 C260 1.331 . S
N264 C261 1.329 . S
H265 C259 0.930 . S
C266 O246 1.257 . S
C266 O267 1.244 . S
O267 C266 1.244 . S
O268 C244 1.257 . S
O268 Zn247 2.019 1_545 S
H269 C262 0.930 . S
H270 C249 0.930 . S
H271 C261 0.930 . S
Zn272 N276 2.020 . S
Zn272 O280 2.019 . S
Zn272 N282 2.119 . S
Zn272 O290 1.975 . S
C273 N274 1.334 . S
C273 N277 1.336 . S
N274 C273 1.334 . S
N274 C275 1.334 . S
C275 N274 1.334 . S
C275 N276 1.336 . S
N276 Zn272 2.020 . S
N276 C275 1.336 . S
N276 N277 1.354 . S
N277 C273 1.336 . S
N277 N276 1.354 . S
N277 Zn281 2.020 . S
C278 O279 1.244 . S
C278 O302 1.257 . S
O279 C278 1.244 . S
O280 Zn272 2.019 . S
O280 C300 1.257 . S
Zn281 N277 2.020 . S
Zn281 O288 1.975 . S
Zn281 N297 2.119 . S
Zn281 O302 2.019 . S
N282 Zn272 2.119 . S
N282 C284 1.334 . S
N282 C285 1.328 . S
C283 C284 1.391 . S
C283 N286 1.329 . S
C283 H304 0.930 . S
C284 N282 1.334 . S
C284 C283 1.391 . S
C284 H291 0.930 . S
C285 N282 1.328 . S
C285 C287 1.392 . S
C285 H292 0.930 . S
N286 C283 1.329 . S
N286 C287 1.331 . S
C287 C285 1.392 . S
C287 N286 1.331 . S
O288 Zn281 1.975 . S
O288 C289 1.252 . S
C289 O288 1.252 . S
C289 O290 1.252 . S
O290 Zn272 1.975 . S
O290 C289 1.252 . S
H291 C284 0.930 . S
H292 C285 0.930 . S
C293 C294 1.392 . S
C293 N297 1.328 . S
C293 H299 0.930 . S
C294 C293 1.392 . S
C294 N298 1.331 . S
C295 C296 1.391 . S
C295 N298 1.329 . S
C295 H305 0.930 . S
C296 C295 1.391 . S
C296 N297 1.334 . S
C296 H303 0.930 . S
N297 Zn281 2.119 . S
N297 C293 1.328 . S
N297 C296 1.334 . S
N298 C294 1.331 . S
N298 C295 1.329 . S
H299 C293 0.930 . S
C300 O280 1.257 . S
C300 O301 1.244 . S
O301 C300 1.244 . S
O302 C278 1.257 . S
O302 Zn281 2.019 . S
H303 C296 0.930 . S
H304 C283 0.930 . S
H305 C295 0.930 . S
Zn306 N310 2.020 . S
Zn306 O314 2.019 . S
Zn306 N316 2.119 . S
Zn306 O324 1.975 . S
C307 N308 1.334 . S
C307 N311 1.336 . S
N308 C307 1.334 . S
N308 C309 1.334 . S
C309 N308 1.334 . S
C309 N310 1.336 . S
N310 Zn306 2.020 . S
N310 C309 1.336 . S
N310 N311 1.354 . S
N311 C307 1.336 . S
N311 N310 1.354 . S
N311 Zn315 2.020 . S
C312 O313 1.244 . S
C312 O336 1.257 . S
O313 C312 1.244 . S
O314 Zn306 2.019 . S
O314 C334 1.257 . S
Zn315 N311 2.020 . S
Zn315 O322 1.975 . S
Zn315 N331 2.119 . S
Zn315 O336 2.019 . S
N316 Zn306 2.119 . S
N316 C318 1.334 . S
N316 C319 1.328 . S
C317 C318 1.391 . S
C317 N320 1.329 . S
C317 H338 0.930 . S
C318 N316 1.334 . S
C318 C317 1.391 . S
C318 H325 0.930 . S
C319 N316 1.328 . S
C319 C321 1.392 . S
C319 H326 0.930 . S
N320 C317 1.329 . S
N320 C321 1.331 . S
C321 C319 1.392 . S
C321 N320 1.331 . S
O322 Zn315 1.975 . S
O322 C323 1.252 . S
C323 O322 1.252 . S
C323 O324 1.252 . S
O324 Zn306 1.975 . S
O324 C323 1.252 . S
H325 C318 0.930 . S
H326 C319 0.930 . S
C327 C328 1.392 . S
C327 N331 1.328 . S
C327 H333 0.930 . S
C328 C327 1.392 . S
C328 N332 1.331 . S
C329 C330 1.391 . S
C329 N332 1.329 . S
C329 H339 0.930 . S
C330 C329 1.391 . S
C330 N331 1.334 . S
C330 H337 0.930 . S
N331 Zn315 2.119 . S
N331 C327 1.328 . S
N331 C330 1.334 . S
N332 C328 1.331 . S
N332 C329 1.329 . S
H333 C327 0.930 . S
C334 O314 1.257 . S
C334 O335 1.244 . S
O335 C334 1.244 . S
O336 C312 1.257 . S
O336 Zn315 2.019 . S
H337 C330 0.930 . S
H338 C317 0.930 . S
H339 C329 0.930 . S
Zn340 N344 2.020 . S
Zn340 O348 2.019 . S
Zn340 N350 2.119 . S
Zn340 O358 1.975 . S
C341 N342 1.334 . S
C341 N345 1.336 . S
N342 C341 1.334 . S
N342 C343 1.334 . S
C343 N342 1.334 . S
C343 N344 1.336 . S
N344 Zn340 2.020 . S
N344 C343 1.336 . S
N344 N345 1.354 . S
N345 C341 1.336 . S
N345 N344 1.354 . S
N345 Zn349 2.020 . S
C346 O347 1.244 . S
C346 O370 1.257 . S
O347 C346 1.244 . S
O348 Zn340 2.019 . S
O348 C368 1.257 . S
Zn349 N345 2.020 . S
Zn349 O356 1.975 . S
Zn349 N365 2.119 . S
Zn349 O370 2.019 1_554 S
N350 Zn340 2.119 . S
N350 C352 1.334 . S
N350 C353 1.328 . S
C351 C352 1.391 . S
C351 N354 1.329 . S
C351 H372 0.930 . S
C352 N350 1.334 . S
C352 C351 1.391 . S
C352 H359 0.930 . S
C353 N350 1.328 . S
C353 C355 1.392 . S
C353 H360 0.930 . S
N354 C351 1.329 . S
N354 C355 1.331 . S
C355 C353 1.392 . S
C355 N354 1.331 . S
O356 Zn349 1.975 . S
O356 C357 1.252 . S
C357 O356 1.252 . S
C357 O358 1.252 . S
O358 Zn340 1.975 . S
O358 C357 1.252 . S
H359 C352 0.930 . S
H360 C353 0.930 . S
C361 C362 1.392 . S
C361 N365 1.328 . S
C361 H367 0.930 1_554 S
C362 C361 1.392 . S
C362 N366 1.331 . S
C363 C364 1.391 . S
C363 N366 1.329 . S
C363 H373 0.930 . S
C364 C363 1.391 . S
C364 N365 1.334 . S
C364 H371 0.930 . S
N365 Zn349 2.119 . S
N365 C361 1.328 . S
N365 C364 1.334 . S
N366 C362 1.331 . S
N366 C363 1.329 . S
H367 C361 0.930 1_556 S
C368 O348 1.257 . S
C368 O369 1.244 . S
O369 C368 1.244 . S
O370 C346 1.257 . S
O370 Zn349 2.019 1_556 S
H371 C364 0.930 . S
H372 C351 0.930 . S
H373 C363 0.930 . S
Zn374 N378 2.020 . S
Zn374 O382 2.019 . S
Zn374 N384 2.119 . S
Zn374 O392 1.975 . S
C375 N376 1.334 . S
C375 N379 1.336 . S
N376 C375 1.334 . S
N376 C377 1.334 . S
C377 N376 1.334 . S
C377 N378 1.336 . S
N378 Zn374 2.020 . S
N378 C377 1.336 . S
N378 N379 1.354 . S
N379 C375 1.336 . S
N379 N378 1.354 . S
N379 Zn383 2.020 . S
C380 O381 1.244 . S
C380 O404 1.257 . S
O381 C380 1.244 . S
O382 Zn374 2.019 . S
O382 C402 1.257 . S
Zn383 N379 2.020 . S
Zn383 O390 1.975 . S
Zn383 N399 2.119 . S
Zn383 O404 2.019 1_554 S
N384 Zn374 2.119 . S
N384 C386 1.334 . S
N384 C387 1.328 . S
C385 C386 1.391 . S
C385 N388 1.329 . S
C385 H406 0.930 . S
C386 N384 1.334 . S
C386 C385 1.391 . S
C386 H393 0.930 . S
C387 N384 1.328 . S
C387 C389 1.392 . S
C387 H394 0.930 . S
N388 C385 1.329 . S
N388 C389 1.331 . S
C389 C387 1.392 . S
C389 N388 1.331 . S
O390 Zn383 1.975 . S
O390 C391 1.252 . S
C391 O390 1.252 . S
C391 O392 1.252 . S
O392 Zn374 1.975 . S
O392 C391 1.252 . S
H393 C386 0.930 . S
H394 C387 0.930 . S
C395 C396 1.392 . S
C395 N399 1.328 . S
C395 H401 0.930 1_554 S
C396 C395 1.392 . S
C396 N400 1.331 . S
C397 C398 1.391 . S
C397 N400 1.329 . S
C397 H407 0.930 . S
C398 C397 1.391 . S
C398 N399 1.334 . S
C398 H405 0.930 . S
N399 Zn383 2.119 . S
N399 C395 1.328 . S
N399 C398 1.334 . S
N400 C396 1.331 . S
N400 C397 1.329 . S
H401 C395 0.930 1_556 S
C402 O382 1.257 . S
C402 O403 1.244 . S
O403 C402 1.244 . S
O404 C380 1.257 . S
O404 Zn383 2.019 1_556 S
H405 C398 0.930 . S
H406 C385 0.930 . S
H407 C397 0.930 . S
Zn408 N412 2.020 . S
Zn408 O416 2.019 . S
Zn408 N418 2.119 . S
Zn408 O426 1.975 . S
C409 N410 1.334 . S
C409 N413 1.336 . S
N410 C409 1.334 . S
N410 C411 1.334 . S
C411 N410 1.334 . S
C411 N412 1.336 . S
N412 Zn408 2.020 . S
N412 C411 1.336 . S
N412 N413 1.354 . S
N413 C409 1.336 . S
N413 N412 1.354 . S
N413 Zn417 2.020 . S
C414 O415 1.244 . S
C414 O438 1.257 . S
O415 C414 1.244 . S
O416 Zn408 2.019 . S
O416 C436 1.257 . S
Zn417 N413 2.020 . S
Zn417 O424 1.975 . S
Zn417 N433 2.119 . S
Zn417 O438 2.019 . S
N418 Zn408 2.119 . S
N418 C420 1.334 . S
N418 C421 1.328 . S
C419 C420 1.391 . S
C419 N422 1.329 . S
C419 H440 0.930 . S
C420 N418 1.334 . S
C420 C419 1.391 . S
C420 H427 0.930 . S
C421 N418 1.328 . S
C421 C423 1.392 . S
C421 H428 0.930 . S
N422 C419 1.329 . S
N422 C423 1.331 . S
C423 C421 1.392 . S
C423 N422 1.331 . S
O424 Zn417 1.975 . S
O424 C425 1.252 . S
C425 O424 1.252 . S
C425 O426 1.252 . S
O426 Zn408 1.975 . S
O426 C425 1.252 . S
H427 C420 0.930 . S
H428 C421 0.930 . S
C429 C430 1.392 . S
C429 N433 1.328 . S
C429 H435 0.930 . S
C430 C429 1.392 . S
C430 N434 1.331 . S
C431 C432 1.391 . S
C431 N434 1.329 . S
C431 H441 0.930 . S
C432 C431 1.391 . S
C432 N433 1.334 . S
C432 H439 0.930 . S
N433 Zn417 2.119 . S
N433 C429 1.328 . S
N433 C432 1.334 . S
N434 C430 1.331 . S
N434 C431 1.329 . S
H435 C429 0.930 . S
C436 O416 1.257 . S
C436 O437 1.244 . S
O437 C436 1.244 . S
O438 C414 1.257 . S
O438 Zn417 2.019 . S
H439 C432 0.930 . S
H440 C419 0.930 . S
H441 C431 0.930 . S
Zn442 N446 2.020 . S
Zn442 O450 2.019 . S
Zn442 N452 2.119 . S
Zn442 O460 1.975 . S
C443 N444 1.334 . S
C443 N447 1.336 . S
N444 C443 1.334 . S
N444 C445 1.334 . S
C445 N444 1.334 . S
C445 N446 1.336 . S
N446 Zn442 2.020 . S
N446 C445 1.336 . S
N446 N447 1.354 . S
N447 C443 1.336 . S
N447 N446 1.354 . S
N447 Zn451 2.020 . S
C448 O449 1.244 . S
C448 O472 1.257 . S
O449 C448 1.244 . S
O450 Zn442 2.019 . S
O450 C470 1.257 . S
Zn451 N447 2.020 . S
Zn451 O458 1.975 . S
Zn451 N467 2.119 . S
Zn451 O472 2.019 . S
N452 Zn442 2.119 . S
N452 C454 1.334 . S
N452 C455 1.328 . S
C453 C454 1.391 . S
C453 N456 1.329 . S
C453 H474 0.930 . S
C454 N452 1.334 . S
C454 C453 1.391 . S
C454 H461 0.930 . S
C455 N452 1.328 . S
C455 C457 1.392 . S
C455 H462 0.930 . S
N456 C453 1.329 . S
N456 C457 1.331 . S
C457 C455 1.392 . S
C457 N456 1.331 . S
O458 Zn451 1.975 . S
O458 C459 1.252 . S
C459 O458 1.252 . S
C459 O460 1.252 . S
O460 Zn442 1.975 . S
O460 C459 1.252 . S
H461 C454 0.930 . S
H462 C455 0.930 . S
C463 C464 1.392 . S
C463 N467 1.328 . S
C463 H469 0.930 . S
C464 C463 1.392 . S
C464 N468 1.331 . S
C465 C466 1.391 . S
C465 N468 1.329 . S
C465 H475 0.930 . S
C466 C465 1.391 . S
C466 N467 1.334 . S
C466 H473 0.930 . S
N467 Zn451 2.119 . S
N467 C463 1.328 . S
N467 C466 1.334 . S
N468 C464 1.331 . S
N468 C465 1.329 . S
H469 C463 0.930 . S
C470 O450 1.257 . S
C470 O471 1.244 . S
O471 C470 1.244 . S
O472 C448 1.257 . S
O472 Zn451 2.019 . S
H473 C466 0.930 . S
H474 C453 0.930 . S
H475 C465 0.930 . S
Zn476 N480 2.020 . S
Zn476 O484 2.019 1_556 S
Zn476 N486 2.119 . S
Zn476 O494 1.975 . S
C477 N478 1.334 . S
C477 N481 1.336 . S
N478 C477 1.334 . S
N478 C479 1.334 . S
C479 N478 1.334 . S
C479 N480 1.336 . S
N480 Zn476 2.020 . S
N480 C479 1.336 . S
N480 N481 1.354 . S
N481 C477 1.336 . S
N481 N480 1.354 . S
N481 Zn485 2.020 . S
C482 O483 1.244 . S
C482 O506 1.257 . S
O483 C482 1.244 . S
O484 Zn476 2.019 1_554 S
O484 C504 1.257 . S
Zn485 N481 2.020 . S
Zn485 O492 1.975 . S
Zn485 N501 2.119 . S
Zn485 O506 2.019 . S
N486 Zn476 2.119 . S
N486 C488 1.334 . S
N486 C489 1.328 . S
C487 C488 1.391 . S
C487 N490 1.329 . S
C487 H508 0.930 . S
C488 N486 1.334 . S
C488 C487 1.391 . S
C488 H495 0.930 . S
C489 N486 1.328 . S
C489 C491 1.392 . S
C489 H496 0.930 1_556 S
N490 C487 1.329 . S
N490 C491 1.331 . S
C491 C489 1.392 . S
C491 N490 1.331 . S
O492 Zn485 1.975 . S
O492 C493 1.252 . S
C493 O492 1.252 . S
C493 O494 1.252 . S
O494 Zn476 1.975 . S
O494 C493 1.252 . S
H495 C488 0.930 . S
H496 C489 0.930 1_554 S
C497 C498 1.392 . S
C497 N501 1.328 . S
C497 H503 0.930 . S
C498 C497 1.392 . S
C498 N502 1.331 . S
C499 C500 1.391 . S
C499 N502 1.329 . S
C499 H509 0.930 . S
C500 C499 1.391 . S
C500 N501 1.334 . S
C500 H507 0.930 . S
N501 Zn485 2.119 . S
N501 C497 1.328 . S
N501 C500 1.334 . S
N502 C498 1.331 . S
N502 C499 1.329 . S
H503 C497 0.930 . S
C504 O484 1.257 . S
C504 O505 1.244 . S
O505 C504 1.244 . S
O506 C482 1.257 . S
O506 Zn485 2.019 . S
H507 C500 0.930 . S
H508 C487 0.930 . S
H509 C499 0.930 . S
Zn510 N514 2.020 . S
Zn510 O518 2.019 1_556 S
Zn510 N520 2.119 . S
Zn510 O528 1.975 . S
C511 N512 1.334 . S
C511 N515 1.336 . S
N512 C511 1.334 . S
N512 C513 1.334 . S
C513 N512 1.334 . S
C513 N514 1.336 . S
N514 Zn510 2.020 . S
N514 C513 1.336 . S
N514 N515 1.354 . S
N515 C511 1.336 . S
N515 N514 1.354 . S
N515 Zn519 2.020 . S
C516 O517 1.244 . S
C516 O540 1.257 . S
O517 C516 1.244 . S
O518 Zn510 2.019 1_554 S
O518 C538 1.257 . S
Zn519 N515 2.020 . S
Zn519 O526 1.975 . S
Zn519 N535 2.119 . S
Zn519 O540 2.019 . S
N520 Zn510 2.119 . S
N520 C522 1.334 . S
N520 C523 1.328 . S
C521 C522 1.391 . S
C521 N524 1.329 . S
C521 H542 0.930 . S
C522 N520 1.334 . S
C522 C521 1.391 . S
C522 H529 0.930 . S
C523 N520 1.328 . S
C523 C525 1.392 . S
C523 H530 0.930 1_556 S
N524 C521 1.329 . S
N524 C525 1.331 . S
C525 C523 1.392 . S
C525 N524 1.331 . S
O526 Zn519 1.975 . S
O526 C527 1.252 . S
C527 O526 1.252 . S
C527 O528 1.252 . S
O528 Zn510 1.975 . S
O528 C527 1.252 . S
H529 C522 0.930 . S
H530 C523 0.930 1_554 S
C531 C532 1.392 . S
C531 N535 1.328 . S
C531 H537 0.930 . S
C532 C531 1.392 . S
C532 N536 1.331 . S
C533 C534 1.391 . S
C533 N536 1.329 . S
C533 H543 0.930 . S
C534 C533 1.391 . S
C534 N535 1.334 . S
C534 H541 0.930 . S
N535 Zn519 2.119 . S
N535 C531 1.328 . S
N535 C534 1.334 . S
N536 C532 1.331 . S
N536 C533 1.329 . S
H537 C531 0.930 . S
C538 O518 1.257 . S
C538 O539 1.244 . S
O539 C538 1.244 . S
O540 C516 1.257 . S
O540 Zn519 2.019 . S
H541 C534 0.930 . S
H542 C521 0.930 . S
H543 C533 0.930 . S
C544 C545 1.363 . S
C544 C550 1.379 1_445 S
C544 N552 1.356 . S
C545 C544 1.363 . S
C545 C551 1.363 . S
C546 C547 1.363 . S
C546 C551 1.379 1_665 S
C546 N553 1.356 . S
C547 C546 1.363 . S
C547 C550 1.363 . S
N548 C550 1.356 . S
N548 H560 0.984 . S
N548 H561 0.985 . S
N549 C551 1.356 . S
N549 H554 0.984 . S
N549 H555 0.985 . S
C550 C544 1.379 1_665 S
C550 C547 1.363 . S
C550 N548 1.356 . S
C551 C545 1.363 . S
C551 C546 1.379 1_445 S
C551 N549 1.356 . S
N552 C544 1.356 . S
N552 H558 0.984 . S
N552 H559 0.984 . S
N553 C546 1.356 . S
N553 H556 0.984 . S
N553 H557 0.985 . S
H554 N549 0.984 . S
H555 N549 0.985 . S
H556 N553 0.984 . S
H557 N553 0.985 . S
H558 N552 0.984 . S
H559 N552 0.984 . S
H560 N548 0.984 . S
H561 N548 0.985 . S
C562 C563 1.363 1_565 S
C562 C568 1.379 . S
C562 N570 1.356 . S
C563 C562 1.363 1_545 S
C563 C569 1.363 . S
C564 C565 1.363 1_545 S
C564 C569 1.379 . S
C564 N571 1.356 . S
C565 C564 1.363 1_565 S
C565 C568 1.363 . S
N566 C568 1.356 . S
N566 H578 0.984 . S
N566 H579 0.985 . S
N567 C569 1.356 . S
N567 H572 0.984 . S
N567 H573 0.985 . S
C568 C562 1.379 . S
C568 C565 1.363 . S
C568 N566 1.356 . S
C569 C563 1.363 . S
C569 C564 1.379 . S
C569 N567 1.356 . S
N570 C562 1.356 . S
N570 H576 0.984 . S
N570 H577 0.984 . S
N571 C564 1.356 . S
N571 H574 0.984 . S
N571 H575 0.985 . S
H572 N567 0.984 . S
H573 N567 0.985 . S
H574 N571 0.984 . S
H575 N571 0.985 . S
H576 N570 0.984 . S
H577 N570 0.984 . S
H578 N566 0.984 . S
H579 N566 0.985 . S
C580 C581 1.363 1_554 S
C580 C586 1.379 . S
C580 N588 1.356 . S
C581 C580 1.363 1_556 S
C581 C587 1.363 1_545 S
C582 C583 1.363 1_556 S
C582 C587 1.379 . S
C582 N589 1.356 . S
C583 C582 1.363 1_554 S
C583 C586 1.363 1_565 S
N584 C586 1.356 . S
N584 H596 0.984 . S
N584 H597 0.985 . S
N585 C587 1.356 . S
N585 H590 0.984 . S
N585 H591 0.985 . S
C586 C580 1.379 . S
C586 C583 1.363 1_545 S
C586 N584 1.356 . S
C587 C581 1.363 1_565 S
C587 C582 1.379 . S
C587 N585 1.356 . S
N588 C580 1.356 . S
N588 H594 0.984 . S
N588 H595 0.984 . S
N589 C582 1.356 . S
N589 H592 0.984 . S
N589 H593 0.985 . S
H590 N585 0.984 . S
H591 N585 0.985 . S
H592 N589 0.984 . S
H593 N589 0.985 . S
H594 N588 0.984 . S
H595 N588 0.984 . S
H596 N584 0.984 . S
H597 N584 0.985 . S
C598 C599 1.363 1_554 S
C598 C604 1.379 1_455 S
C598 N606 1.356 . S
C599 C598 1.363 1_556 S
C599 C605 1.363 1_565 S
C600 C601 1.363 1_556 S
C600 C605 1.379 1_655 S
C600 N607 1.356 . S
C601 C600 1.363 1_554 S
C601 C604 1.363 1_545 S
N602 C604 1.356 . S
N602 H614 0.984 . S
N602 H615 0.985 . S
N603 C605 1.356 . S
N603 H608 0.984 . S
N603 H609 0.985 . S
C604 C598 1.379 1_655 S
C604 C601 1.363 1_565 S
C604 N602 1.356 . S
C605 C599 1.363 1_545 S
C605 C600 1.379 1_455 S
C605 N603 1.356 . S
N606 C598 1.356 . S
N606 H612 0.984 . S
N606 H613 0.984 . S
N607 C600 1.356 . S
N607 H610 0.984 . S
N607 H611 0.985 . S
H608 N603 0.984 . S
H609 N603 0.985 . S
H610 N607 0.984 . S
H611 N607 0.985 . S
H612 N606 0.984 . S
H613 N606 0.984 . S
H614 N602 0.984 . S
H615 N602 0.985 . S
C616 C617 1.363 . S
C616 C622 1.379 . S
C616 N624 1.356 . S
C617 C616 1.363 . S
C617 C623 1.363 . S
C618 C619 1.363 . S
C618 C623 1.379 . S
C618 N625 1.356 . S
C619 C618 1.363 . S
C619 C622 1.363 . S
N620 C622 1.356 . S
N620 H632 0.984 . S
N620 H633 0.985 . S
N621 C623 1.356 . S
N621 H626 0.984 . S
N621 H627 0.985 . S
C622 C616 1.379 . S
C622 C619 1.363 . S
C622 N620 1.356 . S
C623 C617 1.363 . S
C623 C618 1.379 . S
C623 N621 1.356 . S
N624 C616 1.356 . S
N624 H630 0.984 . S
N624 H631 0.984 . S
N625 C618 1.356 . S
N625 H628 0.984 . S
N625 H629 0.985 . S
H626 N621 0.984 . S
H627 N621 0.985 . S
H628 N625 0.984 . S
H629 N625 0.985 . S
H630 N624 0.984 . S
H631 N624 0.984 . S
H632 N620 0.984 . S
H633 N620 0.985 . S
C634 C635 1.363 . S
C634 C640 1.379 1_455 S
C634 N642 1.356 . S
C635 C634 1.363 . S
C635 C641 1.363 . S
C636 C637 1.363 . S
C636 C641 1.379 1_655 S
C636 N643 1.356 . S
C637 C636 1.363 . S
C637 C640 1.363 . S
N638 C640 1.356 . S
N638 H650 0.984 . S
N638 H651 0.985 . S
N639 C641 1.356 . S
N639 H644 0.984 . S
N639 H645 0.985 . S
C640 C634 1.379 1_655 S
C640 C637 1.363 . S
C640 N638 1.356 . S
C641 C635 1.363 . S
C641 C636 1.379 1_455 S
C641 N639 1.356 . S
N642 C634 1.356 . S
N642 H648 0.984 . S
N642 H649 0.984 . S
N643 C636 1.356 . S
N643 H646 0.984 . S
N643 H647 0.985 . S
H644 N639 0.984 . S
H645 N639 0.985 . S
H646 N643 0.984 . S
H647 N643 0.985 . S
H648 N642 0.984 . S
H649 N642 0.984 . S
H650 N638 0.984 . S
H651 N638 0.985 . S
C652 C653 1.363 1_556 S
C652 C658 1.379 1_455 S
C652 N660 1.356 . S
C653 C652 1.363 1_554 S
C653 C659 1.363 . S
C654 C655 1.363 1_554 S
C654 C659 1.379 1_655 S
C654 N661 1.356 . S
C655 C654 1.363 1_556 S
C655 C658 1.363 . S
N656 C658 1.356 . S
N656 H668 0.984 . S
N656 H669 0.985 . S
N657 C659 1.356 . S
N657 H662 0.984 . S
N657 H663 0.985 . S
C658 C652 1.379 1_655 S
C658 C655 1.363 . S
C658 N656 1.356 . S
C659 C653 1.363 . S
C659 C654 1.379 1_455 S
C659 N657 1.356 . S
N660 C652 1.356 . S
N660 H666 0.984 . S
N660 H667 0.984 . S
N661 C654 1.356 . S
N661 H664 0.984 . S
N661 H665 0.985 . S
H662 N657 0.984 . S
H663 N657 0.985 . S
H664 N661 0.984 . S
H665 N661 0.985 . S
H666 N660 0.984 . S
H667 N660 0.984 . S
H668 N656 0.984 . S
H669 N656 0.985 . S
C670 C671 1.363 1_556 S
C670 C676 1.379 . S
C670 N678 1.356 . S
C671 C670 1.363 1_554 S
C671 C677 1.363 . S
C672 C673 1.363 1_554 S
C672 C677 1.379 . S
C672 N679 1.356 . S
C673 C672 1.363 1_556 S
C673 C676 1.363 . S
N674 C676 1.356 . S
N674 H686 0.984 . S
N674 H687 0.985 . S
N675 C677 1.356 . S
N675 H680 0.984 . S
N675 H681 0.985 . S
C676 C670 1.379 . S
C676 C673 1.363 . S
C676 N674 1.356 . S
C677 C671 1.363 . S
C677 C672 1.379 . S
C677 N675 1.356 . S
N678 C670 1.356 . S
N678 H684 0.984 . S
N678 H685 0.984 . S
N679 C672 1.356 . S
N679 H682 0.984 . S
N679 H683 0.985 . S
H680 N675 0.984 . S
H681 N675 0.985 . S
H682 N679 0.984 . S
H683 N679 0.985 . S
H684 N678 0.984 . S
H685 N678 0.984 . S
H686 N674 0.984 . S
H687 N674 0.985 . S
C688 C689 1.363 . S
C688 C694 1.379 . S
C688 N696 1.356 . S
C689 C688 1.363 . S
C689 C695 1.363 . S
C690 C691 1.363 . S
C690 C695 1.379 . S
C690 N697 1.356 . S
C691 C690 1.363 . S
C691 C694 1.363 . S
N692 C694 1.356 . S
N692 H704 0.984 . S
N692 H705 0.985 . S
N693 C695 1.356 . S
N693 H698 0.984 . S
N693 H699 0.985 . S
C694 C688 1.379 . S
C694 C691 1.363 . S
C694 N692 1.356 . S
C695 C689 1.363 . S
C695 C690 1.379 . S
C695 N693 1.356 . S
N696 C688 1.356 . S
N696 H702 0.984 . S
N696 H703 0.984 . S
N697 C690 1.356 . S
N697 H700 0.984 . S
N697 H701 0.985 . S
H698 N693 0.984 . S
H699 N693 0.985 . S
H700 N697 0.984 . S
H701 N697 0.985 . S
H702 N696 0.984 . S
H703 N696 0.984 . S
H704 N692 0.984 . S
H705 N692 0.985 . S
C706 C707 1.363 . S
C706 C712 1.379 . S
C706 N714 1.356 . S
C707 C706 1.363 . S
C707 C713 1.363 . S
C708 C709 1.363 . S
C708 C713 1.379 . S
C708 N715 1.356 . S
C709 C708 1.363 . S
C709 C712 1.363 . S
N710 C712 1.356 . S
N710 H722 0.984 . S
N710 H723 0.985 . S
N711 C713 1.356 . S
N711 H716 0.984 . S
N711 H717 0.985 . S
C712 C706 1.379 . S
C712 C709 1.363 . S
C712 N710 1.356 . S
C713 C707 1.363 . S
C713 C708 1.379 . S
C713 N711 1.356 . S
N714 C706 1.356 . S
N714 H720 0.984 . S
N714 H721 0.984 . S
N715 C708 1.356 . S
N715 H718 0.984 . S
N715 H719 0.985 . S
H716 N711 0.984 . S
H717 N711 0.985 . S
H718 N715 0.984 . S
H719 N715 0.985 . S
H720 N714 0.984 . S
H721 N714 0.984 . S
H722 N710 0.984 . S
H723 N710 0.985 . S
C724 C725 1.363 1_556 S
C724 C730 1.379 . S
C724 N732 1.356 . S
C725 C724 1.363 1_554 S
C725 C731 1.363 . S
C726 C727 1.363 1_554 S
C726 C731 1.379 . S
C726 N733 1.356 . S
C727 C726 1.363 1_556 S
C727 C730 1.363 . S
N728 C730 1.356 . S
N728 H740 0.984 . S
N728 H741 0.985 . S
N729 C731 1.356 . S
N729 H734 0.984 . S
N729 H735 0.985 . S
C730 C724 1.379 . S
C730 C727 1.363 . S
C730 N728 1.356 . S
C731 C725 1.363 . S
C731 C726 1.379 . S
C731 N729 1.356 . S
N732 C724 1.356 . S
N732 H738 0.984 . S
N732 H739 0.984 1_556 S
N733 C726 1.356 . S
N733 H736 0.984 1_554 S
N733 H737 0.985 . S
H734 N729 0.984 . S
H735 N729 0.985 . S
H736 N733 0.984 1_556 S
H737 N733 0.985 . S
H738 N732 0.984 . S
H739 N732 0.984 1_554 S
H740 N728 0.984 . S
H741 N728 0.985 . S
C742 C743 1.363 . S
C742 C748 1.379 . S
C742 N750 1.356 . S
C743 C742 1.363 . S
C743 C749 1.363 1_556 S
C744 C745 1.363 . S
C744 C749 1.379 . S
C744 N751 1.356 . S
C745 C744 1.363 . S
C745 C748 1.363 1_554 S
N746 C748 1.356 1_554 S
N746 H758 0.970 1_554 S
N746 H759 1.000 . S
N747 C749 1.356 . S
N747 H752 0.984 1_554 S
N747 H753 0.985 . S
C748 C742 1.379 . S
C748 C745 1.363 1_556 S
C748 N746 1.356 1_556 S
C749 C743 1.363 1_554 S
C749 C744 1.379 . S
C749 N747 1.356 . S
N750 C742 1.356 . S
N750 H756 0.984 . S
N750 H757 0.984 . S
N751 C744 1.356 . S
N751 H754 0.984 . S
N751 H755 0.985 . S
H752 N747 0.984 1_556 S
H753 N747 0.985 . S
H754 N751 0.984 . S
H755 N751 0.985 . S
H756 N750 0.984 . S
H757 N750 0.984 . S
H758 N746 0.970 1_556 S
H759 N746 1.000 . S
C760 C761 1.363 . S
C760 C766 1.379 . S
C760 N768 1.356 . S
C761 C760 1.363 . S
C761 C767 1.363 . S
C762 C763 1.363 . S
C762 C767 1.379 . S
C762 N769 1.356 . S
C763 C762 1.363 . S
C763 C766 1.363 . S
N764 C766 1.356 . S
N764 H776 0.984 . S
N764 H777 0.985 . S
N765 C767 1.356 . S
N765 H770 0.984 . S
N765 H771 0.985 . S
C766 C760 1.379 . S
C766 C763 1.363 . S
C766 N764 1.356 . S
C767 C761 1.363 . S
C767 C762 1.379 . S
C767 N765 1.356 . S
N768 C760 1.356 . S
N768 H774 0.984 . S
N768 H775 0.984 . S
N769 C762 1.356 . S
N769 H772 0.984 . S
N769 H773 0.985 . S
H770 N765 0.984 . S
H771 N765 0.985 . S
H772 N769 0.984 . S
H773 N769 0.985 . S
H774 N768 0.984 . S
H775 N768 0.984 . S
H776 N764 0.984 . S
H777 N764 0.985 . S
C778 C779 1.363 . S
C778 C784 1.379 . S
C778 N786 1.356 . S
C779 C778 1.363 . S
C779 C785 1.363 . S
C780 C781 1.363 . S
C780 C785 1.379 . S
C780 N787 1.356 . S
C781 C780 1.363 . S
C781 C784 1.363 . S
N782 C784 1.356 . S
N782 H794 0.984 . S
N782 H795 0.985 . S
N783 C785 1.356 . S
N783 H788 0.984 . S
N783 H789 0.985 . S
C784 C778 1.379 . S
C784 C781 1.363 . S
C784 N782 1.356 . S
C785 C779 1.363 . S
C785 C780 1.379 . S
C785 N783 1.356 . S
N786 C778 1.356 . S
N786 H792 0.984 . S
N786 H793 0.984 . S
N787 C780 1.356 . S
N787 H790 0.984 . S
N787 H791 0.985 . S
H788 N783 0.984 . S
H789 N783 0.985 . S
H790 N787 0.984 . S
H791 N787 0.985 . S
H792 N786 0.984 . S
H793 N786 0.984 . S
H794 N782 0.984 . S
H795 N782 0.985 . S
C796 C797 1.363 . S
C796 C802 1.379 1_554 S
C796 N804 1.356 . S
C797 C796 1.363 . S
C797 C803 1.363 1_554 S
C798 C799 1.363 . S
C798 C803 1.379 . S
C798 N805 1.356 . S
C799 C798 1.363 . S
C799 C802 1.363 . S
N800 C802 1.356 . S
N800 H812 0.984 . S
N800 H813 0.985 . S
N801 C803 1.356 1_554 S
N801 H806 0.984 . S
N801 H807 0.985 1_554 S
C802 C796 1.379 1_556 S
C802 C799 1.363 . S
C802 N800 1.356 . S
C803 C797 1.363 1_556 S
C803 C798 1.379 . S
C803 N801 1.356 1_556 S
N804 C796 1.356 . S
N804 H810 0.984 . S
N804 H811 0.984 . S
N805 C798 1.356 . S
N805 H808 0.984 . S
N805 H809 0.985 . S
H806 N801 0.984 . S
H807 N801 0.985 1_556 S
H808 N805 0.984 . S
H809 N805 0.985 . S
H810 N804 0.984 . S
H811 N804 0.984 . S
H812 N800 0.984 . S
H813 N800 0.985 . S
C814 C815 1.363 . S
C814 C820 1.379 . S
C814 N822 1.356 . S
C815 C814 1.363 . S
C815 C821 1.363 . S
C816 C817 1.363 . S
C816 C821 1.379 1_554 S
C816 N823 1.356 . S
C817 C816 1.363 . S
C817 C820 1.363 1_554 S
N818 C820 1.356 . S
N818 H830 0.984 . S
N818 H831 0.985 1_556 S
N819 C821 1.356 . S
N819 H824 0.984 . S
N819 H825 0.985 1_556 S
C820 C814 1.379 . S
C820 C817 1.363 1_556 S
C820 N818 1.356 . S
C821 C815 1.363 . S
C821 C816 1.379 1_556 S
C821 N819 1.356 . S
N822 C814 1.356 . S
N822 H828 0.984 . S
N822 H829 0.984 . S
N823 C816 1.356 . S
N823 H826 0.984 . S
N823 H827 0.985 . S
H824 N819 0.984 . S
H825 N819 0.985 1_554 S
H826 N823 0.984 . S
H827 N823 0.985 . S
H828 N822 0.984 . S
H829 N822 0.984 . S
H830 N818 0.984 . S
H831 N818 0.985 1_554 S
C832 C833 1.363 . S
C832 C838 1.379 . S
C832 N840 1.356 . S
C833 C832 1.363 . S
C833 C839 1.363 . S
C834 C835 1.363 . S
C834 C839 1.379 . S
C834 N841 1.356 . S
C835 C834 1.363 . S
C835 C838 1.363 . S
N836 C838 1.356 . S
N836 H848 0.984 . S
N836 H849 0.985 . S
N837 C839 1.356 . S
N837 H842 0.984 . S
N837 H843 0.985 . S
C838 C832 1.379 . S
C838 C835 1.363 . S
C838 N836 1.356 . S
C839 C833 1.363 . S
C839 C834 1.379 . S
C839 N837 1.356 . S
N840 C832 1.356 . S
N840 H846 0.984 . S
N840 H847 0.984 . S
N841 C834 1.356 . S
N841 H844 0.984 . S
N841 H845 0.985 . S
H842 N837 0.984 . S
H843 N837 0.985 . S
H844 N841 0.984 . S
H845 N841 0.985 . S
H846 N840 0.984 . S
H847 N840 0.984 . S
H848 N836 0.984 . S
H849 N836 0.985 . S
C850 C851 1.363 . S
C850 C856 1.379 . S
C850 N858 1.356 . S
C851 C850 1.363 . S
C851 C857 1.363 . S
C852 C853 1.363 . S
C852 C857 1.379 . S
C852 N859 1.356 . S
C853 C852 1.363 . S
C853 C856 1.363 . S
N854 C856 1.356 . S
N854 H866 0.984 . S
N854 H867 0.985 . S
N855 C857 1.356 . S
N855 H860 0.984 . S
N855 H861 0.985 . S
C856 C850 1.379 . S
C856 C853 1.363 . S
C856 N854 1.356 . S
C857 C851 1.363 . S
C857 C852 1.379 . S
C857 N855 1.356 . S
N858 C850 1.356 . S
N858 H864 0.984 . S
N858 H865 0.984 . S
N859 C852 1.356 . S
N859 H862 0.984 . S
N859 H863 0.985 . S
H860 N855 0.984 . S
H861 N855 0.985 . S
H862 N859 0.984 . S
H863 N859 0.985 . S
H864 N858 0.984 . S
H865 N858 0.984 . S
H866 N854 0.984 . S
H867 N854 0.985 . S
C868 C869 1.363 . S
C868 C874 1.379 . S
C868 N876 1.356 . S
C869 C868 1.363 . S
C869 C875 1.363 . S
C870 C871 1.363 . S
C870 C875 1.379 1_556 S
C870 N877 1.356 . S
C871 C870 1.363 . S
C871 C874 1.363 1_556 S
N872 C874 1.356 . S
N872 H884 0.984 . S
N872 H885 0.985 1_554 S
N873 C875 1.356 . S
N873 H878 0.984 . S
N873 H879 0.985 1_554 S
C874 C868 1.379 . S
C874 C871 1.363 1_554 S
C874 N872 1.356 . S
C875 C869 1.363 . S
C875 C870 1.379 1_554 S
C875 N873 1.356 . S
N876 C868 1.356 . S
N876 H882 0.984 . S
N876 H883 0.984 . S
N877 C870 1.356 . S
N877 H880 0.984 . S
N877 H881 0.985 . S
H878 N873 0.984 . S
H879 N873 0.985 1_556 S
H880 N877 0.984 . S
H881 N877 0.985 . S
H882 N876 0.984 . S
H883 N876 0.984 . S
H884 N872 0.984 . S
H885 N872 0.985 1_556 S
C886 C887 1.363 . S
C886 C892 1.379 . S
C886 N894 1.356 . S
C887 C886 1.363 . S
C887 C893 1.371 . S
C888 C889 1.363 . S
C888 C893 1.373 1_556 S
C888 N895 1.356 . S
C889 C888 1.363 . S
C889 C892 1.363 1_556 S
N890 C892 1.356 . S
N890 H902 0.984 . S
N890 H903 0.985 1_554 S
N891 C893 1.357 . S
N891 H896 0.984 . S
N891 H897 0.985 1_554 S
C892 C886 1.379 . S
C892 C889 1.363 1_554 S
C892 N890 1.356 . S
C893 C887 1.371 . S
C893 C888 1.373 1_554 S
C893 N891 1.357 . S
N894 C886 1.356 . S
N894 H900 0.984 . S
N894 H901 0.984 . S
N895 C888 1.356 . S
N895 H898 0.984 . S
N895 H899 0.985 . S
H896 N891 0.984 . S
H897 N891 0.985 1_556 S
H898 N895 0.984 . S
H899 N895 0.985 . S
H900 N894 0.984 . S
H901 N894 0.984 . S
H902 N890 0.984 . S
H903 N890 0.985 1_556 S
C904 C905 1.363 . S
C904 C910 1.379 . S
C904 N912 1.356 . S
C905 C904 1.363 . S
C905 C911 1.363 . S
C906 C907 1.363 . S
C906 C911 1.379 . S
C906 N913 1.356 . S
C907 C906 1.363 . S
C907 C910 1.363 . S
N908 C910 1.356 . S
N908 H920 0.984 . S
N908 H921 0.985 . S
N909 C911 1.356 . S
N909 H914 0.984 . S
N909 H915 0.985 . S
C910 C904 1.379 . S
C910 C907 1.363 . S
C910 N908 1.356 . S
C911 C905 1.363 . S
C911 C906 1.379 . S
C911 N909 1.356 . S
N912 C904 1.356 . S
N912 H918 0.984 . S
N912 H919 0.984 . S
N913 C906 1.356 . S
N913 H916 0.984 . S
N913 H917 0.985 . S
H914 N909 0.984 . S
H915 N909 0.985 . S
H916 N913 0.984 . S
H917 N913 0.985 . S
H918 N912 0.984 . S
H919 N912 0.984 . S
H920 N908 0.984 . S
H921 N908 0.985 . S
C922 C923 1.363 . S
C922 C928 1.379 . S
C922 N930 1.356 . S
C923 C922 1.363 . S
C923 C929 1.363 . S
C924 C925 1.363 . S
C924 C929 1.379 . S
C924 N931 1.356 . S
C925 C924 1.363 . S
C925 C928 1.363 . S
N926 C928 1.356 . S
N926 H938 0.984 . S
N926 H939 0.985 . S
N927 C929 1.356 . S
N927 H932 0.984 . S
N927 H933 0.985 . S
C928 C922 1.379 . S
C928 C925 1.363 . S
C928 N926 1.356 . S
C929 C923 1.363 . S
C929 C924 1.379 . S
C929 N927 1.356 . S
N930 C922 1.356 . S
N930 H936 0.984 . S
N930 H937 0.984 . S
N931 C924 1.356 . S
N931 H934 0.984 . S
N931 H935 0.985 . S
H932 N927 0.984 . S
H933 N927 0.985 . S
H934 N931 0.984 . S
H935 N931 0.985 . S
H936 N930 0.984 . S
H937 N930 0.984 . S
H938 N926 0.984 . S
H939 N926 0.985 . S
C940 C941 1.363 . S
C940 C946 1.379 . S
C940 N948 1.356 . S
C941 C940 1.363 . S
C941 C947 1.363 1_554 S
C942 C943 1.363 . S
C942 C947 1.379 . S
C942 N949 1.356 . S
C943 C942 1.363 . S
C943 C946 1.363 1_556 S
N944 C946 1.356 . S
N944 H956 0.984 . S
N944 H957 0.985 1_554 S
N945 C947 1.356 . S
N945 H950 0.984 1_556 S
N945 H951 0.985 . S
C946 C940 1.379 . S
C946 C943 1.363 1_554 S
C946 N944 1.356 . S
C947 C941 1.363 1_556 S
C947 C942 1.379 . S
C947 N945 1.356 . S
N948 C940 1.356 . S
N948 H954 0.984 . S
N948 H955 0.984 . S
N949 C942 1.356 . S
N949 H952 0.984 . S
N949 H953 0.985 . S
H950 N945 0.984 1_554 S
H951 N945 0.985 . S
H952 N949 0.984 . S
H953 N949 0.985 . S
H954 N948 0.984 . S
H955 N948 0.984 . S
H956 N944 0.984 . S
H957 N944 0.985 1_556 S
C958 C959 1.363 . S
C958 C964 1.379 . S
C958 N966 1.356 . S
C959 C958 1.363 . S
C959 C965 1.363 . S
C960 C961 1.363 . S
C960 C965 1.379 1_554 S
C960 N967 1.356 . S
C961 C960 1.363 . S
C961 C964 1.363 1_554 S
N962 C964 1.356 . S
N962 H974 0.984 . S
N962 H975 0.985 1_556 S
N963 C965 1.356 . S
N963 H968 0.984 . S
N963 H969 0.985 1_556 S
C964 C958 1.379 . S
C964 C961 1.363 1_556 S
C964 N962 1.356 . S
C965 C959 1.363 . S
C965 C960 1.379 1_556 S
C965 N963 1.356 . S
N966 C958 1.356 . S
N966 H972 0.984 . S
N966 H973 0.984 . S
N967 C960 1.356 . S
N967 H970 0.984 . S
N967 H971 0.985 . S
H968 N963 0.984 . S
H969 N963 0.985 1_554 S
H970 N967 0.984 . S
H971 N967 0.985 . S
H972 N966 0.984 . S
H973 N966 0.984 . S
H974 N962 0.984 . S
H975 N962 0.985 1_554 S
C976 C977 1.363 1_565 S
C976 C982 1.379 . S
C976 N984 1.356 . S
C977 C976 1.363 1_545 S
C977 C983 1.363 . S
C978 C979 1.363 1_545 S
C978 C983 1.379 . S
C978 N985 1.356 . S
C979 C978 1.363 1_565 S
C979 C982 1.363 . S
N980 C982 1.356 . S
N980 H992 0.984 . S
N980 H993 0.985 . S
N981 C983 1.356 . S
N981 H986 0.984 . S
N981 H987 0.985 . S
C982 C976 1.379 . S
C982 C979 1.363 . S
C982 N980 1.356 . S
C983 C977 1.363 . S
C983 C978 1.379 . S
C983 N981 1.356 . S
N984 C976 1.356 . S
N984 H990 0.984 . S
N984 H991 0.984 . S
N985 C978 1.356 . S
N985 H988 0.984 . S
N985 H989 0.985 . S
H986 N981 0.984 . S
H987 N981 0.985 . S
H988 N985 0.984 . S
H989 N985 0.985 . S
H990 N984 0.984 . S
H991 N984 0.984 . S
H992 N980 0.984 . S
H993 N980 0.985 . S
C994 C995 1.363 1_565 S
C994 C1000 1.379 . S
C994 N1002 1.356 . S
C995 C994 1.363 1_545 S
C995 C1001 1.363 . S
C996 C997 1.363 1_545 S
C996 C1001 1.379 . S
C996 N1003 1.356 . S
C997 C996 1.363 1_565 S
C997 C1000 1.363 . S
N998 C1000 1.356 . S
N998 H1010 0.984 . S
N998 H1011 0.985 . S
N999 C1001 1.356 . S
N999 H1004 0.984 . S
N999 H1005 0.985 . S
C1000 C994 1.379 . S
C1000 C997 1.363 . S
C1000 N998 1.356 . S
C1001 C995 1.363 . S
C1001 C996 1.379 . S
C1001 N999 1.356 . S
N1002 C994 1.356 . S
N1002 H1008 0.984 . S
N1002 H1009 0.984 . S
N1003 C996 1.356 . S
N1003 H1006 0.984 . S
N1003 H1007 0.985 . S
H1004 N999 0.984 . S
H1005 N999 0.985 . S
H1006 N1003 0.984 . S
H1007 N1003 0.985 . S
H1008 N1002 0.984 . S
H1009 N1002 0.984 . S
H1010 N998 0.984 . S
H1011 N998 0.985 . S
C1012 C1013 1.363 . S
C1012 C1018 1.379 . S
C1012 N1020 1.356 . S
C1013 C1012 1.363 . S
C1013 C1019 1.363 1_545 S
C1014 C1015 1.363 . S
C1014 C1019 1.379 . S
C1014 N1021 1.356 . S
C1015 C1014 1.363 . S
C1015 C1018 1.363 1_565 S
N1016 C1018 1.356 . S
N1016 H1028 0.984 . S
N1016 H1029 0.985 . S
N1017 C1019 1.356 . S
N1017 H1022 0.984 . S
N1017 H1023 0.985 . S
C1018 C1012 1.379 . S
C1018 C1015 1.363 1_545 S
C1018 N1016 1.356 . S
C1019 C1013 1.363 1_565 S
C1019 C1014 1.379 . S
C1019 N1017 1.356 . S
N1020 C1012 1.356 . S
N1020 H1026 0.984 . S
N1020 H1027 0.984 . S
N1021 C1014 1.356 . S
N1021 H1024 0.984 . S
N1021 H1025 0.985 . S
H1022 N1017 0.984 . S
H1023 N1017 0.985 . S
H1024 N1021 0.984 . S
H1025 N1021 0.985 . S
H1026 N1020 0.984 . S
H1027 N1020 0.984 . S
H1028 N1016 0.984 . S
H1029 N1016 0.985 . S
C1030 C1031 1.363 1_545 S
C1030 C1036 1.379 . S
C1030 N1038 1.356 . S
C1031 C1030 1.363 1_565 S
C1031 C1037 1.363 . S
C1032 C1033 1.363 1_565 S
C1032 C1037 1.379 . S
C1032 N1039 1.356 . S
C1033 C1032 1.363 1_545 S
C1033 C1036 1.363 . S
N1034 C1036 1.356 . S
N1034 H1046 0.984 . S
N1034 H1047 0.985 . S
N1035 C1037 1.356 . S
N1035 H1040 0.984 . S
N1035 H1041 0.985 . S
C1036 C1030 1.379 . S
C1036 C1033 1.363 . S
C1036 N1034 1.356 . S
C1037 C1031 1.363 . S
C1037 C1032 1.379 . S
C1037 N1035 1.356 . S
N1038 C1030 1.356 . S
N1038 H1044 0.984 . S
N1038 H1045 0.984 . S
N1039 C1032 1.356 . S
N1039 H1042 0.984 . S
N1039 H1043 0.985 . S
H1040 N1035 0.984 . S
H1041 N1035 0.985 . S
H1042 N1039 0.984 . S
H1043 N1039 0.985 . S
H1044 N1038 0.984 . S
H1045 N1038 0.984 . S
H1046 N1034 0.984 . S
H1047 N1034 0.985 . S
C1048 C1049 1.363 . S
C1048 C1054 1.379 . S
C1048 N1056 1.356 . S
C1049 C1048 1.363 . S
C1049 C1055 1.363 . S
C1050 C1051 1.363 . S
C1050 C1055 1.379 . S
C1050 N1057 1.356 . S
C1051 C1050 1.363 . S
C1051 C1054 1.363 . S
N1052 C1054 1.356 . S
N1052 H1064 0.984 . S
N1052 H1065 0.985 . S
N1053 C1055 1.356 . S
N1053 H1058 0.984 . S
N1053 H1059 0.985 . S
C1054 C1048 1.379 . S
C1054 C1051 1.363 . S
C1054 N1052 1.356 . S
C1055 C1049 1.363 . S
C1055 C1050 1.379 . S
C1055 N1053 1.356 . S
N1056 C1048 1.356 . S
N1056 H1062 0.984 . S
N1056 H1063 0.984 . S
N1057 C1050 1.356 . S
N1057 H1060 0.984 . S
N1057 H1061 0.985 . S
H1058 N1053 0.984 . S
H1059 N1053 0.985 . S
H1060 N1057 0.984 . S
H1061 N1057 0.985 . S
H1062 N1056 0.984 . S
H1063 N1056 0.984 . S
H1064 N1052 0.984 . S
H1065 N1052 0.985 . S
C1066 C1067 1.363 . S
C1066 C1072 1.379 . S
C1066 N1074 1.356 . S
C1067 C1066 1.363 . S
C1067 C1073 1.363 . S
C1068 C1069 1.363 . S
C1068 C1073 1.379 . S
C1068 N1075 1.356 . S
C1069 C1068 1.363 . S
C1069 C1072 1.363 . S
N1070 C1072 1.356 . S
N1070 H1082 0.984 . S
N1070 H1083 0.985 . S
N1071 C1073 1.356 . S
N1071 H1076 0.984 . S
N1071 H1077 0.985 . S
C1072 C1066 1.379 . S
C1072 C1069 1.363 . S
C1072 N1070 1.356 . S
C1073 C1067 1.363 . S
C1073 C1068 1.379 . S
C1073 N1071 1.356 . S
N1074 C1066 1.356 . S
N1074 H1080 0.984 . S
N1074 H1081 0.984 . S
N1075 C1068 1.356 . S
N1075 H1078 0.984 . S
N1075 H1079 0.985 . S
H1076 N1071 0.984 . S
H1077 N1071 0.985 . S
H1078 N1075 0.984 . S
H1079 N1075 0.985 . S
H1080 N1074 0.984 . S
H1081 N1074 0.984 . S
H1082 N1070 0.984 . S
H1083 N1070 0.985 . S
C1084 C1085 1.363 . S
C1084 C1090 1.379 . S
C1084 N1092 1.356 . S
C1085 C1084 1.363 . S
C1085 C1091 1.363 . S
C1086 C1087 1.363 . S
C1086 C1091 1.379 . S
C1086 N1093 1.356 . S
C1087 C1086 1.363 . S
C1087 C1090 1.363 . S
N1088 C1090 1.356 . S
N1088 H1100 0.984 . S
N1088 H1101 0.985 . S
N1089 C1091 1.356 . S
N1089 H1094 0.984 . S
N1089 H1095 0.985 . S
C1090 C1084 1.379 . S
C1090 C1087 1.363 . S
C1090 N1088 1.356 . S
C1091 C1085 1.363 . S
C1091 C1086 1.379 . S
C1091 N1089 1.356 . S
N1092 C1084 1.356 . S
N1092 H1098 0.984 . S
N1092 H1099 0.984 . S
N1093 C1086 1.356 . S
N1093 H1096 0.984 . S
N1093 H1097 0.985 . S
H1094 N1089 0.984 . S
H1095 N1089 0.985 . S
H1096 N1093 0.984 . S
H1097 N1093 0.985 . S
H1098 N1092 0.984 . S
H1099 N1092 0.984 . S
H1100 N1088 0.984 . S
H1101 N1088 0.985 . S
C1102 C1103 1.363 . S
C1102 C1108 1.379 . S
C1102 N1110 1.356 . S
C1103 C1102 1.363 . S
C1103 C1109 1.363 . S
C1104 C1105 1.363 . S
C1104 C1109 1.379 . S
C1104 N1111 1.356 . S
C1105 C1104 1.363 . S
C1105 C1108 1.363 . S
N1106 C1108 1.356 . S
N1106 H1118 0.984 . S
N1106 H1119 0.985 . S
N1107 C1109 1.356 . S
N1107 H1112 0.984 . S
N1107 H1113 0.985 . S
C1108 C1102 1.379 . S
C1108 C1105 1.363 . S
C1108 N1106 1.356 . S
C1109 C1103 1.363 . S
C1109 C1104 1.379 . S
C1109 N1107 1.356 . S
N1110 C1102 1.356 . S
N1110 H1116 0.984 . S
N1110 H1117 0.984 . S
N1111 C1104 1.356 . S
N1111 H1114 0.984 . S
N1111 H1115 0.985 . S
H1112 N1107 0.984 . S
H1113 N1107 0.985 . S
H1114 N1111 0.984 . S
H1115 N1111 0.985 . S
H1116 N1110 0.984 . S
H1117 N1110 0.984 . S
H1118 N1106 0.984 . S
H1119 N1106 0.985 . S
C1120 C1121 1.363 . S
C1120 C1126 1.379 . S
C1120 N1128 1.356 . S
C1121 C1120 1.363 . S
C1121 C1127 1.363 1_565 S
C1122 C1123 1.363 . S
C1122 C1127 1.379 1_565 S
C1122 N1129 1.356 1_565 S
C1123 C1122 1.363 . S
C1123 C1126 1.363 . S
N1124 C1126 1.356 . S
N1124 H1136 0.984 . S
N1124 H1137 0.985 . S
N1125 C1127 1.356 . S
N1125 H1130 0.984 . S
N1125 H1131 0.985 . S
C1126 C1120 1.379 . S
C1126 C1123 1.363 . S
C1126 N1124 1.356 . S
C1127 C1121 1.363 1_545 S
C1127 C1122 1.379 1_545 S
C1127 N1125 1.356 . S
N1128 C1120 1.356 . S
N1128 H1134 0.984 . S
N1128 H1135 0.984 . S
N1129 C1122 1.356 1_545 S
N1129 H1132 0.984 . S
N1129 H1133 0.985 . S
H1130 N1125 0.984 . S
H1131 N1125 0.985 . S
H1132 N1129 0.984 . S
H1133 N1129 0.985 . S
H1134 N1128 0.984 . S
H1135 N1128 0.984 . S
H1136 N1124 0.984 . S
H1137 N1124 0.985 . S
C1138 C1139 1.363 . S
C1138 C1144 1.379 . S
C1138 N1146 1.356 . S
C1139 C1138 1.363 . S
C1139 C1145 1.363 . S
C1140 C1141 1.363 1_565 S
C1140 C1145 1.379 1_565 S
C1140 N1147 1.356 . S
C1141 C1140 1.363 1_545 S
C1141 C1144 1.363 . S
N1142 C1144 1.356 . S
N1142 H1154 0.984 . S
N1142 H1155 0.985 . S
N1143 C1145 1.356 1_565 S
N1143 H1148 0.984 1_565 S
N1143 H1149 0.985 . S
C1144 C1138 1.379 . S
C1144 C1141 1.363 . S
C1144 N1142 1.356 . S
C1145 C1139 1.363 . S
C1145 C1140 1.379 1_545 S
C1145 N1143 1.356 1_545 S
N1146 C1138 1.356 . S
N1146 H1152 0.984 . S
N1146 H1153 0.984 . S
N1147 C1140 1.356 . S
N1147 H1150 0.984 . S
N1147 H1151 0.985 . S
H1148 N1143 0.984 1_545 S
H1149 N1143 0.985 . S
H1150 N1147 0.984 . S
H1151 N1147 0.985 . S
H1152 N1146 0.984 . S
H1153 N1146 0.984 . S
H1154 N1142 0.984 . S
H1155 N1142 0.985 . S
C1156 C1157 1.363 1_565 S
C1156 C1162 1.379 1_565 S
C1156 N1164 1.356 . S
C1157 C1156 1.363 1_545 S
C1157 C1163 1.363 . S
C1158 C1159 1.363 . S
C1158 C1163 1.379 . S
C1158 N1165 1.356 . S
C1159 C1158 1.363 . S
C1159 C1162 1.363 . S
N1160 C1162 1.356 1_565 S
N1160 H1172 0.984 . S
N1160 H1173 0.985 . S
N1161 C1163 1.356 . S
N1161 H1166 0.984 . S
N1161 H1167 0.985 . S
C1162 C1156 1.379 1_545 S
C1162 C1159 1.363 . S
C1162 N1160 1.356 1_545 S
C1163 C1157 1.363 . S
C1163 C1158 1.379 . S
C1163 N1161 1.356 . S
N1164 C1156 1.356 . S
N1164 H1170 0.984 . S
N1164 H1171 0.984 . S
N1165 C1158 1.356 . S
N1165 H1168 0.984 . S
N1165 H1169 0.985 . S
H1166 N1161 0.984 . S
H1167 N1161 0.985 . S
H1168 N1165 0.984 . S
H1169 N1165 0.985 . S
H1170 N1164 0.984 . S
H1171 N1164 0.984 . S
H1172 N1160 0.984 . S
H1173 N1160 0.985 . S
C1174 C1175 1.363 . S
C1174 C1180 1.379 . S
C1174 N1182 1.356 . S
C1175 C1174 1.363 . S
C1175 C1181 1.363 1_565 S
C1176 C1177 1.363 1_545 S
C1176 C1181 1.379 . S
C1176 N1183 1.356 . S
C1177 C1176 1.363 1_565 S
C1177 C1180 1.363 . S
N1178 C1180 1.356 . S
N1178 H1190 0.984 . S
N1178 H1191 0.985 . S
N1179 C1181 1.356 . S
N1179 H1184 0.984 . S
N1179 H1185 0.985 . S
C1180 C1174 1.379 . S
C1180 C1177 1.363 . S
C1180 N1178 1.356 . S
C1181 C1175 1.363 1_545 S
C1181 C1176 1.379 . S
C1181 N1179 1.356 . S
N1182 C1174 1.356 . S
N1182 H1188 0.984 . S
N1182 H1189 0.984 . S
N1183 C1176 1.356 . S
N1183 H1186 0.984 . S
N1183 H1187 0.985 . S
H1184 N1179 0.984 . S
H1185 N1179 0.985 . S
H1186 N1183 0.984 . S
H1187 N1183 0.985 . S
H1188 N1182 0.984 . S
H1189 N1182 0.984 . S
H1190 N1178 0.984 . S
H1191 N1178 0.985 . S
C1192 C1193 1.363 . S
C1192 C1198 1.379 . S
C1192 N1200 1.356 . S
C1193 C1192 1.363 . S
C1193 C1199 1.363 1_545 S
C1194 C1195 1.363 . S
C1194 C1199 1.379 1_545 S
C1194 N1201 1.356 1_545 S
C1195 C1194 1.363 . S
C1195 C1198 1.363 . S
N1196 C1198 1.356 . S
N1196 H1208 0.984 . S
N1196 H1209 0.985 . S
N1197 C1199 1.356 . S
N1197 H1202 0.984 . S
N1197 H1203 0.985 . S
C1198 C1192 1.379 . S
C1198 C1195 1.363 . S
C1198 N1196 1.356 . S
C1199 C1193 1.363 1_565 S
C1199 C1194 1.379 1_565 S
C1199 N1197 1.356 . S
N1200 C1192 1.356 . S
N1200 H1206 0.984 . S
N1200 H1207 0.984 . S
N1201 C1194 1.356 1_565 S
N1201 H1204 0.984 1_565 S
N1201 H1205 0.985 . S
H1202 N1197 0.984 . S
H1203 N1197 0.985 . S
H1204 N1201 0.984 1_545 S
H1205 N1201 0.985 . S
H1206 N1200 0.984 . S
H1207 N1200 0.984 . S
H1208 N1196 0.984 . S
H1209 N1196 0.985 . S
C1210 C1211 1.363 1_545 S
C1210 C1216 1.379 1_545 S
C1210 N1218 1.356 . S
C1211 C1210 1.363 1_565 S
C1211 C1217 1.363 . S
C1212 C1213 1.363 . S
C1212 C1217 1.379 . S
C1212 N1219 1.356 . S
C1213 C1212 1.363 . S
C1213 C1216 1.363 . S
N1214 C1216 1.356 1_545 S
N1214 H1226 0.984 . S
N1214 H1227 0.985 1_545 S
N1215 C1217 1.356 . S
N1215 H1220 0.984 . S
N1215 H1221 0.985 . S
C1216 C1210 1.379 1_565 S
C1216 C1213 1.363 . S
C1216 N1214 1.356 1_565 S
C1217 C1211 1.363 . S
C1217 C1212 1.379 . S
C1217 N1215 1.356 . S
N1218 C1210 1.356 . S
N1218 H1224 0.984 . S
N1218 H1225 0.984 . S
N1219 C1212 1.356 . S
N1219 H1222 0.984 . S
N1219 H1223 0.985 . S
H1220 N1215 0.984 . S
H1221 N1215 0.985 . S
H1222 N1219 0.984 . S
H1223 N1219 0.985 . S
H1224 N1218 0.984 . S
H1225 N1218 0.984 . S
H1226 N1214 0.984 . S
H1227 N1214 0.985 1_565 S
C1228 C1229 1.363 1_545 S
C1228 C1234 1.379 1_545 S
C1228 N1236 1.356 . S
C1229 C1228 1.363 1_565 S
C1229 C1235 1.363 . S
C1230 C1231 1.363 . S
C1230 C1235 1.379 . S
C1230 N1237 1.356 . S
C1231 C1230 1.363 . S
C1231 C1234 1.363 . S
N1232 C1234 1.356 1_545 S
N1232 H1244 0.984 . S
N1232 H1245 0.985 . S
N1233 C1235 1.356 . S
N1233 H1238 0.984 . S
N1233 H1239 0.985 . S
C1234 C1228 1.379 1_565 S
C1234 C1231 1.363 . S
C1234 N1232 1.356 1_565 S
C1235 C1229 1.363 . S
C1235 C1230 1.379 . S
C1235 N1233 1.356 . S
N1236 C1228 1.356 . S
N1236 H1242 0.984 . S
N1236 H1243 0.984 . S
N1237 C1230 1.356 . S
N1237 H1240 0.984 . S
N1237 H1241 0.985 . S
H1238 N1233 0.984 . S
H1239 N1233 0.985 . S
H1240 N1237 0.984 . S
H1241 N1237 0.985 . S
H1242 N1236 0.984 . S
H1243 N1236 0.984 . S
H1244 N1232 0.984 . S
H1245 N1232 0.985 . S
C1246 C1247 1.363 . S
C1246 C1252 1.379 1_545 S
C1246 N1254 1.356 1_545 S
C1247 C1246 1.363 . S
C1247 C1253 1.363 . S
C1248 C1249 1.363 . S
C1248 C1253 1.379 . S
C1248 N1255 1.356 . S
C1249 C1248 1.363 . S
C1249 C1252 1.363 1_545 S
N1250 C1252 1.356 . S
N1250 H1262 0.984 . S
N1250 H1263 0.985 . S
N1251 C1253 1.356 . S
N1251 H1256 0.984 . S
N1251 H1257 0.985 . S
C1252 C1246 1.379 1_565 S
C1252 C1249 1.363 1_565 S
C1252 N1250 1.356 . S
C1253 C1247 1.363 . S
C1253 C1248 1.379 . S
C1253 N1251 1.356 . S
N1254 C1246 1.356 1_565 S
N1254 H1260 0.984 . S
N1254 H1261 0.984 1_565 S
N1255 C1248 1.356 . S
N1255 H1258 0.984 . S
N1255 H1259 0.985 . S
H1256 N1251 0.984 . S
H1257 N1251 0.985 . S
H1258 N1255 0.984 . S
H1259 N1255 0.985 . S
H1260 N1254 0.984 . S
H1261 N1254 0.984 1_545 S
H1262 N1250 0.984 . S
H1263 N1250 0.985 . S
C1264 C1265 1.363 . S
C1264 C1270 1.379 . S
C1264 N1272 1.356 . S
C1265 C1264 1.363 . S
C1265 C1271 1.363 . S
C1266 C1267 1.363 . S
C1266 C1271 1.379 . S
C1266 N1273 1.356 . S
C1267 C1266 1.363 . S
C1267 C1270 1.363 . S
N1268 C1270 1.356 . S
N1268 H1280 0.984 . S
N1268 H1281 0.985 . S
N1269 C1271 1.356 . S
N1269 H1274 0.984 . S
N1269 H1275 0.985 . S
C1270 C1264 1.379 . S
C1270 C1267 1.363 . S
C1270 N1268 1.356 . S
C1271 C1265 1.363 . S
C1271 C1266 1.379 . S
C1271 N1269 1.356 . S
N1272 C1264 1.356 . S
N1272 H1278 0.984 . S
N1272 H1279 0.984 . S
N1273 C1266 1.356 . S
N1273 H1276 0.984 . S
N1273 H1277 0.985 . S
H1274 N1269 0.984 . S
H1275 N1269 0.985 . S
H1276 N1273 0.984 . S
H1277 N1273 0.985 . S
H1278 N1272 0.984 . S
H1279 N1272 0.984 . S
H1280 N1268 0.984 . S
H1281 N1268 0.985 . S
C1282 C1283 1.363 . S
C1282 C1288 1.379 . S
C1282 N1290 1.356 . S
C1283 C1282 1.363 . S
C1283 C1289 1.363 . S
C1284 C1285 1.363 . S
C1284 C1289 1.379 . S
C1284 N1291 1.356 . S
C1285 C1284 1.363 . S
C1285 C1288 1.363 . S
N1286 C1288 1.356 . S
N1286 H1298 0.984 . S
N1286 H1299 0.985 . S
N1287 C1289 1.356 . S
N1287 H1292 0.984 . S
N1287 H1293 0.985 . S
C1288 C1282 1.379 . S
C1288 C1285 1.363 . S
C1288 N1286 1.356 . S
C1289 C1283 1.363 . S
C1289 C1284 1.379 . S
C1289 N1287 1.356 . S
N1290 C1282 1.356 . S
N1290 H1296 0.984 . S
N1290 H1297 0.984 . S
N1291 C1284 1.356 . S
N1291 H1294 0.984 . S
N1291 H1295 0.985 . S
H1292 N1287 0.984 . S
H1293 N1287 0.985 . S
H1294 N1291 0.984 . S
H1295 N1291 0.985 . S
H1296 N1290 0.984 . S
H1297 N1290 0.984 . S
H1298 N1286 0.984 . S
H1299 N1286 0.985 . S
C1300 C1301 1.363 . S
C1300 C1306 1.379 . S
C1300 N1308 1.356 . S
C1301 C1300 1.363 . S
C1301 C1307 1.363 . S
C1302 C1303 1.363 . S
C1302 C1307 1.379 . S
C1302 N1309 1.356 . S
C1303 C1302 1.363 . S
C1303 C1306 1.363 . S
N1304 C1306 1.356 . S
N1304 H1316 0.984 . S
N1304 H1317 0.985 . S
N1305 C1307 1.356 . S
N1305 H1310 0.984 . S
N1305 H1311 0.985 . S
C1306 C1300 1.379 . S
C1306 C1303 1.363 . S
C1306 N1304 1.356 . S
C1307 C1301 1.363 . S
C1307 C1302 1.379 . S
C1307 N1305 1.356 . S
N1308 C1300 1.356 . S
N1308 H1314 0.984 . S
N1308 H1315 0.984 . S
N1309 C1302 1.356 . S
N1309 H1312 0.984 . S
N1309 H1313 0.985 . S
H1310 N1305 0.984 . S
H1311 N1305 0.985 . S
H1312 N1309 0.984 . S
H1313 N1309 0.985 . S
H1314 N1308 0.984 . S
H1315 N1308 0.984 . S
H1316 N1304 0.984 . S
H1317 N1304 0.985 . S
C1318 C1319 1.363 . S
C1318 C1324 1.379 . S
C1318 N1326 1.356 . S
C1319 C1318 1.363 . S
C1319 C1325 1.363 . S
C1320 C1321 1.363 . S
C1320 C1325 1.379 . S
C1320 N1327 1.356 . S
C1321 C1320 1.363 . S
C1321 C1324 1.363 . S
N1322 C1324 1.356 . S
N1322 H1334 0.984 . S
N1322 H1335 0.985 . S
N1323 C1325 1.356 . S
N1323 H1328 0.984 . S
N1323 H1329 0.985 . S
C1324 C1318 1.379 . S
C1324 C1321 1.363 . S
C1324 N1322 1.356 . S
C1325 C1319 1.363 . S
C1325 C1320 1.379 . S
C1325 N1323 1.356 . S
N1326 C1318 1.356 . S
N1326 H1332 0.984 . S
N1326 H1333 0.984 . S
N1327 C1320 1.356 . S
N1327 H1330 0.984 . S
N1327 H1331 0.985 . S
H1328 N1323 0.984 . S
H1329 N1323 0.985 . S
H1330 N1327 0.984 . S
H1331 N1327 0.985 . S
H1332 N1326 0.984 . S
H1333 N1326 0.984 . S
H1334 N1322 0.984 . S
H1335 N1322 0.985 . S
C1336 C1337 1.363 . S
C1336 C1342 1.379 . S
C1336 N1344 1.356 . S
C1337 C1336 1.363 . S
C1337 C1343 1.363 . S
C1338 C1339 1.363 . S
C1338 C1343 1.379 . S
C1338 N1345 1.356 . S
C1339 C1338 1.363 . S
C1339 C1342 1.363 . S
N1340 C1342 1.356 . S
N1340 H1352 0.984 . S
N1340 H1353 0.985 . S
N1341 C1343 1.356 . S
N1341 H1346 0.984 . S
N1341 H1347 0.985 . S
C1342 C1336 1.379 . S
C1342 C1339 1.363 . S
C1342 N1340 1.356 . S
C1343 C1337 1.363 . S
C1343 C1338 1.379 . S
C1343 N1341 1.356 . S
N1344 C1336 1.356 . S
N1344 H1350 0.984 . S
N1344 H1351 0.984 . S
N1345 C1338 1.356 . S
N1345 H1348 0.984 . S
N1345 H1349 0.985 . S
H1346 N1341 0.984 . S
H1347 N1341 0.985 . S
H1348 N1345 0.984 . S
H1349 N1345 0.985 . S
H1350 N1344 0.984 . S
H1351 N1344 0.984 . S
H1352 N1340 0.984 . S
H1353 N1340 0.985 . S
C1354 C1355 1.363 . S
C1354 C1360 1.379 . S
C1354 N1362 1.356 . S
C1355 C1354 1.363 . S
C1355 C1361 1.363 . S
C1356 C1357 1.363 . S
C1356 C1361 1.379 . S
C1356 N1363 1.356 . S
C1357 C1356 1.363 . S
C1357 C1360 1.363 . S
N1358 C1360 1.356 . S
N1358 H1370 0.984 . S
N1358 H1371 0.985 . S
N1359 C1361 1.356 . S
N1359 H1364 0.984 . S
N1359 H1365 0.985 . S
C1360 C1354 1.379 . S
C1360 C1357 1.363 . S
C1360 N1358 1.356 . S
C1361 C1355 1.363 . S
C1361 C1356 1.379 . S
C1361 N1359 1.356 . S
N1362 C1354 1.356 . S
N1362 H1368 0.984 . S
N1362 H1369 0.984 . S
N1363 C1356 1.356 . S
N1363 H1366 0.984 . S
N1363 H1367 0.985 . S
H1364 N1359 0.984 . S
H1365 N1359 0.985 . S
H1366 N1363 0.984 . S
H1367 N1363 0.985 . S
H1368 N1362 0.984 . S
H1369 N1362 0.984 . S
H1370 N1358 0.984 . S
H1371 N1358 0.985 . S
C1372 C1373 1.363 . S
C1372 C1378 1.379 . S
C1372 N1380 1.356 . S
C1373 C1372 1.363 . S
C1373 C1379 1.363 . S
C1374 C1375 1.363 . S
C1374 C1379 1.379 . S
C1374 N1381 1.356 . S
C1375 C1374 1.363 . S
C1375 C1378 1.363 . S
N1376 C1378 1.356 . S
N1376 H1388 0.984 . S
N1376 H1389 0.985 . S
N1377 C1379 1.356 . S
N1377 H1382 0.984 . S
N1377 H1383 0.985 . S
C1378 C1372 1.379 . S
C1378 C1375 1.363 . S
C1378 N1376 1.356 . S
C1379 C1373 1.363 . S
C1379 C1374 1.379 . S
C1379 N1377 1.356 . S
N1380 C1372 1.356 . S
N1380 H1386 0.984 . S
N1380 H1387 0.984 . S
N1381 C1374 1.356 . S
N1381 H1384 0.984 . S
N1381 H1385 0.985 . S
H1382 N1377 0.984 . S
H1383 N1377 0.985 . S
H1384 N1381 0.984 . S
H1385 N1381 0.985 . S
H1386 N1380 0.984 . S
H1387 N1380 0.984 . S
H1388 N1376 0.984 . S
H1389 N1376 0.985 . S
C1390 C1391 1.363 . S
C1390 C1396 1.379 . S
C1390 N1398 1.356 . S
C1391 C1390 1.363 . S
C1391 C1397 1.363 . S
C1392 C1393 1.363 . S
C1392 C1397 1.379 . S
C1392 N1399 1.356 . S
C1393 C1392 1.363 . S
C1393 C1396 1.363 . S
N1394 C1396 1.356 . S
N1394 H1406 0.984 . S
N1394 H1407 0.985 . S
N1395 C1397 1.356 . S
N1395 H1400 0.984 . S
N1395 H1401 0.985 . S
C1396 C1390 1.379 . S
C1396 C1393 1.363 . S
C1396 N1394 1.356 . S
C1397 C1391 1.363 . S
C1397 C1392 1.379 . S
C1397 N1395 1.356 . S
N1398 C1390 1.356 . S
N1398 H1404 0.984 . S
N1398 H1405 0.984 . S
N1399 C1392 1.356 . S
N1399 H1402 0.984 . S
N1399 H1403 0.985 . S
H1400 N1395 0.984 . S
H1401 N1395 0.985 . S
H1402 N1399 0.984 . S
H1403 N1399 0.985 . S
H1404 N1398 0.984 . S
H1405 N1398 0.984 . S
H1406 N1394 0.984 . S
H1407 N1394 0.985 . S
C1408 C1409 1.363 . S
C1408 C1414 1.379 . S
C1408 N1416 1.356 . S
C1409 C1408 1.363 . S
C1409 C1415 1.363 . S
C1410 C1411 1.363 . S
C1410 C1415 1.379 . S
C1410 N1417 1.356 . S
C1411 C1410 1.363 . S
C1411 C1414 1.363 . S
N1412 C1414 1.356 . S
N1412 H1424 0.984 . S
N1412 H1425 0.985 . S
N1413 C1415 1.356 . S
N1413 H1418 0.984 . S
N1413 H1419 0.985 . S
C1414 C1408 1.379 . S
C1414 C1411 1.363 . S
C1414 N1412 1.356 . S
C1415 C1409 1.363 . S
C1415 C1410 1.379 . S
C1415 N1413 1.356 . S
N1416 C1408 1.356 . S
N1416 H1422 0.984 . S
N1416 H1423 0.984 . S
N1417 C1410 1.356 . S
N1417 H1420 0.984 . S
N1417 H1421 0.985 . S
H1418 N1413 0.984 . S
H1419 N1413 0.985 . S
H1420 N1417 0.984 . S
H1421 N1417 0.985 . S
H1422 N1416 0.984 . S
H1423 N1416 0.984 . S
H1424 N1412 0.984 . S
H1425 N1412 0.985 . S
C1426 C1427 1.363 . S
C1426 C1432 1.379 . S
C1426 N1434 1.356 . S
C1427 C1426 1.363 . S
C1427 C1433 1.363 . S
C1428 C1429 1.363 . S
C1428 C1433 1.379 . S
C1428 N1435 1.356 . S
C1429 C1428 1.363 . S
C1429 C1432 1.363 . S
N1430 C1432 1.356 . S
N1430 H1442 0.984 . S
N1430 H1443 0.985 . S
N1431 C1433 1.356 . S
N1431 H1436 0.984 . S
N1431 H1437 0.985 . S
C1432 C1426 1.379 . S
C1432 C1429 1.363 . S
C1432 N1430 1.356 . S
C1433 C1427 1.363 . S
C1433 C1428 1.379 . S
C1433 N1431 1.356 . S
N1434 C1426 1.356 . S
N1434 H1440 0.984 . S
N1434 H1441 0.984 . S
N1435 C1428 1.356 . S
N1435 H1438 0.984 . S
N1435 H1439 0.985 . S
H1436 N1431 0.984 . S
H1437 N1431 0.985 . S
H1438 N1435 0.984 . S
H1439 N1435 0.985 . S
H1440 N1434 0.984 . S
H1441 N1434 0.984 . S
H1442 N1430 0.984 . S
H1443 N1430 0.985 . S
C1444 C1445 1.363 . S
C1444 C1450 1.379 . S
C1444 N1452 1.356 . S
C1445 C1444 1.363 . S
C1445 C1451 1.363 . S
C1446 C1447 1.363 . S
C1446 C1451 1.379 . S
C1446 N1453 1.356 . S
C1447 C1446 1.363 . S
C1447 C1450 1.363 . S
N1448 C1450 1.356 . S
N1448 H1460 0.984 . S
N1448 H1461 0.985 . S
N1449 C1451 1.356 . S
N1449 H1454 0.984 . S
N1449 H1455 0.985 . S
C1450 C1444 1.379 . S
C1450 C1447 1.363 . S
C1450 N1448 1.356 . S
C1451 C1445 1.363 . S
C1451 C1446 1.379 . S
C1451 N1449 1.356 . S
N1452 C1444 1.356 . S
N1452 H1458 0.984 . S
N1452 H1459 0.984 . S
N1453 C1446 1.356 . S
N1453 H1456 0.984 . S
N1453 H1457 0.985 . S
H1454 N1449 0.984 . S
H1455 N1449 0.985 . S
H1456 N1453 0.984 . S
H1457 N1453 0.985 . S
H1458 N1452 0.984 . S
H1459 N1452 0.984 . S
H1460 N1448 0.984 . S
H1461 N1448 0.985 . S
C1462 C1463 1.363 . S
C1462 C1468 1.379 . S
C1462 N1470 1.356 . S
C1463 C1462 1.363 . S
C1463 C1469 1.363 . S
C1464 C1465 1.363 . S
C1464 C1469 1.379 . S
C1464 N1471 1.356 . S
C1465 C1464 1.363 . S
C1465 C1468 1.363 . S
N1466 C1468 1.356 . S
N1466 H1478 0.984 . S
N1466 H1479 0.985 . S
N1467 C1469 1.356 . S
N1467 H1472 0.984 . S
N1467 H1473 0.985 . S
C1468 C1462 1.379 . S
C1468 C1465 1.363 . S
C1468 N1466 1.356 . S
C1469 C1463 1.363 . S
C1469 C1464 1.379 . S
C1469 N1467 1.356 . S
N1470 C1462 1.356 . S
N1470 H1476 0.984 . S
N1470 H1477 0.984 . S
N1471 C1464 1.356 . S
N1471 H1474 0.984 . S
N1471 H1475 0.985 . S
H1472 N1467 0.984 . S
H1473 N1467 0.985 . S
H1474 N1471 0.984 . S
H1475 N1471 0.985 . S
H1476 N1470 0.984 . S
H1477 N1470 0.984 . S
H1478 N1466 0.984 . S
H1479 N1466 0.985 . S
C1480 C1481 1.363 . S
C1480 C1486 1.379 . S
C1480 N1488 1.356 . S
C1481 C1480 1.363 . S
C1481 C1487 1.363 . S
C1482 C1483 1.363 . S
C1482 C1487 1.379 . S
C1482 N1489 1.356 . S
C1483 C1482 1.363 . S
C1483 C1486 1.363 . S
N1484 C1486 1.356 . S
N1484 H1496 0.984 . S
N1484 H1497 0.985 . S
N1485 C1487 1.356 . S
N1485 H1490 0.984 . S
N1485 H1491 0.985 . S
C1486 C1480 1.379 . S
C1486 C1483 1.363 . S
C1486 N1484 1.356 . S
C1487 C1481 1.363 . S
C1487 C1482 1.379 . S
C1487 N1485 1.356 . S
N1488 C1480 1.356 . S
N1488 H1494 0.984 . S
N1488 H1495 0.984 . S
N1489 C1482 1.356 . S
N1489 H1492 0.984 . S
N1489 H1493 0.985 . S
H1490 N1485 0.984 . S
H1491 N1485 0.985 . S
H1492 N1489 0.984 . S
H1493 N1489 0.985 . S
H1494 N1488 0.984 . S
H1495 N1488 0.984 . S
H1496 N1484 0.984 . S
H1497 N1484 0.985 . S
C1498 C1499 1.363 . S
C1498 C1504 1.379 . S
C1498 N1506 1.356 . S
C1499 C1498 1.363 . S
C1499 C1505 1.363 . S
C1500 C1501 1.363 . S
C1500 C1505 1.379 . S
C1500 N1507 1.356 . S
C1501 C1500 1.363 . S
C1501 C1504 1.363 . S
N1502 C1504 1.356 . S
N1502 H1514 0.984 . S
N1502 H1515 0.985 . S
N1503 C1505 1.356 . S
N1503 H1508 0.984 . S
N1503 H1509 0.985 . S
C1504 C1498 1.379 . S
C1504 C1501 1.363 . S
C1504 N1502 1.356 . S
C1505 C1499 1.363 . S
C1505 C1500 1.379 . S
C1505 N1503 1.356 . S
N1506 C1498 1.356 . S
N1506 H1512 0.984 . S
N1506 H1513 0.984 . S
N1507 C1500 1.356 . S
N1507 H1510 0.984 . S
N1507 H1511 0.985 . S
H1508 N1503 0.984 . S
H1509 N1503 0.985 . S
H1510 N1507 0.984 . S
H1511 N1507 0.985 . S
H1512 N1506 0.984 . S
H1513 N1506 0.984 . S
H1514 N1502 0.984 . S
H1515 N1502 0.985 . S
C1516 C1517 1.363 . S
C1516 C1522 1.379 . S
C1516 N1524 1.356 . S
C1517 C1516 1.363 . S
C1517 C1523 1.363 . S
C1518 C1519 1.363 . S
C1518 C1523 1.379 . S
C1518 N1525 1.356 . S
C1519 C1518 1.363 . S
C1519 C1522 1.363 . S
N1520 C1522 1.356 . S
N1520 H1532 0.984 . S
N1520 H1533 0.985 . S
N1521 C1523 1.356 . S
N1521 H1526 0.984 . S
N1521 H1527 0.985 . S
C1522 C1516 1.379 . S
C1522 C1519 1.363 . S
C1522 N1520 1.356 . S
C1523 C1517 1.363 . S
C1523 C1518 1.379 . S
C1523 N1521 1.356 . S
N1524 C1516 1.356 . S
N1524 H1530 0.984 . S
N1524 H1531 0.984 . S
N1525 C1518 1.356 . S
N1525 H1528 0.984 . S
N1525 H1529 0.985 . S
H1526 N1521 0.984 . S
H1527 N1521 0.985 . S
H1528 N1525 0.984 . S
H1529 N1525 0.985 . S
H1530 N1524 0.984 . S
H1531 N1524 0.984 . S
H1532 N1520 0.984 . S
H1533 N1520 0.985 . S
C1534 C1535 1.363 . S
C1534 C1540 1.379 . S
C1534 N1542 1.356 . S
C1535 C1534 1.363 . S
C1535 C1541 1.363 . S
C1536 C1537 1.363 . S
C1536 C1541 1.379 . S
C1536 N1543 1.356 . S
C1537 C1536 1.363 . S
C1537 C1540 1.363 . S
N1538 C1540 1.356 . S
N1538 H1550 0.984 . S
N1538 H1551 0.985 . S
N1539 C1541 1.356 . S
N1539 H1544 0.984 . S
N1539 H1545 0.985 . S
C1540 C1534 1.379 . S
C1540 C1537 1.363 . S
C1540 N1538 1.356 . S
C1541 C1535 1.363 . S
C1541 C1536 1.379 . S
C1541 N1539 1.356 . S
N1542 C1534 1.356 . S
N1542 H1548 0.984 . S
N1542 H1549 0.984 . S
N1543 C1536 1.356 . S
N1543 H1546 0.984 . S
N1543 H1547 0.985 . S
H1544 N1539 0.984 . S
H1545 N1539 0.985 . S
H1546 N1543 0.984 . S
H1547 N1543 0.985 . S
H1548 N1542 0.984 . S
H1549 N1542 0.984 . S
H1550 N1538 0.984 . S
H1551 N1538 0.985 . S
C545 C15 1.529 . S
C547 C151 1.529 . S
C563 C185 1.529 . S
C565 C49 1.529 . S
C581 C226 1.529 . S
C583 C83 1.529 . S
C599 C253 1.529 . S
C601 C117 1.529 . S
C617 C287 1.529 . S
C619 C423 1.529 . S
C635 C457 1.529 . S
C637 C321 1.529 . S
C653 C362 1.529 . S
C655 C491 1.529 . S
C671 C396 1.529 . S
C673 C525 1.529 . S
C689 C17 1.837 . S
C691 C445 1.810 . S
C707 C51 1.837 . S
C709 C411 1.810 . S
C725 C85 1.837 . S
C727 C513 1.810 . S
C743 C479 1.810 . S
C745 C119 1.837 . S
C761 C153 1.837 . S
C763 C309 1.810 . S
C779 C187 1.837 . S
C781 C275 1.810 . S
C797 C375 1.810 . S
C799 C221 1.837 . S
C815 C255 1.837 . S
C817 C341 1.810 . S
C833 C289 1.837 . S
C835 C173 1.810 . S
C851 C139 1.810 . S
C853 C323 1.837 . S
C869 C357 1.837 . S
C871 C241 1.810 . S
C887 C391 1.837 . S
C889 C205 1.810 . S
C905 C425 1.837 . S
C907 C37 1.810 . S
C923 C3 1.810 . S
C925 C459 1.837 . S
C941 C105 1.810 . S
C943 C493 1.837 . S
C959 C527 1.837 . S
C961 C71 1.810 . S
C977 C56 1.789 1_545 S
C979 C22 1.789 1_565 S
C995 C90 1.789 1_545 S
C997 C124 1.789 1_565 S
C1013 C158 1.789 1_545 S
C1015 C192 1.789 1_565 S
C1031 C219 1.789 1_565 S
C1033 C260 1.789 1_545 S
C1049 C328 1.789 . S
C1051 C294 1.789 . S
C1067 C389 1.789 . S
C1069 C355 1.789 . S
C1085 C464 1.789 . S
C1087 C430 1.789 . S
C1103 C498 1.789 . S
C1105 C532 1.789 . S
C1121 C6 1.171 . S
C1123 C266 1.162 . S
C1139 C210 1.162 . S
C1141 C40 1.171 . S
C1157 C74 1.171 . S
C1159 C198 1.162 . S
C1175 C164 1.162 . S
C1177 C108 1.171 . S
C1193 C142 1.171 . S
C1195 C130 1.162 . S
C1211 C176 1.171 . S
C1213 C96 1.162 . S
C1229 C232 1.171 . S
C1231 C62 1.162 . S
C1247 C28 1.162 . S
C1249 C244 1.171 . S
C1265 C278 1.171 . S
C1267 C538 1.162 . S
C1283 C312 1.171 . S
C1285 C504 1.162 . S
C1301 C470 1.162 . S
C1303 C368 1.171 . S
C1319 C402 1.171 . S
C1321 C436 1.162 . S
C1337 C414 1.171 . S
C1339 C380 1.162 . S
C1355 C448 1.171 . S
C1357 C346 1.162 . S
C1373 C482 1.171 . S
C1375 C334 1.162 . S
C1391 C300 1.162 . S
C1393 C516 1.171 . S
C1409 C343 1.811 . S
C1411 C1 1.811 . S
C1427 C35 1.811 . S
C1429 C377 1.811 . S
C1445 C273 1.811 . S
C1447 C69 1.811 . S
C1463 C103 1.811 . S
C1465 C307 1.811 . S
C1481 C137 1.811 . S
C1483 C477 1.811 . S
C1499 C511 1.811 . S
C1501 C171 1.811 . S
C1517 C409 1.811 . S
C1519 C207 1.811 . S
C1535 C443 1.811 . S
C1537 C239 1.811 . S
