# Generated by pormake.
# Topology unj, (4)-cn, num edge types: 1
# Building blocks:
#     Node 0, Type 0, BuildingBlock: AZAVOO_clean_sbu_0, # of connection points: 4
#     Node 1, Type 0, BuildingBlock: AZAVOO_clean_sbu_0, # of connection points: 4
#     Node 2, Type 0, BuildingBlock: AZAVOO_clean_sbu_0, # of connection points: 4
#     Node 3, Type 0, BuildingBlock: AZAVOO_clean_sbu_0, # of connection points: 4
#     Node 4, Type 0, BuildingBlock: AZAVOO_clean_sbu_0, # of connection points: 4
#     Node 5, Type 0, BuildingBlock: AZAVOO_clean_sbu_0, # of connection points: 4
#     Edge 6, Type (0, 0), BuildingBlock: UVAHIK_clean_linker_0, # of connection points: 2
#     Edge 7, Type (0, 0), BuildingBlock: UVAHIK_clean_linker_0, # of connection points: 2
#     Edge 8, Type (0, 0), BuildingBlock: UVAHIK_clean_linker_0, # of connection points: 2
#     Edge 9, Type (0, 0), BuildingBlock: UVAHIK_clean_linker_0, # of connection points: 2
#     Edge 10, Type (0, 0), BuildingBlock: UVAHIK_clean_linker_0, # of connection points: 2
#     Edge 11, Type (0, 0), BuildingBlock: UVAHIK_clean_linker_0, # of connection points: 2
#     Edge 12, Type (0, 0), BuildingBlock: UVAHIK_clean_linker_0, # of connection points: 2
#     Edge 13, Type (0, 0), BuildingBlock: UVAHIK_clean_linker_0, # of connection points: 2
#     Edge 14, Type (0, 0), BuildingBlock: UVAHIK_clean_linker_0, # of connection points: 2
#     Edge 15, Type (0, 0), BuildingBlock: UVAHIK_clean_linker_0, # of connection points: 2
#     Edge 16, Type (0, 0), BuildingBlock: UVAHIK_clean_linker_0, # of connection points: 2
#     Edge 17, Type (0, 0), BuildingBlock: UVAHIK_clean_linker_0, # of connection points: 2
# Relax obj value: 0.028
# Max RMSD: 0.066
# Mean RMSD: 0.065
data_MOF--net-unj--node1-AZAVOO_clean_sbu_0--edge1-UVAHIK_clean_linker_0
_symmetry_space_group_name_H-M    P1
_symmetry_Int_Tables_number       1
_symmetry_cell_setting            triclinic
loop_
_symmetry_equiv_pos_as_xyz
'x, y, z'
_cell_length_a     45.180551
_cell_length_b     45.321857
_cell_length_c     42.575539
_cell_angle_alpha  89.962266
_cell_angle_beta   90.037131
_cell_angle_gamma 120.39573
loop_
_atom_site_label
_atom_site_type_symbol
_atom_site_fract_x
_atom_site_fract_y
_atom_site_fract_z
_atom_type_partial_charge
Mg0 Mg 0.51125 0.24388 0.56139 0.0
O1 O 0.54596 0.24202 0.59962 0.0
O2 O 0.57993 0.22552 0.57727 0.0
Mg3 Mg 0.56555 0.21508 0.52515 0.0
C4 C 0.56992 0.23495 0.60129 0.0
C5 C 0.46234 0.26063 0.59254 0.0
O6 O 0.44443 0.23628 0.57209 0.0
O7 O 0.55581 0.29283 0.5411 0.0
O8 O 0.58546 0.27238 0.51662 0.0
O9 O 0.47242 0.18962 0.57044 0.0
O10 O 0.5139 0.20615 0.53542 0.0
C11 C 0.58064 0.29709 0.52359 0.0
C12 C 0.48788 0.18154 0.54955 0.0
O13 O 0.49448 0.27232 0.59427 0.0
Mg14 Mg 0.21181 0.39787 0.72903 0.0
O15 O 0.2444 0.43293 0.76951 0.0
O16 O 0.29812 0.46519 0.75209 0.0
Mg17 Mg 0.29995 0.45172 0.70076 0.0
C18 C 0.27572 0.45599 0.77385 0.0
C19 C 0.13467 0.36926 0.74149 0.0
O20 O 0.1346 0.36206 0.71159 0.0
O21 O 0.21093 0.44248 0.70487 0.0
O22 O 0.26506 0.47299 0.68774 0.0
O23 O 0.22662 0.3591 0.74281 0.0
O24 O 0.25506 0.40085 0.70883 0.0
C25 C 0.23474 0.46817 0.69028 0.0
C26 C 0.25278 0.37546 0.72435 0.0
O27 O 0.16308 0.38422 0.75615 0.0
Mg28 Mg 0.75842 0.22029 0.95266 0.0
O29 O 0.72753 0.22414 0.91151 0.0
O30 O 0.67411 0.20566 0.9282 0.0
Mg31 Mg 0.6702 0.18866 0.97934 0.0
C32 C 0.69695 0.21783 0.90674 0.0
C33 C 0.8113 0.24499 0.89801 0.0
O34 O 0.78478 0.21881 0.88471 0.0
O35 O 0.76133 0.26698 0.97659 0.0
O36 O 0.7075 0.24393 0.99415 0.0
O37 O 0.74206 0.16624 0.93947 0.0
O38 O 0.71372 0.18061 0.97227 0.0
C39 C 0.73819 0.26912 0.99197 0.0
C40 C 0.71567 0.15696 0.95743 0.0
O41 O 0.80846 0.25301 0.92601 0.0
Mg42 Mg 0.48865 0.743 0.0598 0.0
O43 O 0.45474 0.7481 0.09677 0.0
O44 O 0.42366 0.76752 0.07344 0.0
Mg45 Mg 0.4392 0.77654 0.02152 0.0
C46 C 0.43227 0.75722 0.09783 0.0
C47 C 0.51462 0.72608 0.12039 0.0
O48 O 0.51829 0.75601 0.12728 0.0
O49 O 0.44239 0.69546 0.03945 0.0
O50 O 0.41574 0.71857 0.01392 0.0
O51 O 0.53007 0.79655 0.06834 0.0
O52 O 0.48924 0.78184 0.03288 0.0
C53 C 0.4184 0.69269 0.02153 0.0
C54 C 0.51586 0.80566 0.04701 0.0
O55 O 0.50118 0.71229 0.0942 0.0
Mg56 Mg 0.78018 0.59503 0.23261 0.0
O57 O 0.74722 0.5606 0.27323 0.0
O58 O 0.69328 0.52899 0.25613 0.0
Mg59 Mg 0.69147 0.54253 0.20478 0.0
C60 C 0.7158 0.53794 0.27777 0.0
C61 C 0.85278 0.60502 0.24838 0.0
O62 O 0.84997 0.59451 0.2192 0.0
O63 O 0.7792 0.54922 0.20889 0.0
O64 O 0.72498 0.51974 0.19179 0.0
O65 O 0.76651 0.6347 0.24611 0.0
O66 O 0.73728 0.59293 0.21237 0.0
C67 C 0.75497 0.52375 0.19441 0.0
C68 C 0.74013 0.61858 0.22783 0.0
O69 O 0.82864 0.608 0.26037 0.0
Mg70 Mg 0.23878 0.77189 0.44592 0.0
O71 O 0.27031 0.76865 0.40513 0.0
O72 O 0.32263 0.78427 0.42325 0.0
Mg73 Mg 0.32539 0.79913 0.47489 0.0
C74 C 0.30062 0.77393 0.40106 0.0
C75 C 0.16239 0.71692 0.42711 0.0
O76 O 0.1617 0.70584 0.45577 0.0
O77 O 0.23311 0.72323 0.46837 0.0
O78 O 0.28605 0.74375 0.48745 0.0
O79 O 0.25769 0.82695 0.43466 0.0
O80 O 0.28342 0.80954 0.46757 0.0
C81 C 0.25509 0.71943 0.48405 0.0
C82 C 0.2832 0.83443 0.45329 0.0
O83 O 0.18994 0.7423 0.4168 0.0
C84 C 0.48741 0.13684 0.51456 0.0
C85 C 0.47466 0.14541 0.54098 0.0
C86 C 0.47177 0.10293 0.50422 0.0
C87 C 0.41197 0.01352 0.52874 0.0
H88 H 0.39137 -0.00247 0.4398 0.0
C89 C 0.30964 0.89763 0.4447 0.0
C90 C 0.31084 0.87017 0.4587 0.0
C91 C 0.33395 0.93139 0.45256 0.0
C92 C 0.39689 0.0016 0.46469 0.0
H93 H 0.43645 0.12502 0.578 0.0
H94 H 0.40924 0.06612 0.56001 0.0
H95 H 0.4263 0.05601 0.4592 0.0
H96 H 0.33933 0.85679 0.49109 0.0
H97 H 0.382 0.91529 0.504 0.0
H98 H 0.38147 0.9594 0.53457 0.0
C99 C 0.4314 0.08543 0.54734 0.0
C100 C 0.41725 0.03506 0.47576 0.0
C101 C 0.44693 0.11926 0.55759 0.0
C102 C 0.33761 0.87721 0.47974 0.0
C103 C 0.36195 0.91085 0.48743 0.0
C104 C 0.39167 0.98015 0.51772 0.0
C105 C 0.44322 0.07695 0.52022 0.0
C106 C 0.42455 0.04139 0.50799 0.0
C107 C 0.35997 0.93832 0.47453 0.0
C108 C 0.38352 0.97379 0.48562 0.0
H109 H 0.50873 0.15645 0.50124 0.0
H110 H 0.4817 0.0971 0.48346 0.0
H111 H 0.41742 0.01753 0.55366 0.0
H112 H 0.28929 0.89305 0.42844 0.0
H113 H 0.33149 0.95196 0.4424 0.0
C114 C 0.46274 0.29788 0.63661 0.0
C115 C 0.44473 0.27289 0.61354 0.0
C116 C 0.44539 0.30882 0.65639 0.0
C117 C 0.35771 0.28449 0.68398 0.0
H118 H 0.39632 0.38205 0.69514 0.0
C119 C 0.30553 0.38265 0.69848 0.0
C120 C 0.27943 0.36586 0.72092 0.0
C121 C 0.32943 0.37243 0.69312 0.0
C122 C 0.38524 0.3547 0.69238 0.0
H123 H 0.3944 0.23975 0.59328 0.0
H124 H 0.36454 0.25911 0.62712 0.0
H125 H 0.43061 0.36089 0.67036 0.0
H126 H 0.25854 0.32566 0.75599 0.0
H127 H 0.30057 0.30763 0.74655 0.0
H128 H 0.3116 0.2784 0.70413 0.0
C129 C 0.39186 0.26985 0.63049 0.0
C130 C 0.40504 0.34255 0.67846 0.0
C131 C 0.40911 0.25899 0.61081 0.0
C132 C 0.27832 0.33907 0.7385 0.0
C133 C 0.30232 0.32871 0.73305 0.0
C134 C 0.33787 0.29664 0.69778 0.0
C135 C 0.40971 0.29488 0.65353 0.0
C136 C 0.39105 0.30738 0.67308 0.0
C137 C 0.32789 0.34504 0.70997 0.0
C138 C 0.35099 0.33196 0.70111 0.0
H139 H 0.49018 0.30897 0.63938 0.0
H140 H 0.45986 0.32807 0.67399 0.0
H141 H 0.34643 0.25717 0.68076 0.0
H142 H 0.30694 0.40304 0.68414 0.0
H143 H 0.34822 0.38511 0.67469 0.0
C144 C 0.87462 0.28699 0.89734 0.0
C145 C 0.84468 0.26308 0.88146 0.0
C146 C 0.90651 0.30202 0.88231 0.0
C147 C 0.94781 0.31908 0.80428 0.0
H148 H 0.02263 0.31978 0.84962 0.0
C149 C 0.0706 0.34097 0.74208 0.0
C150 C 0.10212 0.35996 0.75776 0.0
C151 C 0.03979 0.3318 0.75741 0.0
C152 C 0.00222 0.32032 0.83676 0.0
H153 H 0.82463 0.23711 0.83702 0.0
H154 H 0.88019 0.26336 0.81086 0.0
H155 H 0.96782 0.30001 0.87582 0.0
H156 H 0.12604 0.38465 0.80176 0.0
H157 H 0.07229 0.36911 0.82837 0.0
H158 H 0.98211 0.33928 0.76518 0.0
C159 C 0.87902 0.27056 0.83489 0.0
C160 C 0.97078 0.30895 0.85179 0.0
C161 C 0.84719 0.25536 0.84996 0.0
C162 C 0.10217 0.36984 0.78906 0.0
C163 C 0.07133 0.36079 0.80437 0.0
C164 C 0.9793 0.33062 0.78929 0.0
C165 C 0.90909 0.29367 0.85103 0.0
C166 C 0.94311 0.30785 0.83562 0.0
C167 C 0.03974 0.34154 0.78876 0.0
C168 C 0.00679 0.33101 0.80522 0.0
H169 H 0.87358 0.29356 0.9216 0.0
H170 H 0.92919 0.32005 0.89524 0.0
H171 H 0.9271 0.31898 0.79134 0.0
H172 H 0.06962 0.33283 0.718 0.0
H173 H 0.01594 0.31651 0.74481 0.0
C174 C 0.51815 0.8514 0.01223 0.0
C175 C 0.53048 0.84203 0.03847 0.0
C176 C 0.53428 0.8855 1.0024 0.0
C177 C 0.59338 0.974 0.02889 0.0
H178 H 0.61358 0.99307 0.94016 0.0
C179 C 0.69228 0.09447 0.94719 0.0
C180 C 0.6892 0.12058 0.96181 0.0
C181 C 0.66926 0.06012 0.95434 0.0
C182 C 0.60817 0.98812 0.965 0.0
H183 H 0.56876 0.86116 0.07546 0.0
H184 H 0.59685 0.92051 0.05834 0.0
H185 H 0.58014 0.93383 0.95821 0.0
H186 H 0.65866 0.13094 0.99445 0.0
H187 H 0.61831 0.07137 0.00622 0.0
H188 H 0.62227 0.02805 0.03594 0.0
C189 C 0.5746 0.90162 0.04546 0.0
C190 C 0.5887 0.95424 0.9753 0.0
C191 C 0.55858 0.86756 0.0552 0.0
C192 C 0.66183 0.11158 0.98267 0.0
C193 C 0.63882 0.07736 0.9897 0.0
C194 C 0.61273 0.00779 0.01861 0.0
C195 C 0.56293 0.91091 0.01871 0.0
C196 C 0.58145 0.94683 0.00742 0.0
C197 C 0.64273 0.05126 0.97622 0.0
C198 C 0.62061 0.01526 0.98659 0.0
H199 H 0.49659 0.83229 0.99879 0.0
H200 H 0.52447 0.89196 0.98192 0.0
H201 H 0.58795 0.96914 0.05374 0.0
H202 H 0.71313 0.10058 0.93105 0.0
H203 H 0.67312 0.04062 0.94371 0.0
C204 C 0.68666 0.61119 0.20332 0.0
C205 C 0.71332 0.62807 0.22525 0.0
C206 C 0.6616 0.62021 0.19979 0.0
C207 C 0.64755 0.69209 0.20874 0.0
H208 H 0.55312 0.62288 0.19118 0.0
C209 C 0.54875 0.72869 0.16778 0.0
C210 C 0.53018 0.71112 0.14083 0.0
C211 C 0.56723 0.71698 0.18485 0.0
C212 C 0.57938 0.64251 0.19604 0.0
H213 H 0.73456 0.66782 0.26073 0.0
H214 H 0.69062 0.68396 0.25427 0.0
H215 H 0.59342 0.60568 0.20937 0.0
H216 H 0.51496 0.66645 0.11168 0.0
H217 H 0.5473 0.64616 0.1413 0.0
H218 H 0.63386 0.72886 0.19432 0.0
C219 C 0.6892 0.66353 0.23996 0.0
C220 C 0.60244 0.63268 0.20649 0.0
C221 C 0.7143 0.65428 0.24368 0.0
C222 C 0.52905 0.68063 0.13228 0.0
C223 C 0.54746 0.66889 0.14939 0.0
C224 C 0.62447 0.70194 0.19828 0.0
C225 C 0.66261 0.64656 0.21791 0.0
C226 C 0.63703 0.6573 0.21202 0.0
C227 C 0.56742 0.68737 0.17543 0.0
C228 C 0.59037 0.67718 0.19094 0.0
H229 H 0.68541 0.5914 0.18824 0.0
H230 H 0.64199 0.60718 0.18207 0.0
H231 H 0.67408 0.71165 0.21254 0.0
H232 H 0.54998 0.75215 0.17515 0.0
H233 H 0.58197 0.73152 0.20505 0.0
C234 C 0.10082 0.67215 0.41777 0.0
C235 C 0.13084 0.70162 0.40769 0.0
C236 C 0.0706 0.65884 0.40014 0.0
C237 C 0.0374 0.66281 0.32106 0.0
H238 H 0.95153 0.62938 0.36576 0.0
C239 C 0.90802 0.6054 0.25551 0.0
C240 C 0.88382 0.6135 0.26696 0.0
C241 C 0.93753 0.61372 0.27283 0.0
C242 C 0.97531 0.63886 0.35288 0.0
H243 H 0.15275 0.73999 0.37094 0.0
H244 H 0.10007 0.71737 0.34069 0.0
H245 H 0.00439 0.64873 0.39517 0.0
H246 H 0.87161 0.63666 0.3056 0.0
H247 H 0.92346 0.652 0.3354 0.0
H248 H 0.0086 0.6544 0.27883 0.0
C249 C 0.09989 0.70402 0.36185 0.0
C250 C 0.00561 0.6495 0.36977 0.0
C251 C 0.13012 0.71715 0.37934 0.0
C252 C 0.88969 0.62994 0.29618 0.0
C253 C 0.91935 0.63853 0.31337 0.0
C254 C 0.00715 0.65241 0.30419 0.0
C255 C 0.06964 0.67483 0.37211 0.0
C256 C 0.03711 0.66187 0.35409 0.0
C257 C 0.94372 0.6306 0.3019 0.0
C258 C 0.97573 0.64052 0.31988 0.0
H259 H 0.10056 0.65944 0.43941 0.0
H260 H 0.04797 0.636 0.4085 0.0
H261 H 0.06107 0.6717 0.30815 0.0
H262 H 0.90414 0.59248 0.2332 0.0
H263 H 0.95539 0.60667 0.26348 0.0
C264 C 0.6282 0.33492 0.48688 0.0
C265 C 0.60249 0.33067 0.50811 0.0
C266 C 0.6452 0.36431 0.46841 0.0
C267 C 0.68508 0.43291 0.43622 0.0
H268 H 0.62426 0.46013 0.39886 0.0
C269 C 0.7288 0.52992 0.33359 0.0
C270 C 0.70514 0.52075 0.30879 0.0
C271 C 0.71881 0.51251 0.36231 0.0
C272 C 0.64161 0.45284 0.40904 0.0
H273 H 0.5764 0.35536 0.52819 0.0
H274 H 0.60659 0.40702 0.49629 0.0
H275 H 0.6039 0.41954 0.44211 0.0
H276 H 0.65221 0.48638 0.29508 0.0
H277 H 0.63512 0.45581 0.34461 0.0
H278 H 0.72205 0.4646 0.40177 0.0
C279 C 0.61298 0.38715 0.49344 0.0
C280 C 0.6301 0.42991 0.43421 0.0
C281 C 0.59582 0.3576 0.51189 0.0
C282 C 0.67115 0.49424 0.31362 0.0
C283 C 0.66124 0.47684 0.34221 0.0
C284 C 0.69653 0.45571 0.4109 0.0
C285 C 0.63713 0.39039 0.47078 0.0
C286 C 0.65135 0.4189 0.44756 0.0
C287 C 0.68496 0.48555 0.36687 0.0
C288 C 0.67458 0.46518 0.39642 0.0
H289 H 0.63419 0.31484 0.4834 0.0
H290 H 0.66334 0.36565 0.45105 0.0
H291 H 0.70234 0.42544 0.44627 0.0
H292 H 0.75515 0.55033 0.33077 0.0
H293 H 0.73765 0.52011 0.38091 0.0
C294 C 0.20941 0.66294 0.50651 0.0
C295 C 0.2443 0.68741 0.50182 0.0
C296 C 0.1999 0.63593 0.52781 0.0
C297 C 0.23071 0.61962 0.60013 0.0
H298 H 0.18184 0.52255 0.5815 0.0
C299 C 0.25437 0.52576 0.6676 0.0
C300 C 0.22729 0.4927 0.6744 0.0
C301 C 0.24874 0.54816 0.6497 0.0
C302 C 0.19477 0.54952 0.58728 0.0
H303 H 0.29643 0.70104 0.51401 0.0
H304 H 0.27978 0.65455 0.55098 0.0
H305 H 0.1858 0.56344 0.54143 0.0
H306 H 0.17275 0.45746 0.66847 0.0
H307 H 0.16293 0.4969 0.63655 0.0
H308 H 0.24088 0.60625 0.64535 0.0
C309 C 0.25986 0.65648 0.5386 0.0
C310 C 0.19708 0.57282 0.56435 0.0
C311 C 0.26933 0.68306 0.51731 0.0
C312 C 0.19408 0.48287 0.6637 0.0
C313 C 0.1885 0.50529 0.6453 0.0
C314 C 0.22826 0.59648 0.62297 0.0
C315 C 0.22516 0.63333 0.54477 0.0
C316 C 0.2163 0.6081 0.57026 0.0
C317 C 0.21591 0.53805 0.6379 0.0
C318 C 0.21157 0.56132 0.61635 0.0
H319 H 0.1895 0.66551 0.49489 0.0
H320 H 0.17295 0.61813 0.53212 0.0
H321 H 0.24526 0.64674 0.60531 0.0
H322 H 0.28022 0.53415 0.67559 0.0
H323 H 0.2705 0.57304 0.64406 0.0
C324 C 0.65634 0.22371 0.87069 0.0
C325 C 0.68731 0.22395 0.87513 0.0
C326 C 0.64651 0.22821 0.84077 0.0
C327 C 0.65729 0.21634 0.75762 0.0
H328 H 0.61962 0.27552 0.74413 0.0
C329 C 0.61617 0.23522 0.63425 0.0
C330 C 0.58607 0.23703 0.63218 0.0
C331 C 0.63086 0.23627 0.66345 0.0
C332 C 0.6297 0.25856 0.74753 0.0
H333 H 0.7324 0.22946 0.85151 0.0
H334 H 0.71492 0.2369 0.79915 0.0
H335 H 0.64094 0.27255 0.79599 0.0
H336 H 0.54785 0.24142 0.65932 0.0
H337 H 0.57284 0.24232 0.71015 0.0
H338 H 0.64516 0.20144 0.70956 0.0
C339 C 0.69833 0.23324 0.81894 0.0
C340 C 0.64204 0.257 0.77723 0.0
C341 C 0.7084 0.22916 0.84895 0.0
C342 C 0.57116 0.24018 0.66 0.0
C343 C 0.58565 0.24091 0.68921 0.0
C344 C 0.64464 0.21762 0.72798 0.0
C345 C 0.66721 0.23268 0.81454 0.0
C346 C 0.65575 0.2357 0.78263 0.0
C347 C 0.61564 0.23884 0.69135 0.0
C348 C 0.63044 0.23857 0.72259 0.0
H349 H 0.63952 0.21987 0.89032 0.0
H350 H 0.62224 0.22735 0.83806 0.0
H351 H 0.66733 0.19937 0.7612 0.0
H352 H 0.6285 0.23305 0.61328 0.0
H353 H 0.65427 0.23522 0.6641 0.0
C354 C 0.32069 0.49913 0.80983 0.0
C355 C 0.28654 0.47303 0.80492 0.0
C356 C 0.33093 0.51602 0.83863 0.0
C357 C 0.29711 0.53703 0.90828 0.0
H358 H 0.38929 0.56961 0.93923 0.0
C359 C 0.36963 0.65645 0.98529 0.0
C360 C 0.39507 0.65938 0.00625 0.0
C361 C 0.35142 0.62728 0.96675 0.0
C362 C 0.36321 0.56023 0.93141 0.0
H363 H 0.23649 0.44383 0.8269 0.0
H364 H 0.25455 0.47326 0.87739 0.0
H365 H 0.36775 0.53001 0.89527 0.0
H366 H 0.41929 0.63261 0.02588 0.0
H367 H 0.38703 0.58139 0.99381 0.0
H368 H 0.29266 0.56743 0.94437 0.0
C369 C 0.27328 0.48084 0.85871 0.0
C370 C 0.35103 0.53787 0.90584 0.0
C371 C 0.26297 0.4639 0.82979 0.0
C372 C 0.40013 0.63138 0.00978 0.0
C373 C 0.38178 0.60209 0.99124 0.0
C374 C 0.30924 0.5593 0.93397 0.0
C375 C 0.30737 0.50724 0.86341 0.0
C376 C 0.31827 0.52688 0.89332 0.0
C377 C 0.35801 0.60016 0.96877 0.0
C378 C 0.34284 0.57202 0.94523 0.0
H379 H 0.33957 0.50695 0.79126 0.0
H380 H 0.35722 0.53665 0.84117 0.0
H381 H 0.27176 0.52913 0.89924 0.0
H382 H 0.36483 0.67737 0.98203 0.0
H383 H 0.33358 0.62694 0.94955 0.0
C384 C 0.72117 0.30255 0.02637 0.0
C385 C 0.74723 0.30028 0.01048 0.0
C386 C 0.72924 0.32887 0.04761 0.0
C387 C 0.79137 0.4147 0.07211 0.0
H388 H 0.74415 0.38309 0.15194 0.0
C389 C 0.7947 0.50701 0.16913 0.0
C390 C 0.76154 0.49844 0.1789 0.0
C391 C 0.79966 0.48383 0.15133 0.0
C392 C 0.75767 0.39234 0.12985 0.0
H393 H 0.80225 0.32538 0.00307 0.0
H394 H 0.81629 0.37215 0.04023 0.0
H395 H 0.74031 0.34164 0.11332 0.0
H396 H 0.70796 0.45843 0.17897 0.0
H397 H 0.7166 0.41826 0.14845 0.0
H398 H 0.80733 0.46547 0.08823 0.0
C399 C 0.78965 0.35301 0.03626 0.0
C400 C 0.75546 0.36865 0.10778 0.0
C401 C 0.78158 0.32631 0.015 0.0
C402 C 0.7338 0.46588 0.1717 0.0
C403 C 0.73879 0.44273 0.15438 0.0
C404 C 0.79348 0.43855 0.09427 0.0
C405 C 0.76352 0.3538 0.05342 0.0
C406 C 0.7712 0.37951 0.07828 0.0
C407 C 0.77164 0.45156 0.14359 0.0
C408 C 0.77553 0.42745 0.12287 0.0
H409 H 0.6944 0.28331 0.02325 0.0
H410 H 0.70855 0.32937 0.06002 0.0
H411 H 0.80376 0.42365 0.04952 0.0
H412 H 0.81655 0.53199 0.17424 0.0
H413 H 0.82526 0.49122 0.14337 0.0
C414 C 0.34121 0.7673 0.36568 0.0
C415 C 0.31097 0.7686 0.36949 0.0
C416 C 0.35165 0.76335 0.33588 0.0
C417 C 0.34497 0.77912 0.25277 0.0
H418 H 0.37808 0.71619 0.23902 0.0
C419 C 0.38721 0.76019 0.12991 0.0
C420 C 0.41608 0.7562 0.12841 0.0
C421 C 0.37226 0.75961 0.15882 0.0
C422 C 0.36931 0.7342 0.24251 0.0
H423 H 0.26786 0.7665 0.34487 0.0
H424 H 0.28644 0.76 0.29271 0.0
H425 H 0.35589 0.71892 0.29046 0.0
H426 H 0.45194 0.74862 0.15627 0.0
H427 H 0.42653 0.74855 0.20658 0.0
H428 H 0.35926 0.79523 0.20522 0.0
C429 C 0.30197 0.76203 0.3129 0.0
C430 C 0.35647 0.73563 0.27197 0.0
C431 C 0.29126 0.76557 0.34279 0.0
C432 C 0.42959 0.75155 0.1565 0.0
C433 C 0.41484 0.75128 0.18541 0.0
C434 C 0.35813 0.77795 0.22338 0.0
C435 C 0.33232 0.76097 0.30916 0.0
C436 C 0.34438 0.75826 0.27746 0.0
C437 C 0.38598 0.75533 0.18698 0.0
C438 C 0.37071 0.75564 0.21792 0.0
H439 H 0.35696 0.76946 0.38572 0.0
H440 H 0.37533 0.76293 0.33367 0.0
H441 H 0.33619 0.7971 0.25645 0.0
H442 H 0.37599 0.76359 0.10871 0.0
H443 H 0.34974 0.76226 0.15905 0.0
loop_
_geom_bond_atom_site_label_1
_geom_bond_atom_site_label_2
_geom_bond_distance
_geom_bond_site_symmetry_2
_ccdc_geom_bond_type
Mg0 O1 2.028 . S
Mg0 O7 1.986 . S
Mg0 O9 2.114 . S
Mg0 O10 2.251 . S
Mg0 O13 2.010 . S
O1 Mg0 2.028 . S
O1 C4 1.250 . S
O2 Mg3 2.028 . S
O2 C4 1.248 . S
Mg3 O2 2.028 . S
Mg3 O8 2.032 . S
Mg3 O10 2.079 . S
C4 O1 1.250 . S
C4 O2 1.248 . S
C5 O6 1.264 . S
C5 O13 1.249 . S
O6 C5 1.264 . S
O7 Mg0 1.986 . S
O7 C11 1.246 . S
O8 Mg3 2.032 . S
O8 C11 1.259 . S
O9 Mg0 2.114 . S
O9 C12 1.252 . S
O10 Mg0 2.251 . S
O10 Mg3 2.079 . S
O10 C12 1.273 . S
C11 O7 1.246 . S
C11 O8 1.259 . S
C12 O9 1.252 . S
C12 O10 1.273 . S
O13 Mg0 2.010 . S
O13 C5 1.249 . S
Mg14 O15 2.028 . S
Mg14 O21 1.986 . S
Mg14 O23 2.114 . S
Mg14 O24 2.251 . S
Mg14 O27 2.010 . S
O15 Mg14 2.028 . S
O15 C18 1.250 . S
O16 Mg17 2.028 . S
O16 C18 1.248 . S
Mg17 O16 2.028 . S
Mg17 O22 2.032 . S
Mg17 O24 2.079 . S
C18 O15 1.250 . S
C18 O16 1.248 . S
C19 O20 1.264 . S
C19 O27 1.249 . S
O20 C19 1.264 . S
O21 Mg14 1.986 . S
O21 C25 1.246 . S
O22 Mg17 2.032 . S
O22 C25 1.259 . S
O23 Mg14 2.114 . S
O23 C26 1.252 . S
O24 Mg14 2.251 . S
O24 Mg17 2.079 . S
O24 C26 1.273 . S
C25 O21 1.246 . S
C25 O22 1.259 . S
C26 O23 1.252 . S
C26 O24 1.273 . S
O27 Mg14 2.010 . S
O27 C19 1.249 . S
Mg28 O29 2.028 . S
Mg28 O35 1.986 . S
Mg28 O37 2.114 . S
Mg28 O38 2.251 . S
Mg28 O41 2.010 . S
O29 Mg28 2.028 . S
O29 C32 1.250 . S
O30 Mg31 2.028 . S
O30 C32 1.248 . S
Mg31 O30 2.028 . S
Mg31 O36 2.032 . S
Mg31 O38 2.079 . S
C32 O29 1.250 . S
C32 O30 1.248 . S
C33 O34 1.264 . S
C33 O41 1.249 . S
O34 C33 1.264 . S
O35 Mg28 1.986 . S
O35 C39 1.246 . S
O36 Mg31 2.032 . S
O36 C39 1.259 . S
O37 Mg28 2.114 . S
O37 C40 1.252 . S
O38 Mg28 2.251 . S
O38 Mg31 2.079 . S
O38 C40 1.273 . S
C39 O35 1.246 . S
C39 O36 1.259 . S
C40 O37 1.252 . S
C40 O38 1.273 . S
O41 Mg28 2.010 . S
O41 C33 1.249 . S
Mg42 O43 2.028 . S
Mg42 O49 1.986 . S
Mg42 O51 2.114 . S
Mg42 O52 2.251 . S
Mg42 O55 2.010 . S
O43 Mg42 2.028 . S
O43 C46 1.250 . S
O44 Mg45 2.028 . S
O44 C46 1.248 . S
Mg45 O44 2.028 . S
Mg45 O50 2.032 . S
Mg45 O52 2.079 . S
C46 O43 1.250 . S
C46 O44 1.248 . S
C47 O48 1.264 . S
C47 O55 1.249 . S
O48 C47 1.264 . S
O49 Mg42 1.986 . S
O49 C53 1.246 . S
O50 Mg45 2.032 . S
O50 C53 1.259 . S
O51 Mg42 2.114 . S
O51 C54 1.252 . S
O52 Mg42 2.251 . S
O52 Mg45 2.079 . S
O52 C54 1.273 . S
C53 O49 1.246 . S
C53 O50 1.259 . S
C54 O51 1.252 . S
C54 O52 1.273 . S
O55 Mg42 2.010 . S
O55 C47 1.249 . S
Mg56 O57 2.028 . S
Mg56 O63 1.986 . S
Mg56 O65 2.114 . S
Mg56 O66 2.251 . S
Mg56 O69 2.010 . S
O57 Mg56 2.028 . S
O57 C60 1.250 . S
O58 Mg59 2.028 . S
O58 C60 1.248 . S
Mg59 O58 2.028 . S
Mg59 O64 2.032 . S
Mg59 O66 2.079 . S
C60 O57 1.250 . S
C60 O58 1.248 . S
C61 O62 1.264 . S
C61 O69 1.249 . S
O62 C61 1.264 . S
O63 Mg56 1.986 . S
O63 C67 1.246 . S
O64 Mg59 2.032 . S
O64 C67 1.259 . S
O65 Mg56 2.114 . S
O65 C68 1.252 . S
O66 Mg56 2.251 . S
O66 Mg59 2.079 . S
O66 C68 1.273 . S
C67 O63 1.246 . S
C67 O64 1.259 . S
C68 O65 1.252 . S
C68 O66 1.273 . S
O69 Mg56 2.010 . S
O69 C61 1.249 . S
Mg70 O71 2.028 . S
Mg70 O77 1.986 . S
Mg70 O79 2.114 . S
Mg70 O80 2.251 . S
Mg70 O83 2.010 . S
O71 Mg70 2.028 . S
O71 C74 1.250 . S
O72 Mg73 2.028 . S
O72 C74 1.248 . S
Mg73 O72 2.028 . S
Mg73 O78 2.032 . S
Mg73 O80 2.079 . S
C74 O71 1.250 . S
C74 O72 1.248 . S
C75 O76 1.264 . S
C75 O83 1.249 . S
O76 C75 1.264 . S
O77 Mg70 1.986 . S
O77 C81 1.246 . S
O78 Mg73 2.032 . S
O78 C81 1.259 . S
O79 Mg70 2.114 . S
O79 C82 1.252 . S
O80 Mg70 2.251 . S
O80 Mg73 2.079 . S
O80 C82 1.273 . S
C81 O77 1.246 . S
C81 O78 1.259 . S
C82 O79 1.252 . S
C82 O80 1.273 . S
O83 Mg70 2.010 . S
O83 C75 1.249 . S
C84 C85 1.349 . S
C84 C86 1.327 . S
C84 H109 0.950 . S
C85 C84 1.349 . S
C85 C101 1.349 . S
C86 C84 1.327 . S
C86 C105 1.429 . S
C86 H110 0.950 . S
C87 C104 1.574 1_545 S
C87 C106 1.368 . S
C87 H111 0.949 . S
H88 C92 0.950 1_565 S
C89 C90 1.349 . S
C89 C91 1.327 . S
C89 H112 0.950 . S
C90 C89 1.349 . S
C90 C102 1.349 . S
C91 C89 1.327 . S
C91 C107 1.429 . S
C91 H113 0.950 . S
C92 H88 0.950 1_545 S
C92 C100 1.571 . S
C92 C108 1.369 1_545 S
H93 C101 0.950 . S
H94 C99 0.950 . S
H95 C100 0.949 . S
H96 C102 0.950 . S
H97 C103 0.950 . S
H98 C104 0.949 . S
C99 H94 0.950 . S
C99 C101 1.327 . S
C99 C105 1.429 . S
C100 C92 1.571 . S
C100 H95 0.949 . S
C100 C106 1.368 . S
C101 C85 1.349 . S
C101 H93 0.950 . S
C101 C99 1.327 . S
C102 C90 1.349 . S
C102 H96 0.950 . S
C102 C103 1.327 . S
C103 H97 0.950 . S
C103 C102 1.327 . S
C103 C107 1.429 . S
C104 C87 1.574 1_565 S
C104 H98 0.949 . S
C104 C108 1.368 . S
C105 C86 1.429 . S
C105 C99 1.429 . S
C105 C106 1.523 . S
C106 C87 1.368 . S
C106 C100 1.368 . S
C106 C105 1.523 . S
C107 C91 1.429 . S
C107 C103 1.429 . S
C107 C108 1.523 . S
C108 C92 1.369 1_565 S
C108 C104 1.368 . S
C108 C107 1.523 . S
H109 C84 0.950 . S
H110 C86 0.950 . S
H111 C87 0.949 . S
H112 C89 0.950 . S
H113 C91 0.950 . S
C114 C115 1.349 . S
C114 C116 1.327 . S
C114 H139 0.950 . S
C115 C114 1.349 . S
C115 C131 1.349 . S
C116 C114 1.327 . S
C116 C135 1.429 . S
C116 H140 0.950 . S
C117 C134 1.574 . S
C117 C136 1.368 . S
C117 H141 0.949 . S
H118 C122 0.949 . S
C119 C120 1.349 . S
C119 C121 1.327 . S
C119 H142 0.950 . S
C120 C119 1.349 . S
C120 C132 1.349 . S
C121 C119 1.327 . S
C121 C137 1.429 . S
C121 H143 0.950 . S
C122 H118 0.949 . S
C122 C130 1.574 . S
C122 C138 1.368 . S
H123 C131 0.950 . S
H124 C129 0.950 . S
H125 C130 0.949 . S
H126 C132 0.950 . S
H127 C133 0.950 . S
H128 C134 0.949 . S
C129 H124 0.950 . S
C129 C131 1.327 . S
C129 C135 1.429 . S
C130 C122 1.574 . S
C130 H125 0.949 . S
C130 C136 1.368 . S
C131 C115 1.349 . S
C131 H123 0.950 . S
C131 C129 1.327 . S
C132 C120 1.349 . S
C132 H126 0.950 . S
C132 C133 1.327 . S
C133 H127 0.950 . S
C133 C132 1.327 . S
C133 C137 1.429 . S
C134 C117 1.574 . S
C134 H128 0.949 . S
C134 C138 1.368 . S
C135 C116 1.429 . S
C135 C129 1.429 . S
C135 C136 1.523 . S
C136 C117 1.368 . S
C136 C130 1.368 . S
C136 C135 1.523 . S
C137 C121 1.429 . S
C137 C133 1.429 . S
C137 C138 1.523 . S
C138 C122 1.368 . S
C138 C134 1.368 . S
C138 C137 1.523 . S
H139 C114 0.950 . S
H140 C116 0.950 . S
H141 C117 0.949 . S
H142 C119 0.950 . S
H143 C121 0.950 . S
C144 C145 1.349 . S
C144 C146 1.327 . S
C144 H169 0.950 . S
C145 C144 1.349 . S
C145 C161 1.349 . S
C146 C144 1.327 . S
C146 C165 1.429 . S
C146 H170 0.950 . S
C147 C164 1.574 1_655 S
C147 C166 1.368 . S
C147 H171 0.949 . S
H148 C152 0.949 . S
C149 C150 1.349 . S
C149 C151 1.327 . S
C149 H172 0.950 . S
C150 C149 1.349 . S
C150 C162 1.349 . S
C151 C149 1.327 . S
C151 C167 1.429 . S
C151 H173 0.950 . S
C152 H148 0.949 . S
C152 C160 1.574 1_455 S
C152 C168 1.368 . S
H153 C161 0.950 . S
H154 C159 0.950 . S
H155 C160 0.949 . S
H156 C162 0.950 . S
H157 C163 0.950 . S
H158 C164 0.949 . S
C159 H154 0.950 . S
C159 C161 1.327 . S
C159 C165 1.429 . S
C160 C152 1.574 1_655 S
C160 H155 0.949 . S
C160 C166 1.368 . S
C161 C145 1.349 . S
C161 H153 0.950 . S
C161 C159 1.327 . S
C162 C150 1.349 . S
C162 H156 0.950 . S
C162 C163 1.327 . S
C163 H157 0.950 . S
C163 C162 1.327 . S
C163 C167 1.429 . S
C164 C147 1.574 1_455 S
C164 H158 0.949 . S
C164 C168 1.368 . S
C165 C146 1.429 . S
C165 C159 1.429 . S
C165 C166 1.523 . S
C166 C147 1.368 . S
C166 C160 1.368 . S
C166 C165 1.523 . S
C167 C151 1.429 . S
C167 C163 1.429 . S
C167 C168 1.523 . S
C168 C152 1.368 . S
C168 C164 1.368 . S
C168 C167 1.523 . S
H169 C144 0.950 . S
H170 C146 0.950 . S
H171 C147 0.949 . S
H172 C149 0.950 . S
H173 C151 0.950 . S
C174 C175 1.349 . S
C174 C176 1.327 . S
C174 H199 0.950 . S
C175 C174 1.349 . S
C175 C191 1.349 . S
C176 C174 1.327 . S
C176 C195 1.429 . S
C176 H200 0.950 1_554 S
C177 C194 1.574 1_565 S
C177 C196 1.368 . S
C177 H201 0.949 . S
H178 C182 0.949 . S
C179 C180 1.349 . S
C179 C181 1.327 . S
C179 H202 0.950 . S
C180 C179 1.349 . S
C180 C192 1.349 . S
C181 C179 1.327 . S
C181 C197 1.429 . S
C181 H203 0.950 1_556 S
C182 H178 0.949 . S
C182 C190 1.574 1_545 S
C182 C198 1.368 . S
H183 C191 0.950 . S
H184 C189 0.950 . S
H185 C190 0.949 . S
H186 C192 0.950 . S
H187 C193 0.950 . S
H188 C194 0.949 . S
C189 H184 0.950 . S
C189 C191 1.327 . S
C189 C195 1.429 . S
C190 C182 1.574 1_565 S
C190 H185 0.949 . S
C190 C196 1.368 1_556 S
C191 C175 1.349 . S
C191 H183 0.950 . S
C191 C189 1.327 . S
C192 C180 1.349 . S
C192 H186 0.950 . S
C192 C193 1.327 . S
C193 H187 0.950 . S
C193 C192 1.327 . S
C193 C197 1.429 . S
C194 C177 1.574 1_545 S
C194 H188 0.949 . S
C194 C198 1.368 1_554 S
C195 C176 1.429 . S
C195 C189 1.429 . S
C195 C196 1.523 . S
C196 C177 1.368 . S
C196 C190 1.368 1_554 S
C196 C195 1.523 . S
C197 C181 1.429 . S
C197 C193 1.429 . S
C197 C198 1.523 . S
C198 C182 1.368 . S
C198 C194 1.368 1_556 S
C198 C197 1.523 . S
H199 C174 0.950 . S
H200 C176 0.950 1_556 S
H201 C177 0.949 . S
H202 C179 0.950 . S
H203 C181 0.950 1_554 S
C204 C205 1.349 . S
C204 C206 1.327 . S
C204 H229 0.950 . S
C205 C204 1.349 . S
C205 C221 1.349 . S
C206 C204 1.327 . S
C206 C225 1.429 . S
C206 H230 0.950 . S
C207 C224 1.574 . S
C207 C226 1.368 . S
C207 H231 0.949 . S
H208 C212 0.949 . S
C209 C210 1.349 . S
C209 C211 1.327 . S
C209 H232 0.950 . S
C210 C209 1.349 . S
C210 C222 1.349 . S
C211 C209 1.327 . S
C211 C227 1.429 . S
C211 H233 0.950 . S
C212 H208 0.949 . S
C212 C220 1.574 . S
C212 C228 1.368 . S
H213 C221 0.950 . S
H214 C219 0.950 . S
H215 C220 0.949 . S
H216 C222 0.950 . S
H217 C223 0.950 . S
H218 C224 0.949 . S
C219 H214 0.950 . S
C219 C221 1.327 . S
C219 C225 1.429 . S
C220 C212 1.574 . S
C220 H215 0.949 . S
C220 C226 1.368 . S
C221 C205 1.349 . S
C221 H213 0.950 . S
C221 C219 1.327 . S
C222 C210 1.349 . S
C222 H216 0.950 . S
C222 C223 1.327 . S
C223 H217 0.950 . S
C223 C222 1.327 . S
C223 C227 1.429 . S
C224 C207 1.574 . S
C224 H218 0.949 . S
C224 C228 1.368 . S
C225 C206 1.429 . S
C225 C219 1.429 . S
C225 C226 1.523 . S
C226 C207 1.368 . S
C226 C220 1.368 . S
C226 C225 1.523 . S
C227 C211 1.429 . S
C227 C223 1.429 . S
C227 C228 1.523 . S
C228 C212 1.368 . S
C228 C224 1.368 . S
C228 C227 1.523 . S
H229 C204 0.950 . S
H230 C206 0.950 . S
H231 C207 0.949 . S
H232 C209 0.950 . S
H233 C211 0.950 . S
C234 C235 1.349 . S
C234 C236 1.327 . S
C234 H259 0.950 . S
C235 C234 1.349 . S
C235 C251 1.349 . S
C236 C234 1.327 . S
C236 C255 1.429 . S
C236 H260 0.950 . S
C237 C254 1.559 1_455 S
C237 C256 1.368 . S
C237 H261 0.949 . S
H238 C242 0.949 . S
C239 C240 1.349 . S
C239 C241 1.327 . S
C239 H262 0.950 . S
C240 C239 1.349 . S
C240 C252 1.349 . S
C241 C239 1.327 . S
C241 C257 1.429 . S
C241 H263 0.950 . S
C242 H238 0.949 . S
C242 C250 1.574 1_655 S
C242 C258 1.368 . S
H243 C251 0.950 . S
H244 C249 0.950 . S
H245 C250 0.949 . S
H246 C252 0.950 . S
H247 C253 0.950 . S
H248 C254 0.954 . S
C249 H244 0.950 . S
C249 C251 1.327 . S
C249 C255 1.429 . S
C250 C242 1.574 1_455 S
C250 H245 0.949 . S
C250 C256 1.368 . S
C251 C235 1.349 . S
C251 H243 0.950 . S
C251 C249 1.327 . S
C252 C240 1.349 . S
C252 H246 0.950 . S
C252 C253 1.327 . S
C253 H247 0.950 . S
C253 C252 1.327 . S
C253 C257 1.429 . S
C254 C237 1.559 1_655 S
C254 H248 0.954 . S
C254 C258 1.378 . S
C255 C236 1.429 . S
C255 C249 1.429 . S
C255 C256 1.523 . S
C256 C237 1.368 . S
C256 C250 1.368 . S
C256 C255 1.523 . S
C257 C241 1.429 . S
C257 C253 1.429 . S
C257 C258 1.523 . S
C258 C242 1.368 . S
C258 C254 1.378 . S
C258 C257 1.523 . S
H259 C234 0.950 . S
H260 C236 0.950 . S
H261 C237 0.949 . S
H262 C239 0.950 . S
H263 C241 0.950 . S
C264 C265 1.349 . S
C264 C266 1.327 . S
C264 H289 0.950 . S
C265 C264 1.349 . S
C265 C281 1.349 . S
C266 C264 1.327 . S
C266 C285 1.429 . S
C266 H290 0.950 . S
C267 C284 1.574 . S
C267 C286 1.368 . S
C267 H291 0.949 . S
H268 C272 0.949 . S
C269 C270 1.349 . S
C269 C271 1.327 . S
C269 H292 0.950 . S
C270 C269 1.349 . S
C270 C282 1.349 . S
C271 C269 1.327 . S
C271 C287 1.429 . S
C271 H293 0.950 . S
C272 H268 0.949 . S
C272 C280 1.574 . S
C272 C288 1.368 . S
H273 C281 0.950 . S
H274 C279 0.950 . S
H275 C280 0.949 . S
H276 C282 0.950 . S
H277 C283 0.950 . S
H278 C284 0.949 . S
C279 H274 0.950 . S
C279 C281 1.327 . S
C279 C285 1.429 . S
C280 C272 1.574 . S
C280 H275 0.949 . S
C280 C286 1.368 . S
C281 C265 1.349 . S
C281 H273 0.950 . S
C281 C279 1.327 . S
C282 C270 1.349 . S
C282 H276 0.950 . S
C282 C283 1.327 . S
C283 H277 0.950 . S
C283 C282 1.327 . S
C283 C287 1.429 . S
C284 C267 1.574 . S
C284 H278 0.949 . S
C284 C288 1.368 . S
C285 C266 1.429 . S
C285 C279 1.429 . S
C285 C286 1.523 . S
C286 C267 1.368 . S
C286 C280 1.368 . S
C286 C285 1.523 . S
C287 C271 1.429 . S
C287 C283 1.429 . S
C287 C288 1.523 . S
C288 C272 1.368 . S
C288 C284 1.368 . S
C288 C287 1.523 . S
H289 C264 0.950 . S
H290 C266 0.950 . S
H291 C267 0.949 . S
H292 C269 0.950 . S
H293 C271 0.950 . S
C294 C295 1.349 . S
C294 C296 1.327 . S
C294 H319 0.950 . S
C295 C294 1.349 . S
C295 C311 1.349 . S
C296 C294 1.327 . S
C296 C315 1.429 . S
C296 H320 0.950 . S
C297 C314 1.574 . S
C297 C316 1.368 . S
C297 H321 0.949 . S
H298 C302 0.949 . S
C299 C300 1.349 . S
C299 C301 1.327 . S
C299 H322 0.950 . S
C300 C299 1.349 . S
C300 C312 1.349 . S
C301 C299 1.327 . S
C301 C317 1.429 . S
C301 H323 0.950 . S
C302 H298 0.949 . S
C302 C310 1.574 . S
C302 C318 1.368 . S
H303 C311 0.950 . S
H304 C309 0.950 . S
H305 C310 0.949 . S
H306 C312 0.950 . S
H307 C313 0.950 . S
H308 C314 0.949 . S
C309 H304 0.950 . S
C309 C311 1.327 . S
C309 C315 1.429 . S
C310 C302 1.574 . S
C310 H305 0.949 . S
C310 C316 1.368 . S
C311 C295 1.349 . S
C311 H303 0.950 . S
C311 C309 1.327 . S
C312 C300 1.349 . S
C312 H306 0.950 . S
C312 C313 1.327 . S
C313 H307 0.950 . S
C313 C312 1.327 . S
C313 C317 1.429 . S
C314 C297 1.574 . S
C314 H308 0.949 . S
C314 C318 1.368 . S
C315 C296 1.429 . S
C315 C309 1.429 . S
C315 C316 1.523 . S
C316 C297 1.368 . S
C316 C310 1.368 . S
C316 C315 1.523 . S
C317 C301 1.429 . S
C317 C313 1.429 . S
C317 C318 1.523 . S
C318 C302 1.368 . S
C318 C314 1.368 . S
C318 C317 1.523 . S
H319 C294 0.950 . S
H320 C296 0.950 . S
H321 C297 0.949 . S
H322 C299 0.950 . S
H323 C301 0.950 . S
C324 C325 1.349 . S
C324 C326 1.327 . S
C324 H349 0.950 . S
C325 C324 1.349 . S
C325 C341 1.349 . S
C326 C324 1.327 . S
C326 C345 1.429 . S
C326 H350 0.950 . S
C327 C344 1.574 . S
C327 C346 1.368 . S
C327 H351 0.949 . S
H328 C332 0.949 . S
C329 C330 1.349 . S
C329 C331 1.327 . S
C329 H352 0.950 . S
C330 C329 1.349 . S
C330 C342 1.349 . S
C331 C329 1.327 . S
C331 C347 1.429 . S
C331 H353 0.950 . S
C332 H328 0.949 . S
C332 C340 1.574 . S
C332 C348 1.368 . S
H333 C341 0.950 . S
H334 C339 0.950 . S
H335 C340 0.949 . S
H336 C342 0.950 . S
H337 C343 0.950 . S
H338 C344 0.949 . S
C339 H334 0.950 . S
C339 C341 1.327 . S
C339 C345 1.429 . S
C340 C332 1.574 . S
C340 H335 0.949 . S
C340 C346 1.368 . S
C341 C325 1.349 . S
C341 H333 0.950 . S
C341 C339 1.327 . S
C342 C330 1.349 . S
C342 H336 0.950 . S
C342 C343 1.327 . S
C343 H337 0.950 . S
C343 C342 1.327 . S
C343 C347 1.429 . S
C344 C327 1.574 . S
C344 H338 0.949 . S
C344 C348 1.368 . S
C345 C326 1.429 . S
C345 C339 1.429 . S
C345 C346 1.523 . S
C346 C327 1.368 . S
C346 C340 1.368 . S
C346 C345 1.523 . S
C347 C331 1.429 . S
C347 C343 1.429 . S
C347 C348 1.523 . S
C348 C332 1.368 . S
C348 C344 1.368 . S
C348 C347 1.523 . S
H349 C324 0.950 . S
H350 C326 0.950 . S
H351 C327 0.949 . S
H352 C329 0.950 . S
H353 C331 0.950 . S
C354 C355 1.349 . S
C354 C356 1.327 . S
C354 H379 0.950 . S
C355 C354 1.349 . S
C355 C371 1.349 . S
C356 C354 1.327 . S
C356 C375 1.429 . S
C356 H380 0.950 . S
C357 C374 1.574 . S
C357 C376 1.368 . S
C357 H381 0.949 . S
H358 C362 0.949 . S
C359 C360 1.349 1_556 S
C359 C361 1.327 . S
C359 H382 0.950 . S
C360 C359 1.349 1_554 S
C360 C372 1.349 . S
C361 C359 1.327 . S
C361 C377 1.429 . S
C361 H383 0.950 . S
C362 H358 0.949 . S
C362 C370 1.574 . S
C362 C378 1.368 . S
H363 C371 0.950 . S
H364 C369 0.950 . S
H365 C370 0.949 . S
H366 C372 0.950 . S
H367 C373 0.950 . S
H368 C374 0.949 . S
C369 H364 0.950 . S
C369 C371 1.327 . S
C369 C375 1.429 . S
C370 C362 1.574 . S
C370 H365 0.949 . S
C370 C376 1.368 . S
C371 C355 1.349 . S
C371 H363 0.950 . S
C371 C369 1.327 . S
C372 C360 1.349 . S
C372 H366 0.950 . S
C372 C373 1.327 1_554 S
C373 H367 0.950 . S
C373 C372 1.327 1_556 S
C373 C377 1.429 . S
C374 C357 1.574 . S
C374 H368 0.949 . S
C374 C378 1.368 . S
C375 C356 1.429 . S
C375 C369 1.429 . S
C375 C376 1.523 . S
C376 C357 1.368 . S
C376 C370 1.368 . S
C376 C375 1.523 . S
C377 C361 1.429 . S
C377 C373 1.429 . S
C377 C378 1.523 . S
C378 C362 1.368 . S
C378 C374 1.368 . S
C378 C377 1.523 . S
H379 C354 0.950 . S
H380 C356 0.950 . S
H381 C357 0.949 . S
H382 C359 0.950 . S
H383 C361 0.950 . S
C384 C385 1.349 . S
C384 C386 1.327 1_556 S
C384 H409 0.950 . S
C385 C384 1.349 . S
C385 C401 1.349 1_556 S
C386 C384 1.327 1_554 S
C386 C405 1.429 . S
C386 H410 0.950 . S
C387 C404 1.574 . S
C387 C406 1.368 . S
C387 H411 0.949 . S
H388 C392 0.949 . S
C389 C390 1.349 . S
C389 C391 1.327 . S
C389 H412 0.950 . S
C390 C389 1.349 . S
C390 C402 1.349 . S
C391 C389 1.327 . S
C391 C407 1.429 . S
C391 H413 0.950 . S
C392 H388 0.949 . S
C392 C400 1.574 . S
C392 C408 1.368 . S
H393 C401 0.950 . S
H394 C399 0.950 . S
H395 C400 0.949 . S
H396 C402 0.950 . S
H397 C403 0.950 . S
H398 C404 0.949 . S
C399 H394 0.950 . S
C399 C401 1.327 . S
C399 C405 1.429 . S
C400 C392 1.574 . S
C400 H395 0.949 . S
C400 C406 1.368 . S
C401 C385 1.349 1_554 S
C401 H393 0.950 . S
C401 C399 1.327 . S
C402 C390 1.349 . S
C402 H396 0.950 . S
C402 C403 1.327 . S
C403 H397 0.950 . S
C403 C402 1.327 . S
C403 C407 1.429 . S
C404 C387 1.574 . S
C404 H398 0.949 . S
C404 C408 1.368 . S
C405 C386 1.429 . S
C405 C399 1.429 . S
C405 C406 1.523 . S
C406 C387 1.368 . S
C406 C400 1.368 . S
C406 C405 1.523 . S
C407 C391 1.429 . S
C407 C403 1.429 . S
C407 C408 1.523 . S
C408 C392 1.368 . S
C408 C404 1.368 . S
C408 C407 1.523 . S
H409 C384 0.950 . S
H410 C386 0.950 . S
H411 C387 0.949 . S
H412 C389 0.950 . S
H413 C391 0.950 . S
C414 C415 1.349 . S
C414 C416 1.327 . S
C414 H439 0.950 . S
C415 C414 1.349 . S
C415 C431 1.349 . S
C416 C414 1.327 . S
C416 C435 1.429 . S
C416 H440 0.950 . S
C417 C434 1.574 . S
C417 C436 1.368 . S
C417 H441 0.949 . S
H418 C422 0.949 . S
C419 C420 1.349 . S
C419 C421 1.327 . S
C419 H442 0.950 . S
C420 C419 1.349 . S
C420 C432 1.349 . S
C421 C419 1.327 . S
C421 C437 1.429 . S
C421 H443 0.950 . S
C422 H418 0.949 . S
C422 C430 1.574 . S
C422 C438 1.368 . S
H423 C431 0.950 . S
H424 C429 0.950 . S
H425 C430 0.949 . S
H426 C432 0.950 . S
H427 C433 0.950 . S
H428 C434 0.949 . S
C429 H424 0.950 . S
C429 C431 1.327 . S
C429 C435 1.429 . S
C430 C422 1.574 . S
C430 H425 0.949 . S
C430 C436 1.368 . S
C431 C415 1.349 . S
C431 H423 0.950 . S
C431 C429 1.327 . S
C432 C420 1.349 . S
C432 H426 0.950 . S
C432 C433 1.327 . S
C433 H427 0.950 . S
C433 C432 1.327 . S
C433 C437 1.429 . S
C434 C417 1.574 . S
C434 H428 0.949 . S
C434 C438 1.368 . S
C435 C416 1.429 . S
C435 C429 1.429 . S
C435 C436 1.523 . S
C436 C417 1.368 . S
C436 C430 1.368 . S
C436 C435 1.523 . S
C437 C421 1.429 . S
C437 C433 1.429 . S
C437 C438 1.523 . S
C438 C422 1.368 . S
C438 C434 1.368 . S
C438 C437 1.523 . S
H439 C414 0.950 . S
H440 C416 0.950 . S
H441 C417 0.949 . S
H442 C419 0.950 . S
H443 C421 0.950 . S
C85 C12 1.423 . S
C90 C82 1.423 . S
C115 C5 1.153 . S
C120 C26 1.376 . S
C145 C33 1.118 . S
C150 C19 1.124 . S
C175 C54 1.423 . S
C180 C40 1.423 . S
C205 C68 1.376 . S
C210 C47 1.153 . S
C235 C75 1.118 . S
C240 C61 1.124 . S
C265 C11 1.562 . S
C270 C60 1.536 . S
C295 C81 1.384 . S
C300 C25 1.377 . S
C325 C32 1.703 . S
C330 C4 1.699 . S
C355 C18 1.536 . S
C360 C53 1.562 . S
C385 C39 1.384 . S
C390 C67 1.377 . S
C415 C74 1.703 . S
C420 C46 1.699 . S
