# Generated by pormake.
# Topology wix, (3)-cn, num edge types: 1
# Building blocks:
#     Node 0, Type 0, BuildingBlock: OLANEW_clean_sbu_2, # of connection points: 3
#     Node 1, Type 0, BuildingBlock: OLANEW_clean_sbu_2, # of connection points: 3
#     Node 2, Type 0, BuildingBlock: OLANEW_clean_sbu_2, # of connection points: 3
#     Node 3, Type 0, BuildingBlock: OLANEW_clean_sbu_2, # of connection points: 3
#     Node 4, Type 0, BuildingBlock: OLANEW_clean_sbu_2, # of connection points: 3
#     Node 5, Type 0, BuildingBlock: OLANEW_clean_sbu_2, # of connection points: 3
#     Node 6, Type 0, BuildingBlock: OLANEW_clean_sbu_2, # of connection points: 3
#     Node 7, Type 0, BuildingBlock: OLANEW_clean_sbu_2, # of connection points: 3
#     Node 8, Type 0, BuildingBlock: OLANEW_clean_sbu_2, # of connection points: 3
#     Node 9, Type 0, BuildingBlock: OLANEW_clean_sbu_2, # of connection points: 3
#     Node 10, Type 0, BuildingBlock: OLANEW_clean_sbu_2, # of connection points: 3
#     Node 11, Type 0, BuildingBlock: OLANEW_clean_sbu_2, # of connection points: 3
#     Edge 12, Type (0, 0), BuildingBlock: XUDNAN_clean_linker_2, # of connection points: 2
#     Edge 13, Type (0, 0), BuildingBlock: XUDNAN_clean_linker_2, # of connection points: 2
#     Edge 14, Type (0, 0), BuildingBlock: XUDNAN_clean_linker_2, # of connection points: 2
#     Edge 15, Type (0, 0), BuildingBlock: XUDNAN_clean_linker_2, # of connection points: 2
#     Edge 16, Type (0, 0), BuildingBlock: XUDNAN_clean_linker_2, # of connection points: 2
#     Edge 17, Type (0, 0), BuildingBlock: XUDNAN_clean_linker_2, # of connection points: 2
#     Edge 18, Type (0, 0), BuildingBlock: XUDNAN_clean_linker_2, # of connection points: 2
#     Edge 19, Type (0, 0), BuildingBlock: XUDNAN_clean_linker_2, # of connection points: 2
#     Edge 20, Type (0, 0), BuildingBlock: XUDNAN_clean_linker_2, # of connection points: 2
#     Edge 21, Type (0, 0), BuildingBlock: XUDNAN_clean_linker_2, # of connection points: 2
#     Edge 22, Type (0, 0), BuildingBlock: XUDNAN_clean_linker_2, # of connection points: 2
#     Edge 23, Type (0, 0), BuildingBlock: XUDNAN_clean_linker_2, # of connection points: 2
#     Edge 24, Type (0, 0), BuildingBlock: XUDNAN_clean_linker_2, # of connection points: 2
#     Edge 25, Type (0, 0), BuildingBlock: XUDNAN_clean_linker_2, # of connection points: 2
#     Edge 26, Type (0, 0), BuildingBlock: XUDNAN_clean_linker_2, # of connection points: 2
#     Edge 27, Type (0, 0), BuildingBlock: XUDNAN_clean_linker_2, # of connection points: 2
#     Edge 28, Type (0, 0), BuildingBlock: XUDNAN_clean_linker_2, # of connection points: 2
#     Edge 29, Type (0, 0), BuildingBlock: XUDNAN_clean_linker_2, # of connection points: 2
# Relax obj value: 0.008
# Max RMSD: 0.072
# Mean RMSD: 0.072
data_MOF--net-wix--node1-OLANEW_clean_sbu_2--edge1-XUDNAN_clean_linker_2
_symmetry_space_group_name_H-M    P1
_symmetry_Int_Tables_number       1
_symmetry_cell_setting            triclinic
loop_
_symmetry_equiv_pos_as_xyz
'x, y, z'
_cell_length_a     63.584299
_cell_length_b     63.526996
_cell_length_c     33.37577
_cell_angle_alpha  89.913577
_cell_angle_beta   89.938352
_cell_angle_gamma 120.00134
loop_
_atom_site_label
_atom_site_type_symbol
_atom_site_fract_x
_atom_site_fract_y
_atom_site_fract_z
_atom_type_partial_charge
O0 O 0.32954 0.44657 0.10105 0.0
Cd1 Cd 0.31233 0.4708 0.07567 0.0
O2 O 0.36792 0.47122 0.08533 0.0
Cd3 Cd 0.36233 0.49726 0.05069 0.0
O4 O 0.37306 0.52335 0.00127 0.0
C5 C 0.35829 0.52317 0.97544 0.0
O6 O 0.33503 0.50738 0.97926 0.0
C7 C 0.35159 0.4517 0.10152 0.0
C8 C 0.27144 0.45939 0.12232 0.0
O9 O 0.27004 0.44664 0.09166 0.0
O10 O 0.29205 0.47805 0.13033 0.0
O11 O 0.89358 0.32803 0.31272 0.0
Cd12 Cd 0.85088 0.29782 0.30099 0.0
O13 O 0.89237 0.3556 0.27422 0.0
Cd14 Cd 0.85467 0.3362 0.25419 0.0
O15 O 0.83603 0.34576 0.20889 0.0
C16 C 0.84242 0.36819 0.20879 0.0
O17 O 0.8574 0.38221 0.23677 0.0
C18 C 0.90413 0.34911 0.29699 0.0
C19 C 0.82948 0.26594 0.36556 0.0
O20 O 0.8427 0.26279 0.34 0.0
O21 O 0.8264 0.28425 0.36085 0.0
O22 O 0.59059 0.90597 0.40785 0.0
Cd23 Cd 0.56788 0.86292 0.38901 0.0
O24 O 0.56513 0.90219 0.45567 0.0
Cd25 Cd 0.53677 0.87035 0.42503 0.0
O26 O 0.51316 0.86341 0.37326 0.0
C27 C 0.50664 0.87916 0.36805 0.0
O28 O 0.51345 0.89673 0.3944 0.0
C29 C 0.58531 0.91483 0.43777 0.0
C30 C 0.56992 0.83344 0.44954 0.0
O31 O 0.5876 0.84495 0.42505 0.0
O32 O 0.55108 0.83565 0.44542 0.0
O33 O 0.6989 0.61411 0.62616 0.0
Cd34 Cd 0.73781 0.61531 0.61981 0.0
O35 O 0.67912 0.57601 0.60753 0.0
Cd36 Cd 0.64813 0.5402 0.59341 0.0
O37 O 0.61853 0.50645 0.56902 0.0
C38 C 0.6192 0.50213 0.53201 0.0
O39 O 0.63764 0.51793 0.5103 0.0
C40 C 0.67887 0.59517 0.61789 0.0
C41 C 0.75383 0.60394 0.69003 0.0
O42 O 0.75765 0.62547 0.68359 0.0
O43 O 0.74206 0.58763 0.66355 0.0
O44 O 0.09826 0.65405 0.78348 0.0
Cd45 Cd 0.13903 0.67012 0.75542 0.0
O46 O 0.08701 0.61557 0.77383 0.0
Cd47 Cd 0.12015 0.62219 0.74316 0.0
O48 O 0.14003 0.61292 0.69982 0.0
C49 C 0.1358 0.61408 0.66292 0.0
O50 O 0.12119 0.62226 0.65296 0.0
C51 C 0.08237 0.63166 0.78662 0.0
C52 C 0.17083 0.7146 0.79118 0.0
O53 O 0.15818 0.71346 0.76053 0.0
O54 O 0.16873 0.69473 0.80461 0.0
O55 O 0.44947 0.10871 0.01362 0.0
Cd56 Cd 0.46362 0.15161 0.99966 0.0
O57 O 0.47662 0.11062 0.97121 0.0
Cd58 Cd 0.49489 0.09775 0.9308 0.0
O59 O 0.51576 0.09382 0.8822 0.0
C60 C 0.50958 0.07313 0.86736 0.0
O61 O 0.49057 0.05379 0.88217 0.0
C62 C 0.45906 0.09814 0.99504 0.0
C63 C 0.45072 0.17476 0.05765 0.0
O64 O 0.43546 0.16104 0.03115 0.0
O65 O 0.47203 0.17733 0.05719 0.0
O66 O 0.55721 0.65262 0.68524 0.0
Cd67 Cd 0.5349 0.67308 0.70528 0.0
O68 O 0.52535 0.61831 0.66633 0.0
Cd69 Cd 0.49973 0.62645 0.69666 0.0
O70 O 0.47334 0.61812 0.74492 0.0
C71 C 0.451 0.6106 0.73835 0.0
O72 O 0.44357 0.60918 0.70122 0.0
C73 C 0.54825 0.63174 0.66921 0.0
C74 C 0.54805 0.71306 0.65501 0.0
O75 O 0.5611 0.71445 0.6852 0.0
O76 O 0.52846 0.69288 0.64882 0.0
O77 O 0.90208 0.55853 0.90374 0.0
Cd78 Cd 0.85979 0.53406 0.92542 0.0
O79 O 0.90568 0.52725 0.88529 0.0
Cd80 Cd 0.87112 0.5002 0.91174 0.0
O81 O 0.84975 0.47032 0.95326 0.0
C82 C 0.85421 0.47481 0.99034 0.0
O83 O 0.86988 0.49714 0.0013 0.0
C84 C 0.91457 0.55012 0.88801 0.0
C85 C 0.83202 0.55082 0.88676 0.0
O86 O 0.8424 0.55983 0.92032 0.0
O87 O 0.83437 0.53352 0.87186 0.0
O88 O 0.3352 0.91608 0.02185 0.0
Cd89 Cd 0.30072 0.87592 0.03772 0.0
O90 O 0.35995 0.90603 0.05012 0.0
Cd91 Cd 0.39302 0.90998 0.07744 0.0
O92 O 0.41579 0.90102 0.11469 0.0
C93 C 0.42169 0.90977 0.14978 0.0
O94 O 0.41487 0.92505 0.16236 0.0
C95 C 0.35659 0.92194 0.03273 0.0
C96 C 0.27501 0.84794 0.97181 0.0
O97 O 0.2712 0.86458 0.98551 0.0
O98 O 0.29133 0.84481 0.98874 0.0
O99 O 0.41824 0.34573 0.24502 0.0
Cd100 Cd 0.44095 0.32933 0.2794 0.0
O101 O 0.44998 0.3817 0.23301 0.0
Cd102 Cd 0.47473 0.37579 0.27032 0.0
O103 O 0.5014 0.38821 0.31859 0.0
C104 C 0.49443 0.38257 0.35469 0.0
O105 O 0.47129 0.36772 0.36203 0.0
C106 C 0.4274 0.36675 0.22933 0.0
C107 C 0.43719 0.28963 0.23725 0.0
O108 O 0.42068 0.2871 0.26204 0.0
O109 O 0.4557 0.31091 0.23267 0.0
O110 O 0.08481 0.42358 0.37692 0.0
Cd111 Cd 0.12629 0.43639 0.39829 0.0
O112 O 0.0941 0.45998 0.3555 0.0
Cd113 Cd 0.12896 0.47846 0.38647 0.0
O114 O 0.1471 0.50433 0.43504 0.0
C115 C 0.14232 0.5215 0.43642 0.0
O116 O 0.12879 0.52291 0.40799 0.0
C117 C 0.07876 0.43746 0.35916 0.0
C118 C 0.15385 0.43561 0.33367 0.0
O119 O 0.13964 0.4162 0.35314 0.0
O120 O 0.15529 0.45557 0.34489 0.0
O121 O 0.66668 0.07982 0.58784 0.0
Cd122 Cd 0.68537 0.11933 0.62157 0.0
O123 O 0.65688 0.09482 0.53642 0.0
Cd124 Cd 0.65307 0.11889 0.57868 0.0
O125 O 0.62985 0.11382 0.63048 0.0
C126 C 0.61462 0.09159 0.63754 0.0
O127 O 0.61455 0.07497 0.61406 0.0
C128 C 0.65968 0.07805 0.55171 0.0
C129 C 0.72383 0.15308 0.57386 0.0
O130 O 0.72677 0.13944 0.59885 0.0
O131 O 0.70286 0.15126 0.57204 0.0
H132 H 0.26521 0.48667 0.17998 0.0
H133 H 0.22978 0.41527 0.12489 0.0
H134 H 0.19552 0.4017 0.17219 0.0
H135 H 0.24839 0.46724 0.28038 0.0
H136 H 0.24316 0.4917 0.29401 0.0
H137 H 0.26463 0.49615 0.25506 0.0
H138 H 0.24159 0.50897 0.2057 0.0
H139 H 0.22012 0.50469 0.24459 0.0
H140 H 0.20956 0.48894 0.19758 0.0
H141 H 0.16676 0.39492 0.22868 0.0
H142 H 0.14347 0.39648 0.2868 0.0
H143 H 0.19617 0.47292 0.3027 0.0
C144 C 0.25014 0.46825 0.17766 0.0
C145 C 0.25018 0.452 0.1488 0.0
C146 C 0.2301 0.42806 0.14664 0.0
C147 C 0.21058 0.42016 0.17346 0.0
C148 C 0.21126 0.43652 0.20188 0.0
C149 C 0.23032 0.46016 0.20381 0.0
C150 C 0.2265 0.47408 0.23717 0.0
C151 C 0.24688 0.4828 0.2685 0.0
C152 C 0.22431 0.49543 0.22024 0.0
C153 C 0.2025 0.45444 0.25409 0.0
C154 C 0.19412 0.43287 0.23345 0.0
C155 C 0.17296 0.41179 0.24475 0.0
C156 C 0.15992 0.41282 0.27787 0.0
C157 C 0.16793 0.43485 0.29899 0.0
C158 C 0.18945 0.45592 0.28675 0.0
H159 H 0.72657 0.19041 0.52824 0.0
H160 H 0.76595 0.153 0.5578 0.0
H161 H 0.79795 0.17872 0.50923 0.0
H162 H 0.7391 0.19692 0.42424 0.0
H163 H 0.74279 0.22689 0.42049 0.0
H164 H 0.72341 0.20621 0.45866 0.0
H165 H 0.74789 0.23804 0.51336 0.0
H166 H 0.76731 0.25889 0.47531 0.0
H167 H 0.78032 0.25066 0.51616 0.0
H168 H 0.82392 0.20617 0.45363 0.0
H169 H 0.84371 0.2357 0.39851 0.0
H170 H 0.78879 0.25695 0.40785 0.0
C171 C 0.74203 0.18777 0.52474 0.0
C172 C 0.74374 0.16966 0.54676 0.0
C173 C 0.76429 0.16681 0.54138 0.0
C174 C 0.78254 0.1813 0.5138 0.0
C175 C 0.78015 0.19878 0.49224 0.0
C176 C 0.76059 0.20231 0.49776 0.0
C177 C 0.76235 0.2223 0.47065 0.0
C178 C 0.74062 0.21248 0.4418 0.0
C179 C 0.76461 0.24374 0.49535 0.0
C180 C 0.78574 0.22915 0.4485 0.0
C181 C 0.79565 0.21528 0.46128 0.0
C182 C 0.81652 0.21737 0.44376 0.0
C183 C 0.82758 0.23412 0.41241 0.0
C184 C 0.81791 0.24874 0.39921 0.0
C185 C 0.79681 0.24628 0.41776 0.0
H186 H 0.51966 0.72248 0.60443 0.0
H187 H 0.5941 0.75067 0.64324 0.0
H188 H 0.60775 0.7846 0.59505 0.0
H189 H 0.53176 0.73714 0.50067 0.0
H190 H 0.50914 0.74609 0.49473 0.0
H191 H 0.50515 0.72398 0.53224 0.0
H192 H 0.50078 0.75041 0.58703 0.0
H193 H 0.50468 0.77257 0.54966 0.0
H194 H 0.52432 0.78167 0.59277 0.0
H195 H 0.6136 0.81384 0.53963 0.0
H196 H 0.61084 0.83885 0.48533 0.0
H197 H 0.53235 0.79366 0.48609 0.0
C198 C 0.53882 0.73584 0.60281 0.0
C199 C 0.55586 0.73391 0.62739 0.0
C200 C 0.58074 0.75185 0.62474 0.0
C201 C 0.58867 0.77114 0.59738 0.0
C202 C 0.57145 0.77244 0.57338 0.0
C203 C 0.54699 0.75551 0.57624 0.0
C204 C 0.5322 0.76148 0.54763 0.0
C205 C 0.51878 0.74095 0.51701 0.0
C206 C 0.51445 0.76686 0.57065 0.0
C207 C 0.55219 0.78421 0.52784 0.0
C208 C 0.57471 0.79007 0.54287 0.0
C209 C 0.59605 0.80962 0.52797 0.0
C210 C 0.59431 0.82365 0.49705 0.0
C211 C 0.5714 0.81829 0.48182 0.0
C212 C 0.55009 0.79836 0.49759 0.0
H213 H 0.75962 0.56454 0.70308 0.0
H214 H 0.77062 0.6311 0.7583 0.0
H215 H 0.78915 0.62309 0.81712 0.0
H216 H 0.74667 0.52847 0.79525 0.0
H217 H 0.76306 0.51376 0.77846 0.0
H218 H 0.74856 0.52352 0.74251 0.0
H219 H 0.78956 0.54876 0.70529 0.0
H220 H 0.80418 0.53913 0.74112 0.0
H221 H 0.81568 0.57108 0.73258 0.0
H222 H 0.80831 0.60891 0.86831 0.0
H223 H 0.82819 0.59053 0.90691 0.0
H224 H 0.80585 0.5339 0.81721 0.0
C225 C 0.76554 0.57721 0.72786 0.0
C226 C 0.76352 0.59836 0.72628 0.0
C227 C 0.77193 0.61475 0.75894 0.0
C228 C 0.78241 0.61032 0.79252 0.0
C229 C 0.78443 0.58946 0.79289 0.0
C230 C 0.77628 0.5732 0.76138 0.0
C231 C 0.78209 0.55305 0.768 0.0
C232 C 0.7587 0.52823 0.77126 0.0
C233 C 0.79888 0.55302 0.73478 0.0
C234 C 0.79511 0.56073 0.80785 0.0
C235 C 0.79599 0.5816 0.82194 0.0
C236 C 0.80761 0.59248 0.85769 0.0
C237 C 0.81884 0.5819 0.87941 0.0
C238 C 0.81858 0.56077 0.86511 0.0
C239 C 0.80632 0.55 0.82903 0.0
H240 H 0.26682 0.80252 0.95302 0.0
H241 H 0.24934 0.85752 0.91625 0.0
H242 H 0.22281 0.83026 0.86289 0.0
H243 H 0.26601 0.77793 0.85349 0.0
H244 H 0.25188 0.74703 0.87139 0.0
H245 H 0.27127 0.77173 0.90409 0.0
H246 H 0.23649 0.7567 0.95634 0.0
H247 H 0.217 0.73201 0.9238 0.0
H248 H 0.20749 0.75276 0.94148 0.0
H249 H 0.19713 0.7965 0.81514 0.0
H250 H 0.17238 0.75794 0.7789 0.0
H251 H 0.20507 0.72424 0.84916 0.0
C252 C 0.25775 0.80898 0.93327 0.0
C253 C 0.26031 0.83222 0.93844 0.0
C254 C 0.24769 0.83982 0.91266 0.0
C255 C 0.23265 0.82449 0.88221 0.0
C256 C 0.23028 0.80157 0.87822 0.0
C257 C 0.24237 0.79378 0.90316 0.0
C258 C 0.23535 0.76768 0.89442 0.0
C259 C 0.25744 0.76601 0.87998 0.0
C260 C 0.22337 0.75133 0.93119 0.0
C261 C 0.21723 0.76192 0.86094 0.0
C262 C 0.21482 0.78182 0.85167 0.0
C263 C 0.19892 0.78082 0.82205 0.0
C264 C 0.18496 0.75884 0.80161 0.0
C265 C 0.18676 0.73807 0.81123 0.0
C266 C 0.20326 0.73978 0.84113 0.0
H267 H 0.48098 0.21757 0.09565 0.0
H268 H 0.40533 0.16149 0.08536 0.0
H269 H 0.39389 0.18383 0.13309 0.0
H270 H 0.48024 0.23195 0.20102 0.0
H271 H 0.49999 0.26414 0.1936 0.0
H272 H 0.50242 0.24278 0.16121 0.0
H273 H 0.49621 0.26369 0.09922 0.0
H274 H 0.49374 0.28507 0.1314 0.0
H275 H 0.46973 0.26706 0.0966 0.0
H276 H 0.39074 0.21238 0.1816 0.0
H277 H 0.39557 0.24663 0.22327 0.0
H278 H 0.47294 0.28546 0.19821 0.0
C279 C 0.46206 0.20984 0.10392 0.0
C280 C 0.44404 0.18769 0.08725 0.0
C281 C 0.4194 0.17841 0.09797 0.0
C282 C 0.41276 0.19092 0.12512 0.0
C283 C 0.43094 0.21283 0.14081 0.0
C284 C 0.45506 0.22234 0.13033 0.0
C285 C 0.47083 0.247 0.14937 0.0
C286 C 0.48947 0.24642 0.178 0.0
C287 C 0.48336 0.26687 0.11723 0.0
C288 C 0.45181 0.2499 0.17208 0.0
C289 C 0.42897 0.22983 0.16722 0.0
C290 C 0.40852 0.22822 0.18557 0.0
C291 C 0.41146 0.24773 0.20924 0.0
C292 C 0.4346 0.26873 0.21383 0.0
C293 C 0.455 0.26971 0.19506 0.0
H294 H 0.39734 0.45938 0.1167 0.0
H295 H 0.32089 0.40569 0.12969 0.0
H296 H 0.33198 0.37738 0.16111 0.0
H297 H 0.41845 0.41739 0.09422 0.0
H298 H 0.4461 0.43409 0.1225 0.0
H299 H 0.43217 0.44985 0.09982 0.0
H300 H 0.43076 0.46769 0.16892 0.0
H301 H 0.44476 0.45207 0.19175 0.0
H302 H 0.41616 0.44742 0.21058 0.0
H303 H 0.35144 0.35504 0.19177 0.0
H304 H 0.37777 0.34113 0.22225 0.0
H305 H 0.44138 0.40977 0.19006 0.0
C306 C 0.3829 0.44164 0.12596 0.0
C307 C 0.35823 0.43475 0.12059 0.0
C308 C 0.33992 0.41141 0.13348 0.0
C309 C 0.34603 0.39515 0.15125 0.0
C310 C 0.37052 0.40253 0.15603 0.0
C311 C 0.38866 0.42526 0.14394 0.0
C312 C 0.41356 0.42903 0.15367 0.0
C313 C 0.42844 0.4328 0.11526 0.0
C314 C 0.4271 0.45031 0.18298 0.0
C315 C 0.40659 0.40492 0.17334 0.0
C316 C 0.3817 0.38981 0.17415 0.0
C317 C 0.37097 0.3667 0.19125 0.0
C318 C 0.38609 0.35895 0.20843 0.0
C319 C 0.41166 0.37434 0.2086 0.0
C320 C 0.42193 0.39753 0.19042 0.0
H321 H 0.93721 0.3405 0.33667 0.0
H322 H 0.93057 0.39626 0.27184 0.0
H323 H 0.9744 0.42434 0.2797 0.0
H324 H 0.98206 0.3809 0.40797 0.0
H325 H 0.99841 0.3645 0.40842 0.0
H326 H 0.96631 0.34869 0.39815 0.0
H327 H 0.97407 0.33297 0.33131 0.0
H328 H 0.00621 0.34887 0.34125 0.0
H329 H 0.99494 0.35444 0.29526 0.0
H330 H 0.01879 0.44643 0.29386 0.0
H331 H 0.06104 0.46154 0.31521 0.0
H332 H 0.03942 0.39163 0.37042 0.0
C333 C 0.94494 0.35865 0.32433 0.0
C334 C 0.93036 0.36612 0.30364 0.0
C335 C 0.94128 0.39003 0.28779 0.0
C336 C 0.96621 0.40617 0.29204 0.0
C337 C 0.98007 0.39817 0.31218 0.0
C338 C 0.96989 0.37504 0.3282 0.0
C339 C 0.98901 0.37111 0.34839 0.0
C340 C 0.98362 0.366 0.3934 0.0
C341 C 0.99118 0.35063 0.32781 0.0
C342 C 0.01146 0.39565 0.3412 0.0
C343 C 0.00585 0.41095 0.32022 0.0
C344 C 0.02344 0.43464 0.31031 0.0
C345 C 0.04741 0.44304 0.32255 0.0
C346 C 0.05361 0.42779 0.34444 0.0
C347 C 0.03533 0.40371 0.35354 0.0
H348 H 0.58928 0.93574 0.51127 0.0
H349 H 0.61747 0.95176 0.38983 0.0
H350 H 0.64132 0.99541 0.40651 0.0
H351 H 0.58273 0.98674 0.52549 0.0
H352 H 0.59262 0.99178 0.57694 0.0
H353 H 0.57883 0.96165 0.55621 0.0
H354 H 0.61655 0.95849 0.57611 0.0
H355 H 0.63041 0.98859 0.59718 0.0
H356 H 0.64625 0.98156 0.55946 0.0
H357 H 0.65772 0.03762 0.43399 0.0
H358 H 0.66979 0.0751 0.47315 0.0
H359 H 0.63429 0.03136 0.57817 0.0
C360 C 0.60075 0.94842 0.4884 0.0
C361 C 0.60151 0.94043 0.44925 0.0
C362 C 0.61676 0.95751 0.42009 0.0
C363 C 0.63029 0.98233 0.42923 0.0
C364 C 0.6288 0.98969 0.4679 0.0
C365 C 0.61483 0.9732 0.49728 0.0
C366 C 0.61632 0.98587 0.53643 0.0
C367 C 0.59113 0.98123 0.54951 0.0
C368 C 0.62809 0.97817 0.56923 0.0
C369 C 0.63274 0.0121 0.52416 0.0
C370 C 0.63958 0.01395 0.48441 0.0
C371 C 0.65298 0.03642 0.46539 0.0
C372 C 0.65966 0.05754 0.4877 0.0
C373 C 0.65331 0.05596 0.52864 0.0
C374 C 0.63987 0.03298 0.54711 0.0
H375 H 0.59569 0.64892 0.69008 0.0
H376 H 0.53739 0.59397 0.61787 0.0
H377 H 0.56438 0.57843 0.59648 0.0
H378 H 0.64506 0.66105 0.62348 0.0
H379 H 0.6656 0.6646 0.66348 0.0
H380 H 0.64188 0.67175 0.67186 0.0
H381 H 0.62612 0.64184 0.73198 0.0
H382 H 0.64973 0.63453 0.72368 0.0
H383 H 0.61838 0.61067 0.72463 0.0
H384 H 0.59844 0.5698 0.58154 0.0
H385 H 0.636 0.56766 0.57658 0.0
H386 H 0.67068 0.62617 0.66285 0.0
C387 C 0.58863 0.63374 0.66949 0.0
C388 C 0.56449 0.62276 0.65539 0.0
C389 C 0.55585 0.60269 0.62899 0.0
C390 C 0.57104 0.59376 0.61665 0.0
C391 C 0.59471 0.60493 0.63135 0.0
C392 C 0.60339 0.6244 0.65737 0.0
C393 C 0.62927 0.63273 0.66978 0.0
C394 C 0.64646 0.6591 0.65633 0.0
C395 C 0.63096 0.62976 0.71521 0.0
C396 C 0.63387 0.61501 0.64651 0.0
C397 C 0.61379 0.59919 0.62435 0.0
C398 C 0.61408 0.58174 0.59947 0.0
C399 C 0.63542 0.58034 0.59738 0.0
C400 C 0.65602 0.596 0.6206 0.0
C401 C 0.65513 0.61365 0.64519 0.0
H402 H 0.94634 0.5381 0.85349 0.0
H403 H 0.93971 0.59999 0.89086 0.0
H404 H 0.98198 0.62769 0.86927 0.0
H405 H 0.00765 0.56137 0.88526 0.0
H406 H 0.01575 0.54901 0.8433 0.0
H407 H 0.98484 0.53412 0.86102 0.0
H408 H 0.97002 0.53698 0.78998 0.0
H409 H 0.00087 0.5518 0.77199 0.0
H410 H 0.9828 0.56617 0.76555 0.0
H411 H 0.02533 0.64861 0.84433 0.0
H412 H 0.066 0.66112 0.81674 0.0
H413 H 0.04392 0.58537 0.79597 0.0
C414 C 0.95369 0.55748 0.85703 0.0
C415 C 0.93966 0.56685 0.87389 0.0
C416 C 0.95006 0.59235 0.878 0.0
C417 C 0.97408 0.60824 0.86586 0.0
C418 C 0.98743 0.59836 0.84963 0.0
C419 C 0.97757 0.57357 0.84509 0.0
C420 C 0.99576 0.56755 0.82693 0.0
C421 C 0.00132 0.5521 0.85587 0.0
C422 C 0.98683 0.55488 0.78619 0.0
C423 C 0.01743 0.59283 0.82208 0.0
C424 C 0.01229 0.61036 0.83533 0.0
C425 C 0.02954 0.63504 0.83382 0.0
C426 C 0.05261 0.64195 0.81814 0.0
C427 C 0.05821 0.62426 0.80418 0.0
C428 C 0.0403 0.59939 0.8064 0.0
H429 H 0.41199 0.06466 0.01053 0.0
H430 H 0.48261 0.07172 0.99038 0.0
H431 H 0.46442 0.02716 0.99822 0.0
H432 H 0.39109 0.01783 0.0852 0.0
H433 H 0.36023 0.00242 0.06728 0.0
H434 H 0.37905 0.03474 0.06033 0.0
H435 H 0.37106 0.02952 0.98383 0.0
H436 H 0.35218 0.9972 0.99056 0.0
H437 H 0.37759 0.009 0.95645 0.0
H438 H 0.4379 0.9813 0.00997 0.0
H439 H 0.40536 0.9386 0.02061 0.0
H440 H 0.35256 0.9625 0.03144 0.0
C441 C 0.42367 0.05686 0.00788 0.0
C442 C 0.44867 0.07159 0.99952 0.0
C443 C 0.46331 0.06069 0.99597 0.0
C444 C 0.45317 0.03544 0.00074 0.0
C445 C 0.42836 0.0214 0.00884 0.0
C446 C 0.41382 0.03178 0.0121 0.0
C447 C 0.38763 0.01285 0.02001 0.0
C448 C 0.379 0.01723 0.06062 0.0
C449 C 0.37115 0.0121 0.98566 0.0
C450 C 0.38961 0.99012 0.02089 0.0
C451 C 0.41324 0.99533 0.01473 0.0
C452 C 0.41936 0.97706 0.01485 0.0
C453 C 0.40081 0.95289 0.02124 0.0
C454 C 0.37649 0.94728 0.02712 0.0
C455 C 0.37097 0.96622 0.02682 0.0
H456 H 0.4058 0.55419 0.95504 0.0
H457 H 0.33198 0.52715 0.91367 0.0
H458 H 0.34785 0.55023 0.8506 0.0
H459 H 0.43269 0.61513 0.90825 0.0
H460 H 0.46045 0.61543 0.896 0.0
H461 H 0.44325 0.59921 0.93968 0.0
H462 H 0.44134 0.55989 0.91354 0.0
H463 H 0.45843 0.57592 0.86982 0.0
H464 H 0.42925 0.54881 0.86431 0.0
H465 H 0.37185 0.57293 0.78931 0.0
H466 H 0.40188 0.59318 0.73509 0.0
H467 H 0.45984 0.60525 0.81702 0.0
C468 C 0.39292 0.55349 0.93313 0.0
C469 C 0.36762 0.5389 0.93941 0.0
C470 C 0.35144 0.53826 0.90964 0.0
C471 C 0.36028 0.55135 0.87373 0.0
C472 C 0.38535 0.56513 0.86816 0.0
C473 C 0.40143 0.56638 0.89718 0.0
C474 C 0.42746 0.58102 0.88281 0.0
C475 C 0.4418 0.60407 0.90819 0.0
C476 C 0.43983 0.56548 0.8826 0.0
C477 C 0.42351 0.58722 0.84071 0.0
C478 C 0.39914 0.57815 0.83293 0.0
C479 C 0.39101 0.58039 0.79525 0.0
C480 C 0.40821 0.5919 0.76461 0.0
C481 C 0.43324 0.6009 0.77177 0.0
C482 C 0.4409 0.59884 0.8106 0.0
H483 H 0.86401 0.47839 0.07052 0.0
H484 H 0.82316 0.42605 0.97758 0.0
H485 H 0.81132 0.39259 0.02625 0.0
H486 H 0.88877 0.44627 0.11259 0.0
H487 H 0.88744 0.45469 0.16369 0.0
H488 H 0.88951 0.47444 0.12339 0.0
H489 H 0.8504 0.47335 0.14862 0.0
H490 H 0.84825 0.45362 0.18922 0.0
H491 H 0.82303 0.44449 0.15552 0.0
H492 H 0.80824 0.36475 0.08313 0.0
H493 H 0.81422 0.34525 0.14289 0.0
H494 H 0.85699 0.41615 0.19789 0.0
C495 C 0.85208 0.45994 0.06054 0.0
C496 C 0.84445 0.45487 0.02024 0.0
C497 C 0.82915 0.43041 0.00835 0.0
C498 C 0.82228 0.41127 0.03581 0.0
C499 C 0.8307 0.41691 0.0751 0.0
C500 C 0.84512 0.4407 0.08747 0.0
C501 C 0.85354 0.44196 0.13022 0.0
C502 C 0.88146 0.45511 0.13257 0.0
C503 C 0.84318 0.45407 0.1575 0.0
C504 C 0.84232 0.41517 0.1396 0.0
C505 C 0.82894 0.40095 0.10769 0.0
C506 C 0.81834 0.3757 0.10853 0.0
C507 C 0.82185 0.36478 0.14258 0.0
C508 C 0.83599 0.37914 0.17516 0.0
C509 C 0.84585 0.4046 0.17375 0.0
H510 H 0.48797 0.90876 0.35173 0.0
H511 H 0.49474 0.84921 0.30245 0.0
H512 H 0.47396 0.85066 0.24074 0.0
H513 H 0.42844 0.89004 0.31168 0.0
H514 H 0.43523 0.92074 0.30214 0.0
H515 H 0.45025 0.91459 0.34237 0.0
H516 H 0.49206 0.9457 0.31223 0.0
H517 H 0.47717 0.95183 0.27175 0.0
H518 H 0.49892 0.94227 0.26105 0.0
H519 H 0.45354 0.85971 0.18342 0.0
H520 H 0.43325 0.87409 0.1367 0.0
H521 H 0.43961 0.9273 0.22456 0.0
C522 C 0.485 0.89591 0.32809 0.0
C523 C 0.49301 0.87887 0.33191 0.0
C524 C 0.48871 0.86238 0.30024 0.0
C525 C 0.47699 0.86311 0.26504 0.0
C526 C 0.4696 0.88036 0.26212 0.0
C527 C 0.47329 0.89632 0.29295 0.0
C528 C 0.46362 0.91311 0.28249 0.0
C529 C 0.44317 0.90938 0.31138 0.0
C530 C 0.48417 0.9398 0.28184 0.0
C531 C 0.45398 0.90419 0.24083 0.0
C532 C 0.45766 0.88536 0.22951 0.0
C533 C 0.45048 0.87438 0.19205 0.0
C534 C 0.43904 0.88273 0.16568 0.0
C535 C 0.43479 0.9018 0.17696 0.0
C536 C 0.44251 0.91266 0.21502 0.0
H537 H 0.614 0.48951 0.45272 0.0
H538 H 0.57883 0.46526 0.5686 0.0
H539 H 0.54448 0.42973 0.53636 0.0
H540 H 0.56136 0.47474 0.39819 0.0
H541 H 0.5704 0.46502 0.35394 0.0
H542 H 0.59311 0.48719 0.38665 0.0
H543 H 0.61259 0.46 0.39432 0.0
H544 H 0.58986 0.43769 0.36162 0.0
H545 H 0.59417 0.42899 0.41103 0.0
H546 H 0.51266 0.39849 0.49073 0.0
H547 H 0.48556 0.37456 0.43528 0.0
H548 H 0.54181 0.41934 0.34953 0.0
C549 C 0.59925 0.47658 0.47147 0.0
C550 C 0.59915 0.48015 0.51323 0.0
C551 C 0.57935 0.46289 0.53656 0.0
C552 C 0.55979 0.44261 0.51854 0.0
C553 C 0.56036 0.43979 0.47721 0.0
C554 C 0.57962 0.45628 0.454 0.0
C555 C 0.57523 0.44988 0.40997 0.0
C556 C 0.575 0.47042 0.38579 0.0
C557 C 0.59408 0.44377 0.39326 0.0
C558 C 0.55024 0.42752 0.41191 0.0
C559 C 0.54206 0.42183 0.45098 0.0
C560 C 0.51898 0.40262 0.46006 0.0
C561 C 0.50371 0.38914 0.42834 0.0
C562 C 0.51156 0.395 0.38804 0.0
C563 C 0.53532 0.4142 0.37997 0.0
H564 H 0.12673 0.61072 0.58247 0.0
H565 H 0.16395 0.59288 0.67366 0.0
H566 H 0.17403 0.57089 0.6231 0.0
H567 H 0.09892 0.55499 0.536 0.0
H568 H 0.10162 0.56651 0.48574 0.0
H569 H 0.10058 0.58381 0.52747 0.0
H570 H 0.1414 0.62083 0.50492 0.0
H571 H 0.14252 0.60363 0.46289 0.0
H572 H 0.16755 0.61727 0.49755 0.0
H573 H 0.17557 0.54661 0.56432 0.0
H574 H 0.16864 0.52255 0.50255 0.0
H575 H 0.1306 0.55673 0.45045 0.0
C576 C 0.13751 0.60271 0.5917 0.0
C577 C 0.14461 0.60359 0.63202 0.0
C578 C 0.1584 0.59255 0.64289 0.0
C579 C 0.16425 0.58005 0.61436 0.0
C580 C 0.15637 0.57895 0.57505 0.0
C581 C 0.14347 0.59019 0.56368 0.0
C582 C 0.13535 0.58471 0.52049 0.0
C583 C 0.10747 0.57173 0.51727 0.0
C584 C 0.14744 0.608 0.49496 0.0
C585 C 0.14494 0.56794 0.5097 0.0
C586 C 0.15728 0.56505 0.54132 0.0
C587 C 0.16628 0.54906 0.53915 0.0
C588 C 0.16223 0.53543 0.50396 0.0
C589 C 0.14916 0.53781 0.47158 0.0
C590 C 0.14089 0.55466 0.47443 0.0
H591 H 0.60953 0.12091 0.69303 0.0
H592 H 0.57993 0.04548 0.65807 0.0
H593 H 0.55035 0.03265 0.71338 0.0
H594 H 0.60372 0.11021 0.79994 0.0
H595 H 0.59534 0.13294 0.80983 0.0
H596 H 0.61443 0.13634 0.76755 0.0
H597 H 0.58412 0.13994 0.72016 0.0
H598 H 0.56494 0.13657 0.76229 0.0
H599 H 0.55268 0.11627 0.72016 0.0
H600 H 0.52363 0.02783 0.77183 0.0
H601 H 0.50152 0.03147 0.82976 0.0
H602 H 0.54842 0.10991 0.82723 0.0
C603 C 0.59686 0.1017 0.69705 0.0
C604 C 0.59708 0.08422 0.67115 0.0
C605 C 0.58016 0.05924 0.67746 0.0
C606 C 0.56326 0.05174 0.70884 0.0
C607 C 0.5635 0.06939 0.73376 0.0
C608 C 0.57983 0.09385 0.72831 0.0
C609 C 0.57608 0.10907 0.75932 0.0
C610 C 0.59874 0.12296 0.78572 0.0
C611 C 0.56903 0.12649 0.73927 0.0
C612 C 0.55503 0.08934 0.78288 0.0
C613 C 0.54808 0.06659 0.76764 0.0
C614 C 0.52893 0.04555 0.78412 0.0
C615 C 0.51647 0.04781 0.81703 0.0
C616 C 0.52322 0.07095 0.83313 0.0
C617 C 0.54283 0.09194 0.81575 0.0
loop_
_geom_bond_atom_site_label_1
_geom_bond_atom_site_label_2
_geom_bond_distance
_geom_bond_site_symmetry_2
_ccdc_geom_bond_type
O0 Cd1 2.300 . S
O0 C7 1.275 . S
Cd1 O0 2.300 . S
Cd1 O9 2.381 . S
Cd1 O10 2.378 . S
O2 Cd3 2.385 . S
O2 C7 1.255 . S
Cd3 O2 2.385 . S
Cd3 O4 2.317 . S
O4 Cd3 2.317 . S
O4 C5 1.232 . S
C5 O4 1.232 . S
C5 O6 1.218 . S
O6 C5 1.218 . S
C7 O0 1.275 . S
C7 O2 1.255 . S
C8 O9 1.258 . S
C8 O10 1.256 . S
O9 Cd1 2.381 . S
O9 C8 1.258 . S
O10 Cd1 2.378 . S
O10 C8 1.256 . S
O11 Cd12 2.300 . S
O11 C18 1.275 . S
Cd12 O11 2.300 . S
Cd12 O20 2.381 . S
Cd12 O21 2.378 . S
O13 Cd14 2.385 . S
O13 C18 1.255 . S
Cd14 O13 2.385 . S
Cd14 O15 2.317 . S
O15 Cd14 2.317 . S
O15 C16 1.232 . S
C16 O15 1.232 . S
C16 O17 1.218 . S
O17 C16 1.218 . S
C18 O11 1.275 . S
C18 O13 1.255 . S
C19 O20 1.258 . S
C19 O21 1.256 . S
O20 Cd12 2.381 . S
O20 C19 1.258 . S
O21 Cd12 2.378 . S
O21 C19 1.256 . S
O22 Cd23 2.300 . S
O22 C29 1.275 . S
Cd23 O22 2.300 . S
Cd23 O31 2.381 . S
Cd23 O32 2.378 . S
O24 Cd25 2.385 . S
O24 C29 1.255 . S
Cd25 O24 2.385 . S
Cd25 O26 2.317 . S
O26 Cd25 2.317 . S
O26 C27 1.232 . S
C27 O26 1.232 . S
C27 O28 1.218 . S
O28 C27 1.218 . S
C29 O22 1.275 . S
C29 O24 1.255 . S
C30 O31 1.258 . S
C30 O32 1.256 . S
O31 Cd23 2.381 . S
O31 C30 1.258 . S
O32 Cd23 2.378 . S
O32 C30 1.256 . S
O33 Cd34 2.300 . S
O33 C40 1.275 . S
Cd34 O33 2.300 . S
Cd34 O42 2.381 . S
Cd34 O43 2.378 . S
O35 Cd36 2.385 . S
O35 C40 1.255 . S
Cd36 O35 2.385 . S
Cd36 O37 2.317 . S
O37 Cd36 2.317 . S
O37 C38 1.232 . S
C38 O37 1.232 . S
C38 O39 1.218 . S
O39 C38 1.218 . S
C40 O33 1.275 . S
C40 O35 1.255 . S
C41 O42 1.258 . S
C41 O43 1.256 . S
O42 Cd34 2.381 . S
O42 C41 1.258 . S
O43 Cd34 2.378 . S
O43 C41 1.256 . S
O44 Cd45 2.300 . S
O44 C51 1.275 . S
Cd45 O44 2.300 . S
Cd45 O53 2.381 . S
Cd45 O54 2.378 . S
O46 Cd47 2.385 . S
O46 C51 1.255 . S
Cd47 O46 2.385 . S
Cd47 O48 2.317 . S
O48 Cd47 2.317 . S
O48 C49 1.232 . S
C49 O48 1.232 . S
C49 O50 1.218 . S
O50 C49 1.218 . S
C51 O44 1.275 . S
C51 O46 1.255 . S
C52 O53 1.258 . S
C52 O54 1.256 . S
O53 Cd45 2.381 . S
O53 C52 1.258 . S
O54 Cd45 2.378 . S
O54 C52 1.256 . S
O55 Cd56 2.300 . S
O55 C62 1.275 . S
Cd56 O55 2.300 . S
Cd56 O64 2.381 . S
Cd56 O65 2.378 . S
O57 Cd58 2.385 . S
O57 C62 1.255 . S
Cd58 O57 2.385 . S
Cd58 O59 2.317 . S
O59 Cd58 2.317 . S
O59 C60 1.232 . S
C60 O59 1.232 . S
C60 O61 1.218 . S
O61 C60 1.218 . S
C62 O55 1.275 . S
C62 O57 1.255 . S
C63 O64 1.258 1_554 S
C63 O65 1.256 1_554 S
O64 Cd56 2.381 . S
O64 C63 1.258 1_556 S
O65 Cd56 2.378 . S
O65 C63 1.256 1_556 S
O66 Cd67 2.300 . S
O66 C73 1.275 . S
Cd67 O66 2.300 . S
Cd67 O75 2.381 . S
Cd67 O76 2.378 . S
O68 Cd69 2.385 . S
O68 C73 1.255 . S
Cd69 O68 2.385 . S
Cd69 O70 2.317 . S
O70 Cd69 2.317 . S
O70 C71 1.232 . S
C71 O70 1.232 . S
C71 O72 1.218 . S
O72 C71 1.218 . S
C73 O66 1.275 . S
C73 O68 1.255 . S
C74 O75 1.258 . S
C74 O76 1.256 . S
O75 Cd67 2.381 . S
O75 C74 1.258 . S
O76 Cd67 2.378 . S
O76 C74 1.256 . S
O77 Cd78 2.300 . S
O77 C84 1.275 . S
Cd78 O77 2.300 . S
Cd78 O86 2.381 . S
Cd78 O87 2.378 . S
O79 Cd80 2.385 . S
O79 C84 1.255 . S
Cd80 O79 2.385 . S
Cd80 O81 2.317 . S
O81 Cd80 2.317 . S
O81 C82 1.232 . S
C82 O81 1.232 . S
C82 O83 1.218 . S
O83 C82 1.218 . S
C84 O77 1.275 . S
C84 O79 1.255 . S
C85 O86 1.258 . S
C85 O87 1.256 . S
O86 Cd78 2.381 . S
O86 C85 1.258 . S
O87 Cd78 2.378 . S
O87 C85 1.256 . S
O88 Cd89 2.300 . S
O88 C95 1.275 . S
Cd89 O88 2.300 . S
Cd89 O97 2.381 . S
Cd89 O98 2.378 . S
O90 Cd91 2.385 . S
O90 C95 1.255 . S
Cd91 O90 2.385 . S
Cd91 O92 2.317 . S
O92 Cd91 2.317 . S
O92 C93 1.232 . S
C93 O92 1.232 . S
C93 O94 1.218 . S
O94 C93 1.218 . S
C95 O88 1.275 . S
C95 O90 1.255 . S
C96 O97 1.258 1_556 S
C96 O98 1.256 1_556 S
O97 Cd89 2.381 . S
O97 C96 1.258 1_554 S
O98 Cd89 2.378 . S
O98 C96 1.256 1_554 S
O99 Cd100 2.300 . S
O99 C106 1.275 . S
Cd100 O99 2.300 . S
Cd100 O108 2.381 . S
Cd100 O109 2.378 . S
O101 Cd102 2.385 . S
O101 C106 1.255 . S
Cd102 O101 2.385 . S
Cd102 O103 2.317 . S
O103 Cd102 2.317 . S
O103 C104 1.232 . S
C104 O103 1.232 . S
C104 O105 1.218 . S
O105 C104 1.218 . S
C106 O99 1.275 . S
C106 O101 1.255 . S
C107 O108 1.258 . S
C107 O109 1.256 . S
O108 Cd100 2.381 . S
O108 C107 1.258 . S
O109 Cd100 2.378 . S
O109 C107 1.256 . S
O110 Cd111 2.300 . S
O110 C117 1.275 . S
Cd111 O110 2.300 . S
Cd111 O119 2.381 . S
Cd111 O120 2.378 . S
O112 Cd113 2.385 . S
O112 C117 1.255 . S
Cd113 O112 2.385 . S
Cd113 O114 2.317 . S
O114 Cd113 2.317 . S
O114 C115 1.232 . S
C115 O114 1.232 . S
C115 O116 1.218 . S
O116 C115 1.218 . S
C117 O110 1.275 . S
C117 O112 1.255 . S
C118 O119 1.258 . S
C118 O120 1.256 . S
O119 Cd111 2.381 . S
O119 C118 1.258 . S
O120 Cd111 2.378 . S
O120 C118 1.256 . S
O121 Cd122 2.300 . S
O121 C128 1.275 . S
Cd122 O121 2.300 . S
Cd122 O130 2.381 . S
Cd122 O131 2.378 . S
O123 Cd124 2.385 . S
O123 C128 1.255 . S
Cd124 O123 2.385 . S
Cd124 O125 2.317 . S
O125 Cd124 2.317 . S
O125 C126 1.232 . S
C126 O125 1.232 . S
C126 O127 1.218 . S
O127 C126 1.218 . S
C128 O121 1.275 . S
C128 O123 1.255 . S
C129 O130 1.258 . S
C129 O131 1.256 . S
O130 Cd122 2.381 . S
O130 C129 1.258 . S
O131 Cd122 2.378 . S
O131 C129 1.256 . S
H132 C144 0.930 . S
H133 C146 0.930 . S
H134 C147 0.930 . S
H135 C151 0.959 . S
H136 C151 0.959 . S
H137 C151 0.961 . S
H138 C152 0.960 . S
H139 C152 0.961 . S
H140 C152 0.959 . S
H141 C155 0.929 . S
H142 C156 0.931 . S
H143 C158 0.930 . S
C144 H132 0.930 . S
C144 C145 1.399 . S
C144 C149 1.399 . S
C145 C144 1.399 . S
C145 C146 1.376 . S
C146 H133 0.930 . S
C146 C145 1.376 . S
C146 C147 1.388 . S
C147 H134 0.930 . S
C147 C146 1.388 . S
C147 C148 1.390 . S
C148 C147 1.390 . S
C148 C149 1.394 . S
C148 C154 1.465 . S
C149 C144 1.399 . S
C149 C148 1.394 . S
C149 C150 1.516 . S
C150 C149 1.516 . S
C150 C151 1.502 . S
C150 C152 1.561 . S
C150 C153 1.526 . S
C151 H135 0.959 . S
C151 H136 0.959 . S
C151 H137 0.961 . S
C151 C150 1.502 . S
C152 H138 0.960 . S
C152 H139 0.961 . S
C152 H140 0.959 . S
C152 C150 1.561 . S
C153 C150 1.526 . S
C153 C154 1.396 . S
C153 C158 1.390 . S
C154 C148 1.465 . S
C154 C153 1.396 . S
C154 C155 1.399 . S
C155 H141 0.929 . S
C155 C154 1.399 . S
C155 C156 1.385 . S
C156 H142 0.931 . S
C156 C155 1.385 . S
C156 C157 1.389 . S
C157 C156 1.389 . S
C157 C158 1.387 . S
C158 H143 0.930 . S
C158 C153 1.390 . S
C158 C157 1.387 . S
H159 C171 0.930 . S
H160 C173 0.930 . S
H161 C174 0.930 . S
H162 C178 0.959 . S
H163 C178 0.959 . S
H164 C178 0.961 . S
H165 C179 0.960 . S
H166 C179 0.961 . S
H167 C179 0.959 . S
H168 C182 0.929 . S
H169 C183 0.931 . S
H170 C185 0.930 . S
C171 H159 0.930 . S
C171 C172 1.399 . S
C171 C176 1.399 . S
C172 C171 1.399 . S
C172 C173 1.376 . S
C173 H160 0.930 . S
C173 C172 1.376 . S
C173 C174 1.388 . S
C174 H161 0.930 . S
C174 C173 1.388 . S
C174 C175 1.390 . S
C175 C174 1.390 . S
C175 C176 1.394 . S
C175 C181 1.465 . S
C176 C171 1.399 . S
C176 C175 1.394 . S
C176 C177 1.516 . S
C177 C176 1.516 . S
C177 C178 1.502 . S
C177 C179 1.561 . S
C177 C180 1.526 . S
C178 H162 0.959 . S
C178 H163 0.959 . S
C178 H164 0.961 . S
C178 C177 1.502 . S
C179 H165 0.960 . S
C179 H166 0.961 . S
C179 H167 0.959 . S
C179 C177 1.561 . S
C180 C177 1.526 . S
C180 C181 1.396 . S
C180 C185 1.390 . S
C181 C175 1.465 . S
C181 C180 1.396 . S
C181 C182 1.399 . S
C182 H168 0.929 . S
C182 C181 1.399 . S
C182 C183 1.385 . S
C183 H169 0.931 . S
C183 C182 1.385 . S
C183 C184 1.389 . S
C184 C183 1.389 . S
C184 C185 1.387 . S
C185 H170 0.930 . S
C185 C180 1.390 . S
C185 C184 1.387 . S
H186 C198 0.930 . S
H187 C200 0.930 . S
H188 C201 0.930 . S
H189 C205 0.959 . S
H190 C205 0.959 . S
H191 C205 0.961 . S
H192 C206 0.960 . S
H193 C206 0.961 . S
H194 C206 0.959 . S
H195 C209 0.929 . S
H196 C210 0.931 . S
H197 C212 0.930 . S
C198 H186 0.930 . S
C198 C199 1.399 . S
C198 C203 1.399 . S
C199 C198 1.399 . S
C199 C200 1.376 . S
C200 H187 0.930 . S
C200 C199 1.376 . S
C200 C201 1.388 . S
C201 H188 0.930 . S
C201 C200 1.388 . S
C201 C202 1.390 . S
C202 C201 1.390 . S
C202 C203 1.394 . S
C202 C208 1.465 . S
C203 C198 1.399 . S
C203 C202 1.394 . S
C203 C204 1.516 . S
C204 C203 1.516 . S
C204 C205 1.502 . S
C204 C206 1.561 . S
C204 C207 1.526 . S
C205 H189 0.959 . S
C205 H190 0.959 . S
C205 H191 0.961 . S
C205 C204 1.502 . S
C206 H192 0.960 . S
C206 H193 0.961 . S
C206 H194 0.959 . S
C206 C204 1.561 . S
C207 C204 1.526 . S
C207 C208 1.396 . S
C207 C212 1.390 . S
C208 C202 1.465 . S
C208 C207 1.396 . S
C208 C209 1.399 . S
C209 H195 0.929 . S
C209 C208 1.399 . S
C209 C210 1.385 . S
C210 H196 0.931 . S
C210 C209 1.385 . S
C210 C211 1.389 . S
C211 C210 1.389 . S
C211 C212 1.387 . S
C212 H197 0.930 . S
C212 C207 1.390 . S
C212 C211 1.387 . S
H213 C225 0.930 . S
H214 C227 0.930 . S
H215 C228 0.930 . S
H216 C232 0.959 . S
H217 C232 0.959 . S
H218 C232 0.961 . S
H219 C233 0.960 . S
H220 C233 0.961 . S
H221 C233 0.959 . S
H222 C236 0.929 . S
H223 C237 0.931 . S
H224 C239 0.930 . S
C225 H213 0.930 . S
C225 C226 1.399 . S
C225 C230 1.399 . S
C226 C225 1.399 . S
C226 C227 1.376 . S
C227 H214 0.930 . S
C227 C226 1.376 . S
C227 C228 1.388 . S
C228 H215 0.930 . S
C228 C227 1.388 . S
C228 C229 1.390 . S
C229 C228 1.390 . S
C229 C230 1.394 . S
C229 C235 1.465 . S
C230 C225 1.399 . S
C230 C229 1.394 . S
C230 C231 1.516 . S
C231 C230 1.516 . S
C231 C232 1.502 . S
C231 C233 1.561 . S
C231 C234 1.526 . S
C232 H216 0.959 . S
C232 H217 0.959 . S
C232 H218 0.961 . S
C232 C231 1.502 . S
C233 H219 0.960 . S
C233 H220 0.961 . S
C233 H221 0.959 . S
C233 C231 1.561 . S
C234 C231 1.526 . S
C234 C235 1.396 . S
C234 C239 1.390 . S
C235 C229 1.465 . S
C235 C234 1.396 . S
C235 C236 1.399 . S
C236 H222 0.929 . S
C236 C235 1.399 . S
C236 C237 1.385 . S
C237 H223 0.931 . S
C237 C236 1.385 . S
C237 C238 1.389 . S
C238 C237 1.389 . S
C238 C239 1.387 . S
C239 H224 0.930 . S
C239 C234 1.390 . S
C239 C238 1.387 . S
H240 C252 0.930 . S
H241 C254 0.930 . S
H242 C255 0.930 . S
H243 C259 0.959 . S
H244 C259 0.959 . S
H245 C259 0.961 . S
H246 C260 0.940 1_554 S
H247 C260 0.961 . S
H248 C260 0.959 . S
H249 C263 0.929 . S
H250 C264 0.931 . S
H251 C266 0.930 . S
C252 H240 0.930 . S
C252 C253 1.399 . S
C252 C257 1.399 . S
C253 C252 1.399 . S
C253 C254 1.376 . S
C254 H241 0.930 . S
C254 C253 1.376 . S
C254 C255 1.388 . S
C255 H242 0.930 . S
C255 C254 1.388 . S
C255 C256 1.390 . S
C256 C255 1.390 . S
C256 C257 1.394 . S
C256 C262 1.465 . S
C257 C252 1.399 . S
C257 C256 1.394 . S
C257 C258 1.516 . S
C258 C257 1.516 . S
C258 C259 1.502 . S
C258 C260 1.561 . S
C258 C261 1.526 . S
C259 H243 0.959 . S
C259 H244 0.959 . S
C259 H245 0.961 . S
C259 C258 1.502 . S
C260 H246 0.940 1_556 S
C260 H247 0.961 . S
C260 H248 0.959 . S
C260 C258 1.561 . S
C261 C258 1.526 . S
C261 C262 1.396 . S
C261 C266 1.390 . S
C262 C256 1.465 . S
C262 C261 1.396 . S
C262 C263 1.399 . S
C263 H249 0.929 . S
C263 C262 1.399 . S
C263 C264 1.385 . S
C264 H250 0.931 . S
C264 C263 1.385 . S
C264 C265 1.389 . S
C265 C264 1.389 . S
C265 C266 1.387 . S
C266 H251 0.930 . S
C266 C261 1.390 . S
C266 C265 1.387 . S
H267 C279 0.930 . S
H268 C281 0.930 . S
H269 C282 0.930 . S
H270 C286 0.959 . S
H271 C286 0.959 . S
H272 C286 0.961 . S
H273 C287 0.960 . S
H274 C287 0.961 . S
H275 C287 0.959 . S
H276 C290 0.929 . S
H277 C291 0.931 . S
H278 C293 0.930 . S
C279 H267 0.930 . S
C279 C280 1.399 . S
C279 C284 1.399 . S
C280 C279 1.399 . S
C280 C281 1.376 . S
C281 H268 0.930 . S
C281 C280 1.376 . S
C281 C282 1.388 . S
C282 H269 0.930 . S
C282 C281 1.388 . S
C282 C283 1.390 . S
C283 C282 1.390 . S
C283 C284 1.394 . S
C283 C289 1.465 . S
C284 C279 1.399 . S
C284 C283 1.394 . S
C284 C285 1.516 . S
C285 C284 1.516 . S
C285 C286 1.502 . S
C285 C287 1.561 . S
C285 C288 1.526 . S
C286 H270 0.959 . S
C286 H271 0.959 . S
C286 H272 0.961 . S
C286 C285 1.502 . S
C287 H273 0.960 . S
C287 H274 0.961 . S
C287 H275 0.959 . S
C287 C285 1.561 . S
C288 C285 1.526 . S
C288 C289 1.396 . S
C288 C293 1.390 . S
C289 C283 1.465 . S
C289 C288 1.396 . S
C289 C290 1.399 . S
C290 H276 0.929 . S
C290 C289 1.399 . S
C290 C291 1.385 . S
C291 H277 0.931 . S
C291 C290 1.385 . S
C291 C292 1.389 . S
C292 C291 1.389 . S
C292 C293 1.387 . S
C293 H278 0.930 . S
C293 C288 1.390 . S
C293 C292 1.387 . S
H294 C306 0.930 . S
H295 C308 0.930 . S
H296 C309 0.930 . S
H297 C313 0.959 . S
H298 C313 0.959 . S
H299 C313 0.961 . S
H300 C314 0.960 . S
H301 C314 0.961 . S
H302 C314 0.959 . S
H303 C317 0.929 . S
H304 C318 0.931 . S
H305 C320 0.930 . S
C306 H294 0.930 . S
C306 C307 1.399 . S
C306 C311 1.399 . S
C307 C306 1.399 . S
C307 C308 1.376 . S
C308 H295 0.930 . S
C308 C307 1.376 . S
C308 C309 1.388 . S
C309 H296 0.930 . S
C309 C308 1.388 . S
C309 C310 1.390 . S
C310 C309 1.390 . S
C310 C311 1.394 . S
C310 C316 1.465 . S
C311 C306 1.399 . S
C311 C310 1.394 . S
C311 C312 1.516 . S
C312 C311 1.516 . S
C312 C313 1.502 . S
C312 C314 1.561 . S
C312 C315 1.526 . S
C313 H297 0.959 . S
C313 H298 0.959 . S
C313 H299 0.961 . S
C313 C312 1.502 . S
C314 H300 0.960 . S
C314 H301 0.961 . S
C314 H302 0.959 . S
C314 C312 1.561 . S
C315 C312 1.526 . S
C315 C316 1.396 . S
C315 C320 1.390 . S
C316 C310 1.465 . S
C316 C315 1.396 . S
C316 C317 1.399 . S
C317 H303 0.929 . S
C317 C316 1.399 . S
C317 C318 1.385 . S
C318 H304 0.931 . S
C318 C317 1.385 . S
C318 C319 1.389 . S
C319 C318 1.389 . S
C319 C320 1.387 . S
C320 H305 0.930 . S
C320 C315 1.390 . S
C320 C319 1.387 . S
H321 C333 0.930 . S
H322 C335 0.930 . S
H323 C336 0.930 . S
H324 C340 0.959 . S
H325 C340 0.959 . S
H326 C340 0.961 . S
H327 C341 0.960 . S
H328 C341 0.961 . S
H329 C341 0.959 . S
H330 C344 0.929 . S
H331 C345 0.931 . S
H332 C347 0.930 . S
C333 H321 0.930 . S
C333 C334 1.399 . S
C333 C338 1.399 . S
C334 C333 1.399 . S
C334 C335 1.376 . S
C335 H322 0.930 . S
C335 C334 1.376 . S
C335 C336 1.388 . S
C336 H323 0.930 . S
C336 C335 1.388 . S
C336 C337 1.390 . S
C337 C336 1.390 . S
C337 C338 1.394 . S
C337 C343 1.465 1_655 S
C338 C333 1.399 . S
C338 C337 1.394 . S
C338 C339 1.516 . S
C339 C338 1.516 . S
C339 C340 1.502 . S
C339 C341 1.561 . S
C339 C342 1.526 1_655 S
C340 H324 0.959 . S
C340 H325 0.959 . S
C340 H326 0.961 . S
C340 C339 1.502 . S
C341 H327 0.960 . S
C341 H328 0.961 . S
C341 H329 0.959 . S
C341 C339 1.561 . S
C342 C339 1.526 1_455 S
C342 C343 1.396 . S
C342 C347 1.390 . S
C343 C337 1.465 1_455 S
C343 C342 1.396 . S
C343 C344 1.399 . S
C344 H330 0.929 . S
C344 C343 1.399 . S
C344 C345 1.385 . S
C345 H331 0.931 . S
C345 C344 1.385 . S
C345 C346 1.389 . S
C346 C345 1.389 . S
C346 C347 1.387 . S
C347 H332 0.930 . S
C347 C342 1.390 . S
C347 C346 1.387 . S
H348 C360 0.930 . S
H349 C362 0.930 . S
H350 C363 0.930 . S
H351 C367 0.959 . S
H352 C367 0.959 . S
H353 C367 0.961 . S
H354 C368 0.960 . S
H355 C368 0.961 . S
H356 C368 0.959 . S
H357 C371 0.929 . S
H358 C372 0.931 . S
H359 C374 0.930 . S
C360 H348 0.930 . S
C360 C361 1.399 . S
C360 C365 1.399 . S
C361 C360 1.399 . S
C361 C362 1.376 . S
C362 H349 0.930 . S
C362 C361 1.376 . S
C362 C363 1.388 . S
C363 H350 0.930 . S
C363 C362 1.388 . S
C363 C364 1.390 . S
C364 C363 1.390 . S
C364 C365 1.394 . S
C364 C370 1.465 1_565 S
C365 C360 1.399 . S
C365 C364 1.394 . S
C365 C366 1.516 . S
C366 C365 1.516 . S
C366 C367 1.502 . S
C366 C368 1.561 . S
C366 C369 1.526 1_565 S
C367 H351 0.959 . S
C367 H352 0.959 . S
C367 H353 0.961 . S
C367 C366 1.502 . S
C368 H354 0.960 . S
C368 H355 0.961 . S
C368 H356 0.959 . S
C368 C366 1.561 . S
C369 C366 1.526 1_545 S
C369 C370 1.396 . S
C369 C374 1.390 . S
C370 C364 1.465 1_545 S
C370 C369 1.396 . S
C370 C371 1.399 . S
C371 H357 0.929 . S
C371 C370 1.399 . S
C371 C372 1.385 . S
C372 H358 0.931 . S
C372 C371 1.385 . S
C372 C373 1.389 . S
C373 C372 1.389 . S
C373 C374 1.387 . S
C374 H359 0.930 . S
C374 C369 1.390 . S
C374 C373 1.387 . S
H375 C387 0.930 . S
H376 C389 0.930 . S
H377 C390 0.930 . S
H378 C394 0.959 . S
H379 C394 0.959 . S
H380 C394 0.961 . S
H381 C395 0.960 . S
H382 C395 0.961 . S
H383 C395 0.959 . S
H384 C398 0.929 . S
H385 C399 0.931 . S
H386 C401 0.930 . S
C387 H375 0.930 . S
C387 C388 1.399 . S
C387 C392 1.399 . S
C388 C387 1.399 . S
C388 C389 1.376 . S
C389 H376 0.930 . S
C389 C388 1.376 . S
C389 C390 1.388 . S
C390 H377 0.930 . S
C390 C389 1.388 . S
C390 C391 1.390 . S
C391 C390 1.390 . S
C391 C392 1.394 . S
C391 C397 1.465 . S
C392 C387 1.399 . S
C392 C391 1.394 . S
C392 C393 1.516 . S
C393 C392 1.516 . S
C393 C394 1.502 . S
C393 C395 1.561 . S
C393 C396 1.526 . S
C394 H378 0.959 . S
C394 H379 0.959 . S
C394 H380 0.961 . S
C394 C393 1.502 . S
C395 H381 0.960 . S
C395 H382 0.961 . S
C395 H383 0.959 . S
C395 C393 1.561 . S
C396 C393 1.526 . S
C396 C397 1.396 . S
C396 C401 1.390 . S
C397 C391 1.465 . S
C397 C396 1.396 . S
C397 C398 1.399 . S
C398 H384 0.929 . S
C398 C397 1.399 . S
C398 C399 1.385 . S
C399 H385 0.931 . S
C399 C398 1.385 . S
C399 C400 1.389 . S
C400 C399 1.389 . S
C400 C401 1.387 . S
C401 H386 0.930 . S
C401 C396 1.390 . S
C401 C400 1.387 . S
H402 C414 0.930 . S
H403 C416 0.930 . S
H404 C417 0.930 . S
H405 C421 0.959 1_455 S
H406 C421 0.959 1_455 S
H407 C421 0.961 . S
H408 C422 0.960 . S
H409 C422 0.961 . S
H410 C422 0.959 . S
H411 C425 0.929 . S
H412 C426 0.931 . S
H413 C428 0.930 . S
C414 H402 0.930 . S
C414 C415 1.399 . S
C414 C419 1.399 . S
C415 C414 1.399 . S
C415 C416 1.376 . S
C416 H403 0.930 . S
C416 C415 1.376 . S
C416 C417 1.388 . S
C417 H404 0.930 . S
C417 C416 1.388 . S
C417 C418 1.390 . S
C418 C417 1.390 . S
C418 C419 1.394 . S
C418 C424 1.465 1_655 S
C419 C414 1.399 . S
C419 C418 1.394 . S
C419 C420 1.516 . S
C420 C419 1.516 . S
C420 C421 1.502 . S
C420 C422 1.561 . S
C420 C423 1.526 1_655 S
C421 H405 0.959 1_655 S
C421 H406 0.959 1_655 S
C421 H407 0.961 . S
C421 C420 1.502 . S
C422 H408 0.960 . S
C422 H409 0.961 . S
C422 H410 0.959 . S
C422 C420 1.561 . S
C423 C420 1.526 1_455 S
C423 C424 1.396 . S
C423 C428 1.390 . S
C424 C418 1.465 1_455 S
C424 C423 1.396 . S
C424 C425 1.399 . S
C425 H411 0.929 . S
C425 C424 1.399 . S
C425 C426 1.385 . S
C426 H412 0.931 . S
C426 C425 1.385 . S
C426 C427 1.389 . S
C427 C426 1.389 . S
C427 C428 1.387 . S
C428 H413 0.930 . S
C428 C423 1.390 . S
C428 C427 1.387 . S
H429 C441 0.930 . S
H430 C443 0.930 . S
H431 C444 0.930 1_554 S
H432 C448 0.959 1_544 S
H433 C448 0.959 . S
H434 C448 0.961 1_545 S
H435 C449 0.960 . S
H436 C449 0.961 . S
H437 C449 0.959 . S
H438 C452 0.929 . S
H439 C453 0.931 . S
H440 C455 0.930 . S
C441 H429 0.930 . S
C441 C442 1.399 . S
C441 C446 1.399 . S
C442 C441 1.399 . S
C442 C443 1.376 . S
C443 H430 0.930 . S
C443 C442 1.376 . S
C443 C444 1.388 . S
C444 H431 0.930 1_556 S
C444 C443 1.388 . S
C444 C445 1.390 . S
C445 C444 1.390 . S
C445 C446 1.394 . S
C445 C451 1.465 1_546 S
C446 C441 1.399 . S
C446 C445 1.394 . S
C446 C447 1.516 1_545 S
C447 C446 1.516 1_565 S
C447 C448 1.502 . S
C447 C449 1.561 . S
C447 C450 1.526 1_556 S
C448 H432 0.959 1_566 S
C448 H433 0.959 . S
C448 H434 0.961 1_565 S
C448 C447 1.502 . S
C449 H435 0.960 . S
C449 H436 0.961 . S
C449 H437 0.959 . S
C449 C447 1.561 . S
C450 C447 1.526 1_554 S
C450 C451 1.396 . S
C450 C455 1.390 . S
C451 C445 1.465 1_564 S
C451 C450 1.396 . S
C451 C452 1.399 . S
C452 H438 0.929 . S
C452 C451 1.399 . S
C452 C453 1.385 . S
C453 H439 0.931 . S
C453 C452 1.385 . S
C453 C454 1.389 . S
C454 C453 1.389 . S
C454 C455 1.387 . S
C455 H440 0.930 . S
C455 C450 1.390 . S
C455 C454 1.387 . S
H456 C468 0.930 1_554 S
H457 C470 0.930 . S
H458 C471 0.930 . S
H459 C475 0.959 . S
H460 C475 0.959 . S
H461 C475 0.961 . S
H462 C476 0.960 1_554 S
H463 C476 0.961 . S
H464 C476 0.959 . S
H465 C479 0.929 . S
H466 C480 0.931 . S
H467 C482 0.930 . S
C468 H456 0.930 1_556 S
C468 C469 1.399 . S
C468 C473 1.399 . S
C469 C468 1.399 . S
C469 C470 1.376 . S
C470 H457 0.930 . S
C470 C469 1.376 . S
C470 C471 1.388 . S
C471 H458 0.930 . S
C471 C470 1.388 . S
C471 C472 1.390 . S
C472 C471 1.390 . S
C472 C473 1.394 . S
C472 C478 1.465 . S
C473 C468 1.399 . S
C473 C472 1.394 . S
C473 C474 1.516 . S
C474 C473 1.516 . S
C474 C475 1.502 . S
C474 C476 1.561 . S
C474 C477 1.526 . S
C475 H459 0.959 . S
C475 H460 0.959 . S
C475 H461 0.961 . S
C475 C474 1.502 . S
C476 H462 0.960 1_556 S
C476 H463 0.961 . S
C476 H464 0.959 . S
C476 C474 1.561 . S
C477 C474 1.526 . S
C477 C478 1.396 . S
C477 C482 1.390 . S
C478 C472 1.465 . S
C478 C477 1.396 . S
C478 C479 1.399 . S
C479 H465 0.929 . S
C479 C478 1.399 . S
C479 C480 1.385 . S
C480 H466 0.931 . S
C480 C479 1.385 . S
C480 C481 1.389 . S
C481 C480 1.389 . S
C481 C482 1.387 . S
C482 H467 0.930 . S
C482 C477 1.390 . S
C482 C481 1.387 . S
H483 C495 0.930 . S
H484 C497 0.930 . S
H485 C498 0.930 . S
H486 C502 0.959 . S
H487 C502 0.959 . S
H488 C502 0.961 . S
H489 C503 0.960 . S
H490 C503 0.961 . S
H491 C503 0.959 . S
H492 C506 0.929 . S
H493 C507 0.931 . S
H494 C509 0.930 . S
C495 H483 0.930 . S
C495 C496 1.399 . S
C495 C500 1.399 . S
C496 C495 1.399 . S
C496 C497 1.376 . S
C497 H484 0.930 . S
C497 C496 1.376 . S
C497 C498 1.388 . S
C498 H485 0.930 . S
C498 C497 1.388 . S
C498 C499 1.390 . S
C499 C498 1.390 . S
C499 C500 1.394 . S
C499 C505 1.465 . S
C500 C495 1.399 . S
C500 C499 1.394 . S
C500 C501 1.516 . S
C501 C500 1.516 . S
C501 C502 1.502 . S
C501 C503 1.561 . S
C501 C504 1.526 . S
C502 H486 0.959 . S
C502 H487 0.959 . S
C502 H488 0.961 . S
C502 C501 1.502 . S
C503 H489 0.960 . S
C503 H490 0.961 . S
C503 H491 0.959 . S
C503 C501 1.561 . S
C504 C501 1.526 . S
C504 C505 1.396 . S
C504 C509 1.390 . S
C505 C499 1.465 . S
C505 C504 1.396 . S
C505 C506 1.399 . S
C506 H492 0.929 . S
C506 C505 1.399 . S
C506 C507 1.385 . S
C507 H493 0.931 . S
C507 C506 1.385 . S
C507 C508 1.389 . S
C508 C507 1.389 . S
C508 C509 1.387 . S
C509 H494 0.930 . S
C509 C504 1.390 . S
C509 C508 1.387 . S
H510 C522 0.930 . S
H511 C524 0.930 . S
H512 C525 0.930 . S
H513 C529 0.959 . S
H514 C529 0.959 . S
H515 C529 0.961 . S
H516 C530 0.960 . S
H517 C530 0.961 . S
H518 C530 0.959 . S
H519 C533 0.929 . S
H520 C534 0.931 . S
H521 C536 0.930 . S
C522 H510 0.930 . S
C522 C523 1.399 . S
C522 C527 1.399 . S
C523 C522 1.399 . S
C523 C524 1.376 . S
C524 H511 0.930 . S
C524 C523 1.376 . S
C524 C525 1.388 . S
C525 H512 0.930 . S
C525 C524 1.388 . S
C525 C526 1.390 . S
C526 C525 1.390 . S
C526 C527 1.394 . S
C526 C532 1.465 . S
C527 C522 1.399 . S
C527 C526 1.394 . S
C527 C528 1.516 . S
C528 C527 1.516 . S
C528 C529 1.502 . S
C528 C530 1.561 . S
C528 C531 1.526 . S
C529 H513 0.959 . S
C529 H514 0.959 . S
C529 H515 0.961 . S
C529 C528 1.502 . S
C530 H516 0.960 . S
C530 H517 0.961 . S
C530 H518 0.959 . S
C530 C528 1.561 . S
C531 C528 1.526 . S
C531 C532 1.396 . S
C531 C536 1.390 . S
C532 C526 1.465 . S
C532 C531 1.396 . S
C532 C533 1.399 . S
C533 H519 0.929 . S
C533 C532 1.399 . S
C533 C534 1.385 . S
C534 H520 0.931 . S
C534 C533 1.385 . S
C534 C535 1.389 . S
C535 C534 1.389 . S
C535 C536 1.387 . S
C536 H521 0.930 . S
C536 C531 1.390 . S
C536 C535 1.387 . S
H537 C549 0.930 . S
H538 C551 0.930 . S
H539 C552 0.930 . S
H540 C556 0.959 . S
H541 C556 0.959 . S
H542 C556 0.961 . S
H543 C557 0.960 . S
H544 C557 0.961 . S
H545 C557 0.959 . S
H546 C560 0.929 . S
H547 C561 0.931 . S
H548 C563 0.930 . S
C549 H537 0.930 . S
C549 C550 1.399 . S
C549 C554 1.399 . S
C550 C549 1.399 . S
C550 C551 1.376 . S
C551 H538 0.930 . S
C551 C550 1.376 . S
C551 C552 1.388 . S
C552 H539 0.930 . S
C552 C551 1.388 . S
C552 C553 1.390 . S
C553 C552 1.390 . S
C553 C554 1.394 . S
C553 C559 1.465 . S
C554 C549 1.399 . S
C554 C553 1.394 . S
C554 C555 1.516 . S
C555 C554 1.516 . S
C555 C556 1.502 . S
C555 C557 1.561 . S
C555 C558 1.526 . S
C556 H540 0.959 . S
C556 H541 0.959 . S
C556 H542 0.961 . S
C556 C555 1.502 . S
C557 H543 0.960 . S
C557 H544 0.961 . S
C557 H545 0.959 . S
C557 C555 1.561 . S
C558 C555 1.526 . S
C558 C559 1.396 . S
C558 C563 1.390 . S
C559 C553 1.465 . S
C559 C558 1.396 . S
C559 C560 1.399 . S
C560 H546 0.929 . S
C560 C559 1.399 . S
C560 C561 1.385 . S
C561 H547 0.931 . S
C561 C560 1.385 . S
C561 C562 1.389 . S
C562 C561 1.389 . S
C562 C563 1.387 . S
C563 H548 0.930 . S
C563 C558 1.390 . S
C563 C562 1.387 . S
H564 C576 0.930 . S
H565 C578 0.930 . S
H566 C579 0.930 . S
H567 C583 0.959 . S
H568 C583 0.959 . S
H569 C583 0.961 . S
H570 C584 0.960 . S
H571 C584 0.961 . S
H572 C584 0.959 . S
H573 C587 0.929 . S
H574 C588 0.931 . S
H575 C590 0.930 . S
C576 H564 0.930 . S
C576 C577 1.399 . S
C576 C581 1.399 . S
C577 C576 1.399 . S
C577 C578 1.376 . S
C578 H565 0.930 . S
C578 C577 1.376 . S
C578 C579 1.388 . S
C579 H566 0.930 . S
C579 C578 1.388 . S
C579 C580 1.390 . S
C580 C579 1.390 . S
C580 C581 1.394 . S
C580 C586 1.465 . S
C581 C576 1.399 . S
C581 C580 1.394 . S
C581 C582 1.516 . S
C582 C581 1.516 . S
C582 C583 1.502 . S
C582 C584 1.561 . S
C582 C585 1.526 . S
C583 H567 0.959 . S
C583 H568 0.959 . S
C583 H569 0.961 . S
C583 C582 1.502 . S
C584 H570 0.960 . S
C584 H571 0.961 . S
C584 H572 0.959 . S
C584 C582 1.561 . S
C585 C582 1.526 . S
C585 C586 1.396 . S
C585 C590 1.390 . S
C586 C580 1.465 . S
C586 C585 1.396 . S
C586 C587 1.399 . S
C587 H573 0.929 . S
C587 C586 1.399 . S
C587 C588 1.385 . S
C588 H574 0.931 . S
C588 C587 1.385 . S
C588 C589 1.389 . S
C589 C588 1.389 . S
C589 C590 1.387 . S
C590 H575 0.930 . S
C590 C585 1.390 . S
C590 C589 1.387 . S
H591 C603 0.930 . S
H592 C605 0.930 . S
H593 C606 0.930 . S
H594 C610 0.959 . S
H595 C610 0.959 . S
H596 C610 0.961 . S
H597 C611 0.960 . S
H598 C611 0.961 . S
H599 C611 0.959 . S
H600 C614 0.929 . S
H601 C615 0.931 . S
H602 C617 0.930 . S
C603 H591 0.930 . S
C603 C604 1.399 . S
C603 C608 1.399 . S
C604 C603 1.399 . S
C604 C605 1.376 . S
C605 H592 0.930 . S
C605 C604 1.376 . S
C605 C606 1.388 . S
C606 H593 0.930 . S
C606 C605 1.388 . S
C606 C607 1.390 . S
C607 C606 1.390 . S
C607 C608 1.394 . S
C607 C613 1.465 . S
C608 C603 1.399 . S
C608 C607 1.394 . S
C608 C609 1.516 . S
C609 C608 1.516 . S
C609 C610 1.502 . S
C609 C611 1.561 . S
C609 C612 1.526 . S
C610 H594 0.959 . S
C610 H595 0.959 . S
C610 H596 0.961 . S
C610 C609 1.502 . S
C611 H597 0.960 . S
C611 H598 0.961 . S
C611 H599 0.959 . S
C611 C609 1.561 . S
C612 C609 1.526 . S
C612 C613 1.396 . S
C612 C617 1.390 . S
C613 C607 1.465 . S
C613 C612 1.396 . S
C613 C614 1.399 . S
C614 H600 0.929 . S
C614 C613 1.399 . S
C614 C615 1.385 . S
C615 H601 0.931 . S
C615 C614 1.385 . S
C615 C616 1.389 . S
C616 C615 1.389 . S
C616 C617 1.387 . S
C617 H602 0.930 . S
C617 C612 1.390 . S
C617 C616 1.387 . S
C145 C8 1.562 . S
C157 C118 1.539 . S
C172 C129 1.553 . S
C184 C19 1.560 . S
C199 C74 1.556 . S
C211 C30 1.558 . S
C226 C41 1.563 . S
C238 C85 1.540 . S
C253 C96 1.553 . S
C265 C52 1.560 . S
C280 C63 1.556 . S
C292 C107 1.558 . S
C307 C7 1.450 . S
C319 C106 1.423 . S
C334 C18 1.477 . S
C346 C117 1.391 . S
C361 C29 1.475 . S
C373 C128 1.395 . S
C388 C73 1.395 . S
C400 C40 1.469 . S
C415 C84 1.453 . S
C427 C51 1.420 . S
C442 C62 1.427 . S
C454 C95 1.437 . S
C469 C5 1.389 1_556 S
C481 C71 1.317 . S
C496 C82 1.436 1_554 S
C508 C16 1.352 . S
C523 C27 1.413 . S
C535 C93 1.385 . S
C550 C38 1.301 . S
C562 C104 1.435 . S
C577 C49 1.369 . S
C589 C115 1.425 . S
C604 C126 1.321 . S
C616 C60 1.381 . S
