# Generated by pormake.
# Topology vmi, (6)-cn, num edge types: 1
# Building blocks:
#     Node 0, Type 0, BuildingBlock: IZENUY_clean_sbu_0, # of connection points: 6
#     Node 1, Type 0, BuildingBlock: IZENUY_clean_sbu_0, # of connection points: 6
#     Node 2, Type 0, BuildingBlock: IZENUY_clean_sbu_0, # of connection points: 6
#     Node 3, Type 0, BuildingBlock: IZENUY_clean_sbu_0, # of connection points: 6
#     Node 4, Type 0, BuildingBlock: IZENUY_clean_sbu_0, # of connection points: 6
#     Node 5, Type 0, BuildingBlock: IZENUY_clean_sbu_0, # of connection points: 6
#     Node 6, Type 0, BuildingBlock: IZENUY_clean_sbu_0, # of connection points: 6
#     Node 7, Type 0, BuildingBlock: IZENUY_clean_sbu_0, # of connection points: 6
#     Edge 8, Type (0, 0), BuildingBlock: CIFDUS_clean_linker_0, # of connection points: 2
#     Edge 9, Type (0, 0), BuildingBlock: CIFDUS_clean_linker_0, # of connection points: 2
#     Edge 10, Type (0, 0), BuildingBlock: CIFDUS_clean_linker_0, # of connection points: 2
#     Edge 11, Type (0, 0), BuildingBlock: CIFDUS_clean_linker_0, # of connection points: 2
#     Edge 12, Type (0, 0), BuildingBlock: CIFDUS_clean_linker_0, # of connection points: 2
#     Edge 13, Type (0, 0), BuildingBlock: CIFDUS_clean_linker_0, # of connection points: 2
#     Edge 14, Type (0, 0), BuildingBlock: CIFDUS_clean_linker_0, # of connection points: 2
#     Edge 15, Type (0, 0), BuildingBlock: CIFDUS_clean_linker_0, # of connection points: 2
#     Edge 16, Type (0, 0), BuildingBlock: CIFDUS_clean_linker_0, # of connection points: 2
#     Edge 17, Type (0, 0), BuildingBlock: CIFDUS_clean_linker_0, # of connection points: 2
#     Edge 18, Type (0, 0), BuildingBlock: CIFDUS_clean_linker_0, # of connection points: 2
#     Edge 19, Type (0, 0), BuildingBlock: CIFDUS_clean_linker_0, # of connection points: 2
#     Edge 20, Type (0, 0), BuildingBlock: CIFDUS_clean_linker_0, # of connection points: 2
#     Edge 21, Type (0, 0), BuildingBlock: CIFDUS_clean_linker_0, # of connection points: 2
#     Edge 22, Type (0, 0), BuildingBlock: CIFDUS_clean_linker_0, # of connection points: 2
#     Edge 23, Type (0, 0), BuildingBlock: CIFDUS_clean_linker_0, # of connection points: 2
#     Edge 24, Type (0, 0), BuildingBlock: CIFDUS_clean_linker_0, # of connection points: 2
#     Edge 25, Type (0, 0), BuildingBlock: CIFDUS_clean_linker_0, # of connection points: 2
#     Edge 26, Type (0, 0), BuildingBlock: CIFDUS_clean_linker_0, # of connection points: 2
#     Edge 27, Type (0, 0), BuildingBlock: CIFDUS_clean_linker_0, # of connection points: 2
#     Edge 28, Type (0, 0), BuildingBlock: CIFDUS_clean_linker_0, # of connection points: 2
#     Edge 29, Type (0, 0), BuildingBlock: CIFDUS_clean_linker_0, # of connection points: 2
#     Edge 30, Type (0, 0), BuildingBlock: CIFDUS_clean_linker_0, # of connection points: 2
#     Edge 31, Type (0, 0), BuildingBlock: CIFDUS_clean_linker_0, # of connection points: 2
# Relax obj value: 0.332
# Max RMSD: 0.290
# Mean RMSD: 0.290
data_MOF--net-vmi--node1-IZENUY_clean_sbu_0--edge1-CIFDUS_clean_linker_0
_symmetry_space_group_name_H-M    P1
_symmetry_Int_Tables_number       1
_symmetry_cell_setting            triclinic
loop_
_symmetry_equiv_pos_as_xyz
'x, y, z'
_cell_length_a     23.898204
_cell_length_b     39.363464
_cell_length_c     25.967556
_cell_angle_alpha  90.40384
_cell_angle_beta   109.61397
_cell_angle_gamma 90.48472
loop_
_atom_site_label
_atom_site_type_symbol
_atom_site_fract_x
_atom_site_fract_y
_atom_site_fract_z
_atom_type_partial_charge
Fe0 Fe 0.18968 0.04615 0.27286 0.0
Fe1 Fe 0.14214 0.11112 0.21006 0.0
O2 O 0.20344 0.08723 0.25112 0.0
Fe3 Fe 0.27732 0.10305 0.2699 0.0
O4 O 0.30398 0.06539 0.24549 0.0
O5 O 0.26339 0.02805 0.28323 0.0
O6 O 0.16439 0.0306 0.20254 0.0
C7 C 0.12208 0.04468 0.16573 0.0
C8 C 0.26165 0.07641 0.36682 0.0
O9 O 0.10222 0.07325 0.17429 0.0
C10 C 0.22077 0.16349 0.27213 0.0
O11 O 0.11352 0.05463 0.26912 0.0
O12 O 0.10482 0.10965 0.26126 0.0
O13 O 0.29592 0.08729 0.34152 0.0
O14 O 0.21327 0.06109 0.34226 0.0
C15 C 0.2237 0.11977 0.15637 0.0
O16 O 0.17348 0.15352 0.23546 0.0
O17 O 0.26044 0.14284 0.29618 0.0
C18 C 0.0869 0.08148 0.27347 0.0
O19 O 0.17203 0.11352 0.15607 0.0
O20 O 0.26785 0.12085 0.20093 0.0
C21 C 0.30239 0.03592 0.26271 0.0
Fe22 Fe 0.38332 0.12841 0.82786 0.0
Fe23 Fe 0.25263 0.11064 0.76755 0.0
O24 O 0.32851 0.09887 0.78914 0.0
Fe25 Fe 0.34729 0.05801 0.77182 0.0
O26 O 0.40714 0.05149 0.83764 0.0
O27 O 0.41174 0.09962 0.88301 0.0
O28 O 0.33594 0.14425 0.86578 0.0
C29 C 0.29379 0.12879 0.87577 0.0
C30 C 0.44105 0.09528 0.7612 0.0
O31 O 0.25548 0.11142 0.8387 0.0
C32 C 0.26649 0.08505 0.6746 0.0
O33 O 0.35879 0.16087 0.77549 0.0
O34 O 0.26599 0.15627 0.76952 0.0
O35 O 0.39859 0.07481 0.74075 0.0
O36 O 0.44116 0.11582 0.79905 0.0
C37 C 0.24191 0.04096 0.78486 0.0
O38 O 0.24983 0.11001 0.69686 0.0
O39 O 0.29162 0.0594 0.70237 0.0
C40 C 0.30779 0.17361 0.76351 0.0
O41 O 0.22114 0.06772 0.75996 0.0
O42 O 0.29715 0.03642 0.80162 0.0
C43 C 0.42607 0.06919 0.88128 0.0
Fe44 Fe 0.84243 0.98796 0.76128 0.0
Fe45 Fe 0.74569 0.93427 0.74712 0.0
O46 O 0.82074 0.94748 0.77759 0.0
Fe47 Fe 0.87238 0.92024 0.82348 0.0
O48 O 0.89201 0.95164 0.87738 0.0
O49 O 0.89752 0.9964 0.82899 0.0
O50 O 0.78848 1.00931 0.78569 0.0
C51 C 0.7334 1.00398 0.76502 0.0
C52 C 0.94021 0.9513 0.7633 0.0
O53 O 0.71423 0.97723 0.73734 0.0
C54 C 0.80576 0.87171 0.75477 0.0
O55 O 0.79164 0.98607 0.68985 0.0
O56 O 0.75398 0.93413 0.67994 0.0
O57 O 0.93629 0.93321 0.80235 0.0
O58 O 0.89793 0.9699 0.73645 0.0
C59 C 0.76886 0.9169 0.85408 0.0
O60 O 0.76028 0.88883 0.75097 0.0
O61 O 0.85664 0.88545 0.77355 0.0
C62 C 0.77071 0.96005 0.66021 0.0
O63 O 0.73615 0.93362 0.81369 0.0
O64 O 0.81766 0.90429 0.85378 0.0
C65 C 0.90876 0.98167 0.87443 0.0
Fe66 Fe 0.76754 0.91022 0.25543 0.0
Fe67 Fe 0.63367 0.90329 0.18806 0.0
O68 O 0.69492 0.92732 0.23198 0.0
Fe69 Fe 0.68239 0.96964 0.25009 0.0
O70 O 0.75639 0.98743 0.25933 0.0
O71 O 0.79968 0.94613 0.23161 0.0
O72 O 0.76095 0.89036 0.18892 0.0
C73 C 0.72161 0.89329 0.14192 0.0
C74 C 0.75105 0.94312 0.34838 0.0
O75 O 0.66859 0.90055 0.13646 0.0
C76 C 0.57907 0.93415 0.25185 0.0
O77 O 0.74477 0.87162 0.28083 0.0
O78 O 0.66177 0.86143 0.21383 0.0
O79 O 0.70478 0.9588 0.32114 0.0
O80 O 0.78367 0.92793 0.32547 0.0
C81 C 0.61749 0.96727 0.14157 0.0
O82 O 0.59313 0.90566 0.23676 0.0
O83 O 0.60606 0.96102 0.24658 0.0
C84 C 0.70538 0.85112 0.2531 0.0
O85 O 0.59509 0.94012 0.15183 0.0
O86 O 0.65909 0.98235 0.1785 0.0
C87 C 0.79656 0.977 0.24227 0.0
Fe88 Fe 0.64618 0.62409 0.68058 0.0
Fe89 Fe 0.77729 0.61322 0.74739 0.0
O90 O 0.70241 0.59864 0.72541 0.0
Fe91 Fe 0.68562 0.55887 0.74825 0.0
O92 O 0.62803 0.54711 0.6836 0.0
O93 O 0.6237 0.59081 0.62971 0.0
O94 O 0.69469 0.63951 0.64372 0.0
C95 C 0.73981 0.62543 0.63784 0.0
C96 C 0.58722 0.59409 0.74889 0.0
O97 O 0.77742 0.61039 0.67744 0.0
C98 C 0.76243 0.59247 0.84184 0.0
O99 O 0.66495 0.6604 0.72797 0.0
O100 O 0.75978 0.65826 0.73977 0.0
O101 O 0.63199 0.57717 0.77525 0.0
O102 O 0.58711 0.6114 0.70789 0.0
C103 C 0.79271 0.54288 0.73885 0.0
O104 O 0.77796 0.61647 0.81719 0.0
O105 O 0.73987 0.56502 0.81719 0.0
C106 C 0.71542 0.67482 0.7413 0.0
O107 O 0.81181 0.57131 0.76039 0.0
O108 O 0.73787 0.53645 0.7227 0.0
C109 C 0.61178 0.56034 0.63666 0.0
Fe110 Fe 0.90041 0.60637 0.30762 0.0
Fe111 Fe 0.76417 0.60046 0.25009 0.0
O112 O 0.83683 0.58459 0.26344 0.0
Fe113 Fe 0.84709 0.5455 0.23334 0.0
O114 O 0.87423 0.52589 0.30037 0.0
O115 O 0.93966 0.56712 0.33332 0.0
O116 O 0.87288 0.60387 0.36367 0.0
C117 C 0.82192 0.61032 0.36497 0.0
C118 C 0.94894 0.58334 0.23422 0.0
O119 O 0.77783 0.61453 0.32147 0.0
C120 C 0.77288 0.58014 0.14746 0.0
O121 O 0.87097 0.64945 0.29185 0.0
O122 O 0.78269 0.64189 0.23037 0.0
O123 O 0.92239 0.5555 0.23489 0.0
O124 O 0.93452 0.60978 0.25452 0.0
C125 C 0.73703 0.53252 0.24763 0.0
O126 O 0.74111 0.58865 0.17632 0.0
O127 O 0.82102 0.56436 0.16718 0.0
C128 C 0.82405 0.66131 0.25809 0.0
O129 O 0.73658 0.56103 0.26926 0.0
O130 O 0.77332 0.527 0.22307 0.0
C131 C 0.91782 0.53845 0.33858 0.0
Fe132 Fe 0.35063 0.47412 0.24463 0.0
Fe133 Fe 0.26023 0.41801 0.24456 0.0
O134 O 0.33397 0.4343 0.26812 0.0
Fe135 Fe 0.39223 0.41173 0.31676 0.0
O136 O 0.43286 0.45032 0.34886 0.0
O137 O 0.37191 0.49205 0.31311 0.0
O138 O 0.27711 0.49322 0.22963 0.0
C139 C 0.23394 0.4857 0.24489 0.0
C140 C 0.45269 0.43515 0.25255 0.0
O141 O 0.22891 0.45642 0.2615 0.0
C142 C 0.31788 0.35742 0.2559 0.0
O143 O 0.33049 0.45802 0.17629 0.0
O144 O 0.24739 0.43097 0.17286 0.0
O145 O 0.43517 0.40853 0.27026 0.0
O146 O 0.42715 0.4632 0.25256 0.0
C147 C 0.3017 0.40944 0.35996 0.0
O148 O 0.28233 0.37766 0.22475 0.0
O149 O 0.36052 0.36854 0.29642 0.0
C150 C 0.2826 0.44298 0.1497 0.0
O151 O 0.26309 0.40313 0.31325 0.0
O152 O 0.35536 0.415 0.36594 0.0
C153 C 0.41282 0.47958 0.35275 0.0
Fe154 Fe 0.27495 0.42943 0.74767 0.0
Fe155 Fe 0.14349 0.4148 0.68586 0.0
O156 O 0.2004 0.44297 0.72542 0.0
Fe157 Fe 0.1848 0.48439 0.74316 0.0
O158 O 0.23525 0.5043 0.7124 0.0
O159 O 0.30944 0.47173 0.7544 0.0
O160 O 0.27297 0.42757 0.67695 0.0
C161 C 0.2351 0.40971 0.64041 0.0
C162 C 0.26383 0.45709 0.83983 0.0
O163 O 0.19029 0.39656 0.64905 0.0
C164 C 0.08824 0.45008 0.75279 0.0
O165 O 0.25785 0.38441 0.74625 0.0
O166 O 0.16405 0.38178 0.73791 0.0
O167 O 0.24167 0.48298 0.81161 0.0
O168 O 0.27668 0.43077 0.81805 0.0
C169 C 0.10745 0.47528 0.63369 0.0
O170 O 0.0863 0.42987 0.71392 0.0
O171 O 0.13324 0.46862 0.77494 0.0
C172 C 0.21451 0.36808 0.75126 0.0
O173 O 0.11907 0.4444 0.63082 0.0
O174 O 0.12517 0.4918 0.67836 0.0
C175 C 0.29013 0.49868 0.7291 0.0
H176 H 0.5604 0.98001 0.32024 0.0
H177 H 0.47035 0.90198 0.20426 0.0
H178 H 0.37381 0.92483 0.20121 0.0
H179 H 0.3158 0.973 0.22119 0.0
H180 H 0.41036 0.05312 0.33081 0.0
H181 H 0.50404 0.02385 0.34646 0.0
C182 C 0.51957 0.96739 0.29542 0.0
C183 C 0.52252 0.93939 0.26252 0.0
C184 C 0.4649 0.98173 0.29174 0.0
C185 C 0.46936 0.9233 0.23053 0.0
C186 C 0.41415 0.93677 0.22811 0.0
C187 C 0.35698 0.9836 0.249 0.0
C188 C 0.35656 1.0153 0.27451 0.0
C189 C 0.4114 0.9669 0.25678 0.0
C190 C 0.40994 0.02895 0.31039 0.0
C191 C 0.46343 1.01219 0.31946 0.0
H192 H 0.05166 0.95081 0.84069 0.0
H193 H 0.95892 0.96733 0.66911 0.0
H194 H 0.04806 0.99298 0.6596 0.0
H195 H 0.14636 0.01888 0.70258 0.0
H196 H 0.2408 1.00388 0.87379 0.0
H197 H 0.15761 0.96924 0.88101 0.0
C198 C 0.05167 0.95892 0.80087 0.0
C199 C 0.99843 0.95728 0.75566 0.0
C200 C 0.10311 0.97454 0.7959 0.0
C201 C 0.99908 0.96838 0.70452 0.0
C202 C 0.04998 0.98329 0.69912 0.0
C203 C 0.14926 1.00733 0.74121 0.0
C204 C 0.19931 1.01404 0.78768 0.0
C205 C 0.1013 0.98781 0.74492 0.0
C206 C 0.20282 0.99888 0.83743 0.0
C207 C 0.15502 0.97931 0.84156 0.0
H208 H 0.63051 0.02112 0.68713 0.0
H209 H 0.73984 0.04445 0.85293 0.0
H210 H 0.6613 0.08047 0.86421 0.0
H211 H 0.55607 0.09866 0.83023 0.0
H212 H 0.44863 0.0752 0.66368 0.0
H213 H 0.53224 0.04683 0.64881 0.0
C214 C 0.63743 0.03452 0.72547 0.0
C215 C 0.69038 0.02977 0.76942 0.0
C216 C 0.59238 0.05528 0.7314 0.0
C217 C 0.6993 0.04767 0.81858 0.0
C218 C 0.65432 0.06817 0.82504 0.0
C219 C 0.55171 0.08849 0.79012 0.0
C220 C 0.49594 0.08885 0.74819 0.0
C221 C 0.59993 0.07141 0.78218 0.0
C222 C 0.49085 0.0751 0.69667 0.0
C223 C 0.53857 0.0586 0.68826 0.0
H224 H 0.85577 0.02855 0.31121 0.0
H225 H 0.83937 0.97821 0.15864 0.0
H226 H 0.9208 1.01278 0.14976 0.0
H227 H 1.00391 0.05136 0.19039 0.0
H228 H 0.03174 0.09668 0.3485 0.0
H229 H 0.93777 0.07109 0.34983 0.0
C230 C 0.86957 0.0257 0.27568 0.0
C231 C 0.84182 1.00083 0.23561 0.0
C232 C 0.9183 0.04487 0.27192 0.0
C233 C 0.86038 0.99699 0.19007 0.0
C234 C 0.9068 0.0168 0.18494 0.0
C235 C 0.98846 0.05656 0.22442 0.0
C236 C 0.02409 0.07629 0.26892 0.0
C237 C 0.93702 0.04007 0.22625 0.0
C238 C 1.00433 0.08222 0.31328 0.0
C239 C 0.95114 0.0671 0.31432 0.0
H240 H 0.97241 0.4441 0.68494 0.0
H241 H 0.08107 0.47723 0.84672 0.0
H242 H 0.99675 0.5067 0.85822 0.0
H243 H 0.897 0.53004 0.81756 0.0
H244 H 0.78628 0.4972 0.6568 0.0
H245 H 0.86618 0.46057 0.64963 0.0
C246 C 0.97708 0.45679 0.7234 0.0
C247 C 0.03333 0.45867 0.76474 0.0
C248 C 0.92834 0.4744 0.72943 0.0
C249 C 0.03855 0.47553 0.81411 0.0
C250 C 0.9904 0.49264 0.82061 0.0
C251 C 0.89008 0.51443 0.78128 0.0
C252 C 0.83627 0.51662 0.73744 0.0
C253 C 0.93592 0.49344 0.77772 0.0
C254 C 0.82742 0.49594 0.69102 0.0
C255 C 0.8732 0.47513 0.68689 0.0
H256 H 0.71801 0.47752 0.30428 0.0
H257 H 0.63624 0.53939 0.16321 0.0
H258 H 0.54222 0.50864 0.145 0.0
H259 H 0.48027 0.46988 0.17617 0.0
H260 H 0.55834 0.40932 0.31937 0.0
H261 H 0.65703 0.43254 0.32874 0.0
C262 C 0.67967 0.48374 0.2692 0.0
C263 C 0.68344 0.51081 0.23529 0.0
C264 C 0.62531 0.46597 0.2592 0.0
C265 C 0.63388 0.51877 0.18988 0.0
C266 C 0.58025 0.50117 0.17944 0.0
C267 C 0.5193 0.46081 0.20822 0.0
C268 C 0.51212 0.43781 0.24681 0.0
C269 C 0.57504 0.47539 0.21461 0.0
C270 C 0.56281 0.42651 0.28855 0.0
C271 C 0.61909 0.44034 0.29449 0.0
H272 H 0.97627 0.54255 0.16367 0.0
H273 H 0.05399 0.61553 0.29284 0.0
H274 H 0.15333 0.59389 0.30394 0.0
H275 H 0.21539 0.54687 0.28782 0.0
H276 H 0.13292 0.47138 0.1639 0.0
H277 H 0.03843 0.50093 0.13999 0.0
C278 C 0.01522 0.55448 0.193 0.0
C279 C 1.00781 0.58044 0.22749 0.0
C280 C 0.07133 0.54067 0.20112 0.0
C281 C 0.05851 0.59573 0.26537 0.0
C282 C 0.11525 0.5829 0.27239 0.0
C283 C 0.1768 0.53744 0.25503 0.0
C284 C 0.18048 0.5069 0.2279 0.0
C285 C 0.12186 0.55423 0.24236 0.0
C286 C 0.13056 0.49469 0.18553 0.0
C287 C 0.07666 0.51159 0.17179 0.0
H288 H 0.47416 0.59516 0.67513 0.0
H289 H 0.57366 0.57304 0.84349 0.0
H290 H 0.48744 0.54395 0.85324 0.0
H291 H 0.38946 0.51746 0.81043 0.0
H292 H 0.28822 0.53887 0.64268 0.0
H293 H 0.36913 0.57568 0.63608 0.0
C294 C 0.47634 0.58501 0.71446 0.0
C295 C 0.53066 0.58606 0.75842 0.0
C296 C 0.42666 0.56751 0.71949 0.0
C297 C 0.5327 0.57244 0.80893 0.0
C298 C 0.48347 0.55554 0.81444 0.0
C299 C 0.3848 0.53064 0.77267 0.0
C300 C 0.33352 0.52518 0.72684 0.0
C301 C 0.43121 0.55168 0.7694 0.0
C302 C 0.32742 0.54272 0.67842 0.0
C303 C 0.37378 0.56362 0.67466 0.0
H304 H 0.0601 0.07378 0.07117 0.0
H305 H 0.11133 0.97596 0.14509 0.0
H306 H 0.04861 0.94775 0.06064 0.0
H307 H 0.97665 0.95142 0.9675 0.0
H308 H 0.92853 0.04961 0.89348 0.0
H309 H 0.99298 0.07743 0.97705 0.0
C310 C 0.05773 0.04625 0.06876 0.0
C311 C 0.08965 0.02688 0.11424 0.0
C312 C 0.022 0.03045 0.02048 0.0
C313 C 0.08708 0.9913 0.11046 0.0
C314 C 0.05104 0.97526 0.06241 0.0
C315 C 0.98003 0.97893 0.96977 0.0
C316 C 0.94735 0.99854 0.92474 0.0
C317 C 0.01774 0.99464 0.0175 0.0
C318 C 0.95307 0.03406 0.92775 0.0
C319 C 0.98985 0.04993 0.9754 0.0
H320 H 0.60397 0.03413 0.11484 0.0
H321 H 0.56581 0.93272 0.04755 0.0
H322 H 0.50704 0.95515 0.95903 0.0
H323 H 0.45846 1.00325 0.90308 0.0
H324 H 0.49072 0.10455 0.97258 0.0
H325 H 0.5588 0.08258 0.05737 0.0
C326 C 0.58358 0.01714 0.08044 0.0
C327 C 0.58919 0.982 0.08742 0.0
C328 C 0.54767 0.03011 0.03015 0.0
C329 C 0.5621 0.96001 0.04288 0.0
C330 C 0.52817 0.97274 0.99234 0.0
C331 C 0.48068 0.02049 0.93664 0.0
C332 C 0.46889 0.05531 0.93156 0.0
C333 C 0.51928 1.00771 0.98589 0.0
C334 C 0.49826 0.07743 0.97549 0.0
C335 C 0.53752 0.06498 0.02411 0.0
H336 H 0.54099 0.58451 0.53952 0.0
H337 H 0.59989 0.49141 0.62731 0.0
H338 H 0.54113 0.45836 0.54716 0.0
H339 H 0.47622 0.45603 0.45179 0.0
H340 H 0.41542 0.54886 0.36417 0.0
H341 H 0.47157 0.58215 0.44536 0.0
C342 C 0.54106 0.55697 0.5411 0.0
C343 C 0.57517 0.54036 0.58898 0.0
C344 C 0.50691 0.53821 0.49518 0.0
C345 C 0.57406 0.50473 0.59082 0.0
C346 C 0.54059 0.48585 0.54507 0.0
C347 C 0.47531 0.48357 0.45044 0.0
C348 C 0.44263 0.50006 0.40202 0.0
C349 C 0.50737 0.50236 0.49699 0.0
C350 C 0.44057 0.53568 0.40104 0.0
C351 C 0.47277 0.55466 0.44729 0.0
H352 H 0.03561 0.44504 0.54071 0.0
H353 H 0.09749 0.54316 0.6146 0.0
H354 H 0.04222 0.57091 0.5292 0.0
H355 H 0.98179 0.56704 0.43365 0.0
H356 H 0.91579 0.46989 0.35871 0.0
H357 H 0.96813 0.44159 0.44537 0.0
C358 C 0.03693 0.47251 0.53811 0.0
C359 C 0.07107 0.4921 0.58354 0.0
C360 C 1.00495 0.48824 0.48908 0.0
C361 C 0.07161 0.52763 0.58008 0.0
C362 C 0.04027 0.54345 0.53133 0.0
C363 C 0.97858 0.53963 0.43612 0.0
C364 C 0.94582 0.52041 0.3899 0.0
C365 C 1.00769 0.52394 0.48558 0.0
C366 C 0.94119 0.48507 0.39387 0.0
C367 C 0.97105 0.469 0.44322 0.0
H368 H 0.19593 0.12264 0.90599 0.0
H369 H 0.38511 0.13995 0.97128 0.0
H370 H 0.38183 0.13974 0.06444 0.0
H371 H 0.32476 0.13214 0.1283 0.0
H372 H 0.13421 0.118 0.05885 0.0
H373 H 0.13894 0.11969 0.9679 0.0
C374 C 0.23635 0.1266 0.94059 0.0
C375 C 0.29048 0.13123 0.93165 0.0
C376 C 0.23412 0.12695 0.99396 0.0
C377 C 0.34256 0.13655 0.97699 0.0
C378 C 0.34082 0.1363 0.03041 0.0
C379 C 0.28435 0.12979 0.0933 0.0
C380 C 0.22955 0.12455 0.1014 0.0
C381 C 0.28679 0.13122 0.03961 0.0
C382 C 0.17753 0.12174 0.05494 0.0
C383 C 0.17984 0.12269 1.00224 0.0
H384 H 0.83511 0.89336 0.95428 0.0
H385 H 0.65867 0.92698 0.86145 0.0
H386 H 0.62775 0.91951 0.94124 0.0
H387 H 0.65178 0.90614 0.03772 0.0
H388 H 0.82939 0.87589 0.13303 0.0
H389 H 0.85856 0.8787 0.05135 0.0
C390 C 0.78968 0.89872 0.95127 0.0
C391 C 0.74923 0.91066 0.90174 0.0
C392 C 0.77241 0.8949 0.99765 0.0
C393 C 0.69076 0.91782 0.8989 0.0
C394 C 0.67301 0.91351 0.94453 0.0
C395 C 0.69681 0.89982 0.04084 0.0
C396 C 0.73826 0.89082 0.09175 0.0
C397 C 0.71361 0.90242 0.99419 0.0
C398 C 0.79643 0.88281 0.09454 0.0
C399 C 0.81321 0.88457 0.04784 0.0
H400 H 0.72697 0.63353 0.39131 0.0
H401 H 0.90293 0.59229 0.46208 0.0
H402 H 0.894 0.59419 0.5522 0.0
H403 H 0.83596 0.60616 0.61154 0.0
H404 H 0.66058 0.64824 0.54242 0.0
H405 H 0.66996 0.64761 0.45185 0.0
C406 C 0.7633 0.62504 0.42645 0.0
C407 C 0.81532 0.61271 0.41956 0.0
C408 C 0.75825 0.62641 0.47886 0.0
C409 C 0.8622 0.60196 0.4658 0.0
C410 C 0.85729 0.60299 0.51766 0.0
C411 C 0.79997 0.61542 0.57678 0.0
C412 C 0.74786 0.62725 0.58392 0.0
C413 C 0.80547 0.61502 0.52469 0.0
C414 C 0.70155 0.63916 0.53828 0.0
C415 C 0.70664 0.63869 0.48628 0.0
H416 H 0.29158 0.45039 0.59007 0.0
H417 H 0.19234 0.35638 0.56955 0.0
H418 H 0.19911 0.3486 0.47818 0.0
H419 H 0.23598 0.36828 0.40423 0.0
H420 H 0.33301 0.46324 0.42656 0.0
H421 H 0.32343 0.47118 0.51611 0.0
C422 C 0.27199 0.42802 0.56582 0.0
C423 C 0.2424 0.40378 0.58679 0.0
C424 C 0.27486 0.42413 0.51306 0.0
C425 C 0.21587 0.37532 0.55437 0.0
C426 C 0.21946 0.37092 0.50202 0.0
C427 C 0.25379 0.39091 0.42844 0.0
C428 C 0.28512 0.41511 0.40904 0.0
C429 C 0.24882 0.39521 0.48075 0.0
C430 C 0.30881 0.44422 0.44092 0.0
C431 C 0.30368 0.44874 0.49225 0.0
H432 H 0.1901 0.09969 0.41864 0.0
H433 H 0.36611 0.06102 0.44815 0.0
H434 H 0.38205 0.05875 0.54679 0.0
H435 H 0.34273 0.06492 0.62352 0.0
H436 H 0.16958 0.10803 0.59343 0.0
H437 H 0.15481 0.11085 0.49556 0.0
C438 C 0.23232 0.09125 0.44689 0.0
C439 C 0.27696 0.08051 0.42653 0.0
C440 C 0.24094 0.09021 0.503 0.0
C441 C 0.33149 0.06973 0.46317 0.0
C442 C 0.34022 0.0681 0.51933 0.0
C443 C 0.30182 0.07486 0.59538 0.0
C444 C 0.25682 0.08574 0.61533 0.0
C445 C 0.29475 0.07767 0.53952 0.0
C446 C 0.20446 0.09921 0.57884 0.0
C447 C 0.19618 0.10095 0.52303 0.0
H448 H 0.8031 0.91293 0.59912 0.0
H449 H 0.72152 1.01092 0.59061 0.0
H450 H 0.71059 1.01489 0.49371 0.0
H451 H 0.72313 0.99031 0.41154 0.0
H452 H 0.81045 0.89405 0.41994 0.0
H453 H 0.8217 0.88985 0.51714 0.0
C454 C 0.78252 0.93495 0.57568 0.0
C455 C 0.76206 0.96135 0.60132 0.0
C456 C 0.77832 0.93756 0.52043 0.0
C457 C 0.73696 0.99021 0.57133 0.0
C458 C 0.73095 0.99252 0.51612 0.0
C459 C 0.74509 0.96851 0.43472 0.0
C460 C 0.76576 0.94246 0.40854 0.0
C461 C 0.75149 0.96638 0.49031 0.0
C462 C 0.79461 0.91456 0.43926 0.0
C463 C 0.80051 0.91202 0.49467 0.0
H464 H 0.6875 0.57076 0.89254 0.0
H465 H 0.85454 0.62321 0.92106 0.0
H466 H 0.86884 0.6274 0.01886 0.0
H467 H 0.83718 0.61211 0.09637 0.0
H468 H 0.66854 0.56188 0.06827 0.0
H469 H 0.6501 0.56165 0.96923 0.0
C470 C 0.72694 0.58313 0.92031 0.0
C471 C 0.77066 0.59602 0.90029 0.0
C472 C 0.73394 0.58618 0.97595 0.0
C473 C 0.82082 0.6128 0.93599 0.0
C474 C 0.82884 0.61525 0.99167 0.0
C475 C 0.79577 0.60188 0.06823 0.0
C476 C 0.7541 0.58706 0.08884 0.0
C477 C 0.7861 0.60161 0.01206 0.0
C478 C 0.70065 0.57375 0.05276 0.0
C479 C 0.69063 0.57325 0.99646 0.0
H480 H 0.23058 0.41018 0.89955 0.0
H481 H 0.3177 0.50763 0.91036 0.0
H482 H 0.32825 0.51234 0.00716 0.0
H483 H 0.31261 0.48896 0.08776 0.0
H484 H 0.22105 0.393 0.07811 0.0
H485 H 0.21044 0.38776 0.98085 0.0
C486 C 0.25255 0.43214 0.9236 0.0
C487 C 0.27459 0.45825 0.89879 0.0
C488 C 0.25644 0.43517 0.97864 0.0
C489 C 0.30128 0.48714 0.92925 0.0
C490 C 0.30692 0.4899 0.98427 0.0
C491 C 0.29001 0.46693 0.06433 0.0
C492 C 0.2679 0.44127 0.08989 0.0
C493 C 0.28445 0.46416 0.00918 0.0
C494 C 0.238 0.41315 0.05902 0.0
C495 C 0.23255 0.41002 0.00372 0.0
H496 H 0.19711 0.21215 0.1942 0.0
H497 H 0.28486 0.19654 0.36654 0.0
H498 H 0.32677 0.25421 0.37652 0.0
H499 H 0.34026 0.30906 0.33568 0.0
H500 H 0.25431 0.32359 0.16259 0.0
H501 H 0.21147 0.26642 0.15333 0.0
C502 C 0.22422 0.22168 0.23417 0.0
C503 C 0.23664 0.20028 0.27981 0.0
C504 C 0.25001 0.25448 0.23921 0.0
C505 C 0.2737 0.21267 0.33095 0.0
C506 C 0.29824 0.24554 0.33655 0.0
C507 C 0.31317 0.29945 0.29577 0.0
C508 C 0.30123 0.32062 0.24979 0.0
C509 C 0.2875 0.26656 0.29081 0.0
C510 C 0.26476 0.30787 0.19862 0.0
C511 C 0.23972 0.27522 0.19333 0.0
H512 H 0.20517 0.20794 0.74615 0.0
H513 H 0.39142 0.22308 0.76926 0.0
H514 H 0.37876 0.28454 0.77203 0.0
H515 H 0.31612 0.33318 0.77019 0.0
H516 H 0.12926 0.31888 0.74495 0.0
H517 H 0.14173 0.25714 0.74314 0.0
C518 C 0.24309 0.22461 0.75139 0.0
C519 C 0.29937 0.21081 0.75757 0.0
C520 C 0.23569 0.25981 0.75389 0.0
C521 C 0.34771 0.23291 0.76415 0.0
C522 C 0.34056 0.26803 0.76625 0.0
C523 C 0.27783 0.31673 0.76454 0.0
C524 C 0.22161 0.33079 0.75767 0.0
C525 C 0.28498 0.28162 0.76183 0.0
C526 C 0.17297 0.30884 0.75067 0.0
C527 C 0.18003 0.27359 0.74908 0.0
H528 H 0.81709 0.71164 0.7613 0.0
H529 H 0.62904 0.72285 0.73079 0.0
H530 H 0.64065 0.78469 0.72928 0.0
H531 H 0.70365 0.83502 0.73492 0.0
H532 H 0.89171 0.8236 0.7655 0.0
H533 H 0.87999 0.76183 0.76703 0.0
C534 C 0.77841 0.72747 0.75457 0.0
C535 C 0.72206 0.71242 0.74614 0.0
C536 C 0.78527 0.76283 0.75279 0.0
C537 C 0.67284 0.73359 0.73764 0.0
C538 C 0.67945 0.76895 0.73637 0.0
C539 C 0.74225 0.81914 0.74149 0.0
C540 C 0.79867 0.83413 0.74988 0.0
C541 C 0.73534 0.78376 0.74334 0.0
C542 C 0.84786 0.81291 0.75863 0.0
C543 C 0.84119 0.77759 0.75988 0.0
H544 H 0.71729 0.69286 0.22043 0.0
H545 H 0.90453 0.71311 0.2997 0.0
H546 H 0.88374 0.77306 0.31014 0.0
H547 H 0.8123 0.81982 0.29617 0.0
H548 H 0.62522 0.79909 0.21682 0.0
H549 H 0.64604 0.73905 0.20842 0.0
C550 C 0.7538 0.7104 0.23935 0.0
C551 C 0.8126 0.69841 0.25858 0.0
C552 C 0.74139 0.74466 0.24632 0.0
C553 C 0.85897 0.72158 0.284 0.0
C554 C 0.84703 0.75585 0.29038 0.0
C555 C 0.77589 0.80208 0.27808 0.0
C556 C 0.71709 0.81403 0.2576 0.0
C557 C 0.78835 0.76763 0.27207 0.0
C558 C 0.67076 0.79064 0.23329 0.0
C559 C 0.68271 0.75632 0.22801 0.0
loop_
_geom_bond_atom_site_label_1
_geom_bond_atom_site_label_2
_geom_bond_distance
_geom_bond_site_symmetry_2
_ccdc_geom_bond_type
Fe0 O2 1.918 . S
Fe0 O5 1.997 . S
Fe0 O6 2.002 . S
Fe0 O11 1.976 . S
Fe0 O14 1.996 . S
Fe1 O2 1.918 . S
Fe1 O9 1.997 . S
Fe1 O12 1.996 . S
Fe1 O16 1.976 . S
Fe1 O19 2.002 . S
O2 Fe0 1.918 . S
O2 Fe1 1.918 . S
O2 Fe3 1.918 . S
Fe3 O2 1.918 . S
Fe3 O4 2.002 . S
Fe3 O13 1.976 . S
Fe3 O17 1.996 . S
Fe3 O20 1.997 . S
O4 Fe3 2.002 . S
O4 C21 1.295 . S
O5 Fe0 1.997 . S
O5 C21 1.235 . S
O6 Fe0 2.002 . S
O6 C7 1.295 . S
C7 O6 1.295 . S
C7 O9 1.235 . S
C8 O13 1.287 . S
C8 O14 1.255 . S
O9 Fe1 1.997 . S
O9 C7 1.235 . S
C10 O16 1.287 . S
C10 O17 1.255 . S
O11 Fe0 1.976 . S
O11 C18 1.287 . S
O12 Fe1 1.996 . S
O12 C18 1.255 . S
O13 Fe3 1.976 . S
O13 C8 1.287 . S
O14 Fe0 1.996 . S
O14 C8 1.255 . S
C15 O19 1.295 . S
C15 O20 1.235 . S
O16 Fe1 1.976 . S
O16 C10 1.287 . S
O17 Fe3 1.996 . S
O17 C10 1.255 . S
C18 O11 1.287 . S
C18 O12 1.255 . S
O19 Fe1 2.002 . S
O19 C15 1.295 . S
O20 Fe3 1.997 . S
O20 C15 1.235 . S
C21 O4 1.295 . S
C21 O5 1.235 . S
Fe22 O24 1.918 . S
Fe22 O27 1.997 . S
Fe22 O28 2.002 . S
Fe22 O33 1.976 . S
Fe22 O36 1.996 . S
Fe23 O24 1.918 . S
Fe23 O31 1.997 . S
Fe23 O34 1.996 . S
Fe23 O38 1.976 . S
Fe23 O41 2.002 . S
O24 Fe22 1.918 . S
O24 Fe23 1.918 . S
O24 Fe25 1.918 . S
Fe25 O24 1.918 . S
Fe25 O26 2.002 . S
Fe25 O35 1.976 . S
Fe25 O39 1.996 . S
Fe25 O42 1.997 . S
O26 Fe25 2.002 . S
O26 C43 1.295 . S
O27 Fe22 1.997 . S
O27 C43 1.235 . S
O28 Fe22 2.002 . S
O28 C29 1.295 . S
C29 O28 1.295 . S
C29 O31 1.235 . S
C30 O35 1.287 . S
C30 O36 1.255 . S
O31 Fe23 1.997 . S
O31 C29 1.235 . S
C32 O38 1.287 . S
C32 O39 1.255 . S
O33 Fe22 1.976 . S
O33 C40 1.287 . S
O34 Fe23 1.996 . S
O34 C40 1.255 . S
O35 Fe25 1.976 . S
O35 C30 1.287 . S
O36 Fe22 1.996 . S
O36 C30 1.255 . S
C37 O41 1.295 . S
C37 O42 1.235 . S
O38 Fe23 1.976 . S
O38 C32 1.287 . S
O39 Fe25 1.996 . S
O39 C32 1.255 . S
C40 O33 1.287 . S
C40 O34 1.255 . S
O41 Fe23 2.002 . S
O41 C37 1.295 . S
O42 Fe25 1.997 . S
O42 C37 1.235 . S
C43 O26 1.295 . S
C43 O27 1.235 . S
Fe44 O46 1.918 . S
Fe44 O49 1.997 . S
Fe44 O50 2.002 . S
Fe44 O55 1.976 . S
Fe44 O58 1.996 . S
Fe45 O46 1.918 . S
Fe45 O53 1.997 . S
Fe45 O56 1.996 . S
Fe45 O60 1.976 . S
Fe45 O63 2.002 . S
O46 Fe44 1.918 . S
O46 Fe45 1.918 . S
O46 Fe47 1.918 . S
Fe47 O46 1.918 . S
Fe47 O48 2.002 . S
Fe47 O57 1.976 . S
Fe47 O61 1.996 . S
Fe47 O64 1.997 . S
O48 Fe47 2.002 . S
O48 C65 1.295 . S
O49 Fe44 1.997 . S
O49 C65 1.235 . S
O50 Fe44 2.002 . S
O50 C51 1.295 . S
C51 O50 1.295 . S
C51 O53 1.235 . S
C52 O57 1.287 . S
C52 O58 1.255 . S
O53 Fe45 1.997 . S
O53 C51 1.235 . S
C54 O60 1.287 . S
C54 O61 1.255 . S
O55 Fe44 1.976 . S
O55 C62 1.287 . S
O56 Fe45 1.996 . S
O56 C62 1.255 . S
O57 Fe47 1.976 . S
O57 C52 1.287 . S
O58 Fe44 1.996 . S
O58 C52 1.255 . S
C59 O63 1.295 . S
C59 O64 1.235 . S
O60 Fe45 1.976 . S
O60 C54 1.287 . S
O61 Fe47 1.996 . S
O61 C54 1.255 . S
C62 O55 1.287 . S
C62 O56 1.255 . S
O63 Fe45 2.002 . S
O63 C59 1.295 . S
O64 Fe47 1.997 . S
O64 C59 1.235 . S
C65 O48 1.295 . S
C65 O49 1.235 . S
Fe66 O68 1.918 . S
Fe66 O71 1.997 . S
Fe66 O72 2.002 . S
Fe66 O77 1.976 . S
Fe66 O80 1.996 . S
Fe67 O68 1.918 . S
Fe67 O75 1.997 . S
Fe67 O78 1.996 . S
Fe67 O82 1.976 . S
Fe67 O85 2.002 . S
O68 Fe66 1.918 . S
O68 Fe67 1.918 . S
O68 Fe69 1.918 . S
Fe69 O68 1.918 . S
Fe69 O70 2.002 . S
Fe69 O79 1.976 . S
Fe69 O83 1.996 . S
Fe69 O86 1.997 . S
O70 Fe69 2.002 . S
O70 C87 1.295 . S
O71 Fe66 1.997 . S
O71 C87 1.235 . S
O72 Fe66 2.002 . S
O72 C73 1.295 . S
C73 O72 1.295 . S
C73 O75 1.235 . S
C74 O79 1.287 . S
C74 O80 1.255 . S
O75 Fe67 1.997 . S
O75 C73 1.235 . S
C76 O82 1.287 . S
C76 O83 1.255 . S
O77 Fe66 1.976 . S
O77 C84 1.287 . S
O78 Fe67 1.996 . S
O78 C84 1.255 . S
O79 Fe69 1.976 . S
O79 C74 1.287 . S
O80 Fe66 1.996 . S
O80 C74 1.255 . S
C81 O85 1.295 . S
C81 O86 1.235 . S
O82 Fe67 1.976 . S
O82 C76 1.287 . S
O83 Fe69 1.996 . S
O83 C76 1.255 . S
C84 O77 1.287 . S
C84 O78 1.255 . S
O85 Fe67 2.002 . S
O85 C81 1.295 . S
O86 Fe69 1.997 . S
O86 C81 1.235 . S
C87 O70 1.295 . S
C87 O71 1.235 . S
Fe88 O90 1.918 . S
Fe88 O93 1.997 . S
Fe88 O94 2.002 . S
Fe88 O99 1.976 . S
Fe88 O102 1.996 . S
Fe89 O90 1.918 . S
Fe89 O97 1.997 . S
Fe89 O100 1.996 . S
Fe89 O104 1.976 . S
Fe89 O107 2.002 . S
O90 Fe88 1.918 . S
O90 Fe89 1.918 . S
O90 Fe91 1.918 . S
Fe91 O90 1.918 . S
Fe91 O92 2.002 . S
Fe91 O101 1.976 . S
Fe91 O105 1.996 . S
Fe91 O108 1.997 . S
O92 Fe91 2.002 . S
O92 C109 1.295 . S
O93 Fe88 1.997 . S
O93 C109 1.235 . S
O94 Fe88 2.002 . S
O94 C95 1.295 . S
C95 O94 1.295 . S
C95 O97 1.235 . S
C96 O101 1.287 . S
C96 O102 1.255 . S
O97 Fe89 1.997 . S
O97 C95 1.235 . S
C98 O104 1.287 . S
C98 O105 1.255 . S
O99 Fe88 1.976 . S
O99 C106 1.287 . S
O100 Fe89 1.996 . S
O100 C106 1.255 . S
O101 Fe91 1.976 . S
O101 C96 1.287 . S
O102 Fe88 1.996 . S
O102 C96 1.255 . S
C103 O107 1.295 . S
C103 O108 1.235 . S
O104 Fe89 1.976 . S
O104 C98 1.287 . S
O105 Fe91 1.996 . S
O105 C98 1.255 . S
C106 O99 1.287 . S
C106 O100 1.255 . S
O107 Fe89 2.002 . S
O107 C103 1.295 . S
O108 Fe91 1.997 . S
O108 C103 1.235 . S
C109 O92 1.295 . S
C109 O93 1.235 . S
Fe110 O112 1.918 . S
Fe110 O115 1.997 . S
Fe110 O116 2.002 . S
Fe110 O121 1.976 . S
Fe110 O124 1.996 . S
Fe111 O112 1.918 . S
Fe111 O119 1.997 . S
Fe111 O122 1.996 . S
Fe111 O126 1.976 . S
Fe111 O129 2.002 . S
O112 Fe110 1.918 . S
O112 Fe111 1.918 . S
O112 Fe113 1.918 . S
Fe113 O112 1.918 . S
Fe113 O114 2.002 . S
Fe113 O123 1.976 . S
Fe113 O127 1.996 . S
Fe113 O130 1.997 . S
O114 Fe113 2.002 . S
O114 C131 1.295 . S
O115 Fe110 1.997 . S
O115 C131 1.235 . S
O116 Fe110 2.002 . S
O116 C117 1.295 . S
C117 O116 1.295 . S
C117 O119 1.235 . S
C118 O123 1.287 . S
C118 O124 1.255 . S
O119 Fe111 1.997 . S
O119 C117 1.235 . S
C120 O126 1.287 . S
C120 O127 1.255 . S
O121 Fe110 1.976 . S
O121 C128 1.287 . S
O122 Fe111 1.996 . S
O122 C128 1.255 . S
O123 Fe113 1.976 . S
O123 C118 1.287 . S
O124 Fe110 1.996 . S
O124 C118 1.255 . S
C125 O129 1.295 . S
C125 O130 1.235 . S
O126 Fe111 1.976 . S
O126 C120 1.287 . S
O127 Fe113 1.996 . S
O127 C120 1.255 . S
C128 O121 1.287 . S
C128 O122 1.255 . S
O129 Fe111 2.002 . S
O129 C125 1.295 . S
O130 Fe113 1.997 . S
O130 C125 1.235 . S
C131 O114 1.295 . S
C131 O115 1.235 . S
Fe132 O134 1.918 . S
Fe132 O137 1.997 . S
Fe132 O138 2.002 . S
Fe132 O143 1.976 . S
Fe132 O146 1.996 . S
Fe133 O134 1.918 . S
Fe133 O141 1.997 . S
Fe133 O144 1.996 . S
Fe133 O148 1.976 . S
Fe133 O151 2.002 . S
O134 Fe132 1.918 . S
O134 Fe133 1.918 . S
O134 Fe135 1.918 . S
Fe135 O134 1.918 . S
Fe135 O136 2.002 . S
Fe135 O145 1.976 . S
Fe135 O149 1.996 . S
Fe135 O152 1.997 . S
O136 Fe135 2.002 . S
O136 C153 1.295 . S
O137 Fe132 1.997 . S
O137 C153 1.235 . S
O138 Fe132 2.002 . S
O138 C139 1.295 . S
C139 O138 1.295 . S
C139 O141 1.235 . S
C140 O145 1.287 . S
C140 O146 1.255 . S
O141 Fe133 1.997 . S
O141 C139 1.235 . S
C142 O148 1.287 . S
C142 O149 1.255 . S
O143 Fe132 1.976 . S
O143 C150 1.287 . S
O144 Fe133 1.996 . S
O144 C150 1.255 . S
O145 Fe135 1.976 . S
O145 C140 1.287 . S
O146 Fe132 1.996 . S
O146 C140 1.255 . S
C147 O151 1.295 . S
C147 O152 1.235 . S
O148 Fe133 1.976 . S
O148 C142 1.287 . S
O149 Fe135 1.996 . S
O149 C142 1.255 . S
C150 O143 1.287 . S
C150 O144 1.255 . S
O151 Fe133 2.002 . S
O151 C147 1.295 . S
O152 Fe135 1.997 . S
O152 C147 1.235 . S
C153 O136 1.295 . S
C153 O137 1.235 . S
Fe154 O156 1.918 . S
Fe154 O159 1.997 . S
Fe154 O160 2.002 . S
Fe154 O165 1.976 . S
Fe154 O168 1.996 . S
Fe155 O156 1.918 . S
Fe155 O163 1.997 . S
Fe155 O166 1.996 . S
Fe155 O170 1.976 . S
Fe155 O173 2.002 . S
O156 Fe154 1.918 . S
O156 Fe155 1.918 . S
O156 Fe157 1.918 . S
Fe157 O156 1.918 . S
Fe157 O158 2.002 . S
Fe157 O167 1.976 . S
Fe157 O171 1.996 . S
Fe157 O174 1.997 . S
O158 Fe157 2.002 . S
O158 C175 1.295 . S
O159 Fe154 1.997 . S
O159 C175 1.235 . S
O160 Fe154 2.002 . S
O160 C161 1.295 . S
C161 O160 1.295 . S
C161 O163 1.235 . S
C162 O167 1.287 . S
C162 O168 1.255 . S
O163 Fe155 1.997 . S
O163 C161 1.235 . S
C164 O170 1.287 . S
C164 O171 1.255 . S
O165 Fe154 1.976 . S
O165 C172 1.287 . S
O166 Fe155 1.996 . S
O166 C172 1.255 . S
O167 Fe157 1.976 . S
O167 C162 1.287 . S
O168 Fe154 1.996 . S
O168 C162 1.255 . S
C169 O173 1.295 . S
C169 O174 1.235 . S
O170 Fe155 1.976 . S
O170 C164 1.287 . S
O171 Fe157 1.996 . S
O171 C164 1.255 . S
C172 O165 1.287 . S
C172 O166 1.255 . S
O173 Fe155 2.002 . S
O173 C169 1.295 . S
O174 Fe157 1.997 . S
O174 C169 1.235 . S
C175 O158 1.295 . S
C175 O159 1.235 . S
H176 C182 0.930 . S
H177 C185 0.930 . S
H178 C186 0.930 . S
H179 C187 0.930 . S
H180 C190 0.930 . S
H181 C191 0.930 . S
C182 H176 0.930 . S
C182 C183 1.355 . S
C182 C184 1.415 . S
C183 C182 1.355 . S
C183 C185 1.419 . S
C184 C182 1.415 . S
C184 C189 1.425 . S
C184 C191 1.409 1_565 S
C185 H177 0.930 . S
C185 C183 1.419 . S
C185 C186 1.362 . S
C186 H178 0.930 . S
C186 C185 1.362 . S
C186 C189 1.409 . S
C187 H179 0.930 . S
C187 C188 1.355 1_565 S
C187 C189 1.415 . S
C188 C187 1.355 1_545 S
C188 C190 1.419 . S
C189 C184 1.425 . S
C189 C186 1.409 . S
C189 C187 1.415 . S
C190 H180 0.930 . S
C190 C188 1.419 . S
C190 C191 1.362 . S
C191 H181 0.930 . S
C191 C184 1.409 1_545 S
C191 C190 1.362 . S
H192 C198 0.930 . S
H193 C201 0.930 . S
H194 C202 0.930 1_645 S
H195 C203 0.930 . S
H196 C206 0.930 . S
H197 C207 0.930 . S
C198 H192 0.930 . S
C198 C199 1.355 1_455 S
C198 C200 1.415 . S
C199 C198 1.355 1_655 S
C199 C201 1.419 . S
C200 C198 1.415 . S
C200 C205 1.425 . S
C200 C207 1.409 . S
C201 H193 0.930 . S
C201 C199 1.419 . S
C201 C202 1.362 1_655 S
C202 H194 0.930 1_465 S
C202 C201 1.362 1_455 S
C202 C205 1.409 . S
C203 H195 0.930 . S
C203 C204 1.355 . S
C203 C205 1.415 1_545 S
C204 C203 1.355 . S
C204 C206 1.419 1_545 S
C205 C200 1.425 . S
C205 C202 1.409 . S
C205 C203 1.415 1_565 S
C206 H196 0.930 . S
C206 C204 1.419 1_565 S
C206 C207 1.362 . S
C207 H197 0.930 . S
C207 C200 1.409 . S
C207 C206 1.362 . S
H208 C214 0.930 . S
H209 C217 0.930 . S
H210 C218 0.930 . S
H211 C219 0.930 . S
H212 C222 0.930 . S
H213 C223 0.930 1_565 S
C214 H208 0.930 . S
C214 C215 1.355 . S
C214 C216 1.415 1_565 S
C215 C214 1.355 . S
C215 C217 1.419 1_565 S
C216 C214 1.415 1_545 S
C216 C221 1.425 . S
C216 C223 1.409 . S
C217 H209 0.930 . S
C217 C215 1.419 1_545 S
C217 C218 1.362 . S
C218 H210 0.930 . S
C218 C217 1.362 . S
C218 C221 1.409 . S
C219 H211 0.930 . S
C219 C220 1.355 . S
C219 C221 1.415 . S
C220 C219 1.355 . S
C220 C222 1.419 . S
C221 C216 1.425 . S
C221 C218 1.409 . S
C221 C219 1.415 . S
C222 H212 0.930 . S
C222 C220 1.419 . S
C222 C223 1.362 . S
C223 H213 0.930 1_545 S
C223 C216 1.409 . S
C223 C222 1.362 . S
H224 C230 0.930 . S
H225 C233 0.930 . S
H226 C234 0.930 . S
H227 C235 0.930 1_455 S
H228 C238 0.930 . S
H229 C239 0.930 . S
C230 H224 0.930 . S
C230 C231 1.355 1_545 S
C230 C232 1.415 . S
C231 C230 1.355 1_565 S
C231 C233 1.419 . S
C232 C230 1.415 . S
C232 C237 1.425 . S
C232 C239 1.409 . S
C233 H225 0.930 . S
C233 C231 1.419 . S
C233 C234 1.362 . S
C234 H226 0.930 . S
C234 C233 1.362 . S
C234 C237 1.409 1_565 S
C235 H227 0.930 1_655 S
C235 C236 1.355 1_655 S
C235 C237 1.415 . S
C236 C235 1.355 1_455 S
C236 C238 1.419 1_455 S
C237 C232 1.425 . S
C237 C234 1.409 1_545 S
C237 C235 1.415 . S
C238 H228 0.930 . S
C238 C236 1.419 1_655 S
C238 C239 1.362 . S
C239 H229 0.930 . S
C239 C232 1.409 . S
C239 C238 1.362 . S
H240 C246 0.930 . S
H241 C249 0.930 . S
H242 C250 0.930 1_455 S
H243 C251 0.930 . S
H244 C254 0.930 . S
H245 C255 0.930 . S
C246 H240 0.930 . S
C246 C247 1.355 1_655 S
C246 C248 1.415 . S
C247 C246 1.355 1_455 S
C247 C249 1.419 . S
C248 C246 1.415 . S
C248 C253 1.425 . S
C248 C255 1.409 . S
C249 H241 0.930 . S
C249 C247 1.419 . S
C249 C250 1.362 1_455 S
C250 H242 0.930 1_655 S
C250 C249 1.362 1_655 S
C250 C253 1.409 . S
C251 H243 0.930 . S
C251 C252 1.355 . S
C251 C253 1.415 . S
C252 C251 1.355 . S
C252 C254 1.419 . S
C253 C248 1.425 . S
C253 C250 1.409 . S
C253 C251 1.415 . S
C254 H244 0.930 . S
C254 C252 1.419 . S
C254 C255 1.362 . S
C255 H245 0.930 . S
C255 C248 1.409 . S
C255 C254 1.362 . S
H256 C262 0.930 . S
H257 C265 0.930 . S
H258 C266 0.930 . S
H259 C267 0.930 . S
H260 C270 0.930 . S
H261 C271 0.930 . S
C262 H256 0.930 . S
C262 C263 1.355 . S
C262 C264 1.415 . S
C263 C262 1.355 . S
C263 C265 1.419 . S
C264 C262 1.415 . S
C264 C269 1.425 . S
C264 C271 1.409 . S
C265 H257 0.930 . S
C265 C263 1.419 . S
C265 C266 1.362 . S
C266 H258 0.930 . S
C266 C265 1.362 . S
C266 C269 1.409 . S
C267 H259 0.930 . S
C267 C268 1.355 . S
C267 C269 1.415 . S
C268 C267 1.355 . S
C268 C270 1.419 . S
C269 C264 1.425 . S
C269 C266 1.409 . S
C269 C267 1.415 . S
C270 H260 0.930 . S
C270 C268 1.419 . S
C270 C271 1.362 . S
C271 H261 0.930 . S
C271 C264 1.409 . S
C271 C270 1.362 . S
H272 C278 0.930 1_655 S
H273 C281 0.930 . S
H274 C282 0.930 . S
H275 C283 0.930 . S
H276 C286 0.930 . S
H277 C287 0.930 . S
C278 H272 0.930 1_455 S
C278 C279 1.355 1_455 S
C278 C280 1.415 . S
C279 C278 1.355 1_655 S
C279 C281 1.419 1_655 S
C280 C278 1.415 . S
C280 C285 1.425 . S
C280 C287 1.409 . S
C281 H273 0.930 . S
C281 C279 1.419 1_455 S
C281 C282 1.362 . S
C282 H274 0.930 . S
C282 C281 1.362 . S
C282 C285 1.409 . S
C283 H275 0.930 . S
C283 C284 1.355 . S
C283 C285 1.415 . S
C284 C283 1.355 . S
C284 C286 1.419 . S
C285 C280 1.425 . S
C285 C282 1.409 . S
C285 C283 1.415 . S
C286 H276 0.930 . S
C286 C284 1.419 . S
C286 C287 1.362 . S
C287 H277 0.930 . S
C287 C280 1.409 . S
C287 C286 1.362 . S
H288 C294 0.930 . S
H289 C297 0.930 . S
H290 C298 0.930 . S
H291 C299 0.930 . S
H292 C302 0.930 . S
H293 C303 0.930 . S
C294 H288 0.930 . S
C294 C295 1.355 . S
C294 C296 1.415 . S
C295 C294 1.355 . S
C295 C297 1.419 . S
C296 C294 1.415 . S
C296 C301 1.425 . S
C296 C303 1.409 . S
C297 H289 0.930 . S
C297 C295 1.419 . S
C297 C298 1.362 . S
C298 H290 0.930 . S
C298 C297 1.362 . S
C298 C301 1.409 . S
C299 H291 0.930 . S
C299 C300 1.355 . S
C299 C301 1.415 . S
C300 C299 1.355 . S
C300 C302 1.419 . S
C301 C296 1.425 . S
C301 C298 1.409 . S
C301 C299 1.415 . S
C302 H292 0.930 . S
C302 C300 1.419 . S
C302 C303 1.362 . S
C303 H293 0.930 . S
C303 C296 1.409 . S
C303 C302 1.362 . S
H304 C310 0.930 . S
H305 C313 0.930 . S
H306 C314 0.930 . S
H307 C315 0.930 . S
H308 C318 0.930 . S
H309 C319 0.930 . S
C310 H304 0.930 . S
C310 C311 1.355 . S
C310 C312 1.415 1_455 S
C311 C310 1.355 . S
C311 C313 1.419 1_545 S
C312 C310 1.415 1_655 S
C312 C317 1.425 1_644 S
C312 C319 1.409 1_554 S
C313 H305 0.930 . S
C313 C311 1.419 1_565 S
C313 C314 1.362 . S
C314 H306 0.930 . S
C314 C313 1.362 . S
C314 C317 1.409 1_554 S
C315 H307 0.930 . S
C315 C316 1.355 . S
C315 C317 1.415 1_655 S
C316 C315 1.355 . S
C316 C318 1.419 1_565 S
C317 C312 1.425 1_466 S
C317 C314 1.409 1_556 S
C317 C315 1.415 1_455 S
C318 H308 0.930 . S
C318 C316 1.419 1_545 S
C318 C319 1.362 . S
C319 H309 0.930 . S
C319 C312 1.409 1_556 S
C319 C318 1.362 . S
H320 C326 0.930 . S
H321 C329 0.930 . S
H322 C330 0.930 1_556 S
H323 C331 0.930 . S
H324 C334 0.930 . S
H325 C335 0.930 1_554 S
C326 H320 0.930 . S
C326 C327 1.355 1_545 S
C326 C328 1.415 . S
C327 C326 1.355 1_565 S
C327 C329 1.419 . S
C328 C326 1.415 . S
C328 C333 1.425 1_544 S
C328 C335 1.409 1_554 S
C329 H321 0.930 . S
C329 C327 1.419 . S
C329 C330 1.362 . S
C330 H322 0.930 1_554 S
C330 C329 1.362 . S
C330 C333 1.409 1_554 S
C331 H323 0.930 . S
C331 C332 1.355 1_565 S
C331 C333 1.415 . S
C332 C331 1.355 1_545 S
C332 C334 1.419 . S
C333 C328 1.425 1_566 S
C333 C330 1.409 1_556 S
C333 C331 1.415 . S
C334 H324 0.930 . S
C334 C332 1.419 . S
C334 C335 1.362 . S
C335 H325 0.930 1_556 S
C335 C328 1.409 1_556 S
C335 C334 1.362 . S
H336 C342 0.930 . S
H337 C345 0.930 . S
H338 C346 0.930 . S
H339 C347 0.930 . S
H340 C350 0.930 . S
H341 C351 0.930 . S
C342 H336 0.930 . S
C342 C343 1.355 . S
C342 C344 1.415 . S
C343 C342 1.355 . S
C343 C345 1.419 . S
C344 C342 1.415 . S
C344 C349 1.425 . S
C344 C351 1.409 . S
C345 H337 0.930 . S
C345 C343 1.419 . S
C345 C346 1.362 . S
C346 H338 0.930 . S
C346 C345 1.362 . S
C346 C349 1.409 . S
C347 H339 0.930 . S
C347 C348 1.355 . S
C347 C349 1.415 . S
C348 C347 1.355 . S
C348 C350 1.419 . S
C349 C344 1.425 . S
C349 C346 1.409 . S
C349 C347 1.415 . S
C350 H340 0.930 . S
C350 C348 1.419 . S
C350 C351 1.362 . S
C351 H341 0.930 . S
C351 C344 1.409 . S
C351 C350 1.362 . S
H352 C358 0.930 . S
H353 C361 0.930 . S
H354 C362 0.930 . S
H355 C363 0.930 . S
H356 C366 0.930 . S
H357 C367 0.930 . S
C358 H352 0.930 . S
C358 C359 1.355 . S
C358 C360 1.415 . S
C359 C358 1.355 . S
C359 C361 1.419 . S
C360 C358 1.415 . S
C360 C365 1.425 1_455 S
C360 C367 1.409 . S
C361 H353 0.930 . S
C361 C359 1.419 . S
C361 C362 1.362 1_455 S
C362 H354 0.930 . S
C362 C361 1.362 1_655 S
C362 C365 1.409 . S
C363 H355 0.930 . S
C363 C364 1.355 . S
C363 C365 1.415 . S
C364 C363 1.355 . S
C364 C366 1.419 . S
C365 C360 1.425 1_655 S
C365 C362 1.409 . S
C365 C363 1.415 . S
C366 H356 0.930 . S
C366 C364 1.419 . S
C366 C367 1.362 1_655 S
C367 H357 0.930 . S
C367 C360 1.409 . S
C367 C366 1.362 1_455 S
H368 C374 0.930 . S
H369 C377 0.930 . S
H370 C378 0.930 . S
H371 C379 0.930 . S
H372 C382 0.930 . S
H373 C383 0.930 . S
C374 H368 0.930 . S
C374 C375 1.355 . S
C374 C376 1.415 . S
C375 C374 1.355 . S
C375 C377 1.419 . S
C376 C374 1.415 . S
C376 C381 1.425 1_556 S
C376 C383 1.409 . S
C377 H369 0.930 . S
C377 C375 1.419 . S
C377 C378 1.362 1_556 S
C378 H370 0.930 . S
C378 C377 1.362 1_554 S
C378 C381 1.409 . S
C379 H371 0.930 . S
C379 C380 1.355 . S
C379 C381 1.415 . S
C380 C379 1.355 . S
C380 C382 1.419 . S
C381 C376 1.425 1_554 S
C381 C378 1.409 . S
C381 C379 1.415 . S
C382 H372 0.930 . S
C382 C380 1.419 . S
C382 C383 1.362 1_554 S
C383 H373 0.930 . S
C383 C376 1.409 . S
C383 C382 1.362 1_556 S
H384 C390 0.930 . S
H385 C393 0.930 . S
H386 C394 0.930 . S
H387 C395 0.930 . S
H388 C398 0.930 . S
H389 C399 0.930 . S
C390 H384 0.930 . S
C390 C391 1.355 . S
C390 C392 1.415 . S
C391 C390 1.355 . S
C391 C393 1.419 . S
C392 C390 1.415 . S
C392 C397 1.425 1_556 S
C392 C399 1.409 1_556 S
C393 H385 0.930 . S
C393 C391 1.419 . S
C393 C394 1.362 . S
C394 H386 0.930 . S
C394 C393 1.362 . S
C394 C397 1.409 1_556 S
C395 H387 0.930 . S
C395 C396 1.355 . S
C395 C397 1.415 . S
C396 C395 1.355 . S
C396 C398 1.419 . S
C397 C392 1.425 1_554 S
C397 C394 1.409 1_554 S
C397 C395 1.415 . S
C398 H388 0.930 . S
C398 C396 1.419 . S
C398 C399 1.362 . S
C399 H389 0.930 . S
C399 C392 1.409 1_554 S
C399 C398 1.362 . S
H400 C406 0.930 . S
H401 C409 0.930 . S
H402 C410 0.930 . S
H403 C411 0.930 . S
H404 C414 0.930 . S
H405 C415 0.930 . S
C406 H400 0.930 . S
C406 C407 1.355 . S
C406 C408 1.415 . S
C407 C406 1.355 . S
C407 C409 1.419 . S
C408 C406 1.415 . S
C408 C413 1.425 . S
C408 C415 1.409 . S
C409 H401 0.930 . S
C409 C407 1.419 . S
C409 C410 1.362 . S
C410 H402 0.930 . S
C410 C409 1.362 . S
C410 C413 1.409 . S
C411 H403 0.930 . S
C411 C412 1.355 . S
C411 C413 1.415 . S
C412 C411 1.355 . S
C412 C414 1.419 . S
C413 C408 1.425 . S
C413 C410 1.409 . S
C413 C411 1.415 . S
C414 H404 0.930 . S
C414 C412 1.419 . S
C414 C415 1.362 . S
C415 H405 0.930 . S
C415 C408 1.409 . S
C415 C414 1.362 . S
H416 C422 0.930 . S
H417 C425 0.930 . S
H418 C426 0.930 . S
H419 C427 0.930 . S
H420 C430 0.930 . S
H421 C431 0.930 . S
C422 H416 0.930 . S
C422 C423 1.355 . S
C422 C424 1.415 . S
C423 C422 1.355 . S
C423 C425 1.419 . S
C424 C422 1.415 . S
C424 C429 1.425 . S
C424 C431 1.409 . S
C425 H417 0.930 . S
C425 C423 1.419 . S
C425 C426 1.362 . S
C426 H418 0.930 . S
C426 C425 1.362 . S
C426 C429 1.409 . S
C427 H419 0.930 . S
C427 C428 1.355 . S
C427 C429 1.415 . S
C428 C427 1.355 . S
C428 C430 1.419 . S
C429 C424 1.425 . S
C429 C426 1.409 . S
C429 C427 1.415 . S
C430 H420 0.930 . S
C430 C428 1.419 . S
C430 C431 1.362 . S
C431 H421 0.930 . S
C431 C424 1.409 . S
C431 C430 1.362 . S
H432 C438 0.930 . S
H433 C441 0.930 . S
H434 C442 0.930 . S
H435 C443 0.930 . S
H436 C446 0.930 . S
H437 C447 0.930 . S
C438 H432 0.930 . S
C438 C439 1.355 . S
C438 C440 1.415 . S
C439 C438 1.355 . S
C439 C441 1.419 . S
C440 C438 1.415 . S
C440 C445 1.425 . S
C440 C447 1.409 . S
C441 H433 0.930 . S
C441 C439 1.419 . S
C441 C442 1.362 . S
C442 H434 0.930 . S
C442 C441 1.362 . S
C442 C445 1.409 . S
C443 H435 0.930 . S
C443 C444 1.355 . S
C443 C445 1.415 . S
C444 C443 1.355 . S
C444 C446 1.419 . S
C445 C440 1.425 . S
C445 C442 1.409 . S
C445 C443 1.415 . S
C446 H436 0.930 . S
C446 C444 1.419 . S
C446 C447 1.362 . S
C447 H437 0.930 . S
C447 C440 1.409 . S
C447 C446 1.362 . S
H448 C454 0.930 . S
H449 C457 0.930 . S
H450 C458 0.930 . S
H451 C459 0.930 . S
H452 C462 0.930 . S
H453 C463 0.930 . S
C454 H448 0.930 . S
C454 C455 1.355 . S
C454 C456 1.415 . S
C455 C454 1.355 . S
C455 C457 1.419 . S
C456 C454 1.415 . S
C456 C461 1.425 . S
C456 C463 1.409 . S
C457 H449 0.930 . S
C457 C455 1.419 . S
C457 C458 1.362 . S
C458 H450 0.930 . S
C458 C457 1.362 . S
C458 C461 1.409 . S
C459 H451 0.930 . S
C459 C460 1.355 . S
C459 C461 1.415 . S
C460 C459 1.355 . S
C460 C462 1.419 . S
C461 C456 1.425 . S
C461 C458 1.409 . S
C461 C459 1.415 . S
C462 H452 0.930 . S
C462 C460 1.419 . S
C462 C463 1.362 . S
C463 H453 0.930 . S
C463 C456 1.409 . S
C463 C462 1.362 . S
H464 C470 0.930 . S
H465 C473 0.930 . S
H466 C474 0.930 . S
H467 C475 0.930 . S
H468 C478 0.930 . S
H469 C479 0.930 . S
C470 H464 0.930 . S
C470 C471 1.355 . S
C470 C472 1.415 . S
C471 C470 1.355 . S
C471 C473 1.419 . S
C472 C470 1.415 . S
C472 C477 1.425 1_556 S
C472 C479 1.409 1_556 S
C473 H465 0.930 . S
C473 C471 1.419 . S
C473 C474 1.362 . S
C474 H466 0.930 . S
C474 C473 1.362 . S
C474 C477 1.409 1_556 S
C475 H467 0.930 . S
C475 C476 1.355 . S
C475 C477 1.415 . S
C476 C475 1.355 . S
C476 C478 1.419 . S
C477 C472 1.425 1_554 S
C477 C474 1.409 1_554 S
C477 C475 1.415 . S
C478 H468 0.930 . S
C478 C476 1.419 . S
C478 C479 1.362 . S
C479 H469 0.930 . S
C479 C472 1.409 1_554 S
C479 C478 1.362 . S
H480 C486 0.930 . S
H481 C489 0.930 . S
H482 C490 0.930 . S
H483 C491 0.930 . S
H484 C494 0.930 . S
H485 C495 0.930 . S
C486 H480 0.930 . S
C486 C487 1.355 . S
C486 C488 1.415 . S
C487 C486 1.355 . S
C487 C489 1.419 . S
C488 C486 1.415 . S
C488 C493 1.425 1_556 S
C488 C495 1.409 1_556 S
C489 H481 0.930 . S
C489 C487 1.419 . S
C489 C490 1.362 . S
C490 H482 0.930 . S
C490 C489 1.362 . S
C490 C493 1.409 1_556 S
C491 H483 0.930 . S
C491 C492 1.355 . S
C491 C493 1.415 . S
C492 C491 1.355 . S
C492 C494 1.419 . S
C493 C488 1.425 1_554 S
C493 C490 1.409 1_554 S
C493 C491 1.415 . S
C494 H484 0.930 . S
C494 C492 1.419 . S
C494 C495 1.362 . S
C495 H485 0.930 . S
C495 C488 1.409 1_554 S
C495 C494 1.362 . S
H496 C502 0.930 . S
H497 C505 0.930 . S
H498 C506 0.930 . S
H499 C507 0.930 . S
H500 C510 0.930 . S
H501 C511 0.930 . S
C502 H496 0.930 . S
C502 C503 1.355 . S
C502 C504 1.415 . S
C503 C502 1.355 . S
C503 C505 1.419 . S
C504 C502 1.415 . S
C504 C509 1.425 . S
C504 C511 1.409 . S
C505 H497 0.930 . S
C505 C503 1.419 . S
C505 C506 1.362 . S
C506 H498 0.930 . S
C506 C505 1.362 . S
C506 C509 1.409 . S
C507 H499 0.930 . S
C507 C508 1.355 . S
C507 C509 1.415 . S
C508 C507 1.355 . S
C508 C510 1.419 . S
C509 C504 1.425 . S
C509 C506 1.409 . S
C509 C507 1.415 . S
C510 H500 0.930 . S
C510 C508 1.419 . S
C510 C511 1.362 . S
C511 H501 0.930 . S
C511 C504 1.409 . S
C511 C510 1.362 . S
H512 C518 0.930 . S
H513 C521 0.930 . S
H514 C522 0.930 . S
H515 C523 0.930 . S
H516 C526 0.930 . S
H517 C527 0.930 . S
C518 H512 0.930 . S
C518 C519 1.355 . S
C518 C520 1.415 . S
C519 C518 1.355 . S
C519 C521 1.419 . S
C520 C518 1.415 . S
C520 C525 1.425 . S
C520 C527 1.409 . S
C521 H513 0.930 . S
C521 C519 1.419 . S
C521 C522 1.362 . S
C522 H514 0.930 . S
C522 C521 1.362 . S
C522 C525 1.409 . S
C523 H515 0.930 . S
C523 C524 1.355 . S
C523 C525 1.415 . S
C524 C523 1.355 . S
C524 C526 1.419 . S
C525 C520 1.425 . S
C525 C522 1.409 . S
C525 C523 1.415 . S
C526 H516 0.930 . S
C526 C524 1.419 . S
C526 C527 1.362 . S
C527 H517 0.930 . S
C527 C520 1.409 . S
C527 C526 1.362 . S
H528 C534 0.930 . S
H529 C537 0.930 . S
H530 C538 0.930 . S
H531 C539 0.930 . S
H532 C542 0.930 . S
H533 C543 0.930 . S
C534 H528 0.930 . S
C534 C535 1.355 . S
C534 C536 1.415 . S
C535 C534 1.355 . S
C535 C537 1.419 . S
C536 C534 1.415 . S
C536 C541 1.425 . S
C536 C543 1.409 . S
C537 H529 0.930 . S
C537 C535 1.419 . S
C537 C538 1.362 . S
C538 H530 0.930 . S
C538 C537 1.362 . S
C538 C541 1.409 . S
C539 H531 0.930 . S
C539 C540 1.355 . S
C539 C541 1.415 . S
C540 C539 1.355 . S
C540 C542 1.419 . S
C541 C536 1.425 . S
C541 C538 1.409 . S
C541 C539 1.415 . S
C542 H532 0.930 . S
C542 C540 1.419 . S
C542 C543 1.362 . S
C543 H533 0.930 . S
C543 C536 1.409 . S
C543 C542 1.362 . S
H544 C550 0.930 . S
H545 C553 0.930 . S
H546 C554 0.930 . S
H547 C555 0.930 . S
H548 C558 0.930 . S
H549 C559 0.930 . S
C550 H544 0.930 . S
C550 C551 1.355 . S
C550 C552 1.415 . S
C551 C550 1.355 . S
C551 C553 1.419 . S
C552 C550 1.415 . S
C552 C557 1.425 . S
C552 C559 1.409 . S
C553 H545 0.930 . S
C553 C551 1.419 . S
C553 C554 1.362 . S
C554 H546 0.930 . S
C554 C553 1.362 . S
C554 C557 1.409 . S
C555 H547 0.930 . S
C555 C556 1.355 . S
C555 C557 1.415 . S
C556 C555 1.355 . S
C556 C558 1.419 . S
C557 C552 1.425 . S
C557 C554 1.409 . S
C557 C555 1.415 . S
C558 H548 0.930 . S
C558 C556 1.419 . S
C558 C559 1.362 . S
C559 H549 0.930 . S
C559 C552 1.409 . S
C559 C558 1.362 . S
C183 C76 1.406 . S
C188 C21 1.424 . S
C199 C52 1.333 . S
C204 C37 1.446 . S
C215 C51 1.455 . S
C220 C30 1.347 . S
C231 C87 1.445 . S
C236 C18 1.429 . S
C247 C164 1.329 . S
C252 C103 1.446 . S
C263 C125 1.443 . S
C268 C140 1.325 . S
C279 C118 1.372 . S
C284 C139 1.446 . S
C295 C96 1.428 . S
C300 C175 1.446 . S
C311 C7 1.266 . S
C316 C65 1.261 . S
C327 C81 1.166 . S
C332 C43 1.180 . S
C343 C109 1.186 . S
C348 C153 1.176 . S
C359 C169 1.233 . S
C364 C131 1.238 . S
C375 C29 1.067 . S
C380 C15 1.057 . S
C391 C59 1.072 . S
C396 C73 1.100 . S
C407 C117 1.064 . S
C412 C95 1.059 . S
C423 C161 1.079 . S
C428 C147 1.063 . S
C439 C8 1.425 . S
C444 C32 1.428 . S
C455 C62 1.426 . S
C460 C74 1.426 . S
C471 C98 1.387 . S
C476 C120 1.380 . S
C487 C162 1.399 . S
C492 C150 1.399 . S
C503 C10 1.638 . S
C508 C142 1.656 . S
C519 C40 1.716 . S
C524 C172 1.729 . S
C535 C106 1.717 . S
C540 C54 1.729 . S
C551 C128 1.717 . S
C556 C84 1.730 . S
