# Generated by pormake.
# Topology bcs, (6)-cn, num edge types: 1
# Building blocks:
#     Node 0, Type 0, BuildingBlock: GEDQOX_clean_sbu_0, # of connection points: 6
#     Node 1, Type 0, BuildingBlock: GEDQOX_clean_sbu_0, # of connection points: 6
#     Node 2, Type 0, BuildingBlock: GEDQOX_clean_sbu_0, # of connection points: 6
#     Node 3, Type 0, BuildingBlock: GEDQOX_clean_sbu_0, # of connection points: 6
#     Node 4, Type 0, BuildingBlock: GEDQOX_clean_sbu_0, # of connection points: 6
#     Node 5, Type 0, BuildingBlock: GEDQOX_clean_sbu_0, # of connection points: 6
#     Node 6, Type 0, BuildingBlock: GEDQOX_clean_sbu_0, # of connection points: 6
#     Node 7, Type 0, BuildingBlock: GEDQOX_clean_sbu_0, # of connection points: 6
#     Node 8, Type 0, BuildingBlock: GEDQOX_clean_sbu_0, # of connection points: 6
#     Node 9, Type 0, BuildingBlock: GEDQOX_clean_sbu_0, # of connection points: 6
#     Node 10, Type 0, BuildingBlock: GEDQOX_clean_sbu_0, # of connection points: 6
#     Node 11, Type 0, BuildingBlock: GEDQOX_clean_sbu_0, # of connection points: 6
#     Node 12, Type 0, BuildingBlock: GEDQOX_clean_sbu_0, # of connection points: 6
#     Node 13, Type 0, BuildingBlock: GEDQOX_clean_sbu_0, # of connection points: 6
#     Node 14, Type 0, BuildingBlock: GEDQOX_clean_sbu_0, # of connection points: 6
#     Node 15, Type 0, BuildingBlock: GEDQOX_clean_sbu_0, # of connection points: 6
#     Edge 16, Type (0, 0), BuildingBlock: MIFKUJ_clean_linker_0, # of connection points: 2
#     Edge 17, Type (0, 0), BuildingBlock: MIFKUJ_clean_linker_0, # of connection points: 2
#     Edge 18, Type (0, 0), BuildingBlock: MIFKUJ_clean_linker_0, # of connection points: 2
#     Edge 19, Type (0, 0), BuildingBlock: MIFKUJ_clean_linker_0, # of connection points: 2
#     Edge 20, Type (0, 0), BuildingBlock: MIFKUJ_clean_linker_0, # of connection points: 2
#     Edge 21, Type (0, 0), BuildingBlock: MIFKUJ_clean_linker_0, # of connection points: 2
#     Edge 22, Type (0, 0), BuildingBlock: MIFKUJ_clean_linker_0, # of connection points: 2
#     Edge 23, Type (0, 0), BuildingBlock: MIFKUJ_clean_linker_0, # of connection points: 2
#     Edge 24, Type (0, 0), BuildingBlock: MIFKUJ_clean_linker_0, # of connection points: 2
#     Edge 25, Type (0, 0), BuildingBlock: MIFKUJ_clean_linker_0, # of connection points: 2
#     Edge 26, Type (0, 0), BuildingBlock: MIFKUJ_clean_linker_0, # of connection points: 2
#     Edge 27, Type (0, 0), BuildingBlock: MIFKUJ_clean_linker_0, # of connection points: 2
#     Edge 28, Type (0, 0), BuildingBlock: MIFKUJ_clean_linker_0, # of connection points: 2
#     Edge 29, Type (0, 0), BuildingBlock: MIFKUJ_clean_linker_0, # of connection points: 2
#     Edge 30, Type (0, 0), BuildingBlock: MIFKUJ_clean_linker_0, # of connection points: 2
#     Edge 31, Type (0, 0), BuildingBlock: MIFKUJ_clean_linker_0, # of connection points: 2
#     Edge 32, Type (0, 0), BuildingBlock: MIFKUJ_clean_linker_0, # of connection points: 2
#     Edge 33, Type (0, 0), BuildingBlock: MIFKUJ_clean_linker_0, # of connection points: 2
#     Edge 34, Type (0, 0), BuildingBlock: MIFKUJ_clean_linker_0, # of connection points: 2
#     Edge 35, Type (0, 0), BuildingBlock: MIFKUJ_clean_linker_0, # of connection points: 2
#     Edge 36, Type (0, 0), BuildingBlock: MIFKUJ_clean_linker_0, # of connection points: 2
#     Edge 37, Type (0, 0), BuildingBlock: MIFKUJ_clean_linker_0, # of connection points: 2
#     Edge 38, Type (0, 0), BuildingBlock: MIFKUJ_clean_linker_0, # of connection points: 2
#     Edge 39, Type (0, 0), BuildingBlock: MIFKUJ_clean_linker_0, # of connection points: 2
#     Edge 40, Type (0, 0), BuildingBlock: MIFKUJ_clean_linker_0, # of connection points: 2
#     Edge 41, Type (0, 0), BuildingBlock: MIFKUJ_clean_linker_0, # of connection points: 2
#     Edge 42, Type (0, 0), BuildingBlock: MIFKUJ_clean_linker_0, # of connection points: 2
#     Edge 43, Type (0, 0), BuildingBlock: MIFKUJ_clean_linker_0, # of connection points: 2
#     Edge 44, Type (0, 0), BuildingBlock: MIFKUJ_clean_linker_0, # of connection points: 2
#     Edge 45, Type (0, 0), BuildingBlock: MIFKUJ_clean_linker_0, # of connection points: 2
#     Edge 46, Type (0, 0), BuildingBlock: MIFKUJ_clean_linker_0, # of connection points: 2
#     Edge 47, Type (0, 0), BuildingBlock: MIFKUJ_clean_linker_0, # of connection points: 2
#     Edge 48, Type (0, 0), BuildingBlock: MIFKUJ_clean_linker_0, # of connection points: 2
#     Edge 49, Type (0, 0), BuildingBlock: MIFKUJ_clean_linker_0, # of connection points: 2
#     Edge 50, Type (0, 0), BuildingBlock: MIFKUJ_clean_linker_0, # of connection points: 2
#     Edge 51, Type (0, 0), BuildingBlock: MIFKUJ_clean_linker_0, # of connection points: 2
#     Edge 52, Type (0, 0), BuildingBlock: MIFKUJ_clean_linker_0, # of connection points: 2
#     Edge 53, Type (0, 0), BuildingBlock: MIFKUJ_clean_linker_0, # of connection points: 2
#     Edge 54, Type (0, 0), BuildingBlock: MIFKUJ_clean_linker_0, # of connection points: 2
#     Edge 55, Type (0, 0), BuildingBlock: MIFKUJ_clean_linker_0, # of connection points: 2
#     Edge 56, Type (0, 0), BuildingBlock: MIFKUJ_clean_linker_0, # of connection points: 2
#     Edge 57, Type (0, 0), BuildingBlock: MIFKUJ_clean_linker_0, # of connection points: 2
#     Edge 58, Type (0, 0), BuildingBlock: MIFKUJ_clean_linker_0, # of connection points: 2
#     Edge 59, Type (0, 0), BuildingBlock: MIFKUJ_clean_linker_0, # of connection points: 2
#     Edge 60, Type (0, 0), BuildingBlock: MIFKUJ_clean_linker_0, # of connection points: 2
#     Edge 61, Type (0, 0), BuildingBlock: MIFKUJ_clean_linker_0, # of connection points: 2
#     Edge 62, Type (0, 0), BuildingBlock: MIFKUJ_clean_linker_0, # of connection points: 2
#     Edge 63, Type (0, 0), BuildingBlock: MIFKUJ_clean_linker_0, # of connection points: 2
# Relax obj value: 0.327
# Max RMSD: 0.303
# Mean RMSD: 0.221
data_MOF--net-bcs--node1-GEDQOX_clean_sbu_0--edge1-MIFKUJ_clean_linker_0
_symmetry_space_group_name_H-M    P1
_symmetry_Int_Tables_number       1
_symmetry_cell_setting            triclinic
loop_
_symmetry_equiv_pos_as_xyz
'x, y, z'
_cell_length_a     52.069787
_cell_length_b     53.270858
_cell_length_c     50.806959
_cell_angle_alpha  114.50114
_cell_angle_beta   92.575321
_cell_angle_gamma 95.293174
loop_
_atom_site_label
_atom_site_type_symbol
_atom_site_fract_x
_atom_site_fract_y
_atom_site_fract_z
_atom_type_partial_charge
Nd0 Nd 0.03908 1.01276 0.02981 0.0
Nd1 Nd 1.00154 1.01455 0.97652 0.0
C2 C 0.07741 1.01222 0.06652 0.0
C3 C 0.08836 0.99287 0.07799 0.0
C4 C 0.10406 0.97271 0.06164 0.0
C5 C 0.11581 0.95618 0.07329 0.0
C6 C 0.11246 0.95908 0.10184 0.0
C7 C 0.09649 0.97908 0.11803 0.0
C8 C 0.08477 0.99565 0.10638 0.0
C9 C 0.99501 0.97403 0.01625 0.0
C10 C 0.04774 0.97336 0.96078 0.0
C11 C 0.96285 1.01345 0.93934 0.0
C12 C 0.95056 0.03239 0.92838 0.0
C13 C 0.92359 0.03318 0.92802 0.0
C14 C 0.91134 0.0496 0.91663 0.0
C15 C 0.92556 0.06594 0.90503 0.0
C16 C 0.95269 0.06523 0.90561 0.0
C17 C 0.96494 0.04881 0.91707 0.0
C18 C 0.04537 0.05325 0.9899 0.0
C19 C 0.99524 0.05722 0.04534 0.0
O20 O 0.07997 1.00757 0.03941 0.0
O21 O 0.05524 0.02131 0.07481 0.0
O22 O 1.01379 0.97773 0.03539 0.0
O23 O 1.00079 0.98978 1.00374 0.0
O24 O 0.05743 0.98685 0.98822 0.0
O25 O 1.02448 0.97696 0.95162 0.0
O26 O 0.9598 1.01683 0.96603 0.0
O27 O 0.9859 1.00677 0.93182 0.0
O28 O 0.02661 0.04942 0.97064 0.0
O29 O 0.03989 0.03744 1.00245 0.0
O30 O 0.98532 0.04419 0.01792 0.0
O31 O 1.01731 0.05135 0.05477 0.0
H32 H 0.10758 0.96982 0.03978 0.0
H33 H 0.12751 0.94096 0.05968 0.0
H34 H 0.09348 0.98257 0.14016 0.0
H35 H 0.07318 1.01108 0.11993 0.0
H36 H 0.91178 0.0207 0.93625 0.0
H37 H 0.89049 0.04891 0.91638 0.0
H38 H 0.96464 0.0776 0.8974 0.0
H39 H 0.98574 0.0489 0.91694 0.0
Nd40 Nd 0.24671 0.75765 0.26761 0.0
Nd41 Nd 0.28914 0.75757 0.23007 0.0
C42 C 0.21154 0.76225 0.30439 0.0
C43 C 0.20398 0.74221 0.31648 0.0
C44 C 0.17778 0.73492 0.31819 0.0
C45 C 0.16996 0.71066 0.32156 0.0
C46 C 0.18819 0.69298 0.32256 0.0
C47 C 0.21461 0.7016 0.32304 0.0
C48 C 0.22238 0.72606 0.32029 0.0
C49 C 0.24377 0.7112 0.21647 0.0
C50 C 0.29566 0.72501 0.27324 0.0
C51 C 0.32119 0.74849 0.18948 0.0
C52 C 0.3188 0.75596 0.16481 0.0
C53 C 0.29406 0.75701 0.15326 0.0
C54 C 0.29118 0.77154 0.13618 0.0
C55 C 0.313 0.7852 0.13034 0.0
C56 C 0.33785 0.78203 0.13975 0.0
C57 C 0.34071 0.76758 0.15699 0.0
C58 C 0.29322 0.80341 0.28231 0.0
C59 C 0.24167 0.7917 0.22592 0.0
O60 O 0.23501 0.77552 0.31261 0.0
O61 O 0.20572 0.75266 0.27637 0.0
O62 O 0.23865 0.71046 0.24087 0.0
O63 O 0.24907 0.73575 0.21938 0.0
O64 O 0.2752 0.73631 0.28543 0.0
O65 O 0.30373 0.72851 0.25041 0.0
O66 O 0.30364 0.72914 0.18922 0.0
O67 O 0.32535 0.76983 0.21479 0.0
O68 O 0.29775 0.80455 0.25791 0.0
O69 O 0.28731 0.77868 0.27849 0.0
O70 O 0.25991 0.77747 0.21151 0.0
O71 O 0.23547 0.79037 0.25047 0.0
H72 H 0.16326 0.74703 0.31517 0.0
H73 H 0.1495 0.70516 0.32204 0.0
H74 H 0.22931 0.68866 0.32356 0.0
H75 H 0.24271 0.73124 0.31912 0.0
H76 H 0.2768 0.74841 0.15916 0.0
H77 H 0.27185 0.77353 0.12904 0.0
H78 H 0.35502 0.79263 0.13584 0.0
H79 H 0.3599 0.76732 0.166 0.0
Nd80 Nd 0.53188 0.0397 0.49537 0.0
Nd81 Nd 0.51746 1.00063 0.5251 0.0
C82 C 0.54781 0.07913 0.47908 0.0
C83 C 0.54578 0.10817 0.48449 0.0
C84 C 0.56681 0.12374 0.47986 0.0
C85 C 0.56392 0.14937 0.47937 0.0
C86 C 0.53974 0.15963 0.483 0.0
C87 C 0.51917 0.14471 0.4896 0.0
C88 C 0.52221 0.11928 0.49046 0.0
C89 C 0.49526 0.99554 0.46552 0.0
C90 C 0.49047 0.05919 0.54519 0.0
C91 C 0.49553 0.96811 0.54737 0.0
C92 C 0.50119 0.94698 0.55763 0.0
C93 C 0.51652 0.92605 0.54277 0.0
C94 C 0.52261 0.90724 0.55412 0.0
C95 C 0.5137 0.90932 0.58061 0.0
C96 C 0.49799 0.93001 0.59507 0.0
C97 C 0.49174 0.9486 0.58361 0.0
C98 C 0.56462 0.0319 0.54358 0.0
C99 C 0.55811 0.98202 0.47512 0.0
O100 O 0.56121 0.07433 0.49862 0.0
O101 O 0.52686 0.06153 0.46741 0.0
O102 O 0.51357 1.0033 0.45303 0.0
O103 O 0.4966 1.01081 0.49219 0.0
O104 O 0.50337 0.06551 0.52639 0.0
O105 O 0.49265 0.03591 0.54814 0.0
O106 O 0.49459 0.96121 0.51931 0.0
O107 O 0.50683 0.99335 0.56318 0.0
O108 O 0.56071 1.00656 0.5411 0.0
O109 O 0.54399 0.03999 0.53816 0.0
O110 O 0.53915 0.97266 0.48664 0.0
O111 O 0.56185 1.00852 0.47969 0.0
H112 H 0.58509 0.11538 0.47512 0.0
H113 H 0.58033 0.16053 0.47485 0.0
H114 H 0.50019 0.1517 0.49225 0.0
H115 H 0.5057 0.10759 0.49416 0.0
H116 H 0.52416 0.92455 0.52276 0.0
H117 H 0.53498 0.89165 0.54269 0.0
H118 H 0.49068 0.93192 0.61536 0.0
H119 H 0.47984 0.9646 0.59534 0.0
Nd120 Nd 0.27953 0.28776 0.74297 0.0
Nd121 Nd 0.26575 0.24711 0.77087 0.0
C122 C 0.28407 0.32085 0.71537 0.0
C123 C 0.30074 0.33194 0.69846 0.0
C124 C 0.29246 0.3529 0.69133 0.0
C125 C 0.30728 0.36387 0.67523 0.0
C126 C 0.33101 0.35426 0.66564 0.0
C127 C 0.33929 0.33312 0.67282 0.0
C128 C 0.32437 0.32214 0.68905 0.0
C129 C 0.31814 0.28599 0.78051 0.0
C130 C 0.30489 0.22961 0.71997 0.0
C131 C 0.25449 0.21769 0.80158 0.0
C132 C 0.23883 0.21168 0.82286 0.0
C133 C 0.2513 0.20649 0.84493 0.0
C134 C 0.23706 0.19609 0.86198 0.0
C135 C 0.20981 0.19032 0.85739 0.0
C136 C 0.19731 0.19647 0.83591 0.0
C137 C 0.21155 0.20694 0.81893 0.0
C138 C 0.23823 0.2354 0.71876 0.0
C139 C 0.23796 0.30483 0.79357 0.0
O140 O 0.2739 0.29471 0.70286 0.0
O141 O 0.29077 0.32927 0.74317 0.0
O142 O 0.32204 0.28867 0.7568 0.0
O143 O 0.29447 0.28588 0.78493 0.0
O144 O 0.29426 0.2472 0.71171 0.0
O145 O 0.30017 0.22866 0.74505 0.0
O146 O 0.27319 0.23841 0.81027 0.0
O147 O 0.2428 0.21289 0.77641 0.0
O148 O 0.24801 0.21698 0.72531 0.0
O149 O 0.24357 0.25922 0.73928 0.0
O150 O 0.24045 0.28121 0.79569 0.0
O151 O 0.25084 0.31201 0.77527 0.0
H152 H 0.27429 0.36079 0.69814 0.0
H153 H 0.2998 0.37965 0.6699 0.0
H154 H 0.3575 0.32526 0.66623 0.0
H155 H 0.33131 0.30603 0.69426 0.0
H156 H 0.27226 0.20943 0.84826 0.0
H157 H 0.24759 0.19148 0.87798 0.0
H158 H 0.1764 0.19289 0.8319 0.0
H159 H 0.20117 0.21051 0.80208 0.0
Nd160 Nd 1.00394 1.01333 0.52073 0.0
Nd161 Nd 0.04582 0.02598 0.48755 0.0
C162 C 0.96566 1.00729 0.55171 0.0
C163 C 0.95451 0.9891 0.56539 0.0
C164 C 0.96865 0.98474 0.58711 0.0
C165 C 0.95694 0.96914 0.60097 0.0
C166 C 0.93071 0.95745 0.59361 0.0
C167 C 0.91686 0.96146 0.57143 0.0
C168 C 0.92854 0.97707 0.55768 0.0
C169 C 1.01388 0.96764 0.47231 0.0
C170 C 0.05974 0.99645 0.53205 0.0
C171 C 0.08443 0.03196 0.45685 0.0
C172 C 0.09622 0.05037 0.44366 0.0
C173 C 0.08483 0.05077 0.41816 0.0
C174 C 0.09729 0.06669 0.40505 0.0
C175 C 0.12146 0.08282 0.41709 0.0
C176 C 0.13265 0.08256 0.44274 0.0
C177 C 0.12037 0.06642 0.4556 0.0
C178 C 0.03595 0.07143 0.53635 0.0
C179 C 0.99009 0.04368 0.47692 0.0
O180 O 0.98765 0.02306 0.56327 0.0
O181 O 0.96351 0.99722 0.52336 0.0
O182 O 1.0102 0.96769 0.49735 0.0
O183 O 1.01245 0.99157 0.47337 0.0
O184 O 0.03832 1.00471 0.5441 0.0
O185 O 0.0652 0.99903 0.50788 0.0
O186 O 0.06225 1.01664 0.44508 0.0
O187 O 0.08649 0.04154 0.48518 0.0
O188 O 0.03981 0.07177 0.51152 0.0
O189 O 0.03747 0.0474 0.53486 0.0
O190 O 1.01167 0.03587 0.46494 0.0
O191 O 0.98439 0.04027 0.50059 0.0
H192 H 0.98867 0.99374 0.59376 0.0
H193 H 0.96834 0.96691 0.61805 0.0
H194 H 0.89688 0.95245 0.56452 0.0
H195 H 0.91706 0.98 0.54108 0.0
H196 H 0.06639 0.03853 0.40807 0.0
H197 H 0.08788 0.06644 0.38548 0.0
H198 H 0.15136 0.09428 0.45253 0.0
H199 H 0.13006 0.06618 0.47479 0.0
Nd200 Nd 0.2658 0.776 0.72909 0.0
Nd201 Nd 0.28014 0.75593 0.77632 0.0
C202 C 0.25149 0.79967 0.69436 0.0
C203 C 0.2376 0.82036 0.688 0.0
C204 C 0.25084 0.83774 0.67712 0.0
C205 C 0.23743 0.85382 0.66632 0.0
C206 C 0.2102 0.85296 0.66579 0.0
C207 C 0.19709 0.83619 0.67764 0.0
C208 C 0.21052 0.82018 0.6885 0.0
C209 C 0.24266 0.72425 0.72045 0.0
C210 C 0.23579 0.79954 0.78942 0.0
C211 C 0.2869 0.73353 0.81399 0.0
C212 C 0.30572 0.72049 0.82626 0.0
C213 C 0.3149 0.69522 0.80898 0.0
C214 C 0.33057 0.68205 0.8215 0.0
C215 C 0.33754 0.69363 0.85175 0.0
C216 C 0.32869 0.7192 0.86884 0.0
C217 C 0.31304 0.73232 0.85633 0.0
C218 C 0.31549 0.79595 0.77295 0.0
C219 C 0.3095 0.73295 0.7164 0.0
O220 O 0.274 0.80698 0.7099 0.0
O221 O 0.23755 0.77949 0.69735 0.0
O222 O 0.25253 0.72992 0.7003 0.0
O223 O 0.24545 0.74547 0.74425 0.0
O224 O 0.2409 0.80167 0.76507 0.0
O225 O 0.24733 0.78253 0.79788 0.0
O226 O 0.27668 0.71942 0.7871 0.0
O227 O 0.29119 0.76034 0.82121 0.0
O228 O 0.32157 0.77507 0.77765 0.0
O229 O 0.2913 0.79602 0.77133 0.0
O230 O 0.29939 0.72645 0.73664 0.0
O231 O 0.30244 0.75433 0.71185 0.0
H232 H 0.2716 0.83824 0.67607 0.0
H233 H 0.24852 0.86675 0.65806 0.0
H234 H 0.17621 0.83449 0.67754 0.0
H235 H 0.19948 0.80687 0.69635 0.0
H236 H 0.30958 0.68525 0.78578 0.0
H237 H 0.33659 0.66232 0.80744 0.0
H238 H 0.33384 0.72923 0.89207 0.0
H239 H 0.30625 0.75164 0.87037 0.0
Nd240 Nd 0.53187 0.03802 0.98806 0.0
Nd241 Nd 0.53228 1.00713 0.02667 0.0
C242 C 0.52731 0.05719 0.94832 0.0
C243 C 0.54786 0.06207 0.93159 0.0
C244 C 0.54543 0.07942 0.9174 0.0
C245 C 0.56695 0.0877 0.90606 0.0
C246 C 0.59134 0.07924 0.9094 0.0
C247 C 0.59306 0.06046 0.92217 0.0
C248 C 0.57152 0.05185 0.93292 0.0
C249 C 0.57543 0.05264 0.02629 0.0
C250 C 0.56882 0.98856 0.97498 0.0
C251 C 0.528 0.99021 0.06825 0.0
C252 C 0.50336 0.98238 0.07748 0.0
C253 C 0.50029 0.98923 0.10683 0.0
C254 C 0.47588 0.98406 0.11539 0.0
C255 C 0.45427 0.97209 0.09466 0.0
C256 C 0.45759 0.96535 0.06533 0.0
C257 C 0.48177 0.97063 0.05688 0.0
C258 C 0.49996 0.98163 0.97633 0.0
C259 C 0.49438 0.05731 0.04149 0.0
O260 O 0.52053 0.03103 0.94281 0.0
O261 O 0.53071 0.07348 0.97621 0.0
O262 O 0.57567 0.0527 1.0009 0.0
O263 O 0.55277 0.04755 0.03159 0.0
O264 O 0.55204 0.99888 0.96292 0.0
O265 O 0.56884 0.99393 1.00287 0.0
O266 O 0.5326 1.01644 0.07359 0.0
O267 O 0.5329 0.97385 0.04205 0.0
O268 O 0.51374 0.96835 0.98681 0.0
O269 O 0.50256 1.00709 0.99277 0.0
O270 O 0.50253 0.03756 0.04796 0.0
O271 O 0.50217 0.06148 0.019 0.0
H272 H 0.52725 0.08741 0.91612 0.0
H273 H 0.56468 0.10158 0.89569 0.0
H274 H 0.61137 0.05369 0.92563 0.0
H275 H 0.57374 0.03833 0.94374 0.0
H276 H 0.5166 0.99893 0.1231 0.0
H277 H 0.47387 0.9897 0.1382 0.0
H278 H 0.44154 0.95562 0.04871 0.0
H279 H 0.48349 0.96574 0.03415 0.0
Nd280 Nd 0.29988 0.28611 0.28088 0.0
Nd281 Nd 0.25971 0.25254 0.23548 0.0
C282 C 0.34345 0.3153 0.31178 0.0
C283 C 0.36775 0.3088 0.32176 0.0
C284 C 0.38798 0.33004 0.33671 0.0
C285 C 0.41043 0.32418 0.34814 0.0
C286 C 0.41291 0.29694 0.34476 0.0
C287 C 0.39275 0.27561 0.32895 0.0
C288 C 0.37043 0.28149 0.3175 0.0
C289 C 0.26917 0.24991 0.29629 0.0
C290 C 0.31415 0.22815 0.22734 0.0
C291 C 0.21612 0.22389 0.20459 0.0
C292 C 0.18937 0.23008 0.20263 0.0
C293 C 0.17772 0.24614 0.2276 0.0
C294 C 0.15433 0.25619 0.22502 0.0
C295 C 0.14234 0.25056 0.19745 0.0
C296 C 0.15324 0.23286 0.17259 0.0
C297 C 0.17652 0.2227 0.17519 0.0
C298 C 0.29138 0.28827 0.22045 0.0
C299 C 0.24534 0.31048 0.28783 0.0
O300 O 0.33927 0.30754 0.28381 0.0
O301 O 0.32291 0.30986 0.32323 0.0
O302 O 0.27808 0.27522 0.31375 0.0
O303 O 0.27755 0.24363 0.27155 0.0
O304 O 0.32292 0.25215 0.2493 0.0
O305 O 0.28913 0.22134 0.21946 0.0
O306 O 0.22466 0.22276 0.22861 0.0
O307 O 0.23305 0.2373 0.19538 0.0
O308 O 0.2835 0.26253 0.20332 0.0
O309 O 0.28213 0.29491 0.24482 0.0
O310 O 0.23652 0.28547 0.26777 0.0
O311 O 0.27051 0.31795 0.29414 0.0
H312 H 0.38621 0.35124 0.34003 0.0
H313 H 0.42567 0.341 0.35995 0.0
H314 H 0.39373 0.25451 0.32639 0.0
H315 H 0.35492 0.26485 0.30601 0.0
H316 H 0.18725 0.25204 0.24907 0.0
H317 H 0.14627 0.26942 0.2446 0.0
H318 H 0.14483 0.22837 0.151 0.0
H319 H 0.18526 0.2104 0.1557 0.0
Nd320 Nd 0.50112 0.51367 0.01885 0.0
Nd321 Nd 0.54536 0.52555 0.98802 0.0
C322 C 0.46587 0.50073 0.04931 0.0
C323 C 0.45849 0.48807 0.06967 0.0
C324 C 0.46678 0.46278 0.06707 0.0
C325 C 0.45577 0.44837 0.08243 0.0
C326 C 0.43603 0.4587 0.10081 0.0
C327 C 0.42856 0.48459 0.10418 0.0
C328 C 0.43959 0.49899 0.08882 0.0
C329 C 0.49937 0.47875 0.96075 0.0
C330 C 0.55673 0.49208 0.02873 0.0
C331 C 0.58348 0.53013 0.95628 0.0
C332 C 0.59548 0.54783 0.94258 0.0
C333 C 0.60844 0.53543 0.91754 0.0
C334 C 0.62133 0.55152 0.90499 0.0
C335 C 0.62171 0.58066 0.91708 0.0
C336 C 0.60819 0.59303 0.94192 0.0
C337 C 0.59532 0.57685 0.95455 0.0
C338 C 0.53614 0.57073 0.03725 0.0
C339 C 0.49034 0.54792 0.98037 0.0
O340 O 0.47905 0.52553 0.05874 0.0
O341 O 0.47155 0.4839 0.0237 0.0
O342 O 0.48019 0.49116 0.97334 0.0
O343 O 0.51932 0.48598 0.97843 0.0
O344 O 0.53295 0.49566 0.03642 0.0
O345 O 0.56585 0.50063 0.00947 0.0
O346 O 0.56077 0.51583 0.94495 0.0
O347 O 0.58603 0.53996 0.98467 0.0
O348 O 0.54086 0.57148 0.01281 0.0
O349 O 0.53622 0.54631 0.03528 0.0
O350 O 0.51029 0.53652 0.96671 0.0
O351 O 0.48501 0.54614 1.00493 0.0
H352 H 0.48116 0.45361 0.05235 0.0
H353 H 0.46252 0.42884 0.07949 0.0
H354 H 0.4133 0.49327 0.11772 0.0
H355 H 0.43244 0.51813 0.09093 0.0
H356 H 0.60889 0.51314 0.90777 0.0
H357 H 0.63097 0.54098 0.88564 0.0
H358 H 0.60808 0.61534 0.95212 0.0
H359 H 0.58554 0.58708 0.97388 0.0
Nd360 Nd 0.76506 0.2748 0.22876 0.0
Nd361 Nd 0.77928 0.25452 0.27646 0.0
C362 C 0.75083 0.29763 0.19328 0.0
C363 C 0.73749 0.31661 0.18376 0.0
C364 C 0.72522 0.33883 0.2026 0.0
C365 C 0.7115 0.35489 0.19183 0.0
C366 C 0.70956 0.34908 0.16189 0.0
C367 C 0.72195 0.32668 0.14334 0.0
C368 C 0.73565 0.31087 0.1541 0.0
C369 C 0.74854 0.22063 0.2166 0.0
C370 C 0.73237 0.29515 0.28754 0.0
C371 C 0.7845 0.22977 0.31227 0.0
C372 C 0.80195 0.21487 0.32358 0.0
C373 C 0.79103 0.1932 0.33006 0.0
C374 C 0.80646 0.17962 0.34219 0.0
C375 C 0.83348 0.1873 0.34846 0.0
C376 C 0.84447 0.20879 0.34142 0.0
C377 C 0.82895 0.22232 0.32913 0.0
C378 C 0.81262 0.29735 0.27601 0.0
C379 C 0.81261 0.23625 0.21916 0.0
O380 O 0.77248 0.30641 0.21047 0.0
O381 O 0.73681 0.27739 0.1961 0.0
O382 O 0.75778 0.22862 0.19773 0.0
O383 O 0.74736 0.24082 0.24065 0.0
O384 O 0.73609 0.29565 0.26212 0.0
O385 O 0.74636 0.28104 0.29793 0.0
O386 O 0.77408 0.21678 0.28537 0.0
O387 O 0.79041 0.25654 0.32023 0.0
O388 O 0.81977 0.2769 0.28095 0.0
O389 O 0.78825 0.29552 0.27264 0.0
O390 O 0.80307 0.22894 0.23911 0.0
O391 O 0.80377 0.25657 0.21385 0.0
H392 H 0.72605 0.34364 0.22556 0.0
H393 H 0.70256 0.37198 0.20709 0.0
H394 H 0.72062 0.32076 0.12017 0.0
H395 H 0.74454 0.29363 0.13894 0.0
H396 H 0.77033 0.18684 0.32595 0.0
H397 H 0.79706 0.16288 0.34646 0.0
H398 H 0.86506 0.21566 0.34593 0.0
H399 H 0.83803 0.23873 0.32416 0.0
Nd400 Nd 1.01642 0.52382 0.48163 0.0
Nd401 Nd 0.03777 0.50987 0.5304 0.0
C402 C 1.00178 0.51889 0.42945 0.0
C403 C 1.01751 0.51043 0.40465 0.0
C404 C 1.00635 0.49943 0.37591 0.0
C405 C 1.02221 0.49212 0.35293 0.0
C406 C 0.04936 0.49553 0.3585 0.0
C407 C 0.06016 0.50531 0.38737 0.0
C408 C 0.04444 0.51272 0.4101 0.0
C409 C 0.05572 0.56099 0.51876 0.0
C410 C 0.06425 0.48322 0.47086 0.0
C411 C 0.05552 0.51291 0.58121 0.0
C412 C 0.04326 0.51808 0.60818 0.0
C413 C 1.02473 0.53683 0.61708 0.0
C414 C 1.00802 0.53611 0.63755 0.0
C415 C 1.00988 0.51686 0.64961 0.0
C416 C 0.03029 0.50034 0.64307 0.0
C417 C 0.0468 0.50085 0.62234 0.0
C418 C 0.99746 0.47357 0.49392 0.0
C419 C 0.98959 0.55076 0.54108 0.0
O420 O 0.99522 0.49946 0.43817 0.0
O421 O 1.01025 0.54291 0.45095 0.0
O422 O 0.03598 0.56858 0.50862 0.0
O423 O 0.05448 0.53499 0.50816 0.0
O424 O 0.04379 0.48978 0.45965 0.0
O425 O 0.06884 0.4923 0.49929 0.0
O426 O 0.05877 0.53381 0.57396 0.0
O427 O 0.04668 0.4894 0.5592 0.0
O428 O 1.01736 0.46522 0.50291 0.0
O429 O 0.9994 0.49953 0.50457 0.0
O430 O 1.0085 0.5419 0.5523 0.0
O431 O 0.98621 0.54376 0.51281 0.0
H432 H 0.98556 0.49702 0.37124 0.0
H433 H 1.01332 0.4846 0.33092 0.0
H434 H 0.08093 0.50892 0.39273 0.0
H435 H 0.05349 0.5211 0.43212 0.0
H436 H 1.02193 0.55067 0.6068 0.0
H437 H 0.99253 0.54916 0.64242 0.0
H438 H 0.032 0.48514 0.65188 0.0
H439 H 0.06101 0.48628 0.61579 0.0
Nd440 Nd 0.77743 0.78915 0.24435 0.0
Nd441 Nd 0.76731 0.74813 0.27159 0.0
C442 C 0.78485 0.8159 0.21033 0.0
C443 C 0.80261 0.8246 0.19228 0.0
C444 C 0.79479 0.8174 0.16291 0.0
C445 C 0.80931 0.82826 0.14645 0.0
C446 C 0.83217 0.84687 0.15879 0.0
C447 C 0.84035 0.85347 0.18804 0.0
C448 C 0.82579 0.8426 0.20452 0.0
C449 C 0.80933 0.80068 0.29366 0.0
C450 C 0.80866 0.73327 0.22324 0.0
C451 C 0.75976 0.72091 0.30515 0.0
C452 C 0.74116 0.71008 0.32095 0.0
C453 C 0.73546 0.72675 0.34939 0.0
C454 C 0.72051 0.71532 0.36516 0.0
C455 C 0.71096 0.68677 0.35315 0.0
C456 C 0.71631 0.67032 0.32449 0.0
C457 C 0.73116 0.68173 0.30875 0.0
C458 C 0.73515 0.73695 0.22249 0.0
C459 C 0.73636 0.80441 0.29313 0.0
O460 O 0.77439 0.78998 0.20051 0.0
O461 O 0.78988 0.82744 0.23857 0.0
O462 O 0.79956 0.81932 0.28752 0.0
O463 O 0.80277 0.7768 0.27364 0.0
O464 O 0.79909 0.75209 0.21616 0.0
O465 O 0.80244 0.73062 0.24704 0.0
O466 O 0.76757 0.74761 0.31545 0.0
O467 O 0.75761 0.70893 0.27675 0.0
O468 O 0.74484 0.71816 0.22841 0.0
O469 O 0.74192 0.76067 0.24264 0.0
O470 O 0.74532 0.78497 0.29966 0.0
O471 O 0.74307 0.80772 0.26981 0.0
H472 H 0.77697 0.80382 0.15279 0.0
H473 H 0.80243 0.8221 0.12396 0.0
H474 H 0.85761 0.86786 0.19864 0.0
H475 H 0.8324 0.84892 0.22712 0.0
H476 H 0.74309 0.74855 0.35981 0.0
H477 H 0.71717 0.72877 0.38719 0.0
H478 H 0.70908 0.64841 0.31409 0.0
H479 H 0.73533 0.66807 0.2871 0.0
Nd480 Nd 0.74989 0.27377 0.78186 0.0
Nd481 Nd 0.78752 0.2605 0.73455 0.0
C482 C 0.72977 0.29043 0.83205 0.0
C483 C 0.73932 0.29037 0.85961 0.0
C484 C 0.76544 0.28759 0.86459 0.0
C485 C 0.77307 0.27907 0.886 0.0
C486 C 0.75453 0.27258 0.90225 0.0
C487 C 0.72903 0.27875 0.89944 0.0
C488 C 0.72152 0.28752 0.87824 0.0
C489 C 0.73069 0.23274 0.72938 0.0
C490 C 0.79494 0.23314 0.78204 0.0
C491 C 0.81717 0.24578 0.69156 0.0
C492 C 0.82513 0.26247 0.67577 0.0
C493 C 0.80804 0.2798 0.67171 0.0
C494 C 0.81727 0.30167 0.66505 0.0
C495 C 0.84372 0.30653 0.66227 0.0
C496 C 0.86038 0.28771 0.66374 0.0
C497 C 0.85114 0.26586 0.6706 0.0
C498 C 0.79675 0.31266 0.77898 0.0
C499 C 0.74153 0.29834 0.73301 0.0
O500 O 0.74303 0.30758 0.82378 0.0
O501 O 0.72343 0.26563 0.81099 0.0
O502 O 0.71631 0.24983 0.74673 0.0
O503 O 0.75336 0.23593 0.74083 0.0
O504 O 0.77558 0.24647 0.79505 0.0
O505 O 0.80269 0.23466 0.75813 0.0
O506 O 0.79249 0.2365 0.68796 0.0
O507 O 0.82659 0.25659 0.71883 0.0
O508 O 0.79953 0.30764 0.75215 0.0
O509 O 0.79067 0.2905 0.78159 0.0
O510 O 0.75573 0.2791 0.71698 0.0
O511 O 0.73934 0.30327 0.76065 0.0
H512 H 0.77955 0.28971 0.8504 0.0
H513 H 0.79296 0.27515 0.88796 0.0
H514 H 0.71401 0.27385 0.91122 0.0
H515 H 0.70127 0.28947 0.87461 0.0
H516 H 0.7879 0.2778 0.67578 0.0
H517 H 0.80402 0.31575 0.66377 0.0
H518 H 0.88093 0.29117 0.66192 0.0
H519 H 0.86467 0.25299 0.67402 0.0
Nd520 Nd 0.80233 0.78489 0.7856 0.0
Nd521 Nd 0.76217 0.75906 0.73848 0.0
C522 C 0.83862 0.81709 0.82732 0.0
C523 C 0.86412 0.81398 0.83834 0.0
C524 C 0.88233 0.83739 0.85337 0.0
C525 C 0.906 0.83467 0.86554 0.0
C526 C 0.91171 0.80846 0.86296 0.0
C527 C 0.8935 0.785 0.84714 0.0
C528 C 0.87007 0.78772 0.83479 0.0
C529 C 0.77156 0.74172 0.7901 0.0
C530 C 0.81768 0.73206 0.73145 0.0
C531 C 0.72494 0.72748 0.69792 0.0
C532 C 0.69764 0.73009 0.69209 0.0
C533 C 0.68192 0.74136 0.71491 0.0
C534 C 0.65764 0.74841 0.7096 0.0
C535 C 0.64884 0.74471 0.68148 0.0
C536 C 0.66406 0.73187 0.65847 0.0
C537 C 0.6882 0.72459 0.66375 0.0
C538 C 0.79222 0.80272 0.7342 0.0
C539 C 0.74713 0.81205 0.79234 0.0
O540 O 0.83695 0.81678 0.80147 0.0
O541 O 0.81889 0.80251 0.83133 0.0
O542 O 0.79672 0.74514 0.7937 0.0
O543 O 0.76359 0.76026 0.78347 0.0
O544 O 0.82738 0.75474 0.75431 0.0
O545 O 0.79252 0.72745 0.72341 0.0
O546 O 0.73103 0.72343 0.72099 0.0
O547 O 0.74164 0.74566 0.69481 0.0
O548 O 0.76711 0.79863 0.73032 0.0
O549 O 0.80067 0.7843 0.74076 0.0
O550 O 0.73721 0.78893 0.77015 0.0
O551 O 0.77239 0.81692 0.79973 0.0
H552 H 0.87807 0.85781 0.85612 0.0
H553 H 0.91963 0.85312 0.87726 0.0
H554 H 0.89683 0.76456 0.84516 0.0
H555 H 0.85628 0.76936 0.82313 0.0
H556 H 0.68884 0.74592 0.73704 0.0
H557 H 0.64627 0.75786 0.72774 0.0
H558 H 0.65818 0.72908 0.63662 0.0
H559 H 0.70014 0.7161 0.64592 0.0
Nd560 Nd 0.54058 0.51369 0.53044 0.0
Nd561 Nd 0.50285 0.51514 0.47735 0.0
C562 C 0.57936 0.51436 0.56727 0.0
C563 C 0.59066 0.4954 0.57897 0.0
C564 C 0.61357 0.48383 0.56906 0.0
C565 C 0.62522 0.46744 0.58094 0.0
C566 C 0.61452 0.46201 0.60341 0.0
C567 C 0.59146 0.4735 0.61319 0.0
C568 C 0.5798 0.48988 0.60126 0.0
C569 C 0.49582 0.47668 0.51935 0.0
C570 C 0.54688 0.47081 0.46173 0.0
C571 C 0.46407 0.51362 0.44007 0.0
C572 C 0.45222 0.53215 0.42828 0.0
C573 C 0.42535 0.53356 0.42801 0.0
C574 C 0.41347 0.54959 0.41586 0.0
C575 C 0.42799 0.56489 0.40336 0.0
C576 C 0.45503 0.56361 0.40386 0.0
C577 C 0.46692 0.54757 0.4161 0.0
C578 C 0.54703 0.55298 0.48917 0.0
C579 C 0.49707 0.55853 0.54594 0.0
O580 O 0.58187 0.5095 0.54008 0.0
O581 O 0.55702 0.52304 0.57539 0.0
O582 O 0.51491 0.48032 0.53815 0.0
O583 O 0.50157 0.49151 0.50579 0.0
O584 O 0.55662 0.48353 0.4892 0.0
O585 O 0.52489 0.47681 0.45236 0.0
O586 O 0.46127 0.51821 0.46714 0.0
O587 O 0.48684 0.50605 0.43242 0.0
O588 O 0.528 0.54915 0.47022 0.0
O589 O 0.54172 0.53766 0.50231 0.0
O590 O 0.48717 0.54596 0.5185 0.0
O591 O 0.51886 0.5522 0.55534 0.0
H592 H 0.62284 0.48779 0.55226 0.0
H593 H 0.64307 0.45958 0.57287 0.0
H594 H 0.58216 0.46972 0.63005 0.0
H595 H 0.5623 0.49841 0.60976 0.0
H596 H 0.41333 0.52186 0.43693 0.0
H597 H 0.39266 0.54941 0.41572 0.0
H598 H 0.46719 0.5752 0.39498 0.0
H599 H 0.48766 0.54716 0.41587 0.0
Nd600 Nd 0.03254 0.54146 0.99531 0.0
Nd601 Nd 1.01877 0.50097 0.02327 0.0
C602 C 0.04899 0.58385 0.98353 0.0
C603 C 0.04091 0.6104 0.98543 0.0
C604 C 0.05453 0.63582 1.00514 0.0
C605 C 0.04812 0.66095 1.00561 0.0
C606 C 0.02804 0.66109 0.98622 0.0
C607 C 1.0143 0.63559 0.96674 0.0
C608 C 1.02059 0.61059 0.96639 0.0
C609 C 0.99321 0.49979 0.96582 0.0
C610 C 0.99082 0.5594 0.04446 0.0
C611 C 0.99852 0.46905 0.0471 0.0
C612 C 1.00555 0.44965 0.05925 0.0
C613 C 1.01981 0.42762 0.04444 0.0
C614 C 0.02709 0.41049 0.0575 0.0
C615 C 1.02048 0.41538 0.08562 0.0
C616 C 1.006 0.43725 0.10016 0.0
C617 C 0.99852 0.45412 0.08703 0.0
C618 C 0.06721 0.52961 0.03966 0.0
C619 C 0.05708 0.4828 0.97115 0.0
O620 O 0.05618 0.58237 0.00782 0.0
O621 O 0.03546 0.561 0.9647 0.0
O622 O 1.01003 0.50916 0.95295 0.0
O623 O 0.99665 0.5133 0.99288 0.0
O624 O 1.00252 0.5656 0.02493 0.0
O625 O 0.99435 0.53652 0.04779 0.0
O626 O 0.9978 0.46098 0.01884 0.0
O627 O 1.00842 0.49498 0.06203 0.0
O628 O 0.06239 0.50405 0.03609 0.0
O629 O 0.04684 0.53923 0.03633 0.0
O630 O 0.03801 0.47327 0.98242 0.0
O631 O 0.0616 0.50962 0.9772 0.0
H632 H 0.07041 0.63625 0.01992 0.0
H633 H 0.05899 0.68022 0.02101 0.0
H634 H 0.99913 0.63478 0.95102 0.0
H635 H 1.00982 0.59141 0.95069 0.0
H636 H 0.02562 0.4239 0.02305 0.0
H637 H 0.03844 0.39389 0.04594 0.0
H638 H 1.00043 0.44128 0.12171 0.0
H639 H 0.9875 0.471 0.09878 0.0
H640 H 0.21826 0.19927 0.91506 0.0
H641 H 0.19408 0.17698 0.94145 0.0
H642 H 0.14279 0.12857 0.8642 0.0
H643 H 0.16676 0.15083 0.83778 0.0
H644 H 0.11478 0.14424 0.90686 0.0
H645 H 0.19246 0.10111 0.89136 0.0
H646 H 0.23957 0.09885 0.89298 0.0
H647 H 0.24567 0.13982 0.98615 0.0
H648 H 0.19863 0.14265 0.98507 0.0
H649 H 0.09019 0.03398 0.96796 0.0
H650 H 0.12175 0.0583 0.9493 0.0
H651 H 0.08638 0.13346 0.99079 0.0
H652 H 0.05459 0.10896 0.00865 0.0
H653 H 0.15829 0.10241 0.965 0.0
H654 H 0.07973 0.16469 0.94576 0.0
H655 H 0.03208 0.161 0.93896 0.0
H656 H 0.02712 0.07214 0.90588 0.0
H657 H 0.07472 0.07527 0.91215 0.0
C658 C 0.20195 0.18374 0.90352 0.0
C659 C 0.19466 0.17704 0.87406 0.0
C660 C 0.18806 0.17088 0.91874 0.0
C661 C 0.16657 0.15062 0.90497 0.0
C662 C 0.15914 0.1441 0.87564 0.0
C663 C 0.17291 0.15703 0.86047 0.0
C664 C 0.15164 0.13647 0.92099 0.0
C665 C 0.12446 0.13527 0.91964 0.0
C666 C 0.1638 0.124 0.93737 0.0
C667 C 0.19207 0.12234 0.93811 0.0
C668 C 0.20389 0.10982 0.91219 0.0
C669 C 0.23057 0.10841 0.91301 0.0
C670 C 0.24562 0.11925 0.93965 0.0
C671 C 0.234 0.13147 0.96553 0.0
C672 C 0.20732 0.13297 0.96483 0.0
C673 C 0.09006 0.05607 0.97441 0.0
C674 C 0.07026 0.0697 0.99055 0.0
C675 C 0.10792 0.06994 0.96333 0.0
C676 C 0.10627 0.09771 0.96793 0.0
C677 C 0.08797 0.11196 0.98633 0.0
C678 C 0.07004 0.09806 0.99712 0.0
C679 C 0.12162 0.11088 0.95138 0.0
C680 C 0.14875 0.11171 0.95248 0.0
C681 C 0.1094 0.1224 0.93411 0.0
C682 C 0.08077 0.12027 0.92972 0.0
C683 C 0.06847 0.14437 0.93692 0.0
C684 C 0.04146 0.14237 0.93319 0.0
C685 C 0.02657 0.11636 0.92211 0.0
C686 C 0.03866 0.09228 0.91459 0.0
C687 C 0.06565 0.09416 0.91824 0.0
H688 H 1.00568 0.11488 0.9193 0.0
H689 H 0.26627 0.11813 0.94024 0.0
H690 H 0.16039 0.93931 0.09196 0.0
H691 H 0.18166 0.91171 0.11261 0.0
H692 H 0.11676 0.91162 0.16224 0.0
H693 H 0.09526 0.93915 0.14156 0.0
H694 H 0.15963 0.91935 0.19573 0.0
H695 H 0.12987 0.8527 0.09798 0.0
H696 H 0.12613 0.83458 0.04454 0.0
H697 H 0.20873 0.83596 0.04477 0.0
H698 H 0.213 0.85442 0.09824 0.0
H699 H 0.19661 0.81629 0.24153 0.0
H700 H 0.17464 0.84373 0.22096 0.0
H701 H 0.23457 0.83571 0.1631 0.0
H702 H 0.25583 0.80728 0.18269 0.0
H703 H 0.19401 0.83232 0.13364 0.0
H704 H 0.22566 0.89938 0.22903 0.0
H705 H 0.23212 0.91995 0.28253 0.0
H706 H 0.15005 0.9208 0.28726 0.0
H707 H 0.14308 0.89991 0.23375 0.0
C708 C 0.15031 0.93322 0.10695 0.0
C709 C 0.12573 0.94172 0.11468 0.0
C710 C 0.16266 0.91727 0.11891 0.0
C711 C 0.15092 0.90887 0.13894 0.0
C712 C 0.12654 0.91757 0.14695 0.0
C713 C 0.11418 0.93357 0.13504 0.0
C714 C 0.16399 0.89137 0.15166 0.0
C715 C 0.16678 0.9001 0.18201 0.0
C716 C 0.17434 0.86654 0.13428 0.0
C717 C 0.17176 0.85518 0.10213 0.0
C718 C 0.14724 0.84929 0.08664 0.0
C719 C 0.14503 0.83894 0.05634 0.0
C720 C 0.16718 0.83419 0.04127 0.0
C721 C 0.19159 0.83968 0.05646 0.0
C722 C 0.19392 0.85006 0.08676 0.0
C723 C 0.2052 0.82041 0.22449 0.0
C724 C 0.22822 0.80941 0.21403 0.0
C725 C 0.19263 0.83644 0.21274 0.0
C726 C 0.20289 0.84269 0.19053 0.0
C727 C 0.22587 0.83155 0.18007 0.0
C728 C 0.2382 0.81521 0.19148 0.0
C729 C 0.18972 0.86024 0.17785 0.0
C730 C 0.18689 0.85153 0.14746 0.0
C731 C 0.17974 0.88536 0.19523 0.0
C732 C 0.18383 0.8978 0.22738 0.0
C733 C 0.20898 0.90376 0.24148 0.0
C734 C 0.21273 0.91551 0.27181 0.0
C735 C 0.1915 0.9216 0.28829 0.0
C736 C 0.16647 0.91602 0.27447 0.0
C737 C 0.16261 0.90424 0.24414 0.0
H738 H 0.19445 0.93071 0.31176 0.0
H739 H 0.16542 0.82619 0.01782 0.0
H740 H 0.44613 0.99403 0.47953 0.0
H741 H 0.41008 0.95833 0.45342 0.0
H742 H 0.46182 0.91001 0.39334 0.0
H743 H 0.49756 0.94716 0.41826 0.0
H744 H 0.42298 0.90913 0.36422 0.0
H745 H 0.43298 0.89139 0.44698 0.0
H746 H 0.43903 0.90147 0.49894 0.0
H747 H 0.36456 0.931 0.51163 0.0
H748 H 0.35824 0.92161 0.45985 0.0
H749 H 0.311 0.79608 0.32941 0.0
H750 H 0.34283 0.82838 0.36815 0.0
H751 H 0.33363 0.89156 0.33726 0.0
H752 H 0.30286 0.85874 0.29739 0.0
H753 H 0.35372 0.87788 0.41183 0.0
H754 H 0.39077 0.91607 0.32642 0.0
H755 H 0.3883 0.89879 0.27305 0.0
H756 H 0.37656 0.81463 0.26398 0.0
H757 H 0.37945 0.83139 0.31725 0.0
C758 C 0.44972 0.97568 0.46078 0.0
C759 C 0.47431 0.97318 0.45056 0.0
C760 C 0.42921 0.95512 0.4461 0.0
C761 C 0.43327 0.93116 0.42171 0.0
C762 C 0.45819 0.92833 0.41207 0.0
C763 C 0.47855 0.94945 0.42618 0.0
C764 C 0.41099 0.91044 0.40486 0.0
C765 C 0.40805 0.90218 0.37474 0.0
C766 C 0.39172 0.9006 0.41833 0.0
C767 C 0.3952 0.90592 0.44948 0.0
C768 C 0.41794 0.90018 0.46086 0.0
C769 C 0.42142 0.90577 0.4903 0.0
C770 C 0.4022 0.91689 0.50857 0.0
C771 C 0.37943 0.92238 0.49744 0.0
C772 C 0.37588 0.91689 0.46802 0.0
C773 C 0.3152 0.81714 0.33143 0.0
C774 C 0.30525 0.82486 0.31006 0.0
C775 C 0.33329 0.83559 0.35366 0.0
C776 C 0.34114 0.86195 0.35487 0.0
C777 C 0.32825 0.87096 0.33609 0.0
C778 C 0.3107 0.85231 0.31341 0.0
C779 C 0.36558 0.87782 0.37177 0.0
C780 C 0.36892 0.88487 0.40162 0.0
C781 C 0.38598 0.88527 0.35791 0.0
C782 C 0.38507 0.87503 0.32583 0.0
C783 C 0.38784 0.89389 0.31303 0.0
C784 C 0.38635 0.88417 0.2828 0.0
C785 C 0.3822 0.85563 0.26514 0.0
C786 C 0.37971 0.83673 0.27767 0.0
C787 C 0.38128 0.84633 0.30788 0.0
H788 H 0.38096 0.84817 0.24174 0.0
H789 H 0.40494 0.92122 0.53136 0.0
H790 H 0.33111 0.19077 0.72889 0.0
H791 H 0.36275 0.1631 0.69919 0.0
H792 H 0.35321 0.2008 0.63946 0.0
H793 H 0.32122 0.22808 0.6687 0.0
H794 H 0.35629 0.14768 0.60956 0.0
H795 H 0.40631 0.22036 0.69024 0.0
H796 H 0.4189 0.25029 0.74208 0.0
H797 H 0.43787 0.17951 0.75558 0.0
H798 H 0.42483 0.14901 0.70392 0.0
H799 H 0.47099 0.10298 0.53861 0.0
H800 H 0.44036 0.133 0.56802 0.0
H801 H 0.43903 0.0893 0.62289 0.0
H802 H 0.46928 0.05914 0.59358 0.0
H803 H 0.44254 0.14718 0.65487 0.0
H804 H 0.39025 0.0749 0.5727 0.0
H805 H 0.37758 0.04669 0.5205 0.0
H806 H 0.36446 0.1203 0.50947 0.0
H807 H 0.37742 0.149 0.56157 0.0
C808 C 0.33561 0.19311 0.70937 0.0
C809 C 0.3235 0.21178 0.70134 0.0
C810 C 0.3539 0.17734 0.69242 0.0
C811 C 0.36082 0.18001 0.66713 0.0
C812 C 0.34837 0.19825 0.65879 0.0
C813 C 0.33002 0.21394 0.67566 0.0
C814 C 0.38111 0.164 0.64953 0.0
C815 C 0.37526 0.14795 0.6195 0.0
C816 C 0.40595 0.16399 0.66226 0.0
C817 C 0.41435 0.18234 0.69323 0.0
C818 C 0.41301 0.21113 0.70429 0.0
C819 C 0.42023 0.22821 0.73365 0.0
C820 C 0.42915 0.21681 0.75212 0.0
C821 C 0.43093 0.18831 0.74125 0.0
C822 C 0.42362 0.17111 0.71192 0.0
C823 C 0.46427 0.09981 0.557 0.0
C824 C 0.47261 0.07844 0.56352 0.0
C825 C 0.44668 0.11698 0.57379 0.0
C826 C 0.43718 0.11341 0.59771 0.0
C827 C 0.446 0.09257 0.60465 0.0
C828 C 0.46327 0.0752 0.58769 0.0
C829 C 0.41758 0.13077 0.61505 0.0
C830 C 0.42359 0.14707 0.64501 0.0
C831 C 0.39304 0.13136 0.60221 0.0
C832 C 0.38507 0.11412 0.57096 0.0
C833 C 0.38486 0.08509 0.5591 0.0
C834 C 0.37759 0.06901 0.52954 0.0
C835 C 0.37029 0.0817 0.51166 0.0
C836 C 0.37016 0.1105 0.52334 0.0
C837 C 0.37745 0.12668 0.55288 0.0
H838 H 0.36467 0.06921 0.48879 0.0
H839 H 0.43471 0.23006 0.77484 0.0
H840 H 0.10617 0.97542 0.51501 0.0
H841 H 0.13286 0.95218 0.537 0.0
H842 H 0.07843 0.96224 0.60108 0.0
H843 H 0.05219 0.98585 0.57977 0.0
H844 H 0.12429 0.97254 0.62731 0.0
H845 H 0.08301 0.89805 0.53974 0.0
H846 H 0.07105 0.87309 0.48698 0.0
H847 H 0.15138 0.8692 0.47191 0.0
H848 H 0.16384 0.89449 0.52458 0.0
H849 H 0.16505 0.87736 0.68139 0.0
H850 H 0.1409 0.9012 0.65836 0.0
H851 H 0.19786 0.88925 0.59663 0.0
H852 H 0.22146 0.86413 0.6186 0.0
H853 H 0.15231 0.88063 0.56881 0.0
H854 H 0.19331 0.95435 0.65699 0.0
H855 H 0.20477 0.97906 0.70987 0.0
H856 H 0.12433 0.9841 0.72386 0.0
H857 H 0.11236 0.95911 0.67108 0.0
C858 C 0.0999 0.97277 0.53383 0.0
C859 C 0.07685 0.98266 0.54543 0.0
C860 C 0.11516 0.95924 0.54637 0.0
C861 C 0.10772 0.95492 0.57072 0.0
C862 C 0.08488 0.96513 0.58244 0.0
C863 C 0.06974 0.97869 0.57005 0.0
C864 C 0.12346 0.93998 0.58419 0.0
C865 C 0.13011 0.95229 0.61443 0.0
C866 C 0.13181 0.91373 0.56771 0.0
C867 C 0.12436 0.89843 0.53607 0.0
C868 C 0.09813 0.89205 0.52516 0.0
C869 C 0.09126 0.87782 0.49527 0.0
C870 C 0.11045 0.86964 0.4761 0.0
C871 C 0.13654 0.8756 0.48678 0.0
C872 C 0.14352 0.88987 0.51665 0.0
C873 C 0.17247 0.87949 0.66277 0.0
C874 C 0.19556 0.86866 0.6522 0.0
C875 C 0.15867 0.89357 0.64972 0.0
C876 C 0.16755 0.89768 0.62581 0.0
C877 C 0.19043 0.88669 0.61505 0.0
C878 C 0.20419 0.8725 0.628 0.0
C879 C 0.15299 0.91313 0.61195 0.0
C880 C 0.14657 0.90092 0.58166 0.0
C881 C 0.14477 0.93946 0.62839 0.0
C882 C 0.15193 0.95464 0.66011 0.0
C883 C 0.17806 0.96058 0.67136 0.0
C884 C 0.18465 0.97466 0.70131 0.0
C885 C 0.16529 0.98309 0.72022 0.0
C886 C 0.1393 0.97753 0.7092 0.0
C887 C 0.13261 0.96344 0.67927 0.0
H888 H 0.17043 0.99398 0.74339 0.0
H889 H 0.10509 0.85862 0.45297 0.0
H890 H 0.30835 0.85091 0.79842 0.0
H891 H 0.343 0.88951 0.82282 0.0
H892 H 0.40011 0.83385 0.78656 0.0
H893 H 0.36569 0.7953 0.7628 0.0
H894 H 0.39998 0.85408 0.84594 0.0
H895 H 0.39915 0.88969 0.77309 0.0
H896 H 0.37913 0.90755 0.74046 0.0
H897 H 0.35687 0.97594 0.81393 0.0
H898 H 0.37643 0.95827 0.84701 0.0
H899 H 0.50853 0.93602 0.92946 0.0
H900 H 0.47978 0.91069 0.88496 0.0
H901 H 0.42637 0.97179 0.91658 0.0
H902 H 0.45604 0.99812 0.96058 0.0
H903 H 0.42468 0.95069 0.85798 0.0
H904 H 0.41932 0.91439 0.92974 0.0
H905 H 0.43612 0.89728 0.96461 0.0
H906 H 0.46516 0.8304 0.89533 0.0
H907 H 0.44885 0.84737 0.86009 0.0
C908 C 0.32828 0.84727 0.79472 0.0
C909 C 0.33457 0.82022 0.77935 0.0
C910 C 0.34803 0.86931 0.80856 0.0
C911 C 0.37407 0.86439 0.8067 0.0
C912 C 0.38012 0.838 0.78832 0.0
C913 C 0.36049 0.81601 0.77486 0.0
C914 C 0.39433 0.88413 0.82868 0.0
C915 C 0.40578 0.87501 0.84811 0.0
C916 C 0.4008 0.91183 0.8324 0.0
C917 C 0.38907 0.9225 0.81253 0.0
C918 C 0.38978 0.90839 0.78229 0.0
C919 C 0.37856 0.91852 0.76371 0.0
C920 C 0.36668 0.94282 0.77511 0.0
C921 C 0.36606 0.9571 0.80512 0.0
C922 C 0.37724 0.94706 0.8238 0.0
C923 C 0.49085 0.94424 0.92663 0.0
C924 C 0.48404 0.96852 0.9485 0.0
C925 C 0.4745 0.92986 0.90123 0.0
C926 C 0.45062 0.93898 0.89786 0.0
C927 C 0.44464 0.96434 0.91884 0.0
C928 C 0.46143 0.97921 0.94399 0.0
C929 C 0.43078 0.92021 0.87452 0.0
C930 C 0.41911 0.92959 0.85534 0.0
C931 C 0.42349 0.89274 0.87122 0.0
C932 C 0.43309 0.8823 0.89233 0.0
C933 C 0.42943 0.89613 0.92197 0.0
C934 C 0.43885 0.88645 0.9418 0.0
C935 C 0.45176 0.8628 0.9322 0.0
C936 C 0.4552 0.84874 0.90274 0.0
C937 C 0.44586 0.85836 0.88283 0.0
H938 H 0.45904 0.85534 0.94758 0.0
H939 H 0.358 0.95063 0.76068 0.0
H940 H 0.49569 0.07779 0.10042 0.0
H941 H 0.46701 0.10781 0.13262 0.0
H942 H 0.42236 0.10661 0.05833 0.0
H943 H 0.4527 0.07852 0.02632 0.0
H944 H 0.42104 0.15338 0.09655 0.0
H945 H 0.40529 0.06607 0.10155 0.0
H946 H 0.41631 0.02527 0.10857 0.0
H947 H 0.44396 0.07716 0.19739 0.0
H948 H 0.43382 0.1186 0.19068 0.0
H949 H 0.30581 0.18821 0.17134 0.0
H950 H 0.33705 0.16018 0.14109 0.0
H951 H 0.39607 0.19738 0.21288 0.0
H952 H 0.36507 0.22624 0.24315 0.0
H953 H 0.38944 0.13317 0.17722 0.0
H954 H 0.40269 0.22082 0.16889 0.0
H955 H 0.38707 0.25886 0.15938 0.0
H956 H 0.35743 0.20091 0.07303 0.0
H957 H 0.37244 0.16242 0.08224 0.0
C958 C 0.47977 0.08398 0.09095 0.0
C959 C 0.47641 0.07554 0.06073 0.0
C960 C 0.46309 0.10103 0.10944 0.0
C961 C 0.44163 0.10907 0.09824 0.0
C962 C 0.4385 0.10085 0.06792 0.0
C963 C 0.45583 0.08462 0.04948 0.0
C964 C 0.42267 0.12597 0.118 0.0
C965 C 0.41403 0.14853 0.11387 0.0
C966 C 0.41326 0.12035 0.14117 0.0
C967 C 0.41903 0.09548 0.1455 0.0
C968 C 0.41386 0.06883 0.12255 0.0
C969 C 0.41996 0.04556 0.12648 0.0
C970 C 0.4308 0.04852 0.1534 0.0
C971 C 0.43558 0.07487 0.17651 0.0
C972 C 0.42971 0.09829 0.17265 0.0
C973 C 0.32536 0.19032 0.18087 0.0
C974 C 0.33281 0.20951 0.20982 0.0
C975 C 0.34326 0.1743 0.16345 0.0
C976 C 0.36898 0.17661 0.17461 0.0
C977 C 0.37635 0.19515 0.20374 0.0
C978 C 0.35859 0.21168 0.22102 0.0
C979 C 0.3882 0.16018 0.15556 0.0
C980 C 0.3967 0.13779 0.15984 0.0
C981 C 0.39693 0.16548 0.13214 0.0
C982 C 0.38846 0.18869 0.12636 0.0
C983 C 0.39265 0.21615 0.14795 0.0
C984 C 0.38394 0.2378 0.14261 0.0
C985 C 0.37121 0.23229 0.11564 0.0
C986 C 0.36726 0.20514 0.09393 0.0
C987 C 0.37588 0.1834 0.09919 0.0
H988 H 0.36444 0.24908 0.11156 0.0
H989 H 0.43547 0.03041 0.15635 0.0
H990 H 0.12584 0.06807 0.35868 0.0
H991 H 0.14927 0.09461 0.3358 0.0
H992 H 0.17216 0.16166 0.42002 0.0
H993 H 0.14853 0.1354 0.443 0.0
H994 H 0.15692 0.18158 0.38105 0.0
H995 H 0.21453 0.11627 0.38299 0.0
H996 H 0.22662 0.06961 0.37258 0.0
H997 H 0.21095 0.04556 0.2811 0.0
H998 H 0.19843 0.092 0.29099 0.0
H999 H 0.25733 0.26059 0.35117 0.0
H1000 H 0.23163 0.23093 0.36847 0.0
H1001 H 0.21938 0.16602 0.28138 0.0
H1002 H 0.24608 0.19572 0.26397 0.0
H1003 H 0.22674 0.14322 0.31812 0.0
H1004 H 0.17125 0.20791 0.31454 0.0
H1005 H 0.15853 0.25401 0.32344 0.0
H1006 H 0.168 0.27828 0.41547 0.0
H1007 H 0.1812 0.23247 0.40714 0.0
C1008 C 0.13565 0.08856 0.37239 0.0
C1009 C 0.13523 0.09941 0.40283 0.0
C1010 C 0.1493 0.10369 0.35923 0.0
C1011 C 0.16287 0.13019 0.37607 0.0
C1012 C 0.16203 0.14129 0.4064 0.0
C1013 C 0.14859 0.1261 0.41958 0.0
C1014 C 0.17798 0.14633 0.36226 0.0
C1015 C 0.17237 0.17325 0.36756 0.0
C1016 C 0.19764 0.13535 0.34372 0.0
C1017 C 0.20528 0.1075 0.33775 0.0
C1018 C 0.21347 0.10096 0.36066 0.0
C1019 C 0.22043 0.07457 0.35486 0.0
C1020 C 0.21948 0.05461 0.3262 0.0
C1021 C 0.21163 0.06103 0.30328 0.0
C1022 C 0.20462 0.08739 0.30898 0.0
C1023 C 0.24926 0.23998 0.33558 0.0
C1024 C 0.25376 0.23068 0.30608 0.0
C1025 C 0.23432 0.22299 0.34554 0.0
C1026 C 0.22287 0.19622 0.3263 0.0
C1027 C 0.22775 0.18657 0.29681 0.0
C1028 C 0.243 0.2036 0.2868 0.0
C1029 C 0.20595 0.1787 0.33727 0.0
C1030 C 0.21119 0.15153 0.33144 0.0
C1031 C 0.1857 0.18932 0.35507 0.0
C1032 C 0.17742 0.2168 0.36021 0.0
C1033 C 0.17077 0.22313 0.33669 0.0
C1034 C 0.16347 0.24921 0.34163 0.0
C1035 C 0.16251 0.26908 0.37001 0.0
C1036 C 0.16878 0.26287 0.3935 0.0
C1037 C 0.17615 0.23684 0.38868 0.0
H1038 H 0.15688 0.28928 0.37379 0.0
H1039 H 0.22487 0.03419 0.32175 0.0
H1040 H 0.82525 0.22742 0.16388 0.0
H1041 H 0.85781 0.19913 0.13604 0.0
H1042 H 0.88042 0.18191 0.20889 0.0
H1043 H 0.84754 0.20938 0.23641 0.0
H1044 H 0.92399 0.19619 0.17993 0.0
H1045 H 0.84429 0.13426 0.15843 0.0
H1046 H 0.79779 0.11994 0.14226 0.0
H1047 H 0.81137 0.11863 0.059 0.0
H1048 H 0.85792 0.13351 0.07489 0.0
H1049 H 0.99802 0.08204 0.1061 0.0
H1050 H 0.96934 0.11411 0.13705 0.0
H1051 H 0.92866 0.11337 0.06089 0.0
H1052 H 0.95657 0.08145 0.03029 0.0
H1053 H 0.89424 0.10888 0.09292 0.0
H1054 H 0.9718 0.17077 0.11151 0.0
H1055 H 1.01794 0.18902 0.1261 0.0
H1056 H 1.00892 0.19427 0.21175 0.0
H1057 H 0.96278 0.17559 0.19752 0.0
C1058 C 0.83727 0.21779 0.17407 0.0
C1059 C 0.83358 0.22072 0.20246 0.0
C1060 C 0.85591 0.20153 0.15807 0.0
C1061 C 0.87176 0.18824 0.17024 0.0
C1062 C 0.86864 0.1919 0.1989 0.0
C1063 C 0.84965 0.20758 0.21461 0.0
C1064 C 0.89072 0.16956 0.15279 0.0
C1065 C 0.91748 0.17691 0.1611 0.0
C1066 C 0.88248 0.14469 0.12771 0.0
C1067 C 0.85457 0.1353 0.11797 0.0
C1068 C 0.83734 0.13116 0.13676 0.0
C1069 C 0.81097 0.12291 0.12764 0.0
C1070 C 0.80161 0.11844 0.09964 0.0
C1071 C 0.81864 0.12215 0.08069 0.0
C1072 C 0.84502 0.13049 0.08975 0.0
C1073 C 0.98315 0.08895 0.09599 0.0
C1074 C 0.97981 0.07883 0.06548 0.0
C1075 C 0.96666 0.10741 0.11377 0.0
C1076 C 0.94651 0.1165 0.10158 0.0
C1077 C 0.94365 0.10677 0.07119 0.0
C1078 C 0.9599 0.08838 0.05357 0.0
C1079 C 0.92785 0.13539 0.11985 0.0
C1080 C 0.90098 0.12809 0.11173 0.0
C1081 C 0.93608 0.16057 0.14478 0.0
C1082 C 0.96391 0.17137 0.15331 0.0
C1083 C 0.97972 0.17546 0.13334 0.0
C1084 C 1.00588 0.1859 0.14156 0.0
C1085 C 1.01639 0.19263 0.16978 0.0
C1086 C 1.00077 0.18894 0.18986 0.0
C1087 C 0.97461 0.17841 0.18173 0.0
H1088 H 0.03661 0.20088 0.17614 0.0
H1089 H 0.78119 0.11205 0.09261 0.0
H1090 H 0.04227 0.51333 0.31581 0.0
H1091 H 0.07692 0.52923 0.29401 0.0
H1092 H 0.13152 0.49262 0.3294 0.0
H1093 H 0.09652 0.47538 0.35034 0.0
H1094 H 0.13637 0.5505 0.3557 0.0
H1095 H 0.13275 0.47972 0.26243 0.0
H1096 H 0.11253 0.44362 0.21592 0.0
H1097 H 0.08607 0.50597 0.19212 0.0
H1098 H 0.10496 0.54258 0.23926 0.0
H1099 H 0.2128 0.66297 0.34701 0.0
H1100 H 0.19996 0.61543 0.34027 0.0
H1101 H 0.13098 0.61153 0.28768 0.0
H1102 H 0.14479 0.65796 0.29199 0.0
H1103 H 0.1476 0.56369 0.26572 0.0
H1104 H 0.13352 0.62784 0.36442 0.0
H1105 H 0.14737 0.66461 0.41344 0.0
H1106 H 0.20213 0.61454 0.42684 0.0
H1107 H 0.18873 0.57758 0.37776 0.0
C1108 C 0.06126 0.50708 0.31752 0.0
C1109 C 0.06685 0.49403 0.33576 0.0
C1110 C 0.08117 0.51627 0.30499 0.0
C1111 C 0.10685 0.51264 0.31069 0.0
C1112 C 0.11182 0.49584 0.32503 0.0
C1113 C 0.09182 0.48621 0.33715 0.0
C1114 C 0.12781 0.53256 0.30922 0.0
C1115 C 0.13959 0.55288 0.33585 0.0
C1116 C 0.13144 0.53586 0.2834 0.0
C1117 C 0.12033 0.51403 0.2546 0.0
C1118 C 0.12245 0.48583 0.24745 0.0
C1119 C 0.1112 0.46522 0.2209 0.0
C1120 C 0.09819 0.47245 0.20091 0.0
C1121 C 0.09624 0.50038 0.20758 0.0
C1122 C 0.10717 0.52111 0.2343 0.0
C1123 C 0.19508 0.65194 0.33363 0.0
C1124 C 0.1797 0.66465 0.32036 0.0
C1125 C 0.18766 0.62474 0.32998 0.0
C1126 C 0.16433 0.60995 0.31376 0.0
C1127 C 0.14911 0.62244 0.30026 0.0
C1128 C 0.15678 0.64935 0.30333 0.0
C1129 C 0.15454 0.58233 0.31241 0.0
C1130 C 0.14507 0.56071 0.28534 0.0
C1131 C 0.15233 0.57798 0.33791 0.0
C1132 C 0.16039 0.60016 0.36736 0.0
C1133 C 0.14863 0.62478 0.37778 0.0
C1134 C 0.15637 0.64563 0.40556 0.0
C1135 C 0.17569 0.64196 0.4232 0.0
C1136 C 0.18723 0.61739 0.41313 0.0
C1137 C 0.17957 0.59648 0.38534 0.0
H1138 H 0.18166 0.65812 0.4447 0.0
H1139 H 0.08959 0.45641 0.1803 0.0
H1140 H 0.51372 0.85287 0.5546 0.0
H1141 H 0.52961 0.82325 0.57649 0.0
H1142 H 0.54817 0.89495 0.65837 0.0
H1143 H 0.53239 0.92457 0.63667 0.0
H1144 H 0.58895 0.86404 0.63976 0.0
H1145 H 0.49991 0.84975 0.65366 0.0
H1146 H 0.45297 0.83824 0.6394 0.0
H1147 H 0.46443 0.75557 0.58041 0.0
H1148 H 0.51157 0.76672 0.59395 0.0
H1149 H 0.63406 0.79471 0.71722 0.0
H1150 H 0.60291 0.82033 0.7049 0.0
H1151 H 0.58175 0.75085 0.62187 0.0
H1152 H 0.6121 0.72432 0.63457 0.0
H1153 H 0.54013 0.78128 0.6437 0.0
H1154 H 0.62944 0.79764 0.62651 0.0
H1155 H 0.6764 0.80923 0.64094 0.0
H1156 H 0.66383 0.8887 0.70641 0.0
H1157 H 0.61671 0.87737 0.69265 0.0
C1158 C 0.52105 0.86222 0.5773 0.0
C1159 C 0.52185 0.89098 0.59395 0.0
C1160 C 0.5299 0.8453 0.58982 0.0
C1161 C 0.53987 0.85694 0.61908 0.0
C1162 C 0.54039 0.88558 0.6358 0.0
C1163 C 0.5313 0.90243 0.62341 0.0
C1164 C 0.5517 0.83966 0.63163 0.0
C1165 C 0.57815 0.84624 0.64109 0.0
C1166 C 0.53768 0.8161 0.63272 0.0
C1167 C 0.50934 0.80921 0.62454 0.0
C1168 C 0.49248 0.8292 0.63741 0.0
C1169 C 0.46582 0.82273 0.6295 0.0
C1170 C 0.45575 0.79626 0.60888 0.0
C1171 C 0.47229 0.77611 0.59629 0.0
C1172 C 0.49898 0.7825 0.60409 0.0
C1173 C 0.62208 0.78431 0.69682 0.0
C1174 C 0.62596 0.75756 0.67665 0.0
C1175 C 0.60438 0.79914 0.68973 0.0
C1176 C 0.59052 0.78771 0.66222 0.0
C1177 C 0.59245 0.7601 0.64313 0.0
C1178 C 0.61002 0.74511 0.65031 0.0
C1179 C 0.5773 0.80579 0.65185 0.0
C1180 C 0.55076 0.79926 0.64261 0.0
C1181 C 0.59119 0.82947 0.65086 0.0
C1182 C 0.61955 0.83655 0.65874 0.0
C1183 C 0.63668 0.81752 0.64409 0.0
C1184 C 0.66332 0.82404 0.65214 0.0
C1185 C 0.67309 0.84966 0.67462 0.0
C1186 C 0.65623 0.86885 0.68903 0.0
C1187 C 0.62956 0.8624 0.68111 0.0
H1188 H 0.69372 0.85467 0.68084 0.0
H1189 H 0.43512 0.79135 0.60271 0.0
H1190 H 0.46821 0.46788 0.91284 0.0
H1191 H 0.44783 0.42211 0.87844 0.0
H1192 H 0.49632 0.38346 0.91813 0.0
H1193 H 0.51708 0.42958 0.95256 0.0
H1194 H 0.45932 0.37176 0.8387 0.0
H1195 H 0.4528 0.33559 0.92934 0.0
H1196 H 0.4587 0.35476 0.9829 0.0
H1197 H 0.43527 0.43209 0.98914 0.0
H1198 H 0.4289 0.41323 0.93568 0.0
H1199 H 0.36273 0.26292 0.77167 0.0
H1200 H 0.40331 0.28162 0.80303 0.0
H1201 H 0.36302 0.34127 0.86846 0.0
H1202 H 0.3222 0.32136 0.8378 0.0
H1203 H 0.40488 0.33245 0.89361 0.0
H1204 H 0.38528 0.35353 0.81011 0.0
H1205 H 0.37451 0.33924 0.75767 0.0
H1206 H 0.44421 0.30028 0.73894 0.0
H1207 H 0.4552 0.3141 0.79129 0.0
C1208 C 0.47529 0.44956 0.91335 0.0
C1209 C 0.49406 0.45207 0.93521 0.0
C1210 C 0.46367 0.42343 0.89372 0.0
C1211 C 0.47033 0.39945 0.89604 0.0
C1212 C 0.49088 0.40177 0.91611 0.0
C1213 C 0.50282 0.42805 0.93559 0.0
C1214 C 0.45272 0.37328 0.88082 0.0
C1215 C 0.44791 0.3626 0.85057 0.0
C1216 C 0.43748 0.36175 0.89644 0.0
C1217 C 0.44074 0.37312 0.92857 0.0
C1218 C 0.44886 0.35666 0.94218 0.0
C1219 C 0.45228 0.36746 0.9725 0.0
C1220 C 0.44747 0.39467 0.98941 0.0
C1221 C 0.43909 0.41107 0.97603 0.0
C1222 C 0.43558 0.40033 0.94573 0.0
C1223 C 0.36244 0.27916 0.79334 0.0
C1224 C 0.33963 0.29105 0.80238 0.0
C1225 C 0.3856 0.2899 0.81118 0.0
C1226 C 0.38635 0.31346 0.83765 0.0
C1227 C 0.36295 0.3232 0.84805 0.0
C1228 C 0.33962 0.31188 0.83053 0.0
C1229 C 0.41116 0.33125 0.8515 0.0
C1230 C 0.41717 0.34052 0.8815 0.0
C1231 C 0.42706 0.34214 0.83579 0.0
C1232 C 0.42095 0.33465 0.80448 0.0
C1233 C 0.39828 0.34192 0.79476 0.0
C1234 C 0.39213 0.33387 0.76509 0.0
C1235 C 0.40865 0.31883 0.74499 0.0
C1236 C 0.43143 0.31193 0.75454 0.0
C1237 C 0.43764 0.31986 0.78419 0.0
H1238 H 0.40383 0.31256 0.72202 0.0
H1239 H 0.45016 0.403 0.01286 0.0
H1240 H 0.82248 0.84845 0.34166 0.0
H1241 H 0.86465 0.86487 0.36984 0.0
H1242 H 0.89176 0.78647 0.31849 0.0
H1243 H 0.84925 0.76975 0.2903 0.0
H1244 H 0.8962 0.84704 0.40254 0.0
H1245 H 0.95521 0.8068 0.30483 0.0
H1246 H 0.94943 0.78863 0.25136 0.0
H1247 H 0.88768 0.83843 0.25761 0.0
H1248 H 0.89349 0.85731 0.31107 0.0
H1249 H 1.01728 0.91492 0.46571 0.0
H1250 H 0.99155 0.87317 0.42931 0.0
H1251 H 0.96668 0.92064 0.38379 0.0
H1252 H 0.99278 0.96228 0.41976 0.0
H1253 H 0.96607 0.86461 0.34669 0.0
H1254 H 0.93513 0.92228 0.44042 0.0
H1255 H 0.93876 0.94438 0.49397 0.0
H1256 H 0.94075 0.86469 0.49571 0.0
H1257 H 0.93732 0.84213 0.44206 0.0
C1258 C 0.83723 0.83448 0.33689 0.0
C1259 C 0.83277 0.80799 0.3138 0.0
C1260 C 0.86126 0.84382 0.35301 0.0
C1261 C 0.88133 0.82695 0.34603 0.0
C1262 C 0.87649 0.79978 0.32408 0.0
C1263 C 0.85223 0.79027 0.30813 0.0
C1264 C 0.90774 0.83933 0.35997 0.0
C1265 C 0.91171 0.85027 0.39029 0.0
C1266 C 0.92785 0.84377 0.34395 0.0
C1267 C 0.92455 0.83312 0.31188 0.0
C1268 C 0.94047 0.81392 0.29476 0.0
C1269 C 0.9372 0.80352 0.26448 0.0
C1270 C 0.9181 0.81224 0.2511 0.0
C1271 C 0.90238 0.83158 0.26799 0.0
C1272 C 0.90567 0.84215 0.29828 0.0
C1273 C 1.00721 0.91613 0.44722 0.0
C1274 C 1.00644 0.94187 0.44585 0.0
C1275 C 0.99254 0.89228 0.42646 0.0
C1276 C 0.97669 0.89403 0.40436 0.0
C1277 C 0.97868 0.91889 0.40079 0.0
C1278 C 0.99356 0.94273 0.42142 0.0
C1279 C 0.95434 0.87263 0.38929 0.0
C1280 C 0.95104 0.86022 0.35884 0.0
C1281 C 0.93459 0.86713 0.40517 0.0
C1282 C 0.93628 0.88059 0.43733 0.0
C1283 C 0.93647 0.90951 0.45225 0.0
C1284 C 0.93849 0.92212 0.48261 0.0
C1285 C 0.94012 0.90598 0.49827 0.0
C1286 C 0.93957 0.87717 0.48357 0.0
C1287 C 0.93757 0.86446 0.45319 0.0
H1288 H 0.94174 0.91579 0.52177 0.0
H1289 H 0.91553 0.80407 0.22765 0.0
H1290 H 0.4924 0.57379 0.60475 0.0
H1291 H 0.46253 0.60451 0.63526 0.0
H1292 H 0.43682 0.622 0.56349 0.0
H1293 H 0.46616 0.59136 0.53311 0.0
H1294 H 0.44305 0.66949 0.61484 0.0
H1295 H 0.40125 0.57547 0.57973 0.0
H1296 H 0.39898 0.52665 0.57284 0.0
H1297 H 0.40463 0.55303 0.66526 0.0
H1298 H 0.40746 0.60207 0.67272 0.0
H1299 H 0.32747 0.7296 0.66461 0.0
H1300 H 0.35996 0.70147 0.63708 0.0
H1301 H 0.37089 0.67065 0.70252 0.0
H1302 H 0.33755 0.69754 0.72915 0.0
H1303 H 0.37374 0.63009 0.65552 0.0
H1304 H 0.41611 0.72381 0.69166 0.0
H1305 H 0.42187 0.77299 0.69952 0.0
H1306 H 0.41734 0.74803 0.60732 0.0
H1307 H 0.41145 0.6988 0.59894 0.0
C1308 C 0.48071 0.58455 0.59564 0.0
C1309 C 0.48185 0.57998 0.56636 0.0
C1310 C 0.46341 0.60199 0.61306 0.0
C1311 C 0.44703 0.6156 0.60177 0.0
C1312 C 0.44904 0.61191 0.57293 0.0
C1313 C 0.46592 0.59423 0.55549 0.0
C1314 C 0.42718 0.6329 0.6193 0.0
C1315 C 0.42778 0.66079 0.62356 0.0
C1316 C 0.40738 0.62197 0.63128 0.0
C1317 C 0.40487 0.59247 0.6268 0.0
C1318 C 0.40216 0.57088 0.59859 0.0
C1319 C 0.40077 0.54316 0.59458 0.0
C1320 C 0.40175 0.53676 0.6186 0.0
C1321 C 0.40393 0.55804 0.64668 0.0
C1322 C 0.40544 0.58579 0.65081 0.0
C1323 C 0.33678 0.71685 0.67317 0.0
C1324 C 0.32969 0.71605 0.69928 0.0
C1325 C 0.35569 0.70081 0.65745 0.0
C1326 C 0.36872 0.684 0.66769 0.0
C1327 C 0.36146 0.68318 0.69375 0.0
C1328 C 0.34227 0.69878 0.70914 0.0
C1329 C 0.38951 0.66705 0.65136 0.0
C1330 C 0.38905 0.63906 0.64713 0.0
C1331 C 0.40965 0.67799 0.63962 0.0
C1332 C 0.41311 0.70763 0.64468 0.0
C1333 C 0.41621 0.72884 0.67308 0.0
C1334 C 0.41956 0.75674 0.67763 0.0
C1335 C 0.41999 0.76367 0.65394 0.0
C1336 C 0.41709 0.7427 0.62567 0.0
C1337 C 0.41377 0.71479 0.621 0.0
H1338 H 0.4226 0.78527 0.6575 0.0
H1339 H 0.40082 0.51533 0.61549 0.0
H1340 H 0.63609 0.05606 0.89035 0.0
H1341 H 0.6779 0.08058 0.88946 0.0
H1342 H 0.64299 0.15618 0.91192 0.0
H1343 H 0.60173 0.13269 0.91496 0.0
H1344 H 0.68138 0.13706 0.86188 0.0
H1345 H 0.66766 0.15924 0.96647 0.0
H1346 H 0.65867 0.14154 1.00343 0.0
H1347 H 0.72302 0.09405 0.98069 0.0
H1348 H 0.73223 0.1114 0.94351 0.0
H1349 H 0.73541 0.27046 0.95118 0.0
H1350 H 0.72433 0.22682 0.95511 0.0
H1351 H 0.77433 0.18679 0.88868 0.0
H1352 H 0.78416 0.22967 0.88326 0.0
H1353 H 0.7382 0.17547 0.95443 0.0
H1354 H 0.74196 0.14352 0.83859 0.0
H1355 H 0.74907 0.16203 0.80186 0.0
H1356 H 0.7033 0.22765 0.84587 0.0
H1357 H 0.69637 0.20978 0.88313 0.0
C1358 C 0.63721 0.07788 0.89512 0.0
C1359 C 0.6154 0.09234 0.90306 0.0
C1360 C 0.66111 0.09174 0.89433 0.0
C1361 C 0.66336 0.12008 0.90074 0.0
C1362 C 0.64144 0.13419 0.90679 0.0
C1363 C 0.61775 0.12057 0.90823 0.0
C1364 C 0.68872 0.13603 0.90341 0.0
C1365 C 0.69431 0.14476 0.88166 0.0
C1366 C 0.70547 0.14599 0.92921 0.0
C1367 C 0.70054 0.13648 0.95224 0.0
C1368 C 0.67985 0.14501 0.96939 0.0
C1369 C 0.67472 0.13505 0.99036 0.0
C1370 C 0.69025 0.11667 0.99441 0.0
C1371 C 0.71102 0.10831 0.97758 0.0
C1372 C 0.71622 0.11823 0.95659 0.0
C1373 C 0.74485 0.25267 0.93816 0.0
C1374 C 0.75934 0.25311 0.91561 0.0
C1375 C 0.73876 0.22774 0.94071 0.0
C1376 C 0.74759 0.20333 0.92116 0.0
C1377 C 0.76673 0.2053 0.90337 0.0
C1378 C 0.77238 0.23003 0.90035 0.0
C1379 C 0.7308 0.17678 0.91294 0.0
C1380 C 0.72636 0.16642 0.93383 0.0
C1381 C 0.71521 0.16493 0.88607 0.0
C1382 C 0.71861 0.1753 0.86343 0.0
C1383 C 0.73334 0.16181 0.84027 0.0
C1384 C 0.73745 0.17228 0.8195 0.0
C1385 C 0.72668 0.19604 0.82158 0.0
C1386 C 0.71173 0.20935 0.84439 0.0
C1387 C 0.70772 0.19909 0.86534 0.0
H1388 H 0.72992 0.20416 0.80553 0.0
H1389 H 0.68618 0.10891 0.01058 0.0
H1390 H 0.0432 0.43347 0.14074 0.0
H1391 H 0.05825 0.40533 0.16471 0.0
H1392 H 0.03251 0.33066 0.08749 0.0
H1393 H 1.01729 0.35876 0.06337 0.0
H1394 H 1.02012 0.32683 0.13949 0.0
H1395 H 0.09212 0.35562 0.09874 0.0
H1396 H 0.12336 0.38863 0.09041 0.0
H1397 H 0.15119 0.42583 0.18077 0.0
H1398 H 0.11965 0.39346 0.18981 0.0
H1399 H 0.1 0.23176 0.15706 0.0
H1400 H 0.07262 0.26049 0.14419 0.0
H1401 H 0.10867 0.33331 0.2181 0.0
H1402 H 0.13703 0.30511 0.23019 0.0
H1403 H 0.11392 0.33939 0.17028 0.0
H1404 H 0.04298 0.30971 0.21116 0.0
H1405 H 1.01194 0.27647 0.21948 0.0
H1406 H 0.98354 0.23971 0.12931 0.0
H1407 H 1.01466 0.27248 0.12032 0.0
C1408 C 0.04052 0.41104 0.12899 0.0
C1409 C 0.02916 0.39824 0.10018 0.0
C1410 C 0.04916 0.39503 0.14267 0.0
C1411 C 0.0465 0.36596 0.12781 0.0
C1412 C 0.03463 0.35308 0.09929 0.0
C1413 C 0.0262 0.36911 0.08548 0.0
C1414 C 0.05737 0.34913 0.14151 0.0
C1415 C 0.04065 0.32936 0.14609 0.0
C1416 C 0.08408 0.35295 0.15057 0.0
C1417 C 0.10305 0.3725 0.14509 0.0
C1418 C 0.10457 0.37113 0.11695 0.0
C1419 C 0.12241 0.38968 0.11208 0.0
C1420 C 0.13912 0.40946 0.13509 0.0
C1421 C 0.13813 0.41061 0.16299 0.0
C1422 C 0.12023 0.3922 0.16801 0.0
C1423 C 0.10178 0.25382 0.17087 0.0
C1424 C 0.12108 0.26616 0.1943 0.0
C1425 C 0.08587 0.2702 0.16369 0.0
C1426 C 0.08871 0.29911 0.1801 0.0
C1427 C 0.10624 0.31106 0.20509 0.0
C1428 C 0.12232 0.29478 0.21211 0.0
C1429 C 0.07669 0.3172 0.16872 0.0
C1430 C 0.09329 0.33709 0.16423 0.0
C1431 C 0.04994 0.31339 0.15976 0.0
C1432 C 0.03129 0.2935 0.16503 0.0
C1433 C 0.03027 0.2944 0.19304 0.0
C1434 C 1.01262 0.27568 0.19789 0.0
C1435 C 0.99574 0.25605 0.17495 0.0
C1436 C 0.99657 0.25501 0.14708 0.0
C1437 C 1.01419 0.27367 0.14209 0.0
H1438 H 0.98203 0.24165 0.17878 0.0
H1439 H 0.15293 0.42378 0.13127 0.0
H1440 H 0.66849 0.57303 0.8931 0.0
H1441 H 0.69225 0.6002 0.87141 0.0
H1442 H 0.6332 0.65522 0.89008 0.0
H1443 H 0.60881 0.62756 0.91117 0.0
H1444 H 0.64807 0.644 0.83651 0.0
H1445 H 0.6927 0.67434 0.93117 0.0
H1446 H 0.71534 0.66858 0.97163 0.0
H1447 H 0.77377 0.62995 0.91668 0.0
H1448 H 0.75129 0.63516 0.87577 0.0
H1449 H 0.72185 0.74733 0.80589 0.0
H1450 H 0.69606 0.72148 0.82772 0.0
H1451 H 0.75759 0.67078 0.82123 0.0
H1452 H 0.78395 0.69776 0.80092 0.0
H1453 H 0.7404 0.6808 0.86961 0.0
H1454 H 0.69557 0.64894 0.7744 0.0
H1455 H 0.67323 0.65453 0.73366 0.0
H1456 H 0.61545 0.69499 0.78855 0.0
H1457 H 0.63764 0.68995 0.82973 0.0
C1458 C 0.66029 0.59073 0.89243 0.0
C1459 C 0.63651 0.59787 0.90404 0.0
C1460 C 0.67416 0.60653 0.8802 0.0
C1461 C 0.66487 0.63017 0.87925 0.0
C1462 C 0.641 0.63723 0.89052 0.0
C1463 C 0.62712 0.62145 0.90287 0.0
C1464 C 0.68007 0.64736 0.86657 0.0
C1465 C 0.66817 0.65233 0.84404 0.0
C1466 C 0.70654 0.65792 0.87572 0.0
C1467 C 0.72018 0.65492 0.90033 0.0
C1468 C 0.71028 0.66445 0.92766 0.0
C1469 C 0.7231 0.6613 0.95068 0.0
C1470 C 0.74595 0.64885 0.9467 0.0
C1471 C 0.75606 0.63957 0.91972 0.0
C1472 C 0.7433 0.64264 0.89661 0.0
C1473 C 0.72982 0.73053 0.80892 0.0
C1474 C 0.75499 0.72458 0.80146 0.0
C1475 C 0.71492 0.71553 0.82132 0.0
C1476 C 0.7244 0.69351 0.82584 0.0
C1477 C 0.74955 0.68751 0.81814 0.0
C1478 C 0.76464 0.70289 0.80631 0.0
C1479 C 0.70857 0.6772 0.83915 0.0
C1480 C 0.72033 0.67244 0.86192 0.0
C1481 C 0.68202 0.6667 0.83006 0.0
C1482 C 0.66839 0.66928 0.8052 0.0
C1483 C 0.67816 0.65913 0.77781 0.0
C1484 C 0.66553 0.66221 0.75464 0.0
C1485 C 0.64297 0.67517 0.75854 0.0
C1486 C 0.63294 0.68499 0.78558 0.0
C1487 C 0.64552 0.682 0.80883 0.0
H1488 H 0.63325 0.67757 0.74059 0.0
H1489 H 0.75584 0.64643 0.96455 0.0
H1490 H 0.66532 0.37468 0.18043 0.0
H1491 H 0.64067 0.39989 0.15941 0.0
H1492 H 0.69392 0.38563 0.09358 0.0
H1493 H 0.71945 0.36187 0.11537 0.0
H1494 H 0.68205 0.43513 0.1084 0.0
H1495 H 0.62962 0.3474 0.08226 0.0
H1496 H 0.60538 0.31031 0.09154 0.0
H1497 H 0.55636 0.36838 0.14416 0.0
H1498 H 0.58051 0.4059 0.13546 0.0
H1499 H 0.60322 0.47097 0.01274 0.0
H1500 H 0.62912 0.4474 0.0349 0.0
H1501 H 0.57423 0.45861 0.09878 0.0
H1502 H 0.54786 0.48099 0.076 0.0
H1503 H 0.58708 0.41067 0.08508 0.0
H1504 H 0.6391 0.49847 0.11168 0.0
H1505 H 0.66324 0.53597 0.10299 0.0
H1506 H 0.71289 0.47865 0.05051 0.0
H1507 H 0.68884 0.44072 0.05862 0.0
C1508 C 0.67212 0.37713 0.16172 0.0
C1509 C 0.69453 0.36566 0.14967 0.0
C1510 C 0.65765 0.39135 0.14934 0.0
C1511 C 0.66483 0.39438 0.12425 0.0
C1512 C 0.68754 0.3836 0.11269 0.0
C1513 C 0.7021 0.36958 0.12513 0.0
C1514 C 0.64891 0.40864 0.11001 0.0
C1515 C 0.66131 0.42945 0.10302 0.0
C1516 C 0.62164 0.40206 0.10334 0.0
C1517 C 0.60703 0.3795 0.10844 0.0
C1518 C 0.61377 0.35229 0.09596 0.0
C1519 C 0.60004 0.33119 0.10109 0.0
C1520 C 0.57939 0.337 0.11849 0.0
C1521 C 0.57238 0.36391 0.13072 0.0
C1522 C 0.58607 0.3851 0.12568 0.0
C1523 C 0.59667 0.4685 0.03156 0.0
C1524 C 0.57332 0.47812 0.04246 0.0
C1525 C 0.61168 0.45509 0.04446 0.0
C1526 C 0.60417 0.45138 0.06913 0.0
C1527 C 0.58078 0.46095 0.0799 0.0
C1528 C 0.56563 0.47396 0.06679 0.0
C1529 C 0.62018 0.43727 0.08352 0.0
C1530 C 0.6078 0.41644 0.09049 0.0
C1531 C 0.64746 0.44392 0.09029 0.0
C1532 C 0.66202 0.46672 0.08553 0.0
C1533 C 0.65507 0.49383 0.09815 0.0
C1534 C 0.66875 0.51517 0.09334 0.0
C1535 C 0.68954 0.50968 0.07615 0.0
C1536 C 0.69676 0.48286 0.06379 0.0
C1537 C 0.68313 0.46144 0.06851 0.0
H1538 H 0.7001 0.52622 0.07245 0.0
H1539 H 0.56879 0.32064 0.12245 0.0
H1540 H 1.00613 0.4297 0.44442 0.0
H1541 H 0.97609 0.40587 0.40046 0.0
H1542 H 0.91677 0.4552 0.44436 0.0
H1543 H 0.94737 0.48023 0.48732 0.0
H1544 H 0.9342 0.37435 0.39091 0.0
H1545 H 0.87068 0.45858 0.39991 0.0
H1546 H 0.87235 0.50947 0.41831 0.0
H1547 H 0.95273 0.51585 0.40423 0.0
H1548 H 0.95182 0.46482 0.38604 0.0
H1549 H 0.80319 0.34883 0.3135 0.0
H1550 H 0.83695 0.38585 0.34452 0.0
H1551 H 0.89504 0.34092 0.29274 0.0
H1552 H 0.86145 0.30341 0.26261 0.0
H1553 H 0.87954 0.42116 0.34704 0.0
H1554 H 0.93818 0.33085 0.33603 0.0
H1555 H 0.93027 0.28018 0.32128 0.0
H1556 H 0.85268 0.28799 0.34636 0.0
H1557 H 0.86024 0.33852 0.36144 0.0
C1558 C 0.98659 0.43518 0.44457 0.0
C1559 C 0.97879 0.45643 0.4691 0.0
C1560 C 0.96952 0.42183 0.41945 0.0
C1561 C 0.9443 0.42922 0.41874 0.0
C1562 C 0.93635 0.44984 0.4438 0.0
C1563 C 0.95363 0.46372 0.46855 0.0
C1564 C 0.92582 0.41385 0.39254 0.0
C1565 C 0.92285 0.38473 0.38093 0.0
C1566 C 0.90985 0.42725 0.38029 0.0
C1567 C 0.91119 0.45791 0.39175 0.0
C1568 C 0.88878 0.47083 0.40079 0.0
C1569 C 0.88963 0.49966 0.41128 0.0
C1570 C 0.91275 0.51583 0.4126 0.0
C1571 C 0.93504 0.50318 0.40346 0.0
C1572 C 0.93439 0.47433 0.39316 0.0
C1573 C 0.82303 0.34758 0.30796 0.0
C1574 C 0.82999 0.32333 0.28609 0.0
C1575 C 0.84231 0.36869 0.32569 0.0
C1576 C 0.8685 0.36564 0.32136 0.0
C1577 C 0.87495 0.34334 0.29672 0.0
C1578 C 0.8558 0.32202 0.27945 0.0
C1579 C 0.8887 0.38203 0.34532 0.0
C1580 C 0.89164 0.41107 0.35665 0.0
C1581 C 0.90413 0.36873 0.35805 0.0
C1582 C 0.89969 0.33836 0.34952 0.0
C1583 C 0.91948 0.32169 0.33844 0.0
C1584 C 0.91504 0.29299 0.33 0.0
C1585 C 0.89095 0.28081 0.33274 0.0
C1586 C 0.87129 0.29732 0.34407 0.0
C1587 C 0.87563 0.32599 0.35255 0.0
H1588 H 0.88756 0.25859 0.32617 0.0
H1589 H 0.91337 0.53816 0.42059 0.0
H1590 H 0.55568 0.60863 0.50723 0.0
H1591 H 0.58711 0.63312 0.48901 0.0
H1592 H 0.6232 0.55834 0.44823 0.0
H1593 H 0.59198 0.53403 0.46724 0.0
H1594 H 0.65934 0.60304 0.46455 0.0
H1595 H 0.57584 0.5755 0.41103 0.0
H1596 H 0.52828 0.57244 0.40418 0.0
H1597 H 0.53347 0.66124 0.43633 0.0
H1598 H 0.58108 0.66487 0.44378 0.0
H1599 H 0.71265 0.63506 0.3532 0.0
H1600 H 0.68824 0.61414 0.38052 0.0
H1601 H 0.6514 0.68845 0.42066 0.0
H1602 H 0.67521 0.70927 0.39268 0.0
H1603 H 0.61633 0.64423 0.40545 0.0
H1604 H 0.70074 0.67107 0.45756 0.0
H1605 H 0.74825 0.67301 0.46345 0.0
H1606 H 0.74127 0.58421 0.43233 0.0
H1607 H 0.69371 0.58169 0.42588 0.0
C1608 C 0.5712 0.59782 0.49575 0.0
C1609 C 0.57174 0.56957 0.48953 0.0
C1610 C 0.5889 0.61171 0.48473 0.0
C1611 C 0.6073 0.59754 0.46643 0.0
C1612 C 0.60926 0.5699 0.46214 0.0
C1613 C 0.59161 0.55605 0.47344 0.0
C1614 C 0.62271 0.61074 0.44994 0.0
C1615 C 0.64985 0.61177 0.45141 0.0
C1616 C 0.61064 0.62259 0.43289 0.0
C1617 C 0.58202 0.62047 0.42825 0.0
C1618 C 0.56683 0.59439 0.41684 0.0
C1619 C 0.53986 0.59255 0.41283 0.0
C1620 C 0.52785 0.61664 0.41991 0.0
C1621 C 0.5428 0.64261 0.43092 0.0
C1622 C 0.56978 0.64457 0.43502 0.0
C1623 C 0.69922 0.647 0.36762 0.0
C1624 C 0.69607 0.67403 0.37046 0.0
C1625 C 0.6854 0.63503 0.38361 0.0
C1626 C 0.66802 0.64967 0.40317 0.0
C1627 C 0.66468 0.67657 0.40593 0.0
C1628 C 0.67855 0.68861 0.38998 0.0
C1629 C 0.65303 0.6368 0.42024 0.0
C1630 C 0.62587 0.63568 0.41873 0.0
C1631 C 0.6651 0.62472 0.43706 0.0
C1632 C 0.69368 0.62618 0.44097 0.0
C1633 C 0.70935 0.65193 0.45176 0.0
C1634 C 0.73628 0.65314 0.45524 0.0
C1635 C 0.74778 0.62874 0.4482 0.0
C1636 C 0.73234 0.60309 0.43773 0.0
C1637 C 0.7054 0.60176 0.43419 0.0
H1638 H 0.76864 0.62972 0.45091 0.0
H1639 H 0.50698 0.61518 0.41679 0.0
H1640 H 0.82443 0.35774 0.77737 0.0
H1641 H 0.84806 0.39699 0.81885 0.0
H1642 H 0.81175 0.36774 0.87732 0.0
H1643 H 0.79 0.32728 0.83591 0.0
H1644 H 0.84327 0.44009 0.87148 0.0
H1645 H 0.85369 0.36575 0.92183 0.0
H1646 H 0.84307 0.31541 0.90764 0.0
H1647 H 0.86579 0.29785 0.82213 0.0
H1648 H 0.87645 0.34809 0.83586 0.0
H1649 H 0.95737 0.47748 0.98981 0.0
H1650 H 0.91568 0.44995 0.96632 0.0
H1651 H 0.93368 0.45348 0.88577 0.0
H1652 H 0.9755 0.48057 0.90892 0.0
H1653 H 0.90454 0.39791 0.91427 0.0
H1654 H 0.87842 0.47155 0.86109 0.0
H1655 H 0.88572 0.52153 0.8725 0.0
H1656 H 0.89485 0.5413 0.96362 0.0
H1657 H 0.88693 0.49156 0.95284 0.0
C1658 C 0.82109 0.36003 0.7991 0.0
C1659 C 0.80584 0.33926 0.80355 0.0
C1660 C 0.83435 0.38262 0.82278 0.0
C1661 C 0.83207 0.38482 0.85105 0.0
C1662 C 0.81411 0.36606 0.85559 0.0
C1663 C 0.80159 0.34299 0.83193 0.0
C1664 C 0.85226 0.40259 0.8743 0.0
C1665 C 0.85657 0.43103 0.88108 0.0
C1666 C 0.86924 0.3907 0.88719 0.0
C1667 C 0.8659 0.36056 0.8799 0.0
C1668 C 0.85683 0.35109 0.90019 0.0
C1669 C 0.85063 0.3226 0.89215 0.0
C1670 C 0.85373 0.30344 0.86398 0.0
C1671 C 0.86341 0.3127 0.84393 0.0
C1672 C 0.86956 0.34115 0.85183 0.0
C1673 C 0.95251 0.47206 0.96699 0.0
C1674 C 0.96946 0.48116 0.9511 0.0
C1675 C 0.92877 0.45642 0.9537 0.0
C1676 C 0.92163 0.45018 0.92457 0.0
C1677 C 0.93888 0.4585 0.90844 0.0
C1678 C 0.96272 0.47381 0.9216 0.0
C1679 C 0.89601 0.43528 0.91073 0.0
C1680 C 0.8908 0.40729 0.90558 0.0
C1681 C 0.87824 0.44766 0.89942 0.0
C1682 C 0.88228 0.47774 0.9061 0.0
C1683 C 0.88176 0.48656 0.88357 0.0
C1684 C 0.88601 0.51487 0.88994 0.0
C1685 C 0.89075 0.53458 0.91877 0.0
C1686 C 0.89116 0.52603 0.9413 0.0
C1687 C 0.88681 0.49777 0.93507 0.0
H1688 H 0.8941 0.55648 0.92365 0.0
H1689 H 0.84857 0.28143 0.85764 0.0
H1690 H 0.81288 0.86332 0.11756 0.0
H1691 H 0.83652 0.88411 0.08964 0.0
H1692 H 0.90872 0.8814 0.13271 0.0
H1693 H 0.88519 0.8604 0.16066 0.0
H1694 H 0.91083 0.9293 0.12858 0.0
H1695 H 0.88773 0.83425 0.06049 0.0
H1696 H 0.85839 0.79115 0.03235 0.0
H1697 H 0.81534 0.83394 0.99334 0.0
H1698 H 0.8443 0.8774 0.0215 0.0
H1699 H 0.98245 0.91845 0.99757 0.0
H1700 H 0.95026 0.89622 0.01743 0.0
H1701 H 0.92048 0.9745 0.06142 0.0
H1702 H 0.95251 0.99661 0.04111 0.0
H1703 H 0.89665 0.88857 0.02102 0.0
H1704 H 0.91418 0.98272 0.13201 0.0
H1705 H 0.94697 0.02325 0.15861 0.0
H1706 H 1.00622 0.97776 0.11091 0.0
H1707 H 0.97386 0.93686 0.0844 0.0
C1708 C 0.83381 0.86674 0.12096 0.0
C1709 C 0.84692 0.85977 0.14148 0.0
C1710 C 0.8474 0.87881 0.1049 0.0
C1711 C 0.87463 0.88422 0.10858 0.0
C1712 C 0.88777 0.87764 0.1293 0.0
C1713 C 0.87419 0.86559 0.14542 0.0
C1714 C 0.88934 0.89656 0.09086 0.0
C1715 C 0.90752 0.92036 0.10508 0.0
C1716 C 0.88557 0.88507 0.06004 0.0
C1717 C 0.868 0.85911 0.04331 0.0
C1718 C 0.87185 0.83452 0.04612 0.0
C1719 C 0.85534 0.81002 0.03012 0.0
C1720 C 0.83497 0.80983 0.01114 0.0
C1721 C 0.8311 0.83414 0.0081 0.0
C1722 C 0.84757 0.8587 0.02404 0.0
C1723 C 0.96804 0.93056 0.01006 0.0
C1724 C 0.96957 0.95915 0.01688 0.0
C1725 C 0.94979 0.91787 0.0218 0.0
C1726 C 0.93299 0.93362 0.04138 0.0
C1727 C 0.9332 0.96178 0.04653 0.0
C1728 C 0.95125 0.97436 0.03443 0.0
C1729 C 0.91771 0.92149 0.05881 0.0
C1730 C 0.89957 0.89771 0.04455 0.0
C1731 C 0.9218 0.93272 0.08957 0.0
C1732 C 0.94154 0.95687 0.10604 0.0
C1733 C 0.93423 0.98134 0.12733 0.0
C1734 C 0.95273 1.00437 0.14237 0.0
C1735 C 0.97864 1.00311 0.13638 0.0
C1736 C 0.98613 0.97875 0.11547 0.0
C1737 C 0.96772 0.95564 0.10043 0.0
H1738 H 0.99292 0.02099 0.14799 0.0
H1739 H 0.82223 0.79083 0.99874 0.0
H1740 H 0.7823 0.22106 0.82824 0.0
H1741 H 0.80332 0.19249 0.84803 0.0
H1742 H 0.85973 0.1781 0.78555 0.0
H1743 H 0.83808 0.20557 0.76474 0.0
H1744 H 0.84809 0.13186 0.79036 0.0
H1745 H 0.87283 0.22538 0.86261 0.0
H1746 H 0.86711 0.27221 0.89881 0.0
H1747 H 0.82115 0.23659 0.94567 0.0
H1748 H 0.82681 0.18948 0.9099 0.0
H1749 H 0.93816 0.0785 0.85879 0.0
H1750 H 0.91647 0.10615 0.83845 0.0
H1751 H 0.85999 0.12013 0.90091 0.0
H1752 H 0.88213 0.0934 0.92207 0.0
H1753 H 0.8713 0.16638 0.8962 0.0
H1754 H 0.84713 0.07318 0.82537 0.0
H1755 H 0.85371 0.02606 0.79048 0.0
H1756 H 0.89762 0.06049 0.74113 0.0
H1757 H 0.89155 0.10786 0.77592 0.0
C1758 C 0.79915 0.21185 0.81859 0.0
C1759 C 0.80828 0.21589 0.79469 0.0
C1760 C 0.81145 0.19565 0.83026 0.0
C1761 C 0.83373 0.18335 0.81902 0.0
C1762 C 0.84275 0.1872 0.795 0.0
C1763 C 0.83028 0.20313 0.78308 0.0
C1764 C 0.84737 0.16631 0.83192 0.0
C1765 C 0.85345 0.13973 0.81349 0.0
C1766 C 0.85397 0.17567 0.86227 0.0
C1767 C 0.84996 0.20391 0.88336 0.0
C1768 C 0.86127 0.22753 0.88046 0.0
C1769 C 0.85805 0.25413 0.90092 0.0
C1770 C 0.84347 0.25739 0.9243 0.0
C1771 C 0.83237 0.23404 0.92749 0.0
C1772 C 0.83562 0.20739 0.90718 0.0
C1773 C 0.92128 0.08759 0.86852 0.0
C1774 C 0.91214 0.08326 0.89229 0.0
C1775 C 0.90855 0.10327 0.85649 0.0
C1776 C 0.88605 0.1152 0.86757 0.0
C1777 C 0.8771 0.11126 0.89154 0.0
C1778 C 0.88979 0.09557 0.90357 0.0
C1779 C 0.87212 0.13202 0.85464 0.0
C1780 C 0.86594 0.15851 0.87306 0.0
C1781 C 0.86532 0.12251 0.82432 0.0
C1782 C 0.86911 0.09409 0.80343 0.0
C1783 C 0.85837 0.07072 0.80721 0.0
C1784 C 0.86197 0.04396 0.78743 0.0
C1785 C 0.87614 0.04029 0.76366 0.0
C1786 C 0.88669 0.06337 0.75958 0.0
C1787 C 0.88315 0.09018 0.77931 0.0
H1788 H 0.87889 0.01956 0.74836 0.0
H1789 H 0.84093 0.27801 0.94003 0.0
H1790 H 0.69363 0.19026 0.71976 0.0
H1791 H 0.67951 0.15054 0.67333 0.0
H1792 H 0.73248 0.18477 0.63022 0.0
H1793 H 0.74556 0.22506 0.67655 0.0
H1794 H 0.68835 0.16641 0.5991 0.0
H1795 H 0.74621 0.12671 0.63663 0.0
H1796 H 0.77048 0.11568 0.67244 0.0
H1797 H 0.70116 0.07244 0.68384 0.0
H1798 H 0.67632 0.0836 0.64849 0.0
H1799 H 0.61198 1.01317 0.53614 0.0
H1800 H 0.65428 0.04163 0.54803 0.0
H1801 H 0.6157 0.11574 0.57621 0.0
H1802 H 0.57399 0.08743 0.56276 0.0
H1803 H 0.67423 0.07199 0.59635 0.0
H1804 H 0.64652 0.17111 0.58065 0.0
H1805 H 0.628 0.18122 0.54118 0.0
H1806 H 0.64536 0.10272 0.47808 0.0
H1807 H 0.66443 0.09222 0.5171 0.0
C1808 C 0.70212 0.18919 0.70029 0.0
C1809 C 0.72112 0.21004 0.7015 0.0
C1810 C 0.69439 0.16644 0.67393 0.0
C1811 C 0.70564 0.16431 0.64853 0.0
C1812 C 0.72405 0.18571 0.64967 0.0
C1813 C 0.73172 0.20848 0.67608 0.0
C1814 C 0.69653 0.14045 0.62073 0.0
C1815 C 0.68546 0.1456 0.59809 0.0
C1816 C 0.69467 0.11301 0.61848 0.0
C1817 C 0.70938 0.10599 0.63978 0.0
C1818 C 0.73608 0.11496 0.64685 0.0
C1819 C 0.74996 0.10868 0.66709 0.0
C1820 C 0.73738 0.09335 0.68038 0.0
C1821 C 0.71089 0.08426 0.67346 0.0
C1822 C 0.69691 0.0905 0.65325 0.0
C1823 C 0.61277 0.03555 0.54441 0.0
C1824 C 0.58998 0.04831 0.54905 0.0
C1825 C 0.63684 0.05176 0.55095 0.0
C1826 C 0.63834 0.0809 0.56267 0.0
C1827 C 0.61532 0.09336 0.56625 0.0
C1828 C 0.59139 0.07719 0.55911 0.0
C1829 C 0.66312 0.09867 0.57646 0.0
C1830 C 0.67766 0.0924 0.59643 0.0
C1831 C 0.66896 0.12476 0.57549 0.0
C1832 C 0.65713 0.13093 0.55192 0.0
C1833 C 0.64669 0.15607 0.55837 0.0
C1834 C 0.63601 0.16186 0.53606 0.0
C1835 C 0.63567 0.14271 0.50715 0.0
C1836 C 0.64573 0.11758 0.5005 0.0
C1837 C 0.65643 0.11167 0.52272 0.0
H1838 H 0.62758 0.14734 0.48991 0.0
H1839 H 0.74815 0.08851 0.69605 0.0
H1840 H 0.59279 0.99163 0.44032 0.0
H1841 H 0.62173 0.96048 0.40983 0.0
H1842 H 0.59315 0.89729 0.43701 0.0
H1843 H 0.56378 0.92842 0.46758 0.0
H1844 H 0.64776 0.90378 0.43749 0.0
H1845 H 0.57371 0.89057 0.37121 0.0
H1846 H 0.54037 0.90573 0.34694 0.0
H1847 H 0.59951 0.94263 0.3132 0.0
H1848 H 0.63325 0.92806 0.33766 0.0
H1849 H 0.70867 0.79565 0.33399 0.0
H1850 H 0.67784 0.82407 0.36417 0.0
H1851 H 0.6912 0.88222 0.32581 0.0
H1852 H 0.72121 0.8531 0.29459 0.0
H1853 H 0.6431 0.87744 0.33145 0.0
H1854 H 0.71721 0.89367 0.39826 0.0
H1855 H 0.75186 0.88112 0.42357 0.0
H1856 H 0.69492 0.84187 0.45749 0.0
H1857 H 0.65991 0.85389 0.43207 0.0
C1858 C 0.59254 0.97111 0.4399 0.0
C1859 C 0.57575 0.96263 0.45649 0.0
C1860 C 0.60914 0.95323 0.42229 0.0
C1861 C 0.60963 0.92634 0.42082 0.0
C1862 C 0.59319 0.91788 0.43766 0.0
C1863 C 0.57629 0.93569 0.45507 0.0
C1864 C 0.62729 0.90725 0.40167 0.0
C1865 C 0.64649 0.89766 0.41423 0.0
C1866 C 0.62627 0.89983 0.37139 0.0
C1867 C 0.60602 0.90843 0.35648 0.0
C1868 C 0.57962 0.9021 0.3588 0.0
C1869 C 0.56064 0.91056 0.34498 0.0
C1870 C 0.56782 0.92519 0.32859 0.0
C1871 C 0.59399 0.93132 0.32593 0.0
C1872 C 0.61304 0.92295 0.33975 0.0
C1873 C 0.70512 0.81452 0.33196 0.0
C1874 C 0.71764 0.82206 0.31183 0.0
C1875 C 0.6875 0.83096 0.34948 0.0
C1876 C 0.68232 0.85586 0.34798 0.0
C1877 C 0.69469 0.86326 0.32766 0.0
C1878 C 0.71199 0.84657 0.30978 0.0
C1879 C 0.66389 0.87396 0.36721 0.0
C1880 C 0.64448 0.88342 0.35469 0.0
C1881 C 0.66496 0.88159 0.39761 0.0
C1882 C 0.68595 0.87444 0.41302 0.0
C1883 C 0.71208 0.8822 0.41096 0.0
C1884 C 0.73178 0.87521 0.42534 0.0
C1885 C 0.72559 0.86064 0.44206 0.0
C1886 C 0.69968 0.85311 0.4445 0.0
C1887 C 0.6799 0.86003 0.43013 0.0
H1888 H 0.74087 0.85524 0.45317 0.0
H1889 H 0.5531 0.93172 0.31791 0.0
H1890 H 0.88426 0.17555 0.34062 0.0
H1891 H 0.91012 0.15225 0.36291 0.0
H1892 H 0.8458 0.14214 0.40957 0.0
H1893 H 0.82027 0.16659 0.38853 0.0
H1894 H 0.88788 0.15499 0.44444 0.0
H1895 H 0.86477 0.08718 0.34604 0.0
H1896 H 0.86183 0.06938 0.29264 0.0
H1897 H 0.94471 0.0823 0.29535 0.0
H1898 H 0.94813 0.1005 0.34881 0.0
H1899 H 0.94026 0.05692 0.48865 0.0
H1900 H 0.91321 0.08046 0.46745 0.0
H1901 H 0.97463 0.08763 0.41588 0.0
H1902 H 1.00112 0.06328 0.43603 0.0
H1903 H 0.93309 0.07586 0.38346 0.0
H1904 H 0.95677 0.14433 0.48131 0.0
H1905 H 0.96038 0.16287 0.53477 0.0
H1906 H 0.87762 0.14977 0.53339 0.0
H1907 H 0.87354 0.13082 0.47987 0.0
C1908 C 0.87556 0.1687 0.35584 0.0
C1909 C 0.8498 0.17302 0.36234 0.0
C1910 C 0.8904 0.15494 0.3684 0.0
C1911 C 0.87999 0.14471 0.38772 0.0
C1912 C 0.8545 0.14947 0.39468 0.0
C1913 C 0.83969 0.16331 0.38224 0.0
C1914 C 0.89551 0.12917 0.40068 0.0
C1915 C 0.89746 0.13746 0.43096 0.0
C1916 C 0.9087 0.10655 0.38357 0.0
C1917 C 0.90668 0.09544 0.35143 0.0
C1918 C 0.88236 0.08639 0.33525 0.0
C1919 C 0.88061 0.0762 0.30498 0.0
C1920 C 0.90307 0.07478 0.29062 0.0
C1921 C 0.92733 0.08345 0.3065 0.0
C1922 C 0.92919 0.09367 0.33678 0.0
C1923 C 0.948 0.06348 0.47277 0.0
C1924 C 0.97303 0.05804 0.4642 0.0
C1925 C 0.93252 0.07722 0.46072 0.0
C1926 C 0.94176 0.0865 0.44015 0.0
C1927 C 0.9667 0.08086 0.43154 0.0
C1928 C 0.98199 0.06686 0.44325 0.0
C1929 C 0.92567 0.10176 0.4273 0.0
C1930 C 0.92355 0.0934 0.39699 0.0
C1931 C 0.91246 0.12441 0.44443 0.0
C1932 C 0.91487 0.1359 0.47658 0.0
C1933 C 0.93936 0.14524 0.4924 0.0
C1934 C 0.94149 0.15584 0.52271 0.0
C1935 C 0.91925 0.15743 0.53746 0.0
C1936 C 0.89483 0.14849 0.52193 0.0
C1937 C 0.89259 0.13783 0.49162 0.0
H1938 H 0.92094 0.16564 0.56093 0.0
H1939 H 0.90167 0.06689 0.26718 0.0
H1940 H 0.69944 0.2033 0.22115 0.0
H1941 H 0.67764 0.15647 0.19484 0.0
H1942 H 0.75121 0.1265 0.16961 0.0
H1943 H 0.77246 0.17434 0.19353 0.0
H1944 H 0.72527 0.10893 0.12557 0.0
H1945 H 0.70448 0.09724 0.20639 0.0
H1946 H 0.69286 0.10666 0.2558 0.0
H1947 H 0.61729 0.1229 0.23447 0.0
H1948 H 0.62852 0.1141 0.18511 0.0
H1949 H 0.58321 0.02881 0.06349 0.0
H1950 H 0.62123 0.03776 0.0976 0.0
H1951 H 0.65606 0.09817 0.06927 0.0
H1952 H 0.61926 0.08707 0.03343 0.0
H1953 H 0.63765 0.07637 0.14146 0.0
H1954 H 0.71781 0.11447 0.08172 0.0
H1955 H 0.733 0.09766 0.03291 0.0
H1956 H 0.69592 1.01554 0.01237 0.0
H1957 H 0.68119 0.03156 0.06149 0.0
C1958 C 0.71095 0.18649 0.21077 0.0
C1959 C 0.73737 0.1921 0.20895 0.0
C1960 C 0.69856 0.15947 0.19595 0.0
C1961 C 0.71264 0.13749 0.18004 0.0
C1962 C 0.73974 0.14295 0.18126 0.0
C1963 C 0.75193 0.1702 0.19503 0.0
C1964 C 0.6985 0.11119 0.15752 0.0
C1965 C 0.7063 0.10147 0.12919 0.0
C1966 C 0.67454 0.09949 0.1621 0.0
C1967 C 0.66738 0.10485 0.19185 0.0
C1968 C 0.68541 0.10293 0.21222 0.0
C1969 C 0.67888 0.10818 0.24026 0.0
C1970 C 0.65434 0.11533 0.24825 0.0
C1971 C 0.63627 0.11725 0.22822 0.0
C1972 C 0.64268 0.11203 0.20014 0.0
C1973 C 0.59931 0.0436 0.06434 0.0
C1974 C 0.59848 0.0574 0.0461 0.0
C1975 C 0.62103 0.04871 0.08379 0.0
C1976 C 0.64191 0.06837 0.08593 0.0
C1977 C 0.64088 0.08206 0.06745 0.0
C1978 C 0.61964 0.0761 0.04724 0.0
C1979 C 0.66327 0.07726 0.10954 0.0
C1980 C 0.65693 0.08315 0.13796 0.0
C1981 C 0.68914 0.08413 0.10507 0.0
C1982 C 0.69834 0.07428 0.07548 0.0
C1983 C 0.71313 0.09273 0.06702 0.0
C1984 C 0.72165 0.08333 0.03922 0.0
C1985 C 0.71537 0.05557 0.01951 0.0
C1986 C 0.70072 0.03707 0.02764 0.0
C1987 C 0.69232 0.04629 0.05551 0.0
H1988 H 0.72187 0.04839 0.99793 0.0
H1989 H 0.64934 0.1194 0.26998 0.0
H1990 H 0.75702 0.85172 0.84853 0.0
H1991 H 0.72706 0.8816 0.87925 0.0
H1992 H 0.66738 0.8474 0.80799 0.0
H1993 H 0.69701 0.81687 0.77732 0.0
H1994 H 0.6735 0.90869 0.84077 0.0
H1995 H 0.66184 0.8248 0.85543 0.0
H1996 H 0.67687 0.78779 0.86721 0.0
H1997 H 0.70784 0.84841 0.95191 0.0
H1998 H 0.69338 0.88587 0.94044 0.0
H1999 H 0.56532 0.96103 0.91568 0.0
H2000 H 0.59528 0.93148 0.88524 0.0
H2001 H 0.64494 0.9459 0.96166 0.0
H2002 H 0.61423 0.97459 0.99236 0.0
H2003 H 0.64505 0.89489 0.92624 0.0
H2004 H 0.65786 0.97883 0.91334 0.0
H2005 H 0.64481 1.01718 0.90272 0.0
H2006 H 0.61473 0.95915 0.81653 0.0
H2007 H 0.62731 0.92035 0.82681 0.0
C2008 C 0.73759 0.85068 0.83926 0.0
C2009 C 0.72952 0.83184 0.81035 0.0
C2010 C 0.72042 0.86774 0.85694 0.0
C2011 C 0.69486 0.86679 0.84605 0.0
C2012 C 0.68696 0.8486 0.81695 0.0
C2013 C 0.70396 0.8311 0.79943 0.0
C2014 C 0.67625 0.88425 0.86522 0.0
C2015 C 0.66702 0.90547 0.85925 0.0
C2016 C 0.66831 0.88068 0.88989 0.0
C2017 C 0.67678 0.85818 0.89695 0.0
C2018 C 0.67207 0.83027 0.87647 0.0
C2019 C 0.68044 0.8092 0.88311 0.0
C2020 C 0.69336 0.81575 0.91026 0.0
C2021 C 0.69786 0.84338 0.93087 0.0
C2022 C 0.68957 0.86454 0.92431 0.0
C2023 C 0.58262 0.95798 0.92609 0.0
C2024 C 0.58734 0.97041 0.95657 0.0
C2025 C 0.59994 0.94111 0.90855 0.0
C2026 C 0.62294 0.93672 0.92084 0.0
C2027 C 0.6275 0.94884 0.95137 0.0
C2028 C 0.60991 0.96536 0.969 0.0
C2029 C 0.64206 0.91953 0.90187 0.0
C2030 C 0.65148 0.89831 0.90785 0.0
C2031 C 0.65048 0.92336 0.8774 0.0
C2032 C 0.64331 0.94666 0.87094 0.0
C2033 C 0.64834 0.97423 0.89217 0.0
C2034 C 0.64103 0.99606 0.8862 0.0
C2035 C 0.62886 0.99061 0.85898 0.0
C2036 C 0.62412 0.96333 0.83762 0.0
C2037 C 0.63136 0.94141 0.84349 0.0
H2038 H 0.62313 1.0075 0.85438 0.0
H2039 H 0.69983 0.79941 0.91537 0.0
H2040 H 0.95131 0.92275 0.61514 0.0
H2041 H 0.93001 0.89787 0.64082 0.0
H2042 H 0.85886 0.93058 0.63274 0.0
H2043 H 0.88027 0.95644 0.60825 0.0
H2044 H 0.8649 0.93252 0.68478 0.0
H2045 H 0.87059 0.86102 0.5893 0.0
H2046 H 0.89278 0.83305 0.54685 0.0
H2047 H 0.9392 0.80631 0.60011 0.0
H2048 H 0.91752 0.83444 0.64298 0.0
H2049 H 0.77589 0.83971 0.71441 0.0
H2050 H 0.80087 0.86636 0.69286 0.0
H2051 H 0.86972 0.83235 0.70618 0.0
H2052 H 0.84459 0.80534 0.72759 0.0
H2053 H 0.86696 0.83135 0.65328 0.0
H2054 H 0.85995 0.9011 0.74828 0.0
H2055 H 0.83834 0.92958 0.79097 0.0
H2056 H 0.79479 0.96001 0.73898 0.0
H2057 H 0.81585 0.93137 0.69585 0.0
C2058 C 0.93119 0.92493 0.61899 0.0
C2059 C 0.91766 0.94171 0.60924 0.0
C2060 C 0.91886 0.91032 0.63349 0.0
C2061 C 0.89253 0.9118 0.63854 0.0
C2062 C 0.87909 0.92879 0.62915 0.0
C2063 C 0.8914 0.94343 0.61474 0.0
C2064 C 0.87896 0.89599 0.65373 0.0
C2065 C 0.86511 0.91032 0.67757 0.0
C2066 C 0.87966 0.86708 0.64517 0.0
C2067 C 0.89263 0.85007 0.6194 0.0
C2068 C 0.88566 0.84934 0.592 0.0
C2069 C 0.89813 0.83343 0.56786 0.0
C2070 C 0.91744 0.81798 0.5708 0.0
C2071 C 0.92427 0.81833 0.59787 0.0
C2072 C 0.91189 0.83424 0.6221 0.0
C2073 C 0.7964 0.83804 0.71301 0.0
C2074 C 0.80817 0.82036 0.72288 0.0
C2075 C 0.81077 0.85344 0.70071 0.0
C2076 C 0.83743 0.85179 0.69798 0.0
C2077 C 0.84926 0.83418 0.70794 0.0
C2078 C 0.83487 0.81879 0.72036 0.0
C2079 C 0.85264 0.86784 0.68411 0.0
C2080 C 0.86679 0.85356 0.66054 0.0
C2081 C 0.85222 0.89682 0.69291 0.0
C2082 C 0.8393 0.91385 0.71875 0.0
C2083 C 0.84558 0.91365 0.74587 0.0
C2084 C 0.83346 0.92987 0.77017 0.0
C2085 C 0.81516 0.94654 0.76768 0.0
C2086 C 0.80895 0.94705 0.74088 0.0
C2087 C 0.82098 0.93084 0.7165 0.0
H2088 H 0.80582 0.95911 0.78652 0.0
H2089 H 0.92706 0.80567 0.55208 0.0
H2090 H 0.20608 0.79018 0.82906 0.0
H2091 H 0.17202 0.81658 0.85531 0.0
H2092 H 0.18749 0.8749 0.81754 0.0
H2093 H 0.22026 0.84768 0.79009 0.0
H2094 H 0.16747 0.86236 0.89453 0.0
H2095 H 0.13784 0.90896 0.81418 0.0
H2096 H 0.13582 0.89633 0.76153 0.0
H2097 H 0.12878 0.80976 0.74391 0.0
H2098 H 0.13044 0.82186 0.79642 0.0
H2099 H 0.10007 0.97507 0.9687 0.0
H2100 H 0.1289 0.94426 0.93844 0.0
H2101 H 0.06439 0.8968 0.87594 0.0
H2102 H 0.03507 0.92863 0.90623 0.0
H2103 H 0.10433 0.89853 0.84721 0.0
H2104 H 0.09354 0.87367 0.92573 0.0
H2105 H 0.09206 0.88044 0.97666 0.0
H2106 H 0.1726 0.91303 0.99466 0.0
H2107 H 0.17449 0.90681 0.94391 0.0
C2108 C 0.20218 0.8086 0.82629 0.0
C2109 C 0.21596 0.81652 0.80714 0.0
C2110 C 0.18258 0.82383 0.84141 0.0
C2111 C 0.1763 0.84773 0.83823 0.0
C2112 C 0.19084 0.85616 0.81989 0.0
C2113 C 0.20996 0.84061 0.80429 0.0
C2114 C 0.15503 0.86399 0.85433 0.0
C2115 C 0.15374 0.87015 0.88398 0.0
C2116 C 0.13623 0.87386 0.84092 0.0
C2117 C 0.1345 0.86635 0.80926 0.0
C2118 C 0.1357 0.88723 0.79907 0.0
C2119 C 0.13466 0.88016 0.76925 0.0
C2120 C 0.13226 0.85227 0.74939 0.0
C2121 C 0.13073 0.83137 0.75931 0.0
C2122 C 0.13173 0.83832 0.7891 0.0
C2123 C 0.09174 0.9581 0.94856 0.0
C2124 C 0.0649 0.95435 0.94032 0.0
C2125 C 0.10845 0.94023 0.93118 0.0
C2126 C 0.09908 0.91739 0.905 0.0
C2127 C 0.07236 0.91399 0.89608 0.0
C2128 C 0.0555 0.93225 0.91347 0.0
C2129 C 0.11736 0.89746 0.88748 0.0
C2130 C 0.11806 0.89062 0.85764 0.0
C2131 C 0.1351 0.88617 0.90046 0.0
C2132 C 0.1341 0.88995 0.93103 0.0
C2133 C 0.1109 0.88245 0.94059 0.0
C2134 C 0.10999 0.88618 0.96942 0.0
C2135 C 0.13221 0.8972 0.98889 0.0
C2136 C 0.1554 0.90451 0.97955 0.0
C2137 C 0.15641 0.90086 0.95074 0.0
H2138 H 0.13148 0.89998 0.01117 0.0
H2139 H 0.13155 0.84685 0.72632 0.0
H2140 H 0.95961 0.50464 0.62845 0.0
H2141 H 0.92592 0.47869 0.64172 0.0
H2142 H 0.97635 0.48578 0.71499 0.0
H2143 H 1.01086 0.5106 0.70051 0.0
H2144 H 0.96218 0.43583 0.68567 0.0
H2145 H 0.91398 0.51166 0.7212 0.0
H2146 H 0.89366 0.55228 0.72303 0.0
H2147 H 0.84423 0.50031 0.64588 0.0
H2148 H 0.86451 0.45942 0.64327 0.0
H2149 H 0.83393 0.35836 0.69827 0.0
H2150 H 0.85728 0.40263 0.7043 0.0
H2151 H 0.90134 0.35913 0.63263 0.0
H2152 H 0.87837 0.31469 0.62692 0.0
H2153 H 0.86666 0.43276 0.67435 0.0
H2154 H 0.96329 0.38417 0.64922 0.0
H2155 H 0.98328 0.34529 0.65268 0.0
H2156 H 0.93598 0.34818 0.72074 0.0
H2157 H 0.91602 0.38735 0.71801 0.0
C2158 C 0.96318 0.50167 0.64808 0.0
C2159 C 0.98785 0.50944 0.66339 0.0
C2160 C 0.94378 0.48686 0.65579 0.0
C2161 C 0.94846 0.48018 0.67942 0.0
C2162 C 0.97231 0.49049 0.69653 0.0
C2163 C 0.99197 0.50476 0.68838 0.0
C2164 C 0.93062 0.45839 0.68262 0.0
C2165 C 0.94132 0.43552 0.68366 0.0
C2166 C 0.90332 0.45792 0.6805 0.0
C2167 C 0.89088 0.48244 0.682 0.0
C2168 C 0.89889 0.50889 0.7045 0.0
C2169 C 0.88736 0.53198 0.7057 0.0
C2170 C 0.86768 0.52888 0.68457 0.0
C2171 C 0.85946 0.50268 0.66224 0.0
C2172 C 0.87094 0.47952 0.66093 0.0
C2173 C 0.84819 0.35831 0.68337 0.0
C2174 C 0.85456 0.33314 0.66225 0.0
C2175 C 0.86151 0.38361 0.68688 0.0
C2176 C 0.8814 0.38409 0.66935 0.0
C2177 C 0.88642 0.35912 0.64682 0.0
C2178 C 0.87331 0.33379 0.64351 0.0
C2179 C 0.89845 0.4102 0.67607 0.0
C2180 C 0.88756 0.43363 0.67693 0.0
C2181 C 0.92561 0.41167 0.68094 0.0
C2182 C 0.93805 0.38858 0.68325 0.0
C2183 C 0.95729 0.37664 0.66506 0.0
C2184 C 0.96859 0.35452 0.66687 0.0
C2185 C 0.96086 0.34423 0.68687 0.0
C2186 C 0.94191 0.35612 0.7052 0.0
C2187 C 0.93059 0.37828 0.70353 0.0
H2188 H 0.9696 0.32708 0.68819 0.0
H2189 H 0.85879 0.54678 0.68553 0.0
H2190 H 0.55934 0.17279 0.44056 0.0
H2191 H 0.54547 0.20649 0.42379 0.0
H2192 H 0.49418 0.23344 0.49187 0.0
H2193 H 0.50865 0.20041 0.50965 0.0
H2194 H 0.46963 0.21353 0.43562 0.0
H2195 H 0.54194 0.2802 0.49333 0.0
H2196 H 0.58812 0.2951 0.51114 0.0
H2197 H 0.60766 0.27521 0.42408 0.0
H2198 H 0.56159 0.26016 0.40576 0.0
H2199 H 0.43689 0.32855 0.39936 0.0
H2200 H 0.46741 0.31412 0.42682 0.0
H2201 H 0.46908 0.23686 0.35174 0.0
H2202 H 0.43925 0.2514 0.32376 0.0
H2203 H 0.5192 0.28759 0.41658 0.0
H2204 H 0.44852 0.18935 0.37768 0.0
H2205 H 0.40321 0.17249 0.35674 0.0
H2206 H 0.38138 0.25379 0.40541 0.0
H2207 H 0.42644 0.27095 0.427 0.0
C2208 C 0.54587 0.18657 0.45278 0.0
C2209 C 0.53494 0.18362 0.47636 0.0
C2210 C 0.5379 0.20581 0.44303 0.0
C2211 C 0.51879 0.2224 0.45656 0.0
C2212 C 0.50894 0.22075 0.48112 0.0
C2213 C 0.5171 0.2017 0.4911 0.0
C2214 C 0.50655 0.23831 0.44257 0.0
C2215 C 0.48043 0.22997 0.43185 0.0
C2216 C 0.52074 0.25941 0.4372 0.0
C2217 C 0.54836 0.26892 0.44818 0.0
C2218 C 0.55611 0.27891 0.47798 0.0
C2219 C 0.58225 0.28742 0.48817 0.0
C2220 C 0.60082 0.28599 0.46874 0.0
C2221 C 0.59327 0.27619 0.43909 0.0
C2222 C 0.56713 0.2678 0.42881 0.0
C2223 C 0.4445 0.30896 0.3883 0.0
C2224 C 0.43524 0.29088 0.35949 0.0
C2225 C 0.46198 0.30079 0.40406 0.0
C2226 C 0.47024 0.27439 0.39132 0.0
C2227 C 0.4628 0.25731 0.36191 0.0
C2228 C 0.44553 0.26552 0.34609 0.0
C2229 C 0.48245 0.26262 0.40974 0.0
C2230 C 0.50844 0.2715 0.42092 0.0
C2231 C 0.46824 0.24181 0.41547 0.0
C2232 C 0.44085 0.23145 0.40374 0.0
C2233 C 0.43399 0.20354 0.38406 0.0
C2234 C 0.40837 0.19395 0.37206 0.0
C2235 C 0.38944 0.21208 0.37967 0.0
C2236 C 0.39607 0.23979 0.39946 0.0
C2237 C 0.42164 0.24946 0.41159 0.0
H2238 H 0.36964 0.20464 0.37028 0.0
H2239 H 0.62105 0.29259 0.47667 0.0
H2240 H 0.55665 0.57468 0.08949 0.0
H2241 H 0.58059 0.6165 0.12767 0.0
H2242 H 0.55522 0.66544 0.08401 0.0
H2243 H 0.53173 0.62352 0.04548 0.0
H2244 H 0.60555 0.66835 0.08796 0.0
H2245 H 0.54231 0.6815 0.15478 0.0
H2246 H 0.51006 0.6687 0.18254 0.0
H2247 H 0.56954 0.64405 0.22486 0.0
H2248 H 0.60212 0.6563 0.19705 0.0
H2249 H 0.69469 0.76753 0.22861 0.0
H2250 H 0.65201 0.75158 0.20073 0.0
H2251 H 0.67941 0.67478 0.14512 0.0
H2252 H 0.72174 0.69027 0.17325 0.0
H2253 H 0.621 0.70075 0.19463 0.0
H2254 H 0.65166 0.65818 0.07667 0.0
H2255 H 0.68375 0.67138 0.04898 0.0
H2256 H 0.68749 0.75704 0.10928 0.0
H2257 H 0.6551 0.74445 0.13706 0.0
C2258 C 0.55529 0.59454 0.08871 0.0
C2259 C 0.54279 0.59593 0.0644 0.0
C2260 C 0.56894 0.61849 0.11059 0.0
C2261 C 0.56988 0.64409 0.10855 0.0
C2262 C 0.55488 0.64589 0.08591 0.0
C2263 C 0.54146 0.62196 0.06396 0.0
C2264 C 0.59031 0.66703 0.12624 0.0
C2265 C 0.60863 0.67582 0.11137 0.0
C2266 C 0.59417 0.67713 0.1568 0.0
C2267 C 0.57468 0.66977 0.17372 0.0
C2268 C 0.54851 0.67319 0.16986 0.0
C2269 C 0.53016 0.66605 0.18564 0.0
C2270 C 0.53774 0.65555 0.20544 0.0
C2271 C 0.5637 0.65221 0.20953 0.0
C2272 C 0.58213 0.65931 0.19381 0.0
C2273 C 0.69171 0.74752 0.21002 0.0
C2274 C 0.71137 0.73001 0.20296 0.0
C2275 C 0.66735 0.73842 0.19431 0.0
C2276 C 0.66269 0.71207 0.17097 0.0
C2277 C 0.68276 0.69527 0.16299 0.0
C2278 C 0.70687 0.70409 0.179 0.0
C2279 C 0.63648 0.70075 0.15604 0.0
C2280 C 0.61731 0.69397 0.17137 0.0
C2281 C 0.63171 0.69255 0.12589 0.0
C2282 C 0.65101 0.70032 0.10905 0.0
C2283 C 0.65919 0.67986 0.08393 0.0
C2284 C 0.67746 0.68723 0.06823 0.0
C2285 C 0.68769 0.71502 0.0774 0.0
C2286 C 0.67961 0.73551 0.10225 0.0
C2287 C 0.66132 0.72826 0.118 0.0
H2288 H 0.70185 0.72068 0.06522 0.0
H2289 H 0.5235 0.65003 0.21763 0.0
H2290 H 0.20399 0.26912 0.71273 0.0
H2291 H 0.16184 0.25381 0.68363 0.0
H2292 H 0.1793 0.16913 0.64844 0.0
H2293 H 0.22135 0.18415 0.67691 0.0
H2294 H 0.15101 0.19628 0.60919 0.0
H2295 H 0.12947 0.15729 0.69153 0.0
H2296 H 0.13986 0.16949 0.74364 0.0
H2297 H 0.13653 0.25571 0.76366 0.0
H2298 H 0.12582 0.24389 0.71171 0.0
H2299 H 0.05757 0.0756 0.5881 0.0
H2300 H 0.08337 0.11691 0.62471 0.0
H2301 H 0.05672 0.16612 0.58199 0.0
H2302 H 0.03158 0.12449 0.54461 0.0
H2303 H 0.08477 0.16949 0.66325 0.0
H2304 H 0.11037 0.20217 0.57178 0.0
H2305 H 0.10641 0.18237 0.51815 0.0
H2306 H 0.10779 0.10044 0.51427 0.0
H2307 H 0.11257 0.11981 0.56767 0.0
C2308 C 0.19907 0.24736 0.69817 0.0
C2309 C 0.2157 0.22771 0.69727 0.0
C2310 C 0.17503 0.23869 0.68172 0.0
C2311 C 0.16752 0.21037 0.66436 0.0
C2312 C 0.18486 0.19108 0.66187 0.0
C2313 C 0.20882 0.19968 0.67815 0.0
C2314 C 0.14079 0.19987 0.65101 0.0
C2315 C 0.13601 0.1914 0.62108 0.0
C2316 C 0.12186 0.19259 0.66651 0.0
C2317 C 0.12698 0.19974 0.69784 0.0
C2318 C 0.13077 0.17881 0.70712 0.0
C2319 C 0.13676 0.18565 0.73659 0.0
C2320 C 0.1389 0.21336 0.75694 0.0
C2321 C 0.13491 0.23426 0.74788 0.0
C2322 C 0.12889 0.22751 0.71844 0.0
C2323 C 0.05641 0.09541 0.58714 0.0
C2324 C 0.04324 0.09684 0.56318 0.0
C2325 C 0.07112 0.11908 0.60815 0.0
C2326 C 0.07257 0.1444 0.60553 0.0
C2327 C 0.05629 0.14663 0.58402 0.0
C2328 C 0.04191 0.12288 0.56273 0.0
C2329 C 0.09461 0.16607 0.62121 0.0
C2330 C 0.09887 0.17594 0.65149 0.0
C2331 C 0.11337 0.17414 0.60585 0.0
C2332 C 0.11138 0.16241 0.57367 0.0
C2333 C 0.10997 0.17995 0.55942 0.0
C2334 C 0.10766 0.1688 0.52905 0.0
C2335 C 0.10681 0.14014 0.51276 0.0
C2336 C 0.1085 0.12261 0.52681 0.0
C2337 C 0.11106 0.13367 0.55713 0.0
H2338 H 0.10488 0.13152 0.48926 0.0
H2339 H 0.14364 0.21864 0.77973 0.0
H2340 H 0.69389 0.31751 0.26872 0.0
H2341 H 0.66081 0.34431 0.29582 0.0
H2342 H 0.69075 0.3376 0.37283 0.0
H2343 H 0.72346 0.3096 0.34528 0.0
H2344 H 0.64125 0.33374 0.37298 0.0
H2345 H 0.70145 0.39984 0.35914 0.0
H2346 H 0.72813 0.41904 0.33135 0.0
H2347 H 0.65965 0.42149 0.28256 0.0
H2348 H 0.63256 0.40198 0.30984 0.0
H2349 H 0.58543 0.44595 0.47612 0.0
H2350 H 0.61388 0.41504 0.44509 0.0
H2351 H 0.57364 0.41614 0.36968 0.0
H2352 H 0.54483 0.44781 0.40109 0.0
H2353 H 0.62647 0.42207 0.36723 0.0
H2354 H 0.56651 0.35595 0.38268 0.0
H2355 H 0.54086 0.33903 0.41306 0.0
H2356 H 0.61063 0.33992 0.46198 0.0
H2357 H 0.63668 0.35655 0.43171 0.0
C2358 C 0.69357 0.32164 0.29144 0.0
C2359 C 0.71173 0.31132 0.30466 0.0
C2360 C 0.67456 0.33731 0.30713 0.0
C2361 C 0.67327 0.34391 0.33689 0.0
C2362 C 0.69109 0.33316 0.35004 0.0
C2363 C 0.70996 0.31709 0.3342 0.0
C2364 C 0.65344 0.36186 0.35406 0.0
C2365 C 0.63836 0.35317 0.37183 0.0
C2366 C 0.64881 0.3872 0.35258 0.0
C2367 C 0.66501 0.39919 0.33634 0.0
C2368 C 0.69209 0.40432 0.34237 0.0
C2369 C 0.70729 0.41528 0.32672 0.0
C2370 C 0.6956 0.4214 0.30514 0.0
C2371 C 0.66867 0.41669 0.29925 0.0
C2372 C 0.65339 0.40571 0.31482 0.0
C2373 C 0.58227 0.43959 0.45291 0.0
C2374 C 0.56248 0.44958 0.44134 0.0
C2375 C 0.59868 0.42161 0.43503 0.0
C2376 C 0.59602 0.41269 0.40474 0.0
C2377 C 0.57623 0.42246 0.39291 0.0
C2378 C 0.55956 0.44048 0.41092 0.0
C2379 C 0.61444 0.39389 0.38599 0.0
C2380 C 0.62929 0.40249 0.36808 0.0
C2381 C 0.61904 0.36863 0.38754 0.0
C2382 C 0.60351 0.35761 0.40503 0.0
C2383 C 0.57636 0.35249 0.3999 0.0
C2384 C 0.56176 0.3429 0.41706 0.0
C2385 C 0.5741 0.33845 0.43947 0.0
C2386 C 0.60109 0.3433 0.44457 0.0
C2387 C 0.61579 0.35265 0.42732 0.0
H2388 H 0.56276 0.33121 0.45286 0.0
H2389 H 0.70739 0.42986 0.29303 0.0
H2390 H 0.40649 0.97742 0.07393 0.0
H2391 H 0.36433 0.95911 0.08195 0.0
H2392 H 0.40194 0.93077 0.14032 0.0
H2393 H 0.44385 0.94985 0.13321 0.0
H2394 H 0.34836 0.90885 0.06522 0.0
H2395 H 0.36667 0.92094 0.18592 0.0
H2396 H 0.38328 0.95829 0.23354 0.0
H2397 H 0.36729 0.0197 0.2029 0.0
H2398 H 0.35009 0.98275 0.15521 0.0
H2399 H 0.33923 0.79313 0.08862 0.0
H2400 H 0.34275 0.83485 0.07986 0.0
H2401 H 0.28399 0.86713 0.13812 0.0
H2402 H 0.28087 0.82553 0.14745 0.0
H2403 H 0.32576 0.90186 0.15587 0.0
H2404 H 0.2751 0.86274 0.06876 0.0
H2405 H 0.25507 0.82779 0.02126 0.0
H2406 H 0.3285 0.82549 0.98564 0.0
H2407 H 0.34913 0.86008 0.03301 0.0
C2408 C 0.40569 0.96792 0.08909 0.0
C2409 C 0.42856 0.96508 0.10295 0.0
C2410 C 0.38155 0.95753 0.09368 0.0
C2411 C 0.37981 0.94375 0.11192 0.0
C2412 C 0.40256 0.94203 0.1268 0.0
C2413 C 0.42664 0.95282 0.12258 0.0
C2414 C 0.35531 0.92719 0.11195 0.0
C2415 C 0.34304 0.90765 0.08508 0.0
C2416 C 0.34711 0.92663 0.13789 0.0
C2417 C 0.35699 0.94896 0.16688 0.0
C2418 C 0.36637 0.94238 0.18937 0.0
C2419 C 0.37599 0.96351 0.21639 0.0
C2420 C 0.37634 0.99134 0.22125 0.0
C2421 C 0.36703 0.99812 0.1991 0.0
C2422 C 0.35736 0.97708 0.17206 0.0
C2423 C 0.3265 0.80873 0.09883 0.0
C2424 C 0.31002 0.80626 0.11891 0.0
C2425 C 0.32828 0.83249 0.0936 0.0
C2426 C 0.31357 0.85417 0.10833 0.0
C2427 C 0.29543 0.85065 0.12647 0.0
C2428 C 0.29359 0.82679 0.13164 0.0
C2429 C 0.32131 0.88192 0.10906 0.0
C2430 C 0.33026 0.90374 0.13609 0.0
C2431 C 0.3258 0.88506 0.08334 0.0
C2432 C 0.31367 0.86417 0.05456 0.0
C2433 C 0.28704 0.85472 0.05086 0.0
C2434 C 0.27556 0.83495 0.02393 0.0
C2435 C 0.29049 0.82446 1.00044 0.0
C2436 C 0.31694 0.83371 1.00384 0.0
C2437 C 0.32853 0.85348 0.03074 0.0
H2438 H 0.28158 0.80915 0.9796 0.0
H2439 H 0.38383 1.00766 0.24217 0.0
H2440 H 0.98045 0.67573 0.97786 0.0
H2441 H 0.97105 0.71414 0.96649 0.0
H2442 H 0.05229 0.74573 0.98222 0.0
H2443 H 0.06208 0.70602 0.99166 0.0
H2444 H 0.97474 0.76716 0.98948 0.0
H2445 H 0.06687 0.77366 0.9346 0.0
H2446 H 0.1021 0.7458 0.91308 0.0
H2447 H 0.05053 0.6706 0.8896 0.0
H2448 H 1.01498 0.69804 0.91072 0.0
H2449 H 0.9356 0.84442 0.91668 0.0
H2450 H 0.96834 0.83454 0.94575 0.0
H2451 H 0.9726 0.75505 0.87444 0.0
H2452 H 0.94175 0.76581 0.84448 0.0
H2453 H 1.01659 0.77059 0.90498 0.0
H2454 H 0.92605 0.76534 0.92704 0.0
H2455 H 0.88609 0.78732 0.94085 0.0
H2456 H 0.9267 0.84835 0.02043 0.0
H2457 H 0.96697 0.82694 1.00683 0.0
C2458 C 0.99637 0.69081 0.97891 0.0
C2459 C 1.02208 0.68734 0.98491 0.0
C2460 C 0.99093 0.71306 0.9728 0.0
C2461 C 1.01101 0.7326 0.97292 0.0
C2462 C 0.03652 0.7306 0.9814 0.0
C2463 C 0.04205 0.70801 0.98709 0.0
C2464 C 1.00507 0.75299 0.96123 0.0
C2465 C 0.98425 0.76831 0.97136 0.0
C2466 C 1.01734 0.75456 0.93751 0.0
C2467 C 0.03845 0.73788 0.92458 0.0
C2468 C 0.0631 0.75118 0.92482 0.0
C2469 C 0.0831 0.73547 0.91269 0.0
C2470 C 0.07859 0.70645 0.90009 0.0
C2471 C 0.05403 0.69307 0.89947 0.0
C2472 C 0.03396 0.70869 0.91151 0.0
C2473 C 0.94426 0.82533 0.90672 0.0
C2474 C 0.93537 0.80548 0.87847 0.0
C2475 C 0.96286 0.8196 0.92353 0.0
C2476 C 0.97224 0.79361 0.91269 0.0
C2477 C 0.96543 0.77511 0.88352 0.0
C2478 C 0.94739 0.7811 0.86651 0.0
C2479 C 0.98548 0.78351 0.9323 0.0
C2480 C 1.00777 0.77033 0.92383 0.0
C2481 C 0.97391 0.78289 0.95678 0.0
C2482 C 0.94949 0.79478 0.96581 0.0
C2483 C 0.92639 0.78342 0.94751 0.0
C2484 C 0.90373 0.79582 0.95523 0.0
C2485 C 0.90392 0.81935 0.98136 0.0
C2486 C 0.92663 0.83026 1.00009 0.0
C2487 C 0.94937 0.818 0.9924 0.0
H2488 H 0.88647 0.82913 0.98699 0.0
H2489 H 0.0941 0.69433 0.89075 0.0
H2490 H 0.42396 0.40174 0.0796 0.0
H2491 H 0.40084 0.37489 0.10203 0.0
H2492 H 0.39285 0.45046 0.17675 0.0
H2493 H 0.41697 0.47751 0.15494 0.0
H2494 H 0.40284 0.41139 0.19443 0.0
H2495 H 0.34184 0.41488 0.12291 0.0
H2496 H 0.32565 0.40939 0.07422 0.0
H2497 H 0.33232 0.32202 0.03957 0.0
H2498 H 0.34888 0.32706 0.088 0.0
H2499 H 0.30451 0.34539 0.24888 0.0
H2500 H 0.32918 0.37587 0.23096 0.0
H2501 H 0.33882 0.30449 0.15232 0.0
H2502 H 0.31385 0.27437 0.16977 0.0
H2503 H 0.32693 0.34375 0.1382 0.0
H2504 H 0.38868 0.34029 0.20954 0.0
H2505 H 0.40425 0.3456 0.25835 0.0
H2506 H 0.39589 0.43261 0.29347 0.0
H2507 H 0.37986 0.42772 0.24492 0.0
C2508 C 0.41772 0.41279 0.10101 0.0
C2509 C 0.42249 0.44205 0.11523 0.0
C2510 C 0.4041 0.3973 0.11374 0.0
C2511 C 0.39452 0.41048 0.14104 0.0
C2512 C 0.39979 0.43961 0.15565 0.0
C2513 C 0.41346 0.45515 0.14294 0.0
C2514 C 0.37871 0.39392 0.15395 0.0
C2515 C 0.38603 0.39689 0.18222 0.0
C2516 C 0.3569 0.37453 0.13814 0.0
C2517 C 0.34682 0.37141 0.10903 0.0
C2518 C 0.34002 0.39454 0.10487 0.0
C2519 C 0.33075 0.3915 0.07733 0.0
C2520 C 0.32802 0.36539 0.05381 0.0
C2521 C 0.33448 0.34224 0.0578 0.0
C2522 C 0.34378 0.34517 0.0853 0.0
C2523 C 0.31195 0.33626 0.22781 0.0
C2524 C 0.30704 0.3074 0.21076 0.0
C2525 C 0.3262 0.3537 0.21757 0.0
C2526 C 0.33619 0.34267 0.19018 0.0
C2527 C 0.33136 0.31379 0.17337 0.0
C2528 C 0.31706 0.29649 0.18348 0.0
C2529 C 0.35123 0.36087 0.17853 0.0
C2530 C 0.34372 0.35826 0.15047 0.0
C2531 C 0.37284 0.38053 0.19454 0.0
C2532 C 0.38282 0.38358 0.22365 0.0
C2533 C 0.39 0.36052 0.22771 0.0
C2534 C 0.39892 0.36346 0.25532 0.0
C2535 C 0.40099 0.38941 0.27901 0.0
C2536 C 0.39423 0.41251 0.27511 0.0
C2537 C 0.38524 0.40967 0.24754 0.0
H2538 H 0.40788 0.39163 0.30038 0.0
H2539 H 0.32084 0.36308 0.0325 0.0
H2540 H 0.49309 0.55097 0.92787 0.0
H2541 H 0.46729 0.57538 0.90703 0.0
H2542 H 0.42482 0.6038 0.98289 0.0
H2543 H 0.45029 0.57869 1.00365 0.0
H2544 H 0.39215 0.58994 0.93686 0.0
H2545 H 0.47397 0.64702 0.9692 0.0
H2546 H 0.52153 0.65707 0.9732 0.0
H2547 H 0.51955 0.63131 0.881 0.0
H2548 H 0.47198 0.62074 0.87639 0.0
H2549 H 0.33401 0.69157 0.90508 0.0
H2550 H 0.35962 0.66804 0.92721 0.0
H2551 H 0.40241 0.63763 0.85177 0.0
H2552 H 0.37754 0.66207 0.8299 0.0
H2553 H 0.43495 0.65325 0.89851 0.0
H2554 H 0.35323 0.59555 0.86618 0.0
H2555 H 0.30572 0.58497 0.86213 0.0
H2556 H 0.30762 0.61195 0.95451 0.0
H2557 H 0.35514 0.62304 0.95915 0.0
C2558 C 0.47829 0.56239 0.94027 0.0
C2559 C 0.47402 0.56282 0.96766 0.0
C2560 C 0.46354 0.57659 0.9283 0.0
C2561 C 0.44421 0.59211 0.94343 0.0
C2562 C 0.43958 0.5922 0.97062 0.0
C2563 C 0.45427 0.57781 0.98256 0.0
C2564 C 0.42887 0.608 0.93084 0.0
C2565 C 0.40162 0.6041 0.92892 0.0
C2566 C 0.44085 0.62616 0.91968 0.0
C2567 C 0.46942 0.63286 0.92243 0.0
C2568 C 0.48369 0.64335 0.94976 0.0
C2569 C 0.51065 0.64915 0.95213 0.0
C2570 C 0.52356 0.64476 0.92736 0.0
C2571 C 0.50952 0.63467 0.90016 0.0
C2572 C 0.48256 0.62879 0.89766 0.0
C2573 C 0.34903 0.68019 0.89317 0.0
C2574 C 0.35344 0.67894 0.86545 0.0
C2575 C 0.36356 0.66633 0.90583 0.0
C2576 C 0.38291 0.65048 0.89117 0.0
C2577 C 0.38762 0.64948 0.86368 0.0
C2578 C 0.3731 0.66336 0.851 0.0
C2579 C 0.39824 0.63513 0.90447 0.0
C2580 C 0.42549 0.63914 0.90651 0.0
C2581 C 0.38626 0.6171 0.91577 0.0
C2582 C 0.35771 0.61038 0.91304 0.0
C2583 C 0.34349 0.59942 0.88565 0.0
C2584 C 0.31657 0.5933 0.88325 0.0
C2585 C 0.30365 0.59785 0.90806 0.0
C2586 C 0.31765 0.60847 0.93531 0.0
C2587 C 0.34458 0.61466 0.93784 0.0
H2588 H 0.2828 0.5931 0.90615 0.0
H2589 H 0.54444 0.64923 0.92923 0.0
H2590 H 0.03814 0.59748 0.56816 0.0
H2591 H 0.06195 0.61995 0.61647 0.0
H2592 H 0.13071 0.58536 0.5795 0.0
H2593 H 0.10626 0.56121 0.53193 0.0
H2594 H 0.12769 0.58144 0.62776 0.0
H2595 H 0.11658 0.65849 0.59823 0.0
H2596 H 0.08885 0.68717 0.58454 0.0
H2597 H 0.05062 0.7061 0.66254 0.0
H2598 H 0.07809 0.67744 0.67658 0.0
H2599 H 0.23822 0.67443 0.67417 0.0
H2600 H 0.19938 0.64085 0.65543 0.0
H2601 H 0.16166 0.68858 0.73122 0.0
H2602 H 0.20087 0.72213 0.75035 0.0
H2603 H 0.13702 0.68411 0.68063 0.0
H2604 H 0.16412 0.62199 0.71653 0.0
H2605 H 0.19381 0.59463 0.72954 0.0
H2606 H 0.20362 0.54762 0.63942 0.0
H2607 H 0.17433 0.57494 0.62584 0.0
C2608 C 0.05846 0.59516 0.57048 0.0
C2609 C 0.07073 0.57827 0.54648 0.0
C2610 C 0.07201 0.60785 0.59804 0.0
C2611 C 0.09826 0.60465 0.60167 0.0
C2612 C 0.11045 0.58802 0.57739 0.0
C2613 C 0.09669 0.57463 0.55015 0.0
C2614 C 0.11379 0.61915 0.63018 0.0
C2615 C 0.12975 0.6039 0.63941 0.0
C2616 C 0.11534 0.64825 0.64654 0.0
C2617 C 0.09918 0.66573 0.6383 0.0
C2618 C 0.10222 0.66877 0.6124 0.0
C2619 C 0.08657 0.685 0.60459 0.0
C2620 C 0.06795 0.69841 0.62263 0.0
C2621 C 0.06503 0.6957 0.64858 0.0
C2622 C 0.08066 0.67952 0.6565 0.0
C2623 C 0.22198 0.67716 0.68731 0.0
C2624 C 0.2223 0.7009 0.71341 0.0
C2625 C 0.19985 0.65789 0.67673 0.0
C2626 C 0.17764 0.66225 0.69198 0.0
C2627 C 0.17867 0.68481 0.71926 0.0
C2628 C 0.20104 0.7039 0.73012 0.0
C2629 C 0.15259 0.64661 0.67638 0.0
C2630 C 0.13449 0.66157 0.66976 0.0
C2631 C 0.14932 0.6173 0.66226 0.0
C2632 C 0.16694 0.60057 0.67017 0.0
C2633 C 0.1727 0.60592 0.69947 0.0
C2634 C 0.18947 0.5904 0.70695 0.0
C2635 C 0.20058 0.5694 0.68532 0.0
C2636 C 0.19494 0.56386 0.65615 0.0
C2637 C 0.17819 0.57932 0.64854 0.0
H2638 H 0.21357 0.55741 0.69116 0.0
H2639 H 0.05582 0.71092 0.61653 0.0
H2640 H 0.36017 0.32757 0.61996 0.0
H2641 H 0.38451 0.347 0.59122 0.0
H2642 H 0.36194 0.4277 0.6425 0.0
H2643 H 0.33764 0.40848 0.67133 0.0
H2644 H 0.35858 0.42008 0.58809 0.0
H2645 H 0.42469 0.40974 0.65014 0.0
H2646 H 0.44938 0.38534 0.67278 0.0
H2647 H 0.46813 0.329 0.58887 0.0
H2648 H 0.44324 0.35285 0.56568 0.0
H2649 H 0.45558 0.50078 0.54826 0.0
H2650 H 0.42428 0.4791 0.56948 0.0
H2651 H 0.44933 0.39926 0.5195 0.0
H2652 H 0.48124 0.42129 0.49925 0.0
H2653 H 0.45033 0.40587 0.57221 0.0
H2654 H 0.38542 0.41917 0.51058 0.0
H2655 H 0.36213 0.44593 0.48973 0.0
H2656 H 0.34199 0.49877 0.57441 0.0
H2657 H 0.36538 0.47251 0.59581 0.0
C2658 C 0.36056 0.34953 0.62544 0.0
C2659 C 0.34672 0.36627 0.64823 0.0
C2660 C 0.37455 0.3607 0.60883 0.0
C2661 C 0.37546 0.38907 0.61459 0.0
C2662 C 0.36162 0.40578 0.63726 0.0
C2663 C 0.34758 0.39463 0.65381 0.0
C2664 C 0.39075 0.40134 0.59716 0.0
C2665 C 0.37873 0.41715 0.58489 0.0
C2666 C 0.41701 0.39738 0.5923 0.0
C2667 C 0.43185 0.38289 0.60615 0.0
C2668 C 0.43388 0.392 0.63649 0.0
C2669 C 0.44795 0.3783 0.64943 0.0
C2670 C 0.46025 0.35558 0.63227 0.0
C2671 C 0.45855 0.34656 0.60213 0.0
C2672 C 0.44448 0.36017 0.58908 0.0
C2673 C 0.45338 0.47837 0.54055 0.0
C2674 C 0.4703 0.46264 0.52109 0.0
C2675 C 0.4356 0.46591 0.55305 0.0
C2676 C 0.43408 0.43726 0.54627 0.0
C2677 C 0.44989 0.42132 0.52536 0.0
C2678 C 0.46783 0.43385 0.51318 0.0
C2679 C 0.41813 0.4244 0.56277 0.0
C2680 C 0.4301 0.4086 0.57508 0.0
C2681 C 0.39189 0.42856 0.56779 0.0
C2682 C 0.37743 0.44406 0.55485 0.0
C2683 C 0.37617 0.43661 0.52478 0.0
C2684 C 0.36291 0.45166 0.51286 0.0
C2685 C 0.35065 0.47408 0.53074 0.0
C2686 C 0.3515 0.4814 0.56057 0.0
C2687 C 0.36473 0.46641 0.57261 0.0
H2688 H 0.34044 0.48575 0.52147 0.0
H2689 H 0.47115 0.34502 0.64233 0.0
H2690 H 0.25803 0.70793 0.16432 0.0
H2691 H 0.24626 0.66936 0.11669 0.0
H2692 H 0.20513 0.62304 0.15762 0.0
H2693 H 0.2192 0.66028 0.20513 0.0
H2694 H 0.22012 0.58811 0.11142 0.0
H2695 H 0.17693 0.67417 0.1345 0.0
H2696 H 0.17947 0.72401 0.14501 0.0
H2697 H 0.21584 0.70861 0.06643 0.0
H2698 H 0.21365 0.65871 0.05564 0.0
H2699 H 0.08124 0.58465 0.06872 0.0
H2700 H 0.12485 0.60916 0.07943 0.0
H2701 H 0.15467 0.53266 0.02647 0.0
H2702 H 0.11092 0.50766 0.01793 0.0
H2703 H 0.16223 0.6221 0.05651 0.0
H2704 H 0.21379 0.53331 0.05291 0.0
H2705 H 0.20578 0.4864 0.05178 0.0
H2706 H 0.14281 0.51147 0.10498 0.0
H2707 H 0.1506 0.55853 0.1065 0.0
C2708 C 0.24735 0.68905 0.1631 0.0
C2709 C 0.23932 0.68708 0.18826 0.0
C2710 C 0.24046 0.6671 0.13587 0.0
C2711 C 0.22421 0.64356 0.13341 0.0
C2712 C 0.2177 0.64092 0.1588 0.0
C2713 C 0.22547 0.66238 0.18602 0.0
C2714 C 0.21027 0.62384 0.10529 0.0
C2715 C 0.20785 0.59542 0.0989 0.0
C2716 C 0.19465 0.63318 0.08842 0.0
C2717 C 0.19536 0.66291 0.09444 0.0
C2718 C 0.18544 0.68149 0.1195 0.0
C2719 C 0.18686 0.70971 0.12552 0.0
C2720 C 0.19788 0.71948 0.10644 0.0
C2721 C 0.20737 0.70102 0.08122 0.0
C2722 C 0.20605 0.67278 0.07514 0.0
C2723 C 0.09716 0.57316 0.0594 0.0
C2724 C 0.09313 0.54434 0.04338 0.0
C2725 C 0.12207 0.58718 0.06513 0.0
C2726 C 0.14328 0.57271 0.0542 0.0
C2727 C 0.13881 0.54415 0.03588 0.0
C2728 C 0.11391 0.5299 0.03107 0.0
C2729 C 0.16977 0.58726 0.06566 0.0
C2730 C 0.17524 0.61445 0.068 0.0
C2731 C 0.18725 0.57718 0.08006 0.0
C2732 C 0.18258 0.54917 0.0795 0.0
C2733 C 0.19827 0.52874 0.06436 0.0
C2734 C 0.19377 0.50217 0.06364 0.0
C2735 C 0.17374 0.49593 0.07821 0.0
C2736 C 0.15826 0.5163 0.09364 0.0
C2737 C 0.16271 0.5429 0.09445 0.0
H2738 H 0.17026 0.47534 0.07759 0.0
H2739 H 0.19902 0.74135 0.11117 0.0
H2740 H 0.73948 0.29237 0.67625 0.0
H2741 H 0.71818 0.3192 0.65456 0.0
H2742 H 0.69196 0.36935 0.73739 0.0
H2743 H 0.71277 0.34205 0.75907 0.0
H2744 H 0.65433 0.35971 0.69757 0.0
H2745 H 0.74493 0.39173 0.70539 0.0
H2746 H 0.79095 0.38652 0.6977 0.0
H2747 H 0.77207 0.35004 0.60534 0.0
H2748 H 0.72588 0.35465 0.61246 0.0
H2749 H 0.61681 0.46766 0.66042 0.0
H2750 H 0.63771 0.44036 0.68173 0.0
H2751 H 0.66325 0.38998 0.59866 0.0
H2752 H 0.64225 0.41711 0.57708 0.0
H2753 H 0.70138 0.39971 0.63843 0.0
H2754 H 0.61142 0.36676 0.6299 0.0
H2755 H 0.56507 0.37038 0.63659 0.0
H2756 H 0.58248 0.4073 0.72919 0.0
H2757 H 0.629 0.40423 0.72306 0.0
C2758 C 0.72922 0.3091 0.68999 0.0
C2759 C 0.7281 0.31488 0.71964 0.0
C2760 C 0.71707 0.3247 0.67749 0.0
C2761 C 0.70359 0.34697 0.69419 0.0
C2762 C 0.70215 0.3525 0.72373 0.0
C2763 C 0.71421 0.3368 0.73623 0.0
C2764 C 0.69093 0.36425 0.68097 0.0
C2765 C 0.66486 0.36876 0.68504 0.0
C2766 C 0.70407 0.37574 0.66376 0.0
C2767 C 0.7319 0.37332 0.65946 0.0
C2768 C 0.75057 0.38245 0.68343 0.0
C2769 C 0.77669 0.37961 0.67918 0.0
C2770 C 0.78441 0.36791 0.65105 0.0
C2771 C 0.76605 0.35908 0.62712 0.0
C2772 C 0.7399 0.36182 0.63125 0.0
C2773 C 0.62653 0.45058 0.6464 0.0
C2774 C 0.62745 0.44486 0.61671 0.0
C2775 C 0.63865 0.43484 0.65878 0.0
C2776 C 0.65204 0.41254 0.64198 0.0
C2777 C 0.65324 0.40695 0.61242 0.0
C2778 C 0.64115 0.4227 0.60002 0.0
C2779 C 0.66479 0.39524 0.65514 0.0
C2780 C 0.69087 0.39072 0.65103 0.0
C2781 C 0.65166 0.38365 0.67224 0.0
C2782 C 0.62372 0.38553 0.67601 0.0
C2783 C 0.60539 0.37584 0.65169 0.0
C2784 C 0.57908 0.37776 0.65538 0.0
C2785 C 0.57084 0.38913 0.6833 0.0
C2786 C 0.58889 0.39854 0.70758 0.0
C2787 C 0.61523 0.3967 0.70401 0.0
H2788 H 0.55047 0.39059 0.68611 0.0
H2789 H 0.80462 0.36573 0.64777 0.0
H2790 H 0.83111 0.69073 0.22894 0.0
H2791 H 0.86183 0.66213 0.19857 0.0
H2792 H 0.86013 0.70733 0.14521 0.0
H2793 H 0.82897 0.7356 0.17511 0.0
H2794 H 0.85968 0.65437 0.11135 0.0
H2795 H 0.91146 0.71819 0.19713 0.0
H2796 H 0.92387 0.74287 0.2498 0.0
H2797 H 0.93399 0.66551 0.25398 0.0
H2798 H 0.92103 0.64023 0.20143 0.0
H2799 H 0.97253 0.6046 0.0399 0.0
H2800 H 0.94219 0.63454 0.06974 0.0
H2801 H 0.93731 0.58682 0.12055 0.0
H2802 H 0.96755 0.55687 0.09092 0.0
H2803 H 0.94184 0.64216 0.15541 0.0
H2804 H 0.88872 0.57866 0.06918 0.0
H2805 H 0.87611 0.55468 0.01648 0.0
H2806 H 0.86972 0.63312 0.01314 0.0
H2807 H 0.88264 0.6576 0.06578 0.0
C2808 C 0.83724 0.69465 0.21077 0.0
C2809 C 0.82749 0.71567 0.20468 0.0
C2810 C 0.85498 0.67829 0.1934 0.0
C2811 C 0.86378 0.68265 0.16963 0.0
C2812 C 0.85382 0.70341 0.16332 0.0
C2813 C 0.83598 0.7197 0.18059 0.0
C2814 C 0.88329 0.66564 0.15141 0.0
C2815 C 0.87779 0.65208 0.12104 0.0
C2816 C 0.90691 0.6621 0.1638 0.0
C2817 C 0.91503 0.67728 0.19536 0.0
C2818 C 0.91615 0.7064 0.2093 0.0
C2819 C 0.9233 0.72051 0.23914 0.0
C2820 C 0.92971 0.70578 0.25522 0.0
C2821 C 0.929 0.67689 0.24149 0.0
C2822 C 0.92174 0.66266 0.21168 0.0
C2823 C 0.96505 0.60044 0.05743 0.0
C2824 C 0.97257 0.57812 0.06281 0.0
C2825 C 0.94756 0.61757 0.07446 0.0
C2826 C 0.93715 0.61293 0.0974 0.0
C2827 C 0.94495 0.59095 0.10307 0.0
C2828 C 0.96225 0.57371 0.08594 0.0
C2829 C 0.91812 0.63081 0.11545 0.0
C2830 C 0.92374 0.64454 0.14577 0.0
C2831 C 0.89472 0.63468 0.10301 0.0
C2832 C 0.8869 0.61998 0.07137 0.0
C2833 C 0.88483 0.59081 0.05717 0.0
C2834 C 0.87759 0.57713 0.02731 0.0
C2835 C 0.87218 0.59237 0.01146 0.0
C2836 C 0.87395 0.62134 0.02544 0.0
C2837 C 0.88121 0.63513 0.05529 0.0
H2838 H 0.86654 0.58175 0.98836 0.0
H2839 H 0.93525 0.71675 0.27832 0.0
H2840 H 0.96187 0.58861 0.53272 0.0
H2841 H 0.93366 0.61915 0.56549 0.0
H2842 H 0.94709 0.5829 0.62594 0.0
H2843 H 0.97617 0.55329 0.59373 0.0
H2844 H 0.89116 0.61463 0.58484 0.0
H2845 H 0.94127 0.62599 0.69435 0.0
H2846 H 0.9851 0.62583 0.71489 0.0
H2847 H 1.01877 0.65256 0.65376 0.0
H2848 H 0.97517 0.65321 0.63312 0.0
H2849 H 0.80556 0.67784 0.69088 0.0
H2850 H 0.83455 0.64673 0.66016 0.0
H2851 H 0.89902 0.71116 0.69923 0.0
H2852 H 0.87034 0.74169 0.731 0.0
H2853 H 0.91711 0.667 0.69032 0.0
H2854 H 0.86517 0.6922 0.62784 0.0
H2855 H 0.82518 0.69835 0.60445 0.0
H2856 H 0.80168 0.61035 0.56796 0.0
H2857 H 0.8414 0.60371 0.59145 0.0
C2858 C 0.95887 0.5872 0.55305 0.0
C2859 C 0.97164 0.56869 0.56071 0.0
C2860 C 0.94261 0.6047 0.57185 0.0
C2861 C 0.93833 0.60398 0.59873 0.0
C2862 C 0.95049 0.58477 0.60592 0.0
C2863 C 0.96715 0.56768 0.58738 0.0
C2864 C 0.92119 0.62318 0.61902 0.0
C2865 C 0.89691 0.62599 0.6079 0.0
C2866 C 0.92865 0.6389 0.64915 0.0
C2867 C 0.95494 0.63941 0.66205 0.0
C2868 C 0.95803 0.632 0.68543 0.0
C2869 C 0.98283 0.63178 0.69705 0.0
C2870 C 1.00469 0.6391 0.68558 0.0
C2871 C 1.00182 0.64682 0.66258 0.0
C2872 C 0.97707 0.64711 0.65091 0.0
C2873 C 0.82595 0.68533 0.69308 0.0
C2874 C 0.83548 0.71241 0.71348 0.0
C2875 C 0.84259 0.66753 0.67524 0.0
C2876 C 0.86918 0.67651 0.67659 0.0
C2877 C 0.87875 0.7034 0.69744 0.0
C2878 C 0.86222 0.72099 0.71568 0.0
C2879 C 0.88687 0.65821 0.65619 0.0
C2880 C 0.91129 0.65557 0.66728 0.0
C2881 C 0.88005 0.64363 0.62578 0.0
C2882 C 0.85612 0.6475 0.61166 0.0
C2883 C 0.85138 0.67418 0.615 0.0
C2884 C 0.82878 0.67776 0.6017 0.0
C2885 C 0.81087 0.65477 0.5848 0.0
C2886 C 0.81555 0.62814 0.5811 0.0
C2887 C 0.83811 0.62446 0.59438 0.0
H2888 H 0.79338 0.65757 0.57451 0.0
H2889 H 1.02387 0.63885 0.69456 0.0
H2890 H 0.44055 0.57458 0.35545 0.0
H2891 H 0.41916 0.60099 0.3333 0.0
H2892 H 0.36398 0.62003 0.39748 0.0
H2893 H 0.38529 0.59373 0.41981 0.0
H2894 H 0.3387 0.60835 0.3474 0.0
H2895 H 0.41623 0.6689 0.39736 0.0
H2896 H 0.46332 0.68181 0.41024 0.0
H2897 H 0.4747 0.66457 0.32148 0.0
H2898 H 0.4277 0.65118 0.30798 0.0
H2899 H 0.28528 0.71491 0.32097 0.0
H2900 H 0.30781 0.68842 0.34195 0.0
H2901 H 0.36123 0.67039 0.27595 0.0
H2902 H 0.33883 0.69745 0.25499 0.0
H2903 H 0.3876 0.68091 0.32579 0.0
H2904 H 0.31064 0.62053 0.2756 0.0
H2905 H 0.26367 0.60738 0.26206 0.0
H2906 H 0.25127 0.62398 0.35045 0.0
H2907 H 0.29819 0.63754 0.3646 0.0
C2908 C 0.42408 0.58461 0.36523 0.0
C2909 C 0.41496 0.58174 0.38975 0.0
C2910 C 0.41171 0.59985 0.35238 0.0
C2911 C 0.38986 0.61312 0.36366 0.0
C2912 C 0.38063 0.61014 0.38801 0.0
C2913 C 0.39294 0.59486 0.40083 0.0
C2914 C 0.37654 0.62979 0.35012 0.0
C2915 C 0.34948 0.62446 0.34311 0.0
C2916 C 0.39025 0.65053 0.34352 0.0
C2917 C 0.41848 0.65877 0.35161 0.0
C2918 C 0.4288 0.66768 0.38055 0.0
C2919 C 0.45546 0.67511 0.38797 0.0
C2920 C 0.47199 0.67394 0.36668 0.0
C2921 C 0.46187 0.66543 0.33794 0.0
C2922 C 0.43522 0.65793 0.3304 0.0
C2923 C 0.30172 0.70533 0.31072 0.0
C2924 C 0.3099 0.70844 0.28598 0.0
C2925 C 0.31469 0.6899 0.32277 0.0
C2926 C 0.33624 0.67669 0.3105 0.0
C2927 C 0.34472 0.6801 0.28604 0.0
C2928 C 0.33173 0.69561 0.27395 0.0
C2929 C 0.34979 0.65953 0.32321 0.0
C2930 C 0.37685 0.66478 0.33006 0.0
C2931 C 0.3361 0.63866 0.32961 0.0
C2932 C 0.30791 0.63027 0.3212 0.0
C2933 C 0.29788 0.62153 0.29219 0.0
C2934 C 0.27128 0.61399 0.2844 0.0
C2935 C 0.2545 0.61488 0.30538 0.0
C2936 C 0.2643 0.6233 0.33421 0.0
C2937 C 0.29091 0.63088 0.34213 0.0
H2938 H 0.23394 0.60895 0.29923 0.0
H2939 H 0.49263 0.67968 0.37246 0.0
H2940 H 0.22709 0.35591 0.79714 0.0
H2941 H 0.19636 0.38542 0.82665 0.0
H2942 H 0.17598 0.3254 0.86104 0.0
H2943 H 0.20634 0.2957 0.83144 0.0
H2944 H 0.13327 0.34339 0.84829 0.0
H2945 H 0.21594 0.38775 0.90115 0.0
H2946 H 0.26105 0.40954 0.90757 0.0
H2947 H 0.23544 0.47255 0.88423 0.0
H2948 H 0.1902 0.45092 0.8773 0.0
H2949 H 0.06341 0.42937 0.96357 0.0
H2950 H 0.0937 0.39915 0.93405 0.0
H2951 H 0.12039 0.46205 0.90553 0.0
H2952 H 0.09102 0.49262 0.93584 0.0
H2953 H 0.16008 0.44213 0.9153 0.0
H2954 H 0.07782 0.39823 0.86157 0.0
H2955 H 0.03257 0.37653 0.85402 0.0
H2956 H 0.05685 0.31298 0.87732 0.0
H2957 H 0.10222 0.3345 0.88535 0.0
C2958 C 0.21615 0.34897 0.81102 0.0
C2959 C 0.21947 0.32333 0.81185 0.0
C2960 C 0.19856 0.36599 0.82805 0.0
C2961 C 0.18386 0.35796 0.84651 0.0
C2962 C 0.18697 0.33225 0.84712 0.0
C2963 C 0.20454 0.31527 0.83016 0.0
C2964 C 0.16518 0.37612 0.86506 0.0
C2965 C 0.13926 0.3649 0.86319 0.0
C2966 C 0.17256 0.40446 0.88415 0.0
C2967 C 0.19972 0.41755 0.88843 0.0
C2968 C 0.21996 0.40613 0.89718 0.0
C2969 C 0.24554 0.41848 0.90095 0.0
C2970 C 0.25111 0.44237 0.89623 0.0
C2971 C 0.2311 0.45402 0.88783 0.0
C2972 C 0.20549 0.44174 0.884 0.0
C2973 C 0.07562 0.43671 0.95088 0.0
C2974 C 0.07456 0.46349 0.95211 0.0
C2975 C 0.09294 0.41929 0.93379 0.0
C2976 C 0.10933 0.4279 0.91693 0.0
C2977 C 0.10817 0.45466 0.91818 0.0
C2978 C 0.09118 0.47218 0.93554 0.0
C2979 C 0.128 0.40951 0.89846 0.0
C2980 C 0.15399 0.42066 0.90037 0.0
C2981 C 0.12062 0.38115 0.87924 0.0
C2982 C 0.09337 0.36814 0.87434 0.0
C2983 C 0.07348 0.37973 0.86527 0.0
C2984 C 0.04782 0.36745 0.86088 0.0
C2985 C 0.04183 0.34344 0.86527 0.0
C2986 C 0.06151 0.33161 0.87398 0.0
C2987 C 0.08721 0.34382 0.87843 0.0
H2988 H 1.02195 0.33396 0.86186 0.0
H2989 H 0.27093 0.45189 0.89916 0.0
H2990 H 0.19298 0.30741 0.27415 0.0
H2991 H 0.16193 0.33695 0.30312 0.0
H2992 H 0.22371 0.38603 0.36881 0.0
H2993 H 0.25489 0.35681 0.3398 0.0
H2994 H 0.18019 0.36922 0.39137 0.0
H2995 H 0.19763 0.41118 0.32454 0.0
H2996 H 0.19925 0.41129 0.27615 0.0
H2997 H 0.11757 0.3843 0.25739 0.0
H2998 H 0.11554 0.38351 0.30546 0.0
H2999 H 0.11445 0.47755 0.48436 0.0
H3000 H 0.14435 0.4495 0.4522 0.0
H3001 H 0.08522 0.42021 0.38034 0.0
H3002 H 0.05577 0.44966 0.41223 0.0
H3003 H 0.12625 0.42502 0.3591 0.0
H3004 H 0.10585 0.37982 0.41999 0.0
H3005 H 0.10033 0.37446 0.46541 0.0
H3006 H 0.18157 0.3998 0.49157 0.0
H3007 H 0.18753 0.40566 0.44645 0.0
C3008 C 0.20005 0.32462 0.29464 0.0
C3009 C 0.22659 0.32965 0.3045 0.0
C3010 C 0.18221 0.3416 0.31121 0.0
C3011 C 0.19034 0.36392 0.33826 0.0
C3012 C 0.21683 0.36904 0.34806 0.0
C3013 C 0.23473 0.35234 0.33132 0.0
C3014 C 0.17128 0.38131 0.35688 0.0
C3015 C 0.16866 0.38173 0.38447 0.0
C3016 C 0.1552 0.39667 0.34749 0.0
C3017 C 0.1565 0.39699 0.31851 0.0
C3018 C 0.18007 0.40497 0.30998 0.0
C3019 C 0.18104 0.40519 0.28262 0.0
C3020 C 0.15854 0.39769 0.26366 0.0
C3021 C 0.135 0.39 0.27205 0.0
C3022 C 0.13393 0.38967 0.29935 0.0
C3023 C 0.10775 0.4651 0.46172 0.0
C3024 C 0.08251 0.46576 0.45108 0.0
C3025 C 0.1249 0.44877 0.44323 0.0
C3026 C 0.11715 0.4318 0.41365 0.0
C3027 C 0.09198 0.4328 0.40294 0.0
C3028 C 0.075 0.44965 0.42131 0.0
C3029 C 0.13525 0.41331 0.39402 0.0
C3030 C 0.13769 0.41255 0.36618 0.0
C3031 C 0.15056 0.39682 0.40274 0.0
C3032 C 0.14708 0.39346 0.42997 0.0
C3033 C 0.1225 0.38446 0.43553 0.0
C3034 C 0.1193 0.38129 0.4612 0.0
C3035 C 0.14057 0.38686 0.4814 0.0
C3036 C 0.1651 0.39554 0.47592 0.0
C3037 C 0.16841 0.39877 0.4503 0.0
H3038 H 0.13805 0.38439 0.50125 0.0
H3039 H 0.15933 0.39793 0.2425 0.0
loop_
_geom_bond_atom_site_label_1
_geom_bond_atom_site_label_2
_geom_bond_distance
_geom_bond_site_symmetry_2
_ccdc_geom_bond_type
Nd0 C2 2.836 1_545 S
Nd0 O20 2.500 . S
Nd0 O21 2.492 1_545 S
Nd0 O22 2.487 1_445 S
Nd0 O23 2.682 1_445 S
Nd0 O24 2.410 1_544 S
Nd0 O29 2.414 1_554 S
Nd0 O31 2.424 1_455 S
Nd1 C11 2.836 1_565 S
Nd1 O23 2.414 1_556 S
Nd1 O25 2.424 1_655 S
Nd1 O26 2.500 . S
Nd1 O27 2.492 1_565 S
Nd1 O28 2.487 1_665 S
Nd1 O29 2.682 1_665 S
Nd1 O30 2.410 1_566 S
C2 Nd0 2.836 1_565 S
C2 C3 1.498 . S
C2 O20 1.258 1_565 S
C2 O21 1.239 . S
C3 C2 1.498 . S
C3 C4 1.366 . S
C3 C8 1.407 . S
C4 C3 1.366 . S
C4 C5 1.392 . S
C4 H32 0.930 . S
C5 C4 1.392 . S
C5 C6 1.398 . S
C5 H33 0.929 . S
C6 C5 1.398 . S
C6 C7 1.352 . S
C7 C6 1.352 . S
C7 C8 1.384 . S
C7 H34 0.930 . S
C8 C3 1.407 . S
C8 C7 1.384 . S
C8 H35 0.929 . S
C9 O22 1.241 . S
C9 O23 1.273 . S
C10 O24 1.251 . S
C10 O25 1.268 . S
C11 Nd1 2.836 1_545 S
C11 C12 1.498 . S
C11 O26 1.258 1_545 S
C11 O27 1.239 . S
C12 C11 1.498 . S
C12 C13 1.366 . S
C12 C17 1.407 . S
C13 C12 1.366 . S
C13 C14 1.392 . S
C13 H36 0.930 . S
C14 C13 1.392 . S
C14 C15 1.398 . S
C14 H37 0.929 . S
C15 C14 1.398 . S
C15 C16 1.352 . S
C16 C15 1.352 . S
C16 C17 1.384 . S
C16 H38 0.930 . S
C17 C12 1.407 . S
C17 C16 1.384 . S
C17 H39 0.929 . S
C18 O28 1.241 . S
C18 O29 1.273 . S
C19 O30 1.251 . S
C19 O31 1.268 . S
O20 Nd0 2.500 . S
O20 C2 1.258 1_545 S
O21 Nd0 2.492 1_565 S
O21 C2 1.239 . S
O22 Nd0 2.487 1_665 S
O22 C9 1.241 . S
O23 Nd0 2.682 1_665 S
O23 Nd1 2.414 1_554 S
O23 C9 1.273 . S
O24 Nd0 2.410 1_566 S
O24 C10 1.251 . S
O25 Nd1 2.424 1_455 S
O25 C10 1.268 . S
O26 Nd1 2.500 . S
O26 C11 1.258 1_565 S
O27 Nd1 2.492 1_545 S
O27 C11 1.239 . S
O28 Nd1 2.487 1_445 S
O28 C18 1.241 . S
O29 Nd0 2.414 1_556 S
O29 Nd1 2.682 1_445 S
O29 C18 1.273 . S
O30 Nd1 2.410 1_544 S
O30 C19 1.251 . S
O31 Nd0 2.424 1_655 S
O31 C19 1.268 . S
H32 C4 0.930 . S
H33 C5 0.929 . S
H34 C7 0.930 . S
H35 C8 0.929 . S
H36 C13 0.930 . S
H37 C14 0.929 . S
H38 C16 0.930 . S
H39 C17 0.929 . S
Nd40 C42 2.836 . S
Nd40 O60 2.500 . S
Nd40 O61 2.492 . S
Nd40 O62 2.487 . S
Nd40 O63 2.682 . S
Nd40 O64 2.410 . S
Nd40 O69 2.414 . S
Nd40 O71 2.424 . S
Nd41 C51 2.836 . S
Nd41 O63 2.414 . S
Nd41 O65 2.424 . S
Nd41 O66 2.500 . S
Nd41 O67 2.492 . S
Nd41 O68 2.487 . S
Nd41 O69 2.682 . S
Nd41 O70 2.410 . S
C42 Nd40 2.836 . S
C42 C43 1.498 . S
C42 O60 1.258 . S
C42 O61 1.239 . S
C43 C42 1.498 . S
C43 C44 1.366 . S
C43 C48 1.407 . S
C44 C43 1.366 . S
C44 C45 1.392 . S
C44 H72 0.930 . S
C45 C44 1.392 . S
C45 C46 1.398 . S
C45 H73 0.929 . S
C46 C45 1.398 . S
C46 C47 1.352 . S
C47 C46 1.352 . S
C47 C48 1.384 . S
C47 H74 0.930 . S
C48 C43 1.407 . S
C48 C47 1.384 . S
C48 H75 0.929 . S
C49 O62 1.241 . S
C49 O63 1.273 . S
C50 O64 1.251 . S
C50 O65 1.268 . S
C51 Nd41 2.836 . S
C51 C52 1.498 . S
C51 O66 1.258 . S
C51 O67 1.239 . S
C52 C51 1.498 . S
C52 C53 1.366 . S
C52 C57 1.407 . S
C53 C52 1.366 . S
C53 C54 1.392 . S
C53 H76 0.930 . S
C54 C53 1.392 . S
C54 C55 1.398 . S
C54 H77 0.929 . S
C55 C54 1.398 . S
C55 C56 1.352 . S
C56 C55 1.352 . S
C56 C57 1.384 . S
C56 H78 0.930 . S
C57 C52 1.407 . S
C57 C56 1.384 . S
C57 H79 0.929 . S
C58 O68 1.241 . S
C58 O69 1.273 . S
C59 O70 1.251 . S
C59 O71 1.268 . S
O60 Nd40 2.500 . S
O60 C42 1.258 . S
O61 Nd40 2.492 . S
O61 C42 1.239 . S
O62 Nd40 2.487 . S
O62 C49 1.241 . S
O63 Nd40 2.682 . S
O63 Nd41 2.414 . S
O63 C49 1.273 . S
O64 Nd40 2.410 . S
O64 C50 1.251 . S
O65 Nd41 2.424 . S
O65 C50 1.268 . S
O66 Nd41 2.500 . S
O66 C51 1.258 . S
O67 Nd41 2.492 . S
O67 C51 1.239 . S
O68 Nd41 2.487 . S
O68 C58 1.241 . S
O69 Nd40 2.414 . S
O69 Nd41 2.682 . S
O69 C58 1.273 . S
O70 Nd41 2.410 . S
O70 C59 1.251 . S
O71 Nd40 2.424 . S
O71 C59 1.268 . S
H72 C44 0.930 . S
H73 C45 0.929 . S
H74 C47 0.930 . S
H75 C48 0.929 . S
H76 C53 0.930 . S
H77 C54 0.929 . S
H78 C56 0.930 . S
H79 C57 0.929 . S
Nd80 C82 2.836 . S
Nd80 O100 2.500 . S
Nd80 O101 2.492 . S
Nd80 O102 2.487 1_545 S
Nd80 O103 2.682 1_545 S
Nd80 O104 2.410 . S
Nd80 O109 2.414 . S
Nd80 O111 2.424 1_545 S
Nd81 C91 2.836 . S
Nd81 O103 2.414 . S
Nd81 O105 2.424 1_565 S
Nd81 O106 2.500 . S
Nd81 O107 2.492 . S
Nd81 O108 2.487 1_565 S
Nd81 O109 2.682 1_565 S
Nd81 O110 2.410 . S
C82 Nd80 2.836 . S
C82 C83 1.498 . S
C82 O100 1.258 . S
C82 O101 1.239 . S
C83 C82 1.498 . S
C83 C84 1.366 . S
C83 C88 1.407 . S
C84 C83 1.366 . S
C84 C85 1.392 . S
C84 H112 0.930 . S
C85 C84 1.392 . S
C85 C86 1.398 . S
C85 H113 0.929 . S
C86 C85 1.398 . S
C86 C87 1.352 . S
C87 C86 1.352 . S
C87 C88 1.384 . S
C87 H114 0.930 . S
C88 C83 1.407 . S
C88 C87 1.384 . S
C88 H115 0.929 . S
C89 O102 1.241 . S
C89 O103 1.273 . S
C90 O104 1.251 . S
C90 O105 1.268 . S
C91 Nd81 2.836 . S
C91 C92 1.498 . S
C91 O106 1.258 . S
C91 O107 1.239 . S
C92 C91 1.498 . S
C92 C93 1.366 . S
C92 C97 1.407 . S
C93 C92 1.366 . S
C93 C94 1.392 . S
C93 H116 0.930 . S
C94 C93 1.392 . S
C94 C95 1.398 . S
C94 H117 0.929 . S
C95 C94 1.398 . S
C95 C96 1.352 . S
C96 C95 1.352 . S
C96 C97 1.384 . S
C96 H118 0.930 . S
C97 C92 1.407 . S
C97 C96 1.384 . S
C97 H119 0.929 . S
C98 O108 1.241 . S
C98 O109 1.273 . S
C99 O110 1.251 . S
C99 O111 1.268 . S
O100 Nd80 2.500 . S
O100 C82 1.258 . S
O101 Nd80 2.492 . S
O101 C82 1.239 . S
O102 Nd80 2.487 1_565 S
O102 C89 1.241 . S
O103 Nd80 2.682 1_565 S
O103 Nd81 2.414 . S
O103 C89 1.273 . S
O104 Nd80 2.410 . S
O104 C90 1.251 . S
O105 Nd81 2.424 1_545 S
O105 C90 1.268 . S
O106 Nd81 2.500 . S
O106 C91 1.258 . S
O107 Nd81 2.492 . S
O107 C91 1.239 . S
O108 Nd81 2.487 1_545 S
O108 C98 1.241 . S
O109 Nd80 2.414 . S
O109 Nd81 2.682 1_545 S
O109 C98 1.273 . S
O110 Nd81 2.410 . S
O110 C99 1.251 . S
O111 Nd80 2.424 1_565 S
O111 C99 1.268 . S
H112 C84 0.930 . S
H113 C85 0.929 . S
H114 C87 0.930 . S
H115 C88 0.929 . S
H116 C93 0.930 . S
H117 C94 0.929 . S
H118 C96 0.930 . S
H119 C97 0.929 . S
Nd120 C122 2.836 . S
Nd120 O140 2.500 . S
Nd120 O141 2.492 . S
Nd120 O142 2.487 . S
Nd120 O143 2.682 . S
Nd120 O144 2.410 . S
Nd120 O149 2.414 . S
Nd120 O151 2.424 . S
Nd121 C131 2.836 . S
Nd121 O143 2.414 . S
Nd121 O145 2.424 . S
Nd121 O146 2.500 . S
Nd121 O147 2.492 . S
Nd121 O148 2.487 . S
Nd121 O149 2.682 . S
Nd121 O150 2.410 . S
C122 Nd120 2.836 . S
C122 C123 1.498 . S
C122 O140 1.258 . S
C122 O141 1.239 . S
C123 C122 1.498 . S
C123 C124 1.366 . S
C123 C128 1.407 . S
C124 C123 1.366 . S
C124 C125 1.392 . S
C124 H152 0.930 . S
C125 C124 1.392 . S
C125 C126 1.398 . S
C125 H153 0.929 . S
C126 C125 1.398 . S
C126 C127 1.352 . S
C127 C126 1.352 . S
C127 C128 1.384 . S
C127 H154 0.930 . S
C128 C123 1.407 . S
C128 C127 1.384 . S
C128 H155 0.929 . S
C129 O142 1.241 . S
C129 O143 1.273 . S
C130 O144 1.251 . S
C130 O145 1.268 . S
C131 Nd121 2.836 . S
C131 C132 1.498 . S
C131 O146 1.258 . S
C131 O147 1.239 . S
C132 C131 1.498 . S
C132 C133 1.366 . S
C132 C137 1.407 . S
C133 C132 1.366 . S
C133 C134 1.392 . S
C133 H156 0.930 . S
C134 C133 1.392 . S
C134 C135 1.398 . S
C134 H157 0.929 . S
C135 C134 1.398 . S
C135 C136 1.352 . S
C136 C135 1.352 . S
C136 C137 1.384 . S
C136 H158 0.930 . S
C137 C132 1.407 . S
C137 C136 1.384 . S
C137 H159 0.929 . S
C138 O148 1.241 . S
C138 O149 1.273 . S
C139 O150 1.251 . S
C139 O151 1.268 . S
O140 Nd120 2.500 . S
O140 C122 1.258 . S
O141 Nd120 2.492 . S
O141 C122 1.239 . S
O142 Nd120 2.487 . S
O142 C129 1.241 . S
O143 Nd120 2.682 . S
O143 Nd121 2.414 . S
O143 C129 1.273 . S
O144 Nd120 2.410 . S
O144 C130 1.251 . S
O145 Nd121 2.424 . S
O145 C130 1.268 . S
O146 Nd121 2.500 . S
O146 C131 1.258 . S
O147 Nd121 2.492 . S
O147 C131 1.239 . S
O148 Nd121 2.487 . S
O148 C138 1.241 . S
O149 Nd120 2.414 . S
O149 Nd121 2.682 . S
O149 C138 1.273 . S
O150 Nd121 2.410 . S
O150 C139 1.251 . S
O151 Nd120 2.424 . S
O151 C139 1.268 . S
H152 C124 0.930 . S
H153 C125 0.929 . S
H154 C127 0.930 . S
H155 C128 0.929 . S
H156 C133 0.930 . S
H157 C134 0.929 . S
H158 C136 0.930 . S
H159 C137 0.929 . S
Nd160 C162 2.836 . S
Nd160 O180 2.483 . S
Nd160 O181 2.492 . S
Nd160 O182 2.487 . S
Nd160 O183 2.682 . S
Nd160 O184 2.410 . S
Nd160 O189 2.414 1_665 S
Nd160 O191 2.424 1_565 S
Nd161 C171 2.836 . S
Nd161 O183 2.414 1_445 S
Nd161 O185 2.424 1_545 S
Nd161 O186 2.500 . S
Nd161 O187 2.492 . S
Nd161 O188 2.487 . S
Nd161 O189 2.682 . S
Nd161 O190 2.410 . S
C162 Nd160 2.836 . S
C162 C163 1.498 . S
C162 O180 1.284 . S
C162 O181 1.239 . S
C163 C162 1.498 . S
C163 C164 1.366 . S
C163 C168 1.407 . S
C164 C163 1.366 . S
C164 C165 1.392 . S
C164 H192 0.930 . S
C165 C164 1.392 . S
C165 C166 1.398 . S
C165 H193 0.929 . S
C166 C165 1.398 . S
C166 C167 1.352 . S
C167 C166 1.352 . S
C167 C168 1.384 . S
C167 H194 0.930 . S
C168 C163 1.407 . S
C168 C167 1.384 . S
C168 H195 0.929 . S
C169 O182 1.241 . S
C169 O183 1.273 . S
C170 O184 1.251 1_455 S
C170 O185 1.268 . S
C171 Nd161 2.836 . S
C171 C172 1.498 . S
C171 O186 1.258 . S
C171 O187 1.239 . S
C172 C171 1.498 . S
C172 C173 1.366 . S
C172 C177 1.407 . S
C173 C172 1.366 . S
C173 C174 1.392 . S
C173 H196 0.930 . S
C174 C173 1.392 . S
C174 C175 1.398 . S
C174 H197 0.929 . S
C175 C174 1.398 . S
C175 C176 1.352 . S
C176 C175 1.352 . S
C176 C177 1.384 . S
C176 H198 0.930 . S
C177 C172 1.407 . S
C177 C176 1.384 . S
C177 H199 0.929 . S
C178 O188 1.241 . S
C178 O189 1.273 . S
C179 O190 1.251 1_655 S
C179 O191 1.268 . S
O180 Nd160 2.483 . S
O180 C162 1.284 . S
O181 Nd160 2.492 . S
O181 C162 1.239 . S
O182 Nd160 2.487 . S
O182 C169 1.241 . S
O183 Nd160 2.682 . S
O183 Nd161 2.414 1_665 S
O183 C169 1.273 . S
O184 Nd160 2.410 . S
O184 C170 1.251 1_655 S
O185 Nd161 2.424 1_565 S
O185 C170 1.268 . S
O186 Nd161 2.500 . S
O186 C171 1.258 . S
O187 Nd161 2.492 . S
O187 C171 1.239 . S
O188 Nd161 2.487 . S
O188 C178 1.241 . S
O189 Nd160 2.414 1_445 S
O189 Nd161 2.682 . S
O189 C178 1.273 . S
O190 Nd161 2.410 . S
O190 C179 1.251 1_455 S
O191 Nd160 2.424 1_545 S
O191 C179 1.268 . S
H192 C164 0.930 . S
H193 C165 0.929 . S
H194 C167 0.930 . S
H195 C168 0.929 . S
H196 C173 0.930 . S
H197 C174 0.929 . S
H198 C176 0.930 . S
H199 C177 0.929 . S
Nd200 C202 2.836 . S
Nd200 O220 2.500 . S
Nd200 O221 2.492 . S
Nd200 O222 2.487 . S
Nd200 O223 2.682 . S
Nd200 O224 2.410 . S
Nd200 O229 2.414 . S
Nd200 O231 2.424 . S
Nd201 C211 2.836 . S
Nd201 O223 2.414 . S
Nd201 O225 2.424 . S
Nd201 O226 2.500 . S
Nd201 O227 2.492 . S
Nd201 O228 2.487 . S
Nd201 O229 2.682 . S
Nd201 O230 2.410 . S
C202 Nd200 2.836 . S
C202 C203 1.498 . S
C202 O220 1.258 . S
C202 O221 1.239 . S
C203 C202 1.498 . S
C203 C204 1.366 . S
C203 C208 1.407 . S
C204 C203 1.366 . S
C204 C205 1.392 . S
C204 H232 0.930 . S
C205 C204 1.392 . S
C205 C206 1.398 . S
C205 H233 0.929 . S
C206 C205 1.398 . S
C206 C207 1.352 . S
C207 C206 1.352 . S
C207 C208 1.384 . S
C207 H234 0.930 . S
C208 C203 1.407 . S
C208 C207 1.384 . S
C208 H235 0.929 . S
C209 O222 1.241 . S
C209 O223 1.273 . S
C210 O224 1.251 . S
C210 O225 1.268 . S
C211 Nd201 2.836 . S
C211 C212 1.498 . S
C211 O226 1.258 . S
C211 O227 1.239 . S
C212 C211 1.498 . S
C212 C213 1.366 . S
C212 C217 1.407 . S
C213 C212 1.366 . S
C213 C214 1.392 . S
C213 H236 0.930 . S
C214 C213 1.392 . S
C214 C215 1.398 . S
C214 H237 0.929 . S
C215 C214 1.398 . S
C215 C216 1.352 . S
C216 C215 1.352 . S
C216 C217 1.384 . S
C216 H238 0.930 . S
C217 C212 1.407 . S
C217 C216 1.384 . S
C217 H239 0.929 . S
C218 O228 1.241 . S
C218 O229 1.273 . S
C219 O230 1.251 . S
C219 O231 1.268 . S
O220 Nd200 2.500 . S
O220 C202 1.258 . S
O221 Nd200 2.492 . S
O221 C202 1.239 . S
O222 Nd200 2.487 . S
O222 C209 1.241 . S
O223 Nd200 2.682 . S
O223 Nd201 2.414 . S
O223 C209 1.273 . S
O224 Nd200 2.410 . S
O224 C210 1.251 . S
O225 Nd201 2.424 . S
O225 C210 1.268 . S
O226 Nd201 2.500 . S
O226 C211 1.258 . S
O227 Nd201 2.492 . S
O227 C211 1.239 . S
O228 Nd201 2.487 . S
O228 C218 1.241 . S
O229 Nd200 2.414 . S
O229 Nd201 2.682 . S
O229 C218 1.273 . S
O230 Nd201 2.410 . S
O230 C219 1.251 . S
O231 Nd200 2.424 . S
O231 C219 1.268 . S
H232 C204 0.930 . S
H233 C205 0.929 . S
H234 C207 0.930 . S
H235 C208 0.929 . S
H236 C213 0.930 . S
H237 C214 0.929 . S
H238 C216 0.930 . S
H239 C217 0.929 . S
Nd240 C242 2.836 . S
Nd240 O260 2.500 . S
Nd240 O261 2.492 . S
Nd240 O262 2.487 1_556 S
Nd240 O263 2.682 1_556 S
Nd240 O264 2.391 1_545 S
Nd240 O269 2.414 1_545 S
Nd240 O271 2.424 1_556 S
Nd241 C251 2.836 . S
Nd241 O263 2.414 1_565 S
Nd241 O265 2.424 1_554 S
Nd241 O266 2.500 . S
Nd241 O267 2.492 . S
Nd241 O268 2.487 1_554 S
Nd241 O269 2.682 1_554 S
Nd241 O270 2.383 1_565 S
C242 Nd240 2.836 . S
C242 C243 1.498 . S
C242 O260 1.258 . S
C242 O261 1.239 . S
C243 C242 1.498 . S
C243 C244 1.366 . S
C243 C248 1.407 . S
C244 C243 1.366 . S
C244 C245 1.392 . S
C244 H272 0.930 . S
C245 C244 1.392 . S
C245 C246 1.398 . S
C245 H273 0.929 . S
C246 C245 1.398 . S
C246 C247 1.352 . S
C247 C246 1.352 . S
C247 C248 1.384 . S
C247 H274 0.930 . S
C248 C243 1.407 . S
C248 C247 1.384 . S
C248 H275 0.929 . S
C249 O262 1.241 . S
C249 O263 1.273 . S
C250 O264 1.277 . S
C250 O265 1.268 . S
C251 Nd241 2.836 . S
C251 C252 1.498 . S
C251 O266 1.258 . S
C251 O267 1.239 . S
C252 C251 1.498 . S
C252 C253 1.366 . S
C252 C257 1.407 . S
C253 C252 1.366 . S
C253 C254 1.392 . S
C253 H276 0.962 . S
C254 C253 1.392 . S
C254 C255 1.398 . S
C254 H277 0.929 . S
C255 C254 1.398 . S
C255 C256 1.352 . S
C256 C255 1.352 . S
C256 C257 1.384 . S
C256 H278 0.930 . S
C257 C252 1.407 . S
C257 C256 1.384 . S
C257 H279 0.929 . S
C258 O268 1.241 . S
C258 O269 1.273 . S
C259 O270 1.288 . S
C259 O271 1.268 . S
O260 Nd240 2.500 . S
O260 C242 1.258 . S
O261 Nd240 2.492 . S
O261 C242 1.239 . S
O262 Nd240 2.487 1_554 S
O262 C249 1.241 . S
O263 Nd240 2.682 1_554 S
O263 Nd241 2.414 1_545 S
O263 C249 1.273 . S
O264 Nd240 2.391 1_565 S
O264 C250 1.277 . S
O265 Nd241 2.424 1_556 S
O265 C250 1.268 . S
O266 Nd241 2.500 . S
O266 C251 1.258 . S
O267 Nd241 2.492 . S
O267 C251 1.239 . S
O268 Nd241 2.487 1_556 S
O268 C258 1.241 . S
O269 Nd240 2.414 1_565 S
O269 Nd241 2.682 1_556 S
O269 C258 1.273 . S
O270 Nd241 2.383 1_545 S
O270 C259 1.288 . S
O271 Nd240 2.424 1_554 S
O271 C259 1.268 . S
H272 C244 0.930 . S
H273 C245 0.929 . S
H274 C247 0.930 . S
H275 C248 0.929 . S
H276 C253 0.962 . S
H277 C254 0.929 . S
H278 C256 0.930 . S
H279 C257 0.929 . S
Nd280 C282 2.836 . S
Nd280 O300 2.500 . S
Nd280 O301 2.492 . S
Nd280 O302 2.487 . S
Nd280 O303 2.682 . S
Nd280 O304 2.410 . S
Nd280 O309 2.414 . S
Nd280 O311 2.424 . S
Nd281 C291 2.836 . S
Nd281 O303 2.414 . S
Nd281 O305 2.424 . S
Nd281 O306 2.500 . S
Nd281 O307 2.492 . S
Nd281 O308 2.487 . S
Nd281 O309 2.682 . S
Nd281 O310 2.410 . S
C282 Nd280 2.836 . S
C282 C283 1.498 . S
C282 O300 1.258 . S
C282 O301 1.239 . S
C283 C282 1.498 . S
C283 C284 1.366 . S
C283 C288 1.407 . S
C284 C283 1.366 . S
C284 C285 1.392 . S
C284 H312 0.930 . S
C285 C284 1.392 . S
C285 C286 1.398 . S
C285 H313 0.929 . S
C286 C285 1.398 . S
C286 C287 1.352 . S
C287 C286 1.352 . S
C287 C288 1.384 . S
C287 H314 0.930 . S
C288 C283 1.407 . S
C288 C287 1.384 . S
C288 H315 0.929 . S
C289 O302 1.241 . S
C289 O303 1.273 . S
C290 O304 1.251 . S
C290 O305 1.268 . S
C291 Nd281 2.836 . S
C291 C292 1.498 . S
C291 O306 1.258 . S
C291 O307 1.239 . S
C292 C291 1.498 . S
C292 C293 1.366 . S
C292 C297 1.407 . S
C293 C292 1.366 . S
C293 C294 1.392 . S
C293 H316 0.930 . S
C294 C293 1.392 . S
C294 C295 1.398 . S
C294 H317 0.929 . S
C295 C294 1.398 . S
C295 C296 1.352 . S
C296 C295 1.352 . S
C296 C297 1.384 . S
C296 H318 0.930 . S
C297 C292 1.407 . S
C297 C296 1.384 . S
C297 H319 0.929 . S
C298 O308 1.241 . S
C298 O309 1.273 . S
C299 O310 1.251 . S
C299 O311 1.268 . S
O300 Nd280 2.500 . S
O300 C282 1.258 . S
O301 Nd280 2.492 . S
O301 C282 1.239 . S
O302 Nd280 2.487 . S
O302 C289 1.241 . S
O303 Nd280 2.682 . S
O303 Nd281 2.414 . S
O303 C289 1.273 . S
O304 Nd280 2.410 . S
O304 C290 1.251 . S
O305 Nd281 2.424 . S
O305 C290 1.268 . S
O306 Nd281 2.500 . S
O306 C291 1.258 . S
O307 Nd281 2.492 . S
O307 C291 1.239 . S
O308 Nd281 2.487 . S
O308 C298 1.241 . S
O309 Nd280 2.414 . S
O309 Nd281 2.682 . S
O309 C298 1.273 . S
O310 Nd281 2.410 . S
O310 C299 1.251 . S
O311 Nd280 2.424 . S
O311 C299 1.268 . S
H312 C284 0.930 . S
H313 C285 0.929 . S
H314 C287 0.930 . S
H315 C288 0.929 . S
H316 C293 0.930 . S
H317 C294 0.929 . S
H318 C296 0.930 . S
H319 C297 0.929 . S
Nd320 C322 2.836 . S
Nd320 O340 2.500 . S
Nd320 O341 2.492 . S
Nd320 O342 2.487 1_554 S
Nd320 O343 2.682 1_554 S
Nd320 O344 2.410 . S
Nd320 O349 2.414 . S
Nd320 O351 2.424 1_554 S
Nd321 C331 2.836 . S
Nd321 O343 2.414 . S
Nd321 O345 2.424 1_556 S
Nd321 O346 2.500 . S
Nd321 O347 2.492 . S
Nd321 O348 2.487 1_556 S
Nd321 O349 2.682 1_556 S
Nd321 O350 2.410 . S
C322 Nd320 2.836 . S
C322 C323 1.498 . S
C322 O340 1.258 . S
C322 O341 1.239 . S
C323 C322 1.498 . S
C323 C324 1.366 . S
C323 C328 1.407 . S
C324 C323 1.366 . S
C324 C325 1.392 . S
C324 H352 0.930 . S
C325 C324 1.392 . S
C325 C326 1.398 . S
C325 H353 0.929 . S
C326 C325 1.398 . S
C326 C327 1.352 . S
C327 C326 1.352 . S
C327 C328 1.384 . S
C327 H354 0.930 . S
C328 C323 1.407 . S
C328 C327 1.384 . S
C328 H355 0.929 . S
C329 O342 1.241 . S
C329 O343 1.273 . S
C330 O344 1.251 . S
C330 O345 1.268 . S
C331 Nd321 2.836 . S
C331 C332 1.498 . S
C331 O346 1.258 . S
C331 O347 1.239 . S
C332 C331 1.498 . S
C332 C333 1.366 . S
C332 C337 1.407 . S
C333 C332 1.366 . S
C333 C334 1.392 . S
C333 H356 0.930 . S
C334 C333 1.392 . S
C334 C335 1.398 . S
C334 H357 0.929 . S
C335 C334 1.398 . S
C335 C336 1.352 . S
C336 C335 1.352 . S
C336 C337 1.384 . S
C336 H358 0.930 . S
C337 C332 1.407 . S
C337 C336 1.384 . S
C337 H359 0.929 . S
C338 O348 1.241 . S
C338 O349 1.273 . S
C339 O350 1.251 . S
C339 O351 1.268 . S
O340 Nd320 2.500 . S
O340 C322 1.258 . S
O341 Nd320 2.492 . S
O341 C322 1.239 . S
O342 Nd320 2.487 1_556 S
O342 C329 1.241 . S
O343 Nd320 2.682 1_556 S
O343 Nd321 2.414 . S
O343 C329 1.273 . S
O344 Nd320 2.410 . S
O344 C330 1.251 . S
O345 Nd321 2.424 1_554 S
O345 C330 1.268 . S
O346 Nd321 2.500 . S
O346 C331 1.258 . S
O347 Nd321 2.492 . S
O347 C331 1.239 . S
O348 Nd321 2.487 1_554 S
O348 C338 1.241 . S
O349 Nd320 2.414 . S
O349 Nd321 2.682 1_554 S
O349 C338 1.273 . S
O350 Nd321 2.410 . S
O350 C339 1.251 . S
O351 Nd320 2.424 1_556 S
O351 C339 1.268 . S
H352 C324 0.930 . S
H353 C325 0.929 . S
H354 C327 0.930 . S
H355 C328 0.929 . S
H356 C333 0.930 . S
H357 C334 0.929 . S
H358 C336 0.930 . S
H359 C337 0.929 . S
Nd360 C362 2.836 . S
Nd360 O380 2.500 . S
Nd360 O381 2.492 . S
Nd360 O382 2.487 . S
Nd360 O383 2.682 . S
Nd360 O384 2.410 . S
Nd360 O389 2.414 . S
Nd360 O391 2.424 . S
Nd361 C371 2.836 . S
Nd361 O383 2.414 . S
Nd361 O385 2.424 . S
Nd361 O386 2.500 . S
Nd361 O387 2.492 . S
Nd361 O388 2.487 . S
Nd361 O389 2.682 . S
Nd361 O390 2.410 . S
C362 Nd360 2.836 . S
C362 C363 1.498 . S
C362 O380 1.258 . S
C362 O381 1.239 . S
C363 C362 1.498 . S
C363 C364 1.366 . S
C363 C368 1.407 . S
C364 C363 1.366 . S
C364 C365 1.392 . S
C364 H392 0.930 . S
C365 C364 1.392 . S
C365 C366 1.398 . S
C365 H393 0.929 . S
C366 C365 1.398 . S
C366 C367 1.352 . S
C367 C366 1.352 . S
C367 C368 1.384 . S
C367 H394 0.930 . S
C368 C363 1.407 . S
C368 C367 1.384 . S
C368 H395 0.929 . S
C369 O382 1.241 . S
C369 O383 1.273 . S
C370 O384 1.251 . S
C370 O385 1.268 . S
C371 Nd361 2.836 . S
C371 C372 1.498 . S
C371 O386 1.258 . S
C371 O387 1.239 . S
C372 C371 1.498 . S
C372 C373 1.366 . S
C372 C377 1.407 . S
C373 C372 1.366 . S
C373 C374 1.392 . S
C373 H396 0.930 . S
C374 C373 1.392 . S
C374 C375 1.398 . S
C374 H397 0.929 . S
C375 C374 1.398 . S
C375 C376 1.352 . S
C376 C375 1.352 . S
C376 C377 1.384 . S
C376 H398 0.930 . S
C377 C372 1.407 . S
C377 C376 1.384 . S
C377 H399 0.929 . S
C378 O388 1.241 . S
C378 O389 1.273 . S
C379 O390 1.251 . S
C379 O391 1.268 . S
O380 Nd360 2.500 . S
O380 C362 1.258 . S
O381 Nd360 2.492 . S
O381 C362 1.239 . S
O382 Nd360 2.487 . S
O382 C369 1.241 . S
O383 Nd360 2.682 . S
O383 Nd361 2.414 . S
O383 C369 1.273 . S
O384 Nd360 2.410 . S
O384 C370 1.251 . S
O385 Nd361 2.424 . S
O385 C370 1.268 . S
O386 Nd361 2.500 . S
O386 C371 1.258 . S
O387 Nd361 2.492 . S
O387 C371 1.239 . S
O388 Nd361 2.487 . S
O388 C378 1.241 . S
O389 Nd360 2.414 . S
O389 Nd361 2.682 . S
O389 C378 1.273 . S
O390 Nd361 2.410 . S
O390 C379 1.251 . S
O391 Nd360 2.424 . S
O391 C379 1.268 . S
H392 C364 0.930 . S
H393 C365 0.929 . S
H394 C367 0.930 . S
H395 C368 0.929 . S
H396 C373 0.930 . S
H397 C374 0.929 . S
H398 C376 0.930 . S
H399 C377 0.929 . S
Nd400 C402 2.836 . S
Nd400 O420 2.500 . S
Nd400 O421 2.492 . S
Nd400 O422 2.487 . S
Nd400 O423 2.682 . S
Nd400 O424 2.410 . S
Nd400 O429 2.414 1_455 S
Nd400 O431 2.424 1_455 S
Nd401 C411 2.836 . S
Nd401 O423 2.414 1_655 S
Nd401 O425 2.424 1_655 S
Nd401 O426 2.500 . S
Nd401 O427 2.492 . S
Nd401 O428 2.487 . S
Nd401 O429 2.682 . S
Nd401 O430 2.410 . S
C402 Nd400 2.836 . S
C402 C403 1.498 . S
C402 O420 1.258 . S
C402 O421 1.239 . S
C403 C402 1.498 . S
C403 C404 1.366 . S
C403 C408 1.407 . S
C404 C403 1.366 . S
C404 C405 1.392 . S
C404 H432 0.930 . S
C405 C404 1.392 . S
C405 C406 1.398 . S
C405 H433 0.929 . S
C406 C405 1.398 . S
C406 C407 1.352 . S
C407 C406 1.352 . S
C407 C408 1.384 . S
C407 H434 0.930 . S
C408 C403 1.407 . S
C408 C407 1.384 . S
C408 H435 0.929 . S
C409 O422 1.241 . S
C409 O423 1.273 . S
C410 O424 1.251 . S
C410 O425 1.268 . S
C411 Nd401 2.836 . S
C411 C412 1.498 . S
C411 O426 1.258 . S
C411 O427 1.239 . S
C412 C411 1.498 . S
C412 C413 1.366 . S
C412 C417 1.407 . S
C413 C412 1.366 . S
C413 C414 1.392 . S
C413 H436 0.930 . S
C414 C413 1.392 . S
C414 C415 1.398 . S
C414 H437 0.929 . S
C415 C414 1.398 . S
C415 C416 1.352 . S
C416 C415 1.352 . S
C416 C417 1.384 . S
C416 H438 0.930 . S
C417 C412 1.407 . S
C417 C416 1.384 . S
C417 H439 0.929 . S
C418 O428 1.241 . S
C418 O429 1.273 . S
C419 O430 1.251 . S
C419 O431 1.268 . S
O420 Nd400 2.500 . S
O420 C402 1.258 . S
O421 Nd400 2.492 . S
O421 C402 1.239 . S
O422 Nd400 2.487 . S
O422 C409 1.241 . S
O423 Nd400 2.682 . S
O423 Nd401 2.414 1_455 S
O423 C409 1.273 . S
O424 Nd400 2.410 . S
O424 C410 1.251 . S
O425 Nd401 2.424 1_455 S
O425 C410 1.268 . S
O426 Nd401 2.500 . S
O426 C411 1.258 . S
O427 Nd401 2.492 . S
O427 C411 1.239 . S
O428 Nd401 2.487 . S
O428 C418 1.241 . S
O429 Nd400 2.414 1_655 S
O429 Nd401 2.682 . S
O429 C418 1.273 . S
O430 Nd401 2.410 . S
O430 C419 1.251 . S
O431 Nd400 2.424 1_655 S
O431 C419 1.268 . S
H432 C404 0.930 . S
H433 C405 0.929 . S
H434 C407 0.930 . S
H435 C408 0.929 . S
H436 C413 0.930 . S
H437 C414 0.929 . S
H438 C416 0.930 . S
H439 C417 0.929 . S
Nd440 C442 2.836 . S
Nd440 O460 2.500 . S
Nd440 O461 2.492 . S
Nd440 O462 2.487 . S
Nd440 O463 2.682 . S
Nd440 O464 2.410 . S
Nd440 O469 2.414 . S
Nd440 O471 2.424 . S
Nd441 C451 2.836 . S
Nd441 O463 2.414 . S
Nd441 O465 2.424 . S
Nd441 O466 2.500 . S
Nd441 O467 2.492 . S
Nd441 O468 2.487 . S
Nd441 O469 2.682 . S
Nd441 O470 2.410 . S
C442 Nd440 2.836 . S
C442 C443 1.498 . S
C442 O460 1.258 . S
C442 O461 1.239 . S
C443 C442 1.498 . S
C443 C444 1.366 . S
C443 C448 1.407 . S
C444 C443 1.366 . S
C444 C445 1.392 . S
C444 H472 0.930 . S
C445 C444 1.392 . S
C445 C446 1.398 . S
C445 H473 0.929 . S
C446 C445 1.398 . S
C446 C447 1.352 . S
C447 C446 1.352 . S
C447 C448 1.384 . S
C447 H474 0.930 . S
C448 C443 1.407 . S
C448 C447 1.384 . S
C448 H475 0.929 . S
C449 O462 1.241 . S
C449 O463 1.273 . S
C450 O464 1.251 . S
C450 O465 1.268 . S
C451 Nd441 2.836 . S
C451 C452 1.498 . S
C451 O466 1.258 . S
C451 O467 1.239 . S
C452 C451 1.498 . S
C452 C453 1.366 . S
C452 C457 1.407 . S
C453 C452 1.366 . S
C453 C454 1.392 . S
C453 H476 0.930 . S
C454 C453 1.392 . S
C454 C455 1.398 . S
C454 H477 0.929 . S
C455 C454 1.398 . S
C455 C456 1.352 . S
C456 C455 1.352 . S
C456 C457 1.384 . S
C456 H478 0.930 . S
C457 C452 1.407 . S
C457 C456 1.384 . S
C457 H479 0.929 . S
C458 O468 1.241 . S
C458 O469 1.273 . S
C459 O470 1.251 . S
C459 O471 1.268 . S
O460 Nd440 2.500 . S
O460 C442 1.258 . S
O461 Nd440 2.492 . S
O461 C442 1.239 . S
O462 Nd440 2.487 . S
O462 C449 1.241 . S
O463 Nd440 2.682 . S
O463 Nd441 2.414 . S
O463 C449 1.273 . S
O464 Nd440 2.410 . S
O464 C450 1.251 . S
O465 Nd441 2.424 . S
O465 C450 1.268 . S
O466 Nd441 2.500 . S
O466 C451 1.258 . S
O467 Nd441 2.492 . S
O467 C451 1.239 . S
O468 Nd441 2.487 . S
O468 C458 1.241 . S
O469 Nd440 2.414 . S
O469 Nd441 2.682 . S
O469 C458 1.273 . S
O470 Nd441 2.410 . S
O470 C459 1.251 . S
O471 Nd440 2.424 . S
O471 C459 1.268 . S
H472 C444 0.930 . S
H473 C445 0.929 . S
H474 C447 0.930 . S
H475 C448 0.929 . S
H476 C453 0.930 . S
H477 C454 0.929 . S
H478 C456 0.930 . S
H479 C457 0.929 . S
Nd480 C482 2.836 . S
Nd480 O500 2.500 . S
Nd480 O501 2.492 . S
Nd480 O502 2.487 . S
Nd480 O503 2.682 . S
Nd480 O504 2.410 . S
Nd480 O509 2.414 . S
Nd480 O511 2.424 . S
Nd481 C491 2.836 . S
Nd481 O503 2.414 . S
Nd481 O505 2.424 . S
Nd481 O506 2.500 . S
Nd481 O507 2.492 . S
Nd481 O508 2.487 . S
Nd481 O509 2.682 . S
Nd481 O510 2.410 . S
C482 Nd480 2.836 . S
C482 C483 1.498 . S
C482 O500 1.258 . S
C482 O501 1.239 . S
C483 C482 1.498 . S
C483 C484 1.366 . S
C483 C488 1.407 . S
C484 C483 1.366 . S
C484 C485 1.392 . S
C484 H512 0.930 . S
C485 C484 1.392 . S
C485 C486 1.398 . S
C485 H513 0.929 . S
C486 C485 1.398 . S
C486 C487 1.352 . S
C487 C486 1.352 . S
C487 C488 1.384 . S
C487 H514 0.930 . S
C488 C483 1.407 . S
C488 C487 1.384 . S
C488 H515 0.929 . S
C489 O502 1.241 . S
C489 O503 1.273 . S
C490 O504 1.251 . S
C490 O505 1.268 . S
C491 Nd481 2.836 . S
C491 C492 1.498 . S
C491 O506 1.258 . S
C491 O507 1.239 . S
C492 C491 1.498 . S
C492 C493 1.366 . S
C492 C497 1.407 . S
C493 C492 1.366 . S
C493 C494 1.392 . S
C493 H516 0.930 . S
C494 C493 1.392 . S
C494 C495 1.398 . S
C494 H517 0.929 . S
C495 C494 1.398 . S
C495 C496 1.352 . S
C496 C495 1.352 . S
C496 C497 1.384 . S
C496 H518 0.930 . S
C497 C492 1.407 . S
C497 C496 1.384 . S
C497 H519 0.929 . S
C498 O508 1.241 . S
C498 O509 1.273 . S
C499 O510 1.251 . S
C499 O511 1.268 . S
O500 Nd480 2.500 . S
O500 C482 1.258 . S
O501 Nd480 2.492 . S
O501 C482 1.239 . S
O502 Nd480 2.487 . S
O502 C489 1.241 . S
O503 Nd480 2.682 . S
O503 Nd481 2.414 . S
O503 C489 1.273 . S
O504 Nd480 2.410 . S
O504 C490 1.251 . S
O505 Nd481 2.424 . S
O505 C490 1.268 . S
O506 Nd481 2.500 . S
O506 C491 1.258 . S
O507 Nd481 2.492 . S
O507 C491 1.239 . S
O508 Nd481 2.487 . S
O508 C498 1.241 . S
O509 Nd480 2.414 . S
O509 Nd481 2.682 . S
O509 C498 1.273 . S
O510 Nd481 2.410 . S
O510 C499 1.251 . S
O511 Nd480 2.424 . S
O511 C499 1.268 . S
H512 C484 0.930 . S
H513 C485 0.929 . S
H514 C487 0.930 . S
H515 C488 0.929 . S
H516 C493 0.930 . S
H517 C494 0.929 . S
H518 C496 0.930 . S
H519 C497 0.929 . S
Nd520 C522 2.836 . S
Nd520 O540 2.500 . S
Nd520 O541 2.492 . S
Nd520 O542 2.487 . S
Nd520 O543 2.682 . S
Nd520 O544 2.410 . S
Nd520 O549 2.414 . S
Nd520 O551 2.424 . S
Nd521 C531 2.836 . S
Nd521 O543 2.414 . S
Nd521 O545 2.424 . S
Nd521 O546 2.500 . S
Nd521 O547 2.492 . S
Nd521 O548 2.487 . S
Nd521 O549 2.682 . S
Nd521 O550 2.410 . S
C522 Nd520 2.836 . S
C522 C523 1.498 . S
C522 O540 1.258 . S
C522 O541 1.239 . S
C523 C522 1.498 . S
C523 C524 1.366 . S
C523 C528 1.407 . S
C524 C523 1.366 . S
C524 C525 1.392 . S
C524 H552 0.930 . S
C525 C524 1.392 . S
C525 C526 1.398 . S
C525 H553 0.929 . S
C526 C525 1.398 . S
C526 C527 1.352 . S
C527 C526 1.352 . S
C527 C528 1.384 . S
C527 H554 0.930 . S
C528 C523 1.407 . S
C528 C527 1.384 . S
C528 H555 0.929 . S
C529 O542 1.241 . S
C529 O543 1.273 . S
C530 O544 1.251 . S
C530 O545 1.268 . S
C531 Nd521 2.836 . S
C531 C532 1.498 . S
C531 O546 1.258 . S
C531 O547 1.239 . S
C532 C531 1.498 . S
C532 C533 1.366 . S
C532 C537 1.407 . S
C533 C532 1.366 . S
C533 C534 1.392 . S
C533 H556 0.930 . S
C534 C533 1.392 . S
C534 C535 1.398 . S
C534 H557 0.929 . S
C535 C534 1.398 . S
C535 C536 1.352 . S
C536 C535 1.352 . S
C536 C537 1.384 . S
C536 H558 0.930 . S
C537 C532 1.407 . S
C537 C536 1.384 . S
C537 H559 0.929 . S
C538 O548 1.241 . S
C538 O549 1.273 . S
C539 O550 1.251 . S
C539 O551 1.268 . S
O540 Nd520 2.500 . S
O540 C522 1.258 . S
O541 Nd520 2.492 . S
O541 C522 1.239 . S
O542 Nd520 2.487 . S
O542 C529 1.241 . S
O543 Nd520 2.682 . S
O543 Nd521 2.414 . S
O543 C529 1.273 . S
O544 Nd520 2.410 . S
O544 C530 1.251 . S
O545 Nd521 2.424 . S
O545 C530 1.268 . S
O546 Nd521 2.500 . S
O546 C531 1.258 . S
O547 Nd521 2.492 . S
O547 C531 1.239 . S
O548 Nd521 2.487 . S
O548 C538 1.241 . S
O549 Nd520 2.414 . S
O549 Nd521 2.682 . S
O549 C538 1.273 . S
O550 Nd521 2.410 . S
O550 C539 1.251 . S
O551 Nd520 2.424 . S
O551 C539 1.268 . S
H552 C524 0.930 . S
H553 C525 0.929 . S
H554 C527 0.930 . S
H555 C528 0.929 . S
H556 C533 0.930 . S
H557 C534 0.929 . S
H558 C536 0.930 . S
H559 C537 0.929 . S
Nd560 C562 2.836 . S
Nd560 O580 2.500 . S
Nd560 O581 2.492 . S
Nd560 O582 2.487 . S
Nd560 O583 2.682 . S
Nd560 O584 2.410 . S
Nd560 O589 2.414 . S
Nd560 O591 2.424 . S
Nd561 C571 2.836 . S
Nd561 O583 2.414 . S
Nd561 O585 2.424 . S
Nd561 O586 2.500 . S
Nd561 O587 2.492 . S
Nd561 O588 2.487 . S
Nd561 O589 2.682 . S
Nd561 O590 2.410 . S
C562 Nd560 2.836 . S
C562 C563 1.498 . S
C562 O580 1.258 . S
C562 O581 1.239 . S
C563 C562 1.498 . S
C563 C564 1.366 . S
C563 C568 1.407 . S
C564 C563 1.366 . S
C564 C565 1.392 . S
C564 H592 0.930 . S
C565 C564 1.392 . S
C565 C566 1.398 . S
C565 H593 0.929 . S
C566 C565 1.398 . S
C566 C567 1.352 . S
C567 C566 1.352 . S
C567 C568 1.384 . S
C567 H594 0.930 . S
C568 C563 1.407 . S
C568 C567 1.384 . S
C568 H595 0.929 . S
C569 O582 1.241 . S
C569 O583 1.273 . S
C570 O584 1.251 . S
C570 O585 1.268 . S
C571 Nd561 2.836 . S
C571 C572 1.498 . S
C571 O586 1.258 . S
C571 O587 1.239 . S
C572 C571 1.498 . S
C572 C573 1.366 . S
C572 C577 1.407 . S
C573 C572 1.366 . S
C573 C574 1.392 . S
C573 H596 0.930 . S
C574 C573 1.392 . S
C574 C575 1.398 . S
C574 H597 0.929 . S
C575 C574 1.398 . S
C575 C576 1.352 . S
C576 C575 1.352 . S
C576 C577 1.384 . S
C576 H598 0.930 . S
C577 C572 1.407 . S
C577 C576 1.384 . S
C577 H599 0.929 . S
C578 O588 1.241 . S
C578 O589 1.273 . S
C579 O590 1.251 . S
C579 O591 1.268 . S
O580 Nd560 2.500 . S
O580 C562 1.258 . S
O581 Nd560 2.492 . S
O581 C562 1.239 . S
O582 Nd560 2.487 . S
O582 C569 1.241 . S
O583 Nd560 2.682 . S
O583 Nd561 2.414 . S
O583 C569 1.273 . S
O584 Nd560 2.410 . S
O584 C570 1.251 . S
O585 Nd561 2.424 . S
O585 C570 1.268 . S
O586 Nd561 2.500 . S
O586 C571 1.258 . S
O587 Nd561 2.492 . S
O587 C571 1.239 . S
O588 Nd561 2.487 . S
O588 C578 1.241 . S
O589 Nd560 2.414 . S
O589 Nd561 2.682 . S
O589 C578 1.273 . S
O590 Nd561 2.410 . S
O590 C579 1.251 . S
O591 Nd560 2.424 . S
O591 C579 1.268 . S
H592 C564 0.930 . S
H593 C565 0.929 . S
H594 C567 0.930 . S
H595 C568 0.929 . S
H596 C573 0.930 . S
H597 C574 0.929 . S
H598 C576 0.930 . S
H599 C577 0.929 . S
Nd600 C602 2.836 . S
Nd600 O620 2.500 . S
Nd600 O621 2.492 . S
Nd600 O622 2.487 . S
Nd600 O623 2.682 . S
Nd600 O624 2.410 1_556 S
Nd600 O629 2.414 1_656 S
Nd600 O631 2.424 1_655 S
Nd601 C611 2.836 . S
Nd601 O623 2.414 1_454 S
Nd601 O625 2.424 1_455 S
Nd601 O626 2.500 . S
Nd601 O627 2.492 . S
Nd601 O628 2.487 . S
Nd601 O629 2.682 . S
Nd601 O630 2.382 1_554 S
C602 Nd600 2.836 . S
C602 C603 1.498 . S
C602 O620 1.258 . S
C602 O621 1.239 . S
C603 C602 1.498 . S
C603 C604 1.366 . S
C603 C608 1.407 . S
C604 C603 1.366 . S
C604 C605 1.392 . S
C604 H632 0.930 . S
C605 C604 1.392 . S
C605 C606 1.398 . S
C605 H633 0.929 . S
C606 C605 1.398 . S
C606 C607 1.352 . S
C607 C606 1.352 . S
C607 C608 1.384 . S
C607 H634 0.930 . S
C608 C603 1.407 . S
C608 C607 1.384 . S
C608 H635 0.929 . S
C609 O622 1.241 . S
C609 O623 1.273 . S
C610 O624 1.251 . S
C610 O625 1.268 . S
C611 Nd601 2.836 . S
C611 C612 1.498 . S
C611 O626 1.258 . S
C611 O627 1.239 . S
C612 C611 1.498 . S
C612 C613 1.366 . S
C612 C617 1.407 . S
C613 C612 1.366 . S
C613 C614 1.392 . S
C613 H636 0.930 . S
C614 C613 1.392 . S
C614 C615 1.398 . S
C614 H637 0.929 . S
C615 C614 1.398 . S
C615 C616 1.352 . S
C616 C615 1.352 . S
C616 C617 1.384 . S
C616 H638 0.930 . S
C617 C612 1.407 . S
C617 C616 1.384 . S
C617 H639 0.929 . S
C618 O628 1.241 . S
C618 O629 1.273 . S
C619 O630 1.292 . S
C619 O631 1.268 . S
O620 Nd600 2.500 . S
O620 C602 1.258 . S
O621 Nd600 2.492 . S
O621 C602 1.239 . S
O622 Nd600 2.487 . S
O622 C609 1.241 . S
O623 Nd600 2.682 . S
O623 Nd601 2.414 1_656 S
O623 C609 1.273 . S
O624 Nd600 2.410 1_554 S
O624 C610 1.251 . S
O625 Nd601 2.424 1_655 S
O625 C610 1.268 . S
O626 Nd601 2.500 . S
O626 C611 1.258 . S
O627 Nd601 2.492 . S
O627 C611 1.239 . S
O628 Nd601 2.487 . S
O628 C618 1.241 . S
O629 Nd600 2.414 1_454 S
O629 Nd601 2.682 . S
O629 C618 1.273 . S
O630 Nd601 2.382 1_556 S
O630 C619 1.292 . S
O631 Nd600 2.424 1_455 S
O631 C619 1.268 . S
H632 C604 0.930 . S
H633 C605 0.929 . S
H634 C607 0.930 . S
H635 C608 0.929 . S
H636 C613 0.930 . S
H637 C614 0.929 . S
H638 C616 0.930 . S
H639 C617 0.929 . S
H640 C658 0.951 . S
H641 C660 0.951 . S
H642 C662 0.950 . S
H643 C663 0.950 . S
H644 C665 0.950 . S
H645 C668 0.950 . S
H646 C669 0.950 . S
H647 C671 0.950 . S
H648 C672 0.950 . S
H649 C673 0.951 . S
H650 C675 0.951 . S
H651 C677 0.950 . S
H652 C678 0.950 1_554 S
H653 C680 0.950 . S
H654 C683 0.950 . S
H655 C684 0.950 . S
H656 C686 0.950 . S
H657 C687 0.950 . S
C658 H640 0.951 . S
C658 C659 1.366 . S
C658 C660 1.388 . S
C659 C658 1.366 . S
C659 C663 1.385 . S
C660 H641 0.951 . S
C660 C658 1.388 . S
C660 C661 1.366 . S
C661 C660 1.366 . S
C661 C662 1.414 . S
C661 C664 1.499 . S
C662 H642 0.950 . S
C662 C661 1.414 . S
C662 C663 1.374 . S
C663 H643 0.950 . S
C663 C659 1.385 . S
C663 C662 1.374 . S
C664 C661 1.499 . S
C664 C665 1.373 . S
C664 C666 1.389 . S
C665 H644 0.950 . S
C665 C664 1.373 . S
C665 C681 1.377 . S
C666 C664 1.389 . S
C666 C667 1.524 . S
C666 C680 1.377 . S
C667 C666 1.524 . S
C667 C668 1.397 . S
C667 C672 1.363 . S
C668 H645 0.950 . S
C668 C667 1.397 . S
C668 C669 1.334 . S
C669 H646 0.950 . S
C669 C668 1.334 . S
C669 C670 1.287 . S
C670 C669 1.287 . S
C670 C671 1.524 . S
C670 H689 0.913 . S
C671 H647 0.950 . S
C671 C670 1.524 . S
C671 C672 1.415 . S
C672 H648 0.950 . S
C672 C667 1.363 . S
C672 C671 1.415 . S
C673 H649 0.951 . S
C673 C674 1.366 . S
C673 C675 1.388 . S
C674 C673 1.366 . S
C674 C678 1.385 . S
C675 H650 0.951 . S
C675 C673 1.388 . S
C675 C676 1.366 . S
C676 C675 1.366 . S
C676 C677 1.414 . S
C676 C679 1.499 . S
C677 H651 0.950 . S
C677 C676 1.414 . S
C677 C678 1.374 . S
C678 H652 0.950 1_556 S
C678 C674 1.385 . S
C678 C677 1.374 . S
C679 C676 1.499 . S
C679 C680 1.373 . S
C679 C681 1.389 . S
C680 H653 0.950 . S
C680 C666 1.377 . S
C680 C679 1.373 . S
C681 C665 1.377 . S
C681 C679 1.389 . S
C681 C682 1.524 . S
C682 C681 1.524 . S
C682 C683 1.397 . S
C682 C687 1.363 . S
C683 H654 0.950 . S
C683 C682 1.397 . S
C683 C684 1.334 . S
C684 H655 0.950 . S
C684 C683 1.334 . S
C684 C685 1.287 . S
C685 C684 1.287 . S
C685 C686 1.524 . S
C685 H688 0.999 1_455 S
C686 H656 0.950 . S
C686 C685 1.524 . S
C686 C687 1.415 . S
C687 H657 0.950 . S
C687 C682 1.363 . S
C687 C686 1.415 . S
H688 C685 0.999 1_655 S
H689 C670 0.913 . S
H690 C708 0.951 . S
H691 C710 0.951 . S
H692 C712 0.950 . S
H693 C713 0.950 . S
H694 C715 0.950 . S
H695 C718 0.950 . S
H696 C719 0.950 . S
H697 C721 0.950 . S
H698 C722 0.950 . S
H699 C723 0.951 . S
H700 C725 0.951 . S
H701 C727 0.950 . S
H702 C728 0.950 . S
H703 C730 0.950 . S
H704 C733 0.950 . S
H705 C734 0.950 . S
H706 C736 0.950 . S
H707 C737 0.950 . S
C708 H690 0.951 . S
C708 C709 1.366 . S
C708 C710 1.388 . S
C709 C708 1.366 . S
C709 C713 1.385 . S
C710 H691 0.951 . S
C710 C708 1.388 . S
C710 C711 1.366 . S
C711 C710 1.366 . S
C711 C712 1.414 . S
C711 C714 1.499 . S
C712 H692 0.950 . S
C712 C711 1.414 . S
C712 C713 1.374 . S
C713 H693 0.950 . S
C713 C709 1.385 . S
C713 C712 1.374 . S
C714 C711 1.499 . S
C714 C715 1.373 . S
C714 C716 1.389 . S
C715 H694 0.950 . S
C715 C714 1.373 . S
C715 C731 1.377 . S
C716 C714 1.389 . S
C716 C717 1.524 . S
C716 C730 1.377 . S
C717 C716 1.524 . S
C717 C718 1.397 . S
C717 C722 1.363 . S
C718 H695 0.950 . S
C718 C717 1.397 . S
C718 C719 1.334 . S
C719 H696 0.950 . S
C719 C718 1.334 . S
C719 C720 1.287 . S
C720 C719 1.287 . S
C720 C721 1.524 . S
C720 H739 0.913 . S
C721 H697 0.950 . S
C721 C720 1.524 . S
C721 C722 1.415 . S
C722 H698 0.950 . S
C722 C717 1.363 . S
C722 C721 1.415 . S
C723 H699 0.951 . S
C723 C724 1.366 . S
C723 C725 1.388 . S
C724 C723 1.366 . S
C724 C728 1.385 . S
C725 H700 0.951 . S
C725 C723 1.388 . S
C725 C726 1.366 . S
C726 C725 1.366 . S
C726 C727 1.414 . S
C726 C729 1.499 . S
C727 H701 0.950 . S
C727 C726 1.414 . S
C727 C728 1.374 . S
C728 H702 0.950 . S
C728 C724 1.385 . S
C728 C727 1.374 . S
C729 C726 1.499 . S
C729 C730 1.373 . S
C729 C731 1.389 . S
C730 H703 0.950 . S
C730 C716 1.377 . S
C730 C729 1.373 . S
C731 C715 1.377 . S
C731 C729 1.389 . S
C731 C732 1.524 . S
C732 C731 1.524 . S
C732 C733 1.397 . S
C732 C737 1.363 . S
C733 H704 0.950 . S
C733 C732 1.397 . S
C733 C734 1.334 . S
C734 H705 0.950 . S
C734 C733 1.334 . S
C734 C735 1.287 . S
C735 C734 1.287 . S
C735 C736 1.524 . S
C735 H738 0.999 . S
C736 H706 0.950 . S
C736 C735 1.524 . S
C736 C737 1.415 . S
C737 H707 0.950 . S
C737 C732 1.363 . S
C737 C736 1.415 . S
H738 C735 0.999 . S
H739 C720 0.913 . S
H740 C758 0.951 . S
H741 C760 0.951 . S
H742 C762 0.950 . S
H743 C763 0.950 . S
H744 C765 0.950 . S
H745 C768 0.950 . S
H746 C769 0.950 . S
H747 C771 0.950 . S
H748 C772 0.950 . S
H749 C773 0.951 . S
H750 C775 0.951 . S
H751 C777 0.950 . S
H752 C778 0.950 . S
H753 C780 0.950 . S
H754 C783 0.950 . S
H755 C784 0.950 . S
H756 C786 0.950 . S
H757 C787 0.950 . S
C758 H740 0.951 . S
C758 C759 1.366 . S
C758 C760 1.388 . S
C759 C758 1.366 . S
C759 C763 1.385 . S
C760 H741 0.951 . S
C760 C758 1.388 . S
C760 C761 1.366 . S
C761 C760 1.366 . S
C761 C762 1.414 . S
C761 C764 1.499 . S
C762 H742 0.950 . S
C762 C761 1.414 . S
C762 C763 1.374 . S
C763 H743 0.950 . S
C763 C759 1.385 . S
C763 C762 1.374 . S
C764 C761 1.499 . S
C764 C765 1.373 . S
C764 C766 1.389 . S
C765 H744 0.950 . S
C765 C764 1.373 . S
C765 C781 1.377 . S
C766 C764 1.389 . S
C766 C767 1.524 . S
C766 C780 1.377 . S
C767 C766 1.524 . S
C767 C768 1.397 . S
C767 C772 1.363 . S
C768 H745 0.950 . S
C768 C767 1.397 . S
C768 C769 1.334 . S
C769 H746 0.950 . S
C769 C768 1.334 . S
C769 C770 1.287 . S
C770 C769 1.287 . S
C770 C771 1.524 . S
C770 H789 0.913 . S
C771 H747 0.950 . S
C771 C770 1.524 . S
C771 C772 1.415 . S
C772 H748 0.950 . S
C772 C767 1.363 . S
C772 C771 1.415 . S
C773 H749 0.951 . S
C773 C774 1.366 . S
C773 C775 1.388 . S
C774 C773 1.366 . S
C774 C778 1.385 . S
C775 H750 0.951 . S
C775 C773 1.388 . S
C775 C776 1.366 . S
C776 C775 1.366 . S
C776 C777 1.414 . S
C776 C779 1.499 . S
C777 H751 0.950 . S
C777 C776 1.414 . S
C777 C778 1.374 . S
C778 H752 0.950 . S
C778 C774 1.385 . S
C778 C777 1.374 . S
C779 C776 1.499 . S
C779 C780 1.373 . S
C779 C781 1.389 . S
C780 H753 0.950 . S
C780 C766 1.377 . S
C780 C779 1.373 . S
C781 C765 1.377 . S
C781 C779 1.389 . S
C781 C782 1.524 . S
C782 C781 1.524 . S
C782 C783 1.397 . S
C782 C787 1.363 . S
C783 H754 0.950 . S
C783 C782 1.397 . S
C783 C784 1.334 . S
C784 H755 0.950 . S
C784 C783 1.334 . S
C784 C785 1.287 . S
C785 C784 1.287 . S
C785 C786 1.524 . S
C785 H788 0.999 . S
C786 H756 0.950 . S
C786 C785 1.524 . S
C786 C787 1.415 . S
C787 H757 0.950 . S
C787 C782 1.363 . S
C787 C786 1.415 . S
H788 C785 0.999 . S
H789 C770 0.913 . S
H790 C808 0.951 . S
H791 C810 0.951 . S
H792 C812 0.950 . S
H793 C813 0.950 . S
H794 C815 0.950 . S
H795 C818 0.950 . S
H796 C819 0.950 . S
H797 C821 0.950 . S
H798 C822 0.950 . S
H799 C823 0.951 . S
H800 C825 0.951 . S
H801 C827 0.950 . S
H802 C828 0.950 . S
H803 C830 0.950 . S
H804 C833 0.950 . S
H805 C834 0.950 . S
H806 C836 0.950 . S
H807 C837 0.950 . S
C808 H790 0.951 . S
C808 C809 1.366 . S
C808 C810 1.388 . S
C809 C808 1.366 . S
C809 C813 1.385 . S
C810 H791 0.951 . S
C810 C808 1.388 . S
C810 C811 1.366 . S
C811 C810 1.366 . S
C811 C812 1.414 . S
C811 C814 1.499 . S
C812 H792 0.950 . S
C812 C811 1.414 . S
C812 C813 1.374 . S
C813 H793 0.950 . S
C813 C809 1.385 . S
C813 C812 1.374 . S
C814 C811 1.499 . S
C814 C815 1.373 . S
C814 C816 1.389 . S
C815 H794 0.950 . S
C815 C814 1.373 . S
C815 C831 1.377 . S
C816 C814 1.389 . S
C816 C817 1.524 . S
C816 C830 1.377 . S
C817 C816 1.524 . S
C817 C818 1.397 . S
C817 C822 1.363 . S
C818 H795 0.950 . S
C818 C817 1.397 . S
C818 C819 1.334 . S
C819 H796 0.950 . S
C819 C818 1.334 . S
C819 C820 1.287 . S
C820 C819 1.287 . S
C820 C821 1.524 . S
C820 H839 0.913 . S
C821 H797 0.950 . S
C821 C820 1.524 . S
C821 C822 1.415 . S
C822 H798 0.950 . S
C822 C817 1.363 . S
C822 C821 1.415 . S
C823 H799 0.951 . S
C823 C824 1.366 . S
C823 C825 1.388 . S
C824 C823 1.366 . S
C824 C828 1.385 . S
C825 H800 0.951 . S
C825 C823 1.388 . S
C825 C826 1.366 . S
C826 C825 1.366 . S
C826 C827 1.414 . S
C826 C829 1.499 . S
C827 H801 0.950 . S
C827 C826 1.414 . S
C827 C828 1.374 . S
C828 H802 0.950 . S
C828 C824 1.385 . S
C828 C827 1.374 . S
C829 C826 1.499 . S
C829 C830 1.373 . S
C829 C831 1.389 . S
C830 H803 0.950 . S
C830 C816 1.377 . S
C830 C829 1.373 . S
C831 C815 1.377 . S
C831 C829 1.389 . S
C831 C832 1.524 . S
C832 C831 1.524 . S
C832 C833 1.397 . S
C832 C837 1.363 . S
C833 H804 0.950 . S
C833 C832 1.397 . S
C833 C834 1.334 . S
C834 H805 0.950 . S
C834 C833 1.334 . S
C834 C835 1.287 . S
C835 C834 1.287 . S
C835 C836 1.524 . S
C835 H838 0.999 . S
C836 H806 0.950 . S
C836 C835 1.524 . S
C836 C837 1.415 . S
C837 H807 0.950 . S
C837 C832 1.363 . S
C837 C836 1.415 . S
H838 C835 0.999 . S
H839 C820 0.913 . S
H840 C858 0.951 . S
H841 C860 0.951 . S
H842 C862 0.950 . S
H843 C863 0.950 . S
H844 C865 0.950 . S
H845 C868 0.950 . S
H846 C869 0.950 . S
H847 C871 0.950 . S
H848 C872 0.950 . S
H849 C873 0.951 . S
H850 C875 0.951 . S
H851 C877 0.950 . S
H852 C878 0.950 . S
H853 C880 0.950 . S
H854 C883 0.950 . S
H855 C884 0.950 . S
H856 C886 0.950 . S
H857 C887 0.950 . S
C858 H840 0.951 . S
C858 C859 1.366 . S
C858 C860 1.388 . S
C859 C858 1.366 . S
C859 C863 1.385 . S
C860 H841 0.951 . S
C860 C858 1.388 . S
C860 C861 1.366 . S
C861 C860 1.366 . S
C861 C862 1.414 . S
C861 C864 1.499 . S
C862 H842 0.950 . S
C862 C861 1.414 . S
C862 C863 1.374 . S
C863 H843 0.950 . S
C863 C859 1.385 . S
C863 C862 1.374 . S
C864 C861 1.499 . S
C864 C865 1.373 . S
C864 C866 1.389 . S
C865 H844 0.950 . S
C865 C864 1.373 . S
C865 C881 1.377 . S
C866 C864 1.389 . S
C866 C867 1.524 . S
C866 C880 1.377 . S
C867 C866 1.524 . S
C867 C868 1.397 . S
C867 C872 1.363 . S
C868 H845 0.950 . S
C868 C867 1.397 . S
C868 C869 1.334 . S
C869 H846 0.950 . S
C869 C868 1.334 . S
C869 C870 1.287 . S
C870 C869 1.287 . S
C870 C871 1.524 . S
C870 H889 0.913 . S
C871 H847 0.950 . S
C871 C870 1.524 . S
C871 C872 1.415 . S
C872 H848 0.950 . S
C872 C867 1.363 . S
C872 C871 1.415 . S
C873 H849 0.951 . S
C873 C874 1.366 . S
C873 C875 1.388 . S
C874 C873 1.366 . S
C874 C878 1.385 . S
C875 H850 0.951 . S
C875 C873 1.388 . S
C875 C876 1.366 . S
C876 C875 1.366 . S
C876 C877 1.414 . S
C876 C879 1.499 . S
C877 H851 0.950 . S
C877 C876 1.414 . S
C877 C878 1.374 . S
C878 H852 0.950 . S
C878 C874 1.385 . S
C878 C877 1.374 . S
C879 C876 1.499 . S
C879 C880 1.373 . S
C879 C881 1.389 . S
C880 H853 0.950 . S
C880 C866 1.377 . S
C880 C879 1.373 . S
C881 C865 1.377 . S
C881 C879 1.389 . S
C881 C882 1.524 . S
C882 C881 1.524 . S
C882 C883 1.397 . S
C882 C887 1.363 . S
C883 H854 0.950 . S
C883 C882 1.397 . S
C883 C884 1.334 . S
C884 H855 0.950 . S
C884 C883 1.334 . S
C884 C885 1.287 . S
C885 C884 1.287 . S
C885 C886 1.524 . S
C885 H888 0.999 . S
C886 H856 0.950 . S
C886 C885 1.524 . S
C886 C887 1.415 . S
C887 H857 0.950 . S
C887 C882 1.363 . S
C887 C886 1.415 . S
H888 C885 0.999 . S
H889 C870 0.913 . S
H890 C908 0.951 . S
H891 C910 0.951 . S
H892 C912 0.950 . S
H893 C913 0.950 . S
H894 C915 0.950 . S
H895 C918 0.950 . S
H896 C919 0.950 . S
H897 C921 0.950 . S
H898 C922 0.950 . S
H899 C923 0.951 . S
H900 C925 0.951 . S
H901 C927 0.950 . S
H902 C928 0.950 . S
H903 C930 0.950 . S
H904 C933 0.950 . S
H905 C934 0.950 . S
H906 C936 0.950 . S
H907 C937 0.950 . S
C908 H890 0.951 . S
C908 C909 1.366 . S
C908 C910 1.388 . S
C909 C908 1.366 . S
C909 C913 1.385 . S
C910 H891 0.951 . S
C910 C908 1.388 . S
C910 C911 1.366 . S
C911 C910 1.366 . S
C911 C912 1.414 . S
C911 C914 1.499 . S
C912 H892 0.950 . S
C912 C911 1.414 . S
C912 C913 1.374 . S
C913 H893 0.950 . S
C913 C909 1.385 . S
C913 C912 1.374 . S
C914 C911 1.499 . S
C914 C915 1.373 . S
C914 C916 1.389 . S
C915 H894 0.950 . S
C915 C914 1.373 . S
C915 C931 1.377 . S
C916 C914 1.389 . S
C916 C917 1.524 . S
C916 C930 1.377 . S
C917 C916 1.524 . S
C917 C918 1.397 . S
C917 C922 1.363 . S
C918 H895 0.950 . S
C918 C917 1.397 . S
C918 C919 1.334 . S
C919 H896 0.950 . S
C919 C918 1.334 . S
C919 C920 1.287 . S
C920 C919 1.287 . S
C920 C921 1.524 . S
C920 H939 0.913 . S
C921 H897 0.950 . S
C921 C920 1.524 . S
C921 C922 1.415 . S
C922 H898 0.950 . S
C922 C917 1.363 . S
C922 C921 1.415 . S
C923 H899 0.951 . S
C923 C924 1.366 . S
C923 C925 1.388 . S
C924 C923 1.366 . S
C924 C928 1.385 . S
C925 H900 0.951 . S
C925 C923 1.388 . S
C925 C926 1.366 . S
C926 C925 1.366 . S
C926 C927 1.414 . S
C926 C929 1.499 . S
C927 H901 0.950 . S
C927 C926 1.414 . S
C927 C928 1.374 . S
C928 H902 0.950 . S
C928 C924 1.385 . S
C928 C927 1.374 . S
C929 C926 1.499 . S
C929 C930 1.373 . S
C929 C931 1.389 . S
C930 H903 0.950 . S
C930 C916 1.377 . S
C930 C929 1.373 . S
C931 C915 1.377 . S
C931 C929 1.389 . S
C931 C932 1.524 . S
C932 C931 1.524 . S
C932 C933 1.397 . S
C932 C937 1.363 . S
C933 H904 0.950 . S
C933 C932 1.397 . S
C933 C934 1.334 . S
C934 H905 0.950 . S
C934 C933 1.334 . S
C934 C935 1.287 . S
C935 C934 1.287 . S
C935 C936 1.524 . S
C935 H938 0.999 . S
C936 H906 0.950 . S
C936 C935 1.524 . S
C936 C937 1.415 . S
C937 H907 0.950 . S
C937 C932 1.363 . S
C937 C936 1.415 . S
H938 C935 0.999 . S
H939 C920 0.913 . S
H940 C958 0.951 . S
H941 C960 0.951 . S
H942 C962 0.950 . S
H943 C963 0.950 . S
H944 C965 0.950 . S
H945 C968 0.950 . S
H946 C969 0.950 . S
H947 C971 0.950 . S
H948 C972 0.950 . S
H949 C973 0.951 . S
H950 C975 0.951 . S
H951 C977 0.950 . S
H952 C978 0.950 . S
H953 C980 0.950 . S
H954 C983 0.950 . S
H955 C984 0.950 . S
H956 C986 0.950 . S
H957 C987 0.950 . S
C958 H940 0.951 . S
C958 C959 1.366 . S
C958 C960 1.388 . S
C959 C958 1.366 . S
C959 C963 1.385 . S
C960 H941 0.951 . S
C960 C958 1.388 . S
C960 C961 1.366 . S
C961 C960 1.366 . S
C961 C962 1.414 . S
C961 C964 1.499 . S
C962 H942 0.950 . S
C962 C961 1.414 . S
C962 C963 1.374 . S
C963 H943 0.950 . S
C963 C959 1.385 . S
C963 C962 1.374 . S
C964 C961 1.499 . S
C964 C965 1.373 . S
C964 C966 1.389 . S
C965 H944 0.950 . S
C965 C964 1.373 . S
C965 C981 1.377 . S
C966 C964 1.389 . S
C966 C967 1.524 . S
C966 C980 1.377 . S
C967 C966 1.524 . S
C967 C968 1.397 . S
C967 C972 1.363 . S
C968 H945 0.950 . S
C968 C967 1.397 . S
C968 C969 1.334 . S
C969 H946 0.950 . S
C969 C968 1.334 . S
C969 C970 1.287 . S
C970 C969 1.287 . S
C970 C971 1.524 . S
C970 H989 0.913 . S
C971 H947 0.950 . S
C971 C970 1.524 . S
C971 C972 1.415 . S
C972 H948 0.950 . S
C972 C967 1.363 . S
C972 C971 1.415 . S
C973 H949 0.951 . S
C973 C974 1.366 . S
C973 C975 1.388 . S
C974 C973 1.366 . S
C974 C978 1.385 . S
C975 H950 0.951 . S
C975 C973 1.388 . S
C975 C976 1.366 . S
C976 C975 1.366 . S
C976 C977 1.414 . S
C976 C979 1.499 . S
C977 H951 0.950 . S
C977 C976 1.414 . S
C977 C978 1.374 . S
C978 H952 0.950 . S
C978 C974 1.385 . S
C978 C977 1.374 . S
C979 C976 1.499 . S
C979 C980 1.373 . S
C979 C981 1.389 . S
C980 H953 0.950 . S
C980 C966 1.377 . S
C980 C979 1.373 . S
C981 C965 1.377 . S
C981 C979 1.389 . S
C981 C982 1.524 . S
C982 C981 1.524 . S
C982 C983 1.397 . S
C982 C987 1.363 . S
C983 H954 0.950 . S
C983 C982 1.397 . S
C983 C984 1.334 . S
C984 H955 0.950 . S
C984 C983 1.334 . S
C984 C985 1.287 . S
C985 C984 1.287 . S
C985 C986 1.524 . S
C985 H988 0.999 . S
C986 H956 0.950 . S
C986 C985 1.524 . S
C986 C987 1.415 . S
C987 H957 0.950 . S
C987 C982 1.363 . S
C987 C986 1.415 . S
H988 C985 0.999 . S
H989 C970 0.913 . S
H990 C1008 0.951 . S
H991 C1010 0.951 . S
H992 C1012 0.950 . S
H993 C1013 0.950 . S
H994 C1015 0.950 . S
H995 C1018 0.950 . S
H996 C1019 0.950 . S
H997 C1021 0.950 . S
H998 C1022 0.950 . S
H999 C1023 0.951 . S
H1000 C1025 0.951 . S
H1001 C1027 0.950 . S
H1002 C1028 0.950 . S
H1003 C1030 0.950 . S
H1004 C1033 0.950 . S
H1005 C1034 0.950 . S
H1006 C1036 0.950 . S
H1007 C1037 0.950 . S
C1008 H990 0.951 . S
C1008 C1009 1.366 . S
C1008 C1010 1.388 . S
C1009 C1008 1.366 . S
C1009 C1013 1.385 . S
C1010 H991 0.951 . S
C1010 C1008 1.388 . S
C1010 C1011 1.366 . S
C1011 C1010 1.366 . S
C1011 C1012 1.414 . S
C1011 C1014 1.499 . S
C1012 H992 0.950 . S
C1012 C1011 1.414 . S
C1012 C1013 1.374 . S
C1013 H993 0.950 . S
C1013 C1009 1.385 . S
C1013 C1012 1.374 . S
C1014 C1011 1.499 . S
C1014 C1015 1.373 . S
C1014 C1016 1.389 . S
C1015 H994 0.950 . S
C1015 C1014 1.373 . S
C1015 C1031 1.377 . S
C1016 C1014 1.389 . S
C1016 C1017 1.524 . S
C1016 C1030 1.377 . S
C1017 C1016 1.524 . S
C1017 C1018 1.397 . S
C1017 C1022 1.363 . S
C1018 H995 0.950 . S
C1018 C1017 1.397 . S
C1018 C1019 1.334 . S
C1019 H996 0.950 . S
C1019 C1018 1.334 . S
C1019 C1020 1.287 . S
C1020 C1019 1.287 . S
C1020 C1021 1.524 . S
C1020 H1039 0.913 . S
C1021 H997 0.950 . S
C1021 C1020 1.524 . S
C1021 C1022 1.415 . S
C1022 H998 0.950 . S
C1022 C1017 1.363 . S
C1022 C1021 1.415 . S
C1023 H999 0.951 . S
C1023 C1024 1.366 . S
C1023 C1025 1.388 . S
C1024 C1023 1.366 . S
C1024 C1028 1.385 . S
C1025 H1000 0.951 . S
C1025 C1023 1.388 . S
C1025 C1026 1.366 . S
C1026 C1025 1.366 . S
C1026 C1027 1.414 . S
C1026 C1029 1.499 . S
C1027 H1001 0.950 . S
C1027 C1026 1.414 . S
C1027 C1028 1.374 . S
C1028 H1002 0.950 . S
C1028 C1024 1.385 . S
C1028 C1027 1.374 . S
C1029 C1026 1.499 . S
C1029 C1030 1.373 . S
C1029 C1031 1.389 . S
C1030 H1003 0.950 . S
C1030 C1016 1.377 . S
C1030 C1029 1.373 . S
C1031 C1015 1.377 . S
C1031 C1029 1.389 . S
C1031 C1032 1.524 . S
C1032 C1031 1.524 . S
C1032 C1033 1.397 . S
C1032 C1037 1.363 . S
C1033 H1004 0.950 . S
C1033 C1032 1.397 . S
C1033 C1034 1.334 . S
C1034 H1005 0.950 . S
C1034 C1033 1.334 . S
C1034 C1035 1.287 . S
C1035 C1034 1.287 . S
C1035 C1036 1.524 . S
C1035 H1038 0.999 . S
C1036 H1006 0.950 . S
C1036 C1035 1.524 . S
C1036 C1037 1.415 . S
C1037 H1007 0.950 . S
C1037 C1032 1.363 . S
C1037 C1036 1.415 . S
H1038 C1035 0.999 . S
H1039 C1020 0.913 . S
H1040 C1058 0.951 . S
H1041 C1060 0.951 . S
H1042 C1062 0.950 . S
H1043 C1063 0.950 . S
H1044 C1065 0.950 . S
H1045 C1068 0.950 . S
H1046 C1069 0.950 . S
H1047 C1071 0.950 . S
H1048 C1072 0.950 . S
H1049 C1073 0.951 . S
H1050 C1075 0.951 . S
H1051 C1077 0.950 . S
H1052 C1078 0.950 . S
H1053 C1080 0.950 . S
H1054 C1083 0.950 . S
H1055 C1084 0.950 . S
H1056 C1086 0.950 . S
H1057 C1087 0.950 . S
C1058 H1040 0.951 . S
C1058 C1059 1.366 . S
C1058 C1060 1.388 . S
C1059 C1058 1.366 . S
C1059 C1063 1.385 . S
C1060 H1041 0.951 . S
C1060 C1058 1.388 . S
C1060 C1061 1.366 . S
C1061 C1060 1.366 . S
C1061 C1062 1.414 . S
C1061 C1064 1.499 . S
C1062 H1042 0.950 . S
C1062 C1061 1.414 . S
C1062 C1063 1.374 . S
C1063 H1043 0.950 . S
C1063 C1059 1.385 . S
C1063 C1062 1.374 . S
C1064 C1061 1.499 . S
C1064 C1065 1.373 . S
C1064 C1066 1.389 . S
C1065 H1044 0.950 . S
C1065 C1064 1.373 . S
C1065 C1081 1.377 . S
C1066 C1064 1.389 . S
C1066 C1067 1.524 . S
C1066 C1080 1.377 . S
C1067 C1066 1.524 . S
C1067 C1068 1.397 . S
C1067 C1072 1.363 . S
C1068 H1045 0.950 . S
C1068 C1067 1.397 . S
C1068 C1069 1.334 . S
C1069 H1046 0.950 . S
C1069 C1068 1.334 . S
C1069 C1070 1.287 . S
C1070 C1069 1.287 . S
C1070 C1071 1.524 . S
C1070 H1089 0.913 . S
C1071 H1047 0.950 . S
C1071 C1070 1.524 . S
C1071 C1072 1.415 . S
C1072 H1048 0.950 . S
C1072 C1067 1.363 . S
C1072 C1071 1.415 . S
C1073 H1049 0.951 . S
C1073 C1074 1.366 . S
C1073 C1075 1.388 . S
C1074 C1073 1.366 . S
C1074 C1078 1.385 . S
C1075 H1050 0.951 . S
C1075 C1073 1.388 . S
C1075 C1076 1.366 . S
C1076 C1075 1.366 . S
C1076 C1077 1.414 . S
C1076 C1079 1.499 . S
C1077 H1051 0.950 . S
C1077 C1076 1.414 . S
C1077 C1078 1.374 . S
C1078 H1052 0.950 . S
C1078 C1074 1.385 . S
C1078 C1077 1.374 . S
C1079 C1076 1.499 . S
C1079 C1080 1.373 . S
C1079 C1081 1.389 . S
C1080 H1053 0.950 . S
C1080 C1066 1.377 . S
C1080 C1079 1.373 . S
C1081 C1065 1.377 . S
C1081 C1079 1.389 . S
C1081 C1082 1.524 . S
C1082 C1081 1.524 . S
C1082 C1083 1.397 . S
C1082 C1087 1.363 . S
C1083 H1054 0.950 . S
C1083 C1082 1.397 . S
C1083 C1084 1.334 . S
C1084 H1055 0.950 . S
C1084 C1083 1.334 . S
C1084 C1085 1.287 . S
C1085 C1084 1.287 . S
C1085 C1086 1.524 . S
C1085 H1088 0.995 1_655 S
C1086 H1056 0.950 . S
C1086 C1085 1.524 . S
C1086 C1087 1.415 . S
C1087 H1057 0.950 . S
C1087 C1082 1.363 . S
C1087 C1086 1.415 . S
H1088 C1085 0.995 1_455 S
H1089 C1070 0.913 . S
H1090 C1108 0.951 . S
H1091 C1110 0.951 . S
H1092 C1112 0.950 . S
H1093 C1113 0.950 . S
H1094 C1115 0.950 . S
H1095 C1118 0.950 . S
H1096 C1119 0.950 . S
H1097 C1121 0.950 . S
H1098 C1122 0.950 . S
H1099 C1123 0.951 . S
H1100 C1125 0.951 . S
H1101 C1127 0.950 . S
H1102 C1128 0.950 . S
H1103 C1130 0.950 . S
H1104 C1133 0.950 . S
H1105 C1134 0.950 . S
H1106 C1136 0.950 . S
H1107 C1137 0.950 . S
C1108 H1090 0.951 . S
C1108 C1109 1.366 . S
C1108 C1110 1.388 . S
C1109 C1108 1.366 . S
C1109 C1113 1.385 . S
C1110 H1091 0.951 . S
C1110 C1108 1.388 . S
C1110 C1111 1.366 . S
C1111 C1110 1.366 . S
C1111 C1112 1.414 . S
C1111 C1114 1.499 . S
C1112 H1092 0.950 . S
C1112 C1111 1.414 . S
C1112 C1113 1.374 . S
C1113 H1093 0.950 . S
C1113 C1109 1.385 . S
C1113 C1112 1.374 . S
C1114 C1111 1.499 . S
C1114 C1115 1.373 . S
C1114 C1116 1.389 . S
C1115 H1094 0.950 . S
C1115 C1114 1.373 . S
C1115 C1131 1.377 . S
C1116 C1114 1.389 . S
C1116 C1117 1.524 . S
C1116 C1130 1.377 . S
C1117 C1116 1.524 . S
C1117 C1118 1.397 . S
C1117 C1122 1.363 . S
C1118 H1095 0.950 . S
C1118 C1117 1.397 . S
C1118 C1119 1.334 . S
C1119 H1096 0.950 . S
C1119 C1118 1.334 . S
C1119 C1120 1.287 . S
C1120 C1119 1.287 . S
C1120 C1121 1.524 . S
C1120 H1139 0.913 . S
C1121 H1097 0.950 . S
C1121 C1120 1.524 . S
C1121 C1122 1.415 . S
C1122 H1098 0.950 . S
C1122 C1117 1.363 . S
C1122 C1121 1.415 . S
C1123 H1099 0.951 . S
C1123 C1124 1.366 . S
C1123 C1125 1.388 . S
C1124 C1123 1.366 . S
C1124 C1128 1.385 . S
C1125 H1100 0.951 . S
C1125 C1123 1.388 . S
C1125 C1126 1.366 . S
C1126 C1125 1.366 . S
C1126 C1127 1.414 . S
C1126 C1129 1.499 . S
C1127 H1101 0.950 . S
C1127 C1126 1.414 . S
C1127 C1128 1.374 . S
C1128 H1102 0.950 . S
C1128 C1124 1.385 . S
C1128 C1127 1.374 . S
C1129 C1126 1.499 . S
C1129 C1130 1.373 . S
C1129 C1131 1.389 . S
C1130 H1103 0.950 . S
C1130 C1116 1.377 . S
C1130 C1129 1.373 . S
C1131 C1115 1.377 . S
C1131 C1129 1.389 . S
C1131 C1132 1.524 . S
C1132 C1131 1.524 . S
C1132 C1133 1.397 . S
C1132 C1137 1.363 . S
C1133 H1104 0.950 . S
C1133 C1132 1.397 . S
C1133 C1134 1.334 . S
C1134 H1105 0.950 . S
C1134 C1133 1.334 . S
C1134 C1135 1.287 . S
C1135 C1134 1.287 . S
C1135 C1136 1.524 . S
C1135 H1138 0.999 . S
C1136 H1106 0.950 . S
C1136 C1135 1.524 . S
C1136 C1137 1.415 . S
C1137 H1107 0.950 . S
C1137 C1132 1.363 . S
C1137 C1136 1.415 . S
H1138 C1135 0.999 . S
H1139 C1120 0.913 . S
H1140 C1158 0.951 . S
H1141 C1160 0.951 . S
H1142 C1162 0.950 . S
H1143 C1163 0.950 . S
H1144 C1165 0.950 . S
H1145 C1168 0.950 . S
H1146 C1169 0.950 . S
H1147 C1171 0.950 . S
H1148 C1172 0.950 . S
H1149 C1173 0.951 . S
H1150 C1175 0.951 . S
H1151 C1177 0.950 . S
H1152 C1178 0.950 . S
H1153 C1180 0.950 . S
H1154 C1183 0.950 . S
H1155 C1184 0.950 . S
H1156 C1186 0.950 . S
H1157 C1187 0.950 . S
C1158 H1140 0.951 . S
C1158 C1159 1.366 . S
C1158 C1160 1.388 . S
C1159 C1158 1.366 . S
C1159 C1163 1.385 . S
C1160 H1141 0.951 . S
C1160 C1158 1.388 . S
C1160 C1161 1.366 . S
C1161 C1160 1.366 . S
C1161 C1162 1.414 . S
C1161 C1164 1.499 . S
C1162 H1142 0.950 . S
C1162 C1161 1.414 . S
C1162 C1163 1.374 . S
C1163 H1143 0.950 . S
C1163 C1159 1.385 . S
C1163 C1162 1.374 . S
C1164 C1161 1.499 . S
C1164 C1165 1.373 . S
C1164 C1166 1.389 . S
C1165 H1144 0.950 . S
C1165 C1164 1.373 . S
C1165 C1181 1.377 . S
C1166 C1164 1.389 . S
C1166 C1167 1.524 . S
C1166 C1180 1.377 . S
C1167 C1166 1.524 . S
C1167 C1168 1.397 . S
C1167 C1172 1.363 . S
C1168 H1145 0.950 . S
C1168 C1167 1.397 . S
C1168 C1169 1.334 . S
C1169 H1146 0.950 . S
C1169 C1168 1.334 . S
C1169 C1170 1.287 . S
C1170 C1169 1.287 . S
C1170 C1171 1.524 . S
C1170 H1189 0.913 . S
C1171 H1147 0.950 . S
C1171 C1170 1.524 . S
C1171 C1172 1.415 . S
C1172 H1148 0.950 . S
C1172 C1167 1.363 . S
C1172 C1171 1.415 . S
C1173 H1149 0.951 . S
C1173 C1174 1.366 . S
C1173 C1175 1.388 . S
C1174 C1173 1.366 . S
C1174 C1178 1.385 . S
C1175 H1150 0.951 . S
C1175 C1173 1.388 . S
C1175 C1176 1.366 . S
C1176 C1175 1.366 . S
C1176 C1177 1.414 . S
C1176 C1179 1.499 . S
C1177 H1151 0.950 . S
C1177 C1176 1.414 . S
C1177 C1178 1.374 . S
C1178 H1152 0.950 . S
C1178 C1174 1.385 . S
C1178 C1177 1.374 . S
C1179 C1176 1.499 . S
C1179 C1180 1.373 . S
C1179 C1181 1.389 . S
C1180 H1153 0.950 . S
C1180 C1166 1.377 . S
C1180 C1179 1.373 . S
C1181 C1165 1.377 . S
C1181 C1179 1.389 . S
C1181 C1182 1.524 . S
C1182 C1181 1.524 . S
C1182 C1183 1.397 . S
C1182 C1187 1.363 . S
C1183 H1154 0.950 . S
C1183 C1182 1.397 . S
C1183 C1184 1.334 . S
C1184 H1155 0.950 . S
C1184 C1183 1.334 . S
C1184 C1185 1.287 . S
C1185 C1184 1.287 . S
C1185 C1186 1.524 . S
C1185 H1188 0.999 . S
C1186 H1156 0.950 . S
C1186 C1185 1.524 . S
C1186 C1187 1.415 . S
C1187 H1157 0.950 . S
C1187 C1182 1.363 . S
C1187 C1186 1.415 . S
H1188 C1185 0.999 . S
H1189 C1170 0.913 . S
H1190 C1208 0.951 . S
H1191 C1210 0.951 . S
H1192 C1212 0.950 . S
H1193 C1213 0.950 . S
H1194 C1215 0.950 . S
H1195 C1218 0.950 . S
H1196 C1219 0.950 . S
H1197 C1221 0.950 . S
H1198 C1222 0.950 . S
H1199 C1223 0.951 . S
H1200 C1225 0.951 . S
H1201 C1227 0.950 . S
H1202 C1228 0.950 . S
H1203 C1230 0.950 . S
H1204 C1233 0.950 . S
H1205 C1234 0.950 . S
H1206 C1236 0.950 . S
H1207 C1237 0.950 . S
C1208 H1190 0.951 . S
C1208 C1209 1.366 . S
C1208 C1210 1.388 . S
C1209 C1208 1.366 . S
C1209 C1213 1.385 . S
C1210 H1191 0.951 . S
C1210 C1208 1.388 . S
C1210 C1211 1.366 . S
C1211 C1210 1.366 . S
C1211 C1212 1.414 . S
C1211 C1214 1.499 . S
C1212 H1192 0.950 . S
C1212 C1211 1.414 . S
C1212 C1213 1.374 . S
C1213 H1193 0.950 . S
C1213 C1209 1.385 . S
C1213 C1212 1.374 . S
C1214 C1211 1.499 . S
C1214 C1215 1.373 . S
C1214 C1216 1.389 . S
C1215 H1194 0.950 . S
C1215 C1214 1.373 . S
C1215 C1231 1.377 . S
C1216 C1214 1.389 . S
C1216 C1217 1.524 . S
C1216 C1230 1.377 . S
C1217 C1216 1.524 . S
C1217 C1218 1.397 . S
C1217 C1222 1.363 . S
C1218 H1195 0.950 . S
C1218 C1217 1.397 . S
C1218 C1219 1.334 . S
C1219 H1196 0.950 . S
C1219 C1218 1.334 . S
C1219 C1220 1.287 . S
C1220 C1219 1.287 . S
C1220 C1221 1.524 . S
C1220 H1239 0.913 . S
C1221 H1197 0.950 . S
C1221 C1220 1.524 . S
C1221 C1222 1.415 . S
C1222 H1198 0.950 . S
C1222 C1217 1.363 . S
C1222 C1221 1.415 . S
C1223 H1199 0.951 . S
C1223 C1224 1.366 . S
C1223 C1225 1.388 . S
C1224 C1223 1.366 . S
C1224 C1228 1.385 . S
C1225 H1200 0.951 . S
C1225 C1223 1.388 . S
C1225 C1226 1.366 . S
C1226 C1225 1.366 . S
C1226 C1227 1.414 . S
C1226 C1229 1.499 . S
C1227 H1201 0.950 . S
C1227 C1226 1.414 . S
C1227 C1228 1.374 . S
C1228 H1202 0.950 . S
C1228 C1224 1.385 . S
C1228 C1227 1.374 . S
C1229 C1226 1.499 . S
C1229 C1230 1.373 . S
C1229 C1231 1.389 . S
C1230 H1203 0.950 . S
C1230 C1216 1.377 . S
C1230 C1229 1.373 . S
C1231 C1215 1.377 . S
C1231 C1229 1.389 . S
C1231 C1232 1.524 . S
C1232 C1231 1.524 . S
C1232 C1233 1.397 . S
C1232 C1237 1.363 . S
C1233 H1204 0.950 . S
C1233 C1232 1.397 . S
C1233 C1234 1.334 . S
C1234 H1205 0.950 . S
C1234 C1233 1.334 . S
C1234 C1235 1.287 . S
C1235 C1234 1.287 . S
C1235 C1236 1.524 . S
C1235 H1238 0.999 . S
C1236 H1206 0.950 . S
C1236 C1235 1.524 . S
C1236 C1237 1.415 . S
C1237 H1207 0.950 . S
C1237 C1232 1.363 . S
C1237 C1236 1.415 . S
H1238 C1235 0.999 . S
H1239 C1220 0.913 . S
H1240 C1258 0.951 . S
H1241 C1260 0.951 . S
H1242 C1262 0.950 . S
H1243 C1263 0.950 . S
H1244 C1265 0.950 . S
H1245 C1268 0.950 . S
H1246 C1269 0.950 . S
H1247 C1271 0.950 . S
H1248 C1272 0.950 . S
H1249 C1273 0.951 . S
H1250 C1275 0.951 . S
H1251 C1277 0.950 . S
H1252 C1278 0.950 . S
H1253 C1280 0.950 . S
H1254 C1283 0.950 . S
H1255 C1284 0.950 . S
H1256 C1286 0.950 . S
H1257 C1287 0.950 . S
C1258 H1240 0.951 . S
C1258 C1259 1.366 . S
C1258 C1260 1.388 . S
C1259 C1258 1.366 . S
C1259 C1263 1.385 . S
C1260 H1241 0.951 . S
C1260 C1258 1.388 . S
C1260 C1261 1.366 . S
C1261 C1260 1.366 . S
C1261 C1262 1.414 . S
C1261 C1264 1.499 . S
C1262 H1242 0.950 . S
C1262 C1261 1.414 . S
C1262 C1263 1.374 . S
C1263 H1243 0.950 . S
C1263 C1259 1.385 . S
C1263 C1262 1.374 . S
C1264 C1261 1.499 . S
C1264 C1265 1.373 . S
C1264 C1266 1.389 . S
C1265 H1244 0.950 . S
C1265 C1264 1.373 . S
C1265 C1281 1.377 . S
C1266 C1264 1.389 . S
C1266 C1267 1.524 . S
C1266 C1280 1.377 . S
C1267 C1266 1.524 . S
C1267 C1268 1.397 . S
C1267 C1272 1.363 . S
C1268 H1245 0.950 . S
C1268 C1267 1.397 . S
C1268 C1269 1.334 . S
C1269 H1246 0.950 . S
C1269 C1268 1.334 . S
C1269 C1270 1.287 . S
C1270 C1269 1.287 . S
C1270 C1271 1.524 . S
C1270 H1289 0.913 . S
C1271 H1247 0.950 . S
C1271 C1270 1.524 . S
C1271 C1272 1.415 . S
C1272 H1248 0.950 . S
C1272 C1267 1.363 . S
C1272 C1271 1.415 . S
C1273 H1249 0.951 . S
C1273 C1274 1.366 . S
C1273 C1275 1.388 . S
C1274 C1273 1.366 . S
C1274 C1278 1.385 . S
C1275 H1250 0.951 . S
C1275 C1273 1.388 . S
C1275 C1276 1.366 . S
C1276 C1275 1.366 . S
C1276 C1277 1.414 . S
C1276 C1279 1.499 . S
C1277 H1251 0.950 . S
C1277 C1276 1.414 . S
C1277 C1278 1.374 . S
C1278 H1252 0.950 . S
C1278 C1274 1.385 . S
C1278 C1277 1.374 . S
C1279 C1276 1.499 . S
C1279 C1280 1.373 . S
C1279 C1281 1.389 . S
C1280 H1253 0.950 . S
C1280 C1266 1.377 . S
C1280 C1279 1.373 . S
C1281 C1265 1.377 . S
C1281 C1279 1.389 . S
C1281 C1282 1.524 . S
C1282 C1281 1.524 . S
C1282 C1283 1.397 . S
C1282 C1287 1.363 . S
C1283 H1254 0.950 . S
C1283 C1282 1.397 . S
C1283 C1284 1.334 . S
C1284 H1255 0.950 . S
C1284 C1283 1.334 . S
C1284 C1285 1.287 . S
C1285 C1284 1.287 . S
C1285 C1286 1.524 . S
C1285 H1288 0.999 . S
C1286 H1256 0.950 . S
C1286 C1285 1.524 . S
C1286 C1287 1.415 . S
C1287 H1257 0.950 . S
C1287 C1282 1.363 . S
C1287 C1286 1.415 . S
H1288 C1285 0.999 . S
H1289 C1270 0.913 . S
H1290 C1308 0.951 . S
H1291 C1310 0.951 . S
H1292 C1312 0.950 . S
H1293 C1313 0.950 . S
H1294 C1315 0.950 . S
H1295 C1318 0.950 . S
H1296 C1319 0.950 . S
H1297 C1321 0.950 . S
H1298 C1322 0.950 . S
H1299 C1323 0.951 . S
H1300 C1325 0.951 . S
H1301 C1327 0.950 . S
H1302 C1328 0.950 . S
H1303 C1330 0.950 . S
H1304 C1333 0.950 . S
H1305 C1334 0.950 . S
H1306 C1336 0.950 . S
H1307 C1337 0.950 . S
C1308 H1290 0.951 . S
C1308 C1309 1.366 . S
C1308 C1310 1.388 . S
C1309 C1308 1.366 . S
C1309 C1313 1.385 . S
C1310 H1291 0.951 . S
C1310 C1308 1.388 . S
C1310 C1311 1.366 . S
C1311 C1310 1.366 . S
C1311 C1312 1.414 . S
C1311 C1314 1.499 . S
C1312 H1292 0.950 . S
C1312 C1311 1.414 . S
C1312 C1313 1.374 . S
C1313 H1293 0.950 . S
C1313 C1309 1.385 . S
C1313 C1312 1.374 . S
C1314 C1311 1.499 . S
C1314 C1315 1.373 . S
C1314 C1316 1.389 . S
C1315 H1294 0.950 . S
C1315 C1314 1.373 . S
C1315 C1331 1.377 . S
C1316 C1314 1.389 . S
C1316 C1317 1.524 . S
C1316 C1330 1.377 . S
C1317 C1316 1.524 . S
C1317 C1318 1.397 . S
C1317 C1322 1.363 . S
C1318 H1295 0.950 . S
C1318 C1317 1.397 . S
C1318 C1319 1.334 . S
C1319 H1296 0.950 . S
C1319 C1318 1.334 . S
C1319 C1320 1.287 . S
C1320 C1319 1.287 . S
C1320 C1321 1.524 . S
C1320 H1339 0.913 . S
C1321 H1297 0.950 . S
C1321 C1320 1.524 . S
C1321 C1322 1.415 . S
C1322 H1298 0.950 . S
C1322 C1317 1.363 . S
C1322 C1321 1.415 . S
C1323 H1299 0.951 . S
C1323 C1324 1.366 . S
C1323 C1325 1.388 . S
C1324 C1323 1.366 . S
C1324 C1328 1.385 . S
C1325 H1300 0.951 . S
C1325 C1323 1.388 . S
C1325 C1326 1.366 . S
C1326 C1325 1.366 . S
C1326 C1327 1.414 . S
C1326 C1329 1.499 . S
C1327 H1301 0.950 . S
C1327 C1326 1.414 . S
C1327 C1328 1.374 . S
C1328 H1302 0.950 . S
C1328 C1324 1.385 . S
C1328 C1327 1.374 . S
C1329 C1326 1.499 . S
C1329 C1330 1.373 . S
C1329 C1331 1.389 . S
C1330 H1303 0.950 . S
C1330 C1316 1.377 . S
C1330 C1329 1.373 . S
C1331 C1315 1.377 . S
C1331 C1329 1.389 . S
C1331 C1332 1.524 . S
C1332 C1331 1.524 . S
C1332 C1333 1.397 . S
C1332 C1337 1.363 . S
C1333 H1304 0.950 . S
C1333 C1332 1.397 . S
C1333 C1334 1.334 . S
C1334 H1305 0.950 . S
C1334 C1333 1.334 . S
C1334 C1335 1.287 . S
C1335 C1334 1.287 . S
C1335 C1336 1.524 . S
C1335 H1338 0.999 . S
C1336 H1306 0.950 . S
C1336 C1335 1.524 . S
C1336 C1337 1.415 . S
C1337 H1307 0.950 . S
C1337 C1332 1.363 . S
C1337 C1336 1.415 . S
H1338 C1335 0.999 . S
H1339 C1320 0.913 . S
H1340 C1358 0.951 . S
H1341 C1360 0.951 . S
H1342 C1362 0.950 . S
H1343 C1363 0.950 . S
H1344 C1365 0.950 . S
H1345 C1368 0.950 . S
H1346 C1369 0.950 . S
H1347 C1371 0.950 . S
H1348 C1372 0.950 . S
H1349 C1373 0.951 . S
H1350 C1375 0.951 . S
H1351 C1377 0.950 . S
H1352 C1378 0.950 . S
H1353 C1380 0.950 . S
H1354 C1383 0.950 . S
H1355 C1384 0.950 . S
H1356 C1386 0.950 . S
H1357 C1387 0.950 . S
C1358 H1340 0.951 . S
C1358 C1359 1.366 . S
C1358 C1360 1.388 . S
C1359 C1358 1.366 . S
C1359 C1363 1.385 . S
C1360 H1341 0.951 . S
C1360 C1358 1.388 . S
C1360 C1361 1.366 . S
C1361 C1360 1.366 . S
C1361 C1362 1.414 . S
C1361 C1364 1.499 . S
C1362 H1342 0.950 . S
C1362 C1361 1.414 . S
C1362 C1363 1.374 . S
C1363 H1343 0.950 . S
C1363 C1359 1.385 . S
C1363 C1362 1.374 . S
C1364 C1361 1.499 . S
C1364 C1365 1.373 . S
C1364 C1366 1.389 . S
C1365 H1344 0.950 . S
C1365 C1364 1.373 . S
C1365 C1381 1.377 . S
C1366 C1364 1.389 . S
C1366 C1367 1.524 . S
C1366 C1380 1.377 . S
C1367 C1366 1.524 . S
C1367 C1368 1.397 . S
C1367 C1372 1.363 . S
C1368 H1345 0.950 . S
C1368 C1367 1.397 . S
C1368 C1369 1.334 . S
C1369 H1346 0.950 . S
C1369 C1368 1.334 . S
C1369 C1370 1.287 . S
C1370 C1369 1.287 . S
C1370 C1371 1.524 . S
C1370 H1389 0.913 . S
C1371 H1347 0.950 . S
C1371 C1370 1.524 . S
C1371 C1372 1.415 . S
C1372 H1348 0.950 . S
C1372 C1367 1.363 . S
C1372 C1371 1.415 . S
C1373 H1349 0.951 . S
C1373 C1374 1.366 . S
C1373 C1375 1.388 . S
C1374 C1373 1.366 . S
C1374 C1378 1.385 . S
C1375 H1350 0.951 . S
C1375 C1373 1.388 . S
C1375 C1376 1.366 . S
C1376 C1375 1.366 . S
C1376 C1377 1.414 . S
C1376 C1379 1.499 . S
C1377 H1351 0.950 . S
C1377 C1376 1.414 . S
C1377 C1378 1.374 . S
C1378 H1352 0.950 . S
C1378 C1374 1.385 . S
C1378 C1377 1.374 . S
C1379 C1376 1.499 . S
C1379 C1380 1.373 . S
C1379 C1381 1.389 . S
C1380 H1353 0.950 . S
C1380 C1366 1.377 . S
C1380 C1379 1.373 . S
C1381 C1365 1.377 . S
C1381 C1379 1.389 . S
C1381 C1382 1.524 . S
C1382 C1381 1.524 . S
C1382 C1383 1.397 . S
C1382 C1387 1.363 . S
C1383 H1354 0.950 . S
C1383 C1382 1.397 . S
C1383 C1384 1.334 . S
C1384 H1355 0.950 . S
C1384 C1383 1.334 . S
C1384 C1385 1.287 . S
C1385 C1384 1.287 . S
C1385 C1386 1.524 . S
C1385 H1388 0.999 . S
C1386 H1356 0.950 . S
C1386 C1385 1.524 . S
C1386 C1387 1.415 . S
C1387 H1357 0.950 . S
C1387 C1382 1.363 . S
C1387 C1386 1.415 . S
H1388 C1385 0.999 . S
H1389 C1370 0.913 . S
H1390 C1408 0.951 . S
H1391 C1410 0.951 . S
H1392 C1412 0.950 . S
H1393 C1413 0.950 . S
H1394 C1415 0.950 . S
H1395 C1418 0.950 . S
H1396 C1419 0.950 . S
H1397 C1421 0.950 . S
H1398 C1422 0.950 . S
H1399 C1423 0.951 . S
H1400 C1425 0.951 . S
H1401 C1427 0.950 . S
H1402 C1428 0.950 . S
H1403 C1430 0.950 . S
H1404 C1433 0.950 . S
H1405 C1434 0.950 . S
H1406 C1436 0.950 1_655 S
H1407 C1437 0.950 . S
C1408 H1390 0.951 . S
C1408 C1409 1.366 . S
C1408 C1410 1.388 . S
C1409 C1408 1.366 . S
C1409 C1413 1.385 . S
C1410 H1391 0.951 . S
C1410 C1408 1.388 . S
C1410 C1411 1.366 . S
C1411 C1410 1.366 . S
C1411 C1412 1.414 . S
C1411 C1414 1.499 . S
C1412 H1392 0.950 . S
C1412 C1411 1.414 . S
C1412 C1413 1.374 . S
C1413 H1393 0.950 . S
C1413 C1409 1.385 . S
C1413 C1412 1.374 . S
C1414 C1411 1.499 . S
C1414 C1415 1.373 . S
C1414 C1416 1.389 . S
C1415 H1394 0.950 . S
C1415 C1414 1.373 . S
C1415 C1431 1.377 . S
C1416 C1414 1.389 . S
C1416 C1417 1.524 . S
C1416 C1430 1.377 . S
C1417 C1416 1.524 . S
C1417 C1418 1.397 . S
C1417 C1422 1.363 . S
C1418 H1395 0.950 . S
C1418 C1417 1.397 . S
C1418 C1419 1.334 . S
C1419 H1396 0.950 . S
C1419 C1418 1.334 . S
C1419 C1420 1.287 . S
C1420 C1419 1.287 . S
C1420 C1421 1.524 . S
C1420 H1439 0.913 . S
C1421 H1397 0.950 . S
C1421 C1420 1.524 . S
C1421 C1422 1.415 . S
C1422 H1398 0.950 . S
C1422 C1417 1.363 . S
C1422 C1421 1.415 . S
C1423 H1399 0.951 . S
C1423 C1424 1.366 . S
C1423 C1425 1.388 . S
C1424 C1423 1.366 . S
C1424 C1428 1.385 . S
C1425 H1400 0.951 . S
C1425 C1423 1.388 . S
C1425 C1426 1.366 . S
C1426 C1425 1.366 . S
C1426 C1427 1.414 . S
C1426 C1429 1.499 . S
C1427 H1401 0.950 . S
C1427 C1426 1.414 . S
C1427 C1428 1.374 . S
C1428 H1402 0.950 . S
C1428 C1424 1.385 . S
C1428 C1427 1.374 . S
C1429 C1426 1.499 . S
C1429 C1430 1.373 . S
C1429 C1431 1.389 . S
C1430 H1403 0.950 . S
C1430 C1416 1.377 . S
C1430 C1429 1.373 . S
C1431 C1415 1.377 . S
C1431 C1429 1.389 . S
C1431 C1432 1.524 . S
C1432 C1431 1.524 . S
C1432 C1433 1.397 . S
C1432 C1437 1.363 . S
C1433 H1404 0.950 . S
C1433 C1432 1.397 . S
C1433 C1434 1.334 . S
C1434 H1405 0.950 . S
C1434 C1433 1.334 . S
C1434 C1435 1.287 . S
C1435 C1434 1.287 . S
C1435 C1436 1.524 . S
C1435 H1438 0.999 . S
C1436 H1406 0.950 1_455 S
C1436 C1435 1.524 . S
C1436 C1437 1.415 . S
C1437 H1407 0.950 . S
C1437 C1432 1.363 . S
C1437 C1436 1.415 . S
H1438 C1435 0.999 . S
H1439 C1420 0.913 . S
H1440 C1458 0.951 . S
H1441 C1460 0.951 . S
H1442 C1462 0.950 . S
H1443 C1463 0.950 . S
H1444 C1465 0.950 . S
H1445 C1468 0.950 . S
H1446 C1469 0.950 . S
H1447 C1471 0.950 . S
H1448 C1472 0.950 . S
H1449 C1473 0.951 . S
H1450 C1475 0.951 . S
H1451 C1477 0.950 . S
H1452 C1478 0.950 . S
H1453 C1480 0.950 . S
H1454 C1483 0.950 . S
H1455 C1484 0.950 . S
H1456 C1486 0.950 . S
H1457 C1487 0.950 . S
C1458 H1440 0.951 . S
C1458 C1459 1.366 . S
C1458 C1460 1.388 . S
C1459 C1458 1.366 . S
C1459 C1463 1.385 . S
C1460 H1441 0.951 . S
C1460 C1458 1.388 . S
C1460 C1461 1.366 . S
C1461 C1460 1.366 . S
C1461 C1462 1.414 . S
C1461 C1464 1.499 . S
C1462 H1442 0.950 . S
C1462 C1461 1.414 . S
C1462 C1463 1.374 . S
C1463 H1443 0.950 . S
C1463 C1459 1.385 . S
C1463 C1462 1.374 . S
C1464 C1461 1.499 . S
C1464 C1465 1.373 . S
C1464 C1466 1.389 . S
C1465 H1444 0.950 . S
C1465 C1464 1.373 . S
C1465 C1481 1.377 . S
C1466 C1464 1.389 . S
C1466 C1467 1.524 . S
C1466 C1480 1.377 . S
C1467 C1466 1.524 . S
C1467 C1468 1.397 . S
C1467 C1472 1.363 . S
C1468 H1445 0.950 . S
C1468 C1467 1.397 . S
C1468 C1469 1.334 . S
C1469 H1446 0.950 . S
C1469 C1468 1.334 . S
C1469 C1470 1.287 . S
C1470 C1469 1.287 . S
C1470 C1471 1.524 . S
C1470 H1489 0.913 . S
C1471 H1447 0.950 . S
C1471 C1470 1.524 . S
C1471 C1472 1.415 . S
C1472 H1448 0.950 . S
C1472 C1467 1.363 . S
C1472 C1471 1.415 . S
C1473 H1449 0.951 . S
C1473 C1474 1.366 . S
C1473 C1475 1.388 . S
C1474 C1473 1.366 . S
C1474 C1478 1.385 . S
C1475 H1450 0.951 . S
C1475 C1473 1.388 . S
C1475 C1476 1.366 . S
C1476 C1475 1.366 . S
C1476 C1477 1.414 . S
C1476 C1479 1.499 . S
C1477 H1451 0.950 . S
C1477 C1476 1.414 . S
C1477 C1478 1.374 . S
C1478 H1452 0.950 . S
C1478 C1474 1.385 . S
C1478 C1477 1.374 . S
C1479 C1476 1.499 . S
C1479 C1480 1.373 . S
C1479 C1481 1.389 . S
C1480 H1453 0.950 . S
C1480 C1466 1.377 . S
C1480 C1479 1.373 . S
C1481 C1465 1.377 . S
C1481 C1479 1.389 . S
C1481 C1482 1.524 . S
C1482 C1481 1.524 . S
C1482 C1483 1.397 . S
C1482 C1487 1.363 . S
C1483 H1454 0.950 . S
C1483 C1482 1.397 . S
C1483 C1484 1.334 . S
C1484 H1455 0.950 . S
C1484 C1483 1.334 . S
C1484 C1485 1.287 . S
C1485 C1484 1.287 . S
C1485 C1486 1.524 . S
C1485 H1488 0.999 . S
C1486 H1456 0.950 . S
C1486 C1485 1.524 . S
C1486 C1487 1.415 . S
C1487 H1457 0.950 . S
C1487 C1482 1.363 . S
C1487 C1486 1.415 . S
H1488 C1485 0.999 . S
H1489 C1470 0.913 . S
H1490 C1508 0.951 . S
H1491 C1510 0.951 . S
H1492 C1512 0.950 . S
H1493 C1513 0.950 . S
H1494 C1515 0.950 . S
H1495 C1518 0.950 . S
H1496 C1519 0.950 . S
H1497 C1521 0.950 . S
H1498 C1522 0.950 . S
H1499 C1523 0.951 . S
H1500 C1525 0.951 . S
H1501 C1527 0.950 . S
H1502 C1528 0.950 . S
H1503 C1530 0.950 . S
H1504 C1533 0.950 . S
H1505 C1534 0.950 . S
H1506 C1536 0.950 1_556 S
H1507 C1537 0.950 . S
C1508 H1490 0.951 . S
C1508 C1509 1.366 . S
C1508 C1510 1.388 . S
C1509 C1508 1.366 . S
C1509 C1513 1.385 . S
C1510 H1491 0.951 . S
C1510 C1508 1.388 . S
C1510 C1511 1.366 . S
C1511 C1510 1.366 . S
C1511 C1512 1.414 . S
C1511 C1514 1.499 . S
C1512 H1492 0.950 . S
C1512 C1511 1.414 . S
C1512 C1513 1.374 . S
C1513 H1493 0.950 . S
C1513 C1509 1.385 . S
C1513 C1512 1.374 . S
C1514 C1511 1.499 . S
C1514 C1515 1.373 . S
C1514 C1516 1.389 . S
C1515 H1494 0.950 . S
C1515 C1514 1.373 . S
C1515 C1531 1.377 . S
C1516 C1514 1.389 . S
C1516 C1517 1.524 . S
C1516 C1530 1.377 . S
C1517 C1516 1.524 . S
C1517 C1518 1.397 . S
C1517 C1522 1.363 . S
C1518 H1495 0.950 . S
C1518 C1517 1.397 . S
C1518 C1519 1.334 . S
C1519 H1496 0.950 . S
C1519 C1518 1.334 . S
C1519 C1520 1.287 . S
C1520 C1519 1.287 . S
C1520 C1521 1.524 . S
C1520 H1539 0.913 . S
C1521 H1497 0.950 . S
C1521 C1520 1.524 . S
C1521 C1522 1.415 . S
C1522 H1498 0.950 . S
C1522 C1517 1.363 . S
C1522 C1521 1.415 . S
C1523 H1499 0.951 . S
C1523 C1524 1.366 . S
C1523 C1525 1.388 . S
C1524 C1523 1.366 . S
C1524 C1528 1.385 . S
C1525 H1500 0.951 . S
C1525 C1523 1.388 . S
C1525 C1526 1.366 . S
C1526 C1525 1.366 . S
C1526 C1527 1.414 . S
C1526 C1529 1.499 . S
C1527 H1501 0.950 . S
C1527 C1526 1.414 . S
C1527 C1528 1.374 . S
C1528 H1502 0.950 . S
C1528 C1524 1.385 . S
C1528 C1527 1.374 . S
C1529 C1526 1.499 . S
C1529 C1530 1.373 . S
C1529 C1531 1.389 . S
C1530 H1503 0.950 . S
C1530 C1516 1.377 . S
C1530 C1529 1.373 . S
C1531 C1515 1.377 . S
C1531 C1529 1.389 . S
C1531 C1532 1.524 . S
C1532 C1531 1.524 . S
C1532 C1533 1.397 . S
C1532 C1537 1.363 . S
C1533 H1504 0.950 . S
C1533 C1532 1.397 . S
C1533 C1534 1.334 . S
C1534 H1505 0.950 . S
C1534 C1533 1.334 . S
C1534 C1535 1.287 . S
C1535 C1534 1.287 . S
C1535 C1536 1.524 . S
C1535 H1538 0.999 1_554 S
C1536 H1506 0.950 1_554 S
C1536 C1535 1.524 . S
C1536 C1537 1.415 . S
C1537 H1507 0.950 . S
C1537 C1532 1.363 . S
C1537 C1536 1.415 . S
H1538 C1535 0.999 1_556 S
H1539 C1520 0.913 . S
H1540 C1558 0.951 . S
H1541 C1560 0.951 . S
H1542 C1562 0.950 . S
H1543 C1563 0.950 . S
H1544 C1565 0.950 . S
H1545 C1568 0.950 . S
H1546 C1569 0.950 . S
H1547 C1571 0.950 . S
H1548 C1572 0.950 . S
H1549 C1573 0.951 . S
H1550 C1575 0.951 . S
H1551 C1577 0.950 . S
H1552 C1578 0.950 . S
H1553 C1580 0.950 . S
H1554 C1583 0.950 . S
H1555 C1584 0.950 . S
H1556 C1586 0.950 . S
H1557 C1587 0.950 . S
C1558 H1540 0.951 . S
C1558 C1559 1.366 . S
C1558 C1560 1.388 . S
C1559 C1558 1.366 . S
C1559 C1563 1.385 . S
C1560 H1541 0.951 . S
C1560 C1558 1.388 . S
C1560 C1561 1.366 . S
C1561 C1560 1.366 . S
C1561 C1562 1.414 . S
C1561 C1564 1.499 . S
C1562 H1542 0.950 . S
C1562 C1561 1.414 . S
C1562 C1563 1.374 . S
C1563 H1543 0.950 . S
C1563 C1559 1.385 . S
C1563 C1562 1.374 . S
C1564 C1561 1.499 . S
C1564 C1565 1.373 . S
C1564 C1566 1.389 . S
C1565 H1544 0.950 . S
C1565 C1564 1.373 . S
C1565 C1581 1.377 . S
C1566 C1564 1.389 . S
C1566 C1567 1.524 . S
C1566 C1580 1.377 . S
C1567 C1566 1.524 . S
C1567 C1568 1.397 . S
C1567 C1572 1.363 . S
C1568 H1545 0.950 . S
C1568 C1567 1.397 . S
C1568 C1569 1.334 . S
C1569 H1546 0.950 . S
C1569 C1568 1.334 . S
C1569 C1570 1.287 . S
C1570 C1569 1.287 . S
C1570 C1571 1.524 . S
C1570 H1589 0.913 . S
C1571 H1547 0.950 . S
C1571 C1570 1.524 . S
C1571 C1572 1.415 . S
C1572 H1548 0.950 . S
C1572 C1567 1.363 . S
C1572 C1571 1.415 . S
C1573 H1549 0.951 . S
C1573 C1574 1.366 . S
C1573 C1575 1.388 . S
C1574 C1573 1.366 . S
C1574 C1578 1.385 . S
C1575 H1550 0.951 . S
C1575 C1573 1.388 . S
C1575 C1576 1.366 . S
C1576 C1575 1.366 . S
C1576 C1577 1.414 . S
C1576 C1579 1.499 . S
C1577 H1551 0.950 . S
C1577 C1576 1.414 . S
C1577 C1578 1.374 . S
C1578 H1552 0.950 . S
C1578 C1574 1.385 . S
C1578 C1577 1.374 . S
C1579 C1576 1.499 . S
C1579 C1580 1.373 . S
C1579 C1581 1.389 . S
C1580 H1553 0.950 . S
C1580 C1566 1.377 . S
C1580 C1579 1.373 . S
C1581 C1565 1.377 . S
C1581 C1579 1.389 . S
C1581 C1582 1.524 . S
C1582 C1581 1.524 . S
C1582 C1583 1.397 . S
C1582 C1587 1.363 . S
C1583 H1554 0.950 . S
C1583 C1582 1.397 . S
C1583 C1584 1.334 . S
C1584 H1555 0.950 . S
C1584 C1583 1.334 . S
C1584 C1585 1.287 . S
C1585 C1584 1.287 . S
C1585 C1586 1.524 . S
C1585 H1588 0.999 . S
C1586 H1556 0.950 . S
C1586 C1585 1.524 . S
C1586 C1587 1.415 . S
C1587 H1557 0.950 . S
C1587 C1582 1.363 . S
C1587 C1586 1.415 . S
H1588 C1585 0.999 . S
H1589 C1570 0.913 . S
H1590 C1608 0.951 . S
H1591 C1610 0.951 . S
H1592 C1612 0.950 . S
H1593 C1613 0.950 . S
H1594 C1615 0.950 . S
H1595 C1618 0.950 . S
H1596 C1619 0.950 . S
H1597 C1621 0.950 . S
H1598 C1622 0.950 . S
H1599 C1623 0.951 . S
H1600 C1625 0.951 . S
H1601 C1627 0.950 . S
H1602 C1628 0.950 . S
H1603 C1630 0.950 . S
H1604 C1633 0.950 . S
H1605 C1634 0.950 . S
H1606 C1636 0.950 . S
H1607 C1637 0.950 . S
C1608 H1590 0.951 . S
C1608 C1609 1.366 . S
C1608 C1610 1.388 . S
C1609 C1608 1.366 . S
C1609 C1613 1.385 . S
C1610 H1591 0.951 . S
C1610 C1608 1.388 . S
C1610 C1611 1.366 . S
C1611 C1610 1.366 . S
C1611 C1612 1.414 . S
C1611 C1614 1.499 . S
C1612 H1592 0.950 . S
C1612 C1611 1.414 . S
C1612 C1613 1.374 . S
C1613 H1593 0.950 . S
C1613 C1609 1.385 . S
C1613 C1612 1.374 . S
C1614 C1611 1.499 . S
C1614 C1615 1.373 . S
C1614 C1616 1.389 . S
C1615 H1594 0.950 . S
C1615 C1614 1.373 . S
C1615 C1631 1.377 . S
C1616 C1614 1.389 . S
C1616 C1617 1.524 . S
C1616 C1630 1.377 . S
C1617 C1616 1.524 . S
C1617 C1618 1.397 . S
C1617 C1622 1.363 . S
C1618 H1595 0.950 . S
C1618 C1617 1.397 . S
C1618 C1619 1.334 . S
C1619 H1596 0.950 . S
C1619 C1618 1.334 . S
C1619 C1620 1.287 . S
C1620 C1619 1.287 . S
C1620 C1621 1.524 . S
C1620 H1639 0.913 . S
C1621 H1597 0.950 . S
C1621 C1620 1.524 . S
C1621 C1622 1.415 . S
C1622 H1598 0.950 . S
C1622 C1617 1.363 . S
C1622 C1621 1.415 . S
C1623 H1599 0.951 . S
C1623 C1624 1.366 . S
C1623 C1625 1.388 . S
C1624 C1623 1.366 . S
C1624 C1628 1.385 . S
C1625 H1600 0.951 . S
C1625 C1623 1.388 . S
C1625 C1626 1.366 . S
C1626 C1625 1.366 . S
C1626 C1627 1.414 . S
C1626 C1629 1.499 . S
C1627 H1601 0.950 . S
C1627 C1626 1.414 . S
C1627 C1628 1.374 . S
C1628 H1602 0.950 . S
C1628 C1624 1.385 . S
C1628 C1627 1.374 . S
C1629 C1626 1.499 . S
C1629 C1630 1.373 . S
C1629 C1631 1.389 . S
C1630 H1603 0.950 . S
C1630 C1616 1.377 . S
C1630 C1629 1.373 . S
C1631 C1615 1.377 . S
C1631 C1629 1.389 . S
C1631 C1632 1.524 . S
C1632 C1631 1.524 . S
C1632 C1633 1.397 . S
C1632 C1637 1.363 . S
C1633 H1604 0.950 . S
C1633 C1632 1.397 . S
C1633 C1634 1.334 . S
C1634 H1605 0.950 . S
C1634 C1633 1.334 . S
C1634 C1635 1.287 . S
C1635 C1634 1.287 . S
C1635 C1636 1.524 . S
C1635 H1638 0.999 . S
C1636 H1606 0.950 . S
C1636 C1635 1.524 . S
C1636 C1637 1.415 . S
C1637 H1607 0.950 . S
C1637 C1632 1.363 . S
C1637 C1636 1.415 . S
H1638 C1635 0.999 . S
H1639 C1620 0.913 . S
H1640 C1658 0.951 . S
H1641 C1660 0.951 . S
H1642 C1662 0.950 . S
H1643 C1663 0.950 . S
H1644 C1665 0.950 . S
H1645 C1668 0.950 . S
H1646 C1669 0.950 . S
H1647 C1671 0.950 . S
H1648 C1672 0.950 . S
H1649 C1673 0.951 . S
H1650 C1675 0.951 . S
H1651 C1677 0.950 . S
H1652 C1678 0.950 . S
H1653 C1680 0.950 . S
H1654 C1683 0.950 . S
H1655 C1684 0.950 . S
H1656 C1686 0.950 . S
H1657 C1687 0.950 . S
C1658 H1640 0.951 . S
C1658 C1659 1.366 . S
C1658 C1660 1.388 . S
C1659 C1658 1.366 . S
C1659 C1663 1.385 . S
C1660 H1641 0.951 . S
C1660 C1658 1.388 . S
C1660 C1661 1.366 . S
C1661 C1660 1.366 . S
C1661 C1662 1.414 . S
C1661 C1664 1.499 . S
C1662 H1642 0.950 . S
C1662 C1661 1.414 . S
C1662 C1663 1.374 . S
C1663 H1643 0.950 . S
C1663 C1659 1.385 . S
C1663 C1662 1.374 . S
C1664 C1661 1.499 . S
C1664 C1665 1.373 . S
C1664 C1666 1.389 . S
C1665 H1644 0.950 . S
C1665 C1664 1.373 . S
C1665 C1681 1.377 . S
C1666 C1664 1.389 . S
C1666 C1667 1.524 . S
C1666 C1680 1.377 . S
C1667 C1666 1.524 . S
C1667 C1668 1.397 . S
C1667 C1672 1.363 . S
C1668 H1645 0.950 . S
C1668 C1667 1.397 . S
C1668 C1669 1.334 . S
C1669 H1646 0.950 . S
C1669 C1668 1.334 . S
C1669 C1670 1.287 . S
C1670 C1669 1.287 . S
C1670 C1671 1.524 . S
C1670 H1689 0.913 . S
C1671 H1647 0.950 . S
C1671 C1670 1.524 . S
C1671 C1672 1.415 . S
C1672 H1648 0.950 . S
C1672 C1667 1.363 . S
C1672 C1671 1.415 . S
C1673 H1649 0.951 . S
C1673 C1674 1.366 . S
C1673 C1675 1.388 . S
C1674 C1673 1.366 . S
C1674 C1678 1.385 . S
C1675 H1650 0.951 . S
C1675 C1673 1.388 . S
C1675 C1676 1.366 . S
C1676 C1675 1.366 . S
C1676 C1677 1.414 . S
C1676 C1679 1.499 . S
C1677 H1651 0.950 . S
C1677 C1676 1.414 . S
C1677 C1678 1.374 . S
C1678 H1652 0.950 . S
C1678 C1674 1.385 . S
C1678 C1677 1.374 . S
C1679 C1676 1.499 . S
C1679 C1680 1.373 . S
C1679 C1681 1.389 . S
C1680 H1653 0.950 . S
C1680 C1666 1.377 . S
C1680 C1679 1.373 . S
C1681 C1665 1.377 . S
C1681 C1679 1.389 . S
C1681 C1682 1.524 . S
C1682 C1681 1.524 . S
C1682 C1683 1.397 . S
C1682 C1687 1.363 . S
C1683 H1654 0.950 . S
C1683 C1682 1.397 . S
C1683 C1684 1.334 . S
C1684 H1655 0.950 . S
C1684 C1683 1.334 . S
C1684 C1685 1.287 . S
C1685 C1684 1.287 . S
C1685 C1686 1.524 . S
C1685 H1688 0.999 . S
C1686 H1656 0.950 . S
C1686 C1685 1.524 . S
C1686 C1687 1.415 . S
C1687 H1657 0.950 . S
C1687 C1682 1.363 . S
C1687 C1686 1.415 . S
H1688 C1685 0.999 . S
H1689 C1670 0.913 . S
H1690 C1708 0.951 . S
H1691 C1710 0.951 . S
H1692 C1712 0.950 . S
H1693 C1713 0.950 . S
H1694 C1715 0.950 . S
H1695 C1718 0.950 . S
H1696 C1719 0.950 1_556 S
H1697 C1721 0.950 . S
H1698 C1722 0.950 . S
H1699 C1723 0.951 . S
H1700 C1725 0.951 . S
H1701 C1727 0.950 . S
H1702 C1728 0.950 . S
H1703 C1730 0.950 . S
H1704 C1733 0.950 . S
H1705 C1734 0.950 . S
H1706 C1736 0.950 . S
H1707 C1737 0.950 . S
C1708 H1690 0.951 . S
C1708 C1709 1.366 . S
C1708 C1710 1.388 . S
C1709 C1708 1.366 . S
C1709 C1713 1.385 . S
C1710 H1691 0.951 . S
C1710 C1708 1.388 . S
C1710 C1711 1.366 . S
C1711 C1710 1.366 . S
C1711 C1712 1.414 . S
C1711 C1714 1.499 . S
C1712 H1692 0.950 . S
C1712 C1711 1.414 . S
C1712 C1713 1.374 . S
C1713 H1693 0.950 . S
C1713 C1709 1.385 . S
C1713 C1712 1.374 . S
C1714 C1711 1.499 . S
C1714 C1715 1.373 . S
C1714 C1716 1.389 . S
C1715 H1694 0.950 . S
C1715 C1714 1.373 . S
C1715 C1731 1.377 . S
C1716 C1714 1.389 . S
C1716 C1717 1.524 . S
C1716 C1730 1.377 . S
C1717 C1716 1.524 . S
C1717 C1718 1.397 . S
C1717 C1722 1.363 . S
C1718 H1695 0.950 . S
C1718 C1717 1.397 . S
C1718 C1719 1.334 . S
C1719 H1696 0.950 1_554 S
C1719 C1718 1.334 . S
C1719 C1720 1.287 1_554 S
C1720 C1719 1.287 1_556 S
C1720 C1721 1.524 . S
C1720 H1739 0.913 . S
C1721 H1697 0.950 . S
C1721 C1720 1.524 . S
C1721 C1722 1.415 1_556 S
C1722 H1698 0.950 . S
C1722 C1717 1.363 . S
C1722 C1721 1.415 1_554 S
C1723 H1699 0.951 . S
C1723 C1724 1.366 . S
C1723 C1725 1.388 . S
C1724 C1723 1.366 . S
C1724 C1728 1.385 . S
C1725 H1700 0.951 . S
C1725 C1723 1.388 . S
C1725 C1726 1.366 . S
C1726 C1725 1.366 . S
C1726 C1727 1.414 . S
C1726 C1729 1.499 . S
C1727 H1701 0.950 . S
C1727 C1726 1.414 . S
C1727 C1728 1.374 . S
C1728 H1702 0.950 . S
C1728 C1724 1.385 . S
C1728 C1727 1.374 . S
C1729 C1726 1.499 . S
C1729 C1730 1.373 . S
C1729 C1731 1.389 . S
C1730 H1703 0.950 . S
C1730 C1716 1.377 . S
C1730 C1729 1.373 . S
C1731 C1715 1.377 . S
C1731 C1729 1.389 . S
C1731 C1732 1.524 . S
C1732 C1731 1.524 . S
C1732 C1733 1.397 . S
C1732 C1737 1.363 . S
C1733 H1704 0.950 . S
C1733 C1732 1.397 . S
C1733 C1734 1.334 . S
C1734 H1705 0.950 . S
C1734 C1733 1.334 . S
C1734 C1735 1.287 . S
C1735 C1734 1.287 . S
C1735 C1736 1.524 . S
C1735 H1738 0.999 . S
C1736 H1706 0.950 . S
C1736 C1735 1.524 . S
C1736 C1737 1.415 . S
C1737 H1707 0.950 . S
C1737 C1732 1.363 . S
C1737 C1736 1.415 . S
H1738 C1735 0.999 . S
H1739 C1720 0.913 . S
H1740 C1758 0.951 . S
H1741 C1760 0.951 . S
H1742 C1762 0.950 . S
H1743 C1763 0.950 . S
H1744 C1765 0.950 . S
H1745 C1768 0.950 . S
H1746 C1769 0.950 . S
H1747 C1771 0.950 . S
H1748 C1772 0.950 . S
H1749 C1773 0.951 . S
H1750 C1775 0.951 . S
H1751 C1777 0.950 . S
H1752 C1778 0.950 . S
H1753 C1780 0.950 . S
H1754 C1783 0.950 . S
H1755 C1784 0.950 . S
H1756 C1786 0.950 . S
H1757 C1787 0.950 . S
C1758 H1740 0.951 . S
C1758 C1759 1.366 . S
C1758 C1760 1.388 . S
C1759 C1758 1.366 . S
C1759 C1763 1.385 . S
C1760 H1741 0.951 . S
C1760 C1758 1.388 . S
C1760 C1761 1.366 . S
C1761 C1760 1.366 . S
C1761 C1762 1.414 . S
C1761 C1764 1.499 . S
C1762 H1742 0.950 . S
C1762 C1761 1.414 . S
C1762 C1763 1.374 . S
C1763 H1743 0.950 . S
C1763 C1759 1.385 . S
C1763 C1762 1.374 . S
C1764 C1761 1.499 . S
C1764 C1765 1.373 . S
C1764 C1766 1.389 . S
C1765 H1744 0.950 . S
C1765 C1764 1.373 . S
C1765 C1781 1.377 . S
C1766 C1764 1.389 . S
C1766 C1767 1.524 . S
C1766 C1780 1.377 . S
C1767 C1766 1.524 . S
C1767 C1768 1.397 . S
C1767 C1772 1.363 . S
C1768 H1745 0.950 . S
C1768 C1767 1.397 . S
C1768 C1769 1.334 . S
C1769 H1746 0.950 . S
C1769 C1768 1.334 . S
C1769 C1770 1.287 . S
C1770 C1769 1.287 . S
C1770 C1771 1.524 . S
C1770 H1789 0.913 . S
C1771 H1747 0.950 . S
C1771 C1770 1.524 . S
C1771 C1772 1.415 . S
C1772 H1748 0.950 . S
C1772 C1767 1.363 . S
C1772 C1771 1.415 . S
C1773 H1749 0.951 . S
C1773 C1774 1.366 . S
C1773 C1775 1.388 . S
C1774 C1773 1.366 . S
C1774 C1778 1.385 . S
C1775 H1750 0.951 . S
C1775 C1773 1.388 . S
C1775 C1776 1.366 . S
C1776 C1775 1.366 . S
C1776 C1777 1.414 . S
C1776 C1779 1.499 . S
C1777 H1751 0.950 . S
C1777 C1776 1.414 . S
C1777 C1778 1.374 . S
C1778 H1752 0.950 . S
C1778 C1774 1.385 . S
C1778 C1777 1.374 . S
C1779 C1776 1.499 . S
C1779 C1780 1.373 . S
C1779 C1781 1.389 . S
C1780 H1753 0.950 . S
C1780 C1766 1.377 . S
C1780 C1779 1.373 . S
C1781 C1765 1.377 . S
C1781 C1779 1.389 . S
C1781 C1782 1.524 . S
C1782 C1781 1.524 . S
C1782 C1783 1.397 . S
C1782 C1787 1.363 . S
C1783 H1754 0.950 . S
C1783 C1782 1.397 . S
C1783 C1784 1.334 . S
C1784 H1755 0.950 . S
C1784 C1783 1.334 . S
C1784 C1785 1.287 . S
C1785 C1784 1.287 . S
C1785 C1786 1.524 . S
C1785 H1788 1.017 . S
C1786 H1756 0.950 . S
C1786 C1785 1.524 . S
C1786 C1787 1.415 . S
C1787 H1757 0.950 . S
C1787 C1782 1.363 . S
C1787 C1786 1.415 . S
H1788 C1785 1.017 . S
H1789 C1770 0.913 . S
H1790 C1808 0.951 . S
H1791 C1810 0.951 . S
H1792 C1812 0.950 . S
H1793 C1813 0.950 . S
H1794 C1815 0.950 . S
H1795 C1818 0.950 . S
H1796 C1819 0.950 . S
H1797 C1821 0.950 . S
H1798 C1822 0.950 . S
H1799 C1823 0.951 . S
H1800 C1825 0.951 . S
H1801 C1827 0.950 . S
H1802 C1828 0.950 . S
H1803 C1830 0.950 . S
H1804 C1833 0.950 . S
H1805 C1834 0.950 . S
H1806 C1836 0.950 . S
H1807 C1837 0.950 . S
C1808 H1790 0.951 . S
C1808 C1809 1.366 . S
C1808 C1810 1.388 . S
C1809 C1808 1.366 . S
C1809 C1813 1.385 . S
C1810 H1791 0.951 . S
C1810 C1808 1.388 . S
C1810 C1811 1.366 . S
C1811 C1810 1.366 . S
C1811 C1812 1.414 . S
C1811 C1814 1.499 . S
C1812 H1792 0.950 . S
C1812 C1811 1.414 . S
C1812 C1813 1.374 . S
C1813 H1793 0.950 . S
C1813 C1809 1.385 . S
C1813 C1812 1.374 . S
C1814 C1811 1.499 . S
C1814 C1815 1.373 . S
C1814 C1816 1.389 . S
C1815 H1794 0.950 . S
C1815 C1814 1.373 . S
C1815 C1831 1.377 . S
C1816 C1814 1.389 . S
C1816 C1817 1.524 . S
C1816 C1830 1.377 . S
C1817 C1816 1.524 . S
C1817 C1818 1.397 . S
C1817 C1822 1.363 . S
C1818 H1795 0.950 . S
C1818 C1817 1.397 . S
C1818 C1819 1.334 . S
C1819 H1796 0.950 . S
C1819 C1818 1.334 . S
C1819 C1820 1.287 . S
C1820 C1819 1.287 . S
C1820 C1821 1.524 . S
C1820 H1839 0.913 . S
C1821 H1797 0.950 . S
C1821 C1820 1.524 . S
C1821 C1822 1.415 . S
C1822 H1798 0.950 . S
C1822 C1817 1.363 . S
C1822 C1821 1.415 . S
C1823 H1799 0.951 . S
C1823 C1824 1.366 . S
C1823 C1825 1.388 . S
C1824 C1823 1.366 . S
C1824 C1828 1.385 . S
C1825 H1800 0.951 . S
C1825 C1823 1.388 . S
C1825 C1826 1.366 . S
C1826 C1825 1.366 . S
C1826 C1827 1.414 . S
C1826 C1829 1.499 . S
C1827 H1801 0.950 . S
C1827 C1826 1.414 . S
C1827 C1828 1.374 . S
C1828 H1802 0.950 . S
C1828 C1824 1.385 . S
C1828 C1827 1.374 . S
C1829 C1826 1.499 . S
C1829 C1830 1.373 . S
C1829 C1831 1.389 . S
C1830 H1803 0.950 . S
C1830 C1816 1.377 . S
C1830 C1829 1.373 . S
C1831 C1815 1.377 . S
C1831 C1829 1.389 . S
C1831 C1832 1.524 . S
C1832 C1831 1.524 . S
C1832 C1833 1.397 . S
C1832 C1837 1.363 . S
C1833 H1804 0.950 . S
C1833 C1832 1.397 . S
C1833 C1834 1.334 . S
C1834 H1805 0.950 . S
C1834 C1833 1.334 . S
C1834 C1835 1.287 . S
C1835 C1834 1.287 . S
C1835 C1836 1.524 . S
C1835 H1838 0.999 . S
C1836 H1806 0.950 . S
C1836 C1835 1.524 . S
C1836 C1837 1.415 . S
C1837 H1807 0.950 . S
C1837 C1832 1.363 . S
C1837 C1836 1.415 . S
H1838 C1835 0.999 . S
H1839 C1820 0.913 . S
H1840 C1858 0.951 . S
H1841 C1860 0.951 . S
H1842 C1862 0.950 . S
H1843 C1863 0.950 . S
H1844 C1865 0.950 . S
H1845 C1868 0.950 . S
H1846 C1869 0.950 . S
H1847 C1871 0.950 . S
H1848 C1872 0.950 . S
H1849 C1873 0.951 . S
H1850 C1875 0.951 . S
H1851 C1877 0.950 . S
H1852 C1878 0.950 . S
H1853 C1880 0.950 . S
H1854 C1883 0.950 . S
H1855 C1884 0.950 . S
H1856 C1886 0.950 . S
H1857 C1887 0.950 . S
C1858 H1840 0.951 . S
C1858 C1859 1.366 . S
C1858 C1860 1.388 . S
C1859 C1858 1.366 . S
C1859 C1863 1.385 . S
C1860 H1841 0.951 . S
C1860 C1858 1.388 . S
C1860 C1861 1.366 . S
C1861 C1860 1.366 . S
C1861 C1862 1.414 . S
C1861 C1864 1.499 . S
C1862 H1842 0.950 . S
C1862 C1861 1.414 . S
C1862 C1863 1.374 . S
C1863 H1843 0.950 . S
C1863 C1859 1.385 . S
C1863 C1862 1.374 . S
C1864 C1861 1.499 . S
C1864 C1865 1.373 . S
C1864 C1866 1.389 . S
C1865 H1844 0.950 . S
C1865 C1864 1.373 . S
C1865 C1881 1.377 . S
C1866 C1864 1.389 . S
C1866 C1867 1.524 . S
C1866 C1880 1.377 . S
C1867 C1866 1.524 . S
C1867 C1868 1.397 . S
C1867 C1872 1.363 . S
C1868 H1845 0.950 . S
C1868 C1867 1.397 . S
C1868 C1869 1.334 . S
C1869 H1846 0.950 . S
C1869 C1868 1.334 . S
C1869 C1870 1.287 . S
C1870 C1869 1.287 . S
C1870 C1871 1.524 . S
C1870 H1889 0.913 . S
C1871 H1847 0.950 . S
C1871 C1870 1.524 . S
C1871 C1872 1.415 . S
C1872 H1848 0.950 . S
C1872 C1867 1.363 . S
C1872 C1871 1.415 . S
C1873 H1849 0.951 . S
C1873 C1874 1.366 . S
C1873 C1875 1.388 . S
C1874 C1873 1.366 . S
C1874 C1878 1.385 . S
C1875 H1850 0.951 . S
C1875 C1873 1.388 . S
C1875 C1876 1.366 . S
C1876 C1875 1.366 . S
C1876 C1877 1.414 . S
C1876 C1879 1.499 . S
C1877 H1851 0.950 . S
C1877 C1876 1.414 . S
C1877 C1878 1.374 . S
C1878 H1852 0.950 . S
C1878 C1874 1.385 . S
C1878 C1877 1.374 . S
C1879 C1876 1.499 . S
C1879 C1880 1.373 . S
C1879 C1881 1.389 . S
C1880 H1853 0.950 . S
C1880 C1866 1.377 . S
C1880 C1879 1.373 . S
C1881 C1865 1.377 . S
C1881 C1879 1.389 . S
C1881 C1882 1.524 . S
C1882 C1881 1.524 . S
C1882 C1883 1.397 . S
C1882 C1887 1.363 . S
C1883 H1854 0.950 . S
C1883 C1882 1.397 . S
C1883 C1884 1.334 . S
C1884 H1855 0.950 . S
C1884 C1883 1.334 . S
C1884 C1885 1.287 . S
C1885 C1884 1.287 . S
C1885 C1886 1.524 . S
C1885 H1888 0.999 . S
C1886 H1856 0.950 . S
C1886 C1885 1.524 . S
C1886 C1887 1.415 . S
C1887 H1857 0.950 . S
C1887 C1882 1.363 . S
C1887 C1886 1.415 . S
H1888 C1885 0.999 . S
H1889 C1870 0.913 . S
H1890 C1908 0.951 . S
H1891 C1910 0.951 . S
H1892 C1912 0.950 . S
H1893 C1913 0.950 . S
H1894 C1915 0.950 . S
H1895 C1918 0.950 . S
H1896 C1919 0.950 . S
H1897 C1921 0.950 . S
H1898 C1922 0.950 . S
H1899 C1923 0.951 . S
H1900 C1925 0.951 . S
H1901 C1927 0.950 . S
H1902 C1928 0.950 . S
H1903 C1930 0.950 . S
H1904 C1933 0.950 . S
H1905 C1934 0.950 . S
H1906 C1936 0.950 . S
H1907 C1937 0.950 . S
C1908 H1890 0.951 . S
C1908 C1909 1.366 . S
C1908 C1910 1.388 . S
C1909 C1908 1.366 . S
C1909 C1913 1.385 . S
C1910 H1891 0.951 . S
C1910 C1908 1.388 . S
C1910 C1911 1.366 . S
C1911 C1910 1.366 . S
C1911 C1912 1.414 . S
C1911 C1914 1.499 . S
C1912 H1892 0.950 . S
C1912 C1911 1.414 . S
C1912 C1913 1.374 . S
C1913 H1893 0.950 . S
C1913 C1909 1.385 . S
C1913 C1912 1.374 . S
C1914 C1911 1.499 . S
C1914 C1915 1.373 . S
C1914 C1916 1.389 . S
C1915 H1894 0.950 . S
C1915 C1914 1.373 . S
C1915 C1931 1.377 . S
C1916 C1914 1.389 . S
C1916 C1917 1.524 . S
C1916 C1930 1.377 . S
C1917 C1916 1.524 . S
C1917 C1918 1.397 . S
C1917 C1922 1.363 . S
C1918 H1895 0.950 . S
C1918 C1917 1.397 . S
C1918 C1919 1.334 . S
C1919 H1896 0.950 . S
C1919 C1918 1.334 . S
C1919 C1920 1.287 . S
C1920 C1919 1.287 . S
C1920 C1921 1.524 . S
C1920 H1939 0.913 . S
C1921 H1897 0.950 . S
C1921 C1920 1.524 . S
C1921 C1922 1.415 . S
C1922 H1898 0.950 . S
C1922 C1917 1.363 . S
C1922 C1921 1.415 . S
C1923 H1899 0.951 . S
C1923 C1924 1.366 . S
C1923 C1925 1.388 . S
C1924 C1923 1.366 . S
C1924 C1928 1.385 . S
C1925 H1900 0.951 . S
C1925 C1923 1.388 . S
C1925 C1926 1.366 . S
C1926 C1925 1.366 . S
C1926 C1927 1.414 . S
C1926 C1929 1.499 . S
C1927 H1901 0.950 . S
C1927 C1926 1.414 . S
C1927 C1928 1.374 . S
C1928 H1902 0.950 . S
C1928 C1924 1.385 . S
C1928 C1927 1.374 . S
C1929 C1926 1.499 . S
C1929 C1930 1.373 . S
C1929 C1931 1.389 . S
C1930 H1903 0.950 . S
C1930 C1916 1.377 . S
C1930 C1929 1.373 . S
C1931 C1915 1.377 . S
C1931 C1929 1.389 . S
C1931 C1932 1.524 . S
C1932 C1931 1.524 . S
C1932 C1933 1.397 . S
C1932 C1937 1.363 . S
C1933 H1904 0.950 . S
C1933 C1932 1.397 . S
C1933 C1934 1.334 . S
C1934 H1905 0.950 . S
C1934 C1933 1.334 . S
C1934 C1935 1.287 . S
C1935 C1934 1.287 . S
C1935 C1936 1.524 . S
C1935 H1938 0.999 . S
C1936 H1906 0.950 . S
C1936 C1935 1.524 . S
C1936 C1937 1.415 . S
C1937 H1907 0.950 . S
C1937 C1932 1.363 . S
C1937 C1936 1.415 . S
H1938 C1935 0.999 . S
H1939 C1920 0.913 . S
H1940 C1958 0.951 . S
H1941 C1960 0.951 . S
H1942 C1962 0.950 . S
H1943 C1963 0.950 . S
H1944 C1965 0.950 . S
H1945 C1968 0.950 . S
H1946 C1969 0.950 . S
H1947 C1971 0.950 . S
H1948 C1972 0.950 . S
H1949 C1973 0.951 . S
H1950 C1975 0.951 . S
H1951 C1977 0.950 . S
H1952 C1978 0.950 . S
H1953 C1980 0.950 . S
H1954 C1983 0.950 . S
H1955 C1984 0.950 . S
H1956 C1986 0.950 . S
H1957 C1987 0.950 . S
C1958 H1940 0.951 . S
C1958 C1959 1.366 . S
C1958 C1960 1.388 . S
C1959 C1958 1.366 . S
C1959 C1963 1.385 . S
C1960 H1941 0.951 . S
C1960 C1958 1.388 . S
C1960 C1961 1.366 . S
C1961 C1960 1.366 . S
C1961 C1962 1.414 . S
C1961 C1964 1.499 . S
C1962 H1942 0.950 . S
C1962 C1961 1.414 . S
C1962 C1963 1.374 . S
C1963 H1943 0.950 . S
C1963 C1959 1.385 . S
C1963 C1962 1.374 . S
C1964 C1961 1.499 . S
C1964 C1965 1.373 . S
C1964 C1966 1.389 . S
C1965 H1944 0.950 . S
C1965 C1964 1.373 . S
C1965 C1981 1.377 . S
C1966 C1964 1.389 . S
C1966 C1967 1.524 . S
C1966 C1980 1.377 . S
C1967 C1966 1.524 . S
C1967 C1968 1.397 . S
C1967 C1972 1.363 . S
C1968 H1945 0.950 . S
C1968 C1967 1.397 . S
C1968 C1969 1.334 . S
C1969 H1946 0.950 . S
C1969 C1968 1.334 . S
C1969 C1970 1.287 . S
C1970 C1969 1.287 . S
C1970 C1971 1.524 . S
C1970 H1989 0.913 . S
C1971 H1947 0.950 . S
C1971 C1970 1.524 . S
C1971 C1972 1.415 . S
C1972 H1948 0.950 . S
C1972 C1967 1.363 . S
C1972 C1971 1.415 . S
C1973 H1949 0.951 . S
C1973 C1974 1.366 . S
C1973 C1975 1.388 . S
C1974 C1973 1.366 . S
C1974 C1978 1.385 . S
C1975 H1950 0.951 . S
C1975 C1973 1.388 . S
C1975 C1976 1.366 . S
C1976 C1975 1.366 . S
C1976 C1977 1.414 . S
C1976 C1979 1.499 . S
C1977 H1951 0.950 . S
C1977 C1976 1.414 . S
C1977 C1978 1.374 . S
C1978 H1952 0.950 . S
C1978 C1974 1.385 . S
C1978 C1977 1.374 . S
C1979 C1976 1.499 . S
C1979 C1980 1.373 . S
C1979 C1981 1.389 . S
C1980 H1953 0.950 . S
C1980 C1966 1.377 . S
C1980 C1979 1.373 . S
C1981 C1965 1.377 . S
C1981 C1979 1.389 . S
C1981 C1982 1.524 . S
C1982 C1981 1.524 . S
C1982 C1983 1.397 . S
C1982 C1987 1.363 . S
C1983 H1954 0.950 . S
C1983 C1982 1.397 . S
C1983 C1984 1.334 . S
C1984 H1955 0.950 . S
C1984 C1983 1.334 . S
C1984 C1985 1.287 . S
C1985 C1984 1.287 . S
C1985 C1986 1.524 . S
C1985 H1988 0.999 . S
C1986 H1956 0.950 . S
C1986 C1985 1.524 . S
C1986 C1987 1.415 . S
C1987 H1957 0.950 . S
C1987 C1982 1.363 . S
C1987 C1986 1.415 . S
H1988 C1985 0.999 . S
H1989 C1970 0.913 . S
H1990 C2008 0.951 . S
H1991 C2010 0.951 . S
H1992 C2012 0.950 . S
H1993 C2013 0.950 . S
H1994 C2015 0.950 . S
H1995 C2018 0.950 . S
H1996 C2019 0.950 . S
H1997 C2021 0.950 . S
H1998 C2022 0.950 . S
H1999 C2023 0.951 . S
H2000 C2025 0.951 . S
H2001 C2027 0.950 . S
H2002 C2028 0.950 . S
H2003 C2030 0.950 . S
H2004 C2033 0.950 . S
H2005 C2034 0.950 . S
H2006 C2036 0.950 . S
H2007 C2037 0.950 . S
C2008 H1990 0.951 . S
C2008 C2009 1.366 . S
C2008 C2010 1.388 . S
C2009 C2008 1.366 . S
C2009 C2013 1.385 . S
C2010 H1991 0.951 . S
C2010 C2008 1.388 . S
C2010 C2011 1.366 . S
C2011 C2010 1.366 . S
C2011 C2012 1.414 . S
C2011 C2014 1.499 . S
C2012 H1992 0.950 . S
C2012 C2011 1.414 . S
C2012 C2013 1.374 . S
C2013 H1993 0.950 . S
C2013 C2009 1.385 . S
C2013 C2012 1.374 . S
C2014 C2011 1.499 . S
C2014 C2015 1.373 . S
C2014 C2016 1.389 . S
C2015 H1994 0.950 . S
C2015 C2014 1.373 . S
C2015 C2031 1.377 . S
C2016 C2014 1.389 . S
C2016 C2017 1.524 . S
C2016 C2030 1.377 . S
C2017 C2016 1.524 . S
C2017 C2018 1.397 . S
C2017 C2022 1.363 . S
C2018 H1995 0.950 . S
C2018 C2017 1.397 . S
C2018 C2019 1.334 . S
C2019 H1996 0.950 . S
C2019 C2018 1.334 . S
C2019 C2020 1.287 . S
C2020 C2019 1.287 . S
C2020 C2021 1.524 . S
C2020 H2039 0.913 . S
C2021 H1997 0.950 . S
C2021 C2020 1.524 . S
C2021 C2022 1.415 . S
C2022 H1998 0.950 . S
C2022 C2017 1.363 . S
C2022 C2021 1.415 . S
C2023 H1999 0.951 . S
C2023 C2024 1.366 . S
C2023 C2025 1.388 . S
C2024 C2023 1.366 . S
C2024 C2028 1.385 . S
C2025 H2000 0.951 . S
C2025 C2023 1.388 . S
C2025 C2026 1.366 . S
C2026 C2025 1.366 . S
C2026 C2027 1.414 . S
C2026 C2029 1.499 . S
C2027 H2001 0.950 . S
C2027 C2026 1.414 . S
C2027 C2028 1.374 . S
C2028 H2002 0.950 . S
C2028 C2024 1.385 . S
C2028 C2027 1.374 . S
C2029 C2026 1.499 . S
C2029 C2030 1.373 . S
C2029 C2031 1.389 . S
C2030 H2003 0.950 . S
C2030 C2016 1.377 . S
C2030 C2029 1.373 . S
C2031 C2015 1.377 . S
C2031 C2029 1.389 . S
C2031 C2032 1.524 . S
C2032 C2031 1.524 . S
C2032 C2033 1.397 . S
C2032 C2037 1.363 . S
C2033 H2004 0.950 . S
C2033 C2032 1.397 . S
C2033 C2034 1.334 . S
C2034 H2005 0.950 . S
C2034 C2033 1.334 . S
C2034 C2035 1.287 . S
C2035 C2034 1.287 . S
C2035 C2036 1.524 . S
C2035 H2038 0.999 . S
C2036 H2006 0.950 . S
C2036 C2035 1.524 . S
C2036 C2037 1.415 . S
C2037 H2007 0.950 . S
C2037 C2032 1.363 . S
C2037 C2036 1.415 . S
H2038 C2035 0.999 . S
H2039 C2020 0.913 . S
H2040 C2058 0.951 . S
H2041 C2060 0.951 . S
H2042 C2062 0.950 . S
H2043 C2063 0.950 . S
H2044 C2065 0.950 . S
H2045 C2068 0.950 . S
H2046 C2069 0.950 . S
H2047 C2071 0.950 . S
H2048 C2072 0.950 . S
H2049 C2073 0.951 . S
H2050 C2075 0.951 . S
H2051 C2077 0.950 . S
H2052 C2078 0.950 . S
H2053 C2080 0.950 . S
H2054 C2083 0.950 . S
H2055 C2084 0.950 . S
H2056 C2086 0.950 . S
H2057 C2087 0.950 . S
C2058 H2040 0.951 . S
C2058 C2059 1.366 . S
C2058 C2060 1.388 . S
C2059 C2058 1.366 . S
C2059 C2063 1.385 . S
C2060 H2041 0.951 . S
C2060 C2058 1.388 . S
C2060 C2061 1.366 . S
C2061 C2060 1.366 . S
C2061 C2062 1.414 . S
C2061 C2064 1.499 . S
C2062 H2042 0.950 . S
C2062 C2061 1.414 . S
C2062 C2063 1.374 . S
C2063 H2043 0.950 . S
C2063 C2059 1.385 . S
C2063 C2062 1.374 . S
C2064 C2061 1.499 . S
C2064 C2065 1.373 . S
C2064 C2066 1.389 . S
C2065 H2044 0.950 . S
C2065 C2064 1.373 . S
C2065 C2081 1.377 . S
C2066 C2064 1.389 . S
C2066 C2067 1.524 . S
C2066 C2080 1.377 . S
C2067 C2066 1.524 . S
C2067 C2068 1.397 . S
C2067 C2072 1.363 . S
C2068 H2045 0.950 . S
C2068 C2067 1.397 . S
C2068 C2069 1.334 . S
C2069 H2046 0.950 . S
C2069 C2068 1.334 . S
C2069 C2070 1.287 . S
C2070 C2069 1.287 . S
C2070 C2071 1.524 . S
C2070 H2089 0.913 . S
C2071 H2047 0.950 . S
C2071 C2070 1.524 . S
C2071 C2072 1.415 . S
C2072 H2048 0.950 . S
C2072 C2067 1.363 . S
C2072 C2071 1.415 . S
C2073 H2049 0.951 . S
C2073 C2074 1.366 . S
C2073 C2075 1.388 . S
C2074 C2073 1.366 . S
C2074 C2078 1.385 . S
C2075 H2050 0.951 . S
C2075 C2073 1.388 . S
C2075 C2076 1.366 . S
C2076 C2075 1.366 . S
C2076 C2077 1.414 . S
C2076 C2079 1.499 . S
C2077 H2051 0.950 . S
C2077 C2076 1.414 . S
C2077 C2078 1.374 . S
C2078 H2052 0.950 . S
C2078 C2074 1.385 . S
C2078 C2077 1.374 . S
C2079 C2076 1.499 . S
C2079 C2080 1.373 . S
C2079 C2081 1.389 . S
C2080 H2053 0.950 . S
C2080 C2066 1.377 . S
C2080 C2079 1.373 . S
C2081 C2065 1.377 . S
C2081 C2079 1.389 . S
C2081 C2082 1.524 . S
C2082 C2081 1.524 . S
C2082 C2083 1.397 . S
C2082 C2087 1.363 . S
C2083 H2054 0.950 . S
C2083 C2082 1.397 . S
C2083 C2084 1.334 . S
C2084 H2055 0.950 . S
C2084 C2083 1.334 . S
C2084 C2085 1.287 . S
C2085 C2084 1.287 . S
C2085 C2086 1.524 . S
C2085 H2088 0.999 . S
C2086 H2056 0.950 . S
C2086 C2085 1.524 . S
C2086 C2087 1.415 . S
C2087 H2057 0.950 . S
C2087 C2082 1.363 . S
C2087 C2086 1.415 . S
H2088 C2085 0.999 . S
H2089 C2070 0.913 . S
H2090 C2108 0.951 . S
H2091 C2110 0.951 . S
H2092 C2112 0.950 . S
H2093 C2113 0.950 . S
H2094 C2115 0.950 . S
H2095 C2118 0.950 . S
H2096 C2119 0.950 . S
H2097 C2121 0.950 . S
H2098 C2122 0.950 . S
H2099 C2123 0.951 . S
H2100 C2125 0.951 . S
H2101 C2127 0.950 . S
H2102 C2128 0.950 . S
H2103 C2130 0.950 . S
H2104 C2133 0.950 . S
H2105 C2134 0.950 . S
H2106 C2136 0.950 . S
H2107 C2137 0.950 . S
C2108 H2090 0.951 . S
C2108 C2109 1.366 . S
C2108 C2110 1.388 . S
C2109 C2108 1.366 . S
C2109 C2113 1.385 . S
C2110 H2091 0.951 . S
C2110 C2108 1.388 . S
C2110 C2111 1.366 . S
C2111 C2110 1.366 . S
C2111 C2112 1.414 . S
C2111 C2114 1.499 . S
C2112 H2092 0.950 . S
C2112 C2111 1.414 . S
C2112 C2113 1.374 . S
C2113 H2093 0.950 . S
C2113 C2109 1.385 . S
C2113 C2112 1.374 . S
C2114 C2111 1.499 . S
C2114 C2115 1.373 . S
C2114 C2116 1.389 . S
C2115 H2094 0.950 . S
C2115 C2114 1.373 . S
C2115 C2131 1.377 . S
C2116 C2114 1.389 . S
C2116 C2117 1.524 . S
C2116 C2130 1.377 . S
C2117 C2116 1.524 . S
C2117 C2118 1.397 . S
C2117 C2122 1.363 . S
C2118 H2095 0.950 . S
C2118 C2117 1.397 . S
C2118 C2119 1.334 . S
C2119 H2096 0.950 . S
C2119 C2118 1.334 . S
C2119 C2120 1.287 . S
C2120 C2119 1.287 . S
C2120 C2121 1.524 . S
C2120 H2139 0.913 . S
C2121 H2097 0.950 . S
C2121 C2120 1.524 . S
C2121 C2122 1.415 . S
C2122 H2098 0.950 . S
C2122 C2117 1.363 . S
C2122 C2121 1.415 . S
C2123 H2099 0.951 . S
C2123 C2124 1.366 . S
C2123 C2125 1.388 . S
C2124 C2123 1.366 . S
C2124 C2128 1.385 . S
C2125 H2100 0.951 . S
C2125 C2123 1.388 . S
C2125 C2126 1.366 . S
C2126 C2125 1.366 . S
C2126 C2127 1.414 . S
C2126 C2129 1.499 . S
C2127 H2101 0.950 . S
C2127 C2126 1.414 . S
C2127 C2128 1.374 . S
C2128 H2102 0.950 . S
C2128 C2124 1.385 . S
C2128 C2127 1.374 . S
C2129 C2126 1.499 . S
C2129 C2130 1.373 . S
C2129 C2131 1.389 . S
C2130 H2103 0.950 . S
C2130 C2116 1.377 . S
C2130 C2129 1.373 . S
C2131 C2115 1.377 . S
C2131 C2129 1.389 . S
C2131 C2132 1.524 . S
C2132 C2131 1.524 . S
C2132 C2133 1.397 . S
C2132 C2137 1.363 . S
C2133 H2104 0.950 . S
C2133 C2132 1.397 . S
C2133 C2134 1.334 . S
C2134 H2105 0.950 . S
C2134 C2133 1.334 . S
C2134 C2135 1.287 . S
C2135 C2134 1.287 . S
C2135 C2136 1.524 . S
C2135 H2138 0.999 1_556 S
C2136 H2106 0.950 . S
C2136 C2135 1.524 . S
C2136 C2137 1.415 . S
C2137 H2107 0.950 . S
C2137 C2132 1.363 . S
C2137 C2136 1.415 . S
H2138 C2135 0.999 1_554 S
H2139 C2120 0.913 . S
H2140 C2158 0.951 . S
H2141 C2160 0.951 . S
H2142 C2162 0.950 . S
H2143 C2163 0.950 . S
H2144 C2165 0.950 . S
H2145 C2168 0.950 . S
H2146 C2169 0.950 . S
H2147 C2171 0.950 . S
H2148 C2172 0.950 . S
H2149 C2173 0.951 . S
H2150 C2175 0.951 . S
H2151 C2177 0.950 . S
H2152 C2178 0.950 . S
H2153 C2180 0.950 . S
H2154 C2183 0.950 . S
H2155 C2184 0.950 . S
H2156 C2186 0.950 . S
H2157 C2187 0.950 . S
C2158 H2140 0.951 . S
C2158 C2159 1.366 . S
C2158 C2160 1.388 . S
C2159 C2158 1.366 . S
C2159 C2163 1.385 . S
C2160 H2141 0.951 . S
C2160 C2158 1.388 . S
C2160 C2161 1.366 . S
C2161 C2160 1.366 . S
C2161 C2162 1.414 . S
C2161 C2164 1.499 . S
C2162 H2142 0.950 . S
C2162 C2161 1.414 . S
C2162 C2163 1.374 . S
C2163 H2143 0.950 . S
C2163 C2159 1.385 . S
C2163 C2162 1.374 . S
C2164 C2161 1.499 . S
C2164 C2165 1.373 . S
C2164 C2166 1.389 . S
C2165 H2144 0.950 . S
C2165 C2164 1.373 . S
C2165 C2181 1.377 . S
C2166 C2164 1.389 . S
C2166 C2167 1.524 . S
C2166 C2180 1.377 . S
C2167 C2166 1.524 . S
C2167 C2168 1.397 . S
C2167 C2172 1.363 . S
C2168 H2145 0.950 . S
C2168 C2167 1.397 . S
C2168 C2169 1.334 . S
C2169 H2146 0.950 . S
C2169 C2168 1.334 . S
C2169 C2170 1.287 . S
C2170 C2169 1.287 . S
C2170 C2171 1.524 . S
C2170 H2189 0.913 . S
C2171 H2147 0.950 . S
C2171 C2170 1.524 . S
C2171 C2172 1.415 . S
C2172 H2148 0.950 . S
C2172 C2167 1.363 . S
C2172 C2171 1.415 . S
C2173 H2149 0.951 . S
C2173 C2174 1.366 . S
C2173 C2175 1.388 . S
C2174 C2173 1.366 . S
C2174 C2178 1.385 . S
C2175 H2150 0.951 . S
C2175 C2173 1.388 . S
C2175 C2176 1.366 . S
C2176 C2175 1.366 . S
C2176 C2177 1.414 . S
C2176 C2179 1.499 . S
C2177 H2151 0.950 . S
C2177 C2176 1.414 . S
C2177 C2178 1.374 . S
C2178 H2152 0.950 . S
C2178 C2174 1.385 . S
C2178 C2177 1.374 . S
C2179 C2176 1.499 . S
C2179 C2180 1.373 . S
C2179 C2181 1.389 . S
C2180 H2153 0.950 . S
C2180 C2166 1.377 . S
C2180 C2179 1.373 . S
C2181 C2165 1.377 . S
C2181 C2179 1.389 . S
C2181 C2182 1.524 . S
C2182 C2181 1.524 . S
C2182 C2183 1.397 . S
C2182 C2187 1.363 . S
C2183 H2154 0.950 . S
C2183 C2182 1.397 . S
C2183 C2184 1.334 . S
C2184 H2155 0.950 . S
C2184 C2183 1.334 . S
C2184 C2185 1.287 . S
C2185 C2184 1.287 . S
C2185 C2186 1.524 . S
C2185 H2188 0.999 . S
C2186 H2156 0.950 . S
C2186 C2185 1.524 . S
C2186 C2187 1.415 . S
C2187 H2157 0.950 . S
C2187 C2182 1.363 . S
C2187 C2186 1.415 . S
H2188 C2185 0.999 . S
H2189 C2170 0.913 . S
H2190 C2208 0.951 . S
H2191 C2210 0.951 . S
H2192 C2212 0.950 . S
H2193 C2213 0.950 . S
H2194 C2215 0.950 . S
H2195 C2218 0.950 . S
H2196 C2219 0.950 . S
H2197 C2221 0.950 . S
H2198 C2222 0.950 . S
H2199 C2223 0.951 . S
H2200 C2225 0.951 . S
H2201 C2227 0.950 . S
H2202 C2228 0.950 . S
H2203 C2230 0.950 . S
H2204 C2233 0.950 . S
H2205 C2234 0.950 . S
H2206 C2236 0.950 . S
H2207 C2237 0.950 . S
C2208 H2190 0.951 . S
C2208 C2209 1.366 . S
C2208 C2210 1.388 . S
C2209 C2208 1.366 . S
C2209 C2213 1.385 . S
C2210 H2191 0.951 . S
C2210 C2208 1.388 . S
C2210 C2211 1.366 . S
C2211 C2210 1.366 . S
C2211 C2212 1.414 . S
C2211 C2214 1.499 . S
C2212 H2192 0.950 . S
C2212 C2211 1.414 . S
C2212 C2213 1.374 . S
C2213 H2193 0.950 . S
C2213 C2209 1.385 . S
C2213 C2212 1.374 . S
C2214 C2211 1.499 . S
C2214 C2215 1.373 . S
C2214 C2216 1.389 . S
C2215 H2194 0.950 . S
C2215 C2214 1.373 . S
C2215 C2231 1.377 . S
C2216 C2214 1.389 . S
C2216 C2217 1.524 . S
C2216 C2230 1.377 . S
C2217 C2216 1.524 . S
C2217 C2218 1.397 . S
C2217 C2222 1.363 . S
C2218 H2195 0.950 . S
C2218 C2217 1.397 . S
C2218 C2219 1.334 . S
C2219 H2196 0.950 . S
C2219 C2218 1.334 . S
C2219 C2220 1.287 . S
C2220 C2219 1.287 . S
C2220 C2221 1.524 . S
C2220 H2239 0.913 . S
C2221 H2197 0.950 . S
C2221 C2220 1.524 . S
C2221 C2222 1.415 . S
C2222 H2198 0.950 . S
C2222 C2217 1.363 . S
C2222 C2221 1.415 . S
C2223 H2199 0.951 . S
C2223 C2224 1.366 . S
C2223 C2225 1.388 . S
C2224 C2223 1.366 . S
C2224 C2228 1.385 . S
C2225 H2200 0.951 . S
C2225 C2223 1.388 . S
C2225 C2226 1.366 . S
C2226 C2225 1.366 . S
C2226 C2227 1.414 . S
C2226 C2229 1.499 . S
C2227 H2201 0.950 . S
C2227 C2226 1.414 . S
C2227 C2228 1.374 . S
C2228 H2202 0.950 . S
C2228 C2224 1.385 . S
C2228 C2227 1.374 . S
C2229 C2226 1.499 . S
C2229 C2230 1.373 . S
C2229 C2231 1.389 . S
C2230 H2203 0.950 . S
C2230 C2216 1.377 . S
C2230 C2229 1.373 . S
C2231 C2215 1.377 . S
C2231 C2229 1.389 . S
C2231 C2232 1.524 . S
C2232 C2231 1.524 . S
C2232 C2233 1.397 . S
C2232 C2237 1.363 . S
C2233 H2204 0.950 . S
C2233 C2232 1.397 . S
C2233 C2234 1.334 . S
C2234 H2205 0.950 . S
C2234 C2233 1.334 . S
C2234 C2235 1.287 . S
C2235 C2234 1.287 . S
C2235 C2236 1.524 . S
C2235 H2238 0.999 . S
C2236 H2206 0.950 . S
C2236 C2235 1.524 . S
C2236 C2237 1.415 . S
C2237 H2207 0.950 . S
C2237 C2232 1.363 . S
C2237 C2236 1.415 . S
H2238 C2235 0.999 . S
H2239 C2220 0.913 . S
H2240 C2258 0.951 . S
H2241 C2260 0.951 . S
H2242 C2262 0.950 . S
H2243 C2263 0.950 . S
H2244 C2265 0.950 . S
H2245 C2268 0.950 . S
H2246 C2269 0.950 . S
H2247 C2271 0.950 . S
H2248 C2272 0.950 . S
H2249 C2273 0.951 . S
H2250 C2275 0.951 . S
H2251 C2277 0.950 . S
H2252 C2278 0.950 . S
H2253 C2280 0.950 . S
H2254 C2283 0.950 . S
H2255 C2284 0.950 . S
H2256 C2286 0.950 . S
H2257 C2287 0.950 . S
C2258 H2240 0.951 . S
C2258 C2259 1.366 . S
C2258 C2260 1.388 . S
C2259 C2258 1.366 . S
C2259 C2263 1.385 . S
C2260 H2241 0.951 . S
C2260 C2258 1.388 . S
C2260 C2261 1.366 . S
C2261 C2260 1.366 . S
C2261 C2262 1.414 . S
C2261 C2264 1.499 . S
C2262 H2242 0.950 . S
C2262 C2261 1.414 . S
C2262 C2263 1.374 . S
C2263 H2243 0.950 . S
C2263 C2259 1.385 . S
C2263 C2262 1.374 . S
C2264 C2261 1.499 . S
C2264 C2265 1.373 . S
C2264 C2266 1.389 . S
C2265 H2244 0.950 . S
C2265 C2264 1.373 . S
C2265 C2281 1.377 . S
C2266 C2264 1.389 . S
C2266 C2267 1.524 . S
C2266 C2280 1.377 . S
C2267 C2266 1.524 . S
C2267 C2268 1.397 . S
C2267 C2272 1.363 . S
C2268 H2245 0.950 . S
C2268 C2267 1.397 . S
C2268 C2269 1.334 . S
C2269 H2246 0.950 . S
C2269 C2268 1.334 . S
C2269 C2270 1.287 . S
C2270 C2269 1.287 . S
C2270 C2271 1.524 . S
C2270 H2289 0.913 . S
C2271 H2247 0.950 . S
C2271 C2270 1.524 . S
C2271 C2272 1.415 . S
C2272 H2248 0.950 . S
C2272 C2267 1.363 . S
C2272 C2271 1.415 . S
C2273 H2249 0.951 . S
C2273 C2274 1.366 . S
C2273 C2275 1.388 . S
C2274 C2273 1.366 . S
C2274 C2278 1.385 . S
C2275 H2250 0.951 . S
C2275 C2273 1.388 . S
C2275 C2276 1.366 . S
C2276 C2275 1.366 . S
C2276 C2277 1.414 . S
C2276 C2279 1.499 . S
C2277 H2251 0.950 . S
C2277 C2276 1.414 . S
C2277 C2278 1.374 . S
C2278 H2252 0.950 . S
C2278 C2274 1.385 . S
C2278 C2277 1.374 . S
C2279 C2276 1.499 . S
C2279 C2280 1.373 . S
C2279 C2281 1.389 . S
C2280 H2253 0.950 . S
C2280 C2266 1.377 . S
C2280 C2279 1.373 . S
C2281 C2265 1.377 . S
C2281 C2279 1.389 . S
C2281 C2282 1.524 . S
C2282 C2281 1.524 . S
C2282 C2283 1.397 . S
C2282 C2287 1.363 . S
C2283 H2254 0.950 . S
C2283 C2282 1.397 . S
C2283 C2284 1.334 . S
C2284 H2255 0.950 . S
C2284 C2283 1.334 . S
C2284 C2285 1.287 . S
C2285 C2284 1.287 . S
C2285 C2286 1.524 . S
C2285 H2288 0.999 . S
C2286 H2256 0.950 . S
C2286 C2285 1.524 . S
C2286 C2287 1.415 . S
C2287 H2257 0.950 . S
C2287 C2282 1.363 . S
C2287 C2286 1.415 . S
H2288 C2285 0.999 . S
H2289 C2270 0.913 . S
H2290 C2308 0.951 . S
H2291 C2310 0.951 . S
H2292 C2312 0.950 . S
H2293 C2313 0.950 . S
H2294 C2315 0.950 . S
H2295 C2318 0.950 . S
H2296 C2319 0.950 . S
H2297 C2321 0.950 . S
H2298 C2322 0.950 . S
H2299 C2323 0.951 . S
H2300 C2325 0.951 . S
H2301 C2327 0.950 . S
H2302 C2328 0.950 . S
H2303 C2330 0.950 . S
H2304 C2333 0.950 . S
H2305 C2334 0.950 . S
H2306 C2336 0.950 . S
H2307 C2337 0.950 . S
C2308 H2290 0.951 . S
C2308 C2309 1.366 . S
C2308 C2310 1.388 . S
C2309 C2308 1.366 . S
C2309 C2313 1.385 . S
C2310 H2291 0.951 . S
C2310 C2308 1.388 . S
C2310 C2311 1.366 . S
C2311 C2310 1.366 . S
C2311 C2312 1.414 . S
C2311 C2314 1.499 . S
C2312 H2292 0.950 . S
C2312 C2311 1.414 . S
C2312 C2313 1.374 . S
C2313 H2293 0.950 . S
C2313 C2309 1.385 . S
C2313 C2312 1.374 . S
C2314 C2311 1.499 . S
C2314 C2315 1.373 . S
C2314 C2316 1.389 . S
C2315 H2294 0.950 . S
C2315 C2314 1.373 . S
C2315 C2331 1.377 . S
C2316 C2314 1.389 . S
C2316 C2317 1.524 . S
C2316 C2330 1.377 . S
C2317 C2316 1.524 . S
C2317 C2318 1.397 . S
C2317 C2322 1.363 . S
C2318 H2295 0.950 . S
C2318 C2317 1.397 . S
C2318 C2319 1.334 . S
C2319 H2296 0.950 . S
C2319 C2318 1.334 . S
C2319 C2320 1.287 . S
C2320 C2319 1.287 . S
C2320 C2321 1.524 . S
C2320 H2339 0.913 . S
C2321 H2297 0.950 . S
C2321 C2320 1.524 . S
C2321 C2322 1.415 . S
C2322 H2298 0.950 . S
C2322 C2317 1.363 . S
C2322 C2321 1.415 . S
C2323 H2299 0.951 . S
C2323 C2324 1.366 . S
C2323 C2325 1.388 . S
C2324 C2323 1.366 . S
C2324 C2328 1.385 . S
C2325 H2300 0.951 . S
C2325 C2323 1.388 . S
C2325 C2326 1.366 . S
C2326 C2325 1.366 . S
C2326 C2327 1.414 . S
C2326 C2329 1.499 . S
C2327 H2301 0.950 . S
C2327 C2326 1.414 . S
C2327 C2328 1.374 . S
C2328 H2302 0.950 . S
C2328 C2324 1.385 . S
C2328 C2327 1.374 . S
C2329 C2326 1.499 . S
C2329 C2330 1.373 . S
C2329 C2331 1.389 . S
C2330 H2303 0.950 . S
C2330 C2316 1.377 . S
C2330 C2329 1.373 . S
C2331 C2315 1.377 . S
C2331 C2329 1.389 . S
C2331 C2332 1.524 . S
C2332 C2331 1.524 . S
C2332 C2333 1.397 . S
C2332 C2337 1.363 . S
C2333 H2304 0.950 . S
C2333 C2332 1.397 . S
C2333 C2334 1.334 . S
C2334 H2305 0.950 . S
C2334 C2333 1.334 . S
C2334 C2335 1.287 . S
C2335 C2334 1.287 . S
C2335 C2336 1.524 . S
C2335 H2338 0.999 . S
C2336 H2306 0.950 . S
C2336 C2335 1.524 . S
C2336 C2337 1.415 . S
C2337 H2307 0.950 . S
C2337 C2332 1.363 . S
C2337 C2336 1.415 . S
H2338 C2335 0.999 . S
H2339 C2320 0.913 . S
H2340 C2358 0.951 . S
H2341 C2360 0.951 . S
H2342 C2362 0.950 . S
H2343 C2363 0.950 . S
H2344 C2365 0.950 . S
H2345 C2368 0.950 . S
H2346 C2369 0.950 . S
H2347 C2371 0.950 . S
H2348 C2372 0.950 . S
H2349 C2373 0.951 . S
H2350 C2375 0.951 . S
H2351 C2377 0.950 . S
H2352 C2378 0.950 . S
H2353 C2380 0.950 . S
H2354 C2383 0.950 . S
H2355 C2384 0.950 . S
H2356 C2386 0.950 . S
H2357 C2387 0.950 . S
C2358 H2340 0.951 . S
C2358 C2359 1.366 . S
C2358 C2360 1.388 . S
C2359 C2358 1.366 . S
C2359 C2363 1.385 . S
C2360 H2341 0.951 . S
C2360 C2358 1.388 . S
C2360 C2361 1.366 . S
C2361 C2360 1.366 . S
C2361 C2362 1.414 . S
C2361 C2364 1.499 . S
C2362 H2342 0.950 . S
C2362 C2361 1.414 . S
C2362 C2363 1.374 . S
C2363 H2343 0.950 . S
C2363 C2359 1.385 . S
C2363 C2362 1.374 . S
C2364 C2361 1.499 . S
C2364 C2365 1.373 . S
C2364 C2366 1.389 . S
C2365 H2344 0.950 . S
C2365 C2364 1.373 . S
C2365 C2381 1.377 . S
C2366 C2364 1.389 . S
C2366 C2367 1.524 . S
C2366 C2380 1.377 . S
C2367 C2366 1.524 . S
C2367 C2368 1.397 . S
C2367 C2372 1.363 . S
C2368 H2345 0.950 . S
C2368 C2367 1.397 . S
C2368 C2369 1.334 . S
C2369 H2346 0.950 . S
C2369 C2368 1.334 . S
C2369 C2370 1.287 . S
C2370 C2369 1.287 . S
C2370 C2371 1.524 . S
C2370 H2389 0.913 . S
C2371 H2347 0.950 . S
C2371 C2370 1.524 . S
C2371 C2372 1.415 . S
C2372 H2348 0.950 . S
C2372 C2367 1.363 . S
C2372 C2371 1.415 . S
C2373 H2349 0.951 . S
C2373 C2374 1.366 . S
C2373 C2375 1.388 . S
C2374 C2373 1.366 . S
C2374 C2378 1.385 . S
C2375 H2350 0.951 . S
C2375 C2373 1.388 . S
C2375 C2376 1.366 . S
C2376 C2375 1.366 . S
C2376 C2377 1.414 . S
C2376 C2379 1.499 . S
C2377 H2351 0.950 . S
C2377 C2376 1.414 . S
C2377 C2378 1.374 . S
C2378 H2352 0.950 . S
C2378 C2374 1.385 . S
C2378 C2377 1.374 . S
C2379 C2376 1.499 . S
C2379 C2380 1.373 . S
C2379 C2381 1.389 . S
C2380 H2353 0.950 . S
C2380 C2366 1.377 . S
C2380 C2379 1.373 . S
C2381 C2365 1.377 . S
C2381 C2379 1.389 . S
C2381 C2382 1.524 . S
C2382 C2381 1.524 . S
C2382 C2383 1.397 . S
C2382 C2387 1.363 . S
C2383 H2354 0.950 . S
C2383 C2382 1.397 . S
C2383 C2384 1.334 . S
C2384 H2355 0.950 . S
C2384 C2383 1.334 . S
C2384 C2385 1.287 . S
C2385 C2384 1.287 . S
C2385 C2386 1.524 . S
C2385 H2388 0.999 . S
C2386 H2356 0.950 . S
C2386 C2385 1.524 . S
C2386 C2387 1.415 . S
C2387 H2357 0.950 . S
C2387 C2382 1.363 . S
C2387 C2386 1.415 . S
H2388 C2385 0.999 . S
H2389 C2370 0.913 . S
H2390 C2408 0.951 . S
H2391 C2410 0.951 . S
H2392 C2412 0.950 . S
H2393 C2413 0.950 . S
H2394 C2415 0.950 . S
H2395 C2418 0.950 . S
H2396 C2419 0.950 . S
H2397 C2421 0.950 . S
H2398 C2422 0.950 . S
H2399 C2423 0.951 . S
H2400 C2425 0.951 . S
H2401 C2427 0.950 . S
H2402 C2428 0.950 . S
H2403 C2430 0.950 . S
H2404 C2433 0.950 . S
H2405 C2434 0.950 . S
H2406 C2436 0.950 . S
H2407 C2437 0.950 . S
C2408 H2390 0.951 . S
C2408 C2409 1.366 . S
C2408 C2410 1.388 . S
C2409 C2408 1.366 . S
C2409 C2413 1.385 . S
C2410 H2391 0.951 . S
C2410 C2408 1.388 . S
C2410 C2411 1.366 . S
C2411 C2410 1.366 . S
C2411 C2412 1.414 . S
C2411 C2414 1.499 . S
C2412 H2392 0.950 . S
C2412 C2411 1.414 . S
C2412 C2413 1.374 . S
C2413 H2393 0.950 . S
C2413 C2409 1.385 . S
C2413 C2412 1.374 . S
C2414 C2411 1.499 . S
C2414 C2415 1.373 . S
C2414 C2416 1.389 . S
C2415 H2394 0.950 . S
C2415 C2414 1.373 . S
C2415 C2431 1.377 . S
C2416 C2414 1.389 . S
C2416 C2417 1.524 . S
C2416 C2430 1.377 . S
C2417 C2416 1.524 . S
C2417 C2418 1.397 . S
C2417 C2422 1.363 . S
C2418 H2395 0.950 . S
C2418 C2417 1.397 . S
C2418 C2419 1.334 . S
C2419 H2396 0.950 . S
C2419 C2418 1.334 . S
C2419 C2420 1.287 . S
C2420 C2419 1.287 . S
C2420 C2421 1.524 . S
C2420 H2439 0.913 . S
C2421 H2397 0.950 . S
C2421 C2420 1.524 . S
C2421 C2422 1.415 . S
C2422 H2398 0.950 . S
C2422 C2417 1.363 . S
C2422 C2421 1.415 . S
C2423 H2399 0.951 . S
C2423 C2424 1.366 . S
C2423 C2425 1.388 . S
C2424 C2423 1.366 . S
C2424 C2428 1.385 . S
C2425 H2400 0.951 . S
C2425 C2423 1.388 . S
C2425 C2426 1.366 . S
C2426 C2425 1.366 . S
C2426 C2427 1.414 . S
C2426 C2429 1.499 . S
C2427 H2401 0.950 . S
C2427 C2426 1.414 . S
C2427 C2428 1.374 . S
C2428 H2402 0.950 . S
C2428 C2424 1.385 . S
C2428 C2427 1.374 . S
C2429 C2426 1.499 . S
C2429 C2430 1.373 . S
C2429 C2431 1.389 . S
C2430 H2403 0.950 . S
C2430 C2416 1.377 . S
C2430 C2429 1.373 . S
C2431 C2415 1.377 . S
C2431 C2429 1.389 . S
C2431 C2432 1.524 . S
C2432 C2431 1.524 . S
C2432 C2433 1.397 . S
C2432 C2437 1.363 . S
C2433 H2404 0.950 . S
C2433 C2432 1.397 . S
C2433 C2434 1.334 . S
C2434 H2405 0.950 . S
C2434 C2433 1.334 . S
C2434 C2435 1.287 . S
C2435 C2434 1.287 . S
C2435 C2436 1.524 . S
C2435 H2438 0.999 . S
C2436 H2406 0.950 . S
C2436 C2435 1.524 . S
C2436 C2437 1.415 . S
C2437 H2407 0.950 . S
C2437 C2432 1.363 . S
C2437 C2436 1.415 . S
H2438 C2435 0.999 . S
H2439 C2420 0.913 . S
H2440 C2458 0.951 . S
H2441 C2460 0.951 . S
H2442 C2462 0.950 . S
H2443 C2463 0.950 . S
H2444 C2465 0.950 . S
H2445 C2468 0.950 . S
H2446 C2469 0.954 . S
H2447 C2471 0.950 . S
H2448 C2472 0.950 . S
H2449 C2473 0.951 . S
H2450 C2475 0.951 . S
H2451 C2477 0.950 . S
H2452 C2478 0.950 . S
H2453 C2480 0.950 . S
H2454 C2483 0.950 . S
H2455 C2484 0.950 . S
H2456 C2486 0.950 . S
H2457 C2487 0.950 . S
C2458 H2440 0.951 . S
C2458 C2459 1.366 . S
C2458 C2460 1.388 . S
C2459 C2458 1.366 . S
C2459 C2463 1.385 . S
C2460 H2441 0.951 . S
C2460 C2458 1.388 . S
C2460 C2461 1.366 . S
C2461 C2460 1.366 . S
C2461 C2462 1.414 . S
C2461 C2464 1.499 . S
C2462 H2442 0.950 . S
C2462 C2461 1.414 . S
C2462 C2463 1.374 . S
C2463 H2443 0.950 . S
C2463 C2459 1.385 . S
C2463 C2462 1.374 . S
C2464 C2461 1.499 . S
C2464 C2465 1.373 . S
C2464 C2466 1.389 . S
C2465 H2444 0.950 . S
C2465 C2464 1.373 . S
C2465 C2481 1.377 . S
C2466 C2464 1.389 . S
C2466 C2467 1.524 . S
C2466 C2480 1.377 . S
C2467 C2466 1.524 . S
C2467 C2468 1.397 . S
C2467 C2472 1.363 . S
C2468 H2445 0.950 . S
C2468 C2467 1.397 . S
C2468 C2469 1.334 . S
C2469 H2446 0.954 . S
C2469 C2468 1.334 . S
C2469 C2470 1.287 . S
C2470 C2469 1.287 . S
C2470 C2471 1.524 . S
C2470 H2489 0.913 . S
C2471 H2447 0.950 . S
C2471 C2470 1.524 . S
C2471 C2472 1.415 . S
C2472 H2448 0.950 . S
C2472 C2467 1.363 . S
C2472 C2471 1.415 . S
C2473 H2449 0.951 . S
C2473 C2474 1.366 . S
C2473 C2475 1.388 . S
C2474 C2473 1.366 . S
C2474 C2478 1.385 . S
C2475 H2450 0.951 . S
C2475 C2473 1.388 . S
C2475 C2476 1.366 . S
C2476 C2475 1.366 . S
C2476 C2477 1.414 . S
C2476 C2479 1.499 . S
C2477 H2451 0.950 . S
C2477 C2476 1.414 . S
C2477 C2478 1.374 . S
C2478 H2452 0.950 . S
C2478 C2474 1.385 . S
C2478 C2477 1.374 . S
C2479 C2476 1.499 . S
C2479 C2480 1.373 . S
C2479 C2481 1.389 . S
C2480 H2453 0.950 . S
C2480 C2466 1.377 . S
C2480 C2479 1.373 . S
C2481 C2465 1.377 . S
C2481 C2479 1.389 . S
C2481 C2482 1.524 . S
C2482 C2481 1.524 . S
C2482 C2483 1.397 . S
C2482 C2487 1.363 . S
C2483 H2454 0.950 . S
C2483 C2482 1.397 . S
C2483 C2484 1.334 . S
C2484 H2455 0.950 . S
C2484 C2483 1.334 . S
C2484 C2485 1.287 . S
C2485 C2484 1.287 . S
C2485 C2486 1.524 . S
C2485 H2488 0.999 . S
C2486 H2456 0.950 . S
C2486 C2485 1.524 . S
C2486 C2487 1.415 . S
C2487 H2457 0.950 . S
C2487 C2482 1.363 . S
C2487 C2486 1.415 . S
H2488 C2485 0.999 . S
H2489 C2470 0.913 . S
H2490 C2508 0.951 . S
H2491 C2510 0.951 . S
H2492 C2512 0.950 . S
H2493 C2513 0.950 . S
H2494 C2515 0.950 . S
H2495 C2518 0.950 . S
H2496 C2519 0.950 . S
H2497 C2521 0.950 . S
H2498 C2522 0.950 . S
H2499 C2523 0.951 . S
H2500 C2525 0.951 . S
H2501 C2527 0.950 . S
H2502 C2528 0.950 . S
H2503 C2530 0.950 . S
H2504 C2533 0.950 . S
H2505 C2534 0.950 . S
H2506 C2536 0.950 . S
H2507 C2537 0.950 . S
C2508 H2490 0.951 . S
C2508 C2509 1.366 . S
C2508 C2510 1.388 . S
C2509 C2508 1.366 . S
C2509 C2513 1.385 . S
C2510 H2491 0.951 . S
C2510 C2508 1.388 . S
C2510 C2511 1.366 . S
C2511 C2510 1.366 . S
C2511 C2512 1.414 . S
C2511 C2514 1.499 . S
C2512 H2492 0.950 . S
C2512 C2511 1.414 . S
C2512 C2513 1.374 . S
C2513 H2493 0.950 . S
C2513 C2509 1.385 . S
C2513 C2512 1.374 . S
C2514 C2511 1.499 . S
C2514 C2515 1.373 . S
C2514 C2516 1.389 . S
C2515 H2494 0.950 . S
C2515 C2514 1.373 . S
C2515 C2531 1.377 . S
C2516 C2514 1.389 . S
C2516 C2517 1.524 . S
C2516 C2530 1.377 . S
C2517 C2516 1.524 . S
C2517 C2518 1.397 . S
C2517 C2522 1.363 . S
C2518 H2495 0.950 . S
C2518 C2517 1.397 . S
C2518 C2519 1.334 . S
C2519 H2496 0.950 . S
C2519 C2518 1.334 . S
C2519 C2520 1.287 . S
C2520 C2519 1.287 . S
C2520 C2521 1.524 . S
C2520 H2539 0.913 . S
C2521 H2497 0.950 . S
C2521 C2520 1.524 . S
C2521 C2522 1.415 . S
C2522 H2498 0.950 . S
C2522 C2517 1.363 . S
C2522 C2521 1.415 . S
C2523 H2499 0.951 . S
C2523 C2524 1.366 . S
C2523 C2525 1.388 . S
C2524 C2523 1.366 . S
C2524 C2528 1.385 . S
C2525 H2500 0.951 . S
C2525 C2523 1.388 . S
C2525 C2526 1.366 . S
C2526 C2525 1.366 . S
C2526 C2527 1.414 . S
C2526 C2529 1.499 . S
C2527 H2501 0.950 . S
C2527 C2526 1.414 . S
C2527 C2528 1.374 . S
C2528 H2502 0.950 . S
C2528 C2524 1.385 . S
C2528 C2527 1.374 . S
C2529 C2526 1.499 . S
C2529 C2530 1.373 . S
C2529 C2531 1.389 . S
C2530 H2503 0.950 . S
C2530 C2516 1.377 . S
C2530 C2529 1.373 . S
C2531 C2515 1.377 . S
C2531 C2529 1.389 . S
C2531 C2532 1.524 . S
C2532 C2531 1.524 . S
C2532 C2533 1.397 . S
C2532 C2537 1.363 . S
C2533 H2504 0.950 . S
C2533 C2532 1.397 . S
C2533 C2534 1.334 . S
C2534 H2505 0.950 . S
C2534 C2533 1.334 . S
C2534 C2535 1.287 . S
C2535 C2534 1.287 . S
C2535 C2536 1.524 . S
C2535 H2538 0.999 . S
C2536 H2506 0.950 . S
C2536 C2535 1.524 . S
C2536 C2537 1.415 . S
C2537 H2507 0.950 . S
C2537 C2532 1.363 . S
C2537 C2536 1.415 . S
H2538 C2535 0.999 . S
H2539 C2520 0.913 . S
H2540 C2558 0.951 . S
H2541 C2560 0.951 . S
H2542 C2562 0.950 . S
H2543 C2563 0.950 . S
H2544 C2565 0.950 . S
H2545 C2568 0.950 . S
H2546 C2569 0.950 . S
H2547 C2571 0.950 . S
H2548 C2572 0.950 . S
H2549 C2573 0.951 . S
H2550 C2575 0.951 . S
H2551 C2577 0.950 . S
H2552 C2578 0.950 . S
H2553 C2580 0.950 . S
H2554 C2583 0.950 . S
H2555 C2584 0.950 . S
H2556 C2586 0.950 . S
H2557 C2587 0.950 . S
C2558 H2540 0.951 . S
C2558 C2559 1.366 . S
C2558 C2560 1.388 . S
C2559 C2558 1.366 . S
C2559 C2563 1.385 . S
C2560 H2541 0.951 . S
C2560 C2558 1.388 . S
C2560 C2561 1.366 . S
C2561 C2560 1.366 . S
C2561 C2562 1.414 . S
C2561 C2564 1.499 . S
C2562 H2542 0.950 . S
C2562 C2561 1.414 . S
C2562 C2563 1.374 . S
C2563 H2543 0.950 . S
C2563 C2559 1.385 . S
C2563 C2562 1.374 . S
C2564 C2561 1.499 . S
C2564 C2565 1.373 . S
C2564 C2566 1.389 . S
C2565 H2544 0.950 . S
C2565 C2564 1.373 . S
C2565 C2581 1.377 . S
C2566 C2564 1.389 . S
C2566 C2567 1.524 . S
C2566 C2580 1.377 . S
C2567 C2566 1.524 . S
C2567 C2568 1.397 . S
C2567 C2572 1.363 . S
C2568 H2545 0.950 . S
C2568 C2567 1.397 . S
C2568 C2569 1.334 . S
C2569 H2546 0.950 . S
C2569 C2568 1.334 . S
C2569 C2570 1.287 . S
C2570 C2569 1.287 . S
C2570 C2571 1.524 . S
C2570 H2589 0.913 . S
C2571 H2547 0.950 . S
C2571 C2570 1.524 . S
C2571 C2572 1.415 . S
C2572 H2548 0.950 . S
C2572 C2567 1.363 . S
C2572 C2571 1.415 . S
C2573 H2549 0.951 . S
C2573 C2574 1.366 . S
C2573 C2575 1.388 . S
C2574 C2573 1.366 . S
C2574 C2578 1.385 . S
C2575 H2550 0.951 . S
C2575 C2573 1.388 . S
C2575 C2576 1.366 . S
C2576 C2575 1.366 . S
C2576 C2577 1.414 . S
C2576 C2579 1.499 . S
C2577 H2551 0.950 . S
C2577 C2576 1.414 . S
C2577 C2578 1.374 . S
C2578 H2552 0.950 . S
C2578 C2574 1.385 . S
C2578 C2577 1.374 . S
C2579 C2576 1.499 . S
C2579 C2580 1.373 . S
C2579 C2581 1.389 . S
C2580 H2553 0.950 . S
C2580 C2566 1.377 . S
C2580 C2579 1.373 . S
C2581 C2565 1.377 . S
C2581 C2579 1.389 . S
C2581 C2582 1.524 . S
C2582 C2581 1.524 . S
C2582 C2583 1.397 . S
C2582 C2587 1.363 . S
C2583 H2554 0.950 . S
C2583 C2582 1.397 . S
C2583 C2584 1.334 . S
C2584 H2555 0.950 . S
C2584 C2583 1.334 . S
C2584 C2585 1.287 . S
C2585 C2584 1.287 . S
C2585 C2586 1.524 . S
C2585 H2588 0.999 . S
C2586 H2556 0.950 . S
C2586 C2585 1.524 . S
C2586 C2587 1.415 . S
C2587 H2557 0.950 . S
C2587 C2582 1.363 . S
C2587 C2586 1.415 . S
H2588 C2585 0.999 . S
H2589 C2570 0.913 . S
H2590 C2608 0.951 . S
H2591 C2610 0.951 . S
H2592 C2612 0.950 . S
H2593 C2613 0.950 . S
H2594 C2615 0.950 . S
H2595 C2618 0.950 . S
H2596 C2619 0.950 . S
H2597 C2621 0.950 . S
H2598 C2622 0.950 . S
H2599 C2623 0.951 . S
H2600 C2625 0.951 . S
H2601 C2627 0.950 . S
H2602 C2628 0.950 . S
H2603 C2630 0.950 . S
H2604 C2633 0.950 . S
H2605 C2634 0.950 . S
H2606 C2636 0.950 . S
H2607 C2637 0.950 . S
C2608 H2590 0.951 . S
C2608 C2609 1.366 . S
C2608 C2610 1.388 . S
C2609 C2608 1.366 . S
C2609 C2613 1.385 . S
C2610 H2591 0.951 . S
C2610 C2608 1.388 . S
C2610 C2611 1.366 . S
C2611 C2610 1.366 . S
C2611 C2612 1.414 . S
C2611 C2614 1.499 . S
C2612 H2592 0.950 . S
C2612 C2611 1.414 . S
C2612 C2613 1.374 . S
C2613 H2593 0.950 . S
C2613 C2609 1.385 . S
C2613 C2612 1.374 . S
C2614 C2611 1.499 . S
C2614 C2615 1.373 . S
C2614 C2616 1.389 . S
C2615 H2594 0.950 . S
C2615 C2614 1.373 . S
C2615 C2631 1.377 . S
C2616 C2614 1.389 . S
C2616 C2617 1.524 . S
C2616 C2630 1.377 . S
C2617 C2616 1.524 . S
C2617 C2618 1.397 . S
C2617 C2622 1.363 . S
C2618 H2595 0.950 . S
C2618 C2617 1.397 . S
C2618 C2619 1.334 . S
C2619 H2596 0.950 . S
C2619 C2618 1.334 . S
C2619 C2620 1.287 . S
C2620 C2619 1.287 . S
C2620 C2621 1.524 . S
C2620 H2639 0.913 . S
C2621 H2597 0.950 . S
C2621 C2620 1.524 . S
C2621 C2622 1.415 . S
C2622 H2598 0.950 . S
C2622 C2617 1.363 . S
C2622 C2621 1.415 . S
C2623 H2599 0.951 . S
C2623 C2624 1.366 . S
C2623 C2625 1.388 . S
C2624 C2623 1.366 . S
C2624 C2628 1.385 . S
C2625 H2600 0.951 . S
C2625 C2623 1.388 . S
C2625 C2626 1.366 . S
C2626 C2625 1.366 . S
C2626 C2627 1.414 . S
C2626 C2629 1.499 . S
C2627 H2601 0.950 . S
C2627 C2626 1.414 . S
C2627 C2628 1.374 . S
C2628 H2602 0.950 . S
C2628 C2624 1.385 . S
C2628 C2627 1.374 . S
C2629 C2626 1.499 . S
C2629 C2630 1.373 . S
C2629 C2631 1.389 . S
C2630 H2603 0.950 . S
C2630 C2616 1.377 . S
C2630 C2629 1.373 . S
C2631 C2615 1.377 . S
C2631 C2629 1.389 . S
C2631 C2632 1.524 . S
C2632 C2631 1.524 . S
C2632 C2633 1.397 . S
C2632 C2637 1.363 . S
C2633 H2604 0.950 . S
C2633 C2632 1.397 . S
C2633 C2634 1.334 . S
C2634 H2605 0.950 . S
C2634 C2633 1.334 . S
C2634 C2635 1.287 . S
C2635 C2634 1.287 . S
C2635 C2636 1.524 . S
C2635 H2638 0.999 . S
C2636 H2606 0.950 . S
C2636 C2635 1.524 . S
C2636 C2637 1.415 . S
C2637 H2607 0.950 . S
C2637 C2632 1.363 . S
C2637 C2636 1.415 . S
H2638 C2635 0.999 . S
H2639 C2620 0.913 . S
H2640 C2658 0.951 . S
H2641 C2660 0.951 . S
H2642 C2662 0.950 . S
H2643 C2663 0.950 . S
H2644 C2665 0.950 . S
H2645 C2668 0.950 . S
H2646 C2669 0.950 . S
H2647 C2671 0.950 . S
H2648 C2672 0.950 . S
H2649 C2673 0.951 . S
H2650 C2675 0.951 . S
H2651 C2677 0.950 . S
H2652 C2678 0.950 . S
H2653 C2680 0.950 . S
H2654 C2683 0.950 . S
H2655 C2684 0.950 . S
H2656 C2686 0.950 . S
H2657 C2687 0.950 . S
C2658 H2640 0.951 . S
C2658 C2659 1.366 . S
C2658 C2660 1.388 . S
C2659 C2658 1.366 . S
C2659 C2663 1.385 . S
C2660 H2641 0.951 . S
C2660 C2658 1.388 . S
C2660 C2661 1.366 . S
C2661 C2660 1.366 . S
C2661 C2662 1.414 . S
C2661 C2664 1.499 . S
C2662 H2642 0.950 . S
C2662 C2661 1.414 . S
C2662 C2663 1.374 . S
C2663 H2643 0.950 . S
C2663 C2659 1.385 . S
C2663 C2662 1.374 . S
C2664 C2661 1.499 . S
C2664 C2665 1.373 . S
C2664 C2666 1.389 . S
C2665 H2644 0.950 . S
C2665 C2664 1.373 . S
C2665 C2681 1.377 . S
C2666 C2664 1.389 . S
C2666 C2667 1.524 . S
C2666 C2680 1.377 . S
C2667 C2666 1.524 . S
C2667 C2668 1.397 . S
C2667 C2672 1.363 . S
C2668 H2645 0.950 . S
C2668 C2667 1.397 . S
C2668 C2669 1.334 . S
C2669 H2646 0.950 . S
C2669 C2668 1.334 . S
C2669 C2670 1.287 . S
C2670 C2669 1.287 . S
C2670 C2671 1.524 . S
C2670 H2689 0.913 . S
C2671 H2647 0.950 . S
C2671 C2670 1.524 . S
C2671 C2672 1.415 . S
C2672 H2648 0.950 . S
C2672 C2667 1.363 . S
C2672 C2671 1.415 . S
C2673 H2649 0.951 . S
C2673 C2674 1.366 . S
C2673 C2675 1.388 . S
C2674 C2673 1.366 . S
C2674 C2678 1.385 . S
C2675 H2650 0.951 . S
C2675 C2673 1.388 . S
C2675 C2676 1.366 . S
C2676 C2675 1.366 . S
C2676 C2677 1.414 . S
C2676 C2679 1.499 . S
C2677 H2651 0.950 . S
C2677 C2676 1.414 . S
C2677 C2678 1.374 . S
C2678 H2652 0.950 . S
C2678 C2674 1.385 . S
C2678 C2677 1.374 . S
C2679 C2676 1.499 . S
C2679 C2680 1.373 . S
C2679 C2681 1.389 . S
C2680 H2653 0.950 . S
C2680 C2666 1.377 . S
C2680 C2679 1.373 . S
C2681 C2665 1.377 . S
C2681 C2679 1.389 . S
C2681 C2682 1.524 . S
C2682 C2681 1.524 . S
C2682 C2683 1.397 . S
C2682 C2687 1.363 . S
C2683 H2654 0.950 . S
C2683 C2682 1.397 . S
C2683 C2684 1.334 . S
C2684 H2655 0.950 . S
C2684 C2683 1.334 . S
C2684 C2685 1.287 . S
C2685 C2684 1.287 . S
C2685 C2686 1.524 . S
C2685 H2688 0.999 . S
C2686 H2656 0.950 . S
C2686 C2685 1.524 . S
C2686 C2687 1.415 . S
C2687 H2657 0.950 . S
C2687 C2682 1.363 . S
C2687 C2686 1.415 . S
H2688 C2685 0.999 . S
H2689 C2670 0.913 . S
H2690 C2708 0.951 . S
H2691 C2710 0.951 . S
H2692 C2712 0.950 . S
H2693 C2713 0.950 . S
H2694 C2715 0.950 . S
H2695 C2718 0.950 . S
H2696 C2719 0.950 . S
H2697 C2721 0.950 . S
H2698 C2722 0.950 . S
H2699 C2723 0.951 . S
H2700 C2725 0.951 . S
H2701 C2727 0.950 . S
H2702 C2728 0.950 . S
H2703 C2730 0.950 . S
H2704 C2733 0.950 . S
H2705 C2734 0.950 . S
H2706 C2736 0.950 . S
H2707 C2737 0.950 . S
C2708 H2690 0.951 . S
C2708 C2709 1.366 . S
C2708 C2710 1.388 . S
C2709 C2708 1.366 . S
C2709 C2713 1.385 . S
C2710 H2691 0.951 . S
C2710 C2708 1.388 . S
C2710 C2711 1.366 . S
C2711 C2710 1.366 . S
C2711 C2712 1.414 . S
C2711 C2714 1.499 . S
C2712 H2692 0.950 . S
C2712 C2711 1.414 . S
C2712 C2713 1.374 . S
C2713 H2693 0.950 . S
C2713 C2709 1.385 . S
C2713 C2712 1.374 . S
C2714 C2711 1.499 . S
C2714 C2715 1.373 . S
C2714 C2716 1.389 . S
C2715 H2694 0.950 . S
C2715 C2714 1.373 . S
C2715 C2731 1.377 . S
C2716 C2714 1.389 . S
C2716 C2717 1.524 . S
C2716 C2730 1.377 . S
C2717 C2716 1.524 . S
C2717 C2718 1.397 . S
C2717 C2722 1.363 . S
C2718 H2695 0.950 . S
C2718 C2717 1.397 . S
C2718 C2719 1.334 . S
C2719 H2696 0.950 . S
C2719 C2718 1.334 . S
C2719 C2720 1.287 . S
C2720 C2719 1.287 . S
C2720 C2721 1.524 . S
C2720 H2739 0.913 . S
C2721 H2697 0.950 . S
C2721 C2720 1.524 . S
C2721 C2722 1.415 . S
C2722 H2698 0.950 . S
C2722 C2717 1.363 . S
C2722 C2721 1.415 . S
C2723 H2699 0.951 . S
C2723 C2724 1.366 . S
C2723 C2725 1.388 . S
C2724 C2723 1.366 . S
C2724 C2728 1.385 . S
C2725 H2700 0.951 . S
C2725 C2723 1.388 . S
C2725 C2726 1.366 . S
C2726 C2725 1.366 . S
C2726 C2727 1.414 . S
C2726 C2729 1.499 . S
C2727 H2701 0.950 . S
C2727 C2726 1.414 . S
C2727 C2728 1.374 . S
C2728 H2702 0.950 . S
C2728 C2724 1.385 . S
C2728 C2727 1.374 . S
C2729 C2726 1.499 . S
C2729 C2730 1.373 . S
C2729 C2731 1.389 . S
C2730 H2703 0.950 . S
C2730 C2716 1.377 . S
C2730 C2729 1.373 . S
C2731 C2715 1.377 . S
C2731 C2729 1.389 . S
C2731 C2732 1.524 . S
C2732 C2731 1.524 . S
C2732 C2733 1.397 . S
C2732 C2737 1.363 . S
C2733 H2704 0.950 . S
C2733 C2732 1.397 . S
C2733 C2734 1.334 . S
C2734 H2705 0.950 . S
C2734 C2733 1.334 . S
C2734 C2735 1.287 . S
C2735 C2734 1.287 . S
C2735 C2736 1.524 . S
C2735 H2738 0.999 . S
C2736 H2706 0.950 . S
C2736 C2735 1.524 . S
C2736 C2737 1.415 . S
C2737 H2707 0.950 . S
C2737 C2732 1.363 . S
C2737 C2736 1.415 . S
H2738 C2735 0.999 . S
H2739 C2720 0.913 . S
H2740 C2758 0.951 . S
H2741 C2760 0.951 . S
H2742 C2762 0.950 . S
H2743 C2763 0.950 . S
H2744 C2765 0.950 . S
H2745 C2768 0.950 . S
H2746 C2769 0.950 . S
H2747 C2771 0.950 . S
H2748 C2772 0.950 . S
H2749 C2773 0.951 . S
H2750 C2775 0.951 . S
H2751 C2777 0.950 . S
H2752 C2778 0.950 . S
H2753 C2780 0.950 . S
H2754 C2783 0.950 . S
H2755 C2784 0.950 . S
H2756 C2786 0.950 . S
H2757 C2787 0.950 . S
C2758 H2740 0.951 . S
C2758 C2759 1.366 . S
C2758 C2760 1.388 . S
C2759 C2758 1.366 . S
C2759 C2763 1.385 . S
C2760 H2741 0.951 . S
C2760 C2758 1.388 . S
C2760 C2761 1.366 . S
C2761 C2760 1.366 . S
C2761 C2762 1.414 . S
C2761 C2764 1.499 . S
C2762 H2742 0.950 . S
C2762 C2761 1.414 . S
C2762 C2763 1.374 . S
C2763 H2743 0.950 . S
C2763 C2759 1.385 . S
C2763 C2762 1.374 . S
C2764 C2761 1.499 . S
C2764 C2765 1.373 . S
C2764 C2766 1.389 . S
C2765 H2744 0.950 . S
C2765 C2764 1.373 . S
C2765 C2781 1.377 . S
C2766 C2764 1.389 . S
C2766 C2767 1.524 . S
C2766 C2780 1.377 . S
C2767 C2766 1.524 . S
C2767 C2768 1.397 . S
C2767 C2772 1.363 . S
C2768 H2745 0.950 . S
C2768 C2767 1.397 . S
C2768 C2769 1.334 . S
C2769 H2746 0.950 . S
C2769 C2768 1.334 . S
C2769 C2770 1.287 . S
C2770 C2769 1.287 . S
C2770 C2771 1.524 . S
C2770 H2789 0.913 . S
C2771 H2747 0.950 . S
C2771 C2770 1.524 . S
C2771 C2772 1.415 . S
C2772 H2748 0.950 . S
C2772 C2767 1.363 . S
C2772 C2771 1.415 . S
C2773 H2749 0.951 . S
C2773 C2774 1.366 . S
C2773 C2775 1.388 . S
C2774 C2773 1.366 . S
C2774 C2778 1.385 . S
C2775 H2750 0.951 . S
C2775 C2773 1.388 . S
C2775 C2776 1.366 . S
C2776 C2775 1.366 . S
C2776 C2777 1.414 . S
C2776 C2779 1.499 . S
C2777 H2751 0.950 . S
C2777 C2776 1.414 . S
C2777 C2778 1.374 . S
C2778 H2752 0.950 . S
C2778 C2774 1.385 . S
C2778 C2777 1.374 . S
C2779 C2776 1.499 . S
C2779 C2780 1.373 . S
C2779 C2781 1.389 . S
C2780 H2753 0.950 . S
C2780 C2766 1.377 . S
C2780 C2779 1.373 . S
C2781 C2765 1.377 . S
C2781 C2779 1.389 . S
C2781 C2782 1.524 . S
C2782 C2781 1.524 . S
C2782 C2783 1.397 . S
C2782 C2787 1.363 . S
C2783 H2754 0.950 . S
C2783 C2782 1.397 . S
C2783 C2784 1.334 . S
C2784 H2755 0.950 . S
C2784 C2783 1.334 . S
C2784 C2785 1.287 . S
C2785 C2784 1.287 . S
C2785 C2786 1.524 . S
C2785 H2788 0.999 . S
C2786 H2756 0.950 . S
C2786 C2785 1.524 . S
C2786 C2787 1.415 . S
C2787 H2757 0.950 . S
C2787 C2782 1.363 . S
C2787 C2786 1.415 . S
H2788 C2785 0.999 . S
H2789 C2770 0.913 . S
H2790 C2808 0.951 . S
H2791 C2810 0.951 . S
H2792 C2812 0.950 . S
H2793 C2813 0.950 . S
H2794 C2815 0.950 . S
H2795 C2818 0.950 . S
H2796 C2819 0.950 . S
H2797 C2821 0.950 . S
H2798 C2822 0.950 . S
H2799 C2823 0.951 . S
H2800 C2825 0.951 . S
H2801 C2827 0.950 . S
H2802 C2828 0.950 . S
H2803 C2830 0.950 . S
H2804 C2833 0.950 . S
H2805 C2834 0.950 . S
H2806 C2836 0.950 . S
H2807 C2837 0.950 . S
C2808 H2790 0.951 . S
C2808 C2809 1.366 . S
C2808 C2810 1.388 . S
C2809 C2808 1.366 . S
C2809 C2813 1.385 . S
C2810 H2791 0.951 . S
C2810 C2808 1.388 . S
C2810 C2811 1.366 . S
C2811 C2810 1.366 . S
C2811 C2812 1.414 . S
C2811 C2814 1.499 . S
C2812 H2792 0.950 . S
C2812 C2811 1.414 . S
C2812 C2813 1.374 . S
C2813 H2793 0.950 . S
C2813 C2809 1.385 . S
C2813 C2812 1.374 . S
C2814 C2811 1.499 . S
C2814 C2815 1.373 . S
C2814 C2816 1.389 . S
C2815 H2794 0.950 . S
C2815 C2814 1.373 . S
C2815 C2831 1.377 . S
C2816 C2814 1.389 . S
C2816 C2817 1.524 . S
C2816 C2830 1.377 . S
C2817 C2816 1.524 . S
C2817 C2818 1.397 . S
C2817 C2822 1.363 . S
C2818 H2795 0.950 . S
C2818 C2817 1.397 . S
C2818 C2819 1.334 . S
C2819 H2796 0.950 . S
C2819 C2818 1.334 . S
C2819 C2820 1.287 . S
C2820 C2819 1.287 . S
C2820 C2821 1.524 . S
C2820 H2839 0.913 . S
C2821 H2797 0.950 . S
C2821 C2820 1.524 . S
C2821 C2822 1.415 . S
C2822 H2798 0.950 . S
C2822 C2817 1.363 . S
C2822 C2821 1.415 . S
C2823 H2799 0.951 . S
C2823 C2824 1.366 . S
C2823 C2825 1.388 . S
C2824 C2823 1.366 . S
C2824 C2828 1.385 . S
C2825 H2800 0.951 . S
C2825 C2823 1.388 . S
C2825 C2826 1.366 . S
C2826 C2825 1.366 . S
C2826 C2827 1.414 . S
C2826 C2829 1.499 . S
C2827 H2801 0.950 . S
C2827 C2826 1.414 . S
C2827 C2828 1.374 . S
C2828 H2802 0.950 . S
C2828 C2824 1.385 . S
C2828 C2827 1.374 . S
C2829 C2826 1.499 . S
C2829 C2830 1.373 . S
C2829 C2831 1.389 . S
C2830 H2803 0.950 . S
C2830 C2816 1.377 . S
C2830 C2829 1.373 . S
C2831 C2815 1.377 . S
C2831 C2829 1.389 . S
C2831 C2832 1.524 . S
C2832 C2831 1.524 . S
C2832 C2833 1.397 . S
C2832 C2837 1.363 . S
C2833 H2804 0.950 . S
C2833 C2832 1.397 . S
C2833 C2834 1.334 . S
C2834 H2805 0.950 . S
C2834 C2833 1.334 . S
C2834 C2835 1.287 . S
C2835 C2834 1.287 . S
C2835 C2836 1.524 . S
C2835 H2838 0.999 1_554 S
C2836 H2806 0.950 . S
C2836 C2835 1.524 . S
C2836 C2837 1.415 . S
C2837 H2807 0.950 . S
C2837 C2832 1.363 . S
C2837 C2836 1.415 . S
H2838 C2835 0.999 1_556 S
H2839 C2820 0.913 . S
H2840 C2858 0.951 . S
H2841 C2860 0.951 . S
H2842 C2862 0.950 . S
H2843 C2863 0.950 . S
H2844 C2865 0.950 . S
H2845 C2868 0.950 . S
H2846 C2869 0.950 . S
H2847 C2871 0.950 . S
H2848 C2872 0.950 . S
H2849 C2873 0.951 . S
H2850 C2875 0.951 . S
H2851 C2877 0.950 . S
H2852 C2878 0.950 . S
H2853 C2880 0.950 . S
H2854 C2883 0.950 . S
H2855 C2884 0.950 . S
H2856 C2886 0.950 . S
H2857 C2887 0.950 . S
C2858 H2840 0.951 . S
C2858 C2859 1.366 . S
C2858 C2860 1.388 . S
C2859 C2858 1.366 . S
C2859 C2863 1.385 . S
C2860 H2841 0.951 . S
C2860 C2858 1.388 . S
C2860 C2861 1.366 . S
C2861 C2860 1.366 . S
C2861 C2862 1.414 . S
C2861 C2864 1.499 . S
C2862 H2842 0.950 . S
C2862 C2861 1.414 . S
C2862 C2863 1.374 . S
C2863 H2843 0.950 . S
C2863 C2859 1.385 . S
C2863 C2862 1.374 . S
C2864 C2861 1.499 . S
C2864 C2865 1.373 . S
C2864 C2866 1.389 . S
C2865 H2844 0.950 . S
C2865 C2864 1.373 . S
C2865 C2881 1.377 . S
C2866 C2864 1.389 . S
C2866 C2867 1.524 . S
C2866 C2880 1.377 . S
C2867 C2866 1.524 . S
C2867 C2868 1.397 . S
C2867 C2872 1.363 . S
C2868 H2845 0.950 . S
C2868 C2867 1.397 . S
C2868 C2869 1.334 . S
C2869 H2846 0.950 . S
C2869 C2868 1.334 . S
C2869 C2870 1.287 . S
C2870 C2869 1.287 . S
C2870 C2871 1.524 . S
C2870 H2889 0.913 . S
C2871 H2847 0.950 . S
C2871 C2870 1.524 . S
C2871 C2872 1.415 . S
C2872 H2848 0.950 . S
C2872 C2867 1.363 . S
C2872 C2871 1.415 . S
C2873 H2849 0.951 . S
C2873 C2874 1.366 . S
C2873 C2875 1.388 . S
C2874 C2873 1.366 . S
C2874 C2878 1.385 . S
C2875 H2850 0.951 . S
C2875 C2873 1.388 . S
C2875 C2876 1.366 . S
C2876 C2875 1.366 . S
C2876 C2877 1.414 . S
C2876 C2879 1.499 . S
C2877 H2851 0.950 . S
C2877 C2876 1.414 . S
C2877 C2878 1.374 . S
C2878 H2852 0.950 . S
C2878 C2874 1.385 . S
C2878 C2877 1.374 . S
C2879 C2876 1.499 . S
C2879 C2880 1.373 . S
C2879 C2881 1.389 . S
C2880 H2853 0.950 . S
C2880 C2866 1.377 . S
C2880 C2879 1.373 . S
C2881 C2865 1.377 . S
C2881 C2879 1.389 . S
C2881 C2882 1.524 . S
C2882 C2881 1.524 . S
C2882 C2883 1.397 . S
C2882 C2887 1.363 . S
C2883 H2854 0.950 . S
C2883 C2882 1.397 . S
C2883 C2884 1.334 . S
C2884 H2855 0.950 . S
C2884 C2883 1.334 . S
C2884 C2885 1.287 . S
C2885 C2884 1.287 . S
C2885 C2886 1.524 . S
C2885 H2888 0.999 . S
C2886 H2856 0.950 . S
C2886 C2885 1.524 . S
C2886 C2887 1.415 . S
C2887 H2857 0.950 . S
C2887 C2882 1.363 . S
C2887 C2886 1.415 . S
H2888 C2885 0.999 . S
H2889 C2870 0.913 . S
H2890 C2908 0.951 . S
H2891 C2910 0.951 . S
H2892 C2912 0.950 . S
H2893 C2913 0.950 . S
H2894 C2915 0.950 . S
H2895 C2918 0.950 . S
H2896 C2919 0.950 . S
H2897 C2921 0.950 . S
H2898 C2922 0.950 . S
H2899 C2923 0.951 . S
H2900 C2925 0.951 . S
H2901 C2927 0.950 . S
H2902 C2928 0.950 . S
H2903 C2930 0.950 . S
H2904 C2933 0.950 . S
H2905 C2934 0.950 . S
H2906 C2936 0.950 . S
H2907 C2937 0.950 . S
C2908 H2890 0.951 . S
C2908 C2909 1.366 . S
C2908 C2910 1.388 . S
C2909 C2908 1.366 . S
C2909 C2913 1.385 . S
C2910 H2891 0.951 . S
C2910 C2908 1.388 . S
C2910 C2911 1.366 . S
C2911 C2910 1.366 . S
C2911 C2912 1.414 . S
C2911 C2914 1.499 . S
C2912 H2892 0.950 . S
C2912 C2911 1.414 . S
C2912 C2913 1.374 . S
C2913 H2893 0.950 . S
C2913 C2909 1.385 . S
C2913 C2912 1.374 . S
C2914 C2911 1.499 . S
C2914 C2915 1.373 . S
C2914 C2916 1.389 . S
C2915 H2894 0.950 . S
C2915 C2914 1.373 . S
C2915 C2931 1.377 . S
C2916 C2914 1.389 . S
C2916 C2917 1.524 . S
C2916 C2930 1.377 . S
C2917 C2916 1.524 . S
C2917 C2918 1.397 . S
C2917 C2922 1.363 . S
C2918 H2895 0.950 . S
C2918 C2917 1.397 . S
C2918 C2919 1.334 . S
C2919 H2896 0.950 . S
C2919 C2918 1.334 . S
C2919 C2920 1.287 . S
C2920 C2919 1.287 . S
C2920 C2921 1.524 . S
C2920 H2939 0.913 . S
C2921 H2897 0.950 . S
C2921 C2920 1.524 . S
C2921 C2922 1.415 . S
C2922 H2898 0.950 . S
C2922 C2917 1.363 . S
C2922 C2921 1.415 . S
C2923 H2899 0.951 . S
C2923 C2924 1.366 . S
C2923 C2925 1.388 . S
C2924 C2923 1.366 . S
C2924 C2928 1.385 . S
C2925 H2900 0.951 . S
C2925 C2923 1.388 . S
C2925 C2926 1.366 . S
C2926 C2925 1.366 . S
C2926 C2927 1.414 . S
C2926 C2929 1.499 . S
C2927 H2901 0.950 . S
C2927 C2926 1.414 . S
C2927 C2928 1.374 . S
C2928 H2902 0.950 . S
C2928 C2924 1.385 . S
C2928 C2927 1.374 . S
C2929 C2926 1.499 . S
C2929 C2930 1.373 . S
C2929 C2931 1.389 . S
C2930 H2903 0.950 . S
C2930 C2916 1.377 . S
C2930 C2929 1.373 . S
C2931 C2915 1.377 . S
C2931 C2929 1.389 . S
C2931 C2932 1.524 . S
C2932 C2931 1.524 . S
C2932 C2933 1.397 . S
C2932 C2937 1.363 . S
C2933 H2904 0.950 . S
C2933 C2932 1.397 . S
C2933 C2934 1.334 . S
C2934 H2905 0.950 . S
C2934 C2933 1.334 . S
C2934 C2935 1.287 . S
C2935 C2934 1.287 . S
C2935 C2936 1.524 . S
C2935 H2938 0.999 . S
C2936 H2906 0.950 . S
C2936 C2935 1.524 . S
C2936 C2937 1.415 . S
C2937 H2907 0.950 . S
C2937 C2932 1.363 . S
C2937 C2936 1.415 . S
H2938 C2935 0.999 . S
H2939 C2920 0.913 . S
H2940 C2958 0.951 . S
H2941 C2960 0.951 . S
H2942 C2962 0.950 . S
H2943 C2963 0.950 . S
H2944 C2965 0.950 . S
H2945 C2968 0.950 . S
H2946 C2969 0.950 . S
H2947 C2971 0.950 . S
H2948 C2972 0.950 . S
H2949 C2973 0.951 . S
H2950 C2975 0.951 . S
H2951 C2977 0.950 . S
H2952 C2978 0.950 . S
H2953 C2980 0.950 . S
H2954 C2983 0.950 . S
H2955 C2984 0.950 . S
H2956 C2986 0.950 . S
H2957 C2987 0.950 . S
C2958 H2940 0.951 . S
C2958 C2959 1.366 . S
C2958 C2960 1.388 . S
C2959 C2958 1.366 . S
C2959 C2963 1.385 . S
C2960 H2941 0.951 . S
C2960 C2958 1.388 . S
C2960 C2961 1.366 . S
C2961 C2960 1.366 . S
C2961 C2962 1.414 . S
C2961 C2964 1.499 . S
C2962 H2942 0.950 . S
C2962 C2961 1.414 . S
C2962 C2963 1.374 . S
C2963 H2943 0.950 . S
C2963 C2959 1.385 . S
C2963 C2962 1.374 . S
C2964 C2961 1.499 . S
C2964 C2965 1.373 . S
C2964 C2966 1.389 . S
C2965 H2944 0.950 . S
C2965 C2964 1.373 . S
C2965 C2981 1.377 . S
C2966 C2964 1.389 . S
C2966 C2967 1.524 . S
C2966 C2980 1.377 . S
C2967 C2966 1.524 . S
C2967 C2968 1.397 . S
C2967 C2972 1.363 . S
C2968 H2945 0.950 . S
C2968 C2967 1.397 . S
C2968 C2969 1.334 . S
C2969 H2946 0.950 . S
C2969 C2968 1.334 . S
C2969 C2970 1.287 . S
C2970 C2969 1.287 . S
C2970 C2971 1.524 . S
C2970 H2989 0.913 . S
C2971 H2947 0.950 . S
C2971 C2970 1.524 . S
C2971 C2972 1.415 . S
C2972 H2948 0.950 . S
C2972 C2967 1.363 . S
C2972 C2971 1.415 . S
C2973 H2949 0.951 . S
C2973 C2974 1.366 . S
C2973 C2975 1.388 . S
C2974 C2973 1.366 . S
C2974 C2978 1.385 . S
C2975 H2950 0.951 . S
C2975 C2973 1.388 . S
C2975 C2976 1.366 . S
C2976 C2975 1.366 . S
C2976 C2977 1.414 . S
C2976 C2979 1.499 . S
C2977 H2951 0.950 . S
C2977 C2976 1.414 . S
C2977 C2978 1.374 . S
C2978 H2952 0.950 . S
C2978 C2974 1.385 . S
C2978 C2977 1.374 . S
C2979 C2976 1.499 . S
C2979 C2980 1.373 . S
C2979 C2981 1.389 . S
C2980 H2953 0.950 . S
C2980 C2966 1.377 . S
C2980 C2979 1.373 . S
C2981 C2965 1.377 . S
C2981 C2979 1.389 . S
C2981 C2982 1.524 . S
C2982 C2981 1.524 . S
C2982 C2983 1.397 . S
C2982 C2987 1.363 . S
C2983 H2954 0.950 . S
C2983 C2982 1.397 . S
C2983 C2984 1.334 . S
C2984 H2955 0.950 . S
C2984 C2983 1.334 . S
C2984 C2985 1.287 . S
C2985 C2984 1.287 . S
C2985 C2986 1.524 . S
C2985 H2988 0.999 . S
C2986 H2956 0.950 . S
C2986 C2985 1.524 . S
C2986 C2987 1.415 . S
C2987 H2957 0.950 . S
C2987 C2982 1.363 . S
C2987 C2986 1.415 . S
H2988 C2985 0.999 . S
H2989 C2970 0.913 . S
H2990 C3008 0.951 . S
H2991 C3010 0.951 . S
H2992 C3012 0.950 . S
H2993 C3013 0.950 . S
H2994 C3015 0.950 . S
H2995 C3018 0.950 . S
H2996 C3019 0.950 . S
H2997 C3021 0.950 . S
H2998 C3022 0.950 . S
H2999 C3023 0.951 . S
H3000 C3025 0.951 . S
H3001 C3027 0.950 . S
H3002 C3028 0.950 . S
H3003 C3030 0.950 . S
H3004 C3033 0.950 . S
H3005 C3034 0.950 . S
H3006 C3036 0.950 . S
H3007 C3037 0.950 . S
C3008 H2990 0.951 . S
C3008 C3009 1.366 . S
C3008 C3010 1.388 . S
C3009 C3008 1.366 . S
C3009 C3013 1.385 . S
C3010 H2991 0.951 . S
C3010 C3008 1.388 . S
C3010 C3011 1.366 . S
C3011 C3010 1.366 . S
C3011 C3012 1.414 . S
C3011 C3014 1.499 . S
C3012 H2992 0.950 . S
C3012 C3011 1.414 . S
C3012 C3013 1.374 . S
C3013 H2993 0.950 . S
C3013 C3009 1.385 . S
C3013 C3012 1.374 . S
C3014 C3011 1.499 . S
C3014 C3015 1.373 . S
C3014 C3016 1.389 . S
C3015 H2994 0.950 . S
C3015 C3014 1.373 . S
C3015 C3031 1.377 . S
C3016 C3014 1.389 . S
C3016 C3017 1.524 . S
C3016 C3030 1.377 . S
C3017 C3016 1.524 . S
C3017 C3018 1.397 . S
C3017 C3022 1.363 . S
C3018 H2995 0.950 . S
C3018 C3017 1.397 . S
C3018 C3019 1.334 . S
C3019 H2996 0.950 . S
C3019 C3018 1.334 . S
C3019 C3020 1.287 . S
C3020 C3019 1.287 . S
C3020 C3021 1.524 . S
C3020 H3039 0.913 . S
C3021 H2997 0.950 . S
C3021 C3020 1.524 . S
C3021 C3022 1.415 . S
C3022 H2998 0.950 . S
C3022 C3017 1.363 . S
C3022 C3021 1.415 . S
C3023 H2999 0.951 . S
C3023 C3024 1.366 . S
C3023 C3025 1.388 . S
C3024 C3023 1.366 . S
C3024 C3028 1.385 . S
C3025 H3000 0.951 . S
C3025 C3023 1.388 . S
C3025 C3026 1.366 . S
C3026 C3025 1.366 . S
C3026 C3027 1.414 . S
C3026 C3029 1.499 . S
C3027 H3001 0.950 . S
C3027 C3026 1.414 . S
C3027 C3028 1.374 . S
C3028 H3002 0.950 . S
C3028 C3024 1.385 . S
C3028 C3027 1.374 . S
C3029 C3026 1.499 . S
C3029 C3030 1.373 . S
C3029 C3031 1.389 . S
C3030 H3003 0.950 . S
C3030 C3016 1.377 . S
C3030 C3029 1.373 . S
C3031 C3015 1.377 . S
C3031 C3029 1.389 . S
C3031 C3032 1.524 . S
C3032 C3031 1.524 . S
C3032 C3033 1.397 . S
C3032 C3037 1.363 . S
C3033 H3004 0.950 . S
C3033 C3032 1.397 . S
C3033 C3034 1.334 . S
C3034 H3005 0.950 . S
C3034 C3033 1.334 . S
C3034 C3035 1.287 . S
C3035 C3034 1.287 . S
C3035 C3036 1.524 . S
C3035 H3038 0.999 . S
C3036 H3006 0.950 . S
C3036 C3035 1.524 . S
C3036 C3037 1.415 . S
C3037 H3007 0.950 . S
C3037 C3032 1.363 . S
C3037 C3036 1.415 . S
H3038 C3035 0.999 . S
H3039 C3020 0.913 . S
C659 C135 1.936 . S
C674 C18 1.849 . S
C709 C6 2.603 . S
C724 C59 2.702 . S
C759 C89 0.590 . S
C774 C58 0.603 . S
C809 C130 2.672 . S
C824 C90 2.681 . S
C859 C170 2.443 . S
C874 C206 2.398 . S
C909 C218 0.577 . S
C924 C258 0.581 . S
C959 C259 2.715 . S
C974 C290 2.733 . S
C1009 C175 1.929 . S
C1024 C289 1.852 . S
C1059 C379 2.715 . S
C1074 C19 2.733 . S
C1109 C406 0.875 . S
C1124 C46 0.852 . S
C1159 C95 0.402 . S
C1174 C535 0.557 . S
C1209 C329 0.625 . S
C1224 C129 0.617 . S
C1259 C449 0.618 . S
C1274 C169 0.624 . S
C1309 C579 2.732 . S
C1324 C219 2.715 . S
C1359 C246 0.878 . S
C1374 C486 0.855 . S
C1409 C615 0.398 . S
C1424 C295 0.553 . S
C1459 C335 1.929 . S
C1474 C529 1.854 . S
C1509 C366 2.399 . S
C1524 C330 2.444 . S
C1559 C418 0.581 . S
C1574 C378 0.579 . S
C1609 C578 1.852 . S
C1624 C455 1.936 . S
C1659 C498 0.600 . S
C1674 C609 0.594 . S
C1709 C446 1.935 . S
C1724 C9 1.854 . S
C1759 C490 2.701 . S
C1774 C15 2.603 . S
C1809 C489 0.601 . S
C1824 C98 0.588 . S
C1859 C99 2.682 . S
C1874 C459 2.673 . S
C1909 C375 2.398 . S
C1924 C179 2.443 . S
C1959 C369 0.577 . S
C1974 C249 0.583 . S
C2009 C539 2.734 . S
C2024 C250 2.716 . S
C2059 C166 1.929 . S
C2074 C538 1.857 . S
C2109 C210 2.715 . S
C2124 C10 2.731 . S
C2159 C415 0.876 . S
C2174 C495 0.852 . S
C2209 C86 0.400 . S
C2224 C286 0.558 . S
C2259 C338 0.623 . S
C2274 C458 0.615 . S
C2309 C138 0.618 . S
C2324 C178 0.625 . S
C2359 C370 2.715 . S
C2374 C570 2.732 . S
C2409 C255 0.875 . S
C2424 C55 0.851 . S
C2459 C606 0.402 . S
C2474 C526 0.559 . S
C2509 C326 1.929 . S
C2524 C298 1.854 . S
C2559 C339 2.443 . S
C2574 C215 2.398 . S
C2609 C409 0.583 . S
C2624 C209 0.575 . S
C2659 C126 1.935 . S
C2674 C569 1.850 . S
C2709 C49 0.601 . S
C2724 C618 0.593 . S
C2759 C499 2.701 . S
C2774 C566 2.603 . S
C2809 C450 2.673 . S
C2824 C610 2.683 . S
C2859 C419 2.715 . S
C2874 C530 2.735 . S
C2909 C575 2.604 . S
C2924 C50 2.702 . S
C2959 C139 2.672 . S
C2974 C619 2.681 . S
C3009 C299 2.734 . S
C3024 C410 2.714 . S
