# Generated by pormake.
# Topology wht, (6)-cn, num edge types: 1
# Building blocks:
#     Node 0, Type 0, BuildingBlock: MIDCAF_clean_sbu_0, # of connection points: 6
#     Node 1, Type 0, BuildingBlock: MIDCAF_clean_sbu_0, # of connection points: 6
#     Node 2, Type 0, BuildingBlock: MIDCAF_clean_sbu_0, # of connection points: 6
#     Node 3, Type 0, BuildingBlock: MIDCAF_clean_sbu_0, # of connection points: 6
#     Node 4, Type 0, BuildingBlock: MIDCAF_clean_sbu_0, # of connection points: 6
#     Node 5, Type 0, BuildingBlock: MIDCAF_clean_sbu_0, # of connection points: 6
#     Node 6, Type 0, BuildingBlock: MIDCAF_clean_sbu_0, # of connection points: 6
#     Node 7, Type 0, BuildingBlock: MIDCAF_clean_sbu_0, # of connection points: 6
#     Edge 8, Type (0, 0), BuildingBlock: XUDNAN_clean_linker_2, # of connection points: 2
#     Edge 9, Type (0, 0), BuildingBlock: XUDNAN_clean_linker_2, # of connection points: 2
#     Edge 10, Type (0, 0), BuildingBlock: XUDNAN_clean_linker_2, # of connection points: 2
#     Edge 11, Type (0, 0), BuildingBlock: XUDNAN_clean_linker_2, # of connection points: 2
#     Edge 12, Type (0, 0), BuildingBlock: XUDNAN_clean_linker_2, # of connection points: 2
#     Edge 13, Type (0, 0), BuildingBlock: XUDNAN_clean_linker_2, # of connection points: 2
#     Edge 14, Type (0, 0), BuildingBlock: XUDNAN_clean_linker_2, # of connection points: 2
#     Edge 15, Type (0, 0), BuildingBlock: XUDNAN_clean_linker_2, # of connection points: 2
#     Edge 16, Type (0, 0), BuildingBlock: XUDNAN_clean_linker_2, # of connection points: 2
#     Edge 17, Type (0, 0), BuildingBlock: XUDNAN_clean_linker_2, # of connection points: 2
#     Edge 18, Type (0, 0), BuildingBlock: XUDNAN_clean_linker_2, # of connection points: 2
#     Edge 19, Type (0, 0), BuildingBlock: XUDNAN_clean_linker_2, # of connection points: 2
#     Edge 20, Type (0, 0), BuildingBlock: XUDNAN_clean_linker_2, # of connection points: 2
#     Edge 21, Type (0, 0), BuildingBlock: XUDNAN_clean_linker_2, # of connection points: 2
#     Edge 22, Type (0, 0), BuildingBlock: XUDNAN_clean_linker_2, # of connection points: 2
#     Edge 23, Type (0, 0), BuildingBlock: XUDNAN_clean_linker_2, # of connection points: 2
#     Edge 24, Type (0, 0), BuildingBlock: XUDNAN_clean_linker_2, # of connection points: 2
#     Edge 25, Type (0, 0), BuildingBlock: XUDNAN_clean_linker_2, # of connection points: 2
#     Edge 26, Type (0, 0), BuildingBlock: XUDNAN_clean_linker_2, # of connection points: 2
#     Edge 27, Type (0, 0), BuildingBlock: XUDNAN_clean_linker_2, # of connection points: 2
#     Edge 28, Type (0, 0), BuildingBlock: XUDNAN_clean_linker_2, # of connection points: 2
#     Edge 29, Type (0, 0), BuildingBlock: XUDNAN_clean_linker_2, # of connection points: 2
#     Edge 30, Type (0, 0), BuildingBlock: XUDNAN_clean_linker_2, # of connection points: 2
#     Edge 31, Type (0, 0), BuildingBlock: XUDNAN_clean_linker_2, # of connection points: 2
# Relax obj value: 0.316
# Max RMSD: 0.224
# Mean RMSD: 0.224
data_MOF--net-wht--node1-MIDCAF_clean_sbu_0--edge1-XUDNAN_clean_linker_2
_symmetry_space_group_name_H-M    P1
_symmetry_Int_Tables_number       1
_symmetry_cell_setting            triclinic
loop_
_symmetry_equiv_pos_as_xyz
'x, y, z'
_cell_length_a     26.812758
_cell_length_b     26.744327
_cell_length_c     40.755717
_cell_angle_alpha  90.102283
_cell_angle_beta   89.976023
_cell_angle_gamma 89.297831
loop_
_atom_site_label
_atom_site_type_symbol
_atom_site_fract_x
_atom_site_fract_y
_atom_site_fract_z
_atom_type_partial_charge
Zn0 Zn 0.11786 0.18687 0.23379 0.0
Zn1 Zn 0.07641 0.27346 0.1337 0.0
Zn2 Zn 0.09307 0.2387 0.18106 0.0
C3 C 0.14428 0.21861 0.1127 0.0
C4 C 0.99065 0.24507 0.14269 0.0
O5 O 0.13064 0.28955 0.21419 0.0
O6 O 0.15432 0.242 0.25575 0.0
C7 C 0.15278 0.1301 0.18138 0.0
O8 O 0.12636 0.19899 0.13897 0.0
O9 O 0.13841 0.26482 0.10765 0.0
O10 O 0.01878 0.23248 0.11924 0.0
O11 O 0.01088 0.25118 0.17111 0.0
O12 O 0.15473 0.13 0.21235 0.0
O13 O 0.13149 0.16691 0.16622 0.0
O14 O 0.02223 0.22334 0.20247 0.0
O15 O 0.04488 0.17975 0.24625 0.0
C16 C 0.01102 0.19938 0.22864 0.0
O17 O 0.12786 0.31524 0.17967 0.0
O18 O 0.06128 0.3398 0.15364 0.0
C19 C 0.15007 0.28473 0.24282 0.0
C20 C 0.10259 0.35094 0.16618 0.0
Zn21 Zn 0.27971 0.66603 0.43946 0.0
Zn22 Zn 0.2155 0.60076 0.35092 0.0
Zn23 Zn 0.25257 0.6138 0.39923 0.0
C24 C 0.31186 0.5621 0.34258 0.0
C25 C 0.16866 0.53794 0.39405 0.0
O26 O 0.21233 0.5954 0.44385 0.0
O27 O 0.20808 0.67687 0.44994 0.0
C28 C 0.34829 0.67557 0.39264 0.0
O29 O 0.3169 0.58387 0.37069 0.0
O30 O 0.26943 0.56118 0.32921 0.0
O31 O 0.15867 0.56224 0.3683 0.0
O32 O 0.20671 0.55013 0.41104 0.0
O33 O 0.32196 0.70653 0.40884 0.0
O34 O 0.33298 0.63014 0.3896 0.0
O35 O 0.32492 0.58094 0.40965 0.0
O36 O 0.31149 0.60382 0.4606 0.0
C37 C 0.3307 0.57284 0.44058 0.0
O38 O 0.21673 0.68443 0.3868 0.0
O39 O 0.19907 0.66908 0.33554 0.0
C40 C 0.19198 0.634 0.45728 0.0
C41 C 0.19637 0.69808 0.35997 0.0
Zn42 Zn 0.87736 0.82318 0.7123 0.0
Zn43 Zn 0.9695 0.63749 0.64133 0.0
Zn44 Zn 0.90368 0.76633 0.65778 0.0
C45 C 0.93014 0.69869 0.59094 0.0
C46 C 0.01008 0.72404 0.65442 0.0
O47 O 0.87788 0.72389 0.6988 0.0
O48 O 0.84484 0.7693 0.7387 0.0
C49 C 0.8389 0.8654 0.65078 0.0
O50 O 0.92019 0.72427 0.61637 0.0
O51 O 0.95613 0.65883 0.59342 0.0
O52 O 0.98917 0.69213 0.67225 0.0
O53 O 0.98434 0.7635 0.64764 0.0
O54 O 0.84071 0.87013 0.68173 0.0
O55 O 0.85877 0.82697 0.63707 0.0
O56 O 0.96863 0.8042 0.67437 0.0
O57 O 0.94972 0.83833 0.72216 0.0
C58 C 0.98138 0.82818 0.70002 0.0
O59 O 0.86537 0.69142 0.66429 0.0
O60 O 0.90276 0.61633 0.65634 0.0
C61 C 0.85698 0.72712 0.72699 0.0
C62 C 0.86467 0.64287 0.66348 0.0
Zn63 Zn 0.65418 0.40669 0.00065 0.0
Zn64 Zn 0.77138 0.3426 0.8846 0.0
Zn65 Zn 0.74198 0.38832 0.92453 0.0
C66 C 0.68655 0.38785 0.86228 0.0
C67 C 0.79662 0.4445 0.87321 0.0
O68 O 0.79848 0.39063 0.96212 0.0
O69 O 0.72614 0.40281 0.98358 0.0
C70 C 0.63468 0.32962 0.94983 0.0
O71 O 0.70643 0.42102 0.8808 0.0
O72 O 0.70183 0.34287 0.86465 0.0
O73 O 0.816 0.40127 0.87013 0.0
O74 O 0.75534 0.4487 0.88942 0.0
O75 O 0.61916 0.34918 0.9768 0.0
O76 O 0.67441 0.34504 0.93533 0.0
O77 O 0.71396 0.46347 0.91447 0.0
O78 O 0.69393 0.43836 0.9629 0.0
C79 C 0.68795 0.4706 0.94043 0.0
O80 O 0.81924 0.35754 0.93379 0.0
O81 O 0.80916 0.28681 0.90728 0.0
C82 C 0.7724 0.39505 0.98806 0.0
C83 C 0.83609 0.31395 0.92547 0.0
Zn84 Zn 0.6056 0.21434 0.61814 0.0
Zn85 Zn 0.61513 0.33479 0.54311 0.0
Zn86 Zn 0.60795 0.2696 0.57865 0.0
C87 C 0.51666 0.32909 0.55428 0.0
C88 C 0.6745 0.36956 0.58747 0.0
O89 O 0.65939 0.20337 0.5674 0.0
O90 O 0.67668 0.19522 0.6196 0.0
C91 C 0.52217 0.19744 0.5933 0.0
O92 O 0.53165 0.28446 0.56086 0.0
O93 O 0.54818 0.36355 0.55212 0.0
O94 O 0.67265 0.37469 0.55676 0.0
O95 O 0.64881 0.33468 0.60118 0.0
O96 O 0.55887 0.16765 0.59549 0.0
O97 O 0.5314 0.24363 0.5875 0.0
O98 O 0.62136 0.31149 0.62467 0.0
O99 O 0.57741 0.25836 0.65325 0.0
C100 C 0.5966 0.30104 0.6509 0.0
O101 O 0.64986 0.23501 0.53844 0.0
O102 O 0.62158 0.29189 0.50385 0.0
C103 C 0.68585 0.18283 0.5903 0.0
C104 C 0.64275 0.25024 0.50887 0.0
Zn105 Zn 0.34275 0.05115 0.86093 0.0
Zn106 Zn 0.20115 0.17706 0.79221 0.0
Zn107 Zn 0.24411 0.11524 0.83762 0.0
C108 C 0.19367 0.07392 0.77435 0.0
C109 C 0.15673 0.19684 0.85346 0.0
O110 O 0.31963 0.15387 0.84299 0.0
O111 O 0.38703 0.10516 0.85003 0.0
C112 C 0.27123 0.0016 0.83899 0.0
O113 O 0.21972 0.06842 0.80008 0.0
O114 O 0.1772 0.11675 0.76622 0.0
O115 O 0.15686 0.21397 0.82455 0.0
O116 O 0.18617 0.16081 0.86116 0.0
O117 O 0.30748 0.01783 0.82269 0.0
O118 O 0.23938 0.03445 0.8489 0.0
O119 O 0.23271 0.07582 0.88082 0.0
O120 O 0.30683 0.07227 0.90404 0.0
C121 C 0.25997 0.07812 0.90615 0.0
O122 O 0.29908 0.1389 0.80228 0.0
O123 O 0.26604 0.2027 0.77513 0.0
C124 C 0.36731 0.14808 0.84721 0.0
C125 C 0.30206 0.17255 0.77994 0.0
Zn126 Zn 0.31835 0.71217 0.05251 0.0
Zn127 Zn 0.41548 0.77424 0.17412 0.0
Zn128 Zn 0.38094 0.72283 0.08539 0.0
C129 C 0.39251 0.66705 0.14282 0.0
C130 C 0.47175 0.74498 0.11028 0.0
O131 O 0.38773 0.7627 0.03692 0.0
O132 O 0.30848 0.78136 0.03655 0.0
C133 C 0.28468 0.64859 0.09066 0.0
O134 O 0.37702 0.65348 0.11456 0.0
O135 O 0.39806 0.71365 0.14621 0.0
O136 O 0.43371 0.75164 0.12808 0.0
O137 O 0.46335 0.725 0.0826 0.0
O138 O 0.26211 0.6828 0.07527 0.0
O139 O 0.33216 0.65258 0.09513 0.0
O140 O 0.43133 0.70844 0.04551 0.0
O141 O 0.36923 0.66281 0.02821 0.0
C142 C 0.41577 0.67202 0.02778 0.0
O143 O 0.34884 0.79519 0.10695 0.0
O144 O 0.36753 0.82638 0.15714 0.0
C145 C 0.35149 0.78847 0.02522 0.0
C146 C 0.34437 0.8291 0.12967 0.0
Zn147 Zn 0.81245 0.88302 0.27892 0.0
Zn148 Zn 0.70149 0.89731 0.3721 0.0
Zn149 Zn 0.75766 0.88757 0.32914 0.0
C150 C 0.76851 0.83047 0.39504 0.0
C151 C 0.73258 0.98862 0.36804 0.0
O152 O 0.72175 0.84161 0.29041 0.0
O153 O 0.78209 0.82744 0.2546 0.0
C154 C 0.87211 0.85664 0.33272 0.0
O155 O 0.79314 0.85127 0.37176 0.0
O156 O 0.72223 0.83823 0.39758 0.0
O157 O 0.71844 0.96216 0.39169 0.0
O158 O 0.74318 0.96797 0.34032 0.0
O159 O 0.87508 0.86912 0.30293 0.0
O160 O 0.82968 0.85748 0.34748 0.0
O161 O 0.76627 0.9639 0.31077 0.0
O162 O 0.7996 0.95174 0.26182 0.0
C163 C 0.78072 0.9809 0.28291 0.0
O164 O 0.68875 0.84449 0.3194 0.0
O165 O 0.63737 0.89129 0.34857 0.0
C166 C 0.73792 0.8204 0.26395 0.0
C167 C 0.64406 0.85515 0.32905 0.0
H168 H 0.96813 0.18267 0.28883 0.0
H169 H 0.9386 0.18482 0.18512 0.0
H170 H 0.85228 0.16052 0.19461 0.0
H171 H 0.9261 0.07372 0.30026 0.0
H172 H 0.89712 0.08083 0.34001 0.0
H173 H 0.94542 0.12243 0.32803 0.0
H174 H 0.88602 0.19772 0.33889 0.0
H175 H 0.83695 0.15558 0.35038 0.0
H176 H 0.82643 0.20114 0.31853 0.0
H177 H 0.78477 0.11092 0.21037 0.0
H178 H 0.75126 0.03055 0.22841 0.0
H179 H 0.82027 0.04957 0.32332 0.0
C180 C 0.94221 0.1804 0.26854 0.0
C181 C 0.95834 0.1897 0.23619 0.0
C182 C 0.92505 0.18326 0.20996 0.0
C183 C 0.87609 0.16852 0.21534 0.0
C184 C 0.86112 0.15826 0.24732 0.0
C185 C 0.89334 0.1637 0.27369 0.0
C186 C 0.87344 0.13715 0.30377 0.0
C187 C 0.91283 0.10138 0.31881 0.0
C188 C 0.85459 0.17517 0.3294 0.0
C189 C 0.83003 0.10945 0.28863 0.0
C190 C 0.82129 0.12531 0.25675 0.0
C191 C 0.79007 0.0992 0.23553 0.0
C192 C 0.77117 0.05348 0.24587 0.0
C193 C 0.78313 0.03479 0.2772 0.0
C194 C 0.80961 0.06454 0.29964 0.0
H195 H 0.36318 0.55589 0.50263 0.0
H196 H 0.34757 0.48411 0.40774 0.0
H197 H 0.37583 0.40366 0.43211 0.0
H198 H 0.47396 0.49573 0.52498 0.0
H199 H 0.45786 0.49272 0.56788 0.0
H200 H 0.43174 0.54132 0.54268 0.0
H201 H 0.34317 0.51359 0.56046 0.0
H202 H 0.36951 0.46345 0.58465 0.0
H203 H 0.32421 0.45006 0.55327 0.0
H204 H 0.41233 0.33298 0.46645 0.0
H205 H 0.46858 0.28545 0.50335 0.0
H206 H 0.45729 0.40365 0.57551 0.0
C207 C 0.36558 0.52325 0.4869 0.0
C208 C 0.35348 0.52622 0.45329 0.0
C209 C 0.35737 0.48276 0.43351 0.0
C210 C 0.37248 0.43678 0.44729 0.0
C211 C 0.38311 0.435 0.48083 0.0
C212 C 0.38046 0.47744 0.50018 0.0
C213 C 0.39875 0.46753 0.53462 0.0
C214 C 0.44322 0.50127 0.543 0.0
C215 C 0.35636 0.47405 0.55972 0.0
C216 C 0.41431 0.41324 0.53144 0.0
C217 C 0.40366 0.3945 0.50056 0.0
C218 C 0.41993 0.34692 0.49086 0.0
C219 C 0.45121 0.3197 0.51219 0.0
C220 C 0.46636 0.34082 0.54235 0.0
C221 C 0.44478 0.38627 0.55298 0.0
H222 H 0.03958 0.83598 0.75436 0.0
H223 H 0.03467 0.86825 0.65038 0.0
H224 H 0.10743 0.92292 0.65619 0.0
H225 H 0.05778 0.94279 0.7837 0.0
H226 H 0.10386 0.93032 0.81496 0.0
H227 H 0.06405 0.88123 0.80142 0.0
H228 H 0.14068 0.82609 0.78645 0.0
H229 H 0.18121 0.87501 0.80057 0.0
H230 H 0.18809 0.85023 0.75965 0.0
H231 H 0.15489 0.99444 0.67624 0.0
H232 H 0.18602 0.06664 0.70778 0.0
H233 H 0.17037 0.98287 0.79791 0.0
C234 C 0.05564 0.8528 0.73271 0.0
C235 C 0.03169 0.84879 0.70211 0.0
C236 C 0.05284 0.87105 0.67404 0.0
C237 C 0.0943 0.90194 0.67709 0.0
C238 C 0.11522 0.90821 0.70811 0.0
C239 C 0.09818 0.88231 0.73524 0.0
C240 C 0.12321 0.90012 0.76636 0.0
C241 C 0.08491 0.91452 0.79312 0.0
C242 C 0.16051 0.86051 0.77899 0.0
C243 C 0.1503 0.94514 0.75324 0.0
C244 C 0.14665 0.94826 0.71941 0.0
C245 C 0.1602 0.99135 0.70248 0.0
C246 C 0.17713 0.03239 0.72054 0.0
C247 C 0.1808 0.02966 0.75504 0.0
C248 C 0.169 0.98501 0.77139 0.0
H249 H 0.5172 0.68348 0.01796 0.0
H250 H 0.39138 0.59234 0.98957 0.0
H251 H 0.44736 0.53792 0.95726 0.0
H252 H 0.58618 0.66838 0.93769 0.0
H253 H 0.64602 0.66647 0.95778 0.0
H254 H 0.59544 0.70286 0.97519 0.0
H255 H 0.605 0.655 0.03009 0.0
H256 H 0.65561 0.61882 0.01294 0.0
H257 H 0.60237 0.58765 0.03008 0.0
H258 H 0.51676 0.48781 0.93322 0.0
H259 H 0.59629 0.44388 0.92081 0.0
H260 H 0.67824 0.56585 0.96412 0.0
C261 C 0.50135 0.65269 0.00437 0.0
C262 C 0.44973 0.64247 0.0062 0.0
C263 C 0.43061 0.60133 0.98841 0.0
C264 C 0.46213 0.57019 0.96983 0.0
C265 C 0.51278 0.58083 0.96882 0.0
C266 C 0.53239 0.62121 0.98543 0.0
C267 C 0.58879 0.622 0.98202 0.0
C268 C 0.60506 0.66765 0.96198 0.0
C269 C 0.61442 0.62075 0.01579 0.0
C270 C 0.5979 0.57395 0.96289 0.0
C271 C 0.55333 0.55164 0.9547 0.0
C272 C 0.55187 0.50547 0.93877 0.0
C273 C 0.59708 0.48091 0.93165 0.0
C274 C 0.64296 0.5024 0.94065 0.0
C275 C 0.64348 0.54971 0.95603 0.0
H276 H 0.21793 0.31036 0.29076 0.0
H277 H 0.07537 0.3521 0.24786 0.0
H278 H 0.05599 0.40416 0.29616 0.0
H279 H 0.18187 0.31107 0.37646 0.0
H280 H 0.23754 0.34135 0.3907 0.0
H281 H 0.23969 0.30264 0.35444 0.0
H282 H 0.27435 0.37591 0.31966 0.0
H283 H 0.27532 0.41308 0.3564 0.0
H284 H 0.24237 0.4356 0.32071 0.0
H285 H 0.04956 0.44817 0.34923 0.0
H286 H 0.07134 0.51296 0.38932 0.0
H287 H 0.22067 0.45092 0.3965 0.0
C288 C 0.18321 0.33147 0.29133 0.0
C289 C 0.14814 0.32732 0.26563 0.0
C290 C 0.10308 0.35535 0.26708 0.0
C291 C 0.09112 0.38391 0.29483 0.0
C292 C 0.1251 0.38497 0.32063 0.0
C293 C 0.17136 0.36185 0.3184 0.0
C294 C 0.20404 0.37592 0.34725 0.0
C295 C 0.21651 0.32999 0.36846 0.0
C296 C 0.2518 0.40169 0.3353 0.0
C297 C 0.16936 0.4119 0.36537 0.0
C298 C 0.12302 0.41406 0.3505 0.0
C299 C 0.08571 0.44703 0.36103 0.0
C300 C 0.09804 0.4831 0.38446 0.0
C301 C 0.14793 0.48748 0.39524 0.0
C302 C 0.18215 0.44802 0.38879 0.0
H303 H 0.0412 0.76919 0.59754 0.0
H304 H 0.06478 0.63745 0.65791 0.0
H305 H 0.11011 0.5963 0.61245 0.0
H306 H 0.01664 0.71373 0.52569 0.0
H307 H 0.05234 0.75307 0.49882 0.0
H308 H 0.02903 0.77782 0.53693 0.0
H309 H 0.11595 0.80246 0.557 0.0
H310 H 0.1404 0.78233 0.51791 0.0
H311 H 0.16634 0.75731 0.55531 0.0
H312 H 0.14525 0.56611 0.55764 0.0
H313 H 0.18166 0.55702 0.50181 0.0
H314 H 0.13092 0.70747 0.47855 0.0
C315 C 0.05708 0.73229 0.60158 0.0
C316 C 0.04831 0.70604 0.63092 0.0
C317 C 0.07034 0.65797 0.63534 0.0
C318 C 0.09593 0.6341 0.60963 0.0
C319 C 0.10044 0.65947 0.58006 0.0
C320 C 0.08324 0.70817 0.57637 0.0
C321 C 0.09308 0.72729 0.54223 0.0
C322 C 0.04481 0.74386 0.52492 0.0
C323 C 0.13121 0.76985 0.54317 0.0
C324 C 0.11515 0.68079 0.52675 0.0
C325 C 0.12009 0.64214 0.5489 0.0
C326 C 0.14173 0.59623 0.54007 0.0
C327 C 0.16149 0.591 0.50821 0.0
C328 C 0.15886 0.63145 0.48595 0.0
C329 C 0.13324 0.67574 0.49501 0.0
H330 H 0.7514 0.53509 0.85947 0.0
H331 H 0.88607 0.44705 0.842 0.0
H332 H 0.91642 0.51161 0.80429 0.0
H333 H 0.73515 0.57588 0.77824 0.0
H334 H 0.71358 0.63805 0.78858 0.0
H335 H 0.70377 0.58727 0.81671 0.0
H336 H 0.74925 0.63608 0.86265 0.0
H337 H 0.75873 0.68728 0.83472 0.0
H338 H 0.81129 0.65878 0.85531 0.0
H339 H 0.92997 0.58114 0.76607 0.0
H340 H 0.9275 0.65485 0.72999 0.0
H341 H 0.78491 0.69999 0.77171 0.0
C342 C 0.78769 0.52995 0.84819 0.0
C343 C 0.81641 0.48609 0.85364 0.0
C344 C 0.86341 0.48032 0.83812 0.0
C345 C 0.88103 0.51678 0.81669 0.0
C346 C 0.85135 0.55892 0.81118 0.0
C347 C 0.80592 0.56608 0.8266 0.0
C348 C 0.78071 0.614 0.8151 0.0
C349 C 0.73032 0.60312 0.79868 0.0
C350 C 0.77464 0.65124 0.84365 0.0
C351 C 0.8187 0.63197 0.79036 0.0
C352 C 0.8592 0.59957 0.78872 0.0
C353 C 0.89867 0.607 0.76722 0.0
C354 C 0.89671 0.64869 0.74667 0.0
C355 C 0.85569 0.68247 0.74787 0.0
C356 C 0.81645 0.67439 0.77025 0.0
H357 H 0.99217 0.32773 0.10674 0.0
H358 H 0.88929 0.2261 0.15297 0.0
H359 H 0.81915 0.26991 0.12686 0.0
H360 H 0.90527 0.44145 0.09947 0.0
H361 H 0.92966 0.45468 0.05924 0.0
H362 H 0.96963 0.42732 0.09012 0.0
H363 H 0.99138 0.35465 0.05031 0.0
H364 H 0.95114 0.38107 0.0196 0.0
H365 H 0.94179 0.3178 0.03323 0.0
H366 H 0.76173 0.31482 0.08857 0.0
H367 H 0.72421 0.34875 0.03781 0.0
H368 H 0.86627 0.4122 0.01067 0.0
C369 C 0.95462 0.31632 0.11268 0.0
C370 C 0.94632 0.27495 0.13334 0.0
C371 C 0.89697 0.25918 0.13905 0.0
C372 C 0.8566 0.28386 0.12392 0.0
C373 C 0.86637 0.32352 0.10273 0.0
C374 C 0.91442 0.33944 0.09697 0.0
C375 C 0.91661 0.37527 0.06831 0.0
C376 C 0.93114 0.4278 0.07999 0.0
C377 C 0.9523 0.35599 0.0413 0.0
C378 C 0.86285 0.37428 0.05729 0.0
C379 C 0.83401 0.3462 0.07838 0.0
C380 C 0.78376 0.33748 0.07221 0.0
C381 C 0.76282 0.3568 0.04334 0.0
C382 C 0.79262 0.38287 0.02057 0.0
C383 C 0.84286 0.39257 0.02793 0.0
H384 H 0.72667 0.19205 0.4995 0.0
H385 H 0.58886 0.24107 0.45347 0.0
H386 H 0.6106 0.19348 0.40358 0.0
H387 H 0.8007 0.19092 0.41851 0.0
H388 H 0.83705 0.13744 0.4315 0.0
H389 H 0.81562 0.18287 0.4613 0.0
H390 H 0.77288 0.11305 0.49459 0.0
H391 H 0.79471 0.06752 0.46551 0.0
H392 H 0.72892 0.0727 0.47444 0.0
H393 H 0.64032 0.13262 0.36254 0.0
H394 H 0.6687 0.05256 0.33826 0.0
H395 H 0.78776 0.04312 0.40953 0.0
C396 C 0.70158 0.19296 0.4787 0.0
C397 C 0.65629 0.21997 0.4801 0.0
C398 C 0.62405 0.22072 0.45259 0.0
C399 C 0.63632 0.19439 0.42403 0.0
C400 C 0.68164 0.16859 0.42303 0.0
C401 C 0.71383 0.16764 0.44961 0.0
C402 C 0.75761 0.13281 0.44332 0.0
C403 C 0.80558 0.1628 0.43838 0.0
C404 C 0.76377 0.0942 0.47108 0.0
C405 C 0.74134 0.10935 0.41128 0.0
C406 C 0.69912 0.13284 0.3989 0.0
C407 C 0.67409 0.11468 0.37141 0.0
C408 C 0.69056 0.06943 0.35761 0.0
C409 C 0.73057 0.04276 0.37202 0.0
C410 C 0.7579 0.06408 0.39784 0.0
H411 H 0.33645 0.2472 0.74 0.0
H412 H 0.35545 0.08961 0.76275 0.0
H413 H 0.40374 0.07764 0.71179 0.0
H414 H 0.32261 0.23677 0.65463 0.0
H415 H 0.3594 0.29044 0.64424 0.0
H416 H 0.32741 0.28816 0.68309 0.0
H417 H 0.41042 0.30155 0.71451 0.0
H418 H 0.44228 0.30611 0.67577 0.0
H419 H 0.46315 0.26122 0.70585 0.0
H420 H 0.4415 0.08086 0.6558 0.0
H421 H 0.49127 0.10326 0.60737 0.0
H422 H 0.45316 0.25986 0.62255 0.0
C423 C 0.35185 0.21047 0.73461 0.0
C424 C 0.34197 0.16927 0.75515 0.0
C425 C 0.36282 0.12177 0.74744 0.0
C426 C 0.38959 0.11442 0.71828 0.0
C427 C 0.396 0.15516 0.69754 0.0
C428 C 0.37967 0.20266 0.70597 0.0
C429 C 0.39439 0.24055 0.68024 0.0
C430 C 0.34819 0.26545 0.66464 0.0
C431 C 0.42966 0.27965 0.69496 0.0
C432 C 0.42114 0.20681 0.65587 0.0
C433 C 0.4204 0.15753 0.66598 0.0
C434 C 0.44293 0.1194 0.64783 0.0
C435 C 0.47057 0.13248 0.62007 0.0
C436 C 0.47663 0.18338 0.61135 0.0
C437 C 0.44898 0.22062 0.62832 0.0
H438 H 0.29514 0.86903 0.01125 0.0
H439 H 0.41416 0.77583 0.97183 0.0
H440 H 0.40302 0.81649 0.91733 0.0
H441 H 0.21384 0.86596 0.94536 0.0
H442 H 0.19463 0.9306 0.94893 0.0
H443 H 0.21562 0.89699 0.98465 0.0
H444 H 0.2835 0.96293 0.9959 0.0
H445 H 0.2627 0.99748 0.96086 0.0
H446 H 0.32684 0.97881 0.96374 0.0
H447 H 0.37246 0.8651 0.86598 0.0
H448 H 0.33618 0.92455 0.8259 0.0
H449 H 0.2332 0.97914 0.90018 0.0
C450 C 0.3195 0.85766 0.99128 0.0
C451 C 0.35547 0.81953 0.99559 0.0
C452 C 0.38685 0.80571 0.96904 0.0
C453 C 0.38017 0.828 0.93796 0.0
C454 C 0.34204 0.86372 0.93419 0.0
C455 C 0.31295 0.87874 0.96043 0.0
C456 C 0.27547 0.91846 0.95097 0.0
C457 C 0.22172 0.90197 0.9579 0.0
C458 C 0.28791 0.96728 0.96894 0.0
C459 C 0.2856 0.92209 0.91463 0.0
C460 C 0.32463 0.89081 0.90535 0.0
C461 C 0.34198 0.88969 0.87313 0.0
C462 C 0.32068 0.92323 0.85043 0.0
C463 C 0.28216 0.95725 0.85991 0.0
C464 C 0.26285 0.95443 0.89206 0.0
H465 H 0.49155 0.80804 0.15976 0.0
H466 H 0.56329 0.701 0.09452 0.0
H467 H 0.64049 0.70569 0.12839 0.0
H468 H 0.59698 0.8825 0.18093 0.0
H469 H 0.57701 0.88941 0.22296 0.0
H470 H 0.53152 0.88119 0.19102 0.0
H471 H 0.49641 0.80477 0.22254 0.0
H472 H 0.54274 0.81233 0.25409 0.0
H473 H 0.53774 0.75352 0.23283 0.0
H474 H 0.7084 0.72103 0.1721 0.0
H475 H 0.7616 0.74917 0.21805 0.0
H476 H 0.63856 0.83832 0.25628 0.0
C477 C 0.52339 0.78547 0.1524 0.0
C478 C 0.52133 0.75364 0.12478 0.0
C479 C 0.5643 0.72585 0.11552 0.0
C480 C 0.60793 0.72791 0.13483 0.0
C481 C 0.60726 0.75744 0.16326 0.0
C482 C 0.56595 0.78589 0.17175 0.0
C483 C 0.57277 0.8128 0.20404 0.0
C484 C 0.5694 0.86985 0.19944 0.0
C485 C 0.53517 0.79478 0.22989 0.0
C486 C 0.62499 0.7959 0.21246 0.0
C487 C 0.6445 0.76402 0.18876 0.0
C488 C 0.6932 0.74558 0.19083 0.0
C489 C 0.72299 0.7615 0.21711 0.0
C490 C 0.70379 0.79513 0.24109 0.0
C491 C 0.65379 0.81136 0.23904 0.0
H492 H 0.28361 0.15412 0.94609 0.0
H493 H 0.17987 0.03263 0.9338 0.0
H494 H 0.14178 0.05273 0.98771 0.0
H495 H 0.30429 0.15554 0.02969 0.0
H496 H 0.29799 0.22229 0.03498 0.0
H497 H 0.31809 0.19707 0.99614 0.0
H498 H 0.24576 0.24366 0.96656 0.0
H499 H 0.22567 0.26983 0.00521 0.0
H500 H 0.18261 0.23508 0.98035 0.0
H501 H 0.12009 0.08284 0.04426 0.0
H502 H 0.10332 0.13125 0.09476 0.0
H503 H 0.21536 0.23852 0.06695 0.0
C504 C 0.25341 0.13142 0.95519 0.0
C505 C 0.23645 0.09001 0.93738 0.0
C506 C 0.19439 0.06325 0.94819 0.0
C507 C 0.17263 0.07441 0.97858 0.0
C508 C 0.19146 0.11454 0.9963 0.0
C509 C 0.22932 0.144 0.98432 0.0
C510 C 0.23833 0.18867 0.00608 0.0
C511 C 0.29293 0.19096 0.0174 0.0
C512 C 0.22214 0.23717 0.98852 0.0
C513 C 0.20342 0.17682 0.03399 0.0
C514 C 0.1763 0.13422 0.02766 0.0
C515 C 0.14124 0.11609 0.04962 0.0
C516 C 0.13291 0.14297 0.07857 0.0
C517 C 0.15995 0.18685 0.08532 0.0
C518 C 0.19545 0.2041 0.06271 0.0
H519 H 0.42525 0.69236 0.203 0.0
H520 H 0.38297 0.5642 0.14474 0.0
H521 H 0.38466 0.5116 0.19478 0.0
H522 H 0.50353 0.61287 0.26467 0.0
H523 H 0.48695 0.65628 0.29655 0.0
H524 H 0.49579 0.67839 0.25546 0.0
H525 H 0.4077 0.71909 0.25606 0.0
H526 H 0.39907 0.69807 0.29711 0.0
H527 H 0.35459 0.68109 0.26587 0.0
H528 H 0.36743 0.48127 0.25116 0.0
H529 H 0.32826 0.4787 0.30577 0.0
H530 H 0.38162 0.62649 0.3259 0.0
C531 C 0.41738 0.65295 0.20059 0.0
C532 C 0.40177 0.63268 0.17045 0.0
C533 C 0.39308 0.5808 0.168 0.0
C534 C 0.39489 0.55054 0.19617 0.0
C535 C 0.40743 0.57252 0.22615 0.0
C536 C 0.41942 0.62253 0.22823 0.0
C537 C 0.42562 0.63921 0.26332 0.0
C538 C 0.48124 0.64711 0.27043 0.0
C539 C 0.39481 0.68705 0.27099 0.0
C540 C 0.40644 0.59338 0.28092 0.0
C541 C 0.39963 0.55396 0.25924 0.0
C542 C 0.37439 0.51093 0.2686 0.0
C543 C 0.35232 0.50963 0.2998 0.0
C544 C 0.3545 0.55162 0.32085 0.0
C545 C 0.38403 0.59245 0.3119 0.0
H546 H 0.85386 0.85014 0.42938 0.0
H547 H 0.73389 0.74404 0.41896 0.0
H548 H 0.76422 0.69825 0.46758 0.0
H549 H 0.94989 0.76206 0.46061 0.0
H550 H 0.97394 0.80778 0.4889 0.0
H551 H 0.94542 0.8278 0.45119 0.0
H552 H 0.88554 0.88477 0.48502 0.0
H553 H 0.91314 0.86281 0.52268 0.0
H554 H 0.84692 0.85732 0.51625 0.0
H555 H 0.80521 0.66481 0.51673 0.0
H556 H 0.85504 0.64599 0.56629 0.0
H557 H 0.94332 0.77804 0.54951 0.0
C558 C 0.83529 0.81626 0.4368 0.0
C559 C 0.7926 0.79943 0.42008 0.0
C560 C 0.76741 0.75651 0.43118 0.0
C561 C 0.78415 0.73051 0.45878 0.0
C562 C 0.82575 0.74838 0.47517 0.0
C563 C 0.85097 0.79033 0.46486 0.0
C564 C 0.89256 0.80319 0.48851 0.0
C565 C 0.94349 0.7999 0.47127 0.0
C566 C 0.88397 0.85509 0.50403 0.0
C567 C 0.88664 0.76174 0.51352 0.0
C568 C 0.84815 0.73036 0.50499 0.0
C569 C 0.83574 0.68875 0.52361 0.0
C570 C 0.86417 0.67822 0.55148 0.0
C571 C 0.90354 0.70977 0.56065 0.0
C572 C 0.91427 0.75272 0.54207 0.0
H573 H 0.56146 0.27915 0.71149 0.0
H574 H 0.62199 0.40093 0.65503 0.0
H575 H 0.63607 0.44862 0.70637 0.0
H576 H 0.50186 0.36323 0.77843 0.0
H577 H 0.51557 0.31614 0.8088 0.0
H578 H 0.49974 0.29796 0.76748 0.0
H579 H 0.58129 0.24615 0.76346 0.0
H580 H 0.59821 0.26398 0.80412 0.0
H581 H 0.64024 0.27614 0.77073 0.0
H582 H 0.66183 0.47186 0.76435 0.0
H583 H 0.69496 0.46813 0.82101 0.0
H584 H 0.61068 0.33406 0.83866 0.0
C585 C 0.57623 0.31653 0.7097 0.0
C586 C 0.59393 0.33517 0.67956 0.0
C587 C 0.61183 0.3846 0.67823 0.0
C588 C 0.61849 0.41243 0.7072 0.0
C589 C 0.60421 0.3912 0.73701 0.0
C590 C 0.58179 0.34491 0.73817 0.0
C591 C 0.57531 0.32701 0.77301 0.0
C592 C 0.51982 0.32605 0.78247 0.0
C593 C 0.60031 0.27535 0.77808 0.0
C594 C 0.60212 0.36792 0.79125 0.0
C595 C 0.61707 0.4057 0.77037 0.0
C596 C 0.64874 0.44354 0.78111 0.0
C597 C 0.66727 0.44133 0.8134 0.0
C598 C 0.65471 0.40101 0.8341 0.0
C599 C 0.61983 0.36567 0.82339 0.0
H600 H 0.2462 0.0929 0.18997 0.0
H601 H 0.11118 0.07013 0.13426 0.0
H602 H 0.14951 0.99527 0.1078 0.0
H603 H 0.33605 0.04721 0.12719 0.0
H604 H 0.37512 0.01803 0.15782 0.0
H605 H 0.33932 0.07343 0.1679 0.0
H606 H 0.29846 0.02669 0.21653 0.0
H607 H 0.33401 0.97133 0.2066 0.0
H608 H 0.26697 0.96863 0.20891 0.0
H609 H 0.20171 0.91606 0.09216 0.0
H610 H 0.25926 0.84225 0.09129 0.0
H611 H 0.35779 0.91915 0.15835 0.0
C612 C 0.22524 0.0728 0.17158 0.0
C613 C 0.17651 0.08821 0.16315 0.0
C614 C 0.14951 0.06025 0.13976 0.0
C615 C 0.17086 0.01737 0.12493 0.0
C616 C 0.21921 0.00291 0.13391 0.0
C617 C 0.24596 0.03017 0.15669 0.0
C618 C 0.29529 0.00516 0.16456 0.0
C619 C 0.33903 0.03791 0.15371 0.0
C620 C 0.29885 0.99218 0.20131 0.0
C621 C 0.29171 0.95868 0.14359 0.0
C622 C 0.24808 0.95791 0.12561 0.0
C623 C 0.23619 0.9167 0.10594 0.0
C624 C 0.26909 0.87496 0.10546 0.0
C625 C 0.31285 0.87468 0.1249 0.0
C626 C 0.32453 0.91787 0.14331 0.0
H627 H 0.37533 0.77054 0.37841 0.0
H628 H 0.43182 0.61802 0.3796 0.0
H629 H 0.51175 0.64673 0.35592 0.0
H630 H 0.43033 0.81505 0.3055 0.0
H631 H 0.44695 0.87487 0.32252 0.0
H632 H 0.39391 0.84209 0.33841 0.0
H633 H 0.43083 0.84472 0.39728 0.0
H634 H 0.48304 0.87906 0.38174 0.0
H635 H 0.49345 0.82183 0.40411 0.0
H636 H 0.58402 0.69319 0.32836 0.0
H637 H 0.64985 0.75448 0.31575 0.0
H638 H 0.54525 0.8757 0.33562 0.0
C639 C 0.40422 0.74298 0.37324 0.0
C640 C 0.39669 0.69175 0.37933 0.0
C641 C 0.4363 0.65724 0.37387 0.0
C642 C 0.48168 0.67322 0.36042 0.0
C643 C 0.48677 0.72379 0.35282 0.0
C644 C 0.44962 0.75827 0.3602 0.0
C645 C 0.46616 0.8111 0.35379 0.0
C646 C 0.43231 0.83729 0.32853 0.0
C647 C 0.46852 0.84092 0.38613 0.0
C648 C 0.51766 0.80109 0.3401 0.0
C649 C 0.52897 0.75054 0.3394 0.0
C650 C 0.57559 0.73285 0.32902 0.0
C651 C 0.61257 0.76791 0.32146 0.0
C652 C 0.60264 0.81981 0.32481 0.0
C653 C 0.55385 0.83627 0.3326 0.0
H654 H 0.75297 0.14707 0.63362 0.0
H655 H 0.69123 0.11588 0.53764 0.0
H656 H 0.73085 0.03117 0.53912 0.0
H657 H 0.86804 0.07193 0.62987 0.0
H658 H 0.86052 0.0524 0.67188 0.0
H659 H 0.83723 0.11267 0.65899 0.0
H660 H 0.74952 0.08992 0.68081 0.0
H661 H 0.77214 0.02934 0.69318 0.0
H662 H 0.71967 0.0344 0.66572 0.0
H663 H 0.77205 0.94362 0.55604 0.0
H664 H 0.80568 0.86888 0.58561 0.0
H665 H 0.82829 0.96067 0.67199 0.0
C666 C 0.74894 0.12328 0.61227 0.0
C667 C 0.71937 0.13856 0.58534 0.0
C668 C 0.71454 0.10556 0.55829 0.0
C669 C 0.73657 0.0571 0.55914 0.0
C670 C 0.7628 0.04222 0.58732 0.0
C671 C 0.76889 0.07496 0.61328 0.0
C672 C 0.79202 0.04965 0.64272 0.0
C673 C 0.84246 0.07304 0.65135 0.0
C674 C 0.7562 0.05091 0.67232 0.0
C675 C 0.79847 0.99725 0.62962 0.0
C676 C 0.78229 0.99308 0.59754 0.0
C677 C 0.78461 0.94694 0.58117 0.0
C678 C 0.80359 0.90457 0.59816 0.0
C679 C 0.81881 0.90848 0.6314 0.0
C680 C 0.81629 0.95576 0.64683 0.0
H681 H 0.37226 0.21395 0.89775 0.0
H682 H 0.4431 0.17009 0.80649 0.0
H683 H 0.52097 0.21043 0.82417 0.0
H684 H 0.43923 0.33701 0.90814 0.0
H685 H 0.44308 0.32847 0.95194 0.0
H686 H 0.3911 0.30356 0.92948 0.0
H687 H 0.41102 0.21635 0.95393 0.0
H688 H 0.46442 0.24035 0.97528 0.0
H689 H 0.47177 0.18847 0.94734 0.0
H690 H 0.5952 0.23568 0.85734 0.0
H691 H 0.65567 0.27443 0.8947 0.0
H692 H 0.53617 0.30814 0.96343 0.0
C693 C 0.40316 0.21587 0.88068 0.0
C694 C 0.40149 0.19021 0.85038 0.0
C695 C 0.44345 0.19085 0.82936 0.0
C696 C 0.48805 0.21282 0.83948 0.0
C697 C 0.4898 0.23436 0.8706 0.0
C698 C 0.44802 0.23797 0.89042 0.0
C699 C 0.46084 0.26119 0.92335 0.0
C700 C 0.43186 0.31051 0.92851 0.0
C701 C 0.45144 0.22439 0.95162 0.0
C702 C 0.51622 0.27002 0.91883 0.0
C703 C 0.5323 0.25286 0.88862 0.0
C704 C 0.58258 0.25224 0.8801 0.0
C705 C 0.61678 0.274 0.90166 0.0
C706 C 0.60058 0.2965 0.93133 0.0
C707 C 0.54981 0.29243 0.94057 0.0
H708 H 0.79174 0.63579 0.6186 0.0
H709 H 0.84009 0.58051 0.71305 0.0
H710 H 0.78813 0.50628 0.70634 0.0
H711 H 0.66112 0.57523 0.61833 0.0
H712 H 0.66763 0.56173 0.57519 0.0
H713 H 0.69511 0.6172 0.59222 0.0
H714 H 0.77967 0.58908 0.56782 0.0
H715 H 0.75399 0.532 0.55242 0.0
H716 H 0.80672 0.5298 0.57981 0.0
H717 H 0.74996 0.42889 0.68327 0.0
H718 H 0.71473 0.36077 0.64939 0.0
H719 H 0.69242 0.4654 0.56939 0.0
C720 C 0.78817 0.6099 0.63886 0.0
C721 C 0.81821 0.61497 0.66703 0.0
C722 C 0.81561 0.57861 0.6921 0.0
C723 C 0.78675 0.53573 0.68817 0.0
C724 C 0.76086 0.52966 0.65886 0.0
C725 C 0.7601 0.56642 0.63493 0.0
C726 C 0.73539 0.54781 0.60386 0.0
C727 C 0.68692 0.57723 0.59701 0.0
C728 C 0.77111 0.54978 0.57427 0.0
C729 C 0.72468 0.49441 0.61356 0.0
C730 C 0.73928 0.48462 0.64539 0.0
C731 C 0.73692 0.43656 0.65865 0.0
C732 C 0.71733 0.39803 0.63921 0.0
C733 C 0.69996 0.40806 0.60711 0.0
C734 C 0.70472 0.45669 0.59406 0.0
H735 H 0.07218 0.152 0.87534 0.0
H736 H 0.15561 0.28907 0.88163 0.0
H737 H 0.08588 0.32929 0.91208 0.0
H738 H 0.96189 0.20574 0.85536 0.0
H739 H 0.92196 0.16466 0.87819 0.0
H740 H 0.98225 0.14289 0.86486 0.0
H741 H 0.00548 0.1204 0.92477 0.0
H742 H 0.94496 0.1422 0.93834 0.0
H743 H 0.00063 0.16754 0.95631 0.0
H744 H 0.00297 0.35813 0.93479 0.0
H745 H 0.91303 0.37569 0.9419 0.0
H746 H 0.88081 0.22157 0.91743 0.0
C747 C 0.07641 0.18975 0.8845 0.0
C748 C 0.11975 0.21712 0.87713 0.0
C749 C 0.12321 0.26723 0.88787 0.0
C750 C 0.08377 0.29027 0.90521 0.0
C751 C 0.04079 0.26283 0.9114 0.0
C752 C 0.03689 0.21354 0.90136 0.0
C753 C 0.98426 0.1947 0.90665 0.0
C754 C 0.96126 0.17595 0.87434 0.0
C755 C 0.98382 0.15378 0.93309 0.0
C756 C 0.95836 0.24198 0.91893 0.0
C757 C 0.99204 0.28025 0.92283 0.0
C758 C 0.97644 0.3282 0.9322 0.0
C759 C 0.92511 0.33783 0.93633 0.0
C760 C 0.88964 0.30007 0.93023 0.0
C761 C 0.90692 0.25114 0.92256 0.0
H762 H 0.29813 0.57844 0.14155 0.0
H763 H 0.20544 0.61582 0.05751 0.0
H764 H 0.15114 0.54605 0.06995 0.0
H765 H 0.28596 0.43937 0.13003 0.0
H766 H 0.28565 0.4274 0.17355 0.0
H767 H 0.31904 0.48009 0.15746 0.0
H768 H 0.269 0.53779 0.19706 0.0
H769 H 0.23421 0.48528 0.21202 0.0
H770 H 0.20179 0.53872 0.19506 0.0
H771 H 0.10233 0.48161 0.09256 0.0
H772 H 0.06512 0.41062 0.11904 0.0
H773 H 0.19058 0.40033 0.18686 0.0
C774 C 0.2673 0.5709 0.12542 0.0
C775 C 0.25617 0.603 0.09863 0.0
C776 C 0.21446 0.59264 0.07852 0.0
C777 C 0.1833 0.55285 0.08528 0.0
C778 C 0.19435 0.52286 0.11209 0.0
C779 C 0.23569 0.53006 0.13157 0.0
C780 C 0.23796 0.49027 0.15847 0.0
C781 C 0.28495 0.4573 0.15466 0.0
C782 C 0.2356 0.51448 0.19268 0.0
C783 C 0.19073 0.46077 0.15113 0.0
C784 C 0.16648 0.4815 0.12443 0.0
C785 C 0.12119 0.4643 0.11317 0.0
C786 C 0.10016 0.42373 0.12884 0.0
C787 C 0.12474 0.39899 0.15525 0.0
C788 C 0.17082 0.41814 0.16679 0.0
H789 H 0.92689 0.78224 0.30809 0.0
H790 H 0.92035 0.88594 0.38961 0.0
H791 H 0.0064 0.85972 0.40607 0.0
H792 H 0.00164 0.68441 0.34951 0.0
H793 H 0.03354 0.66918 0.3118 0.0
H794 H 0.97024 0.69237 0.31075 0.0
H795 H 0.99806 0.76296 0.27137 0.0
H796 H 0.06167 0.74114 0.27322 0.0
H797 H 0.04655 0.80493 0.28407 0.0
H798 H 0.09667 0.82041 0.41151 0.0
H799 H 0.1765 0.77264 0.40597 0.0
H800 H 0.12115 0.70549 0.31631 0.0
C801 C 0.9431 0.79849 0.32995 0.0
C802 C 0.91726 0.83539 0.34789 0.0
C803 C 0.93951 0.85661 0.37606 0.0
C804 C 0.98841 0.84227 0.3853 0.0
C805 C 0.0138 0.80678 0.36608 0.0
C806 C 0.99124 0.78498 0.33918 0.0
C807 C 0.02584 0.74968 0.32126 0.0
C808 C 0.0067 0.69573 0.32348 0.0
C809 C 0.03347 0.76569 0.28537 0.0
C810 C 0.0725 0.7563 0.34123 0.0
C811 C 0.0651 0.78812 0.36758 0.0
C812 C 0.10282 0.796 0.39065 0.0
C813 C 0.14827 0.76925 0.38713 0.0
C814 C 0.15583 0.73624 0.36025 0.0
C815 C 0.11771 0.73144 0.33665 0.0
loop_
_geom_bond_atom_site_label_1
_geom_bond_atom_site_label_2
_geom_bond_distance
_geom_bond_site_symmetry_2
_ccdc_geom_bond_type
Zn0 O6 1.920 . S
Zn0 O12 1.898 . S
Zn0 O15 1.905 . S
Zn1 O9 1.905 . S
Zn1 O10 1.898 . S
Zn1 O18 1.920 . S
Zn2 O5 2.080 . S
Zn2 O8 2.114 . S
Zn2 O11 2.120 . S
Zn2 O13 2.120 . S
Zn2 O14 2.114 . S
Zn2 O17 2.080 . S
C3 O8 1.166 . S
C3 O9 1.182 . S
C4 O10 1.167 1_655 S
C4 O11 1.299 1_655 S
O5 Zn2 2.080 . S
O5 C19 1.305 . S
O6 Zn0 1.920 . S
O6 C19 1.234 . S
C7 O12 1.167 . S
C7 O13 1.299 . S
O8 Zn2 2.114 . S
O8 C3 1.166 . S
O9 Zn1 1.905 . S
O9 C3 1.182 . S
O10 Zn1 1.898 . S
O10 C4 1.167 1_455 S
O11 Zn2 2.120 . S
O11 C4 1.299 1_455 S
O12 Zn0 1.898 . S
O12 C7 1.167 . S
O13 Zn2 2.120 . S
O13 C7 1.299 . S
O14 Zn2 2.114 . S
O14 C16 1.166 . S
O15 Zn0 1.905 . S
O15 C16 1.182 . S
C16 O14 1.166 . S
C16 O15 1.182 . S
O17 Zn2 2.080 . S
O17 C20 1.305 . S
O18 Zn1 1.920 . S
O18 C20 1.234 . S
C19 O5 1.305 . S
C19 O6 1.234 . S
C20 O17 1.305 . S
C20 O18 1.234 . S
Zn21 O27 1.920 . S
Zn21 O33 1.898 . S
Zn21 O36 1.905 . S
Zn22 O30 1.905 . S
Zn22 O31 1.898 . S
Zn22 O39 1.920 . S
Zn23 O26 2.080 . S
Zn23 O29 2.114 . S
Zn23 O32 2.120 . S
Zn23 O34 2.120 . S
Zn23 O35 2.114 . S
Zn23 O38 2.080 . S
C24 O29 1.166 . S
C24 O30 1.182 . S
C25 O31 1.167 . S
C25 O32 1.299 . S
O26 Zn23 2.080 . S
O26 C40 1.305 . S
O27 Zn21 1.920 . S
O27 C40 1.234 . S
C28 O33 1.167 . S
C28 O34 1.299 . S
O29 Zn23 2.114 . S
O29 C24 1.166 . S
O30 Zn22 1.905 . S
O30 C24 1.182 . S
O31 Zn22 1.898 . S
O31 C25 1.167 . S
O32 Zn23 2.120 . S
O32 C25 1.299 . S
O33 Zn21 1.898 . S
O33 C28 1.167 . S
O34 Zn23 2.120 . S
O34 C28 1.299 . S
O35 Zn23 2.114 . S
O35 C37 1.166 . S
O36 Zn21 1.905 . S
O36 C37 1.182 . S
C37 O35 1.166 . S
C37 O36 1.182 . S
O38 Zn23 2.080 . S
O38 C41 1.305 . S
O39 Zn22 1.920 . S
O39 C41 1.234 . S
C40 O26 1.305 . S
C40 O27 1.234 . S
C41 O38 1.305 . S
C41 O39 1.234 . S
Zn42 O48 1.920 . S
Zn42 O54 1.898 . S
Zn42 O57 1.905 . S
Zn43 O51 1.905 . S
Zn43 O52 1.898 . S
Zn43 O60 1.920 . S
Zn44 O47 2.080 . S
Zn44 O50 2.114 . S
Zn44 O53 2.120 . S
Zn44 O55 2.120 . S
Zn44 O56 2.114 . S
Zn44 O59 2.080 . S
C45 O50 1.166 . S
C45 O51 1.182 . S
C46 O52 1.167 1_455 S
C46 O53 1.299 1_455 S
O47 Zn44 2.080 . S
O47 C61 1.305 . S
O48 Zn42 1.920 . S
O48 C61 1.234 . S
C49 O54 1.167 . S
C49 O55 1.299 . S
O50 Zn44 2.114 . S
O50 C45 1.166 . S
O51 Zn43 1.905 . S
O51 C45 1.182 . S
O52 Zn43 1.898 . S
O52 C46 1.167 1_655 S
O53 Zn44 2.120 . S
O53 C46 1.299 1_655 S
O54 Zn42 1.898 . S
O54 C49 1.167 . S
O55 Zn44 2.120 . S
O55 C49 1.299 . S
O56 Zn44 2.114 . S
O56 C58 1.166 . S
O57 Zn42 1.905 . S
O57 C58 1.182 . S
C58 O56 1.166 . S
C58 O57 1.182 . S
O59 Zn44 2.080 . S
O59 C62 1.305 . S
O60 Zn43 1.920 . S
O60 C62 1.234 . S
C61 O47 1.305 . S
C61 O48 1.234 . S
C62 O59 1.305 . S
C62 O60 1.234 . S
Zn63 O69 1.920 . S
Zn63 O75 1.898 . S
Zn63 O78 1.905 . S
Zn64 O72 1.905 . S
Zn64 O73 1.898 . S
Zn64 O81 1.920 . S
Zn65 O68 2.080 . S
Zn65 O71 2.114 . S
Zn65 O74 2.120 . S
Zn65 O76 2.120 . S
Zn65 O77 2.114 . S
Zn65 O80 2.080 . S
C66 O71 1.166 . S
C66 O72 1.182 . S
C67 O73 1.167 . S
C67 O74 1.299 . S
O68 Zn65 2.080 . S
O68 C82 1.305 . S
O69 Zn63 1.920 . S
O69 C82 1.234 . S
C70 O75 1.167 . S
C70 O76 1.299 . S
O71 Zn65 2.114 . S
O71 C66 1.166 . S
O72 Zn64 1.905 . S
O72 C66 1.182 . S
O73 Zn64 1.898 . S
O73 C67 1.167 . S
O74 Zn65 2.120 . S
O74 C67 1.299 . S
O75 Zn63 1.898 . S
O75 C70 1.167 . S
O76 Zn65 2.120 . S
O76 C70 1.299 . S
O77 Zn65 2.114 . S
O77 C79 1.166 . S
O78 Zn63 1.905 . S
O78 C79 1.182 . S
C79 O77 1.166 . S
C79 O78 1.182 . S
O80 Zn65 2.080 . S
O80 C83 1.305 . S
O81 Zn64 1.920 . S
O81 C83 1.234 . S
C82 O68 1.305 . S
C82 O69 1.234 . S
C83 O80 1.305 . S
C83 O81 1.234 . S
Zn84 O90 1.920 . S
Zn84 O96 1.898 . S
Zn84 O99 1.905 . S
Zn85 O93 1.905 . S
Zn85 O94 1.898 . S
Zn85 O102 1.920 . S
Zn86 O89 2.080 . S
Zn86 O92 2.114 . S
Zn86 O95 2.120 . S
Zn86 O97 2.120 . S
Zn86 O98 2.114 . S
Zn86 O101 2.080 . S
C87 O92 1.166 . S
C87 O93 1.182 . S
C88 O94 1.167 . S
C88 O95 1.299 . S
O89 Zn86 2.080 . S
O89 C103 1.305 . S
O90 Zn84 1.920 . S
O90 C103 1.234 . S
C91 O96 1.167 . S
C91 O97 1.299 . S
O92 Zn86 2.114 . S
O92 C87 1.166 . S
O93 Zn85 1.905 . S
O93 C87 1.182 . S
O94 Zn85 1.898 . S
O94 C88 1.167 . S
O95 Zn86 2.120 . S
O95 C88 1.299 . S
O96 Zn84 1.898 . S
O96 C91 1.167 . S
O97 Zn86 2.120 . S
O97 C91 1.299 . S
O98 Zn86 2.114 . S
O98 C100 1.166 . S
O99 Zn84 1.905 . S
O99 C100 1.182 . S
C100 O98 1.166 . S
C100 O99 1.182 . S
O101 Zn86 2.080 . S
O101 C104 1.305 . S
O102 Zn85 1.920 . S
O102 C104 1.234 . S
C103 O89 1.305 . S
C103 O90 1.234 . S
C104 O101 1.305 . S
C104 O102 1.234 . S
Zn105 O111 1.920 . S
Zn105 O117 1.898 . S
Zn105 O120 1.905 . S
Zn106 O114 1.905 . S
Zn106 O115 1.898 . S
Zn106 O123 1.920 . S
Zn107 O110 2.080 . S
Zn107 O113 2.114 . S
Zn107 O116 2.120 . S
Zn107 O118 2.120 . S
Zn107 O119 2.114 . S
Zn107 O122 2.080 . S
C108 O113 1.166 . S
C108 O114 1.182 . S
C109 O115 1.167 . S
C109 O116 1.299 . S
O110 Zn107 2.080 . S
O110 C124 1.305 . S
O111 Zn105 1.920 . S
O111 C124 1.234 . S
C112 O117 1.167 1_565 S
C112 O118 1.299 1_565 S
O113 Zn107 2.114 . S
O113 C108 1.166 . S
O114 Zn106 1.905 . S
O114 C108 1.182 . S
O115 Zn106 1.898 . S
O115 C109 1.167 . S
O116 Zn107 2.120 . S
O116 C109 1.299 . S
O117 Zn105 1.898 . S
O117 C112 1.167 1_545 S
O118 Zn107 2.120 . S
O118 C112 1.299 1_545 S
O119 Zn107 2.114 . S
O119 C121 1.166 . S
O120 Zn105 1.905 . S
O120 C121 1.182 . S
C121 O119 1.166 . S
C121 O120 1.182 . S
O122 Zn107 2.080 . S
O122 C125 1.305 . S
O123 Zn106 1.920 . S
O123 C125 1.234 . S
C124 O110 1.305 . S
C124 O111 1.234 . S
C125 O122 1.305 . S
C125 O123 1.234 . S
Zn126 O132 1.920 . S
Zn126 O138 1.898 . S
Zn126 O141 1.905 . S
Zn127 O135 1.905 . S
Zn127 O136 1.898 . S
Zn127 O144 1.920 . S
Zn128 O131 2.080 . S
Zn128 O134 2.114 . S
Zn128 O137 2.120 . S
Zn128 O139 2.120 . S
Zn128 O140 2.114 . S
Zn128 O143 2.080 . S
C129 O134 1.166 . S
C129 O135 1.182 . S
C130 O136 1.167 . S
C130 O137 1.299 . S
O131 Zn128 2.080 . S
O131 C145 1.305 . S
O132 Zn126 1.920 . S
O132 C145 1.234 . S
C133 O138 1.167 . S
C133 O139 1.299 . S
O134 Zn128 2.114 . S
O134 C129 1.166 . S
O135 Zn127 1.905 . S
O135 C129 1.182 . S
O136 Zn127 1.898 . S
O136 C130 1.167 . S
O137 Zn128 2.120 . S
O137 C130 1.299 . S
O138 Zn126 1.898 . S
O138 C133 1.167 . S
O139 Zn128 2.120 . S
O139 C133 1.299 . S
O140 Zn128 2.114 . S
O140 C142 1.166 . S
O141 Zn126 1.905 . S
O141 C142 1.182 . S
C142 O140 1.166 . S
C142 O141 1.182 . S
O143 Zn128 2.080 . S
O143 C146 1.305 . S
O144 Zn127 1.920 . S
O144 C146 1.234 . S
C145 O131 1.305 . S
C145 O132 1.234 . S
C146 O143 1.305 . S
C146 O144 1.234 . S
Zn147 O153 1.920 . S
Zn147 O159 1.898 . S
Zn147 O162 1.905 . S
Zn148 O156 1.905 . S
Zn148 O157 1.898 . S
Zn148 O165 1.920 . S
Zn149 O152 2.080 . S
Zn149 O155 2.114 . S
Zn149 O158 2.120 . S
Zn149 O160 2.120 . S
Zn149 O161 2.114 . S
Zn149 O164 2.080 . S
C150 O155 1.166 . S
C150 O156 1.182 . S
C151 O157 1.167 1_545 S
C151 O158 1.299 1_545 S
O152 Zn149 2.080 . S
O152 C166 1.305 . S
O153 Zn147 1.920 . S
O153 C166 1.234 . S
C154 O159 1.167 . S
C154 O160 1.299 . S
O155 Zn149 2.114 . S
O155 C150 1.166 . S
O156 Zn148 1.905 . S
O156 C150 1.182 . S
O157 Zn148 1.898 . S
O157 C151 1.167 1_565 S
O158 Zn149 2.120 . S
O158 C151 1.299 1_565 S
O159 Zn147 1.898 . S
O159 C154 1.167 . S
O160 Zn149 2.120 . S
O160 C154 1.299 . S
O161 Zn149 2.114 . S
O161 C163 1.166 . S
O162 Zn147 1.905 . S
O162 C163 1.182 . S
C163 O161 1.166 . S
C163 O162 1.182 . S
O164 Zn149 2.080 . S
O164 C167 1.305 . S
O165 Zn148 1.920 . S
O165 C167 1.234 . S
C166 O152 1.305 . S
C166 O153 1.234 . S
C167 O164 1.305 . S
C167 O165 1.234 . S
H168 C180 0.930 . S
H169 C182 0.930 . S
H170 C183 0.930 . S
H171 C187 0.959 . S
H172 C187 0.959 . S
H173 C187 0.961 . S
H174 C188 0.960 . S
H175 C188 0.961 . S
H176 C188 0.959 . S
H177 C191 0.929 . S
H178 C192 0.931 1_565 S
H179 C194 0.930 . S
C180 H168 0.930 . S
C180 C181 1.399 . S
C180 C185 1.399 . S
C181 C180 1.399 . S
C181 C182 1.376 . S
C182 H169 0.930 . S
C182 C181 1.376 . S
C182 C183 1.388 . S
C183 H170 0.930 . S
C183 C182 1.388 . S
C183 C184 1.390 . S
C184 C183 1.390 . S
C184 C185 1.394 . S
C184 C190 1.465 . S
C185 C180 1.399 . S
C185 C184 1.394 . S
C185 C186 1.516 . S
C186 C185 1.516 . S
C186 C187 1.502 . S
C186 C188 1.561 . S
C186 C189 1.526 . S
C187 H171 0.959 . S
C187 H172 0.959 . S
C187 H173 0.961 . S
C187 C186 1.502 . S
C188 H174 0.960 . S
C188 H175 0.961 . S
C188 H176 0.959 . S
C188 C186 1.561 . S
C189 C186 1.526 . S
C189 C190 1.396 . S
C189 C194 1.390 . S
C190 C184 1.465 . S
C190 C189 1.396 . S
C190 C191 1.399 . S
C191 H177 0.929 . S
C191 C190 1.399 . S
C191 C192 1.385 . S
C192 H178 0.931 1_545 S
C192 C191 1.385 . S
C192 C193 1.389 . S
C193 C192 1.389 . S
C193 C194 1.387 . S
C194 H179 0.930 . S
C194 C189 1.390 . S
C194 C193 1.387 . S
H195 C207 0.930 . S
H196 C209 0.930 . S
H197 C210 0.930 . S
H198 C214 0.959 . S
H199 C214 0.959 . S
H200 C214 0.961 . S
H201 C215 0.960 . S
H202 C215 0.961 . S
H203 C215 0.959 . S
H204 C218 0.929 . S
H205 C219 0.931 . S
H206 C221 0.930 . S
C207 H195 0.930 . S
C207 C208 1.399 . S
C207 C212 1.399 . S
C208 C207 1.399 . S
C208 C209 1.376 . S
C209 H196 0.930 . S
C209 C208 1.376 . S
C209 C210 1.388 . S
C210 H197 0.930 . S
C210 C209 1.388 . S
C210 C211 1.390 . S
C211 C210 1.390 . S
C211 C212 1.394 . S
C211 C217 1.465 . S
C212 C207 1.399 . S
C212 C211 1.394 . S
C212 C213 1.516 . S
C213 C212 1.516 . S
C213 C214 1.502 . S
C213 C215 1.561 . S
C213 C216 1.526 . S
C214 H198 0.959 . S
C214 H199 0.959 . S
C214 H200 0.961 . S
C214 C213 1.502 . S
C215 H201 0.960 . S
C215 H202 0.961 . S
C215 H203 0.959 . S
C215 C213 1.561 . S
C216 C213 1.526 . S
C216 C217 1.396 . S
C216 C221 1.390 . S
C217 C211 1.465 . S
C217 C216 1.396 . S
C217 C218 1.399 . S
C218 H204 0.929 . S
C218 C217 1.399 . S
C218 C219 1.385 . S
C219 H205 0.931 . S
C219 C218 1.385 . S
C219 C220 1.389 . S
C220 C219 1.389 . S
C220 C221 1.387 . S
C221 H206 0.930 . S
C221 C216 1.390 . S
C221 C220 1.387 . S
H222 C234 0.930 . S
H223 C236 0.930 . S
H224 C237 0.930 . S
H225 C241 0.959 . S
H226 C241 0.959 . S
H227 C241 0.961 . S
H228 C242 0.960 . S
H229 C242 0.961 . S
H230 C242 0.959 . S
H231 C245 0.929 1_545 S
H232 C246 0.931 . S
H233 C248 0.930 . S
C234 H222 0.930 . S
C234 C235 1.399 . S
C234 C239 1.399 . S
C235 C234 1.399 . S
C235 C236 1.376 . S
C236 H223 0.930 . S
C236 C235 1.376 . S
C236 C237 1.388 . S
C237 H224 0.930 . S
C237 C236 1.388 . S
C237 C238 1.390 . S
C238 C237 1.390 . S
C238 C239 1.394 . S
C238 C244 1.465 . S
C239 C234 1.399 . S
C239 C238 1.394 . S
C239 C240 1.516 . S
C240 C239 1.516 . S
C240 C241 1.502 . S
C240 C242 1.561 . S
C240 C243 1.526 . S
C241 H225 0.959 . S
C241 H226 0.959 . S
C241 H227 0.961 . S
C241 C240 1.502 . S
C242 H228 0.960 . S
C242 H229 0.961 . S
C242 H230 0.959 . S
C242 C240 1.561 . S
C243 C240 1.526 . S
C243 C244 1.396 . S
C243 C248 1.390 . S
C244 C238 1.465 . S
C244 C243 1.396 . S
C244 C245 1.399 . S
C245 H231 0.929 1_565 S
C245 C244 1.399 . S
C245 C246 1.385 1_565 S
C246 H232 0.931 . S
C246 C245 1.385 1_545 S
C246 C247 1.389 1_545 S
C247 C246 1.389 1_565 S
C247 C248 1.387 . S
C248 H233 0.930 . S
C248 C243 1.390 . S
C248 C247 1.387 . S
H249 C261 0.930 . S
H250 C263 0.930 . S
H251 C264 0.930 . S
H252 C268 0.959 . S
H253 C268 0.959 . S
H254 C268 0.961 . S
H255 C269 0.960 . S
H256 C269 0.961 1_556 S
H257 C269 0.959 . S
H258 C272 0.929 . S
H259 C273 0.931 . S
H260 C275 0.930 . S
C261 H249 0.930 . S
C261 C262 1.399 . S
C261 C266 1.399 . S
C262 C261 1.399 . S
C262 C263 1.376 . S
C263 H250 0.930 . S
C263 C262 1.376 . S
C263 C264 1.388 . S
C264 H251 0.930 . S
C264 C263 1.388 . S
C264 C265 1.390 . S
C265 C264 1.390 . S
C265 C266 1.394 . S
C265 C271 1.465 1_554 S
C266 C261 1.399 . S
C266 C265 1.394 . S
C266 C267 1.516 1_554 S
C267 C266 1.516 1_556 S
C267 C268 1.502 . S
C267 C269 1.561 1_556 S
C267 C270 1.526 . S
C268 H252 0.959 . S
C268 H253 0.959 . S
C268 H254 0.961 . S
C268 C267 1.502 . S
C269 H255 0.960 . S
C269 H256 0.961 1_554 S
C269 H257 0.959 . S
C269 C267 1.561 1_554 S
C270 C267 1.526 . S
C270 C271 1.396 . S
C270 C275 1.390 . S
C271 C265 1.465 1_556 S
C271 C270 1.396 . S
C271 C272 1.399 . S
C272 H258 0.929 . S
C272 C271 1.399 . S
C272 C273 1.385 . S
C273 H259 0.931 . S
C273 C272 1.385 . S
C273 C274 1.389 . S
C274 C273 1.389 . S
C274 C275 1.387 . S
C275 H260 0.930 . S
C275 C270 1.390 . S
C275 C274 1.387 . S
H276 C288 0.930 . S
H277 C290 0.930 . S
H278 C291 0.930 . S
H279 C295 0.959 . S
H280 C295 0.959 . S
H281 C295 0.961 . S
H282 C296 0.960 . S
H283 C296 0.961 . S
H284 C296 0.959 . S
H285 C299 0.929 . S
H286 C300 0.931 . S
H287 C302 0.930 . S
C288 H276 0.930 . S
C288 C289 1.399 . S
C288 C293 1.399 . S
C289 C288 1.399 . S
C289 C290 1.376 . S
C290 H277 0.930 . S
C290 C289 1.376 . S
C290 C291 1.388 . S
C291 H278 0.930 . S
C291 C290 1.388 . S
C291 C292 1.390 . S
C292 C291 1.390 . S
C292 C293 1.394 . S
C292 C298 1.465 . S
C293 C288 1.399 . S
C293 C292 1.394 . S
C293 C294 1.516 . S
C294 C293 1.516 . S
C294 C295 1.502 . S
C294 C296 1.561 . S
C294 C297 1.526 . S
C295 H279 0.959 . S
C295 H280 0.959 . S
C295 H281 0.961 . S
C295 C294 1.502 . S
C296 H282 0.960 . S
C296 H283 0.961 . S
C296 H284 0.959 . S
C296 C294 1.561 . S
C297 C294 1.526 . S
C297 C298 1.396 . S
C297 C302 1.390 . S
C298 C292 1.465 . S
C298 C297 1.396 . S
C298 C299 1.399 . S
C299 H285 0.929 . S
C299 C298 1.399 . S
C299 C300 1.385 . S
C300 H286 0.931 . S
C300 C299 1.385 . S
C300 C301 1.389 . S
C301 C300 1.389 . S
C301 C302 1.387 . S
C302 H287 0.930 . S
C302 C297 1.390 . S
C302 C301 1.387 . S
H303 C315 0.930 . S
H304 C317 0.930 . S
H305 C318 0.930 . S
H306 C322 0.959 . S
H307 C322 0.959 . S
H308 C322 0.961 . S
H309 C323 0.960 . S
H310 C323 0.961 . S
H311 C323 0.959 . S
H312 C326 0.929 . S
H313 C327 0.931 . S
H314 C329 0.930 . S
C315 H303 0.930 . S
C315 C316 1.399 . S
C315 C320 1.399 . S
C316 C315 1.399 . S
C316 C317 1.376 . S
C317 H304 0.930 . S
C317 C316 1.376 . S
C317 C318 1.388 . S
C318 H305 0.930 . S
C318 C317 1.388 . S
C318 C319 1.390 . S
C319 C318 1.390 . S
C319 C320 1.394 . S
C319 C325 1.465 . S
C320 C315 1.399 . S
C320 C319 1.394 . S
C320 C321 1.516 . S
C321 C320 1.516 . S
C321 C322 1.502 . S
C321 C323 1.561 . S
C321 C324 1.526 . S
C322 H306 0.959 . S
C322 H307 0.959 . S
C322 H308 0.961 . S
C322 C321 1.502 . S
C323 H309 0.960 . S
C323 H310 0.961 . S
C323 H311 0.959 . S
C323 C321 1.561 . S
C324 C321 1.526 . S
C324 C325 1.396 . S
C324 C329 1.390 . S
C325 C319 1.465 . S
C325 C324 1.396 . S
C325 C326 1.399 . S
C326 H312 0.929 . S
C326 C325 1.399 . S
C326 C327 1.385 . S
C327 H313 0.931 . S
C327 C326 1.385 . S
C327 C328 1.389 . S
C328 C327 1.389 . S
C328 C329 1.387 . S
C329 H314 0.930 . S
C329 C324 1.390 . S
C329 C328 1.387 . S
H330 C342 0.930 . S
H331 C344 0.930 . S
H332 C345 0.930 . S
H333 C349 0.959 . S
H334 C349 0.959 . S
H335 C349 0.961 . S
H336 C350 0.960 . S
H337 C350 0.961 . S
H338 C350 0.959 . S
H339 C353 0.929 . S
H340 C354 0.931 . S
H341 C356 0.930 . S
C342 H330 0.930 . S
C342 C343 1.399 . S
C342 C347 1.399 . S
C343 C342 1.399 . S
C343 C344 1.376 . S
C344 H331 0.930 . S
C344 C343 1.376 . S
C344 C345 1.388 . S
C345 H332 0.930 . S
C345 C344 1.388 . S
C345 C346 1.390 . S
C346 C345 1.390 . S
C346 C347 1.394 . S
C346 C352 1.465 . S
C347 C342 1.399 . S
C347 C346 1.394 . S
C347 C348 1.516 . S
C348 C347 1.516 . S
C348 C349 1.502 . S
C348 C350 1.561 . S
C348 C351 1.526 . S
C349 H333 0.959 . S
C349 H334 0.959 . S
C349 H335 0.961 . S
C349 C348 1.502 . S
C350 H336 0.960 . S
C350 H337 0.961 . S
C350 H338 0.959 . S
C350 C348 1.561 . S
C351 C348 1.526 . S
C351 C352 1.396 . S
C351 C356 1.390 . S
C352 C346 1.465 . S
C352 C351 1.396 . S
C352 C353 1.399 . S
C353 H339 0.929 . S
C353 C352 1.399 . S
C353 C354 1.385 . S
C354 H340 0.931 . S
C354 C353 1.385 . S
C354 C355 1.389 . S
C355 C354 1.389 . S
C355 C356 1.387 . S
C356 H341 0.930 . S
C356 C351 1.390 . S
C356 C355 1.387 . S
H357 C369 0.930 . S
H358 C371 0.930 . S
H359 C372 0.930 . S
H360 C376 0.959 . S
H361 C376 0.959 . S
H362 C376 0.961 . S
H363 C377 0.958 1_455 S
H364 C377 0.961 1_556 S
H365 C377 0.960 . S
H366 C380 0.929 . S
H367 C381 0.931 1_556 S
H368 C383 0.930 . S
C369 H357 0.930 . S
C369 C370 1.399 . S
C369 C374 1.399 . S
C370 C369 1.399 . S
C370 C371 1.376 . S
C371 H358 0.930 . S
C371 C370 1.376 . S
C371 C372 1.388 . S
C372 H359 0.930 . S
C372 C371 1.388 . S
C372 C373 1.390 . S
C373 C372 1.390 . S
C373 C374 1.394 . S
C373 C379 1.465 . S
C374 C369 1.399 . S
C374 C373 1.394 . S
C374 C375 1.516 . S
C375 C374 1.516 . S
C375 C376 1.502 . S
C375 C377 1.561 . S
C375 C378 1.526 . S
C376 H360 0.959 . S
C376 H361 0.959 . S
C376 H362 0.961 . S
C376 C375 1.502 . S
C377 H363 0.958 1_655 S
C377 H364 0.961 1_554 S
C377 H365 0.960 . S
C377 C375 1.561 . S
C378 C375 1.526 . S
C378 C379 1.396 . S
C378 C383 1.390 1_554 S
C379 C373 1.465 . S
C379 C378 1.396 . S
C379 C380 1.399 . S
C380 H366 0.929 . S
C380 C379 1.399 . S
C380 C381 1.385 . S
C381 H367 0.931 1_554 S
C381 C380 1.385 . S
C381 C382 1.389 1_554 S
C382 C381 1.389 1_556 S
C382 C383 1.387 . S
C383 H368 0.930 . S
C383 C378 1.390 1_556 S
C383 C382 1.387 . S
H384 C396 0.930 . S
H385 C398 0.930 . S
H386 C399 0.930 . S
H387 C403 0.959 . S
H388 C403 0.959 . S
H389 C403 0.961 . S
H390 C404 0.960 . S
H391 C404 0.961 . S
H392 C404 0.959 . S
H393 C407 0.929 . S
H394 C408 0.931 1_565 S
H395 C410 0.930 . S
C396 H384 0.930 . S
C396 C397 1.399 . S
C396 C401 1.399 . S
C397 C396 1.399 . S
C397 C398 1.376 . S
C398 H385 0.930 . S
C398 C397 1.376 . S
C398 C399 1.388 . S
C399 H386 0.930 . S
C399 C398 1.388 . S
C399 C400 1.390 . S
C400 C399 1.390 . S
C400 C401 1.394 . S
C400 C406 1.465 . S
C401 C396 1.399 . S
C401 C400 1.394 . S
C401 C402 1.516 . S
C402 C401 1.516 . S
C402 C403 1.502 . S
C402 C404 1.561 . S
C402 C405 1.526 . S
C403 H387 0.959 . S
C403 H388 0.959 . S
C403 H389 0.961 . S
C403 C402 1.502 . S
C404 H390 0.960 . S
C404 H391 0.961 . S
C404 H392 0.959 . S
C404 C402 1.561 . S
C405 C402 1.526 . S
C405 C406 1.396 . S
C405 C410 1.390 . S
C406 C400 1.465 . S
C406 C405 1.396 . S
C406 C407 1.399 . S
C407 H393 0.929 . S
C407 C406 1.399 . S
C407 C408 1.385 . S
C408 H394 0.931 1_545 S
C408 C407 1.385 . S
C408 C409 1.389 . S
C409 C408 1.389 . S
C409 C410 1.387 . S
C410 H395 0.930 . S
C410 C405 1.390 . S
C410 C409 1.387 . S
H411 C423 0.930 . S
H412 C425 0.930 . S
H413 C426 0.930 . S
H414 C430 0.959 . S
H415 C430 0.959 . S
H416 C430 0.961 . S
H417 C431 0.960 . S
H418 C431 0.961 . S
H419 C431 0.959 . S
H420 C434 0.929 . S
H421 C435 0.931 . S
H422 C437 0.930 . S
C423 H411 0.930 . S
C423 C424 1.399 . S
C423 C428 1.399 . S
C424 C423 1.399 . S
C424 C425 1.376 . S
C425 H412 0.930 . S
C425 C424 1.376 . S
C425 C426 1.388 . S
C426 H413 0.930 . S
C426 C425 1.388 . S
C426 C427 1.390 . S
C427 C426 1.390 . S
C427 C428 1.394 . S
C427 C433 1.465 . S
C428 C423 1.399 . S
C428 C427 1.394 . S
C428 C429 1.516 . S
C429 C428 1.516 . S
C429 C430 1.502 . S
C429 C431 1.561 . S
C429 C432 1.526 . S
C430 H414 0.959 . S
C430 H415 0.959 . S
C430 H416 0.961 . S
C430 C429 1.502 . S
C431 H417 0.960 . S
C431 H418 0.961 . S
C431 H419 0.959 . S
C431 C429 1.561 . S
C432 C429 1.526 . S
C432 C433 1.396 . S
C432 C437 1.390 . S
C433 C427 1.465 . S
C433 C432 1.396 . S
C433 C434 1.399 . S
C434 H420 0.929 . S
C434 C433 1.399 . S
C434 C435 1.385 . S
C435 H421 0.931 . S
C435 C434 1.385 . S
C435 C436 1.389 . S
C436 C435 1.389 . S
C436 C437 1.387 . S
C437 H422 0.930 . S
C437 C432 1.390 . S
C437 C436 1.387 . S
H438 C450 0.930 . S
H439 C452 0.930 . S
H440 C453 0.930 . S
H441 C457 0.959 . S
H442 C457 0.959 . S
H443 C457 0.961 1_554 S
H444 C458 0.960 1_554 S
H445 C458 0.971 . S
H446 C458 0.959 . S
H447 C461 0.929 . S
H448 C462 0.931 . S
H449 C464 0.930 . S
C450 H438 0.930 . S
C450 C451 1.399 . S
C450 C455 1.399 1_554 S
C451 C450 1.399 . S
C451 C452 1.376 1_554 S
C452 H439 0.930 . S
C452 C451 1.376 1_556 S
C452 C453 1.388 . S
C453 H440 0.930 . S
C453 C452 1.388 . S
C453 C454 1.390 . S
C454 C453 1.390 . S
C454 C455 1.394 . S
C454 C460 1.465 . S
C455 C450 1.399 1_556 S
C455 C454 1.394 . S
C455 C456 1.516 . S
C456 C455 1.516 . S
C456 C457 1.502 . S
C456 C458 1.561 . S
C456 C459 1.526 . S
C457 H441 0.959 . S
C457 H442 0.959 . S
C457 H443 0.961 1_556 S
C457 C456 1.502 . S
C458 H444 0.960 1_556 S
C458 H445 0.971 . S
C458 H446 0.959 . S
C458 C456 1.561 . S
C459 C456 1.526 . S
C459 C460 1.396 . S
C459 C464 1.390 . S
C460 C454 1.465 . S
C460 C459 1.396 . S
C460 C461 1.399 . S
C461 H447 0.929 . S
C461 C460 1.399 . S
C461 C462 1.385 . S
C462 H448 0.931 . S
C462 C461 1.385 . S
C462 C463 1.389 . S
C463 C462 1.389 . S
C463 C464 1.387 . S
C464 H449 0.930 . S
C464 C459 1.390 . S
C464 C463 1.387 . S
H465 C477 0.930 . S
H466 C479 0.930 . S
H467 C480 0.930 . S
H468 C484 0.959 . S
H469 C484 0.959 . S
H470 C484 0.961 . S
H471 C485 0.960 . S
H472 C485 0.961 . S
H473 C485 0.959 . S
H474 C488 0.929 . S
H475 C489 0.931 . S
H476 C491 0.930 . S
C477 H465 0.930 . S
C477 C478 1.399 . S
C477 C482 1.399 . S
C478 C477 1.399 . S
C478 C479 1.376 . S
C479 H466 0.930 . S
C479 C478 1.376 . S
C479 C480 1.388 . S
C480 H467 0.930 . S
C480 C479 1.388 . S
C480 C481 1.390 . S
C481 C480 1.390 . S
C481 C482 1.394 . S
C481 C487 1.465 . S
C482 C477 1.399 . S
C482 C481 1.394 . S
C482 C483 1.516 . S
C483 C482 1.516 . S
C483 C484 1.502 . S
C483 C485 1.561 . S
C483 C486 1.526 . S
C484 H468 0.959 . S
C484 H469 0.959 . S
C484 H470 0.961 . S
C484 C483 1.502 . S
C485 H471 0.960 . S
C485 H472 0.961 . S
C485 H473 0.959 . S
C485 C483 1.561 . S
C486 C483 1.526 . S
C486 C487 1.396 . S
C486 C491 1.390 . S
C487 C481 1.465 . S
C487 C486 1.396 . S
C487 C488 1.399 . S
C488 H474 0.929 . S
C488 C487 1.399 . S
C488 C489 1.385 . S
C489 H475 0.931 . S
C489 C488 1.385 . S
C489 C490 1.389 . S
C490 C489 1.389 . S
C490 C491 1.387 . S
C491 H476 0.930 . S
C491 C486 1.390 . S
C491 C490 1.387 . S
H492 C504 0.930 . S
H493 C506 0.930 . S
H494 C507 0.930 . S
H495 C511 0.959 . S
H496 C511 0.959 . S
H497 C511 0.961 1_556 S
H498 C512 0.960 . S
H499 C512 0.961 . S
H500 C512 0.959 . S
H501 C515 0.929 . S
H502 C516 0.931 . S
H503 C518 0.930 . S
C504 H492 0.930 . S
C504 C505 1.399 . S
C504 C509 1.399 . S
C505 C504 1.399 . S
C505 C506 1.376 . S
C506 H493 0.930 . S
C506 C505 1.376 . S
C506 C507 1.388 . S
C507 H494 0.930 . S
C507 C506 1.388 . S
C507 C508 1.390 . S
C508 C507 1.390 . S
C508 C509 1.394 . S
C508 C514 1.465 1_556 S
C509 C504 1.399 . S
C509 C508 1.394 . S
C509 C510 1.516 . S
C510 C509 1.516 . S
C510 C511 1.502 1_556 S
C510 C512 1.561 . S
C510 C513 1.526 1_556 S
C511 H495 0.959 . S
C511 H496 0.959 . S
C511 H497 0.961 1_554 S
C511 C510 1.502 1_554 S
C512 H498 0.960 . S
C512 H499 0.961 . S
C512 H500 0.959 . S
C512 C510 1.561 . S
C513 C510 1.526 1_554 S
C513 C514 1.396 . S
C513 C518 1.390 . S
C514 C508 1.465 1_554 S
C514 C513 1.396 . S
C514 C515 1.399 . S
C515 H501 0.929 . S
C515 C514 1.399 . S
C515 C516 1.385 . S
C516 H502 0.931 . S
C516 C515 1.385 . S
C516 C517 1.389 . S
C517 C516 1.389 . S
C517 C518 1.387 . S
C518 H503 0.930 . S
C518 C513 1.390 . S
C518 C517 1.387 . S
H519 C531 0.930 . S
H520 C533 0.930 . S
H521 C534 0.930 . S
H522 C538 0.959 . S
H523 C538 0.959 . S
H524 C538 0.961 . S
H525 C539 0.960 . S
H526 C539 0.961 . S
H527 C539 0.959 . S
H528 C542 0.929 . S
H529 C543 0.931 . S
H530 C545 0.930 . S
C531 H519 0.930 . S
C531 C532 1.399 . S
C531 C536 1.399 . S
C532 C531 1.399 . S
C532 C533 1.376 . S
C533 H520 0.930 . S
C533 C532 1.376 . S
C533 C534 1.388 . S
C534 H521 0.930 . S
C534 C533 1.388 . S
C534 C535 1.390 . S
C535 C534 1.390 . S
C535 C536 1.394 . S
C535 C541 1.465 . S
C536 C531 1.399 . S
C536 C535 1.394 . S
C536 C537 1.516 . S
C537 C536 1.516 . S
C537 C538 1.502 . S
C537 C539 1.561 . S
C537 C540 1.526 . S
C538 H522 0.959 . S
C538 H523 0.959 . S
C538 H524 0.961 . S
C538 C537 1.502 . S
C539 H525 0.960 . S
C539 H526 0.961 . S
C539 H527 0.959 . S
C539 C537 1.561 . S
C540 C537 1.526 . S
C540 C541 1.396 . S
C540 C545 1.390 . S
C541 C535 1.465 . S
C541 C540 1.396 . S
C541 C542 1.399 . S
C542 H528 0.929 . S
C542 C541 1.399 . S
C542 C543 1.385 . S
C543 H529 0.931 . S
C543 C542 1.385 . S
C543 C544 1.389 . S
C544 C543 1.389 . S
C544 C545 1.387 . S
C545 H530 0.930 . S
C545 C540 1.390 . S
C545 C544 1.387 . S
H546 C558 0.930 . S
H547 C560 0.930 . S
H548 C561 0.930 . S
H549 C565 0.959 . S
H550 C565 0.959 . S
H551 C565 0.961 . S
H552 C566 0.960 . S
H553 C566 0.961 . S
H554 C566 0.959 . S
H555 C569 0.929 . S
H556 C570 0.931 . S
H557 C572 0.930 . S
C558 H546 0.930 . S
C558 C559 1.399 . S
C558 C563 1.399 . S
C559 C558 1.399 . S
C559 C560 1.376 . S
C560 H547 0.930 . S
C560 C559 1.376 . S
C560 C561 1.388 . S
C561 H548 0.930 . S
C561 C560 1.388 . S
C561 C562 1.390 . S
C562 C561 1.390 . S
C562 C563 1.394 . S
C562 C568 1.465 . S
C563 C558 1.399 . S
C563 C562 1.394 . S
C563 C564 1.516 . S
C564 C563 1.516 . S
C564 C565 1.502 . S
C564 C566 1.561 . S
C564 C567 1.526 . S
C565 H549 0.959 . S
C565 H550 0.959 . S
C565 H551 0.961 . S
C565 C564 1.502 . S
C566 H552 0.960 . S
C566 H553 0.961 . S
C566 H554 0.959 . S
C566 C564 1.561 . S
C567 C564 1.526 . S
C567 C568 1.396 . S
C567 C572 1.390 . S
C568 C562 1.465 . S
C568 C567 1.396 . S
C568 C569 1.399 . S
C569 H555 0.929 . S
C569 C568 1.399 . S
C569 C570 1.385 . S
C570 H556 0.931 . S
C570 C569 1.385 . S
C570 C571 1.389 . S
C571 C570 1.389 . S
C571 C572 1.387 . S
C572 H557 0.930 . S
C572 C567 1.390 . S
C572 C571 1.387 . S
H573 C585 0.930 . S
H574 C587 0.930 . S
H575 C588 0.930 . S
H576 C592 0.959 . S
H577 C592 0.959 . S
H578 C592 0.961 . S
H579 C593 0.960 . S
H580 C593 0.961 . S
H581 C593 0.959 . S
H582 C596 0.929 . S
H583 C597 0.931 . S
H584 C599 0.930 . S
C585 H573 0.930 . S
C585 C586 1.399 . S
C585 C590 1.399 . S
C586 C585 1.399 . S
C586 C587 1.376 . S
C587 H574 0.930 . S
C587 C586 1.376 . S
C587 C588 1.388 . S
C588 H575 0.930 . S
C588 C587 1.388 . S
C588 C589 1.390 . S
C589 C588 1.390 . S
C589 C590 1.394 . S
C589 C595 1.465 . S
C590 C585 1.399 . S
C590 C589 1.394 . S
C590 C591 1.516 . S
C591 C590 1.516 . S
C591 C592 1.502 . S
C591 C593 1.561 . S
C591 C594 1.526 . S
C592 H576 0.959 . S
C592 H577 0.959 . S
C592 H578 0.961 . S
C592 C591 1.502 . S
C593 H579 0.960 . S
C593 H580 0.961 . S
C593 H581 0.959 . S
C593 C591 1.561 . S
C594 C591 1.526 . S
C594 C595 1.396 . S
C594 C599 1.390 . S
C595 C589 1.465 . S
C595 C594 1.396 . S
C595 C596 1.399 . S
C596 H582 0.929 . S
C596 C595 1.399 . S
C596 C597 1.385 . S
C597 H583 0.931 . S
C597 C596 1.385 . S
C597 C598 1.389 . S
C598 C597 1.389 . S
C598 C599 1.387 . S
C599 H584 0.930 . S
C599 C594 1.390 . S
C599 C598 1.387 . S
H600 C612 0.930 . S
H601 C614 0.930 . S
H602 C615 0.930 . S
H603 C619 0.959 . S
H604 C619 0.959 . S
H605 C619 0.961 . S
H606 C620 0.960 1_545 S
H607 C620 0.961 . S
H608 C620 0.959 . S
H609 C623 0.929 . S
H610 C624 0.931 . S
H611 C626 0.930 . S
C612 H600 0.930 . S
C612 C613 1.399 . S
C612 C617 1.399 . S
C613 C612 1.399 . S
C613 C614 1.376 . S
C614 H601 0.930 . S
C614 C613 1.376 . S
C614 C615 1.388 . S
C615 H602 0.930 . S
C615 C614 1.388 . S
C615 C616 1.390 . S
C616 C615 1.390 . S
C616 C617 1.394 . S
C616 C622 1.465 1_545 S
C617 C612 1.399 . S
C617 C616 1.394 . S
C617 C618 1.516 . S
C618 C617 1.516 . S
C618 C619 1.502 . S
C618 C620 1.561 1_545 S
C618 C621 1.526 1_545 S
C619 H603 0.959 . S
C619 H604 0.959 . S
C619 H605 0.961 . S
C619 C618 1.502 . S
C620 H606 0.960 1_565 S
C620 H607 0.961 . S
C620 H608 0.959 . S
C620 C618 1.561 1_565 S
C621 C618 1.526 1_565 S
C621 C622 1.396 . S
C621 C626 1.390 . S
C622 C616 1.465 1_565 S
C622 C621 1.396 . S
C622 C623 1.399 . S
C623 H609 0.929 . S
C623 C622 1.399 . S
C623 C624 1.385 . S
C624 H610 0.931 . S
C624 C623 1.385 . S
C624 C625 1.389 . S
C625 C624 1.389 . S
C625 C626 1.387 . S
C626 H611 0.930 . S
C626 C621 1.390 . S
C626 C625 1.387 . S
H627 C639 0.930 . S
H628 C641 0.930 . S
H629 C642 0.930 . S
H630 C646 0.959 . S
H631 C646 0.959 . S
H632 C646 0.961 . S
H633 C647 0.960 . S
H634 C647 0.961 . S
H635 C647 0.959 . S
H636 C650 0.929 . S
H637 C651 0.931 . S
H638 C653 0.930 . S
C639 H627 0.930 . S
C639 C640 1.399 . S
C639 C644 1.399 . S
C640 C639 1.399 . S
C640 C641 1.376 . S
C641 H628 0.930 . S
C641 C640 1.376 . S
C641 C642 1.388 . S
C642 H629 0.930 . S
C642 C641 1.388 . S
C642 C643 1.390 . S
C643 C642 1.390 . S
C643 C644 1.394 . S
C643 C649 1.465 . S
C644 C639 1.399 . S
C644 C643 1.394 . S
C644 C645 1.516 . S
C645 C644 1.516 . S
C645 C646 1.502 . S
C645 C647 1.561 . S
C645 C648 1.526 . S
C646 H630 0.959 . S
C646 H631 0.959 . S
C646 H632 0.961 . S
C646 C645 1.502 . S
C647 H633 0.960 . S
C647 H634 0.961 . S
C647 H635 0.959 . S
C647 C645 1.561 . S
C648 C645 1.526 . S
C648 C649 1.396 . S
C648 C653 1.390 . S
C649 C643 1.465 . S
C649 C648 1.396 . S
C649 C650 1.399 . S
C650 H636 0.929 . S
C650 C649 1.399 . S
C650 C651 1.385 . S
C651 H637 0.931 . S
C651 C650 1.385 . S
C651 C652 1.389 . S
C652 C651 1.389 . S
C652 C653 1.387 . S
C653 H638 0.930 . S
C653 C648 1.390 . S
C653 C652 1.387 . S
H654 C666 0.930 . S
H655 C668 0.930 . S
H656 C669 0.930 1_565 S
H657 C673 0.959 . S
H658 C673 0.959 . S
H659 C673 0.961 . S
H660 C674 0.960 . S
H661 C674 0.961 . S
H662 C674 0.959 . S
H663 C677 0.929 . S
H664 C678 0.931 . S
H665 C680 0.930 . S
C666 H654 0.930 . S
C666 C667 1.399 . S
C666 C671 1.399 . S
C667 C666 1.399 . S
C667 C668 1.376 . S
C668 H655 0.930 . S
C668 C667 1.376 . S
C668 C669 1.388 . S
C669 H656 0.930 1_545 S
C669 C668 1.388 . S
C669 C670 1.390 . S
C670 C669 1.390 . S
C670 C671 1.394 . S
C670 C676 1.465 1_545 S
C671 C666 1.399 . S
C671 C670 1.394 . S
C671 C672 1.516 . S
C672 C671 1.516 . S
C672 C673 1.502 . S
C672 C674 1.561 . S
C672 C675 1.526 1_545 S
C673 H657 0.959 . S
C673 H658 0.959 . S
C673 H659 0.961 . S
C673 C672 1.502 . S
C674 H660 0.960 . S
C674 H661 0.961 . S
C674 H662 0.959 . S
C674 C672 1.561 . S
C675 C672 1.526 1_565 S
C675 C676 1.396 . S
C675 C680 1.390 . S
C676 C670 1.465 1_565 S
C676 C675 1.396 . S
C676 C677 1.399 . S
C677 H663 0.929 . S
C677 C676 1.399 . S
C677 C678 1.385 . S
C678 H664 0.931 . S
C678 C677 1.385 . S
C678 C679 1.389 . S
C679 C678 1.389 . S
C679 C680 1.387 . S
C680 H665 0.930 . S
C680 C675 1.390 . S
C680 C679 1.387 . S
H681 C693 0.930 . S
H682 C695 0.930 . S
H683 C696 0.930 . S
H684 C700 0.959 . S
H685 C700 0.959 . S
H686 C700 0.961 . S
H687 C701 0.960 . S
H688 C701 0.961 . S
H689 C701 0.959 . S
H690 C704 0.929 . S
H691 C705 0.931 . S
H692 C707 0.930 . S
C693 H681 0.930 . S
C693 C694 1.399 . S
C693 C698 1.399 . S
C694 C693 1.399 . S
C694 C695 1.376 . S
C695 H682 0.930 . S
C695 C694 1.376 . S
C695 C696 1.388 . S
C696 H683 0.930 . S
C696 C695 1.388 . S
C696 C697 1.390 . S
C697 C696 1.390 . S
C697 C698 1.394 . S
C697 C703 1.465 . S
C698 C693 1.399 . S
C698 C697 1.394 . S
C698 C699 1.516 . S
C699 C698 1.516 . S
C699 C700 1.502 . S
C699 C701 1.561 . S
C699 C702 1.526 . S
C700 H684 0.959 . S
C700 H685 0.959 . S
C700 H686 0.961 . S
C700 C699 1.502 . S
C701 H687 0.960 . S
C701 H688 0.961 . S
C701 H689 0.959 . S
C701 C699 1.561 . S
C702 C699 1.526 . S
C702 C703 1.396 . S
C702 C707 1.390 . S
C703 C697 1.465 . S
C703 C702 1.396 . S
C703 C704 1.399 . S
C704 H690 0.929 . S
C704 C703 1.399 . S
C704 C705 1.385 . S
C705 H691 0.931 . S
C705 C704 1.385 . S
C705 C706 1.389 . S
C706 C705 1.389 . S
C706 C707 1.387 . S
C707 H692 0.930 . S
C707 C702 1.390 . S
C707 C706 1.387 . S
H708 C720 0.930 . S
H709 C722 0.930 . S
H710 C723 0.930 . S
H711 C727 0.959 . S
H712 C727 0.959 . S
H713 C727 0.961 . S
H714 C728 0.960 . S
H715 C728 0.961 . S
H716 C728 0.959 . S
H717 C731 0.929 . S
H718 C732 0.931 . S
H719 C734 0.930 . S
C720 H708 0.930 . S
C720 C721 1.399 . S
C720 C725 1.399 . S
C721 C720 1.399 . S
C721 C722 1.376 . S
C722 H709 0.930 . S
C722 C721 1.376 . S
C722 C723 1.388 . S
C723 H710 0.930 . S
C723 C722 1.388 . S
C723 C724 1.390 . S
C724 C723 1.390 . S
C724 C725 1.394 . S
C724 C730 1.465 . S
C725 C720 1.399 . S
C725 C724 1.394 . S
C725 C726 1.516 . S
C726 C725 1.516 . S
C726 C727 1.502 . S
C726 C728 1.561 . S
C726 C729 1.526 . S
C727 H711 0.959 . S
C727 H712 0.959 . S
C727 H713 0.961 . S
C727 C726 1.502 . S
C728 H714 0.960 . S
C728 H715 0.961 . S
C728 H716 0.959 . S
C728 C726 1.561 . S
C729 C726 1.526 . S
C729 C730 1.396 . S
C729 C734 1.390 . S
C730 C724 1.465 . S
C730 C729 1.396 . S
C730 C731 1.399 . S
C731 H717 0.929 . S
C731 C730 1.399 . S
C731 C732 1.385 . S
C732 H718 0.931 . S
C732 C731 1.385 . S
C732 C733 1.389 . S
C733 C732 1.389 . S
C733 C734 1.387 . S
C734 H719 0.930 . S
C734 C729 1.390 . S
C734 C733 1.387 . S
H735 C747 0.930 . S
H736 C749 0.930 . S
H737 C750 0.930 . S
H738 C754 0.959 . S
H739 C754 0.959 . S
H740 C754 0.961 . S
H741 C755 0.960 . S
H742 C755 0.961 1_655 S
H743 C755 0.959 . S
H744 C758 0.929 . S
H745 C759 0.931 . S
H746 C761 0.930 . S
C747 H735 0.930 . S
C747 C748 1.399 . S
C747 C752 1.399 . S
C748 C747 1.399 . S
C748 C749 1.376 . S
C749 H736 0.930 . S
C749 C748 1.376 . S
C749 C750 1.388 . S
C750 H737 0.930 . S
C750 C749 1.388 . S
C750 C751 1.390 . S
C751 C750 1.390 . S
C751 C752 1.394 . S
C751 C757 1.465 1_455 S
C752 C747 1.399 . S
C752 C751 1.394 . S
C752 C753 1.516 1_455 S
C753 C752 1.516 1_655 S
C753 C754 1.502 . S
C753 C755 1.561 1_655 S
C753 C756 1.526 . S
C754 H738 0.959 . S
C754 H739 0.959 . S
C754 H740 0.961 . S
C754 C753 1.502 . S
C755 H741 0.960 . S
C755 H742 0.961 1_455 S
C755 H743 0.959 . S
C755 C753 1.561 1_455 S
C756 C753 1.526 . S
C756 C757 1.396 . S
C756 C761 1.390 . S
C757 C751 1.465 1_655 S
C757 C756 1.396 . S
C757 C758 1.399 . S
C758 H744 0.929 . S
C758 C757 1.399 . S
C758 C759 1.385 . S
C759 H745 0.931 . S
C759 C758 1.385 . S
C759 C760 1.389 . S
C760 C759 1.389 . S
C760 C761 1.387 . S
C761 H746 0.930 . S
C761 C756 1.390 . S
C761 C760 1.387 . S
H762 C774 0.930 . S
H763 C776 0.930 . S
H764 C777 0.930 . S
H765 C781 0.959 . S
H766 C781 0.959 . S
H767 C781 0.961 . S
H768 C782 0.960 . S
H769 C782 0.961 . S
H770 C782 0.959 . S
H771 C785 0.929 . S
H772 C786 0.931 . S
H773 C788 0.930 . S
C774 H762 0.930 . S
C774 C775 1.399 . S
C774 C779 1.399 . S
C775 C774 1.399 . S
C775 C776 1.376 . S
C776 H763 0.930 . S
C776 C775 1.376 . S
C776 C777 1.388 . S
C777 H764 0.930 . S
C777 C776 1.388 . S
C777 C778 1.390 . S
C778 C777 1.390 . S
C778 C779 1.394 . S
C778 C784 1.465 . S
C779 C774 1.399 . S
C779 C778 1.394 . S
C779 C780 1.516 . S
C780 C779 1.516 . S
C780 C781 1.502 . S
C780 C782 1.561 . S
C780 C783 1.526 . S
C781 H765 0.959 . S
C781 H766 0.959 . S
C781 H767 0.961 . S
C781 C780 1.502 . S
C782 H768 0.960 . S
C782 H769 0.961 . S
C782 H770 0.959 . S
C782 C780 1.561 . S
C783 C780 1.526 . S
C783 C784 1.396 . S
C783 C788 1.390 . S
C784 C778 1.465 . S
C784 C783 1.396 . S
C784 C785 1.399 . S
C785 H771 0.929 . S
C785 C784 1.399 . S
C785 C786 1.385 . S
C786 H772 0.931 . S
C786 C785 1.385 . S
C786 C787 1.389 . S
C787 C786 1.389 . S
C787 C788 1.387 . S
C788 H773 0.930 . S
C788 C783 1.390 . S
C788 C787 1.387 . S
H789 C801 0.930 . S
H790 C803 0.930 . S
H791 C804 0.930 . S
H792 C808 0.959 . S
H793 C808 0.959 1_455 S
H794 C808 0.961 . S
H795 C809 0.960 . S
H796 C809 0.961 . S
H797 C809 0.959 . S
H798 C812 0.929 . S
H799 C813 0.931 . S
H800 C815 0.930 . S
C801 H789 0.930 . S
C801 C802 1.399 . S
C801 C806 1.399 . S
C802 C801 1.399 . S
C802 C803 1.376 . S
C803 H790 0.930 . S
C803 C802 1.376 . S
C803 C804 1.388 . S
C804 H791 0.930 . S
C804 C803 1.388 . S
C804 C805 1.390 . S
C805 C804 1.390 . S
C805 C806 1.394 . S
C805 C811 1.465 1_655 S
C806 C801 1.399 . S
C806 C805 1.394 . S
C806 C807 1.516 1_655 S
C807 C806 1.516 1_455 S
C807 C808 1.502 1_455 S
C807 C809 1.561 . S
C807 C810 1.526 . S
C808 H792 0.959 . S
C808 H793 0.959 1_655 S
C808 H794 0.961 . S
C808 C807 1.502 1_655 S
C809 H795 0.960 . S
C809 H796 0.961 . S
C809 H797 0.959 . S
C809 C807 1.561 . S
C810 C807 1.526 . S
C810 C811 1.396 . S
C810 C815 1.390 . S
C811 C805 1.465 1_455 S
C811 C810 1.396 . S
C811 C812 1.399 . S
C812 H798 0.929 . S
C812 C811 1.399 . S
C812 C813 1.385 . S
C813 H799 0.931 . S
C813 C812 1.385 . S
C813 C814 1.389 . S
C814 C813 1.389 . S
C814 C815 1.387 . S
C815 H800 0.930 . S
C815 C810 1.390 . S
C815 C814 1.387 . S
C181 C16 1.121 1_655 S
C193 C163 0.951 1_545 S
C208 C37 1.104 . S
C220 C87 1.042 . S
C235 C58 1.099 1_455 S
C247 C108 0.930 1_565 S
C262 C142 1.049 . S
C274 C79 0.935 . S
C289 C19 1.127 . S
C301 C25 0.810 . S
C316 C46 0.985 . S
C328 C40 1.046 . S
C343 C67 0.848 . S
C355 C61 1.115 . S
C370 C4 0.991 . S
C382 C82 1.010 . S
C397 C104 1.125 . S
C409 C151 0.819 . S
C424 C125 1.127 . S
C436 C91 0.812 . S
C451 C145 1.032 . S
C463 C112 1.000 . S
C478 C130 1.023 . S
C490 C166 0.998 . S
C505 C121 0.787 . S
C517 C3 0.742 . S
C532 C129 0.738 . S
C544 C24 0.562 . S
C559 C150 0.583 . S
C571 C45 0.639 . S
C586 C100 0.774 . S
C598 C66 0.584 . S
C613 C7 1.885 . S
C625 C146 1.848 . S
C640 C28 1.888 . S
C652 C167 1.849 . S
C667 C103 1.812 . S
C679 C49 1.919 . S
C694 C124 1.838 . S
C706 C70 1.915 . S
C721 C62 1.825 . S
C733 C88 1.918 . S
C748 C109 1.896 . S
C760 C83 1.768 . S
C775 C133 1.884 . S
C787 C20 1.762 . S
C802 C154 1.889 . S
C814 C41 1.849 . S
