# Generated by pormake.
# Topology irl, (4)-cn, num edge types: 1
# Building blocks:
#     Node 0, Type 0, BuildingBlock: NAHDIM_clean_sbu_0, # of connection points: 4
#     Node 1, Type 0, BuildingBlock: NAHDIM_clean_sbu_0, # of connection points: 4
#     Node 2, Type 0, BuildingBlock: NAHDIM_clean_sbu_0, # of connection points: 4
#     Node 3, Type 0, BuildingBlock: NAHDIM_clean_sbu_0, # of connection points: 4
#     Node 4, Type 0, BuildingBlock: NAHDIM_clean_sbu_0, # of connection points: 4
#     Node 5, Type 0, BuildingBlock: NAHDIM_clean_sbu_0, # of connection points: 4
#     Node 6, Type 0, BuildingBlock: NAHDIM_clean_sbu_0, # of connection points: 4
#     Node 7, Type 0, BuildingBlock: NAHDIM_clean_sbu_0, # of connection points: 4
#     Edge 8, Type (0, 0), BuildingBlock: CIFDUS_clean_linker_0, # of connection points: 2
#     Edge 9, Type (0, 0), BuildingBlock: CIFDUS_clean_linker_0, # of connection points: 2
#     Edge 10, Type (0, 0), BuildingBlock: CIFDUS_clean_linker_0, # of connection points: 2
#     Edge 11, Type (0, 0), BuildingBlock: CIFDUS_clean_linker_0, # of connection points: 2
#     Edge 12, Type (0, 0), BuildingBlock: CIFDUS_clean_linker_0, # of connection points: 2
#     Edge 13, Type (0, 0), BuildingBlock: CIFDUS_clean_linker_0, # of connection points: 2
#     Edge 14, Type (0, 0), BuildingBlock: CIFDUS_clean_linker_0, # of connection points: 2
#     Edge 15, Type (0, 0), BuildingBlock: CIFDUS_clean_linker_0, # of connection points: 2
#     Edge 16, Type (0, 0), BuildingBlock: CIFDUS_clean_linker_0, # of connection points: 2
#     Edge 17, Type (0, 0), BuildingBlock: CIFDUS_clean_linker_0, # of connection points: 2
#     Edge 18, Type (0, 0), BuildingBlock: CIFDUS_clean_linker_0, # of connection points: 2
#     Edge 19, Type (0, 0), BuildingBlock: CIFDUS_clean_linker_0, # of connection points: 2
#     Edge 20, Type (0, 0), BuildingBlock: CIFDUS_clean_linker_0, # of connection points: 2
#     Edge 21, Type (0, 0), BuildingBlock: CIFDUS_clean_linker_0, # of connection points: 2
#     Edge 22, Type (0, 0), BuildingBlock: CIFDUS_clean_linker_0, # of connection points: 2
#     Edge 23, Type (0, 0), BuildingBlock: CIFDUS_clean_linker_0, # of connection points: 2
# Relax obj value: 0.188
# Max RMSD: 0.180
# Mean RMSD: 0.180
data_MOF--net-irl--node1-NAHDIM_clean_sbu_0--edge1-CIFDUS_clean_linker_0
_symmetry_space_group_name_H-M    P1
_symmetry_Int_Tables_number       1
_symmetry_cell_setting            triclinic
loop_
_symmetry_equiv_pos_as_xyz
'x, y, z'
_cell_length_a     36.087929
_cell_length_b     31.852836
_cell_length_c     23.210035
_cell_angle_alpha  90.056015
_cell_angle_beta   90.229568
_cell_angle_gamma 89.346174
loop_
_atom_site_label
_atom_site_type_symbol
_atom_site_fract_x
_atom_site_fract_y
_atom_site_fract_z
_atom_type_partial_charge
C0 C 0.13359 0.23756 0.01526 0.0
O1 O 0.11417 0.26715 0.98925 0.0
O2 O 0.03491 0.22484 0.09187 0.0
Zn3 Zn 0.06246 0.19782 0.02588 0.0
O4 O 0.04607 0.2174 0.94723 0.0
C5 C 0.02076 0.12195 0.02405 0.0
O6 O -0.00656 0.14861 0.01408 0.0
O7 O 0.11714 0.20558 0.03472 0.0
C8 C 0.01492 0.23419 0.93503 0.0
O9 O -0.00875 0.24214 0.9766 0.0
C10 C 0.04851 0.2526 0.12496 0.0
O11 O 0.08111 0.26821 0.11304 0.0
O12 O 0.05336 0.13585 0.03053 0.0
C13 C 0.83286 0.77512 0.01675 0.0
O14 O 0.85182 0.73987 0.01136 0.0
O15 O 0.92678 0.78044 0.07925 0.0
Zn16 Zn 0.90504 0.81051 0.0106 0.0
O17 O 0.91814 0.78491 0.93414 0.0
C18 C 0.95035 0.88514 0.02852 0.0
O19 O 0.97547 0.85875 0.0486 0.0
O20 O 0.85003 0.80965 0.01779 0.0
C21 C 0.94992 0.78816 0.9114 0.0
O22 O 0.97655 0.80676 0.94008 0.0
C23 C 0.95603 0.75793 0.08187 0.0
O24 O 0.97587 0.75161 0.03532 0.0
O25 O 0.91948 0.87125 0.01078 0.0
C26 C 0.12981 0.75673 0.4829 0.0
O27 O 0.11227 0.72113 0.48952 0.0
O28 O 0.03617 0.75525 0.41798 0.0
Zn29 Zn 0.05596 0.7882 0.48523 0.0
O30 O 0.04328 0.76463 0.56291 0.0
C31 C 0.02663 0.86418 0.43311 0.0
O32 O 0.03236 0.84342 0.38497 0.0
O33 O 0.11112 0.79064 0.47936 0.0
C34 C 0.01263 0.77446 0.58634 0.0
O35 O -0.01156 0.79734 0.55744 0.0
C36 C 0.00229 0.74554 0.41271 0.0
O37 O 0.97962 0.75281 0.45575 0.0
O38 O 0.03516 0.84702 0.48084 0.0
C39 C 0.84971 0.21341 0.52216 0.0
O40 O 0.87029 0.24669 0.51441 0.0
O41 O 0.93458 0.1994 0.44495 0.0
Zn42 Zn 0.92073 0.17569 0.5221 0.0
O43 O 0.94275 0.2061 0.58984 0.0
C44 C 0.94024 0.09375 0.47885 0.0
O45 O 0.92935 0.11058 0.42989 0.0
O46 O 0.86545 0.17779 0.52779 0.0
C47 C 0.97706 0.20212 0.60128 0.0
O48 O -0.00168 0.18105 0.56534 0.0
C49 C 0.95604 0.2292 0.43189 0.0
O50 O 0.97283 0.25025 0.47288 0.0
O51 O 0.93837 0.11551 0.52471 0.0
C52 C 0.61477 0.73799 0.0214 0.0
O53 O 0.59613 0.77356 0.02524 0.0
O54 O 0.52539 0.7419 0.08464 0.0
Zn55 Zn 0.54182 0.7066 0.01765 0.0
O56 O 0.52451 0.72839 0.94115 0.0
C57 C 0.5154 0.63154 0.07522 0.0
O58 O 0.52087 0.65318 0.12266 0.0
O59 O 0.5971 0.70389 0.01753 0.0
C60 C 0.49189 0.72088 0.92353 0.0
O61 O 0.46881 0.70144 0.95775 0.0
C62 C 0.49506 0.76219 0.08932 0.0
O63 O 0.47166 0.76314 0.04589 0.0
O64 O 0.52258 0.64811 0.0268 0.0
C65 C 0.35001 0.28462 0.01139 0.0
O66 O 0.36974 0.25066 0.02264 0.0
O67 O 0.44562 0.28695 0.05153 0.0
Zn68 Zn 0.42147 0.31762 0.98555 0.0
O69 O 0.43419 0.29328 0.90777 0.0
C70 C 0.44145 0.39813 0.03301 0.0
O71 O 0.43245 0.38036 0.08199 0.0
O72 O 0.36642 0.31773 -0.00411 0.0
C73 C 0.41138 0.30103 0.8671 0.0
O74 O 0.38072 0.3219 0.87885 0.0
C75 C 0.48028 0.28977 0.06013 0.0
O76 O 0.50047 0.30977 0.02224 0.0
O77 O 0.43869 0.37728 0.98652 0.0
C78 C 0.6343 0.27024 0.4987 0.0
O79 O 0.61349 0.2368 0.50294 0.0
O80 O 0.54905 0.28582 0.40448 0.0
Zn81 Zn 0.56382 0.30947 0.48157 0.0
O82 O 0.54052 0.28069 0.54923 0.0
C83 C 0.53974 0.392 0.44096 0.0
O84 O 0.54246 0.37481 0.38966 0.0
O85 O 0.61896 0.30568 0.48945 0.0
C86 C 0.50715 0.28981 0.56174 0.0
O87 O 0.48804 0.3143 0.52677 0.0
C88 C 0.52138 0.26294 0.39297 0.0
O89 O 0.4998 0.25044 0.43487 0.0
O90 O 0.54809 0.37035 0.48522 0.0
C91 C 0.34933 0.72419 0.48612 0.0
O92 O 0.36664 0.76019 0.48318 0.0
O93 O 0.43781 0.73269 0.42415 0.0
Zn94 Zn 0.42351 0.69517 0.48958 0.0
O95 O 0.43963 0.71704 0.56649 0.0
C96 C 0.45101 0.62275 0.42719 0.0
O97 O 0.44038 0.64483 0.38216 0.0
O98 O 0.3683 0.69046 0.48948 0.0
C99 C 0.47265 0.71166 0.58432 0.0
O100 O 0.49704 0.69324 0.55056 0.0
C101 C 0.46663 0.75506 0.42075 0.0
O102 O 0.48982 0.75649 0.4644 0.0
O103 O 0.44631 0.63791 0.47735 0.0
H104 H 0.01547 0.92473 0.05027 0.0
H105 H 0.90163 0.94803 0.00064 0.0
H106 H 0.91336 0.02311 -0.00464 0.0
H107 H 0.95579 0.08218 0.00424 0.0
H108 H 0.06993 0.05924 0.0523 0.0
H109 H 0.05815 0.98406 0.05869 0.0
C110 C -0.00679 0.94623 0.03843 0.0
C111 C 0.95774 0.9307 0.02593 0.0
C112 C 0.00017 0.98946 0.03508 0.0
C113 C 0.92924 0.95904 0.0104 0.0
C114 C 0.93589 1.00204 0.00738 0.0
C115 C 0.97812 0.06078 0.01619 0.0
C116 C 0.01366 0.07637 0.02781 0.0
C117 C 0.97123 0.01759 0.01953 0.0
C118 C 0.04228 0.04812 0.04305 0.0
C119 C 0.03558 0.00509 0.04677 0.0
H120 H 0.01181 0.91511 0.52448 0.0
H121 H 0.00342 0.9089 0.33902 0.0
H122 H 0.97529 0.97894 0.33702 0.0
H123 H 0.9535 0.0421 0.38773 0.0
H124 H 0.96247 0.04854 0.57311 0.0
H125 H -0.01015 0.97813 0.57519 0.0
C126 C 0.00386 0.92904 0.48357 0.0
C127 C 0.00981 0.90677 0.43198 0.0
C128 C -0.01226 0.96934 0.48268 0.0
C129 C -0.00073 0.92534 0.3794 0.0
C130 C 0.98313 0.9654 0.37819 0.0
C131 C 0.96131 0.02809 0.42865 0.0
C132 C 0.95589 0.0506 0.48017 0.0
C133 C 0.97726 0.98769 0.42955 0.0
C134 C 0.96631 0.03195 0.53277 0.0
C135 C 0.98201 0.99168 0.53403 0.0
H136 H 0.50179 0.57957 0.98521 0.0
H137 H 0.49668 0.5862 0.17083 0.0
H138 H 0.47308 0.51463 0.17425 0.0
H139 H 0.45411 0.45005 0.12429 0.0
H140 H 0.45978 0.44414 0.93858 0.0
H141 H 0.48294 0.51563 0.93562 0.0
C142 C 0.49554 0.56544 0.0265 0.0
C143 C 0.50104 0.58825 0.07767 0.0
C144 C 0.48205 0.52438 0.02816 0.0
C145 C 0.49274 0.56937 0.13074 0.0
C146 C 0.47923 0.52843 0.13275 0.0
C147 C 0.46035 0.46442 0.08316 0.0
C148 C 0.45517 0.44171 0.03176 0.0
C149 C 0.47379 0.50563 0.08169 0.0
C150 C 0.46349 0.46082 0.97885 0.0
C151 C 0.47675 0.50174 0.97705 0.0
H152 H 0.51718 0.44575 0.35624 0.0
H153 H 0.52979 0.43592 0.54088 0.0
H154 H 0.50398 0.50645 0.55262 0.0
H155 H 0.47669 0.57031 0.51097 0.0
H156 H 0.46368 0.5804 0.32646 0.0
H157 H 0.49082 0.5104 0.31431 0.0
C158 C 0.51442 0.45907 0.39905 0.0
C159 C 0.52539 0.43547 0.44756 0.0
C160 C 0.49938 0.49966 0.4056 0.0
C161 C 0.52159 0.4533 0.50272 0.0
C162 C 0.50678 0.49366 0.50955 0.0
C163 C 0.4798 0.55727 0.46805 0.0
C164 C 0.46801 0.58057 0.41975 0.0
C165 C 0.49538 0.51701 0.46135 0.0
C166 C 0.47241 0.56316 0.36446 0.0
C167 C 0.48795 0.5231 0.35743 0.0
H168 H 0.9841 0.22104 0.16534 0.0
H169 H 0.0742 0.30236 0.21243 0.0
H170 H 0.05127 0.30585 0.31123 0.0
H171 H 0.00978 0.27907 0.38661 0.0
H172 H 0.92119 0.19577 0.33867 0.0
H173 H 0.93937 0.20002 0.23806 0.0
C174 C -0.00152 0.24006 0.19692 0.0
C175 C 0.03113 0.26088 0.18161 0.0
C176 C -0.01435 0.2412 0.25385 0.0
C177 C 0.04914 0.28571 0.22307 0.0
C178 C 0.03614 0.28759 0.27972 0.0
C179 C -0.00586 0.26234 0.35405 0.0
C180 C 0.96452 0.23667 0.3704 0.0
C181 C 0.00508 0.26439 0.29602 0.0
C182 C 0.94443 0.21537 0.32753 0.0
C183 C 0.95477 0.21776 0.26985 0.0
H184 H 0.04113 0.72963 0.31464 0.0
H185 H 0.92966 0.74051 0.38048 0.0
H186 H 0.9051 0.74048 0.28252 0.0
H187 H 0.91587 0.7475 0.17881 0.0
H188 H 0.02713 0.73741 0.11248 0.0
H189 H 0.05115 0.72654 0.21006 0.0
C190 C 0.01141 0.73119 0.30763 0.0
C191 C -0.01266 0.73592 0.35482 0.0
C192 C -0.00254 0.73182 0.25111 0.0
C193 C 0.94888 0.73726 0.34499 0.0
C194 C 0.93478 0.73748 0.28892 0.0
C195 C 0.94533 0.74232 0.18566 0.0
C196 C 0.96978 0.74402 0.13877 0.0
C197 C 0.95891 0.73644 0.24176 0.0
C198 C 0.00777 0.73647 0.14799 0.0
C199 C 0.02153 0.73046 0.20378 0.0
H200 H 0.94713 0.77088 0.6422 0.0
H201 H 0.06526 0.76132 0.66922 0.0
H202 H 0.05611 0.7613 0.77347 0.0
H203 H 0.01484 0.7721 0.85652 0.0
H204 H 0.89659 0.7794 0.82914 0.0
H205 H 0.90546 0.77175 0.72552 0.0
C206 C 0.9708 0.76814 0.67097 0.0
C207 C 0.00678 0.76673 0.64823 0.0
C208 C 0.96534 0.76809 0.73075 0.0
C209 C 0.03725 0.76253 0.68578 0.0
C210 C 0.03206 0.76279 0.74539 0.0
C211 C -0.00896 0.77144 0.82786 0.0
C212 C 0.95521 0.77696 0.85027 0.0
C213 C -0.0037 0.76683 0.7683 0.0
C214 C 0.9245 0.77537 0.8129 0.0
C215 C 0.92953 0.77119 0.75359 0.0
H216 H 0.05748 0.22071 0.84033 0.0
H217 H 0.94707 0.25781 0.89203 0.0
H218 H 0.9265 0.25564 0.79167 0.0
H219 H 0.93833 0.23593 0.69096 0.0
H220 H 0.0484 0.19665 0.64029 0.0
H221 H 0.07065 0.20745 0.7385 0.0
C222 C 0.029 0.22882 0.82969 0.0
C223 C 0.00375 0.23884 0.87383 0.0
C224 C 0.01721 0.22686 0.77207 0.0
C225 C 0.96706 0.24971 0.85904 0.0
C226 C 0.95523 0.24835 0.80163 0.0
C227 C 0.96732 0.23031 0.70114 0.0
C228 C -0.00847 0.21496 0.65838 0.0
C229 C 0.97983 0.23586 0.75801 0.0
C230 C 0.02905 0.20811 0.67237 0.0
C231 C 0.04181 0.21418 0.72861 0.0
H232 H 0.53924 0.77927 0.18066 0.0
H233 H 0.42453 0.77548 0.12783 0.0
H234 H 0.40509 0.78013 0.22828 0.0
H235 H 0.4212 0.77218 0.33056 0.0
H236 H 0.53596 0.77442 0.38334 0.0
H237 H 0.55487 0.78431 0.28343 0.0
C238 C 0.50997 0.78043 0.19111 0.0
C239 C 0.48337 0.77605 0.14715 0.0
C240 C 0.49903 0.78234 0.24891 0.0
C241 C 0.44555 0.77845 0.16099 0.0
C242 C 0.43441 0.7808 0.21845 0.0
C243 C 0.4503 0.77576 0.32028 0.0
C244 C 0.47721 0.7716 0.36391 0.0
C245 C 0.46097 0.78072 0.26274 0.0
C246 C 0.51474 0.77716 0.35039 0.0
C247 C 0.52559 0.78253 0.29321 0.0
H248 H 0.56264 0.27895 0.29822 0.0
H249 H 0.45624 0.23197 0.3507 0.0
H250 H 0.43546 0.23152 0.2504 0.0
H251 H 0.44512 0.25227 0.14969 0.0
H252 H 0.5512 0.3008 0.09811 0.0
H253 H 0.57457 0.2923 0.19617 0.0
C254 C 0.53504 0.26809 0.28772 0.0
C255 C 0.51084 0.25614 0.33202 0.0
C256 C 0.52312 0.26845 0.23015 0.0
C257 C 0.47538 0.24159 0.31753 0.0
C258 C 0.46341 0.24148 0.26017 0.0
C259 C 0.47354 0.26039 0.15964 0.0
C260 C 0.49618 0.27775 0.11673 0.0
C261 C 0.48667 0.25604 0.21638 0.0
C262 C 0.53305 0.28769 0.13032 0.0
C263 C 0.54643 0.28299 0.18648 0.0
H264 H 0.47558 0.26652 0.82566 0.0
H265 H 0.36908 0.31609 0.77181 0.0
H266 H 0.38803 0.31217 0.6714 0.0
H267 H 0.43703 0.30256 0.59997 0.0
H268 H 0.54405 0.25426 0.65307 0.0
H269 H 0.52244 0.24913 0.75236 0.0
C270 C 0.45633 0.27587 0.79192 0.0
C271 C 0.42121 0.29225 0.8064 0.0
C272 C 0.46754 0.27402 0.73405 0.0
C273 C 0.39647 0.30384 0.76205 0.0
C274 C 0.40727 0.30167 0.7045 0.0
C275 C 0.4555 0.29032 0.63307 0.0
C276 C 0.49226 0.27948 0.61924 0.0
C277 C 0.44311 0.28806 0.69016 0.0
C278 C 0.51566 0.26313 0.66255 0.0
C279 C 0.50339 0.26037 0.71946 0.0
H280 H 0.53885 0.72962 0.83374 0.0
H281 H 0.42268 0.72644 0.87667 0.0
H282 H 0.40637 0.72829 0.77437 0.0
H283 H 0.42534 0.72363 0.67331 0.0
H284 H 0.54164 0.72062 0.6307 0.0
H285 H 0.55776 0.72871 0.73246 0.0
C286 C 0.50995 0.73009 0.82073 0.0
C287 C 0.48198 0.72779 0.86257 0.0
C288 C 0.50086 0.72964 0.76196 0.0
C289 C 0.44467 0.72799 0.84514 0.0
C290 C 0.43535 0.72896 0.78672 0.0
C291 C 0.4542 0.72538 0.68619 0.0
C292 C 0.48229 0.72134 0.64467 0.0
C293 C 0.46324 0.72869 0.7448 0.0
C294 C 0.51955 0.72337 0.66199 0.0
C295 C 0.52877 0.72798 0.72011 0.0
H296 H 0.30665 0.22052 0.04663 0.0
H297 H 0.30147 0.34656 0.97851 0.0
H298 H 0.234 0.34347 0.97485 0.0
H299 H 0.17658 0.3041 0.98773 0.0
H300 H 0.18189 0.1782 0.05636 0.0
H301 H 0.24918 0.18225 0.0631 0.0
C302 C 0.29078 0.24739 0.03122 0.0
C303 C 0.3091 0.28359 0.01261 0.0
C304 C 0.25199 0.24542 0.02908 0.0
C305 C 0.28808 0.31824 -0.00694 0.0
C306 C 0.24948 0.3165 -0.00919 0.0
C307 C 0.19244 0.27758 0.00427 0.0
C308 C 0.17423 0.24085 0.02115 0.0
C309 C 0.23116 0.28009 0.00816 0.0
C310 C 0.19519 0.20687 0.04291 0.0
C311 C 0.2337 0.2091 0.04677 0.0
H312 H 0.6602 0.80502 0.02945 0.0
H313 H 0.66126 0.67 0.01253 0.0
H314 H 0.72887 0.66952 0.01057 0.0
H315 H 0.78763 0.7075 0.01232 0.0
H316 H 0.7863 0.84258 0.02887 0.0
H317 H 0.71881 0.84284 0.03243 0.0
C318 C 0.67519 0.77546 0.02539 0.0
C319 C 0.6557 0.73766 0.02102 0.0
C320 C 0.71402 0.77538 0.0242 0.0
C321 C 0.67558 0.69961 0.0159 0.0
C322 C 0.71425 0.69928 0.01476 0.0
C323 C 0.7726 0.73699 0.01683 0.0
C324 C 0.792 0.77492 0.0202 0.0
C325 C 0.73375 0.73699 0.01869 0.0
C326 C 0.77207 0.81288 0.02608 0.0
C327 C 0.73345 0.81311 0.0281 0.0
H328 H 0.17749 0.69026 0.49035 0.0
H329 H 0.17408 0.82513 0.47147 0.0
H330 H 0.24162 0.82679 0.4705 0.0
H331 H 0.30156 0.79021 0.47608 0.0
H332 H 0.30515 0.65537 0.49492 0.0
H333 H 0.23755 0.65354 0.49483 0.0
C334 C 0.19149 0.72003 0.48592 0.0
C335 C 0.17073 0.75749 0.48108 0.0
C336 C 0.23035 0.72081 0.48548 0.0
C337 C 0.18935 0.79579 0.47531 0.0
C338 C 0.228 0.7968 0.47479 0.0
C339 C 0.2876 0.76039 0.48015 0.0
C340 C 0.3084 0.72302 0.48562 0.0
C341 C 0.24876 0.75954 0.48004 0.0
C342 C 0.28982 0.68464 0.49071 0.0
C343 C 0.25115 0.68355 0.49066 0.0
H344 H 0.67547 0.19955 0.5178 0.0
H345 H 0.68477 0.33316 0.49095 0.0
H346 H 0.75209 0.32738 0.49731 0.0
H347 H 0.80831 0.28439 0.50855 0.0
H348 H 0.79927 0.15073 0.53485 0.0
H349 H 0.7318 0.15666 0.53083 0.0
C350 C 0.6922 0.22743 0.51344 0.0
C351 C 0.67507 0.26668 0.50375 0.0
C352 C 0.73094 0.22392 0.51702 0.0
C353 C 0.6972 0.30251 0.49832 0.0
C354 C 0.73573 0.29927 0.50195 0.0
C355 C 0.79162 0.25654 0.5136 0.0
C356 C 0.80884 0.21719 0.52186 0.0
C357 C 0.75288 0.26012 0.51101 0.0
C358 C 0.78675 0.18143 0.52838 0.0
C359 C 0.74815 0.18477 0.52604 0.0
loop_
_geom_bond_atom_site_label_1
_geom_bond_atom_site_label_2
_geom_bond_distance
_geom_bond_site_symmetry_2
_ccdc_geom_bond_type
C0 O1 1.160 . S
C0 O7 1.184 1_554 S
O1 C0 1.160 . S
O2 Zn3 1.899 . S
O2 C10 1.284 . S
Zn3 O2 1.899 . S
Zn3 O4 2.032 1_554 S
Zn3 O7 2.085 1_554 S
Zn3 O12 1.976 1_554 S
O4 Zn3 2.032 1_556 S
O4 C8 1.278 . S
C5 O6 1.203 . S
C5 O12 1.263 1_554 S
O6 C5 1.203 . S
O7 C0 1.184 1_556 S
O7 Zn3 2.085 1_556 S
C8 O4 1.278 . S
C8 O9 1.211 1_455 S
O9 C8 1.211 1_655 S
C10 O2 1.284 . S
C10 O11 1.273 1_455 S
O11 C10 1.273 1_655 S
O12 Zn3 1.976 1_556 S
O12 C5 1.263 1_556 S
C13 O14 1.160 . S
C13 O20 1.184 1_554 S
O14 C13 1.160 . S
O15 Zn16 1.899 . S
O15 C23 1.284 . S
Zn16 O15 1.899 . S
Zn16 O17 2.032 1_554 S
Zn16 O20 2.085 1_554 S
Zn16 O25 1.976 1_554 S
O17 Zn16 2.032 1_556 S
O17 C21 1.278 . S
C18 O19 1.203 . S
C18 O25 1.263 1_554 S
O19 C18 1.203 . S
O20 C13 1.184 1_556 S
O20 Zn16 2.085 1_556 S
C21 O17 1.278 . S
C21 O22 1.211 1_655 S
O22 C21 1.211 1_455 S
C23 O15 1.284 . S
C23 O24 1.273 1_655 S
O24 C23 1.273 1_455 S
O25 Zn16 1.976 1_556 S
O25 C18 1.263 1_556 S
C26 O27 1.160 . S
C26 O33 1.185 . S
O27 C26 1.160 . S
O28 Zn29 1.899 . S
O28 C36 1.284 . S
Zn29 O28 1.899 . S
Zn29 O30 2.032 . S
Zn29 O33 2.086 . S
Zn29 O38 1.977 . S
O30 Zn29 2.032 . S
O30 C34 1.278 . S
C31 O32 1.203 . S
C31 O38 1.267 . S
O32 C31 1.203 . S
O33 C26 1.185 . S
O33 Zn29 2.086 . S
C34 O30 1.278 . S
C34 O35 1.211 1_455 S
O35 C34 1.211 1_655 S
C36 O28 1.284 . S
C36 O37 1.273 1_455 S
O37 C36 1.273 1_655 S
O38 Zn29 1.977 . S
O38 C31 1.267 . S
C39 O40 1.160 . S
C39 O46 1.185 . S
O40 C39 1.160 . S
O41 Zn42 1.899 . S
O41 C49 1.284 . S
Zn42 O41 1.899 . S
Zn42 O43 2.032 . S
Zn42 O46 2.086 . S
Zn42 O51 1.977 . S
O43 Zn42 2.032 . S
O43 C47 1.278 . S
C44 O45 1.203 . S
C44 O51 1.267 . S
O45 C44 1.203 . S
O46 C39 1.185 . S
O46 Zn42 2.086 . S
C47 O43 1.278 . S
C47 O48 1.211 1_655 S
O48 C47 1.211 1_455 S
C49 O41 1.284 . S
C49 O50 1.273 1_655 S
O50 C49 1.273 1_455 S
O51 Zn42 1.977 . S
O51 C44 1.267 . S
C52 O53 1.160 . S
C52 O59 1.184 1_554 S
O53 C52 1.160 . S
O54 Zn55 1.899 . S
O54 C62 1.284 . S
Zn55 O54 1.899 . S
Zn55 O56 2.032 1_554 S
Zn55 O59 2.085 1_554 S
Zn55 O64 1.976 1_554 S
O56 Zn55 2.032 1_556 S
O56 C60 1.278 . S
C57 O58 1.203 . S
C57 O64 1.263 1_554 S
O58 C57 1.203 . S
O59 C52 1.184 1_556 S
O59 Zn55 2.085 1_556 S
C60 O56 1.278 . S
C60 O61 1.211 . S
O61 C60 1.211 . S
C62 O54 1.284 . S
C62 O63 1.273 . S
O63 C62 1.273 . S
O64 Zn55 1.976 1_556 S
O64 C57 1.263 1_556 S
C65 O66 1.160 . S
C65 O72 1.184 1_554 S
O66 C65 1.160 . S
O67 Zn68 1.899 . S
O67 C75 1.284 . S
Zn68 O67 1.899 . S
Zn68 O69 2.032 1_554 S
Zn68 O72 2.085 1_554 S
Zn68 O77 1.976 1_554 S
O69 Zn68 2.032 1_556 S
O69 C73 1.278 . S
C70 O71 1.203 . S
C70 O77 1.263 1_554 S
O71 C70 1.203 . S
O72 C65 1.184 1_556 S
O72 Zn68 2.085 1_556 S
C73 O69 1.278 . S
C73 O74 1.211 . S
O74 C73 1.211 . S
C75 O67 1.284 . S
C75 O76 1.273 . S
O76 C75 1.273 . S
O77 Zn68 1.976 1_556 S
O77 C70 1.263 1_556 S
C78 O79 1.160 . S
C78 O85 1.185 . S
O79 C78 1.160 . S
O80 Zn81 1.899 . S
O80 C88 1.284 . S
Zn81 O80 1.899 . S
Zn81 O82 2.032 . S
Zn81 O85 2.086 . S
Zn81 O90 1.977 . S
O82 Zn81 2.032 . S
O82 C86 1.278 . S
C83 O84 1.203 . S
C83 O90 1.267 . S
O84 C83 1.203 . S
O85 C78 1.185 . S
O85 Zn81 2.086 . S
C86 O82 1.278 . S
C86 O87 1.211 . S
O87 C86 1.211 . S
C88 O80 1.284 . S
C88 O89 1.273 . S
O89 C88 1.273 . S
O90 Zn81 1.977 . S
O90 C83 1.267 . S
C91 O92 1.160 . S
C91 O98 1.185 . S
O92 C91 1.160 . S
O93 Zn94 1.899 . S
O93 C101 1.284 . S
Zn94 O93 1.899 . S
Zn94 O95 2.032 . S
Zn94 O98 2.086 . S
Zn94 O103 1.977 . S
O95 Zn94 2.032 . S
O95 C99 1.278 . S
C96 O97 1.203 . S
C96 O103 1.267 . S
O97 C96 1.203 . S
O98 C91 1.185 . S
O98 Zn94 2.086 . S
C99 O95 1.278 . S
C99 O100 1.211 . S
O100 C99 1.211 . S
C101 O93 1.284 . S
C101 O102 1.273 . S
O102 C101 1.273 . S
O103 Zn94 1.977 . S
O103 C96 1.267 . S
H104 C110 0.930 . S
H105 C113 0.930 . S
H106 C114 0.930 1_545 S
H107 C115 0.930 . S
H108 C118 0.930 . S
H109 C119 0.930 1_565 S
C110 H104 0.930 . S
C110 C111 1.355 1_455 S
C110 C112 1.415 . S
C111 C110 1.355 1_655 S
C111 C113 1.419 . S
C112 C110 1.415 . S
C112 C117 1.425 1_465 S
C112 C119 1.409 1_565 S
C113 H105 0.930 . S
C113 C111 1.419 . S
C113 C114 1.362 . S
C114 H106 0.930 1_565 S
C114 C113 1.362 . S
C114 C117 1.409 1_565 S
C115 H107 0.930 . S
C115 C116 1.355 1_655 S
C115 C117 1.415 . S
C116 C115 1.355 1_455 S
C116 C118 1.419 . S
C117 C112 1.425 1_645 S
C117 C114 1.409 1_545 S
C117 C115 1.415 . S
C118 H108 0.930 . S
C118 C116 1.419 . S
C118 C119 1.362 . S
C119 H109 0.930 1_545 S
C119 C112 1.409 1_545 S
C119 C118 1.362 . S
H120 C126 0.930 . S
H121 C129 0.930 . S
H122 C130 0.930 1_655 S
H123 C131 0.930 . S
H124 C134 0.930 . S
H125 C135 0.930 1_455 S
C126 H120 0.930 . S
C126 C127 1.355 . S
C126 C128 1.415 . S
C127 C126 1.355 . S
C127 C129 1.419 . S
C128 C126 1.415 . S
C128 C133 1.425 1_465 S
C128 C135 1.409 1_465 S
C129 H121 0.930 . S
C129 C127 1.419 . S
C129 C130 1.362 . S
C130 H122 0.930 1_455 S
C130 C129 1.362 . S
C130 C133 1.409 1_465 S
C131 H123 0.930 . S
C131 C132 1.355 . S
C131 C133 1.415 . S
C132 C131 1.355 . S
C132 C134 1.419 . S
C133 C128 1.425 1_645 S
C133 C130 1.409 1_645 S
C133 C131 1.415 . S
C134 H124 0.930 . S
C134 C132 1.419 . S
C134 C135 1.362 . S
C135 H125 0.930 1_655 S
C135 C128 1.409 1_645 S
C135 C134 1.362 . S
H136 C142 0.930 . S
H137 C145 0.930 . S
H138 C146 0.930 . S
H139 C147 0.930 . S
H140 C150 0.930 . S
H141 C151 0.930 . S
C142 H136 0.930 . S
C142 C143 1.355 1_556 S
C142 C144 1.415 . S
C143 C142 1.355 1_554 S
C143 C145 1.419 . S
C144 C142 1.415 . S
C144 C149 1.425 1_556 S
C144 C151 1.409 . S
C145 H137 0.930 . S
C145 C143 1.419 . S
C145 C146 1.362 . S
C146 H138 0.930 . S
C146 C145 1.362 . S
C146 C149 1.409 . S
C147 H139 0.930 . S
C147 C148 1.355 . S
C147 C149 1.415 . S
C148 C147 1.355 . S
C148 C150 1.419 1_554 S
C149 C144 1.425 1_554 S
C149 C146 1.409 . S
C149 C147 1.415 . S
C150 H140 0.930 . S
C150 C148 1.419 1_556 S
C150 C151 1.362 . S
C151 H141 0.930 . S
C151 C144 1.409 . S
C151 C150 1.362 . S
H152 C158 0.930 . S
H153 C161 0.930 . S
H154 C162 0.930 . S
H155 C163 0.930 . S
H156 C166 0.930 . S
H157 C167 0.930 . S
C158 H152 0.930 . S
C158 C159 1.355 . S
C158 C160 1.415 . S
C159 C158 1.355 . S
C159 C161 1.419 . S
C160 C158 1.415 . S
C160 C165 1.425 . S
C160 C167 1.409 . S
C161 H153 0.930 . S
C161 C159 1.419 . S
C161 C162 1.362 . S
C162 H154 0.930 . S
C162 C161 1.362 . S
C162 C165 1.409 . S
C163 H155 0.930 . S
C163 C164 1.355 . S
C163 C165 1.415 . S
C164 C163 1.355 . S
C164 C166 1.419 . S
C165 C160 1.425 . S
C165 C162 1.409 . S
C165 C163 1.415 . S
C166 H156 0.930 . S
C166 C164 1.419 . S
C166 C167 1.362 . S
C167 H157 0.930 . S
C167 C160 1.409 . S
C167 C166 1.362 . S
H168 C174 0.930 . S
H169 C177 0.930 . S
H170 C178 0.930 . S
H171 C179 0.930 . S
H172 C182 0.930 . S
H173 C183 0.930 . S
C174 H168 0.930 . S
C174 C175 1.355 1_655 S
C174 C176 1.415 . S
C175 C174 1.355 1_455 S
C175 C177 1.419 . S
C176 C174 1.415 . S
C176 C181 1.425 1_655 S
C176 C183 1.409 . S
C177 H169 0.930 . S
C177 C175 1.419 . S
C177 C178 1.362 . S
C178 H170 0.930 . S
C178 C177 1.362 . S
C178 C181 1.409 . S
C179 H171 0.930 . S
C179 C180 1.355 1_455 S
C179 C181 1.415 . S
C180 C179 1.355 1_655 S
C180 C182 1.419 . S
C181 C176 1.425 1_455 S
C181 C178 1.409 . S
C181 C179 1.415 . S
C182 H172 0.930 . S
C182 C180 1.419 . S
C182 C183 1.362 . S
C183 H173 0.930 . S
C183 C176 1.409 . S
C183 C182 1.362 . S
H184 C190 0.930 . S
H185 C193 0.930 . S
H186 C194 0.930 . S
H187 C195 0.930 . S
H188 C198 0.930 . S
H189 C199 0.930 . S
C190 H184 0.930 . S
C190 C191 1.355 . S
C190 C192 1.415 . S
C191 C190 1.355 . S
C191 C193 1.419 1_455 S
C192 C190 1.415 . S
C192 C197 1.425 1_455 S
C192 C199 1.409 . S
C193 H185 0.930 . S
C193 C191 1.419 1_655 S
C193 C194 1.362 . S
C194 H186 0.930 . S
C194 C193 1.362 . S
C194 C197 1.409 . S
C195 H187 0.930 . S
C195 C196 1.355 . S
C195 C197 1.415 . S
C196 C195 1.355 . S
C196 C198 1.419 1_655 S
C197 C192 1.425 1_655 S
C197 C194 1.409 . S
C197 C195 1.415 . S
C198 H188 0.930 . S
C198 C196 1.419 1_455 S
C198 C199 1.362 . S
C199 H189 0.930 . S
C199 C192 1.409 . S
C199 C198 1.362 . S
H200 C206 0.930 . S
H201 C209 0.930 . S
H202 C210 0.930 . S
H203 C211 0.930 . S
H204 C214 0.930 . S
H205 C215 0.930 . S
C206 H200 0.930 . S
C206 C207 1.355 1_655 S
C206 C208 1.415 . S
C207 C206 1.355 1_455 S
C207 C209 1.419 . S
C208 C206 1.415 . S
C208 C213 1.425 1_655 S
C208 C215 1.409 . S
C209 H201 0.930 . S
C209 C207 1.419 . S
C209 C210 1.362 . S
C210 H202 0.930 . S
C210 C209 1.362 . S
C210 C213 1.409 . S
C211 H203 0.930 . S
C211 C212 1.355 1_455 S
C211 C213 1.415 . S
C212 C211 1.355 1_655 S
C212 C214 1.419 . S
C213 C208 1.425 1_455 S
C213 C210 1.409 . S
C213 C211 1.415 . S
C214 H204 0.930 . S
C214 C212 1.419 . S
C214 C215 1.362 . S
C215 H205 0.930 . S
C215 C208 1.409 . S
C215 C214 1.362 . S
H216 C222 0.930 . S
H217 C225 0.930 1_655 S
H218 C226 0.930 . S
H219 C227 0.930 . S
H220 C230 0.930 1_455 S
H221 C231 0.930 . S
C222 H216 0.930 . S
C222 C223 1.355 . S
C222 C224 1.415 . S
C223 C222 1.355 . S
C223 C225 1.420 . S
C224 C222 1.415 . S
C224 C229 1.425 1_455 S
C224 C231 1.409 . S
C225 H217 0.930 1_455 S
C225 C223 1.420 . S
C225 C226 1.361 1_455 S
C226 H218 0.930 . S
C226 C225 1.361 1_655 S
C226 C229 1.409 . S
C227 H219 0.930 . S
C227 C228 1.355 . S
C227 C229 1.415 . S
C228 C227 1.355 . S
C228 C230 1.420 . S
C229 C224 1.425 1_655 S
C229 C226 1.409 . S
C229 C227 1.415 . S
C230 H220 0.930 1_655 S
C230 C228 1.420 . S
C230 C231 1.361 1_655 S
C231 H221 0.930 . S
C231 C224 1.409 . S
C231 C230 1.361 1_455 S
H232 C238 0.930 . S
H233 C241 0.930 . S
H234 C242 0.930 . S
H235 C243 0.930 . S
H236 C246 0.930 . S
H237 C247 0.930 . S
C238 H232 0.930 . S
C238 C239 1.355 . S
C238 C240 1.415 . S
C239 C238 1.355 . S
C239 C241 1.419 . S
C240 C238 1.415 . S
C240 C245 1.425 . S
C240 C247 1.409 . S
C241 H233 0.930 . S
C241 C239 1.419 . S
C241 C242 1.362 . S
C242 H234 0.930 . S
C242 C241 1.362 . S
C242 C245 1.409 . S
C243 H235 0.930 . S
C243 C244 1.355 . S
C243 C245 1.415 . S
C244 C243 1.355 . S
C244 C246 1.419 . S
C245 C240 1.425 . S
C245 C242 1.409 . S
C245 C243 1.415 . S
C246 H236 0.930 . S
C246 C244 1.419 . S
C246 C247 1.362 . S
C247 H237 0.930 . S
C247 C240 1.409 . S
C247 C246 1.362 . S
H248 C254 0.930 . S
H249 C257 0.930 . S
H250 C258 0.930 . S
H251 C259 0.930 . S
H252 C262 0.930 . S
H253 C263 0.930 . S
C254 H248 0.930 . S
C254 C255 1.355 . S
C254 C256 1.415 . S
C255 C254 1.355 . S
C255 C257 1.419 . S
C256 C254 1.415 . S
C256 C261 1.425 . S
C256 C263 1.409 . S
C257 H249 0.930 . S
C257 C255 1.419 . S
C257 C258 1.362 . S
C258 H250 0.930 . S
C258 C257 1.362 . S
C258 C261 1.409 . S
C259 H251 0.930 . S
C259 C260 1.355 . S
C259 C261 1.415 . S
C260 C259 1.355 . S
C260 C262 1.419 . S
C261 C256 1.425 . S
C261 C258 1.409 . S
C261 C259 1.415 . S
C262 H252 0.930 . S
C262 C260 1.419 . S
C262 C263 1.362 . S
C263 H253 0.930 . S
C263 C256 1.409 . S
C263 C262 1.362 . S
H264 C270 0.930 . S
H265 C273 0.930 . S
H266 C274 0.930 . S
H267 C275 0.930 . S
H268 C278 0.930 . S
H269 C279 0.930 . S
C270 H264 0.930 . S
C270 C271 1.355 . S
C270 C272 1.415 . S
C271 C270 1.355 . S
C271 C273 1.419 . S
C272 C270 1.415 . S
C272 C277 1.425 . S
C272 C279 1.409 . S
C273 H265 0.930 . S
C273 C271 1.419 . S
C273 C274 1.362 . S
C274 H266 0.930 . S
C274 C273 1.362 . S
C274 C277 1.409 . S
C275 H267 0.930 . S
C275 C276 1.355 . S
C275 C277 1.415 . S
C276 C275 1.355 . S
C276 C278 1.419 . S
C277 C272 1.425 . S
C277 C274 1.409 . S
C277 C275 1.415 . S
C278 H268 0.930 . S
C278 C276 1.419 . S
C278 C279 1.362 . S
C279 H269 0.930 . S
C279 C272 1.409 . S
C279 C278 1.362 . S
H280 C286 0.930 . S
H281 C289 0.930 . S
H282 C290 0.930 . S
H283 C291 0.930 . S
H284 C294 0.930 . S
H285 C295 0.930 . S
C286 H280 0.930 . S
C286 C287 1.355 . S
C286 C288 1.415 . S
C287 C286 1.355 . S
C287 C289 1.419 . S
C288 C286 1.415 . S
C288 C293 1.425 . S
C288 C295 1.409 . S
C289 H281 0.930 . S
C289 C287 1.419 . S
C289 C290 1.362 . S
C290 H282 0.930 . S
C290 C289 1.362 . S
C290 C293 1.409 . S
C291 H283 0.930 . S
C291 C292 1.355 . S
C291 C293 1.415 . S
C292 C291 1.355 . S
C292 C294 1.419 . S
C293 C288 1.425 . S
C293 C290 1.409 . S
C293 C291 1.415 . S
C294 H284 0.930 . S
C294 C292 1.419 . S
C294 C295 1.362 . S
C295 H285 0.930 . S
C295 C288 1.409 . S
C295 C294 1.362 . S
H296 C302 0.930 . S
H297 C305 0.930 . S
H298 C306 0.930 . S
H299 C307 0.930 . S
H300 C310 0.930 . S
H301 C311 0.930 . S
C302 H296 0.930 . S
C302 C303 1.355 1_556 S
C302 C304 1.415 . S
C303 C302 1.355 1_554 S
C303 C305 1.419 . S
C304 C302 1.415 . S
C304 C309 1.425 1_556 S
C304 C311 1.409 . S
C305 H297 0.930 . S
C305 C303 1.419 . S
C305 C306 1.362 . S
C306 H298 0.930 . S
C306 C305 1.362 . S
C306 C309 1.409 . S
C307 H299 0.930 . S
C307 C308 1.354 . S
C307 C309 1.415 . S
C308 C307 1.354 . S
C308 C310 1.420 1_554 S
C309 C304 1.425 1_554 S
C309 C306 1.409 . S
C309 C307 1.415 . S
C310 H300 0.930 . S
C310 C308 1.420 1_556 S
C310 C311 1.362 . S
C311 H301 0.930 . S
C311 C304 1.409 . S
C311 C310 1.362 . S
H312 C318 0.930 . S
H313 C321 0.930 . S
H314 C322 0.930 . S
H315 C323 0.930 . S
H316 C326 0.930 . S
H317 C327 0.930 . S
C318 H312 0.930 . S
C318 C319 1.352 1_554 S
C318 C320 1.415 . S
C319 C318 1.352 1_556 S
C319 C321 1.423 . S
C320 C318 1.415 . S
C320 C325 1.425 1_554 S
C320 C327 1.409 . S
C321 H313 0.930 . S
C321 C319 1.423 . S
C321 C322 1.362 . S
C322 H314 0.930 . S
C322 C321 1.362 . S
C322 C325 1.409 . S
C323 H315 0.930 . S
C323 C324 1.355 1_556 S
C323 C325 1.415 . S
C324 C323 1.355 1_554 S
C324 C326 1.419 . S
C325 C320 1.425 1_556 S
C325 C322 1.409 . S
C325 C323 1.415 . S
C326 H316 0.930 . S
C326 C324 1.419 . S
C326 C327 1.362 . S
C327 H317 0.930 . S
C327 C320 1.409 . S
C327 C326 1.362 . S
H328 C334 0.930 . S
H329 C337 0.930 . S
H330 C338 0.930 . S
H331 C339 0.930 . S
H332 C342 0.930 . S
H333 C343 0.930 . S
C334 H328 0.930 . S
C334 C335 1.355 . S
C334 C336 1.415 . S
C335 C334 1.355 . S
C335 C337 1.419 . S
C336 C334 1.415 . S
C336 C341 1.425 . S
C336 C343 1.409 . S
C337 H329 0.930 . S
C337 C335 1.419 . S
C337 C338 1.362 . S
C338 H330 0.930 . S
C338 C337 1.362 . S
C338 C341 1.409 . S
C339 H331 0.930 . S
C339 C340 1.355 . S
C339 C341 1.415 . S
C340 C339 1.355 . S
C340 C342 1.419 . S
C341 C336 1.425 . S
C341 C338 1.409 . S
C341 C339 1.415 . S
C342 H332 0.930 . S
C342 C340 1.419 . S
C342 C343 1.362 . S
C343 H333 0.930 . S
C343 C336 1.409 . S
C343 C342 1.362 . S
H344 C350 0.930 . S
H345 C353 0.930 . S
H346 C354 0.930 . S
H347 C355 0.930 . S
H348 C358 0.930 . S
H349 C359 0.930 . S
C350 H344 0.930 . S
C350 C351 1.355 . S
C350 C352 1.415 . S
C351 C350 1.355 . S
C351 C353 1.419 . S
C352 C350 1.415 . S
C352 C357 1.425 . S
C352 C359 1.409 . S
C353 H345 0.930 . S
C353 C351 1.419 . S
C353 C354 1.362 . S
C354 H346 0.930 . S
C354 C353 1.362 . S
C354 C357 1.409 . S
C355 H347 0.930 . S
C355 C356 1.355 . S
C355 C357 1.415 . S
C356 C355 1.355 . S
C356 C358 1.419 . S
C357 C352 1.425 . S
C357 C354 1.409 . S
C357 C355 1.415 . S
C358 H348 0.930 . S
C358 C356 1.419 . S
C358 C359 1.362 . S
C359 H349 0.930 . S
C359 C352 1.409 . S
C359 C358 1.362 . S
C111 C18 1.495 . S
C116 C5 1.501 . S
C127 C31 1.445 . S
C132 C44 1.465 . S
C143 C57 1.459 . S
C148 C70 1.481 . S
C159 C83 1.489 . S
C164 C96 1.468 . S
C175 C10 1.281 . S
C180 C49 1.249 . S
C191 C36 1.284 . S
C196 C23 1.271 . S
C207 C34 1.155 . S
C212 C21 1.181 . S
C223 C8 1.127 . S
C228 C47 1.226 . S
C239 C62 1.276 . S
C244 C101 1.281 . S
C255 C88 1.283 . S
C260 C75 1.274 . S
C271 C73 1.114 . S
C276 C86 1.232 . S
C287 C60 1.200 . S
C292 C99 1.159 . S
C303 C65 1.510 . S
C308 C0 1.528 . S
C319 C52 1.528 1_556 S
C324 C13 1.506 . S
C335 C26 1.536 . S
C340 C91 1.501 . S
C351 C78 1.542 . S
C356 C39 1.493 . S
