# Generated by pormake.
# Topology yfx, (5)-cn, num edge types: 1
# Building blocks:
#     Node 0, Type 0, BuildingBlock: BEQFEK_clean_sbu_0, # of connection points: 5
#     Node 1, Type 0, BuildingBlock: BEQFEK_clean_sbu_0, # of connection points: 5
#     Node 2, Type 0, BuildingBlock: BEQFEK_clean_sbu_0, # of connection points: 5
#     Node 3, Type 0, BuildingBlock: BEQFEK_clean_sbu_0, # of connection points: 5
#     Node 4, Type 0, BuildingBlock: BEQFEK_clean_sbu_0, # of connection points: 5
#     Node 5, Type 0, BuildingBlock: BEQFEK_clean_sbu_0, # of connection points: 5
#     Node 6, Type 0, BuildingBlock: BEQFEK_clean_sbu_0, # of connection points: 5
#     Node 7, Type 0, BuildingBlock: BEQFEK_clean_sbu_0, # of connection points: 5
#     Edge 8, Type (0, 0), BuildingBlock: ZUJKAS_clean_linker_0, # of connection points: 2
#     Edge 9, Type (0, 0), BuildingBlock: ZUJKAS_clean_linker_0, # of connection points: 2
#     Edge 10, Type (0, 0), BuildingBlock: ZUJKAS_clean_linker_0, # of connection points: 2
#     Edge 11, Type (0, 0), BuildingBlock: ZUJKAS_clean_linker_0, # of connection points: 2
#     Edge 12, Type (0, 0), BuildingBlock: ZUJKAS_clean_linker_0, # of connection points: 2
#     Edge 13, Type (0, 0), BuildingBlock: ZUJKAS_clean_linker_0, # of connection points: 2
#     Edge 14, Type (0, 0), BuildingBlock: ZUJKAS_clean_linker_0, # of connection points: 2
#     Edge 15, Type (0, 0), BuildingBlock: ZUJKAS_clean_linker_0, # of connection points: 2
#     Edge 16, Type (0, 0), BuildingBlock: ZUJKAS_clean_linker_0, # of connection points: 2
#     Edge 17, Type (0, 0), BuildingBlock: ZUJKAS_clean_linker_0, # of connection points: 2
#     Edge 18, Type (0, 0), BuildingBlock: ZUJKAS_clean_linker_0, # of connection points: 2
#     Edge 19, Type (0, 0), BuildingBlock: ZUJKAS_clean_linker_0, # of connection points: 2
#     Edge 20, Type (0, 0), BuildingBlock: ZUJKAS_clean_linker_0, # of connection points: 2
#     Edge 21, Type (0, 0), BuildingBlock: ZUJKAS_clean_linker_0, # of connection points: 2
#     Edge 22, Type (0, 0), BuildingBlock: ZUJKAS_clean_linker_0, # of connection points: 2
#     Edge 23, Type (0, 0), BuildingBlock: ZUJKAS_clean_linker_0, # of connection points: 2
#     Edge 24, Type (0, 0), BuildingBlock: ZUJKAS_clean_linker_0, # of connection points: 2
#     Edge 25, Type (0, 0), BuildingBlock: ZUJKAS_clean_linker_0, # of connection points: 2
#     Edge 26, Type (0, 0), BuildingBlock: ZUJKAS_clean_linker_0, # of connection points: 2
#     Edge 27, Type (0, 0), BuildingBlock: ZUJKAS_clean_linker_0, # of connection points: 2
# Relax obj value: 0.174
# Max RMSD: 0.155
# Mean RMSD: 0.155
data_MOF--net-yfx--node1-BEQFEK_clean_sbu_0--edge1-ZUJKAS_clean_linker_0
_symmetry_space_group_name_H-M    P1
_symmetry_Int_Tables_number       1
_symmetry_cell_setting            triclinic
loop_
_symmetry_equiv_pos_as_xyz
'x, y, z'
_cell_length_a     49.577126
_cell_length_b     49.562324
_cell_length_c     28.842138
_cell_angle_alpha  90.049778
_cell_angle_beta   89.967011
_cell_angle_gamma 89.96449
loop_
_atom_site_label
_atom_site_type_symbol
_atom_site_fract_x
_atom_site_fract_y
_atom_site_fract_z
_atom_type_partial_charge
Co0 Co 0.24801 0.36213 0.00804 0.0
Co1 Co 0.18581 0.37395 0.02055 0.0
C2 C 0.20598 0.33505 0.94944 0.0
O3 O 0.22971 0.33873 0.96444 0.0
O4 O 0.18589 0.34827 0.96549 0.0
C5 C 0.29744 0.34453 0.96623 0.0
O6 O 0.28141 0.33506 0.93383 0.0
C7 C 0.13306 0.40146 0.00216 0.0
C8 C 0.11456 0.39973 0.07174 0.0
C9 C 0.11041 0.40957 0.02736 0.0
N10 N 0.14985 0.38792 0.03075 0.0
N11 N 0.13844 0.38683 0.07213 0.0
C12 C 0.13801 0.40509 0.95136 0.0
H13 H 0.15357 0.39068 0.93899 0.0
H14 H 0.14524 0.42582 0.94441 0.0
H15 H 0.11895 0.40217 0.9318 0.0
C16 C 0.25057 0.42017 0.99735 0.0
N17 N 0.23611 0.39755 0.00265 0.0
N18 N 0.21065 0.40359 0.01085 0.0
C19 C 0.20844 0.43083 0.0121 0.0
C20 C 0.23361 0.44201 0.00326 0.0
C21 C 0.28026 0.4206 0.98791 0.0
H22 H 0.29123 0.41441 0.0197 0.0
H23 H 0.28511 0.40589 0.96013 0.0
H24 H 0.28724 0.44092 0.97716 0.0
O25 O 0.24091 0.34949 0.07012 0.0
O26 O 0.19645 0.3529 0.07846 0.0
H27 H 0.17226 0.43424 0.05286 0.0
H28 H 0.18946 0.46579 0.04248 0.0
C29 C 0.18386 0.44604 0.02708 0.0
H30 H 0.17098 0.45006 0.99652 0.0
H31 H 0.14725 0.37775 0.10102 0.0
O32 O 0.28746 0.35813 0.99947 0.0
C33 C 0.21963 0.34589 0.09367 0.0
Co34 Co 0.64175 0.24597 0.98938 0.0
Co35 Co 0.63 0.18591 0.01884 0.0
C36 C 0.65668 0.20101 0.92779 0.0
O37 O 0.65329 0.22592 0.9358 0.0
O38 O 0.64999 0.18289 0.95716 0.0
C39 C 0.6705 0.29052 0.96165 0.0
O40 O 0.68698 0.27068 0.951 0.0
C41 C 0.60081 0.13379 0.01009 0.0
C42 C 0.60253 0.11876 0.08204 0.0
C43 C 0.59183 0.11299 0.03873 0.0
N44 N 0.61578 0.15102 0.03556 0.0
N45 N 0.61703 0.14161 0.07836 0.0
C46 C 0.59319 0.13883 0.96068 0.0
H47 H 0.59635 0.16036 0.95161 0.0
H48 H 0.57184 0.13313 0.95455 0.0
H49 H 0.60612 0.12628 0.93782 0.0
C50 C 0.584 0.25177 0.00365 0.0
N51 N 0.60648 0.23673 0.00392 0.0
N52 N 0.60073 0.21178 0.01613 0.0
C53 C 0.57394 0.21042 0.02475 0.0
C54 C 0.5626 0.23569 0.01709 0.0
C55 C 0.58309 0.28053 0.98785 0.0
H56 H 0.59127 0.29364 0.0157 0.0
H57 H 0.59601 0.28304 0.95674 0.0
H58 H 0.56226 0.28706 0.97944 0.0
O59 O 0.66548 0.23829 0.04121 0.0
O60 O 0.65656 0.1974 0.06833 0.0
H61 H 0.57186 0.1756 0.06869 0.0
H62 H 0.53967 0.19139 0.05749 0.0
C63 C 0.55948 0.18596 0.04216 0.0
H64 H 0.55596 0.17191 0.01289 0.0
H65 H 0.62689 0.15139 0.10556 0.0
O66 O 0.64729 0.28485 0.97771 0.0
C67 C 0.66964 0.21956 0.07026 0.0
Co68 Co 0.7542 0.63577 0.99143 0.0
Co69 Co 0.81516 0.62979 0.02084 0.0
C70 C 0.79737 0.65988 0.9344 0.0
O71 O 0.77297 0.65371 0.94181 0.0
O72 O 0.81617 0.65291 0.96226 0.0
C73 C 0.70512 0.64833 0.94387 0.0
O74 O 0.72141 0.6568 0.91106 0.0
C75 C 0.86855 0.60363 0.00926 0.0
C76 C 0.88671 0.60988 0.07823 0.0
C77 C 0.89126 0.59729 0.03589 0.0
N78 N 0.85157 0.61873 0.03511 0.0
N79 N 0.8628 0.62268 0.07605 0.0
C80 C 0.86171 0.5939 0.96158 0.0
H81 H 0.83991 0.59677 0.95438 0.0
H82 H 0.86712 0.57229 0.95757 0.0
H83 H 0.87334 0.60574 0.9358 0.0
C84 C 0.75531 0.57734 0.99618 0.0
N85 N 0.76781 0.60124 0.99929 0.0
N86 N 0.79278 0.59789 0.01374 0.0
C87 C 0.79656 0.57122 0.02175 0.0
C88 C 0.77298 0.55747 0.0106 0.0
C89 C 0.72712 0.57387 0.97859 0.0
H90 H 0.7127 0.57904 0.00668 0.0
H91 H 0.72351 0.58781 0.94917 0.0
H92 H 0.72334 0.55287 0.96696 0.0
O93 O 0.75838 0.65617 0.04882 0.0
O94 O 0.80055 0.65261 0.07361 0.0
H95 H 0.83028 0.57391 0.0684 0.0
H96 H 0.81556 0.54067 0.0637 0.0
C97 C 0.82095 0.55923 0.04428 0.0
H98 H 0.83578 0.55357 0.01724 0.0
H99 H 0.85369 0.63329 0.10312 0.0
O100 O 0.71494 0.63669 0.97931 0.0
C101 C 0.77651 0.66153 0.0785 0.0
Co102 Co 0.36929 0.74957 0.00092 0.0
Co103 Co 0.37693 0.8122 0.01808 0.0
C104 C 0.34738 0.79074 0.93507 0.0
O105 O 0.35186 0.76689 0.94894 0.0
O106 O 0.35525 0.8113 0.95815 0.0
C107 C 0.35836 0.69939 0.95518 0.0
O108 O 0.35303 0.71492 0.91947 0.0
C109 C 0.40159 0.86681 0.00407 0.0
C110 C 0.40066 0.88232 0.07581 0.0
C111 C 0.40966 0.88861 0.03159 0.0
N112 N 0.38908 0.84849 0.03126 0.0
N113 N 0.38836 0.85817 0.07393 0.0
C114 C 0.40467 0.86375 0.9527 0.0
H115 H 0.38913 0.84988 0.93881 0.0
H116 H 0.42474 0.85511 0.94457 0.0
H117 H 0.40299 0.88368 0.93538 0.0
C118 C 0.42764 0.74955 0.00485 0.0
N119 N 0.40406 0.76272 0.00661 0.0
N120 N 0.40817 0.78858 0.01466 0.0
C121 C 0.43509 0.79243 0.01905 0.0
C122 C 0.4481 0.76785 0.0129 0.0
C123 C 0.43024 0.72019 0.99335 0.0
H124 H 0.42253 0.70807 0.02284 0.0
H125 H 0.41768 0.71549 0.96258 0.0
H126 H 0.45141 0.71436 0.98601 0.0
O127 O 0.34971 0.75651 0.0579 0.0
O128 O 0.35269 0.80055 0.07127 0.0
H129 H 0.43643 0.82885 0.05918 0.0
H130 H 0.46914 0.81522 0.04446 0.0
C131 C 0.44826 0.81853 0.03182 0.0
H132 H 0.4492 0.83171 0.00091 0.0
H133 H 0.38019 0.84787 0.10218 0.0
O134 O 0.36745 0.70994 0.99221 0.0
C135 C 0.34427 0.77706 0.0824 0.0
Co136 Co 0.74899 0.8651 0.49804 0.0
Co137 Co 0.68792 0.87526 0.52331 0.0
C138 C 0.70449 0.83579 0.44969 0.0
O139 O 0.72905 0.84054 0.45863 0.0
O140 O 0.68535 0.84826 0.4703 0.0
C141 C 0.79645 0.84807 0.44927 0.0
O142 O 0.77918 0.83826 0.41915 0.0
C143 C 0.6335 0.90049 0.51265 0.0
C144 C 0.61997 0.9013 0.58553 0.0
C145 C 0.61257 0.90953 0.54134 0.0
N146 N 0.65227 0.88813 0.5391 0.0
N147 N 0.64374 0.88836 0.58248 0.0
C148 C 0.63694 0.9051 0.46174 0.0
H149 H 0.6582 0.90149 0.45126 0.0
H150 H 0.63087 0.92595 0.45238 0.0
H151 H 0.62389 0.89078 0.44249 0.0
C152 C 0.74848 0.92296 0.482 0.0
N153 N 0.73564 0.90008 0.49323 0.0
N154 N 0.71083 0.90549 0.50683 0.0
C155 C 0.70758 0.93263 0.5061 0.0
C156 C 0.73115 0.94436 0.48949 0.0
C157 C 0.7776 0.92417 0.46836 0.0
H158 H 0.79007 0.91579 0.49686 0.0
H159 H 0.78089 0.91136 0.43729 0.0
H160 H 0.78433 0.94507 0.46101 0.0
O161 O 0.74622 0.85287 0.56162 0.0
O162 O 0.7029 0.85609 0.58019 0.0
H163 H 0.67375 0.93646 0.55223 0.0
H164 H 0.68801 0.96817 0.53359 0.0
C165 C 0.68303 0.9473 0.5227 0.0
H166 H 0.66827 0.94867 0.494 0.0
H167 H 0.65465 0.88055 0.61033 0.0
O168 O 0.78779 0.86204 0.48313 0.0
C169 C 0.72711 0.84945 0.59026 0.0
Co170 Co 0.13303 0.75142 0.50688 0.0
Co171 Co 0.12689 0.68833 0.51832 0.0
C172 C 0.15526 0.7136 0.43631 0.0
O173 O 0.15042 0.73696 0.45227 0.0
O174 O 0.14794 0.69228 0.45788 0.0
C175 C 0.14214 0.80434 0.4695 0.0
O176 O 0.14664 0.79137 0.43052 0.0
C177 C 0.10123 0.635 0.49855 0.0
C178 C 0.10791 0.61406 0.56508 0.0
C179 C 0.09543 0.61119 0.52236 0.0
N180 N 0.1159 0.65122 0.52645 0.0
N181 N 0.12004 0.63833 0.5659 0.0
C182 C 0.09418 0.64174 0.44944 0.0
H183 H 0.10846 0.6569 0.4354 0.0
H184 H 0.07363 0.65041 0.44778 0.0
H185 H 0.09453 0.62326 0.42768 0.0
C186 C 0.07476 0.7501 0.51204 0.0
N187 N 0.09857 0.73734 0.51201 0.0
N188 N 0.09507 0.71131 0.51909 0.0
C189 C 0.06832 0.70697 0.5253 0.0
C190 C 0.05478 0.73138 0.52076 0.0
C191 C 0.07142 0.77952 0.50168 0.0
H192 H 0.07758 0.79142 0.5325 0.0
H193 H 0.08475 0.78523 0.47241 0.0
H194 H 0.05029 0.78463 0.49261 0.0
O195 O 0.15326 0.74259 0.56227 0.0
O196 O 0.15139 0.6982 0.57206 0.0
H197 H 0.07012 0.66892 0.56096 0.0
H198 H 0.03713 0.68441 0.55983 0.0
C199 C 0.05586 0.68079 0.53962 0.0
H200 H 0.05027 0.66908 0.5084 0.0
H201 H 0.13049 0.64646 0.59404 0.0
O202 O 0.13409 0.79129 0.50478 0.0
C203 C 0.15938 0.72154 0.58486 0.0
Co204 Co 0.25447 0.14131 0.49023 0.0
Co205 Co 0.31487 0.12946 0.51643 0.0
C206 C 0.29771 0.15614 0.42596 0.0
O207 O 0.273 0.15259 0.43518 0.0
O208 O 0.31628 0.14963 0.45461 0.0
C209 C 0.20895 0.16909 0.46325 0.0
O210 O 0.22815 0.18584 0.45077 0.0
C211 C 0.36573 0.09842 0.50391 0.0
C212 C 0.38689 0.10691 0.56963 0.0
C213 C 0.38914 0.09245 0.52863 0.0
N214 N 0.35035 0.11527 0.52952 0.0
N215 N 0.36326 0.12031 0.56863 0.0
C216 C 0.35872 0.08962 0.45574 0.0
H217 H 0.34319 0.10311 0.44063 0.0
H218 H 0.35051 0.06885 0.45641 0.0
H219 H 0.37704 0.08953 0.4336 0.0
C220 C 0.24876 0.0837 0.5054 0.0
N221 N 0.26398 0.10601 0.5041 0.0
N222 N 0.28893 0.10028 0.5163 0.0
C223 C 0.28999 0.07377 0.52741 0.0
C224 C 0.26459 0.0625 0.52064 0.0
C225 C 0.21997 0.08274 0.48978 0.0
H226 H 0.20683 0.09028 0.51812 0.0
H227 H 0.21718 0.09601 0.45923 0.0
H228 H 0.21372 0.06194 0.48045 0.0
O229 O 0.26324 0.16527 0.54178 0.0
O230 O 0.30457 0.15599 0.56665 0.0
H231 H 0.3074 0.04263 0.57008 0.0
H232 H 0.32684 0.05181 0.52012 0.0
C233 C 0.31388 0.05986 0.54818 0.0
H234 H 0.32576 0.07415 0.56951 0.0
H235 H 0.35578 0.13269 0.595 0.0
O236 O 0.21542 0.14645 0.48068 0.0
C237 C 0.28255 0.16925 0.56985 0.0
Co238 Co 0.86082 0.25651 0.49116 0.0
Co239 Co 0.87139 0.31724 0.51944 0.0
C240 C 0.84361 0.30082 0.42992 0.0
O241 O 0.84712 0.276 0.43855 0.0
O242 O 0.85091 0.31932 0.45819 0.0
C243 C 0.84628 0.20716 0.44475 0.0
O244 O 0.83949 0.22314 0.41037 0.0
C245 C 0.89944 0.36993 0.50886 0.0
C246 C 0.89623 0.38637 0.57976 0.0
C247 C 0.90747 0.39164 0.53659 0.0
N248 N 0.88466 0.35277 0.53484 0.0
N249 N 0.88254 0.363 0.57697 0.0
C250 C 0.90737 0.36412 0.4598 0.0
H251 H 0.90412 0.34248 0.45152 0.0
H252 H 0.92882 0.36951 0.45386 0.0
H253 H 0.89468 0.37638 0.43617 0.0
C254 C 0.9191 0.25326 0.4987 0.0
N255 N 0.89607 0.26724 0.50284 0.0
N256 N 0.90131 0.29221 0.51572 0.0
C257 C 0.9283 0.29445 0.52167 0.0
C258 C 0.94029 0.26998 0.51037 0.0
C259 C 0.9205 0.22445 0.48324 0.0
H260 H 0.90846 0.21181 0.50728 0.0
H261 H 0.9114 0.2226 0.44824 0.0
H262 H 0.94153 0.2168 0.48247 0.0
O263 O 0.83788 0.26365 0.5444 0.0
O264 O 0.84571 0.30517 0.56998 0.0
H265 H 0.93037 0.33059 0.56264 0.0
H266 H 0.96252 0.3145 0.55244 0.0
C267 C 0.94267 0.31945 0.5369 0.0
H268 H 0.94631 0.33252 0.50641 0.0
H269 H 0.87254 0.35354 0.60433 0.0
O270 O 0.85729 0.21716 0.48065 0.0
C271 C 0.8335 0.28256 0.5731 0.0
H272 H 0.52041 0.2131 0.9712 0.0
H273 H 0.4746 0.23158 0.96429 0.0
H274 H 0.49518 0.29491 0.06074 0.0
H275 H 0.54105 0.27678 0.06684 0.0
H276 H 0.43351 0.24299 0.02671 0.0
H277 H 0.47256 0.33676 0.94575 0.0
H278 H 0.4933 0.30725 0.95427 0.0
H279 H 0.4867 0.32986 0.00177 0.0
C280 C 0.51487 0.23066 0.99149 0.0
C281 C 0.53406 0.24377 0.01918 0.0
C282 C 0.48885 0.24125 0.98741 0.0
C283 C 0.48179 0.265 0.01109 0.0
C284 C 0.50048 0.277 0.04123 0.0
H285 H 0.33647 0.36127 0.02673 0.0
H286 H 0.38172 0.34225 0.03628 0.0
C287 C 0.52652 0.26656 0.04498 0.0
C288 C 0.45532 0.27787 0.00279 0.0
H289 H 0.42586 0.33594 0.96399 0.0
C290 C 0.43181 0.26326 0.01284 0.0
C291 C 0.45323 0.30428 0.98439 0.0
C292 C 0.47777 0.32039 0.97047 0.0
C293 C 0.40621 0.27459 0.00579 0.0
C294 C 0.4042 0.30106 0.98794 0.0
C295 C 0.42763 0.31567 0.97781 0.0
C296 C 0.3778 0.31388 0.9797 0.0
C297 C 0.38145 0.25841 0.01807 0.0
C298 C 0.36115 0.30474 0.94374 0.0
C299 C 0.33541 0.31566 0.93792 0.0
C300 C 0.32591 0.3358 0.9682 0.0
C301 C 0.34315 0.34569 0.00299 0.0
C302 C 0.36896 0.33486 0.00856 0.0
H303 H 0.38648 0.24014 0.03862 0.0
H304 H 0.36699 0.27096 0.03813 0.0
H305 H 0.37121 0.25189 0.98574 0.0
H306 H 0.36787 0.28877 0.92081 0.0
H307 H 0.32265 0.30762 0.91075 0.0
H308 H 0.6467 0.33525 -0.00035 0.0
H309 H 0.66653 0.38028 0.00765 0.0
H310 H 0.73699 0.35392 0.93242 0.0
H311 H 0.71734 0.30901 0.92393 0.0
H312 H 0.71748 0.39009 0.05268 0.0
H313 H 0.71633 0.42623 0.87022 0.0
H314 H 0.6953 0.39885 0.89017 0.0
H315 H 0.73049 0.39323 0.87896 0.0
C316 C 0.66619 0.33919 0.98405 0.0
C317 C 0.6805 0.31858 0.96127 0.0
C318 C 0.67752 0.36485 0.98885 0.0
C319 C 0.70314 0.37037 0.97046 0.0
C320 C 0.71705 0.35012 0.94635 0.0
H321 H 0.80174 0.51623 0.97248 0.0
H322 H 0.78783 0.46872 0.96684 0.0
C323 C 0.70582 0.32446 0.94171 0.0
C324 C 0.71606 0.39677 0.97895 0.0
H325 H 0.7396 0.45318 0.92477 0.0
C326 C 0.7223 0.40395 0.02478 0.0
C327 C 0.72256 0.41455 0.94236 0.0
C328 C 0.71568 0.40803 0.89264 0.0
C329 C 0.73489 0.42857 0.03505 0.0
C330 C 0.74093 0.4466 0.99855 0.0
C331 C 0.73508 0.43921 0.95264 0.0
C332 C 0.75142 0.47406 0.0073 0.0
C333 C 0.74179 0.43497 0.08479 0.0
C334 C 0.73583 0.49254 0.03263 0.0
C335 C 0.74377 0.51944 0.03593 0.0
C336 C 0.76729 0.52834 0.01364 0.0
C337 C 0.78361 0.50967 0.99015 0.0
C338 C 0.77561 0.48268 0.98672 0.0
H339 H 0.74362 0.41633 0.10595 0.0
H340 H 0.76097 0.44645 0.08721 0.0
H341 H 0.72547 0.44748 0.10005 0.0
H342 H 0.71687 0.48643 0.04809 0.0
H343 H 0.73097 0.53356 0.05439 0.0
H344 H 0.66629 0.63577 0.00758 0.0
H345 H 0.6224 0.65757 0.017 0.0
H346 H 0.63643 0.70433 0.89328 0.0
H347 H 0.68011 0.68236 0.88306 0.0
H348 H 0.617 0.71262 0.03057 0.0
H349 H 0.55879 0.6795 0.87624 0.0
H350 H 0.58905 0.66251 0.89521 0.0
H351 H 0.5913 0.69346 0.86299 0.0
C352 C 0.65977 0.65022 0.98173 0.0
C353 C 0.67675 0.65746 0.94471 0.0
C354 C 0.63474 0.66271 0.98729 0.0
C355 C 0.6262 0.68251 0.95582 0.0
C356 C 0.64248 0.68881 0.91756 0.0
H357 H 0.48567 0.78847 0.95437 0.0
H358 H 0.53168 0.77121 0.94231 0.0
C359 C 0.66748 0.67625 0.91186 0.0
C360 C 0.60143 0.69819 0.96534 0.0
H361 H 0.5397 0.71466 0.92153 0.0
C362 C 0.60006 0.71302 0.0068 0.0
C363 C 0.57953 0.69885 0.93403 0.0
C364 C 0.57954 0.68255 0.88981 0.0
C365 C 0.57725 0.72846 0.01788 0.0
C366 C 0.55527 0.72888 0.98682 0.0
C367 C 0.55678 0.71443 0.94503 0.0
C368 C 0.52962 0.74238 0.99852 0.0
C369 C 0.57683 0.74426 0.0626 0.0
C370 C 0.51369 0.73227 0.03473 0.0
C371 C 0.4876 0.74202 0.04149 0.0
C372 C 0.47716 0.76199 0.01213 0.0
C373 C 0.49358 0.77324 0.97762 0.0
C374 C 0.51966 0.76332 0.97059 0.0
H375 H 0.59748 0.74746 0.0765 0.0
H376 H 0.56701 0.7642 0.05764 0.0
H377 H 0.56507 0.73292 0.08889 0.0
H378 H 0.52089 0.71583 0.05616 0.0
H379 H 0.47507 0.73302 0.06808 0.0
H380 H 0.26915 0.46592 0.06117 0.0
H381 H 0.28885 0.51099 0.05321 0.0
H382 H 0.23728 0.52638 0.93559 0.0
H383 H 0.21703 0.48147 0.94458 0.0
H384 H 0.31713 0.5266 0.97808 0.0
H385 H 0.23127 0.59668 0.00583 0.0
H386 H 0.2298 0.56151 0.02183 0.0
H387 H 0.22493 0.57148 0.96247 0.0
C388 C 0.26159 0.47931 0.03449 0.0
C389 C 0.24166 0.47055 0.00349 0.0
C390 C 0.27288 0.50491 0.02981 0.0
C391 C 0.26447 0.52208 0.99394 0.0
C392 C 0.2437 0.51369 0.96407 0.0
H393 H 0.32794 0.67369 0.88976 0.0
H394 H 0.30662 0.62938 0.8964 0.0
C395 C 0.23218 0.48811 0.9691 0.0
C396 C 0.27923 0.54755 0.9854 0.0
H397 H 0.27168 0.61576 0.97575 0.0
C398 C 0.3072 0.54611 0.97781 0.0
C399 C 0.2662 0.57294 0.98477 0.0
C400 C 0.23644 0.57586 0.99458 0.0
C401 C 0.3225 0.56939 0.96951 0.0
C402 C 0.30947 0.5947 0.96896 0.0
C403 C 0.2815 0.59619 0.97601 0.0
C404 C 0.32463 0.62005 0.96273 0.0
C405 C 0.35241 0.56678 0.961 0.0
C406 C 0.34219 0.62911 0.9975 0.0
C407 C 0.35436 0.65442 0.99393 0.0
C408 C 0.34912 0.67106 0.95551 0.0
C409 C 0.33246 0.66135 0.91975 0.0
C410 C 0.32015 0.63611 0.92353 0.0
H411 H 0.35833 0.54568 0.95289 0.0
H412 H 0.35882 0.58003 0.93198 0.0
H413 H 0.36348 0.57322 0.99256 0.0
H414 H 0.34567 0.61703 0.02821 0.0
H415 H 0.36709 0.66132 0.02206 0.0
H416 H 0.01668 0.70954 0.46454 0.0
H417 H 0.97099 0.72736 0.45177 0.0
H418 H 0.98227 0.78364 0.56429 0.0
H419 H 0.02794 0.76613 0.57658 0.0
H420 H 0.92381 0.73682 0.5091 0.0
H421 H 0.97226 0.83124 0.44739 0.0
H422 H 0.99081 0.80026 0.45562 0.0
H423 H 0.98221 0.821 0.5046 0.0
C424 C 0.00897 0.72512 0.48736 0.0
C425 C 0.02562 0.73674 0.5212 0.0
C426 C 0.98304 0.73536 0.47993 0.0
C427 C 0.97366 0.75722 0.50638 0.0
C428 C 0.98944 0.76712 0.54296 0.0
H429 H 0.8369 0.86303 0.50821 0.0
H430 H 0.88052 0.84082 0.51826 0.0
C431 C 0.01534 0.75702 0.55018 0.0
C432 C 0.94852 0.77127 0.49334 0.0
H433 H 0.92463 0.83198 0.4554 0.0
C434 C 0.92392 0.75754 0.49706 0.0
C435 C 0.94892 0.79826 0.47734 0.0
C436 C 0.97496 0.81353 0.47053 0.0
C437 C 0.89947 0.77047 0.48666 0.0
C438 C 0.89985 0.79761 0.47144 0.0
C439 C 0.9245 0.81118 0.46706 0.0
C440 C 0.87474 0.81262 0.46187 0.0
C441 C 0.87337 0.75531 0.49336 0.0
C442 C 0.85767 0.80481 0.42552 0.0
C443 C 0.83276 0.81752 0.41952 0.0
C444 C 0.82458 0.83821 0.44986 0.0
C445 C 0.84252 0.84705 0.48444 0.0
C446 C 0.86742 0.83437 0.49032 0.0
H447 H 0.87624 0.73659 0.51395 0.0
H448 H 0.8582 0.7682 0.51107 0.0
H449 H 0.86512 0.74957 0.45899 0.0
H450 H 0.8633 0.78841 0.40264 0.0
H451 H 0.81947 0.81032 0.39241 0.0
H452 H 0.28791 0.01765 0.48351 0.0
H453 H 0.26787 0.97234 0.47911 0.0
H454 H 0.20139 0.99902 0.56408 0.0
H455 H 0.22142 0.04412 0.56885 0.0
H456 H 0.24628 0.93399 0.55325 0.0
H457 H 0.17012 0.97653 0.43182 0.0
H458 H 0.20177 0.99313 0.44393 0.0
H459 H 0.17485 0.99445 0.48548 0.0
C460 C 0.26945 0.01352 0.50231 0.0
C461 C 0.25594 0.03424 0.52603 0.0
C462 C 0.25799 0.98779 0.49961 0.0
C463 C 0.23298 0.98265 0.52063 0.0
C464 C 0.22054 0.0028 0.54719 0.0
H465 H 0.14161 0.83495 0.54839 0.0
H466 H 0.16322 0.87872 0.56021 0.0
C467 C 0.23197 0.02844 0.54993 0.0
C468 C 0.21869 0.9571 0.51163 0.0
H469 H 0.16416 0.93113 0.45483 0.0
C470 C 0.22835 0.93327 0.53176 0.0
C471 C 0.19552 0.95637 0.48306 0.0
C472 C 0.18496 0.9814 0.45944 0.0
C473 C 0.21502 0.90864 0.52472 0.0
C474 C 0.19143 0.90805 0.49714 0.0
C475 C 0.18211 0.9318 0.47628 0.0
C476 C 0.17638 0.88279 0.48907 0.0
C477 C 0.22639 0.88337 0.54635 0.0
C478 C 0.17565 0.87128 0.44466 0.0
C479 C 0.16325 0.8463 0.43767 0.0
C480 C 0.15128 0.83255 0.47501 0.0
C481 C 0.15077 0.84493 0.51893 0.0
C482 C 0.16326 0.86984 0.52587 0.0
H483 H 0.24749 0.88624 0.55831 0.0
H484 H 0.21391 0.87772 0.57679 0.0
H485 H 0.22585 0.86632 0.52135 0.0
H486 H 0.18548 0.88119 0.41577 0.0
H487 H 0.16392 0.83737 0.4034 0.0
H488 H 0.16533 0.14506 0.5041 0.0
H489 H 0.11946 0.16301 0.50941 0.0
H490 H 0.14258 0.23108 0.42517 0.0
H491 H 0.18858 0.21361 0.42049 0.0
H492 H 0.1165 0.24621 0.50447 0.0
H493 H 0.05933 0.16565 0.41403 0.0
H494 H 0.08004 0.15343 0.46053 0.0
H495 H 0.09557 0.16843 0.41043 0.0
C496 C 0.16053 0.16363 0.48611 0.0
C497 C 0.18055 0.17797 0.46198 0.0
C498 C 0.1343 0.17381 0.48906 0.0
C499 C 0.12761 0.19825 0.46737 0.0
C500 C 0.14737 0.21218 0.44217 0.0
H501 H 0.9662 0.26037 0.42994 0.0
H502 H 0.0128 0.24494 0.4197 0.0
C503 C 0.17361 0.20214 0.43946 0.0
C504 C 0.10045 0.21016 0.47308 0.0
H505 H 0.03353 0.19828 0.45525 0.0
C506 C 0.09833 0.23581 0.49351 0.0
C507 C 0.07687 0.19662 0.45841 0.0
C508 C 0.07799 0.16962 0.43422 0.0
C509 C 0.07319 0.24822 0.50006 0.0
C510 C 0.04957 0.23433 0.48661 0.0
C511 C 0.05171 0.20879 0.46582 0.0
C512 C 0.02237 0.24602 0.49291 0.0
C513 C 0.07217 0.27623 0.52052 0.0
C514 C 0.01249 0.25206 0.53741 0.0
C515 C 0.98598 0.2611 0.54316 0.0
C516 C 0.96909 0.26392 0.50453 0.0
C517 C 0.97911 0.25843 0.46006 0.0
C518 C 0.00557 0.24955 0.45427 0.0
H519 H 0.0919 0.2867 0.51749 0.0
H520 H 0.0565 0.28869 0.50324 0.0
H521 H 0.06704 0.27482 0.55789 0.0
H522 H 0.02497 0.24894 0.56774 0.0
H523 H 0.97835 0.2649 0.57777 0.0
H524 H 0.82112 0.17929 0.37515 0.0
H525 H 0.8006 0.13451 0.38006 0.0
H526 H 0.82894 0.12656 0.52073 0.0
H527 H 0.85005 0.17094 0.51587 0.0
H528 H 0.83499 0.07998 0.47086 0.0
H529 H 0.73108 0.1203 0.45095 0.0
H530 H 0.7534 0.12885 0.40421 0.0
H531 H 0.75981 0.14179 0.46142 0.0
C532 C 0.82327 0.16788 0.40695 0.0
C533 C 0.837 0.1788 0.44527 0.0
C534 C 0.81131 0.14241 0.40982 0.0
C535 C 0.81264 0.12756 0.45117 0.0
C536 C 0.82746 0.13782 0.48865 0.0
H537 H 0.73608 0.98265 0.55659 0.0
H538 H 0.75421 0.02854 0.54702 0.0
C539 C 0.83955 0.16319 0.48575 0.0
C540 C 0.79827 0.10152 0.45587 0.0
H541 H 0.7357 0.0726 0.45255 0.0
C542 C 0.8133 0.07839 0.46693 0.0
C543 C 0.76989 0.09957 0.45115 0.0
C544 C 0.75252 0.12397 0.44171 0.0
C545 C 0.80072 0.05329 0.47276 0.0
C546 C 0.7725 0.05134 0.46739 0.0
C547 C 0.75739 0.07435 0.45647 0.0
C548 C 0.75857 0.02527 0.4726 0.0
C549 C 0.81755 0.02887 0.4845 0.0
C550 C 0.75455 0.00879 0.43373 0.0
C551 C 0.74421 0.9828 0.43914 0.0
C552 C 0.73764 0.97311 0.48341 0.0
C553 C 0.74063 0.99 0.5221 0.0
C554 C 0.75106 0.01601 0.5167 0.0
H555 H 0.83943 0.03361 0.48625 0.0
H556 H 0.81106 0.02059 0.51848 0.0
H557 H 0.81435 0.01288 0.45808 0.0
H558 H 0.76038 0.01568 0.39952 0.0
H559 H 0.74227 0.96987 0.40901 0.0
H560 H 0.32404 0.20409 0.42026 0.0
H561 H 0.31391 0.23862 0.36172 0.0
H562 H 0.2705 0.17968 0.28114 0.0
H563 H 0.28043 0.1453 0.33943 0.0
H564 H 0.31321 0.23669 0.24479 0.0
H565 H 0.21714 0.24264 0.34497 0.0
H566 H 0.2484 0.23208 0.37154 0.0
H567 H 0.23123 0.20991 0.33238 0.0
C568 C 0.31377 0.19818 0.3887 0.0
C569 C 0.30318 0.17205 0.38405 0.0
C570 C 0.30766 0.21798 0.35564 0.0
C571 C 0.29113 0.21166 0.31765 0.0
C572 C 0.28322 0.18488 0.31035 0.0
H573 H 0.19245 0.30105 0.12296 0.0
H574 H 0.20881 0.26901 0.18169 0.0
C575 C 0.28918 0.1652 0.34336 0.0
C576 C 0.27875 0.23332 0.2896 0.0
H577 H 0.22044 0.2695 0.27782 0.0
C578 C 0.29304 0.24406 0.25208 0.0
C579 C 0.25229 0.24251 0.2991 0.0
C580 C 0.23624 0.23137 0.33924 0.0
C581 C 0.28137 0.2637 0.22327 0.0
C582 C 0.25496 0.27321 0.23305 0.0
C583 C 0.24069 0.26233 0.27061 0.0
C584 C 0.24194 0.29428 0.20418 0.0
C585 C 0.29717 0.27355 0.18185 0.0
C586 C 0.25403 0.3197 0.19966 0.0
C587 C 0.24476 0.33784 0.16633 0.0
C588 C 0.22291 0.33112 0.13757 0.0
C589 C 0.20907 0.30683 0.14521 0.0
C590 C 0.21859 0.28845 0.17836 0.0
H591 H 0.31364 0.25937 0.17235 0.0
H592 H 0.28384 0.27629 0.15128 0.0
H593 H 0.30647 0.29332 0.19023 0.0
H594 H 0.27161 0.32489 0.22007 0.0
H595 H 0.2558 0.35645 0.16094 0.0
H596 H 0.71323 0.25184 0.06335 0.0
H597 H 0.74231 0.26791 0.12535 0.0
H598 H 0.70003 0.2175 0.22315 0.0
H599 H 0.67072 0.20085 0.16037 0.0
H600 H 0.72432 0.29606 0.20251 0.0
H601 H 0.77991 0.20291 0.25225 0.0
H602 H 0.76146 0.20563 0.1985 0.0
H603 H 0.74373 0.20045 0.25205 0.0
C604 C 0.71033 0.24377 0.09791 0.0
C605 C 0.68963 0.22512 0.10707 0.0
C606 C 0.72693 0.25309 0.13334 0.0
C607 C 0.72329 0.24404 0.17887 0.0
C608 C 0.70335 0.22456 0.1881 0.0
H609 H 0.7927 0.32046 0.42401 0.0
H610 H 0.76169 0.31019 0.36017 0.0
C611 C 0.68669 0.21499 0.15228 0.0
C612 C 0.73979 0.25622 0.21633 0.0
H613 H 0.78907 0.24231 0.29522 0.0
C614 C 0.73842 0.28432 0.22298 0.0
C615 C 0.75826 0.24088 0.24265 0.0
C616 C 0.76121 0.21083 0.23596 0.0
C617 C 0.75533 0.29753 0.25478 0.0
C618 C 0.77387 0.28219 0.28095 0.0
C619 C 0.77491 0.25406 0.27487 0.0
C620 C 0.79276 0.29465 0.31459 0.0
C621 C 0.7538 0.32782 0.25916 0.0
C622 C 0.82059 0.29055 0.3093 0.0
C623 C 0.83822 0.29649 0.34558 0.0
C624 C 0.82833 0.30676 0.38763 0.0
C625 C 0.80087 0.31335 0.39135 0.0
C626 C 0.78313 0.30721 0.35505 0.0
H627 H 0.74313 0.33713 0.22931 0.0
H628 H 0.74261 0.3331 0.29124 0.0
H629 H 0.7743 0.33673 0.26171 0.0
H630 H 0.82844 0.2809 0.27837 0.0
H631 H 0.85921 0.29063 0.34241 0.0
H632 H 0.72605 0.67926 0.09942 0.0
H633 H 0.71163 0.70724 0.16373 0.0
H634 H 0.79324 0.71015 0.21501 0.0
H635 H 0.80826 0.68192 0.14954 0.0
H636 H 0.71511 0.69719 0.25817 0.0
H637 H 0.77039 0.79035 0.20816 0.0
H638 H 0.76571 0.76243 0.16874 0.0
H639 H 0.79056 0.76037 0.21385 0.0
C640 C 0.74117 0.68578 0.1241 0.0
C641 C 0.76847 0.67835 0.11898 0.0
C642 C 0.73275 0.7018 0.16106 0.0
C643 C 0.75132 0.711 0.19396 0.0
C644 C 0.77861 0.70355 0.18956 0.0
H645 H 0.71572 0.78316 0.45889 0.0
H646 H 0.7237 0.75138 0.39563 0.0
C647 C 0.78715 0.68732 0.15231 0.0
C648 C 0.74156 0.72827 0.23262 0.0
H649 H 0.74524 0.7919 0.27768 0.0
C650 C 0.72174 0.71788 0.26254 0.0
C651 C 0.74983 0.75541 0.23767 0.0
C652 C 0.77012 0.768 0.20526 0.0
C653 C 0.71016 0.73382 0.29761 0.0
C654 C 0.71883 0.76079 0.3033 0.0
C655 C 0.7385 0.77125 0.27316 0.0
C656 C 0.70906 0.7781 0.34193 0.0
C657 C 0.68843 0.72174 0.32778 0.0
C658 C 0.69749 0.8035 0.33306 0.0
C659 C 0.69265 0.82166 0.36948 0.0
C660 C 0.69947 0.81463 0.41508 0.0
C661 C 0.70952 0.78867 0.42413 0.0
C662 C 0.71424 0.77055 0.38794 0.0
H663 H 0.67845 0.70437 0.31049 0.0
H664 H 0.69764 0.71428 0.3604 0.0
H665 H 0.67285 0.73696 0.33686 0.0
H666 H 0.69352 0.8098 0.29776 0.0
H667 H 0.68573 0.84187 0.36155 0.0
H668 H 0.30492 0.80984 0.11957 0.0
H669 H 0.27242 0.79733 0.18066 0.0
H670 H 0.31322 0.72122 0.19871 0.0
H671 H 0.34526 0.73334 0.13802 0.0
H672 H 0.24005 0.74499 0.17275 0.0
H673 H 0.30158 0.75308 0.33342 0.0
H674 H 0.30917 0.77213 0.2816 0.0
H675 H 0.3172 0.73687 0.28442 0.0
C676 C 0.30726 0.79078 0.13745 0.0
C677 C 0.32753 0.77255 0.12409 0.0
C678 C 0.28865 0.78357 0.17201 0.0
C679 C 0.29054 0.75837 0.19417 0.0
C680 C 0.31156 0.74081 0.18232 0.0
H681 H 0.19656 0.67919 0.41226 0.0
H682 H 0.22883 0.68619 0.34838 0.0
C683 C 0.3298 0.74778 0.14757 0.0
C684 C 0.26952 0.74918 0.22702 0.0
H685 H 0.25888 0.7323 0.34024 0.0
C686 C 0.24405 0.74236 0.20945 0.0
C687 C 0.27509 0.74516 0.27453 0.0
C688 C 0.30217 0.75231 0.29493 0.0
C689 C 0.2239 0.73161 0.23827 0.0
C690 C 0.22921 0.72819 0.28614 0.0
C691 C 0.25487 0.7347 0.30352 0.0
C692 C 0.20773 0.72061 0.31962 0.0
C693 C 0.19727 0.72368 0.21696 0.0
C694 C 0.18487 0.73707 0.32381 0.0
C695 C 0.16656 0.73299 0.35973 0.0
C696 C 0.17074 0.71249 0.39261 0.0
C697 C 0.19269 0.69488 0.38699 0.0
C698 C 0.21121 0.69905 0.35084 0.0
H699 H 0.19965 0.71835 0.17975 0.0
H700 H 0.18809 0.70629 0.23536 0.0
H701 H 0.18315 0.74102 0.21905 0.0
H702 H 0.18197 0.75415 0.30093 0.0
H703 H 0.14984 0.74694 0.36336 0.0
H704 H 0.77506 0.8506 0.63497 0.0
H705 H 0.79037 0.8207 0.69663 0.0
H706 H 0.7108 0.78615 0.70611 0.0
H707 H 0.6951 0.81635 0.64388 0.0
H708 H 0.7414 0.79584 0.7959 0.0
H709 H 0.79791 0.73821 0.66177 0.0
H710 H 0.80336 0.77408 0.66215 0.0
H711 H 0.77069 0.76099 0.6476 0.0
C712 C 0.7606 0.83703 0.65073 0.0
C713 C 0.73392 0.83559 0.63419 0.0
C714 C 0.76944 0.81992 0.68589 0.0
C715 C 0.75188 0.8009 0.70519 0.0
C716 C 0.72468 0.80066 0.69134 0.0
H717 H 0.7795 0.65282 0.84716 0.0
H718 H 0.77232 0.68842 0.79004 0.0
C719 C 0.71571 0.81797 0.65602 0.0
C720 C 0.76269 0.78001 0.73689 0.0
H721 H 0.8047 0.72533 0.7397 0.0
C722 C 0.75528 0.78045 0.78378 0.0
C723 C 0.78067 0.75989 0.72072 0.0
C724 C 0.78854 0.75799 0.67026 0.0
C725 C 0.76548 0.76124 0.81508 0.0
C726 C 0.78381 0.74135 0.79904 0.0
C727 C 0.79108 0.7409 0.75206 0.0
C728 C 0.7932 0.71911 0.82944 0.0
C729 C 0.75593 0.76183 0.86476 0.0
C730 C 0.80887 0.72414 0.86916 0.0
C731 C 0.81341 0.70357 0.90165 0.0
C732 C 0.8022 0.67787 0.89469 0.0
C733 C 0.78863 0.6724 0.85299 0.0
C734 C 0.7843 0.69279 0.82055 0.0
H735 H 0.7383 0.77541 0.86956 0.0
H736 H 0.7503 0.74126 0.87653 0.0
H737 H 0.77251 0.76916 0.88731 0.0
H738 H 0.81627 0.74428 0.87627 0.0
H739 H 0.8235 0.7084 0.93391 0.0
H740 H 0.15463 0.76155 0.64747 0.0
H741 H 0.18702 0.77455 0.70714 0.0
H742 H 0.23545 0.70475 0.6747 0.0
H743 H 0.20263 0.69135 0.61466 0.0
H744 H 0.21057 0.74275 0.78708 0.0
H745 H 0.28308 0.77608 0.65113 0.0
H746 H 0.24753 0.77184 0.63947 0.0
H747 H 0.26877 0.7428 0.64596 0.0
C748 C 0.17188 0.74861 0.65374 0.0
C749 C 0.17621 0.72546 0.62649 0.0
C750 C 0.19035 0.75611 0.68776 0.0
C751 C 0.21372 0.74083 0.69481 0.0
C752 C 0.21753 0.71688 0.6694 0.0
H753 H 0.35591 0.76299 0.85644 0.0
H754 H 0.32307 0.75453 0.79538 0.0
C755 C 0.19873 0.70911 0.63553 0.0
C756 C 0.23464 0.75116 0.72681 0.0
H757 H 0.29612 0.78215 0.72892 0.0
C758 C 0.22932 0.75133 0.77454 0.0
C759 C 0.25886 0.7626 0.71005 0.0
C760 C 0.26503 0.76358 0.65885 0.0
C761 C 0.24799 0.76201 0.80625 0.0
C762 C 0.27224 0.77361 0.78953 0.0
C763 C 0.27739 0.7736 0.74164 0.0
C764 C 0.29373 0.78309 0.82151 0.0
C765 C 0.24197 0.75987 0.85743 0.0
C766 C 0.28892 0.80328 0.85492 0.0
C767 C 0.30788 0.80825 0.89005 0.0
C768 C 0.3318 0.79314 0.89181 0.0
C769 C 0.33757 0.77492 0.85578 0.0
C770 C 0.31877 0.76998 0.82095 0.0
H771 H 0.22549 0.74527 0.86462 0.0
H772 H 0.26018 0.75351 0.87697 0.0
H773 H 0.23555 0.7799 0.87069 0.0
H774 H 0.26995 0.81411 0.85529 0.0
H775 H 0.30289 0.8222 0.91768 0.0
H776 H 0.25015 0.21313 0.56663 0.0
H777 H 0.23577 0.24172 0.63077 0.0
H778 H 0.28805 0.19773 0.72339 0.0
H779 H 0.30314 0.16928 0.65851 0.0
H780 H 0.20882 0.22512 0.70591 0.0
H781 H 0.30399 0.27469 0.76013 0.0
H782 H 0.30084 0.25686 0.70582 0.0
H783 H 0.30619 0.23856 0.75887 0.0
C784 C 0.25903 0.20985 0.60048 0.0
C785 C 0.2778 0.18894 0.60758 0.0
C786 C 0.25069 0.22617 0.63716 0.0
C787 C 0.2608 0.22197 0.68193 0.0
C788 C 0.2803 0.2017 0.68897 0.0
H789 H 0.22448 0.28428 0.95194 0.0
H790 H 0.23418 0.25551 0.88526 0.0
C791 C 0.28894 0.18544 0.65194 0.0
C792 C 0.24947 0.23773 0.72129 0.0
H793 H 0.26636 0.2796 0.8107 0.0
C794 C 0.2214 0.23718 0.72864 0.0
C795 C 0.26584 0.25356 0.75082 0.0
C796 C 0.29585 0.25623 0.74333 0.0
C797 C 0.20937 0.25159 0.76522 0.0
C798 C 0.22582 0.26695 0.79511 0.0
C799 C 0.25382 0.26769 0.78766 0.0
C800 C 0.21477 0.28173 0.83558 0.0
C801 C 0.1793 0.24987 0.77242 0.0
C802 C 0.19948 0.30543 0.82996 0.0
C803 C 0.19362 0.32188 0.86837 0.0
C804 C 0.20316 0.31474 0.91251 0.0
C805 C 0.21665 0.29003 0.91828 0.0
C806 C 0.2224 0.27369 0.88021 0.0
H807 H 0.16986 0.23421 0.75013 0.0
H808 H 0.1747 0.24528 0.80927 0.0
H809 H 0.17 0.26965 0.76411 0.0
H810 H 0.19366 0.31209 0.79564 0.0
H811 H 0.18376 0.34113 0.86297 0.0
H812 H 0.70677 0.17919 0.92373 0.0
H813 H 0.73956 0.18997 0.86267 0.0
H814 H 0.67561 0.22269 0.77848 0.0
H815 H 0.64302 0.21236 0.8396 0.0
H816 H 0.74615 0.18246 0.76303 0.0
H817 H 0.72439 0.28827 0.81358 0.0
H818 H 0.71386 0.25972 0.84793 0.0
H819 H 0.69493 0.26939 0.79746 0.0
C820 C 0.69956 0.18723 0.89108 0.0
C821 C 0.67241 0.19476 0.88604 0.0
C822 C 0.71834 0.19378 0.85654 0.0
C823 C 0.71004 0.20783 0.81676 0.0
C824 C 0.68245 0.21231 0.80937 0.0
H825 H 0.78884 0.2519 0.56644 0.0
H826 H 0.76058 0.23505 0.62907 0.0
C827 C 0.66378 0.20596 0.84389 0.0
C828 C 0.73013 0.22059 0.78569 0.0
H829 H 0.75057 0.28202 0.74494 0.0
C830 C 0.74728 0.2042 0.75926 0.0
C831 C 0.73213 0.24903 0.78194 0.0
C832 C 0.71556 0.26768 0.81206 0.0
C833 C 0.76541 0.2155 0.72727 0.0
C834 C 0.76598 0.24387 0.72103 0.0
C835 C 0.74984 0.2603 0.74928 0.0
C836 C 0.78181 0.25654 0.68319 0.0
C837 C 0.78372 0.19688 0.70028 0.0
C838 C 0.80202 0.27574 0.69242 0.0
C839 C 0.81806 0.28589 0.65623 0.0
C840 C 0.81401 0.27684 0.61059 0.0
C841 C 0.79267 0.25895 0.6014 0.0
C842 C 0.77664 0.2491 0.6372 0.0
H843 H 0.78715 0.17763 0.7191 0.0
H844 H 0.77414 0.19194 0.66657 0.0
H845 H 0.80355 0.20648 0.69333 0.0
H846 H 0.80604 0.28206 0.7277 0.0
H847 H 0.83443 0.29959 0.66423 0.0
H848 H 0.92068 0.56893 0.09872 0.0
H849 H 0.95844 0.5384 0.08522 0.0
H850 H 0.95247 0.55228 0.93818 0.0
H851 H 0.91517 0.58375 0.95133 0.0
H852 H 0.95662 0.49465 0.96925 0.0
H853 H 0.03613 0.56128 0.04156 0.0
H854 H 0.00666 0.55768 0.0774 0.0
H855 H 0.0039 0.57392 0.02195 0.0
C856 C 0.92736 0.56571 0.06339 0.0
C857 C 0.9143 0.57862 0.02611 0.0
C858 C 0.94902 0.54817 0.05579 0.0
C859 C 0.95834 0.54308 0.01073 0.0
C860 C 0.94549 0.55581 0.97327 0.0
H861 H 0.11064 0.45466 0.97139 0.0
H862 H 0.07358 0.48658 0.95902 0.0
C863 C 0.92386 0.57361 0.98088 0.0
C864 C 0.98139 0.52428 0.00333 0.0
H865 H 0.04785 0.51509 0.03056 0.0
C866 C 0.97666 0.49922 0.9821 0.0
C867 C 0.0076 0.53035 0.01965 0.0
C868 C 0.01407 0.55735 0.04108 0.0
C869 C 0.99717 0.47962 0.97872 0.0
C870 C 0.02302 0.48517 0.99729 0.0
C871 C 0.02803 0.51073 0.01654 0.0
C872 C 0.04462 0.46428 -3e-05 0.0
C873 C 0.99092 0.45303 0.95569 0.0
C874 C 0.04071 0.44098 0.02679 0.0
C875 C 0.06183 0.42268 0.03375 0.0
C876 C 0.08735 0.4271 0.01382 0.0
C877 C 0.09108 0.4501 0.98598 0.0
C878 C 0.06995 0.46857 0.97933 0.0
H879 H 0.97342 0.45474 0.93183 0.0
H880 H 0.00859 0.44543 0.93589 0.0
H881 H 0.98581 0.43793 0.98268 0.0
H882 H 0.02158 0.43747 0.04393 0.0
H883 H 0.05838 0.40535 0.05583 0.0
H884 H 0.58727 0.08139 0.9601 0.0
H885 H 0.5556 0.04398 0.9469 0.0
H886 H 0.5214 0.05671 0.08254 0.0
H887 H 0.55283 0.09391 0.09599 0.0
H888 H 0.54883 0.99543 0.01672 0.0
H889 H 0.45661 0.05592 0.98157 0.0
H890 H 0.4902 0.06859 0.97052 0.0
H891 H 0.47771 0.06683 0.02881 0.0
C892 C 0.57272 0.07652 0.98677 0.0
C893 C 0.57236 0.09087 0.02889 0.0
C894 C 0.55478 0.05501 0.97931 0.0
C895 C 0.536 0.04776 0.01359 0.0
C896 C 0.53556 0.06212 0.05548 0.0
H897 H 0.40892 0.93728 0.07497 0.0
H898 H 0.43968 0.9752 0.06484 0.0
C899 C 0.55362 0.08331 0.06315 0.0
C900 C 0.51731 0.02464 0.00688 0.0
H901 H 0.45052 0.00918 0.99508 0.0
C902 C 0.52738 0.99831 0.01127 0.0
C903 C 0.48935 0.02855 0.00022 0.0
C904 C 0.47767 0.05646 0.99468 0.0
C905 C 0.51005 0.9758 0.01121 0.0
C906 C 0.4819 0.97969 0.0053 0.0
C907 C 0.47202 0.00608 0.99949 0.0
C908 C 0.46218 0.95699 0.00863 0.0
C909 C 0.52197 0.94824 0.01998 0.0
C910 C 0.464 0.93419 0.97972 0.0
C911 C 0.4465 0.9122 0.98579 0.0
C912 C 0.42642 0.91276 0.02034 0.0
C913 C 0.42407 0.93607 0.04797 0.0
C914 C 0.44165 0.95788 0.04214 0.0
H915 H 0.54248 0.94954 0.0353 0.0
H916 H 0.50897 0.9363 0.04367 0.0
H917 H 0.52364 0.9372 0.98663 0.0
H918 H 0.4793 0.93314 0.95299 0.0
H919 H 0.44961 0.89449 0.96464 0.0
H920 H 0.44232 0.09898 0.54851 0.0
H921 H 0.47902 0.06651 0.53801 0.0
H922 H 0.42365 0.01046 0.47488 0.0
H923 H 0.38674 0.04274 0.48583 0.0
H924 H 0.4548 0.98843 0.54784 0.0
H925 H 0.51996 0.04125 0.42082 0.0
H926 H 0.51007 0.06182 0.46927 0.0
H927 H 0.48488 0.04988 0.42943 0.0
C928 C 0.43803 0.07993 0.53161 0.0
C929 C 0.41166 0.07373 0.51715 0.0
C930 C 0.45909 0.06143 0.5254 0.0
C931 C 0.45424 0.03619 0.50492 0.0
C932 C 0.42796 0.02996 0.49013 0.0
H933 H 0.58288 0.91495 0.45954 0.0
H934 H 0.54403 0.94451 0.44604 0.0
C935 C 0.4069 0.0486 0.49596 0.0
C936 C 0.47615 0.01563 0.5027 0.0
H937 H 0.54029 0.00483 0.46285 0.0
C938 C 0.47333 0.99185 0.52871 0.0
C939 C 0.50028 0.01994 0.47747 0.0
C940 C 0.50398 0.04448 0.44728 0.0
C941 C 0.49442 0.97296 0.53193 0.0
C942 C 0.51906 0.97797 0.50869 0.0
C943 C 0.52146 1.00108 0.48089 0.0
C944 C 0.54308 0.96044 0.51583 0.0
C945 C 0.49042 0.94797 0.56092 0.0
C946 C 0.55567 0.95983 0.55928 0.0
C947 C 0.57814 0.9434 0.56689 0.0
C948 C 0.58877 0.92711 0.53119 0.0
C949 C 0.57603 0.92772 0.48753 0.0
C950 C 0.55355 0.94443 0.47983 0.0
H951 H 0.46871 0.94383 0.56726 0.0
H952 H 0.49965 0.9301 0.54388 0.0
H953 H 0.50042 0.95081 0.595 0.0
H954 H 0.54812 0.9722 0.58745 0.0
H955 H 0.58731 0.94365 0.60096 0.0
H956 H 0.04755 0.61257 0.47361 0.0
H957 H 0.0151 0.57578 0.46385 0.0
H958 H 0.06858 0.52185 0.53652 0.0
H959 H 0.10133 0.5584 0.5457 0.0
H960 H 0.04205 0.49833 0.4562 0.0
H961 H 0.97113 0.54908 0.57792 0.0
H962 H 0.9823 0.56866 0.52908 0.0
H963 H 0.00607 0.55888 0.57289 0.0
C964 C 0.05286 0.59271 0.48615 0.0
C965 C 0.07727 0.58838 0.50991 0.0
C966 C 0.03407 0.57175 0.48112 0.0
C967 C 0.03927 0.54609 0.49984 0.0
C968 C 0.0641 0.54145 0.52177 0.0
H969 H 0.93988 0.41751 0.59816 0.0
H970 H 0.97072 0.45497 0.58462 0.0
C971 C 0.08279 0.56239 0.52704 0.0
C972 C 0.01833 0.52454 0.49957 0.0
H973 H 0.9578 0.50706 0.54788 0.0
C974 C 0.02348 0.50031 0.47579 0.0
C975 C 0.99424 0.52703 0.52563 0.0
C976 C 0.98803 0.55219 0.55318 0.0
C977 C 0.00533 0.47847 0.47778 0.0
C978 C 0.98137 0.48092 0.50416 0.0
C979 C 0.97607 0.50527 0.52741 0.0
C980 C 0.96255 0.45784 0.51118 0.0
C981 C 0.01235 0.45255 0.45313 0.0
C982 C 0.94738 0.44704 0.47444 0.0
C983 C 0.92943 0.42556 0.48214 0.0
C984 C 0.92646 0.41433 0.5267 0.0
C985 C 0.94158 0.42549 0.56333 0.0
C986 C 0.95933 0.44694 0.55568 0.0
H987 H 0.0335 0.45245 0.44039 0.0
H988 H 0.0094 0.43502 0.47655 0.0
H989 H 0.99875 0.4499 0.42293 0.0
H990 H 0.94908 0.45552 0.43997 0.0
H991 H 0.91751 0.41834 0.45336 0.0
loop_
_geom_bond_atom_site_label_1
_geom_bond_atom_site_label_2
_geom_bond_distance
_geom_bond_site_symmetry_2
_ccdc_geom_bond_type
Co0 O3 1.970 1_554 S
Co0 N17 1.989 . S
Co0 O25 1.967 . S
Co0 O32 1.920 . S
Co1 O4 1.966 1_554 S
Co1 N10 2.022 . S
Co1 N18 1.993 . S
Co1 O26 1.941 . S
C2 O3 1.258 . S
C2 O4 1.263 . S
O3 Co0 1.970 1_556 S
O3 C2 1.258 . S
O4 Co1 1.966 1_556 S
O4 C2 1.263 . S
C5 O6 1.235 . S
C5 O32 1.289 1_556 S
O6 C5 1.235 . S
C7 C9 1.400 . S
C7 N10 1.351 1_556 S
C7 C12 1.501 . S
C8 C9 1.387 1_554 S
C8 N11 1.341 . S
C9 C7 1.400 . S
C9 C8 1.387 1_556 S
N10 Co1 2.022 . S
N10 C7 1.351 1_554 S
N10 N11 1.365 . S
N11 C8 1.341 . S
N11 N10 1.365 . S
N11 H31 0.862 . S
C12 C7 1.501 . S
C12 H13 0.961 . S
C12 H14 0.961 . S
C12 H15 0.960 . S
H13 C12 0.961 . S
H14 C12 0.961 . S
H15 C12 0.960 . S
C16 N17 1.342 . S
C16 C20 1.401 . S
C16 C21 1.499 . S
N17 Co0 1.989 . S
N17 C16 1.342 . S
N17 N18 1.388 . S
N18 Co1 1.993 . S
N18 N17 1.388 . S
N18 C19 1.346 . S
C19 N18 1.346 . S
C19 C20 1.396 . S
C19 C29 1.510 . S
C20 C16 1.401 . S
C20 C19 1.396 . S
C21 C16 1.499 . S
C21 H22 0.959 . S
C21 H23 0.960 1_554 S
C21 H24 0.961 . S
H22 C21 0.959 . S
H23 C21 0.960 1_556 S
H24 C21 0.961 . S
O25 Co0 1.967 . S
O25 C33 1.258 . S
O26 Co1 1.941 . S
O26 C33 1.266 . S
H27 C29 0.959 . S
H28 C29 0.961 1_556 S
C29 C19 1.510 . S
C29 H27 0.959 . S
C29 H28 0.961 1_554 S
C29 H30 0.960 . S
H30 C29 0.960 . S
H31 N11 0.862 . S
O32 Co0 1.920 . S
O32 C5 1.289 1_554 S
C33 O25 1.258 . S
C33 O26 1.266 . S
Co34 O37 1.970 1_554 S
Co34 N51 1.989 . S
Co34 O59 1.967 . S
Co34 O66 1.920 . S
Co35 O38 1.966 1_554 S
Co35 N44 2.022 . S
Co35 N52 1.993 . S
Co35 O60 1.941 . S
C36 O37 1.258 . S
C36 O38 1.263 . S
O37 Co34 1.970 1_556 S
O37 C36 1.258 . S
O38 Co35 1.966 1_556 S
O38 C36 1.263 . S
C39 O40 1.235 . S
C39 O66 1.289 1_556 S
O40 C39 1.235 . S
C41 C43 1.400 . S
C41 N44 1.351 1_556 S
C41 C46 1.501 . S
C42 C43 1.387 1_554 S
C42 N45 1.341 . S
C43 C41 1.400 . S
C43 C42 1.387 1_556 S
N44 Co35 2.022 . S
N44 C41 1.351 1_554 S
N44 N45 1.365 . S
N45 C42 1.341 . S
N45 N44 1.365 . S
N45 H65 0.862 . S
C46 C41 1.501 . S
C46 H47 0.961 . S
C46 H48 0.961 . S
C46 H49 0.960 . S
H47 C46 0.961 . S
H48 C46 0.961 . S
H49 C46 0.960 . S
C50 N51 1.342 . S
C50 C54 1.401 . S
C50 C55 1.499 . S
N51 Co34 1.989 . S
N51 C50 1.342 . S
N51 N52 1.388 . S
N52 Co35 1.993 . S
N52 N51 1.388 . S
N52 C53 1.346 . S
C53 N52 1.346 . S
C53 C54 1.396 . S
C53 C63 1.510 . S
C54 C50 1.401 . S
C54 C53 1.396 . S
C55 C50 1.499 . S
C55 H56 0.959 . S
C55 H57 0.960 1_554 S
C55 H58 0.961 . S
H56 C55 0.959 . S
H57 C55 0.960 1_556 S
H58 C55 0.961 . S
O59 Co34 1.967 . S
O59 C67 1.258 . S
O60 Co35 1.941 . S
O60 C67 1.266 . S
H61 C63 0.959 . S
H62 C63 0.961 1_556 S
C63 C53 1.510 . S
C63 H61 0.959 . S
C63 H62 0.961 1_554 S
C63 H64 0.960 . S
H64 C63 0.960 . S
H65 N45 0.862 . S
O66 Co34 1.920 . S
O66 C39 1.289 1_554 S
C67 O59 1.258 . S
C67 O60 1.266 . S
Co68 O71 1.970 1_554 S
Co68 N85 1.989 . S
Co68 O93 1.967 . S
Co68 O100 1.920 . S
Co69 O72 1.966 1_554 S
Co69 N78 2.022 . S
Co69 N86 1.993 . S
Co69 O94 1.941 . S
C70 O71 1.258 . S
C70 O72 1.263 . S
O71 Co68 1.970 1_556 S
O71 C70 1.258 . S
O72 Co69 1.966 1_556 S
O72 C70 1.263 . S
C73 O74 1.235 . S
C73 O100 1.289 1_556 S
O74 C73 1.235 . S
C75 C77 1.400 . S
C75 N78 1.351 1_556 S
C75 C80 1.501 . S
C76 C77 1.387 1_554 S
C76 N79 1.341 . S
C77 C75 1.400 . S
C77 C76 1.387 1_556 S
N78 Co69 2.022 . S
N78 C75 1.351 1_554 S
N78 N79 1.365 . S
N79 C76 1.341 . S
N79 N78 1.365 . S
N79 H99 0.862 . S
C80 C75 1.501 . S
C80 H81 0.961 . S
C80 H82 0.961 . S
C80 H83 0.960 . S
H81 C80 0.961 . S
H82 C80 0.961 . S
H83 C80 0.960 . S
C84 N85 1.342 . S
C84 C88 1.401 . S
C84 C89 1.499 . S
N85 Co68 1.989 . S
N85 C84 1.342 . S
N85 N86 1.388 . S
N86 Co69 1.993 . S
N86 N85 1.388 . S
N86 C87 1.346 . S
C87 N86 1.346 . S
C87 C88 1.396 . S
C87 C97 1.510 . S
C88 C84 1.401 . S
C88 C87 1.396 . S
C89 C84 1.499 . S
C89 H90 0.959 . S
C89 H91 0.960 1_554 S
C89 H92 0.961 . S
H90 C89 0.959 . S
H91 C89 0.960 1_556 S
H92 C89 0.961 . S
O93 Co68 1.967 . S
O93 C101 1.258 . S
O94 Co69 1.941 . S
O94 C101 1.266 . S
H95 C97 0.959 . S
H96 C97 0.961 1_556 S
C97 C87 1.510 . S
C97 H95 0.959 . S
C97 H96 0.961 1_554 S
C97 H98 0.960 . S
H98 C97 0.960 . S
H99 N79 0.862 . S
O100 Co68 1.920 . S
O100 C73 1.289 1_554 S
C101 O93 1.258 . S
C101 O94 1.266 . S
Co102 O105 1.970 1_554 S
Co102 N119 1.989 . S
Co102 O127 1.967 . S
Co102 O134 1.920 . S
Co103 O106 1.966 1_554 S
Co103 N112 2.022 . S
Co103 N120 1.993 . S
Co103 O128 1.941 . S
C104 O105 1.258 . S
C104 O106 1.263 . S
O105 Co102 1.970 1_556 S
O105 C104 1.258 . S
O106 Co103 1.966 1_556 S
O106 C104 1.263 . S
C107 O108 1.235 . S
C107 O134 1.289 1_556 S
O108 C107 1.235 . S
C109 C111 1.400 . S
C109 N112 1.351 1_556 S
C109 C114 1.501 . S
C110 C111 1.387 1_554 S
C110 N113 1.341 . S
C111 C109 1.400 . S
C111 C110 1.387 1_556 S
N112 Co103 2.022 . S
N112 C109 1.351 1_554 S
N112 N113 1.365 . S
N113 C110 1.341 . S
N113 N112 1.365 . S
N113 H133 0.862 . S
C114 C109 1.501 . S
C114 H115 0.961 . S
C114 H116 0.961 . S
C114 H117 0.960 . S
H115 C114 0.961 . S
H116 C114 0.961 . S
H117 C114 0.960 . S
C118 N119 1.342 . S
C118 C122 1.401 . S
C118 C123 1.499 . S
N119 Co102 1.989 . S
N119 C118 1.342 . S
N119 N120 1.388 . S
N120 Co103 1.993 . S
N120 N119 1.388 . S
N120 C121 1.346 . S
C121 N120 1.346 . S
C121 C122 1.396 . S
C121 C131 1.510 . S
C122 C118 1.401 . S
C122 C121 1.396 . S
C123 C118 1.499 . S
C123 H124 0.959 . S
C123 H125 0.960 1_554 S
C123 H126 0.961 . S
H124 C123 0.959 . S
H125 C123 0.960 1_556 S
H126 C123 0.961 . S
O127 Co102 1.967 . S
O127 C135 1.258 . S
O128 Co103 1.941 . S
O128 C135 1.266 . S
H129 C131 0.959 . S
H130 C131 0.961 1_556 S
C131 C121 1.510 . S
C131 H129 0.959 . S
C131 H130 0.961 1_554 S
C131 H132 0.960 . S
H132 C131 0.960 . S
H133 N113 0.862 . S
O134 Co102 1.920 . S
O134 C107 1.289 1_554 S
C135 O127 1.258 . S
C135 O128 1.266 . S
Co136 O139 1.970 . S
Co136 N153 1.989 . S
Co136 O161 1.967 . S
Co136 O168 1.920 . S
Co137 O140 1.966 . S
Co137 N146 2.022 . S
Co137 N154 1.993 . S
Co137 O162 1.941 . S
C138 O139 1.258 . S
C138 O140 1.263 . S
O139 Co136 1.970 . S
O139 C138 1.258 . S
O140 Co137 1.966 . S
O140 C138 1.263 . S
C141 O142 1.235 . S
C141 O168 1.289 . S
O142 C141 1.235 . S
C143 C145 1.400 . S
C143 N146 1.351 . S
C143 C148 1.501 . S
C144 C145 1.387 . S
C144 N147 1.341 . S
C145 C143 1.400 . S
C145 C144 1.387 . S
N146 Co137 2.022 . S
N146 C143 1.351 . S
N146 N147 1.365 . S
N147 C144 1.341 . S
N147 N146 1.365 . S
N147 H167 0.862 . S
C148 C143 1.501 . S
C148 H149 0.961 . S
C148 H150 0.961 . S
C148 H151 0.960 . S
H149 C148 0.961 . S
H150 C148 0.961 . S
H151 C148 0.960 . S
C152 N153 1.342 . S
C152 C156 1.401 . S
C152 C157 1.499 . S
N153 Co136 1.989 . S
N153 C152 1.342 . S
N153 N154 1.388 . S
N154 Co137 1.993 . S
N154 N153 1.388 . S
N154 C155 1.346 . S
C155 N154 1.346 . S
C155 C156 1.396 . S
C155 C165 1.510 . S
C156 C152 1.401 . S
C156 C155 1.396 . S
C157 C152 1.499 . S
C157 H158 0.959 . S
C157 H159 0.960 . S
C157 H160 0.961 . S
H158 C157 0.959 . S
H159 C157 0.960 . S
H160 C157 0.961 . S
O161 Co136 1.967 . S
O161 C169 1.258 . S
O162 Co137 1.941 . S
O162 C169 1.266 . S
H163 C165 0.959 . S
H164 C165 0.961 . S
C165 C155 1.510 . S
C165 H163 0.959 . S
C165 H164 0.961 . S
C165 H166 0.960 . S
H166 C165 0.960 . S
H167 N147 0.862 . S
O168 Co136 1.920 . S
O168 C141 1.289 . S
C169 O161 1.258 . S
C169 O162 1.266 . S
Co170 O173 1.970 . S
Co170 N187 1.989 . S
Co170 O195 1.967 . S
Co170 O202 1.920 . S
Co171 O174 1.966 . S
Co171 N180 2.022 . S
Co171 N188 1.993 . S
Co171 O196 1.941 . S
C172 O173 1.258 . S
C172 O174 1.263 . S
O173 Co170 1.970 . S
O173 C172 1.258 . S
O174 Co171 1.966 . S
O174 C172 1.263 . S
C175 O176 1.235 . S
C175 O202 1.289 . S
O176 C175 1.235 . S
C177 C179 1.400 . S
C177 N180 1.351 . S
C177 C182 1.501 . S
C178 C179 1.387 . S
C178 N181 1.341 . S
C179 C177 1.400 . S
C179 C178 1.387 . S
N180 Co171 2.022 . S
N180 C177 1.351 . S
N180 N181 1.365 . S
N181 C178 1.341 . S
N181 N180 1.365 . S
N181 H201 0.862 . S
C182 C177 1.501 . S
C182 H183 0.961 . S
C182 H184 0.961 . S
C182 H185 0.960 . S
H183 C182 0.961 . S
H184 C182 0.961 . S
H185 C182 0.960 . S
C186 N187 1.342 . S
C186 C190 1.401 . S
C186 C191 1.499 . S
N187 Co170 1.989 . S
N187 C186 1.342 . S
N187 N188 1.388 . S
N188 Co171 1.993 . S
N188 N187 1.388 . S
N188 C189 1.346 . S
C189 N188 1.346 . S
C189 C190 1.396 . S
C189 C199 1.510 . S
C190 C186 1.401 . S
C190 C189 1.396 . S
C191 C186 1.499 . S
C191 H192 0.959 . S
C191 H193 0.960 . S
C191 H194 0.961 . S
H192 C191 0.959 . S
H193 C191 0.960 . S
H194 C191 0.961 . S
O195 Co170 1.967 . S
O195 C203 1.258 . S
O196 Co171 1.941 . S
O196 C203 1.266 . S
H197 C199 0.959 . S
H198 C199 0.961 . S
C199 C189 1.510 . S
C199 H197 0.959 . S
C199 H198 0.961 . S
C199 H200 0.960 . S
H200 C199 0.960 . S
H201 N181 0.862 . S
O202 Co170 1.920 . S
O202 C175 1.289 . S
C203 O195 1.258 . S
C203 O196 1.266 . S
Co204 O207 1.970 . S
Co204 N221 1.989 . S
Co204 O229 1.967 . S
Co204 O236 1.920 . S
Co205 O208 1.966 . S
Co205 N214 2.022 . S
Co205 N222 1.993 . S
Co205 O230 1.941 . S
C206 O207 1.258 . S
C206 O208 1.263 . S
O207 Co204 1.970 . S
O207 C206 1.258 . S
O208 Co205 1.966 . S
O208 C206 1.263 . S
C209 O210 1.235 . S
C209 O236 1.289 . S
O210 C209 1.235 . S
C211 C213 1.400 . S
C211 N214 1.351 . S
C211 C216 1.501 . S
C212 C213 1.387 . S
C212 N215 1.341 . S
C213 C211 1.400 . S
C213 C212 1.387 . S
N214 Co205 2.022 . S
N214 C211 1.351 . S
N214 N215 1.365 . S
N215 C212 1.341 . S
N215 N214 1.365 . S
N215 H235 0.862 . S
C216 C211 1.501 . S
C216 H217 0.961 . S
C216 H218 0.961 . S
C216 H219 0.960 . S
H217 C216 0.961 . S
H218 C216 0.961 . S
H219 C216 0.960 . S
C220 N221 1.342 . S
C220 C224 1.401 . S
C220 C225 1.499 . S
N221 Co204 1.989 . S
N221 C220 1.342 . S
N221 N222 1.388 . S
N222 Co205 1.993 . S
N222 N221 1.388 . S
N222 C223 1.346 . S
C223 N222 1.346 . S
C223 C224 1.396 . S
C223 C233 1.510 . S
C224 C220 1.401 . S
C224 C223 1.396 . S
C225 C220 1.499 . S
C225 H226 0.959 . S
C225 H227 0.960 . S
C225 H228 0.961 . S
H226 C225 0.959 . S
H227 C225 0.960 . S
H228 C225 0.961 . S
O229 Co204 1.967 . S
O229 C237 1.258 . S
O230 Co205 1.941 . S
O230 C237 1.266 . S
H231 C233 0.959 . S
H232 C233 0.961 . S
C233 C223 1.510 . S
C233 H231 0.959 . S
C233 H232 0.961 . S
C233 H234 0.960 . S
H234 C233 0.960 . S
H235 N215 0.862 . S
O236 Co204 1.920 . S
O236 C209 1.289 . S
C237 O229 1.258 . S
C237 O230 1.266 . S
Co238 O241 1.970 . S
Co238 N255 1.989 . S
Co238 O263 1.967 . S
Co238 O270 1.920 . S
Co239 O242 1.966 . S
Co239 N248 2.022 . S
Co239 N256 1.993 . S
Co239 O264 1.941 . S
C240 O241 1.258 . S
C240 O242 1.263 . S
O241 Co238 1.970 . S
O241 C240 1.258 . S
O242 Co239 1.966 . S
O242 C240 1.263 . S
C243 O244 1.235 . S
C243 O270 1.289 . S
O244 C243 1.235 . S
C245 C247 1.400 . S
C245 N248 1.351 . S
C245 C250 1.501 . S
C246 C247 1.387 . S
C246 N249 1.341 . S
C247 C245 1.400 . S
C247 C246 1.387 . S
N248 Co239 2.022 . S
N248 C245 1.351 . S
N248 N249 1.365 . S
N249 C246 1.341 . S
N249 N248 1.365 . S
N249 H269 0.862 . S
C250 C245 1.501 . S
C250 H251 0.961 . S
C250 H252 0.961 . S
C250 H253 0.960 . S
H251 C250 0.961 . S
H252 C250 0.961 . S
H253 C250 0.960 . S
C254 N255 1.342 . S
C254 C258 1.401 . S
C254 C259 1.499 . S
N255 Co238 1.989 . S
N255 C254 1.342 . S
N255 N256 1.388 . S
N256 Co239 1.993 . S
N256 N255 1.388 . S
N256 C257 1.346 . S
C257 N256 1.346 . S
C257 C258 1.396 . S
C257 C267 1.510 . S
C258 C254 1.401 . S
C258 C257 1.396 . S
C259 C254 1.499 . S
C259 H260 0.959 . S
C259 H261 0.960 . S
C259 H262 0.961 . S
H260 C259 0.959 . S
H261 C259 0.960 . S
H262 C259 0.961 . S
O263 Co238 1.967 . S
O263 C271 1.258 . S
O264 Co239 1.941 . S
O264 C271 1.266 . S
H265 C267 0.959 . S
H266 C267 0.961 . S
C267 C257 1.510 . S
C267 H265 0.959 . S
C267 H266 0.961 . S
C267 H268 0.960 . S
H268 C267 0.960 . S
H269 N249 0.862 . S
O270 Co238 1.920 . S
O270 C243 1.289 . S
C271 O263 1.258 . S
C271 O264 1.266 . S
H272 C280 0.929 . S
H273 C282 0.930 . S
H274 C284 0.930 . S
H275 C287 0.929 . S
H276 C290 0.930 . S
H277 C292 0.960 . S
H278 C292 0.960 . S
H279 C292 0.960 1_554 S
C280 H272 0.929 . S
C280 C281 1.377 1_556 S
C280 C282 1.384 . S
C281 C280 1.377 1_554 S
C281 C287 1.390 . S
C282 H273 0.930 . S
C282 C280 1.384 . S
C282 C283 1.372 1_556 S
C283 C282 1.372 1_554 S
C283 C284 1.400 . S
C283 C288 1.490 . S
C284 H274 0.930 . S
C284 C283 1.400 . S
C284 C287 1.386 . S
H285 C301 0.930 . S
H286 C302 0.931 . S
C287 H275 0.929 . S
C287 C281 1.390 . S
C287 C284 1.386 . S
C288 C283 1.490 . S
C288 C290 1.395 . S
C288 C291 1.403 1_554 S
H289 C295 0.930 . S
C290 H276 0.930 . S
C290 C288 1.395 . S
C290 C293 1.403 . S
C291 C288 1.403 1_556 S
C291 C292 1.524 . S
C291 C295 1.400 . S
C292 H277 0.960 . S
C292 H278 0.960 . S
C292 H279 0.960 1_556 S
C292 C291 1.524 . S
C293 C290 1.403 . S
C293 C294 1.392 1_554 S
C293 C297 1.495 . S
C294 C293 1.392 1_556 S
C294 C295 1.385 . S
C294 C296 1.478 . S
C295 H289 0.930 . S
C295 C291 1.400 . S
C295 C294 1.385 . S
C296 C294 1.478 . S
C296 C298 1.381 . S
C296 C302 1.383 1_556 S
C297 C293 1.495 . S
C297 H303 0.959 . S
C297 H304 0.961 . S
C297 H305 0.960 1_554 S
C298 C296 1.381 . S
C298 C299 1.394 . S
C298 H306 0.930 . S
C299 C298 1.394 . S
C299 C300 1.383 . S
C299 H307 0.929 . S
C300 C299 1.383 . S
C300 C301 1.377 1_556 S
C301 H285 0.930 . S
C301 C300 1.377 1_554 S
C301 C302 1.379 . S
C302 H286 0.931 . S
C302 C296 1.383 1_554 S
C302 C301 1.379 . S
H303 C297 0.959 . S
H304 C297 0.961 . S
H305 C297 0.960 1_556 S
H306 C298 0.930 . S
H307 C299 0.929 . S
H308 C316 0.929 . S
H309 C318 0.930 . S
H310 C320 0.930 . S
H311 C323 0.929 . S
H312 C326 0.930 . S
H313 C328 0.960 . S
H314 C328 0.960 1_554 S
H315 C328 0.960 . S
C316 H308 0.929 . S
C316 C317 1.377 1_554 S
C316 C318 1.384 . S
C317 C316 1.377 1_556 S
C317 C323 1.390 . S
C318 H309 0.930 . S
C318 C316 1.384 . S
C318 C319 1.372 1_554 S
C319 C318 1.372 1_556 S
C319 C320 1.400 . S
C319 C324 1.490 1_556 S
C320 H310 0.930 . S
C320 C319 1.400 . S
C320 C323 1.386 . S
H321 C337 0.930 . S
H322 C338 0.931 . S
C323 H311 0.929 . S
C323 C317 1.390 . S
C323 C320 1.386 . S
C324 C319 1.490 1_554 S
C324 C326 1.395 . S
C324 C327 1.403 1_554 S
H325 C331 0.930 . S
C326 H312 0.930 . S
C326 C324 1.395 . S
C326 C329 1.403 . S
C327 C324 1.403 1_556 S
C327 C328 1.524 . S
C327 C331 1.400 1_556 S
C328 H313 0.960 . S
C328 H314 0.960 1_556 S
C328 H315 0.960 . S
C328 C327 1.524 . S
C329 C326 1.403 . S
C329 C330 1.392 . S
C329 C333 1.495 . S
C330 C329 1.392 . S
C330 C331 1.385 . S
C330 C332 1.478 . S
C331 H325 0.930 . S
C331 C327 1.400 1_554 S
C331 C330 1.385 . S
C332 C330 1.478 . S
C332 C334 1.381 . S
C332 C338 1.383 1_554 S
C333 C329 1.495 . S
C333 H339 0.959 . S
C333 H340 0.961 1_554 S
C333 H341 0.960 . S
C334 C332 1.381 . S
C334 C335 1.394 . S
C334 H342 0.930 . S
C335 C334 1.394 . S
C335 C336 1.383 . S
C335 H343 0.929 . S
C336 C335 1.383 . S
C336 C337 1.377 1_554 S
C337 H321 0.930 . S
C337 C336 1.377 1_556 S
C337 C338 1.379 . S
C338 H322 0.931 . S
C338 C332 1.383 1_556 S
C338 C337 1.379 . S
H339 C333 0.959 . S
H340 C333 0.961 1_556 S
H341 C333 0.960 . S
H342 C334 0.930 . S
H343 C335 0.929 . S
H344 C352 0.929 . S
H345 C354 0.930 . S
H346 C356 0.930 . S
H347 C359 0.929 . S
H348 C362 0.930 . S
H349 C364 0.960 . S
H350 C364 0.964 . S
H351 C364 0.960 . S
C352 H344 0.929 . S
C352 C353 1.377 1_554 S
C352 C354 1.384 . S
C353 C352 1.377 1_556 S
C353 C359 1.390 . S
C354 H345 0.930 . S
C354 C352 1.384 . S
C354 C355 1.372 1_554 S
C355 C354 1.372 1_556 S
C355 C356 1.400 . S
C355 C360 1.489 1_556 S
C356 H346 0.930 . S
C356 C355 1.400 . S
C356 C359 1.386 . S
H357 C373 0.930 . S
H358 C374 0.931 . S
C359 H347 0.929 . S
C359 C353 1.390 . S
C359 C356 1.386 . S
C360 C355 1.489 1_554 S
C360 C362 1.398 . S
C360 C363 1.401 1_554 S
H361 C367 0.930 . S
C362 H348 0.930 . S
C362 C360 1.398 . S
C362 C365 1.403 . S
C363 C360 1.401 1_556 S
C363 C364 1.524 . S
C363 C367 1.400 . S
C364 H349 0.960 . S
C364 H350 0.964 . S
C364 H351 0.960 . S
C364 C363 1.524 . S
C365 C362 1.403 . S
C365 C366 1.392 . S
C365 C369 1.495 . S
C366 C365 1.392 . S
C366 C367 1.385 1_554 S
C366 C368 1.478 . S
C367 H361 0.930 . S
C367 C363 1.400 . S
C367 C366 1.385 1_556 S
C368 C366 1.478 . S
C368 C370 1.381 . S
C368 C374 1.383 1_554 S
C369 C365 1.495 . S
C369 H375 0.959 . S
C369 H376 0.961 . S
C369 H377 0.960 . S
C370 C368 1.381 . S
C370 C371 1.394 . S
C370 H378 0.930 . S
C371 C370 1.394 . S
C371 C372 1.383 . S
C371 H379 0.929 . S
C372 C371 1.383 . S
C372 C373 1.377 1_554 S
C373 H357 0.930 . S
C373 C372 1.377 1_556 S
C373 C374 1.379 . S
C374 H358 0.931 . S
C374 C368 1.383 1_556 S
C374 C373 1.379 . S
H375 C369 0.959 . S
H376 C369 0.961 . S
H377 C369 0.960 . S
H378 C370 0.930 . S
H379 C371 0.929 . S
H380 C388 0.929 . S
H381 C390 0.930 . S
H382 C392 0.930 . S
H383 C395 0.929 . S
H384 C398 0.930 . S
H385 C400 0.960 . S
H386 C400 0.960 . S
H387 C400 0.960 1_556 S
C388 H380 0.929 . S
C388 C389 1.377 . S
C388 C390 1.384 . S
C389 C388 1.377 . S
C389 C395 1.390 1_554 S
C390 H381 0.930 . S
C390 C388 1.384 . S
C390 C391 1.372 . S
C391 C390 1.372 . S
C391 C392 1.400 1_554 S
C391 C396 1.490 . S
C392 H382 0.930 . S
C392 C391 1.400 1_556 S
C392 C395 1.386 . S
H393 C409 0.930 . S
H394 C410 0.931 . S
C395 H383 0.929 . S
C395 C389 1.390 1_556 S
C395 C392 1.386 . S
C396 C391 1.490 . S
C396 C398 1.395 . S
C396 C399 1.403 . S
H397 C403 0.930 . S
C398 H384 0.930 . S
C398 C396 1.395 . S
C398 C401 1.403 . S
C399 C396 1.403 . S
C399 C400 1.524 . S
C399 C403 1.400 1_554 S
C400 H385 0.960 . S
C400 H386 0.960 . S
C400 H387 0.960 1_554 S
C400 C399 1.524 . S
C401 C398 1.403 . S
C401 C402 1.390 1_554 S
C401 C405 1.495 . S
C402 C401 1.390 1_556 S
C402 C403 1.385 . S
C402 C404 1.480 . S
C403 H397 0.930 . S
C403 C399 1.400 1_556 S
C403 C402 1.385 . S
C404 C402 1.480 . S
C404 C406 1.381 1_556 S
C404 C410 1.383 . S
C405 C401 1.495 . S
C405 H411 0.959 . S
C405 H412 0.961 1_554 S
C405 H413 0.960 . S
C406 C404 1.381 1_554 S
C406 C407 1.394 . S
C406 H414 0.930 . S
C407 C406 1.394 . S
C407 C408 1.383 1_554 S
C407 H415 0.929 . S
C408 C407 1.383 1_556 S
C408 C409 1.377 . S
C409 H393 0.930 . S
C409 C408 1.377 . S
C409 C410 1.379 . S
C410 H394 0.931 . S
C410 C404 1.383 . S
C410 C409 1.379 . S
H411 C405 0.959 . S
H412 C405 0.961 1_556 S
H413 C405 0.960 . S
H414 C406 0.930 . S
H415 C407 0.929 . S
H416 C424 0.929 . S
H417 C426 0.930 . S
H418 C428 0.930 . S
H419 C431 0.929 . S
H420 C434 0.930 . S
H421 C436 0.960 . S
H422 C436 0.960 . S
H423 C436 0.960 . S
C424 H416 0.929 . S
C424 C425 1.377 . S
C424 C426 1.384 1_455 S
C425 C424 1.377 . S
C425 C431 1.390 . S
C426 H417 0.930 . S
C426 C424 1.384 1_655 S
C426 C427 1.372 . S
C427 C426 1.372 . S
C427 C428 1.400 1_655 S
C427 C432 1.490 . S
C428 H418 0.930 . S
C428 C427 1.400 1_455 S
C428 C431 1.386 . S
H429 C445 0.930 . S
H430 C446 0.931 . S
C431 H419 0.929 . S
C431 C425 1.390 . S
C431 C428 1.386 . S
C432 C427 1.490 . S
C432 C434 1.395 . S
C432 C435 1.403 . S
H433 C439 0.930 . S
C434 H420 0.930 . S
C434 C432 1.395 . S
C434 C437 1.403 . S
C435 C432 1.403 . S
C435 C436 1.524 . S
C435 C439 1.400 . S
C436 H421 0.960 . S
C436 H422 0.960 . S
C436 H423 0.960 . S
C436 C435 1.524 . S
C437 C434 1.403 . S
C437 C438 1.392 . S
C437 C441 1.495 . S
C438 C437 1.392 . S
C438 C439 1.385 . S
C438 C440 1.478 . S
C439 H433 0.930 . S
C439 C435 1.400 . S
C439 C438 1.385 . S
C440 C438 1.478 . S
C440 C442 1.381 . S
C440 C446 1.383 . S
C441 C437 1.495 . S
C441 H447 0.959 . S
C441 H448 0.961 . S
C441 H449 0.960 . S
C442 C440 1.381 . S
C442 C443 1.394 . S
C442 H450 0.930 . S
C443 C442 1.394 . S
C443 C444 1.383 . S
C443 H451 0.929 . S
C444 C443 1.383 . S
C444 C445 1.377 . S
C445 H429 0.930 . S
C445 C444 1.377 . S
C445 C446 1.379 . S
C446 H430 0.931 . S
C446 C440 1.383 . S
C446 C445 1.379 . S
H447 C441 0.959 . S
H448 C441 0.961 . S
H449 C441 0.960 . S
H450 C442 0.930 . S
H451 C443 0.929 . S
H452 C460 0.929 . S
H453 C462 0.930 . S
H454 C464 0.930 . S
H455 C467 0.929 . S
H456 C470 0.930 . S
H457 C472 0.960 . S
H458 C472 0.960 . S
H459 C472 0.960 . S
C460 H452 0.929 . S
C460 C461 1.377 . S
C460 C462 1.384 1_545 S
C461 C460 1.377 . S
C461 C467 1.390 . S
C462 H453 0.930 . S
C462 C460 1.384 1_565 S
C462 C463 1.372 . S
C463 C462 1.372 . S
C463 C464 1.400 1_565 S
C463 C468 1.490 . S
C464 H454 0.930 . S
C464 C463 1.400 1_545 S
C464 C467 1.386 . S
H465 C481 0.930 . S
H466 C482 0.931 . S
C467 H455 0.929 . S
C467 C461 1.390 . S
C467 C464 1.386 . S
C468 C463 1.490 . S
C468 C470 1.395 . S
C468 C471 1.403 . S
H469 C475 0.930 . S
C470 H456 0.930 . S
C470 C468 1.395 . S
C470 C473 1.403 . S
C471 C468 1.403 . S
C471 C472 1.524 . S
C471 C475 1.400 . S
C472 H457 0.960 . S
C472 H458 0.960 . S
C472 H459 0.960 . S
C472 C471 1.524 . S
C473 C470 1.403 . S
C473 C474 1.392 . S
C473 C477 1.495 . S
C474 C473 1.392 . S
C474 C475 1.385 . S
C474 C476 1.478 . S
C475 H469 0.930 . S
C475 C471 1.400 . S
C475 C474 1.385 . S
C476 C474 1.478 . S
C476 C478 1.381 . S
C476 C482 1.383 . S
C477 C473 1.495 . S
C477 H483 0.959 . S
C477 H484 0.961 . S
C477 H485 0.960 . S
C478 C476 1.381 . S
C478 C479 1.394 . S
C478 H486 0.930 . S
C479 C478 1.394 . S
C479 C480 1.383 . S
C479 H487 0.929 . S
C480 C479 1.383 . S
C480 C481 1.377 . S
C481 H465 0.930 . S
C481 C480 1.377 . S
C481 C482 1.379 . S
C482 H466 0.931 . S
C482 C476 1.383 . S
C482 C481 1.379 . S
H483 C477 0.959 . S
H484 C477 0.961 . S
H485 C477 0.960 . S
H486 C478 0.930 . S
H487 C479 0.929 . S
H488 C496 0.929 . S
H489 C498 0.930 . S
H490 C500 0.930 . S
H491 C503 0.929 . S
H492 C506 0.930 . S
H493 C508 0.960 . S
H494 C508 0.960 . S
H495 C508 0.960 . S
C496 H488 0.929 . S
C496 C497 1.377 . S
C496 C498 1.384 . S
C497 C496 1.377 . S
C497 C503 1.390 . S
C498 H489 0.930 . S
C498 C496 1.384 . S
C498 C499 1.372 . S
C499 C498 1.372 . S
C499 C500 1.400 . S
C499 C504 1.490 . S
C500 H490 0.930 . S
C500 C499 1.400 . S
C500 C503 1.386 . S
H501 C517 0.930 . S
H502 C518 0.931 . S
C503 H491 0.929 . S
C503 C497 1.390 . S
C503 C500 1.386 . S
C504 C499 1.490 . S
C504 C506 1.395 . S
C504 C507 1.403 . S
H505 C511 0.930 . S
C506 H492 0.930 . S
C506 C504 1.395 . S
C506 C509 1.403 . S
C507 C504 1.403 . S
C507 C508 1.524 . S
C507 C511 1.400 . S
C508 H493 0.960 . S
C508 H494 0.960 . S
C508 H495 0.960 . S
C508 C507 1.524 . S
C509 C506 1.403 . S
C509 C510 1.392 . S
C509 C513 1.495 . S
C510 C509 1.392 . S
C510 C511 1.385 . S
C510 C512 1.478 . S
C511 H505 0.930 . S
C511 C507 1.400 . S
C511 C510 1.385 . S
C512 C510 1.478 . S
C512 C514 1.381 . S
C512 C518 1.383 1_455 S
C513 C509 1.495 . S
C513 H519 0.959 . S
C513 H520 0.961 . S
C513 H521 0.960 . S
C514 C512 1.381 . S
C514 C515 1.394 1_455 S
C514 H522 0.930 . S
C515 C514 1.394 1_655 S
C515 C516 1.383 . S
C515 H523 0.929 . S
C516 C515 1.383 . S
C516 C517 1.377 . S
C517 H501 0.930 . S
C517 C516 1.377 . S
C517 C518 1.379 . S
C518 H502 0.931 . S
C518 C512 1.383 1_655 S
C518 C517 1.379 . S
H519 C513 0.959 . S
H520 C513 0.961 . S
H521 C513 0.960 . S
H522 C514 0.930 . S
H523 C515 0.929 . S
H524 C532 0.929 . S
H525 C534 0.930 . S
H526 C536 0.930 . S
H527 C539 0.929 . S
H528 C542 0.930 . S
H529 C544 0.960 . S
H530 C544 0.960 . S
H531 C544 0.960 . S
C532 H524 0.929 . S
C532 C533 1.377 . S
C532 C534 1.384 . S
C533 C532 1.377 . S
C533 C539 1.390 . S
C534 H525 0.930 . S
C534 C532 1.384 . S
C534 C535 1.372 . S
C535 C534 1.372 . S
C535 C536 1.400 . S
C535 C540 1.490 . S
C536 H526 0.930 . S
C536 C535 1.400 . S
C536 C539 1.386 . S
H537 C553 0.930 . S
H538 C554 0.931 . S
C539 H527 0.929 . S
C539 C533 1.390 . S
C539 C536 1.386 . S
C540 C535 1.490 . S
C540 C542 1.395 . S
C540 C543 1.403 . S
H541 C547 0.930 . S
C542 H528 0.930 . S
C542 C540 1.395 . S
C542 C545 1.403 . S
C543 C540 1.403 . S
C543 C544 1.524 . S
C543 C547 1.400 . S
C544 H529 0.960 . S
C544 H530 0.960 . S
C544 H531 0.960 . S
C544 C543 1.524 . S
C545 C542 1.403 . S
C545 C546 1.392 . S
C545 C549 1.495 . S
C546 C545 1.392 . S
C546 C547 1.385 . S
C546 C548 1.478 . S
C547 H541 0.930 . S
C547 C543 1.400 . S
C547 C546 1.385 . S
C548 C546 1.478 . S
C548 C550 1.381 1_545 S
C548 C554 1.383 . S
C549 C545 1.495 . S
C549 H555 0.959 . S
C549 H556 0.961 . S
C549 H557 0.960 . S
C550 C548 1.381 1_565 S
C550 C551 1.394 . S
C550 H558 0.930 . S
C551 C550 1.394 . S
C551 C552 1.383 . S
C551 H559 0.929 . S
C552 C551 1.383 . S
C552 C553 1.377 . S
C553 H537 0.930 . S
C553 C552 1.377 . S
C553 C554 1.379 1_565 S
C554 H538 0.931 . S
C554 C548 1.383 . S
C554 C553 1.379 1_545 S
H555 C549 0.959 . S
H556 C549 0.961 . S
H557 C549 0.960 . S
H558 C550 0.930 . S
H559 C551 0.929 . S
H560 C568 0.929 . S
H561 C570 0.930 . S
H562 C572 0.930 . S
H563 C575 0.929 . S
H564 C578 0.930 . S
H565 C580 0.960 . S
H566 C580 0.960 . S
H567 C580 0.960 . S
C568 H560 0.929 . S
C568 C569 1.377 . S
C568 C570 1.384 . S
C569 C568 1.377 . S
C569 C575 1.390 . S
C570 H561 0.930 . S
C570 C568 1.384 . S
C570 C571 1.372 . S
C571 C570 1.372 . S
C571 C572 1.400 . S
C571 C576 1.490 . S
C572 H562 0.930 . S
C572 C571 1.400 . S
C572 C575 1.386 . S
H573 C589 0.930 . S
H574 C590 0.931 . S
C575 H563 0.929 . S
C575 C569 1.390 . S
C575 C572 1.386 . S
C576 C571 1.490 . S
C576 C578 1.395 . S
C576 C579 1.403 . S
H577 C583 0.930 . S
C578 H564 0.930 . S
C578 C576 1.395 . S
C578 C581 1.403 . S
C579 C576 1.403 . S
C579 C580 1.524 . S
C579 C583 1.400 . S
C580 H565 0.960 . S
C580 H566 0.960 . S
C580 H567 0.960 . S
C580 C579 1.524 . S
C581 C578 1.403 . S
C581 C582 1.392 . S
C581 C585 1.495 . S
C582 C581 1.392 . S
C582 C583 1.385 . S
C582 C584 1.478 . S
C583 H577 0.930 . S
C583 C579 1.400 . S
C583 C582 1.385 . S
C584 C582 1.478 . S
C584 C586 1.381 . S
C584 C590 1.383 . S
C585 C581 1.495 . S
C585 H591 0.959 . S
C585 H592 0.961 . S
C585 H593 0.960 . S
C586 C584 1.381 . S
C586 C587 1.394 . S
C586 H594 0.930 . S
C587 C586 1.394 . S
C587 C588 1.383 . S
C587 H595 0.929 . S
C588 C587 1.383 . S
C588 C589 1.377 . S
C589 H573 0.930 . S
C589 C588 1.377 . S
C589 C590 1.379 . S
C590 H574 0.931 . S
C590 C584 1.383 . S
C590 C589 1.379 . S
H591 C585 0.959 . S
H592 C585 0.961 . S
H593 C585 0.960 . S
H594 C586 0.930 . S
H595 C587 0.929 . S
H596 C604 0.929 . S
H597 C606 0.930 . S
H598 C608 0.930 . S
H599 C611 0.929 . S
H600 C614 0.930 . S
H601 C616 0.960 . S
H602 C616 0.960 . S
H603 C616 0.960 . S
C604 H596 0.929 . S
C604 C605 1.377 . S
C604 C606 1.384 . S
C605 C604 1.377 . S
C605 C611 1.390 . S
C606 H597 0.930 . S
C606 C604 1.384 . S
C606 C607 1.372 . S
C607 C606 1.372 . S
C607 C608 1.400 . S
C607 C612 1.490 . S
C608 H598 0.930 . S
C608 C607 1.400 . S
C608 C611 1.386 . S
H609 C625 0.930 . S
H610 C626 0.931 . S
C611 H599 0.929 . S
C611 C605 1.390 . S
C611 C608 1.386 . S
C612 C607 1.490 . S
C612 C614 1.395 . S
C612 C615 1.403 . S
H613 C619 0.930 . S
C614 H600 0.930 . S
C614 C612 1.395 . S
C614 C617 1.403 . S
C615 C612 1.403 . S
C615 C616 1.524 . S
C615 C619 1.400 . S
C616 H601 0.960 . S
C616 H602 0.960 . S
C616 H603 0.960 . S
C616 C615 1.524 . S
C617 C614 1.403 . S
C617 C618 1.392 . S
C617 C621 1.495 . S
C618 C617 1.392 . S
C618 C619 1.385 . S
C618 C620 1.478 . S
C619 H613 0.930 . S
C619 C615 1.400 . S
C619 C618 1.385 . S
C620 C618 1.478 . S
C620 C622 1.381 . S
C620 C626 1.383 . S
C621 C617 1.495 . S
C621 H627 0.959 . S
C621 H628 0.961 . S
C621 H629 0.960 . S
C622 C620 1.381 . S
C622 C623 1.394 . S
C622 H630 0.930 . S
C623 C622 1.394 . S
C623 C624 1.383 . S
C623 H631 0.929 . S
C624 C623 1.383 . S
C624 C625 1.377 . S
C625 H609 0.930 . S
C625 C624 1.377 . S
C625 C626 1.379 . S
C626 H610 0.931 . S
C626 C620 1.383 . S
C626 C625 1.379 . S
H627 C621 0.959 . S
H628 C621 0.961 . S
H629 C621 0.960 . S
H630 C622 0.930 . S
H631 C623 0.929 . S
H632 C640 0.929 . S
H633 C642 0.930 . S
H634 C644 0.930 . S
H635 C647 0.929 . S
H636 C650 0.930 . S
H637 C652 0.960 . S
H638 C652 0.960 . S
H639 C652 0.960 . S
C640 H632 0.929 . S
C640 C641 1.377 . S
C640 C642 1.384 . S
C641 C640 1.377 . S
C641 C647 1.390 . S
C642 H633 0.930 . S
C642 C640 1.384 . S
C642 C643 1.372 . S
C643 C642 1.372 . S
C643 C644 1.400 . S
C643 C648 1.490 . S
C644 H634 0.930 . S
C644 C643 1.400 . S
C644 C647 1.386 . S
H645 C661 0.930 . S
H646 C662 0.931 . S
C647 H635 0.929 . S
C647 C641 1.390 . S
C647 C644 1.386 . S
C648 C643 1.490 . S
C648 C650 1.395 . S
C648 C651 1.403 . S
H649 C655 0.930 . S
C650 H636 0.930 . S
C650 C648 1.395 . S
C650 C653 1.403 . S
C651 C648 1.403 . S
C651 C652 1.524 . S
C651 C655 1.400 . S
C652 H637 0.960 . S
C652 H638 0.960 . S
C652 H639 0.960 . S
C652 C651 1.524 . S
C653 C650 1.403 . S
C653 C654 1.392 . S
C653 C657 1.495 . S
C654 C653 1.392 . S
C654 C655 1.385 . S
C654 C656 1.478 . S
C655 H649 0.930 . S
C655 C651 1.400 . S
C655 C654 1.385 . S
C656 C654 1.478 . S
C656 C658 1.381 . S
C656 C662 1.383 . S
C657 C653 1.495 . S
C657 H663 0.959 . S
C657 H664 0.961 . S
C657 H665 0.960 . S
C658 C656 1.381 . S
C658 C659 1.394 . S
C658 H666 0.930 . S
C659 C658 1.394 . S
C659 C660 1.383 . S
C659 H667 0.929 . S
C660 C659 1.383 . S
C660 C661 1.377 . S
C661 H645 0.930 . S
C661 C660 1.377 . S
C661 C662 1.379 . S
C662 H646 0.931 . S
C662 C656 1.383 . S
C662 C661 1.379 . S
H663 C657 0.959 . S
H664 C657 0.961 . S
H665 C657 0.960 . S
H666 C658 0.930 . S
H667 C659 0.929 . S
H668 C676 0.929 . S
H669 C678 0.930 . S
H670 C680 0.930 . S
H671 C683 0.929 . S
H672 C686 0.930 . S
H673 C688 0.960 . S
H674 C688 0.960 . S
H675 C688 0.960 . S
C676 H668 0.929 . S
C676 C677 1.377 . S
C676 C678 1.384 . S
C677 C676 1.377 . S
C677 C683 1.390 . S
C678 H669 0.930 . S
C678 C676 1.384 . S
C678 C679 1.372 . S
C679 C678 1.372 . S
C679 C680 1.400 . S
C679 C684 1.490 . S
C680 H670 0.930 . S
C680 C679 1.400 . S
C680 C683 1.386 . S
H681 C697 0.930 . S
H682 C698 0.931 . S
C683 H671 0.929 . S
C683 C677 1.390 . S
C683 C680 1.386 . S
C684 C679 1.490 . S
C684 C686 1.395 . S
C684 C687 1.403 . S
H685 C691 0.930 . S
C686 H672 0.930 . S
C686 C684 1.395 . S
C686 C689 1.403 . S
C687 C684 1.403 . S
C687 C688 1.524 . S
C687 C691 1.400 . S
C688 H673 0.960 . S
C688 H674 0.960 . S
C688 H675 0.960 . S
C688 C687 1.524 . S
C689 C686 1.403 . S
C689 C690 1.392 . S
C689 C693 1.495 . S
C690 C689 1.392 . S
C690 C691 1.385 . S
C690 C692 1.478 . S
C691 H685 0.930 . S
C691 C687 1.400 . S
C691 C690 1.385 . S
C692 C690 1.478 . S
C692 C694 1.381 . S
C692 C698 1.383 . S
C693 C689 1.495 . S
C693 H699 0.959 . S
C693 H700 0.961 . S
C693 H701 0.960 . S
C694 C692 1.381 . S
C694 C695 1.394 . S
C694 H702 0.930 . S
C695 C694 1.394 . S
C695 C696 1.383 . S
C695 H703 0.929 . S
C696 C695 1.383 . S
C696 C697 1.377 . S
C697 H681 0.930 . S
C697 C696 1.377 . S
C697 C698 1.379 . S
C698 H682 0.931 . S
C698 C692 1.383 . S
C698 C697 1.379 . S
H699 C693 0.959 . S
H700 C693 0.961 . S
H701 C693 0.960 . S
H702 C694 0.930 . S
H703 C695 0.929 . S
H704 C712 0.929 . S
H705 C714 0.930 . S
H706 C716 0.930 . S
H707 C719 0.929 . S
H708 C722 0.930 . S
H709 C724 0.960 . S
H710 C724 0.960 . S
H711 C724 0.960 . S
C712 H704 0.929 . S
C712 C713 1.377 . S
C712 C714 1.384 . S
C713 C712 1.377 . S
C713 C719 1.390 . S
C714 H705 0.930 . S
C714 C712 1.384 . S
C714 C715 1.372 . S
C715 C714 1.372 . S
C715 C716 1.400 . S
C715 C720 1.490 . S
C716 H706 0.930 . S
C716 C715 1.400 . S
C716 C719 1.386 . S
H717 C733 0.930 . S
H718 C734 0.931 . S
C719 H707 0.929 . S
C719 C713 1.390 . S
C719 C716 1.386 . S
C720 C715 1.490 . S
C720 C722 1.395 . S
C720 C723 1.403 . S
H721 C727 0.930 . S
C722 H708 0.930 . S
C722 C720 1.395 . S
C722 C725 1.403 . S
C723 C720 1.403 . S
C723 C724 1.524 . S
C723 C727 1.400 . S
C724 H709 0.960 . S
C724 H710 0.960 . S
C724 H711 0.960 . S
C724 C723 1.524 . S
C725 C722 1.403 . S
C725 C726 1.392 . S
C725 C729 1.495 . S
C726 C725 1.392 . S
C726 C727 1.385 . S
C726 C728 1.478 . S
C727 H721 0.930 . S
C727 C723 1.400 . S
C727 C726 1.385 . S
C728 C726 1.478 . S
C728 C730 1.381 . S
C728 C734 1.383 . S
C729 C725 1.495 . S
C729 H735 0.959 . S
C729 H736 0.961 . S
C729 H737 0.960 . S
C730 C728 1.381 . S
C730 C731 1.394 . S
C730 H738 0.930 . S
C731 C730 1.394 . S
C731 C732 1.383 . S
C731 H739 0.929 . S
C732 C731 1.383 . S
C732 C733 1.377 . S
C733 H717 0.930 . S
C733 C732 1.377 . S
C733 C734 1.379 . S
C734 H718 0.931 . S
C734 C728 1.383 . S
C734 C733 1.379 . S
H735 C729 0.959 . S
H736 C729 0.961 . S
H737 C729 0.960 . S
H738 C730 0.930 . S
H739 C731 0.929 . S
H740 C748 0.929 . S
H741 C750 0.930 . S
H742 C752 0.930 . S
H743 C755 0.929 . S
H744 C758 0.930 . S
H745 C760 0.960 . S
H746 C760 0.960 . S
H747 C760 0.960 . S
C748 H740 0.929 . S
C748 C749 1.377 . S
C748 C750 1.384 . S
C749 C748 1.377 . S
C749 C755 1.390 . S
C750 H741 0.930 . S
C750 C748 1.384 . S
C750 C751 1.372 . S
C751 C750 1.372 . S
C751 C752 1.400 . S
C751 C756 1.490 . S
C752 H742 0.930 . S
C752 C751 1.400 . S
C752 C755 1.386 . S
H753 C769 0.930 . S
H754 C770 0.931 . S
C755 H743 0.929 . S
C755 C749 1.390 . S
C755 C752 1.386 . S
C756 C751 1.490 . S
C756 C758 1.395 . S
C756 C759 1.403 . S
H757 C763 0.930 . S
C758 H744 0.930 . S
C758 C756 1.395 . S
C758 C761 1.403 . S
C759 C756 1.403 . S
C759 C760 1.524 . S
C759 C763 1.400 . S
C760 H745 0.960 . S
C760 H746 0.960 . S
C760 H747 0.960 . S
C760 C759 1.524 . S
C761 C758 1.403 . S
C761 C762 1.392 . S
C761 C765 1.495 . S
C762 C761 1.392 . S
C762 C763 1.385 . S
C762 C764 1.478 . S
C763 H757 0.930 . S
C763 C759 1.400 . S
C763 C762 1.385 . S
C764 C762 1.478 . S
C764 C766 1.381 . S
C764 C770 1.383 . S
C765 C761 1.495 . S
C765 H771 0.959 . S
C765 H772 0.961 . S
C765 H773 0.960 . S
C766 C764 1.381 . S
C766 C767 1.394 . S
C766 H774 0.930 . S
C767 C766 1.394 . S
C767 C768 1.383 . S
C767 H775 0.929 . S
C768 C767 1.383 . S
C768 C769 1.377 . S
C769 H753 0.930 . S
C769 C768 1.377 . S
C769 C770 1.379 . S
C770 H754 0.931 . S
C770 C764 1.383 . S
C770 C769 1.379 . S
H771 C765 0.959 . S
H772 C765 0.961 . S
H773 C765 0.960 . S
H774 C766 0.930 . S
H775 C767 0.929 . S
H776 C784 0.929 . S
H777 C786 0.930 . S
H778 C788 0.930 . S
H779 C791 0.929 . S
H780 C794 0.930 . S
H781 C796 0.960 . S
H782 C796 0.960 . S
H783 C796 0.960 . S
C784 H776 0.929 . S
C784 C785 1.377 . S
C784 C786 1.384 . S
C785 C784 1.377 . S
C785 C791 1.390 . S
C786 H777 0.930 . S
C786 C784 1.384 . S
C786 C787 1.372 . S
C787 C786 1.372 . S
C787 C788 1.400 . S
C787 C792 1.490 . S
C788 H778 0.930 . S
C788 C787 1.400 . S
C788 C791 1.386 . S
H789 C805 0.930 . S
H790 C806 0.931 . S
C791 H779 0.929 . S
C791 C785 1.390 . S
C791 C788 1.386 . S
C792 C787 1.490 . S
C792 C794 1.395 . S
C792 C795 1.403 . S
H793 C799 0.930 . S
C794 H780 0.930 . S
C794 C792 1.395 . S
C794 C797 1.403 . S
C795 C792 1.403 . S
C795 C796 1.524 . S
C795 C799 1.400 . S
C796 H781 0.960 . S
C796 H782 0.960 . S
C796 H783 0.960 . S
C796 C795 1.524 . S
C797 C794 1.403 . S
C797 C798 1.392 . S
C797 C801 1.495 . S
C798 C797 1.392 . S
C798 C799 1.385 . S
C798 C800 1.478 . S
C799 H793 0.930 . S
C799 C795 1.400 . S
C799 C798 1.385 . S
C800 C798 1.478 . S
C800 C802 1.381 . S
C800 C806 1.383 . S
C801 C797 1.495 . S
C801 H807 0.959 . S
C801 H808 0.961 . S
C801 H809 0.960 . S
C802 C800 1.381 . S
C802 C803 1.394 . S
C802 H810 0.930 . S
C803 C802 1.394 . S
C803 C804 1.383 . S
C803 H811 0.929 . S
C804 C803 1.383 . S
C804 C805 1.377 . S
C805 H789 0.930 . S
C805 C804 1.377 . S
C805 C806 1.379 . S
C806 H790 0.931 . S
C806 C800 1.383 . S
C806 C805 1.379 . S
H807 C801 0.959 . S
H808 C801 0.961 . S
H809 C801 0.960 . S
H810 C802 0.930 . S
H811 C803 0.929 . S
H812 C820 0.929 . S
H813 C822 0.930 . S
H814 C824 0.930 . S
H815 C827 0.929 . S
H816 C830 0.930 . S
H817 C832 0.960 . S
H818 C832 0.960 . S
H819 C832 0.960 . S
C820 H812 0.929 . S
C820 C821 1.377 . S
C820 C822 1.384 . S
C821 C820 1.377 . S
C821 C827 1.390 . S
C822 H813 0.930 . S
C822 C820 1.384 . S
C822 C823 1.372 . S
C823 C822 1.372 . S
C823 C824 1.400 . S
C823 C828 1.490 . S
C824 H814 0.930 . S
C824 C823 1.400 . S
C824 C827 1.386 . S
H825 C841 0.930 . S
H826 C842 0.931 . S
C827 H815 0.929 . S
C827 C821 1.390 . S
C827 C824 1.386 . S
C828 C823 1.490 . S
C828 C830 1.395 . S
C828 C831 1.403 . S
H829 C835 0.930 . S
C830 H816 0.930 . S
C830 C828 1.395 . S
C830 C833 1.403 . S
C831 C828 1.403 . S
C831 C832 1.524 . S
C831 C835 1.400 . S
C832 H817 0.960 . S
C832 H818 0.960 . S
C832 H819 0.960 . S
C832 C831 1.524 . S
C833 C830 1.403 . S
C833 C834 1.392 . S
C833 C837 1.495 . S
C834 C833 1.392 . S
C834 C835 1.385 . S
C834 C836 1.478 . S
C835 H829 0.930 . S
C835 C831 1.400 . S
C835 C834 1.385 . S
C836 C834 1.478 . S
C836 C838 1.381 . S
C836 C842 1.383 . S
C837 C833 1.495 . S
C837 H843 0.959 . S
C837 H844 0.961 . S
C837 H845 0.960 . S
C838 C836 1.381 . S
C838 C839 1.394 . S
C838 H846 0.930 . S
C839 C838 1.394 . S
C839 C840 1.383 . S
C839 H847 0.929 . S
C840 C839 1.383 . S
C840 C841 1.377 . S
C841 H825 0.930 . S
C841 C840 1.377 . S
C841 C842 1.379 . S
C842 H826 0.931 . S
C842 C836 1.383 . S
C842 C841 1.379 . S
H843 C837 0.959 . S
H844 C837 0.961 . S
H845 C837 0.960 . S
H846 C838 0.930 . S
H847 C839 0.929 . S
H848 C856 0.929 . S
H849 C858 0.930 . S
H850 C860 0.930 . S
H851 C863 0.929 . S
H852 C866 0.930 . S
H853 C868 0.960 . S
H854 C868 0.960 1_655 S
H855 C868 0.960 1_655 S
C856 H848 0.929 . S
C856 C857 1.377 1_554 S
C856 C858 1.384 . S
C857 C856 1.377 1_556 S
C857 C863 1.390 . S
C858 H849 0.930 . S
C858 C856 1.384 . S
C858 C859 1.372 1_554 S
C859 C858 1.372 1_556 S
C859 C860 1.400 . S
C859 C864 1.490 . S
C860 H850 0.930 . S
C860 C859 1.400 . S
C860 C863 1.386 . S
H861 C877 0.930 . S
H862 C878 0.931 . S
C863 H851 0.929 . S
C863 C857 1.390 . S
C863 C860 1.386 . S
C864 C859 1.490 . S
C864 C866 1.395 . S
C864 C867 1.411 . S
H865 C871 0.930 . S
C866 H852 0.930 . S
C866 C864 1.395 . S
C866 C869 1.403 . S
C867 C864 1.411 . S
C867 C868 1.523 1_655 S
C867 C871 1.392 1_655 S
C868 H853 0.960 . S
C868 H854 0.960 1_455 S
C868 H855 0.960 1_455 S
C868 C867 1.523 1_455 S
C869 C866 1.403 . S
C869 C870 1.392 1_655 S
C869 C873 1.495 . S
C870 C869 1.392 1_455 S
C870 C871 1.385 . S
C870 C872 1.478 . S
C871 H865 0.930 . S
C871 C867 1.392 1_455 S
C871 C870 1.385 . S
C872 C870 1.478 . S
C872 C874 1.381 1_556 S
C872 C878 1.383 . S
C873 C869 1.495 . S
C873 H879 0.959 1_556 S
C873 H880 0.961 1_655 S
C873 H881 0.960 1_656 S
C874 C872 1.381 1_554 S
C874 C875 1.394 . S
C874 H882 0.930 . S
C875 C874 1.394 . S
C875 C876 1.383 1_554 S
C875 H883 0.929 . S
C876 C875 1.383 1_556 S
C876 C877 1.377 . S
C877 H861 0.930 . S
C877 C876 1.377 . S
C877 C878 1.379 . S
C878 H862 0.931 . S
C878 C872 1.383 . S
C878 C877 1.379 . S
H879 C873 0.959 1_554 S
H880 C873 0.961 1_455 S
H881 C873 0.960 1_454 S
H882 C874 0.930 . S
H883 C875 0.929 . S
H884 C892 0.929 . S
H885 C894 0.930 . S
H886 C896 0.930 . S
H887 C899 0.929 . S
H888 C902 0.932 . S
H889 C904 0.960 . S
H890 C904 0.960 . S
H891 C904 0.960 . S
C892 H884 0.929 . S
C892 C893 1.377 . S
C892 C894 1.384 . S
C893 C892 1.377 . S
C893 C899 1.390 1_556 S
C894 H885 0.930 . S
C894 C892 1.384 . S
C894 C895 1.372 . S
C895 C894 1.372 . S
C895 C896 1.400 1_556 S
C895 C900 1.490 . S
C896 H886 0.930 . S
C896 C895 1.400 1_554 S
C896 C899 1.386 . S
H897 C913 0.930 . S
H898 C914 0.931 . S
C899 H887 0.929 . S
C899 C893 1.390 1_554 S
C899 C896 1.386 . S
C900 C895 1.490 . S
C900 C902 1.409 . S
C900 C903 1.403 . S
H901 C907 0.930 . S
C902 H888 0.932 . S
C902 C900 1.409 . S
C902 C905 1.388 1_545 S
C903 C900 1.403 . S
C903 C904 1.524 . S
C903 C907 1.400 1_545 S
C904 H889 0.960 . S
C904 H890 0.960 . S
C904 H891 0.960 . S
C904 C903 1.524 . S
C905 C902 1.388 1_565 S
C905 C906 1.392 . S
C905 C909 1.495 . S
C906 C905 1.392 . S
C906 C907 1.385 . S
C906 C908 1.478 . S
C907 H901 0.930 . S
C907 C903 1.400 1_565 S
C907 C906 1.385 . S
C908 C906 1.478 . S
C908 C910 1.381 . S
C908 C914 1.383 1_556 S
C909 C905 1.495 . S
C909 H915 0.959 . S
C909 H916 0.971 . S
C909 H917 0.960 . S
C910 C908 1.381 . S
C910 C911 1.394 . S
C910 H918 0.930 . S
C911 C910 1.394 . S
C911 C912 1.383 . S
C911 H919 0.929 . S
C912 C911 1.383 . S
C912 C913 1.377 1_556 S
C913 H897 0.930 . S
C913 C912 1.377 1_554 S
C913 C914 1.379 . S
C914 H898 0.931 . S
C914 C908 1.383 1_554 S
C914 C913 1.379 . S
H915 C909 0.959 . S
H916 C909 0.971 . S
H917 C909 0.960 . S
H918 C910 0.930 . S
H919 C911 0.929 . S
H920 C928 0.929 . S
H921 C930 0.930 . S
H922 C932 0.930 1_565 S
H923 C935 0.929 . S
H924 C938 0.930 . S
H925 C940 0.960 1_565 S
H926 C940 0.960 . S
H927 C940 0.960 1_565 S
C928 H920 0.929 . S
C928 C929 1.377 . S
C928 C930 1.384 . S
C929 C928 1.377 . S
C929 C935 1.390 . S
C930 H921 0.930 . S
C930 C928 1.384 . S
C930 C931 1.372 . S
C931 C930 1.372 . S
C931 C932 1.400 . S
C931 C936 1.490 . S
C932 H922 0.930 1_545 S
C932 C931 1.400 . S
C932 C935 1.386 . S
H933 C949 0.930 . S
H934 C950 0.931 . S
C935 H923 0.929 . S
C935 C929 1.390 . S
C935 C932 1.386 . S
C936 C931 1.490 . S
C936 C938 1.395 . S
C936 C939 1.403 . S
H937 C943 0.930 . S
C938 H924 0.930 . S
C938 C936 1.395 . S
C938 C941 1.396 1_545 S
C939 C936 1.403 . S
C939 C940 1.524 . S
C939 C943 1.400 1_545 S
C940 H925 0.960 1_545 S
C940 H926 0.960 . S
C940 H927 0.960 1_545 S
C940 C939 1.524 . S
C941 C938 1.396 1_565 S
C941 C942 1.398 . S
C941 C945 1.496 . S
C942 C941 1.398 . S
C942 C943 1.385 . S
C942 C944 1.478 . S
C943 H937 0.930 . S
C943 C939 1.400 1_565 S
C943 C942 1.385 . S
C944 C942 1.478 . S
C944 C946 1.381 . S
C944 C950 1.383 . S
C945 C941 1.496 . S
C945 H951 0.959 1_565 S
C945 H952 0.961 . S
C945 H953 0.960 1_565 S
C946 C944 1.381 . S
C946 C947 1.394 . S
C946 H954 0.930 1_565 S
C947 C946 1.394 . S
C947 C948 1.383 . S
C947 H955 0.929 . S
C948 C947 1.383 . S
C948 C949 1.377 . S
C949 H933 0.930 . S
C949 C948 1.377 . S
C949 C950 1.379 . S
C950 H934 0.931 . S
C950 C944 1.383 . S
C950 C949 1.379 . S
H951 C945 0.959 1_545 S
H952 C945 0.961 . S
H953 C945 0.960 1_545 S
H954 C946 0.930 1_545 S
H955 C947 0.929 . S
H956 C964 0.929 . S
H957 C966 0.930 1_655 S
H958 C968 0.930 . S
H959 C971 0.929 . S
H960 C974 0.931 . S
H961 C976 0.960 . S
H962 C976 0.960 . S
H963 C976 0.960 . S
C964 H956 0.929 . S
C964 C965 1.377 . S
C964 C966 1.384 . S
C965 C964 1.377 . S
C965 C971 1.390 . S
C966 H957 0.930 1_455 S
C966 C964 1.384 . S
C966 C967 1.372 . S
C967 C966 1.372 . S
C967 C968 1.400 . S
C967 C972 1.490 . S
C968 H958 0.930 . S
C968 C967 1.400 . S
C968 C971 1.386 . S
H969 C985 0.930 . S
H970 C986 0.931 1_455 S
C971 H959 0.929 . S
C971 C965 1.390 . S
C971 C968 1.386 . S
C972 C967 1.490 . S
C972 C974 1.395 1_455 S
C972 C975 1.403 . S
H973 C979 0.930 . S
C974 H960 0.931 . S
C974 C972 1.395 1_655 S
C974 C977 1.403 . S
C975 C972 1.403 . S
C975 C976 1.524 . S
C975 C979 1.400 1_455 S
C976 H961 0.960 . S
C976 H962 0.960 . S
C976 H963 0.960 . S
C976 C975 1.524 . S
C977 C974 1.403 . S
C977 C978 1.392 . S
C977 C981 1.495 . S
C978 C977 1.392 . S
C978 C979 1.385 . S
C978 C980 1.478 . S
C979 H973 0.930 . S
C979 C975 1.400 1_655 S
C979 C978 1.385 . S
C980 C978 1.478 . S
C980 C982 1.381 . S
C980 C986 1.383 . S
C981 C977 1.495 . S
C981 H987 0.959 . S
C981 H988 0.961 . S
C981 H989 0.960 . S
C982 C980 1.381 . S
C982 C983 1.394 . S
C982 H990 0.930 . S
C983 C982 1.394 . S
C983 C984 1.383 . S
C983 H991 0.929 . S
C984 C983 1.383 . S
C984 C985 1.377 . S
C985 H969 0.930 . S
C985 C984 1.377 . S
C985 C986 1.379 . S
C986 H970 0.931 1_655 S
C986 C980 1.383 . S
C986 C985 1.379 . S
H987 C981 0.959 . S
H988 C981 0.961 . S
H989 C981 0.960 . S
H990 C982 0.930 . S
H991 C983 0.929 . S
C281 C54 0.423 . S
C300 C5 0.379 . S
C317 C39 0.394 . S
C336 C88 0.476 . S
C353 C73 0.395 . S
C372 C122 0.485 . S
C389 C20 0.450 . S
C408 C107 0.417 . S
C425 C190 0.423 . S
C444 C141 0.378 . S
C461 C224 0.425 . S
C480 C175 0.383 . S
C497 C209 0.393 . S
C516 C258 0.461 . S
C533 C243 0.392 . S
C552 C156 0.482 . S
C569 C206 1.495 . S
C588 C33 1.508 . S
C605 C67 1.519 . S
C624 C240 1.511 . S
C641 C101 1.518 . S
C660 C138 1.502 . S
C677 C135 1.522 . S
C696 C172 1.491 . S
C713 C169 1.518 . S
C732 C70 1.503 . S
C749 C203 1.518 . S
C768 C104 1.496 . S
C785 C237 1.518 . S
C804 C2 1.510 . S
C821 C36 1.493 . S
C840 C271 1.520 . S
C857 C77 2.278 . S
C876 C9 2.275 . S
C893 C43 2.285 . S
C912 C111 2.275 . S
C929 C213 2.284 . S
C948 C145 2.257 . S
C965 C179 2.279 . S
C984 C247 2.297 . S
