# Generated by pormake.
# Topology wfw, (7)-cn, num edge types: 1
# Building blocks:
#     Node 0, Type 0, BuildingBlock: HICVOG_clean_sbu_0, # of connection points: 7
#     Node 1, Type 0, BuildingBlock: HICVOG_clean_sbu_0, # of connection points: 7
#     Node 2, Type 0, BuildingBlock: HICVOG_clean_sbu_0, # of connection points: 7
#     Node 3, Type 0, BuildingBlock: HICVOG_clean_sbu_0, # of connection points: 7
#     Node 4, Type 0, BuildingBlock: HICVOG_clean_sbu_0, # of connection points: 7
#     Node 5, Type 0, BuildingBlock: HICVOG_clean_sbu_0, # of connection points: 7
#     Node 6, Type 0, BuildingBlock: HICVOG_clean_sbu_0, # of connection points: 7
#     Node 7, Type 0, BuildingBlock: HICVOG_clean_sbu_0, # of connection points: 7
#     Node 8, Type 0, BuildingBlock: HICVOG_clean_sbu_0, # of connection points: 7
#     Node 9, Type 0, BuildingBlock: HICVOG_clean_sbu_0, # of connection points: 7
#     Node 10, Type 0, BuildingBlock: HICVOG_clean_sbu_0, # of connection points: 7
#     Node 11, Type 0, BuildingBlock: HICVOG_clean_sbu_0, # of connection points: 7
#     Node 12, Type 0, BuildingBlock: HICVOG_clean_sbu_0, # of connection points: 7
#     Node 13, Type 0, BuildingBlock: HICVOG_clean_sbu_0, # of connection points: 7
#     Node 14, Type 0, BuildingBlock: HICVOG_clean_sbu_0, # of connection points: 7
#     Node 15, Type 0, BuildingBlock: HICVOG_clean_sbu_0, # of connection points: 7
#     Edge 16, Type (0, 0), BuildingBlock: EZIPEK_clean_linker_0, # of connection points: 2
#     Edge 17, Type (0, 0), BuildingBlock: EZIPEK_clean_linker_0, # of connection points: 2
#     Edge 18, Type (0, 0), BuildingBlock: EZIPEK_clean_linker_0, # of connection points: 2
#     Edge 19, Type (0, 0), BuildingBlock: EZIPEK_clean_linker_0, # of connection points: 2
#     Edge 20, Type (0, 0), BuildingBlock: EZIPEK_clean_linker_0, # of connection points: 2
#     Edge 21, Type (0, 0), BuildingBlock: EZIPEK_clean_linker_0, # of connection points: 2
#     Edge 22, Type (0, 0), BuildingBlock: EZIPEK_clean_linker_0, # of connection points: 2
#     Edge 23, Type (0, 0), BuildingBlock: EZIPEK_clean_linker_0, # of connection points: 2
#     Edge 24, Type (0, 0), BuildingBlock: EZIPEK_clean_linker_0, # of connection points: 2
#     Edge 25, Type (0, 0), BuildingBlock: EZIPEK_clean_linker_0, # of connection points: 2
#     Edge 26, Type (0, 0), BuildingBlock: EZIPEK_clean_linker_0, # of connection points: 2
#     Edge 27, Type (0, 0), BuildingBlock: EZIPEK_clean_linker_0, # of connection points: 2
#     Edge 28, Type (0, 0), BuildingBlock: EZIPEK_clean_linker_0, # of connection points: 2
#     Edge 29, Type (0, 0), BuildingBlock: EZIPEK_clean_linker_0, # of connection points: 2
#     Edge 30, Type (0, 0), BuildingBlock: EZIPEK_clean_linker_0, # of connection points: 2
#     Edge 31, Type (0, 0), BuildingBlock: EZIPEK_clean_linker_0, # of connection points: 2
#     Edge 32, Type (0, 0), BuildingBlock: EZIPEK_clean_linker_0, # of connection points: 2
#     Edge 33, Type (0, 0), BuildingBlock: EZIPEK_clean_linker_0, # of connection points: 2
#     Edge 34, Type (0, 0), BuildingBlock: EZIPEK_clean_linker_0, # of connection points: 2
#     Edge 35, Type (0, 0), BuildingBlock: EZIPEK_clean_linker_0, # of connection points: 2
#     Edge 36, Type (0, 0), BuildingBlock: EZIPEK_clean_linker_0, # of connection points: 2
#     Edge 37, Type (0, 0), BuildingBlock: EZIPEK_clean_linker_0, # of connection points: 2
#     Edge 38, Type (0, 0), BuildingBlock: EZIPEK_clean_linker_0, # of connection points: 2
#     Edge 39, Type (0, 0), BuildingBlock: EZIPEK_clean_linker_0, # of connection points: 2
#     Edge 40, Type (0, 0), BuildingBlock: EZIPEK_clean_linker_0, # of connection points: 2
#     Edge 41, Type (0, 0), BuildingBlock: EZIPEK_clean_linker_0, # of connection points: 2
#     Edge 42, Type (0, 0), BuildingBlock: EZIPEK_clean_linker_0, # of connection points: 2
#     Edge 43, Type (0, 0), BuildingBlock: EZIPEK_clean_linker_0, # of connection points: 2
#     Edge 44, Type (0, 0), BuildingBlock: EZIPEK_clean_linker_0, # of connection points: 2
#     Edge 45, Type (0, 0), BuildingBlock: EZIPEK_clean_linker_0, # of connection points: 2
#     Edge 46, Type (0, 0), BuildingBlock: EZIPEK_clean_linker_0, # of connection points: 2
#     Edge 47, Type (0, 0), BuildingBlock: EZIPEK_clean_linker_0, # of connection points: 2
#     Edge 48, Type (0, 0), BuildingBlock: EZIPEK_clean_linker_0, # of connection points: 2
#     Edge 49, Type (0, 0), BuildingBlock: EZIPEK_clean_linker_0, # of connection points: 2
#     Edge 50, Type (0, 0), BuildingBlock: EZIPEK_clean_linker_0, # of connection points: 2
#     Edge 51, Type (0, 0), BuildingBlock: EZIPEK_clean_linker_0, # of connection points: 2
#     Edge 52, Type (0, 0), BuildingBlock: EZIPEK_clean_linker_0, # of connection points: 2
#     Edge 53, Type (0, 0), BuildingBlock: EZIPEK_clean_linker_0, # of connection points: 2
#     Edge 54, Type (0, 0), BuildingBlock: EZIPEK_clean_linker_0, # of connection points: 2
#     Edge 55, Type (0, 0), BuildingBlock: EZIPEK_clean_linker_0, # of connection points: 2
#     Edge 56, Type (0, 0), BuildingBlock: EZIPEK_clean_linker_0, # of connection points: 2
#     Edge 57, Type (0, 0), BuildingBlock: EZIPEK_clean_linker_0, # of connection points: 2
#     Edge 58, Type (0, 0), BuildingBlock: EZIPEK_clean_linker_0, # of connection points: 2
#     Edge 59, Type (0, 0), BuildingBlock: EZIPEK_clean_linker_0, # of connection points: 2
#     Edge 60, Type (0, 0), BuildingBlock: EZIPEK_clean_linker_0, # of connection points: 2
#     Edge 61, Type (0, 0), BuildingBlock: EZIPEK_clean_linker_0, # of connection points: 2
#     Edge 62, Type (0, 0), BuildingBlock: EZIPEK_clean_linker_0, # of connection points: 2
#     Edge 63, Type (0, 0), BuildingBlock: EZIPEK_clean_linker_0, # of connection points: 2
#     Edge 64, Type (0, 0), BuildingBlock: EZIPEK_clean_linker_0, # of connection points: 2
#     Edge 65, Type (0, 0), BuildingBlock: EZIPEK_clean_linker_0, # of connection points: 2
#     Edge 66, Type (0, 0), BuildingBlock: EZIPEK_clean_linker_0, # of connection points: 2
#     Edge 67, Type (0, 0), BuildingBlock: EZIPEK_clean_linker_0, # of connection points: 2
#     Edge 68, Type (0, 0), BuildingBlock: EZIPEK_clean_linker_0, # of connection points: 2
#     Edge 69, Type (0, 0), BuildingBlock: EZIPEK_clean_linker_0, # of connection points: 2
#     Edge 70, Type (0, 0), BuildingBlock: EZIPEK_clean_linker_0, # of connection points: 2
#     Edge 71, Type (0, 0), BuildingBlock: EZIPEK_clean_linker_0, # of connection points: 2
# Relax obj value: 0.103
# Max RMSD: 0.171
# Mean RMSD: 0.171
data_MOF--net-wfw--node1-HICVOG_clean_sbu_0--edge1-EZIPEK_clean_linker_0
_symmetry_space_group_name_H-M    P1
_symmetry_Int_Tables_number       1
_symmetry_cell_setting            triclinic
loop_
_symmetry_equiv_pos_as_xyz
'x, y, z'
_cell_length_a     34.049945
_cell_length_b     34.155057
_cell_length_c     27.252883
_cell_angle_alpha  90.069329
_cell_angle_beta   90.037104
_cell_angle_gamma 90.256171
loop_
_atom_site_label
_atom_site_type_symbol
_atom_site_fract_x
_atom_site_fract_y
_atom_site_fract_z
_atom_type_partial_charge
Zn0 Zn 0.58591 0.27497 0.40461 0.0
C1 C 0.60517 0.169 0.33657 0.0
N2 N 0.63322 0.16949 0.37132 0.0
C3 C 0.62602 0.20182 0.39707 0.0
N4 N 0.59562 0.22197 0.37856 0.0
N5 N 0.58125 0.20147 0.34068 0.0
C6 C 0.53668 0.23924 0.21726 0.0
O7 O 0.56571 0.25879 0.23775 0.0
O8 O 0.57781 0.27692 0.47943 0.0
Zn9 Zn 0.52623 0.21252 0.31678 0.0
N10 N 0.63258 0.30593 0.39158 0.0
C11 C 0.67921 0.33426 0.3368 0.0
C12 C 0.64729 0.30924 0.3454 0.0
C13 C 0.64879 0.32621 0.42943 0.0
N14 N 0.69429 0.35583 0.37443 0.0
C15 C 0.67972 0.35235 0.42068 0.0
O16 O 0.50406 0.2666 0.3301 0.0
C17 C 0.51069 0.29953 0.35019 0.0
O18 O 0.541 0.30525 0.37623 0.0
H19 H 0.63407 0.29293 0.31556 0.0
H20 H 0.63683 0.32319 0.46587 0.0
C21 C 0.45541 0.16272 0.3315 0.0
C22 C 0.43355 0.13488 0.35839 0.0
C23 C 0.48333 0.13371 0.41909 0.0
C24 C 0.50508 0.16077 0.3923 0.0
N25 N 0.49089 0.17505 0.34931 0.0
N26 N 0.44819 0.12138 0.40154 0.0
H27 H 0.44465 0.17395 0.29692 0.0
C28 C 0.56006 0.30601 0.49872 0.0
O29 O 0.54545 0.33327 0.47021 0.0
O30 O 0.51812 0.21447 0.24315 0.0
H31 H 0.53338 0.17 0.40546 0.0
H32 H 0.69118 0.33731 0.30024 0.0
H33 H 0.49443 0.12231 0.45339 0.0
Zn34 Zn 0.33662 0.52842 0.31475 0.0
C35 C 0.35475 0.61542 0.41054 0.0
N36 N 0.38487 0.6252 0.38121 0.0
C37 C 0.37921 0.60203 0.34174 0.0
N38 N 0.3468 0.57898 0.34713 0.0
N39 N 0.33079 0.58883 0.38967 0.0
C40 C 0.2468 0.56236 0.50857 0.0
O41 O 0.21433 0.5571 0.48331 0.0
O42 O 0.34673 0.53118 0.24199 0.0
Zn43 Zn 0.27762 0.5799 0.41297 0.0
N44 N 0.36753 0.48873 0.34906 0.0
C45 C 0.3778 0.46366 0.42955 0.0
C46 C 0.36018 0.49025 0.398 0.0
C47 C 0.39112 0.46021 0.32984 0.0
N48 N 0.40127 0.43547 0.4108 0.0
C49 C 0.40854 0.43266 0.36186 0.0
O50 O 0.24804 0.53531 0.38145 0.0
C51 C 0.25016 0.51065 0.34661 0.0
O52 O 0.28055 0.50769 0.31974 0.0
H53 H 0.33984 0.51158 0.41221 0.0
H54 H 0.39551 0.4584 0.29058 0.0
C55 C 0.22593 0.64437 0.43632 0.0
C56 C 0.20202 0.67659 0.426 0.0
C57 C 0.22171 0.67357 0.3428 0.0
C58 C 0.24469 0.64072 0.35309 0.0
N59 N 0.24675 0.62693 0.39979 0.0
N60 N 0.20064 0.69065 0.37936 0.0
H61 H 0.22676 0.63276 0.47294 0.0
C62 C 0.3197 0.54959 0.21961 0.0
O63 O 0.29285 0.56793 0.24536 0.0
O64 O 0.27843 0.57094 0.48624 0.0
H65 H 0.26032 0.62596 0.32401 0.0
H66 H 0.37219 0.46485 0.46859 0.0
H67 H 0.22003 0.68491 0.30582 0.0
Zn68 Zn 0.97066 0.27007 0.40254 0.0
C69 C 0.94934 0.37349 0.33105 0.0
N70 N 0.92281 0.38027 0.36552 0.0
C71 C 0.92563 0.35024 0.39703 0.0
N72 N 0.95522 0.32515 0.38275 0.0
N73 N 0.96999 0.34081 0.34157 0.0
C74 C 1.0032 0.31564 0.21766 0.0
O75 O 0.98463 0.2896 0.24457 0.0
O76 O 0.9896 0.26281 0.4746 0.0
Zn77 Zn 1.02279 0.33533 0.31268 0.0
N78 N 0.92545 0.23601 0.38996 0.0
C79 C 0.87418 0.21272 0.33779 0.0
C80 C 0.90822 0.2351 0.34498 0.0
C81 C 0.91099 0.21402 0.42728 0.0
N82 N 0.85908 0.19167 0.37575 0.0
C83 C 0.87703 0.19158 0.42037 0.0
O84 O 0.0487 0.28263 0.3156 0.0
C85 C 0.04236 0.24973 0.33547 0.0
O86 O 1.01423 0.24453 0.36515 0.0
H87 H 0.92073 0.25166 0.31511 0.0
H88 H 0.92493 0.21516 0.46279 0.0
C89 C 0.0887 0.39144 0.32729 0.0
C90 C 0.11224 0.41539 0.35781 0.0
C91 C 0.07162 0.39954 0.4256 0.0
C92 C 0.04876 0.37554 0.3957 0.0
N93 N 0.05739 0.37197 0.34718 0.0
N94 N 0.10278 0.41875 0.40608 0.0
H95 H 0.09555 0.38792 0.28877 0.0
C96 C 1.00289 0.23051 0.49116 0.0
O97 O 1.01058 0.20191 0.4604 0.0
O98 O 1.02121 0.34361 0.23911 0.0
H99 H 1.02442 0.35944 0.41129 0.0
H100 H 0.85986 0.21215 0.30234 0.0
H101 H 0.06492 0.40258 0.46421 0.0
Zn102 Zn 0.27357 0.97083 0.41122 0.0
C103 C 0.17263 0.94481 0.3404 0.0
N104 N 0.16744 0.92162 0.37952 0.0
C105 C 0.19695 0.93198 0.40945 0.0
N106 N 0.22024 0.95963 0.38934 0.0
N107 N 0.20451 0.96837 0.34612 0.0
C108 C 0.2333 0.99313 0.21941 0.0
O109 O 0.25908 0.97563 0.24763 0.0
O110 O 0.27806 0.97815 0.48533 0.0
Zn111 Zn 0.21068 1.01866 0.31288 0.0
N112 N 0.30424 0.92509 0.39569 0.0
C113 C 0.32946 0.87813 0.33937 0.0
C114 C 0.30704 0.9115 0.34895 0.0
C115 C 0.3231 0.90689 0.43306 0.0
N116 N 0.34911 0.86049 0.37672 0.0
C117 C 0.34664 0.87439 0.42344 0.0
O118 O 0.2634 0.04569 0.32164 0.0
C119 C 0.29474 0.04336 0.34681 0.0
O120 O 0.29979 1.01717 0.37924 0.0
H121 H 0.29213 0.92651 0.31949 0.0
H122 H 0.32045 0.91794 0.47 0.0
C123 C 0.15646 0.08623 0.31915 0.0
C124 C 0.12992 0.11002 0.34533 0.0
C125 C 0.13425 0.06734 0.41348 0.0
C126 C 0.16088 0.04427 0.38806 0.0
N127 N 0.1714 0.05369 0.34134 0.0
N128 N 0.11953 0.09966 0.39167 0.0
H129 H 0.16556 0.09385 0.28232 0.0
C130 C 0.30815 0.9934 0.50574 0.0
O131 O 0.3366 1.00748 0.47833 0.0
O132 O 0.20557 1.01241 0.23922 0.0
H133 H 0.17318 1.01904 0.40581 0.0
H134 H 0.33182 0.86681 0.3024 0.0
H135 H 0.12565 0.05988 0.45053 0.0
Zn136 Zn 0.02926 0.83223 0.19893 0.0
C137 C 0.11577 0.84775 0.10218 0.0
N138 N 0.1259 0.87785 0.13124 0.0
C139 C 0.10293 0.87252 0.17077 0.0
N140 N 0.07978 0.84027 0.16591 0.0
N141 N 0.08882 0.8241 0.12314 0.0
C142 C 0.05109 0.77661 0.9981 0.0
O143 O 0.02716 0.80516 0.00979 0.0
O144 O 0.03221 0.84395 0.27147 0.0
Zn145 Zn 0.07898 0.76973 0.10397 0.0
N146 N 0.99135 0.86392 0.16312 0.0
C147 C 0.96947 0.87717 0.08181 0.0
C148 C 0.9943 0.85778 0.11399 0.0
C149 C 0.96322 0.88813 0.18178 0.0
N150 N 0.94159 0.90125 0.10006 0.0
C151 C 0.93751 0.90738 0.14911 0.0
O152 O 0.03407 0.74219 0.13737 0.0
C153 C 1.0092 0.74594 0.17174 0.0
O154 O 1.00654 0.77723 0.19676 0.0
H155 H 1.01556 0.83733 0.09994 0.0
H156 H 0.96038 0.89176 0.22107 0.0
C157 C 0.14312 0.72011 0.08312 0.0
C158 C 0.1758 0.69676 0.09287 0.0
C159 C 0.17231 0.71472 0.1767 0.0
C160 C 0.13894 0.7372 0.16697 0.0
N161 N 0.12535 0.73983 0.1202 0.0
N162 N 0.18992 0.69479 0.13952 0.0
H163 H 0.1315 0.72172 0.04631 0.0
C164 C 0.05113 0.81825 0.29554 0.0
O165 O 0.06976 0.79061 0.27151 0.0
O166 O 0.07211 0.76095 0.03102 0.0
H167 H 0.12384 0.75213 0.19637 0.0
H168 H 0.97181 0.87258 0.04264 0.0
H169 H 0.18369 0.71259 0.21367 0.0
Zn170 Zn 0.71958 0.02477 0.19563 0.0
C171 C 0.7037 0.12434 0.11598 0.0
N172 N 0.67215 0.12982 0.14389 0.0
C173 C 0.67365 0.10141 0.17755 0.0
N174 N 0.70685 0.07891 0.17116 0.0
N175 N 0.72585 0.09434 0.13248 0.0
C176 C 0.7842 0.04949 1.00343 0.0
O177 O 0.76572 1.01799 0.019 0.0
O178 O 0.72216 1.01638 0.26976 0.0
Zn179 Zn 0.78066 0.08651 0.107 0.0
N180 N 0.68316 0.98831 0.16292 0.0
C181 C 0.64885 0.97697 0.08798 0.0
C182 C 0.67472 0.99914 0.11618 0.0
C183 C 0.66669 0.95536 0.18278 0.0
N184 N 0.63223 0.94449 0.10759 0.0
C185 C 0.64026 0.9329 0.15421 0.0
O186 O 0.8127 0.04317 0.13624 0.0
C187 C 0.80687 1.01239 0.16119 0.0
O188 O 0.7738 1.00495 0.18051 0.0
H189 H 0.68798 0.02504 0.10104 0.0
H190 H 0.67367 0.947 0.22006 0.0
C191 C 0.835 0.14535 0.08047 0.0
C192 C 0.85457 0.18136 0.08224 0.0
C193 C 0.82394 0.19492 0.15836 0.0
C194 C 0.80374 0.15914 0.15589 0.0
N195 N 0.80958 0.13511 0.11681 0.0
N196 N 0.84871 0.2054 0.12137 0.0
H197 H 0.83972 0.12597 0.04973 0.0
C198 C 0.75114 0.0286 0.29499 0.0
O199 O 0.77603 0.0528 0.27392 0.0
O200 O 0.78899 0.07787 0.03305 0.0
H201 H 0.78328 0.15084 0.18444 0.0
H202 H 0.64195 0.98553 0.05077 0.0
H203 H 0.81955 0.21443 0.18916 0.0
Zn204 Zn 0.523 0.71153 0.19744 0.0
C205 C 0.43885 0.69223 0.09864 0.0
N206 N 0.42787 0.66316 0.12883 0.0
C207 C 0.44998 0.66969 0.16897 0.0
N208 N 0.47333 0.70174 0.16331 0.0
N209 N 0.46537 0.71647 0.11944 0.0
C210 C 0.50195 0.76315 0.99145 0.0
O211 O 0.52705 0.73545 1.00256 0.0
O212 O 0.51874 0.70083 0.27011 0.0
Zn213 Zn 0.47548 0.77031 0.0983 0.0
N214 N 0.56241 0.68082 0.16309 0.0
C215 C 0.58756 0.66909 0.08288 0.0
C216 C 0.56072 0.68703 0.11387 0.0
C217 C 0.5911 0.65798 0.18302 0.0
N218 N 0.61597 0.64631 0.10239 0.0
C219 C 0.61872 0.64018 0.15156 0.0
O220 O 0.52122 0.79835 0.12964 0.0
C221 C 0.54461 0.7962 0.16586 0.0
O222 O 0.54526 0.76667 0.19414 0.0
H223 H 0.53908 0.7066 0.09881 0.0
H224 H 0.5929 0.65436 0.2224 0.0
C225 C 0.41202 0.82073 0.07796 0.0
C226 C 0.37936 0.84407 0.08771 0.0
C227 C 0.38245 0.82563 0.17135 0.0
C228 C 0.41582 0.80315 0.16163 0.0
N229 N 0.42958 0.80074 0.11493 0.0
N230 N 0.36503 0.8458 0.13426 0.0
H231 H 0.42377 0.81933 0.04121 0.0
C232 C 0.50071 0.72826 0.29222 0.0
O233 O 0.48362 0.75565 0.26612 0.0
O234 O 0.48086 0.77806 0.02487 0.0
H235 H 0.43073 0.78795 0.19094 0.0
H236 H 0.5863 0.67379 0.04366 0.0
H237 H 0.3709 0.82755 0.20824 0.0
Zn238 Zn 0.83611 0.5159 0.19354 0.0
C239 C 0.84893 0.43055 0.09625 0.0
N240 N 0.8809 0.42217 0.12303 0.0
C241 C 0.87639 0.444 0.16356 0.0
N242 N 0.84259 0.4651 0.16134 0.0
N243 N 0.82486 0.45557 0.11951 0.0
C244 C 0.73389 0.48431 0.00685 0.0
O245 O 0.70299 0.49149 0.03422 0.0
O246 O 0.84166 0.51044 0.26761 0.0
Zn247 Zn 0.77015 0.46383 0.10038 0.0
N248 N 0.87537 0.55122 0.16464 0.0
C249 C 0.91053 0.56541 0.09109 0.0
C250 C 0.88416 0.54234 0.11722 0.0
C251 C 0.89168 0.58333 0.18685 0.0
N252 N 0.92667 0.59725 0.11292 0.0
C253 C 0.91798 0.60716 0.15996 0.0
O254 O 0.74367 0.50965 0.13199 0.0
C255 C 0.75036 0.53813 0.16085 0.0
O256 O 0.78316 0.54241 0.18268 0.0
H257 H 0.87061 0.51755 0.09951 0.0
H258 H 0.88387 0.5906 0.22424 0.0
C259 C 0.71727 0.40092 0.07914 0.0
C260 C 0.69639 0.36623 0.08714 0.0
C261 C 0.72103 0.36426 0.16831 0.0
C262 C 0.74184 0.39912 0.16002 0.0
N263 N 0.74002 0.41651 0.11523 0.0
N264 N 0.69882 0.34845 0.13166 0.0
H265 H 0.71491 0.41536 0.04435 0.0
C266 C 0.80916 0.50786 0.29058 0.0
O267 O 0.77652 0.50551 0.26513 0.0
O268 O 0.7656 0.47311 0.02701 0.0
H269 H 0.75919 0.41222 0.18896 0.0
H270 H 0.9178 0.55835 0.05348 0.0
H271 H 0.72247 0.34997 0.20366 0.0
Zn272 Zn 0.47026 0.77191 0.60084 0.0
C273 C 0.44473 0.87373 0.66742 0.0
N274 N 0.42128 0.87816 0.62809 0.0
C275 C 0.43216 0.84865 0.5986 0.0
N276 N 0.45998 0.82605 0.61937 0.0
N277 N 0.46884 0.84249 0.66217 0.0
C278 C 0.49511 0.81416 0.78887 0.0
O279 O 0.47817 0.788 0.76045 0.0
O280 O 0.4769 0.76241 0.52799 0.0
Zn281 Zn 0.51972 0.83733 0.69589 0.0
N282 N 0.42416 0.74131 0.61753 0.0
C283 C 0.37556 0.71735 0.67289 0.0
C284 C 0.40933 0.73973 0.66378 0.0
C285 C 0.40716 0.72074 0.58048 0.0
N286 N 0.35866 0.69667 0.63566 0.0
C287 C 0.37402 0.69763 0.58959 0.0
O288 O 0.54619 0.78426 0.68917 0.0
C289 C 0.54298 0.75222 0.6656 0.0
O290 O 0.51616 0.74662 0.63394 0.0
H291 H 0.42359 0.75561 0.69317 0.0
H292 H 0.41953 0.72172 0.54403 0.0
C293 C 0.58869 0.89206 0.68877 0.0
C294 C 0.61187 0.9191 0.66201 0.0
C295 C 0.56737 0.91464 0.59544 0.0
C296 C 0.5449 0.88777 0.62148 0.0
N297 N 0.5555 0.87688 0.66757 0.0
N298 N 0.60026 0.92958 0.61619 0.0
H299 H 0.59716 0.88302 0.72531 0.0
C300 C 0.50343 0.77174 0.49751 0.0
O301 O 0.53326 0.79331 0.51223 0.0
O302 O 0.51348 0.84272 0.76934 0.0
H303 H 0.51891 0.87584 0.60503 0.0
H304 H 0.36318 0.71609 0.70941 0.0
H305 H 0.55883 0.92347 0.55886 0.0
Zn306 Zn 0.76607 0.48855 0.59596 0.0
C307 C 0.67399 0.44342 0.66956 0.0
N308 N 0.67087 0.42045 0.62964 0.0
C309 C 0.69845 0.43502 0.59981 0.0
N310 N 0.71816 0.46514 0.62047 0.0
N311 N 0.70232 0.47114 0.66415 0.0
C312 C 0.72046 0.49477 0.79536 0.0
O313 O 0.74993 0.47915 0.77131 0.0
O314 O 0.76582 0.4938 0.52215 0.0
Zn315 Zn 0.70933 0.52016 0.70031 0.0
N316 N 0.80768 0.452 0.6074 0.0
C317 C 0.8671 0.43446 0.64734 0.0
C318 C 0.83172 0.45495 0.64703 0.0
C319 C 0.81652 0.4281 0.56937 0.0
N320 N 0.87731 0.41286 0.60743 0.0
C321 C 0.85291 0.40926 0.56801 0.0
O322 O 0.76482 0.54189 0.70328 0.0
C323 C 0.78952 0.55139 0.67037 0.0
O324 O 0.78686 0.53857 0.62665 0.0
H325 H 0.82427 0.4742 0.67701 0.0
H326 H 0.79659 0.42627 0.53859 0.0
C327 C 0.65826 0.58975 0.68606 0.0
C328 C 0.6411 0.61823 0.65532 0.0
C329 C 0.6681 0.58664 0.58572 0.0
C330 C 0.68535 0.55889 0.61597 0.0
N331 N 0.67984 0.56042 0.66537 0.0
N332 N 0.6466 0.61567 0.60603 0.0
H333 H 0.6551 0.59134 0.72552 0.0
C334 C 0.77829 0.52363 0.49891 0.0
O335 O 0.78566 0.55619 0.52296 0.0
O336 O 0.69447 0.51361 0.77159 0.0
H337 H 0.70383 0.53671 0.60007 0.0
H338 H 0.88695 0.43689 0.67822 0.0
H339 H 0.67232 0.58553 0.5464 0.0
Zn340 Zn 0.06752 0.76927 0.60038 0.0
C341 C 0.10885 0.67444 0.6716 0.0
N342 N 0.13247 0.67211 0.63217 0.0
C343 C 0.11845 0.7002 0.60267 0.0
N344 N 0.08853 0.71992 0.62361 0.0
N345 N 0.08156 0.70304 0.66655 0.0
C346 C 0.05694 0.72788 0.79448 0.0
O347 O 0.07356 0.7543 0.76624 0.0
O348 O 0.06347 0.77135 0.52625 0.0
Zn349 Zn 0.03094 0.70549 0.7016 0.0
N350 N 0.10313 0.81167 0.61694 0.0
C351 C 0.10183 0.87799 0.64249 0.0
C352 C 0.08801 0.83987 0.64642 0.0
C353 C 0.13472 0.81909 0.58783 0.0
N354 N 0.12916 0.88638 0.60794 0.0
C355 C 0.14636 0.85819 0.57979 0.0
O356 O 1.00032 0.75639 0.69747 0.0
C357 C 0.9948 0.78382 0.66685 0.0
O358 O 1.01564 0.78744 0.62848 0.0
H359 H 0.0634 0.83354 0.66991 0.0
H360 H 0.14767 0.79525 0.5678 0.0
C361 C 0.96014 0.65576 0.69132 0.0
C362 C 0.93622 0.62893 0.6654 0.0
C363 C 0.98556 0.62281 0.60473 0.0
C364 C 1.00894 0.64955 0.62995 0.0
N365 N 0.99629 0.66535 0.67298 0.0
N366 N 0.94981 0.61322 0.62288 0.0
H367 H 0.94991 0.66925 0.72489 0.0
C368 C 0.04343 0.79857 0.50661 0.0
O369 O 1.02339 0.82256 0.53466 0.0
O370 O 0.03844 0.69944 0.77477 0.0
H371 H 0.0371 0.65756 0.61504 0.0
H372 H 0.08914 0.90118 0.66431 0.0
H373 H 0.99559 0.61001 0.57067 0.0
Zn374 Zn 0.83945 0.02465 0.69951 0.0
C375 C 0.85847 0.11 0.60032 0.0
N376 N 0.888 0.12033 0.63009 0.0
C377 C 0.88212 0.0975 0.66963 0.0
N378 N 0.85009 0.07402 0.66407 0.0
N379 N 0.83473 0.08299 0.62077 0.0
C380 C 0.76446 0.0302 0.5056 0.0
O381 O 0.745 1.00692 0.53532 0.0
O382 O 0.85016 0.02968 0.77295 0.0
Zn383 Zn 0.78249 0.07209 0.59574 0.0
N384 N 0.86968 0.98322 0.66662 0.0
C385 C 0.88864 0.96134 0.58701 0.0
C386 C 0.86994 0.98824 0.61715 0.0
C387 C 0.88606 0.95058 0.6872 0.0
N388 N 0.90537 0.92934 0.60725 0.0
C389 C 0.90466 0.92277 0.65645 0.0
O390 O 0.75151 0.03063 0.63248 0.0
C391 C 0.75297 1.00774 0.6692 0.0
O392 O 0.78335 1.00497 0.69607 0.0
H393 H 0.8547 1.01253 0.60096 0.0
H394 H 0.88409 0.94595 0.7264 0.0
C395 C 0.73493 0.13717 0.56304 0.0
C396 C 0.71317 0.17163 0.56978 0.0
C397 C 0.72914 0.17089 0.65441 0.0
C398 C 0.74981 0.13608 0.64787 0.0
N399 N 0.75275 0.12016 0.60231 0.0
N400 N 0.71098 0.18768 0.6154 0.0
H401 H 0.73676 0.1235 0.52727 0.0
C402 C 0.82436 0.04917 0.79639 0.0
O403 O 0.79702 0.06756 0.77154 0.0
O404 O 0.7842 0.05865 0.52319 0.0
H405 H 0.76353 0.12179 0.67879 0.0
H406 H 0.88911 0.96541 0.54765 0.0
H407 H 0.72691 0.18406 0.69041 0.0
Zn408 Zn 0.02651 0.21145 0.8027 0.0
C409 C 0.94154 0.19636 0.90381 0.0
N410 N 0.9304 0.16699 0.87425 0.0
C411 C 0.95349 0.17194 0.8349 0.0
N412 N 0.97777 0.20324 0.84003 0.0
N413 N 0.96967 0.21926 0.88333 0.0
C414 C 0.98765 0.27277 0.0166 0.0
O415 O 0.95073 0.26249 0.01429 0.0
O416 O 1.02338 0.19441 0.73099 0.0
Zn417 Zn 0.98803 0.27136 0.90592 0.0
N418 N 0.06778 0.18637 0.84068 0.0
C419 C 0.09983 0.19235 0.91798 0.0
C420 C 0.06979 0.20259 0.8862 0.0
C421 C 0.09412 0.15858 0.82618 0.0
N422 N 0.12646 0.16549 0.90348 0.0
C423 C 0.12466 0.14792 0.85866 0.0
O424 O 0.03417 0.29471 0.86866 0.0
C425 C 0.05201 0.29422 0.82776 0.0
O426 O 0.0469 0.26696 0.79672 0.0
H427 H 0.04862 0.22421 0.89735 0.0
H428 H 0.09157 0.14535 0.79021 0.0
C429 C 0.91719 0.31838 0.92621 0.0
C430 C 0.90006 0.3561 0.92755 0.0
C431 C 0.93715 0.37276 0.85644 0.0
C432 C 0.95577 0.33673 0.85797 0.0
N433 N 0.94727 0.31108 0.89457 0.0
N434 N 0.91119 0.38203 0.89216 0.0
H435 H 0.90882 0.29607 0.95192 0.0
C436 C 1.00423 0.2179 0.70368 0.0
O437 O 0.98478 0.24669 0.72428 0.0
O438 O 1.00777 0.27538 0.97744 0.0
H439 H 0.97827 0.33022 0.83151 0.0
H440 H 0.10201 0.20562 0.95395 0.0
H441 H 0.94468 0.39399 0.82852 0.0
Zn442 Zn 0.33818 1.01647 0.81666 0.0
C443 C 0.35423 0.92842 0.91146 0.0
N444 N 0.3842 0.91899 0.88188 0.0
C445 C 0.37824 0.94186 0.84243 0.0
N446 N 0.3458 0.96461 0.84803 0.0
N447 N 0.32999 0.95478 0.89082 0.0
C448 C 0.27908 0.99546 0.01394 0.0
O449 O 0.3031 0.0232 0.99907 0.0
O450 O 0.34173 1.01249 0.74209 0.0
Zn451 Zn 0.27534 0.96192 0.90999 0.0
N452 N 0.37901 0.05193 0.84293 0.0
C453 C 0.42526 0.06184 0.90764 0.0
C454 C 0.3972 0.03882 0.88418 0.0
C455 C 0.38786 0.08812 0.82436 0.0
N456 N 0.43407 0.09762 0.88932 0.0
C457 C 0.41623 0.11165 0.84841 0.0
O458 O 0.24802 1.00602 0.87705 0.0
C459 C 0.25266 0.03632 0.85075 0.0
O460 O 0.28542 0.04358 0.82998 0.0
H461 H 0.39021 1.01049 0.89886 0.0
H462 H 0.37291 0.09857 0.7919 0.0
C463 C 0.22454 0.89916 0.93277 0.0
C464 C 0.20139 0.86582 0.92497 0.0
C465 C 0.2215 0.86488 0.84183 0.0
C466 C 0.24348 0.89908 0.84947 0.0
N467 N 0.24541 0.91493 0.89517 0.0
N468 N 0.20089 0.84897 0.8797 0.0
H469 H 0.2253 0.9127 0.96859 0.0
C470 C 0.31995 0.98849 0.71863 0.0
O471 O 0.29751 0.96401 0.74313 0.0
O472 O 0.267 0.97003 0.98336 0.0
H473 H 0.25845 0.91305 0.81926 0.0
H474 H 0.43989 0.0514 0.94032 0.0
H475 H 0.22024 0.85154 0.80584 0.0
Zn476 Zn 0.56041 0.28034 0.91437 0.0
C477 C 0.60433 0.37181 0.83832 0.0
N478 N 0.62847 0.3748 0.87726 0.0
C479 C 0.61466 0.34699 0.90742 0.0
N480 N 0.58432 0.32705 0.88741 0.0
N481 N 0.57706 0.34317 0.84419 0.0
C482 C 0.55333 0.32237 0.7109 0.0
O483 O 0.57019 0.2938 0.73517 0.0
O484 O 0.55335 0.28508 0.98761 0.0
Zn485 Zn 0.52792 0.33568 0.8074 0.0
N486 N 0.5955 0.23618 0.90708 0.0
C487 C 0.59808 0.16956 0.88264 0.0
C488 C 0.5831 0.20697 0.87693 0.0
C489 C 0.62504 0.23028 0.93992 0.0
N490 N 0.62452 0.16284 0.91876 0.0
C491 C 0.63905 0.19202 0.94788 0.0
O492 O 0.50575 0.28065 0.80649 0.0
C493 C 0.49573 0.25732 0.84057 0.0
O494 O 0.50906 0.26085 0.88399 0.0
H495 H 0.5601 0.212 0.85068 0.0
H496 H 0.63507 0.25453 0.96192 0.0
C497 C 0.45855 0.38809 0.82067 0.0
C498 C 0.43015 0.40555 0.85143 0.0
C499 C 0.46124 0.37791 0.92098 0.0
C500 C 0.48891 0.36042 0.89072 0.0
N501 N 0.48758 0.36603 0.84135 0.0
N502 N 0.43251 0.39986 0.9007 0.0
H503 H 0.45712 0.39142 0.78123 0.0
C504 C 0.52777 0.26326 0.00791 0.0
O505 O 0.50407 0.24221 0.98038 0.0
O506 O 0.53382 0.34791 0.73469 0.0
H507 H 0.51089 0.34164 0.90653 0.0
H508 H 0.58756 0.14565 0.86003 0.0
H509 H 0.4622 0.37357 0.96028 0.0
Zn510 Zn 0.21266 0.53162 0.81383 0.0
C511 C 0.20151 0.61557 0.91504 0.0
N512 N 0.17237 0.628 0.8858 0.0
C513 C 0.17692 0.60596 0.84533 0.0
N514 N 0.20774 0.58117 0.84974 0.0
N515 N 0.224 0.58822 0.8931 0.0
C516 C 0.27725 0.54457 0.01408 0.0
O517 O 0.25425 0.51571 0.9999 0.0
O518 O 0.20478 0.54067 0.7417 0.0
Zn519 Zn 0.27834 0.57674 0.91051 0.0
N520 N 0.17298 0.49539 0.84 0.0
C521 C 0.13003 0.48187 0.90702 0.0
C522 C 0.15765 0.50574 0.8842 0.0
C523 C 0.16184 0.46121 0.81778 0.0
N524 N 0.11899 0.44798 0.88513 0.0
C525 C 0.13406 0.43677 0.84118 0.0
O526 O 0.3028 0.53078 0.87664 0.0
C527 C 0.29728 0.5055 0.8431 0.0
O528 O 0.26562 0.50413 0.81829 0.0
H529 H 0.16638 0.53266 0.90152 0.0
H530 H 0.17467 0.45294 0.78297 0.0
C531 C 0.33227 0.6377 0.92974 0.0
C532 C 0.35579 0.67046 0.92038 0.0
C533 C 0.33368 0.67048 0.83798 0.0
C534 C 0.31072 0.63722 0.84738 0.0
N535 N 0.31002 0.62189 0.89336 0.0
N536 N 0.35566 0.68649 0.87469 0.0
H537 H 0.33191 0.62494 0.96598 0.0
C538 C 0.234 0.55623 0.72006 0.0
O539 O 0.26437 0.56791 0.74606 0.0
O540 O 0.28804 0.57007 0.98313 0.0
H541 H 0.29362 0.62378 0.81843 0.0
H542 H 0.11757 0.49011 0.94202 0.0
H543 H 0.33418 0.68333 0.80172 0.0
C544 C 0.63184 0.10372 0.30466 0.0
C545 C 0.60651 0.13659 0.29833 0.0
C546 C 0.60752 0.12444 0.21031 0.0
C547 C 0.64173 0.10096 0.21638 0.0
N548 N 0.65191 0.04443 0.26421 0.0
N549 N 0.54852 0.14462 0.25167 0.0
C550 C 0.64584 0.08344 0.26247 0.0
C551 C 0.58772 0.13884 0.25262 0.0
N552 N 0.64041 0.09005 0.35032 0.0
N553 N 0.59261 0.1312 0.16474 0.0
H554 H 0.53308 0.1483 0.28419 0.0
H555 H 0.53162 0.13892 0.22061 0.0
H556 H 0.60209 0.11582 0.13385 0.0
H557 H 0.57049 0.15159 0.15868 0.0
H558 H 0.6618 0.06879 0.35602 0.0
H559 H 0.62527 0.09924 0.38153 0.0
H560 H 0.6472 0.02816 0.29597 0.0
H561 H 0.65513 0.02845 0.23195 0.0
C562 C 0.37974 0.64872 0.27216 0.0
C563 C 0.39591 0.61465 0.29377 0.0
C564 C 0.45127 0.61797 0.23559 0.0
C565 C 0.43641 0.65379 0.21695 0.0
N566 N 0.39056 0.70703 0.22387 0.0
N567 N 0.44848 0.56821 0.2997 0.0
C568 C 0.40185 0.67019 0.23722 0.0
C569 C 0.43217 0.5996 0.27648 0.0
N570 N 0.34254 0.66014 0.28422 0.0
N571 N 0.48317 0.60138 0.21363 0.0
H572 H 0.43407 0.55331 0.32792 0.0
H573 H 0.47663 0.55794 0.29249 0.0
H574 H 0.49858 0.61527 0.18542 0.0
H575 H 0.4934 0.57348 0.22186 0.0
H576 H 0.3273 0.68204 0.26585 0.0
H577 H 0.32516 0.64491 0.30914 0.0
H578 H 0.36826 0.72252 0.24123 0.0
H579 H 0.40627 0.72392 0.19891 0.0
C580 C 0.93131 0.44547 0.22704 0.0
C581 C 0.8952 0.42965 0.20962 0.0
C582 C 0.90688 0.37032 0.25797 0.0
C583 C 0.93973 0.38813 0.281 0.0
N584 N 0.98187 0.4442 0.29039 0.0
N585 N 0.84501 0.37993 0.21666 0.0
C586 C 0.95166 0.42623 0.26624 0.0
C587 C 0.88199 0.39295 0.22766 0.0
N588 N 0.94646 0.47828 0.2056 0.0
N589 N 0.89906 0.33159 0.26568 0.0
H590 H 0.82552 0.39601 0.19539 0.0
H591 H 0.83223 0.35536 0.23281 0.0
H592 H 0.91676 0.31417 0.28765 0.0
H593 H 0.87781 0.31593 0.24623 0.0
H594 H 0.97439 0.48921 0.21329 0.0
H595 H 0.93172 0.49318 0.17783 0.0
H596 H 0.98951 0.47346 0.28521 0.0
H597 H 0.99823 0.42983 0.31727 0.0
C598 C 0.12065 0.94638 0.27389 0.0
C599 C 0.15652 0.93142 0.29257 0.0
C600 C 0.14928 0.87325 0.24062 0.0
C601 C 0.11564 0.88976 0.21823 0.0
N602 N 0.07102 0.94364 0.20949 0.0
N603 N 0.20905 0.88461 0.28628 0.0
C604 C 0.10182 0.92693 0.23362 0.0
C605 C 0.172 0.89607 0.27354 0.0
N606 N 0.10403 0.97824 0.29567 0.0
N607 N 0.15941 0.83538 0.23077 0.0
H608 H 0.22692 0.90094 0.30968 0.0
H609 H 0.22365 0.86138 0.26969 0.0
H610 H 0.14344 0.81763 0.20691 0.0
H611 H 0.18109 0.82032 0.2499 0.0
H612 H 0.07602 0.98835 0.28727 0.0
H613 H 0.1177 0.99328 0.32431 0.0
H614 H 0.06196 0.97235 0.21537 0.0
H615 H 0.05559 0.92903 0.18181 0.0
C616 C 0.43208 0.9417 0.77824 0.0
C617 C 0.39448 0.92892 0.79444 0.0
C618 C 0.39697 0.87451 0.73581 0.0
C619 C 0.43199 0.88997 0.71541 0.0
N620 N 0.4805 0.94131 0.71268 0.0
N621 N 0.33865 0.88592 0.78364 0.0
C622 C 0.44906 0.9244 0.73545 0.0
C623 C 0.37614 0.89633 0.77138 0.0
N624 N 0.45186 0.9697 0.8042 0.0
N625 N 0.3843 0.83798 0.72246 0.0
H626 H 0.32276 0.90019 0.81073 0.0
H627 H 0.32208 0.8655 0.76406 0.0
H628 H 0.39954 0.82053 0.69771 0.0
H629 H 0.36143 0.82319 0.73988 0.0
H630 H 0.48095 0.97744 0.79725 0.0
H631 H 0.43985 0.98328 0.83492 0.0
H632 H 0.49185 0.9686 0.72243 0.0
H633 H 0.49343 0.92908 0.68164 0.0
C634 C 0.66994 0.39158 0.73197 0.0
C635 C 0.65779 0.42928 0.7167 0.0
C636 C 0.60613 0.42851 0.77947 0.0
C637 C 0.61617 0.38926 0.79102 0.0
N638 N 0.6527 0.33086 0.77202 0.0
N639 N 0.61206 0.48256 0.72163 0.0
C640 C 0.64635 0.36996 0.76495 0.0
C641 C 0.62525 0.44764 0.73936 0.0
N642 N 0.70537 0.37728 0.71673 0.0
N643 N 0.57876 0.44743 0.80724 0.0
H644 H 0.62638 0.49746 0.69337 0.0
H645 H 0.58612 0.4957 0.73315 0.0
H646 H 0.56296 0.4333 0.83492 0.0
H647 H 0.57294 0.47723 0.80423 0.0
H648 H 0.7177 0.35164 0.73033 0.0
H649 H 0.72463 0.39349 0.69491 0.0
H650 H 0.67161 0.31441 0.75025 0.0
H651 H 0.63626 0.31395 0.79639 0.0
C652 C 0.10802 0.62096 0.73593 0.0
C653 C 0.12213 0.65767 0.71894 0.0
C654 C 0.17681 0.65418 0.77717 0.0
C655 C 0.16037 0.61974 0.79796 0.0
N656 N 0.10644 0.57408 0.80274 0.0
N657 N 0.16564 0.7129 0.72974 0.0
C658 C 0.12479 0.60414 0.77897 0.0
C659 C 0.15532 0.67529 0.74143 0.0
N660 N 0.07958 0.60159 0.71019 0.0
N661 N 0.21332 0.6666 0.79126 0.0
H662 H 0.14992 0.72983 0.70477 0.0
H663 H 0.18701 0.7288 0.74861 0.0
H664 H 0.23018 0.65164 0.81688 0.0
H665 H 0.22859 0.68913 0.77387 0.0
H666 H 0.07084 0.573 0.71794 0.0
H667 H 0.06704 0.61314 0.67856 0.0
H668 H 0.07847 0.564 0.7935 0.0
H669 H 0.11804 0.56132 0.83421 0.0
C670 C 0.90827 0.17111 0.76469 0.0
C671 C 0.94129 0.15417 0.7878 0.0
C672 C 0.93319 0.09518 0.73672 0.0
C673 C 0.89812 0.11108 0.71725 0.0
N674 N 0.84703 0.15937 0.72244 0.0
N675 N 0.98354 0.09883 0.80015 0.0
C676 C 0.88413 0.14762 0.73431 0.0
C677 C 0.95331 0.1157 0.77511 0.0
N678 N 0.89985 0.20979 0.77193 0.0
N679 N 0.94755 0.06115 0.71772 0.0
H680 H 0.99991 0.11415 0.82636 0.0
H681 H 0.99131 0.06954 0.79634 0.0
H682 H 0.93225 0.04499 0.6913 0.0
H683 H 0.97502 0.04991 0.72658 0.0
H684 H 0.87832 0.22462 0.75225 0.0
H685 H 0.91704 0.22813 0.79384 0.0
H686 H 0.83369 0.18402 0.73744 0.0
H687 H 0.82794 0.14183 0.70209 0.0
C688 C 0.52556 0.29125 0.09362 0.0
C689 C 0.52712 0.2583 0.06195 0.0
C690 C 0.51747 0.21543 0.13242 0.0
C691 C 0.52593 0.24688 0.16482 0.0
N692 N 0.53276 0.31684 0.17611 0.0
N693 N 0.53344 0.188 0.05367 0.0
C694 C 0.52871 0.28551 0.1453 0.0
C695 C 0.52563 0.22006 0.08199 0.0
N696 N 0.51855 0.32758 0.07469 0.0
N697 N 0.49943 0.1821 0.1484 0.0
H698 H 0.54239 0.18994 0.01716 0.0
H699 H 0.53561 0.15991 0.06841 0.0
H700 H 0.48685 0.17964 0.183 0.0
H701 H 0.49124 0.15955 0.1246 0.0
H702 H 0.51321 0.35218 0.09624 0.0
H703 H 0.51408 0.33246 0.03735 0.0
H704 H 0.54073 0.34471 0.16408 0.0
H705 H 0.52835 0.31483 0.21389 0.0
C706 C 0.30433 0.51143 0.08937 0.0
C707 C 0.29253 0.54646 0.06546 0.0
C708 C 0.31169 0.58348 0.13913 0.0
C709 C 0.31555 0.54801 0.16546 0.0
N710 N 0.30979 0.47739 0.16668 0.0
N711 N 0.28161 0.61671 0.07104 0.0
C712 C 0.31057 0.51168 0.1409 0.0
C713 C 0.29565 0.58286 0.09103 0.0
N714 N 0.31148 0.47828 0.06277 0.0
N715 N 0.32406 0.61782 0.15985 0.0
H716 H 0.26905 0.61853 0.03646 0.0
H717 H 0.27912 0.64273 0.09077 0.0
H718 H 0.33645 0.61898 0.19476 0.0
H719 H 0.32605 0.64409 0.14056 0.0
H720 H 0.32343 0.45308 0.07818 0.0
H721 H 0.31033 0.4775 0.02455 0.0
H722 H 0.30186 0.45071 0.15083 0.0
H723 H 0.31346 0.47591 0.20458 0.0
C724 C 1.02073 0.26998 0.14929 0.0
C725 C 1.00821 0.30783 0.16432 0.0
C726 C 0.99981 0.3259 0.07799 0.0
C727 C 1.0035 0.28597 0.06455 0.0
N728 N 1.01892 0.21967 0.08642 0.0
N729 N 0.98373 0.37179 0.14267 0.0
C730 C 1.01472 0.25793 0.09991 0.0
C731 C 0.99787 0.33615 0.12856 0.0
N732 N 0.03946 0.2461 0.18192 0.0
N733 N 0.99814 0.35393 0.04239 0.0
H734 H 0.98154 0.38033 0.17926 0.0
H735 H 0.97133 0.39167 0.11825 0.0
H736 H 0.99977 0.3471 0.00511 0.0
H737 H 0.99875 0.38384 0.04992 0.0
H738 H 0.05199 0.21943 0.17225 0.0
H739 H 0.04626 0.2549 0.2176 0.0
H740 H 1.02211 0.19689 0.11146 0.0
H741 H 1.01763 0.21068 0.04986 0.0
C742 C 0.24715 0.03006 0.14125 0.0
C743 C 0.24008 0.99401 0.16555 0.0
C744 C 0.26037 0.95842 0.0916 0.0
C745 C 0.26449 0.99458 0.0658 0.0
N746 N 0.24912 0.06378 0.06359 0.0
N747 N 0.23049 0.92429 0.16006 0.0
C748 C 0.25417 0.03012 0.08986 0.0
C749 C 0.24371 0.95832 0.13945 0.0
N750 N 0.24911 0.06424 0.1673 0.0
N751 N 0.27415 0.92428 0.072 0.0
H752 H 0.21778 0.92341 0.1948 0.0
H753 H 0.22832 0.89798 0.14081 0.0
H754 H 0.28773 0.92239 0.03799 0.0
H755 H 0.27568 0.8982 0.0917 0.0
H756 H 0.25861 0.09056 0.15192 0.0
H757 H 0.245 0.06579 0.20514 0.0
H758 H 0.23786 0.08934 0.07896 0.0
H759 H 0.2515 0.06508 0.02557 0.0
C760 C 0.06172 0.84489 0.38086 0.0
C761 C 0.04691 0.81501 0.34964 0.0
C762 C 0.02952 0.77468 0.42113 0.0
C763 C 0.04408 0.80456 0.45258 0.0
N764 N 0.0717 0.86926 0.46392 0.0
N765 N 1.00894 0.7558 0.33919 0.0
C766 C 0.05908 0.84026 0.43284 0.0
C767 C 0.02886 0.78098 0.36954 0.0
N768 N 0.07955 0.87697 0.36056 0.0
N769 N 1.016 0.7403 0.44063 0.0
H770 H 1.00649 0.76006 0.30143 0.0
H771 H 0.99168 0.73261 0.3515 0.0
H772 H 1.01201 0.73596 0.47816 0.0
H773 H 1.0104 0.71526 0.41993 0.0
H774 H 0.09259 0.8995 0.38036 0.0
H775 H 0.08247 0.88076 0.32284 0.0
H776 H 0.07963 0.89732 0.45296 0.0
H777 H 0.07375 0.86578 0.5018 0.0
C778 C 0.72272 1.01103 0.37839 0.0
C779 C 0.75595 1.01823 0.34834 0.0
C780 C 0.79648 1.01998 0.42328 0.0
C781 C 0.76186 0.02434 0.45169 0.0
N782 N 0.69092 0.02842 0.45421 0.0
N783 N 0.82677 1.01988 0.34275 0.0
C784 C 0.72462 1.02096 0.42875 0.0
C785 C 0.79367 1.01996 0.37101 0.0
N786 N 0.69051 0.99196 0.36046 0.0
N787 N 0.8315 1.01331 0.44624 0.0
H788 H 0.82633 1.01238 0.30564 0.0
H789 H 0.85457 0.02683 0.35618 0.0
H790 H 0.834 1.0112 0.48429 0.0
H791 H 0.85722 1.00604 0.42781 0.0
H792 H 0.6666 0.98441 0.38246 0.0
H793 H 0.69041 0.97803 0.32646 0.0
H794 H 0.66344 0.0293 0.4373 0.0
H795 H 0.69074 0.03769 0.49067 0.0
C796 C 0.46546 0.7379 0.37162 0.0
C797 C 0.50137 0.73228 0.34647 0.0
C798 C 0.53685 0.74234 0.4237 0.0
C799 C 0.50184 0.75599 0.4463 0.0
N800 N 0.43207 0.76981 0.43836 0.0
N801 N 0.5724 0.73477 0.34766 0.0
C802 C 0.46578 0.75423 0.41959 0.0
C803 C 0.53745 0.73573 0.37224 0.0
N804 N 0.43095 0.72696 0.3499 0.0
N805 N 0.56911 0.73382 0.4515 0.0
H806 H 0.57458 0.73077 0.30986 0.0
H807 H 0.59913 0.74155 0.36437 0.0
H808 H 0.56909 0.73519 0.48972 0.0
H809 H 0.59411 0.72058 0.43708 0.0
H810 H 0.40415 0.72629 0.36835 0.0
H811 H 0.42996 0.71443 0.31507 0.0
H812 H 0.40653 0.77332 0.41777 0.0
H813 H 0.43006 0.78251 0.47283 0.0
C814 C 0.76268 0.49784 0.41476 0.0
C815 C 0.78773 0.52 0.44569 0.0
C816 C 0.8289 0.53531 0.37428 0.0
C817 C 0.80635 0.50886 0.34512 0.0
N818 N 0.7602 0.45477 0.34484 0.0
N819 N 0.85223 0.54925 0.45619 0.0
C820 C 0.776 0.48677 0.36772 0.0
C821 C 0.82316 0.53571 0.426 0.0
N822 N 0.72519 0.48937 0.42874 0.0
N823 N 0.85418 0.56152 0.35329 0.0
H824 H 0.85085 0.54739 0.49429 0.0
H825 H 0.87974 0.55776 0.4431 0.0
H826 H 0.85818 0.56427 0.31563 0.0
H827 H 0.8681 0.58355 0.37344 0.0
H828 H 0.70501 0.47601 0.40521 0.0
H829 H 0.71304 0.50069 0.46079 0.0
H830 H 0.73981 0.43642 0.36193 0.0
H831 H 0.77112 0.44399 0.31172 0.0
C832 C 0.4631 0.7862 0.9174 0.0
C833 C 0.50001 0.77943 0.94067 0.0
C834 C 0.53399 0.79784 0.86463 0.0
C835 C 0.49735 0.80651 0.84238 0.0
N836 N 0.42803 0.81789 0.85098 0.0
N837 N 0.57004 0.79145 0.94058 0.0
C838 C 0.4622 0.80348 0.86991 0.0
C839 C 0.53533 0.78894 0.91551 0.0
N840 N 0.4289 0.7746 0.93934 0.0
N841 N 0.56742 0.79623 0.83695 0.0
H842 H 0.57211 0.7876 0.97844 0.0
H843 H 0.59589 0.80196 0.92483 0.0
H844 H 0.56803 0.80216 0.79945 0.0
H845 H 0.59396 0.7856 0.85042 0.0
H846 H 0.40179 0.77471 0.92161 0.0
H847 H 0.42766 0.76162 0.97376 0.0
H848 H 0.40223 0.82058 0.87121 0.0
H849 H 0.42661 0.83087 0.81643 0.0
C850 C 0.72371 0.45535 0.8725 0.0
C851 C 0.72013 0.49249 0.84977 0.0
C852 C 0.72308 0.52419 0.93067 0.0
C853 C 0.73082 0.48731 0.95264 0.0
N854 N 0.74567 0.41843 0.94277 0.0
N855 N 0.7237 0.56299 0.85632 0.0
C856 C 0.73332 0.45306 0.9231 0.0
C857 C 0.72139 0.52718 0.87859 0.0
N858 N 0.71678 0.4221 0.84589 0.0
N859 N 0.71798 0.55659 0.95945 0.0
H860 H 0.72356 0.56673 0.81839 0.0
H861 H 0.72932 0.58893 0.87524 0.0
H862 H 0.72233 0.55657 0.99733 0.0
H863 H 0.70726 0.58303 0.94609 0.0
H864 H 0.71433 0.39435 0.86144 0.0
H865 H 0.70952 0.42276 0.80882 0.0
H866 H 0.75177 0.39369 0.92179 0.0
H867 H 0.75398 0.41518 0.97921 0.0
C868 C 0.08986 0.73684 0.87597 0.0
C869 C 0.05479 0.7353 0.84806 0.0
C870 C 1.01708 0.75341 0.92118 0.0
C871 C 0.05261 0.76113 0.94693 0.0
N872 N 0.12386 0.76388 0.94605 0.0
N873 N 0.98523 0.7482 0.84209 0.0
C874 C 0.08935 0.75355 0.92375 0.0
C875 C 1.01839 0.74509 0.87011 0.0
N876 N 0.12359 0.72152 0.85707 0.0
N877 N 0.98214 0.75204 0.94581 0.0
H878 H 0.98466 0.74256 0.8045 0.0
H879 H 0.95903 0.75971 0.85544 0.0
H880 H 0.97998 0.75554 0.98372 0.0
H881 H 0.95597 0.74285 0.92954 0.0
H882 H 0.1492 0.71767 0.87741 0.0
H883 H 0.12456 0.70893 0.82233 0.0
H884 H 0.15097 0.76318 0.92838 0.0
H885 H 0.12551 0.77656 0.98065 0.0
C886 C 0.81798 1.01391 0.87772 0.0
C887 C 0.82232 0.04927 0.85106 0.0
C888 C 0.80469 0.08672 0.9249 0.0
C889 C 0.80092 0.05101 0.95215 0.0
N890 N 0.82265 0.9837 0.95744 0.0
N891 N 0.833 0.11883 0.85363 0.0
C892 C 0.81322 1.01549 0.92949 0.0
C893 C 0.81999 0.08551 0.87619 0.0
N894 N 0.81662 0.97871 0.85391 0.0
N895 N 0.79211 0.12166 0.94355 0.0
H896 H 0.84477 0.11857 0.81833 0.0
H897 H 0.83634 0.14554 0.87172 0.0
H898 H 0.77912 0.12526 0.97762 0.0
H899 H 0.79061 0.14717 0.92272 0.0
H900 H 0.80924 0.95266 0.87165 0.0
H901 H 0.81936 0.97583 0.81601 0.0
H902 H 0.8346 0.95825 0.94262 0.0
H903 H 0.82397 0.98474 0.99565 0.0
C904 C 0.02758 0.24999 0.62581 0.0
C905 C 1.00887 0.2177 0.64924 0.0
C906 C 0.98791 0.19232 0.56897 0.0
C907 C 1.00706 0.22441 0.54529 0.0
N908 N 0.05289 0.27821 0.55037 0.0
N909 N 0.97929 0.15381 0.64306 0.0
C910 C 0.02905 0.25173 0.57356 0.0
C911 C 0.99182 0.18739 0.62072 0.0
N912 N 0.04401 0.27914 0.65361 0.0
N913 N 0.96392 0.16777 0.54279 0.0
H914 H 0.98046 0.14981 0.68091 0.0
H915 H 0.97113 0.12865 0.62391 0.0
H916 H 0.96011 0.16946 0.50502 0.0
H917 H 0.94529 0.14729 0.55898 0.0
H918 H 0.05299 0.306 0.63939 0.0
H919 H 0.04729 0.27717 0.69157 0.0
H920 H 0.07274 0.29637 0.56859 0.0
H921 H 0.05571 0.27953 0.5123 0.0
C922 C 0.34546 0.97613 0.58289 0.0
C923 C 0.31201 0.99314 0.56018 0.0
C924 C 0.28238 1.00343 0.64119 0.0
C925 C 0.31741 0.99013 0.66407 0.0
N926 N 0.38482 0.96969 0.65653 0.0
N927 N 0.25343 0.03195 0.56847 0.0
C928 C 0.34983 0.97851 0.63481 0.0
C929 C 0.28172 1.0092 0.58954 0.0
N930 N 0.37212 0.95591 0.55531 0.0
N931 N 0.24951 1.01043 0.6685 0.0
H932 H 0.25277 0.03814 0.531 0.0
H933 H 0.233 0.04783 0.5887 0.0
H934 H 0.24869 1.00761 0.70651 0.0
H935 H 0.22211 1.01583 0.65294 0.0
H936 H 0.39478 0.93949 0.5704 0.0
H937 H 0.36972 0.95244 0.51746 0.0
H938 H 0.41071 0.96534 0.63697 0.0
H939 H 0.38868 0.9698 0.69442 0.0
C940 C 0.56924 0.35027 0.62745 0.0
C941 C 0.552 0.32029 0.65628 0.0
C942 C 0.53796 0.2817 0.58167 0.0
C943 C 0.55731 0.31069 0.55306 0.0
N944 N 0.59534 0.37052 0.54868 0.0
N945 N 0.5122 0.26196 0.66118 0.0
C946 C 0.57356 0.34469 0.57587 0.0
C947 C 0.53451 0.287 0.63347 0.0
N948 N 0.58079 0.38448 0.6493 0.0
N949 N 0.52269 0.24919 0.55915 0.0
H950 H 0.50694 0.26639 0.69846 0.0
H951 H 0.49605 0.23857 0.64725 0.0
H952 H 0.52104 0.2461 0.52115 0.0
H953 H 0.51273 0.22446 0.57763 0.0
H954 H 0.58847 0.40966 0.63005 0.0
H955 H 0.57967 0.38892 0.68705 0.0
H956 H 0.61181 0.39328 0.56366 0.0
H957 H 0.59954 0.3678 0.51102 0.0
C958 C 0.23454 0.52248 0.63811 0.0
C959 C 0.23608 0.55771 0.66582 0.0
C960 C 0.25145 0.59482 0.59128 0.0
C961 C 0.24564 0.56033 0.56286 0.0
N962 N 0.22815 0.49184 0.55826 0.0
N963 N 0.23925 0.62818 0.66819 0.0
C964 C 0.23586 0.52437 0.58601 0.0
C965 C 0.24276 0.5941 0.64223 0.0
N966 N 0.23421 0.48707 0.66154 0.0
N967 N 0.26568 0.62823 0.57001 0.0
H968 H 0.23287 0.62876 0.70554 0.0
H969 H 0.23893 0.65579 0.65199 0.0
H970 H 0.27249 0.63042 0.53295 0.0
H971 H 0.27432 0.65283 0.58995 0.0
H972 H 0.23755 0.46043 0.64345 0.0
H973 H 0.23426 0.48417 0.69961 0.0
H974 H 0.21586 0.4663 0.57252 0.0
H975 H 0.23203 0.49095 0.52031 0.0
C976 C 0.68557 0.21727 0.44733 0.0
C977 C 0.64493 0.2082 0.44549 0.0
C978 C 0.64818 0.17987 0.528 0.0
C979 C 0.68906 0.18791 0.5293 0.0
N980 N 0.74446 0.22345 0.49713 0.0
N981 N 0.58554 0.19165 0.48872 0.0
C982 C 0.70705 0.20975 0.49115 0.0
C983 C 0.62557 0.19335 0.48764 0.0
N984 N 0.70382 0.23144 0.40638 0.0
N985 N 0.63133 0.15753 0.56399 0.0
H986 H 0.56839 0.20282 0.46051 0.0
H987 H 0.56934 0.18377 0.51956 0.0
H988 H 0.64668 0.14746 0.59456 0.0
H989 H 0.60282 0.14651 0.56205 0.0
H990 H 0.73414 0.23454 0.40316 0.0
H991 H 0.68836 0.23857 0.37457 0.0
H992 H 0.75816 0.2425 0.47267 0.0
H993 H 0.76049 0.21847 0.5291 0.0
C994 C 0.36048 0.61248 0.50198 0.0
C995 C 0.34888 0.63342 0.45944 0.0
C996 C 0.34026 0.6929 0.50856 0.0
C997 C 0.35751 0.67354 0.54913 0.0
N998 N 0.38331 0.61513 0.58636 0.0
N999 N 0.32501 0.69217 0.42132 0.0
C1000 C 0.36645 0.63307 0.5468 0.0
C1001 C 0.33747 0.67321 0.46263 0.0
N1002 N 0.36661 0.57303 0.49911 0.0
N1003 N 0.32706 0.73032 0.51442 0.0
H1004 H 0.32067 0.67777 0.388 0.0
H1005 H 0.31972 0.72207 0.41918 0.0
H1006 H 0.32745 0.74444 0.54839 0.0
H1007 H 0.31358 0.74655 0.48705 0.0
H1008 H 0.37092 0.55504 0.5294 0.0
H1009 H 0.36455 0.55753 0.46633 0.0
H1010 H 0.3952 0.58714 0.58556 0.0
H1011 H 0.38709 0.62896 0.62016 0.0
C1012 C 0.88369 0.34993 0.52821 0.0
C1013 C 0.86559 0.38716 0.52365 0.0
C1014 C 0.86588 0.37796 0.43541 0.0
C1015 C 0.89625 0.35 0.43916 0.0
N1016 N 0.92196 0.29941 0.48931 0.0
N1017 N 0.84794 0.44015 0.4683 0.0
C1018 C 0.90208 0.33313 0.48602 0.0
C1019 C 0.85829 0.4021 0.47596 0.0
N1020 N 0.88153 0.33002 0.57163 0.0
N1021 N 0.84565 0.38257 0.39264 0.0
H1022 H 0.84785 0.46111 0.49612 0.0
H1023 H 0.84492 0.45166 0.43306 0.0
H1024 H 0.84985 0.36371 0.36289 0.0
H1025 H 0.82226 0.40208 0.38947 0.0
H1026 H 0.89187 0.3017 0.57668 0.0
H1027 H 0.86568 0.34036 0.60166 0.0
H1028 H 0.93064 0.28627 0.52198 0.0
H1029 H 0.92679 0.28428 0.4573 0.0
C1030 C 0.19918 0.93086 0.50166 0.0
C1031 C 0.2031 0.91127 0.45632 0.0
C1032 C 0.17593 0.85225 0.49229 0.0
C1033 C 0.17349 0.87118 0.53925 0.0
N1034 N 0.20199 0.9241 0.58841 0.0
N1035 N 0.21246 0.8494 0.41616 0.0
C1036 C 0.19211 0.90851 0.54411 0.0
C1037 C 0.19878 0.87022 0.45521 0.0
N1038 N 0.19929 0.97064 0.50461 0.0
N1039 N 0.15241 0.82151 0.47926 0.0
H1040 H 0.22868 0.86283 0.3883 0.0
H1041 H 0.21124 0.81888 0.41489 0.0
H1042 H 0.12732 0.8136 0.49833 0.0
H1043 H 0.15324 0.80886 0.44442 0.0
H1044 H 0.19374 0.98509 0.53765 0.0
H1045 H 0.20341 0.98859 0.47416 0.0
H1046 H 0.20036 0.9085 0.62128 0.0
H1047 H 0.20036 0.9085 0.62128 0.0
C1048 C 0.19589 0.83495 0.00806 0.0
C1049 C 0.17702 0.85048 0.9659 0.0
C1050 C 0.11549 0.85696 0.01149 0.0
C1051 C 0.13432 0.84187 0.05383 0.0
N1052 N 0.19071 0.81385 0.09325 0.0
N1053 N 0.11716 0.86732 0.92365 0.0
C1054 C 0.17399 0.82952 0.05209 0.0
C1055 C 0.13617 0.85827 0.96631 0.0
N1056 N 0.23499 0.82632 0.00577 0.0
N1057 N 0.07896 0.87313 0.01538 0.0
H1058 H 0.13145 0.87002 0.89005 0.0
H1059 H 0.0867 0.86871 0.92073 0.0
H1060 H 0.06268 0.87262 0.04774 0.0
H1061 H 0.06571 0.88924 0.98755 0.0
H1062 H 0.25199 0.81806 0.03562 0.0
H1063 H 0.25078 0.82745 0.97302 0.0
H1064 H 0.21962 0.80454 0.09596 0.0
H1065 H 0.17491 0.809 0.12544 0.0
C1066 C 0.70245 0.12569 0.02327 0.0
C1067 C 0.70655 0.14576 0.06861 0.0
C1068 C 0.66846 0.19957 0.03496 0.0
C1069 C 0.66748 0.18111 0.9879 0.0
N1070 N 0.69973 0.13372 0.93546 0.0
N1071 N 0.7065 0.2083 0.10926 0.0
C1072 C 0.69054 0.1469 0.9813 0.0
C1073 C 0.69552 0.18564 0.07039 0.0
N1074 N 0.7053 0.08606 0.02062 0.0
N1075 N 0.64029 0.22542 0.04945 0.0
H1076 H 0.72516 0.19767 0.13657 0.0
H1077 H 0.69997 0.2381 0.11114 0.0
H1078 H 0.61409 0.22927 0.0305 0.0
H1079 H 0.63976 0.23756 0.08459 0.0
H1080 H 0.6976 0.07033 0.98918 0.0
H1081 H 0.71324 0.069 0.05041 0.0
H1082 H 0.71593 0.10832 0.92957 0.0
H1083 H 0.69497 0.1506 0.90413 0.0
C1084 C 0.44075 0.68108 0.0082 0.0
C1085 C 0.42121 0.69709 0.04954 0.0
C1086 C 0.36085 0.70449 1.00141 0.0
C1087 C 0.38001 0.68695 0.96077 0.0
N1088 N 0.43993 0.66762 0.92079 0.0
N1089 N 0.36446 0.7266 0.08638 0.0
C1090 C 0.42066 0.67845 0.96259 0.0
C1091 C 0.38183 0.71013 0.04611 0.0
N1092 N 0.47742 0.66549 0.01358 0.0
N1093 N 0.32242 0.71519 0.99685 0.0
H1094 H 0.37978 0.73217 0.11875 0.0
H1095 H 0.33536 0.73537 0.08842 0.0
H1096 H 0.30749 0.71379 0.96346 0.0
H1097 H 0.30538 0.72623 0.02516 0.0
H1098 H 0.49134 0.64886 0.98677 0.0
H1099 H 0.49333 0.66733 0.0462 0.0
H1100 H 0.47034 0.66522 0.91847 0.0
H1101 H 0.42586 0.66438 0.88705 0.0
C1102 C 0.84728 0.369 0.05143 0.0
C1103 C 0.84092 0.40957 0.04994 0.0
C1104 C 0.85224 0.40599 0.96192 0.0
C1105 C 0.87348 0.37039 0.96822 0.0
N1106 N 0.90217 0.32994 0.03232 0.0
N1107 N 0.84315 0.4686 1.00102 0.0
C1108 C 0.87288 0.3534 0.01611 0.0
C1109 C 0.84402 0.42883 1.00413 0.0
N1110 N 0.83553 0.34752 0.09085 0.0
N1111 N 0.84051 0.41833 0.91673 0.0
H1112 H 0.83877 0.48639 0.03162 0.0
H1113 H 0.84891 0.48339 0.9683 0.0
H1114 H 0.8422 0.40034 0.88583 0.0
H1115 H 0.82441 0.44398 0.91191 0.0
H1116 H 0.8405 0.31741 0.09296 0.0
H1117 H 0.81784 0.35964 0.11816 0.0
H1118 H 0.90273 0.31839 0.06777 0.0
H1119 H 0.92924 0.33036 0.01499 0.0
C1120 C 0.43346 0.85683 0.50781 0.0
C1121 C 0.41364 0.84259 0.5499 0.0
C1122 C 0.35205 0.83852 0.50316 0.0
C1123 C 0.37087 0.85778 0.46344 0.0
N1124 N 0.42866 0.8875 0.42794 0.0
N1125 N 0.35536 0.81736 0.58834 0.0
C1126 C 0.41155 0.86686 0.46533 0.0
C1127 C 0.37329 0.83222 0.54752 0.0
N1128 N 0.47334 0.86072 0.50858 0.0
N1129 N 0.3137 0.82701 0.49828 0.0
H1130 H 0.37104 0.81007 0.61985 0.0
H1131 H 0.32532 0.81255 0.59168 0.0
H1132 H 0.29804 0.8304 0.46564 0.0
H1133 H 0.29773 0.81227 0.52504 0.0
H1134 H 0.49027 0.86736 0.4779 0.0
H1135 H 0.48998 0.85284 0.5389 0.0
H1136 H 0.45672 0.89959 0.42983 0.0
H1137 H 0.41396 0.89495 0.39575 0.0
C1138 C 0.72153 0.36664 0.4941 0.0
C1139 C 0.69255 0.37915 0.46041 0.0
C1140 C 0.67788 0.43584 0.51255 0.0
C1141 C 0.703 0.42035 0.54914 0.0
N1142 N 0.74588 0.3693 0.57765 0.0
N1143 N 0.64271 0.42501 0.43607 0.0
C1144 C 0.72448 0.38552 0.54049 0.0
C1145 C 0.67101 0.41398 0.46887 0.0
N1146 N 0.7459 0.33654 0.48171 0.0
N1147 N 0.65986 0.47102 0.52042 0.0
H1148 H 0.6383 0.41079 0.40261 0.0
H1149 H 0.62253 0.44722 0.44238 0.0
H1150 H 0.66405 0.48741 0.5523 0.0
H1151 H 0.64332 0.48568 0.4942 0.0
H1152 H 0.77009 0.32832 0.50265 0.0
H1153 H 0.7439 0.32202 0.44807 0.0
H1154 H 0.75837 0.34157 0.57577 0.0
H1155 H 0.74983 0.38315 0.61144 0.0
C1156 C 0.1367 0.68218 0.46846 0.0
C1157 C 0.17684 0.69327 0.46527 0.0
C1158 C 0.17491 0.71922 0.54896 0.0
C1159 C 0.13518 0.70693 0.55309 0.0
N1160 N 0.07554 0.68482 0.51427 0.0
N1161 N 0.23031 0.73254 0.49548 0.0
C1162 C 0.11505 0.69155 0.51165 0.0
C1163 C 0.19463 0.71526 0.50333 0.0
N1164 N 0.12005 0.66075 0.43142 0.0
N1165 N 0.19427 0.73311 0.58937 0.0
H1166 H 0.24506 0.73019 0.46204 0.0
H1167 H 0.2432 0.75218 0.51998 0.0
H1168 H 0.17999 0.73884 0.62244 0.0
H1169 H 0.22454 0.73758 0.59059 0.0
H1170 H 0.09247 0.64764 0.43354 0.0
H1171 H 0.13473 0.65428 0.39886 0.0
H1172 H 0.0584 0.6758 0.48472 0.0
H1173 H 0.05903 0.69174 0.5452 0.0
C1174 C 0.84696 0.18862 0.50397 0.0
C1175 C 0.86128 0.16854 0.46203 0.0
C1176 C 0.86731 0.10807 0.50936 0.0
C1177 C 0.8532 0.12801 0.55147 0.0
N1178 N 0.82524 0.18535 0.58881 0.0
N1179 N 0.87686 0.10795 0.42124 0.0
C1180 C 0.84128 0.16769 0.54854 0.0
C1181 C 0.86822 0.12771 0.46349 0.0
N1182 N 0.84041 0.22806 0.50134 0.0
N1183 N 0.88312 0.07156 0.51407 0.0
H1184 H 0.87896 0.12154 0.38714 0.0
H1185 H 0.87887 0.07762 0.41918 0.0
H1186 H 0.88304 0.05611 0.54696 0.0
H1187 H 0.89898 0.05769 0.48647 0.0
H1188 H 0.83484 0.24584 0.53152 0.0
H1189 H 0.84148 0.24351 0.46834 0.0
H1190 H 0.81345 0.21337 0.58898 0.0
H1191 H 0.8216 0.17087 0.6221 0.0
C1192 C 0.91894 0.17734 0.03789 0.0
C1193 C 0.88048 0.19295 0.04081 0.0
C1194 C 0.88556 0.21763 0.95651 0.0
C1195 C 0.92357 0.20094 0.95282 0.0
N1196 N 0.97612 0.16296 0.98748 0.0
N1197 N 0.83008 0.23473 0.0082 0.0
C1198 C 0.94036 0.18053 0.99308 0.0
C1199 C 0.86475 0.21534 1.00173 0.0
N1200 N 0.93502 0.16021 0.07851 0.0
N1201 N 0.86854 0.23376 0.91583 0.0
H1202 H 0.81382 0.23305 0.04056 0.0
H1203 H 0.8189 0.25492 0.98334 0.0
H1204 H 0.88363 0.23769 0.88287 0.0
H1205 H 0.83916 0.24184 0.91387 0.0
H1206 H 0.96377 0.15029 0.08073 0.0
H1207 H 0.92006 0.15809 0.11182 0.0
H1208 H 0.98856 0.14401 0.01287 0.0
H1209 H 0.9934 0.16658 0.95619 0.0
C1210 C 0.34335 0.84964 0.00809 0.0
C1211 C 0.36276 0.86842 0.04779 0.0
C1212 C 0.3641 0.93016 1.00208 0.0
C1213 C 0.34928 0.91014 0.96029 0.0
N1214 N 0.32385 0.85176 0.92223 0.0
N1215 N 0.39257 0.92588 0.08359 0.0
C1216 C 0.33812 0.87017 0.96315 0.0
C1217 C 0.37267 0.90876 0.04549 0.0
N1218 N 0.33043 0.81199 0.01368 0.0
N1219 N 0.37052 0.96961 0.9998 0.0
H1220 H 0.39855 0.91148 0.11643 0.0
H1221 H 0.40507 0.95369 0.08222 0.0
H1222 H 0.36478 0.98585 0.96838 0.0
H1223 H 0.37794 0.98696 0.02981 0.0
H1224 H 0.31512 0.79628 0.98715 0.0
H1225 H 0.33265 0.79718 0.04698 0.0
H1226 H 0.3188 0.8218 0.91951 0.0
H1227 H 0.31788 0.86671 0.88977 0.0
C1228 C 0.69017 0.33026 0.00746 0.0
C1229 C 0.67175 0.35004 0.04689 0.0
C1230 C 0.61175 0.35802 0.99822 0.0
C1231 C 0.63119 0.34112 0.95726 0.0
N1232 N 0.68786 0.31028 0.92172 0.0
N1233 N 0.61312 0.37412 0.08521 0.0
C1234 C 0.67001 0.32645 0.96183 0.0
C1235 C 0.63172 0.36082 0.04403 0.0
N1236 N 0.72688 0.31507 0.01428 0.0
N1237 N 0.57548 0.37436 0.99213 0.0
H1238 H 0.62725 0.37664 0.11904 0.0
H1239 H 0.5832 0.37984 0.08716 0.0
H1240 H 0.55963 0.37223 0.95952 0.0
H1241 H 0.5617 0.39174 0.01826 0.0
H1242 H 0.74178 0.29827 0.98856 0.0
H1243 H 0.74171 0.3172 0.04773 0.0
H1244 H 0.71728 0.30237 0.92025 0.0
H1245 H 0.67296 0.30512 0.88884 0.0
C1246 C 0.18342 0.63253 0.04942 0.0
C1247 C 0.19293 0.67293 0.05274 0.0
C1248 C 0.21859 0.6723 0.96866 0.0
C1249 C 0.20752 0.63239 0.96455 0.0
N1250 N 0.18681 0.57221 1.00247 0.0
N1251 N 0.22569 0.72977 0.02066 0.0
C1252 C 0.19261 0.61171 0.00568 0.0
C1253 C 0.21277 0.69224 0.01391 0.0
N1254 N 0.16335 0.61479 0.08683 0.0
N1255 N 0.23341 0.69124 0.92853 0.0
H1256 H 0.22325 0.74406 0.05431 0.0
H1257 H 0.2412 0.74583 0.9947 0.0
H1258 H 0.24084 0.67645 0.89641 0.0
H1259 H 0.23768 0.72134 0.92627 0.0
H1260 H 0.15121 0.58685 0.08469 0.0
H1261 H 0.15693 0.62879 0.11985 0.0
H1262 H 0.17922 0.55444 0.03197 0.0
H1263 H 0.19337 0.55644 0.9709 0.0
C1264 C 0.36054 0.13262 0.36413 0.0
C1265 C 0.3953 0.11872 0.34163 0.0
C1266 C 0.3592 0.06195 0.30923 0.0
C1267 C 0.32669 0.07229 0.33892 0.0
N1268 N 0.29463 0.11775 0.39316 0.0
N1269 N 0.4285 0.07135 0.29129 0.0
C1270 C 0.32656 0.10815 0.36527 0.0
C1271 C 0.39464 0.08408 0.31285 0.0
N1272 N 0.36044 0.16916 0.38463 0.0
N1273 N 0.356 0.03091 0.27773 0.0
H1274 H 0.45441 0.08777 0.29157 0.0
H1275 H 0.43151 0.04402 0.27483 0.0
H1276 H 0.3304 1.01417 0.27471 0.0
H1277 H 0.37723 0.02369 0.25184 0.0
H1278 H 0.33546 0.18268 0.39847 0.0
H1279 H 0.38508 0.18745 0.38393 0.0
H1280 H 0.29409 0.14109 0.41771 0.0
H1281 H 0.26883 0.10114 0.39331 0.0
C1282 C 0.41649 0.36055 0.35203 0.0
C1283 C 0.43224 0.39861 0.34494 0.0
C1284 C 0.49656 0.36957 0.32717 0.0
C1285 C 0.48248 0.33252 0.34348 0.0
N1286 N 0.42906 0.2936 0.37623 0.0
N1287 N 0.48793 0.4401 0.32778 0.0
C1288 C 0.44224 0.32799 0.3564 0.0
C1289 C 0.47239 0.40334 0.33236 0.0
N1290 N 0.3767 0.35569 0.35496 0.0
N1291 N 0.53276 0.37231 0.30575 0.0
H1292 H 0.47094 0.46536 0.33 0.0
H1293 H 0.51794 0.44559 0.3247 0.0
H1294 H 0.55076 0.34806 0.30024 0.0
H1295 H 0.5432 0.39771 0.28905 0.0
H1296 H 0.36301 0.32836 0.35549 0.0
H1297 H 0.35723 0.37908 0.35171 0.0
H1298 H 0.40117 0.29021 0.39134 0.0
H1299 H 0.44691 0.26931 0.38179 0.0
C1300 C 0.17915 0.50069 0.32515 0.0
C1301 C 0.21594 0.48423 0.33807 0.0
C1302 C 0.18484 0.41934 0.34477 0.0
C1303 C 0.14746 0.43706 0.34013 0.0
N1304 N 0.10804 0.49411 0.3253 0.0
N1305 N 0.25429 0.42809 0.36199 0.0
C1306 C 0.14438 0.47756 0.3294 0.0
C1307 C 0.21912 0.44341 0.34739 0.0
N1308 N 0.1777 0.53832 0.30819 0.0
N1309 N 0.18736 0.37947 0.34731 0.0
H1310 H 0.28005 0.44457 0.36442 0.0
H1311 H 0.2576 0.39964 0.37491 0.0
H1312 H 0.16266 0.36131 0.34612 0.0
H1313 H 0.21376 0.36425 0.34611 0.0
H1314 H 0.15246 0.55116 0.29403 0.0
H1315 H 0.20275 0.55576 0.30425 0.0
H1316 H 0.10332 0.52416 0.32367 0.0
H1317 H 0.08219 0.47756 0.32562 0.0
C1318 C 0.05276 0.18174 0.30385 0.0
C1319 C 0.06877 0.21626 0.3251 0.0
C1320 C 0.1315 0.18257 0.33766 0.0
C1321 C 0.11299 0.14665 0.32551 0.0
N1322 N 0.05703 0.11109 0.29492 0.0
N1323 N 0.12338 0.25015 0.36296 0.0
C1324 C 0.07409 0.14608 0.30704 0.0
C1325 C 0.10851 0.21718 0.34113 0.0
N1326 N 1.01728 0.1833 0.28045 0.0
N1327 N 0.17095 0.18319 0.34684 0.0
H1328 H 0.10763 0.27609 0.36641 0.0
H1329 H 0.15048 0.25121 0.3806 0.0
H1330 H 0.18816 0.15803 0.34494 0.0
H1331 H 0.18718 0.20881 0.35172 0.0
H1332 H 1.0054 0.16013 0.26044 0.0
H1333 H 1.0012 0.20914 0.27738 0.0
H1334 H 0.02729 0.10771 0.28706 0.0
H1335 H 0.07271 0.08489 0.29457 0.0
C1336 C 0.87631 0.99598 0.18541 0.0
C1337 C 0.83935 0.98366 0.16646 0.0
C1338 C 0.86547 0.91744 0.15528 0.0
C1339 C 0.9038 0.93162 0.16538 0.0
N1340 N 0.94667 0.985 0.18792 0.0
N1341 N 0.79994 0.93321 0.12769 0.0
C1342 C 0.9095 0.97097 0.18053 0.0
C1343 C 0.83399 0.94434 0.15056 0.0
N1344 N 0.87946 0.03119 0.20899 0.0
N1345 N 0.85936 0.8781 0.14985 0.0
H1346 H 0.77654 0.95212 0.12147 0.0
H1347 H 0.79626 0.90614 0.11062 0.0
H1348 H 0.88198 0.85775 0.15337 0.0
H1349 H 0.83153 0.8655 0.147 0.0
H1350 H 0.90467 0.04017 0.22761 0.0
H1351 H 0.85557 0.04978 0.21409 0.0
H1352 H 0.95305 1.01456 0.1932 0.0
H1353 H 0.9715 0.96729 0.18589 0.0
C1354 C 0.61246 0.82552 0.16266 0.0
C1355 C 0.57206 0.82945 0.17472 0.0
C1356 C 0.58223 0.89948 0.19179 0.0
C1357 C 0.62065 0.89669 0.17219 0.0
N1358 N 0.67372 0.85795 0.14061 0.0
N1359 N 0.51826 0.86885 0.20342 0.0
C1360 C 0.63642 0.85976 0.15904 0.0
C1361 C 0.55701 0.86603 0.19071 0.0
N1362 N 0.62763 0.78917 0.15386 0.0
N1363 N 0.57005 0.93431 0.21114 0.0
H1364 H 0.4997 0.84452 0.20576 0.0
H1365 H 0.50396 0.89517 0.21004 0.0
H1366 H 0.58812 0.95906 0.21223 0.0
H1367 H 0.54358 0.93811 0.22953 0.0
H1368 H 0.65745 0.78366 0.14949 0.0
H1369 H 0.61066 0.7637 0.15412 0.0
H1370 H 0.68574 0.83313 0.12447 0.0
H1371 H 0.6925 0.88218 0.13992 0.0
C1372 C 0.72325 0.60688 0.15906 0.0
C1373 C 0.71811 0.56648 0.16984 0.0
C1374 C 0.64725 0.57657 0.18088 0.0
C1375 C 0.65241 0.6167 0.16933 0.0
N1376 N 0.69551 0.67225 0.16174 0.0
N1377 N 0.67784 0.51558 0.20523 0.0
C1378 C 0.69064 0.63254 0.16353 0.0
C1379 C 0.68087 0.55222 0.18542 0.0
N1380 N 0.75831 0.62034 0.14117 0.0
N1381 N 0.61024 0.5613 0.1849 0.0
H1382 H 0.70205 0.49735 0.21001 0.0
H1383 H 0.65225 0.50481 0.22131 0.0
H1384 H 0.58505 0.5785 0.18331 0.0
H1385 H 0.60444 0.53139 0.18711 0.0
H1386 H 0.76231 0.64851 0.12745 0.0
H1387 H 0.7828 0.6026 0.13623 0.0
H1388 H 0.72289 0.68597 0.16203 0.0
H1389 H 0.67196 0.69156 0.16498 0.0
C1390 C 0.99804 0.67676 0.19954 0.0
C1391 C 0.9823 0.71256 0.18201 0.0
C1392 C 0.91844 0.68 0.16934 0.0
C1393 C 0.93626 0.64347 0.17965 0.0
N1394 N 0.99135 0.60715 0.21085 0.0
N1395 N 0.92725 0.74914 0.15076 0.0
C1396 C 0.97531 0.64206 0.19722 0.0
C1397 C 0.94206 0.71468 0.16818 0.0
N1398 N 0.03522 0.67465 0.21778 0.0
N1399 N 0.879 0.68117 0.16018 0.0
H1400 H 0.94343 0.77512 0.1499 0.0
H1401 H 0.89962 0.75189 0.13487 0.0
H1402 H 0.86141 0.65607 0.16065 0.0
H1403 H 0.86307 0.70689 0.15621 0.0
H1404 H 0.05389 0.69879 0.22179 0.0
H1405 H 0.05389 0.69879 0.22179 0.0
H1406 H 1.02031 0.60475 0.22305 0.0
H1407 H 0.97534 0.58101 0.21072 0.0
C1408 C 0.71974 0.9418 0.66663 0.0
C1409 C 0.71851 0.98216 0.67934 0.0
C1410 C 0.64788 0.97692 0.69623 0.0
C1411 C 0.64867 0.93723 0.68084 0.0
N1412 N 0.68555 0.8791 0.66334 0.0
N1413 N 0.68465 0.0358 0.71754 0.0
C1414 C 0.68487 0.91871 0.67042 0.0
C1415 C 0.68353 0.99893 0.69797 0.0
N1416 N 0.75359 0.92622 0.64811 0.0
N1417 N 0.61262 0.99389 0.70695 0.0
H1418 H 0.7104 0.05244 0.7192 0.0
H1419 H 0.66112 0.04876 0.73557 0.0
H1420 H 0.5865 0.97782 0.70861 0.0
H1421 H 0.60888 0.02377 0.71259 0.0
H1422 H 0.75545 0.89836 0.63286 0.0
H1423 H 0.77979 0.94201 0.64543 0.0
H1424 H 0.7112 0.86291 0.65961 0.0
H1425 H 0.66029 0.86179 0.66547 0.0
C1426 C 0.63588 0.69004 0.66934 0.0
C1427 C 0.61869 0.65236 0.67399 0.0
C1428 C 0.55482 0.6826 0.69007 0.0
C1429 C 0.57048 0.71945 0.67564 0.0
N1430 N 0.62607 0.75856 0.64998 0.0
N1431 N 0.56178 0.61192 0.68857 0.0
C1432 C 0.61127 0.72352 0.66587 0.0
C1433 C 0.57824 0.64838 0.68523 0.0
N1434 N 0.67586 0.69353 0.6677 0.0
N1435 N 0.51765 0.68053 0.70886 0.0
H1436 H 0.5783 0.58632 0.68682 0.0
H1437 H 0.53163 0.60698 0.69051 0.0
H1438 H 0.50011 0.70523 0.7136 0.0
H1439 H 0.5057 0.6552 0.72409 0.0
H1440 H 0.69062 0.72028 0.66871 0.0
H1441 H 0.69437 0.66931 0.67019 0.0
H1442 H 0.65455 0.76212 0.63681 0.0
H1443 H 0.60915 0.78377 0.64659 0.0
C1444 C 0.86342 0.63463 0.65858 0.0
C1445 C 0.89624 0.61714 0.68163 0.0
C1446 C 0.85391 0.56455 0.7133 0.0
C1447 C 0.82309 0.57786 0.68236 0.0
N1448 N 0.79612 0.62749 0.6297 0.0
N1449 N 0.92363 0.5667 0.73247 0.0
C1450 C 0.82701 0.61388 0.65676 0.0
C1451 C 0.89152 0.58291 0.7104 0.0
N1452 N 0.8675 0.67096 0.63816 0.0
N1453 N 0.84747 0.53414 0.74486 0.0
H1454 H 0.95106 0.58045 0.73286 0.0
H1455 H 0.92371 0.53905 0.74847 0.0
H1456 H 0.82071 0.51947 0.74748 0.0
H1457 H 0.8675 0.52544 0.77152 0.0
H1458 H 0.84441 0.68703 0.62355 0.0
H1459 H 0.89393 0.68653 0.63942 0.0
H1460 H 0.79794 0.65099 0.60556 0.0
H1461 H 0.76836 0.61441 0.63061 0.0
C1462 C 0.9292 0.81544 0.65262 0.0
C1463 C 0.96571 0.81512 0.67748 0.0
C1464 C 0.95723 0.88408 0.70074 0.0
C1465 C 0.92142 0.88498 0.67405 0.0
N1466 N 0.86764 0.84925 0.6379 0.0
N1467 N 1.00759 0.84418 0.73885 0.0
C1468 C 0.9055 0.8497 0.65456 0.0
C1469 C 0.97729 0.8478 0.70635 0.0
N1470 N 0.91789 0.78347 0.62586 0.0
N1471 N 0.9736 0.9181 0.71765 0.0
H1472 H 1.02259 0.81792 0.74379 0.0
H1473 H 1.01524 0.86588 0.76404 0.0
H1474 H 0.95986 0.94518 0.71456 0.0
H1475 H 1.00195 0.91984 0.73189 0.0
H1476 H 0.8939 0.78328 0.60217 0.0
H1477 H 0.93374 0.75737 0.62591 0.0
H1478 H 0.85303 0.82393 0.62672 0.0
H1479 H 0.84961 0.87386 0.63979 0.0
C1480 C 0.19414 0.06805 0.89063 0.0
C1481 C 0.21945 0.06519 0.84919 0.0
C1482 C 0.18121 0.11783 0.81013 0.0
C1483 C 0.1534 0.11604 0.84893 0.0
N1484 N 0.12774 0.07933 0.9174 0.0
N1485 N 0.23038 0.0826 0.7639 0.0
C1486 C 0.15787 0.08744 0.88591 0.0
C1487 C 0.21107 0.08861 0.80709 0.0
N1488 N 0.2058 0.05535 0.93584 0.0
N1489 N 0.18063 0.1482 0.77763 0.0
H1490 H 0.25145 0.06101 0.75915 0.0
H1491 H 0.22246 0.09648 0.73135 0.0
H1492 H 0.15993 0.17053 0.77907 0.0
H1493 H 0.20284 0.15292 0.75197 0.0
H1494 H 0.18891 0.05942 0.96734 0.0
H1495 H 0.2344 0.04645 0.94327 0.0
H1496 H 0.12904 0.0566 0.94289 0.0
H1497 H 0.10017 0.09233 0.91408 0.0
C1498 C 0.41148 0.18442 0.85466 0.0
C1499 C 0.42816 0.15132 0.8314 0.0
C1500 C 0.48184 0.19232 0.79945 0.0
C1501 C 0.46901 0.22358 0.83001 0.0
N1502 N 0.41976 0.25172 0.88248 0.0
N1503 N 0.47758 0.12293 0.77974 0.0
C1504 C 0.43289 0.22043 0.85585 0.0
C1505 C 0.46238 0.15532 0.80221 0.0
N1506 N 0.37528 0.18095 0.87591 0.0
N1507 N 0.51309 0.19762 0.76865 0.0
H1508 H 0.46291 0.09604 0.77916 0.0
H1509 H 0.50516 0.12205 0.76339 0.0
H1510 H 0.52967 0.22326 0.76749 0.0
H1511 H 0.52119 0.17763 0.7417 0.0
H1512 H 0.35974 0.20416 0.891 0.0
H1513 H 0.35928 0.15482 0.87508 0.0
H1514 H 0.39616 0.25061 0.90663 0.0
H1515 H 0.43329 0.27918 0.88114 0.0
C1516 C 0.32502 0.437 0.83971 0.0
C1517 C 0.32984 0.47789 0.83218 0.0
C1518 C 0.40115 0.46935 0.82364 0.0
C1519 C 0.39645 0.42878 0.83288 0.0
N1520 N 0.35431 0.37225 0.83593 0.0
N1521 N 0.37014 0.53102 0.80271 0.0
C1522 C 0.35834 0.41207 0.83598 0.0
C1523 C 0.36725 0.49338 0.81938 0.0
N1524 N 0.28933 0.4223 0.85371 0.0
N1525 N 0.43802 0.48525 0.82164 0.0
H1526 H 0.34571 0.54906 0.79848 0.0
H1527 H 0.39592 0.54308 0.78868 0.0
H1528 H 0.4634 0.46829 0.82286 0.0
H1529 H 0.44351 0.51526 0.82126 0.0
H1530 H 0.28501 0.39357 0.86529 0.0
H1531 H 0.26422 0.43944 0.85696 0.0
H1532 H 0.32732 0.3579 0.83377 0.0
H1533 H 0.3784 0.35355 0.83327 0.0
C1534 C 0.11661 0.32844 0.83969 0.0
C1535 C 0.07924 0.32713 0.81667 0.0
C1536 C 0.08519 0.39641 0.7943 0.0
C1537 C 0.12087 0.39852 0.82107 0.0
N1538 N 0.17599 0.36588 0.85737 0.0
N1539 N 0.03347 0.35544 0.75972 0.0
C1540 C 0.13851 0.36407 0.8395 0.0
C1541 C 0.06548 0.3597 0.78954 0.0
N1542 N 0.13029 0.29593 0.86322 0.0
N1543 N 0.06921 0.42997 0.77592 0.0
H1544 H 1.01871 0.32879 0.75569 0.0
H1545 H 1.02357 0.37706 0.73593 0.0
H1546 H 0.08396 0.45681 0.77705 0.0
H1547 H 0.04105 0.43162 0.76125 0.0
H1548 H 0.155 0.2957 0.88568 0.0
H1549 H 0.11601 0.26891 0.86109 0.0
H1550 H 0.19202 0.34157 0.86839 0.0
H1551 H 0.19237 0.39179 0.85737 0.0
loop_
_geom_bond_atom_site_label_1
_geom_bond_atom_site_label_2
_geom_bond_distance
_geom_bond_site_symmetry_2
_ccdc_geom_bond_type
Zn0 N4 2.020 . S
Zn0 O8 2.019 . S
Zn0 N10 2.119 . S
Zn0 O18 1.975 . S
C1 N2 1.334 . S
C1 N5 1.336 . S
N2 C1 1.334 . S
N2 C3 1.334 . S
C3 N2 1.334 . S
C3 N4 1.336 . S
N4 Zn0 2.020 . S
N4 C3 1.336 . S
N4 N5 1.354 . S
N5 C1 1.336 . S
N5 N4 1.354 . S
N5 Zn9 2.020 . S
C6 O7 1.244 . S
C6 O30 1.257 . S
O7 C6 1.244 . S
O8 Zn0 2.019 . S
O8 C28 1.257 . S
Zn9 N5 2.020 . S
Zn9 O16 1.975 . S
Zn9 N25 2.119 . S
Zn9 O30 2.019 . S
N10 Zn0 2.119 . S
N10 C12 1.334 . S
N10 C13 1.328 . S
C11 C12 1.391 . S
C11 N14 1.329 . S
C11 H32 0.930 . S
C12 N10 1.334 . S
C12 C11 1.391 . S
C12 H19 0.930 . S
C13 N10 1.328 . S
C13 C15 1.392 . S
C13 H20 0.930 . S
N14 C11 1.329 . S
N14 C15 1.331 . S
C15 C13 1.392 . S
C15 N14 1.331 . S
O16 Zn9 1.975 . S
O16 C17 1.252 . S
C17 O16 1.252 . S
C17 O18 1.252 . S
O18 Zn0 1.975 . S
O18 C17 1.252 . S
H19 C12 0.930 . S
H20 C13 0.930 . S
C21 C22 1.392 . S
C21 N25 1.328 . S
C21 H27 0.930 . S
C22 C21 1.392 . S
C22 N26 1.331 . S
C23 C24 1.391 . S
C23 N26 1.329 . S
C23 H33 0.930 . S
C24 C23 1.391 . S
C24 N25 1.334 . S
C24 H31 0.930 . S
N25 Zn9 2.119 . S
N25 C21 1.328 . S
N25 C24 1.334 . S
N26 C22 1.331 . S
N26 C23 1.329 . S
H27 C21 0.930 . S
C28 O8 1.257 . S
C28 O29 1.244 . S
O29 C28 1.244 . S
O30 C6 1.257 . S
O30 Zn9 2.019 . S
H31 C24 0.930 . S
H32 C11 0.930 . S
H33 C23 0.930 . S
Zn34 N38 2.020 . S
Zn34 O42 2.019 . S
Zn34 N44 2.119 . S
Zn34 O52 1.975 . S
C35 N36 1.334 . S
C35 N39 1.336 . S
N36 C35 1.334 . S
N36 C37 1.334 . S
C37 N36 1.334 . S
C37 N38 1.336 . S
N38 Zn34 2.020 . S
N38 C37 1.336 . S
N38 N39 1.354 . S
N39 C35 1.336 . S
N39 N38 1.354 . S
N39 Zn43 2.020 . S
C40 O41 1.244 . S
C40 O64 1.257 . S
O41 C40 1.244 . S
O42 Zn34 2.019 . S
O42 C62 1.257 . S
Zn43 N39 2.020 . S
Zn43 O50 1.975 . S
Zn43 N59 2.119 . S
Zn43 O64 2.019 . S
N44 Zn34 2.119 . S
N44 C46 1.334 . S
N44 C47 1.328 . S
C45 C46 1.391 . S
C45 N48 1.329 . S
C45 H66 0.930 . S
C46 N44 1.334 . S
C46 C45 1.391 . S
C46 H53 0.930 . S
C47 N44 1.328 . S
C47 C49 1.392 . S
C47 H54 0.930 . S
N48 C45 1.329 . S
N48 C49 1.331 . S
C49 C47 1.392 . S
C49 N48 1.331 . S
O50 Zn43 1.975 . S
O50 C51 1.252 . S
C51 O50 1.252 . S
C51 O52 1.252 . S
O52 Zn34 1.975 . S
O52 C51 1.252 . S
H53 C46 0.930 . S
H54 C47 0.930 . S
C55 C56 1.392 . S
C55 N59 1.328 . S
C55 H61 0.930 . S
C56 C55 1.392 . S
C56 N60 1.331 . S
C57 C58 1.391 . S
C57 N60 1.329 . S
C57 H67 0.930 . S
C58 C57 1.391 . S
C58 N59 1.334 . S
C58 H65 0.930 . S
N59 Zn43 2.119 . S
N59 C55 1.328 . S
N59 C58 1.334 . S
N60 C56 1.331 . S
N60 C57 1.329 . S
H61 C55 0.930 . S
C62 O42 1.257 . S
C62 O63 1.244 . S
O63 C62 1.244 . S
O64 C40 1.257 . S
O64 Zn43 2.019 . S
H65 C58 0.930 . S
H66 C45 0.930 . S
H67 C57 0.930 . S
Zn68 N72 2.020 . S
Zn68 O76 2.019 . S
Zn68 N78 2.119 . S
Zn68 O86 1.975 1_655 S
C69 N70 1.334 . S
C69 N73 1.336 . S
N70 C69 1.334 . S
N70 C71 1.334 . S
C71 N70 1.334 . S
C71 N72 1.336 . S
N72 Zn68 2.020 . S
N72 C71 1.336 . S
N72 N73 1.354 . S
N73 C69 1.336 . S
N73 N72 1.354 . S
N73 Zn77 2.028 . S
C74 O75 1.244 . S
C74 O98 1.257 1_655 S
O75 C74 1.244 . S
O76 Zn68 2.019 . S
O76 C96 1.257 . S
Zn77 N73 2.028 . S
Zn77 O84 1.972 1_655 S
Zn77 N93 2.110 1_655 S
Zn77 O98 2.015 1_655 S
N78 Zn68 2.119 . S
N78 C80 1.334 . S
N78 C81 1.328 . S
C79 C80 1.391 . S
C79 N82 1.329 . S
C79 H100 0.930 . S
C80 N78 1.334 . S
C80 C79 1.391 . S
C80 H87 0.930 . S
C81 N78 1.328 . S
C81 C83 1.392 . S
C81 H88 0.930 . S
N82 C79 1.329 . S
N82 C83 1.331 . S
C83 C81 1.392 . S
C83 N82 1.331 . S
O84 Zn77 1.972 1_455 S
O84 C85 1.252 . S
C85 O84 1.252 . S
C85 O86 1.252 . S
O86 Zn68 1.975 1_455 S
O86 C85 1.252 . S
H87 C80 0.930 . S
H88 C81 0.930 . S
C89 C90 1.392 . S
C89 N93 1.328 . S
C89 H95 0.930 . S
C90 C89 1.392 . S
C90 N94 1.331 . S
C91 C92 1.391 . S
C91 N94 1.329 . S
C91 H101 0.930 . S
C92 C91 1.391 . S
C92 N93 1.334 . S
C92 H99 0.930 . S
N93 Zn77 2.110 1_455 S
N93 C89 1.328 . S
N93 C92 1.334 . S
N94 C90 1.331 . S
N94 C91 1.329 . S
H95 C89 0.930 . S
C96 O76 1.257 . S
C96 O97 1.244 . S
O97 C96 1.244 . S
O98 C74 1.257 1_455 S
O98 Zn77 2.015 1_455 S
H99 C92 0.930 . S
H100 C79 0.930 . S
H101 C91 0.930 . S
Zn102 N106 2.020 . S
Zn102 O110 2.019 . S
Zn102 N112 2.119 . S
Zn102 O120 1.975 1_565 S
C103 N104 1.334 . S
C103 N107 1.336 . S
N104 C103 1.334 . S
N104 C105 1.334 . S
C105 N104 1.334 . S
C105 N106 1.336 . S
N106 Zn102 2.020 . S
N106 C105 1.336 . S
N106 N107 1.354 . S
N107 C103 1.336 . S
N107 N106 1.354 . S
N107 Zn111 2.028 . S
C108 O109 1.244 . S
C108 O132 1.257 1_565 S
O109 C108 1.244 . S
O110 Zn102 2.019 . S
O110 C130 1.257 . S
Zn111 N107 2.028 . S
Zn111 O118 1.972 1_565 S
Zn111 N127 2.110 1_565 S
Zn111 O132 2.015 1_565 S
N112 Zn102 2.119 . S
N112 C114 1.334 . S
N112 C115 1.328 . S
C113 C114 1.391 . S
C113 N116 1.329 . S
C113 H134 0.930 . S
C114 N112 1.334 . S
C114 C113 1.391 . S
C114 H121 0.930 . S
C115 N112 1.328 . S
C115 C117 1.392 . S
C115 H122 0.930 . S
N116 C113 1.329 . S
N116 C117 1.331 . S
C117 C115 1.392 . S
C117 N116 1.331 . S
O118 Zn111 1.972 1_545 S
O118 C119 1.252 . S
C119 O118 1.252 . S
C119 O120 1.252 . S
O120 Zn102 1.975 1_545 S
O120 C119 1.252 . S
H121 C114 0.930 . S
H122 C115 0.930 . S
C123 C124 1.392 . S
C123 N127 1.328 . S
C123 H129 0.930 . S
C124 C123 1.392 . S
C124 N128 1.331 . S
C125 C126 1.391 . S
C125 N128 1.329 . S
C125 H135 0.930 . S
C126 C125 1.391 . S
C126 N127 1.334 . S
C126 H133 0.930 . S
N127 Zn111 2.110 1_545 S
N127 C123 1.328 . S
N127 C126 1.334 . S
N128 C124 1.331 . S
N128 C125 1.329 . S
H129 C123 0.930 . S
C130 O110 1.257 . S
C130 O131 1.244 . S
O131 C130 1.244 . S
O132 C108 1.257 1_545 S
O132 Zn111 2.015 1_545 S
H133 C126 0.930 . S
H134 C113 0.930 . S
H135 C125 0.930 . S
Zn136 N140 2.028 . S
Zn136 O144 2.015 1_455 S
Zn136 N146 2.110 1_455 S
Zn136 O154 1.972 1_455 S
C137 N138 1.334 . S
C137 N141 1.336 . S
N138 C137 1.334 . S
N138 C139 1.334 . S
C139 N138 1.334 . S
C139 N140 1.336 . S
N140 Zn136 2.028 . S
N140 C139 1.336 . S
N140 N141 1.354 . S
N141 C137 1.336 . S
N141 N140 1.354 . S
N141 Zn145 2.020 . S
C142 O143 1.244 1_556 S
C142 O166 1.257 . S
O143 C142 1.244 1_554 S
O144 Zn136 2.015 1_655 S
O144 C164 1.257 1_655 S
Zn145 N141 2.020 . S
Zn145 O152 1.975 1_455 S
Zn145 N161 2.119 . S
Zn145 O166 2.019 1_554 S
N146 Zn136 2.110 1_655 S
N146 C148 1.334 . S
N146 C149 1.328 . S
C147 C148 1.391 . S
C147 N150 1.329 . S
C147 H168 0.930 . S
C148 N146 1.334 . S
C148 C147 1.391 . S
C148 H155 0.930 . S
C149 N146 1.328 . S
C149 C151 1.392 . S
C149 H156 0.930 . S
N150 C147 1.329 . S
N150 C151 1.331 . S
C151 C149 1.392 . S
C151 N150 1.331 . S
O152 Zn145 1.975 1_655 S
O152 C153 1.252 . S
C153 O152 1.252 . S
C153 O154 1.252 . S
O154 Zn136 1.972 1_655 S
O154 C153 1.252 . S
H155 C148 0.930 . S
H156 C149 0.930 . S
C157 C158 1.392 . S
C157 N161 1.328 . S
C157 H163 0.930 . S
C158 C157 1.392 . S
C158 N162 1.331 . S
C159 C160 1.391 . S
C159 N162 1.329 . S
C159 H169 0.930 . S
C160 C159 1.391 . S
C160 N161 1.334 . S
C160 H167 0.930 . S
N161 Zn145 2.119 . S
N161 C157 1.328 . S
N161 C160 1.334 . S
N162 C158 1.331 . S
N162 C159 1.329 . S
H163 C157 0.930 . S
C164 O144 1.257 1_455 S
C164 O165 1.244 . S
O165 C164 1.244 . S
O166 C142 1.257 . S
O166 Zn145 2.019 1_556 S
H167 C160 0.930 . S
H168 C147 0.930 . S
H169 C159 0.930 . S
Zn170 N174 2.028 . S
Zn170 O178 2.015 1_545 S
Zn170 N180 2.110 1_545 S
Zn170 O188 1.972 1_545 S
C171 N172 1.334 . S
C171 N175 1.336 . S
N172 C171 1.334 . S
N172 C173 1.334 . S
C173 N172 1.334 . S
C173 N174 1.336 . S
N174 Zn170 2.028 . S
N174 C173 1.336 . S
N174 N175 1.354 . S
N175 C171 1.336 . S
N175 N174 1.354 . S
N175 Zn179 2.020 . S
C176 O177 1.244 1_556 S
C176 O200 1.257 . S
O177 C176 1.244 1_554 S
O178 Zn170 2.015 1_565 S
O178 C198 1.257 1_565 S
Zn179 N175 2.020 . S
Zn179 O186 1.975 1_545 S
Zn179 N195 2.119 . S
Zn179 O200 2.019 1_554 S
N180 Zn170 2.110 1_565 S
N180 C182 1.334 . S
N180 C183 1.328 . S
C181 C182 1.391 . S
C181 N184 1.329 . S
C181 H202 0.930 . S
C182 N180 1.334 . S
C182 C181 1.391 . S
C182 H189 0.930 . S
C183 N180 1.328 . S
C183 C185 1.392 . S
C183 H190 0.930 . S
N184 C181 1.329 . S
N184 C185 1.331 . S
C185 C183 1.392 . S
C185 N184 1.331 . S
O186 Zn179 1.975 1_565 S
O186 C187 1.252 . S
C187 O186 1.252 . S
C187 O188 1.252 . S
O188 Zn170 1.972 1_565 S
O188 C187 1.252 . S
H189 C182 0.930 . S
H190 C183 0.930 . S
C191 C192 1.392 . S
C191 N195 1.328 . S
C191 H197 0.930 . S
C192 C191 1.392 . S
C192 N196 1.331 . S
C193 C194 1.391 . S
C193 N196 1.329 . S
C193 H203 0.930 . S
C194 C193 1.391 . S
C194 N195 1.334 . S
C194 H201 0.930 . S
N195 Zn179 2.119 . S
N195 C191 1.328 . S
N195 C194 1.334 . S
N196 C192 1.331 . S
N196 C193 1.329 . S
H197 C191 0.930 . S
C198 O178 1.257 1_545 S
C198 O199 1.244 . S
O199 C198 1.244 . S
O200 C176 1.257 . S
O200 Zn179 2.019 1_556 S
H201 C194 0.930 . S
H202 C181 0.930 . S
H203 C193 0.930 . S
Zn204 N208 2.020 . S
Zn204 O212 2.019 . S
Zn204 N214 2.119 . S
Zn204 O222 1.975 . S
C205 N206 1.334 . S
C205 N209 1.336 . S
N206 C205 1.334 . S
N206 C207 1.334 . S
C207 N206 1.334 . S
C207 N208 1.336 . S
N208 Zn204 2.020 . S
N208 C207 1.336 . S
N208 N209 1.354 . S
N209 C205 1.336 . S
N209 N208 1.354 . S
N209 Zn213 2.020 . S
C210 O211 1.244 1_556 S
C210 O234 1.257 . S
O211 C210 1.244 1_554 S
O212 Zn204 2.019 . S
O212 C232 1.257 . S
Zn213 N209 2.020 . S
Zn213 O220 1.975 . S
Zn213 N229 2.119 . S
Zn213 O234 2.019 1_554 S
N214 Zn204 2.119 . S
N214 C216 1.334 . S
N214 C217 1.328 . S
C215 C216 1.391 . S
C215 N218 1.329 . S
C215 H236 0.930 . S
C216 N214 1.334 . S
C216 C215 1.391 . S
C216 H223 0.930 . S
C217 N214 1.328 . S
C217 C219 1.392 . S
C217 H224 0.930 . S
N218 C215 1.329 . S
N218 C219 1.331 . S
C219 C217 1.392 . S
C219 N218 1.331 . S
O220 Zn213 1.975 . S
O220 C221 1.252 . S
C221 O220 1.252 . S
C221 O222 1.252 . S
O222 Zn204 1.975 . S
O222 C221 1.252 . S
H223 C216 0.930 . S
H224 C217 0.930 . S
C225 C226 1.392 . S
C225 N229 1.328 . S
C225 H231 0.930 . S
C226 C225 1.392 . S
C226 N230 1.331 . S
C227 C228 1.391 . S
C227 N230 1.329 . S
C227 H237 0.930 . S
C228 C227 1.391 . S
C228 N229 1.334 . S
C228 H235 0.930 . S
N229 Zn213 2.119 . S
N229 C225 1.328 . S
N229 C228 1.334 . S
N230 C226 1.331 . S
N230 C227 1.329 . S
H231 C225 0.930 . S
C232 O212 1.257 . S
C232 O233 1.244 . S
O233 C232 1.244 . S
O234 C210 1.257 . S
O234 Zn213 2.019 1_556 S
H235 C228 0.930 . S
H236 C215 0.930 . S
H237 C227 0.930 . S
Zn238 N242 2.020 . S
Zn238 O246 2.019 . S
Zn238 N248 2.119 . S
Zn238 O256 1.975 . S
C239 N240 1.334 . S
C239 N243 1.336 . S
N240 C239 1.334 . S
N240 C241 1.334 . S
C241 N240 1.334 . S
C241 N242 1.336 . S
N242 Zn238 2.020 . S
N242 C241 1.336 . S
N242 N243 1.354 . S
N243 C239 1.336 . S
N243 N242 1.354 . S
N243 Zn247 2.020 . S
C244 O245 1.244 1_556 S
C244 O268 1.257 . S
O245 C244 1.244 1_554 S
O246 Zn238 2.019 . S
O246 C266 1.257 . S
Zn247 N243 2.020 . S
Zn247 O254 1.975 . S
Zn247 N263 2.119 . S
Zn247 O268 2.019 1_554 S
N248 Zn238 2.119 . S
N248 C250 1.334 . S
N248 C251 1.328 . S
C249 C250 1.391 . S
C249 N252 1.329 . S
C249 H270 0.930 . S
C250 N248 1.334 . S
C250 C249 1.391 . S
C250 H257 0.930 . S
C251 N248 1.328 . S
C251 C253 1.392 . S
C251 H258 0.930 . S
N252 C249 1.329 . S
N252 C253 1.331 . S
C253 C251 1.392 . S
C253 N252 1.331 . S
O254 Zn247 1.975 . S
O254 C255 1.252 . S
C255 O254 1.252 . S
C255 O256 1.252 . S
O256 Zn238 1.975 . S
O256 C255 1.252 . S
H257 C250 0.930 . S
H258 C251 0.930 . S
C259 C260 1.392 . S
C259 N263 1.328 . S
C259 H265 0.930 . S
C260 C259 1.392 . S
C260 N264 1.331 . S
C261 C262 1.391 . S
C261 N264 1.329 . S
C261 H271 0.930 . S
C262 C261 1.391 . S
C262 N263 1.334 . S
C262 H269 0.930 . S
N263 Zn247 2.119 . S
N263 C259 1.328 . S
N263 C262 1.334 . S
N264 C260 1.331 . S
N264 C261 1.329 . S
H265 C259 0.930 . S
C266 O246 1.257 . S
C266 O267 1.244 . S
O267 C266 1.244 . S
O268 C244 1.257 . S
O268 Zn247 2.019 1_556 S
H269 C262 0.930 . S
H270 C249 0.930 . S
H271 C261 0.930 . S
Zn272 N276 2.020 . S
Zn272 O280 2.019 . S
Zn272 N282 2.119 . S
Zn272 O290 1.975 . S
C273 N274 1.334 . S
C273 N277 1.336 . S
N274 C273 1.334 . S
N274 C275 1.334 . S
C275 N274 1.334 . S
C275 N276 1.336 . S
N276 Zn272 2.020 . S
N276 C275 1.336 . S
N276 N277 1.354 . S
N277 C273 1.336 . S
N277 N276 1.354 . S
N277 Zn281 2.020 . S
C278 O279 1.244 . S
C278 O302 1.257 . S
O279 C278 1.244 . S
O280 Zn272 2.019 . S
O280 C300 1.257 . S
Zn281 N277 2.020 . S
Zn281 O288 1.975 . S
Zn281 N297 2.119 . S
Zn281 O302 2.019 . S
N282 Zn272 2.119 . S
N282 C284 1.334 . S
N282 C285 1.328 . S
C283 C284 1.391 . S
C283 N286 1.329 . S
C283 H304 0.930 . S
C284 N282 1.334 . S
C284 C283 1.391 . S
C284 H291 0.930 . S
C285 N282 1.328 . S
C285 C287 1.392 . S
C285 H292 0.930 . S
N286 C283 1.329 . S
N286 C287 1.331 . S
C287 C285 1.392 . S
C287 N286 1.331 . S
O288 Zn281 1.975 . S
O288 C289 1.252 . S
C289 O288 1.252 . S
C289 O290 1.252 . S
O290 Zn272 1.975 . S
O290 C289 1.252 . S
H291 C284 0.930 . S
H292 C285 0.930 . S
C293 C294 1.392 . S
C293 N297 1.328 . S
C293 H299 0.930 . S
C294 C293 1.392 . S
C294 N298 1.331 . S
C295 C296 1.391 . S
C295 N298 1.329 . S
C295 H305 0.930 . S
C296 C295 1.391 . S
C296 N297 1.334 . S
C296 H303 0.930 . S
N297 Zn281 2.119 . S
N297 C293 1.328 . S
N297 C296 1.334 . S
N298 C294 1.331 . S
N298 C295 1.329 . S
H299 C293 0.930 . S
C300 O280 1.257 . S
C300 O301 1.244 . S
O301 C300 1.244 . S
O302 C278 1.257 . S
O302 Zn281 2.019 . S
H303 C296 0.930 . S
H304 C283 0.930 . S
H305 C295 0.930 . S
Zn306 N310 2.020 . S
Zn306 O314 2.019 . S
Zn306 N316 2.119 . S
Zn306 O324 1.975 . S
C307 N308 1.334 . S
C307 N311 1.336 . S
N308 C307 1.334 . S
N308 C309 1.334 . S
C309 N308 1.334 . S
C309 N310 1.336 . S
N310 Zn306 2.020 . S
N310 C309 1.336 . S
N310 N311 1.354 . S
N311 C307 1.336 . S
N311 N310 1.354 . S
N311 Zn315 2.020 . S
C312 O313 1.244 . S
C312 O336 1.257 . S
O313 C312 1.244 . S
O314 Zn306 2.019 . S
O314 C334 1.257 . S
Zn315 N311 2.020 . S
Zn315 O322 1.975 . S
Zn315 N331 2.119 . S
Zn315 O336 2.019 . S
N316 Zn306 2.119 . S
N316 C318 1.334 . S
N316 C319 1.328 . S
C317 C318 1.391 . S
C317 N320 1.329 . S
C317 H338 0.930 . S
C318 N316 1.334 . S
C318 C317 1.391 . S
C318 H325 0.930 . S
C319 N316 1.328 . S
C319 C321 1.392 . S
C319 H326 0.930 . S
N320 C317 1.329 . S
N320 C321 1.331 . S
C321 C319 1.392 . S
C321 N320 1.331 . S
O322 Zn315 1.975 . S
O322 C323 1.252 . S
C323 O322 1.252 . S
C323 O324 1.252 . S
O324 Zn306 1.975 . S
O324 C323 1.252 . S
H325 C318 0.930 . S
H326 C319 0.930 . S
C327 C328 1.392 . S
C327 N331 1.328 . S
C327 H333 0.930 . S
C328 C327 1.392 . S
C328 N332 1.331 . S
C329 C330 1.391 . S
C329 N332 1.329 . S
C329 H339 0.930 . S
C330 C329 1.391 . S
C330 N331 1.334 . S
C330 H337 0.930 . S
N331 Zn315 2.119 . S
N331 C327 1.328 . S
N331 C330 1.334 . S
N332 C328 1.331 . S
N332 C329 1.329 . S
H333 C327 0.930 . S
C334 O314 1.257 . S
C334 O335 1.244 . S
O335 C334 1.244 . S
O336 C312 1.257 . S
O336 Zn315 2.019 . S
H337 C330 0.930 . S
H338 C317 0.930 . S
H339 C329 0.930 . S
Zn340 N344 2.020 . S
Zn340 O348 2.019 . S
Zn340 N350 2.119 . S
Zn340 O358 1.975 1_455 S
C341 N342 1.334 . S
C341 N345 1.336 . S
N342 C341 1.334 . S
N342 C343 1.334 . S
C343 N342 1.334 . S
C343 N344 1.336 . S
N344 Zn340 2.020 . S
N344 C343 1.336 . S
N344 N345 1.354 . S
N345 C341 1.336 . S
N345 N344 1.354 . S
N345 Zn349 2.028 . S
C346 O347 1.244 . S
C346 O370 1.257 1_455 S
O347 C346 1.244 . S
O348 Zn340 2.019 . S
O348 C368 1.257 . S
Zn349 N345 2.028 . S
Zn349 O356 1.972 1_455 S
Zn349 N365 2.110 1_455 S
Zn349 O370 2.015 1_455 S
N350 Zn340 2.119 . S
N350 C352 1.334 . S
N350 C353 1.328 . S
C351 C352 1.391 . S
C351 N354 1.329 . S
C351 H372 0.930 . S
C352 N350 1.334 . S
C352 C351 1.391 . S
C352 H359 0.930 . S
C353 N350 1.328 . S
C353 C355 1.392 . S
C353 H360 0.930 . S
N354 C351 1.329 . S
N354 C355 1.331 . S
C355 C353 1.392 . S
C355 N354 1.331 . S
O356 Zn349 1.972 1_655 S
O356 C357 1.252 . S
C357 O356 1.252 . S
C357 O358 1.252 . S
O358 Zn340 1.975 1_655 S
O358 C357 1.252 . S
H359 C352 0.930 . S
H360 C353 0.930 . S
C361 C362 1.392 . S
C361 N365 1.328 . S
C361 H367 0.930 . S
C362 C361 1.392 . S
C362 N366 1.331 . S
C363 C364 1.391 . S
C363 N366 1.329 . S
C363 H373 0.930 . S
C364 C363 1.391 . S
C364 N365 1.334 . S
C364 H371 0.930 . S
N365 Zn349 2.110 1_655 S
N365 C361 1.328 . S
N365 C364 1.334 . S
N366 C362 1.331 . S
N366 C363 1.329 . S
H367 C361 0.930 . S
C368 O348 1.257 . S
C368 O369 1.244 . S
O369 C368 1.244 . S
O370 C346 1.257 1_655 S
O370 Zn349 2.015 1_655 S
H371 C364 0.930 . S
H372 C351 0.930 . S
H373 C363 0.930 . S
Zn374 N378 2.028 . S
Zn374 O382 2.015 1_545 S
Zn374 N384 2.110 1_545 S
Zn374 O392 1.972 1_545 S
C375 N376 1.334 . S
C375 N379 1.336 . S
N376 C375 1.334 . S
N376 C377 1.334 . S
C377 N376 1.334 . S
C377 N378 1.336 . S
N378 Zn374 2.028 . S
N378 C377 1.336 . S
N378 N379 1.354 . S
N379 C375 1.336 . S
N379 N378 1.354 . S
N379 Zn383 2.020 . S
C380 O381 1.244 . S
C380 O404 1.257 . S
O381 C380 1.244 . S
O382 Zn374 2.015 1_565 S
O382 C402 1.257 1_565 S
Zn383 N379 2.020 . S
Zn383 O390 1.975 1_545 S
Zn383 N399 2.119 . S
Zn383 O404 2.019 . S
N384 Zn374 2.110 1_565 S
N384 C386 1.334 . S
N384 C387 1.328 . S
C385 C386 1.391 . S
C385 N388 1.329 . S
C385 H406 0.930 . S
C386 N384 1.334 . S
C386 C385 1.391 . S
C386 H393 0.930 . S
C387 N384 1.328 . S
C387 C389 1.392 . S
C387 H394 0.930 . S
N388 C385 1.329 . S
N388 C389 1.331 . S
C389 C387 1.392 . S
C389 N388 1.331 . S
O390 Zn383 1.975 1_565 S
O390 C391 1.252 . S
C391 O390 1.252 . S
C391 O392 1.252 . S
O392 Zn374 1.972 1_565 S
O392 C391 1.252 . S
H393 C386 0.930 . S
H394 C387 0.930 . S
C395 C396 1.392 . S
C395 N399 1.328 . S
C395 H401 0.930 . S
C396 C395 1.392 . S
C396 N400 1.331 . S
C397 C398 1.391 . S
C397 N400 1.329 . S
C397 H407 0.930 . S
C398 C397 1.391 . S
C398 N399 1.334 . S
C398 H405 0.930 . S
N399 Zn383 2.119 . S
N399 C395 1.328 . S
N399 C398 1.334 . S
N400 C396 1.331 . S
N400 C397 1.329 . S
H401 C395 0.930 . S
C402 O382 1.257 1_545 S
C402 O403 1.244 . S
O403 C402 1.244 . S
O404 C380 1.257 . S
O404 Zn383 2.019 . S
H405 C398 0.930 . S
H406 C385 0.930 . S
H407 C397 0.930 . S
Zn408 N412 2.028 . S
Zn408 O416 2.015 1_655 S
Zn408 N418 2.110 1_655 S
Zn408 O426 1.972 1_655 S
C409 N410 1.334 . S
C409 N413 1.336 . S
N410 C409 1.334 . S
N410 C411 1.334 . S
C411 N410 1.334 . S
C411 N412 1.336 . S
N412 Zn408 2.028 . S
N412 C411 1.336 . S
N412 N413 1.354 . S
N413 C409 1.336 . S
N413 N412 1.354 . S
N413 Zn417 2.020 . S
C414 O415 1.244 1_554 S
C414 O438 1.257 . S
O415 C414 1.244 1_556 S
O416 Zn408 2.015 1_455 S
O416 C436 1.257 1_455 S
Zn417 N413 2.020 . S
Zn417 O424 1.975 1_655 S
Zn417 N433 2.119 . S
Zn417 O438 2.019 1_556 S
N418 Zn408 2.110 1_455 S
N418 C420 1.334 . S
N418 C421 1.328 . S
C419 C420 1.391 . S
C419 N422 1.329 . S
C419 H440 0.930 . S
C420 N418 1.334 . S
C420 C419 1.391 . S
C420 H427 0.930 . S
C421 N418 1.328 . S
C421 C423 1.392 . S
C421 H428 0.930 . S
N422 C419 1.329 . S
N422 C423 1.331 . S
C423 C421 1.392 . S
C423 N422 1.331 . S
O424 Zn417 1.975 1_455 S
O424 C425 1.252 . S
C425 O424 1.252 . S
C425 O426 1.252 . S
O426 Zn408 1.972 1_455 S
O426 C425 1.252 . S
H427 C420 0.930 . S
H428 C421 0.930 . S
C429 C430 1.392 . S
C429 N433 1.328 . S
C429 H435 0.930 . S
C430 C429 1.392 . S
C430 N434 1.331 . S
C431 C432 1.391 . S
C431 N434 1.329 . S
C431 H441 0.930 . S
C432 C431 1.391 . S
C432 N433 1.334 . S
C432 H439 0.930 . S
N433 Zn417 2.119 . S
N433 C429 1.328 . S
N433 C432 1.334 . S
N434 C430 1.331 . S
N434 C431 1.329 . S
H435 C429 0.930 . S
C436 O416 1.257 1_655 S
C436 O437 1.244 . S
O437 C436 1.244 . S
O438 C414 1.257 . S
O438 Zn417 2.019 1_554 S
H439 C432 0.930 . S
H440 C419 0.930 . S
H441 C431 0.930 . S
Zn442 N446 2.028 . S
Zn442 O450 2.015 1_565 S
Zn442 N452 2.110 1_565 S
Zn442 O460 1.972 1_565 S
C443 N444 1.334 . S
C443 N447 1.336 . S
N444 C443 1.334 . S
N444 C445 1.334 . S
C445 N444 1.334 . S
C445 N446 1.336 . S
N446 Zn442 2.028 . S
N446 C445 1.336 . S
N446 N447 1.354 . S
N447 C443 1.336 . S
N447 N446 1.354 . S
N447 Zn451 2.020 . S
C448 O449 1.244 1_554 S
C448 O472 1.257 . S
O449 C448 1.244 1_556 S
O450 Zn442 2.015 1_545 S
O450 C470 1.257 1_545 S
Zn451 N447 2.020 . S
Zn451 O458 1.975 1_565 S
Zn451 N467 2.119 . S
Zn451 O472 2.019 1_556 S
N452 Zn442 2.110 1_545 S
N452 C454 1.334 . S
N452 C455 1.328 . S
C453 C454 1.391 . S
C453 N456 1.329 . S
C453 H474 0.930 . S
C454 N452 1.334 . S
C454 C453 1.391 . S
C454 H461 0.930 . S
C455 N452 1.328 . S
C455 C457 1.392 . S
C455 H462 0.930 . S
N456 C453 1.329 . S
N456 C457 1.331 . S
C457 C455 1.392 . S
C457 N456 1.331 . S
O458 Zn451 1.975 1_545 S
O458 C459 1.252 . S
C459 O458 1.252 . S
C459 O460 1.252 . S
O460 Zn442 1.972 1_545 S
O460 C459 1.252 . S
H461 C454 0.930 . S
H462 C455 0.930 . S
C463 C464 1.392 . S
C463 N467 1.328 . S
C463 H469 0.930 . S
C464 C463 1.392 . S
C464 N468 1.331 . S
C465 C466 1.391 . S
C465 N468 1.329 . S
C465 H475 0.930 . S
C466 C465 1.391 . S
C466 N467 1.334 . S
C466 H473 0.930 . S
N467 Zn451 2.119 . S
N467 C463 1.328 . S
N467 C466 1.334 . S
N468 C464 1.331 . S
N468 C465 1.329 . S
H469 C463 0.930 . S
C470 O450 1.257 1_565 S
C470 O471 1.244 . S
O471 C470 1.244 . S
O472 C448 1.257 . S
O472 Zn451 2.019 1_554 S
H473 C466 0.930 . S
H474 C453 0.930 . S
H475 C465 0.930 . S
Zn476 N480 2.020 . S
Zn476 O484 2.019 1_556 S
Zn476 N486 2.119 . S
Zn476 O494 1.975 . S
C477 N478 1.334 . S
C477 N481 1.336 . S
N478 C477 1.334 . S
N478 C479 1.334 . S
C479 N478 1.334 . S
C479 N480 1.336 . S
N480 Zn476 2.020 . S
N480 C479 1.336 . S
N480 N481 1.354 . S
N481 C477 1.336 . S
N481 N480 1.354 . S
N481 Zn485 2.020 . S
C482 O483 1.244 . S
C482 O506 1.257 . S
O483 C482 1.244 . S
O484 Zn476 2.019 1_554 S
O484 C504 1.257 . S
Zn485 N481 2.020 . S
Zn485 O492 1.975 . S
Zn485 N501 2.119 . S
Zn485 O506 2.019 . S
N486 Zn476 2.119 . S
N486 C488 1.334 . S
N486 C489 1.328 . S
C487 C488 1.391 . S
C487 N490 1.329 . S
C487 H508 0.930 . S
C488 N486 1.334 . S
C488 C487 1.391 . S
C488 H495 0.930 . S
C489 N486 1.328 . S
C489 C491 1.392 . S
C489 H496 0.930 . S
N490 C487 1.329 . S
N490 C491 1.331 . S
C491 C489 1.392 . S
C491 N490 1.331 . S
O492 Zn485 1.975 . S
O492 C493 1.252 . S
C493 O492 1.252 . S
C493 O494 1.252 . S
O494 Zn476 1.975 . S
O494 C493 1.252 . S
H495 C488 0.930 . S
H496 C489 0.930 . S
C497 C498 1.392 . S
C497 N501 1.328 . S
C497 H503 0.930 . S
C498 C497 1.392 . S
C498 N502 1.331 . S
C499 C500 1.391 . S
C499 N502 1.329 . S
C499 H509 0.930 . S
C500 C499 1.391 . S
C500 N501 1.334 . S
C500 H507 0.930 . S
N501 Zn485 2.119 . S
N501 C497 1.328 . S
N501 C500 1.334 . S
N502 C498 1.331 . S
N502 C499 1.329 . S
H503 C497 0.930 . S
C504 O484 1.257 . S
C504 O505 1.244 1_554 S
O505 C504 1.244 1_556 S
O506 C482 1.257 . S
O506 Zn485 2.019 . S
H507 C500 0.930 . S
H508 C487 0.930 . S
H509 C499 0.930 . S
Zn510 N514 2.020 . S
Zn510 O518 2.019 . S
Zn510 N520 2.119 . S
Zn510 O528 1.975 . S
C511 N512 1.334 . S
C511 N515 1.336 . S
N512 C511 1.334 . S
N512 C513 1.334 . S
C513 N512 1.334 . S
C513 N514 1.336 . S
N514 Zn510 2.020 . S
N514 C513 1.336 . S
N514 N515 1.354 . S
N515 C511 1.336 . S
N515 N514 1.354 . S
N515 Zn519 2.020 . S
C516 O517 1.244 1_554 S
C516 O540 1.257 . S
O517 C516 1.244 1_556 S
O518 Zn510 2.019 . S
O518 C538 1.257 . S
Zn519 N515 2.020 . S
Zn519 O526 1.975 . S
Zn519 N535 2.119 . S
Zn519 O540 2.019 1_556 S
N520 Zn510 2.119 . S
N520 C522 1.334 . S
N520 C523 1.328 . S
C521 C522 1.391 . S
C521 N524 1.329 . S
C521 H542 0.930 . S
C522 N520 1.334 . S
C522 C521 1.391 . S
C522 H529 0.930 . S
C523 N520 1.328 . S
C523 C525 1.392 . S
C523 H530 0.930 . S
N524 C521 1.329 . S
N524 C525 1.331 . S
C525 C523 1.392 . S
C525 N524 1.331 . S
O526 Zn519 1.975 . S
O526 C527 1.252 . S
C527 O526 1.252 . S
C527 O528 1.252 . S
O528 Zn510 1.975 . S
O528 C527 1.252 . S
H529 C522 0.930 . S
H530 C523 0.930 . S
C531 C532 1.392 . S
C531 N535 1.328 . S
C531 H537 0.930 . S
C532 C531 1.392 . S
C532 N536 1.331 . S
C533 C534 1.391 . S
C533 N536 1.329 . S
C533 H543 0.930 . S
C534 C533 1.391 . S
C534 N535 1.334 . S
C534 H541 0.930 . S
N535 Zn519 2.119 . S
N535 C531 1.328 . S
N535 C534 1.334 . S
N536 C532 1.331 . S
N536 C533 1.329 . S
H537 C531 0.930 . S
C538 O518 1.257 . S
C538 O539 1.244 . S
O539 C538 1.244 . S
O540 C516 1.257 . S
O540 Zn519 2.019 1_554 S
H541 C534 0.930 . S
H542 C521 0.930 . S
H543 C533 0.930 . S
C544 C545 1.363 . S
C544 C550 1.379 . S
C544 N552 1.356 . S
C545 C544 1.363 . S
C545 C551 1.363 . S
C546 C547 1.363 . S
C546 C551 1.379 . S
C546 N553 1.356 . S
C547 C546 1.363 . S
C547 C550 1.363 . S
N548 C550 1.356 . S
N548 H560 0.984 . S
N548 H561 0.985 . S
N549 C551 1.356 . S
N549 H554 0.984 . S
N549 H555 0.985 . S
C550 C544 1.379 . S
C550 C547 1.363 . S
C550 N548 1.356 . S
C551 C545 1.363 . S
C551 C546 1.379 . S
C551 N549 1.356 . S
N552 C544 1.356 . S
N552 H558 0.984 . S
N552 H559 0.984 . S
N553 C546 1.356 . S
N553 H556 0.984 . S
N553 H557 0.985 . S
H554 N549 0.984 . S
H555 N549 0.985 . S
H556 N553 0.984 . S
H557 N553 0.985 . S
H558 N552 0.984 . S
H559 N552 0.984 . S
H560 N548 0.984 . S
H561 N548 0.985 . S
C562 C563 1.363 . S
C562 C568 1.379 . S
C562 N570 1.356 . S
C563 C562 1.363 . S
C563 C569 1.363 . S
C564 C565 1.363 . S
C564 C569 1.379 . S
C564 N571 1.356 . S
C565 C564 1.363 . S
C565 C568 1.363 . S
N566 C568 1.356 . S
N566 H578 0.984 . S
N566 H579 0.985 . S
N567 C569 1.356 . S
N567 H572 0.984 . S
N567 H573 0.985 . S
C568 C562 1.379 . S
C568 C565 1.363 . S
C568 N566 1.356 . S
C569 C563 1.363 . S
C569 C564 1.379 . S
C569 N567 1.356 . S
N570 C562 1.356 . S
N570 H576 0.984 . S
N570 H577 0.984 . S
N571 C564 1.356 . S
N571 H574 0.984 . S
N571 H575 0.985 . S
H572 N567 0.984 . S
H573 N567 0.985 . S
H574 N571 0.984 . S
H575 N571 0.985 . S
H576 N570 0.984 . S
H577 N570 0.984 . S
H578 N566 0.984 . S
H579 N566 0.985 . S
C580 C581 1.363 . S
C580 C586 1.379 . S
C580 N588 1.356 . S
C581 C580 1.363 . S
C581 C587 1.363 . S
C582 C583 1.363 . S
C582 C587 1.379 . S
C582 N589 1.356 . S
C583 C582 1.363 . S
C583 C586 1.363 . S
N584 C586 1.356 . S
N584 H596 0.984 . S
N584 H597 0.985 . S
N585 C587 1.356 . S
N585 H590 0.984 . S
N585 H591 0.985 . S
C586 C580 1.379 . S
C586 C583 1.363 . S
C586 N584 1.356 . S
C587 C581 1.363 . S
C587 C582 1.379 . S
C587 N585 1.356 . S
N588 C580 1.356 . S
N588 H594 0.984 . S
N588 H595 0.984 . S
N589 C582 1.356 . S
N589 H592 0.984 . S
N589 H593 0.985 . S
H590 N585 0.984 . S
H591 N585 0.985 . S
H592 N589 0.984 . S
H593 N589 0.985 . S
H594 N588 0.984 . S
H595 N588 0.984 . S
H596 N584 0.984 . S
H597 N584 0.985 . S
C598 C599 1.363 . S
C598 C604 1.379 . S
C598 N606 1.356 . S
C599 C598 1.363 . S
C599 C605 1.363 . S
C600 C601 1.363 . S
C600 C605 1.379 . S
C600 N607 1.356 . S
C601 C600 1.363 . S
C601 C604 1.363 . S
N602 C604 1.356 . S
N602 H614 0.984 . S
N602 H615 0.985 . S
N603 C605 1.356 . S
N603 H608 0.984 . S
N603 H609 0.985 . S
C604 C598 1.379 . S
C604 C601 1.363 . S
C604 N602 1.356 . S
C605 C599 1.363 . S
C605 C600 1.379 . S
C605 N603 1.356 . S
N606 C598 1.356 . S
N606 H612 0.984 . S
N606 H613 0.984 . S
N607 C600 1.356 . S
N607 H610 0.984 . S
N607 H611 0.985 . S
H608 N603 0.984 . S
H609 N603 0.985 . S
H610 N607 0.984 . S
H611 N607 0.985 . S
H612 N606 0.984 . S
H613 N606 0.984 . S
H614 N602 0.984 . S
H615 N602 0.985 . S
C616 C617 1.363 . S
C616 C622 1.379 . S
C616 N624 1.356 . S
C617 C616 1.363 . S
C617 C623 1.363 . S
C618 C619 1.363 . S
C618 C623 1.379 . S
C618 N625 1.356 . S
C619 C618 1.363 . S
C619 C622 1.363 . S
N620 C622 1.356 . S
N620 H632 0.984 . S
N620 H633 0.985 . S
N621 C623 1.356 . S
N621 H626 0.984 . S
N621 H627 0.985 . S
C622 C616 1.379 . S
C622 C619 1.363 . S
C622 N620 1.356 . S
C623 C617 1.363 . S
C623 C618 1.379 . S
C623 N621 1.356 . S
N624 C616 1.356 . S
N624 H630 0.984 . S
N624 H631 0.984 . S
N625 C618 1.356 . S
N625 H628 0.984 . S
N625 H629 0.985 . S
H626 N621 0.984 . S
H627 N621 0.985 . S
H628 N625 0.984 . S
H629 N625 0.985 . S
H630 N624 0.984 . S
H631 N624 0.984 . S
H632 N620 0.984 . S
H633 N620 0.985 . S
C634 C635 1.363 . S
C634 C640 1.379 . S
C634 N642 1.356 . S
C635 C634 1.363 . S
C635 C641 1.363 . S
C636 C637 1.363 . S
C636 C641 1.379 . S
C636 N643 1.356 . S
C637 C636 1.363 . S
C637 C640 1.363 . S
N638 C640 1.356 . S
N638 H650 0.984 . S
N638 H651 0.985 . S
N639 C641 1.356 . S
N639 H644 0.984 . S
N639 H645 0.985 . S
C640 C634 1.379 . S
C640 C637 1.363 . S
C640 N638 1.356 . S
C641 C635 1.363 . S
C641 C636 1.379 . S
C641 N639 1.356 . S
N642 C634 1.356 . S
N642 H648 0.984 . S
N642 H649 0.984 . S
N643 C636 1.356 . S
N643 H646 0.984 . S
N643 H647 0.985 . S
H644 N639 0.984 . S
H645 N639 0.985 . S
H646 N643 0.984 . S
H647 N643 0.985 . S
H648 N642 0.984 . S
H649 N642 0.984 . S
H650 N638 0.984 . S
H651 N638 0.985 . S
C652 C653 1.363 . S
C652 C658 1.379 . S
C652 N660 1.356 . S
C653 C652 1.363 . S
C653 C659 1.363 . S
C654 C655 1.363 . S
C654 C659 1.379 . S
C654 N661 1.356 . S
C655 C654 1.363 . S
C655 C658 1.363 . S
N656 C658 1.356 . S
N656 H668 0.984 . S
N656 H669 0.985 . S
N657 C659 1.356 . S
N657 H662 0.984 . S
N657 H663 0.985 . S
C658 C652 1.379 . S
C658 C655 1.363 . S
C658 N656 1.356 . S
C659 C653 1.363 . S
C659 C654 1.379 . S
C659 N657 1.356 . S
N660 C652 1.356 . S
N660 H666 0.984 . S
N660 H667 0.984 . S
N661 C654 1.356 . S
N661 H664 0.984 . S
N661 H665 0.985 . S
H662 N657 0.984 . S
H663 N657 0.985 . S
H664 N661 0.984 . S
H665 N661 0.985 . S
H666 N660 0.984 . S
H667 N660 0.984 . S
H668 N656 0.984 . S
H669 N656 0.985 . S
C670 C671 1.363 . S
C670 C676 1.379 . S
C670 N678 1.356 . S
C671 C670 1.363 . S
C671 C677 1.363 . S
C672 C673 1.363 . S
C672 C677 1.379 . S
C672 N679 1.356 . S
C673 C672 1.363 . S
C673 C676 1.363 . S
N674 C676 1.356 . S
N674 H686 0.984 . S
N674 H687 0.985 . S
N675 C677 1.356 . S
N675 H680 0.984 . S
N675 H681 0.985 . S
C676 C670 1.379 . S
C676 C673 1.363 . S
C676 N674 1.356 . S
C677 C671 1.363 . S
C677 C672 1.379 . S
C677 N675 1.356 . S
N678 C670 1.356 . S
N678 H684 0.984 . S
N678 H685 0.984 . S
N679 C672 1.356 . S
N679 H682 0.984 . S
N679 H683 0.985 . S
H680 N675 0.984 . S
H681 N675 0.985 . S
H682 N679 0.984 . S
H683 N679 0.985 . S
H684 N678 0.984 . S
H685 N678 0.984 . S
H686 N674 0.984 . S
H687 N674 0.985 . S
C688 C689 1.363 . S
C688 C694 1.379 . S
C688 N696 1.356 . S
C689 C688 1.363 . S
C689 C695 1.363 . S
C690 C691 1.363 . S
C690 C695 1.379 . S
C690 N697 1.356 . S
C691 C690 1.363 . S
C691 C694 1.363 . S
N692 C694 1.356 . S
N692 H704 0.984 . S
N692 H705 0.985 . S
N693 C695 1.356 . S
N693 H698 0.984 . S
N693 H699 0.985 . S
C694 C688 1.379 . S
C694 C691 1.363 . S
C694 N692 1.356 . S
C695 C689 1.363 . S
C695 C690 1.379 . S
C695 N693 1.356 . S
N696 C688 1.356 . S
N696 H702 0.984 . S
N696 H703 0.984 . S
N697 C690 1.356 . S
N697 H700 0.984 . S
N697 H701 0.985 . S
H698 N693 0.984 . S
H699 N693 0.985 . S
H700 N697 0.984 . S
H701 N697 0.985 . S
H702 N696 0.984 . S
H703 N696 0.984 . S
H704 N692 0.984 . S
H705 N692 0.985 . S
C706 C707 1.363 . S
C706 C712 1.379 . S
C706 N714 1.356 . S
C707 C706 1.363 . S
C707 C713 1.363 . S
C708 C709 1.363 . S
C708 C713 1.379 . S
C708 N715 1.356 . S
C709 C708 1.363 . S
C709 C712 1.363 . S
N710 C712 1.356 . S
N710 H722 0.984 . S
N710 H723 0.985 . S
N711 C713 1.356 . S
N711 H716 0.984 . S
N711 H717 0.985 . S
C712 C706 1.379 . S
C712 C709 1.363 . S
C712 N710 1.356 . S
C713 C707 1.363 . S
C713 C708 1.379 . S
C713 N711 1.356 . S
N714 C706 1.356 . S
N714 H720 0.984 . S
N714 H721 0.984 . S
N715 C708 1.356 . S
N715 H718 0.984 . S
N715 H719 0.985 . S
H716 N711 0.984 . S
H717 N711 0.985 . S
H718 N715 0.984 . S
H719 N715 0.985 . S
H720 N714 0.984 . S
H721 N714 0.984 . S
H722 N710 0.984 . S
H723 N710 0.985 . S
C724 C725 1.363 1_455 S
C724 C730 1.379 . S
C724 N732 1.356 . S
C725 C724 1.363 1_655 S
C725 C731 1.363 . S
C726 C727 1.363 . S
C726 C731 1.379 . S
C726 N733 1.356 . S
C727 C726 1.363 . S
C727 C730 1.363 1_655 S
N728 C730 1.356 . S
N728 H740 0.984 . S
N728 H741 0.985 . S
N729 C731 1.356 . S
N729 H734 0.984 . S
N729 H735 0.985 . S
C730 C724 1.379 . S
C730 C727 1.363 1_455 S
C730 N728 1.356 . S
C731 C725 1.363 . S
C731 C726 1.379 . S
C731 N729 1.356 . S
N732 C724 1.356 . S
N732 H738 0.984 . S
N732 H739 0.984 . S
N733 C726 1.356 . S
N733 H736 0.984 . S
N733 H737 0.985 . S
H734 N729 0.984 . S
H735 N729 0.985 . S
H736 N733 0.984 . S
H737 N733 0.985 . S
H738 N732 0.984 . S
H739 N732 0.984 . S
H740 N728 0.984 . S
H741 N728 0.985 . S
C742 C743 1.363 1_545 S
C742 C748 1.379 . S
C742 N750 1.356 . S
C743 C742 1.363 1_565 S
C743 C749 1.363 . S
C744 C745 1.363 . S
C744 C749 1.379 . S
C744 N751 1.356 . S
C745 C744 1.363 . S
C745 C748 1.363 1_565 S
N746 C748 1.356 . S
N746 H758 0.984 . S
N746 H759 0.985 . S
N747 C749 1.356 . S
N747 H752 0.984 . S
N747 H753 0.985 . S
C748 C742 1.379 . S
C748 C745 1.363 1_545 S
C748 N746 1.356 . S
C749 C743 1.363 . S
C749 C744 1.379 . S
C749 N747 1.356 . S
N750 C742 1.356 . S
N750 H756 0.984 . S
N750 H757 0.984 . S
N751 C744 1.356 . S
N751 H754 0.984 . S
N751 H755 0.985 . S
H752 N747 0.984 . S
H753 N747 0.985 . S
H754 N751 0.984 . S
H755 N751 0.985 . S
H756 N750 0.984 . S
H757 N750 0.984 . S
H758 N746 0.984 . S
H759 N746 0.985 . S
C760 C761 1.363 . S
C760 C766 1.379 . S
C760 N768 1.356 . S
C761 C760 1.363 . S
C761 C767 1.363 1_455 S
C762 C763 1.363 1_655 S
C762 C767 1.379 . S
C762 N769 1.356 . S
C763 C762 1.363 1_455 S
C763 C766 1.363 . S
N764 C766 1.356 . S
N764 H776 0.984 . S
N764 H777 0.985 . S
N765 C767 1.356 . S
N765 H770 0.984 . S
N765 H771 0.985 . S
C766 C760 1.379 . S
C766 C763 1.363 . S
C766 N764 1.356 . S
C767 C761 1.363 1_655 S
C767 C762 1.379 . S
C767 N765 1.356 . S
N768 C760 1.356 . S
N768 H774 0.984 . S
N768 H775 0.984 . S
N769 C762 1.356 . S
N769 H772 0.984 . S
N769 H773 0.985 . S
H770 N765 0.984 . S
H771 N765 0.985 . S
H772 N769 0.984 . S
H773 N769 0.985 . S
H774 N768 0.984 . S
H775 N768 0.984 . S
H776 N764 0.984 . S
H777 N764 0.985 . S
C778 C779 1.363 1_565 S
C778 C784 1.379 . S
C778 N786 1.356 . S
C779 C778 1.363 1_545 S
C779 C785 1.363 . S
C780 C781 1.363 . S
C780 C785 1.379 . S
C780 N787 1.356 . S
C781 C780 1.363 . S
C781 C784 1.363 1_545 S
N782 C784 1.356 . S
N782 H794 0.984 . S
N782 H795 0.985 . S
N783 C785 1.356 . S
N783 H788 0.984 . S
N783 H789 0.985 . S
C784 C778 1.379 . S
C784 C781 1.363 1_565 S
C784 N782 1.356 . S
C785 C779 1.363 . S
C785 C780 1.379 . S
C785 N783 1.356 . S
N786 C778 1.356 . S
N786 H792 0.984 . S
N786 H793 0.984 . S
N787 C780 1.356 . S
N787 H790 0.984 . S
N787 H791 0.985 . S
H788 N783 0.984 . S
H789 N783 0.985 . S
H790 N787 0.984 . S
H791 N787 0.985 . S
H792 N786 0.984 . S
H793 N786 0.984 . S
H794 N782 0.984 . S
H795 N782 0.985 . S
C796 C797 1.363 . S
C796 C802 1.379 . S
C796 N804 1.356 . S
C797 C796 1.363 . S
C797 C803 1.363 . S
C798 C799 1.363 . S
C798 C803 1.379 . S
C798 N805 1.356 . S
C799 C798 1.363 . S
C799 C802 1.363 . S
N800 C802 1.356 . S
N800 H812 0.984 . S
N800 H813 0.985 . S
N801 C803 1.356 . S
N801 H806 0.984 . S
N801 H807 0.985 . S
C802 C796 1.379 . S
C802 C799 1.363 . S
C802 N800 1.356 . S
C803 C797 1.363 . S
C803 C798 1.379 . S
C803 N801 1.356 . S
N804 C796 1.356 . S
N804 H810 0.984 . S
N804 H811 0.984 . S
N805 C798 1.356 . S
N805 H808 0.984 . S
N805 H809 0.985 . S
H806 N801 0.984 . S
H807 N801 0.985 . S
H808 N805 0.984 . S
H809 N805 0.985 . S
H810 N804 0.984 . S
H811 N804 0.984 . S
H812 N800 0.984 . S
H813 N800 0.985 . S
C814 C815 1.363 . S
C814 C820 1.379 . S
C814 N822 1.356 . S
C815 C814 1.363 . S
C815 C821 1.363 . S
C816 C817 1.363 . S
C816 C821 1.379 . S
C816 N823 1.356 . S
C817 C816 1.363 . S
C817 C820 1.363 . S
N818 C820 1.356 . S
N818 H830 0.984 . S
N818 H831 0.985 . S
N819 C821 1.356 . S
N819 H824 0.984 . S
N819 H825 0.985 . S
C820 C814 1.379 . S
C820 C817 1.363 . S
C820 N818 1.356 . S
C821 C815 1.363 . S
C821 C816 1.379 . S
C821 N819 1.356 . S
N822 C814 1.356 . S
N822 H828 0.984 . S
N822 H829 0.984 . S
N823 C816 1.356 . S
N823 H826 0.984 . S
N823 H827 0.985 . S
H824 N819 0.984 . S
H825 N819 0.985 . S
H826 N823 0.984 . S
H827 N823 0.985 . S
H828 N822 0.984 . S
H829 N822 0.984 . S
H830 N818 0.984 . S
H831 N818 0.985 . S
C832 C833 1.363 . S
C832 C838 1.379 . S
C832 N840 1.356 . S
C833 C832 1.363 . S
C833 C839 1.363 . S
C834 C835 1.363 . S
C834 C839 1.379 . S
C834 N841 1.356 . S
C835 C834 1.363 . S
C835 C838 1.363 . S
N836 C838 1.356 . S
N836 H848 0.984 . S
N836 H849 0.985 . S
N837 C839 1.356 . S
N837 H842 0.984 . S
N837 H843 0.985 . S
C838 C832 1.379 . S
C838 C835 1.363 . S
C838 N836 1.356 . S
C839 C833 1.363 . S
C839 C834 1.379 . S
C839 N837 1.356 . S
N840 C832 1.356 . S
N840 H846 0.984 . S
N840 H847 0.984 . S
N841 C834 1.356 . S
N841 H844 0.984 . S
N841 H845 0.985 . S
H842 N837 0.984 . S
H843 N837 0.985 . S
H844 N841 0.984 . S
H845 N841 0.985 . S
H846 N840 0.984 . S
H847 N840 0.984 . S
H848 N836 0.984 . S
H849 N836 0.985 . S
C850 C851 1.363 . S
C850 C856 1.379 . S
C850 N858 1.356 . S
C851 C850 1.363 . S
C851 C857 1.363 . S
C852 C853 1.363 . S
C852 C857 1.379 . S
C852 N859 1.356 . S
C853 C852 1.363 . S
C853 C856 1.363 . S
N854 C856 1.356 . S
N854 H866 0.984 . S
N854 H867 0.985 . S
N855 C857 1.356 . S
N855 H860 0.984 . S
N855 H861 0.985 . S
C856 C850 1.379 . S
C856 C853 1.363 . S
C856 N854 1.356 . S
C857 C851 1.363 . S
C857 C852 1.379 . S
C857 N855 1.356 . S
N858 C850 1.356 . S
N858 H864 0.984 . S
N858 H865 0.984 . S
N859 C852 1.356 . S
N859 H862 0.984 . S
N859 H863 0.985 . S
H860 N855 0.984 . S
H861 N855 0.985 . S
H862 N859 0.984 . S
H863 N859 0.985 . S
H864 N858 0.984 . S
H865 N858 0.984 . S
H866 N854 0.984 . S
H867 N854 0.985 . S
C868 C869 1.363 . S
C868 C874 1.379 . S
C868 N876 1.356 . S
C869 C868 1.363 . S
C869 C875 1.363 1_455 S
C870 C871 1.363 1_655 S
C870 C875 1.379 . S
C870 N877 1.356 . S
C871 C870 1.363 1_455 S
C871 C874 1.363 . S
N872 C874 1.356 . S
N872 H884 0.984 . S
N872 H885 0.985 . S
N873 C875 1.356 . S
N873 H878 0.984 . S
N873 H879 0.985 . S
C874 C868 1.379 . S
C874 C871 1.363 . S
C874 N872 1.356 . S
C875 C869 1.363 1_655 S
C875 C870 1.379 . S
C875 N873 1.356 . S
N876 C868 1.356 . S
N876 H882 0.984 . S
N876 H883 0.984 . S
N877 C870 1.356 . S
N877 H880 0.984 . S
N877 H881 0.985 . S
H878 N873 0.984 . S
H879 N873 0.985 . S
H880 N877 0.984 . S
H881 N877 0.985 . S
H882 N876 0.984 . S
H883 N876 0.984 . S
H884 N872 0.984 . S
H885 N872 0.985 . S
C886 C887 1.363 1_565 S
C886 C892 1.379 . S
C886 N894 1.356 . S
C887 C886 1.363 1_545 S
C887 C893 1.363 . S
C888 C889 1.363 . S
C888 C893 1.379 . S
C888 N895 1.356 . S
C889 C888 1.363 . S
C889 C892 1.363 1_545 S
N890 C892 1.356 . S
N890 H902 0.984 . S
N890 H903 0.985 . S
N891 C893 1.356 . S
N891 H896 0.984 . S
N891 H897 0.985 . S
C892 C886 1.379 . S
C892 C889 1.363 1_565 S
C892 N890 1.356 . S
C893 C887 1.363 . S
C893 C888 1.379 . S
C893 N891 1.356 . S
N894 C886 1.356 . S
N894 H900 0.984 . S
N894 H901 0.984 . S
N895 C888 1.356 . S
N895 H898 0.984 . S
N895 H899 0.985 . S
H896 N891 0.984 . S
H897 N891 0.985 . S
H898 N895 0.984 . S
H899 N895 0.985 . S
H900 N894 0.984 . S
H901 N894 0.984 . S
H902 N890 0.984 . S
H903 N890 0.985 . S
C904 C905 1.363 1_455 S
C904 C910 1.378 1_455 S
C904 N912 1.356 . S
C905 C904 1.363 1_655 S
C905 C911 1.363 . S
C906 C907 1.363 . S
C906 C911 1.379 . S
C906 N913 1.356 . S
C907 C906 1.363 . S
C907 C910 1.365 . S
N908 C910 1.355 1_455 S
N908 H920 0.984 . S
N908 H921 0.985 . S
N909 C911 1.356 . S
N909 H914 0.984 . S
N909 H915 0.985 . S
C910 C904 1.378 1_655 S
C910 C907 1.365 . S
C910 N908 1.355 1_655 S
C911 C905 1.363 . S
C911 C906 1.379 . S
C911 N909 1.356 . S
N912 C904 1.356 . S
N912 H918 0.984 . S
N912 H919 0.984 . S
N913 C906 1.356 . S
N913 H916 0.984 . S
N913 H917 0.985 . S
H914 N909 0.984 . S
H915 N909 0.985 . S
H916 N913 0.984 . S
H917 N913 0.985 . S
H918 N912 0.984 . S
H919 N912 0.984 . S
H920 N908 0.984 . S
H921 N908 0.985 . S
C922 C923 1.363 1_545 S
C922 C928 1.379 . S
C922 N930 1.356 . S
C923 C922 1.363 1_565 S
C923 C929 1.363 . S
C924 C925 1.363 . S
C924 C929 1.379 . S
C924 N931 1.356 . S
C925 C924 1.363 . S
C925 C928 1.363 1_565 S
N926 C928 1.356 . S
N926 H938 0.984 . S
N926 H939 0.985 . S
N927 C929 1.356 . S
N927 H932 0.984 . S
N927 H933 0.985 . S
C928 C922 1.379 . S
C928 C925 1.363 1_545 S
C928 N926 1.356 . S
C929 C923 1.363 . S
C929 C924 1.379 . S
C929 N927 1.356 . S
N930 C922 1.356 . S
N930 H936 0.984 . S
N930 H937 0.984 . S
N931 C924 1.356 . S
N931 H934 0.984 . S
N931 H935 0.985 . S
H932 N927 0.984 . S
H933 N927 0.985 . S
H934 N931 0.984 . S
H935 N931 0.985 . S
H936 N930 0.984 . S
H937 N930 0.984 . S
H938 N926 0.984 . S
H939 N926 0.985 . S
C940 C941 1.363 . S
C940 C946 1.379 . S
C940 N948 1.356 . S
C941 C940 1.363 . S
C941 C947 1.363 . S
C942 C943 1.363 . S
C942 C947 1.379 . S
C942 N949 1.356 . S
C943 C942 1.363 . S
C943 C946 1.363 . S
N944 C946 1.356 . S
N944 H956 0.984 . S
N944 H957 0.985 . S
N945 C947 1.356 . S
N945 H950 0.984 . S
N945 H951 0.985 . S
C946 C940 1.379 . S
C946 C943 1.363 . S
C946 N944 1.356 . S
C947 C941 1.363 . S
C947 C942 1.379 . S
C947 N945 1.356 . S
N948 C940 1.356 . S
N948 H954 0.984 . S
N948 H955 0.984 . S
N949 C942 1.356 . S
N949 H952 0.984 . S
N949 H953 0.985 . S
H950 N945 0.984 . S
H951 N945 0.985 . S
H952 N949 0.984 . S
H953 N949 0.985 . S
H954 N948 0.984 . S
H955 N948 0.984 . S
H956 N944 0.984 . S
H957 N944 0.985 . S
C958 C959 1.363 . S
C958 C964 1.379 . S
C958 N966 1.356 . S
C959 C958 1.363 . S
C959 C965 1.363 . S
C960 C961 1.363 . S
C960 C965 1.379 . S
C960 N967 1.356 . S
C961 C960 1.363 . S
C961 C964 1.363 . S
N962 C964 1.356 . S
N962 H974 0.984 . S
N962 H975 0.985 . S
N963 C965 1.356 . S
N963 H968 0.984 . S
N963 H969 0.985 . S
C964 C958 1.379 . S
C964 C961 1.363 . S
C964 N962 1.356 . S
C965 C959 1.363 . S
C965 C960 1.379 . S
C965 N963 1.356 . S
N966 C958 1.356 . S
N966 H972 0.984 . S
N966 H973 0.984 . S
N967 C960 1.356 . S
N967 H970 0.984 . S
N967 H971 0.985 . S
H968 N963 0.984 . S
H969 N963 0.985 . S
H970 N967 0.984 . S
H971 N967 0.985 . S
H972 N966 0.984 . S
H973 N966 0.984 . S
H974 N962 0.984 . S
H975 N962 0.985 . S
C976 C977 1.363 . S
C976 C982 1.379 . S
C976 N984 1.356 . S
C977 C976 1.363 . S
C977 C983 1.363 . S
C978 C979 1.363 . S
C978 C983 1.379 . S
C978 N985 1.356 . S
C979 C978 1.363 . S
C979 C982 1.363 . S
N980 C982 1.356 . S
N980 H992 0.984 . S
N980 H993 0.985 . S
N981 C983 1.356 . S
N981 H986 0.984 . S
N981 H987 0.985 . S
C982 C976 1.379 . S
C982 C979 1.363 . S
C982 N980 1.356 . S
C983 C977 1.363 . S
C983 C978 1.379 . S
C983 N981 1.356 . S
N984 C976 1.356 . S
N984 H990 0.984 . S
N984 H991 0.984 . S
N985 C978 1.356 . S
N985 H988 0.984 . S
N985 H989 0.985 . S
H986 N981 0.984 . S
H987 N981 0.985 . S
H988 N985 0.984 . S
H989 N985 0.985 . S
H990 N984 0.984 . S
H991 N984 0.984 . S
H992 N980 0.984 . S
H993 N980 0.985 . S
C994 C995 1.363 . S
C994 C1000 1.379 . S
C994 N1002 1.356 . S
C995 C994 1.363 . S
C995 C1001 1.363 . S
C996 C997 1.363 . S
C996 C1001 1.379 . S
C996 N1003 1.356 . S
C997 C996 1.363 . S
C997 C1000 1.363 . S
N998 C1000 1.356 . S
N998 H1010 0.984 . S
N998 H1011 0.985 . S
N999 C1001 1.356 . S
N999 H1004 0.984 . S
N999 H1005 0.985 . S
C1000 C994 1.379 . S
C1000 C997 1.363 . S
C1000 N998 1.356 . S
C1001 C995 1.363 . S
C1001 C996 1.379 . S
C1001 N999 1.356 . S
N1002 C994 1.356 . S
N1002 H1008 0.984 . S
N1002 H1009 0.984 . S
N1003 C996 1.356 . S
N1003 H1006 0.984 . S
N1003 H1007 0.985 . S
H1004 N999 0.984 . S
H1005 N999 0.985 . S
H1006 N1003 0.984 . S
H1007 N1003 0.985 . S
H1008 N1002 0.984 . S
H1009 N1002 0.984 . S
H1010 N998 0.984 . S
H1011 N998 0.985 . S
C1012 C1013 1.363 . S
C1012 C1018 1.379 . S
C1012 N1020 1.356 . S
C1013 C1012 1.363 . S
C1013 C1019 1.363 . S
C1014 C1015 1.363 . S
C1014 C1019 1.379 . S
C1014 N1021 1.356 . S
C1015 C1014 1.363 . S
C1015 C1018 1.363 . S
N1016 C1018 1.356 . S
N1016 H1028 0.984 . S
N1016 H1029 0.985 . S
N1017 C1019 1.356 . S
N1017 H1022 0.984 . S
N1017 H1023 0.985 . S
C1018 C1012 1.379 . S
C1018 C1015 1.363 . S
C1018 N1016 1.356 . S
C1019 C1013 1.363 . S
C1019 C1014 1.379 . S
C1019 N1017 1.356 . S
N1020 C1012 1.356 . S
N1020 H1026 0.984 . S
N1020 H1027 0.984 . S
N1021 C1014 1.356 . S
N1021 H1024 0.984 . S
N1021 H1025 0.985 . S
H1022 N1017 0.984 . S
H1023 N1017 0.985 . S
H1024 N1021 0.984 . S
H1025 N1021 0.985 . S
H1026 N1020 0.984 . S
H1027 N1020 0.984 . S
H1028 N1016 0.984 . S
H1029 N1016 0.985 . S
C1030 C1031 1.363 . S
C1030 C1036 1.379 . S
C1030 N1038 1.356 . S
C1031 C1030 1.363 . S
C1031 C1037 1.363 . S
C1032 C1033 1.363 . S
C1032 C1037 1.379 . S
C1032 N1039 1.356 . S
C1033 C1032 1.363 . S
C1033 C1036 1.363 . S
N1034 C1036 1.356 . S
N1034 H1046 0.984 . S
N1034 H1047 0.985 . S
N1035 C1037 1.356 . S
N1035 H1040 0.984 . S
N1035 H1041 0.985 . S
C1036 C1030 1.379 . S
C1036 C1033 1.363 . S
C1036 N1034 1.356 . S
C1037 C1031 1.363 . S
C1037 C1032 1.379 . S
C1037 N1035 1.356 . S
N1038 C1030 1.356 . S
N1038 H1044 0.984 . S
N1038 H1045 0.984 . S
N1039 C1032 1.356 . S
N1039 H1042 0.984 . S
N1039 H1043 0.985 . S
H1040 N1035 0.984 . S
H1041 N1035 0.985 . S
H1042 N1039 0.984 . S
H1043 N1039 0.985 . S
H1044 N1038 0.984 . S
H1045 N1038 0.984 . S
H1046 N1034 0.984 . S
H1047 N1034 0.985 . S
C1048 C1049 1.363 1_554 S
C1048 C1054 1.379 . S
C1048 N1056 1.356 . S
C1049 C1048 1.363 1_556 S
C1049 C1055 1.363 . S
C1050 C1051 1.363 . S
C1050 C1055 1.379 1_554 S
C1050 N1057 1.356 . S
C1051 C1050 1.363 . S
C1051 C1054 1.363 . S
N1052 C1054 1.356 . S
N1052 H1064 0.984 . S
N1052 H1065 0.985 . S
N1053 C1055 1.356 . S
N1053 H1058 0.984 . S
N1053 H1059 0.985 . S
C1054 C1048 1.379 . S
C1054 C1051 1.363 . S
C1054 N1052 1.356 . S
C1055 C1049 1.363 . S
C1055 C1050 1.379 1_556 S
C1055 N1053 1.356 . S
N1056 C1048 1.356 . S
N1056 H1062 0.984 . S
N1056 H1063 0.984 1_554 S
N1057 C1050 1.356 . S
N1057 H1060 0.984 . S
N1057 H1061 0.985 . S
H1058 N1053 0.984 . S
H1059 N1053 0.985 . S
H1060 N1057 0.984 . S
H1061 N1057 0.985 . S
H1062 N1056 0.984 . S
H1063 N1056 0.984 1_556 S
H1064 N1052 0.984 . S
H1065 N1052 0.985 . S
C1066 C1067 1.363 . S
C1066 C1072 1.379 1_554 S
C1066 N1074 1.356 . S
C1067 C1066 1.363 . S
C1067 C1073 1.363 . S
C1068 C1069 1.363 1_554 S
C1068 C1073 1.379 . S
C1068 N1075 1.356 . S
C1069 C1068 1.363 1_556 S
C1069 C1072 1.363 . S
N1070 C1072 1.356 . S
N1070 H1082 0.984 . S
N1070 H1083 0.985 . S
N1071 C1073 1.356 . S
N1071 H1076 0.984 . S
N1071 H1077 0.985 . S
C1072 C1066 1.379 1_556 S
C1072 C1069 1.363 . S
C1072 N1070 1.356 . S
C1073 C1067 1.363 . S
C1073 C1068 1.379 . S
C1073 N1071 1.356 . S
N1074 C1066 1.356 . S
N1074 H1080 0.984 1_554 S
N1074 H1081 0.984 . S
N1075 C1068 1.356 . S
N1075 H1078 0.984 1_554 S
N1075 H1079 0.985 . S
H1076 N1071 0.984 . S
H1077 N1071 0.985 . S
H1078 N1075 0.984 1_556 S
H1079 N1075 0.985 . S
H1080 N1074 0.984 1_556 S
H1081 N1074 0.984 . S
H1082 N1070 0.984 . S
H1083 N1070 0.985 . S
C1084 C1085 1.363 . S
C1084 C1090 1.379 . S
C1084 N1092 1.356 . S
C1085 C1084 1.363 . S
C1085 C1091 1.363 . S
C1086 C1087 1.363 . S
C1086 C1091 1.379 1_556 S
C1086 N1093 1.356 . S
C1087 C1086 1.363 . S
C1087 C1090 1.363 1_556 S
N1088 C1090 1.356 . S
N1088 H1100 0.984 . S
N1088 H1101 0.985 1_554 S
N1089 C1091 1.356 . S
N1089 H1094 0.984 . S
N1089 H1095 0.985 1_554 S
C1090 C1084 1.379 . S
C1090 C1087 1.363 1_554 S
C1090 N1088 1.356 . S
C1091 C1085 1.363 . S
C1091 C1086 1.379 1_554 S
C1091 N1089 1.356 . S
N1092 C1084 1.356 . S
N1092 H1098 0.984 . S
N1092 H1099 0.984 . S
N1093 C1086 1.356 . S
N1093 H1096 0.984 . S
N1093 H1097 0.985 . S
H1094 N1089 0.984 . S
H1095 N1089 0.985 1_556 S
H1096 N1093 0.984 . S
H1097 N1093 0.985 . S
H1098 N1092 0.984 . S
H1099 N1092 0.984 . S
H1100 N1088 0.984 . S
H1101 N1088 0.985 1_556 S
C1102 C1103 1.363 . S
C1102 C1108 1.379 . S
C1102 N1110 1.356 . S
C1103 C1102 1.363 . S
C1103 C1109 1.363 . S
C1104 C1105 1.363 . S
C1104 C1109 1.379 1_556 S
C1104 N1111 1.356 . S
C1105 C1104 1.363 . S
C1105 C1108 1.363 1_556 S
N1106 C1108 1.356 . S
N1106 H1118 0.984 . S
N1106 H1119 0.985 1_554 S
N1107 C1109 1.356 . S
N1107 H1112 0.984 . S
N1107 H1113 0.985 1_554 S
C1108 C1102 1.379 . S
C1108 C1105 1.363 1_554 S
C1108 N1106 1.356 . S
C1109 C1103 1.363 . S
C1109 C1104 1.379 1_554 S
C1109 N1107 1.356 . S
N1110 C1102 1.356 . S
N1110 H1116 0.984 . S
N1110 H1117 0.984 . S
N1111 C1104 1.356 . S
N1111 H1114 0.984 . S
N1111 H1115 0.985 . S
H1112 N1107 0.984 . S
H1113 N1107 0.985 1_556 S
H1114 N1111 0.984 . S
H1115 N1111 0.985 . S
H1116 N1110 0.984 . S
H1117 N1110 0.984 . S
H1118 N1106 0.984 . S
H1119 N1106 0.985 1_556 S
C1120 C1121 1.363 . S
C1120 C1126 1.379 . S
C1120 N1128 1.356 . S
C1121 C1120 1.363 . S
C1121 C1127 1.363 . S
C1122 C1123 1.363 . S
C1122 C1127 1.379 . S
C1122 N1129 1.356 . S
C1123 C1122 1.363 . S
C1123 C1126 1.363 . S
N1124 C1126 1.356 . S
N1124 H1136 0.984 . S
N1124 H1137 0.985 . S
N1125 C1127 1.356 . S
N1125 H1130 0.984 . S
N1125 H1131 0.985 . S
C1126 C1120 1.379 . S
C1126 C1123 1.363 . S
C1126 N1124 1.356 . S
C1127 C1121 1.363 . S
C1127 C1122 1.379 . S
C1127 N1125 1.356 . S
N1128 C1120 1.356 . S
N1128 H1134 0.984 . S
N1128 H1135 0.984 . S
N1129 C1122 1.356 . S
N1129 H1132 0.984 . S
N1129 H1133 0.985 . S
H1130 N1125 0.984 . S
H1131 N1125 0.985 . S
H1132 N1129 0.984 . S
H1133 N1129 0.985 . S
H1134 N1128 0.984 . S
H1135 N1128 0.984 . S
H1136 N1124 0.984 . S
H1137 N1124 0.985 . S
C1138 C1139 1.363 . S
C1138 C1144 1.379 . S
C1138 N1146 1.356 . S
C1139 C1138 1.363 . S
C1139 C1145 1.363 . S
C1140 C1141 1.363 . S
C1140 C1145 1.379 . S
C1140 N1147 1.356 . S
C1141 C1140 1.363 . S
C1141 C1144 1.363 . S
N1142 C1144 1.356 . S
N1142 H1154 0.984 . S
N1142 H1155 0.985 . S
N1143 C1145 1.356 . S
N1143 H1148 0.984 . S
N1143 H1149 0.985 . S
C1144 C1138 1.379 . S
C1144 C1141 1.363 . S
C1144 N1142 1.356 . S
C1145 C1139 1.363 . S
C1145 C1140 1.379 . S
C1145 N1143 1.356 . S
N1146 C1138 1.356 . S
N1146 H1152 0.984 . S
N1146 H1153 0.984 . S
N1147 C1140 1.356 . S
N1147 H1150 0.984 . S
N1147 H1151 0.985 . S
H1148 N1143 0.984 . S
H1149 N1143 0.985 . S
H1150 N1147 0.984 . S
H1151 N1147 0.985 . S
H1152 N1146 0.984 . S
H1153 N1146 0.984 . S
H1154 N1142 0.984 . S
H1155 N1142 0.985 . S
C1156 C1157 1.363 . S
C1156 C1162 1.379 . S
C1156 N1164 1.356 . S
C1157 C1156 1.363 . S
C1157 C1163 1.363 . S
C1158 C1159 1.363 . S
C1158 C1163 1.379 . S
C1158 N1165 1.356 . S
C1159 C1158 1.363 . S
C1159 C1162 1.363 . S
N1160 C1162 1.356 . S
N1160 H1172 0.984 . S
N1160 H1173 0.985 . S
N1161 C1163 1.356 . S
N1161 H1166 0.984 . S
N1161 H1167 0.985 . S
C1162 C1156 1.379 . S
C1162 C1159 1.363 . S
C1162 N1160 1.356 . S
C1163 C1157 1.363 . S
C1163 C1158 1.379 . S
C1163 N1161 1.356 . S
N1164 C1156 1.356 . S
N1164 H1170 0.984 . S
N1164 H1171 0.984 . S
N1165 C1158 1.356 . S
N1165 H1168 0.984 . S
N1165 H1169 0.985 . S
H1166 N1161 0.984 . S
H1167 N1161 0.985 . S
H1168 N1165 0.984 . S
H1169 N1165 0.985 . S
H1170 N1164 0.984 . S
H1171 N1164 0.984 . S
H1172 N1160 0.984 . S
H1173 N1160 0.985 . S
C1174 C1175 1.363 . S
C1174 C1180 1.379 . S
C1174 N1182 1.356 . S
C1175 C1174 1.363 . S
C1175 C1181 1.363 . S
C1176 C1177 1.363 . S
C1176 C1181 1.379 . S
C1176 N1183 1.356 . S
C1177 C1176 1.363 . S
C1177 C1180 1.363 . S
N1178 C1180 1.356 . S
N1178 H1190 0.984 . S
N1178 H1191 0.985 . S
N1179 C1181 1.356 . S
N1179 H1184 0.984 . S
N1179 H1185 0.985 . S
C1180 C1174 1.379 . S
C1180 C1177 1.363 . S
C1180 N1178 1.356 . S
C1181 C1175 1.363 . S
C1181 C1176 1.379 . S
C1181 N1179 1.356 . S
N1182 C1174 1.356 . S
N1182 H1188 0.984 . S
N1182 H1189 0.984 . S
N1183 C1176 1.356 . S
N1183 H1186 0.984 . S
N1183 H1187 0.985 . S
H1184 N1179 0.984 . S
H1185 N1179 0.985 . S
H1186 N1183 0.984 . S
H1187 N1183 0.985 . S
H1188 N1182 0.984 . S
H1189 N1182 0.984 . S
H1190 N1178 0.984 . S
H1191 N1178 0.985 . S
C1192 C1193 1.363 1_556 S
C1192 C1198 1.379 . S
C1192 N1200 1.356 1_556 S
C1193 C1192 1.363 1_554 S
C1193 C1199 1.363 . S
C1194 C1195 1.363 . S
C1194 C1199 1.379 1_556 S
C1194 N1201 1.356 . S
C1195 C1194 1.363 . S
C1195 C1198 1.363 . S
N1196 C1198 1.356 . S
N1196 H1208 0.984 . S
N1196 H1209 0.985 . S
N1197 C1199 1.356 . S
N1197 H1202 0.984 . S
N1197 H1203 0.985 . S
C1198 C1192 1.379 . S
C1198 C1195 1.363 . S
C1198 N1196 1.356 . S
C1199 C1193 1.363 . S
C1199 C1194 1.379 1_554 S
C1199 N1197 1.356 . S
N1200 C1192 1.356 1_554 S
N1200 H1206 0.978 1_554 S
N1200 H1207 0.984 . S
N1201 C1194 1.356 . S
N1201 H1204 0.984 . S
N1201 H1205 0.985 . S
H1202 N1197 0.984 . S
H1203 N1197 0.985 . S
H1204 N1201 0.984 . S
H1205 N1201 0.985 . S
H1206 N1200 0.978 1_556 S
H1207 N1200 0.984 . S
H1208 N1196 0.984 . S
H1209 N1196 0.985 . S
C1210 C1211 1.363 1_556 S
C1210 C1216 1.379 . S
C1210 N1218 1.356 . S
C1211 C1210 1.363 1_554 S
C1211 C1217 1.363 . S
C1212 C1213 1.363 . S
C1212 C1217 1.379 1_556 S
C1212 N1219 1.356 . S
C1213 C1212 1.363 . S
C1213 C1216 1.363 . S
N1214 C1216 1.356 . S
N1214 H1226 0.984 . S
N1214 H1227 0.985 . S
N1215 C1217 1.356 . S
N1215 H1220 0.984 . S
N1215 H1221 0.985 . S
C1216 C1210 1.379 . S
C1216 C1213 1.363 . S
C1216 N1214 1.356 . S
C1217 C1211 1.363 . S
C1217 C1212 1.379 1_554 S
C1217 N1215 1.356 . S
N1218 C1210 1.356 . S
N1218 H1224 0.984 . S
N1218 H1225 0.984 1_556 S
N1219 C1212 1.356 . S
N1219 H1222 0.984 . S
N1219 H1223 0.985 1_556 S
H1220 N1215 0.984 . S
H1221 N1215 0.985 . S
H1222 N1219 0.984 . S
H1223 N1219 0.985 1_554 S
H1224 N1218 0.984 . S
H1225 N1218 0.984 1_554 S
H1226 N1214 0.984 . S
H1227 N1214 0.985 . S
C1228 C1229 1.363 . S
C1228 C1234 1.379 1_554 S
C1228 N1236 1.356 . S
C1229 C1228 1.363 . S
C1229 C1235 1.363 1_554 S
C1230 C1231 1.363 . S
C1230 C1235 1.379 . S
C1230 N1237 1.356 . S
C1231 C1230 1.363 . S
C1231 C1234 1.363 . S
N1232 C1234 1.356 . S
N1232 H1244 0.984 . S
N1232 H1245 0.985 . S
N1233 C1235 1.356 . S
N1233 H1238 0.984 1_556 S
N1233 H1239 0.985 . S
C1234 C1228 1.379 1_556 S
C1234 C1231 1.363 . S
C1234 N1232 1.356 . S
C1235 C1229 1.363 1_556 S
C1235 C1230 1.379 . S
C1235 N1233 1.356 . S
N1236 C1228 1.356 . S
N1236 H1242 0.984 . S
N1236 H1243 0.984 . S
N1237 C1230 1.356 . S
N1237 H1240 0.984 . S
N1237 H1241 0.985 . S
H1238 N1233 0.984 1_554 S
H1239 N1233 0.985 . S
H1240 N1237 0.984 . S
H1241 N1237 0.985 . S
H1242 N1236 0.984 . S
H1243 N1236 0.984 . S
H1244 N1232 0.984 . S
H1245 N1232 0.985 . S
C1246 C1247 1.363 1_556 S
C1246 C1252 1.379 . S
C1246 N1254 1.356 1_556 S
C1247 C1246 1.363 1_554 S
C1247 C1253 1.363 . S
C1248 C1249 1.363 . S
C1248 C1253 1.379 1_556 S
C1248 N1255 1.356 . S
C1249 C1248 1.363 . S
C1249 C1252 1.363 . S
N1250 C1252 1.356 . S
N1250 H1262 0.984 . S
N1250 H1263 0.985 . S
N1251 C1253 1.356 . S
N1251 H1256 0.984 . S
N1251 H1257 0.985 . S
C1252 C1246 1.379 . S
C1252 C1249 1.363 . S
C1252 N1250 1.356 . S
C1253 C1247 1.363 . S
C1253 C1248 1.379 1_554 S
C1253 N1251 1.356 . S
N1254 C1246 1.356 1_554 S
N1254 H1260 0.984 1_554 S
N1254 H1261 0.984 . S
N1255 C1248 1.356 . S
N1255 H1258 0.984 . S
N1255 H1259 0.985 . S
H1256 N1251 0.984 . S
H1257 N1251 0.985 . S
H1258 N1255 0.984 . S
H1259 N1255 0.985 . S
H1260 N1254 0.984 1_556 S
H1261 N1254 0.984 . S
H1262 N1250 0.984 . S
H1263 N1250 0.985 . S
C1264 C1265 1.363 . S
C1264 C1270 1.379 . S
C1264 N1272 1.356 . S
C1265 C1264 1.363 . S
C1265 C1271 1.363 . S
C1266 C1267 1.363 . S
C1266 C1271 1.379 . S
C1266 N1273 1.356 . S
C1267 C1266 1.363 . S
C1267 C1270 1.363 . S
N1268 C1270 1.356 . S
N1268 H1280 0.984 . S
N1268 H1281 0.985 . S
N1269 C1271 1.356 . S
N1269 H1274 0.984 . S
N1269 H1275 0.985 . S
C1270 C1264 1.379 . S
C1270 C1267 1.363 . S
C1270 N1268 1.356 . S
C1271 C1265 1.363 . S
C1271 C1266 1.379 . S
C1271 N1269 1.356 . S
N1272 C1264 1.356 . S
N1272 H1278 0.984 . S
N1272 H1279 0.984 . S
N1273 C1266 1.356 . S
N1273 H1276 0.984 . S
N1273 H1277 0.985 . S
H1274 N1269 0.984 . S
H1275 N1269 0.985 . S
H1276 N1273 0.984 . S
H1277 N1273 0.985 . S
H1278 N1272 0.984 . S
H1279 N1272 0.984 . S
H1280 N1268 0.984 . S
H1281 N1268 0.985 . S
C1282 C1283 1.363 . S
C1282 C1288 1.379 . S
C1282 N1290 1.356 . S
C1283 C1282 1.363 . S
C1283 C1289 1.363 . S
C1284 C1285 1.363 . S
C1284 C1289 1.379 . S
C1284 N1291 1.356 . S
C1285 C1284 1.363 . S
C1285 C1288 1.363 . S
N1286 C1288 1.356 . S
N1286 H1298 0.984 . S
N1286 H1299 0.985 . S
N1287 C1289 1.356 . S
N1287 H1292 0.984 . S
N1287 H1293 0.985 . S
C1288 C1282 1.379 . S
C1288 C1285 1.363 . S
C1288 N1286 1.356 . S
C1289 C1283 1.363 . S
C1289 C1284 1.379 . S
C1289 N1287 1.356 . S
N1290 C1282 1.356 . S
N1290 H1296 0.984 . S
N1290 H1297 0.984 . S
N1291 C1284 1.356 . S
N1291 H1294 0.984 . S
N1291 H1295 0.985 . S
H1292 N1287 0.984 . S
H1293 N1287 0.985 . S
H1294 N1291 0.984 . S
H1295 N1291 0.985 . S
H1296 N1290 0.984 . S
H1297 N1290 0.984 . S
H1298 N1286 0.984 . S
H1299 N1286 0.985 . S
C1300 C1301 1.363 . S
C1300 C1306 1.379 . S
C1300 N1308 1.356 . S
C1301 C1300 1.363 . S
C1301 C1307 1.363 . S
C1302 C1303 1.363 . S
C1302 C1307 1.379 . S
C1302 N1309 1.356 . S
C1303 C1302 1.363 . S
C1303 C1306 1.363 . S
N1304 C1306 1.356 . S
N1304 H1316 0.984 . S
N1304 H1317 0.985 . S
N1305 C1307 1.356 . S
N1305 H1310 0.984 . S
N1305 H1311 0.985 . S
C1306 C1300 1.379 . S
C1306 C1303 1.363 . S
C1306 N1304 1.356 . S
C1307 C1301 1.363 . S
C1307 C1302 1.379 . S
C1307 N1305 1.356 . S
N1308 C1300 1.356 . S
N1308 H1314 0.984 . S
N1308 H1315 0.984 . S
N1309 C1302 1.356 . S
N1309 H1312 0.984 . S
N1309 H1313 0.985 . S
H1310 N1305 0.984 . S
H1311 N1305 0.985 . S
H1312 N1309 0.984 . S
H1313 N1309 0.985 . S
H1314 N1308 0.984 . S
H1315 N1308 0.984 . S
H1316 N1304 0.984 . S
H1317 N1304 0.985 . S
C1318 C1319 1.363 . S
C1318 C1324 1.379 . S
C1318 N1326 1.356 . S
C1319 C1318 1.363 . S
C1319 C1325 1.363 . S
C1320 C1321 1.363 . S
C1320 C1325 1.379 . S
C1320 N1327 1.356 . S
C1321 C1320 1.363 . S
C1321 C1324 1.363 . S
N1322 C1324 1.356 . S
N1322 H1334 0.984 . S
N1322 H1335 0.985 . S
N1323 C1325 1.356 . S
N1323 H1328 0.984 . S
N1323 H1329 0.985 . S
C1324 C1318 1.379 . S
C1324 C1321 1.363 . S
C1324 N1322 1.356 . S
C1325 C1319 1.363 . S
C1325 C1320 1.379 . S
C1325 N1323 1.356 . S
N1326 C1318 1.356 . S
N1326 H1332 0.984 1_455 S
N1326 H1333 0.984 . S
N1327 C1320 1.356 . S
N1327 H1330 0.984 . S
N1327 H1331 0.985 . S
H1328 N1323 0.984 . S
H1329 N1323 0.985 . S
H1330 N1327 0.984 . S
H1331 N1327 0.985 . S
H1332 N1326 0.984 1_655 S
H1333 N1326 0.984 . S
H1334 N1322 0.984 . S
H1335 N1322 0.985 . S
C1336 C1337 1.363 . S
C1336 C1342 1.379 . S
C1336 N1344 1.356 . S
C1337 C1336 1.363 . S
C1337 C1343 1.363 . S
C1338 C1339 1.363 . S
C1338 C1343 1.379 . S
C1338 N1345 1.356 . S
C1339 C1338 1.363 . S
C1339 C1342 1.363 . S
N1340 C1342 1.356 . S
N1340 H1352 0.984 . S
N1340 H1353 0.985 . S
N1341 C1343 1.356 . S
N1341 H1346 0.984 . S
N1341 H1347 0.985 . S
C1342 C1336 1.379 . S
C1342 C1339 1.363 . S
C1342 N1340 1.356 . S
C1343 C1337 1.363 . S
C1343 C1338 1.379 . S
C1343 N1341 1.356 . S
N1344 C1336 1.356 . S
N1344 H1350 0.984 1_565 S
N1344 H1351 0.984 . S
N1345 C1338 1.356 . S
N1345 H1348 0.984 . S
N1345 H1349 0.985 . S
H1346 N1341 0.984 . S
H1347 N1341 0.985 . S
H1348 N1345 0.984 . S
H1349 N1345 0.985 . S
H1350 N1344 0.984 1_545 S
H1351 N1344 0.984 . S
H1352 N1340 0.984 . S
H1353 N1340 0.985 . S
C1354 C1355 1.363 . S
C1354 C1360 1.379 . S
C1354 N1362 1.356 . S
C1355 C1354 1.363 . S
C1355 C1361 1.363 . S
C1356 C1357 1.363 . S
C1356 C1361 1.379 . S
C1356 N1363 1.356 . S
C1357 C1356 1.363 . S
C1357 C1360 1.363 . S
N1358 C1360 1.356 . S
N1358 H1370 0.984 . S
N1358 H1371 0.985 . S
N1359 C1361 1.356 . S
N1359 H1364 0.984 . S
N1359 H1365 0.985 . S
C1360 C1354 1.379 . S
C1360 C1357 1.363 . S
C1360 N1358 1.356 . S
C1361 C1355 1.363 . S
C1361 C1356 1.379 . S
C1361 N1359 1.356 . S
N1362 C1354 1.356 . S
N1362 H1368 0.984 . S
N1362 H1369 0.984 . S
N1363 C1356 1.356 . S
N1363 H1366 0.984 . S
N1363 H1367 0.985 . S
H1364 N1359 0.984 . S
H1365 N1359 0.985 . S
H1366 N1363 0.984 . S
H1367 N1363 0.985 . S
H1368 N1362 0.984 . S
H1369 N1362 0.984 . S
H1370 N1358 0.984 . S
H1371 N1358 0.985 . S
C1372 C1373 1.363 . S
C1372 C1378 1.379 . S
C1372 N1380 1.356 . S
C1373 C1372 1.363 . S
C1373 C1379 1.363 . S
C1374 C1375 1.363 . S
C1374 C1379 1.379 . S
C1374 N1381 1.356 . S
C1375 C1374 1.363 . S
C1375 C1378 1.363 . S
N1376 C1378 1.356 . S
N1376 H1388 0.984 . S
N1376 H1389 0.985 . S
N1377 C1379 1.356 . S
N1377 H1382 0.984 . S
N1377 H1383 0.985 . S
C1378 C1372 1.379 . S
C1378 C1375 1.363 . S
C1378 N1376 1.356 . S
C1379 C1373 1.363 . S
C1379 C1374 1.379 . S
C1379 N1377 1.356 . S
N1380 C1372 1.356 . S
N1380 H1386 0.984 . S
N1380 H1387 0.984 . S
N1381 C1374 1.356 . S
N1381 H1384 0.984 . S
N1381 H1385 0.985 . S
H1382 N1377 0.984 . S
H1383 N1377 0.985 . S
H1384 N1381 0.984 . S
H1385 N1381 0.985 . S
H1386 N1380 0.984 . S
H1387 N1380 0.984 . S
H1388 N1376 0.984 . S
H1389 N1376 0.985 . S
C1390 C1391 1.363 . S
C1390 C1396 1.379 . S
C1390 N1398 1.356 . S
C1391 C1390 1.363 . S
C1391 C1397 1.363 . S
C1392 C1393 1.363 . S
C1392 C1397 1.379 . S
C1392 N1399 1.356 . S
C1393 C1392 1.363 . S
C1393 C1396 1.363 . S
N1394 C1396 1.356 . S
N1394 H1406 0.984 . S
N1394 H1407 0.985 . S
N1395 C1397 1.356 . S
N1395 H1400 0.984 . S
N1395 H1401 0.985 . S
C1396 C1390 1.379 . S
C1396 C1393 1.363 . S
C1396 N1394 1.356 . S
C1397 C1391 1.363 . S
C1397 C1392 1.379 . S
C1397 N1395 1.356 . S
N1398 C1390 1.356 . S
N1398 H1404 0.984 . S
N1398 H1405 0.984 . S
N1399 C1392 1.356 . S
N1399 H1402 0.984 . S
N1399 H1403 0.985 . S
H1400 N1395 0.984 . S
H1401 N1395 0.985 . S
H1402 N1399 0.984 . S
H1403 N1399 0.985 . S
H1404 N1398 0.984 . S
H1405 N1398 0.984 . S
H1406 N1394 0.984 . S
H1407 N1394 0.985 . S
C1408 C1409 1.363 . S
C1408 C1414 1.379 . S
C1408 N1416 1.356 . S
C1409 C1408 1.363 . S
C1409 C1415 1.363 . S
C1410 C1411 1.363 . S
C1410 C1415 1.379 . S
C1410 N1417 1.356 . S
C1411 C1410 1.363 . S
C1411 C1414 1.363 . S
N1412 C1414 1.356 . S
N1412 H1424 0.984 . S
N1412 H1425 0.985 . S
N1413 C1415 1.356 . S
N1413 H1418 0.984 . S
N1413 H1419 0.985 . S
C1414 C1408 1.379 . S
C1414 C1411 1.363 . S
C1414 N1412 1.356 . S
C1415 C1409 1.363 . S
C1415 C1410 1.379 . S
C1415 N1413 1.356 . S
N1416 C1408 1.356 . S
N1416 H1422 0.984 . S
N1416 H1423 0.984 . S
N1417 C1410 1.356 . S
N1417 H1420 0.984 . S
N1417 H1421 0.985 . S
H1418 N1413 0.984 . S
H1419 N1413 0.985 . S
H1420 N1417 0.984 . S
H1421 N1417 0.985 . S
H1422 N1416 0.984 . S
H1423 N1416 0.984 . S
H1424 N1412 0.984 . S
H1425 N1412 0.985 . S
C1426 C1427 1.363 . S
C1426 C1432 1.379 . S
C1426 N1434 1.356 . S
C1427 C1426 1.363 . S
C1427 C1433 1.363 . S
C1428 C1429 1.363 . S
C1428 C1433 1.379 . S
C1428 N1435 1.356 . S
C1429 C1428 1.363 . S
C1429 C1432 1.363 . S
N1430 C1432 1.356 . S
N1430 H1442 0.984 . S
N1430 H1443 0.985 . S
N1431 C1433 1.356 . S
N1431 H1436 0.984 . S
N1431 H1437 0.985 . S
C1432 C1426 1.379 . S
C1432 C1429 1.363 . S
C1432 N1430 1.356 . S
C1433 C1427 1.363 . S
C1433 C1428 1.379 . S
C1433 N1431 1.356 . S
N1434 C1426 1.356 . S
N1434 H1440 0.984 . S
N1434 H1441 0.984 . S
N1435 C1428 1.356 . S
N1435 H1438 0.984 . S
N1435 H1439 0.985 . S
H1436 N1431 0.984 . S
H1437 N1431 0.985 . S
H1438 N1435 0.984 . S
H1439 N1435 0.985 . S
H1440 N1434 0.984 . S
H1441 N1434 0.984 . S
H1442 N1430 0.984 . S
H1443 N1430 0.985 . S
C1444 C1445 1.363 . S
C1444 C1450 1.379 . S
C1444 N1452 1.356 . S
C1445 C1444 1.363 . S
C1445 C1451 1.363 . S
C1446 C1447 1.363 . S
C1446 C1451 1.379 . S
C1446 N1453 1.356 . S
C1447 C1446 1.363 . S
C1447 C1450 1.363 . S
N1448 C1450 1.356 . S
N1448 H1460 0.984 . S
N1448 H1461 0.985 . S
N1449 C1451 1.356 . S
N1449 H1454 0.984 . S
N1449 H1455 0.985 . S
C1450 C1444 1.379 . S
C1450 C1447 1.363 . S
C1450 N1448 1.356 . S
C1451 C1445 1.363 . S
C1451 C1446 1.379 . S
C1451 N1449 1.356 . S
N1452 C1444 1.356 . S
N1452 H1458 0.984 . S
N1452 H1459 0.984 . S
N1453 C1446 1.356 . S
N1453 H1456 0.984 . S
N1453 H1457 0.985 . S
H1454 N1449 0.984 . S
H1455 N1449 0.985 . S
H1456 N1453 0.984 . S
H1457 N1453 0.985 . S
H1458 N1452 0.984 . S
H1459 N1452 0.984 . S
H1460 N1448 0.984 . S
H1461 N1448 0.985 . S
C1462 C1463 1.363 . S
C1462 C1468 1.379 . S
C1462 N1470 1.356 . S
C1463 C1462 1.363 . S
C1463 C1469 1.363 . S
C1464 C1465 1.363 . S
C1464 C1469 1.379 . S
C1464 N1471 1.356 . S
C1465 C1464 1.363 . S
C1465 C1468 1.363 . S
N1466 C1468 1.356 . S
N1466 H1478 0.984 . S
N1466 H1479 0.985 . S
N1467 C1469 1.356 . S
N1467 H1472 0.984 . S
N1467 H1473 0.985 . S
C1468 C1462 1.379 . S
C1468 C1465 1.363 . S
C1468 N1466 1.356 . S
C1469 C1463 1.363 . S
C1469 C1464 1.379 . S
C1469 N1467 1.356 . S
N1470 C1462 1.356 . S
N1470 H1476 0.984 . S
N1470 H1477 0.984 . S
N1471 C1464 1.356 . S
N1471 H1474 0.984 . S
N1471 H1475 0.985 . S
H1472 N1467 0.984 . S
H1473 N1467 0.985 . S
H1474 N1471 0.984 . S
H1475 N1471 0.985 . S
H1476 N1470 0.984 . S
H1477 N1470 0.984 . S
H1478 N1466 0.984 . S
H1479 N1466 0.985 . S
C1480 C1481 1.363 . S
C1480 C1486 1.379 . S
C1480 N1488 1.356 . S
C1481 C1480 1.363 . S
C1481 C1487 1.363 . S
C1482 C1483 1.363 . S
C1482 C1487 1.379 . S
C1482 N1489 1.356 . S
C1483 C1482 1.363 . S
C1483 C1486 1.363 . S
N1484 C1486 1.356 . S
N1484 H1496 0.984 . S
N1484 H1497 0.985 . S
N1485 C1487 1.356 . S
N1485 H1490 0.984 . S
N1485 H1491 0.985 . S
C1486 C1480 1.379 . S
C1486 C1483 1.363 . S
C1486 N1484 1.356 . S
C1487 C1481 1.363 . S
C1487 C1482 1.379 . S
C1487 N1485 1.356 . S
N1488 C1480 1.356 . S
N1488 H1494 0.984 . S
N1488 H1495 0.984 . S
N1489 C1482 1.356 . S
N1489 H1492 0.984 . S
N1489 H1493 0.985 . S
H1490 N1485 0.984 . S
H1491 N1485 0.985 . S
H1492 N1489 0.984 . S
H1493 N1489 0.985 . S
H1494 N1488 0.984 . S
H1495 N1488 0.984 . S
H1496 N1484 0.984 . S
H1497 N1484 0.985 . S
C1498 C1499 1.363 . S
C1498 C1504 1.379 . S
C1498 N1506 1.356 . S
C1499 C1498 1.363 . S
C1499 C1505 1.363 . S
C1500 C1501 1.363 . S
C1500 C1505 1.379 . S
C1500 N1507 1.356 . S
C1501 C1500 1.363 . S
C1501 C1504 1.363 . S
N1502 C1504 1.356 . S
N1502 H1514 0.984 . S
N1502 H1515 0.985 . S
N1503 C1505 1.356 . S
N1503 H1508 0.984 . S
N1503 H1509 0.985 . S
C1504 C1498 1.379 . S
C1504 C1501 1.363 . S
C1504 N1502 1.356 . S
C1505 C1499 1.363 . S
C1505 C1500 1.379 . S
C1505 N1503 1.356 . S
N1506 C1498 1.356 . S
N1506 H1512 0.984 . S
N1506 H1513 0.984 . S
N1507 C1500 1.356 . S
N1507 H1510 0.984 . S
N1507 H1511 0.985 . S
H1508 N1503 0.984 . S
H1509 N1503 0.985 . S
H1510 N1507 0.984 . S
H1511 N1507 0.985 . S
H1512 N1506 0.984 . S
H1513 N1506 0.984 . S
H1514 N1502 0.984 . S
H1515 N1502 0.985 . S
C1516 C1517 1.363 . S
C1516 C1522 1.379 . S
C1516 N1524 1.356 . S
C1517 C1516 1.363 . S
C1517 C1523 1.363 . S
C1518 C1519 1.363 . S
C1518 C1523 1.379 . S
C1518 N1525 1.356 . S
C1519 C1518 1.363 . S
C1519 C1522 1.363 . S
N1520 C1522 1.356 . S
N1520 H1532 0.984 . S
N1520 H1533 0.985 . S
N1521 C1523 1.356 . S
N1521 H1526 0.984 . S
N1521 H1527 0.985 . S
C1522 C1516 1.379 . S
C1522 C1519 1.363 . S
C1522 N1520 1.356 . S
C1523 C1517 1.363 . S
C1523 C1518 1.379 . S
C1523 N1521 1.356 . S
N1524 C1516 1.356 . S
N1524 H1530 0.984 . S
N1524 H1531 0.984 . S
N1525 C1518 1.356 . S
N1525 H1528 0.984 . S
N1525 H1529 0.985 . S
H1526 N1521 0.984 . S
H1527 N1521 0.985 . S
H1528 N1525 0.984 . S
H1529 N1525 0.985 . S
H1530 N1524 0.984 . S
H1531 N1524 0.984 . S
H1532 N1520 0.984 . S
H1533 N1520 0.985 . S
C1534 C1535 1.363 . S
C1534 C1540 1.379 . S
C1534 N1542 1.356 . S
C1535 C1534 1.363 . S
C1535 C1541 1.363 . S
C1536 C1537 1.363 . S
C1536 C1541 1.379 . S
C1536 N1543 1.356 . S
C1537 C1536 1.363 . S
C1537 C1540 1.363 . S
N1538 C1540 1.356 . S
N1538 H1550 0.984 . S
N1538 H1551 0.985 . S
N1539 C1541 1.356 . S
N1539 H1544 0.984 . S
N1539 H1545 0.985 . S
C1540 C1534 1.379 . S
C1540 C1537 1.363 . S
C1540 N1538 1.356 . S
C1541 C1535 1.363 . S
C1541 C1536 1.379 . S
C1541 N1539 1.356 . S
N1542 C1534 1.356 . S
N1542 H1548 0.984 . S
N1542 H1549 0.984 . S
N1543 C1536 1.356 . S
N1543 H1546 0.984 . S
N1543 H1547 0.985 . S
H1544 N1539 0.984 . S
H1545 N1539 0.985 . S
H1546 N1543 0.984 . S
H1547 N1543 0.985 . S
H1548 N1542 0.984 . S
H1549 N1542 0.984 . S
H1550 N1538 0.984 . S
H1551 N1538 0.985 . S
C545 C1 1.899 . S
C547 C173 1.899 . S
C563 C37 1.899 . S
C565 C207 1.899 . S
C581 C241 1.899 . S
C583 C69 1.899 . S
C599 C103 1.899 . S
C601 C139 1.899 . S
C617 C445 1.899 . S
C619 C273 1.899 . S
C635 C307 1.899 . S
C637 C477 1.899 . S
C653 C341 1.899 . S
C655 C513 1.899 . S
C671 C411 1.899 . S
C673 C377 1.899 . S
C689 C504 1.347 . S
C691 C6 1.357 . S
C707 C516 1.346 . S
C709 C62 1.357 . S
C725 C74 1.357 . S
C727 C414 1.346 . S
C743 C108 1.357 . S
C745 C448 1.347 . S
C761 C164 1.357 . S
C763 C368 1.347 . S
C779 C198 1.357 . S
C781 C380 1.346 . S
C797 C232 1.357 . S
C799 C300 1.346 . S
C815 C334 1.347 . S
C817 C266 1.357 . S
C833 C210 1.347 . S
C835 C278 1.357 . S
C851 C312 1.357 . S
C853 C244 1.346 . S
C869 C346 1.357 . S
C871 C142 1.346 . S
C887 C402 1.357 . S
C889 C176 1.347 . S
C905 C436 1.357 . S
C907 C96 1.347 . S
C923 C130 1.346 . S
C925 C470 1.357 . S
C941 C482 1.357 . S
C943 C28 1.346 . S
C959 C538 1.357 . S
C961 C40 1.347 . S
C977 C3 1.535 . S
C979 C396 1.589 . S
C995 C35 1.535 . S
C997 C287 1.589 . S
C1013 C321 1.589 . S
C1015 C71 1.535 . S
C1031 C105 1.535 . S
C1033 C355 1.589 . S
C1049 C464 1.589 . S
C1051 C137 1.535 . S
C1067 C171 1.535 . S
C1069 C491 1.589 . S
C1085 C205 1.535 . S
C1087 C532 1.589 . S
C1103 C239 1.535 . S
C1105 C430 1.589 . S
C1121 C275 1.535 . S
C1123 C117 1.589 . S
C1139 C15 1.589 . S
C1141 C309 1.535 . S
C1157 C56 1.589 . S
C1159 C343 1.535 . S
C1175 C83 1.589 . S
C1177 C375 1.535 . S
C1193 C192 1.589 . S
C1195 C409 1.535 . S
C1211 C226 1.589 . S
C1213 C443 1.535 . S
C1229 C260 1.589 . S
C1231 C479 1.535 . S
C1247 C158 1.589 . S
C1249 C511 1.535 . S
C1265 C22 1.744 . S
C1267 C119 2.064 . S
C1283 C49 1.744 . S
C1285 C17 2.064 . S
C1301 C51 2.064 . S
C1303 C90 1.744 . S
C1319 C85 2.064 . S
C1321 C124 1.744 . S
C1337 C187 2.064 . S
C1339 C151 1.744 . S
C1355 C221 2.064 . S
C1357 C185 1.744 . S
C1373 C255 2.064 . S
C1375 C219 1.744 . S
C1391 C153 2.064 . S
C1393 C253 1.744 . S
C1409 C391 2.064 . S
C1411 C294 1.744 . S
C1427 C328 1.744 . S
C1429 C289 2.064 . S
C1445 C362 1.744 . S
C1447 C323 2.064 . S
C1463 C357 2.064 . S
C1465 C389 1.744 . S
C1481 C459 2.064 . S
C1483 C423 1.744 . S
C1499 C457 1.744 . S
C1501 C493 2.064 . S
C1517 C527 2.064 . S
C1519 C498 1.744 . S
C1535 C425 2.064 . S
C1537 C525 1.744 . S
