# Generated by pormake.
# Topology mer, (4)-cn, num edge types: 1
# Building blocks:
#     Node 0, Type 0, BuildingBlock: KUFVIS_clean_sbu_0, # of connection points: 4
#     Node 1, Type 0, BuildingBlock: KUFVIS_clean_sbu_0, # of connection points: 4
#     Node 2, Type 0, BuildingBlock: KUFVIS_clean_sbu_0, # of connection points: 4
#     Node 3, Type 0, BuildingBlock: KUFVIS_clean_sbu_0, # of connection points: 4
#     Node 4, Type 0, BuildingBlock: KUFVIS_clean_sbu_0, # of connection points: 4
#     Node 5, Type 0, BuildingBlock: KUFVIS_clean_sbu_0, # of connection points: 4
#     Node 6, Type 0, BuildingBlock: KUFVIS_clean_sbu_0, # of connection points: 4
#     Node 7, Type 0, BuildingBlock: KUFVIS_clean_sbu_0, # of connection points: 4
#     Node 8, Type 0, BuildingBlock: KUFVIS_clean_sbu_0, # of connection points: 4
#     Node 9, Type 0, BuildingBlock: KUFVIS_clean_sbu_0, # of connection points: 4
#     Node 10, Type 0, BuildingBlock: KUFVIS_clean_sbu_0, # of connection points: 4
#     Node 11, Type 0, BuildingBlock: KUFVIS_clean_sbu_0, # of connection points: 4
#     Node 12, Type 0, BuildingBlock: KUFVIS_clean_sbu_0, # of connection points: 4
#     Node 13, Type 0, BuildingBlock: KUFVIS_clean_sbu_0, # of connection points: 4
#     Node 14, Type 0, BuildingBlock: KUFVIS_clean_sbu_0, # of connection points: 4
#     Node 15, Type 0, BuildingBlock: KUFVIS_clean_sbu_0, # of connection points: 4
#     Node 16, Type 0, BuildingBlock: KUFVIS_clean_sbu_0, # of connection points: 4
#     Node 17, Type 0, BuildingBlock: KUFVIS_clean_sbu_0, # of connection points: 4
#     Node 18, Type 0, BuildingBlock: KUFVIS_clean_sbu_0, # of connection points: 4
#     Node 19, Type 0, BuildingBlock: KUFVIS_clean_sbu_0, # of connection points: 4
#     Node 20, Type 0, BuildingBlock: KUFVIS_clean_sbu_0, # of connection points: 4
#     Node 21, Type 0, BuildingBlock: KUFVIS_clean_sbu_0, # of connection points: 4
#     Node 22, Type 0, BuildingBlock: KUFVIS_clean_sbu_0, # of connection points: 4
#     Node 23, Type 0, BuildingBlock: KUFVIS_clean_sbu_0, # of connection points: 4
#     Node 24, Type 0, BuildingBlock: KUFVIS_clean_sbu_0, # of connection points: 4
#     Node 25, Type 0, BuildingBlock: KUFVIS_clean_sbu_0, # of connection points: 4
#     Node 26, Type 0, BuildingBlock: KUFVIS_clean_sbu_0, # of connection points: 4
#     Node 27, Type 0, BuildingBlock: KUFVIS_clean_sbu_0, # of connection points: 4
#     Node 28, Type 0, BuildingBlock: KUFVIS_clean_sbu_0, # of connection points: 4
#     Node 29, Type 0, BuildingBlock: KUFVIS_clean_sbu_0, # of connection points: 4
#     Node 30, Type 0, BuildingBlock: KUFVIS_clean_sbu_0, # of connection points: 4
#     Node 31, Type 0, BuildingBlock: KUFVIS_clean_sbu_0, # of connection points: 4
#     Edge 32, Type (0, 0), BuildingBlock: ZUJKAS_clean_linker_0, # of connection points: 2
#     Edge 33, Type (0, 0), BuildingBlock: ZUJKAS_clean_linker_0, # of connection points: 2
#     Edge 34, Type (0, 0), BuildingBlock: ZUJKAS_clean_linker_0, # of connection points: 2
#     Edge 35, Type (0, 0), BuildingBlock: ZUJKAS_clean_linker_0, # of connection points: 2
#     Edge 36, Type (0, 0), BuildingBlock: ZUJKAS_clean_linker_0, # of connection points: 2
#     Edge 37, Type (0, 0), BuildingBlock: ZUJKAS_clean_linker_0, # of connection points: 2
#     Edge 38, Type (0, 0), BuildingBlock: ZUJKAS_clean_linker_0, # of connection points: 2
#     Edge 39, Type (0, 0), BuildingBlock: ZUJKAS_clean_linker_0, # of connection points: 2
#     Edge 40, Type (0, 0), BuildingBlock: ZUJKAS_clean_linker_0, # of connection points: 2
#     Edge 41, Type (0, 0), BuildingBlock: ZUJKAS_clean_linker_0, # of connection points: 2
#     Edge 42, Type (0, 0), BuildingBlock: ZUJKAS_clean_linker_0, # of connection points: 2
#     Edge 43, Type (0, 0), BuildingBlock: ZUJKAS_clean_linker_0, # of connection points: 2
#     Edge 44, Type (0, 0), BuildingBlock: ZUJKAS_clean_linker_0, # of connection points: 2
#     Edge 45, Type (0, 0), BuildingBlock: ZUJKAS_clean_linker_0, # of connection points: 2
#     Edge 46, Type (0, 0), BuildingBlock: ZUJKAS_clean_linker_0, # of connection points: 2
#     Edge 47, Type (0, 0), BuildingBlock: ZUJKAS_clean_linker_0, # of connection points: 2
#     Edge 48, Type (0, 0), BuildingBlock: ZUJKAS_clean_linker_0, # of connection points: 2
#     Edge 49, Type (0, 0), BuildingBlock: ZUJKAS_clean_linker_0, # of connection points: 2
#     Edge 50, Type (0, 0), BuildingBlock: ZUJKAS_clean_linker_0, # of connection points: 2
#     Edge 51, Type (0, 0), BuildingBlock: ZUJKAS_clean_linker_0, # of connection points: 2
#     Edge 52, Type (0, 0), BuildingBlock: ZUJKAS_clean_linker_0, # of connection points: 2
#     Edge 53, Type (0, 0), BuildingBlock: ZUJKAS_clean_linker_0, # of connection points: 2
#     Edge 54, Type (0, 0), BuildingBlock: ZUJKAS_clean_linker_0, # of connection points: 2
#     Edge 55, Type (0, 0), BuildingBlock: ZUJKAS_clean_linker_0, # of connection points: 2
#     Edge 56, Type (0, 0), BuildingBlock: ZUJKAS_clean_linker_0, # of connection points: 2
#     Edge 57, Type (0, 0), BuildingBlock: ZUJKAS_clean_linker_0, # of connection points: 2
#     Edge 58, Type (0, 0), BuildingBlock: ZUJKAS_clean_linker_0, # of connection points: 2
#     Edge 59, Type (0, 0), BuildingBlock: ZUJKAS_clean_linker_0, # of connection points: 2
#     Edge 60, Type (0, 0), BuildingBlock: ZUJKAS_clean_linker_0, # of connection points: 2
#     Edge 61, Type (0, 0), BuildingBlock: ZUJKAS_clean_linker_0, # of connection points: 2
#     Edge 62, Type (0, 0), BuildingBlock: ZUJKAS_clean_linker_0, # of connection points: 2
#     Edge 63, Type (0, 0), BuildingBlock: ZUJKAS_clean_linker_0, # of connection points: 2
#     Edge 64, Type (0, 0), BuildingBlock: ZUJKAS_clean_linker_0, # of connection points: 2
#     Edge 65, Type (0, 0), BuildingBlock: ZUJKAS_clean_linker_0, # of connection points: 2
#     Edge 66, Type (0, 0), BuildingBlock: ZUJKAS_clean_linker_0, # of connection points: 2
#     Edge 67, Type (0, 0), BuildingBlock: ZUJKAS_clean_linker_0, # of connection points: 2
#     Edge 68, Type (0, 0), BuildingBlock: ZUJKAS_clean_linker_0, # of connection points: 2
#     Edge 69, Type (0, 0), BuildingBlock: ZUJKAS_clean_linker_0, # of connection points: 2
#     Edge 70, Type (0, 0), BuildingBlock: ZUJKAS_clean_linker_0, # of connection points: 2
#     Edge 71, Type (0, 0), BuildingBlock: ZUJKAS_clean_linker_0, # of connection points: 2
#     Edge 72, Type (0, 0), BuildingBlock: ZUJKAS_clean_linker_0, # of connection points: 2
#     Edge 73, Type (0, 0), BuildingBlock: ZUJKAS_clean_linker_0, # of connection points: 2
#     Edge 74, Type (0, 0), BuildingBlock: ZUJKAS_clean_linker_0, # of connection points: 2
#     Edge 75, Type (0, 0), BuildingBlock: ZUJKAS_clean_linker_0, # of connection points: 2
#     Edge 76, Type (0, 0), BuildingBlock: ZUJKAS_clean_linker_0, # of connection points: 2
#     Edge 77, Type (0, 0), BuildingBlock: ZUJKAS_clean_linker_0, # of connection points: 2
#     Edge 78, Type (0, 0), BuildingBlock: ZUJKAS_clean_linker_0, # of connection points: 2
#     Edge 79, Type (0, 0), BuildingBlock: ZUJKAS_clean_linker_0, # of connection points: 2
#     Edge 80, Type (0, 0), BuildingBlock: ZUJKAS_clean_linker_0, # of connection points: 2
#     Edge 81, Type (0, 0), BuildingBlock: ZUJKAS_clean_linker_0, # of connection points: 2
#     Edge 82, Type (0, 0), BuildingBlock: ZUJKAS_clean_linker_0, # of connection points: 2
#     Edge 83, Type (0, 0), BuildingBlock: ZUJKAS_clean_linker_0, # of connection points: 2
#     Edge 84, Type (0, 0), BuildingBlock: ZUJKAS_clean_linker_0, # of connection points: 2
#     Edge 85, Type (0, 0), BuildingBlock: ZUJKAS_clean_linker_0, # of connection points: 2
#     Edge 86, Type (0, 0), BuildingBlock: ZUJKAS_clean_linker_0, # of connection points: 2
#     Edge 87, Type (0, 0), BuildingBlock: ZUJKAS_clean_linker_0, # of connection points: 2
#     Edge 88, Type (0, 0), BuildingBlock: ZUJKAS_clean_linker_0, # of connection points: 2
#     Edge 89, Type (0, 0), BuildingBlock: ZUJKAS_clean_linker_0, # of connection points: 2
#     Edge 90, Type (0, 0), BuildingBlock: ZUJKAS_clean_linker_0, # of connection points: 2
#     Edge 91, Type (0, 0), BuildingBlock: ZUJKAS_clean_linker_0, # of connection points: 2
#     Edge 92, Type (0, 0), BuildingBlock: ZUJKAS_clean_linker_0, # of connection points: 2
#     Edge 93, Type (0, 0), BuildingBlock: ZUJKAS_clean_linker_0, # of connection points: 2
#     Edge 94, Type (0, 0), BuildingBlock: ZUJKAS_clean_linker_0, # of connection points: 2
#     Edge 95, Type (0, 0), BuildingBlock: ZUJKAS_clean_linker_0, # of connection points: 2
# Relax obj value: 0.090
# Max RMSD: 0.140
# Mean RMSD: 0.134
data_MOF--net-mer--node1-KUFVIS_clean_sbu_0--edge1-ZUJKAS_clean_linker_0
_symmetry_space_group_name_H-M    P1
_symmetry_Int_Tables_number       1
_symmetry_cell_setting            triclinic
loop_
_symmetry_equiv_pos_as_xyz
'x, y, z'
_cell_length_a     83.23662
_cell_length_b     82.448046
_cell_length_c     67.237142
_cell_angle_alpha  89.998928
_cell_angle_beta   89.989812
_cell_angle_gamma 89.991145
loop_
_atom_site_label
_atom_site_type_symbol
_atom_site_fract_x
_atom_site_fract_y
_atom_site_fract_z
_atom_type_partial_charge
Mn0 Mn 0.1104 0.27162 0.34756 0.0
Mn1 Mn 0.14174 0.29342 0.3648 0.0
C2 C 0.11561 0.2723 0.38125 0.0
C3 C 0.08359 0.27081 0.3378 0.0
C4 C 0.14534 0.26027 0.34557 0.0
O5 O 0.11608 0.28597 0.32405 0.0
O6 O 0.13576 0.30092 0.33774 0.0
C7 C 0.12556 0.32529 0.36804 0.0
N8 N 0.1341 0.31304 0.37658 0.0
C9 C 0.13586 0.32754 0.40754 0.0
C10 C 0.12716 0.34035 0.39906 0.0
C11 C 0.12191 0.33918 0.37925 0.0
C12 C 0.13901 0.31394 0.3957 0.0
H13 H 0.12159 0.32447 0.35278 0.0
C14 C 0.12632 0.29744 0.32333 0.0
O15 O 0.09379 0.26004 0.33147 0.0
O16 O 0.08905 0.282 0.34953 0.0
N17 N 0.14887 0.28781 0.39096 0.0
C18 C 0.15649 0.27408 0.39718 0.0
C19 C 0.16206 0.27308 0.41687 0.0
C20 C 0.16006 0.28632 0.42979 0.0
C21 C 0.15243 0.30042 0.42295 0.0
C22 C 0.14696 0.30064 0.40326 0.0
H23 H 0.15824 0.26396 0.38723 0.0
O24 O 0.1069 0.2608 0.3737 0.0
O25 O 0.12069 0.28333 0.36893 0.0
O26 O 0.13041 0.25761 0.34258 0.0
O27 O 0.15071 0.27333 0.35336 0.0
C28 C 0.14995 0.31424 0.4349 0.0
C29 C 0.14152 0.32771 0.42728 0.0
H30 H 0.12439 0.35112 0.40763 0.0
H31 H 0.11514 0.34899 0.37261 0.0
H32 H 0.16796 0.26217 0.42203 0.0
H33 H 0.16439 0.28551 0.44496 0.0
H34 H 0.15435 0.31458 0.45005 0.0
H35 H 0.13944 0.33814 0.43674 0.0
Mn36 Mn 0.71765 0.12083 0.35666 0.0
Mn37 Mn 0.75521 0.10801 0.36709 0.0
C38 C 0.73822 0.13946 0.35802 0.0
C39 C 0.69726 0.12497 0.33362 0.0
C40 C 0.7291 0.11199 0.39815 0.0
O41 O 0.71636 0.09634 0.35333 0.0
O42 O 0.74249 0.08966 0.35623 0.0
C43 C 0.76637 0.10136 0.32609 0.0
N44 N 0.76827 0.10919 0.34377 0.0
C45 C 0.79245 0.12217 0.33229 0.0
C46 C 0.79081 0.11417 0.314 0.0
C47 C 0.77768 0.10375 0.31088 0.0
C48 C 0.78078 0.11933 0.34688 0.0
H49 H 0.75628 0.09337 0.32364 0.0
C50 C 0.72782 0.08607 0.35254 0.0
O51 O 0.6941 0.12305 0.35239 0.0
O52 O 0.71221 0.12411 0.32825 0.0
N53 N 0.76904 0.12443 0.37766 0.0
C54 C 0.76866 0.13152 0.39597 0.0
C55 C 0.78097 0.14224 0.4015 0.0
C56 C 0.79362 0.14544 0.38825 0.0
C57 C 0.79379 0.13797 0.36953 0.0
C58 C 0.7813 0.12723 0.36494 0.0
H59 H 0.75906 0.12899 0.40632 0.0
O60 O 0.72339 0.14418 0.35919 0.0
O61 O 0.74058 0.12401 0.35527 0.0
O62 O 0.7186 0.11837 0.3868 0.0
O63 O 0.74274 0.10678 0.39215 0.0
C64 C 0.80581 0.14082 0.35519 0.0
C65 C 0.80509 0.13299 0.33655 0.0
H66 H 0.79949 0.11599 0.30222 0.0
H67 H 0.77629 0.09759 0.29677 0.0
H68 H 0.78076 0.14797 0.41598 0.0
H69 H 0.80316 0.15361 0.39264 0.0
H70 H 0.81557 0.14915 0.35827 0.0
H71 H 0.8143 0.13543 0.32556 0.0
Mn72 Mn 0.88656 0.72039 0.34894 0.0
Mn73 Mn 0.85328 0.70192 0.36643 0.0
C74 C 0.88127 0.72041 0.38273 0.0
C75 C 0.91338 0.71888 0.33917 0.0
C76 C 0.85288 0.73523 0.34725 0.0
O77 O 0.87947 0.70661 0.3254 0.0
O78 O 0.85827 0.69409 0.33927 0.0
C79 C 0.86635 0.66861 0.36926 0.0
N80 N 0.85903 0.68157 0.37795 0.0
C81 C 0.85534 0.6669 0.40852 0.0
C82 C 0.8628 0.65336 0.3999 0.0
C83 C 0.86843 0.65426 0.38023 0.0
C84 C 0.85389 0.68095 0.39698 0.0
H85 H 0.87051 0.6692 0.35406 0.0
C86 C 0.8679 0.6965 0.32473 0.0
O87 O 0.90407 0.7304 0.33276 0.0
O88 O 0.90701 0.70817 0.35087 0.0
N89 N 0.84677 0.70802 0.39264 0.0
C90 C 0.84028 0.72231 0.39889 0.0
C91 C 0.83418 0.72351 0.4183 0.0
C92 C 0.83445 0.70991 0.43088 0.0
C93 C 0.8411 0.6953 0.42406 0.0
C94 C 0.8472 0.6949 0.40468 0.0
H95 H 0.83968 0.73268 0.38911 0.0
O96 O 0.89104 0.73093 0.37503 0.0
O97 O 0.87522 0.7098 0.37052 0.0
O98 O 0.86796 0.73627 0.34396 0.0
O99 O 0.84628 0.72285 0.35526 0.0
C100 C 0.84183 0.68108 0.43567 0.0
C101 C 0.84917 0.66697 0.42802 0.0
H102 H 0.86427 0.64222 0.40824 0.0
H103 H 0.87422 0.64388 0.37348 0.0
H104 H 0.82906 0.73482 0.42346 0.0
H105 H 0.82954 0.71083 0.44576 0.0
H106 H 0.83695 0.68091 0.4506 0.0
H107 H 0.84993 0.65622 0.43724 0.0
Mn108 Mn 0.26949 0.8821 0.35157 0.0
Mn109 Mn 0.23358 0.89741 0.36532 0.0
C110 C 0.24787 0.86485 0.35585 0.0
C111 C 0.28811 0.87596 0.32689 0.0
C112 C 0.26116 0.89206 0.39409 0.0
O113 O 0.27214 0.90629 0.3467 0.0
O114 O 0.24715 0.91486 0.35381 0.0
C115 C 0.22108 0.90551 0.32533 0.0
N116 N 0.21939 0.89766 0.34302 0.0
C117 C 0.19312 0.88802 0.33396 0.0
C118 C 0.19454 0.89605 0.31565 0.0
C119 C 0.20862 0.90475 0.31127 0.0
C120 C 0.20603 0.88902 0.34724 0.0
H121 H 0.23183 0.91233 0.32201 0.0
C122 C 0.26153 0.9174 0.34781 0.0
O123 O 0.29251 0.87824 0.3452 0.0
O124 O 0.27293 0.87748 0.3229 0.0
N125 N 0.21898 0.88212 0.37671 0.0
C126 C 0.21972 0.87474 0.39482 0.0
C127 C 0.20658 0.86559 0.40153 0.0
C128 C 0.19272 0.86437 0.38972 0.0
C129 C 0.19224 0.87206 0.37112 0.0
C130 C 0.20572 0.88098 0.36521 0.0
H131 H 0.23021 0.87592 0.40416 0.0
O132 O 0.26246 0.85932 0.35601 0.0
O133 O 0.24627 0.88032 0.35242 0.0
O134 O 0.27084 0.88572 0.38161 0.0
O135 O 0.24721 0.89727 0.38938 0.0
C136 C 0.17889 0.87132 0.35826 0.0
C137 C 0.17941 0.87912 0.33959 0.0
H138 H 0.1849 0.89559 0.30483 0.0
H139 H 0.20981 0.91095 0.29716 0.0
H140 H 0.20704 0.85967 0.41588 0.0
H141 H 0.18251 0.85752 0.39512 0.0
H142 H 0.1682 0.86469 0.36252 0.0
H143 H 0.16916 0.87825 0.32971 0.0
Mn144 Mn 0.11441 0.72656 0.64636 0.0
Mn145 Mn 0.14672 0.7074 0.62733 0.0
C146 C 0.11936 0.72784 0.61258 0.0
C147 C 0.08769 0.72556 0.65649 0.0
C148 C 0.14864 0.73946 0.64951 0.0
O149 O 0.12122 0.71143 0.66868 0.0
O150 O 0.14103 0.69764 0.65342 0.0
C151 C 0.13213 0.6752 0.62007 0.0
N152 N 0.14013 0.68845 0.61317 0.0
C153 C 0.14213 0.67692 0.58039 0.0
C154 C 0.13397 0.6631 0.58716 0.0
C155 C 0.1289 0.66227 0.60708 0.0
C156 C 0.14494 0.68944 0.59401 0.0
H157 H 0.12823 0.67452 0.63538 0.0
C158 C 0.13178 0.70022 0.66832 0.0
O159 O 0.09746 0.73645 0.66349 0.0
O160 O 0.09355 0.71519 0.64394 0.0
N161 N 0.15367 0.71543 0.60207 0.0
C162 C 0.16089 0.72984 0.59775 0.0
C163 C 0.16689 0.73255 0.57853 0.0
C164 C 0.1655 0.72039 0.56401 0.0
C165 C 0.15779 0.70577 0.5687 0.0
C166 C 0.1523 0.70365 0.5882 0.0
H167 H 0.16223 0.73913 0.60894 0.0
O168 O 0.11008 0.73841 0.62108 0.0
O169 O 0.12516 0.71656 0.62405 0.0
O170 O 0.13358 0.74141 0.65214 0.0
O171 O 0.15467 0.72695 0.64113 0.0
C172 C 0.15534 0.69322 0.5548 0.0
C173 C 0.14741 0.67885 0.56061 0.0
H174 H 0.13145 0.6531 0.57718 0.0
H175 H 0.12254 0.65167 0.6124 0.0
H176 H 0.17273 0.74391 0.57497 0.0
H177 H 0.17037 0.72243 0.54929 0.0
H178 H 0.15937 0.69456 0.53957 0.0
H179 H 0.14542 0.66936 0.54974 0.0
Mn180 Mn 0.2792 0.11925 0.64261 0.0
Mn181 Mn 0.24127 0.10816 0.63114 0.0
C182 C 0.2596 0.13873 0.63936 0.0
C183 C 0.29902 0.12355 0.66635 0.0
C184 C 0.26796 0.11039 0.60061 0.0
O185 O 0.27926 0.09507 0.64797 0.0
O186 O 0.25346 0.08904 0.64113 0.0
C187 C 0.23035 0.10099 0.67211 0.0
N188 N 0.22857 0.10936 0.65478 0.0
C189 C 0.20549 0.12353 0.66753 0.0
C190 C 0.20701 0.11498 0.68547 0.0
C191 C 0.21952 0.1037 0.68778 0.0
C192 C 0.21668 0.12036 0.65248 0.0
H193 H 0.23998 0.09234 0.67397 0.0
C194 C 0.26762 0.08508 0.6468 0.0
O195 O 0.30272 0.12062 0.64792 0.0
O196 O 0.28389 0.1237 0.67093 0.0
N197 N 0.22787 0.12525 0.62133 0.0
C198 C 0.22801 0.13239 0.60304 0.0
C199 C 0.21626 0.14399 0.59832 0.0
C200 C 0.20436 0.14796 0.61232 0.0
C201 C 0.20421 0.14014 0.63083 0.0
C202 C 0.21619 0.12863 0.63467 0.0
H203 H 0.23707 0.12933 0.59218 0.0
O204 O 0.27465 0.14265 0.63812 0.0
O205 O 0.25644 0.12356 0.64303 0.0
O206 O 0.27892 0.11513 0.61257 0.0
O207 O 0.25358 0.10718 0.60605 0.0
C208 C 0.19266 0.14332 0.64564 0.0
C209 C 0.19337 0.13511 0.66403 0.0
H210 H 0.19867 0.11703 0.69758 0.0
H211 H 0.22081 0.09711 0.70161 0.0
H212 H 0.21639 0.14989 0.58395 0.0
H213 H 0.19538 0.15699 0.60868 0.0
H214 H 0.18321 0.15211 0.64308 0.0
H215 H 0.18451 0.13779 0.67538 0.0
Mn216 Mn 0.88936 0.27882 0.64472 0.0
Mn217 Mn 0.85561 0.29786 0.62972 0.0
C218 C 0.88227 0.27857 0.61146 0.0
C219 C 0.91664 0.27996 0.65229 0.0
C220 C 0.85557 0.26478 0.64954 0.0
O221 O 0.88381 0.29297 0.66854 0.0
O222 O 0.86229 0.30599 0.65619 0.0
C223 C 0.86912 0.33084 0.62495 0.0
N224 N 0.8611 0.3179 0.61722 0.0
C225 C 0.85616 0.33211 0.5866 0.0
C226 C 0.86432 0.34562 0.59424 0.0
C227 C 0.87092 0.34494 0.61345 0.0
C228 C 0.85499 0.3183 0.59863 0.0
H229 H 0.87404 0.33041 0.63981 0.0
C230 C 0.87262 0.30346 0.66994 0.0
O231 O 0.90751 0.26864 0.65958 0.0
O232 O 0.90985 0.29065 0.64094 0.0
N233 N 0.84756 0.29148 0.60427 0.0
C234 C 0.84053 0.27722 0.5989 0.0
C235 C 0.83349 0.27579 0.58001 0.0
C236 C 0.83343 0.28915 0.56704 0.0
C237 C 0.84064 0.30375 0.57296 0.0
C238 C 0.84764 0.30438 0.59186 0.0
H239 H 0.84022 0.26703 0.609 0.0
O240 O 0.89225 0.26794 0.61851 0.0
O241 O 0.8771 0.28943 0.62396 0.0
O242 O 0.87078 0.26337 0.65145 0.0
O243 O 0.84881 0.27726 0.64199 0.0
C244 C 0.8411 0.31773 0.5609 0.0
C245 C 0.84906 0.33181 0.56759 0.0
H246 H 0.86559 0.35657 0.58548 0.0
H247 H 0.87725 0.35531 0.61944 0.0
H248 H 0.82795 0.26449 0.57555 0.0
H249 H 0.82782 0.28805 0.55257 0.0
H250 H 0.83552 0.31772 0.54636 0.0
H251 H 0.84958 0.34237 0.55803 0.0
Mn252 Mn 0.723 0.88072 0.64628 0.0
Mn253 Mn 0.75983 0.89397 0.63293 0.0
C254 C 0.74347 0.86228 0.64159 0.0
C255 C 0.70419 0.87507 0.67089 0.0
C256 C 0.73189 0.8911 0.60412 0.0
O257 O 0.72191 0.90492 0.65176 0.0
O258 O 0.7475 0.91204 0.64525 0.0
C259 C 0.77292 0.9 0.67319 0.0
N260 N 0.77402 0.89251 0.65519 0.0
C261 C 0.79876 0.87945 0.66452 0.0
C262 C 0.79795 0.88711 0.68312 0.0
C263 C 0.78495 0.89739 0.68748 0.0
C264 C 0.78641 0.8825 0.65089 0.0
H265 H 0.76293 0.90788 0.67661 0.0
C266 C 0.73323 0.91533 0.65117 0.0
O267 O 0.69979 0.87814 0.65274 0.0
O268 O 0.71944 0.87572 0.67478 0.0
N269 N 0.77326 0.87791 0.62087 0.0
C270 C 0.77205 0.87117 0.60242 0.0
C271 C 0.78412 0.8606 0.59572 0.0
C272 C 0.79737 0.8572 0.60795 0.0
C273 C 0.79841 0.86434 0.62683 0.0
C274 C 0.78611 0.87493 0.63261 0.0
H275 H 0.76198 0.87384 0.59287 0.0
O276 O 0.7286 0.85759 0.64123 0.0
O277 O 0.74597 0.87757 0.64528 0.0
O278 O 0.7219 0.88501 0.61641 0.0
O279 O 0.74612 0.89543 0.60895 0.0
C280 C 0.81109 0.86128 0.64019 0.0
C281 C 0.81122 0.86877 0.65906 0.0
H282 H 0.80719 0.88512 0.69419 0.0
H283 H 0.78421 0.90329 0.70183 0.0
H284 H 0.78325 0.85514 0.58112 0.0
H285 H 0.80671 0.84913 0.60266 0.0
H286 H 0.82071 0.85305 0.63617 0.0
H287 H 0.82094 0.86617 0.66929 0.0
Mn288 Mn 0.89347 0.72133 0.62941 0.0
Mn289 Mn 0.86262 0.70082 0.60857 0.0
C290 C 0.8909 0.72083 0.59527 0.0
C291 C 0.9192 0.72156 0.64289 0.0
C292 C 0.85905 0.7342 0.62701 0.0
O293 O 0.88519 0.70753 0.6522 0.0
O294 O 0.86602 0.69336 0.63634 0.0
C295 C 0.87778 0.66835 0.60762 0.0
N296 N 0.87034 0.68079 0.59799 0.0
C297 C 0.87013 0.66593 0.56722 0.0
C298 C 0.87772 0.65291 0.57681 0.0
C299 C 0.88165 0.65418 0.59708 0.0
C300 C 0.86676 0.67982 0.57843 0.0
H301 H 0.88069 0.66924 0.62323 0.0
C302 C 0.87433 0.69665 0.65183 0.0
O303 O 0.9087 0.73256 0.64759 0.0
O304 O 0.91466 0.71036 0.63055 0.0
N305 N 0.85765 0.70638 0.58165 0.0
C306 C 0.85075 0.72019 0.5745 0.0
C307 C 0.8463 0.72102 0.55438 0.0
C308 C 0.84861 0.70753 0.54196 0.0
C309 C 0.8555 0.69335 0.54972 0.0
C310 C 0.85983 0.69329 0.56984 0.0
H311 H 0.84867 0.7305 0.58408 0.0
O312 O 0.89956 0.73185 0.60388 0.0
O313 O 0.8844 0.70997 0.60683 0.0
O314 O 0.87379 0.7361 0.63168 0.0
O315 O 0.8536 0.72139 0.61869 0.0
C316 C 0.85828 0.67928 0.53831 0.0
C317 C 0.86575 0.66566 0.54698 0.0
H318 H 0.88062 0.64192 0.56876 0.0
H319 H 0.88754 0.6442 0.60458 0.0
H320 H 0.84096 0.73199 0.54851 0.0
H321 H 0.84508 0.70819 0.52647 0.0
H322 H 0.85483 0.67885 0.52278 0.0
H323 H 0.86805 0.65502 0.53797 0.0
Mn324 Mn 0.2875 0.88908 0.6383 0.0
Mn325 Mn 0.30256 0.8556 0.61613 0.0
C326 C 0.28399 0.88528 0.60468 0.0
C327 C 0.29034 0.91561 0.64943 0.0
C328 C 0.27182 0.85541 0.64013 0.0
O329 O 0.30331 0.88068 0.65876 0.0
O330 O 0.31268 0.85862 0.64271 0.0
C331 C 0.33561 0.86785 0.60995 0.0
N332 N 0.32178 0.86152 0.6024 0.0
C333 C 0.33258 0.86163 0.5692 0.0
C334 C 0.34699 0.86805 0.57663 0.0
C335 C 0.34848 0.8712 0.59709 0.0
C336 C 0.32018 0.85853 0.58274 0.0
H337 H 0.33678 0.87034 0.62565 0.0
C338 C 0.31223 0.86815 0.65775 0.0
O339 O 0.27971 0.90595 0.65715 0.0
O340 O 0.29958 0.90971 0.63567 0.0
N341 N 0.29398 0.85093 0.59037 0.0
C342 C 0.27918 0.84503 0.58557 0.0
C343 C 0.27569 0.84126 0.56567 0.0
C344 C 0.28749 0.84343 0.55097 0.0
C345 C 0.30268 0.84934 0.5563 0.0
C346 C 0.30552 0.85273 0.5764 0.0
H347 H 0.2701 0.84326 0.59683 0.0
O348 O 0.27456 0.89493 0.61449 0.0
O349 O 0.2954 0.87829 0.61478 0.0
O350 O 0.27201 0.87043 0.64473 0.0
O351 O 0.28263 0.84863 0.62949 0.0
C352 C 0.31506 0.85217 0.54244 0.0
C353 C 0.32999 0.85837 0.54888 0.0
H354 H 0.35693 0.87069 0.56676 0.0
H355 H 0.35953 0.87623 0.60292 0.0
H356 H 0.26395 0.83668 0.56167 0.0
H357 H 0.28476 0.84048 0.53564 0.0
H358 H 0.31318 0.84977 0.52677 0.0
H359 H 0.33936 0.86065 0.53806 0.0
Mn360 Mn 0.11379 0.28287 0.62702 0.0
Mn361 Mn 0.14644 0.30323 0.61086 0.0
C362 C 0.11968 0.28318 0.59348 0.0
C363 C 0.08701 0.28286 0.63703 0.0
C364 C 0.14798 0.27009 0.63032 0.0
O365 O 0.12022 0.2966 0.65089 0.0
O366 O 0.13988 0.31163 0.63724 0.0
C367 C 0.13159 0.33553 0.60542 0.0
N368 N 0.14003 0.32278 0.59791 0.0
C369 C 0.14404 0.33656 0.56679 0.0
C370 C 0.13545 0.34989 0.5742 0.0
C371 C 0.1291 0.34932 0.59355 0.0
C372 C 0.14588 0.32305 0.57918 0.0
H373 H 0.12686 0.33519 0.62038 0.0
C374 C 0.1305 0.30804 0.65165 0.0
O375 O 0.09698 0.27179 0.64305 0.0
O376 O 0.09266 0.29404 0.62535 0.0
N377 N 0.15438 0.29665 0.58544 0.0
C378 C 0.162 0.28261 0.58039 0.0
C379 C 0.16901 0.28115 0.56149 0.0
C380 C 0.16844 0.29425 0.54817 0.0
C381 C 0.16059 0.30861 0.55372 0.0
C382 C 0.15369 0.3093 0.57268 0.0
H383 H 0.16283 0.27264 0.59076 0.0
O384 O 0.10996 0.27241 0.60079 0.0
O385 O 0.12506 0.29403 0.60587 0.0
O386 O 0.13288 0.26784 0.63176 0.0
O387 O 0.15432 0.28311 0.62366 0.0
C388 C 0.15943 0.32232 0.54127 0.0
C389 C 0.15096 0.33619 0.54768 0.0
H390 H 0.13364 0.36061 0.56515 0.0
H391 H 0.12243 0.35955 0.59937 0.0
H392 H 0.17505 0.27003 0.5573 0.0
H393 H 0.17408 0.29315 0.53371 0.0
H394 H 0.16489 0.32227 0.52665 0.0
H395 H 0.14991 0.34653 0.53782 0.0
Mn396 Mn 0.71747 0.11365 0.64399 0.0
Mn397 Mn 0.69955 0.14788 0.62769 0.0
C398 C 0.71724 0.11957 0.61052 0.0
C399 C 0.71611 0.08652 0.65332 0.0
C400 C 0.73298 0.1475 0.64524 0.0
O401 O 0.70418 0.12041 0.66785 0.0
O402 O 0.69333 0.14332 0.65565 0.0
C403 C 0.66634 0.13505 0.62806 0.0
N404 N 0.67875 0.14206 0.61804 0.0
C405 C 0.66295 0.14411 0.5882 0.0
C406 C 0.64997 0.13697 0.59822 0.0
C407 C 0.65171 0.13234 0.61821 0.0
C408 C 0.67732 0.14624 0.5987 0.0
H409 H 0.66757 0.13157 0.64346 0.0
C410 C 0.69539 0.13296 0.66958 0.0
O411 O 0.72762 0.09585 0.65956 0.0
O412 O 0.7053 0.09302 0.64195 0.0
N413 N 0.70411 0.15416 0.6009 0.0
C414 C 0.71765 0.16125 0.59354 0.0
C415 C 0.71791 0.16659 0.5737 0.0
C416 C 0.7041 0.16503 0.56184 0.0
C417 C 0.69015 0.15815 0.56993 0.0
C418 C 0.69068 0.15284 0.58969 0.0
H419 H 0.72819 0.16275 0.60271 0.0
O420 O 0.72762 0.10944 0.61776 0.0
O421 O 0.70682 0.12557 0.62297 0.0
O422 O 0.7333 0.13232 0.6491 0.0
O423 O 0.72103 0.15457 0.637 0.0
C424 C 0.67566 0.15654 0.55925 0.0
C425 C 0.66215 0.14932 0.56829 0.0
H426 H 0.63862 0.13501 0.59071 0.0
H427 H 0.64176 0.1268 0.62603 0.0
H428 H 0.72868 0.17202 0.56762 0.0
H429 H 0.70432 0.16926 0.5466 0.0
H430 H 0.6748 0.16075 0.54403 0.0
H431 H 0.65115 0.14798 0.55983 0.0
Mn432 Mn 0.88985 0.27788 0.36463 0.0
Mn433 Mn 0.85977 0.29953 0.38552 0.0
C434 C 0.887 0.27806 0.39874 0.0
C435 C 0.91561 0.27644 0.35138 0.0
C436 C 0.85487 0.26662 0.36631 0.0
O437 O 0.88246 0.29243 0.34208 0.0
O438 O 0.86382 0.30728 0.35801 0.0
C439 C 0.87635 0.33124 0.38753 0.0
N440 N 0.86826 0.319 0.39673 0.0
C441 C 0.86845 0.33331 0.42789 0.0
C442 C 0.87671 0.34612 0.41874 0.0
C443 C 0.88076 0.34504 0.3985 0.0
C444 C 0.86454 0.3198 0.41626 0.0
H445 H 0.87937 0.3305 0.37193 0.0
C446 C 0.87216 0.30385 0.34258 0.0
O447 O 0.90457 0.26608 0.34639 0.0
O448 O 0.9116 0.28773 0.36389 0.0
N449 N 0.85429 0.29375 0.41222 0.0
C450 C 0.84676 0.28013 0.41893 0.0
C451 C 0.84211 0.27915 0.43897 0.0
C452 C 0.84491 0.29231 0.45178 0.0
C453 C 0.85247 0.30629 0.44447 0.0
C454 C 0.85694 0.30652 0.4244 0.0
H455 H 0.84432 0.27009 0.40907 0.0
O456 O 0.89519 0.26673 0.39001 0.0
O457 O 0.88112 0.28938 0.38732 0.0
O458 O 0.86955 0.26414 0.36182 0.0
O459 O 0.8499 0.27956 0.37478 0.0
C460 C 0.8558 0.32 0.45631 0.0
C461 C 0.86394 0.33342 0.44808 0.0
H462 H 0.88005 0.35682 0.42713 0.0
H463 H 0.88717 0.35485 0.39134 0.0
H464 H 0.83626 0.26833 0.44449 0.0
H465 H 0.84122 0.29152 0.4672 0.0
H466 H 0.85228 0.3203 0.47181 0.0
H467 H 0.86666 0.34377 0.45742 0.0
Mn468 Mn 0.71657 0.88753 0.36065 0.0
Mn469 Mn 0.69886 0.85306 0.37623 0.0
C470 C 0.71651 0.88124 0.3941 0.0
C471 C 0.71428 0.91467 0.35163 0.0
C472 C 0.73171 0.85404 0.3565 0.0
O473 O 0.70341 0.88048 0.33675 0.0
O474 O 0.69012 0.85922 0.34978 0.0
C475 C 0.66581 0.86554 0.38174 0.0
N476 N 0.67908 0.85807 0.38925 0.0
C477 C 0.66624 0.8542 0.42096 0.0
C478 C 0.6524 0.86178 0.41354 0.0
C479 C 0.65222 0.86754 0.39386 0.0
C480 C 0.67946 0.85268 0.40822 0.0
H481 H 0.66562 0.86993 0.3666 0.0
C482 C 0.69298 0.8692 0.33562 0.0
O483 O 0.72609 0.90577 0.34522 0.0
O484 O 0.70377 0.90774 0.36305 0.0
N485 N 0.70599 0.84556 0.40164 0.0
C486 C 0.72042 0.83889 0.40663 0.0
C487 C 0.72258 0.83243 0.42575 0.0
C488 C 0.70985 0.83272 0.43945 0.0
C489 C 0.69513 0.83972 0.43402 0.0
C490 C 0.69365 0.84586 0.41471 0.0
H491 H 0.73016 0.83838 0.39605 0.0
O492 O 0.72663 0.89173 0.38704 0.0
O493 O 0.70633 0.87516 0.38146 0.0
O494 O 0.7328 0.86944 0.35512 0.0
O495 O 0.71934 0.84679 0.36345 0.0
C496 C 0.68185 0.84078 0.44696 0.0
C497 C 0.66747 0.84815 0.4405 0.0
H498 H 0.64187 0.8633 0.42283 0.0
H499 H 0.6416 0.87345 0.38805 0.0
H500 H 0.73398 0.82708 0.42986 0.0
H501 H 0.71151 0.82746 0.45406 0.0
H502 H 0.68258 0.83604 0.46196 0.0
H503 H 0.65741 0.84907 0.45066 0.0
Mn504 Mn 0.10789 0.71547 0.36623 0.0
Mn505 Mn 0.13854 0.69816 0.39155 0.0
C506 C 0.10941 0.71861 0.40023 0.0
C507 C 0.08242 0.71397 0.352 0.0
C508 C 0.14198 0.72946 0.36832 0.0
O509 O 0.11701 0.69954 0.34626 0.0
O510 O 0.13646 0.6881 0.36476 0.0
C511 C 0.12406 0.66559 0.39623 0.0
N512 N 0.13089 0.67901 0.40446 0.0
C513 C 0.12951 0.6674 0.43724 0.0
C514 C 0.12255 0.6534 0.42912 0.0
C515 C 0.11976 0.65252 0.40853 0.0
C516 C 0.13348 0.68005 0.42425 0.0
H517 H 0.12192 0.66487 0.38042 0.0
C518 C 0.12841 0.68941 0.3486 0.0
O519 O 0.09296 0.72446 0.34588 0.0
O520 O 0.08683 0.70415 0.36606 0.0
N521 N 0.14235 0.70629 0.41779 0.0
C522 C 0.14869 0.72085 0.42335 0.0
C523 C 0.15221 0.7237 0.44347 0.0
C524 C 0.14939 0.7115 0.45763 0.0
C525 C 0.14295 0.6966 0.45156 0.0
C526 C 0.13982 0.6944 0.43127 0.0
H527 H 0.151 0.73022 0.41252 0.0
O528 O 0.10093 0.72851 0.38954 0.0
O529 O 0.11648 0.70677 0.39081 0.0
O530 O 0.12745 0.73022 0.36231 0.0
O531 O 0.14739 0.71797 0.37919 0.0
C532 C 0.13932 0.68392 0.46487 0.0
C533 C 0.13252 0.66936 0.45773 0.0
H534 H 0.11922 0.64329 0.43855 0.0
H535 H 0.11433 0.64178 0.40216 0.0
H536 H 0.15714 0.73525 0.44806 0.0
H537 H 0.15216 0.71371 0.47313 0.0
H538 H 0.14152 0.68532 0.48066 0.0
H539 H 0.12959 0.65978 0.46813 0.0
Mn540 Mn 0.28784 0.11302 0.35528 0.0
Mn541 Mn 0.30326 0.14606 0.37789 0.0
C542 C 0.2849 0.11618 0.38915 0.0
C543 C 0.29088 0.08664 0.34351 0.0
C544 C 0.27238 0.1466 0.35381 0.0
O545 O 0.30313 0.12216 0.33457 0.0
O546 O 0.3143 0.1426 0.35198 0.0
C547 C 0.33596 0.13357 0.38592 0.0
N548 N 0.32193 0.14005 0.39267 0.0
C549 C 0.3316 0.14013 0.42641 0.0
C550 C 0.34619 0.13355 0.4198 0.0
C551 C 0.34836 0.13022 0.39948 0.0
C552 C 0.31968 0.14321 0.41221 0.0
H553 H 0.33765 0.13096 0.37032 0.0
C554 C 0.31317 0.13377 0.33634 0.0
O555 O 0.2799 0.09622 0.3364 0.0
O556 O 0.3004 0.0926 0.35691 0.0
N557 N 0.2938 0.1509 0.40314 0.0
C558 C 0.27886 0.15683 0.40714 0.0
C559 C 0.27472 0.16077 0.42679 0.0
C560 C 0.28601 0.1587 0.4421 0.0
C561 C 0.30134 0.15266 0.43762 0.0
C562 C 0.30485 0.14913 0.41772 0.0
H563 H 0.27016 0.15855 0.39543 0.0
O564 O 0.27548 0.1065 0.3794 0.0
O565 O 0.29598 0.12348 0.37885 0.0
O566 O 0.27196 0.13146 0.34991 0.0
O567 O 0.2838 0.1533 0.36352 0.0
C568 C 0.31323 0.14987 0.45214 0.0
C569 C 0.32832 0.14354 0.44655 0.0
H570 H 0.35577 0.1309 0.43021 0.0
H571 H 0.35957 0.12508 0.39428 0.0
H572 H 0.26287 0.16543 0.43014 0.0
H573 H 0.28278 0.16181 0.45722 0.0
H574 H 0.31083 0.15238 0.46767 0.0
H575 H 0.3373 0.14127 0.45787 0.0
Mn576 Mn 0.60531 0.77122 0.84967 0.0
Mn577 Mn 0.63599 0.79123 0.87146 0.0
C578 C 0.6081 0.77039 0.88381 0.0
C579 C 0.57922 0.77166 0.83719 0.0
C580 C 0.63989 0.75904 0.84989 0.0
O581 O 0.61329 0.78623 0.82781 0.0
O582 O 0.63166 0.80069 0.84482 0.0
C583 C 0.62041 0.82318 0.877 0.0
N584 N 0.62826 0.81015 0.88477 0.0
C585 C 0.62826 0.82203 0.91746 0.0
C586 C 0.62025 0.83563 0.9098 0.0
C587 C 0.61626 0.83618 0.8895 0.0
C588 C 0.63207 0.80945 0.90429 0.0
H589 H 0.61734 0.82364 0.8614 0.0
C590 C 0.62349 0.79772 0.82908 0.0
O591 O 0.58954 0.76087 0.83122 0.0
O592 O 0.58421 0.7823 0.84997 0.0
N593 N 0.64161 0.78353 0.89739 0.0
C594 C 0.64863 0.76921 0.90259 0.0
C595 C 0.65322 0.76662 0.92244 0.0
C596 C 0.65071 0.77883 0.93667 0.0
C597 C 0.64348 0.79347 0.93097 0.0
C598 C 0.63931 0.79542 0.91093 0.0
H599 H 0.65075 0.75984 0.89169 0.0
O600 O 0.59954 0.75956 0.87468 0.0
O601 O 0.61447 0.78163 0.87275 0.0
O602 O 0.62506 0.75665 0.84597 0.0
O603 O 0.64509 0.77176 0.85862 0.0
C604 C 0.64006 0.80611 0.94442 0.0
C605 C 0.63239 0.82035 0.93768 0.0
H606 H 0.617 0.84567 0.91939 0.0
H607 H 0.61002 0.8466 0.88349 0.0
H608 H 0.65876 0.75528 0.92674 0.0
H609 H 0.65434 0.77683 0.95193 0.0
H610 H 0.64306 0.8049 0.96003 0.0
H611 H 0.6296 0.82989 0.94822 0.0
Mn612 Mn 0.21984 0.61798 0.85832 0.0
Mn613 Mn 0.25583 0.60266 0.87156 0.0
C614 C 0.2415 0.63524 0.86223 0.0
C615 C 0.20121 0.62404 0.83363 0.0
C616 C 0.22842 0.608 0.90066 0.0
O617 O 0.2171 0.59377 0.85377 0.0
O618 O 0.2423 0.58525 0.85987 0.0
C619 C 0.26828 0.59484 0.83145 0.0
N620 N 0.26999 0.60257 0.84923 0.0
C621 C 0.29626 0.61224 0.84022 0.0
C622 C 0.29484 0.60432 0.82184 0.0
C623 C 0.28074 0.59567 0.8174 0.0
C624 C 0.28336 0.61117 0.85351 0.0
H625 H 0.25752 0.58808 0.82807 0.0
C626 C 0.2278 0.58272 0.85434 0.0
O627 O 0.19679 0.6219 0.85197 0.0
O628 O 0.21637 0.62239 0.82965 0.0
N629 N 0.2704 0.61795 0.88302 0.0
C630 C 0.2696 0.62537 0.90111 0.0
C631 C 0.2827 0.63458 0.9078 0.0
C632 C 0.29657 0.63583 0.89601 0.0
C633 C 0.2971 0.62811 0.87744 0.0
C634 C 0.28366 0.61915 0.87152 0.0
H635 H 0.2591 0.62417 0.91042 0.0
O636 O 0.22691 0.64078 0.86247 0.0
O637 O 0.24305 0.61976 0.8589 0.0
O638 O 0.2187 0.61454 0.88838 0.0
O639 O 0.24225 0.60261 0.89569 0.0
C640 C 0.31047 0.62887 0.8646 0.0
C641 C 0.30997 0.62113 0.8459 0.0
H642 H 0.30447 0.60484 0.81102 0.0
H643 H 0.27953 0.58956 0.80323 0.0
H644 H 0.28219 0.64054 0.92213 0.0
H645 H 0.30674 0.64276 0.90138 0.0
H646 H 0.32115 0.63551 0.86889 0.0
H647 H 0.32021 0.62204 0.83603 0.0
Mn648 Mn 0.39176 0.22371 0.85007 0.0
Mn649 Mn 0.35746 0.20807 0.86887 0.0
C650 C 0.38725 0.22512 0.88389 0.0
C651 C 0.41825 0.22015 0.83984 0.0
C652 C 0.35911 0.24016 0.8467 0.0
O653 O 0.38343 0.20949 0.82771 0.0
O654 O 0.36227 0.19774 0.84281 0.0
C655 C 0.3675 0.17415 0.87608 0.0
N656 N 0.36117 0.18832 0.88293 0.0
C657 C 0.35606 0.17664 0.91512 0.0
C658 C 0.36245 0.16189 0.90838 0.0
C659 C 0.36823 0.16066 0.8888 0.0
C660 C 0.35552 0.18963 0.90172 0.0
H661 H 0.37192 0.17317 0.86102 0.0
C662 C 0.37185 0.19936 0.82801 0.0
O663 O 0.40952 0.23195 0.83295 0.0
O664 O 0.41145 0.21028 0.85227 0.0
N665 N 0.35132 0.21683 0.89409 0.0
C666 C 0.34722 0.23235 0.89885 0.0
C667 C 0.34202 0.23591 0.91824 0.0
C668 C 0.34096 0.22346 0.93245 0.0
C669 C 0.34522 0.20758 0.92719 0.0
C670 C 0.35025 0.20475 0.90762 0.0
H671 H 0.34797 0.24194 0.88795 0.0
O672 O 0.3974 0.23481 0.87535 0.0
O673 O 0.38006 0.21464 0.87238 0.0
O674 O 0.3743 0.24068 0.84436 0.0
O675 O 0.35187 0.22835 0.85506 0.0
C676 C 0.3452 0.19456 0.94077 0.0
C677 C 0.35063 0.1791 0.93474 0.0
H678 H 0.36315 0.15149 0.91818 0.0
H679 H 0.37325 0.14933 0.88353 0.0
H680 H 0.33886 0.24821 0.92223 0.0
H681 H 0.33707 0.22628 0.94743 0.0
H682 H 0.3414 0.19639 0.95602 0.0
H683 H 0.35088 0.16928 0.94543 0.0
Mn684 Mn 0.77929 0.38205 0.8529 0.0
Mn685 Mn 0.74106 0.39309 0.86316 0.0
C686 C 0.75966 0.36253 0.85579 0.0
C687 C 0.79994 0.37753 0.83034 0.0
C688 C 0.76706 0.391 0.89452 0.0
O689 O 0.77939 0.40618 0.84707 0.0
O690 O 0.75353 0.41217 0.85364 0.0
C691 C 0.73122 0.40033 0.82179 0.0
N692 N 0.72896 0.39198 0.83904 0.0
C693 C 0.70601 0.3781 0.82551 0.0
C694 C 0.70802 0.38663 0.80764 0.0
C695 C 0.72071 0.39776 0.80576 0.0
C696 C 0.71691 0.3811 0.84093 0.0
H697 H 0.74097 0.40888 0.82027 0.0
C698 C 0.76771 0.41613 0.84809 0.0
O699 O 0.80293 0.38073 0.84888 0.0
O700 O 0.78499 0.37724 0.82489 0.0
N701 N 0.72733 0.37608 0.87245 0.0
C702 C 0.72691 0.36902 0.89077 0.0
C703 C 0.71489 0.3576 0.89511 0.0
C704 C 0.70327 0.35377 0.8807 0.0
C705 C 0.70367 0.36154 0.86216 0.0
C706 C 0.71592 0.37284 0.85871 0.0
H707 H 0.73572 0.372 0.90196 0.0
O708 O 0.77469 0.35869 0.85764 0.0
O709 O 0.75651 0.37765 0.85175 0.0
O710 O 0.77825 0.38649 0.88279 0.0
O711 O 0.75272 0.39401 0.88876 0.0
C712 C 0.69239 0.35855 0.84699 0.0
C713 C 0.69363 0.36671 0.82861 0.0
H714 H 0.69992 0.3847 0.79525 0.0
H715 H 0.72238 0.40434 0.79199 0.0
H716 H 0.71458 0.35175 0.90951 0.0
H717 H 0.69407 0.34489 0.88405 0.0
H718 H 0.68273 0.34994 0.84927 0.0
H719 H 0.68498 0.36418 0.817 0.0
Mn720 Mn 0.61072 0.22705 0.14931 0.0
Mn721 Mn 0.64148 0.20473 0.13135 0.0
C722 C 0.61632 0.2275 0.11567 0.0
C723 C 0.5838 0.22869 0.15853 0.0
C724 C 0.646 0.23707 0.15226 0.0
O725 O 0.61571 0.21174 0.17218 0.0
O726 O 0.63495 0.19656 0.15791 0.0
C727 C 0.624 0.17376 0.12606 0.0
N728 N 0.63324 0.18586 0.11839 0.0
C729 C 0.63443 0.17265 0.08652 0.0
C730 C 0.625 0.15998 0.0941 0.0
C731 C 0.61971 0.16058 0.11394 0.0
C732 C 0.63827 0.18549 0.09929 0.0
H733 H 0.61993 0.17417 0.14131 0.0
C734 C 0.62559 0.19994 0.17244 0.0
O735 O 0.59435 0.23875 0.16567 0.0
O736 O 0.589 0.21759 0.14649 0.0
N737 N 0.64923 0.21093 0.10567 0.0
C738 C 0.65775 0.22439 0.10046 0.0
C739 C 0.66401 0.22565 0.08114 0.0
C740 C 0.66159 0.21302 0.06745 0.0
C741 C 0.65268 0.19935 0.07309 0.0
C742 C 0.64694 0.19866 0.09264 0.0
H743 H 0.65985 0.23403 0.11102 0.0
O744 O 0.60788 0.23894 0.1238 0.0
O745 O 0.62086 0.21578 0.12737 0.0
O746 O 0.63114 0.24016 0.15521 0.0
O747 O 0.65101 0.22406 0.14396 0.0
C748 C 0.64922 0.18643 0.06007 0.0
C749 C 0.64002 0.17313 0.06674 0.0
H750 H 0.62167 0.1498 0.0848 0.0
H751 H 0.61238 0.15088 0.11988 0.0
H752 H 0.6708 0.23628 0.07684 0.0
H753 H 0.66656 0.21396 0.05261 0.0
H754 H 0.65344 0.18668 0.04483 0.0
H755 H 0.63726 0.16337 0.05652 0.0
Mn756 Mn 0.77267 0.61696 0.13856 0.0
Mn757 Mn 0.73614 0.60275 0.12545 0.0
C758 C 0.75138 0.63475 0.13509 0.0
C759 C 0.79203 0.62277 0.16244 0.0
C760 C 0.76322 0.60778 0.09604 0.0
O761 O 0.77476 0.59273 0.14354 0.0
O762 O 0.74971 0.58475 0.13561 0.0
C763 C 0.7246 0.59384 0.16563 0.0
N764 N 0.72256 0.60216 0.14833 0.0
C765 C 0.69675 0.61205 0.1589 0.0
C766 C 0.69853 0.60353 0.17683 0.0
C767 C 0.71256 0.59447 0.18025 0.0
C768 C 0.70926 0.61115 0.14503 0.0
H769 H 0.73532 0.58676 0.16822 0.0
C770 C 0.764 0.58184 0.14169 0.0
O771 O 0.7959 0.62028 0.14399 0.0
O772 O 0.77693 0.62159 0.16707 0.0
N773 N 0.72151 0.61857 0.11529 0.0
C774 C 0.72188 0.62637 0.09743 0.0
C775 C 0.7087 0.63587 0.09161 0.0
C776 C 0.69519 0.63702 0.10405 0.0
C777 C 0.69512 0.62893 0.1224 0.0
C778 C 0.7086 0.61965 0.1274 0.0
H779 H 0.73208 0.62524 0.08761 0.0
O780 O 0.7661 0.63989 0.1343 0.0
O781 O 0.74946 0.61931 0.13848 0.0
O782 O 0.77339 0.61328 0.1085 0.0
O783 O 0.74908 0.60327 0.10088 0.0
C784 C 0.68216 0.6296 0.13587 0.0
C785 C 0.68306 0.62134 0.15421 0.0
H786 H 0.68921 0.60389 0.18807 0.0
H787 H 0.71404 0.58789 0.19406 0.0
H788 H 0.70885 0.64211 0.07745 0.0
H789 H 0.68494 0.64413 0.09932 0.0
H790 H 0.67148 0.63653 0.13233 0.0
H791 H 0.67312 0.62215 0.16456 0.0
Mn792 Mn 0.39185 0.77819 0.14608 0.0
Mn793 Mn 0.3578 0.79177 0.12431 0.0
C794 C 0.38901 0.776 0.112 0.0
C795 C 0.4178 0.78296 0.15763 0.0
C796 C 0.35988 0.76016 0.14736 0.0
O797 O 0.38182 0.79238 0.16748 0.0
O798 O 0.36065 0.8024 0.15061 0.0
C799 C 0.3666 0.8261 0.11755 0.0
N800 N 0.36129 0.81163 0.11037 0.0
C801 C 0.35729 0.82291 0.07774 0.0
C802 C 0.36264 0.83798 0.0848 0.0
C803 C 0.36736 0.83956 0.10478 0.0
C804 C 0.35668 0.80997 0.0912 0.0
H805 H 0.3702 0.82735 0.13291 0.0
C806 C 0.36954 0.80158 0.16615 0.0
O807 O 0.40928 0.77099 0.16442 0.0
O808 O 0.411 0.79246 0.14477 0.0
N809 N 0.35339 0.78263 0.09875 0.0
C810 C 0.3502 0.76693 0.09387 0.0
C811 C 0.34609 0.76305 0.07417 0.0
C812 C 0.34516 0.77537 0.05978 0.0
C813 C 0.34846 0.79145 0.06518 0.0
C814 C 0.35242 0.7946 0.08505 0.0
H815 H 0.35084 0.75743 0.1049 0.0
O816 O 0.39913 0.76693 0.12155 0.0
O817 O 0.38083 0.78633 0.12268 0.0
O818 O 0.3749 0.76054 0.15109 0.0
O819 O 0.35255 0.77133 0.13788 0.0
C820 C 0.34851 0.8044 0.0515 0.0
C821 C 0.35294 0.82012 0.05777 0.0
H822 H 0.36335 0.84836 0.07497 0.0
H823 H 0.37157 0.85113 0.11031 0.0
H824 H 0.34366 0.7506 0.07009 0.0
H825 H 0.34212 0.77231 0.04457 0.0
H826 H 0.34554 0.80234 0.03602 0.0
H827 H 0.35327 0.8299 0.04702 0.0
Mn828 Mn 0.21662 0.37847 0.14327 0.0
Mn829 Mn 0.25561 0.38764 0.13534 0.0
C830 C 0.23548 0.35802 0.1426 0.0
C831 C 0.1952 0.37558 0.1651 0.0
C832 C 0.23068 0.3862 0.10243 0.0
O833 O 0.21729 0.40287 0.14737 0.0
O834 O 0.24388 0.40726 0.14457 0.0
C835 C 0.26472 0.39415 0.17713 0.0
N836 N 0.267 0.38578 0.1599 0.0
C837 C 0.28899 0.3708 0.17412 0.0
C838 C 0.28695 0.37934 0.19198 0.0
C839 C 0.27472 0.39102 0.19351 0.0
C840 C 0.27858 0.37435 0.15836 0.0
H841 H 0.25533 0.40314 0.17837 0.0
C842 C 0.22954 0.41213 0.14805 0.0
O843 O 0.1928 0.37818 0.14628 0.0
O844 O 0.20997 0.37509 0.17121 0.0
N845 N 0.26866 0.36994 0.12646 0.0
C846 C 0.26916 0.36291 0.10812 0.0
C847 C 0.28074 0.35095 0.10412 0.0
C848 C 0.29187 0.34657 0.11888 0.0
C849 C 0.2914 0.3543 0.13744 0.0
C850 C 0.27959 0.36612 0.14056 0.0
H851 H 0.26074 0.36633 0.09665 0.0
O852 O 0.22038 0.35473 0.14023 0.0
O853 O 0.23908 0.37313 0.14597 0.0
O854 O 0.21896 0.38164 0.11332 0.0
O855 O 0.24471 0.3893 0.10922 0.0
C856 C 0.30224 0.35077 0.15294 0.0
C857 C 0.30093 0.3589 0.17134 0.0
H858 H 0.29467 0.37699 0.20463 0.0
H859 H 0.27302 0.39761 0.20727 0.0
H860 H 0.2811 0.34514 0.0897 0.0
H861 H 0.30074 0.3373 0.11577 0.0
H862 H 0.31157 0.34176 0.15091 0.0
H863 H 0.30922 0.35594 0.18322 0.0
Mn864 Mn 0.38853 0.22466 0.13205 0.0
Mn865 Mn 0.35954 0.19968 0.11485 0.0
C866 C 0.38353 0.2237 0.09837 0.0
C867 C 0.41494 0.22789 0.14271 0.0
C868 C 0.3527 0.23233 0.1339 0.0
O869 O 0.38352 0.21024 0.15573 0.0
O870 O 0.36641 0.19255 0.14174 0.0
C871 C 0.38001 0.17054 0.11052 0.0
N872 N 0.36991 0.1817 0.10233 0.0
C873 C 0.37206 0.16916 0.07013 0.0
C874 C 0.38242 0.15749 0.07823 0.0
C875 C 0.38646 0.15822 0.0985 0.0
C876 C 0.36622 0.1813 0.08277 0.0
H877 H 0.38315 0.17108 0.12609 0.0
C878 C 0.37479 0.19757 0.15645 0.0
O879 O 0.40368 0.23771 0.14858 0.0
O880 O 0.41078 0.21621 0.13087 0.0
N881 N 0.35132 0.20465 0.08899 0.0
C882 C 0.33974 0.21564 0.0841 0.0
C883 C 0.33377 0.21608 0.06457 0.0
C884 C 0.3394 0.20491 0.05042 0.0
C885 C 0.3507 0.19316 0.05607 0.0
C886 C 0.35615 0.19328 0.07578 0.0
H887 H 0.33515 0.22408 0.09499 0.0
O888 O 0.39165 0.23561 0.10592 0.0
O889 O 0.37925 0.21228 0.11066 0.0
O890 O 0.36733 0.23668 0.13607 0.0
O891 O 0.34835 0.2185 0.12705 0.0
C892 C 0.35641 0.18106 0.04308 0.0
C893 C 0.36717 0.16914 0.05007 0.0
H894 H 0.38731 0.14789 0.06904 0.0
H895 H 0.39448 0.14928 0.10485 0.0
H896 H 0.3248 0.22497 0.06044 0.0
H897 H 0.33478 0.20529 0.03537 0.0
H898 H 0.35253 0.18076 0.0277 0.0
H899 H 0.37149 0.1599 0.03993 0.0
Mn900 Mn 0.78736 0.38527 0.13853 0.0
Mn901 Mn 0.80535 0.35172 0.12043 0.0
C902 C 0.78538 0.37929 0.10509 0.0
C903 C 0.78877 0.41242 0.14773 0.0
C904 C 0.77373 0.35101 0.14289 0.0
O905 O 0.80251 0.37874 0.16075 0.0
O906 O 0.81498 0.35751 0.14653 0.0
C907 C 0.83758 0.3657 0.11324 0.0
N908 N 0.82432 0.35784 0.10634 0.0
C909 C 0.83594 0.35514 0.07375 0.0
C910 C 0.84976 0.36314 0.08052 0.0
C911 C 0.85055 0.36851 0.10033 0.0
C912 C 0.82334 0.35283 0.08724 0.0
H913 H 0.83824 0.36978 0.12849 0.0
C914 C 0.81294 0.36743 0.16096 0.0
O915 O 0.77812 0.40277 0.15544 0.0
O916 O 0.79872 0.40623 0.13497 0.0
N917 N 0.79744 0.34449 0.09527 0.0
C918 C 0.78313 0.33722 0.09104 0.0
C919 C 0.78047 0.33094 0.07193 0.0
C920 C 0.79259 0.332 0.05747 0.0
C921 C 0.80718 0.33963 0.06212 0.0
C922 C 0.80919 0.34555 0.08146 0.0
H923 H 0.77388 0.3361 0.1022 0.0
O924 O 0.77524 0.38912 0.11344 0.0
O925 O 0.79672 0.37361 0.11645 0.0
O926 O 0.77246 0.3663 0.14544 0.0
O927 O 0.78571 0.34436 0.13422 0.0
C928 C 0.81984 0.34149 0.04838 0.0
C929 C 0.83415 0.34938 0.05414 0.0
H930 H 0.85982 0.36526 0.07063 0.0
H931 H 0.86116 0.37473 0.10566 0.0
H932 H 0.76918 0.3251 0.06842 0.0
H933 H 0.79059 0.32683 0.04289 0.0
H934 H 0.81868 0.33698 0.03333 0.0
H935 H 0.84372 0.35091 0.04338 0.0
Mn936 Mn 0.61403 0.78599 0.12962 0.0
Mn937 Mn 0.64575 0.80453 0.10804 0.0
C938 C 0.61781 0.78361 0.09584 0.0
C939 C 0.58776 0.787 0.14148 0.0
C940 C 0.64841 0.77239 0.12951 0.0
O941 O 0.62146 0.80145 0.15099 0.0
O942 O 0.64239 0.81305 0.13548 0.0
C943 C 0.63092 0.8371 0.10523 0.0
N944 N 0.63828 0.82425 0.09632 0.0
C945 C 0.63766 0.83755 0.06448 0.0
C946 C 0.63016 0.85096 0.07333 0.0
C947 C 0.62673 0.8507 0.09379 0.0
C948 C 0.64148 0.82431 0.07663 0.0
H949 H 0.62825 0.83695 0.12095 0.0
C950 C 0.63319 0.81133 0.15059 0.0
O951 O 0.59794 0.77638 0.14819 0.0
O952 O 0.59294 0.79707 0.12812 0.0
N953 N 0.65084 0.798 0.08148 0.0
C954 C 0.65789 0.784 0.07518 0.0
C955 C 0.6623 0.78238 0.05513 0.0
C956 C 0.65954 0.79521 0.0418 0.0
C957 C 0.65231 0.8095 0.04863 0.0
C958 C 0.64839 0.81051 0.06884 0.0
H959 H 0.66014 0.77415 0.08538 0.0
O960 O 0.60883 0.77339 0.10539 0.0
O961 O 0.62392 0.79548 0.10624 0.0
O962 O 0.63367 0.77151 0.13478 0.0
O963 O 0.6542 0.78413 0.11934 0.0
C964 C 0.64878 0.82276 0.03615 0.0
C965 C 0.64137 0.83674 0.04405 0.0
H966 H 0.62693 0.86148 0.06455 0.0
H967 H 0.62089 0.86098 0.10072 0.0
H968 H 0.66786 0.77128 0.04995 0.0
H969 H 0.66299 0.79394 0.02635 0.0
H970 H 0.6516 0.82228 0.02043 0.0
H971 H 0.63858 0.8468 0.03428 0.0
Mn972 Mn 0.22103 0.61203 0.1444 0.0
Mn973 Mn 0.20415 0.64732 0.13006 0.0
C974 C 0.22036 0.61881 0.11107 0.0
C975 C 0.21873 0.58477 0.15281 0.0
C976 C 0.23737 0.64499 0.14851 0.0
O977 O 0.20839 0.61899 0.16882 0.0
O978 O 0.19595 0.64115 0.15677 0.0
C979 C 0.17052 0.63614 0.12585 0.0
N980 N 0.18384 0.64319 0.11785 0.0
C981 C 0.17027 0.64785 0.08679 0.0
C982 C 0.15638 0.64072 0.09471 0.0
C983 C 0.15653 0.63478 0.1143 0.0
C984 C 0.18388 0.64877 0.09896 0.0
H985 H 0.17059 0.63161 0.14092 0.0
C986 C 0.19851 0.63073 0.17055 0.0
O987 O 0.23064 0.59353 0.15911 0.0
O988 O 0.20797 0.59195 0.14195 0.0
N989 N 0.21083 0.65481 0.10445 0.0
C990 C 0.22536 0.66092 0.0989 0.0
C991 C 0.22724 0.66744 0.07976 0.0
C992 C 0.21413 0.66778 0.06663 0.0
C993 C 0.1993 0.66133 0.07264 0.0
C994 C 0.19812 0.6551 0.09194 0.0
H995 H 0.23542 0.66093 0.10903 0.0
O996 O 0.23046 0.60807 0.11758 0.0
O997 O 0.21062 0.62497 0.12419 0.0
O998 O 0.2378 0.62958 0.14983 0.0
O999 O 0.22519 0.65278 0.14197 0.0
C1000 C 0.18564 0.66089 0.06027 0.0
C1001 C 0.17118 0.65402 0.06728 0.0
H1002 H 0.14555 0.63969 0.08586 0.0
H1003 H 0.14587 0.62922 0.1205 0.0
H1004 H 0.23872 0.67236 0.0752 0.0
H1005 H 0.21558 0.67307 0.05201 0.0
H1006 H 0.18614 0.6657 0.04529 0.0
H1007 H 0.16082 0.65357 0.05754 0.0
Mn1008 Mn 0.38615 0.77849 0.8634 0.0
Mn1009 Mn 0.35714 0.8011 0.88509 0.0
C1010 C 0.38296 0.77763 0.8974 0.0
C1011 C 0.41196 0.77619 0.8504 0.0
C1012 C 0.35043 0.76883 0.86551 0.0
O1013 O 0.38001 0.79411 0.84149 0.0
O1014 O 0.36044 0.80795 0.85701 0.0
C1015 C 0.37611 0.83148 0.88505 0.0
N1016 N 0.36771 0.81997 0.8952 0.0
C1017 C 0.37274 0.83338 0.92637 0.0
C1018 C 0.38138 0.84541 0.91623 0.0
C1019 C 0.38312 0.84441 0.89549 0.0
C1020 C 0.36628 0.82061 0.91521 0.0
H1021 H 0.37748 0.83078 0.8691 0.0
C1022 C 0.36914 0.80492 0.84178 0.0
O1023 O 0.4005 0.76654 0.84474 0.0
O1024 O 0.40837 0.78714 0.86354 0.0
N1025 N 0.35205 0.79644 0.91225 0.0
C1026 C 0.34142 0.78526 0.91932 0.0
C1027 C 0.33759 0.78507 0.93967 0.0
C1028 C 0.34429 0.79672 0.95243 0.0
C1029 C 0.3544 0.80873 0.94461 0.0
C1030 C 0.35776 0.80831 0.9242 0.0
H1031 H 0.33604 0.77643 0.90955 0.0
O1032 O 0.39065 0.76619 0.88822 0.0
O1033 O 0.37784 0.78964 0.8865 0.0
O1034 O 0.36487 0.76633 0.85972 0.0
O1035 O 0.34606 0.78134 0.87545 0.0
C1036 C 0.36076 0.82146 0.95614 0.0
C1037 C 0.37008 0.83368 0.94706 0.0
H1038 H 0.38667 0.8555 0.92421 0.0
H1039 H 0.3898 0.85363 0.88756 0.0
H1040 H 0.32946 0.77599 0.94548 0.0
H1041 H 0.34131 0.79655 0.96811 0.0
H1042 H 0.35847 0.82204 0.97199 0.0
H1043 H 0.37491 0.84341 0.95608 0.0
Mn1044 Mn 0.21749 0.38502 0.85752 0.0
Mn1045 Mn 0.20293 0.34923 0.87376 0.0
C1046 C 0.21948 0.3784 0.89078 0.0
C1047 C 0.21341 0.4121 0.84923 0.0
C1048 C 0.2347 0.35266 0.8519 0.0
O1049 O 0.20352 0.37742 0.83458 0.0
O1050 O 0.19269 0.35494 0.848 0.0
C1051 C 0.16937 0.35929 0.88151 0.0
N1052 N 0.18342 0.35272 0.88807 0.0
C1053 C 0.17217 0.34758 0.92042 0.0
C1054 C 0.15755 0.35422 0.914 0.0
C1055 C 0.15617 0.36017 0.89449 0.0
C1056 C 0.18494 0.34716 0.90688 0.0
H1057 H 0.16826 0.36382 0.8665 0.0
C1058 C 0.19396 0.36535 0.83396 0.0
O1059 O 0.22526 0.40385 0.84177 0.0
O1060 O 0.20377 0.40451 0.86122 0.0
N1061 N 0.2116 0.34206 0.89857 0.0
C1062 C 0.22665 0.3364 0.90255 0.0
C1063 C 0.23001 0.32988 0.92137 0.0
C1064 C 0.21785 0.32906 0.9358 0.0
C1065 C 0.20248 0.33505 0.93142 0.0
C1066 C 0.19981 0.34132 0.91236 0.0
H1067 H 0.23598 0.33673 0.8914 0.0
O1068 O 0.2286 0.38955 0.88316 0.0
O1069 O 0.20906 0.37181 0.87884 0.0
O1070 O 0.23452 0.36808 0.85047 0.0
O1071 O 0.22326 0.34448 0.85967 0.0
C1072 C 0.18969 0.33499 0.94515 0.0
C1073 C 0.17459 0.34139 0.93972 0.0
H1074 H 0.14732 0.35486 0.92393 0.0
H1075 H 0.14495 0.36536 0.88944 0.0
H1076 H 0.24191 0.32531 0.92467 0.0
H1077 H 0.22044 0.32372 0.95015 0.0
H1078 H 0.19134 0.33013 0.95997 0.0
H1079 H 0.16491 0.34145 0.95049 0.0
Mn1080 Mn 0.61269 0.21851 0.86882 0.0
Mn1081 Mn 0.64446 0.20187 0.8926 0.0
C1082 C 0.61505 0.22156 0.90266 0.0
C1083 C 0.58707 0.21617 0.8553 0.0
C1084 C 0.64648 0.23288 0.86866 0.0
O1085 O 0.62175 0.2027 0.84861 0.0
O1086 O 0.64144 0.19092 0.86653 0.0
C1087 C 0.6308 0.16929 0.90005 0.0
N1088 N 0.63762 0.18316 0.90707 0.0
C1089 C 0.63727 0.17304 0.94064 0.0
C1090 C 0.63034 0.15859 0.93375 0.0
C1091 C 0.62704 0.15673 0.91338 0.0
C1092 C 0.64075 0.18512 0.92665 0.0
H1093 H 0.62824 0.16785 0.8844 0.0
C1094 C 0.63299 0.19235 0.85071 0.0
O1095 O 0.59714 0.22704 0.84897 0.0
O1096 O 0.59199 0.20652 0.86929 0.0
N1097 N 0.64902 0.21115 0.91807 0.0
C1098 C 0.65512 0.22608 0.92237 0.0
C1099 C 0.65895 0.22996 0.94215 0.0
C1100 C 0.65664 0.21842 0.95724 0.0
C1101 C 0.65042 0.20311 0.95244 0.0
C1102 C 0.64697 0.19987 0.93244 0.0
H1103 H 0.65705 0.23496 0.91082 0.0
O1104 O 0.60592 0.23124 0.89246 0.0
O1105 O 0.62221 0.21002 0.89281 0.0
O1106 O 0.63159 0.23397 0.86441 0.0
O1107 O 0.65263 0.22118 0.87849 0.0
C1108 C 0.6473 0.19102 0.96673 0.0
C1109 C 0.64067 0.17602 0.96085 0.0
H1110 H 0.62739 0.14889 0.94399 0.0
H1111 H 0.62162 0.14565 0.90797 0.0
H1112 H 0.66373 0.24181 0.94575 0.0
H1113 H 0.65965 0.22144 0.97246 0.0
H1114 H 0.64975 0.19322 0.98233 0.0
H1115 H 0.63811 0.1669 0.97201 0.0
Mn1116 Mn 0.78365 0.61216 0.85144 0.0
Mn1117 Mn 0.80008 0.64517 0.873 0.0
C1118 C 0.78158 0.61563 0.88531 0.0
C1119 C 0.78631 0.58571 0.83991 0.0
C1120 C 0.76844 0.64589 0.85055 0.0
O1121 O 0.79845 0.6209 0.83006 0.0
O1122 O 0.81007 0.64162 0.84644 0.0
C1123 C 0.83292 0.63233 0.87907 0.0
N1124 N 0.81925 0.63897 0.88665 0.0
C1125 C 0.83022 0.63891 0.91976 0.0
C1126 C 0.84446 0.63216 0.91229 0.0
C1127 C 0.8458 0.62882 0.89186 0.0
C1128 C 0.81781 0.64215 0.90629 0.0
H1129 H 0.83397 0.6297 0.86338 0.0
C1130 C 0.80843 0.6326 0.83105 0.0
O1131 O 0.77522 0.59525 0.83297 0.0
O1132 O 0.79606 0.5917 0.85302 0.0
N1133 N 0.7917 0.65017 0.89879 0.0
C1134 C 0.77702 0.65632 0.90367 0.0
C1135 C 0.7737 0.66029 0.92355 0.0
C1136 C 0.78553 0.65802 0.93818 0.0
C1137 C 0.80059 0.65181 0.93278 0.0
C1138 C 0.80328 0.64826 0.91268 0.0
H1139 H 0.76789 0.65818 0.89249 0.0
O1140 O 0.77181 0.60598 0.87604 0.0
O1141 O 0.79251 0.6227 0.87453 0.0
O1142 O 0.76784 0.63078 0.84647 0.0
O1143 O 0.78014 0.65248 0.85983 0.0
C1144 C 0.81299 0.64885 0.94657 0.0
C1145 C 0.82777 0.64234 0.94008 0.0
H1146 H 0.8544 0.62939 0.92212 0.0
H1147 H 0.85673 0.62355 0.886 0.0
H1148 H 0.76205 0.66509 0.9276 0.0
H1149 H 0.78292 0.66112 0.95349 0.0
H1150 H 0.81123 0.65137 0.96223 0.0
H1151 H 0.83716 0.63995 0.95085 0.0
H1152 H 0.26955 0.17956 0.35711 0.0
H1153 H 0.24616 0.19626 0.34954 0.0
H1154 H 0.22052 0.154 0.32917 0.0
H1155 H 0.24388 0.13703 0.33677 0.0
H1156 H 0.22845 0.20013 0.31237 0.0
H1157 H 0.19183 0.17393 0.37391 0.0
H1158 H 0.21338 0.17156 0.37282 0.0
H1159 H 0.20075 0.16003 0.35647 0.0
C1160 C 0.25901 0.17376 0.35089 0.0
C1161 C 0.25861 0.15689 0.34769 0.0
C1162 C 0.24566 0.18336 0.34654 0.0
C1163 C 0.23159 0.17633 0.33901 0.0
C1164 C 0.23123 0.15961 0.3352 0.0
H1165 H 0.13957 0.2289 0.3334 0.0
H1166 H 0.15944 0.20737 0.328 0.0
C1167 C 0.24463 0.14996 0.33949 0.0
C1168 C 0.2172 0.18658 0.33593 0.0
H1169 H 0.1807 0.1957 0.35621 0.0
C1170 C 0.21791 0.19904 0.32175 0.0
C1171 C 0.20343 0.18504 0.34811 0.0
C1172 C 0.20221 0.172 0.36379 0.0
C1173 C 0.20541 0.21037 0.31988 0.0
C1174 C 0.19204 0.20939 0.33283 0.0
C1175 C 0.19097 0.19643 0.34631 0.0
C1176 C 0.18 0.22259 0.3342 0.0
C1177 C 0.20676 0.22344 0.30428 0.0
C1178 C 0.18498 0.23825 0.33952 0.0
C1179 C 0.17373 0.25052 0.34264 0.0
C1180 C 0.15718 0.24741 0.34065 0.0
C1181 C 0.15221 0.23175 0.33498 0.0
C1182 C 0.16353 0.21942 0.3319 0.0
H1183 H 0.21436 0.21942 0.29161 0.0
H1184 H 0.19477 0.227 0.2985 0.0
H1185 H 0.21252 0.2343 0.31093 0.0
H1186 H 0.19758 0.24088 0.34187 0.0
H1187 H 0.17805 0.26237 0.34704 0.0
H1188 H 0.74402 0.16245 0.38566 0.0
H1189 H 0.76434 0.18398 0.38436 0.0
H1190 H 0.78079 0.16591 0.32766 0.0
H1191 H 0.76024 0.14451 0.32885 0.0
H1192 H 0.79768 0.18061 0.38191 0.0
H1193 H 0.77306 0.21448 0.31728 0.0
H1194 H 0.76154 0.19948 0.33069 0.0
H1195 H 0.77654 0.19324 0.31308 0.0
C1196 C 0.75206 0.1631 0.373 0.0
C1197 C 0.75104 0.15164 0.35766 0.0
C1198 C 0.7636 0.17535 0.37224 0.0
C1199 C 0.77399 0.17657 0.35587 0.0
C1200 C 0.77276 0.16528 0.34031 0.0
H1201 H 0.86081 0.23573 0.35312 0.0
H1202 H 0.84147 0.21366 0.34904 0.0
C1203 C 0.76123 0.15296 0.34113 0.0
C1204 C 0.78625 0.18955 0.35539 0.0
H1205 H 0.7978 0.22372 0.33048 0.0
C1206 C 0.79782 0.18991 0.37054 0.0
C1207 C 0.78618 0.20186 0.34074 0.0
C1208 C 0.7736 0.20241 0.3246 0.0
C1209 C 0.80942 0.2022 0.3714 0.0
C1210 C 0.8094 0.21445 0.35672 0.0
C1211 C 0.79782 0.21417 0.34157 0.0
C1212 C 0.82088 0.22806 0.35755 0.0
C1213 C 0.82138 0.20227 0.38826 0.0
C1214 C 0.81558 0.2435 0.36328 0.0
C1215 C 0.82658 0.25613 0.36573 0.0
C1216 C 0.84307 0.25356 0.36232 0.0
C1217 C 0.84823 0.23816 0.3559 0.0
C1218 C 0.83721 0.22551 0.35358 0.0
H1219 H 0.81834 0.19324 0.39993 0.0
H1220 H 0.8335 0.19936 0.38236 0.0
H1221 H 0.82198 0.21449 0.39518 0.0
H1222 H 0.80299 0.24564 0.3664 0.0
H1223 H 0.82216 0.26783 0.37061 0.0
H1224 H 0.86172 0.76611 0.33599 0.0
H1225 H 0.84401 0.78958 0.33116 0.0
H1226 H 0.80274 0.75957 0.34331 0.0
H1227 H 0.82013 0.73617 0.34794 0.0
H1228 H 0.79901 0.78117 0.31025 0.0
H1229 H 0.82123 0.81209 0.37869 0.0
H1230 H 0.83585 0.80626 0.36032 0.0
H1231 H 0.82518 0.79093 0.37387 0.0
C1232 C 0.84886 0.76447 0.33742 0.0
C1233 C 0.84238 0.74925 0.34253 0.0
C1234 C 0.83878 0.77791 0.33475 0.0
C1235 C 0.8221 0.77632 0.33712 0.0
C1236 C 0.81559 0.76106 0.34145 0.0
H1237 H 0.733 0.82101 0.3535 0.0
H1238 H 0.75615 0.80421 0.34543 0.0
C1239 C 0.82559 0.74768 0.34417 0.0
C1240 C 0.81122 0.7905 0.33606 0.0
H1241 H 0.79885 0.82342 0.36279 0.0
C1242 C 0.79912 0.79059 0.32153 0.0
C1243 C 0.81146 0.80279 0.35074 0.0
C1244 C 0.82404 0.80308 0.3669 0.0
C1245 C 0.78683 0.80222 0.32181 0.0
C1246 C 0.7865 0.81388 0.33722 0.0
C1247 C 0.79913 0.81442 0.35103 0.0
C1248 C 0.77232 0.82438 0.34062 0.0
C1249 C 0.77405 0.80167 0.30591 0.0
C1250 C 0.77378 0.84133 0.34089 0.0
C1251 C 0.76051 0.85105 0.34558 0.0
C1252 C 0.74561 0.84394 0.35033 0.0
C1253 C 0.74423 0.82694 0.34988 0.0
C1254 C 0.75745 0.81728 0.34511 0.0
H1255 H 0.77862 0.79585 0.29212 0.0
H1256 H 0.76374 0.79439 0.31135 0.0
H1257 H 0.76965 0.81403 0.30224 0.0
H1258 H 0.78522 0.84702 0.33767 0.0
H1259 H 0.76203 0.86409 0.34587 0.0
H1260 H 0.1377 0.75333 0.34038 0.0
H1261 H 0.15537 0.77635 0.33343 0.0
H1262 H 0.18841 0.75952 0.37836 0.0
H1263 H 0.17123 0.73625 0.38482 0.0
H1264 H 0.16309 0.80009 0.35729 0.0
H1265 H 0.21938 0.7698 0.3351 0.0
H1266 H 0.20058 0.759 0.33692 0.0
H1267 H 0.21273 0.76238 0.35874 0.0
C1268 C 0.14885 0.7544 0.34858 0.0
C1269 C 0.15303 0.74291 0.36316 0.0
C1270 C 0.15895 0.76756 0.34457 0.0
C1271 C 0.17338 0.76953 0.3551 0.0
C1272 C 0.17761 0.75802 0.36957 0.0
H1273 H 0.24336 0.84101 0.38273 0.0
H1274 H 0.2239 0.81876 0.38102 0.0
C1275 C 0.16766 0.74477 0.37339 0.0
C1276 C 0.18333 0.78431 0.35234 0.0
H1277 H 0.22204 0.79735 0.34713 0.0
C1278 C 0.17594 0.7995 0.35467 0.0
C1279 C 0.20008 0.78357 0.3488 0.0
C1280 C 0.2086 0.7678 0.34453 0.0
C1281 C 0.18496 0.81388 0.35466 0.0
C1282 C 0.20181 0.81305 0.3524 0.0
C1283 C 0.20912 0.79794 0.3492 0.0
C1284 C 0.21224 0.82754 0.35435 0.0
C1285 C 0.17652 0.82975 0.35813 0.0
C1286 C 0.21198 0.83999 0.34009 0.0
C1287 C 0.22306 0.85275 0.34113 0.0
C1288 C 0.23442 0.85329 0.35655 0.0
C1289 C 0.23448 0.84099 0.37095 0.0
C1290 C 0.22343 0.82828 0.36993 0.0
H1291 H 0.1636 0.82816 0.36176 0.0
H1292 H 0.18242 0.83623 0.37055 0.0
H1293 H 0.17747 0.83738 0.3446 0.0
H1294 H 0.20366 0.83949 0.32772 0.0
H1295 H 0.22322 0.86179 0.32944 0.0
H1296 H 0.14126 0.76977 0.66414 0.0
H1297 H 0.15987 0.7923 0.67007 0.0
H1298 H 0.19969 0.76179 0.65324 0.0
H1299 H 0.18141 0.73926 0.6476 0.0
H1300 H 0.20597 0.78136 0.68666 0.0
H1301 H 0.18064 0.81683 0.62342 0.0
H1302 H 0.16689 0.81078 0.64267 0.0
H1303 H 0.17601 0.79567 0.62711 0.0
C1304 C 0.154 0.76779 0.66194 0.0
C1305 C 0.15979 0.75271 0.65519 0.0
C1306 C 0.16459 0.78071 0.66523 0.0
C1307 C 0.18111 0.77876 0.66178 0.0
C1308 C 0.18697 0.76356 0.65594 0.0
H1309 H 0.26961 0.82238 0.6394 0.0
H1310 H 0.24667 0.80564 0.6486 0.0
C1311 C 0.17646 0.75068 0.65266 0.0
C1312 C 0.19242 0.79259 0.66311 0.0
H1313 H 0.20393 0.82691 0.63851 0.0
C1314 C 0.20539 0.79147 0.67637 0.0
C1315 C 0.19159 0.8058 0.6497 0.0
C1316 C 0.17812 0.80739 0.6348 0.0
C1317 C 0.21795 0.80282 0.67596 0.0
C1318 C 0.21758 0.81545 0.66177 0.0
C1319 C 0.20415 0.81717 0.64935 0.0
C1320 C 0.23178 0.82577 0.65791 0.0
C1321 C 0.23174 0.80092 0.69032 0.0
C1322 C 0.23095 0.84268 0.65989 0.0
C1323 C 0.2441 0.85236 0.65463 0.0
C1324 C 0.2582 0.84526 0.64698 0.0
C1325 C 0.25897 0.82828 0.64521 0.0
C1326 C 0.24591 0.81866 0.65062 0.0
H1327 H 0.22806 0.79407 0.70381 0.0
H1328 H 0.24155 0.79405 0.68297 0.0
H1329 H 0.23655 0.81291 0.69493 0.0
H1330 H 0.22006 0.84839 0.6653 0.0
H1331 H 0.24306 0.8654 0.65609 0.0
H1332 H 0.25293 0.16077 0.61078 0.0
H1333 H 0.23366 0.18313 0.61258 0.0
H1334 H 0.22156 0.16918 0.6727 0.0
H1335 H 0.23991 0.14602 0.67013 0.0
H1336 H 0.19609 0.17741 0.65619 0.0
H1337 H 0.23939 0.22545 0.63748 0.0
H1338 H 0.2387 0.21119 0.61747 0.0
H1339 H 0.24566 0.20483 0.6417 0.0
C1340 C 0.24599 0.16247 0.62425 0.0
C1341 C 0.24749 0.15159 0.64012 0.0
C1342 C 0.23518 0.17538 0.62544 0.0
C1343 C 0.22645 0.17821 0.643 0.0
C1344 C 0.22816 0.16735 0.659 0.0
H1345 H 0.17662 0.27152 0.64981 0.0
H1346 H 0.19516 0.24907 0.65638 0.0
C1347 C 0.23858 0.15411 0.65754 0.0
C1348 C 0.21522 0.19219 0.64443 0.0
H1349 H 0.21145 0.23234 0.63312 0.0
C1350 C 0.19952 0.18945 0.65132 0.0
C1351 C 0.21976 0.20812 0.63887 0.0
C1352 C 0.23686 0.21258 0.63372 0.0
C1353 C 0.18808 0.20194 0.65193 0.0
C1354 C 0.19221 0.21748 0.64453 0.0
C1355 C 0.2081 0.22039 0.63845 0.0
C1356 C 0.18026 0.23077 0.64236 0.0
C1357 C 0.17182 0.19829 0.66081 0.0
C1358 C 0.16563 0.22803 0.63246 0.0
C1359 C 0.15483 0.24073 0.62935 0.0
C1360 C 0.15873 0.25654 0.63537 0.0
C1361 C 0.17337 0.25939 0.64509 0.0
C1362 C 0.18395 0.24658 0.64878 0.0
H1363 H 0.17271 0.18868 0.67235 0.0
H1364 H 0.16634 0.20922 0.66764 0.0
H1365 H 0.16372 0.19369 0.64898 0.0
H1366 H 0.16273 0.21616 0.62661 0.0
H1367 H 0.14374 0.23833 0.62145 0.0
H1368 H 0.73586 0.18047 0.64296 0.0
H1369 H 0.75954 0.19693 0.64979 0.0
H1370 H 0.78622 0.154 0.66554 0.0
H1371 H 0.76251 0.13725 0.6587 0.0
H1372 H 0.77872 0.19838 0.68699 0.0
H1373 H 0.81279 0.17729 0.62038 0.0
H1374 H 0.79127 0.17495 0.62225 0.0
H1375 H 0.80428 0.1623 0.63678 0.0
C1376 C 0.74671 0.17445 0.64793 0.0
C1377 C 0.74726 0.15749 0.65018 0.0
C1378 C 0.76022 0.18391 0.65188 0.0
C1379 C 0.77461 0.17665 0.65803 0.0
C1380 C 0.77522 0.15979 0.66064 0.0
H1381 H 0.86425 0.2335 0.65908 0.0
H1382 H 0.84626 0.21047 0.66528 0.0
C1383 C 0.76165 0.15027 0.65678 0.0
C1384 C 0.78895 0.18693 0.66114 0.0
H1385 H 0.82371 0.19888 0.63858 0.0
C1386 C 0.78871 0.19833 0.67662 0.0
C1387 C 0.80201 0.1867 0.64771 0.0
C1388 C 0.80271 0.17473 0.63075 0.0
C1389 C 0.80086 0.21002 0.67848 0.0
C1390 C 0.81334 0.21052 0.66421 0.0
C1391 C 0.81411 0.19849 0.64947 0.0
C1392 C 0.82442 0.22454 0.66271 0.0
C1393 C 0.79999 0.22199 0.69541 0.0
C1394 C 0.8181 0.24005 0.65924 0.0
C1395 C 0.82827 0.25315 0.65567 0.0
C1396 C 0.84505 0.25106 0.65535 0.0
C1397 C 0.85141 0.23556 0.65932 0.0
C1398 C 0.84116 0.22239 0.66283 0.0
H1399 H 0.7936 0.21672 0.70841 0.0
H1400 H 0.81215 0.22591 0.70019 0.0
H1401 H 0.79317 0.23285 0.69053 0.0
H1402 H 0.80523 0.24193 0.65859 0.0
H1403 H 0.82291 0.26487 0.65266 0.0
H1404 H 0.8263 0.73385 0.62332 0.0
H1405 H 0.8077 0.75644 0.62796 0.0
H1406 H 0.84716 0.7877 0.64381 0.0
H1407 H 0.86598 0.76518 0.63927 0.0
H1408 H 0.80364 0.77762 0.66396 0.0
H1409 H 0.82302 0.80955 0.59497 0.0
H1410 H 0.82672 0.7882 0.59896 0.0
H1411 H 0.83848 0.80305 0.61191 0.0
C1412 C 0.83108 0.74548 0.62789 0.0
C1413 C 0.84768 0.74769 0.63083 0.0
C1414 C 0.8204 0.75836 0.63058 0.0
C1415 C 0.82611 0.77369 0.63608 0.0
C1416 C 0.84258 0.77593 0.63942 0.0
H1417 H 0.76656 0.85691 0.66929 0.0
H1418 H 0.78723 0.83562 0.66887 0.0
C1419 C 0.85329 0.76303 0.63686 0.0
C1420 C 0.8148 0.78743 0.63772 0.0
H1421 H 0.80273 0.82188 0.61402 0.0
C1422 C 0.80349 0.78741 0.65319 0.0
C1423 C 0.8146 0.80001 0.62346 0.0
C1424 C 0.82626 0.80027 0.60627 0.0
C1425 C 0.7919 0.79972 0.65475 0.0
C1426 C 0.79174 0.81235 0.6405 0.0
C1427 C 0.80305 0.81231 0.62504 0.0
C1428 C 0.77948 0.82533 0.64085 0.0
C1429 C 0.77963 0.79888 0.67123 0.0
C1430 C 0.76848 0.82669 0.62511 0.0
C1431 C 0.75682 0.83887 0.62529 0.0
C1432 C 0.7563 0.85011 0.64091 0.0
C1433 C 0.76713 0.84863 0.65679 0.0
C1434 C 0.77876 0.83639 0.65668 0.0
H1435 H 0.77931 0.78671 0.67833 0.0
H1436 H 0.7827 0.80793 0.68283 0.0
H1437 H 0.76745 0.80179 0.66552 0.0
H1438 H 0.76883 0.81823 0.6128 0.0
H1439 H 0.74831 0.83963 0.61313 0.0
H1440 H 0.67244 0.76049 0.85425 0.0
H1441 H 0.69186 0.73874 0.8499 0.0
H1442 H 0.65413 0.70648 0.8309 0.0
H1443 H 0.63435 0.72831 0.8352 0.0
H1444 H 0.6878 0.70746 0.87164 0.0
H1445 H 0.69273 0.70135 0.78925 0.0
H1446 H 0.68636 0.72009 0.80077 0.0
H1447 H 0.67313 0.70296 0.80051 0.0
C1448 C 0.66818 0.74887 0.84891 0.0
C1449 C 0.65176 0.74616 0.8452 0.0
C1450 C 0.67935 0.73645 0.84641 0.0
C1451 C 0.67441 0.72107 0.84003 0.0
C1452 C 0.65816 0.71835 0.83565 0.0
H1453 H 0.73932 0.63667 0.83472 0.0
H1454 H 0.71529 0.65357 0.83064 0.0
C1455 C 0.64689 0.73083 0.83817 0.0
C1456 C 0.68627 0.70773 0.83968 0.0
H1457 H 0.71028 0.68549 0.80879 0.0
C1458 C 0.69258 0.70249 0.85791 0.0
C1459 C 0.69234 0.70125 0.82174 0.0
C1460 C 0.6859 0.70666 0.80187 0.0
C1461 C 0.70524 0.69133 0.85868 0.0
C1462 C 0.71193 0.68549 0.84073 0.0
C1463 C 0.70514 0.69011 0.82249 0.0
C1464 C 0.72673 0.67558 0.84089 0.0
C1465 C 0.71164 0.68615 0.8787 0.0
C1466 C 0.74116 0.68252 0.8474 0.0
C1467 C 0.75485 0.67298 0.84976 0.0
C1468 C 0.75441 0.65625 0.84561 0.0
C1469 C 0.74009 0.64948 0.83812 0.0
C1470 C 0.72635 0.6591 0.83575 0.0
H1471 H 0.70281 0.68842 0.89077 0.0
H1472 H 0.71481 0.67306 0.87867 0.0
H1473 H 0.72269 0.69316 0.8821 0.0
H1474 H 0.74169 0.69528 0.85121 0.0
H1475 H 0.76565 0.67868 0.8554 0.0
H1476 H 0.266 0.63791 0.83557 0.0
H1477 H 0.28554 0.66017 0.83318 0.0
H1478 H 0.26548 0.68181 0.88604 0.0
H1479 H 0.24609 0.65952 0.88851 0.0
H1480 H 0.26741 0.70267 0.8512 0.0
H1481 H 0.3255 0.67187 0.86766 0.0
H1482 H 0.31188 0.66228 0.8505 0.0
H1483 H 0.30649 0.66409 0.87628 0.0
C1484 C 0.26621 0.64712 0.84705 0.0
C1485 C 0.25494 0.64681 0.86258 0.0
C1486 C 0.27726 0.65988 0.8456 0.0
C1487 C 0.27702 0.67257 0.85953 0.0
C1488 C 0.26591 0.67209 0.87521 0.0
H1489 H 0.32072 0.76497 0.8825 0.0
H1490 H 0.3024 0.74217 0.87848 0.0
C1491 C 0.25492 0.65936 0.87667 0.0
C1492 C 0.28752 0.68696 0.85713 0.0
H1493 H 0.32639 0.69962 0.86081 0.0
C1494 C 0.28033 0.70203 0.85319 0.0
C1495 C 0.30435 0.68605 0.8594 0.0
C1496 C 0.31263 0.67024 0.86377 0.0
C1497 C 0.28954 0.71625 0.85175 0.0
C1498 C 0.30633 0.71543 0.85497 0.0
C1499 C 0.31353 0.70028 0.85835 0.0
C1500 C 0.31665 0.7301 0.85594 0.0
C1501 C 0.28117 0.73193 0.84657 0.0
C1502 C 0.33093 0.73086 0.84486 0.0
C1503 C 0.34168 0.74368 0.84754 0.0
C1504 C 0.33833 0.75609 0.86129 0.0
C1505 C 0.32372 0.75564 0.8718 0.0
C1506 C 0.3131 0.74267 0.86934 0.0
H1507 H 0.27013 0.72967 0.83772 0.0
H1508 H 0.27751 0.73815 0.86048 0.0
H1509 H 0.28915 0.74016 0.838 0.0
H1510 H 0.33395 0.7213 0.83445 0.0
H1511 H 0.35275 0.74369 0.83908 0.0
H1512 H 0.3269 0.24015 0.84014 0.0
H1513 H 0.30961 0.2632 0.83327 0.0
H1514 H 0.35086 0.29482 0.83185 0.0
H1515 H 0.36847 0.27159 0.83897 0.0
H1516 H 0.32657 0.30534 0.85716 0.0
H1517 H 0.30082 0.29017 0.78388 0.0
H1518 H 0.29965 0.27322 0.80051 0.0
H1519 H 0.31902 0.28088 0.79311 0.0
C1520 C 0.3324 0.25194 0.83809 0.0
C1521 C 0.34909 0.25403 0.84019 0.0
C1522 C 0.32248 0.2651 0.83395 0.0
C1523 C 0.32896 0.28068 0.83171 0.0
C1524 C 0.34565 0.28284 0.8333 0.0
H1525 H 0.26369 0.36523 0.83977 0.0
H1526 H 0.28824 0.3502 0.83165 0.0
C1527 C 0.35568 0.26957 0.83733 0.0
C1528 C 0.3179 0.2947 0.82997 0.0
H1529 H 0.28405 0.30683 0.80549 0.0
C1530 C 0.31754 0.30602 0.84555 0.0
C1531 C 0.30616 0.29555 0.81479 0.0
C1532 C 0.30653 0.28439 0.79703 0.0
C1533 C 0.30495 0.31727 0.84727 0.0
C1534 C 0.29255 0.31725 0.8329 0.0
C1535 C 0.29352 0.30672 0.81656 0.0
C1536 C 0.27755 0.32655 0.83595 0.0
C1537 C 0.30436 0.32829 0.86517 0.0
C1538 C 0.26336 0.3182 0.84052 0.0
C1539 C 0.24936 0.32668 0.84517 0.0
C1540 C 0.24922 0.34375 0.84524 0.0
C1541 C 0.26335 0.3521 0.83991 0.0
C1542 C 0.27741 0.34355 0.83533 0.0
H1543 H 0.31404 0.32557 0.87604 0.0
H1544 H 0.30569 0.34108 0.86028 0.0
H1545 H 0.29257 0.32717 0.87278 0.0
H1546 H 0.26325 0.30506 0.84105 0.0
H1547 H 0.23872 0.31983 0.8491 0.0
H1548 H 0.64212 0.26493 0.87565 0.0
H1549 H 0.66137 0.28681 0.86981 0.0
H1550 H 0.69386 0.25272 0.84213 0.0
H1551 H 0.67508 0.23065 0.84952 0.0
H1552 H 0.71004 0.26971 0.86491 0.0
H1553 H 0.67248 0.31308 0.82348 0.0
H1554 H 0.66321 0.30882 0.84691 0.0
H1555 H 0.66568 0.2928 0.82885 0.0
C1556 C 0.65329 0.26223 0.86805 0.0
C1557 C 0.65716 0.24623 0.86288 0.0
C1558 C 0.66424 0.27475 0.86453 0.0
C1559 C 0.67898 0.27158 0.85507 0.0
C1560 C 0.68259 0.25556 0.8494 0.0
H1561 H 0.7402 0.35469 0.82496 0.0
H1562 H 0.72162 0.33167 0.82294 0.0
C1563 C 0.67187 0.24296 0.85353 0.0
C1564 C 0.69118 0.28462 0.85264 0.0
H1565 H 0.69599 0.32425 0.83938 0.0
C1566 C 0.70697 0.28157 0.85905 0.0
C1567 C 0.68743 0.30004 0.84458 0.0
C1568 C 0.67132 0.30378 0.83536 0.0
C1569 C 0.71889 0.29356 0.85823 0.0
C1570 C 0.71473 0.30941 0.85195 0.0
C1571 C 0.69913 0.31229 0.84479 0.0
C1572 C 0.72623 0.3232 0.85296 0.0
C1573 C 0.73586 0.28886 0.86371 0.0
C1574 C 0.73494 0.32627 0.87048 0.0
C1575 C 0.74589 0.33907 0.87135 0.0
C1576 C 0.74757 0.34963 0.85518 0.0
C1577 C 0.73874 0.34684 0.83777 0.0
C1578 C 0.72818 0.33369 0.83663 0.0
H1579 H 0.73814 0.27585 0.86042 0.0
H1580 H 0.74487 0.29622 0.85556 0.0
H1581 H 0.73762 0.29058 0.87993 0.0
H1582 H 0.73324 0.31884 0.88357 0.0
H1583 H 0.75275 0.34099 0.88484 0.0
H1584 H 0.67863 0.23383 0.1516 0.0
H1585 H 0.6987 0.25511 0.1549 0.0
H1586 H 0.66146 0.29009 0.16693 0.0
H1587 H 0.64107 0.26877 0.16367 0.0
H1588 H 0.69686 0.28354 0.12869 0.0
H1589 H 0.69815 0.29913 0.20934 0.0
H1590 H 0.69134 0.27958 0.20054 0.0
H1591 H 0.67893 0.29714 0.19724 0.0
C1592 C 0.67463 0.24596 0.15527 0.0
C1593 C 0.65817 0.24959 0.1572 0.0
C1594 C 0.68616 0.25811 0.15719 0.0
C1595 C 0.68155 0.27412 0.1612 0.0
C1596 C 0.66524 0.27774 0.16406 0.0
H1597 H 0.74388 0.35999 0.15665 0.0
H1598 H 0.72071 0.34227 0.16252 0.0
C1599 C 0.65362 0.26554 0.16214 0.0
C1600 C 0.69377 0.28711 0.16017 0.0
H1601 H 0.71594 0.31337 0.18828 0.0
C1602 C 0.70097 0.29014 0.14169 0.0
C1603 C 0.69893 0.29578 0.17713 0.0
C1604 C 0.69154 0.29279 0.19727 0.0
C1605 C 0.7135 0.30135 0.13977 0.0
C1606 C 0.71918 0.30952 0.15686 0.0
C1607 C 0.7116 0.30697 0.17525 0.0
C1608 C 0.7335 0.32011 0.1558 0.0
C1609 C 0.72065 0.30429 0.11944 0.0
C1610 C 0.74843 0.31342 0.15074 0.0
C1611 C 0.76164 0.32344 0.14732 0.0
C1612 C 0.76021 0.34039 0.14899 0.0
C1613 C 0.74541 0.347 0.15515 0.0
C1614 C 0.73215 0.33691 0.15854 0.0
H1615 H 0.71236 0.30042 0.10738 0.0
H1616 H 0.72361 0.3173 0.11732 0.0
H1617 H 0.73191 0.29718 0.11798 0.0
H1618 H 0.74973 0.30044 0.14884 0.0
H1619 H 0.77285 0.31788 0.14281 0.0
H1620 H 0.72748 0.6376 0.16258 0.0
H1621 H 0.70847 0.66024 0.16608 0.0
H1622 H 0.72797 0.68224 0.11312 0.0
H1623 H 0.74685 0.65961 0.10958 0.0
H1624 H 0.72717 0.70253 0.14868 0.0
H1625 H 0.66803 0.67341 0.13326 0.0
H1626 H 0.68204 0.66333 0.14951 0.0
H1627 H 0.68657 0.66537 0.12353 0.0
C1628 C 0.72726 0.647 0.15134 0.0
C1629 C 0.73824 0.64669 0.13548 0.0
C1630 C 0.71651 0.65997 0.15341 0.0
C1631 C 0.71674 0.67285 0.13976 0.0
C1632 C 0.72755 0.67238 0.12375 0.0
H1633 H 0.67796 0.76575 0.11378 0.0
H1634 H 0.69467 0.74206 0.11968 0.0
C1635 C 0.73826 0.65945 0.12169 0.0
C1636 C 0.70661 0.68746 0.14272 0.0
H1637 H 0.66816 0.70136 0.1387 0.0
C1638 C 0.71424 0.70228 0.14668 0.0
C1639 C 0.68974 0.68705 0.14058 0.0
C1640 C 0.68098 0.67147 0.13645 0.0
C1641 C 0.70549 0.71681 0.14789 0.0
C1642 C 0.68872 0.71655 0.14434 0.0
C1643 C 0.68102 0.7016 0.14132 0.0
C1644 C 0.67911 0.73162 0.14211 0.0
C1645 C 0.71434 0.73222 0.153 0.0
C1646 C 0.66451 0.73353 0.15235 0.0
C1647 C 0.65465 0.74693 0.1486 0.0
C1648 C 0.65925 0.75874 0.1346 0.0
C1649 C 0.67406 0.75698 0.12475 0.0
C1650 C 0.68376 0.74348 0.12828 0.0
H1651 H 0.72494 0.72965 0.16254 0.0
H1652 H 0.71881 0.73792 0.13912 0.0
H1653 H 0.70646 0.74101 0.16085 0.0
H1654 H 0.66061 0.7245 0.163 0.0
H1655 H 0.64336 0.74793 0.1565 0.0
H1656 H 0.24089 0.67796 0.14962 0.0
H1657 H 0.26532 0.69337 0.15618 0.0
H1658 H 0.29139 0.64896 0.16628 0.0
H1659 H 0.26698 0.63329 0.15963 0.0
H1660 H 0.28646 0.69301 0.19099 0.0
H1661 H 0.31632 0.67287 0.12092 0.0
H1662 H 0.29494 0.67076 0.12464 0.0
H1663 H 0.3086 0.65759 0.13748 0.0
C1664 C 0.25176 0.6714 0.15336 0.0
C1665 C 0.25195 0.65435 0.15395 0.0
C1666 C 0.2657 0.68026 0.15715 0.0
C1667 C 0.28016 0.67228 0.16152 0.0
C1668 C 0.28037 0.65531 0.16271 0.0
H1669 H 0.37004 0.72926 0.15673 0.0
H1670 H 0.35296 0.70573 0.16451 0.0
C1671 C 0.26638 0.6464 0.15897 0.0
C1672 C 0.295 0.68195 0.16397 0.0
H1673 H 0.32871 0.69371 0.13892 0.0
C1674 C 0.29588 0.69296 0.17983 0.0
C1675 C 0.30733 0.68171 0.1495 0.0
C1676 C 0.30684 0.67018 0.13208 0.0
C1677 C 0.30832 0.70438 0.18099 0.0
C1678 C 0.31997 0.70498 0.16569 0.0
C1679 C 0.31975 0.69321 0.15062 0.0
C1680 C 0.33067 0.71918 0.16321 0.0
C1681 C 0.30855 0.71613 0.19818 0.0
C1682 C 0.32376 0.73444 0.15986 0.0
C1683 C 0.33337 0.74774 0.1553 0.0
C1684 C 0.35015 0.74612 0.15392 0.0
C1685 C 0.35715 0.73091 0.15779 0.0
C1686 C 0.34744 0.71748 0.16221 0.0
H1687 H 0.30282 0.71077 0.21158 0.0
H1688 H 0.32101 0.71983 0.20197 0.0
H1689 H 0.30164 0.72715 0.19408 0.0
H1690 H 0.31084 0.73597 0.16011 0.0
H1691 H 0.32756 0.75928 0.15249 0.0
H1692 H 0.24305 0.336 0.11437 0.0
H1693 H 0.26189 0.31339 0.11723 0.0
H1694 H 0.27069 0.32614 0.17863 0.0
H1695 H 0.25301 0.34972 0.17497 0.0
H1696 H 0.2966 0.31844 0.16523 0.0
H1697 H 0.25665 0.27019 0.13876 0.0
H1698 H 0.25799 0.28502 0.11944 0.0
H1699 H 0.24934 0.29043 0.14321 0.0
C1700 C 0.24916 0.33395 0.12838 0.0
C1701 C 0.24704 0.3447 0.14428 0.0
C1702 C 0.25967 0.32085 0.13018 0.0
C1703 C 0.26743 0.31763 0.14835 0.0
C1704 C 0.2649 0.32825 0.16444 0.0
H1705 H 0.323 0.22686 0.1499 0.0
H1706 H 0.30215 0.24707 0.15705 0.0
C1707 C 0.25485 0.34173 0.16238 0.0
C1708 C 0.27892 0.30385 0.15009 0.0
H1709 H 0.28527 0.26481 0.13512 0.0
C1710 C 0.29401 0.3067 0.15878 0.0
C1711 C 0.27545 0.28814 0.14267 0.0
C1712 C 0.25889 0.28325 0.13576 0.0
C1713 C 0.30599 0.29476 0.15902 0.0
C1714 C 0.30312 0.27972 0.14948 0.0
C1715 C 0.28772 0.27647 0.14195 0.0
C1716 C 0.31604 0.26753 0.14636 0.0
C1717 C 0.32153 0.29847 0.16967 0.0
C1718 C 0.33075 0.27221 0.13787 0.0
C1719 C 0.34278 0.26079 0.13438 0.0
C1720 C 0.34014 0.24433 0.13858 0.0
C1721 C 0.32532 0.23951 0.1466 0.0
C1722 C 0.31342 0.25104 0.15065 0.0
H1723 H 0.31947 0.30689 0.18232 0.0
H1724 H 0.32734 0.2873 0.17546 0.0
H1725 H 0.3299 0.30458 0.15924 0.0
H1726 H 0.33287 0.28468 0.13359 0.0
H1727 H 0.35399 0.26477 0.12778 0.0
H1728 H 0.94021 0.29777 0.35682 0.0
H1729 H 0.96812 0.2947 0.34632 0.0
H1730 H 0.9566 0.24906 0.31844 0.0
H1731 H 0.92854 0.252 0.32896 0.0
H1732 H 0.98297 0.24795 0.34482 0.0
H1733 H 0.98931 0.29845 0.29119 0.0
H1734 H 0.98021 0.30465 0.31418 0.0
H1735 H 0.97002 0.29031 0.29843 0.0
C1736 C 0.94354 0.28717 0.34824 0.0
C1737 C 0.93219 0.27512 0.34373 0.0
C1738 C 0.95947 0.2855 0.34212 0.0
C1739 C 0.96435 0.27178 0.33135 0.0
C1740 C 0.95301 0.25981 0.32658 0.0
H1741 H 0.06734 0.2473 0.31694 0.0
H1742 H 0.03823 0.24585 0.31107 0.0
C1743 C 0.93701 0.26152 0.3326 0.0
C1744 C 0.98156 0.26943 0.32672 0.0
H1745 H 0.01381 0.28856 0.30603 0.0
C1746 C 0.98971 0.25658 0.33596 0.0
C1747 C 0.99025 0.28068 0.31508 0.0
C1748 C 0.98197 0.29421 0.30398 0.0
C1749 C 0.00652 0.25541 0.33512 0.0
C1750 C 0.0153 0.26726 0.32447 0.0
C1751 C 0.00704 0.27952 0.31421 0.0
C1752 C 0.03298 0.26846 0.3261 0.0
C1753 C 0.01482 0.24217 0.34674 0.0
C1754 C 0.03964 0.28186 0.33591 0.0
C1755 C 0.05614 0.28274 0.33921 0.0
C1756 C 0.06635 0.27024 0.3327 0.0
C1757 C 0.05975 0.25707 0.3222 0.0
C1758 C 0.04315 0.25619 0.31892 0.0
H1759 H 0.00637 0.23541 0.35649 0.0
H1760 H 0.02037 0.23342 0.33625 0.0
H1761 H 0.02454 0.24734 0.35611 0.0
H1762 H 0.032 0.29145 0.34155 0.0
H1763 H 0.06083 0.29309 0.34723 0.0
H1764 H 0.69826 0.0713 0.35179 0.0
H1765 H 0.69264 0.04237 0.34712 0.0
H1766 H 0.74309 0.03321 0.33802 0.0
H1767 H 0.74888 0.06198 0.34261 0.0
H1768 H 0.71978 0.01647 0.31052 0.0
H1769 H 0.70753 0.00911 0.39153 0.0
H1770 H 0.69712 0.02506 0.37857 0.0
H1771 H 0.71848 0.02627 0.3818 0.0
C1772 C 0.70814 0.06317 0.34856 0.0
C1773 C 0.72405 0.06894 0.34782 0.0
C1774 C 0.7049 0.04666 0.34593 0.0
C1775 C 0.71748 0.03572 0.34241 0.0
C1776 C 0.73324 0.04151 0.34076 0.0
H1777 H 0.73709 0.93391 0.33435 0.0
H1778 H 0.73616 0.96333 0.32993 0.0
C1779 C 0.73652 0.05795 0.3435 0.0
C1780 C 0.71451 0.01806 0.3418 0.0
H1781 H 0.70674 0.9857 0.37183 0.0
C1782 C 0.71677 0.00971 0.32385 0.0
C1783 C 0.71057 0.00936 0.35923 0.0
C1784 C 0.70835 0.01781 0.37896 0.0
C1785 C 0.71533 0.99275 0.32291 0.0
C1786 C 0.71197 0.98397 0.34052 0.0
C1787 C 0.70931 0.99243 0.35834 0.0
C1788 C 0.71192 0.96599 0.34119 0.0
C1789 C 0.71736 0.98445 0.30307 0.0
C1790 C 0.6987 0.9577 0.34922 0.0
C1791 C 0.69931 0.94094 0.35208 0.0
C1792 C 0.71316 0.93214 0.34693 0.0
C1793 C 0.72621 0.94036 0.33833 0.0
C1794 C 0.72565 0.95716 0.33565 0.0
H1795 H 0.71447 0.99277 0.29058 0.0
H1796 H 0.73006 0.98061 0.30135 0.0
H1797 H 0.70959 0.97354 0.30191 0.0
H1798 H 0.68802 0.96427 0.35369 0.0
H1799 H 0.68904 0.93493 0.35869 0.0
H1800 H 0.05869 0.69229 0.36055 0.0
H1801 H 0.03049 0.69366 0.35073 0.0
H1802 H 0.04012 0.73684 0.31654 0.0
H1803 H 0.06845 0.7356 0.3264 0.0
H1804 H 0.01475 0.73997 0.34363 0.0
H1805 H 0.00733 0.68457 0.29806 0.0
H1806 H 0.01703 0.68072 0.32143 0.0
H1807 H 0.02675 0.69339 0.30327 0.0
C1808 C 0.05488 0.70194 0.35068 0.0
C1809 C 0.06579 0.71385 0.34427 0.0
C1810 C 0.03878 0.70264 0.34496 0.0
C1811 C 0.03326 0.71523 0.33268 0.0
C1812 C 0.04418 0.72695 0.32588 0.0
H1813 H 0.93083 0.74016 0.31636 0.0
H1814 H 0.96 0.7401 0.31099 0.0
C1815 C 0.06035 0.72621 0.33152 0.0
C1816 C 0.01584 0.71691 0.32869 0.0
H1817 H 0.98317 0.69604 0.31182 0.0
C1818 C 0.00784 0.73054 0.33632 0.0
C1819 C 0.00691 0.70459 0.31914 0.0
C1820 C 0.01496 0.69006 0.30983 0.0
C1821 C 0.99102 0.73169 0.33579 0.0
C1822 C 0.98202 0.719 0.32704 0.0
C1823 C 0.99009 0.70574 0.31855 0.0
C1824 C 0.96425 0.71845 0.32842 0.0
C1825 C 0.98299 0.74601 0.34567 0.0
C1826 C 0.95695 0.70598 0.33934 0.0
C1827 C 0.94036 0.70591 0.34229 0.0
C1828 C 0.93072 0.71832 0.33436 0.0
C1829 C 0.93796 0.73049 0.32277 0.0
C1830 C 0.95462 0.73052 0.31977 0.0
H1831 H 0.99151 0.7531 0.35495 0.0
H1832 H 0.97807 0.7542 0.33409 0.0
H1833 H 0.97287 0.74194 0.35521 0.0
H1834 H 0.96416 0.69652 0.3461 0.0
H1835 H 0.93516 0.69632 0.35122 0.0
H1836 H 0.24194 0.94397 0.34638 0.0
H1837 H 0.2496 0.97213 0.34093 0.0
H1838 H 0.29887 0.95764 0.33226 0.0
H1839 H 0.29136 0.92924 0.33767 0.0
H1840 H 0.27297 0.98791 0.36582 0.0
H1841 H 0.2889 0.98996 0.28542 0.0
H1842 H 0.27619 0.97434 0.29582 0.0
H1843 H 0.29745 0.97381 0.30002 0.0
C1844 C 0.2544 0.94666 0.34311 0.0
C1845 C 0.26606 0.93429 0.34264 0.0
C1846 C 0.25873 0.96279 0.33995 0.0
C1847 C 0.27476 0.96692 0.3361 0.0
C1848 C 0.28639 0.95464 0.33496 0.0
H1849 H 0.31213 0.0639 0.35682 0.0
H1850 H 0.31017 0.03448 0.35295 0.0
C1851 C 0.28207 0.93843 0.33815 0.0
C1852 C 0.27935 0.98423 0.33513 0.0
H1853 H 0.29254 0.01411 0.30393 0.0
C1854 C 0.27733 0.99363 0.35232 0.0
C1855 C 0.28494 0.9916 0.31746 0.0
C1856 C 0.28694 0.982 0.29854 0.0
C1857 C 0.28062 0.01029 0.35231 0.0
C1858 C 0.28625 0.01769 0.33467 0.0
C1859 C 0.28835 0.00831 0.31745 0.0
C1860 C 0.28926 0.03535 0.33391 0.0
C1861 C 0.27765 0.01994 0.37104 0.0
C1862 C 0.27855 0.04554 0.32375 0.0
C1863 C 0.27962 0.06238 0.32592 0.0
C1864 C 0.29144 0.06923 0.33828 0.0
C1865 C 0.30281 0.05899 0.34731 0.0
C1866 C 0.30173 0.04219 0.34513 0.0
H1867 H 0.27059 0.01298 0.38218 0.0
H1868 H 0.28935 0.02323 0.37786 0.0
H1869 H 0.27114 0.03136 0.3676 0.0
H1870 H 0.26884 0.04045 0.31502 0.0
H1871 H 0.27072 0.06995 0.31871 0.0
H1872 H 0.06538 0.70341 0.64491 0.0
H1873 H 0.03644 0.70428 0.65042 0.0
H1874 H 0.04182 0.74792 0.68515 0.0
H1875 H 0.07095 0.74726 0.6795 0.0
H1876 H 0.01767 0.70494 0.68585 0.0
H1877 H 0.01057 0.76088 0.64012 0.0
H1878 H 0.02879 0.74902 0.63984 0.0
H1879 H 0.02434 0.76185 0.66069 0.0
C1880 C 0.06046 0.71315 0.65386 0.0
C1881 C 0.07043 0.72537 0.66161 0.0
C1882 C 0.04392 0.71359 0.65705 0.0
C1883 C 0.03699 0.72627 0.66796 0.0
C1884 C 0.04694 0.73816 0.67643 0.0
H1885 H 0.933 0.74481 0.66642 0.0
H1886 H 0.96118 0.74646 0.67687 0.0
C1887 C 0.06356 0.73772 0.67326 0.0
C1888 C 0.01928 0.72728 0.66939 0.0
H1889 H 0.98707 0.74811 0.65111 0.0
C1890 C 0.01095 0.7145 0.67852 0.0
C1891 C 0.01058 0.73981 0.65987 0.0
C1892 C 0.01895 0.75365 0.64944 0.0
C1893 C 0.99413 0.71359 0.67775 0.0
C1894 C 0.98549 0.72563 0.66728 0.0
C1895 C 0.99375 0.73888 0.65909 0.0
C1896 C 0.96815 0.72392 0.66284 0.0
C1897 C 0.98579 0.69957 0.68781 0.0
C1898 C 0.96277 0.71071 0.65149 0.0
C1899 C 0.94676 0.70976 0.64547 0.0
C1900 C 0.93582 0.72205 0.65058 0.0
C1901 C 0.94114 0.73513 0.66229 0.0
C1902 C 0.95721 0.73609 0.66827 0.0
H1903 H 0.9931 0.6947 0.70027 0.0
H1904 H 0.97383 0.70321 0.69362 0.0
H1905 H 0.98404 0.68965 0.67687 0.0
H1906 H 0.97109 0.70138 0.64672 0.0
H1907 H 0.94305 0.69955 0.63641 0.0
H1908 H 0.30316 0.94014 0.62771 0.0
H1909 H 0.30136 0.9691 0.63428 0.0
H1910 H 0.27766 0.95931 0.69014 0.0
H1911 H 0.27862 0.93018 0.68298 0.0
H1912 H 0.26201 0.98111 0.67225 0.0
H1913 H 0.32519 -1e-05 0.66752 0.0
H1914 H 0.32015 0.98941 0.64515 0.0
H1915 H 0.31955 0.97889 0.66871 0.0
C1916 C 0.29783 0.94413 0.64157 0.0
C1917 C 0.29104 0.93293 0.65485 0.0
C1918 C 0.29694 0.96073 0.64542 0.0
C1919 C 0.2897 0.96647 0.66294 0.0
C1920 C 0.28339 0.95521 0.67657 0.0
H1921 H 0.29029 0.0729 0.67221 0.0
H1922 H 0.2953 0.04436 0.68024 0.0
C1923 C 0.28395 0.93858 0.67249 0.0
C1924 C 0.28723 0.98417 0.66582 0.0
H1925 H 0.30543 0.02082 0.65901 0.0
C1926 C 0.27161 0.98977 0.66978 0.0
C1927 C 0.29974 0.99561 0.66318 0.0
C1928 C 0.31711 0.99061 0.66115 0.0
C1929 C 0.26798 0.00638 0.66983 0.0
C1930 C 0.28014 0.01769 0.66488 0.0
C1931 C 0.29597 0.01218 0.66231 0.0
C1932 C 0.27653 0.03506 0.66106 0.0
C1933 C 0.25111 0.01154 0.6751 0.0
C1934 C 0.26442 0.03937 0.6475 0.0
C1935 C 0.26133 0.05563 0.64323 0.0
C1936 C 0.27063 0.06794 0.65194 0.0
C1937 C 0.28294 0.06366 0.66526 0.0
C1938 C 0.2858 0.04736 0.66986 0.0
H1939 H 0.24556 0.0029 0.68576 0.0
H1940 H 0.25085 0.02386 0.68177 0.0
H1941 H 0.2436 0.01153 0.66146 0.0
H1942 H 0.25752 0.03014 0.63988 0.0
H1943 H 0.25193 0.05854 0.63267 0.0
H1944 H 0.07175 0.26065 0.66062 0.0
H1945 H 0.04307 0.25938 0.66861 0.0
H1946 H 0.03484 0.30274 0.63422 0.0
H1947 H 0.06349 0.30422 0.62632 0.0
H1948 H 0.0189 0.30207 0.6719 0.0
H1949 H 0.00848 0.24588 0.62782 0.0
H1950 H 0.02408 0.24487 0.64626 0.0
H1951 H 0.02643 0.25797 0.62512 0.0
C1952 C 0.06385 0.26996 0.65483 0.0
C1953 C 0.06986 0.28248 0.64272 0.0
C1954 C 0.04747 0.26917 0.65934 0.0
C1955 C 0.03684 0.28084 0.65177 0.0
C1956 C 0.04287 0.29359 0.64015 0.0
H1957 H 0.93779 0.30308 0.64014 0.0
H1958 H 0.96695 0.30286 0.64337 0.0
C1959 C 0.05923 0.2944 0.63562 0.0
C1960 C 0.01934 0.27965 0.65549 0.0
H1961 H 0.98613 0.25725 0.644 0.0
C1962 C 0.01173 0.29221 0.66595 0.0
C1963 C 0.01007 0.26672 0.64779 0.0
C1964 C 0.0176 0.25312 0.63599 0.0
C1965 C 0.99501 0.29235 0.6686 0.0
C1966 C 0.98566 0.27974 0.66024 0.0
C1967 C 0.99334 0.26688 0.65042 0.0
C1968 C 0.96788 0.28038 0.65994 0.0
C1969 C 0.98748 0.30605 0.68021 0.0
C1970 C 0.95869 0.26768 0.66798 0.0
C1971 C 0.94194 0.26772 0.66606 0.0
C1972 C 0.93416 0.28038 0.65588 0.0
C1973 C 0.9434 0.29317 0.64813 0.0
C1974 C 0.96008 0.29314 0.65009 0.0
H1975 H 0.99619 0.31153 0.69077 0.0
H1976 H 0.98359 0.31567 0.66973 0.0
H1977 H 0.97681 0.30184 0.68866 0.0
H1978 H 0.96451 0.25765 0.67548 0.0
H1979 H 0.93514 0.25767 0.67212 0.0
H1980 H 0.74037 0.06791 0.66838 0.0
H1981 H 0.74067 0.03838 0.67218 0.0
H1982 H 0.69122 0.03619 0.65314 0.0
H1983 H 0.69103 0.06562 0.64863 0.0
H1984 H 0.7235 0.01646 0.69382 0.0
H1985 H 0.71275 0.00703 0.61312 0.0
H1986 H 0.71738 0.02666 0.62341 0.0
H1987 H 0.69733 0.01861 0.62518 0.0
C1988 C 0.72953 0.06114 0.66516 0.0
C1989 C 0.71575 0.06902 0.65793 0.0
C1990 C 0.72971 0.04428 0.66735 0.0
C1991 C 0.71608 0.03505 0.66249 0.0
C1992 C 0.70201 0.04302 0.65643 0.0
H1993 H 0.70378 0.93003 0.65375 0.0
H1994 H 0.69832 0.95889 0.65926 0.0
C1995 C 0.70189 0.05984 0.65396 0.0
C1996 C 0.71689 0.01709 0.66284 0.0
H1997 H 0.71358 0.9836 0.63323 0.0
C1998 C 0.72128 0.00927 0.6806 0.0
C1999 C 0.71407 0.00773 0.64552 0.0
C2000 C 0.71028 0.01542 0.62568 0.0
C2001 C 0.72297 0.99234 0.68145 0.0
C2002 C 0.72021 0.98306 0.66413 0.0
C2003 C 0.71552 0.99081 0.64652 0.0
C2004 C 0.72325 0.96542 0.66343 0.0
C2005 C 0.72777 0.98444 0.70078 0.0
C2006 C 0.73906 0.95962 0.6641 0.0
C2007 C 0.74225 0.94322 0.66076 0.0
C2008 C 0.72966 0.93232 0.65675 0.0
C2009 C 0.71375 0.93809 0.65686 0.0
C2010 C 0.71059 0.95455 0.66 0.0
H2011 H 0.72614 0.99274 0.71365 0.0
H2012 H 0.72064 0.97324 0.70337 0.0
H2013 H 0.74063 0.98093 0.70003 0.0
H2014 H 0.74899 0.96789 0.66646 0.0
H2015 H 0.75463 0.93916 0.66088 0.0
H2016 H 0.55619 0.79386 0.84599 0.0
H2017 H 0.52748 0.79207 0.83937 0.0
H2018 H 0.53479 0.74722 0.8076 0.0
H2019 H 0.56374 0.74881 0.81445 0.0
H2020 H 0.50942 0.78963 0.8039 0.0
H2021 H 0.50301 0.73497 0.85214 0.0
H2022 H 0.52098 0.7472 0.85221 0.0
H2023 H 0.51698 0.73378 0.83179 0.0
C2024 C 0.55176 0.78368 0.83742 0.0
C2025 C 0.56221 0.77138 0.83092 0.0
C2026 C 0.53534 0.7827 0.83359 0.0
C2027 C 0.529 0.76941 0.82325 0.0
C2028 C 0.53945 0.75746 0.81589 0.0
H2029 H 0.42442 0.75212 0.82686 0.0
H2030 H 0.45235 0.74929 0.81558 0.0
C2031 C 0.55597 0.75843 0.81972 0.0
C2032 C 0.51133 0.76786 0.82146 0.0
H2033 H 0.47938 0.74748 0.8412 0.0
C2034 C 0.50283 0.78024 0.81173 0.0
C2035 C 0.50278 0.75555 0.83162 0.0
C2036 C 0.51132 0.74214 0.84265 0.0
C2037 C 0.48602 0.78111 0.81276 0.0
C2038 C 0.47756 0.76942 0.82403 0.0
C2039 C 0.48595 0.75643 0.83261 0.0
C2040 C 0.46043 0.7716 0.82925 0.0
C2041 C 0.47749 0.79482 0.80234 0.0
C2042 C 0.45581 0.78499 0.84077 0.0
C2043 C 0.44 0.78656 0.84735 0.0
C2044 C 0.42847 0.77475 0.84254 0.0
C2045 C 0.43304 0.76144 0.83074 0.0
C2046 C 0.44895 0.75981 0.82427 0.0
H2047 H 0.48462 0.79942 0.78955 0.0
H2048 H 0.46548 0.79097 0.7969 0.0
H2049 H 0.4758 0.805 0.81293 0.0
H2050 H 0.46456 0.79403 0.84515 0.0
H2051 H 0.43687 0.79695 0.85642 0.0
H2052 H 0.23519 0.43255 0.83223 0.0
H2053 H 0.23332 0.46203 0.8293 0.0
H2054 H 0.18539 0.46066 0.85367 0.0
H2055 H 0.18741 0.4312 0.85734 0.0
H2056 H 0.21359 0.48293 0.81016 0.0
H2057 H 0.20747 0.49078 0.89195 0.0
H2058 H 0.21251 0.47156 0.88081 0.0
H2059 H 0.19204 0.47859 0.88086 0.0
C2060 C 0.2242 0.43851 0.83683 0.0
C2061 C 0.21154 0.42961 0.84528 0.0
C2062 C 0.22314 0.45536 0.83512 0.0
C2063 C 0.20936 0.46359 0.84168 0.0
C2064 C 0.19631 0.45462 0.84903 0.0
H2065 H 0.19774 0.56911 0.85411 0.0
H2066 H 0.19097 0.5405 0.8485 0.0
C2067 C 0.19745 0.43778 0.85102 0.0
C2068 C 0.20908 0.48158 0.84168 0.0
H2069 H 0.20713 0.51447 0.87249 0.0
C2070 C 0.21204 0.48982 0.82376 0.0
C2071 C 0.20711 0.49058 0.85948 0.0
C2072 C 0.20475 0.48246 0.8794 0.0
C2073 C 0.21343 0.50679 0.82325 0.0
C2074 C 0.21179 0.51568 0.84108 0.0
C2075 C 0.20824 0.50754 0.85884 0.0
C2076 C 0.21539 0.53319 0.84212 0.0
C2077 C 0.21693 0.51512 0.80376 0.0
C2078 C 0.23132 0.53846 0.8403 0.0
C2079 C 0.23526 0.55466 0.84373 0.0
C2080 C 0.22329 0.56594 0.84894 0.0
C2081 C 0.20722 0.56074 0.85004 0.0
C2082 C 0.20332 0.54443 0.84686 0.0
H2083 H 0.21427 0.50715 0.79085 0.0
H2084 H 0.2098 0.52645 0.80237 0.0
H2085 H 0.22984 0.51843 0.80321 0.0
H2086 H 0.24082 0.5299 0.83692 0.0
H2087 H 0.24774 0.55829 0.84266 0.0
H2088 H 0.43929 0.19751 0.85367 0.0
H2089 H 0.46835 0.19685 0.84901 0.0
H2090 H 0.4654 0.23843 0.81027 0.0
H2091 H 0.43623 0.2394 0.81516 0.0
H2092 H 0.48833 0.19449 0.81554 0.0
H2093 H 0.4956 0.25362 0.85455 0.0
H2094 H 0.47696 0.24249 0.85484 0.0
H2095 H 0.48272 0.25377 0.83312 0.0
C2096 C 0.44477 0.20644 0.84399 0.0
C2097 C 0.43549 0.21864 0.83498 0.0
C2098 C 0.46139 0.20601 0.8413 0.0
C2099 C 0.46904 0.21775 0.82957 0.0
C2100 C 0.45974 0.22945 0.81969 0.0
H2101 H 0.5727 0.23629 0.82831 0.0
H2102 H 0.54445 0.23634 0.81812 0.0
C2103 C 0.44308 0.22993 0.82243 0.0
C2104 C 0.48682 0.2182 0.82885 0.0
H2105 H 0.51911 0.24026 0.84456 0.0
C2106 C 0.49509 0.20456 0.82168 0.0
C2107 C 0.49558 0.23138 0.83686 0.0
C2108 C 0.48732 0.24611 0.84543 0.0
C2109 C 0.51191 0.20359 0.82275 0.0
C2110 C 0.5206 0.21649 0.83145 0.0
C2111 C 0.51238 0.2304 0.83786 0.0
C2112 C 0.53801 0.21533 0.83567 0.0
C2113 C 0.5202 0.18868 0.81476 0.0
C2114 C 0.54374 0.20347 0.84885 0.0
C2115 C 0.55982 0.20344 0.85475 0.0
C2116 C 0.57046 0.21534 0.84764 0.0
C2117 C 0.5648 0.22696 0.83402 0.0
C2118 C 0.54868 0.227 0.82817 0.0
H2119 H 0.51276 0.18248 0.80335 0.0
H2120 H 0.53203 0.19178 0.80813 0.0
H2121 H 0.52224 0.18001 0.82714 0.0
H2122 H 0.53563 0.19457 0.85516 0.0
H2123 H 0.5638 0.19435 0.86529 0.0
H2124 H 0.75253 0.44275 0.8627 0.0
H2125 H 0.75726 0.47105 0.85412 0.0
H2126 H 0.79356 0.4565 0.81186 0.0
H2127 H 0.78945 0.42807 0.82129 0.0
H2128 H 0.80393 0.48104 0.83077 0.0
H2129 H 0.74236 0.49643 0.80808 0.0
H2130 H 0.74176 0.48854 0.83286 0.0
H2131 H 0.74843 0.47577 0.81265 0.0
C2132 C 0.76145 0.44557 0.85149 0.0
C2133 C 0.77057 0.43322 0.84259 0.0
C2134 C 0.76404 0.46176 0.84642 0.0
C2135 C 0.77541 0.46594 0.83185 0.0
C2136 C 0.7846 0.45359 0.82299 0.0
H2137 H 0.77296 0.5706 0.80757 0.0
H2138 H 0.77246 0.54138 0.80069 0.0
C2139 C 0.78227 0.43737 0.82841 0.0
C2140 C 0.77829 0.48327 0.82693 0.0
H2141 H 0.75866 0.51909 0.81977 0.0
C2142 C 0.79405 0.48931 0.82795 0.0
C2143 C 0.76556 0.49408 0.82251 0.0
C2144 C 0.74863 0.48829 0.81871 0.0
C2145 C 0.79723 0.50596 0.8262 0.0
C2146 C 0.78423 0.51695 0.82428 0.0
C2147 C 0.76864 0.51079 0.82172 0.0
C2148 C 0.78626 0.53475 0.82678 0.0
C2149 C 0.8145 0.51151 0.82657 0.0
C2150 C 0.79427 0.54081 0.8436 0.0
C2151 C 0.79488 0.55743 0.84726 0.0
C2152 C 0.78705 0.56837 0.83453 0.0
C2153 C 0.77912 0.56241 0.81761 0.0
C2154 C 0.77882 0.54574 0.81369 0.0
H2155 H 0.82246 0.50232 0.81959 0.0
H2156 H 0.81612 0.52322 0.81867 0.0
H2157 H 0.81844 0.51295 0.84223 0.0
H2158 H 0.79956 0.53265 0.85439 0.0
H2159 H 0.80089 0.56164 0.86059 0.0
H2160 H 0.44049 0.20964 0.1312 0.0
H2161 H 0.46874 0.21369 0.13944 0.0
H2162 H 0.45631 0.25494 0.17572 0.0
H2163 H 0.42779 0.251 0.1675 0.0
H2164 H 0.48566 0.24585 0.13211 0.0
H2165 H 0.48685 0.2233 0.21032 0.0
H2166 H 0.47181 0.2164 0.19289 0.0
H2167 H 0.47098 0.2367 0.20232 0.0
C2168 C 0.44369 0.21953 0.14105 0.0
C2169 C 0.4319 0.23003 0.14867 0.0
C2170 C 0.45984 0.22181 0.14573 0.0
C2171 C 0.46454 0.23455 0.15822 0.0
C2172 C 0.45285 0.24496 0.16617 0.0
H2173 H 0.56811 0.25324 0.17825 0.0
H2174 H 0.53887 0.25701 0.18107 0.0
C2175 C 0.4366 0.24271 0.16142 0.0
C2176 C 0.48183 0.23718 0.16193 0.0
H2177 H 0.51178 0.22889 0.19512 0.0
C2178 C 0.49136 0.24249 0.14602 0.0
C2179 C 0.48915 0.23277 0.1801 0.0
C2180 C 0.47927 0.22692 0.19747 0.0
C2181 C 0.50814 0.24279 0.14751 0.0
C2182 C 0.51552 0.2375 0.16527 0.0
C2183 C 0.506 0.23298 0.18157 0.0
C2184 C 0.533 0.23462 0.16598 0.0
C2185 C 0.51797 0.24799 0.12977 0.0
C2186 C 0.53921 0.22065 0.15697 0.0
C2187 C 0.55576 0.21849 0.1553 0.0
C2188 C 0.56642 0.23027 0.16264 0.0
C2189 C 0.56018 0.24396 0.17247 0.0
C2190 C 0.54352 0.24613 0.17411 0.0
H2191 H 0.51055 0.25431 0.11843 0.0
H2192 H 0.52787 0.25616 0.13449 0.0
H2193 H 0.52346 0.23713 0.12275 0.0
H2194 H 0.53122 0.21166 0.15063 0.0
H2195 H 0.56017 0.20777 0.14774 0.0
H2196 H 0.74995 0.55468 0.12692 0.0
H2197 H 0.75634 0.52656 0.13445 0.0
H2198 H 0.79327 0.54215 0.17523 0.0
H2199 H 0.78737 0.57055 0.16699 0.0
H2200 H 0.80385 0.51787 0.15442 0.0
H2201 H 0.74391 0.50067 0.1816 0.0
H2202 H 0.742 0.50898 0.15713 0.0
H2203 H 0.74934 0.52153 0.17716 0.0
C2204 C 0.75937 0.55216 0.1376 0.0
C2205 C 0.76807 0.56484 0.14651 0.0
C2206 C 0.76293 0.53605 0.14204 0.0
C2207 C 0.77493 0.5322 0.15591 0.0
C2208 C 0.78382 0.54482 0.16466 0.0
H2209 H 0.77647 0.42771 0.18045 0.0
H2210 H 0.77554 0.45697 0.18679 0.0
C2211 C 0.78046 0.56102 0.15993 0.0
C2212 C 0.77856 0.51494 0.16036 0.0
H2213 H 0.76021 0.47859 0.16858 0.0
C2214 C 0.79436 0.50931 0.1579 0.0
C2215 C 0.76635 0.50378 0.1656 0.0
C2216 C 0.74951 0.50912 0.17076 0.0
C2217 C 0.79802 0.49271 0.1591 0.0
C2218 C 0.78543 0.48139 0.162 0.0
C2219 C 0.76987 0.48715 0.1659 0.0
C2220 C 0.78777 0.46361 0.15952 0.0
C2221 C 0.81535 0.48758 0.15715 0.0
C2222 C 0.79503 0.45753 0.1422 0.0
C2223 C 0.7959 0.44085 0.13882 0.0
C2224 C 0.78905 0.42991 0.15237 0.0
C2225 C 0.78182 0.43591 0.16975 0.0
C2226 C 0.7813 0.45262 0.17337 0.0
H2227 H 0.82351 0.49699 0.16331 0.0
H2228 H 0.81773 0.47595 0.16494 0.0
H2229 H 0.81836 0.48614 0.14117 0.0
H2230 H 0.79955 0.46567 0.13088 0.0
H2231 H 0.80136 0.43657 0.12516 0.0
H2232 H 0.43764 0.80779 0.14716 0.0
H2233 H 0.46689 0.8085 0.14969 0.0
H2234 H 0.46645 0.76282 0.18086 0.0
H2235 H 0.43703 0.76201 0.17852 0.0
H2236 H 0.49019 0.78838 0.19487 0.0
H2237 H 0.49171 0.77456 0.11399 0.0
H2238 H 0.47919 0.79141 0.12088 0.0
H2239 H 0.47406 0.77133 0.1291 0.0
C2240 C 0.4437 0.79803 0.1549 0.0
C2241 C 0.43504 0.78474 0.16242 0.0
C2242 C 0.46042 0.79846 0.15632 0.0
C2243 C 0.46878 0.7856 0.1652 0.0
C2244 C 0.46016 0.77283 0.17392 0.0
H2245 H 0.57238 0.76583 0.16655 0.0
H2246 H 0.54362 0.76518 0.17455 0.0
C2247 C 0.44337 0.7724 0.17255 0.0
C2248 C 0.48647 0.78482 0.1635 0.0
H2249 H 0.5164 0.78164 0.12909 0.0
C2250 C 0.49598 0.78679 0.18056 0.0
C2251 C 0.4939 0.7826 0.1448 0.0
C2252 C 0.48423 0.77971 0.12614 0.0
C2253 C 0.51285 0.78725 0.17922 0.0
C2254 C 0.52024 0.7855 0.16039 0.0
C2255 C 0.51068 0.7831 0.14348 0.0
C2256 C 0.53783 0.78669 0.15754 0.0
C2257 C 0.52262 0.79013 0.19777 0.0
C2258 C 0.54406 0.79897 0.14535 0.0
C2259 C 0.56038 0.7993 0.14065 0.0
C2260 C 0.5708 0.7873 0.148 0.0
C2261 C 0.56464 0.77526 0.16071 0.0
C2262 C 0.54825 0.77492 0.16538 0.0
H2263 H 0.51506 0.79433 0.21037 0.0
H2264 H 0.52856 0.77864 0.20222 0.0
H2265 H 0.53216 0.79926 0.19496 0.0
H2266 H 0.5362 0.80812 0.13909 0.0
H2267 H 0.56474 0.80877 0.13088 0.0
H2268 H 0.20165 0.42974 0.14567 0.0
H2269 H 0.19859 0.45912 0.14955 0.0
H2270 H 0.24879 0.46319 0.16461 0.0
H2271 H 0.25207 0.434 0.1603 0.0
H2272 H 0.20401 0.48065 0.18045 0.0
H2273 H 0.2449 0.49331 0.11718 0.0
H2274 H 0.23725 0.47328 0.12234 0.0
H2275 H 0.25404 0.48114 0.13618 0.0
C2276 C 0.21201 0.43688 0.14995 0.0
C2277 C 0.22716 0.42957 0.15236 0.0
C2278 C 0.21024 0.45366 0.15216 0.0
C2279 C 0.22355 0.46336 0.1569 0.0
C2280 C 0.23846 0.45597 0.1604 0.0
H2281 H 0.24155 0.56588 0.17048 0.0
H2282 H 0.24167 0.5363 0.17341 0.0
C2283 C 0.24029 0.43927 0.15799 0.0
C2284 C 0.22204 0.48126 0.15747 0.0
H2285 H 0.23707 0.51591 0.13682 0.0
C2286 C 0.21117 0.48837 0.17086 0.0
C2287 C 0.23131 0.49129 0.14479 0.0
C2288 C 0.24241 0.48438 0.12917 0.0
C2289 C 0.20963 0.50531 0.17223 0.0
C2290 C 0.21918 0.51527 0.15989 0.0
C2291 C 0.22991 0.50817 0.1464 0.0
C2292 C 0.21813 0.53314 0.16038 0.0
C2293 C 0.19803 0.51252 0.18702 0.0
C2294 C 0.20477 0.54108 0.15224 0.0
C2295 C 0.20471 0.55797 0.15039 0.0
C2296 C 0.21801 0.56715 0.15669 0.0
C2297 C 0.23112 0.55916 0.16551 0.0
C2298 C 0.23121 0.54227 0.16721 0.0
H2299 H 0.19331 0.50328 0.19754 0.0
H2300 H 0.20395 0.52234 0.19562 0.0
H2301 H 0.18774 0.51796 0.17892 0.0
H2302 H 0.19465 0.53418 0.14665 0.0
H2303 H 0.19443 0.56379 0.14353 0.0
H2304 H 0.12451 0.24917 0.40766 0.0
H2305 H 0.12512 0.25144 0.44406 0.0
H2306 H 0.10855 0.30093 0.43979 0.0
H2307 H 0.10802 0.29863 0.40341 0.0
H2308 H 0.13471 0.29711 0.46454 0.0
H2309 H 0.08749 0.25228 0.48313 0.0
H2310 H 0.10307 0.24446 0.46733 0.0
H2311 H 0.09013 0.26031 0.45835 0.0
C2312 C 0.12105 0.26051 0.41459 0.0
C2313 C 0.11672 0.27391 0.40292 0.0
C2314 C 0.12124 0.26175 0.43531 0.0
C2315 C 0.11666 0.27628 0.44461 0.0
C2316 C 0.11208 0.2896 0.4329 0.0
H2317 H 0.11458 0.30849 0.56834 0.0
H2318 H 0.11453 0.3076 0.53187 0.0
C2319 C 0.11195 0.28835 0.41219 0.0
C2320 C 0.11744 0.27789 0.4665 0.0
H2321 H 0.10331 0.26212 0.51005 0.0
C2322 C 0.12778 0.28957 0.47449 0.0
C2323 C 0.10836 0.26795 0.47944 0.0
C2324 C 0.09652 0.25564 0.47167 0.0
C2325 C 0.1297 0.29136 0.49506 0.0
C2326 C 0.12078 0.28135 0.50808 0.0
C2327 C 0.11023 0.26974 0.50008 0.0
C2328 C 0.12228 0.28255 0.53003 0.0
C2329 C 0.14183 0.30338 0.5026 0.0
C2330 C 0.12655 0.26879 0.54113 0.0
C2331 C 0.12645 0.26929 0.56188 0.0
C2332 C 0.12236 0.28363 0.57189 0.0
C2333 C 0.11836 0.29749 0.56087 0.0
C2334 C 0.11832 0.29696 0.54006 0.0
H2335 H 0.14996 0.30777 0.49065 0.0
H2336 H 0.13555 0.31402 0.50903 0.0
H2337 H 0.14919 0.29765 0.51436 0.0
H2338 H 0.12956 0.25752 0.53371 0.0
H2339 H 0.12926 0.25837 0.57015 0.0
H2340 H 0.74062 0.13038 0.58607 0.0
H2341 H 0.74061 0.13015 0.54971 0.0
H2342 H 0.6927 0.10997 0.55019 0.0
H2343 H 0.69225 0.11178 0.58651 0.0
H2344 H 0.74083 0.10688 0.52671 0.0
H2345 H 0.68567 0.14067 0.5072 0.0
H2346 H 0.69404 0.14061 0.53184 0.0
H2347 H 0.68129 0.1242 0.52373 0.0
C2348 C 0.72992 0.12645 0.57827 0.0
C2349 C 0.71627 0.12158 0.58888 0.0
C2350 C 0.72994 0.12615 0.55751 0.0
C2351 C 0.71657 0.12024 0.54697 0.0
C2352 C 0.70294 0.11521 0.55772 0.0
H2353 H 0.7333 0.08705 0.42426 0.0
H2354 H 0.72917 0.08773 0.46038 0.0
C2355 C 0.7027 0.11612 0.5785 0.0
C2356 C 0.71752 0.11823 0.52494 0.0
H2357 H 0.69737 0.12489 0.48148 0.0
C2358 C 0.73138 0.11103 0.51685 0.0
C2359 C 0.70527 0.1236 0.51188 0.0
C2360 C 0.69079 0.13284 0.51907 0.0
C2361 C 0.73349 0.10941 0.49624 0.0
C2362 C 0.72093 0.11417 0.48327 0.0
C2363 C 0.70695 0.12106 0.49136 0.0
C2364 C 0.72236 0.11311 0.46126 0.0
C2365 C 0.74947 0.10326 0.48871 0.0
C2366 C 0.71894 0.1268 0.44953 0.0
C2367 C 0.72056 0.12617 0.4289 0.0
C2368 C 0.72598 0.11195 0.41964 0.0
C2369 C 0.72922 0.09817 0.4312 0.0
C2370 C 0.72705 0.09864 0.45182 0.0
H2371 H 0.75917 0.10517 0.49982 0.0
H2372 H 0.74861 0.09002 0.48592 0.0
H2373 H 0.75302 0.10939 0.47469 0.0
H2374 H 0.7153 0.13812 0.45636 0.0
H2375 H 0.71814 0.13698 0.42024 0.0
H2376 H 0.88633 0.69374 0.40553 0.0
H2377 H 0.88866 0.69275 0.44184 0.0
H2378 H 0.87691 0.74367 0.44506 0.0
H2379 H 0.87502 0.7447 0.40867 0.0
H2380 H 0.9033 0.73652 0.46681 0.0
H2381 H 0.85534 0.69205 0.48509 0.0
H2382 H 0.86875 0.68587 0.46557 0.0
H2383 H 0.85594 0.70326 0.46213 0.0
C2384 C 0.88377 0.70457 0.4141 0.0
C2385 C 0.88003 0.71919 0.40449 0.0
C2386 C 0.88512 0.70402 0.43482 0.0
C2387 C 0.88269 0.71809 0.44625 0.0
C2388 C 0.87876 0.73266 0.43658 0.0
H2389 H 0.88388 0.74535 0.57006 0.0
H2390 H 0.88384 0.74461 0.5336 0.0
C2391 C 0.87759 0.73323 0.41586 0.0
C2392 C 0.88516 0.71789 0.46813 0.0
H2393 H 0.8724 0.69996 0.51093 0.0
C2394 C 0.89647 0.72857 0.47649 0.0
C2395 C 0.87639 0.70745 0.48078 0.0
C2396 C 0.86333 0.69654 0.47304 0.0
C2397 C 0.89914 0.72909 0.49712 0.0
C2398 C 0.89017 0.71874 0.50969 0.0
C2399 C 0.87921 0.70785 0.50129 0.0
C2400 C 0.89124 0.71948 0.53166 0.0
C2401 C 0.91164 0.74056 0.50524 0.0
C2402 C 0.89507 0.70551 0.54265 0.0
C2403 C 0.89484 0.70588 0.56343 0.0
C2404 C 0.89045 0.72011 0.57346 0.0
C2405 C 0.88702 0.73417 0.56252 0.0
C2406 C 0.88719 0.73381 0.54176 0.0
H2407 H 0.92064 0.74386 0.49373 0.0
H2408 H 0.90566 0.75188 0.51023 0.0
H2409 H 0.91799 0.73517 0.51817 0.0
H2410 H 0.89814 0.69431 0.53514 0.0
H2411 H 0.89807 0.69507 0.57167 0.0
H2412 H 0.30826 0.89203 0.57909 0.0
H2413 H 0.30679 0.89346 0.54265 0.0
H2414 H 0.25641 0.88128 0.54514 0.0
H2415 H 0.25796 0.87967 0.58156 0.0
H2416 H 0.27454 0.86341 0.51641 0.0
H2417 H 0.28422 0.93001 0.51089 0.0
H2418 H 0.299 0.91895 0.52491 0.0
H2419 H 0.27873 0.92016 0.53389 0.0
C2420 C 0.29697 0.88944 0.57175 0.0
C2421 C 0.28334 0.88523 0.58288 0.0
C2422 C 0.29609 0.89045 0.55103 0.0
C2423 C 0.28147 0.88754 0.54126 0.0
C2424 C 0.26781 0.8835 0.55244 0.0
H2425 H 0.24537 0.90709 0.42467 0.0
H2426 H 0.2519 0.90615 0.46004 0.0
C2427 C 0.26868 0.88258 0.57314 0.0
C2428 C 0.28032 0.88872 0.51936 0.0
H2429 H 0.28187 0.91554 0.4807 0.0
C2430 C 0.2763 0.87475 0.50857 0.0
C2431 C 0.28242 0.90362 0.50927 0.0
C2432 C 0.28621 0.9191 0.52028 0.0
C2433 C 0.27427 0.87527 0.48788 0.0
C2434 C 0.27636 0.89015 0.47778 0.0
C2435 C 0.28044 0.90413 0.48854 0.0
C2436 C 0.27329 0.89161 0.45621 0.0
C2437 C 0.26941 0.86002 0.47701 0.0
C2438 C 0.28339 0.88401 0.44236 0.0
C2439 C 0.27974 0.88455 0.42207 0.0
C2440 C 0.26588 0.89266 0.41533 0.0
C2441 C 0.25609 0.90067 0.42929 0.0
C2442 C 0.2598 0.90019 0.44953 0.0
H2443 H 0.26583 0.85017 0.48738 0.0
H2444 H 0.25925 0.86253 0.46675 0.0
H2445 H 0.27968 0.85565 0.46795 0.0
H2446 H 0.29394 0.87745 0.44729 0.0
H2447 H 0.28756 0.87826 0.41176 0.0
H2448 H 0.10239 0.69521 0.42732 0.0
H2449 H 0.10275 0.69777 0.46363 0.0
H2450 H 0.11398 0.74871 0.45795 0.0
H2451 H 0.11447 0.74584 0.42168 0.0
H2452 H 0.13325 0.73573 0.48313 0.0
H2453 H 0.07208 0.71556 0.50294 0.0
H2454 H 0.08228 0.70034 0.48874 0.0
H2455 H 0.07789 0.71973 0.47761 0.0
C2456 C 0.10508 0.70688 0.43395 0.0
C2457 C 0.10913 0.72016 0.42196 0.0
C2458 C 0.10492 0.70844 0.45464 0.0
C2459 C 0.10825 0.72348 0.46359 0.0
C2460 C 0.11146 0.73696 0.45143 0.0
H2461 H 0.12465 0.75275 0.58712 0.0
H2462 H 0.12205 0.75236 0.55081 0.0
C2463 C 0.11177 0.73534 0.43077 0.0
C2464 C 0.10979 0.72489 0.48551 0.0
H2465 H 0.0913 0.716 0.5295 0.0
C2466 C 0.12405 0.7314 0.49324 0.0
C2467 C 0.09769 0.71954 0.49877 0.0
C2468 C 0.08157 0.71357 0.49157 0.0
C2469 C 0.1269 0.73207 0.51376 0.0
C2470 C 0.11501 0.72631 0.52705 0.0
C2471 C 0.10055 0.72016 0.51934 0.0
C2472 C 0.1172 0.72658 0.54898 0.0
C2473 C 0.14283 0.73858 0.52078 0.0
C2474 C 0.11486 0.71236 0.56013 0.0
C2475 C 0.116 0.71269 0.58085 0.0
C2476 C 0.11995 0.72712 0.59075 0.0
C2477 C 0.12214 0.74137 0.57969 0.0
C2478 C 0.12073 0.74112 0.55897 0.0
H2479 H 0.15239 0.73674 0.50945 0.0
H2480 H 0.14171 0.75182 0.52345 0.0
H2481 H 0.14663 0.73271 0.53476 0.0
H2482 H 0.11192 0.70104 0.55282 0.0
H2483 H 0.11342 0.70175 0.58918 0.0
H2484 H 0.30953 0.10864 0.4138 0.0
H2485 H 0.3088 0.10688 0.45028 0.0
H2486 H 0.25872 0.12034 0.44968 0.0
H2487 H 0.25946 0.12211 0.41319 0.0
H2488 H 0.27997 0.138 0.47783 0.0
H2489 H 0.28406 0.07071 0.48256 0.0
H2490 H 0.2985 0.08088 0.467 0.0
H2491 H 0.27766 0.08105 0.46023 0.0
C2492 C 0.29845 0.11141 0.42156 0.0
C2493 C 0.28467 0.116 0.41095 0.0
C2494 C 0.298 0.11024 0.44228 0.0
C2495 C 0.2837 0.11346 0.45258 0.0
C2496 C 0.26987 0.11787 0.44194 0.0
H2497 H 0.24933 0.09771 0.5709 0.0
H2498 H 0.25468 0.09803 0.53518 0.0
C2499 C 0.27029 0.1189 0.42121 0.0
C2500 C 0.28308 0.11226 0.47448 0.0
H2501 H 0.28317 0.08515 0.51286 0.0
C2502 C 0.28081 0.12649 0.48552 0.0
C2503 C 0.28404 0.09716 0.48436 0.0
C2504 C 0.2861 0.08152 0.47301 0.0
C2505 C 0.27938 0.12604 0.50629 0.0
C2506 C 0.28028 0.11094 0.51618 0.0
C2507 C 0.28262 0.09669 0.50516 0.0
C2508 C 0.27783 0.10969 0.53788 0.0
C2509 C 0.27647 0.14162 0.51749 0.0
C2510 C 0.28927 0.11586 0.55117 0.0
C2511 C 0.28631 0.11566 0.57164 0.0
C2512 C 0.2718 0.10934 0.57912 0.0
C2513 C 0.26059 0.10274 0.56569 0.0
C2514 C 0.26362 0.10286 0.54527 0.0
H2515 H 0.27374 0.15191 0.50737 0.0
H2516 H 0.26635 0.14014 0.5281 0.0
H2517 H 0.28735 0.14474 0.52622 0.0
H2518 H 0.30037 0.12107 0.54568 0.0
H2519 H 0.29522 0.12083 0.58152 0.0
H2520 H 0.89507 0.30329 0.42273 0.0
H2521 H 0.89501 0.30371 0.45927 0.0
H2522 H 0.87886 0.25397 0.46004 0.0
H2523 H 0.87892 0.2536 0.42356 0.0
H2524 H 0.86836 0.298 0.48366 0.0
H2525 H 0.91674 0.25365 0.49923 0.0
H2526 H 0.91418 0.26309 0.47518 0.0
H2527 H 0.90157 0.24641 0.48243 0.0
C2528 C 0.89137 0.29254 0.43079 0.0
C2529 C 0.88647 0.27859 0.42054 0.0
C2530 C 0.89152 0.29271 0.45158 0.0
C2531 C 0.88713 0.2788 0.46233 0.0
C2532 C 0.88257 0.26473 0.45203 0.0
H2533 H 0.87432 0.25417 0.58643 0.0
H2534 H 0.87454 0.25482 0.54994 0.0
C2535 C 0.88245 0.26457 0.43126 0.0
C2536 C 0.88626 0.27931 0.4843 0.0
H2537 H 0.90045 0.26159 0.52668 0.0
C2538 C 0.87542 0.29014 0.49306 0.0
C2539 C 0.8955 0.26894 0.49652 0.0
C2540 C 0.90777 0.25745 0.48791 0.0
C2541 C 0.87312 0.29058 0.51367 0.0
C2542 C 0.88229 0.28022 0.52599 0.0
C2543 C 0.89335 0.2695 0.51724 0.0
C2544 C 0.88062 0.2803 0.54797 0.0
C2545 C 0.8603 0.30152 0.52194 0.0
C2546 C 0.88377 0.29444 0.55897 0.0
C2547 C 0.88342 0.2941 0.57976 0.0
C2548 C 0.87993 0.27964 0.58984 0.0
C2549 C 0.8767 0.26554 0.57889 0.0
C2550 C 0.87691 0.26589 0.55811 0.0
H2551 H 0.85197 0.30596 0.51023 0.0
H2552 H 0.85323 0.29488 0.53326 0.0
H2553 H 0.86595 0.31222 0.52907 0.0
H2554 H 0.88713 0.30558 0.55153 0.0
H2555 H 0.88658 0.30496 0.58796 0.0
H2556 H 0.74867 0.90502 0.57348 0.0
H2557 H 0.74237 0.90384 0.53803 0.0
H2558 H 0.69853 0.87812 0.55101 0.0
H2559 H 0.70464 0.8792 0.58652 0.0
H2560 H 0.71977 0.86267 0.52328 0.0
H2561 H 0.70755 0.92689 0.50344 0.0
H2562 H 0.72547 0.92358 0.51783 0.0
H2563 H 0.70619 0.91937 0.52864 0.0
C2564 C 0.73754 0.89935 0.56887 0.0
C2565 C 0.7272 0.89215 0.5829 0.0
C2566 C 0.73393 0.89877 0.5486 0.0
C2567 C 0.71993 0.89102 0.54197 0.0
C2568 C 0.70934 0.88425 0.5559 0.0
H2569 H 0.6902 0.8859 0.41728 0.0
H2570 H 0.68933 0.88659 0.45383 0.0
C2571 C 0.71288 0.88489 0.57619 0.0
C2572 C 0.7172 0.88855 0.52047 0.0
H2573 H 0.71165 0.90851 0.47654 0.0
C2574 C 0.71788 0.87267 0.51305 0.0
C2575 C 0.71459 0.90162 0.50727 0.0
C2576 C 0.71326 0.91884 0.51465 0.0
C2577 C 0.71658 0.86956 0.49262 0.0
C2578 C 0.71448 0.88264 0.47933 0.0
C2579 C 0.71328 0.89849 0.4868 0.0
C2580 C 0.71438 0.88026 0.45753 0.0
C2581 C 0.71714 0.8523 0.48536 0.0
C2582 C 0.7287 0.87635 0.44761 0.0
C2583 C 0.72918 0.87591 0.42686 0.0
C2584 C 0.71529 0.87912 0.41574 0.0
C2585 C 0.7009 0.88282 0.42563 0.0
C2586 C 0.70043 0.88335 0.44642 0.0
H2587 H 0.71796 0.84342 0.49775 0.0
H2588 H 0.70609 0.84978 0.47673 0.0
H2589 H 0.72761 0.85055 0.47538 0.0
H2590 H 0.73965 0.87424 0.45593 0.0
H2591 H 0.74048 0.87343 0.41946 0.0
H2592 H 0.62367 0.75663 0.07434 0.0
H2593 H 0.62153 0.75339 0.03827 0.0
H2594 H 0.61092 0.80442 0.03239 0.0
H2595 H 0.61205 0.80737 0.06867 0.0
H2596 H 0.59063 0.78691 0.01146 0.0
H2597 H 0.65194 0.76493 0.99518 0.0
H2598 H 0.64126 0.75063 0.01029 0.0
H2599 H 0.64593 0.77036 0.01999 0.0
C2600 C 0.62117 0.76718 0.06524 0.0
C2601 C 0.61872 0.7824 0.07407 0.0
C2602 C 0.62003 0.76535 0.04465 0.0
C2603 C 0.61652 0.77874 0.03251 0.0
C2604 C 0.61389 0.79395 0.04141 0.0
H2605 H 0.60031 0.79605 0.90701 0.0
H2606 H 0.60113 0.79749 0.94333 0.0
C2607 C 0.61477 0.79571 0.06206 0.0
C2608 C 0.61445 0.77669 0.01071 0.0
H2609 H 0.63272 0.76253 0.96878 0.0
C2610 C 0.59992 0.78176 0.00207 0.0
C2611 C 0.62638 0.76954 0.9985 0.0
C2612 C 0.64228 0.76369 0.00649 0.0
C2613 C 0.59699 0.77992 0.98164 0.0
C2614 C 0.60914 0.77328 0.96936 0.0
C2615 C 0.6235 0.76789 0.97807 0.0
C2616 C 0.60756 0.77221 0.9474 0.0
C2617 C 0.58071 0.78465 0.97365 0.0
C2618 C 0.61122 0.75766 0.93748 0.0
C2619 C 0.61133 0.75704 0.91672 0.0
C2620 C 0.608 0.77102 0.9056 0.0
C2621 C 0.60353 0.78531 0.91541 0.0
C2622 C 0.60363 0.78601 0.93615 0.0
H2623 H 0.5713 0.78358 0.9853 0.0
H2624 H 0.58104 0.79752 0.96882 0.0
H2625 H 0.57717 0.77701 0.96079 0.0
H2626 H 0.61421 0.74682 0.9458 0.0
H2627 H 0.61438 0.74577 0.90934 0.0
H2628 H 0.24424 0.59259 0.93093 0.0
H2629 H 0.23876 0.59448 0.96649 0.0
H2630 H 0.19745 0.6245 0.95461 0.0
H2631 H 0.20281 0.62275 0.9189 0.0
H2632 H 0.21994 0.63775 0.98188 0.0
H2633 H 0.20303 0.57476 0.002 0.0
H2634 H 0.22106 0.57634 0.98742 0.0
H2635 H 0.20216 0.5823 0.97678 0.0
C2636 C 0.23382 0.59939 0.93579 0.0
C2637 C 0.224 0.60756 0.92201 0.0
C2638 C 0.23066 0.60036 0.95615 0.0
C2639 C 0.21761 0.60949 0.96313 0.0
C2640 C 0.20751 0.6173 0.94945 0.0
H2641 H 0.193 0.61527 0.08954 0.0
H2642 H 0.19055 0.61494 0.05311 0.0
C2643 C 0.2106 0.61626 0.92906 0.0
C2644 C 0.21552 0.61213 0.98472 0.0
H2645 H 0.20997 0.59244 0.02884 0.0
C2646 C 0.21763 0.62788 0.99216 0.0
C2647 C 0.21232 0.59925 0.99801 0.0
C2648 C 0.20936 0.58222 0.99068 0.0
C2649 C 0.21727 0.63098 0.01265 0.0
C2650 C 0.21471 0.61801 0.02601 0.0
C2651 C 0.21199 0.60235 0.01854 0.0
C2652 C 0.21565 0.62024 0.04782 0.0
C2653 C 0.21929 0.64812 0.01992 0.0
C2654 C 0.23053 0.62342 0.05682 0.0
C2655 C 0.23191 0.62367 0.07753 0.0
C2656 C 0.21838 0.62098 0.08952 0.0
C2657 C 0.20346 0.61796 0.08053 0.0
C2658 C 0.20209 0.61764 0.0598 0.0
H2659 H 0.22005 0.657 0.00752 0.0
H2660 H 0.2089 0.65131 0.02941 0.0
H2661 H 0.23035 0.64914 0.02905 0.0
H2662 H 0.2412 0.62509 0.04783 0.0
H2663 H 0.2436 0.62563 0.0842 0.0
H2664 H 0.36226 0.23805 0.07348 0.0
H2665 H 0.36089 0.23542 0.0375 0.0
H2666 H 0.40577 0.20888 0.0386 0.0
H2667 H 0.40456 0.20818 0.07475 0.0
H2668 H 0.37243 0.24498 0.01015 0.0
H2669 H 0.38966 0.18145 -0.00069 0.0
H2670 H 0.38622 0.18913 0.02387 0.0
H2671 H 0.4059 0.19062 0.01249 0.0
C2672 C 0.37115 0.23072 0.06589 0.0
C2673 C 0.38265 0.22212 0.07672 0.0
C2674 C 0.37075 0.22962 0.04517 0.0
C2675 C 0.38291 0.22127 0.03468 0.0
C2676 C 0.39542 0.21415 0.04581 0.0
H2677 H 0.39031 0.25029 0.90961 0.0
H2678 H 0.39096 0.24915 0.94578 0.0
C2679 C 0.39494 0.21401 0.06658 0.0
C2680 C 0.38298 0.22104 0.01233 0.0
H2681 H 0.39596 0.19957 0.97211 0.0
C2682 C 0.37699 0.23462 0.00201 0.0
C2683 C 0.38874 0.20772 0.00095 0.0
C2684 C 0.39276 0.19138 0.00981 0.0
C2685 C 0.37635 0.23516 0.98118 0.0
C2686 C 0.38404 0.22281 0.96996 0.0
C2687 C 0.39019 0.20929 0.98025 0.0
C2688 C 0.38557 0.2234 0.94774 0.0
C2689 C 0.36667 0.24868 0.97185 0.0
C2690 C 0.38463 0.20908 0.93634 0.0
C2691 C 0.38589 0.20962 0.91566 0.0
C2692 C 0.38662 0.2245 0.90575 0.0
C2693 C 0.38861 0.23871 0.91693 0.0
C2694 C 0.38862 0.23808 0.93769 0.0
H2695 H 0.35647 0.25222 0.98161 0.0
H2696 H 0.37436 0.25958 0.9701 0.0
H2697 H 0.36163 0.24516 0.95722 0.0
H2698 H 0.38275 0.19738 0.94326 0.0
H2699 H 0.38608 0.19837 0.90738 0.0
H2700 H 0.76015 0.3713 0.08171 0.0
H2701 H 0.75882 0.37273 0.04526 0.0
H2702 H 0.80878 0.38647 0.04324 0.0
H2703 H 0.81007 0.38518 0.07973 0.0
H2704 H 0.78341 0.40807 0.02301 0.0
H2705 H 0.78005 0.34286 0.00124 0.0
H2706 H 0.77234 0.34943 0.02499 0.0
H2707 H 0.79359 0.34961 0.02044 0.0
C2708 C 0.77091 0.37425 0.07339 0.0
C2709 C 0.78533 0.37765 0.08333 0.0
C2710 C 0.77015 0.37506 0.05266 0.0
C2711 C 0.78375 0.37953 0.04162 0.0
C2712 C 0.79822 0.38282 0.05153 0.0
H2713 H 0.79464 0.38167 0.91354 0.0
H2714 H 0.79944 0.38044 0.94933 0.0
C2715 C 0.79899 0.38194 0.07228 0.0
C2716 C 0.78242 0.3821 0.01992 0.0
H2717 H 0.77795 0.36215 0.97581 0.0
C2718 C 0.78226 0.39806 0.01265 0.0
C2719 C 0.7809 0.369 0.00653 0.0
C2720 C 0.78168 0.3517 0.01355 0.0
C2721 C 0.78042 0.40124 0.99225 0.0
C2722 C 0.77872 0.3881 0.97893 0.0
C2723 C 0.77914 0.37217 0.98617 0.0
C2724 C 0.77637 0.39053 0.95737 0.0
C2725 C 0.7804 0.41854 0.98502 0.0
C2726 C 0.76183 0.39674 0.95012 0.0
C2727 C 0.75896 0.39738 0.92966 0.0
C2728 C 0.77062 0.39182 0.9161 0.0
C2729 C 0.78539 0.38608 0.9235 0.0
C2730 C 0.78818 0.38535 0.94395 0.0
H2731 H 0.78469 0.42711 0.99662 0.0
H2732 H 0.7881 0.41981 0.97161 0.0
H2733 H 0.76798 0.42204 0.98079 0.0
H2734 H 0.75249 0.40059 0.96032 0.0
H2735 H 0.74746 0.40186 0.92452 0.0
H2736 H 0.60964 0.20216 0.09134 0.0
H2737 H 0.61036 0.2018 0.05494 0.0
H2738 H 0.62355 0.25246 0.05478 0.0
H2739 H 0.6242 0.25231 0.09119 0.0
H2740 H 0.59259 0.21724 0.03009 0.0
H2741 H 0.6552 0.23628 0.01613 0.0
H2742 H 0.64765 0.23382 0.041 0.0
H2743 H 0.64412 0.25236 0.02768 0.0
C2744 C 0.6134 0.21296 0.08346 0.0
C2745 C 0.61777 0.22698 0.09392 0.0
C2746 C 0.61353 0.21287 0.06269 0.0
C2747 C 0.61744 0.227 0.05202 0.0
C2748 C 0.62113 0.24123 0.06258 0.0
H2749 H 0.62021 0.24826 0.92511 0.0
H2750 H 0.61918 0.25029 0.96148 0.0
C2751 C 0.6214 0.24118 0.08335 0.0
C2752 C 0.61662 0.22701 0.02995 0.0
H2753 H 0.63756 0.23634 0.98785 0.0
C2754 C 0.60252 0.22124 0.02086 0.0
C2755 C 0.62939 0.23261 0.01782 0.0
C2756 C 0.64497 0.23898 0.02621 0.0
C2757 C 0.60087 0.22083 0.00011 0.0
C2758 C 0.61382 0.22599 0.98806 0.0
C2759 C 0.62774 0.23211 0.99709 0.0
C2760 C 0.61339 0.22494 0.96606 0.0
C2761 C 0.5851 0.21526 0.99138 0.0
C2762 C 0.6104 0.21007 0.95656 0.0
C2763 C 0.61089 0.20897 0.93585 0.0
C2764 C 0.61493 0.22258 0.92441 0.0
C2765 C 0.61748 0.23754 0.93379 0.0
C2766 C 0.61687 0.23869 0.95449 0.0
H2767 H 0.57503 0.21707 0.00201 0.0
H2768 H 0.58226 0.22183 0.9774 0.0
H2769 H 0.58582 0.2021 0.98805 0.0
H2770 H 0.60802 0.19922 0.96515 0.0
H2771 H 0.60831 0.19746 0.92877 0.0
H2772 H 0.79042 0.6199 0.07837 0.0
H2773 H 0.79657 0.62089 0.04279 0.0
H2774 H 0.75234 0.59583 0.02987 0.0
H2775 H 0.74604 0.59471 0.06529 0.0
H2776 H 0.78117 0.58446 0.00857 0.0
H2777 H 0.77056 0.65108 0.00389 0.0
H2778 H 0.78416 0.64406 0.02283 0.0
H2779 H 0.76325 0.63898 0.02437 0.0
C2780 C 0.78205 0.61446 0.068 0.0
C2781 C 0.76767 0.60732 0.07471 0.0
C2782 C 0.78557 0.6151 0.04769 0.0
C2783 C 0.77482 0.60857 0.03379 0.0
C2784 C 0.76076 0.60095 0.04043 0.0
H2785 H 0.75663 0.622 0.90988 0.0
H2786 H 0.75642 0.62034 0.94636 0.0
C2787 C 0.75718 0.60037 0.06068 0.0
C2788 C 0.7778 0.61016 0.01223 0.0
H2789 H 0.77744 0.6376 0.97429 0.0
C2790 C 0.78054 0.59608 0.00104 0.0
C2791 C 0.77679 0.62535 0.00256 0.0
C2792 C 0.77343 0.64077 0.01392 0.0
C2793 C 0.78212 0.59677 0.98028 0.0
C2794 C 0.78098 0.61194 0.97061 0.0
C2795 C 0.77843 0.62604 0.98183 0.0
C2796 C 0.7814 0.61331 0.94872 0.0
C2797 C 0.78445 0.58124 0.96875 0.0
C2798 C 0.79554 0.60999 0.93813 0.0
C2799 C 0.79568 0.61106 0.91739 0.0
C2800 C 0.78175 0.6157 0.90709 0.0
C2801 C 0.76757 0.61876 0.91766 0.0
C2802 C 0.76745 0.61781 0.93839 0.0
H2803 H 0.78245 0.57033 0.97812 0.0
H2804 H 0.77613 0.58079 0.95585 0.0
H2805 H 0.79691 0.58079 0.96291 0.0
H2806 H 0.80642 0.60657 0.94589 0.0
H2807 H 0.8066 0.60815 0.90938 0.0
H2808 H 0.36411 0.7614 0.92351 0.0
H2809 H 0.36484 0.76297 0.9596 0.0
H2810 H 0.40856 0.79125 0.95563 0.0
H2811 H 0.4051 0.79294 0.91972 0.0
H2812 H 0.37814 0.75359 0.98581 0.0
H2813 H 0.39359 0.81784 0.99634 0.0
H2814 H 0.38949 0.81017 0.97197 0.0
H2815 H 0.40951 0.80888 0.98234 0.0
C2816 C 0.37323 0.76878 0.93059 0.0
C2817 C 0.38364 0.77822 0.91915 0.0
C2818 C 0.37405 0.76931 0.95132 0.0
C2819 C 0.38642 0.77795 0.96106 0.0
C2820 C 0.39802 0.78575 0.94914 0.0
H2821 H 0.39449 0.75054 0.0873 0.0
H2822 H 0.39648 0.75099 0.05116 0.0
C2823 C 0.39626 0.78646 0.92849 0.0
C2824 C 0.38745 0.77802 0.98339 0.0
H2825 H 0.40005 0.80005 0.02338 0.0
C2826 C 0.3823 0.76416 0.99387 0.0
C2827 C 0.39296 0.79153 0.99463 0.0
C2828 C 0.39649 0.80795 0.98568 0.0
C2829 C 0.38183 0.76366 0.01472 0.0
C2830 C 0.3889 0.77647 0.0258 0.0
C2831 C 0.3946 0.79009 0.01534 0.0
C2832 C 0.38996 0.7764 0.04808 0.0
C2833 C 0.37289 0.74969 0.02417 0.0
C2834 C 0.38799 0.79089 0.05896 0.0
C2835 C 0.38845 0.79082 0.07971 0.0
C2836 C 0.38941 0.77618 0.09011 0.0
C2837 C 0.39256 0.76188 0.07952 0.0
C2838 C 0.39335 0.7621 0.05876 0.0
H2839 H 0.36308 0.74531 0.01432 0.0
H2840 H 0.38125 0.73936 0.02639 0.0
H2841 H 0.36741 0.75311 0.03859 0.0
H2842 H 0.38583 0.80234 0.05158 0.0
H2843 H 0.38774 0.80221 0.08763 0.0
H2844 H 0.24508 0.37255 0.91448 0.0
H2845 H 0.2457 0.373 0.95099 0.0
H2846 H 0.1945 0.38097 0.95221 0.0
H2847 H 0.19392 0.38072 0.91567 0.0
H2848 H 0.21623 0.40453 0.97404 0.0
H2849 H 0.2282 0.33978 0.99319 0.0
H2850 H 0.23564 0.34807 0.97014 0.0
H2851 H 0.21446 0.34522 0.9736 0.0
C2852 C 0.23394 0.37401 0.92262 0.0
C2853 C 0.21938 0.3761 0.91244 0.0
C2854 C 0.23429 0.37425 0.94339 0.0
C2855 C 0.22012 0.3768 0.95423 0.0
C2856 C 0.20553 0.37878 0.94407 0.0
H2857 H 0.20444 0.37593 0.08136 0.0
H2858 H 0.2013 0.37503 0.04526 0.0
C2859 C 0.20517 0.37849 0.92328 0.0
C2860 C 0.22082 0.37887 0.97606 0.0
H2861 H 0.22729 0.35842 0.01945 0.0
C2862 C 0.21862 0.39446 0.984 0.0
C2863 C 0.22398 0.36571 0.98893 0.0
C2864 C 0.22575 0.34869 0.98117 0.0
C2865 C 0.21967 0.39723 0.00456 0.0
C2866 C 0.22292 0.38407 0.01735 0.0
C2867 C 0.22492 0.36847 0.00946 0.0
C2868 C 0.22428 0.38613 0.03906 0.0
C2869 C 0.21723 0.41412 0.01259 0.0
C2870 C 0.23822 0.39279 0.04739 0.0
C2871 C 0.24016 0.39323 0.06803 0.0
C2872 C 0.22812 0.38705 0.08065 0.0
C2873 C 0.21395 0.38084 0.07214 0.0
C2874 C 0.2121 0.38029 0.05152 0.0
H2875 H 0.21302 0.42269 0.00095 0.0
H2876 H 0.20834 0.41393 0.02492 0.0
H2877 H 0.22874 0.4187 0.01874 0.0
H2878 H 0.24779 0.39721 0.03791 0.0
H2879 H 0.25121 0.39811 0.07405 0.0
H2880 H 0.19628 0.37536 0.20543 0.0
H2881 H 0.17591 0.36499 0.22819 0.0
H2882 H 0.14381 0.35663 0.17892 0.0
H2883 H 0.16425 0.36711 0.15586 0.0
H2884 H 0.14086 0.37326 0.23412 0.0
H2885 H 0.1536 0.31098 0.2056 0.0
H2886 H 0.16745 0.32746 0.20135 0.0
H2887 H 0.14866 0.32692 0.18833 0.0
C2888 C 0.18479 0.3716 0.19944 0.0
C2889 C 0.1819 0.37188 0.17887 0.0
C2890 C 0.17315 0.36575 0.21247 0.0
C2891 C 0.15847 0.35994 0.20517 0.0
C2892 C 0.15514 0.36101 0.18476 0.0
H2893 H 0.10998 0.29357 0.28804 0.0
H2894 H 0.11287 0.30979 0.25767 0.0
C2895 C 0.16678 0.36703 0.17166 0.0
C2896 C 0.14764 0.35131 0.21895 0.0
H2897 H 0.14011 0.31311 0.23599 0.0
C2898 C 0.1403 0.36012 0.23429 0.0
C2899 C 0.14682 0.33418 0.21899 0.0
C2900 C 0.15455 0.32422 0.20276 0.0
C2901 C 0.13309 0.35218 0.25044 0.0
C2902 C 0.13368 0.33505 0.25144 0.0
C2903 C 0.13978 0.32625 0.23525 0.0
C2904 C 0.13046 0.3262 0.27018 0.0
C2905 C 0.12551 0.36224 0.26666 0.0
C2906 C 0.1395 0.32996 0.28716 0.0
C2907 C 0.13794 0.32075 0.30441 0.0
C2908 C 0.12741 0.30742 0.30505 0.0
C2909 C 0.11821 0.30375 0.28807 0.0
C2910 C 0.11979 0.31302 0.27073 0.0
H2911 H 0.12051 0.3737 0.26055 0.0
H2912 H 0.11577 0.35551 0.27435 0.0
H2913 H 0.13482 0.36553 0.27776 0.0
H2914 H 0.14817 0.33975 0.28691 0.0
H2915 H 0.14523 0.32398 0.31716 0.0
H2916 H 0.64394 0.17286 0.17767 0.0
H2917 H 0.64823 0.15766 0.20809 0.0
H2918 H 0.61442 0.18832 0.23891 0.0
H2919 H 0.61025 0.20403 0.20838 0.0
H2920 H 0.64233 0.18603 0.25847 0.0
H2921 H 0.62313 0.12425 0.2383 0.0
H2922 H 0.63667 0.13195 0.21988 0.0
H2923 H 0.61757 0.14179 0.22374 0.0
C2924 C 0.63721 0.17632 0.19079 0.0
C2925 C 0.62682 0.18978 0.19057 0.0
C2926 C 0.63954 0.16743 0.20817 0.0
C2927 C 0.6314 0.17162 0.22569 0.0
C2928 C 0.62068 0.18477 0.22547 0.0
H2929 H 0.66616 0.1339 0.34119 0.0
H2930 H 0.64641 0.14407 0.31708 0.0
C2931 C 0.61834 0.19374 0.20802 0.0
C2932 C 0.63577 0.16344 0.24456 0.0
H2933 H 0.64433 0.12602 0.26356 0.0
C2934 C 0.6423 0.17292 0.25989 0.0
C2935 C 0.63566 0.14634 0.24645 0.0
C2936 C 0.6277 0.13554 0.23127 0.0
C2937 C 0.64999 0.16572 0.27622 0.0
C2938 C 0.65109 0.14864 0.27718 0.0
C2939 C 0.64355 0.13914 0.26264 0.0
C2940 C 0.66188 0.14067 0.29159 0.0
C2941 C 0.65792 0.17638 0.2916 0.0
C2942 C 0.67688 0.13507 0.28506 0.0
C2943 C 0.68817 0.12939 0.2987 0.0
C2944 C 0.68459 0.12911 0.31912 0.0
C2945 C 0.66924 0.13398 0.32554 0.0
C2946 C 0.65797 0.1398 0.31184 0.0
H2947 H 0.65661 0.18949 0.28813 0.0
H2948 H 0.65248 0.17404 0.30639 0.0
H2949 H 0.67091 0.17343 0.29263 0.0
H2950 H 0.68008 0.13569 0.26945 0.0
H2951 H 0.69986 0.12565 0.2933 0.0
H2952 H 0.82292 0.63264 0.1558 0.0
H2953 H 0.84217 0.64281 0.18047 0.0
H2954 H 0.80776 0.63394 0.22715 0.0
H2955 H 0.78843 0.62395 0.20268 0.0
H2956 H 0.83444 0.67011 0.20748 0.0
H2957 H 0.85138 0.61366 0.24709 0.0
H2958 H 0.84359 0.61372 0.22198 0.0
H2959 H 0.83018 0.61591 0.24276 0.0
C2960 C 0.81955 0.63265 0.17136 0.0
C2961 C 0.80416 0.62753 0.17734 0.0
C2962 C 0.83055 0.63846 0.18538 0.0
C2963 C 0.82641 0.63893 0.20558 0.0
C2964 C 0.81123 0.63343 0.21163 0.0
H2965 H 0.84458 0.67392 0.31827 0.0
H2966 H 0.8383 0.65979 0.28761 0.0
C2967 C 0.80018 0.62781 0.19763 0.0
C2968 C 0.83727 0.6464 0.22034 0.0
H2969 H 0.85585 0.63863 0.26449 0.0
C2970 C 0.83949 0.66325 0.21975 0.0
C2971 C 0.84382 0.63733 0.23619 0.0
C2972 C 0.84228 0.61912 0.23703 0.0
C2973 C 0.84698 0.67148 0.2355 0.0
C2974 C 0.85268 0.66249 0.25199 0.0
C2975 C 0.85144 0.6455 0.25185 0.0
C2976 C 0.85768 0.67053 0.27069 0.0
C2977 C 0.84767 0.68977 0.23502 0.0
C2978 C 0.87088 0.68112 0.27149 0.0
C2979 C 0.87447 0.68944 0.28911 0.0
C2980 C 0.86496 0.68719 0.30622 0.0
C2981 C 0.85212 0.67611 0.30542 0.0
C2982 C 0.84853 0.66792 0.28789 0.0
H2983 H 0.84042 0.69493 0.22267 0.0
H2984 H 0.84325 0.69492 0.24927 0.0
H2985 H 0.86031 0.69371 0.23298 0.0
H2986 H 0.87827 0.68309 0.25845 0.0
H2987 H 0.88453 0.69777 0.28925 0.0
H2988 H 0.38491 0.80428 0.20225 0.0
H2989 H 0.37589 0.8195 0.23149 0.0
H2990 H 0.33445 0.83624 0.19893 0.0
H2991 H 0.34345 0.82149 0.16965 0.0
H2992 H 0.34853 0.86044 0.22129 0.0
H2993 H 0.33871 0.80472 0.26652 0.0
H2994 H 0.35868 0.80753 0.25699 0.0
H2995 H 0.34234 0.80395 0.24009 0.0
C2996 C 0.37392 0.81127 0.20127 0.0
C2997 C 0.36483 0.8115 0.18362 0.0
C2998 C 0.36876 0.8199 0.21804 0.0
C2999 C 0.35436 0.82876 0.21747 0.0
C3000 C 0.34558 0.82943 0.19971 0.0
H3001 H 0.28289 0.87387 0.28697 0.0
H3002 H 0.30148 0.86408 0.26152 0.0
C3003 C 0.35074 0.82092 0.18297 0.0
C3004 C 0.34796 0.83698 0.23539 0.0
H3005 H 0.33143 0.82956 0.28098 0.0
C3006 C 0.34496 0.85372 0.23445 0.0
C3007 C 0.34335 0.82819 0.25255 0.0
C3008 C 0.34579 0.81009 0.25416 0.0
C3009 C 0.33698 0.86181 0.24992 0.0
C3010 C 0.33178 0.85289 0.26665 0.0
C3011 C 0.33546 0.83633 0.26808 0.0
C3012 C 0.32118 0.86011 0.28193 0.0
C3013 C 0.33388 0.87977 0.24808 0.0
C3014 C 0.32611 0.86101 0.30184 0.0
C3015 C 0.31551 0.86665 0.31644 0.0
C3016 C 0.29975 0.8712 0.31136 0.0
C3017 C 0.29495 0.87046 0.29135 0.0
C3018 C 0.30558 0.86497 0.27677 0.0
H3019 H 0.34229 0.88557 0.2374 0.0
H3020 H 0.32146 0.88171 0.24258 0.0
H3021 H 0.33503 0.88588 0.26273 0.0
H3022 H 0.33807 0.85717 0.3061 0.0
H3023 H 0.31953 0.86703 0.33176 0.0
H3024 H 0.2066 0.62568 0.79377 0.0
H3025 H 0.18854 0.63614 0.76818 0.0
H3026 H 0.15186 0.64415 0.81238 0.0
H3027 H 0.1699 0.6336 0.83823 0.0
H3028 H 0.15425 0.62608 0.75827 0.0
H3029 H 0.16221 0.68964 0.785 0.0
H3030 H 0.17642 0.67388 0.79121 0.0
H3031 H 0.15697 0.67409 0.80266 0.0
C3032 C 0.19464 0.6295 0.79805 0.0
C3033 C 0.1897 0.62893 0.81802 0.0
C3034 C 0.18433 0.63542 0.7834 0.0
C3035 C 0.16896 0.64099 0.78847 0.0
C3036 C 0.16374 0.63996 0.80826 0.0
H3037 H 0.11583 0.70209 0.7041 0.0
H3038 H 0.12113 0.68628 0.73423 0.0
C3039 C 0.17403 0.63392 0.82296 0.0
C3040 C 0.15895 0.64875 0.77303 0.0
H3041 H 0.14898 0.68595 0.75462 0.0
C3042 C 0.15282 0.63915 0.75759 0.0
C3043 C 0.15702 0.66577 0.77235 0.0
C3044 C 0.16351 0.67656 0.7886 0.0
C3045 C 0.14536 0.64621 0.741 0.0
C3046 C 0.14445 0.66331 0.73964 0.0
C3047 C 0.14974 0.67284 0.75565 0.0
C3048 C 0.13985 0.67163 0.72094 0.0
C3049 C 0.13882 0.63528 0.72494 0.0
C3050 C 0.1486 0.66864 0.7035 0.0
C3051 C 0.14562 0.67759 0.6863 0.0
C3052 C 0.13393 0.68992 0.68621 0.0
C3053 C 0.12493 0.6927 0.70362 0.0
C3054 C 0.12792 0.68367 0.72085 0.0
H3055 H 0.13502 0.6234 0.73117 0.0
H3056 H 0.12842 0.64089 0.71722 0.0
H3057 H 0.14839 0.63289 0.71383 0.0
H3058 H 0.15817 0.65974 0.70335 0.0
H3059 H 0.15281 0.6751 0.67323 0.0
H3060 H 0.2948 0.12566 0.70631 0.0
H3061 H 0.31403 0.13529 0.73099 0.0
H3062 H 0.35015 0.14023 0.68542 0.0
H3063 H 0.33087 0.13053 0.66042 0.0
H3064 H 0.34708 0.12395 0.74108 0.0
H3065 H 0.34339 0.18675 0.71042 0.0
H3066 H 0.32841 0.17163 0.70467 0.0
H3067 H 0.34803 0.17027 0.69381 0.0
C3068 C 0.30689 0.1286 0.70153 0.0
C3069 C 0.3113 0.1275 0.68141 0.0
C3070 C 0.31787 0.13403 0.71567 0.0
C3071 C 0.33342 0.13858 0.70995 0.0
C3072 C 0.33814 0.13686 0.69003 0.0
H3073 H 0.38868 0.19917 0.79282 0.0
H3074 H 0.38319 0.18279 0.76322 0.0
C3075 C 0.32715 0.13129 0.67583 0.0
C3076 C 0.34402 0.14624 0.72483 0.0
H3077 H 0.35581 0.18348 0.74136 0.0
C3078 C 0.34932 0.13692 0.74099 0.0
C3079 C 0.34698 0.16312 0.72454 0.0
C3080 C 0.3414 0.17364 0.70752 0.0
C3081 C 0.35679 0.14419 0.75741 0.0
C3082 C 0.35862 0.16125 0.75781 0.0
C3083 C 0.35432 0.17041 0.74105 0.0
C3084 C 0.36307 0.17002 0.77622 0.0
C3085 C 0.36226 0.13359 0.77439 0.0
C3086 C 0.35351 0.16832 0.79328 0.0
C3087 C 0.35657 0.17763 0.81017 0.0
C3088 C 0.36917 0.189 0.81031 0.0
C3089 C 0.37887 0.19055 0.79325 0.0
C3090 C 0.37579 0.18118 0.77632 0.0
H3091 H 0.36546 0.12125 0.76907 0.0
H3092 H 0.3728 0.13889 0.78216 0.0
H3093 H 0.35231 0.1323 0.78526 0.0
H3094 H 0.34334 0.16012 0.79335 0.0
H3095 H 0.34882 0.1761 0.82298 0.0
H3096 H 0.89096 0.30186 0.70408 0.0
H3097 H 0.88681 0.31706 0.73505 0.0
H3098 H 0.84648 0.34178 0.70854 0.0
H3099 H 0.85067 0.32715 0.6777 0.0
H3100 H 0.86593 0.36233 0.73047 0.0
H3101 H 0.85005 0.30658 0.77323 0.0
H3102 H 0.86948 0.30723 0.76158 0.0
H3103 H 0.85171 0.30646 0.74648 0.0
C3104 C 0.88128 0.31063 0.70482 0.0
C3105 C 0.87103 0.31311 0.68844 0.0
C3106 C 0.8789 0.31925 0.72255 0.0
C3107 C 0.8662 0.33038 0.72416 0.0
C3108 C 0.85636 0.33325 0.70763 0.0
H3109 H 0.79808 0.37709 0.79 0.0
H3110 H 0.81846 0.36767 0.76657 0.0
C3111 C 0.85873 0.32476 0.68999 0.0
C3112 C 0.86227 0.3386 0.74312 0.0
H3113 H 0.84437 0.33159 0.78798 0.0
C3114 C 0.86157 0.35562 0.74325 0.0
C3115 C 0.85666 0.32982 0.75983 0.0
C3116 C 0.85689 0.31152 0.76038 0.0
C3117 C 0.85431 0.36403 0.75899 0.0
C3118 C 0.8476 0.35517 0.77492 0.0
C3119 C 0.84953 0.33829 0.77565 0.0
C3120 C 0.83636 0.36278 0.78912 0.0
C3121 C 0.85313 0.38226 0.75802 0.0
C3122 C 0.83974 0.36317 0.80955 0.0
C3123 C 0.82812 0.36868 0.82299 0.0
C3124 C 0.81288 0.37351 0.81618 0.0
C3125 C 0.8097 0.37342 0.79567 0.0
C3126 C 0.82137 0.36815 0.78227 0.0
H3127 H 0.86258 0.38748 0.74828 0.0
H3128 H 0.84125 0.38568 0.75179 0.0
H3129 H 0.85416 0.3877 0.77308 0.0
H3130 H 0.85121 0.35889 0.81508 0.0
H3131 H 0.83085 0.36855 0.83874 0.0
H3132 H 0.67159 0.87134 0.66706 0.0
H3133 H 0.65299 0.85997 0.69175 0.0
H3134 H 0.69192 0.85547 0.73366 0.0
H3135 H 0.71053 0.8668 0.70927 0.0
H3136 H 0.67197 0.82564 0.72326 0.0
H3137 H 0.63747 0.87997 0.74807 0.0
H3138 H 0.64137 0.87699 0.72193 0.0
H3139 H 0.65765 0.88169 0.73837 0.0
C3140 C 0.67613 0.86815 0.68164 0.0
C3141 C 0.69254 0.8699 0.68621 0.0
C3142 C 0.66549 0.86169 0.69569 0.0
C3143 C 0.67114 0.85694 0.71445 0.0
C3144 C 0.68738 0.85912 0.71923 0.0
H3145 H 0.64097 0.82571 0.82712 0.0
H3146 H 0.64942 0.84027 0.79736 0.0
C3147 C 0.69798 0.8656 0.70528 0.0
C3148 C 0.66054 0.8486 0.72877 0.0
H3149 H 0.63231 0.85532 0.76463 0.0
C3150 C 0.66309 0.83202 0.73212 0.0
C3151 C 0.64908 0.85707 0.74023 0.0
C3152 C 0.64615 0.87494 0.73713 0.0
C3153 C 0.65488 0.82375 0.74722 0.0
C3154 C 0.64371 0.83231 0.75912 0.0
C3155 C 0.64078 0.8488 0.75533 0.0
C3156 C 0.63651 0.82476 0.77695 0.0
C3157 C 0.65883 0.80615 0.75104 0.0
C3158 C 0.62603 0.81149 0.77533 0.0
C3159 C 0.62119 0.80304 0.79236 0.0
C3160 C 0.62681 0.80774 0.81125 0.0
C3161 C 0.63658 0.82161 0.81281 0.0
C3162 C 0.64135 0.83003 0.79582 0.0
H3163 H 0.66951 0.80207 0.74249 0.0
H3164 H 0.66113 0.80408 0.76711 0.0
H3165 H 0.64846 0.7985 0.74662 0.0
H3166 H 0.62203 0.80737 0.76086 0.0
H3167 H 0.61357 0.79249 0.79062 0.0
H3168 H 0.88404 0.70367 0.68987 0.0
H3169 H 0.87557 0.69021 0.72055 0.0
H3170 H 0.84793 0.65585 0.68639 0.0
H3171 H 0.85607 0.66932 0.65571 0.0
H3172 H 0.83044 0.67053 0.7156 0.0
H3173 H 0.88781 0.6473 0.7465 0.0
H3174 H 0.88818 0.66851 0.74044 0.0
H3175 H 0.88579 0.65377 0.72096 0.0
C3176 C 0.87636 0.69309 0.68885 0.0
C3177 C 0.87064 0.68765 0.67033 0.0
C3178 C 0.87162 0.68536 0.70641 0.0
C3179 C 0.86126 0.67193 0.70572 0.0
C3180 C 0.85596 0.66617 0.68723 0.0
H3181 H 0.80741 0.61788 0.7945 0.0
H3182 H 0.82128 0.62626 0.76418 0.0
C3183 C 0.86061 0.67393 0.66971 0.0
C3184 C 0.85471 0.66482 0.72423 0.0
H3185 H 0.86507 0.64682 0.76815 0.0
C3186 C 0.838 0.6652 0.727 0.0
C3187 C 0.86463 0.65798 0.73912 0.0
C3188 C 0.88259 0.6567 0.73658 0.0
C3189 C 0.83094 0.65919 0.74441 0.0
C3190 C 0.84084 0.65242 0.75933 0.0
C3191 C 0.85755 0.65199 0.75661 0.0
C3192 C 0.83395 0.64617 0.77807 0.0
C3193 C 0.81296 0.66053 0.74693 0.0
C3194 C 0.83698 0.65422 0.79603 0.0
C3195 C 0.8291 0.64947 0.81342 0.0
C3196 C 0.81807 0.63652 0.81314 0.0
C3197 C 0.8157 0.62798 0.79526 0.0
C3198 C 0.82358 0.63276 0.77789 0.0
H3199 H 0.80754 0.66909 0.73608 0.0
H3200 H 0.80743 0.64843 0.7446 0.0
H3201 H 0.80988 0.66463 0.7622 0.0
H3202 H 0.84501 0.66456 0.79643 0.0
H3203 H 0.83135 0.65625 0.82694 0.0
H3204 H 0.34005 0.81452 0.82811 0.0
H3205 H 0.33395 0.82752 0.79641 0.0
H3206 H 0.3846 0.82964 0.78272 0.0
H3207 H 0.39062 0.8155 0.81393 0.0
H3208 H 0.3399 0.85495 0.78097 0.0
H3209 H 0.36961 0.80884 0.73347 0.0
H3210 H 0.36722 0.80613 0.75987 0.0
H3211 H 0.38324 0.81858 0.75027 0.0
C3212 C 0.34987 0.81776 0.81831 0.0
C3213 C 0.36578 0.81389 0.82331 0.0
C3214 C 0.34639 0.82521 0.8002 0.0
C3215 C 0.35878 0.82928 0.78689 0.0
C3216 C 0.37478 0.82611 0.79234 0.0
H3217 H 0.32731 0.8882 0.68425 0.0
H3218 H 0.34122 0.88029 0.7149 0.0
C3219 C 0.37823 0.81818 0.81024 0.0
C3220 C 0.35468 0.83662 0.76733 0.0
H3221 H 0.35885 0.83168 0.71719 0.0
C3222 C 0.34404 0.84984 0.76701 0.0
C3223 C 0.36001 0.82991 0.74908 0.0
C3224 C 0.37051 0.81499 0.74813 0.0
C3225 C 0.33802 0.85609 0.74909 0.0
C3226 C 0.34351 0.84953 0.73083 0.0
C3227 C 0.3547 0.83677 0.73115 0.0
C3228 C 0.3367 0.85456 0.71134 0.0
C3229 C 0.32515 0.86899 0.75009 0.0
C3230 C 0.33045 0.84271 0.69846 0.0
C3231 C 0.32313 0.84717 0.68063 0.0
C3232 C 0.32158 0.86359 0.67549 0.0
C3233 C 0.32819 0.87546 0.68804 0.0
C3234 C 0.33599 0.87095 0.70563 0.0
H3235 H 0.31921 0.86928 0.76489 0.0
H3236 H 0.33068 0.88106 0.74757 0.0
H3237 H 0.31578 0.86698 0.73861 0.0
H3238 H 0.33084 0.82998 0.70244 0.0
H3239 H 0.31806 0.83778 0.67127 0.0
H3240 H 0.14433 0.33773 0.65647 0.0
H3241 H 0.15163 0.3509 0.68769 0.0
H3242 H 0.12921 0.31211 0.72056 0.0
H3243 H 0.12157 0.29891 0.68929 0.0
H3244 H 0.12467 0.3438 0.73744 0.0
H3245 H 0.18863 0.33073 0.71981 0.0
H3246 H 0.17817 0.34212 0.70109 0.0
H3247 H 0.17222 0.3216 0.70633 0.0
C3248 C 0.14075 0.33208 0.67032 0.0
C3249 C 0.13261 0.31713 0.67042 0.0
C3250 C 0.14495 0.33963 0.68813 0.0
C3251 C 0.14128 0.33227 0.70636 0.0
C3252 C 0.13223 0.31791 0.70659 0.0
H3253 H 0.17032 0.34279 0.82809 0.0
H3254 H 0.15611 0.33675 0.79728 0.0
C3255 C 0.12788 0.31039 0.68873 0.0
C3256 C 0.14801 0.33887 0.72503 0.0
H3257 H 0.18354 0.34593 0.7488 0.0
C3258 C 0.13753 0.34431 0.73996 0.0
C3259 C 0.16481 0.33945 0.72824 0.0
C3260 C 0.17664 0.33304 0.71312 0.0
C3261 C 0.14345 0.35047 0.75801 0.0
C3262 C 0.16023 0.35097 0.7612 0.0
C3263 C 0.17068 0.34567 0.7462 0.0
C3264 C 0.16735 0.35599 0.78039 0.0
C3265 C 0.13172 0.35648 0.77345 0.0
C3266 C 0.17844 0.36879 0.78109 0.0
C3267 C 0.18672 0.37223 0.79868 0.0
C3268 C 0.18416 0.36279 0.81582 0.0
C3269 C 0.17266 0.35028 0.81517 0.0
C3270 C 0.16438 0.34689 0.79761 0.0
H3271 H 0.1199 0.35954 0.76674 0.0
H3272 H 0.12975 0.34682 0.78468 0.0
H3273 H 0.13647 0.36735 0.78123 0.0
H3274 H 0.18098 0.37587 0.76788 0.0
H3275 H 0.19547 0.38196 0.79863 0.0
H3276 H 0.6839 0.11065 0.69621 0.0
H3277 H 0.66929 0.11617 0.72721 0.0
H3278 H 0.67493 0.16759 0.71733 0.0
H3279 H 0.68861 0.16216 0.68602 0.0
H3280 H 0.67702 0.12962 0.76019 0.0
H3281 H 0.62847 0.16675 0.7286 0.0
H3282 H 0.64209 0.1554 0.71305 0.0
H3283 H 0.6473 0.1755 0.72157 0.0
C3284 C 0.68188 0.12312 0.70066 0.0
C3285 C 0.68718 0.13599 0.68864 0.0
C3286 C 0.67353 0.12626 0.71832 0.0
C3287 C 0.67056 0.14232 0.72433 0.0
C3288 C 0.67642 0.15512 0.71263 0.0
H3289 H 0.66263 0.18212 0.83966 0.0
H3290 H 0.6699 0.16721 0.80971 0.0
C3291 C 0.68439 0.152 0.69482 0.0
C3292 C 0.66204 0.14588 0.74323 0.0
H3293 H 0.63473 0.1719 0.7634 0.0
C3294 C 0.66754 0.13863 0.76086 0.0
C3295 C 0.64925 0.15718 0.74417 0.0
C3296 C 0.64133 0.16396 0.72576 0.0
C3297 C 0.6614 0.14326 0.77946 0.0
C3298 C 0.65002 0.15602 0.78051 0.0
C3299 C 0.64372 0.16239 0.76278 0.0
C3300 C 0.64539 0.16382 0.7996 0.0
C3301 C 0.66727 0.1344 0.79771 0.0
C3302 C 0.62921 0.16745 0.8037 0.0
C3303 C 0.62509 0.17658 0.82047 0.0
C3304 C 0.63705 0.18193 0.83365 0.0
C3305 C 0.65315 0.17791 0.82989 0.0
C3306 C 0.6573 0.16921 0.81285 0.0
H3307 H 0.66999 0.12152 0.79417 0.0
H3308 H 0.67859 0.14006 0.80297 0.0
H3309 H 0.6583 0.13472 0.80992 0.0
H3310 H 0.61978 0.16353 0.7937 0.0
H3311 H 0.61258 0.17951 0.8231 0.0
H3312 H 0.83648 0.34484 0.16739 0.0
H3313 H 0.84929 0.33801 0.19893 0.0
H3314 H 0.82406 0.3772 0.22768 0.0
H3315 H 0.81095 0.38407 0.19625 0.0
H3316 H 0.86809 0.35599 0.22741 0.0
H3317 H 0.80892 0.33574 0.25696 0.0
H3318 H 0.81225 0.33962 0.23088 0.0
H3319 H 0.80968 0.35622 0.24789 0.0
C3320 C 0.83376 0.35216 0.18033 0.0
C3321 C 0.82244 0.36484 0.17933 0.0
C3322 C 0.84116 0.34826 0.19833 0.0
C3323 C 0.83739 0.35693 0.21564 0.0
C3324 C 0.8269 0.37021 0.21449 0.0
H3325 H 0.85504 0.33199 0.33911 0.0
H3326 H 0.84834 0.34663 0.30871 0.0
C3327 C 0.81946 0.37413 0.1965 0.0
C3328 C 0.84343 0.35117 0.23507 0.0
H3329 H 0.83113 0.33349 0.27831 0.0
C3330 C 0.86004 0.35115 0.23863 0.0
C3331 C 0.83286 0.34482 0.24956 0.0
C3332 C 0.81494 0.34393 0.24617 0.0
C3333 C 0.86638 0.34495 0.25643 0.0
C3334 C 0.85581 0.33835 0.27078 0.0
C3335 C 0.83919 0.33862 0.2673 0.0
C3336 C 0.86159 0.33056 0.28927 0.0
C3337 C 0.88428 0.3456 0.25978 0.0
C3338 C 0.8714 0.31672 0.28844 0.0
C3339 C 0.8753 0.3083 0.30582 0.0
C3340 C 0.86926 0.31346 0.32432 0.0
C3341 C 0.85979 0.32758 0.32511 0.0
C3342 C 0.85598 0.33602 0.30776 0.0
H3343 H 0.89005 0.35505 0.25041 0.0
H3344 H 0.88713 0.34807 0.27562 0.0
H3345 H 0.88963 0.33372 0.25572 0.0
H3346 H 0.87555 0.31209 0.27427 0.0
H3347 H 0.88257 0.29745 0.30466 0.0
H3348 H 0.65708 0.83378 0.15626 0.0
H3349 H 0.66492 0.84669 0.18755 0.0
H3350 H 0.62563 0.82301 0.21755 0.0
H3351 H 0.61768 0.80997 0.18648 0.0
H3352 H 0.64605 0.86653 0.21703 0.0
H3353 H 0.66832 0.80717 0.24521 0.0
H3354 H 0.66472 0.81094 0.21913 0.0
H3355 H 0.64815 0.80732 0.23563 0.0
C3356 C 0.64998 0.83144 0.16944 0.0
C3357 C 0.63688 0.82064 0.16888 0.0
C3358 C 0.65445 0.83888 0.18727 0.0
C3359 C 0.64594 0.83562 0.20481 0.0
C3360 C 0.63242 0.82552 0.20415 0.0
H3361 H 0.66613 0.85089 0.32921 0.0
H3362 H 0.65346 0.84463 0.29742 0.0
C3363 C 0.62791 0.81809 0.18635 0.0
C3364 C 0.65189 0.84176 0.22407 0.0
H3365 H 0.66906 0.82921 0.26743 0.0
C3366 C 0.65109 0.85843 0.22811 0.0
C3367 C 0.65849 0.8311 0.23835 0.0
C3368 C 0.66013 0.81314 0.23441 0.0
C3369 C 0.65646 0.8647 0.24637 0.0
C3370 C 0.66306 0.85402 0.26066 0.0
C3371 C 0.6639 0.83736 0.2565 0.0
C3372 C 0.66944 0.85968 0.28001 0.0
C3373 C 0.65475 0.88263 0.25034 0.0
C3374 C 0.68248 0.87045 0.28079 0.0
C3375 C 0.68974 0.87413 0.29899 0.0
C3376 C 0.68421 0.86691 0.31668 0.0
C3377 C 0.67079 0.85656 0.31587 0.0
C3378 C 0.6635 0.85299 0.29772 0.0
H3379 H 0.64554 0.88824 0.24054 0.0
H3380 H 0.65143 0.88493 0.26608 0.0
H3381 H 0.66639 0.8887 0.24736 0.0
H3382 H 0.68748 0.87548 0.26726 0.0
H3383 H 0.70009 0.88209 0.29907 0.0
H3384 H 0.11859 0.69195 0.30984 0.0
H3385 H 0.12887 0.67705 0.2812 0.0
H3386 H 0.15933 0.64875 0.31978 0.0
H3387 H 0.14936 0.66379 0.34853 0.0
H3388 H 0.17582 0.66209 0.28942 0.0
H3389 H 0.12156 0.63189 0.25974 0.0
H3390 H 0.11858 0.65325 0.2632 0.0
H3391 H 0.1223 0.64048 0.28443 0.0
C3392 C 0.12727 0.68237 0.31232 0.0
C3393 C 0.13321 0.67915 0.33151 0.0
C3394 C 0.13305 0.67377 0.29591 0.0
C3395 C 0.14471 0.66163 0.29838 0.0
C3396 C 0.15028 0.65802 0.31756 0.0
H3397 H 0.20329 0.6146 0.20583 0.0
H3398 H 0.18992 0.61968 0.2377 0.0
C3399 C 0.14458 0.66666 0.33397 0.0
C3400 C 0.15225 0.65394 0.28077 0.0
H3401 H 0.14383 0.63466 0.23706 0.0
C3402 C 0.16888 0.65582 0.27814 0.0
C3403 C 0.14317 0.64578 0.26609 0.0
C3404 C 0.12544 0.64258 0.26859 0.0
C3405 C 0.17655 0.65048 0.26077 0.0
C3406 C 0.16735 0.6429 0.24575 0.0
C3407 C 0.15082 0.64051 0.24863 0.0
C3408 C 0.17447 0.63863 0.2263 0.0
C3409 C 0.19428 0.65368 0.25817 0.0
C3410 C 0.16986 0.64728 0.20931 0.0
C3411 C 0.17743 0.64444 0.19114 0.0
C3412 C 0.18975 0.63281 0.18957 0.0
C3413 C 0.19392 0.6237 0.20652 0.0
C3414 C 0.18634 0.62661 0.22474 0.0
H3415 H 0.19906 0.66201 0.26974 0.0
H3416 H 0.20095 0.64206 0.25918 0.0
H3417 H 0.1967 0.65902 0.24331 0.0
H3418 H 0.16069 0.65658 0.21024 0.0
H3419 H 0.17378 0.65158 0.17839 0.0
H3420 H 0.31207 0.12121 0.29858 0.0
H3421 H 0.32741 0.13011 0.26961 0.0
H3422 H 0.35321 0.16434 0.30608 0.0
H3423 H 0.33783 0.15572 0.3351 0.0
H3424 H 0.33954 0.17821 0.27323 0.0
H3425 H 0.37361 0.1233 0.25136 0.0
H3426 H 0.3525 0.11965 0.25449 0.0
H3427 H 0.36446 0.12554 0.27557 0.0
C3428 C 0.32119 0.13045 0.30055 0.0
C3429 C 0.32361 0.13782 0.31918 0.0
C3430 C 0.33004 0.13544 0.28397 0.0
C3431 C 0.34159 0.14775 0.28574 0.0
C3432 C 0.34441 0.15476 0.30442 0.0
H3433 H 0.38838 0.20525 0.19248 0.0
H3434 H 0.38287 0.19257 0.22468 0.0
C3435 C 0.33555 0.14983 0.32099 0.0
C3436 C 0.34946 0.1545 0.2678 0.0
H3437 H 0.37154 0.14435 0.22684 0.0
C3438 C 0.34676 0.17089 0.26324 0.0
C3439 C 0.3588 0.14488 0.25478 0.0
C3440 C 0.36266 0.1274 0.25937 0.0
C3441 C 0.35258 0.17776 0.24559 0.0
C3442 C 0.36161 0.16805 0.23233 0.0
C3443 C 0.36465 0.15176 0.23709 0.0
C3444 C 0.36686 0.17434 0.21276 0.0
C3445 C 0.34837 0.19516 0.24086 0.0
C3446 C 0.36028 0.16778 0.19535 0.0
C3447 C 0.36346 0.1749 0.17694 0.0
C3448 C 0.37329 0.18875 0.17558 0.0
C3449 C 0.38063 0.19471 0.19297 0.0
C3450 C 0.37745 0.18753 0.2114 0.0
H3451 H 0.33865 0.19986 0.25062 0.0
H3452 H 0.35914 0.20289 0.24305 0.0
H3453 H 0.34449 0.19639 0.22513 0.0
H3454 H 0.35214 0.15754 0.19609 0.0
H3455 H 0.35772 0.16986 0.16387 0.0
loop_
_geom_bond_atom_site_label_1
_geom_bond_atom_site_label_2
_geom_bond_distance
_geom_bond_site_symmetry_2
_ccdc_geom_bond_type
Mn0 O5 2.095 . S
Mn0 O15 2.162 . S
Mn0 O16 2.297 . S
Mn0 O24 2.385 . S
Mn0 O25 2.209 . S
Mn0 O26 2.094 . S
Mn1 O6 2.121 . S
Mn1 N8 2.257 . S
Mn1 N17 2.282 . S
Mn1 O25 2.215 . S
Mn1 O27 2.117 . S
C2 O24 1.234 . S
C2 O25 1.283 . S
C3 O15 1.281 . S
C3 O16 1.236 . S
C4 O26 1.240 . S
C4 O27 1.264 . S
O5 Mn0 2.095 . S
O5 C14 1.250 . S
O6 Mn1 2.121 . S
O6 C14 1.258 . S
C7 N8 1.326 . S
C7 C11 1.460 . S
C7 H13 0.929 . S
N8 Mn1 2.257 . S
N8 C7 1.326 . S
N8 C12 1.362 . S
C9 C10 1.258 . S
C9 C12 1.431 . S
C9 C29 1.449 . S
C10 C9 1.258 . S
C10 C11 1.477 . S
C10 H30 0.931 . S
C11 C7 1.460 . S
C11 C10 1.477 . S
C11 H31 0.930 . S
C12 N8 1.362 . S
C12 C9 1.431 . S
C12 C22 1.476 . S
H13 C7 0.929 . S
C14 O5 1.250 . S
C14 O6 1.258 . S
O15 Mn0 2.162 . S
O15 C3 1.281 . S
O16 Mn0 2.297 . S
O16 C3 1.236 . S
N17 Mn1 2.282 . S
N17 C18 1.328 . S
N17 C22 1.318 . S
C18 N17 1.328 . S
C18 C19 1.457 . S
C18 H23 0.929 . S
C19 C18 1.457 . S
C19 C20 1.291 . S
C19 H32 0.931 . S
C20 C19 1.291 . S
C20 C21 1.373 . S
C20 H33 0.929 . S
C21 C20 1.373 . S
C21 C22 1.396 . S
C21 C28 1.403 . S
C22 C12 1.476 . S
C22 N17 1.318 . S
C22 C21 1.396 . S
H23 C18 0.929 . S
O24 Mn0 2.385 . S
O24 C2 1.234 . S
O25 Mn0 2.209 . S
O25 Mn1 2.215 . S
O25 C2 1.283 . S
O26 Mn0 2.094 . S
O26 C4 1.240 . S
O27 Mn1 2.117 . S
O27 C4 1.264 . S
C28 C21 1.403 . S
C28 C29 1.399 . S
C28 H34 0.929 . S
C29 C9 1.449 . S
C29 C28 1.399 . S
C29 H35 0.930 . S
H30 C10 0.931 . S
H31 C11 0.930 . S
H32 C19 0.931 . S
H33 C20 0.929 . S
H34 C28 0.929 . S
H35 C29 0.930 . S
Mn36 O41 2.095 . S
Mn36 O51 2.162 . S
Mn36 O52 2.297 . S
Mn36 O60 2.385 . S
Mn36 O61 2.209 . S
Mn36 O62 2.094 . S
Mn37 O42 2.121 . S
Mn37 N44 2.257 . S
Mn37 N53 2.282 . S
Mn37 O61 2.215 . S
Mn37 O63 2.117 . S
C38 O60 1.234 . S
C38 O61 1.283 . S
C39 O51 1.281 . S
C39 O52 1.236 . S
C40 O62 1.240 . S
C40 O63 1.264 . S
O41 Mn36 2.095 . S
O41 C50 1.250 . S
O42 Mn37 2.121 . S
O42 C50 1.258 . S
C43 N44 1.326 . S
C43 C47 1.460 . S
C43 H49 0.929 . S
N44 Mn37 2.257 . S
N44 C43 1.326 . S
N44 C48 1.362 . S
C45 C46 1.258 . S
C45 C48 1.431 . S
C45 C65 1.449 . S
C46 C45 1.258 . S
C46 C47 1.477 . S
C46 H66 0.931 . S
C47 C43 1.460 . S
C47 C46 1.477 . S
C47 H67 0.930 . S
C48 N44 1.362 . S
C48 C45 1.431 . S
C48 C58 1.476 . S
H49 C43 0.929 . S
C50 O41 1.250 . S
C50 O42 1.258 . S
O51 Mn36 2.162 . S
O51 C39 1.281 . S
O52 Mn36 2.297 . S
O52 C39 1.236 . S
N53 Mn37 2.282 . S
N53 C54 1.328 . S
N53 C58 1.318 . S
C54 N53 1.328 . S
C54 C55 1.457 . S
C54 H59 0.929 . S
C55 C54 1.457 . S
C55 C56 1.291 . S
C55 H68 0.931 . S
C56 C55 1.291 . S
C56 C57 1.373 . S
C56 H69 0.929 . S
C57 C56 1.373 . S
C57 C58 1.396 . S
C57 C64 1.403 . S
C58 C48 1.476 . S
C58 N53 1.318 . S
C58 C57 1.396 . S
H59 C54 0.929 . S
O60 Mn36 2.385 . S
O60 C38 1.234 . S
O61 Mn36 2.209 . S
O61 Mn37 2.215 . S
O61 C38 1.283 . S
O62 Mn36 2.094 . S
O62 C40 1.240 . S
O63 Mn37 2.117 . S
O63 C40 1.264 . S
C64 C57 1.403 . S
C64 C65 1.399 . S
C64 H70 0.929 . S
C65 C45 1.449 . S
C65 C64 1.399 . S
C65 H71 0.930 . S
H66 C46 0.931 . S
H67 C47 0.930 . S
H68 C55 0.931 . S
H69 C56 0.929 . S
H70 C64 0.929 . S
H71 C65 0.930 . S
Mn72 O77 2.095 . S
Mn72 O87 2.162 . S
Mn72 O88 2.297 . S
Mn72 O96 2.385 . S
Mn72 O97 2.209 . S
Mn72 O98 2.094 . S
Mn73 O78 2.121 . S
Mn73 N80 2.257 . S
Mn73 N89 2.282 . S
Mn73 O97 2.215 . S
Mn73 O99 2.117 . S
C74 O96 1.234 . S
C74 O97 1.283 . S
C75 O87 1.281 . S
C75 O88 1.236 . S
C76 O98 1.240 . S
C76 O99 1.264 . S
O77 Mn72 2.095 . S
O77 C86 1.250 . S
O78 Mn73 2.121 . S
O78 C86 1.258 . S
C79 N80 1.326 . S
C79 C83 1.460 . S
C79 H85 0.929 . S
N80 Mn73 2.257 . S
N80 C79 1.326 . S
N80 C84 1.362 . S
C81 C82 1.258 . S
C81 C84 1.431 . S
C81 C101 1.449 . S
C82 C81 1.258 . S
C82 C83 1.477 . S
C82 H102 0.931 . S
C83 C79 1.460 . S
C83 C82 1.477 . S
C83 H103 0.930 . S
C84 N80 1.362 . S
C84 C81 1.431 . S
C84 C94 1.476 . S
H85 C79 0.929 . S
C86 O77 1.250 . S
C86 O78 1.258 . S
O87 Mn72 2.162 . S
O87 C75 1.281 . S
O88 Mn72 2.297 . S
O88 C75 1.236 . S
N89 Mn73 2.282 . S
N89 C90 1.328 . S
N89 C94 1.318 . S
C90 N89 1.328 . S
C90 C91 1.457 . S
C90 H95 0.929 . S
C91 C90 1.457 . S
C91 C92 1.291 . S
C91 H104 0.931 . S
C92 C91 1.291 . S
C92 C93 1.373 . S
C92 H105 0.929 . S
C93 C92 1.373 . S
C93 C94 1.396 . S
C93 C100 1.403 . S
C94 C84 1.476 . S
C94 N89 1.318 . S
C94 C93 1.396 . S
H95 C90 0.929 . S
O96 Mn72 2.385 . S
O96 C74 1.234 . S
O97 Mn72 2.209 . S
O97 Mn73 2.215 . S
O97 C74 1.283 . S
O98 Mn72 2.094 . S
O98 C76 1.240 . S
O99 Mn73 2.117 . S
O99 C76 1.264 . S
C100 C93 1.403 . S
C100 C101 1.399 . S
C100 H106 0.929 . S
C101 C81 1.449 . S
C101 C100 1.399 . S
C101 H107 0.930 . S
H102 C82 0.931 . S
H103 C83 0.930 . S
H104 C91 0.931 . S
H105 C92 0.929 . S
H106 C100 0.929 . S
H107 C101 0.930 . S
Mn108 O113 2.095 . S
Mn108 O123 2.162 . S
Mn108 O124 2.297 . S
Mn108 O132 2.385 . S
Mn108 O133 2.209 . S
Mn108 O134 2.094 . S
Mn109 O114 2.121 . S
Mn109 N116 2.257 . S
Mn109 N125 2.282 . S
Mn109 O133 2.215 . S
Mn109 O135 2.117 . S
C110 O132 1.234 . S
C110 O133 1.283 . S
C111 O123 1.281 . S
C111 O124 1.236 . S
C112 O134 1.240 . S
C112 O135 1.264 . S
O113 Mn108 2.095 . S
O113 C122 1.250 . S
O114 Mn109 2.121 . S
O114 C122 1.258 . S
C115 N116 1.326 . S
C115 C119 1.460 . S
C115 H121 0.929 . S
N116 Mn109 2.257 . S
N116 C115 1.326 . S
N116 C120 1.362 . S
C117 C118 1.258 . S
C117 C120 1.431 . S
C117 C137 1.449 . S
C118 C117 1.258 . S
C118 C119 1.477 . S
C118 H138 0.931 . S
C119 C115 1.460 . S
C119 C118 1.477 . S
C119 H139 0.930 . S
C120 N116 1.362 . S
C120 C117 1.431 . S
C120 C130 1.476 . S
H121 C115 0.929 . S
C122 O113 1.250 . S
C122 O114 1.258 . S
O123 Mn108 2.162 . S
O123 C111 1.281 . S
O124 Mn108 2.297 . S
O124 C111 1.236 . S
N125 Mn109 2.282 . S
N125 C126 1.328 . S
N125 C130 1.318 . S
C126 N125 1.328 . S
C126 C127 1.457 . S
C126 H131 0.929 . S
C127 C126 1.457 . S
C127 C128 1.291 . S
C127 H140 0.931 . S
C128 C127 1.291 . S
C128 C129 1.373 . S
C128 H141 0.929 . S
C129 C128 1.373 . S
C129 C130 1.396 . S
C129 C136 1.403 . S
C130 C120 1.476 . S
C130 N125 1.318 . S
C130 C129 1.396 . S
H131 C126 0.929 . S
O132 Mn108 2.385 . S
O132 C110 1.234 . S
O133 Mn108 2.209 . S
O133 Mn109 2.215 . S
O133 C110 1.283 . S
O134 Mn108 2.094 . S
O134 C112 1.240 . S
O135 Mn109 2.117 . S
O135 C112 1.264 . S
C136 C129 1.403 . S
C136 C137 1.399 . S
C136 H142 0.929 . S
C137 C117 1.449 . S
C137 C136 1.399 . S
C137 H143 0.930 . S
H138 C118 0.931 . S
H139 C119 0.930 . S
H140 C127 0.931 . S
H141 C128 0.929 . S
H142 C136 0.929 . S
H143 C137 0.930 . S
Mn144 O149 2.095 . S
Mn144 O159 2.162 . S
Mn144 O160 2.297 . S
Mn144 O168 2.385 . S
Mn144 O169 2.209 . S
Mn144 O170 2.094 . S
Mn145 O150 2.121 . S
Mn145 N152 2.257 . S
Mn145 N161 2.282 . S
Mn145 O169 2.215 . S
Mn145 O171 2.117 . S
C146 O168 1.234 . S
C146 O169 1.283 . S
C147 O159 1.281 . S
C147 O160 1.236 . S
C148 O170 1.240 . S
C148 O171 1.264 . S
O149 Mn144 2.095 . S
O149 C158 1.250 . S
O150 Mn145 2.121 . S
O150 C158 1.258 . S
C151 N152 1.326 . S
C151 C155 1.460 . S
C151 H157 0.929 . S
N152 Mn145 2.257 . S
N152 C151 1.326 . S
N152 C156 1.362 . S
C153 C154 1.258 . S
C153 C156 1.431 . S
C153 C173 1.449 . S
C154 C153 1.258 . S
C154 C155 1.477 . S
C154 H174 0.931 . S
C155 C151 1.460 . S
C155 C154 1.477 . S
C155 H175 0.930 . S
C156 N152 1.362 . S
C156 C153 1.431 . S
C156 C166 1.476 . S
H157 C151 0.929 . S
C158 O149 1.250 . S
C158 O150 1.258 . S
O159 Mn144 2.162 . S
O159 C147 1.281 . S
O160 Mn144 2.297 . S
O160 C147 1.236 . S
N161 Mn145 2.282 . S
N161 C162 1.328 . S
N161 C166 1.318 . S
C162 N161 1.328 . S
C162 C163 1.457 . S
C162 H167 0.929 . S
C163 C162 1.457 . S
C163 C164 1.291 . S
C163 H176 0.931 . S
C164 C163 1.291 . S
C164 C165 1.373 . S
C164 H177 0.929 . S
C165 C164 1.373 . S
C165 C166 1.396 . S
C165 C172 1.403 . S
C166 C156 1.476 . S
C166 N161 1.318 . S
C166 C165 1.396 . S
H167 C162 0.929 . S
O168 Mn144 2.385 . S
O168 C146 1.234 . S
O169 Mn144 2.209 . S
O169 Mn145 2.215 . S
O169 C146 1.283 . S
O170 Mn144 2.094 . S
O170 C148 1.240 . S
O171 Mn145 2.117 . S
O171 C148 1.264 . S
C172 C165 1.403 . S
C172 C173 1.399 . S
C172 H178 0.929 . S
C173 C153 1.449 . S
C173 C172 1.399 . S
C173 H179 0.930 . S
H174 C154 0.931 . S
H175 C155 0.930 . S
H176 C163 0.931 . S
H177 C164 0.929 . S
H178 C172 0.929 . S
H179 C173 0.930 . S
Mn180 O185 2.095 . S
Mn180 O195 2.162 . S
Mn180 O196 2.297 . S
Mn180 O204 2.385 . S
Mn180 O205 2.209 . S
Mn180 O206 2.094 . S
Mn181 O186 2.121 . S
Mn181 N188 2.257 . S
Mn181 N197 2.282 . S
Mn181 O205 2.215 . S
Mn181 O207 2.117 . S
C182 O204 1.234 . S
C182 O205 1.283 . S
C183 O195 1.281 . S
C183 O196 1.236 . S
C184 O206 1.240 . S
C184 O207 1.264 . S
O185 Mn180 2.095 . S
O185 C194 1.250 . S
O186 Mn181 2.121 . S
O186 C194 1.258 . S
C187 N188 1.326 . S
C187 C191 1.460 . S
C187 H193 0.929 . S
N188 Mn181 2.257 . S
N188 C187 1.326 . S
N188 C192 1.362 . S
C189 C190 1.258 . S
C189 C192 1.431 . S
C189 C209 1.449 . S
C190 C189 1.258 . S
C190 C191 1.477 . S
C190 H210 0.931 . S
C191 C187 1.460 . S
C191 C190 1.477 . S
C191 H211 0.930 . S
C192 N188 1.362 . S
C192 C189 1.431 . S
C192 C202 1.476 . S
H193 C187 0.929 . S
C194 O185 1.250 . S
C194 O186 1.258 . S
O195 Mn180 2.162 . S
O195 C183 1.281 . S
O196 Mn180 2.297 . S
O196 C183 1.236 . S
N197 Mn181 2.282 . S
N197 C198 1.328 . S
N197 C202 1.318 . S
C198 N197 1.328 . S
C198 C199 1.457 . S
C198 H203 0.929 . S
C199 C198 1.457 . S
C199 C200 1.291 . S
C199 H212 0.931 . S
C200 C199 1.291 . S
C200 C201 1.373 . S
C200 H213 0.929 . S
C201 C200 1.373 . S
C201 C202 1.396 . S
C201 C208 1.403 . S
C202 C192 1.476 . S
C202 N197 1.318 . S
C202 C201 1.396 . S
H203 C198 0.929 . S
O204 Mn180 2.385 . S
O204 C182 1.234 . S
O205 Mn180 2.209 . S
O205 Mn181 2.215 . S
O205 C182 1.283 . S
O206 Mn180 2.094 . S
O206 C184 1.240 . S
O207 Mn181 2.117 . S
O207 C184 1.264 . S
C208 C201 1.403 . S
C208 C209 1.399 . S
C208 H214 0.929 . S
C209 C189 1.449 . S
C209 C208 1.399 . S
C209 H215 0.930 . S
H210 C190 0.931 . S
H211 C191 0.930 . S
H212 C199 0.931 . S
H213 C200 0.929 . S
H214 C208 0.929 . S
H215 C209 0.930 . S
Mn216 O221 2.095 . S
Mn216 O231 2.162 . S
Mn216 O232 2.297 . S
Mn216 O240 2.385 . S
Mn216 O241 2.209 . S
Mn216 O242 2.094 . S
Mn217 O222 2.121 . S
Mn217 N224 2.257 . S
Mn217 N233 2.282 . S
Mn217 O241 2.215 . S
Mn217 O243 2.117 . S
C218 O240 1.234 . S
C218 O241 1.283 . S
C219 O231 1.281 . S
C219 O232 1.236 . S
C220 O242 1.240 . S
C220 O243 1.264 . S
O221 Mn216 2.095 . S
O221 C230 1.250 . S
O222 Mn217 2.121 . S
O222 C230 1.258 . S
C223 N224 1.326 . S
C223 C227 1.460 . S
C223 H229 0.929 . S
N224 Mn217 2.257 . S
N224 C223 1.326 . S
N224 C228 1.362 . S
C225 C226 1.258 . S
C225 C228 1.431 . S
C225 C245 1.449 . S
C226 C225 1.258 . S
C226 C227 1.477 . S
C226 H246 0.931 . S
C227 C223 1.460 . S
C227 C226 1.477 . S
C227 H247 0.930 . S
C228 N224 1.362 . S
C228 C225 1.431 . S
C228 C238 1.476 . S
H229 C223 0.929 . S
C230 O221 1.250 . S
C230 O222 1.258 . S
O231 Mn216 2.162 . S
O231 C219 1.281 . S
O232 Mn216 2.297 . S
O232 C219 1.236 . S
N233 Mn217 2.282 . S
N233 C234 1.328 . S
N233 C238 1.318 . S
C234 N233 1.328 . S
C234 C235 1.457 . S
C234 H239 0.929 . S
C235 C234 1.457 . S
C235 C236 1.291 . S
C235 H248 0.931 . S
C236 C235 1.291 . S
C236 C237 1.373 . S
C236 H249 0.929 . S
C237 C236 1.373 . S
C237 C238 1.396 . S
C237 C244 1.403 . S
C238 C228 1.476 . S
C238 N233 1.318 . S
C238 C237 1.396 . S
H239 C234 0.929 . S
O240 Mn216 2.385 . S
O240 C218 1.234 . S
O241 Mn216 2.209 . S
O241 Mn217 2.215 . S
O241 C218 1.283 . S
O242 Mn216 2.094 . S
O242 C220 1.240 . S
O243 Mn217 2.117 . S
O243 C220 1.264 . S
C244 C237 1.403 . S
C244 C245 1.399 . S
C244 H250 0.929 . S
C245 C225 1.449 . S
C245 C244 1.399 . S
C245 H251 0.930 . S
H246 C226 0.931 . S
H247 C227 0.930 . S
H248 C235 0.931 . S
H249 C236 0.929 . S
H250 C244 0.929 . S
H251 C245 0.930 . S
Mn252 O257 2.095 . S
Mn252 O267 2.162 . S
Mn252 O268 2.297 . S
Mn252 O276 2.385 . S
Mn252 O277 2.209 . S
Mn252 O278 2.094 . S
Mn253 O258 2.121 . S
Mn253 N260 2.257 . S
Mn253 N269 2.282 . S
Mn253 O277 2.215 . S
Mn253 O279 2.117 . S
C254 O276 1.234 . S
C254 O277 1.283 . S
C255 O267 1.281 . S
C255 O268 1.236 . S
C256 O278 1.240 . S
C256 O279 1.264 . S
O257 Mn252 2.095 . S
O257 C266 1.250 . S
O258 Mn253 2.121 . S
O258 C266 1.258 . S
C259 N260 1.326 . S
C259 C263 1.460 . S
C259 H265 0.929 . S
N260 Mn253 2.257 . S
N260 C259 1.326 . S
N260 C264 1.362 . S
C261 C262 1.258 . S
C261 C264 1.431 . S
C261 C281 1.449 . S
C262 C261 1.258 . S
C262 C263 1.477 . S
C262 H282 0.931 . S
C263 C259 1.460 . S
C263 C262 1.477 . S
C263 H283 0.930 . S
C264 N260 1.362 . S
C264 C261 1.431 . S
C264 C274 1.476 . S
H265 C259 0.929 . S
C266 O257 1.250 . S
C266 O258 1.258 . S
O267 Mn252 2.162 . S
O267 C255 1.281 . S
O268 Mn252 2.297 . S
O268 C255 1.236 . S
N269 Mn253 2.282 . S
N269 C270 1.328 . S
N269 C274 1.318 . S
C270 N269 1.328 . S
C270 C271 1.457 . S
C270 H275 0.929 . S
C271 C270 1.457 . S
C271 C272 1.291 . S
C271 H284 0.931 . S
C272 C271 1.291 . S
C272 C273 1.373 . S
C272 H285 0.929 . S
C273 C272 1.373 . S
C273 C274 1.396 . S
C273 C280 1.403 . S
C274 C264 1.476 . S
C274 N269 1.318 . S
C274 C273 1.396 . S
H275 C270 0.929 . S
O276 Mn252 2.385 . S
O276 C254 1.234 . S
O277 Mn252 2.209 . S
O277 Mn253 2.215 . S
O277 C254 1.283 . S
O278 Mn252 2.094 . S
O278 C256 1.240 . S
O279 Mn253 2.117 . S
O279 C256 1.264 . S
C280 C273 1.403 . S
C280 C281 1.399 . S
C280 H286 0.929 . S
C281 C261 1.449 . S
C281 C280 1.399 . S
C281 H287 0.930 . S
H282 C262 0.931 . S
H283 C263 0.930 . S
H284 C271 0.931 . S
H285 C272 0.929 . S
H286 C280 0.929 . S
H287 C281 0.930 . S
Mn288 O293 2.095 . S
Mn288 O303 2.162 . S
Mn288 O304 2.297 . S
Mn288 O312 2.385 . S
Mn288 O313 2.209 . S
Mn288 O314 2.094 . S
Mn289 O294 2.121 . S
Mn289 N296 2.257 . S
Mn289 N305 2.282 . S
Mn289 O313 2.215 . S
Mn289 O315 2.117 . S
C290 O312 1.234 . S
C290 O313 1.283 . S
C291 O303 1.281 . S
C291 O304 1.236 . S
C292 O314 1.240 . S
C292 O315 1.264 . S
O293 Mn288 2.095 . S
O293 C302 1.250 . S
O294 Mn289 2.121 . S
O294 C302 1.258 . S
C295 N296 1.326 . S
C295 C299 1.460 . S
C295 H301 0.929 . S
N296 Mn289 2.257 . S
N296 C295 1.326 . S
N296 C300 1.362 . S
C297 C298 1.258 . S
C297 C300 1.431 . S
C297 C317 1.449 . S
C298 C297 1.258 . S
C298 C299 1.477 . S
C298 H318 0.931 . S
C299 C295 1.460 . S
C299 C298 1.477 . S
C299 H319 0.930 . S
C300 N296 1.362 . S
C300 C297 1.431 . S
C300 C310 1.476 . S
H301 C295 0.929 . S
C302 O293 1.250 . S
C302 O294 1.258 . S
O303 Mn288 2.162 . S
O303 C291 1.281 . S
O304 Mn288 2.297 . S
O304 C291 1.236 . S
N305 Mn289 2.282 . S
N305 C306 1.328 . S
N305 C310 1.318 . S
C306 N305 1.328 . S
C306 C307 1.457 . S
C306 H311 0.929 . S
C307 C306 1.457 . S
C307 C308 1.291 . S
C307 H320 0.931 . S
C308 C307 1.291 . S
C308 C309 1.373 . S
C308 H321 0.929 . S
C309 C308 1.373 . S
C309 C310 1.396 . S
C309 C316 1.403 . S
C310 C300 1.476 . S
C310 N305 1.318 . S
C310 C309 1.396 . S
H311 C306 0.929 . S
O312 Mn288 2.385 . S
O312 C290 1.234 . S
O313 Mn288 2.209 . S
O313 Mn289 2.215 . S
O313 C290 1.283 . S
O314 Mn288 2.094 . S
O314 C292 1.240 . S
O315 Mn289 2.117 . S
O315 C292 1.264 . S
C316 C309 1.403 . S
C316 C317 1.399 . S
C316 H322 0.929 . S
C317 C297 1.449 . S
C317 C316 1.399 . S
C317 H323 0.930 . S
H318 C298 0.931 . S
H319 C299 0.930 . S
H320 C307 0.931 . S
H321 C308 0.929 . S
H322 C316 0.929 . S
H323 C317 0.930 . S
Mn324 O329 2.095 . S
Mn324 O339 2.162 . S
Mn324 O340 2.297 . S
Mn324 O348 2.385 . S
Mn324 O349 2.209 . S
Mn324 O350 2.094 . S
Mn325 O330 2.121 . S
Mn325 N332 2.257 . S
Mn325 N341 2.282 . S
Mn325 O349 2.215 . S
Mn325 O351 2.117 . S
C326 O348 1.234 . S
C326 O349 1.283 . S
C327 O339 1.281 . S
C327 O340 1.236 . S
C328 O350 1.240 . S
C328 O351 1.264 . S
O329 Mn324 2.095 . S
O329 C338 1.250 . S
O330 Mn325 2.121 . S
O330 C338 1.258 . S
C331 N332 1.326 . S
C331 C335 1.460 . S
C331 H337 0.929 . S
N332 Mn325 2.257 . S
N332 C331 1.326 . S
N332 C336 1.362 . S
C333 C334 1.258 . S
C333 C336 1.431 . S
C333 C353 1.449 . S
C334 C333 1.258 . S
C334 C335 1.477 . S
C334 H354 0.931 . S
C335 C331 1.460 . S
C335 C334 1.477 . S
C335 H355 0.930 . S
C336 N332 1.362 . S
C336 C333 1.431 . S
C336 C346 1.476 . S
H337 C331 0.929 . S
C338 O329 1.250 . S
C338 O330 1.258 . S
O339 Mn324 2.162 . S
O339 C327 1.281 . S
O340 Mn324 2.297 . S
O340 C327 1.236 . S
N341 Mn325 2.282 . S
N341 C342 1.328 . S
N341 C346 1.318 . S
C342 N341 1.328 . S
C342 C343 1.457 . S
C342 H347 0.929 . S
C343 C342 1.457 . S
C343 C344 1.291 . S
C343 H356 0.931 . S
C344 C343 1.291 . S
C344 C345 1.373 . S
C344 H357 0.929 . S
C345 C344 1.373 . S
C345 C346 1.396 . S
C345 C352 1.403 . S
C346 C336 1.476 . S
C346 N341 1.318 . S
C346 C345 1.396 . S
H347 C342 0.929 . S
O348 Mn324 2.385 . S
O348 C326 1.234 . S
O349 Mn324 2.209 . S
O349 Mn325 2.215 . S
O349 C326 1.283 . S
O350 Mn324 2.094 . S
O350 C328 1.240 . S
O351 Mn325 2.117 . S
O351 C328 1.264 . S
C352 C345 1.403 . S
C352 C353 1.399 . S
C352 H358 0.929 . S
C353 C333 1.449 . S
C353 C352 1.399 . S
C353 H359 0.930 . S
H354 C334 0.931 . S
H355 C335 0.930 . S
H356 C343 0.931 . S
H357 C344 0.929 . S
H358 C352 0.929 . S
H359 C353 0.930 . S
Mn360 O365 2.095 . S
Mn360 O375 2.162 . S
Mn360 O376 2.297 . S
Mn360 O384 2.385 . S
Mn360 O385 2.209 . S
Mn360 O386 2.094 . S
Mn361 O366 2.121 . S
Mn361 N368 2.257 . S
Mn361 N377 2.282 . S
Mn361 O385 2.215 . S
Mn361 O387 2.117 . S
C362 O384 1.234 . S
C362 O385 1.283 . S
C363 O375 1.281 . S
C363 O376 1.236 . S
C364 O386 1.240 . S
C364 O387 1.264 . S
O365 Mn360 2.095 . S
O365 C374 1.250 . S
O366 Mn361 2.121 . S
O366 C374 1.258 . S
C367 N368 1.326 . S
C367 C371 1.460 . S
C367 H373 0.929 . S
N368 Mn361 2.257 . S
N368 C367 1.326 . S
N368 C372 1.362 . S
C369 C370 1.258 . S
C369 C372 1.431 . S
C369 C389 1.449 . S
C370 C369 1.258 . S
C370 C371 1.477 . S
C370 H390 0.931 . S
C371 C367 1.460 . S
C371 C370 1.477 . S
C371 H391 0.930 . S
C372 N368 1.362 . S
C372 C369 1.431 . S
C372 C382 1.476 . S
H373 C367 0.929 . S
C374 O365 1.250 . S
C374 O366 1.258 . S
O375 Mn360 2.162 . S
O375 C363 1.281 . S
O376 Mn360 2.297 . S
O376 C363 1.236 . S
N377 Mn361 2.282 . S
N377 C378 1.328 . S
N377 C382 1.318 . S
C378 N377 1.328 . S
C378 C379 1.457 . S
C378 H383 0.929 . S
C379 C378 1.457 . S
C379 C380 1.291 . S
C379 H392 0.931 . S
C380 C379 1.291 . S
C380 C381 1.373 . S
C380 H393 0.929 . S
C381 C380 1.373 . S
C381 C382 1.396 . S
C381 C388 1.403 . S
C382 C372 1.476 . S
C382 N377 1.318 . S
C382 C381 1.396 . S
H383 C378 0.929 . S
O384 Mn360 2.385 . S
O384 C362 1.234 . S
O385 Mn360 2.209 . S
O385 Mn361 2.215 . S
O385 C362 1.283 . S
O386 Mn360 2.094 . S
O386 C364 1.240 . S
O387 Mn361 2.117 . S
O387 C364 1.264 . S
C388 C381 1.403 . S
C388 C389 1.399 . S
C388 H394 0.929 . S
C389 C369 1.449 . S
C389 C388 1.399 . S
C389 H395 0.930 . S
H390 C370 0.931 . S
H391 C371 0.930 . S
H392 C379 0.931 . S
H393 C380 0.929 . S
H394 C388 0.929 . S
H395 C389 0.930 . S
Mn396 O401 2.095 . S
Mn396 O411 2.162 . S
Mn396 O412 2.297 . S
Mn396 O420 2.385 . S
Mn396 O421 2.209 . S
Mn396 O422 2.094 . S
Mn397 O402 2.121 . S
Mn397 N404 2.257 . S
Mn397 N413 2.282 . S
Mn397 O421 2.215 . S
Mn397 O423 2.117 . S
C398 O420 1.234 . S
C398 O421 1.283 . S
C399 O411 1.281 . S
C399 O412 1.236 . S
C400 O422 1.240 . S
C400 O423 1.264 . S
O401 Mn396 2.095 . S
O401 C410 1.250 . S
O402 Mn397 2.121 . S
O402 C410 1.258 . S
C403 N404 1.326 . S
C403 C407 1.460 . S
C403 H409 0.929 . S
N404 Mn397 2.257 . S
N404 C403 1.326 . S
N404 C408 1.362 . S
C405 C406 1.258 . S
C405 C408 1.431 . S
C405 C425 1.449 . S
C406 C405 1.258 . S
C406 C407 1.477 . S
C406 H426 0.931 . S
C407 C403 1.460 . S
C407 C406 1.477 . S
C407 H427 0.930 . S
C408 N404 1.362 . S
C408 C405 1.431 . S
C408 C418 1.476 . S
H409 C403 0.929 . S
C410 O401 1.250 . S
C410 O402 1.258 . S
O411 Mn396 2.162 . S
O411 C399 1.281 . S
O412 Mn396 2.297 . S
O412 C399 1.236 . S
N413 Mn397 2.282 . S
N413 C414 1.328 . S
N413 C418 1.318 . S
C414 N413 1.328 . S
C414 C415 1.457 . S
C414 H419 0.929 . S
C415 C414 1.457 . S
C415 C416 1.291 . S
C415 H428 0.931 . S
C416 C415 1.291 . S
C416 C417 1.373 . S
C416 H429 0.929 . S
C417 C416 1.373 . S
C417 C418 1.396 . S
C417 C424 1.403 . S
C418 C408 1.476 . S
C418 N413 1.318 . S
C418 C417 1.396 . S
H419 C414 0.929 . S
O420 Mn396 2.385 . S
O420 C398 1.234 . S
O421 Mn396 2.209 . S
O421 Mn397 2.215 . S
O421 C398 1.283 . S
O422 Mn396 2.094 . S
O422 C400 1.240 . S
O423 Mn397 2.117 . S
O423 C400 1.264 . S
C424 C417 1.403 . S
C424 C425 1.399 . S
C424 H430 0.929 . S
C425 C405 1.449 . S
C425 C424 1.399 . S
C425 H431 0.930 . S
H426 C406 0.931 . S
H427 C407 0.930 . S
H428 C415 0.931 . S
H429 C416 0.929 . S
H430 C424 0.929 . S
H431 C425 0.930 . S
Mn432 O437 2.095 . S
Mn432 O447 2.162 . S
Mn432 O448 2.297 . S
Mn432 O456 2.385 . S
Mn432 O457 2.209 . S
Mn432 O458 2.094 . S
Mn433 O438 2.121 . S
Mn433 N440 2.257 . S
Mn433 N449 2.282 . S
Mn433 O457 2.215 . S
Mn433 O459 2.117 . S
C434 O456 1.234 . S
C434 O457 1.283 . S
C435 O447 1.281 . S
C435 O448 1.236 . S
C436 O458 1.240 . S
C436 O459 1.264 . S
O437 Mn432 2.095 . S
O437 C446 1.250 . S
O438 Mn433 2.121 . S
O438 C446 1.258 . S
C439 N440 1.326 . S
C439 C443 1.460 . S
C439 H445 0.929 . S
N440 Mn433 2.257 . S
N440 C439 1.326 . S
N440 C444 1.362 . S
C441 C442 1.258 . S
C441 C444 1.431 . S
C441 C461 1.449 . S
C442 C441 1.258 . S
C442 C443 1.477 . S
C442 H462 0.931 . S
C443 C439 1.460 . S
C443 C442 1.477 . S
C443 H463 0.930 . S
C444 N440 1.362 . S
C444 C441 1.431 . S
C444 C454 1.476 . S
H445 C439 0.929 . S
C446 O437 1.250 . S
C446 O438 1.258 . S
O447 Mn432 2.162 . S
O447 C435 1.281 . S
O448 Mn432 2.297 . S
O448 C435 1.236 . S
N449 Mn433 2.282 . S
N449 C450 1.328 . S
N449 C454 1.318 . S
C450 N449 1.328 . S
C450 C451 1.457 . S
C450 H455 0.929 . S
C451 C450 1.457 . S
C451 C452 1.291 . S
C451 H464 0.931 . S
C452 C451 1.291 . S
C452 C453 1.373 . S
C452 H465 0.929 . S
C453 C452 1.373 . S
C453 C454 1.396 . S
C453 C460 1.403 . S
C454 C444 1.476 . S
C454 N449 1.318 . S
C454 C453 1.396 . S
H455 C450 0.929 . S
O456 Mn432 2.385 . S
O456 C434 1.234 . S
O457 Mn432 2.209 . S
O457 Mn433 2.215 . S
O457 C434 1.283 . S
O458 Mn432 2.094 . S
O458 C436 1.240 . S
O459 Mn433 2.117 . S
O459 C436 1.264 . S
C460 C453 1.403 . S
C460 C461 1.399 . S
C460 H466 0.929 . S
C461 C441 1.449 . S
C461 C460 1.399 . S
C461 H467 0.930 . S
H462 C442 0.931 . S
H463 C443 0.930 . S
H464 C451 0.931 . S
H465 C452 0.929 . S
H466 C460 0.929 . S
H467 C461 0.930 . S
Mn468 O473 2.095 . S
Mn468 O483 2.162 . S
Mn468 O484 2.297 . S
Mn468 O492 2.385 . S
Mn468 O493 2.209 . S
Mn468 O494 2.094 . S
Mn469 O474 2.121 . S
Mn469 N476 2.257 . S
Mn469 N485 2.282 . S
Mn469 O493 2.215 . S
Mn469 O495 2.117 . S
C470 O492 1.234 . S
C470 O493 1.283 . S
C471 O483 1.281 . S
C471 O484 1.236 . S
C472 O494 1.240 . S
C472 O495 1.264 . S
O473 Mn468 2.095 . S
O473 C482 1.250 . S
O474 Mn469 2.121 . S
O474 C482 1.258 . S
C475 N476 1.326 . S
C475 C479 1.460 . S
C475 H481 0.929 . S
N476 Mn469 2.257 . S
N476 C475 1.326 . S
N476 C480 1.362 . S
C477 C478 1.258 . S
C477 C480 1.431 . S
C477 C497 1.449 . S
C478 C477 1.258 . S
C478 C479 1.477 . S
C478 H498 0.931 . S
C479 C475 1.460 . S
C479 C478 1.477 . S
C479 H499 0.930 . S
C480 N476 1.362 . S
C480 C477 1.431 . S
C480 C490 1.476 . S
H481 C475 0.929 . S
C482 O473 1.250 . S
C482 O474 1.258 . S
O483 Mn468 2.162 . S
O483 C471 1.281 . S
O484 Mn468 2.297 . S
O484 C471 1.236 . S
N485 Mn469 2.282 . S
N485 C486 1.328 . S
N485 C490 1.318 . S
C486 N485 1.328 . S
C486 C487 1.457 . S
C486 H491 0.929 . S
C487 C486 1.457 . S
C487 C488 1.291 . S
C487 H500 0.931 . S
C488 C487 1.291 . S
C488 C489 1.373 . S
C488 H501 0.929 . S
C489 C488 1.373 . S
C489 C490 1.396 . S
C489 C496 1.403 . S
C490 C480 1.476 . S
C490 N485 1.318 . S
C490 C489 1.396 . S
H491 C486 0.929 . S
O492 Mn468 2.385 . S
O492 C470 1.234 . S
O493 Mn468 2.209 . S
O493 Mn469 2.215 . S
O493 C470 1.283 . S
O494 Mn468 2.094 . S
O494 C472 1.240 . S
O495 Mn469 2.117 . S
O495 C472 1.264 . S
C496 C489 1.403 . S
C496 C497 1.399 . S
C496 H502 0.929 . S
C497 C477 1.449 . S
C497 C496 1.399 . S
C497 H503 0.930 . S
H498 C478 0.931 . S
H499 C479 0.930 . S
H500 C487 0.931 . S
H501 C488 0.929 . S
H502 C496 0.929 . S
H503 C497 0.930 . S
Mn504 O509 2.095 . S
Mn504 O519 2.162 . S
Mn504 O520 2.297 . S
Mn504 O528 2.385 . S
Mn504 O529 2.209 . S
Mn504 O530 2.094 . S
Mn505 O510 2.121 . S
Mn505 N512 2.257 . S
Mn505 N521 2.282 . S
Mn505 O529 2.215 . S
Mn505 O531 2.117 . S
C506 O528 1.234 . S
C506 O529 1.283 . S
C507 O519 1.281 . S
C507 O520 1.236 . S
C508 O530 1.240 . S
C508 O531 1.264 . S
O509 Mn504 2.095 . S
O509 C518 1.250 . S
O510 Mn505 2.121 . S
O510 C518 1.258 . S
C511 N512 1.326 . S
C511 C515 1.460 . S
C511 H517 0.929 . S
N512 Mn505 2.257 . S
N512 C511 1.326 . S
N512 C516 1.362 . S
C513 C514 1.258 . S
C513 C516 1.431 . S
C513 C533 1.449 . S
C514 C513 1.258 . S
C514 C515 1.477 . S
C514 H534 0.931 . S
C515 C511 1.460 . S
C515 C514 1.477 . S
C515 H535 0.930 . S
C516 N512 1.362 . S
C516 C513 1.431 . S
C516 C526 1.476 . S
H517 C511 0.929 . S
C518 O509 1.250 . S
C518 O510 1.258 . S
O519 Mn504 2.162 . S
O519 C507 1.281 . S
O520 Mn504 2.297 . S
O520 C507 1.236 . S
N521 Mn505 2.282 . S
N521 C522 1.328 . S
N521 C526 1.318 . S
C522 N521 1.328 . S
C522 C523 1.457 . S
C522 H527 0.929 . S
C523 C522 1.457 . S
C523 C524 1.291 . S
C523 H536 0.931 . S
C524 C523 1.291 . S
C524 C525 1.373 . S
C524 H537 0.929 . S
C525 C524 1.373 . S
C525 C526 1.396 . S
C525 C532 1.403 . S
C526 C516 1.476 . S
C526 N521 1.318 . S
C526 C525 1.396 . S
H527 C522 0.929 . S
O528 Mn504 2.385 . S
O528 C506 1.234 . S
O529 Mn504 2.209 . S
O529 Mn505 2.215 . S
O529 C506 1.283 . S
O530 Mn504 2.094 . S
O530 C508 1.240 . S
O531 Mn505 2.117 . S
O531 C508 1.264 . S
C532 C525 1.403 . S
C532 C533 1.399 . S
C532 H538 0.929 . S
C533 C513 1.449 . S
C533 C532 1.399 . S
C533 H539 0.930 . S
H534 C514 0.931 . S
H535 C515 0.930 . S
H536 C523 0.931 . S
H537 C524 0.929 . S
H538 C532 0.929 . S
H539 C533 0.930 . S
Mn540 O545 2.095 . S
Mn540 O555 2.162 . S
Mn540 O556 2.297 . S
Mn540 O564 2.385 . S
Mn540 O565 2.209 . S
Mn540 O566 2.094 . S
Mn541 O546 2.121 . S
Mn541 N548 2.257 . S
Mn541 N557 2.282 . S
Mn541 O565 2.215 . S
Mn541 O567 2.117 . S
C542 O564 1.234 . S
C542 O565 1.283 . S
C543 O555 1.281 . S
C543 O556 1.236 . S
C544 O566 1.240 . S
C544 O567 1.264 . S
O545 Mn540 2.095 . S
O545 C554 1.250 . S
O546 Mn541 2.121 . S
O546 C554 1.258 . S
C547 N548 1.326 . S
C547 C551 1.460 . S
C547 H553 0.929 . S
N548 Mn541 2.257 . S
N548 C547 1.326 . S
N548 C552 1.362 . S
C549 C550 1.258 . S
C549 C552 1.431 . S
C549 C569 1.449 . S
C550 C549 1.258 . S
C550 C551 1.477 . S
C550 H570 0.931 . S
C551 C547 1.460 . S
C551 C550 1.477 . S
C551 H571 0.930 . S
C552 N548 1.362 . S
C552 C549 1.431 . S
C552 C562 1.476 . S
H553 C547 0.929 . S
C554 O545 1.250 . S
C554 O546 1.258 . S
O555 Mn540 2.162 . S
O555 C543 1.281 . S
O556 Mn540 2.297 . S
O556 C543 1.236 . S
N557 Mn541 2.282 . S
N557 C558 1.328 . S
N557 C562 1.318 . S
C558 N557 1.328 . S
C558 C559 1.457 . S
C558 H563 0.929 . S
C559 C558 1.457 . S
C559 C560 1.291 . S
C559 H572 0.931 . S
C560 C559 1.291 . S
C560 C561 1.373 . S
C560 H573 0.929 . S
C561 C560 1.373 . S
C561 C562 1.396 . S
C561 C568 1.403 . S
C562 C552 1.476 . S
C562 N557 1.318 . S
C562 C561 1.396 . S
H563 C558 0.929 . S
O564 Mn540 2.385 . S
O564 C542 1.234 . S
O565 Mn540 2.209 . S
O565 Mn541 2.215 . S
O565 C542 1.283 . S
O566 Mn540 2.094 . S
O566 C544 1.240 . S
O567 Mn541 2.117 . S
O567 C544 1.264 . S
C568 C561 1.403 . S
C568 C569 1.399 . S
C568 H574 0.929 . S
C569 C549 1.449 . S
C569 C568 1.399 . S
C569 H575 0.930 . S
H570 C550 0.931 . S
H571 C551 0.930 . S
H572 C559 0.931 . S
H573 C560 0.929 . S
H574 C568 0.929 . S
H575 C569 0.930 . S
Mn576 O581 2.095 . S
Mn576 O591 2.162 . S
Mn576 O592 2.297 . S
Mn576 O600 2.385 . S
Mn576 O601 2.209 . S
Mn576 O602 2.094 . S
Mn577 O582 2.121 . S
Mn577 N584 2.257 . S
Mn577 N593 2.282 . S
Mn577 O601 2.215 . S
Mn577 O603 2.117 . S
C578 O600 1.234 . S
C578 O601 1.283 . S
C579 O591 1.281 . S
C579 O592 1.236 . S
C580 O602 1.240 . S
C580 O603 1.264 . S
O581 Mn576 2.095 . S
O581 C590 1.250 . S
O582 Mn577 2.121 . S
O582 C590 1.258 . S
C583 N584 1.326 . S
C583 C587 1.460 . S
C583 H589 0.929 . S
N584 Mn577 2.257 . S
N584 C583 1.326 . S
N584 C588 1.362 . S
C585 C586 1.258 . S
C585 C588 1.431 . S
C585 C605 1.449 . S
C586 C585 1.258 . S
C586 C587 1.477 . S
C586 H606 0.931 . S
C587 C583 1.460 . S
C587 C586 1.477 . S
C587 H607 0.930 . S
C588 N584 1.362 . S
C588 C585 1.431 . S
C588 C598 1.476 . S
H589 C583 0.929 . S
C590 O581 1.250 . S
C590 O582 1.258 . S
O591 Mn576 2.162 . S
O591 C579 1.281 . S
O592 Mn576 2.297 . S
O592 C579 1.236 . S
N593 Mn577 2.282 . S
N593 C594 1.328 . S
N593 C598 1.318 . S
C594 N593 1.328 . S
C594 C595 1.457 . S
C594 H599 0.929 . S
C595 C594 1.457 . S
C595 C596 1.291 . S
C595 H608 0.931 . S
C596 C595 1.291 . S
C596 C597 1.373 . S
C596 H609 0.929 . S
C597 C596 1.373 . S
C597 C598 1.396 . S
C597 C604 1.403 . S
C598 C588 1.476 . S
C598 N593 1.318 . S
C598 C597 1.396 . S
H599 C594 0.929 . S
O600 Mn576 2.385 . S
O600 C578 1.234 . S
O601 Mn576 2.209 . S
O601 Mn577 2.215 . S
O601 C578 1.283 . S
O602 Mn576 2.094 . S
O602 C580 1.240 . S
O603 Mn577 2.117 . S
O603 C580 1.264 . S
C604 C597 1.403 . S
C604 C605 1.399 . S
C604 H610 0.929 . S
C605 C585 1.449 . S
C605 C604 1.399 . S
C605 H611 0.930 . S
H606 C586 0.931 . S
H607 C587 0.930 . S
H608 C595 0.931 . S
H609 C596 0.929 . S
H610 C604 0.929 . S
H611 C605 0.930 . S
Mn612 O617 2.095 . S
Mn612 O627 2.162 . S
Mn612 O628 2.297 . S
Mn612 O636 2.385 . S
Mn612 O637 2.209 . S
Mn612 O638 2.094 . S
Mn613 O618 2.121 . S
Mn613 N620 2.257 . S
Mn613 N629 2.282 . S
Mn613 O637 2.215 . S
Mn613 O639 2.117 . S
C614 O636 1.234 . S
C614 O637 1.283 . S
C615 O627 1.281 . S
C615 O628 1.236 . S
C616 O638 1.240 . S
C616 O639 1.264 . S
O617 Mn612 2.095 . S
O617 C626 1.250 . S
O618 Mn613 2.121 . S
O618 C626 1.258 . S
C619 N620 1.326 . S
C619 C623 1.460 . S
C619 H625 0.929 . S
N620 Mn613 2.257 . S
N620 C619 1.326 . S
N620 C624 1.362 . S
C621 C622 1.258 . S
C621 C624 1.431 . S
C621 C641 1.449 . S
C622 C621 1.258 . S
C622 C623 1.477 . S
C622 H642 0.931 . S
C623 C619 1.460 . S
C623 C622 1.477 . S
C623 H643 0.930 . S
C624 N620 1.362 . S
C624 C621 1.431 . S
C624 C634 1.476 . S
H625 C619 0.929 . S
C626 O617 1.250 . S
C626 O618 1.258 . S
O627 Mn612 2.162 . S
O627 C615 1.281 . S
O628 Mn612 2.297 . S
O628 C615 1.236 . S
N629 Mn613 2.282 . S
N629 C630 1.328 . S
N629 C634 1.318 . S
C630 N629 1.328 . S
C630 C631 1.457 . S
C630 H635 0.929 . S
C631 C630 1.457 . S
C631 C632 1.291 . S
C631 H644 0.931 . S
C632 C631 1.291 . S
C632 C633 1.373 . S
C632 H645 0.929 . S
C633 C632 1.373 . S
C633 C634 1.396 . S
C633 C640 1.403 . S
C634 C624 1.476 . S
C634 N629 1.318 . S
C634 C633 1.396 . S
H635 C630 0.929 . S
O636 Mn612 2.385 . S
O636 C614 1.234 . S
O637 Mn612 2.209 . S
O637 Mn613 2.215 . S
O637 C614 1.283 . S
O638 Mn612 2.094 . S
O638 C616 1.240 . S
O639 Mn613 2.117 . S
O639 C616 1.264 . S
C640 C633 1.403 . S
C640 C641 1.399 . S
C640 H646 0.929 . S
C641 C621 1.449 . S
C641 C640 1.399 . S
C641 H647 0.930 . S
H642 C622 0.931 . S
H643 C623 0.930 . S
H644 C631 0.931 . S
H645 C632 0.929 . S
H646 C640 0.929 . S
H647 C641 0.930 . S
Mn648 O653 2.095 . S
Mn648 O663 2.162 . S
Mn648 O664 2.297 . S
Mn648 O672 2.385 . S
Mn648 O673 2.209 . S
Mn648 O674 2.094 . S
Mn649 O654 2.121 . S
Mn649 N656 2.257 . S
Mn649 N665 2.282 . S
Mn649 O673 2.215 . S
Mn649 O675 2.117 . S
C650 O672 1.234 . S
C650 O673 1.283 . S
C651 O663 1.281 . S
C651 O664 1.236 . S
C652 O674 1.240 . S
C652 O675 1.264 . S
O653 Mn648 2.095 . S
O653 C662 1.250 . S
O654 Mn649 2.121 . S
O654 C662 1.258 . S
C655 N656 1.326 . S
C655 C659 1.460 . S
C655 H661 0.929 . S
N656 Mn649 2.257 . S
N656 C655 1.326 . S
N656 C660 1.362 . S
C657 C658 1.258 . S
C657 C660 1.431 . S
C657 C677 1.449 . S
C658 C657 1.258 . S
C658 C659 1.477 . S
C658 H678 0.931 . S
C659 C655 1.460 . S
C659 C658 1.477 . S
C659 H679 0.930 . S
C660 N656 1.362 . S
C660 C657 1.431 . S
C660 C670 1.476 . S
H661 C655 0.929 . S
C662 O653 1.250 . S
C662 O654 1.258 . S
O663 Mn648 2.162 . S
O663 C651 1.281 . S
O664 Mn648 2.297 . S
O664 C651 1.236 . S
N665 Mn649 2.282 . S
N665 C666 1.328 . S
N665 C670 1.318 . S
C666 N665 1.328 . S
C666 C667 1.457 . S
C666 H671 0.929 . S
C667 C666 1.457 . S
C667 C668 1.291 . S
C667 H680 0.931 . S
C668 C667 1.291 . S
C668 C669 1.373 . S
C668 H681 0.929 . S
C669 C668 1.373 . S
C669 C670 1.396 . S
C669 C676 1.403 . S
C670 C660 1.476 . S
C670 N665 1.318 . S
C670 C669 1.396 . S
H671 C666 0.929 . S
O672 Mn648 2.385 . S
O672 C650 1.234 . S
O673 Mn648 2.209 . S
O673 Mn649 2.215 . S
O673 C650 1.283 . S
O674 Mn648 2.094 . S
O674 C652 1.240 . S
O675 Mn649 2.117 . S
O675 C652 1.264 . S
C676 C669 1.403 . S
C676 C677 1.399 . S
C676 H682 0.929 . S
C677 C657 1.449 . S
C677 C676 1.399 . S
C677 H683 0.930 . S
H678 C658 0.931 . S
H679 C659 0.930 . S
H680 C667 0.931 . S
H681 C668 0.929 . S
H682 C676 0.929 . S
H683 C677 0.930 . S
Mn684 O689 2.095 . S
Mn684 O699 2.162 . S
Mn684 O700 2.297 . S
Mn684 O708 2.385 . S
Mn684 O709 2.209 . S
Mn684 O710 2.094 . S
Mn685 O690 2.121 . S
Mn685 N692 2.257 . S
Mn685 N701 2.282 . S
Mn685 O709 2.215 . S
Mn685 O711 2.117 . S
C686 O708 1.234 . S
C686 O709 1.283 . S
C687 O699 1.281 . S
C687 O700 1.236 . S
C688 O710 1.240 . S
C688 O711 1.264 . S
O689 Mn684 2.095 . S
O689 C698 1.250 . S
O690 Mn685 2.121 . S
O690 C698 1.258 . S
C691 N692 1.326 . S
C691 C695 1.460 . S
C691 H697 0.929 . S
N692 Mn685 2.257 . S
N692 C691 1.326 . S
N692 C696 1.362 . S
C693 C694 1.258 . S
C693 C696 1.431 . S
C693 C713 1.449 . S
C694 C693 1.258 . S
C694 C695 1.477 . S
C694 H714 0.931 . S
C695 C691 1.460 . S
C695 C694 1.477 . S
C695 H715 0.930 . S
C696 N692 1.362 . S
C696 C693 1.431 . S
C696 C706 1.476 . S
H697 C691 0.929 . S
C698 O689 1.250 . S
C698 O690 1.258 . S
O699 Mn684 2.162 . S
O699 C687 1.281 . S
O700 Mn684 2.297 . S
O700 C687 1.236 . S
N701 Mn685 2.282 . S
N701 C702 1.328 . S
N701 C706 1.318 . S
C702 N701 1.328 . S
C702 C703 1.457 . S
C702 H707 0.929 . S
C703 C702 1.457 . S
C703 C704 1.291 . S
C703 H716 0.931 . S
C704 C703 1.291 . S
C704 C705 1.373 . S
C704 H717 0.929 . S
C705 C704 1.373 . S
C705 C706 1.396 . S
C705 C712 1.403 . S
C706 C696 1.476 . S
C706 N701 1.318 . S
C706 C705 1.396 . S
H707 C702 0.929 . S
O708 Mn684 2.385 . S
O708 C686 1.234 . S
O709 Mn684 2.209 . S
O709 Mn685 2.215 . S
O709 C686 1.283 . S
O710 Mn684 2.094 . S
O710 C688 1.240 . S
O711 Mn685 2.117 . S
O711 C688 1.264 . S
C712 C705 1.403 . S
C712 C713 1.399 . S
C712 H718 0.929 . S
C713 C693 1.449 . S
C713 C712 1.399 . S
C713 H719 0.930 . S
H714 C694 0.931 . S
H715 C695 0.930 . S
H716 C703 0.931 . S
H717 C704 0.929 . S
H718 C712 0.929 . S
H719 C713 0.930 . S
Mn720 O725 2.095 . S
Mn720 O735 2.162 . S
Mn720 O736 2.297 . S
Mn720 O744 2.385 . S
Mn720 O745 2.209 . S
Mn720 O746 2.094 . S
Mn721 O726 2.121 . S
Mn721 N728 2.257 . S
Mn721 N737 2.282 . S
Mn721 O745 2.215 . S
Mn721 O747 2.117 . S
C722 O744 1.234 . S
C722 O745 1.283 . S
C723 O735 1.281 . S
C723 O736 1.236 . S
C724 O746 1.240 . S
C724 O747 1.264 . S
O725 Mn720 2.095 . S
O725 C734 1.250 . S
O726 Mn721 2.121 . S
O726 C734 1.258 . S
C727 N728 1.326 . S
C727 C731 1.460 . S
C727 H733 0.929 . S
N728 Mn721 2.257 . S
N728 C727 1.326 . S
N728 C732 1.362 . S
C729 C730 1.258 . S
C729 C732 1.431 . S
C729 C749 1.449 . S
C730 C729 1.258 . S
C730 C731 1.477 . S
C730 H750 0.931 . S
C731 C727 1.460 . S
C731 C730 1.477 . S
C731 H751 0.930 . S
C732 N728 1.362 . S
C732 C729 1.431 . S
C732 C742 1.476 . S
H733 C727 0.929 . S
C734 O725 1.250 . S
C734 O726 1.258 . S
O735 Mn720 2.162 . S
O735 C723 1.281 . S
O736 Mn720 2.297 . S
O736 C723 1.236 . S
N737 Mn721 2.282 . S
N737 C738 1.328 . S
N737 C742 1.318 . S
C738 N737 1.328 . S
C738 C739 1.457 . S
C738 H743 0.929 . S
C739 C738 1.457 . S
C739 C740 1.291 . S
C739 H752 0.931 . S
C740 C739 1.291 . S
C740 C741 1.373 . S
C740 H753 0.929 . S
C741 C740 1.373 . S
C741 C742 1.396 . S
C741 C748 1.403 . S
C742 C732 1.476 . S
C742 N737 1.318 . S
C742 C741 1.396 . S
H743 C738 0.929 . S
O744 Mn720 2.385 . S
O744 C722 1.234 . S
O745 Mn720 2.209 . S
O745 Mn721 2.215 . S
O745 C722 1.283 . S
O746 Mn720 2.094 . S
O746 C724 1.240 . S
O747 Mn721 2.117 . S
O747 C724 1.264 . S
C748 C741 1.403 . S
C748 C749 1.399 . S
C748 H754 0.929 . S
C749 C729 1.449 . S
C749 C748 1.399 . S
C749 H755 0.930 . S
H750 C730 0.931 . S
H751 C731 0.930 . S
H752 C739 0.931 . S
H753 C740 0.929 . S
H754 C748 0.929 . S
H755 C749 0.930 . S
Mn756 O761 2.095 . S
Mn756 O771 2.162 . S
Mn756 O772 2.297 . S
Mn756 O780 2.385 . S
Mn756 O781 2.209 . S
Mn756 O782 2.094 . S
Mn757 O762 2.121 . S
Mn757 N764 2.257 . S
Mn757 N773 2.282 . S
Mn757 O781 2.215 . S
Mn757 O783 2.117 . S
C758 O780 1.234 . S
C758 O781 1.283 . S
C759 O771 1.281 . S
C759 O772 1.236 . S
C760 O782 1.240 . S
C760 O783 1.264 . S
O761 Mn756 2.095 . S
O761 C770 1.250 . S
O762 Mn757 2.121 . S
O762 C770 1.258 . S
C763 N764 1.326 . S
C763 C767 1.460 . S
C763 H769 0.929 . S
N764 Mn757 2.257 . S
N764 C763 1.326 . S
N764 C768 1.362 . S
C765 C766 1.258 . S
C765 C768 1.431 . S
C765 C785 1.449 . S
C766 C765 1.258 . S
C766 C767 1.477 . S
C766 H786 0.931 . S
C767 C763 1.460 . S
C767 C766 1.477 . S
C767 H787 0.930 . S
C768 N764 1.362 . S
C768 C765 1.431 . S
C768 C778 1.476 . S
H769 C763 0.929 . S
C770 O761 1.250 . S
C770 O762 1.258 . S
O771 Mn756 2.162 . S
O771 C759 1.281 . S
O772 Mn756 2.297 . S
O772 C759 1.236 . S
N773 Mn757 2.282 . S
N773 C774 1.328 . S
N773 C778 1.318 . S
C774 N773 1.328 . S
C774 C775 1.457 . S
C774 H779 0.929 . S
C775 C774 1.457 . S
C775 C776 1.291 . S
C775 H788 0.931 . S
C776 C775 1.291 . S
C776 C777 1.373 . S
C776 H789 0.929 . S
C777 C776 1.373 . S
C777 C778 1.396 . S
C777 C784 1.403 . S
C778 C768 1.476 . S
C778 N773 1.318 . S
C778 C777 1.396 . S
H779 C774 0.929 . S
O780 Mn756 2.385 . S
O780 C758 1.234 . S
O781 Mn756 2.209 . S
O781 Mn757 2.215 . S
O781 C758 1.283 . S
O782 Mn756 2.094 . S
O782 C760 1.240 . S
O783 Mn757 2.117 . S
O783 C760 1.264 . S
C784 C777 1.403 . S
C784 C785 1.399 . S
C784 H790 0.929 . S
C785 C765 1.449 . S
C785 C784 1.399 . S
C785 H791 0.930 . S
H786 C766 0.931 . S
H787 C767 0.930 . S
H788 C775 0.931 . S
H789 C776 0.929 . S
H790 C784 0.929 . S
H791 C785 0.930 . S
Mn792 O797 2.095 . S
Mn792 O807 2.162 . S
Mn792 O808 2.297 . S
Mn792 O816 2.385 . S
Mn792 O817 2.209 . S
Mn792 O818 2.094 . S
Mn793 O798 2.121 . S
Mn793 N800 2.257 . S
Mn793 N809 2.282 . S
Mn793 O817 2.215 . S
Mn793 O819 2.117 . S
C794 O816 1.234 . S
C794 O817 1.283 . S
C795 O807 1.281 . S
C795 O808 1.236 . S
C796 O818 1.240 . S
C796 O819 1.264 . S
O797 Mn792 2.095 . S
O797 C806 1.250 . S
O798 Mn793 2.121 . S
O798 C806 1.258 . S
C799 N800 1.326 . S
C799 C803 1.460 . S
C799 H805 0.929 . S
N800 Mn793 2.257 . S
N800 C799 1.326 . S
N800 C804 1.362 . S
C801 C802 1.258 . S
C801 C804 1.431 . S
C801 C821 1.449 . S
C802 C801 1.258 . S
C802 C803 1.477 . S
C802 H822 0.931 . S
C803 C799 1.460 . S
C803 C802 1.477 . S
C803 H823 0.930 . S
C804 N800 1.362 . S
C804 C801 1.431 . S
C804 C814 1.476 . S
H805 C799 0.929 . S
C806 O797 1.250 . S
C806 O798 1.258 . S
O807 Mn792 2.162 . S
O807 C795 1.281 . S
O808 Mn792 2.297 . S
O808 C795 1.236 . S
N809 Mn793 2.282 . S
N809 C810 1.328 . S
N809 C814 1.318 . S
C810 N809 1.328 . S
C810 C811 1.457 . S
C810 H815 0.929 . S
C811 C810 1.457 . S
C811 C812 1.291 . S
C811 H824 0.931 . S
C812 C811 1.291 . S
C812 C813 1.373 . S
C812 H825 0.929 . S
C813 C812 1.373 . S
C813 C814 1.396 . S
C813 C820 1.403 . S
C814 C804 1.476 . S
C814 N809 1.318 . S
C814 C813 1.396 . S
H815 C810 0.929 . S
O816 Mn792 2.385 . S
O816 C794 1.234 . S
O817 Mn792 2.209 . S
O817 Mn793 2.215 . S
O817 C794 1.283 . S
O818 Mn792 2.094 . S
O818 C796 1.240 . S
O819 Mn793 2.117 . S
O819 C796 1.264 . S
C820 C813 1.403 . S
C820 C821 1.399 . S
C820 H826 0.929 . S
C821 C801 1.449 . S
C821 C820 1.399 . S
C821 H827 0.930 . S
H822 C802 0.931 . S
H823 C803 0.930 . S
H824 C811 0.931 . S
H825 C812 0.929 . S
H826 C820 0.929 . S
H827 C821 0.930 . S
Mn828 O833 2.095 . S
Mn828 O843 2.162 . S
Mn828 O844 2.297 . S
Mn828 O852 2.385 . S
Mn828 O853 2.209 . S
Mn828 O854 2.094 . S
Mn829 O834 2.121 . S
Mn829 N836 2.257 . S
Mn829 N845 2.282 . S
Mn829 O853 2.215 . S
Mn829 O855 2.117 . S
C830 O852 1.234 . S
C830 O853 1.283 . S
C831 O843 1.281 . S
C831 O844 1.236 . S
C832 O854 1.240 . S
C832 O855 1.264 . S
O833 Mn828 2.095 . S
O833 C842 1.250 . S
O834 Mn829 2.121 . S
O834 C842 1.258 . S
C835 N836 1.326 . S
C835 C839 1.460 . S
C835 H841 0.929 . S
N836 Mn829 2.257 . S
N836 C835 1.326 . S
N836 C840 1.362 . S
C837 C838 1.258 . S
C837 C840 1.431 . S
C837 C857 1.449 . S
C838 C837 1.258 . S
C838 C839 1.477 . S
C838 H858 0.931 . S
C839 C835 1.460 . S
C839 C838 1.477 . S
C839 H859 0.930 . S
C840 N836 1.362 . S
C840 C837 1.431 . S
C840 C850 1.476 . S
H841 C835 0.929 . S
C842 O833 1.250 . S
C842 O834 1.258 . S
O843 Mn828 2.162 . S
O843 C831 1.281 . S
O844 Mn828 2.297 . S
O844 C831 1.236 . S
N845 Mn829 2.282 . S
N845 C846 1.328 . S
N845 C850 1.318 . S
C846 N845 1.328 . S
C846 C847 1.457 . S
C846 H851 0.929 . S
C847 C846 1.457 . S
C847 C848 1.291 . S
C847 H860 0.931 . S
C848 C847 1.291 . S
C848 C849 1.373 . S
C848 H861 0.929 . S
C849 C848 1.373 . S
C849 C850 1.396 . S
C849 C856 1.403 . S
C850 C840 1.476 . S
C850 N845 1.318 . S
C850 C849 1.396 . S
H851 C846 0.929 . S
O852 Mn828 2.385 . S
O852 C830 1.234 . S
O853 Mn828 2.209 . S
O853 Mn829 2.215 . S
O853 C830 1.283 . S
O854 Mn828 2.094 . S
O854 C832 1.240 . S
O855 Mn829 2.117 . S
O855 C832 1.264 . S
C856 C849 1.403 . S
C856 C857 1.399 . S
C856 H862 0.929 . S
C857 C837 1.449 . S
C857 C856 1.399 . S
C857 H863 0.930 . S
H858 C838 0.931 . S
H859 C839 0.930 . S
H860 C847 0.931 . S
H861 C848 0.929 . S
H862 C856 0.929 . S
H863 C857 0.930 . S
Mn864 O869 2.095 . S
Mn864 O879 2.162 . S
Mn864 O880 2.297 . S
Mn864 O888 2.385 . S
Mn864 O889 2.209 . S
Mn864 O890 2.094 . S
Mn865 O870 2.121 . S
Mn865 N872 2.257 . S
Mn865 N881 2.282 . S
Mn865 O889 2.215 . S
Mn865 O891 2.117 . S
C866 O888 1.234 . S
C866 O889 1.283 . S
C867 O879 1.281 . S
C867 O880 1.236 . S
C868 O890 1.240 . S
C868 O891 1.264 . S
O869 Mn864 2.095 . S
O869 C878 1.250 . S
O870 Mn865 2.121 . S
O870 C878 1.258 . S
C871 N872 1.326 . S
C871 C875 1.460 . S
C871 H877 0.929 . S
N872 Mn865 2.257 . S
N872 C871 1.326 . S
N872 C876 1.362 . S
C873 C874 1.258 . S
C873 C876 1.431 . S
C873 C893 1.449 . S
C874 C873 1.258 . S
C874 C875 1.477 . S
C874 H894 0.931 . S
C875 C871 1.460 . S
C875 C874 1.477 . S
C875 H895 0.930 . S
C876 N872 1.362 . S
C876 C873 1.431 . S
C876 C886 1.476 . S
H877 C871 0.929 . S
C878 O869 1.250 . S
C878 O870 1.258 . S
O879 Mn864 2.162 . S
O879 C867 1.281 . S
O880 Mn864 2.297 . S
O880 C867 1.236 . S
N881 Mn865 2.282 . S
N881 C882 1.328 . S
N881 C886 1.318 . S
C882 N881 1.328 . S
C882 C883 1.457 . S
C882 H887 0.929 . S
C883 C882 1.457 . S
C883 C884 1.291 . S
C883 H896 0.931 . S
C884 C883 1.291 . S
C884 C885 1.373 . S
C884 H897 0.929 . S
C885 C884 1.373 . S
C885 C886 1.396 . S
C885 C892 1.403 . S
C886 C876 1.476 . S
C886 N881 1.318 . S
C886 C885 1.396 . S
H887 C882 0.929 . S
O888 Mn864 2.385 . S
O888 C866 1.234 . S
O889 Mn864 2.209 . S
O889 Mn865 2.215 . S
O889 C866 1.283 . S
O890 Mn864 2.094 . S
O890 C868 1.240 . S
O891 Mn865 2.117 . S
O891 C868 1.264 . S
C892 C885 1.403 . S
C892 C893 1.399 . S
C892 H898 0.929 . S
C893 C873 1.449 . S
C893 C892 1.399 . S
C893 H899 0.930 . S
H894 C874 0.931 . S
H895 C875 0.930 . S
H896 C883 0.931 . S
H897 C884 0.929 . S
H898 C892 0.929 . S
H899 C893 0.930 . S
Mn900 O905 2.095 . S
Mn900 O915 2.162 . S
Mn900 O916 2.297 . S
Mn900 O924 2.385 . S
Mn900 O925 2.209 . S
Mn900 O926 2.094 . S
Mn901 O906 2.121 . S
Mn901 N908 2.257 . S
Mn901 N917 2.282 . S
Mn901 O925 2.215 . S
Mn901 O927 2.117 . S
C902 O924 1.234 . S
C902 O925 1.283 . S
C903 O915 1.281 . S
C903 O916 1.236 . S
C904 O926 1.240 . S
C904 O927 1.264 . S
O905 Mn900 2.095 . S
O905 C914 1.250 . S
O906 Mn901 2.121 . S
O906 C914 1.258 . S
C907 N908 1.326 . S
C907 C911 1.460 . S
C907 H913 0.929 . S
N908 Mn901 2.257 . S
N908 C907 1.326 . S
N908 C912 1.362 . S
C909 C910 1.258 . S
C909 C912 1.431 . S
C909 C929 1.449 . S
C910 C909 1.258 . S
C910 C911 1.477 . S
C910 H930 0.931 . S
C911 C907 1.460 . S
C911 C910 1.477 . S
C911 H931 0.930 . S
C912 N908 1.362 . S
C912 C909 1.431 . S
C912 C922 1.476 . S
H913 C907 0.929 . S
C914 O905 1.250 . S
C914 O906 1.258 . S
O915 Mn900 2.162 . S
O915 C903 1.281 . S
O916 Mn900 2.297 . S
O916 C903 1.236 . S
N917 Mn901 2.282 . S
N917 C918 1.328 . S
N917 C922 1.318 . S
C918 N917 1.328 . S
C918 C919 1.457 . S
C918 H923 0.929 . S
C919 C918 1.457 . S
C919 C920 1.291 . S
C919 H932 0.931 . S
C920 C919 1.291 . S
C920 C921 1.373 . S
C920 H933 0.929 . S
C921 C920 1.373 . S
C921 C922 1.396 . S
C921 C928 1.403 . S
C922 C912 1.476 . S
C922 N917 1.318 . S
C922 C921 1.396 . S
H923 C918 0.929 . S
O924 Mn900 2.385 . S
O924 C902 1.234 . S
O925 Mn900 2.209 . S
O925 Mn901 2.215 . S
O925 C902 1.283 . S
O926 Mn900 2.094 . S
O926 C904 1.240 . S
O927 Mn901 2.117 . S
O927 C904 1.264 . S
C928 C921 1.403 . S
C928 C929 1.399 . S
C928 H934 0.929 . S
C929 C909 1.449 . S
C929 C928 1.399 . S
C929 H935 0.930 . S
H930 C910 0.931 . S
H931 C911 0.930 . S
H932 C919 0.931 . S
H933 C920 0.929 . S
H934 C928 0.929 . S
H935 C929 0.930 . S
Mn936 O941 2.095 . S
Mn936 O951 2.162 . S
Mn936 O952 2.297 . S
Mn936 O960 2.385 . S
Mn936 O961 2.209 . S
Mn936 O962 2.094 . S
Mn937 O942 2.121 . S
Mn937 N944 2.257 . S
Mn937 N953 2.282 . S
Mn937 O961 2.215 . S
Mn937 O963 2.117 . S
C938 O960 1.234 . S
C938 O961 1.283 . S
C939 O951 1.281 . S
C939 O952 1.236 . S
C940 O962 1.240 . S
C940 O963 1.264 . S
O941 Mn936 2.095 . S
O941 C950 1.250 . S
O942 Mn937 2.121 . S
O942 C950 1.258 . S
C943 N944 1.326 . S
C943 C947 1.460 . S
C943 H949 0.929 . S
N944 Mn937 2.257 . S
N944 C943 1.326 . S
N944 C948 1.362 . S
C945 C946 1.258 . S
C945 C948 1.431 . S
C945 C965 1.449 . S
C946 C945 1.258 . S
C946 C947 1.477 . S
C946 H966 0.931 . S
C947 C943 1.460 . S
C947 C946 1.477 . S
C947 H967 0.930 . S
C948 N944 1.362 . S
C948 C945 1.431 . S
C948 C958 1.476 . S
H949 C943 0.929 . S
C950 O941 1.250 . S
C950 O942 1.258 . S
O951 Mn936 2.162 . S
O951 C939 1.281 . S
O952 Mn936 2.297 . S
O952 C939 1.236 . S
N953 Mn937 2.282 . S
N953 C954 1.328 . S
N953 C958 1.318 . S
C954 N953 1.328 . S
C954 C955 1.457 . S
C954 H959 0.929 . S
C955 C954 1.457 . S
C955 C956 1.291 . S
C955 H968 0.931 . S
C956 C955 1.291 . S
C956 C957 1.373 . S
C956 H969 0.929 . S
C957 C956 1.373 . S
C957 C958 1.396 . S
C957 C964 1.403 . S
C958 C948 1.476 . S
C958 N953 1.318 . S
C958 C957 1.396 . S
H959 C954 0.929 . S
O960 Mn936 2.385 . S
O960 C938 1.234 . S
O961 Mn936 2.209 . S
O961 Mn937 2.215 . S
O961 C938 1.283 . S
O962 Mn936 2.094 . S
O962 C940 1.240 . S
O963 Mn937 2.117 . S
O963 C940 1.264 . S
C964 C957 1.403 . S
C964 C965 1.399 . S
C964 H970 0.929 . S
C965 C945 1.449 . S
C965 C964 1.399 . S
C965 H971 0.930 . S
H966 C946 0.931 . S
H967 C947 0.930 . S
H968 C955 0.931 . S
H969 C956 0.929 . S
H970 C964 0.929 . S
H971 C965 0.930 . S
Mn972 O977 2.095 . S
Mn972 O987 2.162 . S
Mn972 O988 2.297 . S
Mn972 O996 2.385 . S
Mn972 O997 2.209 . S
Mn972 O998 2.094 . S
Mn973 O978 2.121 . S
Mn973 N980 2.257 . S
Mn973 N989 2.282 . S
Mn973 O997 2.215 . S
Mn973 O999 2.117 . S
C974 O996 1.234 . S
C974 O997 1.283 . S
C975 O987 1.281 . S
C975 O988 1.236 . S
C976 O998 1.240 . S
C976 O999 1.264 . S
O977 Mn972 2.095 . S
O977 C986 1.250 . S
O978 Mn973 2.121 . S
O978 C986 1.258 . S
C979 N980 1.326 . S
C979 C983 1.460 . S
C979 H985 0.929 . S
N980 Mn973 2.257 . S
N980 C979 1.326 . S
N980 C984 1.362 . S
C981 C982 1.258 . S
C981 C984 1.431 . S
C981 C1001 1.449 . S
C982 C981 1.258 . S
C982 C983 1.477 . S
C982 H1002 0.931 . S
C983 C979 1.460 . S
C983 C982 1.477 . S
C983 H1003 0.930 . S
C984 N980 1.362 . S
C984 C981 1.431 . S
C984 C994 1.476 . S
H985 C979 0.929 . S
C986 O977 1.250 . S
C986 O978 1.258 . S
O987 Mn972 2.162 . S
O987 C975 1.281 . S
O988 Mn972 2.297 . S
O988 C975 1.236 . S
N989 Mn973 2.282 . S
N989 C990 1.328 . S
N989 C994 1.318 . S
C990 N989 1.328 . S
C990 C991 1.457 . S
C990 H995 0.929 . S
C991 C990 1.457 . S
C991 C992 1.291 . S
C991 H1004 0.931 . S
C992 C991 1.291 . S
C992 C993 1.373 . S
C992 H1005 0.929 . S
C993 C992 1.373 . S
C993 C994 1.396 . S
C993 C1000 1.403 . S
C994 C984 1.476 . S
C994 N989 1.318 . S
C994 C993 1.396 . S
H995 C990 0.929 . S
O996 Mn972 2.385 . S
O996 C974 1.234 . S
O997 Mn972 2.209 . S
O997 Mn973 2.215 . S
O997 C974 1.283 . S
O998 Mn972 2.094 . S
O998 C976 1.240 . S
O999 Mn973 2.117 . S
O999 C976 1.264 . S
C1000 C993 1.403 . S
C1000 C1001 1.399 . S
C1000 H1006 0.929 . S
C1001 C981 1.449 . S
C1001 C1000 1.399 . S
C1001 H1007 0.930 . S
H1002 C982 0.931 . S
H1003 C983 0.930 . S
H1004 C991 0.931 . S
H1005 C992 0.929 . S
H1006 C1000 0.929 . S
H1007 C1001 0.930 . S
Mn1008 O1013 2.095 . S
Mn1008 O1023 2.162 . S
Mn1008 O1024 2.297 . S
Mn1008 O1032 2.385 . S
Mn1008 O1033 2.209 . S
Mn1008 O1034 2.094 . S
Mn1009 O1014 2.121 . S
Mn1009 N1016 2.257 . S
Mn1009 N1025 2.282 . S
Mn1009 O1033 2.215 . S
Mn1009 O1035 2.117 . S
C1010 O1032 1.234 . S
C1010 O1033 1.283 . S
C1011 O1023 1.281 . S
C1011 O1024 1.236 . S
C1012 O1034 1.240 . S
C1012 O1035 1.264 . S
O1013 Mn1008 2.095 . S
O1013 C1022 1.250 . S
O1014 Mn1009 2.121 . S
O1014 C1022 1.258 . S
C1015 N1016 1.326 . S
C1015 C1019 1.460 . S
C1015 H1021 0.929 . S
N1016 Mn1009 2.257 . S
N1016 C1015 1.326 . S
N1016 C1020 1.362 . S
C1017 C1018 1.258 . S
C1017 C1020 1.431 . S
C1017 C1037 1.449 . S
C1018 C1017 1.258 . S
C1018 C1019 1.477 . S
C1018 H1038 0.931 . S
C1019 C1015 1.460 . S
C1019 C1018 1.477 . S
C1019 H1039 0.930 . S
C1020 N1016 1.362 . S
C1020 C1017 1.431 . S
C1020 C1030 1.476 . S
H1021 C1015 0.929 . S
C1022 O1013 1.250 . S
C1022 O1014 1.258 . S
O1023 Mn1008 2.162 . S
O1023 C1011 1.281 . S
O1024 Mn1008 2.297 . S
O1024 C1011 1.236 . S
N1025 Mn1009 2.282 . S
N1025 C1026 1.328 . S
N1025 C1030 1.318 . S
C1026 N1025 1.328 . S
C1026 C1027 1.457 . S
C1026 H1031 0.929 . S
C1027 C1026 1.457 . S
C1027 C1028 1.291 . S
C1027 H1040 0.931 . S
C1028 C1027 1.291 . S
C1028 C1029 1.373 . S
C1028 H1041 0.929 . S
C1029 C1028 1.373 . S
C1029 C1030 1.396 . S
C1029 C1036 1.403 . S
C1030 C1020 1.476 . S
C1030 N1025 1.318 . S
C1030 C1029 1.396 . S
H1031 C1026 0.929 . S
O1032 Mn1008 2.385 . S
O1032 C1010 1.234 . S
O1033 Mn1008 2.209 . S
O1033 Mn1009 2.215 . S
O1033 C1010 1.283 . S
O1034 Mn1008 2.094 . S
O1034 C1012 1.240 . S
O1035 Mn1009 2.117 . S
O1035 C1012 1.264 . S
C1036 C1029 1.403 . S
C1036 C1037 1.399 . S
C1036 H1042 0.929 . S
C1037 C1017 1.449 . S
C1037 C1036 1.399 . S
C1037 H1043 0.930 . S
H1038 C1018 0.931 . S
H1039 C1019 0.930 . S
H1040 C1027 0.931 . S
H1041 C1028 0.929 . S
H1042 C1036 0.929 . S
H1043 C1037 0.930 . S
Mn1044 O1049 2.095 . S
Mn1044 O1059 2.162 . S
Mn1044 O1060 2.297 . S
Mn1044 O1068 2.385 . S
Mn1044 O1069 2.209 . S
Mn1044 O1070 2.094 . S
Mn1045 O1050 2.121 . S
Mn1045 N1052 2.257 . S
Mn1045 N1061 2.282 . S
Mn1045 O1069 2.215 . S
Mn1045 O1071 2.117 . S
C1046 O1068 1.234 . S
C1046 O1069 1.283 . S
C1047 O1059 1.281 . S
C1047 O1060 1.236 . S
C1048 O1070 1.240 . S
C1048 O1071 1.264 . S
O1049 Mn1044 2.095 . S
O1049 C1058 1.250 . S
O1050 Mn1045 2.121 . S
O1050 C1058 1.258 . S
C1051 N1052 1.326 . S
C1051 C1055 1.460 . S
C1051 H1057 0.929 . S
N1052 Mn1045 2.257 . S
N1052 C1051 1.326 . S
N1052 C1056 1.362 . S
C1053 C1054 1.258 . S
C1053 C1056 1.431 . S
C1053 C1073 1.449 . S
C1054 C1053 1.258 . S
C1054 C1055 1.477 . S
C1054 H1074 0.931 . S
C1055 C1051 1.460 . S
C1055 C1054 1.477 . S
C1055 H1075 0.930 . S
C1056 N1052 1.362 . S
C1056 C1053 1.431 . S
C1056 C1066 1.476 . S
H1057 C1051 0.929 . S
C1058 O1049 1.250 . S
C1058 O1050 1.258 . S
O1059 Mn1044 2.162 . S
O1059 C1047 1.281 . S
O1060 Mn1044 2.297 . S
O1060 C1047 1.236 . S
N1061 Mn1045 2.282 . S
N1061 C1062 1.328 . S
N1061 C1066 1.318 . S
C1062 N1061 1.328 . S
C1062 C1063 1.457 . S
C1062 H1067 0.929 . S
C1063 C1062 1.457 . S
C1063 C1064 1.291 . S
C1063 H1076 0.931 . S
C1064 C1063 1.291 . S
C1064 C1065 1.373 . S
C1064 H1077 0.929 . S
C1065 C1064 1.373 . S
C1065 C1066 1.396 . S
C1065 C1072 1.403 . S
C1066 C1056 1.476 . S
C1066 N1061 1.318 . S
C1066 C1065 1.396 . S
H1067 C1062 0.929 . S
O1068 Mn1044 2.385 . S
O1068 C1046 1.234 . S
O1069 Mn1044 2.209 . S
O1069 Mn1045 2.215 . S
O1069 C1046 1.283 . S
O1070 Mn1044 2.094 . S
O1070 C1048 1.240 . S
O1071 Mn1045 2.117 . S
O1071 C1048 1.264 . S
C1072 C1065 1.403 . S
C1072 C1073 1.399 . S
C1072 H1078 0.929 . S
C1073 C1053 1.449 . S
C1073 C1072 1.399 . S
C1073 H1079 0.930 . S
H1074 C1054 0.931 . S
H1075 C1055 0.930 . S
H1076 C1063 0.931 . S
H1077 C1064 0.929 . S
H1078 C1072 0.929 . S
H1079 C1073 0.930 . S
Mn1080 O1085 2.095 . S
Mn1080 O1095 2.162 . S
Mn1080 O1096 2.297 . S
Mn1080 O1104 2.385 . S
Mn1080 O1105 2.209 . S
Mn1080 O1106 2.094 . S
Mn1081 O1086 2.121 . S
Mn1081 N1088 2.257 . S
Mn1081 N1097 2.282 . S
Mn1081 O1105 2.215 . S
Mn1081 O1107 2.117 . S
C1082 O1104 1.234 . S
C1082 O1105 1.283 . S
C1083 O1095 1.281 . S
C1083 O1096 1.236 . S
C1084 O1106 1.240 . S
C1084 O1107 1.264 . S
O1085 Mn1080 2.095 . S
O1085 C1094 1.250 . S
O1086 Mn1081 2.121 . S
O1086 C1094 1.258 . S
C1087 N1088 1.326 . S
C1087 C1091 1.460 . S
C1087 H1093 0.929 . S
N1088 Mn1081 2.257 . S
N1088 C1087 1.326 . S
N1088 C1092 1.362 . S
C1089 C1090 1.258 . S
C1089 C1092 1.431 . S
C1089 C1109 1.449 . S
C1090 C1089 1.258 . S
C1090 C1091 1.477 . S
C1090 H1110 0.931 . S
C1091 C1087 1.460 . S
C1091 C1090 1.477 . S
C1091 H1111 0.930 . S
C1092 N1088 1.362 . S
C1092 C1089 1.431 . S
C1092 C1102 1.476 . S
H1093 C1087 0.929 . S
C1094 O1085 1.250 . S
C1094 O1086 1.258 . S
O1095 Mn1080 2.162 . S
O1095 C1083 1.281 . S
O1096 Mn1080 2.297 . S
O1096 C1083 1.236 . S
N1097 Mn1081 2.282 . S
N1097 C1098 1.328 . S
N1097 C1102 1.318 . S
C1098 N1097 1.328 . S
C1098 C1099 1.457 . S
C1098 H1103 0.929 . S
C1099 C1098 1.457 . S
C1099 C1100 1.291 . S
C1099 H1112 0.931 . S
C1100 C1099 1.291 . S
C1100 C1101 1.373 . S
C1100 H1113 0.929 . S
C1101 C1100 1.373 . S
C1101 C1102 1.396 . S
C1101 C1108 1.403 . S
C1102 C1092 1.476 . S
C1102 N1097 1.318 . S
C1102 C1101 1.396 . S
H1103 C1098 0.929 . S
O1104 Mn1080 2.385 . S
O1104 C1082 1.234 . S
O1105 Mn1080 2.209 . S
O1105 Mn1081 2.215 . S
O1105 C1082 1.283 . S
O1106 Mn1080 2.094 . S
O1106 C1084 1.240 . S
O1107 Mn1081 2.117 . S
O1107 C1084 1.264 . S
C1108 C1101 1.403 . S
C1108 C1109 1.399 . S
C1108 H1114 0.929 . S
C1109 C1089 1.449 . S
C1109 C1108 1.399 . S
C1109 H1115 0.930 . S
H1110 C1090 0.931 . S
H1111 C1091 0.930 . S
H1112 C1099 0.931 . S
H1113 C1100 0.929 . S
H1114 C1108 0.929 . S
H1115 C1109 0.930 . S
Mn1116 O1121 2.095 . S
Mn1116 O1131 2.162 . S
Mn1116 O1132 2.297 . S
Mn1116 O1140 2.385 . S
Mn1116 O1141 2.209 . S
Mn1116 O1142 2.094 . S
Mn1117 O1122 2.121 . S
Mn1117 N1124 2.257 . S
Mn1117 N1133 2.282 . S
Mn1117 O1141 2.215 . S
Mn1117 O1143 2.117 . S
C1118 O1140 1.234 . S
C1118 O1141 1.283 . S
C1119 O1131 1.281 . S
C1119 O1132 1.236 . S
C1120 O1142 1.240 . S
C1120 O1143 1.264 . S
O1121 Mn1116 2.095 . S
O1121 C1130 1.250 . S
O1122 Mn1117 2.121 . S
O1122 C1130 1.258 . S
C1123 N1124 1.326 . S
C1123 C1127 1.460 . S
C1123 H1129 0.929 . S
N1124 Mn1117 2.257 . S
N1124 C1123 1.326 . S
N1124 C1128 1.362 . S
C1125 C1126 1.258 . S
C1125 C1128 1.431 . S
C1125 C1145 1.449 . S
C1126 C1125 1.258 . S
C1126 C1127 1.477 . S
C1126 H1146 0.931 . S
C1127 C1123 1.460 . S
C1127 C1126 1.477 . S
C1127 H1147 0.930 . S
C1128 N1124 1.362 . S
C1128 C1125 1.431 . S
C1128 C1138 1.476 . S
H1129 C1123 0.929 . S
C1130 O1121 1.250 . S
C1130 O1122 1.258 . S
O1131 Mn1116 2.162 . S
O1131 C1119 1.281 . S
O1132 Mn1116 2.297 . S
O1132 C1119 1.236 . S
N1133 Mn1117 2.282 . S
N1133 C1134 1.328 . S
N1133 C1138 1.318 . S
C1134 N1133 1.328 . S
C1134 C1135 1.457 . S
C1134 H1139 0.929 . S
C1135 C1134 1.457 . S
C1135 C1136 1.291 . S
C1135 H1148 0.931 . S
C1136 C1135 1.291 . S
C1136 C1137 1.373 . S
C1136 H1149 0.929 . S
C1137 C1136 1.373 . S
C1137 C1138 1.396 . S
C1137 C1144 1.403 . S
C1138 C1128 1.476 . S
C1138 N1133 1.318 . S
C1138 C1137 1.396 . S
H1139 C1134 0.929 . S
O1140 Mn1116 2.385 . S
O1140 C1118 1.234 . S
O1141 Mn1116 2.209 . S
O1141 Mn1117 2.215 . S
O1141 C1118 1.283 . S
O1142 Mn1116 2.094 . S
O1142 C1120 1.240 . S
O1143 Mn1117 2.117 . S
O1143 C1120 1.264 . S
C1144 C1137 1.403 . S
C1144 C1145 1.399 . S
C1144 H1150 0.929 . S
C1145 C1125 1.449 . S
C1145 C1144 1.399 . S
C1145 H1151 0.930 . S
H1146 C1126 0.931 . S
H1147 C1127 0.930 . S
H1148 C1135 0.931 . S
H1149 C1136 0.929 . S
H1150 C1144 0.929 . S
H1151 C1145 0.930 . S
H1152 C1160 0.929 . S
H1153 C1162 0.930 . S
H1154 C1164 0.930 . S
H1155 C1167 0.929 . S
H1156 C1170 0.930 . S
H1157 C1172 0.960 . S
H1158 C1172 0.960 . S
H1159 C1172 0.960 . S
C1160 H1152 0.929 . S
C1160 C1161 1.377 . S
C1160 C1162 1.384 . S
C1161 C1160 1.377 . S
C1161 C1167 1.390 . S
C1162 H1153 0.930 . S
C1162 C1160 1.384 . S
C1162 C1163 1.372 . S
C1163 C1162 1.372 . S
C1163 C1164 1.400 . S
C1163 C1168 1.490 . S
C1164 H1154 0.930 . S
C1164 C1163 1.400 . S
C1164 C1167 1.386 . S
H1165 C1181 0.930 . S
H1166 C1182 0.931 . S
C1167 H1155 0.929 . S
C1167 C1161 1.390 . S
C1167 C1164 1.386 . S
C1168 C1163 1.490 . S
C1168 C1170 1.395 . S
C1168 C1171 1.403 . S
H1169 C1175 0.930 . S
C1170 H1156 0.930 . S
C1170 C1168 1.395 . S
C1170 C1173 1.403 . S
C1171 C1168 1.403 . S
C1171 C1172 1.524 . S
C1171 C1175 1.400 . S
C1172 H1157 0.960 . S
C1172 H1158 0.960 . S
C1172 H1159 0.960 . S
C1172 C1171 1.524 . S
C1173 C1170 1.403 . S
C1173 C1174 1.392 . S
C1173 C1177 1.495 . S
C1174 C1173 1.392 . S
C1174 C1175 1.385 . S
C1174 C1176 1.478 . S
C1175 H1169 0.930 . S
C1175 C1171 1.400 . S
C1175 C1174 1.385 . S
C1176 C1174 1.478 . S
C1176 C1178 1.381 . S
C1176 C1182 1.383 . S
C1177 C1173 1.495 . S
C1177 H1183 0.959 . S
C1177 H1184 0.961 . S
C1177 H1185 0.960 . S
C1178 C1176 1.381 . S
C1178 C1179 1.394 . S
C1178 H1186 0.930 . S
C1179 C1178 1.394 . S
C1179 C1180 1.383 . S
C1179 H1187 0.929 . S
C1180 C1179 1.383 . S
C1180 C1181 1.377 . S
C1181 H1165 0.930 . S
C1181 C1180 1.377 . S
C1181 C1182 1.379 . S
C1182 H1166 0.931 . S
C1182 C1176 1.383 . S
C1182 C1181 1.379 . S
H1183 C1177 0.959 . S
H1184 C1177 0.961 . S
H1185 C1177 0.960 . S
H1186 C1178 0.930 . S
H1187 C1179 0.929 . S
H1188 C1196 0.929 . S
H1189 C1198 0.930 . S
H1190 C1200 0.930 . S
H1191 C1203 0.929 . S
H1192 C1206 0.930 . S
H1193 C1208 0.960 . S
H1194 C1208 0.960 . S
H1195 C1208 0.960 . S
C1196 H1188 0.929 . S
C1196 C1197 1.377 . S
C1196 C1198 1.384 . S
C1197 C1196 1.377 . S
C1197 C1203 1.390 . S
C1198 H1189 0.930 . S
C1198 C1196 1.384 . S
C1198 C1199 1.372 . S
C1199 C1198 1.372 . S
C1199 C1200 1.400 . S
C1199 C1204 1.490 . S
C1200 H1190 0.930 . S
C1200 C1199 1.400 . S
C1200 C1203 1.386 . S
H1201 C1217 0.930 . S
H1202 C1218 0.931 . S
C1203 H1191 0.929 . S
C1203 C1197 1.390 . S
C1203 C1200 1.386 . S
C1204 C1199 1.490 . S
C1204 C1206 1.395 . S
C1204 C1207 1.403 . S
H1205 C1211 0.930 . S
C1206 H1192 0.930 . S
C1206 C1204 1.395 . S
C1206 C1209 1.403 . S
C1207 C1204 1.403 . S
C1207 C1208 1.524 . S
C1207 C1211 1.400 . S
C1208 H1193 0.960 . S
C1208 H1194 0.960 . S
C1208 H1195 0.960 . S
C1208 C1207 1.524 . S
C1209 C1206 1.403 . S
C1209 C1210 1.392 . S
C1209 C1213 1.495 . S
C1210 C1209 1.392 . S
C1210 C1211 1.385 . S
C1210 C1212 1.478 . S
C1211 H1205 0.930 . S
C1211 C1207 1.400 . S
C1211 C1210 1.385 . S
C1212 C1210 1.478 . S
C1212 C1214 1.381 . S
C1212 C1218 1.383 . S
C1213 C1209 1.495 . S
C1213 H1219 0.959 . S
C1213 H1220 0.961 . S
C1213 H1221 0.960 . S
C1214 C1212 1.381 . S
C1214 C1215 1.394 . S
C1214 H1222 0.930 . S
C1215 C1214 1.394 . S
C1215 C1216 1.383 . S
C1215 H1223 0.929 . S
C1216 C1215 1.383 . S
C1216 C1217 1.377 . S
C1217 H1201 0.930 . S
C1217 C1216 1.377 . S
C1217 C1218 1.379 . S
C1218 H1202 0.931 . S
C1218 C1212 1.383 . S
C1218 C1217 1.379 . S
H1219 C1213 0.959 . S
H1220 C1213 0.961 . S
H1221 C1213 0.960 . S
H1222 C1214 0.930 . S
H1223 C1215 0.929 . S
H1224 C1232 0.929 . S
H1225 C1234 0.930 . S
H1226 C1236 0.930 . S
H1227 C1239 0.929 . S
H1228 C1242 0.930 . S
H1229 C1244 0.960 . S
H1230 C1244 0.960 . S
H1231 C1244 0.960 . S
C1232 H1224 0.929 . S
C1232 C1233 1.377 . S
C1232 C1234 1.384 . S
C1233 C1232 1.377 . S
C1233 C1239 1.390 . S
C1234 H1225 0.930 . S
C1234 C1232 1.384 . S
C1234 C1235 1.372 . S
C1235 C1234 1.372 . S
C1235 C1236 1.400 . S
C1235 C1240 1.490 . S
C1236 H1226 0.930 . S
C1236 C1235 1.400 . S
C1236 C1239 1.386 . S
H1237 C1253 0.930 . S
H1238 C1254 0.931 . S
C1239 H1227 0.929 . S
C1239 C1233 1.390 . S
C1239 C1236 1.386 . S
C1240 C1235 1.490 . S
C1240 C1242 1.395 . S
C1240 C1243 1.403 . S
H1241 C1247 0.930 . S
C1242 H1228 0.930 . S
C1242 C1240 1.395 . S
C1242 C1245 1.403 . S
C1243 C1240 1.403 . S
C1243 C1244 1.524 . S
C1243 C1247 1.400 . S
C1244 H1229 0.960 . S
C1244 H1230 0.960 . S
C1244 H1231 0.960 . S
C1244 C1243 1.524 . S
C1245 C1242 1.403 . S
C1245 C1246 1.392 . S
C1245 C1249 1.495 . S
C1246 C1245 1.392 . S
C1246 C1247 1.385 . S
C1246 C1248 1.478 . S
C1247 H1241 0.930 . S
C1247 C1243 1.400 . S
C1247 C1246 1.385 . S
C1248 C1246 1.478 . S
C1248 C1250 1.381 . S
C1248 C1254 1.383 . S
C1249 C1245 1.495 . S
C1249 H1255 0.959 . S
C1249 H1256 0.961 . S
C1249 H1257 0.960 . S
C1250 C1248 1.381 . S
C1250 C1251 1.394 . S
C1250 H1258 0.930 . S
C1251 C1250 1.394 . S
C1251 C1252 1.383 . S
C1251 H1259 0.929 . S
C1252 C1251 1.383 . S
C1252 C1253 1.377 . S
C1253 H1237 0.930 . S
C1253 C1252 1.377 . S
C1253 C1254 1.379 . S
C1254 H1238 0.931 . S
C1254 C1248 1.383 . S
C1254 C1253 1.379 . S
H1255 C1249 0.959 . S
H1256 C1249 0.961 . S
H1257 C1249 0.960 . S
H1258 C1250 0.930 . S
H1259 C1251 0.929 . S
H1260 C1268 0.929 . S
H1261 C1270 0.930 . S
H1262 C1272 0.930 . S
H1263 C1275 0.929 . S
H1264 C1278 0.930 . S
H1265 C1280 0.960 . S
H1266 C1280 0.960 . S
H1267 C1280 0.960 . S
C1268 H1260 0.929 . S
C1268 C1269 1.377 . S
C1268 C1270 1.384 . S
C1269 C1268 1.377 . S
C1269 C1275 1.390 . S
C1270 H1261 0.930 . S
C1270 C1268 1.384 . S
C1270 C1271 1.372 . S
C1271 C1270 1.372 . S
C1271 C1272 1.400 . S
C1271 C1276 1.490 . S
C1272 H1262 0.930 . S
C1272 C1271 1.400 . S
C1272 C1275 1.386 . S
H1273 C1289 0.930 . S
H1274 C1290 0.931 . S
C1275 H1263 0.929 . S
C1275 C1269 1.390 . S
C1275 C1272 1.386 . S
C1276 C1271 1.490 . S
C1276 C1278 1.395 . S
C1276 C1279 1.403 . S
H1277 C1283 0.930 . S
C1278 H1264 0.930 . S
C1278 C1276 1.395 . S
C1278 C1281 1.403 . S
C1279 C1276 1.403 . S
C1279 C1280 1.524 . S
C1279 C1283 1.400 . S
C1280 H1265 0.960 . S
C1280 H1266 0.960 . S
C1280 H1267 0.960 . S
C1280 C1279 1.524 . S
C1281 C1278 1.403 . S
C1281 C1282 1.392 . S
C1281 C1285 1.495 . S
C1282 C1281 1.392 . S
C1282 C1283 1.385 . S
C1282 C1284 1.478 . S
C1283 H1277 0.930 . S
C1283 C1279 1.400 . S
C1283 C1282 1.385 . S
C1284 C1282 1.478 . S
C1284 C1286 1.381 . S
C1284 C1290 1.383 . S
C1285 C1281 1.495 . S
C1285 H1291 0.959 . S
C1285 H1292 0.961 . S
C1285 H1293 0.960 . S
C1286 C1284 1.381 . S
C1286 C1287 1.394 . S
C1286 H1294 0.930 . S
C1287 C1286 1.394 . S
C1287 C1288 1.383 . S
C1287 H1295 0.929 . S
C1288 C1287 1.383 . S
C1288 C1289 1.377 . S
C1289 H1273 0.930 . S
C1289 C1288 1.377 . S
C1289 C1290 1.379 . S
C1290 H1274 0.931 . S
C1290 C1284 1.383 . S
C1290 C1289 1.379 . S
H1291 C1285 0.959 . S
H1292 C1285 0.961 . S
H1293 C1285 0.960 . S
H1294 C1286 0.930 . S
H1295 C1287 0.929 . S
H1296 C1304 0.929 . S
H1297 C1306 0.930 . S
H1298 C1308 0.930 . S
H1299 C1311 0.929 . S
H1300 C1314 0.930 . S
H1301 C1316 0.960 . S
H1302 C1316 0.960 . S
H1303 C1316 0.960 . S
C1304 H1296 0.929 . S
C1304 C1305 1.377 . S
C1304 C1306 1.384 . S
C1305 C1304 1.377 . S
C1305 C1311 1.390 . S
C1306 H1297 0.930 . S
C1306 C1304 1.384 . S
C1306 C1307 1.372 . S
C1307 C1306 1.372 . S
C1307 C1308 1.400 . S
C1307 C1312 1.490 . S
C1308 H1298 0.930 . S
C1308 C1307 1.400 . S
C1308 C1311 1.386 . S
H1309 C1325 0.930 . S
H1310 C1326 0.931 . S
C1311 H1299 0.929 . S
C1311 C1305 1.390 . S
C1311 C1308 1.386 . S
C1312 C1307 1.490 . S
C1312 C1314 1.395 . S
C1312 C1315 1.403 . S
H1313 C1319 0.930 . S
C1314 H1300 0.930 . S
C1314 C1312 1.395 . S
C1314 C1317 1.403 . S
C1315 C1312 1.403 . S
C1315 C1316 1.524 . S
C1315 C1319 1.400 . S
C1316 H1301 0.960 . S
C1316 H1302 0.960 . S
C1316 H1303 0.960 . S
C1316 C1315 1.524 . S
C1317 C1314 1.403 . S
C1317 C1318 1.392 . S
C1317 C1321 1.495 . S
C1318 C1317 1.392 . S
C1318 C1319 1.385 . S
C1318 C1320 1.478 . S
C1319 H1313 0.930 . S
C1319 C1315 1.400 . S
C1319 C1318 1.385 . S
C1320 C1318 1.478 . S
C1320 C1322 1.381 . S
C1320 C1326 1.383 . S
C1321 C1317 1.495 . S
C1321 H1327 0.959 . S
C1321 H1328 0.961 . S
C1321 H1329 0.960 . S
C1322 C1320 1.381 . S
C1322 C1323 1.394 . S
C1322 H1330 0.930 . S
C1323 C1322 1.394 . S
C1323 C1324 1.383 . S
C1323 H1331 0.929 . S
C1324 C1323 1.383 . S
C1324 C1325 1.377 . S
C1325 H1309 0.930 . S
C1325 C1324 1.377 . S
C1325 C1326 1.379 . S
C1326 H1310 0.931 . S
C1326 C1320 1.383 . S
C1326 C1325 1.379 . S
H1327 C1321 0.959 . S
H1328 C1321 0.961 . S
H1329 C1321 0.960 . S
H1330 C1322 0.930 . S
H1331 C1323 0.929 . S
H1332 C1340 0.929 . S
H1333 C1342 0.930 . S
H1334 C1344 0.930 . S
H1335 C1347 0.929 . S
H1336 C1350 0.930 . S
H1337 C1352 0.960 . S
H1338 C1352 0.960 . S
H1339 C1352 0.960 . S
C1340 H1332 0.929 . S
C1340 C1341 1.377 . S
C1340 C1342 1.384 . S
C1341 C1340 1.377 . S
C1341 C1347 1.390 . S
C1342 H1333 0.930 . S
C1342 C1340 1.384 . S
C1342 C1343 1.372 . S
C1343 C1342 1.372 . S
C1343 C1344 1.400 . S
C1343 C1348 1.490 . S
C1344 H1334 0.930 . S
C1344 C1343 1.400 . S
C1344 C1347 1.386 . S
H1345 C1361 0.930 . S
H1346 C1362 0.931 . S
C1347 H1335 0.929 . S
C1347 C1341 1.390 . S
C1347 C1344 1.386 . S
C1348 C1343 1.490 . S
C1348 C1350 1.395 . S
C1348 C1351 1.403 . S
H1349 C1355 0.930 . S
C1350 H1336 0.930 . S
C1350 C1348 1.395 . S
C1350 C1353 1.403 . S
C1351 C1348 1.403 . S
C1351 C1352 1.524 . S
C1351 C1355 1.400 . S
C1352 H1337 0.960 . S
C1352 H1338 0.960 . S
C1352 H1339 0.960 . S
C1352 C1351 1.524 . S
C1353 C1350 1.403 . S
C1353 C1354 1.392 . S
C1353 C1357 1.495 . S
C1354 C1353 1.392 . S
C1354 C1355 1.385 . S
C1354 C1356 1.478 . S
C1355 H1349 0.930 . S
C1355 C1351 1.400 . S
C1355 C1354 1.385 . S
C1356 C1354 1.478 . S
C1356 C1358 1.381 . S
C1356 C1362 1.383 . S
C1357 C1353 1.495 . S
C1357 H1363 0.959 . S
C1357 H1364 0.961 . S
C1357 H1365 0.960 . S
C1358 C1356 1.381 . S
C1358 C1359 1.394 . S
C1358 H1366 0.930 . S
C1359 C1358 1.394 . S
C1359 C1360 1.383 . S
C1359 H1367 0.929 . S
C1360 C1359 1.383 . S
C1360 C1361 1.377 . S
C1361 H1345 0.930 . S
C1361 C1360 1.377 . S
C1361 C1362 1.379 . S
C1362 H1346 0.931 . S
C1362 C1356 1.383 . S
C1362 C1361 1.379 . S
H1363 C1357 0.959 . S
H1364 C1357 0.961 . S
H1365 C1357 0.960 . S
H1366 C1358 0.930 . S
H1367 C1359 0.929 . S
H1368 C1376 0.929 . S
H1369 C1378 0.930 . S
H1370 C1380 0.930 . S
H1371 C1383 0.929 . S
H1372 C1386 0.930 . S
H1373 C1388 0.960 . S
H1374 C1388 0.960 . S
H1375 C1388 0.960 . S
C1376 H1368 0.929 . S
C1376 C1377 1.377 . S
C1376 C1378 1.384 . S
C1377 C1376 1.377 . S
C1377 C1383 1.390 . S
C1378 H1369 0.930 . S
C1378 C1376 1.384 . S
C1378 C1379 1.372 . S
C1379 C1378 1.372 . S
C1379 C1380 1.400 . S
C1379 C1384 1.490 . S
C1380 H1370 0.930 . S
C1380 C1379 1.400 . S
C1380 C1383 1.386 . S
H1381 C1397 0.930 . S
H1382 C1398 0.931 . S
C1383 H1371 0.929 . S
C1383 C1377 1.390 . S
C1383 C1380 1.386 . S
C1384 C1379 1.490 . S
C1384 C1386 1.395 . S
C1384 C1387 1.403 . S
H1385 C1391 0.930 . S
C1386 H1372 0.930 . S
C1386 C1384 1.395 . S
C1386 C1389 1.403 . S
C1387 C1384 1.403 . S
C1387 C1388 1.524 . S
C1387 C1391 1.400 . S
C1388 H1373 0.960 . S
C1388 H1374 0.960 . S
C1388 H1375 0.960 . S
C1388 C1387 1.524 . S
C1389 C1386 1.403 . S
C1389 C1390 1.392 . S
C1389 C1393 1.495 . S
C1390 C1389 1.392 . S
C1390 C1391 1.385 . S
C1390 C1392 1.478 . S
C1391 H1385 0.930 . S
C1391 C1387 1.400 . S
C1391 C1390 1.385 . S
C1392 C1390 1.478 . S
C1392 C1394 1.381 . S
C1392 C1398 1.383 . S
C1393 C1389 1.495 . S
C1393 H1399 0.959 . S
C1393 H1400 0.961 . S
C1393 H1401 0.960 . S
C1394 C1392 1.381 . S
C1394 C1395 1.394 . S
C1394 H1402 0.930 . S
C1395 C1394 1.394 . S
C1395 C1396 1.383 . S
C1395 H1403 0.929 . S
C1396 C1395 1.383 . S
C1396 C1397 1.377 . S
C1397 H1381 0.930 . S
C1397 C1396 1.377 . S
C1397 C1398 1.379 . S
C1398 H1382 0.931 . S
C1398 C1392 1.383 . S
C1398 C1397 1.379 . S
H1399 C1393 0.959 . S
H1400 C1393 0.961 . S
H1401 C1393 0.960 . S
H1402 C1394 0.930 . S
H1403 C1395 0.929 . S
H1404 C1412 0.929 . S
H1405 C1414 0.930 . S
H1406 C1416 0.930 . S
H1407 C1419 0.929 . S
H1408 C1422 0.930 . S
H1409 C1424 0.960 . S
H1410 C1424 0.960 . S
H1411 C1424 0.960 . S
C1412 H1404 0.929 . S
C1412 C1413 1.377 . S
C1412 C1414 1.384 . S
C1413 C1412 1.377 . S
C1413 C1419 1.390 . S
C1414 H1405 0.930 . S
C1414 C1412 1.384 . S
C1414 C1415 1.372 . S
C1415 C1414 1.372 . S
C1415 C1416 1.400 . S
C1415 C1420 1.490 . S
C1416 H1406 0.930 . S
C1416 C1415 1.400 . S
C1416 C1419 1.386 . S
H1417 C1433 0.930 . S
H1418 C1434 0.931 . S
C1419 H1407 0.929 . S
C1419 C1413 1.390 . S
C1419 C1416 1.386 . S
C1420 C1415 1.490 . S
C1420 C1422 1.395 . S
C1420 C1423 1.403 . S
H1421 C1427 0.930 . S
C1422 H1408 0.930 . S
C1422 C1420 1.395 . S
C1422 C1425 1.403 . S
C1423 C1420 1.403 . S
C1423 C1424 1.524 . S
C1423 C1427 1.400 . S
C1424 H1409 0.960 . S
C1424 H1410 0.960 . S
C1424 H1411 0.960 . S
C1424 C1423 1.524 . S
C1425 C1422 1.403 . S
C1425 C1426 1.392 . S
C1425 C1429 1.495 . S
C1426 C1425 1.392 . S
C1426 C1427 1.385 . S
C1426 C1428 1.478 . S
C1427 H1421 0.930 . S
C1427 C1423 1.400 . S
C1427 C1426 1.385 . S
C1428 C1426 1.478 . S
C1428 C1430 1.381 . S
C1428 C1434 1.383 . S
C1429 C1425 1.495 . S
C1429 H1435 0.959 . S
C1429 H1436 0.961 . S
C1429 H1437 0.960 . S
C1430 C1428 1.381 . S
C1430 C1431 1.394 . S
C1430 H1438 0.930 . S
C1431 C1430 1.394 . S
C1431 C1432 1.383 . S
C1431 H1439 0.929 . S
C1432 C1431 1.383 . S
C1432 C1433 1.377 . S
C1433 H1417 0.930 . S
C1433 C1432 1.377 . S
C1433 C1434 1.379 . S
C1434 H1418 0.931 . S
C1434 C1428 1.383 . S
C1434 C1433 1.379 . S
H1435 C1429 0.959 . S
H1436 C1429 0.961 . S
H1437 C1429 0.960 . S
H1438 C1430 0.930 . S
H1439 C1431 0.929 . S
H1440 C1448 0.929 . S
H1441 C1450 0.930 . S
H1442 C1452 0.930 . S
H1443 C1455 0.929 . S
H1444 C1458 0.930 . S
H1445 C1460 0.960 . S
H1446 C1460 0.960 . S
H1447 C1460 0.960 . S
C1448 H1440 0.929 . S
C1448 C1449 1.377 . S
C1448 C1450 1.384 . S
C1449 C1448 1.377 . S
C1449 C1455 1.390 . S
C1450 H1441 0.930 . S
C1450 C1448 1.384 . S
C1450 C1451 1.372 . S
C1451 C1450 1.372 . S
C1451 C1452 1.400 . S
C1451 C1456 1.490 . S
C1452 H1442 0.930 . S
C1452 C1451 1.400 . S
C1452 C1455 1.386 . S
H1453 C1469 0.930 . S
H1454 C1470 0.931 . S
C1455 H1443 0.929 . S
C1455 C1449 1.390 . S
C1455 C1452 1.386 . S
C1456 C1451 1.490 . S
C1456 C1458 1.395 . S
C1456 C1459 1.403 . S
H1457 C1463 0.930 . S
C1458 H1444 0.930 . S
C1458 C1456 1.395 . S
C1458 C1461 1.403 . S
C1459 C1456 1.403 . S
C1459 C1460 1.524 . S
C1459 C1463 1.400 . S
C1460 H1445 0.960 . S
C1460 H1446 0.960 . S
C1460 H1447 0.960 . S
C1460 C1459 1.524 . S
C1461 C1458 1.403 . S
C1461 C1462 1.392 . S
C1461 C1465 1.495 . S
C1462 C1461 1.392 . S
C1462 C1463 1.385 . S
C1462 C1464 1.478 . S
C1463 H1457 0.930 . S
C1463 C1459 1.400 . S
C1463 C1462 1.385 . S
C1464 C1462 1.478 . S
C1464 C1466 1.381 . S
C1464 C1470 1.383 . S
C1465 C1461 1.495 . S
C1465 H1471 0.959 . S
C1465 H1472 0.961 . S
C1465 H1473 0.960 . S
C1466 C1464 1.381 . S
C1466 C1467 1.394 . S
C1466 H1474 0.930 . S
C1467 C1466 1.394 . S
C1467 C1468 1.383 . S
C1467 H1475 0.929 . S
C1468 C1467 1.383 . S
C1468 C1469 1.377 . S
C1469 H1453 0.930 . S
C1469 C1468 1.377 . S
C1469 C1470 1.379 . S
C1470 H1454 0.931 . S
C1470 C1464 1.383 . S
C1470 C1469 1.379 . S
H1471 C1465 0.959 . S
H1472 C1465 0.961 . S
H1473 C1465 0.960 . S
H1474 C1466 0.930 . S
H1475 C1467 0.929 . S
H1476 C1484 0.929 . S
H1477 C1486 0.930 . S
H1478 C1488 0.930 . S
H1479 C1491 0.929 . S
H1480 C1494 0.930 . S
H1481 C1496 0.960 . S
H1482 C1496 0.960 . S
H1483 C1496 0.960 . S
C1484 H1476 0.929 . S
C1484 C1485 1.377 . S
C1484 C1486 1.384 . S
C1485 C1484 1.377 . S
C1485 C1491 1.390 . S
C1486 H1477 0.930 . S
C1486 C1484 1.384 . S
C1486 C1487 1.372 . S
C1487 C1486 1.372 . S
C1487 C1488 1.400 . S
C1487 C1492 1.490 . S
C1488 H1478 0.930 . S
C1488 C1487 1.400 . S
C1488 C1491 1.386 . S
H1489 C1505 0.930 . S
H1490 C1506 0.931 . S
C1491 H1479 0.929 . S
C1491 C1485 1.390 . S
C1491 C1488 1.386 . S
C1492 C1487 1.490 . S
C1492 C1494 1.395 . S
C1492 C1495 1.403 . S
H1493 C1499 0.930 . S
C1494 H1480 0.930 . S
C1494 C1492 1.395 . S
C1494 C1497 1.403 . S
C1495 C1492 1.403 . S
C1495 C1496 1.524 . S
C1495 C1499 1.400 . S
C1496 H1481 0.960 . S
C1496 H1482 0.960 . S
C1496 H1483 0.960 . S
C1496 C1495 1.524 . S
C1497 C1494 1.403 . S
C1497 C1498 1.392 . S
C1497 C1501 1.495 . S
C1498 C1497 1.392 . S
C1498 C1499 1.385 . S
C1498 C1500 1.478 . S
C1499 H1493 0.930 . S
C1499 C1495 1.400 . S
C1499 C1498 1.385 . S
C1500 C1498 1.478 . S
C1500 C1502 1.381 . S
C1500 C1506 1.383 . S
C1501 C1497 1.495 . S
C1501 H1507 0.959 . S
C1501 H1508 0.961 . S
C1501 H1509 0.960 . S
C1502 C1500 1.381 . S
C1502 C1503 1.394 . S
C1502 H1510 0.930 . S
C1503 C1502 1.394 . S
C1503 C1504 1.383 . S
C1503 H1511 0.929 . S
C1504 C1503 1.383 . S
C1504 C1505 1.377 . S
C1505 H1489 0.930 . S
C1505 C1504 1.377 . S
C1505 C1506 1.379 . S
C1506 H1490 0.931 . S
C1506 C1500 1.383 . S
C1506 C1505 1.379 . S
H1507 C1501 0.959 . S
H1508 C1501 0.961 . S
H1509 C1501 0.960 . S
H1510 C1502 0.930 . S
H1511 C1503 0.929 . S
H1512 C1520 0.929 . S
H1513 C1522 0.930 . S
H1514 C1524 0.930 . S
H1515 C1527 0.929 . S
H1516 C1530 0.930 . S
H1517 C1532 0.960 . S
H1518 C1532 0.960 . S
H1519 C1532 0.960 . S
C1520 H1512 0.929 . S
C1520 C1521 1.377 . S
C1520 C1522 1.384 . S
C1521 C1520 1.377 . S
C1521 C1527 1.390 . S
C1522 H1513 0.930 . S
C1522 C1520 1.384 . S
C1522 C1523 1.372 . S
C1523 C1522 1.372 . S
C1523 C1524 1.400 . S
C1523 C1528 1.490 . S
C1524 H1514 0.930 . S
C1524 C1523 1.400 . S
C1524 C1527 1.386 . S
H1525 C1541 0.930 . S
H1526 C1542 0.931 . S
C1527 H1515 0.929 . S
C1527 C1521 1.390 . S
C1527 C1524 1.386 . S
C1528 C1523 1.490 . S
C1528 C1530 1.395 . S
C1528 C1531 1.403 . S
H1529 C1535 0.930 . S
C1530 H1516 0.930 . S
C1530 C1528 1.395 . S
C1530 C1533 1.403 . S
C1531 C1528 1.403 . S
C1531 C1532 1.524 . S
C1531 C1535 1.400 . S
C1532 H1517 0.960 . S
C1532 H1518 0.960 . S
C1532 H1519 0.960 . S
C1532 C1531 1.524 . S
C1533 C1530 1.403 . S
C1533 C1534 1.392 . S
C1533 C1537 1.495 . S
C1534 C1533 1.392 . S
C1534 C1535 1.385 . S
C1534 C1536 1.478 . S
C1535 H1529 0.930 . S
C1535 C1531 1.400 . S
C1535 C1534 1.385 . S
C1536 C1534 1.478 . S
C1536 C1538 1.381 . S
C1536 C1542 1.383 . S
C1537 C1533 1.495 . S
C1537 H1543 0.959 . S
C1537 H1544 0.961 . S
C1537 H1545 0.960 . S
C1538 C1536 1.381 . S
C1538 C1539 1.394 . S
C1538 H1546 0.930 . S
C1539 C1538 1.394 . S
C1539 C1540 1.383 . S
C1539 H1547 0.929 . S
C1540 C1539 1.383 . S
C1540 C1541 1.377 . S
C1541 H1525 0.930 . S
C1541 C1540 1.377 . S
C1541 C1542 1.379 . S
C1542 H1526 0.931 . S
C1542 C1536 1.383 . S
C1542 C1541 1.379 . S
H1543 C1537 0.959 . S
H1544 C1537 0.961 . S
H1545 C1537 0.960 . S
H1546 C1538 0.930 . S
H1547 C1539 0.929 . S
H1548 C1556 0.929 . S
H1549 C1558 0.930 . S
H1550 C1560 0.930 . S
H1551 C1563 0.929 . S
H1552 C1566 0.930 . S
H1553 C1568 0.960 . S
H1554 C1568 0.960 . S
H1555 C1568 0.960 . S
C1556 H1548 0.929 . S
C1556 C1557 1.377 . S
C1556 C1558 1.384 . S
C1557 C1556 1.377 . S
C1557 C1563 1.390 . S
C1558 H1549 0.930 . S
C1558 C1556 1.384 . S
C1558 C1559 1.372 . S
C1559 C1558 1.372 . S
C1559 C1560 1.400 . S
C1559 C1564 1.490 . S
C1560 H1550 0.930 . S
C1560 C1559 1.400 . S
C1560 C1563 1.386 . S
H1561 C1577 0.930 . S
H1562 C1578 0.931 . S
C1563 H1551 0.929 . S
C1563 C1557 1.390 . S
C1563 C1560 1.386 . S
C1564 C1559 1.490 . S
C1564 C1566 1.395 . S
C1564 C1567 1.403 . S
H1565 C1571 0.930 . S
C1566 H1552 0.930 . S
C1566 C1564 1.395 . S
C1566 C1569 1.403 . S
C1567 C1564 1.403 . S
C1567 C1568 1.524 . S
C1567 C1571 1.400 . S
C1568 H1553 0.960 . S
C1568 H1554 0.960 . S
C1568 H1555 0.960 . S
C1568 C1567 1.524 . S
C1569 C1566 1.403 . S
C1569 C1570 1.392 . S
C1569 C1573 1.495 . S
C1570 C1569 1.392 . S
C1570 C1571 1.385 . S
C1570 C1572 1.478 . S
C1571 H1565 0.930 . S
C1571 C1567 1.400 . S
C1571 C1570 1.385 . S
C1572 C1570 1.478 . S
C1572 C1574 1.381 . S
C1572 C1578 1.383 . S
C1573 C1569 1.495 . S
C1573 H1579 0.959 . S
C1573 H1580 0.961 . S
C1573 H1581 0.960 . S
C1574 C1572 1.381 . S
C1574 C1575 1.394 . S
C1574 H1582 0.930 . S
C1575 C1574 1.394 . S
C1575 C1576 1.383 . S
C1575 H1583 0.929 . S
C1576 C1575 1.383 . S
C1576 C1577 1.377 . S
C1577 H1561 0.930 . S
C1577 C1576 1.377 . S
C1577 C1578 1.379 . S
C1578 H1562 0.931 . S
C1578 C1572 1.383 . S
C1578 C1577 1.379 . S
H1579 C1573 0.959 . S
H1580 C1573 0.961 . S
H1581 C1573 0.960 . S
H1582 C1574 0.930 . S
H1583 C1575 0.929 . S
H1584 C1592 0.929 . S
H1585 C1594 0.930 . S
H1586 C1596 0.930 . S
H1587 C1599 0.929 . S
H1588 C1602 0.930 . S
H1589 C1604 0.960 . S
H1590 C1604 0.960 . S
H1591 C1604 0.960 . S
C1592 H1584 0.929 . S
C1592 C1593 1.377 . S
C1592 C1594 1.384 . S
C1593 C1592 1.377 . S
C1593 C1599 1.390 . S
C1594 H1585 0.930 . S
C1594 C1592 1.384 . S
C1594 C1595 1.372 . S
C1595 C1594 1.372 . S
C1595 C1596 1.400 . S
C1595 C1600 1.490 . S
C1596 H1586 0.930 . S
C1596 C1595 1.400 . S
C1596 C1599 1.386 . S
H1597 C1613 0.930 . S
H1598 C1614 0.931 . S
C1599 H1587 0.929 . S
C1599 C1593 1.390 . S
C1599 C1596 1.386 . S
C1600 C1595 1.490 . S
C1600 C1602 1.395 . S
C1600 C1603 1.403 . S
H1601 C1607 0.930 . S
C1602 H1588 0.930 . S
C1602 C1600 1.395 . S
C1602 C1605 1.403 . S
C1603 C1600 1.403 . S
C1603 C1604 1.524 . S
C1603 C1607 1.400 . S
C1604 H1589 0.960 . S
C1604 H1590 0.960 . S
C1604 H1591 0.960 . S
C1604 C1603 1.524 . S
C1605 C1602 1.403 . S
C1605 C1606 1.392 . S
C1605 C1609 1.495 . S
C1606 C1605 1.392 . S
C1606 C1607 1.385 . S
C1606 C1608 1.478 . S
C1607 H1601 0.930 . S
C1607 C1603 1.400 . S
C1607 C1606 1.385 . S
C1608 C1606 1.478 . S
C1608 C1610 1.381 . S
C1608 C1614 1.383 . S
C1609 C1605 1.495 . S
C1609 H1615 0.959 . S
C1609 H1616 0.961 . S
C1609 H1617 0.960 . S
C1610 C1608 1.381 . S
C1610 C1611 1.394 . S
C1610 H1618 0.930 . S
C1611 C1610 1.394 . S
C1611 C1612 1.383 . S
C1611 H1619 0.929 . S
C1612 C1611 1.383 . S
C1612 C1613 1.377 . S
C1613 H1597 0.930 . S
C1613 C1612 1.377 . S
C1613 C1614 1.379 . S
C1614 H1598 0.931 . S
C1614 C1608 1.383 . S
C1614 C1613 1.379 . S
H1615 C1609 0.959 . S
H1616 C1609 0.961 . S
H1617 C1609 0.960 . S
H1618 C1610 0.930 . S
H1619 C1611 0.929 . S
H1620 C1628 0.929 . S
H1621 C1630 0.930 . S
H1622 C1632 0.930 . S
H1623 C1635 0.929 . S
H1624 C1638 0.930 . S
H1625 C1640 0.960 . S
H1626 C1640 0.960 . S
H1627 C1640 0.960 . S
C1628 H1620 0.929 . S
C1628 C1629 1.377 . S
C1628 C1630 1.384 . S
C1629 C1628 1.377 . S
C1629 C1635 1.390 . S
C1630 H1621 0.930 . S
C1630 C1628 1.384 . S
C1630 C1631 1.372 . S
C1631 C1630 1.372 . S
C1631 C1632 1.400 . S
C1631 C1636 1.490 . S
C1632 H1622 0.930 . S
C1632 C1631 1.400 . S
C1632 C1635 1.386 . S
H1633 C1649 0.930 . S
H1634 C1650 0.931 . S
C1635 H1623 0.929 . S
C1635 C1629 1.390 . S
C1635 C1632 1.386 . S
C1636 C1631 1.490 . S
C1636 C1638 1.395 . S
C1636 C1639 1.403 . S
H1637 C1643 0.930 . S
C1638 H1624 0.930 . S
C1638 C1636 1.395 . S
C1638 C1641 1.403 . S
C1639 C1636 1.403 . S
C1639 C1640 1.524 . S
C1639 C1643 1.400 . S
C1640 H1625 0.960 . S
C1640 H1626 0.960 . S
C1640 H1627 0.960 . S
C1640 C1639 1.524 . S
C1641 C1638 1.403 . S
C1641 C1642 1.392 . S
C1641 C1645 1.495 . S
C1642 C1641 1.392 . S
C1642 C1643 1.385 . S
C1642 C1644 1.478 . S
C1643 H1637 0.930 . S
C1643 C1639 1.400 . S
C1643 C1642 1.385 . S
C1644 C1642 1.478 . S
C1644 C1646 1.381 . S
C1644 C1650 1.383 . S
C1645 C1641 1.495 . S
C1645 H1651 0.959 . S
C1645 H1652 0.961 . S
C1645 H1653 0.960 . S
C1646 C1644 1.381 . S
C1646 C1647 1.394 . S
C1646 H1654 0.930 . S
C1647 C1646 1.394 . S
C1647 C1648 1.383 . S
C1647 H1655 0.929 . S
C1648 C1647 1.383 . S
C1648 C1649 1.377 . S
C1649 H1633 0.930 . S
C1649 C1648 1.377 . S
C1649 C1650 1.379 . S
C1650 H1634 0.931 . S
C1650 C1644 1.383 . S
C1650 C1649 1.379 . S
H1651 C1645 0.959 . S
H1652 C1645 0.961 . S
H1653 C1645 0.960 . S
H1654 C1646 0.930 . S
H1655 C1647 0.929 . S
H1656 C1664 0.929 . S
H1657 C1666 0.930 . S
H1658 C1668 0.930 . S
H1659 C1671 0.929 . S
H1660 C1674 0.930 . S
H1661 C1676 0.960 . S
H1662 C1676 0.960 . S
H1663 C1676 0.960 . S
C1664 H1656 0.929 . S
C1664 C1665 1.377 . S
C1664 C1666 1.384 . S
C1665 C1664 1.377 . S
C1665 C1671 1.390 . S
C1666 H1657 0.930 . S
C1666 C1664 1.384 . S
C1666 C1667 1.372 . S
C1667 C1666 1.372 . S
C1667 C1668 1.400 . S
C1667 C1672 1.490 . S
C1668 H1658 0.930 . S
C1668 C1667 1.400 . S
C1668 C1671 1.386 . S
H1669 C1685 0.930 . S
H1670 C1686 0.931 . S
C1671 H1659 0.929 . S
C1671 C1665 1.390 . S
C1671 C1668 1.386 . S
C1672 C1667 1.490 . S
C1672 C1674 1.395 . S
C1672 C1675 1.403 . S
H1673 C1679 0.930 . S
C1674 H1660 0.930 . S
C1674 C1672 1.395 . S
C1674 C1677 1.403 . S
C1675 C1672 1.403 . S
C1675 C1676 1.524 . S
C1675 C1679 1.400 . S
C1676 H1661 0.960 . S
C1676 H1662 0.960 . S
C1676 H1663 0.960 . S
C1676 C1675 1.524 . S
C1677 C1674 1.403 . S
C1677 C1678 1.392 . S
C1677 C1681 1.495 . S
C1678 C1677 1.392 . S
C1678 C1679 1.385 . S
C1678 C1680 1.478 . S
C1679 H1673 0.930 . S
C1679 C1675 1.400 . S
C1679 C1678 1.385 . S
C1680 C1678 1.478 . S
C1680 C1682 1.381 . S
C1680 C1686 1.383 . S
C1681 C1677 1.495 . S
C1681 H1687 0.959 . S
C1681 H1688 0.961 . S
C1681 H1689 0.960 . S
C1682 C1680 1.381 . S
C1682 C1683 1.394 . S
C1682 H1690 0.930 . S
C1683 C1682 1.394 . S
C1683 C1684 1.383 . S
C1683 H1691 0.929 . S
C1684 C1683 1.383 . S
C1684 C1685 1.377 . S
C1685 H1669 0.930 . S
C1685 C1684 1.377 . S
C1685 C1686 1.379 . S
C1686 H1670 0.931 . S
C1686 C1680 1.383 . S
C1686 C1685 1.379 . S
H1687 C1681 0.959 . S
H1688 C1681 0.961 . S
H1689 C1681 0.960 . S
H1690 C1682 0.930 . S
H1691 C1683 0.929 . S
H1692 C1700 0.929 . S
H1693 C1702 0.930 . S
H1694 C1704 0.930 . S
H1695 C1707 0.929 . S
H1696 C1710 0.930 . S
H1697 C1712 0.960 . S
H1698 C1712 0.960 . S
H1699 C1712 0.960 . S
C1700 H1692 0.929 . S
C1700 C1701 1.377 . S
C1700 C1702 1.384 . S
C1701 C1700 1.377 . S
C1701 C1707 1.390 . S
C1702 H1693 0.930 . S
C1702 C1700 1.384 . S
C1702 C1703 1.372 . S
C1703 C1702 1.372 . S
C1703 C1704 1.400 . S
C1703 C1708 1.490 . S
C1704 H1694 0.930 . S
C1704 C1703 1.400 . S
C1704 C1707 1.386 . S
H1705 C1721 0.930 . S
H1706 C1722 0.931 . S
C1707 H1695 0.929 . S
C1707 C1701 1.390 . S
C1707 C1704 1.386 . S
C1708 C1703 1.490 . S
C1708 C1710 1.395 . S
C1708 C1711 1.403 . S
H1709 C1715 0.930 . S
C1710 H1696 0.930 . S
C1710 C1708 1.395 . S
C1710 C1713 1.403 . S
C1711 C1708 1.403 . S
C1711 C1712 1.524 . S
C1711 C1715 1.400 . S
C1712 H1697 0.960 . S
C1712 H1698 0.960 . S
C1712 H1699 0.960 . S
C1712 C1711 1.524 . S
C1713 C1710 1.403 . S
C1713 C1714 1.392 . S
C1713 C1717 1.495 . S
C1714 C1713 1.392 . S
C1714 C1715 1.385 . S
C1714 C1716 1.478 . S
C1715 H1709 0.930 . S
C1715 C1711 1.400 . S
C1715 C1714 1.385 . S
C1716 C1714 1.478 . S
C1716 C1718 1.381 . S
C1716 C1722 1.383 . S
C1717 C1713 1.495 . S
C1717 H1723 0.959 . S
C1717 H1724 0.961 . S
C1717 H1725 0.960 . S
C1718 C1716 1.381 . S
C1718 C1719 1.394 . S
C1718 H1726 0.930 . S
C1719 C1718 1.394 . S
C1719 C1720 1.383 . S
C1719 H1727 0.929 . S
C1720 C1719 1.383 . S
C1720 C1721 1.377 . S
C1721 H1705 0.930 . S
C1721 C1720 1.377 . S
C1721 C1722 1.379 . S
C1722 H1706 0.931 . S
C1722 C1716 1.383 . S
C1722 C1721 1.379 . S
H1723 C1717 0.959 . S
H1724 C1717 0.961 . S
H1725 C1717 0.960 . S
H1726 C1718 0.930 . S
H1727 C1719 0.929 . S
H1728 C1736 0.929 . S
H1729 C1738 0.930 . S
H1730 C1740 0.930 . S
H1731 C1743 0.929 . S
H1732 C1746 0.930 . S
H1733 C1748 0.960 . S
H1734 C1748 0.960 . S
H1735 C1748 0.960 . S
C1736 H1728 0.929 . S
C1736 C1737 1.377 . S
C1736 C1738 1.384 . S
C1737 C1736 1.377 . S
C1737 C1743 1.390 . S
C1738 H1729 0.930 . S
C1738 C1736 1.384 . S
C1738 C1739 1.372 . S
C1739 C1738 1.372 . S
C1739 C1740 1.400 . S
C1739 C1744 1.490 . S
C1740 H1730 0.930 . S
C1740 C1739 1.400 . S
C1740 C1743 1.386 . S
H1741 C1757 0.930 . S
H1742 C1758 0.931 . S
C1743 H1731 0.929 . S
C1743 C1737 1.390 . S
C1743 C1740 1.386 . S
C1744 C1739 1.490 . S
C1744 C1746 1.395 . S
C1744 C1747 1.403 . S
H1745 C1751 0.930 . S
C1746 H1732 0.930 . S
C1746 C1744 1.395 . S
C1746 C1749 1.403 1_655 S
C1747 C1744 1.403 . S
C1747 C1748 1.524 . S
C1747 C1751 1.400 1_655 S
C1748 H1733 0.960 . S
C1748 H1734 0.960 . S
C1748 H1735 0.960 . S
C1748 C1747 1.524 . S
C1749 C1746 1.403 1_455 S
C1749 C1750 1.392 . S
C1749 C1753 1.495 . S
C1750 C1749 1.392 . S
C1750 C1751 1.385 . S
C1750 C1752 1.478 . S
C1751 H1745 0.930 . S
C1751 C1747 1.400 1_455 S
C1751 C1750 1.385 . S
C1752 C1750 1.478 . S
C1752 C1754 1.381 . S
C1752 C1758 1.383 . S
C1753 C1749 1.495 . S
C1753 H1759 0.959 . S
C1753 H1760 0.961 . S
C1753 H1761 0.960 . S
C1754 C1752 1.381 . S
C1754 C1755 1.394 . S
C1754 H1762 0.930 . S
C1755 C1754 1.394 . S
C1755 C1756 1.383 . S
C1755 H1763 0.929 . S
C1756 C1755 1.383 . S
C1756 C1757 1.377 . S
C1757 H1741 0.930 . S
C1757 C1756 1.377 . S
C1757 C1758 1.379 . S
C1758 H1742 0.931 . S
C1758 C1752 1.383 . S
C1758 C1757 1.379 . S
H1759 C1753 0.959 . S
H1760 C1753 0.961 . S
H1761 C1753 0.960 . S
H1762 C1754 0.930 . S
H1763 C1755 0.929 . S
H1764 C1772 0.929 . S
H1765 C1774 0.930 . S
H1766 C1776 0.930 . S
H1767 C1779 0.929 . S
H1768 C1782 0.930 . S
H1769 C1784 0.960 . S
H1770 C1784 0.960 . S
H1771 C1784 0.960 . S
C1772 H1764 0.929 . S
C1772 C1773 1.377 . S
C1772 C1774 1.384 . S
C1773 C1772 1.377 . S
C1773 C1779 1.390 . S
C1774 H1765 0.930 . S
C1774 C1772 1.384 . S
C1774 C1775 1.372 . S
C1775 C1774 1.372 . S
C1775 C1776 1.400 . S
C1775 C1780 1.490 . S
C1776 H1766 0.930 . S
C1776 C1775 1.400 . S
C1776 C1779 1.386 . S
H1777 C1793 0.930 . S
H1778 C1794 0.931 . S
C1779 H1767 0.929 . S
C1779 C1773 1.390 . S
C1779 C1776 1.386 . S
C1780 C1775 1.490 . S
C1780 C1782 1.395 . S
C1780 C1783 1.403 . S
H1781 C1787 0.930 . S
C1782 H1768 0.930 . S
C1782 C1780 1.395 . S
C1782 C1785 1.337 1_545 S
C1783 C1780 1.403 . S
C1783 C1784 1.524 . S
C1783 C1787 1.400 1_545 S
C1784 H1769 0.960 . S
C1784 H1770 0.960 . S
C1784 H1771 0.960 . S
C1784 C1783 1.524 . S
C1785 C1782 1.337 1_565 S
C1785 C1786 1.433 . S
C1785 C1789 1.521 . S
C1786 C1785 1.433 . S
C1786 C1787 1.385 . S
C1786 C1788 1.478 . S
C1787 H1781 0.930 . S
C1787 C1783 1.400 1_565 S
C1787 C1786 1.385 . S
C1788 C1786 1.478 . S
C1788 C1790 1.381 . S
C1788 C1794 1.383 . S
C1789 C1785 1.521 . S
C1789 H1795 0.959 1_565 S
C1789 H1796 0.961 . S
C1789 H1797 0.960 . S
C1790 C1788 1.381 . S
C1790 C1791 1.394 . S
C1790 H1798 0.930 . S
C1791 C1790 1.394 . S
C1791 C1792 1.383 . S
C1791 H1799 0.929 . S
C1792 C1791 1.383 . S
C1792 C1793 1.377 . S
C1793 H1777 0.930 . S
C1793 C1792 1.377 . S
C1793 C1794 1.379 . S
C1794 H1778 0.931 . S
C1794 C1788 1.383 . S
C1794 C1793 1.379 . S
H1795 C1789 0.959 1_545 S
H1796 C1789 0.961 . S
H1797 C1789 0.960 . S
H1798 C1790 0.930 . S
H1799 C1791 0.929 . S
H1800 C1808 0.929 . S
H1801 C1810 0.930 . S
H1802 C1812 0.930 . S
H1803 C1815 0.929 . S
H1804 C1818 0.930 . S
H1805 C1820 0.960 . S
H1806 C1820 0.960 . S
H1807 C1820 0.960 . S
C1808 H1800 0.929 . S
C1808 C1809 1.377 . S
C1808 C1810 1.384 . S
C1809 C1808 1.377 . S
C1809 C1815 1.390 . S
C1810 H1801 0.930 . S
C1810 C1808 1.384 . S
C1810 C1811 1.372 . S
C1811 C1810 1.372 . S
C1811 C1812 1.400 . S
C1811 C1816 1.490 . S
C1812 H1802 0.930 . S
C1812 C1811 1.400 . S
C1812 C1815 1.386 . S
H1813 C1829 0.930 . S
H1814 C1830 0.931 . S
C1815 H1803 0.929 . S
C1815 C1809 1.390 . S
C1815 C1812 1.386 . S
C1816 C1811 1.490 . S
C1816 C1818 1.395 . S
C1816 C1819 1.403 . S
H1817 C1823 0.930 . S
C1818 H1804 0.930 . S
C1818 C1816 1.395 . S
C1818 C1821 1.403 1_455 S
C1819 C1816 1.403 . S
C1819 C1820 1.524 . S
C1819 C1823 1.400 1_455 S
C1820 H1805 0.960 . S
C1820 H1806 0.960 . S
C1820 H1807 0.960 . S
C1820 C1819 1.524 . S
C1821 C1818 1.403 1_655 S
C1821 C1822 1.392 . S
C1821 C1825 1.495 . S
C1822 C1821 1.392 . S
C1822 C1823 1.385 . S
C1822 C1824 1.478 . S
C1823 H1817 0.930 . S
C1823 C1819 1.400 1_655 S
C1823 C1822 1.385 . S
C1824 C1822 1.478 . S
C1824 C1826 1.381 . S
C1824 C1830 1.383 . S
C1825 C1821 1.495 . S
C1825 H1831 0.959 . S
C1825 H1832 0.961 . S
C1825 H1833 0.960 . S
C1826 C1824 1.381 . S
C1826 C1827 1.394 . S
C1826 H1834 0.930 . S
C1827 C1826 1.394 . S
C1827 C1828 1.383 . S
C1827 H1835 0.929 . S
C1828 C1827 1.383 . S
C1828 C1829 1.377 . S
C1829 H1813 0.930 . S
C1829 C1828 1.377 . S
C1829 C1830 1.379 . S
C1830 H1814 0.931 . S
C1830 C1824 1.383 . S
C1830 C1829 1.379 . S
H1831 C1825 0.959 . S
H1832 C1825 0.961 . S
H1833 C1825 0.960 . S
H1834 C1826 0.930 . S
H1835 C1827 0.929 . S
H1836 C1844 0.929 . S
H1837 C1846 0.930 . S
H1838 C1848 0.930 . S
H1839 C1851 0.929 . S
H1840 C1854 0.930 . S
H1841 C1856 0.960 . S
H1842 C1856 0.960 . S
H1843 C1856 0.960 . S
C1844 H1836 0.929 . S
C1844 C1845 1.377 . S
C1844 C1846 1.384 . S
C1845 C1844 1.377 . S
C1845 C1851 1.390 . S
C1846 H1837 0.930 . S
C1846 C1844 1.384 . S
C1846 C1847 1.372 . S
C1847 C1846 1.372 . S
C1847 C1848 1.400 . S
C1847 C1852 1.490 . S
C1848 H1838 0.930 . S
C1848 C1847 1.400 . S
C1848 C1851 1.386 . S
H1849 C1865 0.930 . S
H1850 C1866 0.931 . S
C1851 H1839 0.929 . S
C1851 C1845 1.390 . S
C1851 C1848 1.386 . S
C1852 C1847 1.490 . S
C1852 C1854 1.395 . S
C1852 C1855 1.403 . S
H1853 C1859 0.930 . S
C1854 H1840 0.930 . S
C1854 C1852 1.395 . S
C1854 C1857 1.403 1_565 S
C1855 C1852 1.403 . S
C1855 C1856 1.524 . S
C1855 C1859 1.400 1_565 S
C1856 H1841 0.960 . S
C1856 H1842 0.960 . S
C1856 H1843 0.960 . S
C1856 C1855 1.524 . S
C1857 C1854 1.403 1_545 S
C1857 C1858 1.392 . S
C1857 C1861 1.495 . S
C1858 C1857 1.392 . S
C1858 C1859 1.385 . S
C1858 C1860 1.478 . S
C1859 H1853 0.930 . S
C1859 C1855 1.400 1_545 S
C1859 C1858 1.385 . S
C1860 C1858 1.478 . S
C1860 C1862 1.381 . S
C1860 C1866 1.383 . S
C1861 C1857 1.495 . S
C1861 H1867 0.951 1_545 S
C1861 H1868 0.961 . S
C1861 H1869 0.960 . S
C1862 C1860 1.381 . S
C1862 C1863 1.394 . S
C1862 H1870 0.930 . S
C1863 C1862 1.394 . S
C1863 C1864 1.383 . S
C1863 H1871 0.929 . S
C1864 C1863 1.383 . S
C1864 C1865 1.377 . S
C1865 H1849 0.930 . S
C1865 C1864 1.377 . S
C1865 C1866 1.379 . S
C1866 H1850 0.931 . S
C1866 C1860 1.383 . S
C1866 C1865 1.379 . S
H1867 C1861 0.951 1_565 S
H1868 C1861 0.961 . S
H1869 C1861 0.960 . S
H1870 C1862 0.930 . S
H1871 C1863 0.929 . S
H1872 C1880 0.929 . S
H1873 C1882 0.930 . S
H1874 C1884 0.930 . S
H1875 C1887 0.929 . S
H1876 C1890 0.930 . S
H1877 C1892 0.960 . S
H1878 C1892 0.960 . S
H1879 C1892 0.960 . S
C1880 H1872 0.929 . S
C1880 C1881 1.377 . S
C1880 C1882 1.384 . S
C1881 C1880 1.377 . S
C1881 C1887 1.390 . S
C1882 H1873 0.930 . S
C1882 C1880 1.384 . S
C1882 C1883 1.372 . S
C1883 C1882 1.372 . S
C1883 C1884 1.400 . S
C1883 C1888 1.490 . S
C1884 H1874 0.930 . S
C1884 C1883 1.400 . S
C1884 C1887 1.386 . S
H1885 C1901 0.930 . S
H1886 C1902 0.931 . S
C1887 H1875 0.929 . S
C1887 C1881 1.390 . S
C1887 C1884 1.386 . S
C1888 C1883 1.490 . S
C1888 C1890 1.395 . S
C1888 C1891 1.403 . S
H1889 C1895 0.930 . S
C1890 H1876 0.930 . S
C1890 C1888 1.395 . S
C1890 C1893 1.403 1_455 S
C1891 C1888 1.403 . S
C1891 C1892 1.524 . S
C1891 C1895 1.400 1_455 S
C1892 H1877 0.960 . S
C1892 H1878 0.960 . S
C1892 H1879 0.960 . S
C1892 C1891 1.524 . S
C1893 C1890 1.403 1_655 S
C1893 C1894 1.392 . S
C1893 C1897 1.495 . S
C1894 C1893 1.392 . S
C1894 C1895 1.385 . S
C1894 C1896 1.478 . S
C1895 H1889 0.930 . S
C1895 C1891 1.400 1_655 S
C1895 C1894 1.385 . S
C1896 C1894 1.478 . S
C1896 C1898 1.381 . S
C1896 C1902 1.383 . S
C1897 C1893 1.495 . S
C1897 H1903 0.959 . S
C1897 H1904 0.961 . S
C1897 H1905 0.960 . S
C1898 C1896 1.381 . S
C1898 C1899 1.394 . S
C1898 H1906 0.930 . S
C1899 C1898 1.394 . S
C1899 C1900 1.383 . S
C1899 H1907 0.929 . S
C1900 C1899 1.383 . S
C1900 C1901 1.377 . S
C1901 H1885 0.930 . S
C1901 C1900 1.377 . S
C1901 C1902 1.379 . S
C1902 H1886 0.931 . S
C1902 C1896 1.383 . S
C1902 C1901 1.379 . S
H1903 C1897 0.959 . S
H1904 C1897 0.961 . S
H1905 C1897 0.960 . S
H1906 C1898 0.930 . S
H1907 C1899 0.929 . S
H1908 C1916 0.929 . S
H1909 C1918 0.930 . S
H1910 C1920 0.930 . S
H1911 C1923 0.929 . S
H1912 C1926 0.930 . S
H1913 C1928 1.001 . S
H1914 C1928 0.960 . S
H1915 C1928 0.960 . S
C1916 H1908 0.929 . S
C1916 C1917 1.377 . S
C1916 C1918 1.384 . S
C1917 C1916 1.377 . S
C1917 C1923 1.390 . S
C1918 H1909 0.930 . S
C1918 C1916 1.384 . S
C1918 C1919 1.372 . S
C1919 C1918 1.372 . S
C1919 C1920 1.400 . S
C1919 C1924 1.490 . S
C1920 H1910 0.930 . S
C1920 C1919 1.400 . S
C1920 C1923 1.386 . S
H1921 C1937 0.930 . S
H1922 C1938 0.931 . S
C1923 H1911 0.929 . S
C1923 C1917 1.390 . S
C1923 C1920 1.386 . S
C1924 C1919 1.490 . S
C1924 C1926 1.395 . S
C1924 C1927 1.403 . S
H1925 C1931 0.930 . S
C1926 H1912 0.930 . S
C1926 C1924 1.395 . S
C1926 C1929 1.403 1_565 S
C1927 C1924 1.403 . S
C1927 C1928 1.524 . S
C1927 C1931 1.400 1_565 S
C1928 H1913 1.001 . S
C1928 H1914 0.960 . S
C1928 H1915 0.960 . S
C1928 C1927 1.524 . S
C1929 C1926 1.403 1_545 S
C1929 C1930 1.392 . S
C1929 C1933 1.495 . S
C1930 C1929 1.392 . S
C1930 C1931 1.385 . S
C1930 C1932 1.478 . S
C1931 H1925 0.930 . S
C1931 C1927 1.400 1_545 S
C1931 C1930 1.385 . S
C1932 C1930 1.478 . S
C1932 C1934 1.381 . S
C1932 C1938 1.383 . S
C1933 C1929 1.495 . S
C1933 H1939 0.959 . S
C1933 H1940 0.961 . S
C1933 H1941 0.960 . S
C1934 C1932 1.381 . S
C1934 C1935 1.394 . S
C1934 H1942 0.930 . S
C1935 C1934 1.394 . S
C1935 C1936 1.383 . S
C1935 H1943 0.929 . S
C1936 C1935 1.383 . S
C1936 C1937 1.377 . S
C1937 H1921 0.930 . S
C1937 C1936 1.377 . S
C1937 C1938 1.379 . S
C1938 H1922 0.931 . S
C1938 C1932 1.383 . S
C1938 C1937 1.379 . S
H1939 C1933 0.959 . S
H1940 C1933 0.961 . S
H1941 C1933 0.960 . S
H1942 C1934 0.930 . S
H1943 C1935 0.929 . S
H1944 C1952 0.929 . S
H1945 C1954 0.930 . S
H1946 C1956 0.930 . S
H1947 C1959 0.929 . S
H1948 C1962 0.930 . S
H1949 C1964 0.960 . S
H1950 C1964 0.960 . S
H1951 C1964 0.960 . S
C1952 H1944 0.929 . S
C1952 C1953 1.377 . S
C1952 C1954 1.384 . S
C1953 C1952 1.377 . S
C1953 C1959 1.390 . S
C1954 H1945 0.930 . S
C1954 C1952 1.384 . S
C1954 C1955 1.372 . S
C1955 C1954 1.372 . S
C1955 C1956 1.400 . S
C1955 C1960 1.490 . S
C1956 H1946 0.930 . S
C1956 C1955 1.400 . S
C1956 C1959 1.386 . S
H1957 C1973 0.930 . S
H1958 C1974 0.931 . S
C1959 H1947 0.929 . S
C1959 C1953 1.390 . S
C1959 C1956 1.386 . S
C1960 C1955 1.490 . S
C1960 C1962 1.395 . S
C1960 C1963 1.403 . S
H1961 C1967 0.930 . S
C1962 H1948 0.930 . S
C1962 C1960 1.395 . S
C1962 C1965 1.403 1_455 S
C1963 C1960 1.403 . S
C1963 C1964 1.524 . S
C1963 C1967 1.400 1_455 S
C1964 H1949 0.960 . S
C1964 H1950 0.960 . S
C1964 H1951 0.960 . S
C1964 C1963 1.524 . S
C1965 C1962 1.403 1_655 S
C1965 C1966 1.392 . S
C1965 C1969 1.495 . S
C1966 C1965 1.392 . S
C1966 C1967 1.385 . S
C1966 C1968 1.478 . S
C1967 H1961 0.930 . S
C1967 C1963 1.400 1_655 S
C1967 C1966 1.385 . S
C1968 C1966 1.478 . S
C1968 C1970 1.381 . S
C1968 C1974 1.383 . S
C1969 C1965 1.495 . S
C1969 H1975 0.959 . S
C1969 H1976 0.961 . S
C1969 H1977 0.960 . S
C1970 C1968 1.381 . S
C1970 C1971 1.394 . S
C1970 H1978 0.930 . S
C1971 C1970 1.394 . S
C1971 C1972 1.383 . S
C1971 H1979 0.929 . S
C1972 C1971 1.383 . S
C1972 C1973 1.377 . S
C1973 H1957 0.930 . S
C1973 C1972 1.377 . S
C1973 C1974 1.379 . S
C1974 H1958 0.931 . S
C1974 C1968 1.383 . S
C1974 C1973 1.379 . S
H1975 C1969 0.959 . S
H1976 C1969 0.961 . S
H1977 C1969 0.960 . S
H1978 C1970 0.930 . S
H1979 C1971 0.929 . S
H1980 C1988 0.929 . S
H1981 C1990 0.930 . S
H1982 C1992 0.930 . S
H1983 C1995 0.929 . S
H1984 C1998 0.930 . S
H1985 C2000 0.960 . S
H1986 C2000 0.960 . S
H1987 C2000 0.960 . S
C1988 H1980 0.929 . S
C1988 C1989 1.377 . S
C1988 C1990 1.384 . S
C1989 C1988 1.377 . S
C1989 C1995 1.390 . S
C1990 H1981 0.930 . S
C1990 C1988 1.384 . S
C1990 C1991 1.372 . S
C1991 C1990 1.372 . S
C1991 C1992 1.400 . S
C1991 C1996 1.490 . S
C1992 H1982 0.930 . S
C1992 C1991 1.400 . S
C1992 C1995 1.386 . S
H1993 C2009 0.930 . S
H1994 C2010 0.931 . S
C1995 H1983 0.929 . S
C1995 C1989 1.390 . S
C1995 C1992 1.386 . S
C1996 C1991 1.490 . S
C1996 C1998 1.395 . S
C1996 C1999 1.403 . S
H1997 C2003 0.930 . S
C1998 H1984 0.930 . S
C1998 C1996 1.395 . S
C1998 C2001 1.403 1_545 S
C1999 C1996 1.403 . S
C1999 C2000 1.524 . S
C1999 C2003 1.400 1_545 S
C2000 H1985 0.960 . S
C2000 H1986 0.960 . S
C2000 H1987 0.960 . S
C2000 C1999 1.524 . S
C2001 C1998 1.403 1_565 S
C2001 C2002 1.392 . S
C2001 C2005 1.495 . S
C2002 C2001 1.392 . S
C2002 C2003 1.385 . S
C2002 C2004 1.478 . S
C2003 H1997 0.930 . S
C2003 C1999 1.400 1_565 S
C2003 C2002 1.385 . S
C2004 C2002 1.478 . S
C2004 C2006 1.381 . S
C2004 C2010 1.383 . S
C2005 C2001 1.495 . S
C2005 H2011 0.959 . S
C2005 H2012 0.961 . S
C2005 H2013 0.960 . S
C2006 C2004 1.381 . S
C2006 C2007 1.394 . S
C2006 H2014 0.930 . S
C2007 C2006 1.394 . S
C2007 C2008 1.383 . S
C2007 H2015 0.929 . S
C2008 C2007 1.383 . S
C2008 C2009 1.377 . S
C2009 H1993 0.930 . S
C2009 C2008 1.377 . S
C2009 C2010 1.379 . S
C2010 H1994 0.931 . S
C2010 C2004 1.383 . S
C2010 C2009 1.379 . S
H2011 C2005 0.959 . S
H2012 C2005 0.961 . S
H2013 C2005 0.960 . S
H2014 C2006 0.930 . S
H2015 C2007 0.929 . S
H2016 C2024 0.929 . S
H2017 C2026 0.930 . S
H2018 C2028 0.930 . S
H2019 C2031 0.929 . S
H2020 C2034 0.930 . S
H2021 C2036 0.960 . S
H2022 C2036 0.960 . S
H2023 C2036 0.960 . S
C2024 H2016 0.929 . S
C2024 C2025 1.377 . S
C2024 C2026 1.384 . S
C2025 C2024 1.377 . S
C2025 C2031 1.390 . S
C2026 H2017 0.930 . S
C2026 C2024 1.384 . S
C2026 C2027 1.372 . S
C2027 C2026 1.372 . S
C2027 C2028 1.400 . S
C2027 C2032 1.490 . S
C2028 H2018 0.930 . S
C2028 C2027 1.400 . S
C2028 C2031 1.386 . S
H2029 C2045 0.930 . S
H2030 C2046 0.931 . S
C2031 H2019 0.929 . S
C2031 C2025 1.390 . S
C2031 C2028 1.386 . S
C2032 C2027 1.490 . S
C2032 C2034 1.395 . S
C2032 C2035 1.403 . S
H2033 C2039 0.930 . S
C2034 H2020 0.930 . S
C2034 C2032 1.395 . S
C2034 C2037 1.403 . S
C2035 C2032 1.403 . S
C2035 C2036 1.524 . S
C2035 C2039 1.400 . S
C2036 H2021 0.960 . S
C2036 H2022 0.960 . S
C2036 H2023 0.960 . S
C2036 C2035 1.524 . S
C2037 C2034 1.403 . S
C2037 C2038 1.392 . S
C2037 C2041 1.495 . S
C2038 C2037 1.392 . S
C2038 C2039 1.385 . S
C2038 C2040 1.478 . S
C2039 H2033 0.930 . S
C2039 C2035 1.400 . S
C2039 C2038 1.385 . S
C2040 C2038 1.478 . S
C2040 C2042 1.381 . S
C2040 C2046 1.383 . S
C2041 C2037 1.495 . S
C2041 H2047 0.959 . S
C2041 H2048 0.961 . S
C2041 H2049 0.960 . S
C2042 C2040 1.381 . S
C2042 C2043 1.394 . S
C2042 H2050 0.930 . S
C2043 C2042 1.394 . S
C2043 C2044 1.383 . S
C2043 H2051 0.929 . S
C2044 C2043 1.383 . S
C2044 C2045 1.377 . S
C2045 H2029 0.930 . S
C2045 C2044 1.377 . S
C2045 C2046 1.379 . S
C2046 H2030 0.931 . S
C2046 C2040 1.383 . S
C2046 C2045 1.379 . S
H2047 C2041 0.959 . S
H2048 C2041 0.961 . S
H2049 C2041 0.960 . S
H2050 C2042 0.930 . S
H2051 C2043 0.929 . S
H2052 C2060 0.929 . S
H2053 C2062 0.930 . S
H2054 C2064 0.930 . S
H2055 C2067 0.929 . S
H2056 C2070 0.930 . S
H2057 C2072 0.960 . S
H2058 C2072 0.960 . S
H2059 C2072 0.960 . S
C2060 H2052 0.929 . S
C2060 C2061 1.377 . S
C2060 C2062 1.384 . S
C2061 C2060 1.377 . S
C2061 C2067 1.390 . S
C2062 H2053 0.930 . S
C2062 C2060 1.384 . S
C2062 C2063 1.372 . S
C2063 C2062 1.372 . S
C2063 C2064 1.400 . S
C2063 C2068 1.490 . S
C2064 H2054 0.930 . S
C2064 C2063 1.400 . S
C2064 C2067 1.386 . S
H2065 C2081 0.930 . S
H2066 C2082 0.931 . S
C2067 H2055 0.929 . S
C2067 C2061 1.390 . S
C2067 C2064 1.386 . S
C2068 C2063 1.490 . S
C2068 C2070 1.395 . S
C2068 C2071 1.403 . S
H2069 C2075 0.930 . S
C2070 H2056 0.930 . S
C2070 C2068 1.395 . S
C2070 C2073 1.403 . S
C2071 C2068 1.403 . S
C2071 C2072 1.524 . S
C2071 C2075 1.400 . S
C2072 H2057 0.960 . S
C2072 H2058 0.960 . S
C2072 H2059 0.960 . S
C2072 C2071 1.524 . S
C2073 C2070 1.403 . S
C2073 C2074 1.392 . S
C2073 C2077 1.495 . S
C2074 C2073 1.392 . S
C2074 C2075 1.385 . S
C2074 C2076 1.478 . S
C2075 H2069 0.930 . S
C2075 C2071 1.400 . S
C2075 C2074 1.385 . S
C2076 C2074 1.478 . S
C2076 C2078 1.381 . S
C2076 C2082 1.383 . S
C2077 C2073 1.495 . S
C2077 H2083 0.959 . S
C2077 H2084 0.961 . S
C2077 H2085 0.960 . S
C2078 C2076 1.381 . S
C2078 C2079 1.394 . S
C2078 H2086 0.930 . S
C2079 C2078 1.394 . S
C2079 C2080 1.383 . S
C2079 H2087 0.929 . S
C2080 C2079 1.383 . S
C2080 C2081 1.377 . S
C2081 H2065 0.930 . S
C2081 C2080 1.377 . S
C2081 C2082 1.379 . S
C2082 H2066 0.931 . S
C2082 C2076 1.383 . S
C2082 C2081 1.379 . S
H2083 C2077 0.959 . S
H2084 C2077 0.961 . S
H2085 C2077 0.960 . S
H2086 C2078 0.930 . S
H2087 C2079 0.929 . S
H2088 C2096 0.929 . S
H2089 C2098 0.930 . S
H2090 C2100 0.930 . S
H2091 C2103 0.929 . S
H2092 C2106 0.930 . S
H2093 C2108 0.960 . S
H2094 C2108 0.960 . S
H2095 C2108 0.960 . S
C2096 H2088 0.929 . S
C2096 C2097 1.377 . S
C2096 C2098 1.384 . S
C2097 C2096 1.377 . S
C2097 C2103 1.390 . S
C2098 H2089 0.930 . S
C2098 C2096 1.384 . S
C2098 C2099 1.372 . S
C2099 C2098 1.372 . S
C2099 C2100 1.400 . S
C2099 C2104 1.490 . S
C2100 H2090 0.930 . S
C2100 C2099 1.400 . S
C2100 C2103 1.386 . S
H2101 C2117 0.930 . S
H2102 C2118 0.931 . S
C2103 H2091 0.929 . S
C2103 C2097 1.390 . S
C2103 C2100 1.386 . S
C2104 C2099 1.490 . S
C2104 C2106 1.395 . S
C2104 C2107 1.403 . S
H2105 C2111 0.930 . S
C2106 H2092 0.930 . S
C2106 C2104 1.395 . S
C2106 C2109 1.403 . S
C2107 C2104 1.403 . S
C2107 C2108 1.524 . S
C2107 C2111 1.400 . S
C2108 H2093 0.960 . S
C2108 H2094 0.960 . S
C2108 H2095 0.960 . S
C2108 C2107 1.524 . S
C2109 C2106 1.403 . S
C2109 C2110 1.392 . S
C2109 C2113 1.495 . S
C2110 C2109 1.392 . S
C2110 C2111 1.385 . S
C2110 C2112 1.478 . S
C2111 H2105 0.930 . S
C2111 C2107 1.400 . S
C2111 C2110 1.385 . S
C2112 C2110 1.478 . S
C2112 C2114 1.381 . S
C2112 C2118 1.383 . S
C2113 C2109 1.495 . S
C2113 H2119 0.959 . S
C2113 H2120 0.961 . S
C2113 H2121 0.960 . S
C2114 C2112 1.381 . S
C2114 C2115 1.394 . S
C2114 H2122 0.930 . S
C2115 C2114 1.394 . S
C2115 C2116 1.383 . S
C2115 H2123 0.929 . S
C2116 C2115 1.383 . S
C2116 C2117 1.377 . S
C2117 H2101 0.930 . S
C2117 C2116 1.377 . S
C2117 C2118 1.379 . S
C2118 H2102 0.931 . S
C2118 C2112 1.383 . S
C2118 C2117 1.379 . S
H2119 C2113 0.959 . S
H2120 C2113 0.961 . S
H2121 C2113 0.960 . S
H2122 C2114 0.930 . S
H2123 C2115 0.929 . S
H2124 C2132 0.929 . S
H2125 C2134 0.930 . S
H2126 C2136 0.930 . S
H2127 C2139 0.929 . S
H2128 C2142 0.930 . S
H2129 C2144 0.960 . S
H2130 C2144 0.960 . S
H2131 C2144 0.960 . S
C2132 H2124 0.929 . S
C2132 C2133 1.377 . S
C2132 C2134 1.384 . S
C2133 C2132 1.377 . S
C2133 C2139 1.390 . S
C2134 H2125 0.930 . S
C2134 C2132 1.384 . S
C2134 C2135 1.372 . S
C2135 C2134 1.372 . S
C2135 C2136 1.400 . S
C2135 C2140 1.490 . S
C2136 H2126 0.930 . S
C2136 C2135 1.400 . S
C2136 C2139 1.386 . S
H2137 C2153 0.930 . S
H2138 C2154 0.931 . S
C2139 H2127 0.929 . S
C2139 C2133 1.390 . S
C2139 C2136 1.386 . S
C2140 C2135 1.490 . S
C2140 C2142 1.395 . S
C2140 C2143 1.403 . S
H2141 C2147 0.930 . S
C2142 H2128 0.930 . S
C2142 C2140 1.395 . S
C2142 C2145 1.403 . S
C2143 C2140 1.403 . S
C2143 C2144 1.524 . S
C2143 C2147 1.400 . S
C2144 H2129 0.960 . S
C2144 H2130 0.960 . S
C2144 H2131 0.960 . S
C2144 C2143 1.524 . S
C2145 C2142 1.403 . S
C2145 C2146 1.392 . S
C2145 C2149 1.495 . S
C2146 C2145 1.392 . S
C2146 C2147 1.385 . S
C2146 C2148 1.478 . S
C2147 H2141 0.930 . S
C2147 C2143 1.400 . S
C2147 C2146 1.385 . S
C2148 C2146 1.478 . S
C2148 C2150 1.381 . S
C2148 C2154 1.383 . S
C2149 C2145 1.495 . S
C2149 H2155 0.959 . S
C2149 H2156 0.961 . S
C2149 H2157 0.960 . S
C2150 C2148 1.381 . S
C2150 C2151 1.394 . S
C2150 H2158 0.930 . S
C2151 C2150 1.394 . S
C2151 C2152 1.383 . S
C2151 H2159 0.929 . S
C2152 C2151 1.383 . S
C2152 C2153 1.377 . S
C2153 H2137 0.930 . S
C2153 C2152 1.377 . S
C2153 C2154 1.379 . S
C2154 H2138 0.931 . S
C2154 C2148 1.383 . S
C2154 C2153 1.379 . S
H2155 C2149 0.959 . S
H2156 C2149 0.961 . S
H2157 C2149 0.960 . S
H2158 C2150 0.930 . S
H2159 C2151 0.929 . S
H2160 C2168 0.929 . S
H2161 C2170 0.930 . S
H2162 C2172 0.930 . S
H2163 C2175 0.929 . S
H2164 C2178 0.930 . S
H2165 C2180 0.960 . S
H2166 C2180 0.960 . S
H2167 C2180 0.960 . S
C2168 H2160 0.929 . S
C2168 C2169 1.377 . S
C2168 C2170 1.384 . S
C2169 C2168 1.377 . S
C2169 C2175 1.390 . S
C2170 H2161 0.930 . S
C2170 C2168 1.384 . S
C2170 C2171 1.372 . S
C2171 C2170 1.372 . S
C2171 C2172 1.400 . S
C2171 C2176 1.490 . S
C2172 H2162 0.930 . S
C2172 C2171 1.400 . S
C2172 C2175 1.386 . S
H2173 C2189 0.930 . S
H2174 C2190 0.931 . S
C2175 H2163 0.929 . S
C2175 C2169 1.390 . S
C2175 C2172 1.386 . S
C2176 C2171 1.490 . S
C2176 C2178 1.395 . S
C2176 C2179 1.403 . S
H2177 C2183 0.930 . S
C2178 H2164 0.930 . S
C2178 C2176 1.395 . S
C2178 C2181 1.403 . S
C2179 C2176 1.403 . S
C2179 C2180 1.524 . S
C2179 C2183 1.400 . S
C2180 H2165 0.960 . S
C2180 H2166 0.960 . S
C2180 H2167 0.960 . S
C2180 C2179 1.524 . S
C2181 C2178 1.403 . S
C2181 C2182 1.392 . S
C2181 C2185 1.495 . S
C2182 C2181 1.392 . S
C2182 C2183 1.385 . S
C2182 C2184 1.478 . S
C2183 H2177 0.930 . S
C2183 C2179 1.400 . S
C2183 C2182 1.385 . S
C2184 C2182 1.478 . S
C2184 C2186 1.381 . S
C2184 C2190 1.383 . S
C2185 C2181 1.495 . S
C2185 H2191 0.959 . S
C2185 H2192 0.961 . S
C2185 H2193 0.960 . S
C2186 C2184 1.381 . S
C2186 C2187 1.394 . S
C2186 H2194 0.930 . S
C2187 C2186 1.394 . S
C2187 C2188 1.383 . S
C2187 H2195 0.929 . S
C2188 C2187 1.383 . S
C2188 C2189 1.377 . S
C2189 H2173 0.930 . S
C2189 C2188 1.377 . S
C2189 C2190 1.379 . S
C2190 H2174 0.931 . S
C2190 C2184 1.383 . S
C2190 C2189 1.379 . S
H2191 C2185 0.959 . S
H2192 C2185 0.961 . S
H2193 C2185 0.960 . S
H2194 C2186 0.930 . S
H2195 C2187 0.929 . S
H2196 C2204 0.929 . S
H2197 C2206 0.930 . S
H2198 C2208 0.930 . S
H2199 C2211 0.929 . S
H2200 C2214 0.930 . S
H2201 C2216 0.960 . S
H2202 C2216 0.960 . S
H2203 C2216 0.960 . S
C2204 H2196 0.929 . S
C2204 C2205 1.377 . S
C2204 C2206 1.384 . S
C2205 C2204 1.377 . S
C2205 C2211 1.390 . S
C2206 H2197 0.930 . S
C2206 C2204 1.384 . S
C2206 C2207 1.372 . S
C2207 C2206 1.372 . S
C2207 C2208 1.400 . S
C2207 C2212 1.490 . S
C2208 H2198 0.930 . S
C2208 C2207 1.400 . S
C2208 C2211 1.386 . S
H2209 C2225 0.930 . S
H2210 C2226 0.931 . S
C2211 H2199 0.929 . S
C2211 C2205 1.390 . S
C2211 C2208 1.386 . S
C2212 C2207 1.490 . S
C2212 C2214 1.395 . S
C2212 C2215 1.403 . S
H2213 C2219 0.930 . S
C2214 H2200 0.930 . S
C2214 C2212 1.395 . S
C2214 C2217 1.403 . S
C2215 C2212 1.403 . S
C2215 C2216 1.524 . S
C2215 C2219 1.400 . S
C2216 H2201 0.960 . S
C2216 H2202 0.960 . S
C2216 H2203 0.960 . S
C2216 C2215 1.524 . S
C2217 C2214 1.403 . S
C2217 C2218 1.392 . S
C2217 C2221 1.495 . S
C2218 C2217 1.392 . S
C2218 C2219 1.385 . S
C2218 C2220 1.478 . S
C2219 H2213 0.930 . S
C2219 C2215 1.400 . S
C2219 C2218 1.385 . S
C2220 C2218 1.478 . S
C2220 C2222 1.381 . S
C2220 C2226 1.383 . S
C2221 C2217 1.495 . S
C2221 H2227 0.959 . S
C2221 H2228 0.961 . S
C2221 H2229 0.960 . S
C2222 C2220 1.381 . S
C2222 C2223 1.394 . S
C2222 H2230 0.930 . S
C2223 C2222 1.394 . S
C2223 C2224 1.383 . S
C2223 H2231 0.929 . S
C2224 C2223 1.383 . S
C2224 C2225 1.377 . S
C2225 H2209 0.930 . S
C2225 C2224 1.377 . S
C2225 C2226 1.379 . S
C2226 H2210 0.931 . S
C2226 C2220 1.383 . S
C2226 C2225 1.379 . S
H2227 C2221 0.959 . S
H2228 C2221 0.961 . S
H2229 C2221 0.960 . S
H2230 C2222 0.930 . S
H2231 C2223 0.929 . S
H2232 C2240 0.929 . S
H2233 C2242 0.930 . S
H2234 C2244 0.930 . S
H2235 C2247 0.929 . S
H2236 C2250 0.930 . S
H2237 C2252 0.960 . S
H2238 C2252 0.960 . S
H2239 C2252 0.960 . S
C2240 H2232 0.929 . S
C2240 C2241 1.377 . S
C2240 C2242 1.384 . S
C2241 C2240 1.377 . S
C2241 C2247 1.390 . S
C2242 H2233 0.930 . S
C2242 C2240 1.384 . S
C2242 C2243 1.372 . S
C2243 C2242 1.372 . S
C2243 C2244 1.400 . S
C2243 C2248 1.490 . S
C2244 H2234 0.930 . S
C2244 C2243 1.400 . S
C2244 C2247 1.386 . S
H2245 C2261 0.930 . S
H2246 C2262 0.931 . S
C2247 H2235 0.929 . S
C2247 C2241 1.390 . S
C2247 C2244 1.386 . S
C2248 C2243 1.490 . S
C2248 C2250 1.395 . S
C2248 C2251 1.403 . S
H2249 C2255 0.930 . S
C2250 H2236 0.930 . S
C2250 C2248 1.395 . S
C2250 C2253 1.403 . S
C2251 C2248 1.403 . S
C2251 C2252 1.524 . S
C2251 C2255 1.400 . S
C2252 H2237 0.960 . S
C2252 H2238 0.960 . S
C2252 H2239 0.960 . S
C2252 C2251 1.524 . S
C2253 C2250 1.403 . S
C2253 C2254 1.392 . S
C2253 C2257 1.495 . S
C2254 C2253 1.392 . S
C2254 C2255 1.385 . S
C2254 C2256 1.478 . S
C2255 H2249 0.930 . S
C2255 C2251 1.400 . S
C2255 C2254 1.385 . S
C2256 C2254 1.478 . S
C2256 C2258 1.381 . S
C2256 C2262 1.383 . S
C2257 C2253 1.495 . S
C2257 H2263 0.959 . S
C2257 H2264 0.961 . S
C2257 H2265 0.960 . S
C2258 C2256 1.381 . S
C2258 C2259 1.394 . S
C2258 H2266 0.930 . S
C2259 C2258 1.394 . S
C2259 C2260 1.383 . S
C2259 H2267 0.929 . S
C2260 C2259 1.383 . S
C2260 C2261 1.377 . S
C2261 H2245 0.930 . S
C2261 C2260 1.377 . S
C2261 C2262 1.379 . S
C2262 H2246 0.931 . S
C2262 C2256 1.383 . S
C2262 C2261 1.379 . S
H2263 C2257 0.959 . S
H2264 C2257 0.961 . S
H2265 C2257 0.960 . S
H2266 C2258 0.930 . S
H2267 C2259 0.929 . S
H2268 C2276 0.929 . S
H2269 C2278 0.930 . S
H2270 C2280 0.930 . S
H2271 C2283 0.929 . S
H2272 C2286 0.930 . S
H2273 C2288 0.960 . S
H2274 C2288 0.960 . S
H2275 C2288 0.960 . S
C2276 H2268 0.929 . S
C2276 C2277 1.377 . S
C2276 C2278 1.384 . S
C2277 C2276 1.377 . S
C2277 C2283 1.390 . S
C2278 H2269 0.930 . S
C2278 C2276 1.384 . S
C2278 C2279 1.372 . S
C2279 C2278 1.372 . S
C2279 C2280 1.400 . S
C2279 C2284 1.490 . S
C2280 H2270 0.930 . S
C2280 C2279 1.400 . S
C2280 C2283 1.386 . S
H2281 C2297 0.930 . S
H2282 C2298 0.931 . S
C2283 H2271 0.929 . S
C2283 C2277 1.390 . S
C2283 C2280 1.386 . S
C2284 C2279 1.490 . S
C2284 C2286 1.395 . S
C2284 C2287 1.403 . S
H2285 C2291 0.930 . S
C2286 H2272 0.930 . S
C2286 C2284 1.395 . S
C2286 C2289 1.403 . S
C2287 C2284 1.403 . S
C2287 C2288 1.524 . S
C2287 C2291 1.400 . S
C2288 H2273 0.960 . S
C2288 H2274 0.960 . S
C2288 H2275 0.960 . S
C2288 C2287 1.524 . S
C2289 C2286 1.403 . S
C2289 C2290 1.392 . S
C2289 C2293 1.495 . S
C2290 C2289 1.392 . S
C2290 C2291 1.385 . S
C2290 C2292 1.478 . S
C2291 H2285 0.930 . S
C2291 C2287 1.400 . S
C2291 C2290 1.385 . S
C2292 C2290 1.478 . S
C2292 C2294 1.381 . S
C2292 C2298 1.383 . S
C2293 C2289 1.495 . S
C2293 H2299 0.959 . S
C2293 H2300 0.961 . S
C2293 H2301 0.960 . S
C2294 C2292 1.381 . S
C2294 C2295 1.394 . S
C2294 H2302 0.930 . S
C2295 C2294 1.394 . S
C2295 C2296 1.383 . S
C2295 H2303 0.929 . S
C2296 C2295 1.383 . S
C2296 C2297 1.377 . S
C2297 H2281 0.930 . S
C2297 C2296 1.377 . S
C2297 C2298 1.379 . S
C2298 H2282 0.931 . S
C2298 C2292 1.383 . S
C2298 C2297 1.379 . S
H2299 C2293 0.959 . S
H2300 C2293 0.961 . S
H2301 C2293 0.960 . S
H2302 C2294 0.930 . S
H2303 C2295 0.929 . S
H2304 C2312 0.929 . S
H2305 C2314 0.930 . S
H2306 C2316 0.930 . S
H2307 C2319 0.929 . S
H2308 C2322 0.930 . S
H2309 C2324 0.960 . S
H2310 C2324 0.960 . S
H2311 C2324 0.960 . S
C2312 H2304 0.929 . S
C2312 C2313 1.377 . S
C2312 C2314 1.384 . S
C2313 C2312 1.377 . S
C2313 C2319 1.390 . S
C2314 H2305 0.930 . S
C2314 C2312 1.384 . S
C2314 C2315 1.372 . S
C2315 C2314 1.372 . S
C2315 C2316 1.400 . S
C2315 C2320 1.490 . S
C2316 H2306 0.930 . S
C2316 C2315 1.400 . S
C2316 C2319 1.386 . S
H2317 C2333 0.930 . S
H2318 C2334 0.931 . S
C2319 H2307 0.929 . S
C2319 C2313 1.390 . S
C2319 C2316 1.386 . S
C2320 C2315 1.490 . S
C2320 C2322 1.395 . S
C2320 C2323 1.403 . S
H2321 C2327 0.930 . S
C2322 H2308 0.930 . S
C2322 C2320 1.395 . S
C2322 C2325 1.403 . S
C2323 C2320 1.403 . S
C2323 C2324 1.524 . S
C2323 C2327 1.400 . S
C2324 H2309 0.960 . S
C2324 H2310 0.960 . S
C2324 H2311 0.960 . S
C2324 C2323 1.524 . S
C2325 C2322 1.403 . S
C2325 C2326 1.392 . S
C2325 C2329 1.495 . S
C2326 C2325 1.392 . S
C2326 C2327 1.385 . S
C2326 C2328 1.478 . S
C2327 H2321 0.930 . S
C2327 C2323 1.400 . S
C2327 C2326 1.385 . S
C2328 C2326 1.478 . S
C2328 C2330 1.381 . S
C2328 C2334 1.383 . S
C2329 C2325 1.495 . S
C2329 H2335 0.959 . S
C2329 H2336 0.961 . S
C2329 H2337 0.960 . S
C2330 C2328 1.381 . S
C2330 C2331 1.394 . S
C2330 H2338 0.930 . S
C2331 C2330 1.394 . S
C2331 C2332 1.383 . S
C2331 H2339 0.929 . S
C2332 C2331 1.383 . S
C2332 C2333 1.377 . S
C2333 H2317 0.930 . S
C2333 C2332 1.377 . S
C2333 C2334 1.379 . S
C2334 H2318 0.931 . S
C2334 C2328 1.383 . S
C2334 C2333 1.379 . S
H2335 C2329 0.959 . S
H2336 C2329 0.961 . S
H2337 C2329 0.960 . S
H2338 C2330 0.930 . S
H2339 C2331 0.929 . S
H2340 C2348 0.929 . S
H2341 C2350 0.930 . S
H2342 C2352 0.930 . S
H2343 C2355 0.929 . S
H2344 C2358 0.930 . S
H2345 C2360 0.960 . S
H2346 C2360 0.960 . S
H2347 C2360 0.960 . S
C2348 H2340 0.929 . S
C2348 C2349 1.377 . S
C2348 C2350 1.384 . S
C2349 C2348 1.377 . S
C2349 C2355 1.390 . S
C2350 H2341 0.930 . S
C2350 C2348 1.384 . S
C2350 C2351 1.372 . S
C2351 C2350 1.372 . S
C2351 C2352 1.400 . S
C2351 C2356 1.490 . S
C2352 H2342 0.930 . S
C2352 C2351 1.400 . S
C2352 C2355 1.386 . S
H2353 C2369 0.930 . S
H2354 C2370 0.931 . S
C2355 H2343 0.929 . S
C2355 C2349 1.390 . S
C2355 C2352 1.386 . S
C2356 C2351 1.490 . S
C2356 C2358 1.395 . S
C2356 C2359 1.403 . S
H2357 C2363 0.930 . S
C2358 H2344 0.930 . S
C2358 C2356 1.395 . S
C2358 C2361 1.403 . S
C2359 C2356 1.403 . S
C2359 C2360 1.524 . S
C2359 C2363 1.400 . S
C2360 H2345 0.960 . S
C2360 H2346 0.960 . S
C2360 H2347 0.960 . S
C2360 C2359 1.524 . S
C2361 C2358 1.403 . S
C2361 C2362 1.392 . S
C2361 C2365 1.495 . S
C2362 C2361 1.392 . S
C2362 C2363 1.385 . S
C2362 C2364 1.478 . S
C2363 H2357 0.930 . S
C2363 C2359 1.400 . S
C2363 C2362 1.385 . S
C2364 C2362 1.478 . S
C2364 C2366 1.381 . S
C2364 C2370 1.383 . S
C2365 C2361 1.495 . S
C2365 H2371 0.959 . S
C2365 H2372 0.961 . S
C2365 H2373 0.960 . S
C2366 C2364 1.381 . S
C2366 C2367 1.394 . S
C2366 H2374 0.930 . S
C2367 C2366 1.394 . S
C2367 C2368 1.383 . S
C2367 H2375 0.929 . S
C2368 C2367 1.383 . S
C2368 C2369 1.377 . S
C2369 H2353 0.930 . S
C2369 C2368 1.377 . S
C2369 C2370 1.379 . S
C2370 H2354 0.931 . S
C2370 C2364 1.383 . S
C2370 C2369 1.379 . S
H2371 C2365 0.959 . S
H2372 C2365 0.961 . S
H2373 C2365 0.960 . S
H2374 C2366 0.930 . S
H2375 C2367 0.929 . S
H2376 C2384 0.929 . S
H2377 C2386 0.930 . S
H2378 C2388 0.930 . S
H2379 C2391 0.929 . S
H2380 C2394 0.930 . S
H2381 C2396 0.960 . S
H2382 C2396 0.960 . S
H2383 C2396 0.960 . S
C2384 H2376 0.929 . S
C2384 C2385 1.377 . S
C2384 C2386 1.384 . S
C2385 C2384 1.377 . S
C2385 C2391 1.390 . S
C2386 H2377 0.930 . S
C2386 C2384 1.384 . S
C2386 C2387 1.372 . S
C2387 C2386 1.372 . S
C2387 C2388 1.400 . S
C2387 C2392 1.490 . S
C2388 H2378 0.930 . S
C2388 C2387 1.400 . S
C2388 C2391 1.386 . S
H2389 C2405 0.930 . S
H2390 C2406 0.931 . S
C2391 H2379 0.929 . S
C2391 C2385 1.390 . S
C2391 C2388 1.386 . S
C2392 C2387 1.490 . S
C2392 C2394 1.395 . S
C2392 C2395 1.403 . S
H2393 C2399 0.930 . S
C2394 H2380 0.930 . S
C2394 C2392 1.395 . S
C2394 C2397 1.403 . S
C2395 C2392 1.403 . S
C2395 C2396 1.524 . S
C2395 C2399 1.400 . S
C2396 H2381 0.960 . S
C2396 H2382 0.960 . S
C2396 H2383 0.960 . S
C2396 C2395 1.524 . S
C2397 C2394 1.403 . S
C2397 C2398 1.392 . S
C2397 C2401 1.495 . S
C2398 C2397 1.392 . S
C2398 C2399 1.385 . S
C2398 C2400 1.478 . S
C2399 H2393 0.930 . S
C2399 C2395 1.400 . S
C2399 C2398 1.385 . S
C2400 C2398 1.478 . S
C2400 C2402 1.381 . S
C2400 C2406 1.383 . S
C2401 C2397 1.495 . S
C2401 H2407 0.959 . S
C2401 H2408 0.961 . S
C2401 H2409 0.960 . S
C2402 C2400 1.381 . S
C2402 C2403 1.394 . S
C2402 H2410 0.930 . S
C2403 C2402 1.394 . S
C2403 C2404 1.383 . S
C2403 H2411 0.929 . S
C2404 C2403 1.383 . S
C2404 C2405 1.377 . S
C2405 H2389 0.930 . S
C2405 C2404 1.377 . S
C2405 C2406 1.379 . S
C2406 H2390 0.931 . S
C2406 C2400 1.383 . S
C2406 C2405 1.379 . S
H2407 C2401 0.959 . S
H2408 C2401 0.961 . S
H2409 C2401 0.960 . S
H2410 C2402 0.930 . S
H2411 C2403 0.929 . S
H2412 C2420 0.929 . S
H2413 C2422 0.930 . S
H2414 C2424 0.930 . S
H2415 C2427 0.929 . S
H2416 C2430 0.930 . S
H2417 C2432 0.960 . S
H2418 C2432 0.960 . S
H2419 C2432 0.960 . S
C2420 H2412 0.929 . S
C2420 C2421 1.377 . S
C2420 C2422 1.384 . S
C2421 C2420 1.377 . S
C2421 C2427 1.390 . S
C2422 H2413 0.930 . S
C2422 C2420 1.384 . S
C2422 C2423 1.372 . S
C2423 C2422 1.372 . S
C2423 C2424 1.400 . S
C2423 C2428 1.490 . S
C2424 H2414 0.930 . S
C2424 C2423 1.400 . S
C2424 C2427 1.386 . S
H2425 C2441 0.930 . S
H2426 C2442 0.931 . S
C2427 H2415 0.929 . S
C2427 C2421 1.390 . S
C2427 C2424 1.386 . S
C2428 C2423 1.490 . S
C2428 C2430 1.395 . S
C2428 C2431 1.403 . S
H2429 C2435 0.930 . S
C2430 H2416 0.930 . S
C2430 C2428 1.395 . S
C2430 C2433 1.403 . S
C2431 C2428 1.403 . S
C2431 C2432 1.524 . S
C2431 C2435 1.400 . S
C2432 H2417 0.960 . S
C2432 H2418 0.960 . S
C2432 H2419 0.960 . S
C2432 C2431 1.524 . S
C2433 C2430 1.403 . S
C2433 C2434 1.392 . S
C2433 C2437 1.495 . S
C2434 C2433 1.392 . S
C2434 C2435 1.385 . S
C2434 C2436 1.478 . S
C2435 H2429 0.930 . S
C2435 C2431 1.400 . S
C2435 C2434 1.385 . S
C2436 C2434 1.478 . S
C2436 C2438 1.381 . S
C2436 C2442 1.383 . S
C2437 C2433 1.495 . S
C2437 H2443 0.959 . S
C2437 H2444 0.961 . S
C2437 H2445 0.960 . S
C2438 C2436 1.381 . S
C2438 C2439 1.394 . S
C2438 H2446 0.930 . S
C2439 C2438 1.394 . S
C2439 C2440 1.383 . S
C2439 H2447 0.929 . S
C2440 C2439 1.383 . S
C2440 C2441 1.377 . S
C2441 H2425 0.930 . S
C2441 C2440 1.377 . S
C2441 C2442 1.379 . S
C2442 H2426 0.931 . S
C2442 C2436 1.383 . S
C2442 C2441 1.379 . S
H2443 C2437 0.959 . S
H2444 C2437 0.961 . S
H2445 C2437 0.960 . S
H2446 C2438 0.930 . S
H2447 C2439 0.929 . S
H2448 C2456 0.929 . S
H2449 C2458 0.930 . S
H2450 C2460 0.930 . S
H2451 C2463 0.929 . S
H2452 C2466 0.930 . S
H2453 C2468 0.960 . S
H2454 C2468 0.960 . S
H2455 C2468 0.960 . S
C2456 H2448 0.929 . S
C2456 C2457 1.377 . S
C2456 C2458 1.384 . S
C2457 C2456 1.377 . S
C2457 C2463 1.390 . S
C2458 H2449 0.930 . S
C2458 C2456 1.384 . S
C2458 C2459 1.372 . S
C2459 C2458 1.372 . S
C2459 C2460 1.400 . S
C2459 C2464 1.490 . S
C2460 H2450 0.930 . S
C2460 C2459 1.400 . S
C2460 C2463 1.386 . S
H2461 C2477 0.930 . S
H2462 C2478 0.931 . S
C2463 H2451 0.929 . S
C2463 C2457 1.390 . S
C2463 C2460 1.386 . S
C2464 C2459 1.490 . S
C2464 C2466 1.395 . S
C2464 C2467 1.403 . S
H2465 C2471 0.930 . S
C2466 H2452 0.930 . S
C2466 C2464 1.395 . S
C2466 C2469 1.403 . S
C2467 C2464 1.403 . S
C2467 C2468 1.524 . S
C2467 C2471 1.400 . S
C2468 H2453 0.960 . S
C2468 H2454 0.960 . S
C2468 H2455 0.960 . S
C2468 C2467 1.524 . S
C2469 C2466 1.403 . S
C2469 C2470 1.392 . S
C2469 C2473 1.495 . S
C2470 C2469 1.392 . S
C2470 C2471 1.385 . S
C2470 C2472 1.478 . S
C2471 H2465 0.930 . S
C2471 C2467 1.400 . S
C2471 C2470 1.385 . S
C2472 C2470 1.478 . S
C2472 C2474 1.381 . S
C2472 C2478 1.383 . S
C2473 C2469 1.495 . S
C2473 H2479 0.959 . S
C2473 H2480 0.961 . S
C2473 H2481 0.960 . S
C2474 C2472 1.381 . S
C2474 C2475 1.394 . S
C2474 H2482 0.930 . S
C2475 C2474 1.394 . S
C2475 C2476 1.383 . S
C2475 H2483 0.929 . S
C2476 C2475 1.383 . S
C2476 C2477 1.377 . S
C2477 H2461 0.930 . S
C2477 C2476 1.377 . S
C2477 C2478 1.379 . S
C2478 H2462 0.931 . S
C2478 C2472 1.383 . S
C2478 C2477 1.379 . S
H2479 C2473 0.959 . S
H2480 C2473 0.961 . S
H2481 C2473 0.960 . S
H2482 C2474 0.930 . S
H2483 C2475 0.929 . S
H2484 C2492 0.929 . S
H2485 C2494 0.930 . S
H2486 C2496 0.930 . S
H2487 C2499 0.929 . S
H2488 C2502 0.930 . S
H2489 C2504 0.960 . S
H2490 C2504 0.960 . S
H2491 C2504 0.960 . S
C2492 H2484 0.929 . S
C2492 C2493 1.377 . S
C2492 C2494 1.384 . S
C2493 C2492 1.377 . S
C2493 C2499 1.390 . S
C2494 H2485 0.930 . S
C2494 C2492 1.384 . S
C2494 C2495 1.372 . S
C2495 C2494 1.372 . S
C2495 C2496 1.400 . S
C2495 C2500 1.490 . S
C2496 H2486 0.930 . S
C2496 C2495 1.400 . S
C2496 C2499 1.386 . S
H2497 C2513 0.930 . S
H2498 C2514 0.931 . S
C2499 H2487 0.929 . S
C2499 C2493 1.390 . S
C2499 C2496 1.386 . S
C2500 C2495 1.490 . S
C2500 C2502 1.395 . S
C2500 C2503 1.403 . S
H2501 C2507 0.930 . S
C2502 H2488 0.930 . S
C2502 C2500 1.395 . S
C2502 C2505 1.403 . S
C2503 C2500 1.403 . S
C2503 C2504 1.524 . S
C2503 C2507 1.400 . S
C2504 H2489 0.960 . S
C2504 H2490 0.960 . S
C2504 H2491 0.960 . S
C2504 C2503 1.524 . S
C2505 C2502 1.403 . S
C2505 C2506 1.392 . S
C2505 C2509 1.495 . S
C2506 C2505 1.392 . S
C2506 C2507 1.385 . S
C2506 C2508 1.478 . S
C2507 H2501 0.930 . S
C2507 C2503 1.400 . S
C2507 C2506 1.385 . S
C2508 C2506 1.478 . S
C2508 C2510 1.381 . S
C2508 C2514 1.383 . S
C2509 C2505 1.495 . S
C2509 H2515 0.959 . S
C2509 H2516 0.961 . S
C2509 H2517 0.960 . S
C2510 C2508 1.381 . S
C2510 C2511 1.394 . S
C2510 H2518 0.930 . S
C2511 C2510 1.394 . S
C2511 C2512 1.383 . S
C2511 H2519 0.929 . S
C2512 C2511 1.383 . S
C2512 C2513 1.377 . S
C2513 H2497 0.930 . S
C2513 C2512 1.377 . S
C2513 C2514 1.379 . S
C2514 H2498 0.931 . S
C2514 C2508 1.383 . S
C2514 C2513 1.379 . S
H2515 C2509 0.959 . S
H2516 C2509 0.961 . S
H2517 C2509 0.960 . S
H2518 C2510 0.930 . S
H2519 C2511 0.929 . S
H2520 C2528 0.929 . S
H2521 C2530 0.930 . S
H2522 C2532 0.930 . S
H2523 C2535 0.929 . S
H2524 C2538 0.930 . S
H2525 C2540 0.960 . S
H2526 C2540 0.960 . S
H2527 C2540 0.960 . S
C2528 H2520 0.929 . S
C2528 C2529 1.377 . S
C2528 C2530 1.384 . S
C2529 C2528 1.377 . S
C2529 C2535 1.390 . S
C2530 H2521 0.930 . S
C2530 C2528 1.384 . S
C2530 C2531 1.372 . S
C2531 C2530 1.372 . S
C2531 C2532 1.400 . S
C2531 C2536 1.490 . S
C2532 H2522 0.930 . S
C2532 C2531 1.400 . S
C2532 C2535 1.386 . S
H2533 C2549 0.930 . S
H2534 C2550 0.931 . S
C2535 H2523 0.929 . S
C2535 C2529 1.390 . S
C2535 C2532 1.386 . S
C2536 C2531 1.490 . S
C2536 C2538 1.395 . S
C2536 C2539 1.403 . S
H2537 C2543 0.930 . S
C2538 H2524 0.930 . S
C2538 C2536 1.395 . S
C2538 C2541 1.403 . S
C2539 C2536 1.403 . S
C2539 C2540 1.524 . S
C2539 C2543 1.400 . S
C2540 H2525 0.960 . S
C2540 H2526 0.960 . S
C2540 H2527 0.960 . S
C2540 C2539 1.524 . S
C2541 C2538 1.403 . S
C2541 C2542 1.392 . S
C2541 C2545 1.495 . S
C2542 C2541 1.392 . S
C2542 C2543 1.385 . S
C2542 C2544 1.478 . S
C2543 H2537 0.930 . S
C2543 C2539 1.400 . S
C2543 C2542 1.385 . S
C2544 C2542 1.478 . S
C2544 C2546 1.381 . S
C2544 C2550 1.383 . S
C2545 C2541 1.495 . S
C2545 H2551 0.959 . S
C2545 H2552 0.961 . S
C2545 H2553 0.960 . S
C2546 C2544 1.381 . S
C2546 C2547 1.394 . S
C2546 H2554 0.930 . S
C2547 C2546 1.394 . S
C2547 C2548 1.383 . S
C2547 H2555 0.929 . S
C2548 C2547 1.383 . S
C2548 C2549 1.377 . S
C2549 H2533 0.930 . S
C2549 C2548 1.377 . S
C2549 C2550 1.379 . S
C2550 H2534 0.931 . S
C2550 C2544 1.383 . S
C2550 C2549 1.379 . S
H2551 C2545 0.959 . S
H2552 C2545 0.961 . S
H2553 C2545 0.960 . S
H2554 C2546 0.930 . S
H2555 C2547 0.929 . S
H2556 C2564 0.929 . S
H2557 C2566 0.930 . S
H2558 C2568 0.930 . S
H2559 C2571 0.929 . S
H2560 C2574 0.930 . S
H2561 C2576 0.960 . S
H2562 C2576 0.960 . S
H2563 C2576 0.960 . S
C2564 H2556 0.929 . S
C2564 C2565 1.377 . S
C2564 C2566 1.384 . S
C2565 C2564 1.377 . S
C2565 C2571 1.390 . S
C2566 H2557 0.930 . S
C2566 C2564 1.384 . S
C2566 C2567 1.372 . S
C2567 C2566 1.372 . S
C2567 C2568 1.400 . S
C2567 C2572 1.490 . S
C2568 H2558 0.930 . S
C2568 C2567 1.400 . S
C2568 C2571 1.386 . S
H2569 C2585 0.930 . S
H2570 C2586 0.931 . S
C2571 H2559 0.929 . S
C2571 C2565 1.390 . S
C2571 C2568 1.386 . S
C2572 C2567 1.490 . S
C2572 C2574 1.395 . S
C2572 C2575 1.403 . S
H2573 C2579 0.930 . S
C2574 H2560 0.930 . S
C2574 C2572 1.395 . S
C2574 C2577 1.403 . S
C2575 C2572 1.403 . S
C2575 C2576 1.524 . S
C2575 C2579 1.400 . S
C2576 H2561 0.960 . S
C2576 H2562 0.960 . S
C2576 H2563 0.960 . S
C2576 C2575 1.524 . S
C2577 C2574 1.403 . S
C2577 C2578 1.392 . S
C2577 C2581 1.495 . S
C2578 C2577 1.392 . S
C2578 C2579 1.385 . S
C2578 C2580 1.478 . S
C2579 H2573 0.930 . S
C2579 C2575 1.400 . S
C2579 C2578 1.385 . S
C2580 C2578 1.478 . S
C2580 C2582 1.381 . S
C2580 C2586 1.383 . S
C2581 C2577 1.495 . S
C2581 H2587 0.959 . S
C2581 H2588 0.961 . S
C2581 H2589 0.960 . S
C2582 C2580 1.381 . S
C2582 C2583 1.394 . S
C2582 H2590 0.930 . S
C2583 C2582 1.394 . S
C2583 C2584 1.383 . S
C2583 H2591 0.929 . S
C2584 C2583 1.383 . S
C2584 C2585 1.377 . S
C2585 H2569 0.930 . S
C2585 C2584 1.377 . S
C2585 C2586 1.379 . S
C2586 H2570 0.931 . S
C2586 C2580 1.383 . S
C2586 C2585 1.379 . S
H2587 C2581 0.959 . S
H2588 C2581 0.961 . S
H2589 C2581 0.960 . S
H2590 C2582 0.930 . S
H2591 C2583 0.929 . S
H2592 C2600 0.929 . S
H2593 C2602 0.930 . S
H2594 C2604 0.930 . S
H2595 C2607 0.929 . S
H2596 C2610 0.930 . S
H2597 C2612 0.960 . S
H2598 C2612 0.960 . S
H2599 C2612 0.960 . S
C2600 H2592 0.929 . S
C2600 C2601 1.377 . S
C2600 C2602 1.384 . S
C2601 C2600 1.377 . S
C2601 C2607 1.390 . S
C2602 H2593 0.930 . S
C2602 C2600 1.384 . S
C2602 C2603 1.372 . S
C2603 C2602 1.372 . S
C2603 C2604 1.400 . S
C2603 C2608 1.490 . S
C2604 H2594 0.930 . S
C2604 C2603 1.400 . S
C2604 C2607 1.386 . S
H2605 C2621 0.930 . S
H2606 C2622 0.931 . S
C2607 H2595 0.929 . S
C2607 C2601 1.390 . S
C2607 C2604 1.386 . S
C2608 C2603 1.490 . S
C2608 C2610 1.395 . S
C2608 C2611 1.403 . S
H2609 C2615 0.930 . S
C2610 H2596 0.930 . S
C2610 C2608 1.395 . S
C2610 C2613 1.403 1_554 S
C2611 C2608 1.403 . S
C2611 C2612 1.524 . S
C2611 C2615 1.400 1_554 S
C2612 H2597 0.960 . S
C2612 H2598 0.960 . S
C2612 H2599 0.960 . S
C2612 C2611 1.524 . S
C2613 C2610 1.403 1_556 S
C2613 C2614 1.392 . S
C2613 C2617 1.495 . S
C2614 C2613 1.392 . S
C2614 C2615 1.385 . S
C2614 C2616 1.478 . S
C2615 H2609 0.930 . S
C2615 C2611 1.400 1_556 S
C2615 C2614 1.385 . S
C2616 C2614 1.478 . S
C2616 C2618 1.381 . S
C2616 C2622 1.383 . S
C2617 C2613 1.495 . S
C2617 H2623 0.959 . S
C2617 H2624 0.961 . S
C2617 H2625 0.960 . S
C2618 C2616 1.381 . S
C2618 C2619 1.394 . S
C2618 H2626 0.930 . S
C2619 C2618 1.394 . S
C2619 C2620 1.383 . S
C2619 H2627 0.929 . S
C2620 C2619 1.383 . S
C2620 C2621 1.377 . S
C2621 H2605 0.930 . S
C2621 C2620 1.377 . S
C2621 C2622 1.379 . S
C2622 H2606 0.931 . S
C2622 C2616 1.383 . S
C2622 C2621 1.379 . S
H2623 C2617 0.959 . S
H2624 C2617 0.961 . S
H2625 C2617 0.960 . S
H2626 C2618 0.930 . S
H2627 C2619 0.929 . S
H2628 C2636 0.929 . S
H2629 C2638 0.930 . S
H2630 C2640 0.930 . S
H2631 C2643 0.929 . S
H2632 C2646 0.965 . S
H2633 C2648 0.960 1_554 S
H2634 C2648 0.960 . S
H2635 C2648 0.960 . S
C2636 H2628 0.929 . S
C2636 C2637 1.377 . S
C2636 C2638 1.384 . S
C2637 C2636 1.377 . S
C2637 C2643 1.390 . S
C2638 H2629 0.930 . S
C2638 C2636 1.384 . S
C2638 C2639 1.372 . S
C2639 C2638 1.372 . S
C2639 C2640 1.400 . S
C2639 C2644 1.490 . S
C2640 H2630 0.930 . S
C2640 C2639 1.400 . S
C2640 C2643 1.386 . S
H2641 C2657 0.930 . S
H2642 C2658 0.931 . S
C2643 H2631 0.929 . S
C2643 C2637 1.390 . S
C2643 C2640 1.386 . S
C2644 C2639 1.490 . S
C2644 C2646 1.417 . S
C2644 C2647 1.403 1_556 S
H2645 C2651 0.930 . S
C2646 H2632 0.965 . S
C2646 C2644 1.417 . S
C2646 C2649 1.349 1_556 S
C2647 C2644 1.403 1_554 S
C2647 C2648 1.524 1_554 S
C2647 C2651 1.400 . S
C2648 H2633 0.960 1_556 S
C2648 H2634 0.960 . S
C2648 H2635 0.960 . S
C2648 C2647 1.524 1_556 S
C2649 C2646 1.349 1_554 S
C2649 C2650 1.392 . S
C2649 C2653 1.495 . S
C2650 C2649 1.392 . S
C2650 C2651 1.385 . S
C2650 C2652 1.478 . S
C2651 H2645 0.930 . S
C2651 C2647 1.400 . S
C2651 C2650 1.385 . S
C2652 C2650 1.478 . S
C2652 C2654 1.381 . S
C2652 C2658 1.383 . S
C2653 C2649 1.495 . S
C2653 H2659 0.959 . S
C2653 H2660 0.961 . S
C2653 H2661 0.960 . S
C2654 C2652 1.381 . S
C2654 C2655 1.394 . S
C2654 H2662 0.930 . S
C2655 C2654 1.394 . S
C2655 C2656 1.383 . S
C2655 H2663 0.929 . S
C2656 C2655 1.383 . S
C2656 C2657 1.377 . S
C2657 H2641 0.930 . S
C2657 C2656 1.377 . S
C2657 C2658 1.379 . S
C2658 H2642 0.931 . S
C2658 C2652 1.383 . S
C2658 C2657 1.379 . S
H2659 C2653 0.959 . S
H2660 C2653 0.961 . S
H2661 C2653 0.960 . S
H2662 C2654 0.930 . S
H2663 C2655 0.929 . S
H2664 C2672 0.929 . S
H2665 C2674 0.930 . S
H2666 C2676 0.930 . S
H2667 C2679 0.929 . S
H2668 C2682 0.930 . S
H2669 C2684 0.960 . S
H2670 C2684 0.960 . S
H2671 C2684 0.960 . S
C2672 H2664 0.929 . S
C2672 C2673 1.377 . S
C2672 C2674 1.384 . S
C2673 C2672 1.377 . S
C2673 C2679 1.390 . S
C2674 H2665 0.930 . S
C2674 C2672 1.384 . S
C2674 C2675 1.372 . S
C2675 C2674 1.372 . S
C2675 C2676 1.400 . S
C2675 C2680 1.490 . S
C2676 H2666 0.930 . S
C2676 C2675 1.400 . S
C2676 C2679 1.386 . S
H2677 C2693 0.930 . S
H2678 C2694 0.931 . S
C2679 H2667 0.929 . S
C2679 C2673 1.390 . S
C2679 C2676 1.386 . S
C2680 C2675 1.490 . S
C2680 C2682 1.395 . S
C2680 C2683 1.403 . S
H2681 C2687 0.930 . S
C2682 H2668 0.930 . S
C2682 C2680 1.395 . S
C2682 C2685 1.403 1_554 S
C2683 C2680 1.403 . S
C2683 C2684 1.524 . S
C2683 C2687 1.400 1_554 S
C2684 H2669 0.960 . S
C2684 H2670 0.960 . S
C2684 H2671 0.960 . S
C2684 C2683 1.524 . S
C2685 C2682 1.403 1_556 S
C2685 C2686 1.392 . S
C2685 C2689 1.495 . S
C2686 C2685 1.392 . S
C2686 C2687 1.385 . S
C2686 C2688 1.478 . S
C2687 H2681 0.930 . S
C2687 C2683 1.400 1_556 S
C2687 C2686 1.385 . S
C2688 C2686 1.478 . S
C2688 C2690 1.381 . S
C2688 C2694 1.383 . S
C2689 C2685 1.495 . S
C2689 H2695 0.959 . S
C2689 H2696 0.961 . S
C2689 H2697 0.960 . S
C2690 C2688 1.381 . S
C2690 C2691 1.394 . S
C2690 H2698 0.930 . S
C2691 C2690 1.394 . S
C2691 C2692 1.383 . S
C2691 H2699 0.929 . S
C2692 C2691 1.383 . S
C2692 C2693 1.377 . S
C2693 H2677 0.930 . S
C2693 C2692 1.377 . S
C2693 C2694 1.379 . S
C2694 H2678 0.931 . S
C2694 C2688 1.383 . S
C2694 C2693 1.379 . S
H2695 C2689 0.959 . S
H2696 C2689 0.961 . S
H2697 C2689 0.960 . S
H2698 C2690 0.930 . S
H2699 C2691 0.929 . S
H2700 C2708 0.929 . S
H2701 C2710 0.930 . S
H2702 C2712 0.930 . S
H2703 C2715 0.929 . S
H2704 C2718 0.930 . S
H2705 C2720 0.960 . S
H2706 C2720 0.960 . S
H2707 C2720 0.960 . S
C2708 H2700 0.929 . S
C2708 C2709 1.377 . S
C2708 C2710 1.384 . S
C2709 C2708 1.377 . S
C2709 C2715 1.390 . S
C2710 H2701 0.930 . S
C2710 C2708 1.384 . S
C2710 C2711 1.372 . S
C2711 C2710 1.372 . S
C2711 C2712 1.400 . S
C2711 C2716 1.490 . S
C2712 H2702 0.930 . S
C2712 C2711 1.400 . S
C2712 C2715 1.386 . S
H2713 C2729 0.930 . S
H2714 C2730 0.931 . S
C2715 H2703 0.929 . S
C2715 C2709 1.390 . S
C2715 C2712 1.386 . S
C2716 C2711 1.490 . S
C2716 C2718 1.395 . S
C2716 C2719 1.403 . S
H2717 C2723 0.915 1_556 S
C2718 H2704 0.930 . S
C2718 C2716 1.395 . S
C2718 C2721 1.456 . S
C2719 C2716 1.403 . S
C2719 C2720 1.524 . S
C2719 C2723 1.430 . S
C2720 H2705 0.960 . S
C2720 H2706 0.960 . S
C2720 H2707 0.960 . S
C2720 C2719 1.524 . S
C2721 C2718 1.456 . S
C2721 C2722 1.366 1_554 S
C2721 C2725 1.472 1_554 S
C2722 C2721 1.366 1_556 S
C2722 C2723 1.370 1_556 S
C2722 C2724 1.478 . S
C2723 H2717 0.915 1_554 S
C2723 C2719 1.430 . S
C2723 C2722 1.370 1_554 S
C2724 C2722 1.478 . S
C2724 C2726 1.381 . S
C2724 C2730 1.383 . S
C2725 C2721 1.472 1_556 S
C2725 H2731 0.936 1_556 S
C2725 H2732 0.961 . S
C2725 H2733 0.960 . S
C2726 C2724 1.381 . S
C2726 C2727 1.394 . S
C2726 H2734 0.930 . S
C2727 C2726 1.394 . S
C2727 C2728 1.383 . S
C2727 H2735 0.929 . S
C2728 C2727 1.383 . S
C2728 C2729 1.377 . S
C2729 H2713 0.930 . S
C2729 C2728 1.377 . S
C2729 C2730 1.379 . S
C2730 H2714 0.931 . S
C2730 C2724 1.383 . S
C2730 C2729 1.379 . S
H2731 C2725 0.936 1_554 S
H2732 C2725 0.961 . S
H2733 C2725 0.960 . S
H2734 C2726 0.930 . S
H2735 C2727 0.929 . S
H2736 C2744 0.929 . S
H2737 C2746 0.930 . S
H2738 C2748 0.930 . S
H2739 C2751 0.929 . S
H2740 C2754 0.930 . S
H2741 C2756 0.960 . S
H2742 C2756 0.960 . S
H2743 C2756 0.960 . S
C2744 H2736 0.929 . S
C2744 C2745 1.377 . S
C2744 C2746 1.384 . S
C2745 C2744 1.377 . S
C2745 C2751 1.390 . S
C2746 H2737 0.930 . S
C2746 C2744 1.384 . S
C2746 C2747 1.372 . S
C2747 C2746 1.372 . S
C2747 C2748 1.400 . S
C2747 C2752 1.490 . S
C2748 H2738 0.930 . S
C2748 C2747 1.400 . S
C2748 C2751 1.386 . S
H2749 C2765 0.930 . S
H2750 C2766 0.931 . S
C2751 H2739 0.929 . S
C2751 C2745 1.390 . S
C2751 C2748 1.386 . S
C2752 C2747 1.490 . S
C2752 C2754 1.395 . S
C2752 C2755 1.403 . S
H2753 C2759 0.930 . S
C2754 H2740 0.930 . S
C2754 C2752 1.395 . S
C2754 C2757 1.403 1_554 S
C2755 C2752 1.403 . S
C2755 C2756 1.524 . S
C2755 C2759 1.400 1_554 S
C2756 H2741 0.960 . S
C2756 H2742 0.960 . S
C2756 H2743 0.960 . S
C2756 C2755 1.524 . S
C2757 C2754 1.403 1_556 S
C2757 C2758 1.392 . S
C2757 C2761 1.495 . S
C2758 C2757 1.392 . S
C2758 C2759 1.385 . S
C2758 C2760 1.478 . S
C2759 H2753 0.930 . S
C2759 C2755 1.400 1_556 S
C2759 C2758 1.385 . S
C2760 C2758 1.478 . S
C2760 C2762 1.381 . S
C2760 C2766 1.383 . S
C2761 C2757 1.495 . S
C2761 H2767 0.959 . S
C2761 H2768 0.961 . S
C2761 H2769 0.960 . S
C2762 C2760 1.381 . S
C2762 C2763 1.394 . S
C2762 H2770 0.930 . S
C2763 C2762 1.394 . S
C2763 C2764 1.383 . S
C2763 H2771 0.929 . S
C2764 C2763 1.383 . S
C2764 C2765 1.377 . S
C2765 H2749 0.930 . S
C2765 C2764 1.377 . S
C2765 C2766 1.379 . S
C2766 H2750 0.931 . S
C2766 C2760 1.383 . S
C2766 C2765 1.379 . S
H2767 C2761 0.959 . S
H2768 C2761 0.961 . S
H2769 C2761 0.960 . S
H2770 C2762 0.930 . S
H2771 C2763 0.929 . S
H2772 C2780 0.929 . S
H2773 C2782 0.930 . S
H2774 C2784 0.930 . S
H2775 C2787 0.929 . S
H2776 C2790 0.930 1_554 S
H2777 C2792 0.960 1_556 S
H2778 C2792 0.960 . S
H2779 C2792 0.960 . S
C2780 H2772 0.929 . S
C2780 C2781 1.377 . S
C2780 C2782 1.384 . S
C2781 C2780 1.377 . S
C2781 C2787 1.390 . S
C2782 H2773 0.930 . S
C2782 C2780 1.384 . S
C2782 C2783 1.372 . S
C2783 C2782 1.372 . S
C2783 C2784 1.400 . S
C2783 C2788 1.490 . S
C2784 H2774 0.930 . S
C2784 C2783 1.400 . S
C2784 C2787 1.386 . S
H2785 C2801 0.930 . S
H2786 C2802 0.931 . S
C2787 H2775 0.929 . S
C2787 C2781 1.390 . S
C2787 C2784 1.386 . S
C2788 C2783 1.490 . S
C2788 C2790 1.395 1_554 S
C2788 C2791 1.403 1_554 S
H2789 C2795 0.930 . S
C2790 H2776 0.930 1_556 S
C2790 C2788 1.395 1_556 S
C2790 C2793 1.403 . S
C2791 C2788 1.403 1_556 S
C2791 C2792 1.524 1_556 S
C2791 C2795 1.400 . S
C2792 H2777 0.960 1_554 S
C2792 H2778 0.960 . S
C2792 H2779 0.960 . S
C2792 C2791 1.524 1_554 S
C2793 C2790 1.403 . S
C2793 C2794 1.392 . S
C2793 C2797 1.495 . S
C2794 C2793 1.392 . S
C2794 C2795 1.385 . S
C2794 C2796 1.478 . S
C2795 H2789 0.930 . S
C2795 C2791 1.400 . S
C2795 C2794 1.385 . S
C2796 C2794 1.478 . S
C2796 C2798 1.381 . S
C2796 C2802 1.383 . S
C2797 C2793 1.495 . S
C2797 H2803 0.959 . S
C2797 H2804 0.961 . S
C2797 H2805 0.960 . S
C2798 C2796 1.381 . S
C2798 C2799 1.394 . S
C2798 H2806 0.930 . S
C2799 C2798 1.394 . S
C2799 C2800 1.383 . S
C2799 H2807 0.929 . S
C2800 C2799 1.383 . S
C2800 C2801 1.377 . S
C2801 H2785 0.930 . S
C2801 C2800 1.377 . S
C2801 C2802 1.379 . S
C2802 H2786 0.931 . S
C2802 C2796 1.383 . S
C2802 C2801 1.379 . S
H2803 C2797 0.959 . S
H2804 C2797 0.961 . S
H2805 C2797 0.960 . S
H2806 C2798 0.930 . S
H2807 C2799 0.929 . S
H2808 C2816 0.929 . S
H2809 C2818 0.930 . S
H2810 C2820 0.930 . S
H2811 C2823 0.929 . S
H2812 C2826 0.930 . S
H2813 C2828 0.960 . S
H2814 C2828 0.960 . S
H2815 C2828 0.960 . S
C2816 H2808 0.929 . S
C2816 C2817 1.377 . S
C2816 C2818 1.384 . S
C2817 C2816 1.377 . S
C2817 C2823 1.390 . S
C2818 H2809 0.930 . S
C2818 C2816 1.384 . S
C2818 C2819 1.372 . S
C2819 C2818 1.372 . S
C2819 C2820 1.400 . S
C2819 C2824 1.490 . S
C2820 H2810 0.930 . S
C2820 C2819 1.400 . S
C2820 C2823 1.386 . S
H2821 C2837 0.930 . S
H2822 C2838 0.931 . S
C2823 H2811 0.929 . S
C2823 C2817 1.390 . S
C2823 C2820 1.386 . S
C2824 C2819 1.490 . S
C2824 C2826 1.395 . S
C2824 C2827 1.403 . S
H2825 C2831 0.930 . S
C2826 H2812 0.930 . S
C2826 C2824 1.395 . S
C2826 C2829 1.403 1_556 S
C2827 C2824 1.403 . S
C2827 C2828 1.524 . S
C2827 C2831 1.400 1_556 S
C2828 H2813 0.960 . S
C2828 H2814 0.960 . S
C2828 H2815 0.960 . S
C2828 C2827 1.524 . S
C2829 C2826 1.403 1_554 S
C2829 C2830 1.392 . S
C2829 C2833 1.495 . S
C2830 C2829 1.392 . S
C2830 C2831 1.385 . S
C2830 C2832 1.478 . S
C2831 H2825 0.930 . S
C2831 C2827 1.400 1_554 S
C2831 C2830 1.385 . S
C2832 C2830 1.478 . S
C2832 C2834 1.381 . S
C2832 C2838 1.383 . S
C2833 C2829 1.495 . S
C2833 H2839 0.959 . S
C2833 H2840 0.961 . S
C2833 H2841 0.960 . S
C2834 C2832 1.381 . S
C2834 C2835 1.394 . S
C2834 H2842 0.930 . S
C2835 C2834 1.394 . S
C2835 C2836 1.383 . S
C2835 H2843 0.929 . S
C2836 C2835 1.383 . S
C2836 C2837 1.377 . S
C2837 H2821 0.930 . S
C2837 C2836 1.377 . S
C2837 C2838 1.379 . S
C2838 H2822 0.931 . S
C2838 C2832 1.383 . S
C2838 C2837 1.379 . S
H2839 C2833 0.959 . S
H2840 C2833 0.961 . S
H2841 C2833 0.960 . S
H2842 C2834 0.930 . S
H2843 C2835 0.929 . S
H2844 C2852 0.929 . S
H2845 C2854 0.930 . S
H2846 C2856 0.930 . S
H2847 C2859 0.929 . S
H2848 C2862 0.930 . S
H2849 C2864 0.960 . S
H2850 C2864 0.960 . S
H2851 C2864 0.960 . S
C2852 H2844 0.929 . S
C2852 C2853 1.377 . S
C2852 C2854 1.384 . S
C2853 C2852 1.377 . S
C2853 C2859 1.390 . S
C2854 H2845 0.930 . S
C2854 C2852 1.384 . S
C2854 C2855 1.372 . S
C2855 C2854 1.372 . S
C2855 C2856 1.400 . S
C2855 C2860 1.490 . S
C2856 H2846 0.930 . S
C2856 C2855 1.400 . S
C2856 C2859 1.386 . S
H2857 C2873 0.930 . S
H2858 C2874 0.931 . S
C2859 H2847 0.929 . S
C2859 C2853 1.390 . S
C2859 C2856 1.386 . S
C2860 C2855 1.490 . S
C2860 C2862 1.395 . S
C2860 C2863 1.403 . S
H2861 C2867 0.938 . S
C2862 H2848 0.930 . S
C2862 C2860 1.395 . S
C2862 C2865 1.403 . S
C2863 C2860 1.403 . S
C2863 C2864 1.524 . S
C2863 C2867 1.386 1_556 S
C2864 H2849 0.960 . S
C2864 H2850 0.960 . S
C2864 H2851 0.960 . S
C2864 C2863 1.524 . S
C2865 C2862 1.403 . S
C2865 C2866 1.392 1_556 S
C2865 C2869 1.495 1_556 S
C2866 C2865 1.392 1_554 S
C2866 C2867 1.391 . S
C2866 C2868 1.478 . S
C2867 H2861 0.938 . S
C2867 C2863 1.386 1_554 S
C2867 C2866 1.391 . S
C2868 C2866 1.478 . S
C2868 C2870 1.381 . S
C2868 C2874 1.383 . S
C2869 C2865 1.495 1_554 S
C2869 H2875 0.959 1_554 S
C2869 H2876 0.961 . S
C2869 H2877 0.960 . S
C2870 C2868 1.381 . S
C2870 C2871 1.394 . S
C2870 H2878 0.930 . S
C2871 C2870 1.394 . S
C2871 C2872 1.383 . S
C2871 H2879 0.929 . S
C2872 C2871 1.383 . S
C2872 C2873 1.377 . S
C2873 H2857 0.930 . S
C2873 C2872 1.377 . S
C2873 C2874 1.379 . S
C2874 H2858 0.931 . S
C2874 C2868 1.383 . S
C2874 C2873 1.379 . S
H2875 C2869 0.959 1_556 S
H2876 C2869 0.961 . S
H2877 C2869 0.960 . S
H2878 C2870 0.930 . S
H2879 C2871 0.929 . S
H2880 C2888 0.929 . S
H2881 C2890 0.930 . S
H2882 C2892 0.930 . S
H2883 C2895 0.929 . S
H2884 C2898 0.930 . S
H2885 C2900 0.960 . S
H2886 C2900 0.960 . S
H2887 C2900 0.960 . S
C2888 H2880 0.929 . S
C2888 C2889 1.377 . S
C2888 C2890 1.384 . S
C2889 C2888 1.377 . S
C2889 C2895 1.390 . S
C2890 H2881 0.930 . S
C2890 C2888 1.384 . S
C2890 C2891 1.372 . S
C2891 C2890 1.372 . S
C2891 C2892 1.400 . S
C2891 C2896 1.490 . S
C2892 H2882 0.930 . S
C2892 C2891 1.400 . S
C2892 C2895 1.386 . S
H2893 C2909 0.930 . S
H2894 C2910 0.931 . S
C2895 H2883 0.929 . S
C2895 C2889 1.390 . S
C2895 C2892 1.386 . S
C2896 C2891 1.490 . S
C2896 C2898 1.395 . S
C2896 C2899 1.403 . S
H2897 C2903 0.930 . S
C2898 H2884 0.930 . S
C2898 C2896 1.395 . S
C2898 C2901 1.403 . S
C2899 C2896 1.403 . S
C2899 C2900 1.524 . S
C2899 C2903 1.400 . S
C2900 H2885 0.960 . S
C2900 H2886 0.960 . S
C2900 H2887 0.960 . S
C2900 C2899 1.524 . S
C2901 C2898 1.403 . S
C2901 C2902 1.392 . S
C2901 C2905 1.495 . S
C2902 C2901 1.392 . S
C2902 C2903 1.385 . S
C2902 C2904 1.478 . S
C2903 H2897 0.930 . S
C2903 C2899 1.400 . S
C2903 C2902 1.385 . S
C2904 C2902 1.478 . S
C2904 C2906 1.381 . S
C2904 C2910 1.383 . S
C2905 C2901 1.495 . S
C2905 H2911 0.959 . S
C2905 H2912 0.961 . S
C2905 H2913 0.960 . S
C2906 C2904 1.381 . S
C2906 C2907 1.394 . S
C2906 H2914 0.930 . S
C2907 C2906 1.394 . S
C2907 C2908 1.383 . S
C2907 H2915 0.929 . S
C2908 C2907 1.383 . S
C2908 C2909 1.377 . S
C2909 H2893 0.930 . S
C2909 C2908 1.377 . S
C2909 C2910 1.379 . S
C2910 H2894 0.931 . S
C2910 C2904 1.383 . S
C2910 C2909 1.379 . S
H2911 C2905 0.959 . S
H2912 C2905 0.961 . S
H2913 C2905 0.960 . S
H2914 C2906 0.930 . S
H2915 C2907 0.929 . S
H2916 C2924 0.929 . S
H2917 C2926 0.930 . S
H2918 C2928 0.930 . S
H2919 C2931 0.929 . S
H2920 C2934 0.930 . S
H2921 C2936 0.960 . S
H2922 C2936 0.960 . S
H2923 C2936 0.960 . S
C2924 H2916 0.929 . S
C2924 C2925 1.377 . S
C2924 C2926 1.384 . S
C2925 C2924 1.377 . S
C2925 C2931 1.390 . S
C2926 H2917 0.930 . S
C2926 C2924 1.384 . S
C2926 C2927 1.372 . S
C2927 C2926 1.372 . S
C2927 C2928 1.400 . S
C2927 C2932 1.490 . S
C2928 H2918 0.930 . S
C2928 C2927 1.400 . S
C2928 C2931 1.386 . S
H2929 C2945 0.930 . S
H2930 C2946 0.931 . S
C2931 H2919 0.929 . S
C2931 C2925 1.390 . S
C2931 C2928 1.386 . S
C2932 C2927 1.490 . S
C2932 C2934 1.395 . S
C2932 C2935 1.403 . S
H2933 C2939 0.930 . S
C2934 H2920 0.930 . S
C2934 C2932 1.395 . S
C2934 C2937 1.403 . S
C2935 C2932 1.403 . S
C2935 C2936 1.524 . S
C2935 C2939 1.400 . S
C2936 H2921 0.960 . S
C2936 H2922 0.960 . S
C2936 H2923 0.960 . S
C2936 C2935 1.524 . S
C2937 C2934 1.403 . S
C2937 C2938 1.392 . S
C2937 C2941 1.495 . S
C2938 C2937 1.392 . S
C2938 C2939 1.385 . S
C2938 C2940 1.478 . S
C2939 H2933 0.930 . S
C2939 C2935 1.400 . S
C2939 C2938 1.385 . S
C2940 C2938 1.478 . S
C2940 C2942 1.381 . S
C2940 C2946 1.383 . S
C2941 C2937 1.495 . S
C2941 H2947 0.959 . S
C2941 H2948 0.961 . S
C2941 H2949 0.960 . S
C2942 C2940 1.381 . S
C2942 C2943 1.394 . S
C2942 H2950 0.930 . S
C2943 C2942 1.394 . S
C2943 C2944 1.383 . S
C2943 H2951 0.929 . S
C2944 C2943 1.383 . S
C2944 C2945 1.377 . S
C2945 H2929 0.930 . S
C2945 C2944 1.377 . S
C2945 C2946 1.379 . S
C2946 H2930 0.931 . S
C2946 C2940 1.383 . S
C2946 C2945 1.379 . S
H2947 C2941 0.959 . S
H2948 C2941 0.961 . S
H2949 C2941 0.960 . S
H2950 C2942 0.930 . S
H2951 C2943 0.929 . S
H2952 C2960 0.929 . S
H2953 C2962 0.930 . S
H2954 C2964 0.930 . S
H2955 C2967 0.929 . S
H2956 C2970 0.930 . S
H2957 C2972 0.960 . S
H2958 C2972 0.960 . S
H2959 C2972 0.960 . S
C2960 H2952 0.929 . S
C2960 C2961 1.377 . S
C2960 C2962 1.384 . S
C2961 C2960 1.377 . S
C2961 C2967 1.390 . S
C2962 H2953 0.930 . S
C2962 C2960 1.384 . S
C2962 C2963 1.372 . S
C2963 C2962 1.372 . S
C2963 C2964 1.400 . S
C2963 C2968 1.490 . S
C2964 H2954 0.930 . S
C2964 C2963 1.400 . S
C2964 C2967 1.386 . S
H2965 C2981 0.930 . S
H2966 C2982 0.931 . S
C2967 H2955 0.929 . S
C2967 C2961 1.390 . S
C2967 C2964 1.386 . S
C2968 C2963 1.490 . S
C2968 C2970 1.395 . S
C2968 C2971 1.403 . S
H2969 C2975 0.930 . S
C2970 H2956 0.930 . S
C2970 C2968 1.395 . S
C2970 C2973 1.403 . S
C2971 C2968 1.403 . S
C2971 C2972 1.524 . S
C2971 C2975 1.400 . S
C2972 H2957 0.960 . S
C2972 H2958 0.960 . S
C2972 H2959 0.960 . S
C2972 C2971 1.524 . S
C2973 C2970 1.403 . S
C2973 C2974 1.392 . S
C2973 C2977 1.495 . S
C2974 C2973 1.392 . S
C2974 C2975 1.385 . S
C2974 C2976 1.478 . S
C2975 H2969 0.930 . S
C2975 C2971 1.400 . S
C2975 C2974 1.385 . S
C2976 C2974 1.478 . S
C2976 C2978 1.381 . S
C2976 C2982 1.383 . S
C2977 C2973 1.495 . S
C2977 H2983 0.959 . S
C2977 H2984 0.961 . S
C2977 H2985 0.960 . S
C2978 C2976 1.381 . S
C2978 C2979 1.394 . S
C2978 H2986 0.930 . S
C2979 C2978 1.394 . S
C2979 C2980 1.383 . S
C2979 H2987 0.929 . S
C2980 C2979 1.383 . S
C2980 C2981 1.377 . S
C2981 H2965 0.930 . S
C2981 C2980 1.377 . S
C2981 C2982 1.379 . S
C2982 H2966 0.931 . S
C2982 C2976 1.383 . S
C2982 C2981 1.379 . S
H2983 C2977 0.959 . S
H2984 C2977 0.961 . S
H2985 C2977 0.960 . S
H2986 C2978 0.930 . S
H2987 C2979 0.929 . S
H2988 C2996 0.929 . S
H2989 C2998 0.930 . S
H2990 C3000 0.930 . S
H2991 C3003 0.929 . S
H2992 C3006 0.930 . S
H2993 C3008 0.960 . S
H2994 C3008 0.960 . S
H2995 C3008 0.960 . S
C2996 H2988 0.929 . S
C2996 C2997 1.377 . S
C2996 C2998 1.384 . S
C2997 C2996 1.377 . S
C2997 C3003 1.390 . S
C2998 H2989 0.930 . S
C2998 C2996 1.384 . S
C2998 C2999 1.372 . S
C2999 C2998 1.372 . S
C2999 C3000 1.400 . S
C2999 C3004 1.490 . S
C3000 H2990 0.930 . S
C3000 C2999 1.400 . S
C3000 C3003 1.386 . S
H3001 C3017 0.930 . S
H3002 C3018 0.931 . S
C3003 H2991 0.929 . S
C3003 C2997 1.390 . S
C3003 C3000 1.386 . S
C3004 C2999 1.490 . S
C3004 C3006 1.395 . S
C3004 C3007 1.403 . S
H3005 C3011 0.930 . S
C3006 H2992 0.930 . S
C3006 C3004 1.395 . S
C3006 C3009 1.403 . S
C3007 C3004 1.403 . S
C3007 C3008 1.524 . S
C3007 C3011 1.400 . S
C3008 H2993 0.960 . S
C3008 H2994 0.960 . S
C3008 H2995 0.960 . S
C3008 C3007 1.524 . S
C3009 C3006 1.403 . S
C3009 C3010 1.392 . S
C3009 C3013 1.495 . S
C3010 C3009 1.392 . S
C3010 C3011 1.385 . S
C3010 C3012 1.478 . S
C3011 H3005 0.930 . S
C3011 C3007 1.400 . S
C3011 C3010 1.385 . S
C3012 C3010 1.478 . S
C3012 C3014 1.381 . S
C3012 C3018 1.383 . S
C3013 C3009 1.495 . S
C3013 H3019 0.959 . S
C3013 H3020 0.961 . S
C3013 H3021 0.960 . S
C3014 C3012 1.381 . S
C3014 C3015 1.394 . S
C3014 H3022 0.930 . S
C3015 C3014 1.394 . S
C3015 C3016 1.383 . S
C3015 H3023 0.929 . S
C3016 C3015 1.383 . S
C3016 C3017 1.377 . S
C3017 H3001 0.930 . S
C3017 C3016 1.377 . S
C3017 C3018 1.379 . S
C3018 H3002 0.931 . S
C3018 C3012 1.383 . S
C3018 C3017 1.379 . S
H3019 C3013 0.959 . S
H3020 C3013 0.961 . S
H3021 C3013 0.960 . S
H3022 C3014 0.930 . S
H3023 C3015 0.929 . S
H3024 C3032 0.929 . S
H3025 C3034 0.930 . S
H3026 C3036 0.930 . S
H3027 C3039 0.929 . S
H3028 C3042 0.930 . S
H3029 C3044 0.960 . S
H3030 C3044 0.960 . S
H3031 C3044 0.960 . S
C3032 H3024 0.929 . S
C3032 C3033 1.377 . S
C3032 C3034 1.384 . S
C3033 C3032 1.377 . S
C3033 C3039 1.390 . S
C3034 H3025 0.930 . S
C3034 C3032 1.384 . S
C3034 C3035 1.372 . S
C3035 C3034 1.372 . S
C3035 C3036 1.400 . S
C3035 C3040 1.490 . S
C3036 H3026 0.930 . S
C3036 C3035 1.400 . S
C3036 C3039 1.386 . S
H3037 C3053 0.930 . S
H3038 C3054 0.931 . S
C3039 H3027 0.929 . S
C3039 C3033 1.390 . S
C3039 C3036 1.386 . S
C3040 C3035 1.490 . S
C3040 C3042 1.395 . S
C3040 C3043 1.403 . S
H3041 C3047 0.930 . S
C3042 H3028 0.930 . S
C3042 C3040 1.395 . S
C3042 C3045 1.403 . S
C3043 C3040 1.403 . S
C3043 C3044 1.524 . S
C3043 C3047 1.400 . S
C3044 H3029 0.960 . S
C3044 H3030 0.960 . S
C3044 H3031 0.960 . S
C3044 C3043 1.524 . S
C3045 C3042 1.403 . S
C3045 C3046 1.392 . S
C3045 C3049 1.495 . S
C3046 C3045 1.392 . S
C3046 C3047 1.385 . S
C3046 C3048 1.478 . S
C3047 H3041 0.930 . S
C3047 C3043 1.400 . S
C3047 C3046 1.385 . S
C3048 C3046 1.478 . S
C3048 C3050 1.381 . S
C3048 C3054 1.383 . S
C3049 C3045 1.495 . S
C3049 H3055 0.959 . S
C3049 H3056 0.961 . S
C3049 H3057 0.960 . S
C3050 C3048 1.381 . S
C3050 C3051 1.394 . S
C3050 H3058 0.930 . S
C3051 C3050 1.394 . S
C3051 C3052 1.383 . S
C3051 H3059 0.929 . S
C3052 C3051 1.383 . S
C3052 C3053 1.377 . S
C3053 H3037 0.930 . S
C3053 C3052 1.377 . S
C3053 C3054 1.379 . S
C3054 H3038 0.931 . S
C3054 C3048 1.383 . S
C3054 C3053 1.379 . S
H3055 C3049 0.959 . S
H3056 C3049 0.961 . S
H3057 C3049 0.960 . S
H3058 C3050 0.930 . S
H3059 C3051 0.929 . S
H3060 C3068 0.929 . S
H3061 C3070 0.930 . S
H3062 C3072 0.930 . S
H3063 C3075 0.929 . S
H3064 C3078 0.930 . S
H3065 C3080 0.960 . S
H3066 C3080 0.960 . S
H3067 C3080 0.960 . S
C3068 H3060 0.929 . S
C3068 C3069 1.377 . S
C3068 C3070 1.384 . S
C3069 C3068 1.377 . S
C3069 C3075 1.390 . S
C3070 H3061 0.930 . S
C3070 C3068 1.384 . S
C3070 C3071 1.372 . S
C3071 C3070 1.372 . S
C3071 C3072 1.400 . S
C3071 C3076 1.490 . S
C3072 H3062 0.930 . S
C3072 C3071 1.400 . S
C3072 C3075 1.386 . S
H3073 C3089 0.930 . S
H3074 C3090 0.931 . S
C3075 H3063 0.929 . S
C3075 C3069 1.390 . S
C3075 C3072 1.386 . S
C3076 C3071 1.490 . S
C3076 C3078 1.395 . S
C3076 C3079 1.403 . S
H3077 C3083 0.930 . S
C3078 H3064 0.930 . S
C3078 C3076 1.395 . S
C3078 C3081 1.403 . S
C3079 C3076 1.403 . S
C3079 C3080 1.524 . S
C3079 C3083 1.400 . S
C3080 H3065 0.960 . S
C3080 H3066 0.960 . S
C3080 H3067 0.960 . S
C3080 C3079 1.524 . S
C3081 C3078 1.403 . S
C3081 C3082 1.392 . S
C3081 C3085 1.495 . S
C3082 C3081 1.392 . S
C3082 C3083 1.385 . S
C3082 C3084 1.478 . S
C3083 H3077 0.930 . S
C3083 C3079 1.400 . S
C3083 C3082 1.385 . S
C3084 C3082 1.478 . S
C3084 C3086 1.381 . S
C3084 C3090 1.383 . S
C3085 C3081 1.495 . S
C3085 H3091 0.959 . S
C3085 H3092 0.961 . S
C3085 H3093 0.960 . S
C3086 C3084 1.381 . S
C3086 C3087 1.394 . S
C3086 H3094 0.930 . S
C3087 C3086 1.394 . S
C3087 C3088 1.383 . S
C3087 H3095 0.929 . S
C3088 C3087 1.383 . S
C3088 C3089 1.377 . S
C3089 H3073 0.930 . S
C3089 C3088 1.377 . S
C3089 C3090 1.379 . S
C3090 H3074 0.931 . S
C3090 C3084 1.383 . S
C3090 C3089 1.379 . S
H3091 C3085 0.959 . S
H3092 C3085 0.961 . S
H3093 C3085 0.960 . S
H3094 C3086 0.930 . S
H3095 C3087 0.929 . S
H3096 C3104 0.929 . S
H3097 C3106 0.930 . S
H3098 C3108 0.930 . S
H3099 C3111 0.929 . S
H3100 C3114 0.930 . S
H3101 C3116 0.960 . S
H3102 C3116 0.960 . S
H3103 C3116 0.960 . S
C3104 H3096 0.929 . S
C3104 C3105 1.377 . S
C3104 C3106 1.384 . S
C3105 C3104 1.377 . S
C3105 C3111 1.390 . S
C3106 H3097 0.930 . S
C3106 C3104 1.384 . S
C3106 C3107 1.372 . S
C3107 C3106 1.372 . S
C3107 C3108 1.400 . S
C3107 C3112 1.490 . S
C3108 H3098 0.930 . S
C3108 C3107 1.400 . S
C3108 C3111 1.386 . S
H3109 C3125 0.930 . S
H3110 C3126 0.931 . S
C3111 H3099 0.929 . S
C3111 C3105 1.390 . S
C3111 C3108 1.386 . S
C3112 C3107 1.490 . S
C3112 C3114 1.395 . S
C3112 C3115 1.403 . S
H3113 C3119 0.930 . S
C3114 H3100 0.930 . S
C3114 C3112 1.395 . S
C3114 C3117 1.403 . S
C3115 C3112 1.403 . S
C3115 C3116 1.524 . S
C3115 C3119 1.400 . S
C3116 H3101 0.960 . S
C3116 H3102 0.960 . S
C3116 H3103 0.960 . S
C3116 C3115 1.524 . S
C3117 C3114 1.403 . S
C3117 C3118 1.392 . S
C3117 C3121 1.495 . S
C3118 C3117 1.392 . S
C3118 C3119 1.385 . S
C3118 C3120 1.478 . S
C3119 H3113 0.930 . S
C3119 C3115 1.400 . S
C3119 C3118 1.385 . S
C3120 C3118 1.478 . S
C3120 C3122 1.381 . S
C3120 C3126 1.383 . S
C3121 C3117 1.495 . S
C3121 H3127 0.959 . S
C3121 H3128 0.961 . S
C3121 H3129 0.960 . S
C3122 C3120 1.381 . S
C3122 C3123 1.394 . S
C3122 H3130 0.930 . S
C3123 C3122 1.394 . S
C3123 C3124 1.383 . S
C3123 H3131 0.929 . S
C3124 C3123 1.383 . S
C3124 C3125 1.377 . S
C3125 H3109 0.930 . S
C3125 C3124 1.377 . S
C3125 C3126 1.379 . S
C3126 H3110 0.931 . S
C3126 C3120 1.383 . S
C3126 C3125 1.379 . S
H3127 C3121 0.959 . S
H3128 C3121 0.961 . S
H3129 C3121 0.960 . S
H3130 C3122 0.930 . S
H3131 C3123 0.929 . S
H3132 C3140 0.929 . S
H3133 C3142 0.930 . S
H3134 C3144 0.930 . S
H3135 C3147 0.929 . S
H3136 C3150 0.930 . S
H3137 C3152 0.960 . S
H3138 C3152 0.960 . S
H3139 C3152 0.960 . S
C3140 H3132 0.929 . S
C3140 C3141 1.377 . S
C3140 C3142 1.384 . S
C3141 C3140 1.377 . S
C3141 C3147 1.390 . S
C3142 H3133 0.930 . S
C3142 C3140 1.384 . S
C3142 C3143 1.372 . S
C3143 C3142 1.372 . S
C3143 C3144 1.400 . S
C3143 C3148 1.490 . S
C3144 H3134 0.930 . S
C3144 C3143 1.400 . S
C3144 C3147 1.386 . S
H3145 C3161 0.930 . S
H3146 C3162 0.931 . S
C3147 H3135 0.929 . S
C3147 C3141 1.390 . S
C3147 C3144 1.386 . S
C3148 C3143 1.490 . S
C3148 C3150 1.395 . S
C3148 C3151 1.403 . S
H3149 C3155 0.930 . S
C3150 H3136 0.930 . S
C3150 C3148 1.395 . S
C3150 C3153 1.403 . S
C3151 C3148 1.403 . S
C3151 C3152 1.524 . S
C3151 C3155 1.400 . S
C3152 H3137 0.960 . S
C3152 H3138 0.960 . S
C3152 H3139 0.960 . S
C3152 C3151 1.524 . S
C3153 C3150 1.403 . S
C3153 C3154 1.392 . S
C3153 C3157 1.495 . S
C3154 C3153 1.392 . S
C3154 C3155 1.385 . S
C3154 C3156 1.478 . S
C3155 H3149 0.930 . S
C3155 C3151 1.400 . S
C3155 C3154 1.385 . S
C3156 C3154 1.478 . S
C3156 C3158 1.381 . S
C3156 C3162 1.383 . S
C3157 C3153 1.495 . S
C3157 H3163 0.959 . S
C3157 H3164 0.961 . S
C3157 H3165 0.960 . S
C3158 C3156 1.381 . S
C3158 C3159 1.394 . S
C3158 H3166 0.930 . S
C3159 C3158 1.394 . S
C3159 C3160 1.383 . S
C3159 H3167 0.929 . S
C3160 C3159 1.383 . S
C3160 C3161 1.377 . S
C3161 H3145 0.930 . S
C3161 C3160 1.377 . S
C3161 C3162 1.379 . S
C3162 H3146 0.931 . S
C3162 C3156 1.383 . S
C3162 C3161 1.379 . S
H3163 C3157 0.959 . S
H3164 C3157 0.961 . S
H3165 C3157 0.960 . S
H3166 C3158 0.930 . S
H3167 C3159 0.929 . S
H3168 C3176 0.929 . S
H3169 C3178 0.930 . S
H3170 C3180 0.930 . S
H3171 C3183 0.929 . S
H3172 C3186 0.930 . S
H3173 C3188 0.960 . S
H3174 C3188 0.960 . S
H3175 C3188 0.960 . S
C3176 H3168 0.929 . S
C3176 C3177 1.377 . S
C3176 C3178 1.384 . S
C3177 C3176 1.377 . S
C3177 C3183 1.390 . S
C3178 H3169 0.930 . S
C3178 C3176 1.384 . S
C3178 C3179 1.372 . S
C3179 C3178 1.372 . S
C3179 C3180 1.400 . S
C3179 C3184 1.490 . S
C3180 H3170 0.930 . S
C3180 C3179 1.400 . S
C3180 C3183 1.386 . S
H3181 C3197 0.930 . S
H3182 C3198 0.931 . S
C3183 H3171 0.929 . S
C3183 C3177 1.390 . S
C3183 C3180 1.386 . S
C3184 C3179 1.490 . S
C3184 C3186 1.395 . S
C3184 C3187 1.403 . S
H3185 C3191 0.930 . S
C3186 H3172 0.930 . S
C3186 C3184 1.395 . S
C3186 C3189 1.403 . S
C3187 C3184 1.403 . S
C3187 C3188 1.524 . S
C3187 C3191 1.400 . S
C3188 H3173 0.960 . S
C3188 H3174 0.960 . S
C3188 H3175 0.960 . S
C3188 C3187 1.524 . S
C3189 C3186 1.403 . S
C3189 C3190 1.392 . S
C3189 C3193 1.495 . S
C3190 C3189 1.392 . S
C3190 C3191 1.385 . S
C3190 C3192 1.478 . S
C3191 H3185 0.930 . S
C3191 C3187 1.400 . S
C3191 C3190 1.385 . S
C3192 C3190 1.478 . S
C3192 C3194 1.381 . S
C3192 C3198 1.383 . S
C3193 C3189 1.495 . S
C3193 H3199 0.959 . S
C3193 H3200 0.961 . S
C3193 H3201 0.960 . S
C3194 C3192 1.381 . S
C3194 C3195 1.394 . S
C3194 H3202 0.930 . S
C3195 C3194 1.394 . S
C3195 C3196 1.383 . S
C3195 H3203 0.929 . S
C3196 C3195 1.383 . S
C3196 C3197 1.377 . S
C3197 H3181 0.930 . S
C3197 C3196 1.377 . S
C3197 C3198 1.379 . S
C3198 H3182 0.931 . S
C3198 C3192 1.383 . S
C3198 C3197 1.379 . S
H3199 C3193 0.959 . S
H3200 C3193 0.961 . S
H3201 C3193 0.960 . S
H3202 C3194 0.930 . S
H3203 C3195 0.929 . S
H3204 C3212 0.929 . S
H3205 C3214 0.930 . S
H3206 C3216 0.930 . S
H3207 C3219 0.929 . S
H3208 C3222 0.930 . S
H3209 C3224 0.960 . S
H3210 C3224 0.960 . S
H3211 C3224 0.960 . S
C3212 H3204 0.929 . S
C3212 C3213 1.377 . S
C3212 C3214 1.384 . S
C3213 C3212 1.377 . S
C3213 C3219 1.390 . S
C3214 H3205 0.930 . S
C3214 C3212 1.384 . S
C3214 C3215 1.372 . S
C3215 C3214 1.372 . S
C3215 C3216 1.400 . S
C3215 C3220 1.490 . S
C3216 H3206 0.930 . S
C3216 C3215 1.400 . S
C3216 C3219 1.386 . S
H3217 C3233 0.930 . S
H3218 C3234 0.931 . S
C3219 H3207 0.929 . S
C3219 C3213 1.390 . S
C3219 C3216 1.386 . S
C3220 C3215 1.490 . S
C3220 C3222 1.395 . S
C3220 C3223 1.403 . S
H3221 C3227 0.930 . S
C3222 H3208 0.930 . S
C3222 C3220 1.395 . S
C3222 C3225 1.403 . S
C3223 C3220 1.403 . S
C3223 C3224 1.524 . S
C3223 C3227 1.400 . S
C3224 H3209 0.960 . S
C3224 H3210 0.960 . S
C3224 H3211 0.960 . S
C3224 C3223 1.524 . S
C3225 C3222 1.403 . S
C3225 C3226 1.392 . S
C3225 C3229 1.495 . S
C3226 C3225 1.392 . S
C3226 C3227 1.385 . S
C3226 C3228 1.478 . S
C3227 H3221 0.930 . S
C3227 C3223 1.400 . S
C3227 C3226 1.385 . S
C3228 C3226 1.478 . S
C3228 C3230 1.381 . S
C3228 C3234 1.383 . S
C3229 C3225 1.495 . S
C3229 H3235 0.959 . S
C3229 H3236 0.961 . S
C3229 H3237 0.960 . S
C3230 C3228 1.381 . S
C3230 C3231 1.394 . S
C3230 H3238 0.930 . S
C3231 C3230 1.394 . S
C3231 C3232 1.383 . S
C3231 H3239 0.929 . S
C3232 C3231 1.383 . S
C3232 C3233 1.377 . S
C3233 H3217 0.930 . S
C3233 C3232 1.377 . S
C3233 C3234 1.379 . S
C3234 H3218 0.931 . S
C3234 C3228 1.383 . S
C3234 C3233 1.379 . S
H3235 C3229 0.959 . S
H3236 C3229 0.961 . S
H3237 C3229 0.960 . S
H3238 C3230 0.930 . S
H3239 C3231 0.929 . S
H3240 C3248 0.929 . S
H3241 C3250 0.930 . S
H3242 C3252 0.930 . S
H3243 C3255 0.929 . S
H3244 C3258 0.930 . S
H3245 C3260 0.960 . S
H3246 C3260 0.960 . S
H3247 C3260 0.960 . S
C3248 H3240 0.929 . S
C3248 C3249 1.377 . S
C3248 C3250 1.384 . S
C3249 C3248 1.377 . S
C3249 C3255 1.390 . S
C3250 H3241 0.930 . S
C3250 C3248 1.384 . S
C3250 C3251 1.372 . S
C3251 C3250 1.372 . S
C3251 C3252 1.400 . S
C3251 C3256 1.490 . S
C3252 H3242 0.930 . S
C3252 C3251 1.400 . S
C3252 C3255 1.386 . S
H3253 C3269 0.930 . S
H3254 C3270 0.931 . S
C3255 H3243 0.929 . S
C3255 C3249 1.390 . S
C3255 C3252 1.386 . S
C3256 C3251 1.490 . S
C3256 C3258 1.395 . S
C3256 C3259 1.403 . S
H3257 C3263 0.930 . S
C3258 H3244 0.930 . S
C3258 C3256 1.395 . S
C3258 C3261 1.403 . S
C3259 C3256 1.403 . S
C3259 C3260 1.524 . S
C3259 C3263 1.400 . S
C3260 H3245 0.960 . S
C3260 H3246 0.960 . S
C3260 H3247 0.960 . S
C3260 C3259 1.524 . S
C3261 C3258 1.403 . S
C3261 C3262 1.392 . S
C3261 C3265 1.495 . S
C3262 C3261 1.392 . S
C3262 C3263 1.385 . S
C3262 C3264 1.478 . S
C3263 H3257 0.930 . S
C3263 C3259 1.400 . S
C3263 C3262 1.385 . S
C3264 C3262 1.478 . S
C3264 C3266 1.381 . S
C3264 C3270 1.383 . S
C3265 C3261 1.495 . S
C3265 H3271 0.959 . S
C3265 H3272 0.961 . S
C3265 H3273 0.960 . S
C3266 C3264 1.381 . S
C3266 C3267 1.394 . S
C3266 H3274 0.930 . S
C3267 C3266 1.394 . S
C3267 C3268 1.383 . S
C3267 H3275 0.929 . S
C3268 C3267 1.383 . S
C3268 C3269 1.377 . S
C3269 H3253 0.930 . S
C3269 C3268 1.377 . S
C3269 C3270 1.379 . S
C3270 H3254 0.931 . S
C3270 C3264 1.383 . S
C3270 C3269 1.379 . S
H3271 C3265 0.959 . S
H3272 C3265 0.961 . S
H3273 C3265 0.960 . S
H3274 C3266 0.930 . S
H3275 C3267 0.929 . S
H3276 C3284 0.929 . S
H3277 C3286 0.930 . S
H3278 C3288 0.930 . S
H3279 C3291 0.929 . S
H3280 C3294 0.930 . S
H3281 C3296 0.960 . S
H3282 C3296 0.960 . S
H3283 C3296 0.960 . S
C3284 H3276 0.929 . S
C3284 C3285 1.377 . S
C3284 C3286 1.384 . S
C3285 C3284 1.377 . S
C3285 C3291 1.390 . S
C3286 H3277 0.930 . S
C3286 C3284 1.384 . S
C3286 C3287 1.372 . S
C3287 C3286 1.372 . S
C3287 C3288 1.400 . S
C3287 C3292 1.490 . S
C3288 H3278 0.930 . S
C3288 C3287 1.400 . S
C3288 C3291 1.386 . S
H3289 C3305 0.930 . S
H3290 C3306 0.931 . S
C3291 H3279 0.929 . S
C3291 C3285 1.390 . S
C3291 C3288 1.386 . S
C3292 C3287 1.490 . S
C3292 C3294 1.395 . S
C3292 C3295 1.403 . S
H3293 C3299 0.930 . S
C3294 H3280 0.930 . S
C3294 C3292 1.395 . S
C3294 C3297 1.403 . S
C3295 C3292 1.403 . S
C3295 C3296 1.524 . S
C3295 C3299 1.400 . S
C3296 H3281 0.960 . S
C3296 H3282 0.960 . S
C3296 H3283 0.960 . S
C3296 C3295 1.524 . S
C3297 C3294 1.403 . S
C3297 C3298 1.392 . S
C3297 C3301 1.495 . S
C3298 C3297 1.392 . S
C3298 C3299 1.385 . S
C3298 C3300 1.478 . S
C3299 H3293 0.930 . S
C3299 C3295 1.400 . S
C3299 C3298 1.385 . S
C3300 C3298 1.478 . S
C3300 C3302 1.381 . S
C3300 C3306 1.383 . S
C3301 C3297 1.495 . S
C3301 H3307 0.959 . S
C3301 H3308 0.961 . S
C3301 H3309 0.960 . S
C3302 C3300 1.381 . S
C3302 C3303 1.394 . S
C3302 H3310 0.930 . S
C3303 C3302 1.394 . S
C3303 C3304 1.383 . S
C3303 H3311 0.929 . S
C3304 C3303 1.383 . S
C3304 C3305 1.377 . S
C3305 H3289 0.930 . S
C3305 C3304 1.377 . S
C3305 C3306 1.379 . S
C3306 H3290 0.931 . S
C3306 C3300 1.383 . S
C3306 C3305 1.379 . S
H3307 C3301 0.959 . S
H3308 C3301 0.961 . S
H3309 C3301 0.960 . S
H3310 C3302 0.930 . S
H3311 C3303 0.929 . S
H3312 C3320 0.929 . S
H3313 C3322 0.930 . S
H3314 C3324 0.930 . S
H3315 C3327 0.929 . S
H3316 C3330 0.930 . S
H3317 C3332 0.960 . S
H3318 C3332 0.960 . S
H3319 C3332 0.960 . S
C3320 H3312 0.929 . S
C3320 C3321 1.377 . S
C3320 C3322 1.384 . S
C3321 C3320 1.377 . S
C3321 C3327 1.390 . S
C3322 H3313 0.930 . S
C3322 C3320 1.384 . S
C3322 C3323 1.372 . S
C3323 C3322 1.372 . S
C3323 C3324 1.400 . S
C3323 C3328 1.490 . S
C3324 H3314 0.930 . S
C3324 C3323 1.400 . S
C3324 C3327 1.386 . S
H3325 C3341 0.930 . S
H3326 C3342 0.931 . S
C3327 H3315 0.929 . S
C3327 C3321 1.390 . S
C3327 C3324 1.386 . S
C3328 C3323 1.490 . S
C3328 C3330 1.395 . S
C3328 C3331 1.403 . S
H3329 C3335 0.930 . S
C3330 H3316 0.930 . S
C3330 C3328 1.395 . S
C3330 C3333 1.403 . S
C3331 C3328 1.403 . S
C3331 C3332 1.524 . S
C3331 C3335 1.400 . S
C3332 H3317 0.960 . S
C3332 H3318 0.960 . S
C3332 H3319 0.960 . S
C3332 C3331 1.524 . S
C3333 C3330 1.403 . S
C3333 C3334 1.392 . S
C3333 C3337 1.495 . S
C3334 C3333 1.392 . S
C3334 C3335 1.385 . S
C3334 C3336 1.478 . S
C3335 H3329 0.930 . S
C3335 C3331 1.400 . S
C3335 C3334 1.385 . S
C3336 C3334 1.478 . S
C3336 C3338 1.381 . S
C3336 C3342 1.383 . S
C3337 C3333 1.495 . S
C3337 H3343 0.959 . S
C3337 H3344 0.961 . S
C3337 H3345 0.960 . S
C3338 C3336 1.381 . S
C3338 C3339 1.394 . S
C3338 H3346 0.930 . S
C3339 C3338 1.394 . S
C3339 C3340 1.383 . S
C3339 H3347 0.929 . S
C3340 C3339 1.383 . S
C3340 C3341 1.377 . S
C3341 H3325 0.930 . S
C3341 C3340 1.377 . S
C3341 C3342 1.379 . S
C3342 H3326 0.931 . S
C3342 C3336 1.383 . S
C3342 C3341 1.379 . S
H3343 C3337 0.959 . S
H3344 C3337 0.961 . S
H3345 C3337 0.960 . S
H3346 C3338 0.930 . S
H3347 C3339 0.929 . S
H3348 C3356 0.929 . S
H3349 C3358 0.930 . S
H3350 C3360 0.930 . S
H3351 C3363 0.929 . S
H3352 C3366 0.930 . S
H3353 C3368 0.960 . S
H3354 C3368 0.960 . S
H3355 C3368 0.960 . S
C3356 H3348 0.929 . S
C3356 C3357 1.377 . S
C3356 C3358 1.384 . S
C3357 C3356 1.377 . S
C3357 C3363 1.390 . S
C3358 H3349 0.930 . S
C3358 C3356 1.384 . S
C3358 C3359 1.372 . S
C3359 C3358 1.372 . S
C3359 C3360 1.400 . S
C3359 C3364 1.490 . S
C3360 H3350 0.930 . S
C3360 C3359 1.400 . S
C3360 C3363 1.386 . S
H3361 C3377 0.930 . S
H3362 C3378 0.931 . S
C3363 H3351 0.929 . S
C3363 C3357 1.390 . S
C3363 C3360 1.386 . S
C3364 C3359 1.490 . S
C3364 C3366 1.395 . S
C3364 C3367 1.403 . S
H3365 C3371 0.930 . S
C3366 H3352 0.930 . S
C3366 C3364 1.395 . S
C3366 C3369 1.403 . S
C3367 C3364 1.403 . S
C3367 C3368 1.524 . S
C3367 C3371 1.400 . S
C3368 H3353 0.960 . S
C3368 H3354 0.960 . S
C3368 H3355 0.960 . S
C3368 C3367 1.524 . S
C3369 C3366 1.403 . S
C3369 C3370 1.392 . S
C3369 C3373 1.495 . S
C3370 C3369 1.392 . S
C3370 C3371 1.385 . S
C3370 C3372 1.478 . S
C3371 H3365 0.930 . S
C3371 C3367 1.400 . S
C3371 C3370 1.385 . S
C3372 C3370 1.478 . S
C3372 C3374 1.381 . S
C3372 C3378 1.383 . S
C3373 C3369 1.495 . S
C3373 H3379 0.959 . S
C3373 H3380 0.961 . S
C3373 H3381 0.960 . S
C3374 C3372 1.381 . S
C3374 C3375 1.394 . S
C3374 H3382 0.930 . S
C3375 C3374 1.394 . S
C3375 C3376 1.383 . S
C3375 H3383 0.929 . S
C3376 C3375 1.383 . S
C3376 C3377 1.377 . S
C3377 H3361 0.930 . S
C3377 C3376 1.377 . S
C3377 C3378 1.379 . S
C3378 H3362 0.931 . S
C3378 C3372 1.383 . S
C3378 C3377 1.379 . S
H3379 C3373 0.959 . S
H3380 C3373 0.961 . S
H3381 C3373 0.960 . S
H3382 C3374 0.930 . S
H3383 C3375 0.929 . S
H3384 C3392 0.929 . S
H3385 C3394 0.930 . S
H3386 C3396 0.930 . S
H3387 C3399 0.929 . S
H3388 C3402 0.930 . S
H3389 C3404 0.960 . S
H3390 C3404 0.960 . S
H3391 C3404 0.960 . S
C3392 H3384 0.929 . S
C3392 C3393 1.377 . S
C3392 C3394 1.384 . S
C3393 C3392 1.377 . S
C3393 C3399 1.390 . S
C3394 H3385 0.930 . S
C3394 C3392 1.384 . S
C3394 C3395 1.372 . S
C3395 C3394 1.372 . S
C3395 C3396 1.400 . S
C3395 C3400 1.490 . S
C3396 H3386 0.930 . S
C3396 C3395 1.400 . S
C3396 C3399 1.386 . S
H3397 C3413 0.930 . S
H3398 C3414 0.931 . S
C3399 H3387 0.929 . S
C3399 C3393 1.390 . S
C3399 C3396 1.386 . S
C3400 C3395 1.490 . S
C3400 C3402 1.395 . S
C3400 C3403 1.403 . S
H3401 C3407 0.930 . S
C3402 H3388 0.930 . S
C3402 C3400 1.395 . S
C3402 C3405 1.403 . S
C3403 C3400 1.403 . S
C3403 C3404 1.524 . S
C3403 C3407 1.400 . S
C3404 H3389 0.960 . S
C3404 H3390 0.960 . S
C3404 H3391 0.960 . S
C3404 C3403 1.524 . S
C3405 C3402 1.403 . S
C3405 C3406 1.392 . S
C3405 C3409 1.495 . S
C3406 C3405 1.392 . S
C3406 C3407 1.385 . S
C3406 C3408 1.478 . S
C3407 H3401 0.930 . S
C3407 C3403 1.400 . S
C3407 C3406 1.385 . S
C3408 C3406 1.478 . S
C3408 C3410 1.381 . S
C3408 C3414 1.383 . S
C3409 C3405 1.495 . S
C3409 H3415 0.959 . S
C3409 H3416 0.961 . S
C3409 H3417 0.960 . S
C3410 C3408 1.381 . S
C3410 C3411 1.394 . S
C3410 H3418 0.930 . S
C3411 C3410 1.394 . S
C3411 C3412 1.383 . S
C3411 H3419 0.929 . S
C3412 C3411 1.383 . S
C3412 C3413 1.377 . S
C3413 H3397 0.930 . S
C3413 C3412 1.377 . S
C3413 C3414 1.379 . S
C3414 H3398 0.931 . S
C3414 C3408 1.383 . S
C3414 C3413 1.379 . S
H3415 C3409 0.959 . S
H3416 C3409 0.961 . S
H3417 C3409 0.960 . S
H3418 C3410 0.930 . S
H3419 C3411 0.929 . S
H3420 C3428 0.929 . S
H3421 C3430 0.930 . S
H3422 C3432 0.930 . S
H3423 C3435 0.929 . S
H3424 C3438 0.930 . S
H3425 C3440 0.960 . S
H3426 C3440 0.960 . S
H3427 C3440 0.960 . S
C3428 H3420 0.929 . S
C3428 C3429 1.377 . S
C3428 C3430 1.384 . S
C3429 C3428 1.377 . S
C3429 C3435 1.390 . S
C3430 H3421 0.930 . S
C3430 C3428 1.384 . S
C3430 C3431 1.372 . S
C3431 C3430 1.372 . S
C3431 C3432 1.400 . S
C3431 C3436 1.490 . S
C3432 H3422 0.930 . S
C3432 C3431 1.400 . S
C3432 C3435 1.386 . S
H3433 C3449 0.930 . S
H3434 C3450 0.931 . S
C3435 H3423 0.929 . S
C3435 C3429 1.390 . S
C3435 C3432 1.386 . S
C3436 C3431 1.490 . S
C3436 C3438 1.395 . S
C3436 C3439 1.403 . S
H3437 C3443 0.930 . S
C3438 H3424 0.930 . S
C3438 C3436 1.395 . S
C3438 C3441 1.403 . S
C3439 C3436 1.403 . S
C3439 C3440 1.524 . S
C3439 C3443 1.400 . S
C3440 H3425 0.960 . S
C3440 H3426 0.960 . S
C3440 H3427 0.960 . S
C3440 C3439 1.524 . S
C3441 C3438 1.403 . S
C3441 C3442 1.392 . S
C3441 C3445 1.495 . S
C3442 C3441 1.392 . S
C3442 C3443 1.385 . S
C3442 C3444 1.478 . S
C3443 H3437 0.930 . S
C3443 C3439 1.400 . S
C3443 C3442 1.385 . S
C3444 C3442 1.478 . S
C3444 C3446 1.381 . S
C3444 C3450 1.383 . S
C3445 C3441 1.495 . S
C3445 H3451 0.959 . S
C3445 H3452 0.961 . S
C3445 H3453 0.960 . S
C3446 C3444 1.381 . S
C3446 C3447 1.394 . S
C3446 H3454 0.930 . S
C3447 C3446 1.394 . S
C3447 C3448 1.383 . S
C3447 H3455 0.929 . S
C3448 C3447 1.383 . S
C3448 C3449 1.377 . S
C3449 H3433 0.930 . S
C3449 C3448 1.377 . S
C3449 C3450 1.379 . S
C3450 H3434 0.931 . S
C3450 C3444 1.383 . S
C3450 C3449 1.379 . S
H3451 C3445 0.959 . S
H3452 C3445 0.961 . S
H3453 C3445 0.960 . S
H3454 C3446 0.930 . S
H3455 C3447 0.929 . S
C1161 C544 1.309 . S
C1180 C4 1.318 . S
C1197 C38 1.486 . S
C1216 C436 1.479 . S
C1233 C76 1.315 . S
C1252 C472 1.329 . S
C1269 C508 1.492 . S
C1288 C110 1.498 . S
C1305 C148 1.314 . S
C1324 C328 1.325 . S
C1341 C182 1.485 . S
C1360 C364 1.500 . S
C1377 C400 1.309 . S
C1396 C220 1.324 . S
C1413 C292 1.490 . S
C1432 C254 1.472 . S
C1449 C580 1.320 . S
C1468 C1120 1.292 . S
C1485 C614 1.491 . S
C1504 C1012 1.479 . S
C1521 C652 1.320 . S
C1540 C1048 1.296 . S
C1557 C1084 1.491 . S
C1576 C686 1.468 . S
C1593 C724 1.320 . S
C1612 C904 1.292 . S
C1629 C758 1.491 . S
C1648 C940 1.484 . S
C1665 C976 1.312 . S
C1684 C796 1.299 . S
C1701 C830 1.485 . S
C1720 C868 1.502 . S
C1737 C435 1.280 . S
C1756 C3 1.276 . S
C1773 C50 1.177 . S
C1792 C471 1.235 . S
C1809 C507 1.279 . S
C1828 C75 1.274 . S
C1845 C122 1.185 . S
C1864 C543 1.223 . S
C1881 C147 1.279 . S
C1900 C291 1.281 . S
C1917 C327 1.229 . S
C1936 C194 1.145 . S
C1953 C363 1.280 . S
C1972 C219 1.278 . S
C1989 C399 1.229 . S
C2008 C266 1.166 . S
C2025 C579 1.280 . S
C2044 C1011 1.279 . S
C2061 C1047 1.228 . S
C2080 C626 1.170 . S
C2097 C651 1.279 . S
C2116 C1083 1.275 . S
C2133 C698 1.170 . S
C2152 C1119 1.227 . S
C2169 C867 1.280 . S
C2188 C723 1.276 . S
C2205 C770 1.171 . S
C2224 C903 1.224 . S
C2241 C795 1.280 . S
C2260 C939 1.280 . S
C2277 C842 1.170 . S
C2296 C975 1.230 . S
C2313 C2 1.244 . S
C2332 C362 1.261 . S
C2349 C398 1.246 . S
C2368 C40 1.213 . S
C2385 C74 1.253 . S
C2404 C290 1.218 . S
C2421 C326 1.247 . S
C2440 C112 1.228 . S
C2457 C506 1.251 . S
C2476 C146 1.233 . S
C2493 C542 1.246 . S
C2512 C184 1.241 . S
C2529 C434 1.244 . S
C2548 C218 1.271 . S
C2565 C256 1.238 . S
C2584 C470 1.232 . S
C2601 C938 1.241 . S
C2620 C578 1.267 . S
C2637 C616 1.243 . S
C2656 C974 1.216 . S
C2673 C866 1.250 . S
C2692 C650 1.224 . S
C2709 C902 1.239 . S
C2728 C688 1.234 . S
C2745 C722 1.249 . S
C2764 C1082 1.267 . S
C2781 C760 1.243 . S
C2800 C1118 1.253 . S
C2817 C1010 1.251 . S
C2836 C794 1.226 . S
C2853 C1046 1.237 . S
C2872 C832 1.255 . S
C2889 C831 1.062 . S
C2908 C14 1.011 . S
C2925 C734 1.023 . S
C2944 C39 1.058 . S
C2961 C759 1.065 . S
C2980 C86 1.000 . S
C2997 C806 1.031 . S
C3016 C111 1.064 . S
C3033 C615 1.062 . S
C3052 C158 1.000 . S
C3069 C183 1.061 . S
C3088 C662 1.027 . S
C3105 C230 1.021 . S
C3124 C687 1.072 . S
C3141 C255 1.064 . S
C3160 C590 0.984 . S
C3177 C302 1.064 . S
C3196 C1130 1.052 . S
C3213 C1022 1.060 . S
C3232 C338 1.073 . S
C3249 C374 1.059 . S
C3268 C1058 1.093 . S
C3285 C410 1.063 . S
C3304 C1094 1.045 . S
C3321 C914 1.050 . S
C3340 C446 1.100 . S
C3357 C950 1.057 . S
C3376 C482 1.096 . S
C3393 C518 1.069 . S
C3412 C986 1.026 . S
C3429 C554 1.058 . S
C3448 C878 1.054 . S
