# Generated by pormake.
# Topology umf, (4)-cn, num edge types: 1
# Building blocks:
#     Node 0, Type 0, BuildingBlock: KOZSID_clean_sbu_0, # of connection points: 4
#     Node 1, Type 0, BuildingBlock: KOZSID_clean_sbu_0, # of connection points: 4
#     Node 2, Type 0, BuildingBlock: KOZSID_clean_sbu_0, # of connection points: 4
#     Node 3, Type 0, BuildingBlock: KOZSID_clean_sbu_0, # of connection points: 4
#     Node 4, Type 0, BuildingBlock: KOZSID_clean_sbu_0, # of connection points: 4
#     Node 5, Type 0, BuildingBlock: KOZSID_clean_sbu_0, # of connection points: 4
#     Node 6, Type 0, BuildingBlock: KOZSID_clean_sbu_0, # of connection points: 4
#     Node 7, Type 0, BuildingBlock: KOZSID_clean_sbu_0, # of connection points: 4
#     Edge 8, Type (0, 0), BuildingBlock: UVAHIK_clean_linker_0, # of connection points: 2
#     Edge 9, Type (0, 0), BuildingBlock: UVAHIK_clean_linker_0, # of connection points: 2
#     Edge 10, Type (0, 0), BuildingBlock: UVAHIK_clean_linker_0, # of connection points: 2
#     Edge 11, Type (0, 0), BuildingBlock: UVAHIK_clean_linker_0, # of connection points: 2
#     Edge 12, Type (0, 0), BuildingBlock: UVAHIK_clean_linker_0, # of connection points: 2
#     Edge 13, Type (0, 0), BuildingBlock: UVAHIK_clean_linker_0, # of connection points: 2
#     Edge 14, Type (0, 0), BuildingBlock: UVAHIK_clean_linker_0, # of connection points: 2
#     Edge 15, Type (0, 0), BuildingBlock: UVAHIK_clean_linker_0, # of connection points: 2
#     Edge 16, Type (0, 0), BuildingBlock: UVAHIK_clean_linker_0, # of connection points: 2
#     Edge 17, Type (0, 0), BuildingBlock: UVAHIK_clean_linker_0, # of connection points: 2
#     Edge 18, Type (0, 0), BuildingBlock: UVAHIK_clean_linker_0, # of connection points: 2
#     Edge 19, Type (0, 0), BuildingBlock: UVAHIK_clean_linker_0, # of connection points: 2
#     Edge 20, Type (0, 0), BuildingBlock: UVAHIK_clean_linker_0, # of connection points: 2
#     Edge 21, Type (0, 0), BuildingBlock: UVAHIK_clean_linker_0, # of connection points: 2
#     Edge 22, Type (0, 0), BuildingBlock: UVAHIK_clean_linker_0, # of connection points: 2
#     Edge 23, Type (0, 0), BuildingBlock: UVAHIK_clean_linker_0, # of connection points: 2
# Relax obj value: 0.074
# Max RMSD: 0.187
# Mean RMSD: 0.187
data_MOF--net-umf--node1-KOZSID_clean_sbu_0--edge1-UVAHIK_clean_linker_0
_symmetry_space_group_name_H-M    P1
_symmetry_Int_Tables_number       1
_symmetry_cell_setting            triclinic
loop_
_symmetry_equiv_pos_as_xyz
'x, y, z'
_cell_length_a     46.787884
_cell_length_b     46.799093
_cell_length_c     75.023294
_cell_angle_alpha  90.026192
_cell_angle_beta   90.013388
_cell_angle_gamma 89.998299
loop_
_atom_site_label
_atom_site_type_symbol
_atom_site_fract_x
_atom_site_fract_y
_atom_site_fract_z
_atom_type_partial_charge
C0 C 0.10146 0.24028 0.1732 0.0
C1 C 0.13066 0.24099 0.17634 0.0
C2 C 0.14299 0.25258 0.16139 0.0
C3 C 0.12068 0.25833 0.15001 0.0
N4 N 0.0952 0.25116 0.15696 0.0
Co5 Co 0.05766 0.25502 0.14509 0.0
N6 N 0.07561 0.25586 0.12119 0.0
C7 C 0.10323 0.26187 0.1178 0.0
C8 C 0.10955 0.26136 0.09994 0.0
C9 C 0.08427 0.25491 0.09159 0.0
C10 C 0.06382 0.25183 0.10489 0.0
N11 N 0.0201 0.25937 0.13324 0.0
C12 C 0.01283 0.25593 0.11585 0.0
C13 C 0.98413 0.26218 0.11329 0.0
C14 C 0.97336 0.27015 0.12962 0.0
C15 C 0.99596 0.26831 0.14127 0.0
N16 N 0.04028 0.25357 0.16916 0.0
C17 C 0.01401 0.26279 0.17352 0.0
C18 C 0.00761 0.25756 0.19113 0.0
C19 C 0.03138 0.24422 0.19813 0.0
C20 C 0.05101 0.24205 0.18437 0.0
N21 N 0.06005 0.29716 0.14658 0.0
C22 C 0.04999 0.35658 0.14961 0.0
C23 C 0.05917 0.34035 0.16435 0.0
C24 C 0.06438 0.31082 0.16251 0.0
C25 C 0.04842 0.34256 0.1331 0.0
C26 C 0.05327 0.31315 0.13191 0.0
N27 N 0.05399 0.21337 0.1436 0.0
C28 C 0.02402 0.17204 0.14728 0.0
C29 C 0.04632 0.15384 0.14223 0.0
C30 C 0.07267 0.16627 0.13759 0.0
C31 C 0.07607 0.19613 0.13838 0.0
C32 C 0.0283 0.2014 0.14796 0.0
H33 H 0.09648 0.20529 0.13485 0.0
H34 H 0.01056 0.21442 0.15207 0.0
H35 H 0.07048 0.29879 0.17419 0.0
H36 H 0.04994 0.30324 0.11913 0.0
C37 C 0.12314 0.26389 0.13172 0.0
C38 C 0.08009 0.23016 0.18601 0.0
C39 C 0.03302 0.2487 0.10143 0.0
C40 C 0.99449 0.27029 0.16 0.0
H41 H 0.14185 0.23358 0.1881 0.0
H42 H 0.16561 0.25487 0.15873 0.0
H43 H 0.13017 0.26463 0.09373 0.0
H44 H 0.08115 0.25336 0.07733 0.0
H45 H 0.97228 0.2613 0.10091 0.0
H46 H 0.95145 0.27571 0.13269 0.0
H47 H 0.98752 0.26147 0.19785 0.0
H48 H 0.03386 0.23674 0.21168 0.0
H49 H 0.06106 0.34996 0.17742 0.0
H50 H 0.04264 0.354 0.1211 0.0
H51 H 1.00304 0.16377 0.15054 0.0
H52 H 0.09059 0.15309 0.13362 0.0
C53 C 0.77162 0.10103 0.67304 0.0
C54 C 0.77045 0.13013 0.67649 0.0
C55 C 0.75778 0.14257 0.66191 0.0
C56 C 0.75191 0.12044 0.65043 0.0
N57 N 0.76004 0.09495 0.65695 0.0
Co58 Co 0.75615 0.05766 0.64481 0.0
N59 N 0.75348 0.07616 0.62114 0.0
C60 C 0.74664 0.10369 0.61816 0.0
C61 C 0.74607 0.11044 0.60036 0.0
C62 C 0.7527 0.08553 0.59164 0.0
C63 C 0.75697 0.06486 0.60467 0.0
N64 N 0.75174 0.02035 0.63266 0.0
C65 C 0.75464 0.01359 0.61517 0.0
C66 C 0.74884 0.98484 0.6124 0.0
C67 C 0.74182 0.9735 0.62875 0.0
C68 C 0.7437 0.99584 0.6406 0.0
N69 N 0.7594 0.03967 0.66862 0.0
C70 C 0.75092 0.01312 0.67289 0.0
C71 C 0.7572 0.00639 0.69032 0.0
C72 C 0.77041 0.03024 0.6973 0.0
C73 C 0.77147 0.05026 0.68371 0.0
N74 N 0.71412 0.05933 0.64732 0.0
C75 C 0.65466 0.05138 0.65144 0.0
C76 C 0.6719 0.05951 0.66593 0.0
C77 C 0.70146 0.06379 0.66354 0.0
C78 C 0.66777 0.04868 0.63474 0.0
C79 C 0.69727 0.05258 0.63299 0.0
N80 N 0.79772 0.0548 0.64224 0.0
C81 C 0.83966 0.02511 0.64319 0.0
C82 C 0.85675 0.04794 0.63779 0.0
C83 C 0.84386 0.07463 0.63496 0.0
C84 C 0.81413 0.07754 0.63707 0.0
C85 C 0.81045 0.02903 0.64551 0.0
H86 H 0.80438 0.09802 0.63445 0.0
H87 H 0.79814 0.01096 0.6499 0.0
H88 H 0.71422 0.06968 0.67496 0.0
H89 H 0.70651 0.04878 0.62007 0.0
C90 C 0.74511 0.12322 0.63232 0.0
C91 C 0.78276 0.07956 0.68546 0.0
C92 C 0.76099 0.03428 0.60088 0.0
C93 C 0.74292 0.99383 0.65935 0.0
H94 H 0.77819 0.14118 0.68822 0.0
H95 H 0.7548 0.16519 0.65956 0.0
H96 H 0.74206 0.13113 0.59442 0.0
H97 H 0.7537 0.08278 0.57733 0.0
H98 H 0.74947 0.97334 0.5999 0.0
H99 H 0.73693 0.9514 0.6317 0.0
H100 H 0.75398 0.98608 0.69692 0.0
H101 H 0.7785 0.03255 0.71073 0.0
H102 H 0.66269 0.0623 0.67906 0.0
H103 H 0.65552 0.04227 0.62316 0.0
H104 H 0.8489 1.00428 0.64578 0.0
H105 H 0.85651 0.09283 0.63082 0.0
C106 C 0.90952 0.77117 0.17174 0.0
C107 C 0.88003 0.77105 0.17398 0.0
C108 C 0.86862 0.75882 0.15897 0.0
C109 C 0.89157 0.75246 0.1483 0.0
N110 N 0.91669 0.75993 0.1557 0.0
Co111 Co 0.95476 0.7562 0.14436 0.0
N112 N 0.93772 0.7538 0.12022 0.0
C113 C 0.91035 0.74727 0.11651 0.0
C114 C 0.90464 0.74711 0.09857 0.0
C115 C 0.93008 0.7537 0.0905 0.0
C116 C 0.95001 0.75747 0.10404 0.0
N117 N 0.99279 0.75196 0.13306 0.0
C118 C 1.0006 0.75498 0.11574 0.0
C119 C 0.02945 0.74905 0.1136 0.0
C120 C 0.03982 0.74187 0.13017 0.0
C121 C 0.01681 0.74377 0.14151 0.0
N122 N 0.97136 0.75921 0.16858 0.0
C123 C 0.99766 0.75062 0.17339 0.0
C124 C 1.00337 0.7563 0.19103 0.0
C125 C 0.9791 0.76923 0.1976 0.0
C126 C 0.95989 0.77081 0.18357 0.0
N127 N 0.95296 0.71415 0.14663 0.0
C128 C 0.96075 0.65466 0.15065 0.0
C129 C 0.95182 0.67172 0.16504 0.0
C130 C 0.94763 0.70129 0.16269 0.0
C131 C 0.96434 0.66795 0.13408 0.0
C132 C 0.96052 0.69747 0.13238 0.0
N133 N 0.95774 0.79779 0.14203 0.0
C134 C 0.98745 0.83968 0.14366 0.0
C135 C 0.96505 0.85677 0.13759 0.0
C136 C 0.93852 0.84392 0.13412 0.0
C137 C 0.93539 0.81423 0.13625 0.0
C138 C 0.98331 0.81049 0.14597 0.0
H139 H 0.91508 0.80452 0.13311 0.0
H140 H 1.00106 0.79817 0.15082 0.0
H141 H 0.94109 0.71391 0.17403 0.0
H142 H 0.96502 0.70686 0.1196 0.0
C143 C 0.88997 0.74593 0.13013 0.0
C144 C 0.93026 0.78135 0.1851 0.0
C145 C 0.9808 0.76138 0.10099 0.0
C146 C 0.0177 0.74274 0.16027 0.0
H147 H 0.86779 0.77937 0.18504 0.0
H148 H 0.84617 0.75666 0.15575 0.0
H149 H 0.88425 0.74351 0.09212 0.0
H150 H 0.93363 0.75508 0.07627 0.0
H151 H 0.04164 0.74964 0.10135 0.0
H152 H 0.06171 0.73682 0.13361 0.0
H153 H 0.02323 0.75273 0.19809 0.0
H154 H 0.97586 0.7766 0.21113 0.0
H155 H 0.94834 0.66235 0.17805 0.0
H156 H 0.97137 0.65584 0.12258 0.0
H157 H 0.00813 0.8489 0.14673 0.0
H158 H 0.92065 0.85658 0.12945 0.0
C159 C 0.24029 0.91116 0.67357 0.0
C160 C 0.24078 0.88193 0.67662 0.0
C161 C 0.2522 0.86961 0.66161 0.0
C162 C 0.25801 0.89194 0.65027 0.0
N163 N 0.25104 0.91743 0.6573 0.0
Co164 Co 0.25495 0.955 0.64547 0.0
N165 N 0.25573 0.93711 0.62154 0.0
C166 C 0.26147 0.90946 0.61809 0.0
C167 C 0.26069 0.90316 0.60023 0.0
C168 C 0.25438 0.92849 0.59193 0.0
C169 C 0.25172 0.94897 0.60525 0.0
N170 N 0.25934 0.99258 0.63367 0.0
C171 C 0.25595 0.9999 0.6163 0.0
C172 C 0.26248 0.02853 0.61374 0.0
C173 C 0.27046 0.03924 0.63008 0.0
C174 C 0.26842 0.01666 0.64172 0.0
N175 N 0.25356 0.97234 0.66954 0.0
C176 C 0.26291 0.99855 0.67394 0.0
C177 C 0.25783 1.00488 0.69159 0.0
C178 C 0.24446 0.98113 0.69857 0.0
C179 C 0.24208 0.96161 0.68476 0.0
N180 N 0.29708 0.95251 0.64694 0.0
C181 C 0.35653 0.96235 0.64999 0.0
C182 C 0.34027 0.95312 0.6647 0.0
C183 C 0.31073 0.94802 0.66284 0.0
C184 C 0.34251 0.9641 0.63348 0.0
C185 C 0.31309 0.95934 0.63227 0.0
N186 N 0.2133 0.95875 0.64401 0.0
C187 C 0.17202 0.98876 0.6478 0.0
C188 C 0.15378 0.96654 0.64268 0.0
C189 C 0.16616 0.9402 0.63796 0.0
C190 C 0.19602 0.93674 0.63873 0.0
C191 C 0.20137 0.98444 0.64845 0.0
H192 H 0.20514 0.91634 0.63514 0.0
H193 H 0.21443 1.00213 0.65259 0.0
H194 H 0.29867 0.94188 0.67451 0.0
H195 H 0.30318 0.96277 0.61951 0.0
C196 C 0.26341 0.88951 0.63197 0.0
C197 C 0.23027 0.93254 0.68643 0.0
C198 C 0.24881 0.97979 0.60183 0.0
C199 C 0.27047 0.01808 0.66046 0.0
H200 H 0.23331 0.87068 0.68833 0.0
H201 H 0.2543 0.847 0.65888 0.0
H202 H 0.26365 0.88251 0.59399 0.0
H203 H 0.25257 0.93162 0.57769 0.0
H204 H 0.26184 0.04033 0.60134 0.0
H205 H 0.27625 0.06109 0.63317 0.0
H206 H 0.26192 0.0249 0.69836 0.0
H207 H 0.23715 0.97852 0.71215 0.0
H208 H 0.34989 0.9511 0.67776 0.0
H209 H 0.35398 0.96995 0.6215 0.0
H210 H 0.16377 0.00972 0.65113 0.0
H211 H 0.15293 0.92234 0.63393 0.0
C212 C 0.10132 0.7709 0.83928 0.0
C213 C 0.13055 0.76981 0.83618 0.0
C214 C 0.14263 0.75733 0.85093 0.0
C215 C 0.12022 0.75158 0.8622 0.0
N216 N 0.09488 0.75964 0.8554 0.0
Co217 Co 0.05732 0.75605 0.86731 0.0
N218 N 0.0754 0.75346 0.89112 0.0
C219 C 0.10285 0.74658 0.89434 0.0
C220 C 0.10928 0.74614 0.91219 0.0
C221 C 0.08424 0.75292 0.9207 0.0
C222 C 0.06382 0.75714 0.90751 0.0
N223 N 0.01977 0.75192 0.8792 0.0
C224 C 0.01271 0.75497 0.89664 0.0
C225 C 0.98389 0.74931 0.89921 0.0
C226 C 0.9728 0.74222 0.8828 0.0
C227 C 0.99535 0.74392 0.87111 0.0
N228 N 0.03974 0.75924 0.84339 0.0
C229 C 0.01323 0.75082 0.83894 0.0
C230 C 0.00684 0.75689 0.82143 0.0
C231 C 0.03089 0.7699 0.81458 0.0
C232 C 0.05063 0.77111 0.82833 0.0
N233 N 0.05883 0.714 0.86492 0.0
C234 C 0.05086 0.65452 0.86094 0.0
C235 C 0.05922 0.67161 0.84645 0.0
C236 C 0.0635 0.70118 0.84877 0.0
C237 C 0.0479 0.6678 0.87758 0.0
C238 C 0.0518 0.6973 0.87926 0.0
N239 N 0.05462 0.79764 0.86978 0.0
C240 C 0.02506 0.83967 0.86865 0.0
C241 C 0.04782 0.85666 0.87432 0.0
C242 C 0.07442 0.84368 0.87734 0.0
C243 C 0.07731 0.81397 0.87517 0.0
C244 C 0.02896 0.81046 0.86629 0.0
H245 H 0.0977 0.80415 0.87795 0.0
H246 H 0.01093 0.79822 0.86173 0.0
H247 H 0.0696 0.71382 0.83735 0.0
H248 H 0.04781 0.70667 0.89212 0.0
C249 C 0.12263 0.74493 0.88034 0.0
C250 C 0.0801 0.78192 0.82661 0.0
C251 C 0.03319 0.76132 0.91105 0.0
C252 C 0.99367 0.74299 0.85235 0.0
H253 H 0.14201 0.77753 0.82462 0.0
H254 H 0.1652 0.75443 0.85354 0.0
H255 H 0.12986 0.74213 0.91829 0.0
H256 H 0.08125 0.75407 0.93499 0.0
H257 H 0.97217 0.75009 0.91163 0.0
H258 H 0.95073 0.73741 0.87971 0.0
H259 H 0.98667 0.7536 0.81467 0.0
H260 H 0.03359 0.77766 0.8011 0.0
H261 H 0.06221 0.66226 0.83337 0.0
H262 H 0.0413 0.65567 0.88916 0.0
H263 H 1.00431 0.84898 0.86592 0.0
H264 H 0.09256 0.85626 0.88168 0.0
C265 C 0.2411 0.10123 0.3398 0.0
C266 C 0.24254 0.13033 0.33643 0.0
C267 C 0.25497 0.14261 0.35115 0.0
C268 C 0.26045 0.12037 0.36263 0.0
N269 N 0.25231 0.09498 0.35595 0.0
Co270 Co 0.25552 0.0576 0.36805 0.0
N271 N 0.25762 0.07597 0.3918 0.0
C272 C 0.26454 0.10345 0.39492 0.0
C273 C 0.26467 0.11011 0.41274 0.0
C274 C 0.25767 0.0852 0.42133 0.0
C275 C 0.25363 0.06461 0.40821 0.0
N276 N 0.25928 0.02018 0.38013 0.0
C277 C 0.256 0.01335 0.39758 0.0
C278 C 0.2615 0.98453 0.4003 0.0
C279 C 0.26876 0.97323 0.38398 0.0
C280 C 0.2673 0.99565 0.37219 0.0
N281 N 0.25274 0.03978 0.34416 0.0
C282 C 0.26108 0.01318 0.33989 0.0
C283 C 0.25511 0.00659 0.32239 0.0
C284 C 0.24222 0.03058 0.31537 0.0
C285 C 0.24105 0.05053 0.329 0.0
N286 N 0.29766 0.05883 0.36605 0.0
C287 C 0.35691 0.04798 0.36267 0.0
C288 C 0.34047 0.05694 0.34796 0.0
C289 C 0.31102 0.06253 0.34997 0.0
C290 C 0.34318 0.04691 0.37928 0.0
C291 C 0.31387 0.05211 0.38065 0.0
N292 N 0.21386 0.05511 0.37017 0.0
C293 C 0.17176 0.02566 0.36899 0.0
C294 C 0.15478 0.04851 0.3745 0.0
C295 C 0.16778 0.07512 0.37743 0.0
C296 C 0.19753 0.0779 0.37537 0.0
C297 C 0.201 0.02945 0.36672 0.0
H298 H 0.20737 0.0983 0.37811 0.0
H299 H 0.21325 0.01134 0.36231 0.0
H300 H 0.29881 0.06851 0.33833 0.0
H301 H 0.3042 0.04918 0.39352 0.0
C302 C 0.26668 0.12302 0.38083 0.0
C303 C 0.22997 0.07991 0.32727 0.0
C304 C 0.24955 0.034 0.41189 0.0
C305 C 0.26856 0.99375 0.35344 0.0
H306 H 0.23509 0.14149 0.32468 0.0
H307 H 0.25801 0.1652 0.35361 0.0
H308 H 0.26869 0.13074 0.41877 0.0
H309 H 0.25635 0.08238 0.43562 0.0
H310 H 0.26051 0.97294 0.41276 0.0
H311 H 0.27355 0.95111 0.38101 0.0
H312 H 0.25827 0.98628 0.31577 0.0
H313 H 0.23441 0.03302 0.30189 0.0
H314 H 0.34986 0.05842 0.33481 0.0
H315 H 0.3548 0.04129 0.39125 0.0
H316 H 0.16242 1.00489 0.36633 0.0
H317 H 0.1552 0.09333 0.38165 0.0
C318 C 0.91114 0.23986 0.83946 0.0
C319 C 0.88194 0.24039 0.83627 0.0
C320 C 0.86949 0.25191 0.85121 0.0
C321 C 0.89172 0.25779 0.86263 0.0
N322 N 0.91728 0.25078 0.85571 0.0
Co323 Co 0.95475 0.25483 0.86764 0.0
N324 N 0.93669 0.25567 0.89152 0.0
C325 C 0.90901 0.26142 0.89486 0.0
C326 C 0.90259 0.26077 0.91271 0.0
C327 C 0.92788 0.25452 0.92109 0.0
C328 C 0.94845 0.25176 0.90784 0.0
N329 N 0.99225 0.25938 0.87955 0.0
C330 C 0.99945 0.25606 0.89695 0.0
C331 C 0.02806 0.26264 0.89959 0.0
C332 C 0.03887 0.27058 0.88327 0.0
C333 C 0.01636 0.26846 0.87157 0.0
N334 N 0.97225 0.25341 0.84361 0.0
C335 C 0.99849 0.26276 0.83928 0.0
C336 C 1.00498 0.25754 0.82168 0.0
C337 C 0.98131 0.24408 0.81465 0.0
C338 C 0.96163 0.24182 0.82837 0.0
N339 N 0.95216 0.29695 0.86611 0.0
C340 C 0.96197 0.35638 0.86299 0.0
C341 C 0.95284 0.34003 0.84828 0.0
C342 C 0.94775 0.3105 0.85017 0.0
C343 C 0.96363 0.34246 0.87952 0.0
C344 C 0.95889 0.31304 0.88077 0.0
N345 N 0.9586 0.21321 0.86916 0.0
C346 C 0.98873 0.172 0.86543 0.0
C347 C 0.96648 0.1537 0.87041 0.0
C348 C 0.94007 0.16602 0.87505 0.0
C349 C 0.93657 0.19587 0.87432 0.0
C350 C 0.98436 0.20134 0.86481 0.0
H351 H 0.91611 0.20495 0.87783 0.0
H352 H 1.00207 0.21443 0.86075 0.0
H353 H 0.9417 0.29838 0.83851 0.0
H354 H 0.96224 0.3032 0.89356 0.0
C355 C 0.88915 0.2633 0.88091 0.0
C356 C 0.93261 0.22982 0.82668 0.0
C357 C 0.97925 0.24887 0.91136 0.0
C358 C 0.0179 0.27041 0.85283 0.0
H359 H 0.87085 0.23291 0.8245 0.0
H360 H 0.84684 0.25406 0.85384 0.0
H361 H 0.8819 0.26378 0.91888 0.0
H362 H 0.93093 0.25283 0.93535 0.0
H363 H 0.03979 0.26204 0.91202 0.0
H364 H 0.06073 0.27638 0.88025 0.0
H365 H 0.02507 0.26156 0.81499 0.0
H366 H 0.97889 0.23659 0.80108 0.0
H367 H 0.95089 0.34957 0.8352 0.0
H368 H 0.9694 0.354 0.8915 0.0
H369 H 0.00974 0.16379 0.86218 0.0
H370 H 0.92219 0.15276 0.87897 0.0
C371 C 0.77204 0.90907 0.3406 0.0
C372 C 0.77261 0.87954 0.33862 0.0
C373 C 0.76115 0.8682 0.35387 0.0
C374 C 0.7545 0.89123 0.3644 0.0
N375 N 0.76108 0.91634 0.3567 0.0
Co376 Co 0.75671 0.95457 0.36772 0.0
N377 N 0.75552 0.9381 0.39204 0.0
C378 C 0.74983 0.91066 0.39608 0.0
C379 C 0.75024 0.9054 0.41406 0.0
C380 C 0.7563 0.9312 0.42184 0.0
C381 C 0.75921 0.95089 0.40808 0.0
N382 N 0.75188 0.99278 0.37872 0.0
C383 C 0.75504 1.00109 0.39595 0.0
C384 C 0.74838 0.02982 0.39786 0.0
C385 C 0.74056 0.03957 0.38127 0.0
C386 C 0.74283 0.01635 0.37013 0.0
N387 N 0.75847 0.97059 0.34331 0.0
C388 C 0.74903 0.99652 0.33835 0.0
C389 C 0.75408 1.00192 0.3206 0.0
C390 C 0.7675 0.97785 0.31411 0.0
C391 C 0.76998 0.95907 0.32831 0.0
N392 N 0.71466 0.95168 0.36596 0.0
C393 C 0.65504 0.95887 0.36224 0.0
C394 C 0.67191 0.94959 0.34786 0.0
C395 C 0.70154 0.94569 0.35007 0.0
C396 C 0.66857 0.96292 0.37871 0.0
C397 C 0.69815 0.95937 0.38026 0.0
N398 N 0.7983 0.95868 0.36943 0.0
C399 C 0.8395 0.98868 0.36526 0.0
C400 C 0.85777 0.96684 0.37094 0.0
C401 C 0.84544 0.94072 0.37615 0.0
C402 C 0.81561 0.93707 0.37528 0.0
C403 C 0.81017 0.98416 0.36452 0.0
H404 H 0.80654 0.91684 0.37925 0.0
H405 H 0.79709 1.00154 0.35993 0.0
H406 H 0.71401 0.93896 0.33871 0.0
H407 H 0.70775 0.96429 0.39294 0.0
C408 C 0.74859 0.88993 0.38266 0.0
C409 C 0.78135 0.92973 0.32697 0.0
C410 C 0.76218 0.98185 0.41085 0.0
C411 C 0.74111 0.01671 0.35137 0.0
H412 H 0.78092 0.86725 0.32759 0.0
H413 H 0.75967 0.84579 0.35732 0.0
H414 H 0.74731 0.8851 0.42072 0.0
H415 H 0.75785 0.93515 0.43602 0.0
H416 H 0.74888 0.04232 0.41 0.0
H417 H 0.73477 0.06121 0.37769 0.0
H418 H 0.74981 0.0215 0.3134 0.0
H419 H 0.77462 0.97447 0.30055 0.0
H420 H 0.66235 0.94569 0.33494 0.0
H421 H 0.65659 0.97019 0.3902 0.0
H422 H 0.84769 0.00949 0.36154 0.0
H423 H 0.85868 0.92316 0.38063 0.0
C424 C 0.05337 0.40618 0.16368 0.0
C425 C 0.0407 0.38734 0.15132 0.0
C426 C 0.04427 0.4348 0.16505 0.0
C427 C 0.98359 0.48353 0.15191 0.0
H428 H 0.0379 0.54376 0.16237 0.0
C429 C 0.95863 0.60355 0.13987 0.0
C430 C 0.9675 0.62351 0.15278 0.0
C431 C 0.96673 0.57474 0.14104 0.0
C432 C 0.02237 0.52718 0.15961 0.0
H433 H 0.00757 0.38444 0.13109 0.0
H434 H 0.993 0.43386 0.13281 0.0
H435 H 0.05389 0.49409 0.16174 0.0
H436 H 0.99192 0.62851 0.17712 0.0
H437 H 0.00626 0.5782 0.1791 0.0
H438 H 0.95231 0.51677 0.14926 0.0
C439 C 0.00965 0.42664 0.14176 0.0
C440 C 0.03153 0.49854 0.1593 0.0
C441 C 0.01852 0.39812 0.14051 0.0
C442 C 0.98445 0.61371 0.16704 0.0
C443 C 0.99293 0.58491 0.16807 0.0
C444 C 0.97455 0.51212 0.15201 0.0
C445 C 0.02223 0.44555 0.15408 0.0
C446 C 0.01235 0.47619 0.15527 0.0
C447 C 0.98429 0.56503 0.15503 0.0
C448 C 0.99382 0.53441 0.15574 0.0
H449 H 0.07058 0.39898 0.17221 0.0
H450 H 0.05439 0.44839 0.17487 0.0
H451 H 0.96783 0.46716 0.14922 0.0
H452 H 0.94549 0.61026 0.12875 0.0
H453 H 0.95981 0.56017 0.13069 0.0
C454 C 0.39809 0.99389 0.64107 0.0
C455 C 0.3873 0.97155 0.65173 0.0
C456 C 0.42663 1.00271 0.64237 0.0
C457 C 0.49854 0.9804 0.6596 0.0
H458 H 0.51674 0.05989 0.65048 0.0
C459 C 0.61384 0.02704 0.66758 0.0
C460 C 0.62352 0.04456 0.65357 0.0
C461 C 0.58503 0.01855 0.66858 0.0
C462 C 0.5121 0.03757 0.65297 0.0
H463 H 0.39892 0.94129 0.67239 0.0
H464 H 0.44839 0.95735 0.67513 0.0
H465 H 0.46711 0.04437 0.65032 0.0
H466 H 0.61006 0.06756 0.62996 0.0
H467 H 0.55999 0.05317 0.63182 0.0
H468 H 0.54377 0.97392 0.66251 0.0
C469 C 0.43478 0.96766 0.66539 0.0
C470 C 0.48351 0.02854 0.6528 0.0
C471 C 0.40614 0.95863 0.66398 0.0
C472 C 0.60344 0.05397 0.64089 0.0
C473 C 0.57464 0.04583 0.64202 0.0
C474 C 0.52718 0.98954 0.65997 0.0
C475 C 0.44554 0.98988 0.65459 0.0
C476 C 0.47618 0.99971 0.65584 0.0
C477 C 0.56503 0.02772 0.65576 0.0
C478 C 0.53441 0.01819 0.65642 0.0
H479 H 0.38441 1.005 0.63173 0.0
H480 H 0.43387 0.01951 0.63355 0.0
H481 H 0.49407 0.95799 0.6618 0.0
H482 H 0.62871 0.01915 0.67749 0.0
H483 H 0.5784 1.0048 0.67942 0.0
C484 C 0.95834 0.40588 0.84885 0.0
C485 C 0.97116 0.38715 0.86121 0.0
C486 C 0.96737 0.43451 0.8474 0.0
C487 C 0.02813 0.48337 0.86011 0.0
H488 H 0.97358 0.54349 0.84991 0.0
C489 C 0.05335 0.60343 0.8717 0.0
C490 C 0.04408 0.62336 0.85889 0.0
C491 C 0.04524 0.57461 0.87063 0.0
C492 C 0.98918 0.52694 0.85259 0.0
H493 H 1.00444 0.38445 0.88135 0.0
H494 H 0.01894 0.43389 0.87945 0.0
H495 H 0.95765 0.49381 0.85072 0.0
H496 H 0.01898 0.62828 0.83482 0.0
H497 H 1.00467 0.57795 0.833 0.0
H498 H 0.05943 0.51664 0.86246 0.0
C499 C 1.00222 0.42657 0.87058 0.0
C500 C 0.98005 0.49831 0.85301 0.0
C501 C 0.9934 0.39804 0.87193 0.0
C502 C 0.02674 0.61351 0.84482 0.0
C503 C 0.01828 0.5847 0.84389 0.0
C504 C 0.03714 0.51196 0.85988 0.0
C505 C 0.98949 0.44537 0.85826 0.0
C506 C 0.99932 0.476 0.85695 0.0
C507 C 0.02731 0.56485 0.85684 0.0
C508 C 0.01779 0.53422 0.85625 0.0
H509 H 0.94108 0.39858 0.84039 0.0
H510 H 0.95714 0.44802 0.83758 0.0
H511 H 0.04394 0.46702 0.86272 0.0
H512 H 0.0668 0.61017 0.88268 0.0
H513 H 0.05247 0.56008 0.88092 0.0
C514 C 0.40639 0.05087 0.34841 0.0
C515 C 0.38758 0.03847 0.36088 0.0
C516 C 0.43501 0.04173 0.34709 0.0
C517 C 0.48386 0.98144 0.36078 0.0
H518 H 0.544 0.03563 0.34994 0.0
C519 C 0.60399 0.95714 0.37319 0.0
C520 C 0.62388 0.9656 0.36014 0.0
C521 C 0.57515 0.96518 0.37196 0.0
C522 C 0.52744 0.02014 0.35282 0.0
H523 H 0.3847 1.00572 0.38133 0.0
H524 H 0.43411 0.9911 0.37969 0.0
H525 H 0.49427 0.05151 0.35034 0.0
H526 H 0.62873 0.98928 0.33552 0.0
H527 H 0.57841 1.00351 0.33345 0.0
H528 H 0.51718 0.95032 0.36378 0.0
C529 C 0.42688 0.00756 0.37062 0.0
C530 C 0.49877 0.02923 0.353 0.0
C531 C 0.39837 0.01646 0.37182 0.0
C532 C 0.614 0.98212 0.34572 0.0
C533 C 0.58519 0.99054 0.34463 0.0
C534 C 0.51248 0.97248 0.36082 0.0
C535 C 0.44578 0.01992 0.35822 0.0
C536 C 0.47645 0.01009 0.35715 0.0
C537 C 0.56536 0.98228 0.35778 0.0
C538 C 0.53473 0.99171 0.35697 0.0
H539 H 0.39916 0.06793 0.33977 0.0
H540 H 0.44859 0.05166 0.33719 0.0
H541 H 0.46751 0.9657 0.36357 0.0
H542 H 0.61077 0.94435 0.38446 0.0
H543 H 0.56062 0.95856 0.38241 0.0
C544 C 0.99169 0.22182 0.93928 0.0
C545 C 0.98894 0.24798 0.93031 0.0
C546 C 0.99689 0.22117 0.95772 0.0
C547 C 0.98639 0.26468 0.99834 0.0
H548 H 0.0404 0.21249 0.02006 0.0
C549 C 0.01628 0.2723 0.07324 0.0
C550 C 0.02331 0.2472 0.08248 0.0
C551 C 0.01117 0.27167 0.05483 0.0
C552 C 0.02484 0.22691 0.01432 0.0
H553 H 0.98951 0.2939 0.93336 0.0
H554 H 0.99862 0.29293 0.96554 0.0
H555 H 0.03442 0.21273 0.98775 0.0
H556 H 0.0305 0.2018 0.07986 0.0
H557 H 0.02053 0.20028 0.04782 0.0
H558 H 0.97632 0.27858 0.02478 0.0
C559 C 0.99681 0.27287 0.95843 0.0
C560 C 0.02153 0.22711 0.99571 0.0
C561 C 0.99193 0.27348 0.93999 0.0
C562 C 0.0247 0.22136 0.07304 0.0
C563 C 0.01937 0.22064 0.05462 0.0
C564 C 0.98946 0.26429 0.01693 0.0
C565 C 0.99898 0.24671 0.9676 0.0
C566 C 1.00241 0.24616 0.98745 0.0
C567 C 0.01293 0.24588 0.04514 0.0
C568 C 0.00889 0.24554 0.02525 0.0
H569 H 0.989 0.20191 0.93211 0.0
H570 H 0.99821 0.20066 0.96434 0.0
H571 H 0.97107 0.27928 0.99248 0.0
H572 H 0.01577 0.29259 0.08018 0.0
H573 H 0.00684 0.29168 0.04811 0.0
C574 C 0.78854 0.02645 0.57255 0.0
C575 C 0.7626 0.02505 0.58187 0.0
C576 C 0.78939 0.02152 0.55409 0.0
C577 C 0.74571 0.99289 0.51597 0.0
H578 H 0.79834 0.03751 0.48737 0.0
C579 C 0.73752 0.99658 0.43906 0.0
C580 C 0.76308 0.9926 0.42958 0.0
C581 C 0.73798 1.00162 0.45748 0.0
C582 C 0.78364 0.02475 0.49517 0.0
H583 H 0.71717 0.01786 0.57934 0.0
H584 H 0.7183 0.0097 0.54719 0.0
H585 H 0.79829 0.04293 0.51973 0.0
H586 H 0.8091 0.99109 0.43172 0.0
H587 H 0.8101 1.00069 0.46392 0.0
H588 H 0.73069 0.97522 0.49132 0.0
C589 C 0.73828 0.01372 0.55402 0.0
C590 C 0.78368 0.02771 0.5138 0.0
C591 C 0.73753 0.0184 0.57247 0.0
C592 C 0.78917 0.99464 0.43872 0.0
C593 C 0.78968 1.00003 0.45714 0.0
C594 C 0.74546 0.99019 0.49736 0.0
C595 C 0.76419 0.01548 0.54445 0.0
C596 C 0.76468 0.01184 0.52453 0.0
C597 C 0.76405 1.00294 0.46683 0.0
C598 C 0.76437 0.00611 0.48669 0.0
H599 H 0.80808 0.03194 0.5795 0.0
H600 H 0.80984 0.02264 0.54739 0.0
H601 H 0.73115 0.97979 0.52365 0.0
H602 H 0.71713 0.99462 0.43231 0.0
H603 H 0.71787 1.00405 0.46446 0.0
C604 C 0.99324 0.78867 0.0732 0.0
C605 C 0.99114 0.76247 0.0822 0.0
C606 C 0.99849 0.78939 0.05477 0.0
C607 C 0.98822 0.74574 0.01435 0.0
H608 H 0.04141 0.7983 0.9922 0.0
C609 C 0.01676 0.73793 0.93933 0.0
C610 C 0.02365 0.76298 0.93 0.0
C611 C 0.01193 0.73867 0.95776 0.0
C612 C 0.02606 0.78378 0.99807 0.0
H613 H 0.99299 0.71657 0.07922 0.0
H614 H 1.00214 0.71768 0.04705 0.0
H615 H 0.03598 0.79815 0.02456 0.0
H616 H 0.03079 0.8084 0.93245 0.0
H617 H 0.02122 0.81014 0.96453 0.0
H618 H 0.97773 0.73171 0.98801 0.0
C619 C 0.99984 0.7377 0.05415 0.0
C620 C 0.02309 0.78362 0.01669 0.0
C621 C 0.99494 0.73702 0.07257 0.0
C622 C 0.02511 0.78889 0.93935 0.0
C623 C 0.02002 0.78972 0.95779 0.0
C624 C 0.99093 0.74611 0.99575 0.0
C625 C 1.00122 0.76388 0.04494 0.0
C626 C 1.00431 0.76442 0.02509 0.0
C627 C 0.01378 0.76453 0.96736 0.0
C628 C 0.01006 0.76498 0.98727 0.0
H629 H 0.98989 0.80853 0.08033 0.0
H630 H 0.99923 0.80989 0.0481 0.0
H631 H 0.97315 0.73103 0.02034 0.0
H632 H 0.01619 0.71759 0.93244 0.0
H633 H 0.00775 0.7187 0.96455 0.0
C634 C 0.22206 0.02691 0.44033 0.0
C635 C 0.24783 0.02465 0.43088 0.0
C636 C 0.22121 0.02163 0.45875 0.0
C637 C 0.26389 0.99008 0.49633 0.0
H638 H 0.21403 0.03666 0.52567 0.0
C639 C 0.2736 0.99187 0.57319 0.0
C640 C 0.24807 0.98962 0.58292 0.0
C641 C 0.27302 0.99691 0.55478 0.0
C642 C 0.22792 0.02332 0.51766 0.0
H643 H 0.29298 0.01565 0.43316 0.0
H644 H 0.29184 0.00681 0.46523 0.0
H645 H 0.21389 0.04283 0.49337 0.0
H646 H 0.202 0.99122 0.58124 0.0
H647 H 0.20084 1.00069 0.54903 0.0
H648 H 0.2783 0.97104 0.5207 0.0
C649 C 0.27197 0.01179 0.45852 0.0
C650 C 0.22777 0.02674 0.49906 0.0
C651 C 0.27272 0.01686 0.44011 0.0
C652 C 0.22195 0.9933 0.57403 0.0
C653 C 0.22134 0.99866 0.55561 0.0
C654 C 0.26423 0.98689 0.5149 0.0
C655 C 0.24625 0.01435 0.46821 0.0
C656 C 0.24581 0.01021 0.48808 0.0
C657 C 0.24688 0.99997 0.54568 0.0
C658 C 0.24633 1.00351 0.52585 0.0
H659 H 0.20268 0.03329 0.43351 0.0
H660 H 0.20091 0.02343 0.46556 0.0
H661 H 0.27767 0.97649 0.48843 0.0
H662 H 0.29398 0.98877 0.57977 0.0
H663 H 0.29309 0.99812 0.54763 0.0
C664 C 0.09556 0.22479 0.21811 0.0
C665 C 0.0896 0.21232 0.20149 0.0
C666 C 0.10879 0.20885 0.23171 0.0
C667 C 0.15259 0.1423 0.23871 0.0
H668 H 0.13838 0.15849 0.28855 0.0
C669 C 0.22429 0.09505 0.29513 0.0
C670 C 0.21203 0.08961 0.31188 0.0
C671 C 0.20835 0.10836 0.28157 0.0
C672 C 0.14248 0.15327 0.27473 0.0
H673 H 0.09267 0.17346 0.18606 0.0
H674 H 0.11457 0.14523 0.20985 0.0
H675 H 0.11162 0.18391 0.26578 0.0
H676 H 0.17354 0.09372 0.32756 0.0
H677 H 0.14528 0.11576 0.30384 0.0
H678 H 0.18282 0.11105 0.24766 0.0
C679 C 0.10966 0.16744 0.21246 0.0
C680 C 0.12731 0.16832 0.26154 0.0
C681 C 0.09667 0.18347 0.19885 0.0
C682 C 0.18338 0.09731 0.31468 0.0
C683 C 0.16734 0.11037 0.3011 0.0
C684 C 0.16761 0.1271 0.25189 0.0
C685 C 0.11645 0.17994 0.22907 0.0
C686 C 0.13215 0.16324 0.24327 0.0
C687 C 0.17964 0.11662 0.28436 0.0
C688 C 0.16296 0.13237 0.27017 0.0
H689 H 0.09101 0.2472 0.22034 0.0
H690 H 0.11396 0.21961 0.24406 0.0
H691 H 0.15747 0.13785 0.22488 0.0
H692 H 0.24656 0.08999 0.29277 0.0
H693 H 0.21897 0.1131 0.2691 0.0
C694 C 0.91701 0.2245 0.79461 0.0
C695 C 0.92324 0.21198 0.81117 0.0
C696 C 0.90383 0.20852 0.78101 0.0
C697 C 0.86057 0.14165 0.77396 0.0
H698 H 0.87417 0.15828 0.72413 0.0
C699 C 0.78866 0.09437 0.71764 0.0
C700 C 0.8008 0.08913 0.70084 0.0
C701 C 0.80464 0.10766 0.7312 0.0
C702 C 0.87025 0.15295 0.73794 0.0
H703 H 0.92069 0.17299 0.82648 0.0
H704 H 0.89888 0.1447 0.80268 0.0
H705 H 0.90095 0.18377 0.74688 0.0
H706 H 0.83914 0.09355 0.68504 0.0
H707 H 0.86749 0.11556 0.70875 0.0
H708 H 0.83049 0.11023 0.76502 0.0
C709 C 0.90355 0.16697 0.80012 0.0
C710 C 0.88542 0.16803 0.75112 0.0
C711 C 0.91649 0.18304 0.81374 0.0
C712 C 0.82939 0.09698 0.69797 0.0
C713 C 0.84548 0.11003 0.71154 0.0
C714 C 0.84554 0.12643 0.76079 0.0
C715 C 0.89648 0.17953 0.78359 0.0
C716 C 0.88079 0.16278 0.76939 0.0
C717 C 0.83328 0.11609 0.72833 0.0
C718 C 0.84998 0.13186 0.74251 0.0
H719 H 0.92132 0.24697 0.79245 0.0
H720 H 0.89844 0.21932 0.76871 0.0
H721 H 0.85585 0.13708 0.78779 0.0
H722 H 0.76643 0.0892 0.72005 0.0
H723 H 0.7941 0.11225 0.74371 0.0
C724 C 0.82606 0.92737 0.30812 0.0
C725 C 0.79732 0.91966 0.31078 0.0
C726 C 0.84222 0.91472 0.29437 0.0
C727 C 0.85271 0.84856 0.27212 0.0
H728 H 0.88162 0.88709 0.23015 0.0
C729 C 0.90144 0.78393 0.21352 0.0
C730 C 0.92011 0.79707 0.20138 0.0
C731 C 0.88855 0.79967 0.22726 0.0
C732 C 0.87437 0.87588 0.24192 0.0
H733 H 0.76249 0.89418 0.3004 0.0
H734 H 0.79096 0.87131 0.27689 0.0
H735 H 0.8554 0.91413 0.25273 0.0
H736 H 0.94176 0.83651 0.19501 0.0
H737 H 0.9209 0.86376 0.21963 0.0
H738 H 0.87234 0.81065 0.2621 0.0
C739 C 0.80097 0.88711 0.2854 0.0
C740 C 0.85906 0.89152 0.25481 0.0
C741 C 0.78471 0.90021 0.29883 0.0
C742 C 0.92719 0.8259 0.20407 0.0
C743 C 0.91477 0.84161 0.21809 0.0
C744 C 0.86856 0.83306 0.2595 0.0
C745 C 0.83003 0.89386 0.28319 0.0
C746 C 0.8477 0.87792 0.26991 0.0
C747 C 0.8946 0.829 0.22973 0.0
C748 C 0.87933 0.84624 0.24394 0.0
H749 H 0.83629 0.94237 0.31708 0.0
H750 H 0.86455 0.92037 0.29294 0.0
H751 H 0.84443 0.83757 0.28373 0.0
H752 H 0.89583 0.76162 0.2119 0.0
H753 H 0.87304 0.78882 0.23552 0.0
C754 C 0.227 0.91249 0.71754 0.0
C755 C 0.21327 0.92302 0.70225 0.0
C756 C 0.21128 0.89901 0.73111 0.0
C757 C 0.13783 0.88883 0.74957 0.0
H758 H 0.16959 0.81881 0.76879 0.0
C759 C 0.08975 0.82868 0.81116 0.0
C760 C 0.08991 0.79868 0.81075 0.0
C761 C 0.10298 0.84458 0.79754 0.0
C762 C 0.16025 0.83822 0.76352 0.0
H763 H 0.1724 0.92801 0.6892 0.0
H764 H 0.14474 0.90507 0.71302 0.0
H765 H 0.19632 0.84579 0.74653 0.0
H766 H 0.10347 0.76174 0.79568 0.0
H767 H 0.12649 0.78928 0.77187 0.0
H768 H 0.1017 0.88113 0.7666 0.0
C769 C 0.16762 0.90732 0.71467 0.0
C770 C 0.1758 0.85394 0.75087 0.0
C771 C 0.18341 0.92054 0.70102 0.0
C772 C 0.10285 0.78487 0.79622 0.0
C773 C 0.1163 0.80069 0.7827 0.0
C774 C 0.1224 0.87325 0.76241 0.0
C775 C 0.18137 0.8958 0.72977 0.0
C776 C 0.16485 0.87947 0.74364 0.0
C777 C 0.11702 0.8308 0.78329 0.0
C778 C 0.1333 0.8476 0.76953 0.0
H779 H 0.25004 0.91374 0.71867 0.0
H780 H 0.22264 0.89074 0.74258 0.0
H781 H 0.12871 0.90843 0.74443 0.0
H782 H 0.08026 0.83983 0.82235 0.0
H783 H 0.10321 0.86765 0.79858 0.0
C784 C 0.02354 0.10939 0.15455 0.0
C785 C 0.04126 0.12232 0.14169 0.0
C786 C 0.01558 0.08074 0.15304 0.0
C787 C 0.03486 0.01166 0.13383 0.0
H788 H 0.95389 0.99515 0.13805 0.0
C789 C 0.99247 0.897 0.12398 0.0
C790 C 0.97009 0.88778 0.13503 0.0
C791 C 1.00016 0.92585 0.12331 0.0
C792 C 0.97661 0.9992 0.13707 0.0
H793 H 0.06569 0.11446 0.11762 0.0
H794 H 0.05242 0.06388 0.11532 0.0
H795 H 0.97067 0.0443 0.14041 0.0
H796 H 0.93787 0.90138 0.15385 0.0
H797 H 0.9517 0.95174 0.1532 0.0
H798 H 0.04114 0.96663 0.13119 0.0
C799 C 0.04442 0.07633 0.12643 0.0
C800 C 0.9862 0.02746 0.13834 0.0
C801 C 0.05214 0.10525 0.12781 0.0
C802 C 0.95495 0.90806 0.14504 0.0
C803 C 0.96294 0.93694 0.14462 0.0
C804 C 0.02534 0.98332 0.13283 0.0
C805 C 0.02548 0.064 0.13881 0.0
C806 C 0.01543 0.03399 0.13682 0.0
C807 C 0.98603 0.94621 0.13397 0.0
C808 C 0.99605 0.97661 0.13448 0.0
H809 H 0.01539 0.12156 0.16573 0.0
H810 H 1.0015 0.07167 0.16301 0.0
H811 H 0.05753 0.01602 0.13278 0.0
H812 H 1.00441 0.88171 0.11609 0.0
H813 H 0.01748 0.93207 0.11457 0.0
C814 C 0.10934 0.98917 0.65512 0.0
C815 C 0.12227 0.97165 0.64215 0.0
C816 C 0.0807 0.99721 0.65364 0.0
C817 C 0.01168 0.97847 0.63398 0.0
H818 H 0.99518 0.05927 0.63921 0.0
C819 C 0.89729 0.02132 0.6239 0.0
C820 C 0.88782 0.04315 0.6353 0.0
C821 C 0.92616 0.01369 0.6233 0.0
C822 C 0.99924 0.03659 0.63794 0.0
H823 H 0.11446 0.94767 0.6179 0.0
H824 H 0.06392 0.9611 0.61562 0.0
H825 H 0.0443 0.04238 0.64159 0.0
H826 H 0.90103 0.07452 0.65479 0.0
H827 H 0.95145 0.0608 0.65423 0.0
H828 H 0.96668 0.97234 0.63098 0.0
C829 C 0.07633 0.96887 0.62681 0.0
C830 C 0.02747 0.02693 0.63923 0.0
C831 C 0.10523 0.96106 0.62817 0.0
C832 C 0.9079 0.05787 0.64571 0.0
C833 C 0.93681 0.04994 0.64534 0.0
C834 C 0.98337 0.98805 0.63293 0.0
C835 C 0.06399 0.9876 0.63931 0.0
C836 C 0.03401 0.99776 0.63734 0.0
C837 C 0.94629 0.02734 0.63436 0.0
C838 C 0.97667 0.01728 0.63494 0.0
H839 H 0.1215 0.99711 0.66637 0.0
H840 H 0.07162 0.01112 0.6637 0.0
H841 H 0.01603 0.95583 0.63264 0.0
H842 H 0.88217 0.00972 0.61569 0.0
H843 H 0.93258 0.99677 0.61431 0.0
C844 C 0.98928 0.10939 0.85791 0.0
C845 C 0.97162 0.1222 0.87085 0.0
C846 C 0.99732 0.08075 0.85932 0.0
C847 C 0.97836 0.01156 0.87861 0.0
H848 H 0.05922 0.99507 0.8736 0.0
C849 C 0.02107 0.89704 0.88829 0.0
C850 C 0.04302 0.8877 0.87693 0.0
C851 C 0.01345 0.92591 0.88899 0.0
C852 C 0.03653 0.99912 0.8748 0.0
H853 H 0.94739 0.11417 0.89497 0.0
H854 H 0.96082 0.06362 0.89711 0.0
H855 H 0.04237 0.04422 0.87138 0.0
H856 H 0.07458 0.90111 0.85764 0.0
H857 H 0.06087 0.95151 0.85839 0.0
H858 H 0.97218 0.96654 0.88137 0.0
C859 C 0.9687 0.07613 0.88601 0.0
C860 C 0.02689 0.02737 0.87361 0.0
C861 C 0.96089 0.10504 0.88472 0.0
C862 C 0.05784 0.90789 0.86668 0.0
C863 C 0.04992 0.93678 0.86716 0.0
C864 C 0.98792 0.98323 0.87955 0.0
C865 C 0.98757 0.06391 0.87354 0.0
C866 C 0.99769 0.0339 0.87541 0.0
C867 C 0.02722 0.94615 0.87809 0.0
C868 C 0.01717 0.97654 0.87762 0.0
H869 H 0.99733 0.12165 0.84675 0.0
H870 H 0.01133 0.07177 0.84928 0.0
H871 H 0.95571 0.0159 0.87988 0.0
H872 H 0.00938 0.88183 0.89637 0.0
H873 H 0.99643 0.93222 0.89794 0.0
C874 C 0.90225 0.98903 0.35823 0.0
C875 C 0.88926 0.97209 0.37147 0.0
C876 C 0.93088 0.99715 0.35963 0.0
C877 C 0.99984 0.9792 0.37954 0.0
H878 H 0.01637 0.05979 0.37321 0.0
C879 C 0.11436 0.02228 0.38876 0.0
C880 C 0.12373 0.04378 0.3771 0.0
C881 C 0.08549 0.01468 0.38952 0.0
C882 C 0.01231 0.03716 0.37479 0.0
H883 H 0.89699 0.94923 0.39615 0.0
H884 H 0.94752 0.96277 0.39827 0.0
H885 H 0.96723 0.04284 0.37112 0.0
H886 H 0.1104 0.07456 0.3573 0.0
H887 H 0.05999 0.06084 0.35813 0.0
H888 H 0.04485 0.97314 0.38253 0.0
C889 C 0.93514 0.97003 0.38694 0.0
C890 C 0.98406 0.02748 0.37367 0.0
C891 C 0.90625 0.96216 0.38567 0.0
C892 C 0.10359 0.05817 0.36657 0.0
C893 C 0.07469 0.05025 0.36711 0.0
C894 C 0.02817 0.9888 0.3804 0.0
C895 C 0.94753 0.98818 0.37414 0.0
C896 C 0.97752 0.99839 0.37595 0.0
C897 C 0.06528 0.028 0.37837 0.0
C898 C 0.03488 0.01794 0.37799 0.0
H899 H 0.89015 0.99642 0.34683 0.0
H900 H 0.94 0.01059 0.34935 0.0
H901 H 0.99548 0.95662 0.38119 0.0
H902 H 0.12955 0.01093 0.39705 0.0
H903 H 0.07914 0.99803 0.39872 0.0
loop_
_geom_bond_atom_site_label_1
_geom_bond_atom_site_label_2
_geom_bond_distance
_geom_bond_site_symmetry_2
_ccdc_geom_bond_type
C0 C1 1.443 . S
C0 N4 1.376 . S
C0 C38 1.389 . S
C1 C0 1.443 . S
C1 C2 1.340 . S
C1 H41 0.951 . S
C2 C1 1.340 . S
C2 C3 1.439 . S
C2 H42 0.950 . S
C3 C2 1.439 . S
C3 N4 1.374 . S
C3 C37 1.395 . S
N4 C0 1.376 . S
N4 C3 1.374 . S
N4 Co5 2.008 . S
Co5 N4 2.008 . S
Co5 N6 1.995 . S
Co5 N11 2.008 . S
Co5 N16 1.995 . S
Co5 N21 2.282 . S
Co5 N27 2.282 . S
N6 Co5 1.995 . S
N6 C7 1.376 . S
N6 C10 1.383 . S
C7 N6 1.376 . S
C7 C8 1.446 . S
C7 C37 1.391 . S
C8 C7 1.446 . S
C8 C9 1.339 . S
C8 H43 0.949 . S
C9 C8 1.339 . S
C9 C10 1.439 . S
C9 H44 0.950 . S
C10 N6 1.383 . S
C10 C9 1.439 . S
C10 C39 1.392 . S
N11 Co5 2.008 . S
N11 C12 1.376 . S
N11 C15 1.374 1_455 S
C12 N11 1.376 . S
C12 C13 1.443 1_455 S
C12 C39 1.389 . S
C13 C12 1.443 1_655 S
C13 C14 1.340 . S
C13 H45 0.951 . S
C14 C13 1.340 . S
C14 C15 1.439 . S
C14 H46 0.950 . S
C15 N11 1.374 1_655 S
C15 C14 1.439 . S
C15 C40 1.395 . S
N16 Co5 1.995 . S
N16 C17 1.376 . S
N16 C20 1.383 . S
C17 N16 1.376 . S
C17 C18 1.446 . S
C17 C40 1.391 1_455 S
C18 C17 1.446 . S
C18 C19 1.339 . S
C18 H47 0.949 1_455 S
C19 C18 1.339 . S
C19 C20 1.439 . S
C19 H48 0.950 . S
C20 N16 1.383 . S
C20 C19 1.439 . S
C20 C38 1.392 . S
N21 Co5 2.282 . S
N21 C24 1.332 . S
N21 C26 1.332 . S
C22 C23 1.386 . S
C22 C25 1.388 . S
C23 C22 1.386 . S
C23 C24 1.382 . S
C23 H49 0.950 . S
C24 N21 1.332 . S
C24 C23 1.382 . S
C24 H35 0.952 . S
C25 C22 1.388 . S
C25 C26 1.382 . S
C25 H50 0.950 . S
C26 N21 1.332 . S
C26 C25 1.382 . S
C26 H36 0.948 . S
N27 Co5 2.282 . S
N27 C31 1.332 . S
N27 C32 1.332 . S
C28 C29 1.388 . S
C28 C32 1.382 . S
C28 H51 0.950 . S
C29 C28 1.388 . S
C29 C30 1.386 . S
C30 C29 1.386 . S
C30 C31 1.382 . S
C30 H52 0.950 . S
C31 N27 1.332 . S
C31 C30 1.382 . S
C31 H33 0.952 . S
C32 N27 1.332 . S
C32 C28 1.382 . S
C32 H34 0.948 . S
H33 C31 0.952 . S
H34 C32 0.948 . S
H35 C24 0.952 . S
H36 C26 0.948 . S
C37 C3 1.395 . S
C37 C7 1.391 . S
C38 C0 1.389 . S
C38 C20 1.392 . S
C39 C10 1.392 . S
C39 C12 1.389 . S
C40 C15 1.395 . S
C40 C17 1.391 1_655 S
H41 C1 0.951 . S
H42 C2 0.950 . S
H43 C8 0.949 . S
H44 C9 0.950 . S
H45 C13 0.951 . S
H46 C14 0.950 . S
H47 C18 0.949 1_655 S
H48 C19 0.950 . S
H49 C23 0.950 . S
H50 C25 0.950 . S
H51 C28 0.950 . S
H52 C30 0.950 . S
C53 C54 1.443 . S
C53 N57 1.376 . S
C53 C91 1.389 . S
C54 C53 1.443 . S
C54 C55 1.340 . S
C54 H94 0.951 . S
C55 C54 1.340 . S
C55 C56 1.439 . S
C55 H95 0.950 . S
C56 C55 1.439 . S
C56 N57 1.374 . S
C56 C90 1.395 . S
N57 C53 1.376 . S
N57 C56 1.374 . S
N57 Co58 2.008 . S
Co58 N57 2.008 . S
Co58 N59 1.995 . S
Co58 N64 2.008 . S
Co58 N69 1.995 . S
Co58 N74 2.282 . S
Co58 N80 2.282 . S
N59 Co58 1.995 . S
N59 C60 1.376 . S
N59 C63 1.383 . S
C60 N59 1.376 . S
C60 C61 1.446 . S
C60 C90 1.391 . S
C61 C60 1.446 . S
C61 C62 1.339 . S
C61 H96 0.949 . S
C62 C61 1.339 . S
C62 C63 1.439 . S
C62 H97 0.950 . S
C63 N59 1.383 . S
C63 C62 1.439 . S
C63 C92 1.392 . S
N64 Co58 2.008 . S
N64 C65 1.376 . S
N64 C68 1.374 1_545 S
C65 N64 1.376 . S
C65 C66 1.443 1_545 S
C65 C92 1.389 . S
C66 C65 1.443 1_565 S
C66 C67 1.340 . S
C66 H98 0.951 . S
C67 C66 1.340 . S
C67 C68 1.439 . S
C67 H99 0.950 . S
C68 N64 1.374 1_565 S
C68 C67 1.439 . S
C68 C93 1.395 . S
N69 Co58 1.995 . S
N69 C70 1.376 . S
N69 C73 1.383 . S
C70 N69 1.376 . S
C70 C71 1.446 . S
C70 C93 1.391 1_545 S
C71 C70 1.446 . S
C71 C72 1.339 . S
C71 H100 0.949 1_545 S
C72 C71 1.339 . S
C72 C73 1.439 . S
C72 H101 0.950 . S
C73 N69 1.383 . S
C73 C72 1.439 . S
C73 C91 1.392 . S
N74 Co58 2.282 . S
N74 C77 1.332 . S
N74 C79 1.332 . S
C75 C76 1.386 . S
C75 C78 1.388 . S
C76 C75 1.386 . S
C76 C77 1.382 . S
C76 H102 0.950 . S
C77 N74 1.332 . S
C77 C76 1.382 . S
C77 H88 0.952 . S
C78 C75 1.388 . S
C78 C79 1.382 . S
C78 H103 0.950 . S
C79 N74 1.332 . S
C79 C78 1.382 . S
C79 H89 0.948 . S
N80 Co58 2.282 . S
N80 C84 1.332 . S
N80 C85 1.332 . S
C81 C82 1.388 . S
C81 C85 1.382 . S
C81 H104 0.950 . S
C82 C81 1.388 . S
C82 C83 1.386 . S
C83 C82 1.386 . S
C83 C84 1.382 . S
C83 H105 0.950 . S
C84 N80 1.332 . S
C84 C83 1.382 . S
C84 H86 0.952 . S
C85 N80 1.332 . S
C85 C81 1.382 . S
C85 H87 0.948 . S
H86 C84 0.952 . S
H87 C85 0.948 . S
H88 C77 0.952 . S
H89 C79 0.948 . S
C90 C56 1.395 . S
C90 C60 1.391 . S
C91 C53 1.389 . S
C91 C73 1.392 . S
C92 C63 1.392 . S
C92 C65 1.389 . S
C93 C68 1.395 . S
C93 C70 1.391 1_565 S
H94 C54 0.951 . S
H95 C55 0.950 . S
H96 C61 0.949 . S
H97 C62 0.950 . S
H98 C66 0.951 . S
H99 C67 0.950 . S
H100 C71 0.949 1_565 S
H101 C72 0.950 . S
H102 C76 0.950 . S
H103 C78 0.950 . S
H104 C81 0.950 . S
H105 C83 0.950 . S
C106 C107 1.443 . S
C106 N110 1.376 . S
C106 C144 1.389 . S
C107 C106 1.443 . S
C107 C108 1.340 . S
C107 H147 0.951 . S
C108 C107 1.340 . S
C108 C109 1.439 . S
C108 H148 0.950 . S
C109 C108 1.439 . S
C109 N110 1.374 . S
C109 C143 1.395 . S
N110 C106 1.376 . S
N110 C109 1.374 . S
N110 Co111 2.008 . S
Co111 N110 2.008 . S
Co111 N112 1.995 . S
Co111 N117 2.008 . S
Co111 N122 1.995 . S
Co111 N127 2.282 . S
Co111 N133 2.282 . S
N112 Co111 1.995 . S
N112 C113 1.376 . S
N112 C116 1.383 . S
C113 N112 1.376 . S
C113 C114 1.446 . S
C113 C143 1.391 . S
C114 C113 1.446 . S
C114 C115 1.339 . S
C114 H149 0.949 . S
C115 C114 1.339 . S
C115 C116 1.439 . S
C115 H150 0.950 . S
C116 N112 1.383 . S
C116 C115 1.439 . S
C116 C145 1.392 . S
N117 Co111 2.008 . S
N117 C118 1.376 . S
N117 C121 1.374 1_655 S
C118 N117 1.376 . S
C118 C119 1.443 1_655 S
C118 C145 1.389 . S
C119 C118 1.443 1_455 S
C119 C120 1.340 . S
C119 H151 0.951 . S
C120 C119 1.340 . S
C120 C121 1.439 . S
C120 H152 0.950 . S
C121 N117 1.374 1_455 S
C121 C120 1.439 . S
C121 C146 1.395 . S
N122 Co111 1.995 . S
N122 C123 1.376 . S
N122 C126 1.383 . S
C123 N122 1.376 . S
C123 C124 1.446 . S
C123 C146 1.391 1_655 S
C124 C123 1.446 . S
C124 C125 1.339 . S
C124 H153 0.949 1_655 S
C125 C124 1.339 . S
C125 C126 1.439 . S
C125 H154 0.950 . S
C126 N122 1.383 . S
C126 C125 1.439 . S
C126 C144 1.392 . S
N127 Co111 2.282 . S
N127 C130 1.332 . S
N127 C132 1.332 . S
C128 C129 1.386 . S
C128 C131 1.388 . S
C129 C128 1.386 . S
C129 C130 1.382 . S
C129 H155 0.950 . S
C130 N127 1.332 . S
C130 C129 1.382 . S
C130 H141 0.952 . S
C131 C128 1.388 . S
C131 C132 1.382 . S
C131 H156 0.950 . S
C132 N127 1.332 . S
C132 C131 1.382 . S
C132 H142 0.948 . S
N133 Co111 2.282 . S
N133 C137 1.332 . S
N133 C138 1.332 . S
C134 C135 1.388 . S
C134 C138 1.382 . S
C134 H157 0.950 . S
C135 C134 1.388 . S
C135 C136 1.386 . S
C136 C135 1.386 . S
C136 C137 1.382 . S
C136 H158 0.950 . S
C137 N133 1.332 . S
C137 C136 1.382 . S
C137 H139 0.952 . S
C138 N133 1.332 . S
C138 C134 1.382 . S
C138 H140 0.948 . S
H139 C137 0.952 . S
H140 C138 0.948 . S
H141 C130 0.952 . S
H142 C132 0.948 . S
C143 C109 1.395 . S
C143 C113 1.391 . S
C144 C106 1.389 . S
C144 C126 1.392 . S
C145 C116 1.392 . S
C145 C118 1.389 . S
C146 C121 1.395 . S
C146 C123 1.391 1_455 S
H147 C107 0.951 . S
H148 C108 0.950 . S
H149 C114 0.949 . S
H150 C115 0.950 . S
H151 C119 0.951 . S
H152 C120 0.950 . S
H153 C124 0.949 1_455 S
H154 C125 0.950 . S
H155 C129 0.950 . S
H156 C131 0.950 . S
H157 C134 0.950 . S
H158 C136 0.950 . S
C159 C160 1.443 . S
C159 N163 1.376 . S
C159 C197 1.389 . S
C160 C159 1.443 . S
C160 C161 1.340 . S
C160 H200 0.951 . S
C161 C160 1.340 . S
C161 C162 1.439 . S
C161 H201 0.950 . S
C162 C161 1.439 . S
C162 N163 1.374 . S
C162 C196 1.395 . S
N163 C159 1.376 . S
N163 C162 1.374 . S
N163 Co164 2.008 . S
Co164 N163 2.008 . S
Co164 N165 1.995 . S
Co164 N170 2.008 . S
Co164 N175 1.995 . S
Co164 N180 2.282 . S
Co164 N186 2.282 . S
N165 Co164 1.995 . S
N165 C166 1.376 . S
N165 C169 1.383 . S
C166 N165 1.376 . S
C166 C167 1.446 . S
C166 C196 1.391 . S
C167 C166 1.446 . S
C167 C168 1.339 . S
C167 H202 0.949 . S
C168 C167 1.339 . S
C168 C169 1.439 . S
C168 H203 0.950 . S
C169 N165 1.383 . S
C169 C168 1.439 . S
C169 C198 1.392 . S
N170 Co164 2.008 . S
N170 C171 1.376 . S
N170 C174 1.374 1_565 S
C171 N170 1.376 . S
C171 C172 1.443 1_565 S
C171 C198 1.389 . S
C172 C171 1.443 1_545 S
C172 C173 1.340 . S
C172 H204 0.951 . S
C173 C172 1.340 . S
C173 C174 1.439 . S
C173 H205 0.950 . S
C174 N170 1.374 1_545 S
C174 C173 1.439 . S
C174 C199 1.395 . S
N175 Co164 1.995 . S
N175 C176 1.376 . S
N175 C179 1.383 . S
C176 N175 1.376 . S
C176 C177 1.446 . S
C176 C199 1.391 1_565 S
C177 C176 1.446 . S
C177 C178 1.339 . S
C177 H206 0.949 1_565 S
C178 C177 1.339 . S
C178 C179 1.439 . S
C178 H207 0.950 . S
C179 N175 1.383 . S
C179 C178 1.439 . S
C179 C197 1.392 . S
N180 Co164 2.282 . S
N180 C183 1.332 . S
N180 C185 1.332 . S
C181 C182 1.386 . S
C181 C184 1.388 . S
C182 C181 1.386 . S
C182 C183 1.382 . S
C182 H208 0.950 . S
C183 N180 1.332 . S
C183 C182 1.382 . S
C183 H194 0.952 . S
C184 C181 1.388 . S
C184 C185 1.382 . S
C184 H209 0.950 . S
C185 N180 1.332 . S
C185 C184 1.382 . S
C185 H195 0.948 . S
N186 Co164 2.282 . S
N186 C190 1.332 . S
N186 C191 1.332 . S
C187 C188 1.388 . S
C187 C191 1.382 . S
C187 H210 0.950 . S
C188 C187 1.388 . S
C188 C189 1.386 . S
C189 C188 1.386 . S
C189 C190 1.382 . S
C189 H211 0.950 . S
C190 N186 1.332 . S
C190 C189 1.382 . S
C190 H192 0.952 . S
C191 N186 1.332 . S
C191 C187 1.382 . S
C191 H193 0.948 . S
H192 C190 0.952 . S
H193 C191 0.948 . S
H194 C183 0.952 . S
H195 C185 0.948 . S
C196 C162 1.395 . S
C196 C166 1.391 . S
C197 C159 1.389 . S
C197 C179 1.392 . S
C198 C169 1.392 . S
C198 C171 1.389 . S
C199 C174 1.395 . S
C199 C176 1.391 1_545 S
H200 C160 0.951 . S
H201 C161 0.950 . S
H202 C167 0.949 . S
H203 C168 0.950 . S
H204 C172 0.951 . S
H205 C173 0.950 . S
H206 C177 0.949 1_545 S
H207 C178 0.950 . S
H208 C182 0.950 . S
H209 C184 0.950 . S
H210 C187 0.950 . S
H211 C189 0.950 . S
C212 C213 1.443 . S
C212 N216 1.376 . S
C212 C250 1.389 . S
C213 C212 1.443 . S
C213 C214 1.340 . S
C213 H253 0.951 . S
C214 C213 1.340 . S
C214 C215 1.439 . S
C214 H254 0.950 . S
C215 C214 1.439 . S
C215 N216 1.374 . S
C215 C249 1.395 . S
N216 C212 1.376 . S
N216 C215 1.374 . S
N216 Co217 2.008 . S
Co217 N216 2.008 . S
Co217 N218 1.995 . S
Co217 N223 2.008 . S
Co217 N228 1.995 . S
Co217 N233 2.282 . S
Co217 N239 2.282 . S
N218 Co217 1.995 . S
N218 C219 1.376 . S
N218 C222 1.383 . S
C219 N218 1.376 . S
C219 C220 1.446 . S
C219 C249 1.391 . S
C220 C219 1.446 . S
C220 C221 1.339 . S
C220 H255 0.949 . S
C221 C220 1.339 . S
C221 C222 1.439 . S
C221 H256 0.950 . S
C222 N218 1.383 . S
C222 C221 1.439 . S
C222 C251 1.392 . S
N223 Co217 2.008 . S
N223 C224 1.376 . S
N223 C227 1.374 1_455 S
C224 N223 1.376 . S
C224 C225 1.443 1_455 S
C224 C251 1.389 . S
C225 C224 1.443 1_655 S
C225 C226 1.340 . S
C225 H257 0.951 . S
C226 C225 1.340 . S
C226 C227 1.439 . S
C226 H258 0.950 . S
C227 N223 1.374 1_655 S
C227 C226 1.439 . S
C227 C252 1.395 . S
N228 Co217 1.995 . S
N228 C229 1.376 . S
N228 C232 1.383 . S
C229 N228 1.376 . S
C229 C230 1.446 . S
C229 C252 1.391 1_455 S
C230 C229 1.446 . S
C230 C231 1.339 . S
C230 H259 0.949 1_455 S
C231 C230 1.339 . S
C231 C232 1.439 . S
C231 H260 0.950 . S
C232 N228 1.383 . S
C232 C231 1.439 . S
C232 C250 1.392 . S
N233 Co217 2.282 . S
N233 C236 1.332 . S
N233 C238 1.332 . S
C234 C235 1.386 . S
C234 C237 1.388 . S
C235 C234 1.386 . S
C235 C236 1.382 . S
C235 H261 0.950 . S
C236 N233 1.332 . S
C236 C235 1.382 . S
C236 H247 0.952 . S
C237 C234 1.388 . S
C237 C238 1.382 . S
C237 H262 0.950 . S
C238 N233 1.332 . S
C238 C237 1.382 . S
C238 H248 0.948 . S
N239 Co217 2.282 . S
N239 C243 1.332 . S
N239 C244 1.332 . S
C240 C241 1.388 . S
C240 C244 1.382 . S
C240 H263 0.950 . S
C241 C240 1.388 . S
C241 C242 1.386 . S
C242 C241 1.386 . S
C242 C243 1.382 . S
C242 H264 0.950 . S
C243 N239 1.332 . S
C243 C242 1.382 . S
C243 H245 0.952 . S
C244 N239 1.332 . S
C244 C240 1.382 . S
C244 H246 0.948 . S
H245 C243 0.952 . S
H246 C244 0.948 . S
H247 C236 0.952 . S
H248 C238 0.948 . S
C249 C215 1.395 . S
C249 C219 1.391 . S
C250 C212 1.389 . S
C250 C232 1.392 . S
C251 C222 1.392 . S
C251 C224 1.389 . S
C252 C227 1.395 . S
C252 C229 1.391 1_655 S
H253 C213 0.951 . S
H254 C214 0.950 . S
H255 C220 0.949 . S
H256 C221 0.950 . S
H257 C225 0.951 . S
H258 C226 0.950 . S
H259 C230 0.949 1_655 S
H260 C231 0.950 . S
H261 C235 0.950 . S
H262 C237 0.950 . S
H263 C240 0.950 . S
H264 C242 0.950 . S
C265 C266 1.443 . S
C265 N269 1.376 . S
C265 C303 1.389 . S
C266 C265 1.443 . S
C266 C267 1.340 . S
C266 H306 0.951 . S
C267 C266 1.340 . S
C267 C268 1.439 . S
C267 H307 0.950 . S
C268 C267 1.439 . S
C268 N269 1.374 . S
C268 C302 1.395 . S
N269 C265 1.376 . S
N269 C268 1.374 . S
N269 Co270 2.008 . S
Co270 N269 2.008 . S
Co270 N271 1.995 . S
Co270 N276 2.008 . S
Co270 N281 1.995 . S
Co270 N286 2.282 . S
Co270 N292 2.282 . S
N271 Co270 1.995 . S
N271 C272 1.376 . S
N271 C275 1.383 . S
C272 N271 1.376 . S
C272 C273 1.446 . S
C272 C302 1.391 . S
C273 C272 1.446 . S
C273 C274 1.339 . S
C273 H308 0.949 . S
C274 C273 1.339 . S
C274 C275 1.439 . S
C274 H309 0.950 . S
C275 N271 1.383 . S
C275 C274 1.439 . S
C275 C304 1.392 . S
N276 Co270 2.008 . S
N276 C277 1.376 . S
N276 C280 1.374 1_545 S
C277 N276 1.376 . S
C277 C278 1.443 1_545 S
C277 C304 1.389 . S
C278 C277 1.443 1_565 S
C278 C279 1.340 . S
C278 H310 0.951 . S
C279 C278 1.340 . S
C279 C280 1.439 . S
C279 H311 0.950 . S
C280 N276 1.374 1_565 S
C280 C279 1.439 . S
C280 C305 1.395 . S
N281 Co270 1.995 . S
N281 C282 1.376 . S
N281 C285 1.383 . S
C282 N281 1.376 . S
C282 C283 1.446 . S
C282 C305 1.391 1_545 S
C283 C282 1.446 . S
C283 C284 1.339 . S
C283 H312 0.949 1_545 S
C284 C283 1.339 . S
C284 C285 1.439 . S
C284 H313 0.950 . S
C285 N281 1.383 . S
C285 C284 1.439 . S
C285 C303 1.392 . S
N286 Co270 2.282 . S
N286 C289 1.332 . S
N286 C291 1.332 . S
C287 C288 1.386 . S
C287 C290 1.388 . S
C288 C287 1.386 . S
C288 C289 1.382 . S
C288 H314 0.950 . S
C289 N286 1.332 . S
C289 C288 1.382 . S
C289 H300 0.952 . S
C290 C287 1.388 . S
C290 C291 1.382 . S
C290 H315 0.950 . S
C291 N286 1.332 . S
C291 C290 1.382 . S
C291 H301 0.948 . S
N292 Co270 2.282 . S
N292 C296 1.332 . S
N292 C297 1.332 . S
C293 C294 1.388 . S
C293 C297 1.382 . S
C293 H316 0.950 . S
C294 C293 1.388 . S
C294 C295 1.386 . S
C295 C294 1.386 . S
C295 C296 1.382 . S
C295 H317 0.950 . S
C296 N292 1.332 . S
C296 C295 1.382 . S
C296 H298 0.952 . S
C297 N292 1.332 . S
C297 C293 1.382 . S
C297 H299 0.948 . S
H298 C296 0.952 . S
H299 C297 0.948 . S
H300 C289 0.952 . S
H301 C291 0.948 . S
C302 C268 1.395 . S
C302 C272 1.391 . S
C303 C265 1.389 . S
C303 C285 1.392 . S
C304 C275 1.392 . S
C304 C277 1.389 . S
C305 C280 1.395 . S
C305 C282 1.391 1_565 S
H306 C266 0.951 . S
H307 C267 0.950 . S
H308 C273 0.949 . S
H309 C274 0.950 . S
H310 C278 0.951 . S
H311 C279 0.950 . S
H312 C283 0.949 1_565 S
H313 C284 0.950 . S
H314 C288 0.950 . S
H315 C290 0.950 . S
H316 C293 0.950 . S
H317 C295 0.950 . S
C318 C319 1.443 . S
C318 N322 1.376 . S
C318 C356 1.389 . S
C319 C318 1.443 . S
C319 C320 1.340 . S
C319 H359 0.951 . S
C320 C319 1.340 . S
C320 C321 1.439 . S
C320 H360 0.950 . S
C321 C320 1.439 . S
C321 N322 1.374 . S
C321 C355 1.395 . S
N322 C318 1.376 . S
N322 C321 1.374 . S
N322 Co323 2.008 . S
Co323 N322 2.008 . S
Co323 N324 1.995 . S
Co323 N329 2.008 . S
Co323 N334 1.995 . S
Co323 N339 2.282 . S
Co323 N345 2.282 . S
N324 Co323 1.995 . S
N324 C325 1.376 . S
N324 C328 1.383 . S
C325 N324 1.376 . S
C325 C326 1.446 . S
C325 C355 1.391 . S
C326 C325 1.446 . S
C326 C327 1.339 . S
C326 H361 0.949 . S
C327 C326 1.339 . S
C327 C328 1.439 . S
C327 H362 0.950 . S
C328 N324 1.383 . S
C328 C327 1.439 . S
C328 C357 1.392 . S
N329 Co323 2.008 . S
N329 C330 1.376 . S
N329 C333 1.374 1_655 S
C330 N329 1.376 . S
C330 C331 1.443 1_655 S
C330 C357 1.389 . S
C331 C330 1.443 1_455 S
C331 C332 1.340 . S
C331 H363 0.951 . S
C332 C331 1.340 . S
C332 C333 1.439 . S
C332 H364 0.950 . S
C333 N329 1.374 1_455 S
C333 C332 1.439 . S
C333 C358 1.395 . S
N334 Co323 1.995 . S
N334 C335 1.376 . S
N334 C338 1.383 . S
C335 N334 1.376 . S
C335 C336 1.446 . S
C335 C358 1.391 1_655 S
C336 C335 1.446 . S
C336 C337 1.339 . S
C336 H365 0.949 1_655 S
C337 C336 1.339 . S
C337 C338 1.439 . S
C337 H366 0.950 . S
C338 N334 1.383 . S
C338 C337 1.439 . S
C338 C356 1.392 . S
N339 Co323 2.282 . S
N339 C342 1.332 . S
N339 C344 1.332 . S
C340 C341 1.386 . S
C340 C343 1.388 . S
C341 C340 1.386 . S
C341 C342 1.382 . S
C341 H367 0.950 . S
C342 N339 1.332 . S
C342 C341 1.382 . S
C342 H353 0.952 . S
C343 C340 1.388 . S
C343 C344 1.382 . S
C343 H368 0.950 . S
C344 N339 1.332 . S
C344 C343 1.382 . S
C344 H354 0.948 . S
N345 Co323 2.282 . S
N345 C349 1.332 . S
N345 C350 1.332 . S
C346 C347 1.388 . S
C346 C350 1.382 . S
C346 H369 0.950 . S
C347 C346 1.388 . S
C347 C348 1.386 . S
C348 C347 1.386 . S
C348 C349 1.382 . S
C348 H370 0.950 . S
C349 N345 1.332 . S
C349 C348 1.382 . S
C349 H351 0.952 . S
C350 N345 1.332 . S
C350 C346 1.382 . S
C350 H352 0.948 . S
H351 C349 0.952 . S
H352 C350 0.948 . S
H353 C342 0.952 . S
H354 C344 0.948 . S
C355 C321 1.395 . S
C355 C325 1.391 . S
C356 C318 1.389 . S
C356 C338 1.392 . S
C357 C328 1.392 . S
C357 C330 1.389 . S
C358 C333 1.395 . S
C358 C335 1.391 1_455 S
H359 C319 0.951 . S
H360 C320 0.950 . S
H361 C326 0.949 . S
H362 C327 0.950 . S
H363 C331 0.951 . S
H364 C332 0.950 . S
H365 C336 0.949 1_455 S
H366 C337 0.950 . S
H367 C341 0.950 . S
H368 C343 0.950 . S
H369 C346 0.950 . S
H370 C348 0.950 . S
C371 C372 1.443 . S
C371 N375 1.376 . S
C371 C409 1.389 . S
C372 C371 1.443 . S
C372 C373 1.340 . S
C372 H412 0.951 . S
C373 C372 1.340 . S
C373 C374 1.439 . S
C373 H413 0.950 . S
C374 C373 1.439 . S
C374 N375 1.374 . S
C374 C408 1.395 . S
N375 C371 1.376 . S
N375 C374 1.374 . S
N375 Co376 2.008 . S
Co376 N375 2.008 . S
Co376 N377 1.995 . S
Co376 N382 2.008 . S
Co376 N387 1.995 . S
Co376 N392 2.282 . S
Co376 N398 2.282 . S
N377 Co376 1.995 . S
N377 C378 1.376 . S
N377 C381 1.383 . S
C378 N377 1.376 . S
C378 C379 1.446 . S
C378 C408 1.391 . S
C379 C378 1.446 . S
C379 C380 1.339 . S
C379 H414 0.949 . S
C380 C379 1.339 . S
C380 C381 1.439 . S
C380 H415 0.950 . S
C381 N377 1.383 . S
C381 C380 1.439 . S
C381 C410 1.392 . S
N382 Co376 2.008 . S
N382 C383 1.376 . S
N382 C386 1.374 1_565 S
C383 N382 1.376 . S
C383 C384 1.443 1_565 S
C383 C410 1.389 . S
C384 C383 1.443 1_545 S
C384 C385 1.340 . S
C384 H416 0.951 . S
C385 C384 1.340 . S
C385 C386 1.439 . S
C385 H417 0.950 . S
C386 N382 1.374 1_545 S
C386 C385 1.439 . S
C386 C411 1.395 . S
N387 Co376 1.995 . S
N387 C388 1.376 . S
N387 C391 1.383 . S
C388 N387 1.376 . S
C388 C389 1.446 . S
C388 C411 1.391 1_565 S
C389 C388 1.446 . S
C389 C390 1.339 . S
C389 H418 0.949 1_565 S
C390 C389 1.339 . S
C390 C391 1.439 . S
C390 H419 0.950 . S
C391 N387 1.383 . S
C391 C390 1.439 . S
C391 C409 1.392 . S
N392 Co376 2.282 . S
N392 C395 1.332 . S
N392 C397 1.332 . S
C393 C394 1.386 . S
C393 C396 1.388 . S
C394 C393 1.386 . S
C394 C395 1.382 . S
C394 H420 0.950 . S
C395 N392 1.332 . S
C395 C394 1.382 . S
C395 H406 0.952 . S
C396 C393 1.388 . S
C396 C397 1.382 . S
C396 H421 0.950 . S
C397 N392 1.332 . S
C397 C396 1.382 . S
C397 H407 0.948 . S
N398 Co376 2.282 . S
N398 C402 1.332 . S
N398 C403 1.332 . S
C399 C400 1.388 . S
C399 C403 1.382 . S
C399 H422 0.950 . S
C400 C399 1.388 . S
C400 C401 1.386 . S
C401 C400 1.386 . S
C401 C402 1.382 . S
C401 H423 0.950 . S
C402 N398 1.332 . S
C402 C401 1.382 . S
C402 H404 0.952 . S
C403 N398 1.332 . S
C403 C399 1.382 . S
C403 H405 0.948 . S
H404 C402 0.952 . S
H405 C403 0.948 . S
H406 C395 0.952 . S
H407 C397 0.948 . S
C408 C374 1.395 . S
C408 C378 1.391 . S
C409 C371 1.389 . S
C409 C391 1.392 . S
C410 C381 1.392 . S
C410 C383 1.389 . S
C411 C386 1.395 . S
C411 C388 1.391 1_545 S
H412 C372 0.951 . S
H413 C373 0.950 . S
H414 C379 0.949 . S
H415 C380 0.950 . S
H416 C384 0.951 . S
H417 C385 0.950 . S
H418 C389 0.949 1_545 S
H419 C390 0.950 . S
H420 C394 0.950 . S
H421 C396 0.950 . S
H422 C399 0.950 . S
H423 C401 0.950 . S
C424 C425 1.349 . S
C424 C426 1.327 . S
C424 H449 0.950 . S
C425 C424 1.349 . S
C425 C441 1.349 . S
C426 C424 1.327 . S
C426 C445 1.429 . S
C426 H450 0.950 . S
C427 C444 1.574 . S
C427 C446 1.368 1_655 S
C427 H451 0.949 . S
H428 C432 0.949 . S
C429 C430 1.349 . S
C429 C431 1.327 . S
C429 H452 0.950 . S
C430 C429 1.349 . S
C430 C442 1.349 . S
C431 C429 1.327 . S
C431 C447 1.429 . S
C431 H453 0.950 . S
C432 H428 0.949 . S
C432 C440 1.574 . S
C432 C448 1.368 1_455 S
H433 C441 0.950 . S
H434 C439 0.950 . S
H435 C440 0.949 . S
H436 C442 0.950 . S
H437 C443 0.950 . S
H438 C444 0.949 . S
C439 H434 0.950 . S
C439 C441 1.327 . S
C439 C445 1.429 . S
C440 C432 1.574 . S
C440 H435 0.949 . S
C440 C446 1.368 . S
C441 C425 1.349 . S
C441 H433 0.950 . S
C441 C439 1.327 . S
C442 C430 1.349 . S
C442 H436 0.950 . S
C442 C443 1.327 . S
C443 H437 0.950 . S
C443 C442 1.327 . S
C443 C447 1.429 . S
C444 C427 1.574 . S
C444 H438 0.949 . S
C444 C448 1.368 . S
C445 C426 1.429 . S
C445 C439 1.429 . S
C445 C446 1.523 . S
C446 C427 1.368 1_455 S
C446 C440 1.368 . S
C446 C445 1.523 . S
C447 C431 1.429 . S
C447 C443 1.429 . S
C447 C448 1.523 . S
C448 C432 1.368 1_655 S
C448 C444 1.368 . S
C448 C447 1.523 . S
H449 C424 0.950 . S
H450 C426 0.950 . S
H451 C427 0.949 . S
H452 C429 0.950 . S
H453 C431 0.950 . S
C454 C455 1.349 . S
C454 C456 1.327 . S
C454 H479 0.950 . S
C455 C454 1.349 . S
C455 C471 1.349 . S
C456 C454 1.327 . S
C456 C475 1.429 . S
C456 H480 0.950 . S
C457 C474 1.574 . S
C457 C476 1.368 . S
C457 H481 0.949 . S
H458 C462 0.949 . S
C459 C460 1.349 . S
C459 C461 1.327 . S
C459 H482 0.950 . S
C460 C459 1.349 . S
C460 C472 1.349 . S
C461 C459 1.327 . S
C461 C477 1.429 . S
C461 H483 0.950 . S
C462 H458 0.949 . S
C462 C470 1.574 . S
C462 C478 1.368 . S
H463 C471 0.950 . S
H464 C469 0.950 . S
H465 C470 0.949 . S
H466 C472 0.950 . S
H467 C473 0.950 . S
H468 C474 0.949 . S
C469 H464 0.950 . S
C469 C471 1.327 . S
C469 C475 1.429 . S
C470 C462 1.574 . S
C470 H465 0.949 . S
C470 C476 1.368 1_545 S
C471 C455 1.349 . S
C471 H463 0.950 . S
C471 C469 1.327 . S
C472 C460 1.349 . S
C472 H466 0.950 . S
C472 C473 1.327 . S
C473 H467 0.950 . S
C473 C472 1.327 . S
C473 C477 1.429 . S
C474 C457 1.574 . S
C474 H468 0.949 . S
C474 C478 1.368 1_565 S
C475 C456 1.429 . S
C475 C469 1.429 . S
C475 C476 1.523 . S
C476 C457 1.368 . S
C476 C470 1.368 1_565 S
C476 C475 1.523 . S
C477 C461 1.429 . S
C477 C473 1.429 . S
C477 C478 1.523 . S
C478 C462 1.368 . S
C478 C474 1.368 1_545 S
C478 C477 1.523 . S
H479 C454 0.950 . S
H480 C456 0.950 . S
H481 C457 0.949 . S
H482 C459 0.950 . S
H483 C461 0.950 . S
C484 C485 1.349 . S
C484 C486 1.327 . S
C484 H509 0.950 . S
C485 C484 1.349 . S
C485 C501 1.349 . S
C486 C484 1.327 . S
C486 C505 1.429 . S
C486 H510 0.950 . S
C487 C504 1.574 . S
C487 C506 1.368 1_455 S
C487 H511 0.949 . S
H488 C492 0.949 . S
C489 C490 1.349 . S
C489 C491 1.327 . S
C489 H512 0.950 . S
C490 C489 1.349 . S
C490 C502 1.349 . S
C491 C489 1.327 . S
C491 C507 1.429 . S
C491 H513 0.950 . S
C492 H488 0.949 . S
C492 C500 1.574 . S
C492 C508 1.368 1_655 S
H493 C501 0.950 . S
H494 C499 0.950 . S
H495 C500 0.949 . S
H496 C502 0.950 . S
H497 C503 0.950 . S
H498 C504 0.949 . S
C499 H494 0.950 . S
C499 C501 1.327 . S
C499 C505 1.429 . S
C500 C492 1.574 . S
C500 H495 0.949 . S
C500 C506 1.368 . S
C501 C485 1.349 . S
C501 H493 0.950 . S
C501 C499 1.327 . S
C502 C490 1.349 . S
C502 H496 0.950 . S
C502 C503 1.327 . S
C503 H497 0.950 . S
C503 C502 1.327 . S
C503 C507 1.429 . S
C504 C487 1.574 . S
C504 H498 0.949 . S
C504 C508 1.368 . S
C505 C486 1.429 . S
C505 C499 1.429 . S
C505 C506 1.523 . S
C506 C487 1.368 1_655 S
C506 C500 1.368 . S
C506 C505 1.523 . S
C507 C491 1.429 . S
C507 C503 1.429 . S
C507 C508 1.523 . S
C508 C492 1.368 1_455 S
C508 C504 1.368 . S
C508 C507 1.523 . S
H509 C484 0.950 . S
H510 C486 0.950 . S
H511 C487 0.949 . S
H512 C489 0.950 . S
H513 C491 0.950 . S
C514 C515 1.349 . S
C514 C516 1.327 . S
C514 H539 0.950 . S
C515 C514 1.349 . S
C515 C531 1.349 . S
C516 C514 1.327 . S
C516 C535 1.429 . S
C516 H540 0.950 . S
C517 C534 1.574 . S
C517 C536 1.368 1_565 S
C517 H541 0.949 . S
H518 C522 0.949 . S
C519 C520 1.349 . S
C519 C521 1.327 . S
C519 H542 0.950 . S
C520 C519 1.349 . S
C520 C532 1.349 . S
C521 C519 1.327 . S
C521 C537 1.429 . S
C521 H543 0.950 . S
C522 H518 0.949 . S
C522 C530 1.574 . S
C522 C538 1.368 1_545 S
H523 C531 0.950 . S
H524 C529 0.950 . S
H525 C530 0.949 . S
H526 C532 0.950 . S
H527 C533 0.950 . S
H528 C534 0.949 . S
C529 H524 0.950 . S
C529 C531 1.327 . S
C529 C535 1.429 . S
C530 C522 1.574 . S
C530 H525 0.949 . S
C530 C536 1.368 . S
C531 C515 1.349 . S
C531 H523 0.950 . S
C531 C529 1.327 . S
C532 C520 1.349 . S
C532 H526 0.950 . S
C532 C533 1.327 . S
C533 H527 0.950 . S
C533 C532 1.327 . S
C533 C537 1.429 . S
C534 C517 1.574 . S
C534 H528 0.949 . S
C534 C538 1.368 . S
C535 C516 1.429 . S
C535 C529 1.429 . S
C535 C536 1.523 . S
C536 C517 1.368 1_545 S
C536 C530 1.368 . S
C536 C535 1.523 . S
C537 C521 1.429 . S
C537 C533 1.429 . S
C537 C538 1.523 . S
C538 C522 1.368 1_565 S
C538 C534 1.368 . S
C538 C537 1.523 . S
H539 C514 0.950 . S
H540 C516 0.950 . S
H541 C517 0.949 . S
H542 C519 0.950 . S
H543 C521 0.950 . S
C544 C545 1.349 . S
C544 C546 1.335 . S
C544 H569 0.950 1_655 S
C545 C544 1.349 . S
C545 C561 1.349 . S
C546 C544 1.335 . S
C546 C565 1.441 . S
C546 H570 0.930 1_655 S
C547 C564 1.574 1_556 S
C547 C566 1.368 . S
C547 H571 0.949 . S
H548 C552 0.949 . S
C549 C550 1.349 . S
C549 C551 1.335 . S
C549 H572 0.934 1_455 S
C550 C549 1.349 . S
C550 C562 1.349 . S
C551 C549 1.335 . S
C551 C567 1.441 . S
C551 H573 0.930 1_455 S
C552 H548 0.949 . S
C552 C560 1.574 1_554 S
C552 C568 1.368 . S
H553 C561 0.950 . S
H554 C559 0.950 . S
H555 C560 0.949 . S
H556 C562 0.950 . S
H557 C563 0.950 . S
H558 C564 0.949 . S
C559 H554 0.950 . S
C559 C561 1.327 . S
C559 C565 1.429 . S
C560 C552 1.574 1_556 S
C560 H555 0.949 . S
C560 C566 1.368 1_455 S
C561 C545 1.349 . S
C561 H553 0.950 . S
C561 C559 1.327 . S
C562 C550 1.349 . S
C562 H556 0.950 . S
C562 C563 1.327 . S
C563 H557 0.950 . S
C563 C562 1.327 . S
C563 C567 1.429 . S
C564 C547 1.574 1_554 S
C564 H558 0.949 . S
C564 C568 1.368 1_655 S
C565 C546 1.441 . S
C565 C559 1.429 . S
C565 C566 1.523 . S
C566 C547 1.368 . S
C566 C560 1.368 1_655 S
C566 C565 1.523 . S
C567 C551 1.441 . S
C567 C563 1.429 . S
C567 C568 1.523 . S
C568 C552 1.368 . S
C568 C564 1.368 1_455 S
C568 C567 1.523 . S
H569 C544 0.950 1_455 S
H570 C546 0.930 1_455 S
H571 C547 0.949 . S
H572 C549 0.934 1_655 S
H573 C551 0.930 1_655 S
C574 C575 1.349 . S
C574 C576 1.327 . S
C574 H599 0.950 . S
C575 C574 1.349 . S
C575 C591 1.349 1_545 S
C576 C574 1.327 . S
C576 C595 1.429 . S
C576 H600 0.950 . S
C577 C594 1.574 . S
C577 C596 1.368 1_565 S
C577 H601 0.949 . S
H578 C582 0.949 . S
C579 C580 1.349 . S
C579 C581 1.327 . S
C579 H602 0.950 . S
C580 C579 1.349 . S
C580 C592 1.350 1_565 S
C581 C579 1.327 . S
C581 C597 1.429 . S
C581 H603 0.950 . S
C582 H578 0.949 . S
C582 C590 1.574 . S
C582 C598 1.368 1_545 S
H583 C591 0.949 . S
H584 C589 0.950 . S
H585 C590 0.949 . S
H586 C592 0.949 . S
H587 C593 0.950 . S
H588 C594 0.949 . S
C589 H584 0.950 . S
C589 C591 1.327 . S
C589 C595 1.429 1_565 S
C590 C582 1.574 . S
C590 H585 0.949 . S
C590 C596 1.368 . S
C591 C575 1.349 1_565 S
C591 H583 0.949 . S
C591 C589 1.327 . S
C592 C580 1.350 1_545 S
C592 H586 0.949 . S
C592 C593 1.327 . S
C593 H587 0.950 . S
C593 C592 1.327 . S
C593 C597 1.429 1_545 S
C594 C577 1.574 . S
C594 H588 0.949 . S
C594 C598 1.368 . S
C595 C576 1.429 . S
C595 C589 1.429 1_545 S
C595 C596 1.523 . S
C596 C577 1.368 1_545 S
C596 C590 1.368 . S
C596 C595 1.523 . S
C597 C581 1.429 . S
C597 C593 1.429 1_565 S
C597 C598 1.523 . S
C598 C582 1.368 1_565 S
C598 C594 1.368 . S
C598 C597 1.523 . S
H599 C574 0.950 . S
H600 C576 0.950 . S
H601 C577 0.949 . S
H602 C579 0.950 . S
H603 C581 0.950 . S
C604 C605 1.349 . S
C604 C606 1.335 . S
C604 H629 0.950 1_655 S
C605 C604 1.349 . S
C605 C621 1.349 . S
C606 C604 1.335 . S
C606 C625 1.441 . S
C606 H630 0.930 1_655 S
C607 C624 1.574 1_554 S
C607 C626 1.368 . S
C607 H631 0.949 . S
H608 C612 0.949 . S
C609 C610 1.349 . S
C609 C611 1.335 . S
C609 H632 0.934 1_455 S
C610 C609 1.349 . S
C610 C622 1.349 . S
C611 C609 1.335 . S
C611 C627 1.441 . S
C611 H633 0.930 1_455 S
C612 H608 0.949 . S
C612 C620 1.574 1_556 S
C612 C628 1.368 . S
H613 C621 0.950 . S
H614 C619 0.950 . S
H615 C620 0.949 . S
H616 C622 0.950 . S
H617 C623 0.950 . S
H618 C624 0.949 . S
C619 H614 0.950 . S
C619 C621 1.327 . S
C619 C625 1.429 . S
C620 C612 1.574 1_554 S
C620 H615 0.949 . S
C620 C626 1.368 1_455 S
C621 C605 1.349 . S
C621 H613 0.950 . S
C621 C619 1.327 . S
C622 C610 1.349 . S
C622 H616 0.950 . S
C622 C623 1.327 . S
C623 H617 0.950 . S
C623 C622 1.327 . S
C623 C627 1.429 . S
C624 C607 1.574 1_556 S
C624 H618 0.949 . S
C624 C628 1.368 1_655 S
C625 C606 1.441 . S
C625 C619 1.429 . S
C625 C626 1.523 . S
C626 C607 1.368 . S
C626 C620 1.368 1_655 S
C626 C625 1.523 . S
C627 C611 1.441 . S
C627 C623 1.429 . S
C627 C628 1.523 . S
C628 C612 1.368 . S
C628 C624 1.368 1_455 S
C628 C627 1.523 . S
H629 C604 0.950 1_455 S
H630 C606 0.930 1_455 S
H631 C607 0.949 . S
H632 C609 0.934 1_655 S
H633 C611 0.930 1_655 S
C634 C635 1.349 . S
C634 C636 1.327 . S
C634 H659 0.950 . S
C635 C634 1.349 . S
C635 C651 1.356 . S
C636 C634 1.327 . S
C636 C655 1.429 . S
C636 H660 0.950 . S
C637 C654 1.574 . S
C637 C656 1.368 1_565 S
C637 H661 0.949 . S
H638 C642 0.949 . S
C639 C640 1.349 . S
C639 C641 1.327 . S
C639 H662 0.950 . S
C640 C639 1.349 . S
C640 C652 1.356 . S
C641 C639 1.327 . S
C641 C657 1.429 . S
C641 H663 0.950 . S
C642 H638 0.949 . S
C642 C650 1.574 . S
C642 C658 1.368 1_545 S
H643 C651 0.945 1_565 S
H644 C649 0.950 . S
H645 C650 0.949 . S
H646 C652 0.944 1_545 S
H647 C653 0.950 . S
H648 C654 0.949 . S
C649 H644 0.950 . S
C649 C651 1.325 1_565 S
C649 C655 1.429 1_565 S
C650 C642 1.574 . S
C650 H645 0.949 . S
C650 C656 1.368 . S
C651 C635 1.356 . S
C651 H643 0.945 1_545 S
C651 C649 1.325 1_545 S
C652 C640 1.356 . S
C652 H646 0.944 1_565 S
C652 C653 1.325 1_565 S
C653 H647 0.950 . S
C653 C652 1.325 1_545 S
C653 C657 1.429 1_545 S
C654 C637 1.574 . S
C654 H648 0.949 . S
C654 C658 1.368 . S
C655 C636 1.429 . S
C655 C649 1.429 1_545 S
C655 C656 1.523 . S
C656 C637 1.368 1_545 S
C656 C650 1.368 . S
C656 C655 1.523 . S
C657 C641 1.429 . S
C657 C653 1.429 1_565 S
C657 C658 1.523 . S
C658 C642 1.368 1_565 S
C658 C654 1.368 . S
C658 C657 1.523 . S
H659 C634 0.950 . S
H660 C636 0.950 . S
H661 C637 0.949 . S
H662 C639 0.950 . S
H663 C641 0.950 . S
C664 C665 1.349 . S
C664 C666 1.327 . S
C664 H689 0.950 . S
C665 C664 1.349 . S
C665 C681 1.349 . S
C666 C664 1.327 . S
C666 C685 1.429 . S
C666 H690 0.950 . S
C667 C684 1.574 . S
C667 C686 1.368 . S
C667 H691 0.949 . S
H668 C672 0.949 . S
C669 C670 1.349 . S
C669 C671 1.327 . S
C669 H692 0.950 . S
C670 C669 1.349 . S
C670 C682 1.349 . S
C671 C669 1.327 . S
C671 C687 1.429 . S
C671 H693 0.950 . S
C672 H668 0.949 . S
C672 C680 1.574 . S
C672 C688 1.368 . S
H673 C681 0.950 . S
H674 C679 0.950 . S
H675 C680 0.949 . S
H676 C682 0.950 . S
H677 C683 0.950 . S
H678 C684 0.949 . S
C679 H674 0.950 . S
C679 C681 1.327 . S
C679 C685 1.429 . S
C680 C672 1.574 . S
C680 H675 0.949 . S
C680 C686 1.368 . S
C681 C665 1.349 . S
C681 H673 0.950 . S
C681 C679 1.327 . S
C682 C670 1.349 . S
C682 H676 0.950 . S
C682 C683 1.327 . S
C683 H677 0.950 . S
C683 C682 1.327 . S
C683 C687 1.429 . S
C684 C667 1.574 . S
C684 H678 0.949 . S
C684 C688 1.368 . S
C685 C666 1.429 . S
C685 C679 1.429 . S
C685 C686 1.523 . S
C686 C667 1.368 . S
C686 C680 1.368 . S
C686 C685 1.523 . S
C687 C671 1.429 . S
C687 C683 1.429 . S
C687 C688 1.523 . S
C688 C672 1.368 . S
C688 C684 1.368 . S
C688 C687 1.523 . S
H689 C664 0.950 . S
H690 C666 0.950 . S
H691 C667 0.949 . S
H692 C669 0.950 . S
H693 C671 0.950 . S
C694 C695 1.349 . S
C694 C696 1.327 . S
C694 H719 0.950 . S
C695 C694 1.349 . S
C695 C711 1.349 . S
C696 C694 1.327 . S
C696 C715 1.429 . S
C696 H720 0.950 . S
C697 C714 1.574 . S
C697 C716 1.368 . S
C697 H721 0.949 . S
H698 C702 0.949 . S
C699 C700 1.349 . S
C699 C701 1.327 . S
C699 H722 0.950 . S
C700 C699 1.349 . S
C700 C712 1.349 . S
C701 C699 1.327 . S
C701 C717 1.429 . S
C701 H723 0.950 . S
C702 H698 0.949 . S
C702 C710 1.574 . S
C702 C718 1.368 . S
H703 C711 0.950 . S
H704 C709 0.950 . S
H705 C710 0.949 . S
H706 C712 0.950 . S
H707 C713 0.950 . S
H708 C714 0.949 . S
C709 H704 0.950 . S
C709 C711 1.327 . S
C709 C715 1.429 . S
C710 C702 1.574 . S
C710 H705 0.949 . S
C710 C716 1.368 . S
C711 C695 1.349 . S
C711 H703 0.950 . S
C711 C709 1.327 . S
C712 C700 1.349 . S
C712 H706 0.950 . S
C712 C713 1.327 . S
C713 H707 0.950 . S
C713 C712 1.327 . S
C713 C717 1.429 . S
C714 C697 1.574 . S
C714 H708 0.949 . S
C714 C718 1.368 . S
C715 C696 1.429 . S
C715 C709 1.429 . S
C715 C716 1.523 . S
C716 C697 1.368 . S
C716 C710 1.368 . S
C716 C715 1.523 . S
C717 C701 1.429 . S
C717 C713 1.429 . S
C717 C718 1.523 . S
C718 C702 1.368 . S
C718 C714 1.368 . S
C718 C717 1.523 . S
H719 C694 0.950 . S
H720 C696 0.950 . S
H721 C697 0.949 . S
H722 C699 0.950 . S
H723 C701 0.950 . S
C724 C725 1.349 . S
C724 C726 1.327 . S
C724 H749 0.950 . S
C725 C724 1.349 . S
C725 C741 1.349 . S
C726 C724 1.327 . S
C726 C745 1.429 . S
C726 H750 0.950 . S
C727 C744 1.574 . S
C727 C746 1.368 . S
C727 H751 0.949 . S
H728 C732 0.949 . S
C729 C730 1.349 . S
C729 C731 1.327 . S
C729 H752 0.950 . S
C730 C729 1.349 . S
C730 C742 1.349 . S
C731 C729 1.327 . S
C731 C747 1.429 . S
C731 H753 0.950 . S
C732 H728 0.949 . S
C732 C740 1.574 . S
C732 C748 1.368 . S
H733 C741 0.950 . S
H734 C739 0.950 . S
H735 C740 0.949 . S
H736 C742 0.950 . S
H737 C743 0.950 . S
H738 C744 0.949 . S
C739 H734 0.950 . S
C739 C741 1.327 . S
C739 C745 1.429 . S
C740 C732 1.574 . S
C740 H735 0.949 . S
C740 C746 1.368 . S
C741 C725 1.349 . S
C741 H733 0.950 . S
C741 C739 1.327 . S
C742 C730 1.349 . S
C742 H736 0.950 . S
C742 C743 1.327 . S
C743 H737 0.950 . S
C743 C742 1.327 . S
C743 C747 1.429 . S
C744 C727 1.574 . S
C744 H738 0.949 . S
C744 C748 1.368 . S
C745 C726 1.429 . S
C745 C739 1.429 . S
C745 C746 1.523 . S
C746 C727 1.368 . S
C746 C740 1.368 . S
C746 C745 1.523 . S
C747 C731 1.429 . S
C747 C743 1.429 . S
C747 C748 1.523 . S
C748 C732 1.368 . S
C748 C744 1.368 . S
C748 C747 1.523 . S
H749 C724 0.950 . S
H750 C726 0.950 . S
H751 C727 0.949 . S
H752 C729 0.950 . S
H753 C731 0.950 . S
C754 C755 1.349 . S
C754 C756 1.327 . S
C754 H779 0.950 . S
C755 C754 1.349 . S
C755 C771 1.349 . S
C756 C754 1.327 . S
C756 C775 1.429 . S
C756 H780 0.950 . S
C757 C774 1.574 . S
C757 C776 1.368 . S
C757 H781 0.949 . S
H758 C762 0.949 . S
C759 C760 1.349 . S
C759 C761 1.327 . S
C759 H782 0.950 . S
C760 C759 1.349 . S
C760 C772 1.349 . S
C761 C759 1.327 . S
C761 C777 1.429 . S
C761 H783 0.950 . S
C762 H758 0.949 . S
C762 C770 1.574 . S
C762 C778 1.368 . S
H763 C771 0.950 . S
H764 C769 0.950 . S
H765 C770 0.949 . S
H766 C772 0.950 . S
H767 C773 0.950 . S
H768 C774 0.949 . S
C769 H764 0.950 . S
C769 C771 1.327 . S
C769 C775 1.429 . S
C770 C762 1.574 . S
C770 H765 0.949 . S
C770 C776 1.368 . S
C771 C755 1.349 . S
C771 H763 0.950 . S
C771 C769 1.327 . S
C772 C760 1.349 . S
C772 H766 0.950 . S
C772 C773 1.327 . S
C773 H767 0.950 . S
C773 C772 1.327 . S
C773 C777 1.429 . S
C774 C757 1.574 . S
C774 H768 0.949 . S
C774 C778 1.368 . S
C775 C756 1.429 . S
C775 C769 1.429 . S
C775 C776 1.523 . S
C776 C757 1.368 . S
C776 C770 1.368 . S
C776 C775 1.523 . S
C777 C761 1.429 . S
C777 C773 1.429 . S
C777 C778 1.523 . S
C778 C762 1.368 . S
C778 C774 1.368 . S
C778 C777 1.523 . S
H779 C754 0.950 . S
H780 C756 0.950 . S
H781 C757 0.949 . S
H782 C759 0.950 . S
H783 C761 0.950 . S
C784 C785 1.349 . S
C784 C786 1.327 . S
C784 H809 0.950 . S
C785 C784 1.349 . S
C785 C801 1.349 . S
C786 C784 1.327 . S
C786 C805 1.429 . S
C786 H810 0.950 . S
C787 C804 1.574 1_545 S
C787 C806 1.368 . S
C787 H811 0.949 . S
H788 C792 0.949 . S
C789 C790 1.349 . S
C789 C791 1.327 . S
C789 H812 0.950 . S
C790 C789 1.349 . S
C790 C802 1.349 . S
C791 C789 1.327 . S
C791 C807 1.429 . S
C791 H813 0.950 . S
C792 H788 0.949 . S
C792 C800 1.574 1_565 S
C792 C808 1.368 . S
H793 C801 0.950 . S
H794 C799 0.950 . S
H795 C800 0.949 . S
H796 C802 0.950 . S
H797 C803 0.950 . S
H798 C804 0.949 . S
C799 H794 0.950 . S
C799 C801 1.327 . S
C799 C805 1.429 . S
C800 C792 1.574 1_545 S
C800 H795 0.949 . S
C800 C806 1.368 1_655 S
C801 C785 1.349 . S
C801 H793 0.950 . S
C801 C799 1.327 . S
C802 C790 1.349 . S
C802 H796 0.950 . S
C802 C803 1.327 . S
C803 H797 0.950 . S
C803 C802 1.327 . S
C803 C807 1.429 . S
C804 C787 1.574 1_565 S
C804 H798 0.949 . S
C804 C808 1.368 1_455 S
C805 C786 1.429 . S
C805 C799 1.429 . S
C805 C806 1.523 . S
C806 C787 1.368 . S
C806 C800 1.368 1_455 S
C806 C805 1.523 . S
C807 C791 1.429 . S
C807 C803 1.429 . S
C807 C808 1.523 . S
C808 C792 1.368 . S
C808 C804 1.368 1_655 S
C808 C807 1.523 . S
H809 C784 0.950 . S
H810 C786 0.950 . S
H811 C787 0.949 . S
H812 C789 0.950 . S
H813 C791 0.950 . S
C814 C815 1.349 . S
C814 C816 1.327 . S
C814 H839 0.950 . S
C815 C814 1.349 . S
C815 C831 1.349 . S
C816 C814 1.327 . S
C816 C835 1.429 . S
C816 H840 0.950 . S
C817 C834 1.574 1_455 S
C817 C836 1.368 . S
C817 H841 0.949 . S
H818 C822 0.949 . S
C819 C820 1.349 . S
C819 C821 1.327 . S
C819 H842 0.950 . S
C820 C819 1.349 . S
C820 C832 1.349 . S
C821 C819 1.327 . S
C821 C837 1.429 . S
C821 H843 0.950 . S
C822 H818 0.949 . S
C822 C830 1.574 1_655 S
C822 C838 1.368 . S
H823 C831 0.950 . S
H824 C829 0.950 . S
H825 C830 0.949 . S
H826 C832 0.950 . S
H827 C833 0.950 . S
H828 C834 0.949 . S
C829 H824 0.950 . S
C829 C831 1.327 . S
C829 C835 1.429 . S
C830 C822 1.574 1_455 S
C830 H825 0.949 . S
C830 C836 1.368 1_545 S
C831 C815 1.349 . S
C831 H823 0.950 . S
C831 C829 1.327 . S
C832 C820 1.349 . S
C832 H826 0.950 . S
C832 C833 1.327 . S
C833 H827 0.950 . S
C833 C832 1.327 . S
C833 C837 1.429 . S
C834 C817 1.574 1_655 S
C834 H828 0.949 . S
C834 C838 1.368 1_565 S
C835 C816 1.429 . S
C835 C829 1.429 . S
C835 C836 1.523 . S
C836 C817 1.368 . S
C836 C830 1.368 1_565 S
C836 C835 1.523 . S
C837 C821 1.429 . S
C837 C833 1.429 . S
C837 C838 1.523 . S
C838 C822 1.368 . S
C838 C834 1.368 1_545 S
C838 C837 1.523 . S
H839 C814 0.950 . S
H840 C816 0.950 . S
H841 C817 0.949 . S
H842 C819 0.950 . S
H843 C821 0.950 . S
C844 C845 1.349 . S
C844 C846 1.327 . S
C844 H869 0.950 . S
C845 C844 1.349 . S
C845 C861 1.349 . S
C846 C844 1.327 . S
C846 C865 1.429 . S
C846 H870 0.950 . S
C847 C864 1.574 1_545 S
C847 C866 1.368 . S
C847 H871 0.949 . S
H848 C852 0.949 . S
C849 C850 1.349 . S
C849 C851 1.327 . S
C849 H872 0.950 . S
C850 C849 1.349 . S
C850 C862 1.349 . S
C851 C849 1.327 . S
C851 C867 1.429 . S
C851 H873 0.950 . S
C852 H848 0.949 . S
C852 C860 1.574 1_565 S
C852 C868 1.368 . S
H853 C861 0.950 . S
H854 C859 0.950 . S
H855 C860 0.949 . S
H856 C862 0.950 . S
H857 C863 0.950 . S
H858 C864 0.949 . S
C859 H854 0.950 . S
C859 C861 1.327 . S
C859 C865 1.429 . S
C860 C852 1.574 1_545 S
C860 H855 0.949 . S
C860 C866 1.368 1_455 S
C861 C845 1.349 . S
C861 H853 0.950 . S
C861 C859 1.327 . S
C862 C850 1.349 . S
C862 H856 0.950 . S
C862 C863 1.327 . S
C863 H857 0.950 . S
C863 C862 1.327 . S
C863 C867 1.429 . S
C864 C847 1.574 1_565 S
C864 H858 0.949 . S
C864 C868 1.368 1_655 S
C865 C846 1.429 . S
C865 C859 1.429 . S
C865 C866 1.523 . S
C866 C847 1.368 . S
C866 C860 1.368 1_655 S
C866 C865 1.523 . S
C867 C851 1.429 . S
C867 C863 1.429 . S
C867 C868 1.523 . S
C868 C852 1.368 . S
C868 C864 1.368 1_455 S
C868 C867 1.523 . S
H869 C844 0.950 . S
H870 C846 0.950 . S
H871 C847 0.949 . S
H872 C849 0.950 . S
H873 C851 0.950 . S
C874 C875 1.349 . S
C874 C876 1.327 . S
C874 H899 0.950 . S
C875 C874 1.349 . S
C875 C891 1.349 . S
C876 C874 1.327 . S
C876 C895 1.429 . S
C876 H900 0.950 . S
C877 C894 1.574 1_655 S
C877 C896 1.368 . S
C877 H901 0.949 . S
H878 C882 0.949 . S
C879 C880 1.349 . S
C879 C881 1.327 . S
C879 H902 0.950 . S
C880 C879 1.349 . S
C880 C892 1.349 . S
C881 C879 1.327 . S
C881 C897 1.429 . S
C881 H903 0.950 . S
C882 H878 0.949 . S
C882 C890 1.574 1_455 S
C882 C898 1.368 . S
H883 C891 0.950 . S
H884 C889 0.950 . S
H885 C890 0.949 . S
H886 C892 0.950 . S
H887 C893 0.950 . S
H888 C894 0.949 . S
C889 H884 0.950 . S
C889 C891 1.327 . S
C889 C895 1.429 . S
C890 C882 1.574 1_655 S
C890 H885 0.949 . S
C890 C896 1.368 1_545 S
C891 C875 1.349 . S
C891 H883 0.950 . S
C891 C889 1.327 . S
C892 C880 1.349 . S
C892 H886 0.950 . S
C892 C893 1.327 . S
C893 H887 0.950 . S
C893 C892 1.327 . S
C893 C897 1.429 . S
C894 C877 1.574 1_455 S
C894 H888 0.949 . S
C894 C898 1.368 1_565 S
C895 C876 1.429 . S
C895 C889 1.429 . S
C895 C896 1.523 . S
C896 C877 1.368 . S
C896 C890 1.368 1_565 S
C896 C895 1.523 . S
C897 C881 1.429 . S
C897 C893 1.429 . S
C897 C898 1.523 . S
C898 C882 1.368 . S
C898 C894 1.368 1_545 S
C898 C897 1.523 . S
H899 C874 0.950 . S
H900 C876 0.950 . S
H901 C877 0.949 . S
H902 C879 0.950 . S
H903 C881 0.950 . S
C425 C22 1.832 . S
C430 C128 1.832 . S
C455 C181 1.831 . S
C460 C75 1.831 . S
C485 C340 1.831 . S
C490 C234 1.831 . S
C515 C287 1.832 . S
C520 C393 1.832 . S
C545 C357 1.813 . S
C550 C39 1.813 . S
C575 C92 1.813 . S
C580 C410 1.813 . S
C605 C145 1.813 . S
C610 C251 1.813 . S
C635 C304 1.813 . S
C640 C198 1.813 . S
C665 C38 1.864 . S
C670 C303 1.864 . S
C695 C356 1.864 . S
C700 C91 1.864 . S
C725 C409 1.864 . S
C730 C144 1.864 . S
C755 C197 1.864 . S
C760 C250 1.864 . S
C785 C29 1.604 . S
C790 C135 1.604 . S
C815 C188 1.603 . S
C820 C82 1.603 . S
C845 C347 1.603 . S
C850 C241 1.603 . S
C875 C400 1.604 . S
C880 C294 1.604 . S
