# Generated by pormake.
# Topology snp, (6)-cn, num edge types: 1
# Building blocks:
#     Node 0, Type 0, BuildingBlock: BETFEN_clean_sbu_0, # of connection points: 6
#     Node 1, Type 0, BuildingBlock: BETFEN_clean_sbu_0, # of connection points: 6
#     Node 2, Type 0, BuildingBlock: BETFEN_clean_sbu_0, # of connection points: 6
#     Node 3, Type 0, BuildingBlock: BETFEN_clean_sbu_0, # of connection points: 6
#     Edge 4, Type (0, 0), BuildingBlock: AJUNOK_clean_linker_0, # of connection points: 2
#     Edge 5, Type (0, 0), BuildingBlock: AJUNOK_clean_linker_0, # of connection points: 2
#     Edge 6, Type (0, 0), BuildingBlock: AJUNOK_clean_linker_0, # of connection points: 2
#     Edge 7, Type (0, 0), BuildingBlock: AJUNOK_clean_linker_0, # of connection points: 2
#     Edge 8, Type (0, 0), BuildingBlock: AJUNOK_clean_linker_0, # of connection points: 2
#     Edge 9, Type (0, 0), BuildingBlock: AJUNOK_clean_linker_0, # of connection points: 2
#     Edge 10, Type (0, 0), BuildingBlock: AJUNOK_clean_linker_0, # of connection points: 2
#     Edge 11, Type (0, 0), BuildingBlock: AJUNOK_clean_linker_0, # of connection points: 2
#     Edge 12, Type (0, 0), BuildingBlock: AJUNOK_clean_linker_0, # of connection points: 2
#     Edge 13, Type (0, 0), BuildingBlock: AJUNOK_clean_linker_0, # of connection points: 2
#     Edge 14, Type (0, 0), BuildingBlock: AJUNOK_clean_linker_0, # of connection points: 2
#     Edge 15, Type (0, 0), BuildingBlock: AJUNOK_clean_linker_0, # of connection points: 2
# Relax obj value: 0.280
# Max RMSD: 0.244
# Mean RMSD: 0.244
data_MOF--net-snp--node1-BETFEN_clean_sbu_0--edge1-AJUNOK_clean_linker_0
_symmetry_space_group_name_H-M    P1
_symmetry_Int_Tables_number       1
_symmetry_cell_setting            triclinic
loop_
_symmetry_equiv_pos_as_xyz
'x, y, z'
_cell_length_a     19.372501
_cell_length_b     19.329307
_cell_length_c     28.710646
_cell_angle_alpha  81.317743
_cell_angle_beta   80.799913
_cell_angle_gamma 92.821371
loop_
_atom_site_label
_atom_site_type_symbol
_atom_site_fract_x
_atom_site_fract_y
_atom_site_fract_z
_atom_type_partial_charge
Pr0 Pr 0.22597 0.07271 0.25955 0.0
Pr1 Pr 0.25336 0.93332 0.22059 0.0
C2 C 0.17379 0.17475 0.30587 0.0
C3 C 0.16625 0.19339 0.35425 0.0
C4 C 0.22118 0.18747 0.38088 0.0
C5 C 0.21259 0.20536 0.42679 0.0
C6 C 0.14889 0.2292 0.44691 0.0
C7 C 0.09366 0.23365 0.42045 0.0
C8 C 0.10245 0.21634 0.37446 0.0
C9 C 0.36641 0.04904 0.23687 0.0
C10 C 0.21783 0.921 0.33684 0.0
C11 C 0.29663 0.83527 0.1672 0.0
C12 C 0.28715 0.82238 0.11886 0.0
C13 C 0.26255 0.75553 0.11238 0.0
C14 C 0.24885 0.74364 0.06764 0.0
C15 C 0.25945 0.79844 1.02836 0.0
C16 C 0.28509 0.86512 1.03469 0.0
C17 C 0.29847 0.87705 0.07947 0.0
C18 C 0.11373 0.96856 0.2288 0.0
C19 C 0.25318 0.08268 0.1436 0.0
O20 O 0.13538 0.11942 0.30109 0.0
O21 O 0.23729 0.17975 0.28111 0.0
O22 O 0.31864 0.0025 0.25783 0.0
O23 O 0.34294 0.11103 0.23179 0.0
O24 O 0.24694 0.88854 0.30206 0.0
O25 O 0.2008 -0.01344 0.32837 0.0
O26 O 0.33648 0.89086 0.16973 0.0
O27 O 0.24021 0.82529 0.19988 0.0
O28 O 0.1675 0.0097 0.21523 0.0
O29 O 0.13157 0.90487 0.2386 0.0
O30 O 0.21942 0.11051 0.17918 0.0
O31 O 0.28004 0.02121 0.15185 0.0
H32 H 0.27066 0.16891 0.3663 0.0
H33 H 0.25583 0.20082 0.44649 0.0
H34 H 0.04314 0.24938 0.4356 0.0
H35 H 0.05912 0.2203 0.35478 0.0
H36 H 0.25321 0.71257 0.14214 0.0
H37 H 0.23028 0.69142 0.0637 0.0
H38 H 0.29357 0.90845 1.00518 0.0
H39 H 0.31683 0.9293 0.08335 0.0
Pr40 Pr 0.92322 0.26903 0.71708 0.0
Pr41 Pr 0.0577 0.23334 0.75944 0.0
C42 C 0.83211 0.31877 0.66087 0.0
C43 C 0.81883 0.30574 0.61319 0.0
C44 C 0.79845 0.23798 0.6055 0.0
C45 C 0.78865 0.22588 0.56002 0.0
C46 C 0.79963 0.28095 0.52096 0.0
C47 C 0.81987 0.34869 0.52864 0.0
C48 C 0.82929 0.36092 0.57423 0.0
C49 C 0.95431 0.12854 0.72076 0.0
C50 C 0.0755 0.27084 0.64368 0.0
C51 C 0.15665 0.17703 0.80632 0.0
C52 C 0.1762 0.17057 0.85432 0.0
C53 C 0.17847 0.22851 0.87847 0.0
C54 C 0.19607 0.22075 0.92429 0.0
C55 C 0.21087 0.1548 0.94702 0.0
C56 C 0.20932 0.09718 0.92248 0.0
C57 C 0.1922 0.10505 0.87658 0.0
C58 C 0.03653 0.37561 0.74203 0.0
C59 C 0.90193 0.22452 0.83251 0.0
O60 O 0.89171 0.35308 0.66174 0.0
O61 O 0.81508 0.26705 0.69668 0.0
O62 O -0.00242 0.18098 0.71052 0.0
O63 O 0.89101 0.14809 0.7284 0.0
O64 O 0.09823 0.23 0.67845 0.0
O65 O 0.01648 0.30165 0.65242 0.0
O66 O 0.09895 0.14138 0.80283 0.0
O67 O 0.16515 0.23952 0.78026 0.0
O68 O -0.01069 0.32725 0.76004 0.0
O69 O 0.09808 0.35129 0.73772 0.0
O70 O 0.87483 0.26142 0.79813 0.0
O71 O 0.96563 0.20235 0.82493 0.0
H72 H 0.79061 0.19395 0.63449 0.0
H73 H 0.77341 0.17308 0.55523 0.0
H74 H 0.82769 0.39246 0.49947 0.0
H75 H 0.84517 0.41358 0.57901 0.0
H76 H 0.16638 0.27972 0.8621 0.0
H77 H 0.19811 0.26638 0.9419 0.0
H78 H 0.21999 0.04561 0.93919 0.0
H79 H 0.19075 0.0597 0.85861 0.0
Pr80 Pr 0.74672 0.08958 0.14167 0.0
Pr81 Pr 0.76278 0.94685 0.10365 0.0
C82 C 0.70992 0.18975 0.19491 0.0
C83 C 0.72119 0.20293 0.24286 0.0
C84 C 0.74422 0.27041 0.24909 0.0
C85 C 0.75834 0.28305 0.2936 0.0
C86 C 0.74988 0.22836 0.33291 0.0
C87 C 0.7261 0.16093 0.32672 0.0
C88 C 0.71218 0.14827 0.28219 0.0
C89 C 0.88314 0.04547 0.13242 0.0
C90 C 0.74202 0.93989 0.21946 0.0
C91 C 0.80646 0.84157 0.0572 0.0
C92 C 0.81613 0.82338 1.00848 0.0
C93 C 0.76053 0.82223 0.98248 0.0
C94 C 0.77142 0.80505 0.93633 0.0
C95 C 0.83825 0.78955 0.91505 0.0
C96 C 0.89355 0.79033 0.94135 0.0
C97 C 0.88252 0.80684 0.98757 0.0
C98 C 0.62569 -0.01982 0.12813 0.0
C99 C 0.77833 0.09923 1.02571 0.0
O100 O 0.66767 0.13543 0.19333 0.0
O101 O 0.76573 0.19728 0.16172 0.0
O102 O 0.82728 0.00736 0.1461 0.0
O103 O 0.86926 0.11065 0.12304 0.0
O104 O 0.76876 0.90753 0.18408 0.0
O105 O 0.72118 0.00409 0.2113 0.0
O106 O 0.84915 0.89216 0.06425 0.0
O107 O 0.74218 0.84269 0.07964 0.0
O108 O 0.67571 0.02346 0.10611 0.0
O109 O 0.64478 0.91635 0.13386 0.0
O110 O 0.75313 0.13386 0.06031 0.0
O111 O 0.79094 0.03227 1.03446 0.0
H112 H 0.75167 0.3134 0.21937 0.0
H113 H 0.77527 0.33585 0.29738 0.0
H114 H 0.71933 0.11762 0.35618 0.0
H115 H 0.69505 0.09549 0.27851 0.0
H116 H 0.70866 0.83461 0.99769 0.0
H117 H 0.7274 0.80356 0.91744 0.0
H118 H 0.94578 0.77926 0.92586 0.0
H119 H 0.92618 0.80725 1.00691 0.0
Pr120 Pr 0.94118 0.76831 0.60266 0.0
Pr121 Pr 0.07752 0.75065 0.64513 0.0
C122 C 0.83662 0.80486 0.55425 0.0
C123 C 0.82439 0.81593 0.50457 0.0
C124 C 0.75557 0.81383 0.49518 0.0
C125 C 0.74307 0.82835 0.44815 0.0
C126 C 0.79933 0.84564 0.40999 0.0
C127 C 0.86834 0.84519 0.41941 0.0
C128 C 0.8808 0.83037 0.46637 0.0
C129 C -0.02706 0.63045 0.62739 0.0
C130 C 0.09718 0.78877 0.52943 0.0
C131 C 0.17358 0.71208 0.70054 0.0
C132 C 0.18679 0.72489 0.7483 0.0
C133 C 0.21115 0.79169 0.7555 0.0
C134 C 0.22169 0.80346 0.80091 0.0
C135 C 0.20774 0.74898 0.8403 0.0
C136 C 0.18401 0.68209 0.83307 0.0
C137 C 0.17381 0.67017 0.7876 0.0
C138 C 0.03622 0.88831 0.63443 0.0
C139 C 0.92383 0.7457 0.71905 0.0
O140 O 0.88115 0.85039 0.56515 0.0
O141 O 0.84342 0.74025 0.57324 0.0
O142 O 0.01701 0.68021 0.60624 0.0
O143 O 0.90968 0.65063 0.63314 0.0
O144 O 0.12691 0.75706 0.56436 0.0
O145 O 0.03128 0.80494 0.53668 0.0
O146 O 0.11746 0.67197 0.69978 0.0
O147 O 0.1847 0.7655 0.66565 0.0
O148 O -0.0035 0.83336 0.64781 0.0
O149 O 0.10111 0.87288 0.62743 0.0
O150 O 0.89634 0.77568 0.68242 0.0
O151 O -0.01283 0.72239 0.71238 0.0
H152 H 0.71148 0.80241 0.52428 0.0
H153 H 0.68947 0.82854 0.44173 0.0
H154 H 0.91258 0.85745 0.39047 0.0
H155 H 0.93436 0.8315 0.4729 0.0
H156 H 0.22171 0.8352 0.72617 0.0
H157 H 0.23991 0.85556 0.80536 0.0
H158 H 0.17408 0.6387 0.86251 0.0
H159 H 0.15548 0.61807 0.78318 0.0
C160 C -0.0149 0.07583 0.17021 0.0
C161 C 0.94513 0.02545 0.15335 0.0
C162 C 0.03671 0.05592 0.19738 0.0
C163 C 0.05025 -0.01497 0.2086 0.0
H164 H -0.0246 0.13086 0.16349 0.0
H165 H 0.06712 0.09656 0.20907 0.0
S166 S 0.9598 0.83296 0.17268 0.0
N167 N 0.92229 0.90183 0.14955 0.0
N168 N 0.01926 0.86423 0.20088 0.0
C169 C 0.01015 0.934 0.19239 0.0
C170 C 0.95788 0.95437 0.16446 0.0
C171 C 0.06332 -0.00871 0.67252 0.0
C172 C 0.01587 0.95301 0.65214 0.0
C173 C 0.04155 0.04606 0.69667 0.0
C174 C -0.02823 0.06453 0.70113 0.0
H175 H 0.11712 -0.02231 0.67108 0.0
H176 H 0.07984 0.07459 0.71171 0.0
S177 S 0.82929 -0.01511 0.64956 0.0
N178 N 0.89739 0.93945 0.63548 0.0
N179 N 0.85652 0.04351 0.6802 0.0
C180 C 0.92412 0.0276 0.68005 0.0
C181 C 0.94632 0.97168 0.65556 0.0
C182 C 0.51654 0.94811 0.18796 0.0
C183 C 0.55948 -0.00042 0.15436 0.0
C184 C 0.45502 0.9649 0.21531 0.0
C185 C 0.43401 0.03368 0.21002 0.0
H186 H 0.53071 0.89437 0.19354 0.0
H187 H 0.42345 0.92348 0.24057 0.0
S188 S 0.52735 0.18746 0.12614 0.0
N189 N 0.57627 0.12177 0.11666 0.0
N190 N 0.46087 0.15385 0.16826 0.0
C191 C 0.47653 0.08579 0.17653 0.0
C192 C 0.53911 0.06852 0.14856 0.0
C193 C 0.95418 0.46375 0.71777 0.0
C194 C 0.02281 0.44257 0.71402 0.0
C195 C 0.93855 0.52385 0.68881 0.0
C196 C -0.00891 0.56521 0.65508 0.0
H197 H 0.9119 0.43323 0.74297 0.0
H198 H 0.88485 0.53818 0.69324 0.0
S199 S 0.17912 0.53194 0.63049 0.0
N200 N 0.14402 0.46749 0.67355 0.0
N201 N 0.11417 0.58036 0.61894 0.0
C202 C 0.05992 0.54467 0.65082 0.0
C203 C 0.07601 0.48352 0.68044 0.0
C204 C 0.14196 0.21085 0.58129 0.0
C205 C 0.10549 0.26871 0.59316 0.0
C206 C 0.15818 0.19987 0.5337 0.0
C207 C 0.13874 0.24643 0.4962 0.0
H208 H 0.1546 0.17145 0.60908 0.0
H209 H 0.1831 0.15273 0.52654 0.0
S210 S 0.052 0.41152 0.50755 0.0
N211 N 0.05703 0.37703 0.56302 0.0
N212 N 0.08834 0.35682 0.47363 0.0
C213 C 0.10627 0.30681 0.5073 0.0
C214 C 0.08959 0.3179 0.55572 0.0
C215 C 0.85783 0.23648 0.91798 0.0
C216 C 0.85807 0.1988 0.87968 0.0
C217 C 0.82748 0.20582 0.96507 0.0
C218 C 0.79772 0.136 0.9754 0.0
H219 H 0.88396 0.28869 0.91185 0.0
H220 H 0.83113 0.23547 0.99383 0.0
S221 S 0.7807 0.01776 0.88658 0.0
N222 N 0.82221 0.09039 0.8545 0.0
N223 N 0.76598 0.03251 0.94235 0.0
C224 C 0.79508 0.0993 0.93681 0.0
C225 C 0.82521 0.13072 0.88914 0.0
C226 C 0.74283 0.82658 0.33951 0.0
C227 C 0.78592 0.86882 0.36087 0.0
C228 C 0.72883 0.849 0.29323 0.0
C229 C 0.75599 0.91503 0.26777 0.0
H230 H 0.72034 0.77576 0.35857 0.0
H231 H 0.69592 0.81516 0.27764 0.0
S232 S 0.87277 0.04441 0.30707 0.0
N233 N 0.85642 -0.021 0.35243 0.0
N234 N 0.82966 0.02115 0.26604 0.0
C235 C 0.79934 0.95737 0.28859 0.0
C236 C 0.81439 0.93429 0.33507 0.0
C237 C 0.2826 0.79577 0.8942 0.0
C238 C 0.21912 0.76185 0.88858 0.0
C239 C 0.29501 0.80768 0.93935 0.0
C240 C 0.24448 0.7861 0.98075 0.0
H241 H 0.32351 0.81234 0.86351 0.0
H242 H 0.34504 0.83306 0.94196 0.0
S243 S 0.06671 0.70211 0.98476 0.0
N244 N 0.10318 0.71152 0.92788 0.0
N245 N 0.12652 0.73372 1.01261 0.0
C246 C 0.1802 0.75351 0.97549 0.0
C247 C 0.16754 0.74144 0.92951 0.0
C248 C 0.89216 0.71823 0.85447 0.0
C249 C 0.85142 0.77387 0.86527 0.0
C250 C 0.91179 0.70694 0.80721 0.0
C251 C 0.89116 0.75054 0.76876 0.0
H252 H 0.91047 0.68401 0.88271 0.0
H253 H 0.94529 0.66495 0.80066 0.0
S254 S 0.78285 0.90274 0.77786 0.0
N255 N 0.79013 0.87235 0.83359 0.0
N256 N 0.82572 0.85042 0.74497 0.0
C257 C 0.84785 0.80452 0.77921 0.0
C258 C 0.82834 0.81637 0.82737 0.0
C259 C 0.17318 0.81217 0.39675 0.0
C260 C 0.19919 0.88323 0.38699 0.0
C261 C 0.14341 0.77988 0.44362 0.0
C262 C 0.14017 0.81714 0.48233 0.0
H263 H 0.17201 0.78256 0.36769 0.0
H264 H 0.12024 0.72649 0.44929 0.0
S265 S 0.20632 0.00179 0.47691 0.0
N266 N 0.22347 -0.01202 0.42098 0.0
N267 N 0.16866 0.92703 0.50839 0.0
C268 C 0.16912 0.88675 0.47342 0.0
C269 C 0.1985 0.91982 0.42596 0.0
C270 C 0.2822 0.10616 1.00827 0.0
C271 C 0.22598 0.14497 0.9967 0.0
C272 C 0.29327 0.09005 0.05566 0.0
C273 C 0.24849 0.11194 0.09343 0.0
H274 H 0.31714 0.08681 0.98056 0.0
H275 H 0.33616 0.05846 0.06286 0.0
S276 S 0.09484 0.21707 0.08191 0.0
N277 N 0.126 0.20647 1.0267 0.0
N278 N 0.14729 0.17731 0.11557 0.0
C279 C 0.1939 0.15355 0.08208 0.0
C280 C 0.18246 0.16967 1.0338 0.0
C281 C 0.71521 0.21745 0.42215 0.0
C282 C 0.7645 0.24165 0.38048 0.0
C283 C 0.7271 0.23016 0.46725 0.0
C284 C 0.78878 0.26764 0.47263 0.0
H285 H 0.66644 0.18933 0.41981 0.0
H286 H 0.6871 0.21134 0.49812 0.0
S287 S 0.93771 0.33611 0.37565 0.0
N288 N 0.87964 0.3008 0.3481 0.0
N289 N 0.90187 0.32468 0.43272 0.0
C290 C 0.83916 0.29091 0.43142 0.0
C291 C 0.82707 0.27795 0.38547 0.0
loop_
_geom_bond_atom_site_label_1
_geom_bond_atom_site_label_2
_geom_bond_distance
_geom_bond_site_symmetry_2
_ccdc_geom_bond_type
Pr0 C2 2.880 . S
Pr0 O20 2.562 . S
Pr0 O21 2.490 . S
Pr0 O22 2.695 . S
Pr0 O23 2.512 . S
Pr0 O25 2.437 . S
Pr0 O28 2.436 . S
Pr0 O30 2.438 . S
Pr1 C11 2.880 . S
Pr1 O22 2.436 1_565 S
Pr1 O24 2.438 . S
Pr1 O26 2.562 . S
Pr1 O27 2.490 . S
Pr1 O28 2.695 1_565 S
Pr1 O29 2.512 . S
Pr1 O31 2.437 1_565 S
C2 Pr0 2.880 . S
C2 C3 1.491 . S
C2 O20 1.254 . S
C2 O21 1.225 . S
C3 C2 1.491 . S
C3 C4 1.392 . S
C3 C8 1.356 . S
C4 C3 1.392 . S
C4 C5 1.368 . S
C4 H32 0.929 . S
C5 C4 1.368 . S
C5 C6 1.386 . S
C5 H33 0.929 . S
C6 C5 1.386 . S
C6 C7 1.373 . S
C7 C6 1.373 . S
C7 C8 1.409 . S
C7 H34 0.931 . S
C8 C3 1.356 . S
C8 C7 1.409 . S
C8 H35 0.930 . S
C9 O22 1.270 . S
C9 O23 1.248 . S
C10 O24 1.267 . S
C10 O25 1.278 1_565 S
C11 Pr1 2.880 . S
C11 C12 1.491 . S
C11 O26 1.254 . S
C11 O27 1.225 . S
C12 C11 1.491 . S
C12 C13 1.392 . S
C12 C17 1.356 . S
C13 C12 1.392 . S
C13 C14 1.368 1_554 S
C13 H36 0.929 . S
C14 C13 1.368 1_556 S
C14 C15 1.386 . S
C14 H37 0.929 . S
C15 C14 1.386 . S
C15 C16 1.373 . S
C16 C15 1.373 . S
C16 C17 1.409 1_556 S
C16 H38 0.931 . S
C17 C12 1.356 . S
C17 C16 1.409 1_554 S
C17 H39 0.930 . S
C18 O28 1.270 . S
C18 O29 1.248 1_545 S
C19 O30 1.267 . S
C19 O31 1.278 . S
O20 Pr0 2.562 . S
O20 C2 1.254 . S
O21 Pr0 2.490 . S
O21 C2 1.225 . S
O22 Pr0 2.695 . S
O22 Pr1 2.436 1_545 S
O22 C9 1.270 . S
O23 Pr0 2.512 . S
O23 C9 1.248 . S
O24 Pr1 2.438 . S
O24 C10 1.267 . S
O25 Pr0 2.437 . S
O25 C10 1.278 1_545 S
O26 Pr1 2.562 . S
O26 C11 1.254 . S
O27 Pr1 2.490 . S
O27 C11 1.225 . S
O28 Pr0 2.436 . S
O28 Pr1 2.695 1_545 S
O28 C18 1.270 . S
O29 Pr1 2.512 . S
O29 C18 1.248 1_565 S
O30 Pr0 2.438 . S
O30 C19 1.267 . S
O31 Pr1 2.437 1_545 S
O31 C19 1.278 . S
H32 C4 0.929 . S
H33 C5 0.929 . S
H34 C7 0.931 . S
H35 C8 0.930 . S
H36 C13 0.929 . S
H37 C14 0.929 . S
H38 C16 0.931 . S
H39 C17 0.930 . S
Pr40 C42 2.880 . S
Pr40 O60 2.562 . S
Pr40 O61 2.490 . S
Pr40 O62 2.695 1_655 S
Pr40 O63 2.512 . S
Pr40 O65 2.437 1_655 S
Pr40 O68 2.436 1_655 S
Pr40 O70 2.438 . S
Pr41 C51 2.880 . S
Pr41 O62 2.436 . S
Pr41 O64 2.438 . S
Pr41 O66 2.562 . S
Pr41 O67 2.490 . S
Pr41 O68 2.695 . S
Pr41 O69 2.512 . S
Pr41 O71 2.437 . S
C42 Pr40 2.880 . S
C42 C43 1.491 . S
C42 O60 1.254 . S
C42 O61 1.225 . S
C43 C42 1.491 . S
C43 C44 1.392 . S
C43 C48 1.356 . S
C44 C43 1.392 . S
C44 C45 1.368 . S
C44 H72 0.929 . S
C45 C44 1.368 . S
C45 C46 1.386 . S
C45 H73 0.929 . S
C46 C45 1.386 . S
C46 C47 1.373 . S
C47 C46 1.373 . S
C47 C48 1.409 . S
C47 H74 0.931 . S
C48 C43 1.356 . S
C48 C47 1.409 . S
C48 H75 0.930 . S
C49 O62 1.270 . S
C49 O63 1.248 1_455 S
C50 O64 1.267 . S
C50 O65 1.278 . S
C51 Pr41 2.880 . S
C51 C52 1.491 . S
C51 O66 1.254 . S
C51 O67 1.225 . S
C52 C51 1.491 . S
C52 C53 1.392 . S
C52 C57 1.356 . S
C53 C52 1.392 . S
C53 C54 1.368 . S
C53 H76 0.929 . S
C54 C53 1.368 . S
C54 C55 1.386 . S
C54 H77 0.929 . S
C55 C54 1.386 . S
C55 C56 1.373 . S
C56 C55 1.373 . S
C56 C57 1.409 . S
C56 H78 0.931 . S
C57 C52 1.356 . S
C57 C56 1.409 . S
C57 H79 0.930 . S
C58 O68 1.270 . S
C58 O69 1.248 . S
C59 O70 1.267 . S
C59 O71 1.278 1_655 S
O60 Pr40 2.562 . S
O60 C42 1.254 . S
O61 Pr40 2.490 . S
O61 C42 1.225 . S
O62 Pr40 2.695 1_455 S
O62 Pr41 2.436 . S
O62 C49 1.270 . S
O63 Pr40 2.512 . S
O63 C49 1.248 1_655 S
O64 Pr41 2.438 . S
O64 C50 1.267 . S
O65 Pr40 2.437 1_455 S
O65 C50 1.278 . S
O66 Pr41 2.562 . S
O66 C51 1.254 . S
O67 Pr41 2.490 . S
O67 C51 1.225 . S
O68 Pr40 2.436 1_455 S
O68 Pr41 2.695 . S
O68 C58 1.270 . S
O69 Pr41 2.512 . S
O69 C58 1.248 . S
O70 Pr40 2.438 . S
O70 C59 1.267 . S
O71 Pr41 2.437 . S
O71 C59 1.278 1_455 S
H72 C44 0.929 . S
H73 C45 0.929 . S
H74 C47 0.931 . S
H75 C48 0.930 . S
H76 C53 0.929 . S
H77 C54 0.929 . S
H78 C56 0.931 . S
H79 C57 0.930 . S
Pr80 C82 2.880 . S
Pr80 O100 2.562 . S
Pr80 O101 2.490 . S
Pr80 O102 2.695 . S
Pr80 O103 2.512 . S
Pr80 O105 2.437 . S
Pr80 O108 2.436 . S
Pr80 O110 2.438 . S
Pr81 C91 2.880 1_554 S
Pr81 O102 2.436 1_565 S
Pr81 O104 2.438 . S
Pr81 O106 2.562 1_554 S
Pr81 O107 2.490 . S
Pr81 O108 2.695 1_565 S
Pr81 O109 2.512 . S
Pr81 O111 2.437 1_565 S
C82 Pr80 2.880 . S
C82 C83 1.491 . S
C82 O100 1.254 . S
C82 O101 1.225 . S
C83 C82 1.491 . S
C83 C84 1.392 . S
C83 C88 1.356 . S
C84 C83 1.392 . S
C84 C85 1.368 . S
C84 H112 0.929 . S
C85 C84 1.368 . S
C85 C86 1.386 . S
C85 H113 0.929 . S
C86 C85 1.386 . S
C86 C87 1.373 . S
C87 C86 1.373 . S
C87 C88 1.409 . S
C87 H114 0.931 . S
C88 C83 1.356 . S
C88 C87 1.409 . S
C88 H115 0.930 . S
C89 O102 1.270 . S
C89 O103 1.248 . S
C90 O104 1.267 . S
C90 O105 1.278 1_565 S
C91 Pr81 2.880 1_556 S
C91 C92 1.491 . S
C91 O106 1.254 . S
C91 O107 1.225 1_556 S
C92 C91 1.491 . S
C92 C93 1.392 . S
C92 C97 1.356 . S
C93 C92 1.392 . S
C93 C94 1.368 . S
C93 H116 0.929 . S
C94 C93 1.368 . S
C94 C95 1.386 . S
C94 H117 0.929 . S
C95 C94 1.386 . S
C95 C96 1.373 . S
C96 C95 1.373 . S
C96 C97 1.409 . S
C96 H118 0.931 . S
C97 C92 1.356 . S
C97 C96 1.409 . S
C97 H119 0.930 . S
C98 O108 1.270 . S
C98 O109 1.248 1_545 S
C99 O110 1.267 . S
C99 O111 1.278 . S
O100 Pr80 2.562 . S
O100 C82 1.254 . S
O101 Pr80 2.490 . S
O101 C82 1.225 . S
O102 Pr80 2.695 . S
O102 Pr81 2.436 1_545 S
O102 C89 1.270 . S
O103 Pr80 2.512 . S
O103 C89 1.248 . S
O104 Pr81 2.438 . S
O104 C90 1.267 . S
O105 Pr80 2.437 . S
O105 C90 1.278 1_545 S
O106 Pr81 2.562 1_556 S
O106 C91 1.254 . S
O107 Pr81 2.490 . S
O107 C91 1.225 1_554 S
O108 Pr80 2.436 . S
O108 Pr81 2.695 1_545 S
O108 C98 1.270 . S
O109 Pr81 2.512 . S
O109 C98 1.248 1_565 S
O110 Pr80 2.438 . S
O110 C99 1.267 . S
O111 Pr81 2.437 1_545 S
O111 C99 1.278 . S
H112 C84 0.929 . S
H113 C85 0.929 . S
H114 C87 0.931 . S
H115 C88 0.930 . S
H116 C93 0.929 . S
H117 C94 0.929 . S
H118 C96 0.931 . S
H119 C97 0.930 . S
Pr120 C122 2.880 . S
Pr120 O140 2.562 . S
Pr120 O141 2.490 . S
Pr120 O142 2.695 1_655 S
Pr120 O143 2.512 . S
Pr120 O145 2.437 1_655 S
Pr120 O148 2.436 1_655 S
Pr120 O150 2.438 . S
Pr121 C131 2.880 . S
Pr121 O142 2.436 . S
Pr121 O144 2.438 . S
Pr121 O146 2.562 . S
Pr121 O147 2.490 . S
Pr121 O148 2.695 . S
Pr121 O149 2.512 . S
Pr121 O151 2.437 . S
C122 Pr120 2.880 . S
C122 C123 1.491 . S
C122 O140 1.254 . S
C122 O141 1.225 . S
C123 C122 1.491 . S
C123 C124 1.392 . S
C123 C128 1.356 . S
C124 C123 1.392 . S
C124 C125 1.368 . S
C124 H152 0.929 . S
C125 C124 1.368 . S
C125 C126 1.386 . S
C125 H153 0.929 . S
C126 C125 1.386 . S
C126 C127 1.373 . S
C127 C126 1.373 . S
C127 C128 1.409 . S
C127 H154 0.931 . S
C128 C123 1.356 . S
C128 C127 1.409 . S
C128 H155 0.930 . S
C129 O142 1.270 . S
C129 O143 1.248 1_455 S
C130 O144 1.267 . S
C130 O145 1.278 . S
C131 Pr121 2.880 . S
C131 C132 1.491 . S
C131 O146 1.254 . S
C131 O147 1.225 . S
C132 C131 1.491 . S
C132 C133 1.392 . S
C132 C137 1.356 . S
C133 C132 1.392 . S
C133 C134 1.368 . S
C133 H156 0.929 . S
C134 C133 1.368 . S
C134 C135 1.386 . S
C134 H157 0.929 . S
C135 C134 1.386 . S
C135 C136 1.373 . S
C136 C135 1.373 . S
C136 C137 1.409 . S
C136 H158 0.931 . S
C137 C132 1.356 . S
C137 C136 1.409 . S
C137 H159 0.930 . S
C138 O148 1.270 . S
C138 O149 1.248 . S
C139 O150 1.267 . S
C139 O151 1.278 1_655 S
O140 Pr120 2.562 . S
O140 C122 1.254 . S
O141 Pr120 2.490 . S
O141 C122 1.225 . S
O142 Pr120 2.695 1_455 S
O142 Pr121 2.436 . S
O142 C129 1.270 . S
O143 Pr120 2.512 . S
O143 C129 1.248 1_655 S
O144 Pr121 2.438 . S
O144 C130 1.267 . S
O145 Pr120 2.437 1_455 S
O145 C130 1.278 . S
O146 Pr121 2.562 . S
O146 C131 1.254 . S
O147 Pr121 2.490 . S
O147 C131 1.225 . S
O148 Pr120 2.436 1_455 S
O148 Pr121 2.695 . S
O148 C138 1.270 . S
O149 Pr121 2.512 . S
O149 C138 1.248 . S
O150 Pr120 2.438 . S
O150 C139 1.267 . S
O151 Pr121 2.437 . S
O151 C139 1.278 1_455 S
H152 C124 0.929 . S
H153 C125 0.929 . S
H154 C127 0.931 . S
H155 C128 0.930 . S
H156 C133 0.929 . S
H157 C134 0.929 . S
H158 C136 0.931 . S
H159 C137 0.930 . S
C160 C161 1.365 1_655 S
C160 C162 1.419 1_655 S
C160 H164 0.930 . S
C161 C160 1.365 1_455 S
C161 C170 1.442 1_545 S
C162 C160 1.419 1_455 S
C162 C163 1.363 . S
C162 H165 0.929 1_455 S
C163 C162 1.363 . S
C163 C169 1.428 1_545 S
H164 C160 0.930 . S
H165 C162 0.929 1_655 S
S166 N167 1.613 . S
S166 N168 1.610 . S
N167 S166 1.613 . S
N167 C170 1.350 . S
N168 S166 1.610 . S
N168 C169 1.351 . S
C169 C163 1.428 1_565 S
C169 N168 1.351 . S
C169 C170 1.434 . S
C170 C161 1.442 1_565 S
C170 N167 1.350 . S
C170 C169 1.434 . S
C171 C172 1.369 1_565 S
C171 C173 1.419 . S
C171 H175 0.930 . S
C172 C171 1.369 1_545 S
C172 C181 1.429 . S
C173 C171 1.419 . S
C173 C174 1.363 1_565 S
C173 H176 0.929 . S
C174 C173 1.363 1_545 S
C174 C180 1.428 . S
H175 C171 0.930 . S
H176 C173 0.929 . S
S177 N178 1.613 . S
S177 N179 1.610 . S
N178 S177 1.613 . S
N178 C181 1.350 . S
N179 S177 1.610 . S
N179 C180 1.351 . S
C180 C174 1.428 . S
C180 N179 1.351 . S
C180 C181 1.434 . S
C181 C172 1.429 . S
C181 N178 1.350 . S
C181 C180 1.434 . S
C182 C183 1.369 1_565 S
C182 C184 1.419 . S
C182 H186 0.930 . S
C183 C182 1.369 1_545 S
C183 C192 1.429 . S
C184 C182 1.419 . S
C184 C185 1.363 1_565 S
C184 H187 0.929 . S
C185 C184 1.363 1_545 S
C185 C191 1.428 . S
H186 C182 0.930 . S
H187 C184 0.929 . S
S188 N189 1.613 . S
S188 N190 1.610 . S
N189 S188 1.613 . S
N189 C192 1.350 . S
N190 S188 1.610 . S
N190 C191 1.351 . S
C191 C185 1.428 . S
C191 N190 1.351 . S
C191 C192 1.434 . S
C192 C183 1.429 . S
C192 N189 1.350 . S
C192 C191 1.434 . S
C193 C194 1.369 1_655 S
C193 C195 1.419 . S
C193 H197 0.930 . S
C194 C193 1.369 1_455 S
C194 C203 1.429 . S
C195 C193 1.419 . S
C195 C196 1.363 1_655 S
C195 H198 0.929 . S
C196 C195 1.363 1_455 S
C196 C202 1.428 . S
H197 C193 0.930 . S
H198 C195 0.929 . S
S199 N200 1.613 . S
S199 N201 1.610 . S
N200 S199 1.613 . S
N200 C203 1.350 . S
N201 S199 1.610 . S
N201 C202 1.351 . S
C202 C196 1.428 . S
C202 N201 1.351 . S
C202 C203 1.434 . S
C203 C194 1.429 . S
C203 N200 1.350 . S
C203 C202 1.434 . S
C204 C205 1.369 . S
C204 C206 1.419 . S
C204 H208 0.930 . S
C205 C204 1.369 . S
C205 C214 1.429 . S
C206 C204 1.419 . S
C206 C207 1.363 . S
C206 H209 0.929 . S
C207 C206 1.363 . S
C207 C213 1.428 . S
H208 C204 0.930 . S
H209 C206 0.929 . S
S210 N211 1.613 1_655 S
S210 N212 1.610 1_655 S
N211 S210 1.613 1_455 S
N211 C214 1.350 . S
N212 S210 1.610 1_455 S
N212 C213 1.351 . S
C213 C207 1.428 . S
C213 N212 1.351 . S
C213 C214 1.434 . S
C214 C205 1.429 . S
C214 N211 1.350 . S
C214 C213 1.434 . S
C215 C216 1.369 . S
C215 C217 1.419 . S
C215 H219 0.930 . S
C216 C215 1.369 . S
C216 C225 1.429 . S
C217 C215 1.419 . S
C217 C218 1.363 . S
C217 H220 0.929 . S
C218 C217 1.363 . S
C218 C224 1.428 . S
H219 C215 0.930 . S
H220 C217 0.929 . S
S221 N222 1.613 . S
S221 N223 1.610 . S
N222 S221 1.613 . S
N222 C225 1.350 . S
N223 S221 1.610 . S
N223 C224 1.351 . S
C224 C218 1.428 . S
C224 N223 1.351 . S
C224 C225 1.434 . S
C225 C216 1.429 . S
C225 N222 1.350 . S
C225 C224 1.434 . S
C226 C227 1.369 . S
C226 C228 1.419 . S
C226 H230 0.930 . S
C227 C226 1.369 . S
C227 C236 1.429 . S
C228 C226 1.419 . S
C228 C229 1.363 . S
C228 H231 0.929 . S
C229 C228 1.363 . S
C229 C235 1.428 . S
H230 C226 0.930 . S
H231 C228 0.929 . S
S232 N233 1.613 . S
S232 N234 1.610 . S
N233 S232 1.613 . S
N233 C236 1.350 1_545 S
N234 S232 1.610 . S
N234 C235 1.351 1_545 S
C235 C229 1.428 . S
C235 N234 1.351 1_565 S
C235 C236 1.434 . S
C236 C227 1.429 . S
C236 N233 1.350 1_565 S
C236 C235 1.434 . S
C237 C238 1.369 . S
C237 C239 1.419 . S
C237 H241 0.930 . S
C238 C237 1.369 . S
C238 C247 1.429 . S
C239 C237 1.419 . S
C239 C240 1.363 . S
C239 H242 0.929 . S
C240 C239 1.363 . S
C240 C246 1.428 . S
H241 C237 0.930 . S
H242 C239 0.929 . S
S243 N244 1.613 . S
S243 N245 1.610 . S
N244 S243 1.613 . S
N244 C247 1.350 . S
N245 S243 1.610 . S
N245 C246 1.351 . S
C246 C240 1.428 . S
C246 N245 1.351 . S
C246 C247 1.434 . S
C247 C238 1.429 . S
C247 N244 1.350 . S
C247 C246 1.434 . S
C248 C249 1.369 . S
C248 C250 1.419 . S
C248 H252 0.930 . S
C249 C248 1.369 . S
C249 C258 1.429 . S
C250 C248 1.419 . S
C250 C251 1.363 . S
C250 H253 0.929 . S
C251 C250 1.363 . S
C251 C257 1.428 . S
H252 C248 0.930 . S
H253 C250 0.929 . S
S254 N255 1.613 . S
S254 N256 1.610 . S
N255 S254 1.613 . S
N255 C258 1.350 . S
N256 S254 1.610 . S
N256 C257 1.351 . S
C257 C251 1.428 . S
C257 N256 1.351 . S
C257 C258 1.434 . S
C258 C249 1.429 . S
C258 N255 1.350 . S
C258 C257 1.434 . S
C259 C260 1.369 . S
C259 C261 1.419 . S
C259 H263 0.930 . S
C260 C259 1.369 . S
C260 C269 1.429 . S
C261 C259 1.419 . S
C261 C262 1.363 . S
C261 H264 0.929 . S
C262 C261 1.363 . S
C262 C268 1.428 . S
H263 C259 0.930 . S
H264 C261 0.929 . S
S265 N266 1.613 . S
S265 N267 1.610 1_545 S
N266 S265 1.613 . S
N266 C269 1.350 1_545 S
N267 S265 1.610 1_565 S
N267 C268 1.351 . S
C268 C262 1.428 . S
C268 N267 1.351 . S
C268 C269 1.434 . S
C269 C260 1.429 . S
C269 N266 1.350 1_565 S
C269 C268 1.434 . S
C270 C271 1.369 . S
C270 C272 1.419 1_556 S
C270 H274 0.930 . S
C271 C270 1.369 . S
C271 C280 1.429 . S
C272 C270 1.419 1_554 S
C272 C273 1.363 . S
C272 H275 0.929 . S
C273 C272 1.363 . S
C273 C279 1.428 . S
H274 C270 0.930 . S
H275 C272 0.929 . S
S276 N277 1.613 1_554 S
S276 N278 1.610 . S
N277 S276 1.613 1_556 S
N277 C280 1.350 . S
N278 S276 1.610 . S
N278 C279 1.351 . S
C279 C273 1.428 . S
C279 N278 1.351 . S
C279 C280 1.434 1_554 S
C280 C271 1.429 . S
C280 N277 1.350 . S
C280 C279 1.434 1_556 S
C281 C282 1.369 . S
C281 C283 1.419 . S
C281 H285 0.930 . S
C282 C281 1.369 . S
C282 C291 1.429 . S
C283 C281 1.419 . S
C283 C284 1.363 . S
C283 H286 0.929 . S
C284 C283 1.363 . S
C284 C290 1.428 . S
H285 C281 0.930 . S
H286 C283 0.929 . S
S287 N288 1.613 . S
S287 N289 1.610 . S
N288 S287 1.613 . S
N288 C291 1.350 . S
N289 S287 1.610 . S
N289 C290 1.351 . S
C290 C284 1.428 . S
C290 N289 1.351 . S
C290 C291 1.434 . S
C291 C282 1.429 . S
C291 N288 1.350 . S
C291 C290 1.434 . S
C161 C89 1.250 1_455 S
C163 C18 1.249 . S
C172 C138 1.263 1_545 S
C174 C49 1.249 . S
C183 C98 1.137 . S
C185 C9 1.132 . S
C194 C58 1.132 . S
C196 C129 1.135 . S
C205 C50 1.526 . S
C207 C6 1.544 . S
C216 C59 2.244 . S
C218 C99 2.244 1_556 S
C227 C126 1.545 . S
C229 C90 1.529 . S
C238 C135 1.002 . S
C240 C15 1.001 . S
C249 C95 1.547 . S
C251 C139 1.528 . S
C260 C10 2.243 . S
C262 C130 2.243 . S
C271 C55 1.547 . S
C273 C19 1.528 . S
C282 C86 1.000 . S
C284 C46 1.004 . S
