# Generated by pormake.
# Topology snp, (6)-cn, num edge types: 1
# Building blocks:
#     Node 0, Type 0, BuildingBlock: BETGAK_clean_sbu_0, # of connection points: 6
#     Node 1, Type 0, BuildingBlock: BETGAK_clean_sbu_0, # of connection points: 6
#     Node 2, Type 0, BuildingBlock: BETGAK_clean_sbu_0, # of connection points: 6
#     Node 3, Type 0, BuildingBlock: BETGAK_clean_sbu_0, # of connection points: 6
#     Edge 4, Type (0, 0), BuildingBlock: UVAHIK_clean_linker_0, # of connection points: 2
#     Edge 5, Type (0, 0), BuildingBlock: UVAHIK_clean_linker_0, # of connection points: 2
#     Edge 6, Type (0, 0), BuildingBlock: UVAHIK_clean_linker_0, # of connection points: 2
#     Edge 7, Type (0, 0), BuildingBlock: UVAHIK_clean_linker_0, # of connection points: 2
#     Edge 8, Type (0, 0), BuildingBlock: UVAHIK_clean_linker_0, # of connection points: 2
#     Edge 9, Type (0, 0), BuildingBlock: UVAHIK_clean_linker_0, # of connection points: 2
#     Edge 10, Type (0, 0), BuildingBlock: UVAHIK_clean_linker_0, # of connection points: 2
#     Edge 11, Type (0, 0), BuildingBlock: UVAHIK_clean_linker_0, # of connection points: 2
#     Edge 12, Type (0, 0), BuildingBlock: UVAHIK_clean_linker_0, # of connection points: 2
#     Edge 13, Type (0, 0), BuildingBlock: UVAHIK_clean_linker_0, # of connection points: 2
#     Edge 14, Type (0, 0), BuildingBlock: UVAHIK_clean_linker_0, # of connection points: 2
#     Edge 15, Type (0, 0), BuildingBlock: UVAHIK_clean_linker_0, # of connection points: 2
# Relax obj value: 0.558
# Max RMSD: 0.176
# Mean RMSD: 0.176
data_MOF--net-snp--node1-BETGAK_clean_sbu_0--edge1-UVAHIK_clean_linker_0
_symmetry_space_group_name_H-M    P1
_symmetry_Int_Tables_number       1
_symmetry_cell_setting            triclinic
loop_
_symmetry_equiv_pos_as_xyz
'x, y, z'
_cell_length_a     32.290773
_cell_length_b     32.063474
_cell_length_c     37.391467
_cell_angle_alpha  89.671447
_cell_angle_beta   90.238542
_cell_angle_gamma 90.159622
loop_
_atom_site_label
_atom_site_type_symbol
_atom_site_fract_x
_atom_site_fract_y
_atom_site_fract_z
_atom_type_partial_charge
La0 La 0.23587 0.08093 0.13584 0.0
La1 La 0.23406 0.99422 1.11309 0.0
C2 C 0.23012 0.15274 0.16279 0.0
C3 C 0.25852 0.18441 0.17781 0.0
C4 C 0.27241 0.21814 0.15677 0.0
C5 C 0.29631 0.25 0.17196 0.0
C6 C 0.30658 0.24881 0.20852 0.0
C7 C 0.29358 0.21435 0.22916 0.0
C8 C 0.26987 0.18264 0.21404 0.0
C9 C 0.31085 0.05303 1.1165 0.0
C10 C 0.224 0.00816 0.19696 0.0
C11 C 0.25593 0.92477 1.08846 0.0
C12 C 0.27975 0.90811 1.05829 0.0
C13 C 0.26948 0.91766 1.02271 0.0
C14 C 0.2924 0.90072 0.99476 0.0
C15 C 0.32627 0.87424 1.00184 0.0
C16 C 0.33669 0.8652 1.03756 0.0
C17 C 0.31355 0.88189 1.06548 0.0
C18 C 0.16147 0.02271 0.13486 0.0
C19 C 0.21378 0.06603 1.054 0.0
O20 O 0.2325 0.14588 0.1285 0.0
O21 O 0.2257 0.11808 0.18094 0.0
O22 O 0.29668 0.09005 1.11163 0.0
O23 O 0.28352 0.03307 0.13379 0.0
O24 O 0.22349 0.04873 0.18854 0.0
O25 O 0.23143 0.98037 0.17146 0.0
O26 O 0.21995 0.94196 1.0816 0.0
O27 O 0.27749 0.94595 1.11185 0.0
O28 O 0.17278 0.98391 0.1373 0.0
O29 O 0.18876 0.04144 1.11711 0.0
O30 O 0.23048 0.0283 1.05973 0.0
O31 O 0.2067 0.08992 1.08234 0.0
H32 H 0.26392 0.22049 0.12878 0.0
H33 H 0.30582 0.27603 0.15531 0.0
H34 H 0.2998 0.21276 0.25761 0.0
H35 H 0.25932 0.15742 0.23114 0.0
H36 H 0.2436 0.93787 1.0164 0.0
H37 H 0.28294 0.90771 0.96757 0.0
H38 H 0.36277 0.84533 1.04398 0.0
H39 H 0.32205 0.87426 1.0928 0.0
La40 La 0.99455 0.23484 0.63339 0.0
La41 La 0.0804 0.23126 0.61018 0.0
C42 C 0.92394 0.22884 0.66198 0.0
C43 C 0.89517 0.25527 0.68247 0.0
C44 C 0.86382 0.27821 0.66512 0.0
C45 C 0.83443 0.30009 0.68499 0.0
C46 C 0.83582 0.29933 0.72256 0.0
C47 C 0.86779 0.2771 0.73974 0.0
C48 C 0.897 0.25528 0.71998 0.0
C49 C 0.02405 0.30993 0.61423 0.0
C50 C 0.06742 0.22222 0.69425 0.0
C51 C 0.1496 0.25249 0.58497 0.0
C52 C 0.16662 0.27642 0.55457 0.0
C53 C 0.16417 0.26157 0.51939 0.0
C54 C 0.18183 0.28436 0.49138 0.0
C55 C 0.20215 0.32254 0.4979 0.0
C56 C 0.20431 0.3374 0.53311 0.0
C57 C 0.18686 0.31449 0.56114 0.0
C58 C 0.04983 0.1589 0.63236 0.0
C59 C 0.00839 0.21295 0.55117 0.0
O60 O 0.92975 0.23832 0.62839 0.0
O61 O 0.95853 0.21845 0.67782 0.0
O62 O 0.98689 0.29651 0.60954 0.0
O63 O 0.04337 0.28174 0.63129 0.0
O64 O 0.02699 0.22417 0.68638 0.0
O65 O 0.09498 0.22718 0.66819 0.0
O66 O 0.13193 0.21642 0.57853 0.0
O67 O 0.12906 0.27433 0.60839 0.0
O68 O 0.08867 0.1694 0.63502 0.0
O69 O 0.03217 0.18678 0.61428 0.0
O70 O 0.04676 0.22768 0.55688 0.0
O71 O 0.98396 0.20722 0.57945 0.0
H72 H 0.86136 0.27847 0.63622 0.0
H73 H 0.81021 0.3169 0.67099 0.0
H74 H 0.86924 0.27486 0.76863 0.0
H75 H 0.9203 0.2374 0.73422 0.0
H76 H 0.14903 0.2322 0.51349 0.0
H77 H 0.18032 0.27155 0.46467 0.0
H78 H 0.21939 0.36678 0.53903 0.0
H79 H 0.18934 0.3265 0.5881 0.0
La80 La 0.84326 0.99126 0.13408 0.0
La81 La 0.8298 0.07544 1.10834 0.0
C82 C 0.85962 0.91524 0.14502 0.0
C83 C 0.84119 0.88123 0.16599 0.0
C84 C 0.80201 0.88571 0.18154 0.0
C85 C 0.78526 0.85352 0.20227 0.0
C86 C 0.80749 0.81636 0.20783 0.0
C87 C 0.84625 0.81165 0.19129 0.0
C88 C 0.86294 0.84388 0.17054 0.0
C89 C 0.76373 0.01401 0.13218 0.0
C90 C 0.85146 0.06074 0.1948 0.0
C91 C 0.79297 0.14389 1.09854 0.0
C92 C 0.76442 0.163 1.07269 0.0
C93 C 0.76459 0.2064 1.06858 0.0
C94 C 0.74056 0.2253 1.042 0.0
C95 C 0.71578 0.20103 1.01906 0.0
C96 C 0.71418 0.15754 1.0245 0.0
C97 C 0.73853 0.13863 1.05098 0.0
C98 C 0.90961 0.06009 1.11653 0.0
C99 C 0.85764 0.01068 1.05002 0.0
O100 O 0.83713 0.92892 1.11838 0.0
O101 O 0.87619 0.94576 0.16322 0.0
O102 O 0.78119 0.99306 0.15763 0.0
O103 O 0.79073 0.02137 1.10851 0.0
O104 O 0.85766 0.02074 0.18669 0.0
O105 O 0.8384 0.08657 0.16853 0.0
O106 O 0.83015 0.13598 1.0867 0.0
O107 O 0.77822 0.1133 1.11808 0.0
O108 O 0.89416 0.08481 1.09226 0.0
O109 O 0.87957 0.04586 0.13389 0.0
O110 O 0.8357 0.04545 1.05478 0.0
O111 O 0.86892 0.98864 1.0787 0.0
H112 H 0.7846 0.91423 0.17802 0.0
H113 H 0.75522 0.85795 0.21444 0.0
H114 H 0.86446 0.78373 0.19553 0.0
H115 H 0.89318 0.83993 0.15858 0.0
H116 H 0.78448 0.22562 1.08515 0.0
H117 H 0.74319 0.25871 1.03826 0.0
H118 H 0.69512 0.13798 1.00755 0.0
H119 H 0.73801 0.10501 1.05384 0.0
La120 La 0.08247 0.84636 0.63627 0.0
La121 La 1.00002 0.83087 0.61058 0.0
C122 C 0.15794 0.86406 0.64638 0.0
C123 C 0.19382 0.84102 0.66014 0.0
C124 C 0.19165 0.79774 0.66564 0.0
C125 C 0.2247 0.77661 0.68162 0.0
C126 C 0.26046 0.79845 0.69221 0.0
C127 C 0.26332 0.84144 0.6848 0.0
C128 C 0.23015 0.86257 0.66896 0.0
C129 C 0.06221 0.76536 0.63401 0.0
C130 C 0.01303 0.85459 0.69643 0.0
C131 C 0.93305 0.79181 0.60066 0.0
C132 C 0.91592 0.76155 0.57528 0.0
C133 C 0.87344 0.76227 0.56775 0.0
C134 C 0.85685 0.73646 0.54136 0.0
C135 C 0.88254 0.70932 0.52209 0.0
C136 C 0.92488 0.70721 0.53109 0.0
C137 C 0.94148 0.73334 0.55731 0.0
C138 C 0.01297 0.91181 0.61726 0.0
C139 C 0.06422 0.86026 0.55234 0.0
O140 O 0.14285 0.85074 0.61613 0.0
O141 O 0.12875 0.87179 0.66946 0.0
O142 O 0.08257 0.78317 0.65941 0.0
O143 O 0.05433 0.79273 0.61057 0.0
O144 O 0.0522 0.86324 0.68779 0.0
O145 O 0.98819 0.83919 0.67063 0.0
O146 O 0.94054 0.82903 0.58773 0.0
O147 O 0.96293 0.77859 0.62158 0.0
O148 O 0.98929 0.89498 0.59311 0.0
O149 O 0.02791 0.88247 0.63547 0.0
O150 O 0.0303 0.83702 0.55713 0.0
O151 O 0.08517 0.87278 0.58103 0.0
H152 H 0.16401 0.78049 0.6585 0.0
H153 H 0.22173 0.74348 0.6869 0.0
H154 H 0.29019 0.85924 0.69318 0.0
H155 H 0.23235 0.89596 0.6647 0.0
H156 H 0.85329 0.78391 0.58141 0.0
H157 H 0.82431 0.73953 0.53478 0.0
H158 H 0.94544 0.68637 0.51705 0.0
H159 H 0.97438 0.73236 0.56281 0.0
C160 C 0.96428 0.04725 0.16078 0.0
C161 C 0.94281 0.07589 0.13942 0.0
C162 C 0.98273 0.06002 0.19262 0.0
C163 C 0.02925 0.15076 0.23256 0.0
H164 H 0.0657 0.05665 0.28855 0.0
C165 C 0.13901 0.08719 0.16534 0.0
C166 C 0.13803 0.04365 0.1633 0.0
C167 C 0.1257 0.10751 0.19602 0.0
C168 C 0.05583 0.08363 0.27324 0.0
H169 H 0.92346 0.14049 0.13461 0.0
H170 H 0.95641 0.16301 0.18987 0.0
H171 H 0.99374 0.06046 0.26926 0.0
H172 H 0.12074 0.98696 0.19113 0.0
H173 H 0.0938 0.02167 0.24308 0.0
H174 H 0.09149 0.17244 0.23732 0.0
C175 C 0.95923 0.13069 0.18204 0.0
C176 C 0.01435 0.08596 0.26249 0.0
C177 C 0.94139 0.11799 0.14983 0.0
C178 C 0.12128 0.02073 0.19176 0.0
C179 C 0.10663 0.04105 0.22213 0.0
C180 C 0.07018 0.14774 0.24457 0.0
C181 C 0.97952 0.10173 0.20422 0.0
C182 C 0.00345 0.11549 0.23603 0.0
C183 C 0.10827 0.0851 0.22497 0.0
C184 C 0.0846 0.10763 0.25374 0.0
H185 H 0.96452 0.01444 0.15397 0.0
H186 H 0.99956 0.03691 0.20804 0.0
H187 H 0.02097 0.17686 0.21552 0.0
H188 H 0.15181 0.10567 0.1437 0.0
H189 H 0.12837 0.14109 0.19617 0.0
C190 C 0.95366 0.94312 0.64837 0.0
C191 C 0.99586 0.94518 0.63914 0.0
C192 C 0.93952 0.96137 0.67983 0.0
C193 C 0.98037 0.01736 0.76091 0.0
H194 H 0.89502 0.09444 0.73382 0.0
C195 C 0.04859 0.12366 0.69213 0.0
C196 C 0.02781 0.13622 0.66094 0.0
C197 C 0.02633 0.11148 0.72244 0.0
C198 C 0.91926 0.07297 0.74169 0.0
H199 H 0.05593 0.96867 0.65482 0.0
H200 H 0.03102 1.00421 0.70757 0.0
H201 H 0.89186 0.02354 0.71151 0.0
H202 H 0.96773 0.14406 0.63621 0.0
H203 H 0.92889 0.1224 0.68761 0.0
H204 H 0.00784 0.06903 0.78799 0.0
C205 C 0.00893 0.98658 0.69185 0.0
C206 C 0.91701 0.03192 0.72932 0.0
C207 C 0.02311 0.9678 0.66076 0.0
C208 C 0.98457 0.13434 0.65995 0.0
C209 C 0.96223 0.12245 0.69013 0.0
C210 C 0.98181 0.05899 0.77184 0.0
C211 C 0.96716 0.98257 0.70242 0.0
C212 C 0.9521 0.00632 0.73369 0.0
C213 C 0.98249 0.11005 0.72209 0.0
C214 C 0.95883 0.08781 0.75138 0.0
H215 H 0.93216 0.92442 0.6329 0.0
H216 H 0.90717 0.95807 0.68682 0.0
H217 H 0.00567 0.99695 0.76826 0.0
H218 H 0.08206 0.12515 0.69374 0.0
H219 H 0.04402 0.10268 0.74587 0.0
C220 C 0.69809 0.02743 1.09568 0.0
C221 C 0.71756 0.01871 0.12861 0.0
C222 C 0.65443 0.02915 1.09288 0.0
C223 C 0.55609 1.00096 0.14397 0.0
H224 H 0.50418 0.07056 1.07196 0.0
C225 C 0.37457 0.00688 0.1275 0.0
C226 C 0.35676 0.04467 1.11588 0.0
C227 C 0.41812 1.00141 0.12756 0.0
C228 C 0.51775 0.05123 1.09269 0.0
H229 H 0.70589 0.00596 0.18456 0.0
H230 H 0.63092 0.01057 0.18026 0.0
H231 H 0.579 0.0678 1.07587 0.0
H232 H 0.3716 0.10617 1.09515 0.0
H233 H 0.44589 0.09749 1.09644 0.0
H234 H 0.49473 0.98598 0.16185 0.0
C235 C 0.64869 0.01473 0.15603 0.0
C236 C 0.56132 0.04906 1.09452 0.0
C237 C 0.69213 0.01253 0.15867 0.0
C238 C 0.3838 0.07647 1.10419 0.0
C239 C 0.42696 0.07126 1.1046 0.0
C240 C 0.51248 1.00352 0.14241 0.0
C241 C 0.62869 0.02262 1.12303 0.0
C242 C 0.58159 0.0241 1.12037 0.0
C243 C 0.4453 0.03366 1.11622 0.0
C244 C 0.49226 0.02902 1.11692 0.0
H245 H 0.71655 0.03192 1.07185 0.0
H246 H 0.641 0.03475 1.06675 0.0
H247 H 0.56968 0.98048 0.16387 0.0
H248 H 0.35492 0.98161 0.13666 0.0
H249 H 0.43035 0.97166 0.13631 0.0
C250 C 0.07052 0.37349 0.62649 0.0
C251 C 0.03319 0.35604 0.61387 0.0
C252 C 0.0764 0.41733 0.627 0.0
C253 C 0.02915 0.51843 0.5915 0.0
H254 H 0.096 0.56934 0.66548 0.0
C255 C 0.05217 0.69983 0.5967 0.0
C256 C 0.05875 0.71886 0.63005 0.0
C257 C 0.05103 0.65594 0.59354 0.0
C258 C 0.07664 0.55602 0.64479 0.0
H259 H 0.97302 0.37178 0.59174 0.0
H260 H 0.98238 0.44644 0.59376 0.0
H261 H 0.09057 0.49381 0.66259 0.0
H262 H 0.06878 0.70619 0.68631 0.0
H263 H 0.06524 0.63063 0.68132 0.0
H264 H 0.01353 0.58039 0.57469 0.0
C265 C 0.00795 0.42707 0.60241 0.0
C266 C 0.07413 0.51212 0.64275 0.0
C267 C 1.00234 0.38368 0.60157 0.0
C268 C 0.06376 0.69274 0.66013 0.0
C269 C 0.06216 0.64901 0.65711 0.0
C270 C 0.03126 0.56224 0.5938 0.0
C271 C 0.04504 0.44508 0.61509 0.0
C272 C 0.04996 0.49231 0.61626 0.0
C273 C 0.05609 0.62948 0.62372 0.0
C274 C 0.0548 0.58213 0.62064 0.0
H275 H 0.09506 0.35336 0.63615 0.0
H276 H 0.10572 0.42935 0.63661 0.0
H277 H 0.01092 0.50518 0.57003 0.0
H278 H 0.04887 0.71885 0.57285 0.0
H279 H 0.047 0.64291 0.56713 0.0
C280 C 0.20305 0.34724 0.43431 0.0
C281 C 0.22205 0.34583 0.46809 0.0
C282 C 0.22388 0.36402 0.40502 0.0
C283 C 0.33081 0.377 0.37428 0.0
H284 H 0.26868 0.39986 0.28777 0.0
C285 C 0.31202 0.32593 0.21898 0.0
C286 C 0.32567 0.28526 0.22673 0.0
C287 C 0.31828 0.35795 0.24369 0.0
C288 C 0.2876 0.39464 0.31128 0.0
H289 H 0.27675 0.36405 0.49817 0.0
H290 H 0.31268 0.39468 0.44714 0.0
H291 H 0.23809 0.41431 0.34478 0.0
H292 H 0.36407 0.24849 0.26248 0.0
H293 H 0.37226 0.3023 0.30636 0.0
H294 H 0.38072 0.35826 0.34086 0.0
C295 C 0.282 0.38181 0.4431 0.0
C296 C 0.26941 0.40234 0.34435 0.0
C297 C 0.26121 0.36455 0.47246 0.0
C298 C 0.35143 0.27904 0.25659 0.0
C299 C 0.35667 0.31058 0.2817 0.0
C300 C 0.34961 0.37072 0.34115 0.0
C301 C 0.2642 0.38042 0.40871 0.0
C302 C 0.28911 0.38943 0.37607 0.0
C303 C 0.33689 0.34944 0.2771 0.0
C304 C 0.3265 0.37491 0.30929 0.0
H305 H 0.17253 0.33399 0.43017 0.0
H306 H 0.20908 0.36161 0.37909 0.0
H307 H 0.34771 0.36784 0.3981 0.0
H308 H 0.29293 0.33225 0.19571 0.0
H309 H 0.30478 0.38813 0.23798 0.0
C310 C 0.81107 0.33551 0.77756 0.0
C311 C 0.80203 0.31748 0.74431 0.0
C312 C 0.77984 0.34144 0.80262 0.0
C313 C 0.71258 0.34497 0.85686 0.0
H314 H 0.65215 0.24046 0.8557 0.0
C315 C 0.68031 0.26119 0.98798 0.0
C316 C 0.69652 0.22051 0.9869 0.0
C317 C 0.67079 0.28262 0.95628 0.0
C318 C 0.66842 0.27003 0.85646 0.0
H319 H 0.75221 0.29758 0.70918 0.0
H320 H 0.69738 0.30977 0.7523 0.0
H321 H 0.67995 0.26811 0.80057 0.0
H322 H 0.71233 0.16945 0.95171 0.0
H323 H 0.69612 0.20624 0.89714 0.0
H324 H 0.70544 0.34387 0.91357 0.0
C325 C 0.72889 0.31759 0.75972 0.0
C326 C 0.68401 0.2864 0.82457 0.0
C327 C 0.76035 0.31103 0.73477 0.0
C328 C 0.6995 0.20051 0.95372 0.0
C329 C 0.69 0.2218 0.92219 0.0
C330 C 0.69775 0.32808 0.8889 0.0
C331 C 0.73863 0.33 0.79483 0.0
C332 C 0.70914 0.32238 0.82481 0.0
C333 C 0.67726 0.26373 0.92292 0.0
C334 C 0.67833 0.28875 0.88929 0.0
H335 H 0.84279 0.34202 0.7853 0.0
H336 H 0.78902 0.35122 0.82915 0.0
H337 H 0.73019 0.37373 0.85787 0.0
H338 H 0.67684 0.27719 1.01322 0.0
H339 H 0.66039 0.31464 0.95784 0.0
C340 C 0.82534 0.673 0.48827 0.0
C341 C 0.86626 0.68817 0.48967 0.0
C342 C 0.80723 0.66228 0.45551 0.0
C343 C 0.77074 0.68892 0.38437 0.0
H344 H 0.83739 0.66499 0.30113 0.0
C345 C 0.77734 0.79728 0.26706 0.0
C346 C 0.79268 0.78458 0.2338 0.0
C347 C 0.77082 0.76826 0.29434 0.0
C348 C 0.81742 0.67077 0.32373 0.0
H349 H 0.92122 0.70043 0.45806 0.0
H350 H 0.89011 0.68217 0.40165 0.0
H351 H 0.85821 0.6379 0.35907 0.0
H352 H 0.80901 0.73099 0.20178 0.0
H353 H 0.79731 0.67997 0.24953 0.0
H354 H 0.73056 0.72275 0.34918 0.0
C355 C 0.8718 0.67784 0.42559 0.0
C356 C 0.82974 0.65558 0.35717 0.0
C357 C 0.88981 0.68853 0.45819 0.0
C358 C 0.79798 0.74175 0.22743 0.0
C359 C 0.7912 0.71256 0.25475 0.0
C360 C 0.75801 0.70349 0.35083 0.0
C361 C 0.82972 0.66654 0.42356 0.0
C362 C 0.80848 0.66749 0.38819 0.0
C363 C 0.77933 0.72571 0.28904 0.0
C364 C 0.78312 0.69754 0.32066 0.0
H365 H 0.80664 0.67148 0.51223 0.0
H366 H 0.77497 0.65296 0.45497 0.0
H367 H 0.75317 0.69836 0.40754 0.0
H368 H 0.77329 0.83004 0.27299 0.0
H369 H 0.76234 0.77992 0.32041 0.0
C370 C 0.27785 0.75643 0.74624 0.0
C371 C 0.29148 0.77853 0.71602 0.0
C372 C 0.30509 0.74771 0.77423 0.0
C373 C 0.36198 0.73928 0.8362 0.0
H374 H 0.42093 0.84329 0.84988 0.0
C375 C 0.3619 0.81305 0.97354 0.0
C376 C 0.34935 0.85502 0.97188 0.0
C377 C 0.37806 0.79346 0.94333 0.0
C378 C 0.40463 0.81398 0.84663 0.0
H379 H 0.34537 0.80333 0.68889 0.0
H380 H 0.39364 0.78669 0.73732 0.0
H381 H 0.40442 0.82079 0.79009 0.0
H382 H 0.34803 0.91037 0.93836 0.0
H383 H 0.37343 0.87618 0.88558 0.0
H384 H 0.35709 0.73558 0.89289 0.0
C385 C 0.36149 0.77768 0.74021 0.0
C386 C 0.39575 0.80048 0.81202 0.0
C387 C 0.33394 0.78708 0.71235 0.0
C388 C 0.35628 0.87771 0.94027 0.0
C389 C 0.37183 0.85809 0.91005 0.0
C390 C 0.36962 0.75353 0.87084 0.0
C391 C 0.34683 0.76058 0.77258 0.0
C392 C 0.37106 0.76479 0.80648 0.0
C393 C 0.38151 0.81526 0.9107 0.0
C394 C 0.38795 0.79286 0.87633 0.0
H395 H 0.24529 0.74949 0.74993 0.0
H396 H 0.29201 0.73473 0.79846 0.0
H397 H 0.34499 0.71038 0.83298 0.0
H398 H 0.35715 0.79462 0.99753 0.0
H399 H 0.38594 0.76072 0.94516 0.0
C400 C 0.88396 0.95389 1.00696 0.0
C401 C 0.87131 0.99567 1.01256 0.0
C402 C 0.89741 0.93926 0.973 0.0
C403 C 0.94092 0.97395 0.8829 0.0
H404 H 0.91185 0.86255 0.85182 0.0
C405 C 0.01952 0.89512 0.75589 0.0
C406 C 0.99576 0.86938 0.73282 0.0
C407 C 0.00374 0.91057 0.78881 0.0
C408 C 0.92045 0.89385 0.85967 0.0
H409 H 0.86421 0.05449 0.98455 0.0
H410 H 0.88865 0.02961 0.92609 0.0
H411 H 0.88649 0.88866 0.9092 0.0
H412 H 0.93521 0.84075 0.72829 0.0
H413 H 0.90821 0.86668 0.78545 0.0
H414 H 0.97573 0.97876 0.8338 0.0
C415 C 0.8877 0.0077 0.9482 0.0
C416 C 0.90593 0.90897 0.89322 0.0
C417 C 0.87326 0.02215 0.98211 0.0
C418 C 0.95517 0.85994 0.74475 0.0
C419 C 0.93953 0.87499 0.77802 0.0
C420 C 0.95625 0.95846 0.84974 0.0
C421 C 0.90003 0.96571 0.94259 0.0
C422 C 0.91559 0.94954 0.90585 0.0
C423 C 0.96327 0.90105 0.80096 0.0
C424 C 0.94639 0.91797 0.83701 0.0
H425 H 0.8833 0.93196 1.02908 0.0
H426 H 0.90665 0.90695 0.97086 0.0
H427 H 0.94977 0.00513 0.89089 0.0
H428 H 0.05067 0.90394 0.74831 0.0
H429 H 0.02379 0.92993 0.80504 0.0
C430 C 0.21166 0.95058 0.24489 0.0
C431 C 0.2107 0.99321 0.23466 0.0
C432 C 0.19651 0.93636 0.27865 0.0
C433 C 0.12291 0.96278 0.35409 0.0
H434 H 0.18344 0.88059 0.40958 0.0
C435 C 0.05337 0.87788 0.48469 0.0
C436 C 0.07969 0.87373 0.51492 0.0
C437 C 0.0684 0.89247 0.45087 0.0
C438 C 0.16577 0.90352 0.39467 0.0
H439 H 0.19222 0.05381 0.25421 0.0
H440 H 0.16448 0.02908 0.31163 0.0
H441 H 0.2108 0.90519 0.35203 0.0
H442 H 0.14364 0.88175 0.53126 0.0
H443 H 0.16966 0.90491 0.47297 0.0
H444 H 0.07731 0.96019 0.39635 0.0
C445 C 0.17758 0.00641 0.29359 0.0
C446 C 0.18158 0.91767 0.36113 0.0
C447 C 0.19391 0.0208 0.26029 0.0
C448 C 0.12186 0.88419 0.50925 0.0
C449 C 0.13704 0.89755 0.47534 0.0
C450 C 0.10649 0.94771 0.38718 0.0
C451 C 0.17845 0.96375 0.30378 0.0
C452 C 0.16083 0.94799 0.33999 0.0
C453 C 0.11077 0.9025 0.4452 0.0
C454 C 0.12764 0.91791 0.4086 0.0
H455 H 0.22394 0.92777 0.22656 0.0
H456 H 0.19802 0.90333 0.28467 0.0
H457 H 0.10534 0.98579 0.33917 0.0
H458 H 0.02075 0.87061 0.48728 0.0
H459 H 0.04668 0.89537 0.42888 0.0
C460 C 0.05473 0.20215 0.76095 0.0
C461 C 0.08232 0.20894 0.7321 0.0
C462 C 0.06848 0.18678 0.79495 0.0
C463 C 0.16099 0.13345 0.84255 0.0
H464 H 0.10236 0.16231 0.9289 0.0
C465 C 0.20616 0.05828 0.98468 0.0
C466 C 0.19963 0.0812 1.01646 0.0
C467 C 0.19225 0.07301 0.95046 0.0
C468 C 0.11973 0.15379 0.90539 0.0
H469 H 0.1472 0.20375 0.71842 0.0
H470 H 0.17086 0.17798 0.77659 0.0
H471 H 0.07866 0.18923 0.87126 0.0
H472 H 0.17236 0.13875 1.03509 0.0
H473 H 0.14871 0.16388 0.97688 0.0
H474 H 0.20228 0.09828 0.87678 0.0
C475 C 0.13815 0.1841 0.77318 0.0
C476 C 0.10553 0.16915 0.87158 0.0
C477 C 0.12444 0.19962 0.73932 0.0
C478 C 0.17838 0.11954 1.01198 0.0
C479 C 0.16427 0.13407 0.97797 0.0
C480 C 0.175 0.1178 0.87635 0.0
C481 C 0.11066 0.177 0.80213 0.0
C482 C 0.1258 0.1597 0.83902 0.0
C483 C 0.17064 0.11135 0.94602 0.0
C484 C 0.15498 0.12763 0.90895 0.0
H485 H 0.022 0.20801 0.75714 0.0
H486 H 0.04546 0.18167 0.81546 0.0
H487 H 0.17788 0.12431 0.81894 0.0
H488 H 0.22208 0.02864 0.98617 0.0
H489 H 0.19798 0.05364 0.92741 0.0
C490 C 0.89015 0.05259 0.25529 0.0
C491 C 0.8663 0.07755 0.23152 0.0
C492 C 0.9058 0.06797 0.28845 0.0
C493 C 0.89275 0.15397 0.35812 0.0
H494 H 0.99946 0.11689 0.3935 0.0
C495 C 0.95064 0.19157 0.50648 0.0
C496 C 0.99312 0.19954 0.51353 0.0
C497 C 0.936 0.17822 0.47232 0.0
C498 C 0.96959 0.12799 0.38436 0.0
H499 H 0.84139 0.13985 0.226 0.0
H500 H 0.86752 0.16616 0.28353 0.0
H501 H 0.97323 0.09177 0.3359 0.0
H502 H 0.05307 0.19841 0.48787 0.0
H503 H 0.02804 0.17448 0.4292 0.0
H504 H 0.88879 0.18965 0.40685 0.0
C505 C 0.87418 0.13418 0.27652 0.0
C506 C 0.95413 0.11308 0.35088 0.0
C507 C 0.85899 0.11893 0.24301 0.0
C508 C 0.02019 0.19307 0.48432 0.0
C509 C 0.00561 0.17888 0.45026 0.0
C510 C 0.90783 0.16821 0.39193 0.0
C511 C 0.89829 0.10922 0.30022 0.0
C512 C 0.91525 0.12567 0.33663 0.0
C513 C 0.96298 0.17114 0.44315 0.0
C514 C 0.94677 0.15576 0.40613 0.0
H515 H 0.89738 0.02079 0.24808 0.0
H516 H 0.92364 0.04697 0.30519 0.0
H517 H 0.86271 0.16477 0.34914 0.0
H518 H 0.92823 0.19575 0.52761 0.0
H519 H 0.90313 0.17259 0.4691 0.0
loop_
_geom_bond_atom_site_label_1
_geom_bond_atom_site_label_2
_geom_bond_distance
_geom_bond_site_symmetry_2
_ccdc_geom_bond_type
La0 C2 2.928 . S
La0 O20 2.521 . S
La0 O21 2.628 . S
La0 O22 2.554 . S
La0 O23 2.757 1_554 S
La0 O24 2.470 . S
La0 O29 2.482 . S
La0 O31 2.503 1_554 S
La1 C11 2.928 1_545 S
La1 O23 2.482 . S
La1 O25 2.503 1_556 S
La1 O26 2.521 1_545 S
La1 O27 2.628 . S
La1 O28 2.554 . S
La1 O29 2.757 1_556 S
La1 O30 2.470 . S
C2 La0 2.928 . S
C2 C3 1.503 . S
C2 O20 1.261 . S
C2 O21 1.243 . S
C3 C2 1.503 . S
C3 C4 1.394 . S
C3 C8 1.373 . S
C4 C3 1.394 . S
C4 C5 1.380 . S
C4 H32 0.930 . S
C5 C4 1.380 . S
C5 C6 1.376 . S
C5 H33 0.930 . S
C6 C5 1.376 . S
C6 C7 1.370 . S
C7 C6 1.370 . S
C7 C8 1.396 . S
C7 H34 0.929 . S
C8 C3 1.373 . S
C8 C7 1.396 . S
C8 H35 0.929 . S
C9 O22 1.240 . S
C9 O23 1.289 1_554 S
C10 O24 1.258 . S
C10 O25 1.256 . S
C11 La1 2.928 1_565 S
C11 C12 1.503 . S
C11 O26 1.261 . S
C11 O27 1.243 1_565 S
C12 C11 1.503 . S
C12 C13 1.394 . S
C12 C17 1.373 . S
C13 C12 1.394 . S
C13 C14 1.380 . S
C13 H36 0.930 . S
C14 C13 1.380 . S
C14 C15 1.376 . S
C14 H37 0.930 . S
C15 C14 1.376 . S
C15 C16 1.370 . S
C16 C15 1.370 . S
C16 C17 1.396 . S
C16 H38 0.929 . S
C17 C12 1.373 . S
C17 C16 1.396 . S
C17 H39 0.929 . S
C18 O28 1.218 1_554 S
C18 O29 1.303 . S
C19 O30 1.258 . S
C19 O31 1.256 . S
O20 La0 2.521 . S
O20 C2 1.261 . S
O21 La0 2.628 . S
O21 C2 1.243 . S
O22 La0 2.554 . S
O22 C9 1.240 . S
O23 La0 2.757 1_556 S
O23 La1 2.482 . S
O23 C9 1.289 1_556 S
O24 La0 2.470 . S
O24 C10 1.258 . S
O25 La1 2.503 1_554 S
O25 C10 1.256 . S
O26 La1 2.521 1_565 S
O26 C11 1.261 . S
O27 La1 2.628 . S
O27 C11 1.243 1_545 S
O28 La1 2.554 . S
O28 C18 1.218 1_556 S
O29 La0 2.482 . S
O29 La1 2.757 1_554 S
O29 C18 1.303 . S
O30 La1 2.470 . S
O30 C19 1.258 . S
O31 La0 2.503 1_556 S
O31 C19 1.256 . S
H32 C4 0.930 . S
H33 C5 0.930 . S
H34 C7 0.929 . S
H35 C8 0.929 . S
H36 C13 0.930 . S
H37 C14 0.930 . S
H38 C16 0.929 . S
H39 C17 0.929 . S
La40 C42 2.928 . S
La40 O60 2.521 . S
La40 O61 2.628 . S
La40 O62 2.554 . S
La40 O63 2.757 1_655 S
La40 O64 2.470 1_655 S
La40 O69 2.482 . S
La40 O71 2.503 . S
La41 C51 2.928 . S
La41 O63 2.482 . S
La41 O65 2.503 . S
La41 O66 2.521 . S
La41 O67 2.628 . S
La41 O68 2.554 . S
La41 O69 2.757 1_455 S
La41 O70 2.470 1_455 S
C42 La40 2.928 . S
C42 C43 1.503 . S
C42 O60 1.261 . S
C42 O61 1.243 . S
C43 C42 1.503 . S
C43 C44 1.394 . S
C43 C48 1.373 . S
C44 C43 1.394 . S
C44 C45 1.380 . S
C44 H72 0.930 . S
C45 C44 1.380 . S
C45 C46 1.376 . S
C45 H73 0.930 . S
C46 C45 1.376 . S
C46 C47 1.370 . S
C47 C46 1.370 . S
C47 C48 1.396 . S
C47 H74 0.929 . S
C48 C43 1.373 . S
C48 C47 1.396 . S
C48 H75 0.929 . S
C49 O62 1.240 . S
C49 O63 1.289 1_655 S
C50 O64 1.258 . S
C50 O65 1.256 . S
C51 La41 2.928 . S
C51 C52 1.503 . S
C51 O66 1.261 . S
C51 O67 1.243 . S
C52 C51 1.503 . S
C52 C53 1.394 . S
C52 C57 1.373 . S
C53 C52 1.394 . S
C53 C54 1.380 . S
C53 H76 0.930 . S
C54 C53 1.380 . S
C54 C55 1.376 . S
C54 H77 0.930 . S
C55 C54 1.376 . S
C55 C56 1.370 . S
C56 C55 1.370 . S
C56 C57 1.396 . S
C56 H78 0.929 . S
C57 C52 1.373 . S
C57 C56 1.396 . S
C57 H79 0.929 . S
C58 O68 1.240 . S
C58 O69 1.289 1_455 S
C59 O70 1.258 . S
C59 O71 1.256 . S
O60 La40 2.521 . S
O60 C42 1.261 . S
O61 La40 2.628 . S
O61 C42 1.243 . S
O62 La40 2.554 . S
O62 C49 1.240 . S
O63 La40 2.757 1_455 S
O63 La41 2.482 . S
O63 C49 1.289 1_455 S
O64 La40 2.470 1_455 S
O64 C50 1.258 . S
O65 La41 2.503 . S
O65 C50 1.256 . S
O66 La41 2.521 . S
O66 C51 1.261 . S
O67 La41 2.628 . S
O67 C51 1.243 . S
O68 La41 2.554 . S
O68 C58 1.240 . S
O69 La40 2.482 . S
O69 La41 2.757 1_655 S
O69 C58 1.289 1_655 S
O70 La41 2.470 1_655 S
O70 C59 1.258 . S
O71 La40 2.503 . S
O71 C59 1.256 . S
H72 C44 0.930 . S
H73 C45 0.930 . S
H74 C47 0.929 . S
H75 C48 0.929 . S
H76 C53 0.930 . S
H77 C54 0.930 . S
H78 C56 0.929 . S
H79 C57 0.929 . S
La80 C82 2.928 . S
La80 O100 2.521 . S
La80 O101 2.628 . S
La80 O102 2.554 . S
La80 O103 2.757 1_564 S
La80 O104 2.470 1_565 S
La80 O109 2.482 . S
La80 O111 2.503 1_554 S
La81 C91 2.928 . S
La81 O103 2.482 . S
La81 O105 2.503 1_556 S
La81 O106 2.521 . S
La81 O107 2.628 . S
La81 O108 2.554 . S
La81 O109 2.757 1_546 S
La81 O110 2.470 1_545 S
C82 La80 2.928 . S
C82 C83 1.503 . S
C82 O100 1.261 . S
C82 O101 1.243 . S
C83 C82 1.503 . S
C83 C84 1.394 . S
C83 C88 1.373 . S
C84 C83 1.394 . S
C84 C85 1.380 . S
C84 H112 0.930 . S
C85 C84 1.380 . S
C85 C86 1.376 . S
C85 H113 0.930 . S
C86 C85 1.376 . S
C86 C87 1.370 . S
C87 C86 1.370 . S
C87 C88 1.396 . S
C87 H114 0.929 . S
C88 C83 1.373 . S
C88 C87 1.396 . S
C88 H115 0.929 . S
C89 O102 1.240 . S
C89 O103 1.289 1_564 S
C90 O104 1.258 . S
C90 O105 1.256 . S
C91 La81 2.928 . S
C91 C92 1.503 . S
C91 O106 1.261 . S
C91 O107 1.243 . S
C92 C91 1.503 . S
C92 C93 1.394 . S
C92 C97 1.373 . S
C93 C92 1.394 . S
C93 C94 1.380 . S
C93 H116 0.930 . S
C94 C93 1.380 . S
C94 C95 1.376 . S
C94 H117 0.930 . S
C95 C94 1.376 . S
C95 C96 1.370 . S
C96 C95 1.370 . S
C96 C97 1.396 . S
C96 H118 0.929 . S
C97 C92 1.373 . S
C97 C96 1.396 . S
C97 H119 0.929 . S
C98 O108 1.218 1_554 S
C98 O109 1.303 1_545 S
C99 O110 1.258 . S
C99 O111 1.256 . S
O100 La80 2.521 . S
O100 C82 1.261 . S
O101 La80 2.628 . S
O101 C82 1.243 . S
O102 La80 2.554 . S
O102 C89 1.240 . S
O103 La80 2.757 1_546 S
O103 La81 2.482 . S
O103 C89 1.289 1_546 S
O104 La80 2.470 1_545 S
O104 C90 1.258 . S
O105 La81 2.503 1_554 S
O105 C90 1.256 . S
O106 La81 2.521 . S
O106 C91 1.261 . S
O107 La81 2.628 . S
O107 C91 1.243 . S
O108 La81 2.554 . S
O108 C98 1.218 1_556 S
O109 La80 2.482 . S
O109 La81 2.757 1_564 S
O109 C98 1.303 1_565 S
O110 La81 2.470 1_565 S
O110 C99 1.258 . S
O111 La80 2.503 1_556 S
O111 C99 1.256 . S
H112 C84 0.930 . S
H113 C85 0.930 . S
H114 C87 0.929 . S
H115 C88 0.929 . S
H116 C93 0.930 . S
H117 C94 0.930 . S
H118 C96 0.929 . S
H119 C97 0.929 . S
La120 C122 2.928 . S
La120 O140 2.521 . S
La120 O141 2.628 . S
La120 O142 2.554 . S
La120 O143 2.757 . S
La120 O144 2.470 . S
La120 O149 2.482 . S
La120 O151 2.503 . S
La121 C131 2.928 1_455 S
La121 O143 2.482 . S
La121 O145 2.503 . S
La121 O146 2.521 1_455 S
La121 O147 2.628 . S
La121 O148 2.554 . S
La121 O149 2.757 . S
La121 O150 2.470 . S
C122 La120 2.928 . S
C122 C123 1.503 . S
C122 O140 1.261 . S
C122 O141 1.243 . S
C123 C122 1.503 . S
C123 C124 1.394 . S
C123 C128 1.373 . S
C124 C123 1.394 . S
C124 C125 1.380 . S
C124 H152 0.930 . S
C125 C124 1.380 . S
C125 C126 1.376 . S
C125 H153 0.930 . S
C126 C125 1.376 . S
C126 C127 1.370 . S
C127 C126 1.370 . S
C127 C128 1.396 . S
C127 H154 0.929 . S
C128 C123 1.373 . S
C128 C127 1.396 . S
C128 H155 0.929 . S
C129 O142 1.240 . S
C129 O143 1.289 . S
C130 O144 1.258 . S
C130 O145 1.256 . S
C131 La121 2.928 1_655 S
C131 C132 1.503 . S
C131 O146 1.261 . S
C131 O147 1.243 1_655 S
C132 C131 1.503 . S
C132 C133 1.394 . S
C132 C137 1.373 . S
C133 C132 1.394 . S
C133 C134 1.380 . S
C133 H156 0.930 . S
C134 C133 1.380 . S
C134 C135 1.376 . S
C134 H157 0.930 . S
C135 C134 1.376 . S
C135 C136 1.370 . S
C136 C135 1.370 . S
C136 C137 1.396 . S
C136 H158 0.929 . S
C137 C132 1.373 . S
C137 C136 1.396 . S
C137 H159 0.929 . S
C138 O148 1.240 . S
C138 O149 1.289 . S
C139 O150 1.258 . S
C139 O151 1.256 . S
O140 La120 2.521 . S
O140 C122 1.261 . S
O141 La120 2.628 . S
O141 C122 1.243 . S
O142 La120 2.554 . S
O142 C129 1.240 . S
O143 La120 2.757 . S
O143 La121 2.482 . S
O143 C129 1.289 . S
O144 La120 2.470 . S
O144 C130 1.258 . S
O145 La121 2.503 . S
O145 C130 1.256 . S
O146 La121 2.521 1_655 S
O146 C131 1.261 . S
O147 La121 2.628 . S
O147 C131 1.243 1_455 S
O148 La121 2.554 . S
O148 C138 1.240 . S
O149 La120 2.482 . S
O149 La121 2.757 . S
O149 C138 1.289 . S
O150 La121 2.470 . S
O150 C139 1.258 . S
O151 La120 2.503 . S
O151 C139 1.256 . S
H152 C124 0.930 . S
H153 C125 0.930 . S
H154 C127 0.929 . S
H155 C128 0.929 . S
H156 C133 0.930 . S
H157 C134 0.930 . S
H158 C136 0.929 . S
H159 C137 0.929 . S
C160 C161 1.349 . S
C160 C162 1.327 . S
C160 H185 0.950 . S
C161 C160 1.349 . S
C161 C177 1.349 1_564 S
C162 C160 1.327 . S
C162 C181 1.429 1_565 S
C162 H186 0.950 . S
C163 C180 1.574 . S
C163 C182 1.368 1_456 S
C163 H187 0.949 1_455 S
H164 C168 0.949 . S
C165 C166 1.349 1_556 S
C165 C167 1.327 . S
C165 H188 0.950 . S
C166 C165 1.349 1_554 S
C166 C178 1.349 . S
C167 C165 1.327 . S
C167 C183 1.429 1_556 S
C167 H189 0.950 . S
C168 H164 0.949 . S
C168 C176 1.574 . S
C168 C184 1.368 . S
H169 C177 0.950 . S
H170 C175 0.950 . S
H171 C176 0.949 1_565 S
H172 C178 0.950 . S
H173 C179 0.950 . S
H174 C180 0.949 . S
C175 H170 0.950 . S
C175 C177 1.327 . S
C175 C181 1.429 1_556 S
C176 C168 1.574 . S
C176 H171 0.949 1_545 S
C176 C182 1.368 1_455 S
C177 C161 1.349 1_546 S
C177 H169 0.950 . S
C177 C175 1.327 . S
C178 C166 1.349 . S
C178 H172 0.950 . S
C178 C179 1.327 . S
C179 H173 0.950 . S
C179 C178 1.327 . S
C179 C183 1.429 . S
C180 C163 1.574 . S
C180 H174 0.949 . S
C180 C184 1.368 1_556 S
C181 C162 1.429 1_545 S
C181 C175 1.429 1_554 S
C181 C182 1.523 . S
C182 C163 1.368 1_654 S
C182 C176 1.368 1_655 S
C182 C181 1.523 . S
C183 C167 1.429 1_554 S
C183 C179 1.429 . S
C183 C184 1.523 . S
C184 C168 1.368 . S
C184 C180 1.368 1_554 S
C184 C183 1.523 . S
H185 C160 0.950 . S
H186 C162 0.950 . S
H187 C163 0.949 1_655 S
H188 C165 0.950 . S
H189 C167 0.950 . S
C190 C191 1.349 . S
C190 C192 1.327 . S
C190 H215 0.950 . S
C191 C190 1.349 . S
C191 C207 1.349 . S
C192 C190 1.327 . S
C192 C211 1.429 . S
C192 H216 0.950 . S
C193 C210 1.574 . S
C193 C212 1.368 1_545 S
C193 H217 0.949 . S
H194 C198 0.949 1_655 S
C195 C196 1.349 1_455 S
C195 C197 1.327 . S
C195 H218 0.950 . S
C196 C195 1.349 1_655 S
C196 C208 1.349 . S
C197 C195 1.327 . S
C197 C213 1.429 . S
C197 H219 0.950 . S
C198 H194 0.949 1_455 S
C198 C206 1.574 . S
C198 C214 1.368 . S
H199 C207 0.950 . S
H200 C205 0.950 . S
H201 C206 0.949 1_565 S
H202 C208 0.950 . S
H203 C209 0.950 . S
H204 C210 0.949 . S
C205 H200 0.950 . S
C205 C207 1.327 . S
C205 C211 1.429 . S
C206 C198 1.574 . S
C206 H201 0.949 1_545 S
C206 C212 1.368 1_545 S
C207 C191 1.349 . S
C207 H199 0.950 . S
C207 C205 1.327 . S
C208 C196 1.349 . S
C208 H202 0.950 . S
C208 C209 1.327 . S
C209 H203 0.950 . S
C209 C208 1.327 . S
C209 C213 1.429 1_655 S
C210 C193 1.574 . S
C210 H204 0.949 . S
C210 C214 1.368 . S
C211 C192 1.429 . S
C211 C205 1.429 . S
C211 C212 1.523 . S
C212 C193 1.368 1_565 S
C212 C206 1.368 1_565 S
C212 C211 1.523 . S
C213 C197 1.429 . S
C213 C209 1.429 1_455 S
C213 C214 1.523 . S
C214 C198 1.368 . S
C214 C210 1.368 . S
C214 C213 1.523 . S
H215 C190 0.950 . S
H216 C192 0.950 . S
H217 C193 0.949 . S
H218 C195 0.950 . S
H219 C197 0.950 . S
C220 C221 1.349 . S
C220 C222 1.327 . S
C220 H245 0.950 . S
C221 C220 1.349 . S
C221 C237 1.349 1_566 S
C222 C220 1.327 . S
C222 C241 1.429 1_565 S
C222 H246 0.950 . S
C223 C240 1.574 . S
C223 C242 1.368 1_554 S
C223 H247 0.949 . S
H224 C228 0.949 . S
C225 C226 1.349 1_554 S
C225 C227 1.327 . S
C225 H248 0.950 . S
C226 C225 1.349 1_556 S
C226 C238 1.349 . S
C227 C225 1.327 . S
C227 C243 1.429 1_554 S
C227 H249 0.950 . S
C228 H224 0.949 . S
C228 C236 1.574 . S
C228 C244 1.368 . S
H229 C237 0.950 . S
H230 C235 0.950 . S
H231 C236 0.949 1_565 S
H232 C238 0.950 . S
H233 C239 0.950 . S
H234 C240 0.949 . S
C235 H230 0.950 . S
C235 C237 1.327 . S
C235 C241 1.429 1_554 S
C236 C228 1.574 . S
C236 H231 0.949 1_545 S
C236 C242 1.368 . S
C237 C221 1.349 1_544 S
C237 H229 0.950 . S
C237 C235 1.327 . S
C238 C226 1.349 . S
C238 H232 0.950 . S
C238 C239 1.327 . S
C239 H233 0.950 . S
C239 C238 1.327 . S
C239 C243 1.429 . S
C240 C223 1.574 . S
C240 H234 0.949 . S
C240 C244 1.368 1_554 S
C241 C222 1.429 1_545 S
C241 C235 1.429 1_556 S
C241 C242 1.523 . S
C242 C223 1.368 1_556 S
C242 C236 1.368 . S
C242 C241 1.523 . S
C243 C227 1.429 1_556 S
C243 C239 1.429 . S
C243 C244 1.523 . S
C244 C228 1.368 . S
C244 C240 1.368 1_556 S
C244 C243 1.523 . S
H245 C220 0.950 . S
H246 C222 0.950 . S
H247 C223 0.949 . S
H248 C225 0.950 . S
H249 C227 0.950 . S
C250 C251 1.349 1_455 S
C250 C252 1.327 . S
C250 H275 0.950 . S
C251 C250 1.349 1_655 S
C251 C267 1.349 . S
C252 C250 1.327 . S
C252 C271 1.429 . S
C252 H276 0.950 . S
C253 C270 1.574 . S
C253 C272 1.368 . S
C253 H277 0.949 1_455 S
H254 C258 0.949 . S
C255 C256 1.349 . S
C255 C257 1.327 . S
C255 H278 0.950 . S
C256 C255 1.349 . S
C256 C268 1.349 . S
C257 C255 1.327 . S
C257 C273 1.429 . S
C257 H279 0.950 . S
C258 H254 0.949 . S
C258 C266 1.574 . S
C258 C274 1.368 . S
H259 C267 0.950 . S
H260 C265 0.950 . S
H261 C266 0.949 . S
H262 C268 0.950 . S
H263 C269 0.950 . S
H264 C270 0.949 . S
C265 H260 0.950 . S
C265 C267 1.327 . S
C265 C271 1.429 1_655 S
C266 C258 1.574 . S
C266 H261 0.949 . S
C266 C272 1.368 . S
C267 C251 1.349 . S
C267 H259 0.950 . S
C267 C265 1.327 . S
C268 C256 1.349 . S
C268 H262 0.950 . S
C268 C269 1.327 . S
C269 H263 0.950 . S
C269 C268 1.327 . S
C269 C273 1.429 . S
C270 C253 1.574 . S
C270 H264 0.949 . S
C270 C274 1.368 . S
C271 C252 1.429 . S
C271 C265 1.429 1_455 S
C271 C272 1.523 . S
C272 C253 1.368 . S
C272 C266 1.368 . S
C272 C271 1.523 . S
C273 C257 1.429 . S
C273 C269 1.429 . S
C273 C274 1.523 . S
C274 C258 1.368 . S
C274 C270 1.368 . S
C274 C273 1.523 . S
H275 C250 0.950 . S
H276 C252 0.950 . S
H277 C253 0.949 1_655 S
H278 C255 0.950 . S
H279 C257 0.950 . S
C280 C281 1.349 . S
C280 C282 1.327 . S
C280 H305 0.950 . S
C281 C280 1.349 . S
C281 C297 1.349 . S
C282 C280 1.327 . S
C282 C301 1.429 . S
C282 H306 0.950 . S
C283 C300 1.574 . S
C283 C302 1.368 . S
C283 H307 0.949 . S
H284 C288 0.949 . S
C285 C286 1.349 . S
C285 C287 1.327 . S
C285 H308 0.950 . S
C286 C285 1.349 . S
C286 C298 1.349 . S
C287 C285 1.327 . S
C287 C303 1.429 . S
C287 H309 0.950 . S
C288 H284 0.949 . S
C288 C296 1.574 . S
C288 C304 1.368 . S
H289 C297 0.950 . S
H290 C295 0.950 . S
H291 C296 0.949 . S
H292 C298 0.950 . S
H293 C299 0.950 . S
H294 C300 0.949 . S
C295 H290 0.950 . S
C295 C297 1.327 . S
C295 C301 1.429 . S
C296 C288 1.574 . S
C296 H291 0.949 . S
C296 C302 1.368 . S
C297 C281 1.349 . S
C297 H289 0.950 . S
C297 C295 1.327 . S
C298 C286 1.349 . S
C298 H292 0.950 . S
C298 C299 1.327 . S
C299 H293 0.950 . S
C299 C298 1.327 . S
C299 C303 1.429 . S
C300 C283 1.574 . S
C300 H294 0.949 . S
C300 C304 1.368 . S
C301 C282 1.429 . S
C301 C295 1.429 . S
C301 C302 1.523 . S
C302 C283 1.368 . S
C302 C296 1.368 . S
C302 C301 1.523 . S
C303 C287 1.429 . S
C303 C299 1.429 . S
C303 C304 1.523 . S
C304 C288 1.368 . S
C304 C300 1.368 . S
C304 C303 1.523 . S
H305 C280 0.950 . S
H306 C282 0.950 . S
H307 C283 0.949 . S
H308 C285 0.950 . S
H309 C287 0.950 . S
C310 C311 1.349 . S
C310 C312 1.327 . S
C310 H335 0.950 . S
C311 C310 1.349 . S
C311 C327 1.349 . S
C312 C310 1.327 . S
C312 C331 1.429 . S
C312 H336 0.950 . S
C313 C330 1.574 . S
C313 C332 1.368 . S
C313 H337 0.949 . S
H314 C318 0.949 . S
C315 C316 1.349 . S
C315 C317 1.327 . S
C315 H338 0.950 . S
C316 C315 1.349 . S
C316 C328 1.349 . S
C317 C315 1.327 . S
C317 C333 1.429 . S
C317 H339 0.950 . S
C318 H314 0.949 . S
C318 C326 1.574 . S
C318 C334 1.368 . S
H319 C327 0.950 . S
H320 C325 0.950 . S
H321 C326 0.949 . S
H322 C328 0.950 . S
H323 C329 0.950 . S
H324 C330 0.949 . S
C325 H320 0.950 . S
C325 C327 1.327 . S
C325 C331 1.429 . S
C326 C318 1.574 . S
C326 H321 0.949 . S
C326 C332 1.368 . S
C327 C311 1.349 . S
C327 H319 0.950 . S
C327 C325 1.327 . S
C328 C316 1.349 . S
C328 H322 0.950 . S
C328 C329 1.327 . S
C329 H323 0.950 . S
C329 C328 1.327 . S
C329 C333 1.429 . S
C330 C313 1.574 . S
C330 H324 0.949 . S
C330 C334 1.368 . S
C331 C312 1.429 . S
C331 C325 1.429 . S
C331 C332 1.523 . S
C332 C313 1.368 . S
C332 C326 1.368 . S
C332 C331 1.523 . S
C333 C317 1.429 . S
C333 C329 1.429 . S
C333 C334 1.523 . S
C334 C318 1.368 . S
C334 C330 1.368 . S
C334 C333 1.523 . S
H335 C310 0.950 . S
H336 C312 0.950 . S
H337 C313 0.949 . S
H338 C315 0.950 . S
H339 C317 0.950 . S
C340 C341 1.349 . S
C340 C342 1.327 . S
C340 H365 0.950 . S
C341 C340 1.349 . S
C341 C357 1.349 . S
C342 C340 1.327 . S
C342 C361 1.429 . S
C342 H366 0.950 . S
C343 C360 1.574 . S
C343 C362 1.368 . S
C343 H367 0.949 . S
H344 C348 0.949 . S
C345 C346 1.349 . S
C345 C347 1.327 . S
C345 H368 0.950 . S
C346 C345 1.349 . S
C346 C358 1.349 . S
C347 C345 1.327 . S
C347 C363 1.429 . S
C347 H369 0.950 . S
C348 H344 0.949 . S
C348 C356 1.574 . S
C348 C364 1.368 . S
H349 C357 0.950 . S
H350 C355 0.950 . S
H351 C356 0.949 . S
H352 C358 0.950 . S
H353 C359 0.950 . S
H354 C360 0.949 . S
C355 H350 0.950 . S
C355 C357 1.327 . S
C355 C361 1.429 . S
C356 C348 1.574 . S
C356 H351 0.949 . S
C356 C362 1.368 . S
C357 C341 1.349 . S
C357 H349 0.950 . S
C357 C355 1.327 . S
C358 C346 1.349 . S
C358 H352 0.950 . S
C358 C359 1.327 . S
C359 H353 0.950 . S
C359 C358 1.327 . S
C359 C363 1.429 . S
C360 C343 1.574 . S
C360 H354 0.949 . S
C360 C364 1.368 . S
C361 C342 1.429 . S
C361 C355 1.429 . S
C361 C362 1.523 . S
C362 C343 1.368 . S
C362 C356 1.368 . S
C362 C361 1.523 . S
C363 C347 1.429 . S
C363 C359 1.429 . S
C363 C364 1.523 . S
C364 C348 1.368 . S
C364 C360 1.368 . S
C364 C363 1.523 . S
H365 C340 0.950 . S
H366 C342 0.950 . S
H367 C343 0.949 . S
H368 C345 0.950 . S
H369 C347 0.950 . S
C370 C371 1.349 . S
C370 C372 1.327 . S
C370 H395 0.950 . S
C371 C370 1.349 . S
C371 C387 1.349 . S
C372 C370 1.327 . S
C372 C391 1.429 . S
C372 H396 0.950 . S
C373 C390 1.574 . S
C373 C392 1.368 . S
C373 H397 0.949 . S
H374 C378 0.949 . S
C375 C376 1.349 . S
C375 C377 1.327 . S
C375 H398 0.950 . S
C376 C375 1.349 . S
C376 C388 1.349 . S
C377 C375 1.327 . S
C377 C393 1.429 . S
C377 H399 0.950 . S
C378 H374 0.949 . S
C378 C386 1.574 . S
C378 C394 1.368 . S
H379 C387 0.950 . S
H380 C385 0.950 . S
H381 C386 0.949 . S
H382 C388 0.950 1_545 S
H383 C389 0.950 . S
H384 C390 0.949 . S
C385 H380 0.950 . S
C385 C387 1.327 . S
C385 C391 1.429 . S
C386 C378 1.574 . S
C386 H381 0.949 . S
C386 C392 1.368 . S
C387 C371 1.349 . S
C387 H379 0.950 . S
C387 C385 1.327 . S
C388 C376 1.349 . S
C388 H382 0.950 1_565 S
C388 C389 1.327 . S
C389 H383 0.950 . S
C389 C388 1.327 . S
C389 C393 1.429 . S
C390 C373 1.574 . S
C390 H384 0.949 . S
C390 C394 1.368 . S
C391 C372 1.429 . S
C391 C385 1.429 . S
C391 C392 1.523 . S
C392 C373 1.368 . S
C392 C386 1.368 . S
C392 C391 1.523 . S
C393 C377 1.429 . S
C393 C389 1.429 . S
C393 C394 1.523 . S
C394 C378 1.368 . S
C394 C390 1.368 . S
C394 C393 1.523 . S
H395 C370 0.950 . S
H396 C372 0.950 . S
H397 C373 0.949 . S
H398 C375 0.950 . S
H399 C377 0.950 . S
C400 C401 1.349 . S
C400 C402 1.327 . S
C400 H425 0.950 . S
C401 C400 1.349 . S
C401 C417 1.349 . S
C402 C400 1.327 . S
C402 C421 1.429 . S
C402 H426 0.950 . S
C403 C420 1.574 . S
C403 C422 1.368 . S
C403 H427 0.949 . S
H404 C408 0.949 . S
C405 C406 1.349 . S
C405 C407 1.327 . S
C405 H428 0.950 . S
C406 C405 1.349 . S
C406 C418 1.349 . S
C407 C405 1.327 . S
C407 C423 1.429 . S
C407 H429 0.950 . S
C408 H404 0.949 . S
C408 C416 1.574 . S
C408 C424 1.368 . S
H409 C417 0.950 . S
H410 C415 0.950 . S
H411 C416 0.949 . S
H412 C418 0.950 . S
H413 C419 0.950 . S
H414 C420 0.949 . S
C415 H410 0.950 . S
C415 C417 1.327 . S
C415 C421 1.429 . S
C416 C408 1.574 . S
C416 H411 0.949 . S
C416 C422 1.368 . S
C417 C401 1.349 . S
C417 H409 0.950 . S
C417 C415 1.327 . S
C418 C406 1.349 . S
C418 H412 0.950 . S
C418 C419 1.327 . S
C419 H413 0.950 . S
C419 C418 1.327 . S
C419 C423 1.429 . S
C420 C403 1.574 . S
C420 H414 0.949 . S
C420 C424 1.368 . S
C421 C402 1.429 . S
C421 C415 1.429 . S
C421 C422 1.523 . S
C422 C403 1.368 . S
C422 C416 1.368 . S
C422 C421 1.523 . S
C423 C407 1.429 . S
C423 C419 1.429 . S
C423 C424 1.523 . S
C424 C408 1.368 . S
C424 C420 1.368 . S
C424 C423 1.523 . S
H425 C400 0.950 . S
H426 C402 0.950 . S
H427 C403 0.949 . S
H428 C405 0.950 . S
H429 C407 0.950 . S
C430 C431 1.349 . S
C430 C432 1.327 . S
C430 H455 0.950 . S
C431 C430 1.349 . S
C431 C447 1.365 . S
C432 C430 1.327 . S
C432 C451 1.429 . S
C432 H456 0.950 . S
C433 C450 1.574 . S
C433 C452 1.368 . S
C433 H457 0.949 . S
H434 C438 0.949 . S
C435 C436 1.349 . S
C435 C437 1.327 . S
C435 H458 0.950 . S
C436 C435 1.349 . S
C436 C448 1.349 . S
C437 C435 1.327 . S
C437 C453 1.429 . S
C437 H459 0.950 . S
C438 H434 0.949 . S
C438 C446 1.574 . S
C438 C454 1.368 . S
H439 C447 0.924 1_545 S
H440 C445 0.950 1_545 S
H441 C446 0.949 . S
H442 C448 0.950 . S
H443 C449 0.950 . S
H444 C450 0.949 . S
C445 H440 0.950 1_565 S
C445 C447 1.337 . S
C445 C451 1.429 . S
C446 C438 1.574 . S
C446 H441 0.949 . S
C446 C452 1.368 . S
C447 C431 1.365 . S
C447 H439 0.924 1_565 S
C447 C445 1.337 . S
C448 C436 1.349 . S
C448 H442 0.950 . S
C448 C449 1.327 . S
C449 H443 0.950 . S
C449 C448 1.327 . S
C449 C453 1.429 . S
C450 C433 1.574 . S
C450 H444 0.949 . S
C450 C454 1.368 . S
C451 C432 1.429 . S
C451 C445 1.429 . S
C451 C452 1.523 . S
C452 C433 1.368 . S
C452 C446 1.368 . S
C452 C451 1.523 . S
C453 C437 1.429 . S
C453 C449 1.429 . S
C453 C454 1.523 . S
C454 C438 1.368 . S
C454 C450 1.368 . S
C454 C453 1.523 . S
H455 C430 0.950 . S
H456 C432 0.950 . S
H457 C433 0.949 . S
H458 C435 0.950 . S
H459 C437 0.950 . S
C460 C461 1.349 . S
C460 C462 1.327 . S
C460 H485 0.950 . S
C461 C460 1.349 . S
C461 C477 1.349 . S
C462 C460 1.327 . S
C462 C481 1.429 . S
C462 H486 0.950 . S
C463 C480 1.574 . S
C463 C482 1.368 . S
C463 H487 0.949 . S
H464 C468 0.949 . S
C465 C466 1.349 . S
C465 C467 1.327 . S
C465 H488 0.950 . S
C466 C465 1.349 . S
C466 C478 1.349 . S
C467 C465 1.327 . S
C467 C483 1.429 . S
C467 H489 0.950 . S
C468 H464 0.949 . S
C468 C476 1.574 . S
C468 C484 1.368 . S
H469 C477 0.950 . S
H470 C475 0.950 . S
H471 C476 0.949 . S
H472 C478 0.950 . S
H473 C479 0.950 . S
H474 C480 0.949 . S
C475 H470 0.950 . S
C475 C477 1.327 . S
C475 C481 1.429 . S
C476 C468 1.574 . S
C476 H471 0.949 . S
C476 C482 1.368 . S
C477 C461 1.349 . S
C477 H469 0.950 . S
C477 C475 1.327 . S
C478 C466 1.349 . S
C478 H472 0.950 . S
C478 C479 1.327 . S
C479 H473 0.950 . S
C479 C478 1.327 . S
C479 C483 1.429 . S
C480 C463 1.574 . S
C480 H474 0.949 . S
C480 C484 1.368 . S
C481 C462 1.429 . S
C481 C475 1.429 . S
C481 C482 1.523 . S
C482 C463 1.368 . S
C482 C476 1.368 . S
C482 C481 1.523 . S
C483 C467 1.429 . S
C483 C479 1.429 . S
C483 C484 1.523 . S
C484 C468 1.368 . S
C484 C480 1.368 . S
C484 C483 1.523 . S
H485 C460 0.950 . S
H486 C462 0.950 . S
H487 C463 0.949 . S
H488 C465 0.950 . S
H489 C467 0.950 . S
C490 C491 1.349 . S
C490 C492 1.327 . S
C490 H515 0.950 . S
C491 C490 1.349 . S
C491 C507 1.349 . S
C492 C490 1.327 . S
C492 C511 1.429 . S
C492 H516 0.950 . S
C493 C510 1.574 . S
C493 C512 1.368 . S
C493 H517 0.949 . S
H494 C498 0.949 . S
C495 C496 1.349 . S
C495 C497 1.327 . S
C495 H518 0.950 . S
C496 C495 1.349 . S
C496 C508 1.349 . S
C497 C495 1.327 . S
C497 C513 1.429 . S
C497 H519 0.950 . S
C498 H494 0.949 . S
C498 C506 1.574 . S
C498 C514 1.368 . S
H499 C507 0.950 . S
H500 C505 0.950 . S
H501 C506 0.949 . S
H502 C508 0.950 . S
H503 C509 0.950 . S
H504 C510 0.949 . S
C505 H500 0.950 . S
C505 C507 1.327 . S
C505 C511 1.429 . S
C506 C498 1.574 . S
C506 H501 0.949 . S
C506 C512 1.368 . S
C507 C491 1.349 . S
C507 H499 0.950 . S
C507 C505 1.327 . S
C508 C496 1.349 . S
C508 H502 0.950 . S
C508 C509 1.327 . S
C509 H503 0.950 . S
C509 C508 1.327 . S
C509 C513 1.429 . S
C510 C493 1.574 . S
C510 H504 0.949 . S
C510 C514 1.368 . S
C511 C492 1.429 . S
C511 C505 1.429 . S
C511 C512 1.523 . S
C512 C493 1.368 . S
C512 C506 1.368 . S
C512 C511 1.523 . S
C513 C497 1.429 . S
C513 C509 1.429 . S
C513 C514 1.523 . S
C514 C498 1.368 . S
C514 C510 1.368 . S
C514 C513 1.523 . S
H515 C490 0.950 . S
H516 C492 0.950 . S
H517 C493 0.949 . S
H518 C495 0.950 . S
H519 C497 0.950 . S
C161 C98 0.971 1_565 S
C166 C18 0.973 . S
C191 C138 0.962 . S
C196 C58 0.964 1_655 S
C221 C89 0.766 1_556 S
C226 C9 0.765 1_556 S
C251 C49 0.766 . S
C256 C129 0.765 . S
C281 C55 1.104 . S
C286 C6 1.100 . S
C311 C46 1.097 . S
C316 C95 1.103 . S
C341 C135 1.104 . S
C346 C86 1.097 . S
C371 C126 1.097 . S
C376 C15 1.103 . S
C401 C99 4.509 . S
C406 C130 4.636 1_655 S
C431 C10 4.636 1_565 S
C436 C139 4.509 . S
C461 C50 4.636 . S
C466 C19 4.508 . S
C491 C90 4.636 . S
C496 C59 4.509 . S
