# Generated by pormake.
# Topology yfh, (5)-cn, num edge types: 1
# Building blocks:
#     Node 0, Type 0, BuildingBlock: BEQFEK_clean_sbu_0, # of connection points: 5
#     Node 1, Type 0, BuildingBlock: BEQFEK_clean_sbu_0, # of connection points: 5
#     Node 2, Type 0, BuildingBlock: BEQFEK_clean_sbu_0, # of connection points: 5
#     Node 3, Type 0, BuildingBlock: BEQFEK_clean_sbu_0, # of connection points: 5
#     Node 4, Type 0, BuildingBlock: BEQFEK_clean_sbu_0, # of connection points: 5
#     Node 5, Type 0, BuildingBlock: BEQFEK_clean_sbu_0, # of connection points: 5
#     Node 6, Type 0, BuildingBlock: BEQFEK_clean_sbu_0, # of connection points: 5
#     Node 7, Type 0, BuildingBlock: BEQFEK_clean_sbu_0, # of connection points: 5
#     Edge 8, Type (0, 0), BuildingBlock: ZUJKAS_clean_linker_0, # of connection points: 2
#     Edge 9, Type (0, 0), BuildingBlock: ZUJKAS_clean_linker_0, # of connection points: 2
#     Edge 10, Type (0, 0), BuildingBlock: ZUJKAS_clean_linker_0, # of connection points: 2
#     Edge 11, Type (0, 0), BuildingBlock: ZUJKAS_clean_linker_0, # of connection points: 2
#     Edge 12, Type (0, 0), BuildingBlock: ZUJKAS_clean_linker_0, # of connection points: 2
#     Edge 13, Type (0, 0), BuildingBlock: ZUJKAS_clean_linker_0, # of connection points: 2
#     Edge 14, Type (0, 0), BuildingBlock: ZUJKAS_clean_linker_0, # of connection points: 2
#     Edge 15, Type (0, 0), BuildingBlock: ZUJKAS_clean_linker_0, # of connection points: 2
#     Edge 16, Type (0, 0), BuildingBlock: ZUJKAS_clean_linker_0, # of connection points: 2
#     Edge 17, Type (0, 0), BuildingBlock: ZUJKAS_clean_linker_0, # of connection points: 2
#     Edge 18, Type (0, 0), BuildingBlock: ZUJKAS_clean_linker_0, # of connection points: 2
#     Edge 19, Type (0, 0), BuildingBlock: ZUJKAS_clean_linker_0, # of connection points: 2
#     Edge 20, Type (0, 0), BuildingBlock: ZUJKAS_clean_linker_0, # of connection points: 2
#     Edge 21, Type (0, 0), BuildingBlock: ZUJKAS_clean_linker_0, # of connection points: 2
#     Edge 22, Type (0, 0), BuildingBlock: ZUJKAS_clean_linker_0, # of connection points: 2
#     Edge 23, Type (0, 0), BuildingBlock: ZUJKAS_clean_linker_0, # of connection points: 2
#     Edge 24, Type (0, 0), BuildingBlock: ZUJKAS_clean_linker_0, # of connection points: 2
#     Edge 25, Type (0, 0), BuildingBlock: ZUJKAS_clean_linker_0, # of connection points: 2
#     Edge 26, Type (0, 0), BuildingBlock: ZUJKAS_clean_linker_0, # of connection points: 2
#     Edge 27, Type (0, 0), BuildingBlock: ZUJKAS_clean_linker_0, # of connection points: 2
# Relax obj value: 0.461
# Max RMSD: 0.265
# Mean RMSD: 0.265
data_MOF--net-yfh--node1-BEQFEK_clean_sbu_0--edge1-ZUJKAS_clean_linker_0
_symmetry_space_group_name_H-M    P1
_symmetry_Int_Tables_number       1
_symmetry_cell_setting            triclinic
loop_
_symmetry_equiv_pos_as_xyz
'x, y, z'
_cell_length_a     37.420231
_cell_length_b     37.385022
_cell_length_c     71.358998
_cell_angle_alpha  89.971205
_cell_angle_beta   89.906805
_cell_angle_gamma 90.053246
loop_
_atom_site_label
_atom_site_type_symbol
_atom_site_fract_x
_atom_site_fract_y
_atom_site_fract_z
_atom_type_partial_charge
Co0 Co 0.29279 0.07498 0.09763 0.0
Co1 Co 0.35393 0.10643 0.12245 0.0
C2 C 0.28802 0.14827 0.11385 0.0
O3 O 0.27591 0.12285 0.10398 0.0
O4 O 0.31804 0.14566 0.12207 0.0
C5 C 0.22092 0.05986 0.08992 0.0
O6 O 0.217 0.07507 0.1064 0.0
C7 C 0.38282 0.12522 0.15863 0.0
C8 C 0.44109 0.12434 0.1538 0.0
C9 C 0.41546 0.12795 0.16777 0.0
N10 N 0.38898 0.11979 0.14034 0.0
N11 N 0.42383 0.12033 0.13739 0.0
C12 C 0.3464 0.12271 0.1673 0.0
H13 H 0.33832 0.14951 0.17245 0.0
H14 H 0.32642 0.11348 0.1569 0.0
H15 H 0.34665 0.10414 0.17944 0.0
C16 C 0.29857 0.01567 0.12406 0.0
N17 N 0.30641 0.0494 0.11907 0.0
N18 N 0.33363 0.06105 0.12901 0.0
C19 C 0.34465 0.03437 0.1404 0.0
C20 C 0.3224 0.00502 0.13782 0.0
C21 C 0.27324 0.99235 0.11334 0.0
H22 H 0.27996 0.9935 0.0982 0.0
H23 H 0.24569 0.00272 0.1151 0.0
H24 H 0.27405 0.9641 0.11804 0.0
O25 O 0.33392 0.07826 0.08028 0.0
O26 O 0.37714 0.10208 0.09762 0.0
H27 H 0.39999 0.04832 0.14354 0.0
H28 H 0.38702 0.00799 0.15585 0.0
C29 C 0.37838 0.03521 0.15167 0.0
H30 H 0.37377 0.05075 0.16465 0.0
H31 H 0.43582 0.1157 0.12441 0.0
O32 O 0.2523 0.05307 0.0841 0.0
C33 C 0.36582 0.08973 0.08208 0.0
Co34 Co 0.41206 0.81793 0.32022 0.0
Co35 Co 0.40742 0.86602 0.35592 0.0
C36 C 0.35098 0.8121 0.34716 0.0
O37 O 0.36688 0.80294 0.33217 0.0
O38 O 0.3638 0.83622 0.35776 0.0
C39 C 0.41471 0.75047 0.30269 0.0
O40 O 0.40335 0.74036 0.31931 0.0
C41 C 0.40446 0.88098 0.39585 0.0
C42 C 0.41707 0.93867 0.39701 0.0
C43 C 0.40876 0.90942 0.40819 0.0
N44 N 0.40992 0.893 0.37835 0.0
N45 N 0.41705 0.92756 0.37908 0.0
C46 C 0.398 0.8424 0.40039 0.0
H47 H 0.40579 0.82516 0.3884 0.0
H48 H 0.41332 0.83439 0.41302 0.0
H49 H 0.36912 0.83827 0.4032 0.0
C50 C 0.48217 0.80035 0.33682 0.0
N51 N 0.45038 0.81707 0.33746 0.0
N52 N 0.44903 0.83745 0.35249 0.0
C53 C 0.48021 0.83445 0.36186 0.0
C54 C 0.50198 0.81052 0.35229 0.0
C55 C 0.49466 0.77766 0.32081 0.0
H56 H 0.48675 0.79008 0.30734 0.0
H57 H 0.48195 0.75092 0.32183 0.0
H58 H 0.52411 0.77422 0.32092 0.0
O59 O 0.40735 0.86654 0.30954 0.0
O60 O 0.40354 0.90049 0.335 0.0
H61 H 0.4826 0.88305 0.37769 0.0
H62 H 0.5175 0.85131 0.38337 0.0
C63 C 0.489 0.85429 0.37947 0.0
H64 H 0.47244 0.84368 0.39109 0.0
H65 H 0.42239 0.94345 0.36736 0.0
O66 O 0.42081 0.78345 0.29971 0.0
C67 C 0.40423 0.89712 0.31725 0.0
Co68 Co 0.67052 0.92601 0.56856 0.0
Co69 Co 0.62638 0.9153 0.60535 0.0
C70 C 0.68677 0.86686 0.59521 0.0
O71 O 0.69307 0.88476 0.5805 0.0
O72 O 0.66123 0.87527 0.60611 0.0
C73 C 0.73567 0.93791 0.55073 0.0
O74 O 0.74621 0.93698 0.56828 0.0
C75 C 0.61922 0.915 0.64575 0.0
C76 C 0.56145 0.92396 0.65004 0.0
C77 C 0.59363 0.92074 0.65949 0.0
N78 N 0.60306 0.91574 0.62898 0.0
N79 N 0.56841 0.92037 0.63161 0.0
C80 C 0.6584 0.90823 0.64828 0.0
H81 H 0.6654 0.88232 0.6417 0.0
H82 H 0.67402 0.92931 0.64099 0.0
H83 H 0.66608 0.90693 0.66325 0.0
C84 C 0.67844 -0.00097 0.58403 0.0
N85 N 0.66683 0.965 0.5852 0.0
N86 N 0.64872 0.96069 0.60089 0.0
C87 C 0.64848 0.99206 0.61027 0.0
C88 C 0.66742 0.01718 0.59995 0.0
C89 C 0.70047 0.01341 0.56817 0.0
H90 H 0.69079 0.00234 0.55469 0.0
H91 H 0.72867 0.00526 0.57018 0.0
H92 H 0.69986 0.04295 0.56744 0.0
O93 O 0.62258 0.91241 0.5595 0.0
O94 O 0.59038 0.90604 0.58556 0.0
H95 H 0.60144 0.98659 0.62722 0.0
H96 H 0.62519 0.02807 0.63063 0.0
C97 C 0.62828 -0.00103 0.62802 0.0
H98 H 0.64296 0.98709 0.63996 0.0
H99 H 0.54978 0.92252 0.62082 0.0
O100 O 0.70244 0.93597 0.54716 0.0
C101 C 0.59311 0.90547 0.56775 0.0
Co102 Co 0.59241 0.19675 0.83633 0.0
Co103 Co 0.58968 0.13507 0.86607 0.0
C104 C 0.64422 0.19371 0.86788 0.0
O105 O 0.63159 0.20882 0.85339 0.0
O106 O 0.63099 0.16474 0.8742 0.0
C107 C 0.59885 0.26762 0.82127 0.0
O108 O 0.61359 0.27461 0.83755 0.0
C109 C 0.57578 0.10874 0.9035 0.0
C110 C 0.56668 0.05096 0.89908 0.0
C111 C 0.56654 0.07738 0.91271 0.0
N112 N 0.58106 0.10119 0.88534 0.0
N113 N 0.57618 0.06652 0.88278 0.0
C114 C 0.57566 0.14601 0.91118 0.0
H115 H 0.60096 0.15077 0.91887 0.0
H116 H 0.57375 0.16589 0.89967 0.0
H117 H 0.55306 0.1497 0.92108 0.0
C118 C 0.51732 0.20427 0.84754 0.0
N119 N 0.54978 0.18952 0.84968 0.0
N120 N 0.54772 0.1628 0.86166 0.0
C121 C 0.5134 0.15917 0.86719 0.0
C122 C 0.4931 0.18537 0.85843 0.0
C123 C 0.50997 0.23583 0.83521 0.0
H124 H 0.5304 0.25675 0.83774 0.0
H125 H 0.48318 0.24741 0.83792 0.0
H126 H 0.51186 0.22751 0.82032 0.0
O127 O 0.60366 0.15273 0.82197 0.0
O128 O 0.60173 0.10891 0.843 0.0
H129 H 0.47033 0.12492 0.87672 0.0
H130 H 0.50467 0.13402 0.8937 0.0
C131 C 0.49951 0.12863 0.87867 0.0
H132 H 0.51333 0.10357 0.87468 0.0
H133 H 0.57796 0.05378 0.86982 0.0
O134 O 0.58725 0.23627 0.81797 0.0
C135 C 0.60626 0.11972 0.82625 0.0
Co136 Co 0.80856 0.43461 0.65645 0.0
Co137 Co 0.86805 0.41878 0.62677 0.0
C138 C 0.81045 0.36572 0.63555 0.0
O139 O 0.79666 0.3863 0.6477 0.0
O140 O 0.83806 0.37501 0.62636 0.0
C141 C 0.73708 0.44122 0.66876 0.0
O142 O 0.73076 0.42955 0.65172 0.0
C143 C 0.89051 0.40565 0.58866 0.0
C144 C 0.94851 0.41646 0.58924 0.0
C145 C 0.92074 0.40687 0.57737 0.0
N146 N 0.90001 0.41406 0.60623 0.0
N147 N 0.93481 0.41993 0.60661 0.0
C148 C 0.85247 0.4005 0.58272 0.0
H149 H 0.83387 0.41087 0.59354 0.0
H150 H 0.84731 0.41432 0.56922 0.0
H151 H 0.84719 0.37152 0.58082 0.0
C152 C 0.79912 0.49876 0.63318 0.0
N153 N 0.81401 0.46666 0.63636 0.0
N154 N 0.83979 0.4611 0.62411 0.0
C155 C 0.84226 0.48994 0.61278 0.0
C156 C 0.81627 0.51446 0.61805 0.0
C157 C 0.77242 0.51595 0.64598 0.0
H158 H 0.78009 0.5112 0.66077 0.0
H159 H 0.74582 0.50367 0.6436 0.0
H160 H 0.77042 0.54519 0.64358 0.0
O161 O 0.85305 0.434 0.671 0.0
O162 O 0.89597 0.42126 0.65044 0.0
H163 H 0.89666 0.48736 0.60342 0.0
H164 H 0.87068 0.52239 0.5924 0.0
C165 C 0.87 0.49463 0.59783 0.0
H166 H 0.86384 0.47654 0.58598 0.0
H167 H 0.94897 0.42739 0.61859 0.0
O168 O 0.76912 0.4478 0.67353 0.0
C169 C 0.88578 0.42838 0.66708 0.0
Co170 Co 0.09597 0.32259 0.92794 0.0
Co171 Co 0.09116 0.36775 0.89095 0.0
C172 C 0.14636 0.31196 0.89526 0.0
O173 O 0.13529 0.3055 0.91177 0.0
O174 O 0.13157 0.33566 0.88512 0.0
C175 C 0.09338 0.2545 0.94355 0.0
O176 O 0.0945 0.24675 0.9256 0.0
C177 C 0.08388 0.38762 0.85129 0.0
C178 C 0.05477 0.43884 0.8534 0.0
C179 C 0.06792 0.41424 0.84062 0.0
N180 N 0.07953 0.39573 0.86949 0.0
N181 N 0.0627 0.42671 0.87066 0.0
C182 C 0.10469 0.35599 0.84453 0.0
H183 H 0.13129 0.35624 0.85128 0.0
H184 H 0.0908 0.33099 0.84873 0.0
H185 H 0.10892 0.35648 0.82916 0.0
C186 C 0.02007 0.30942 0.91866 0.0
N187 N 0.05229 0.32368 0.91477 0.0
N188 N 0.05064 0.34083 0.89867 0.0
C189 C 0.01756 0.33689 0.8915 0.0
C190 C -0.00276 0.31709 0.904 0.0
C191 C 0.01123 0.28885 0.93606 0.0
H192 H 0.02551 0.30039 0.94824 0.0
H193 H 0.01978 0.26068 0.93423 0.0
H194 H 0.98207 0.28895 0.93888 0.0
O195 O 0.10708 0.37081 0.93747 0.0
O196 O 0.10437 0.40207 0.91099 0.0
H197 H 0.00485 0.38218 0.87455 0.0
H198 H 0.97806 0.34325 0.86958 0.0
C199 C 0.00526 0.35262 0.87335 0.0
H200 H 0.02421 0.34524 0.86204 0.0
H201 H 0.05561 0.43897 0.88325 0.0
O202 O 0.09312 0.28718 0.94852 0.0
C203 C 0.10951 0.40035 0.92862 0.0
Co204 Co 0.22577 0.5749 0.14821 0.0
Co205 Co 0.16716 0.60673 0.12196 0.0
C206 C 0.23242 0.64827 0.13224 0.0
O207 O 0.2435 0.62276 0.14237 0.0
O208 O 0.20318 0.64578 0.12328 0.0
C209 C 0.29681 0.55764 0.15625 0.0
O210 O 0.30089 0.56958 0.13905 0.0
C211 C 0.14245 0.62573 0.08498 0.0
C212 C 0.08376 0.62623 0.08811 0.0
C213 C 0.11091 0.6293 0.07491 0.0
N214 N 0.13422 0.62037 0.10307 0.0
N215 N 0.09914 0.62164 0.10499 0.0
C216 C 0.17971 0.62261 0.07743 0.0
H217 H 0.19825 0.61263 0.08835 0.0
H218 H 0.18034 0.60437 0.06517 0.0
H219 H 0.18904 0.64936 0.07278 0.0
C220 C 0.22176 0.51554 0.12172 0.0
N221 N 0.21401 0.54941 0.12645 0.0
N222 N 0.18773 0.56127 0.1159 0.0
C223 C 0.17728 0.53464 0.10434 0.0
C224 C 0.19895 0.5051 0.10745 0.0
C225 C 0.24559 0.49179 0.1331 0.0
H226 H 0.23883 0.49455 0.14817 0.0
H227 H 0.27372 0.50038 0.13116 0.0
H228 H 0.24322 0.46327 0.12904 0.0
O229 O 0.18303 0.57783 0.16444 0.0
O230 O 0.14158 0.60243 0.14618 0.0
H231 H 0.12232 0.549 0.1002 0.0
H232 H 0.13567 0.50842 0.08827 0.0
C233 C 0.1443 0.53563 0.09249 0.0
H234 H 0.14989 0.55102 0.07955 0.0
H235 H 0.08567 0.61731 0.11761 0.0
O236 O 0.2653 0.55339 0.16256 0.0
C237 C 0.15141 0.58954 0.1619 0.0
Co238 Co 0.9092 0.663 0.41205 0.0
Co239 Co 0.90808 0.61431 0.37642 0.0
C240 C 0.85258 0.67004 0.38258 0.0
O241 O 0.86757 0.67901 0.39779 0.0
O242 O 0.86505 0.6448 0.37259 0.0
C243 C 0.91436 0.73162 0.42668 0.0
O244 O 0.91512 0.73869 0.40864 0.0
C245 C 0.91614 0.59943 0.33657 0.0
C246 C 0.93594 0.54381 0.33673 0.0
C247 C 0.93001 0.57287 0.32506 0.0
N248 N 0.91535 0.58704 0.35424 0.0
N249 N 0.92626 0.55345 0.35419 0.0
C250 C 0.90363 0.63604 0.33111 0.0
H251 H 0.87746 0.64155 0.33777 0.0
H252 H 0.92281 0.6564 0.33627 0.0
H253 H 0.90047 0.63856 0.31571 0.0
C254 C 0.98343 0.67566 0.39934 0.0
N255 N 0.95067 0.66138 0.39702 0.0
N256 N 0.95029 0.64181 0.38166 0.0
C257 C 0.98296 0.64357 0.37359 0.0
C258 C 0.00478 0.66514 0.38448 0.0
C259 C 0.99401 0.69891 0.4155 0.0
H260 H 0.98082 0.6895 0.42852 0.0
H261 H 0.98551 0.72677 0.41263 0.0
H262 H 0.02329 0.69922 0.41767 0.0
O263 O 0.8999 0.61526 0.4227 0.0
O264 O 0.89967 0.58032 0.39745 0.0
H265 H 0.98607 0.59435 0.35835 0.0
H266 H 0.02385 0.62346 0.35484 0.0
C267 C 0.99443 0.6226 0.35678 0.0
H268 H 0.98169 0.63389 0.3441 0.0
H269 H 0.92908 0.53782 0.3662 0.0
O270 O 0.9133 0.6992 0.43204 0.0
C271 C 0.89699 0.5845 0.41514 0.0
H272 H 0.21361 0.02158 0.05751 0.0
H273 H 0.17652 0.03858 0.03069 0.0
H274 H 0.12774 0.12185 0.06381 0.0
H275 H 0.16305 0.10379 0.0908 0.0
H276 H 0.08233 0.09863 0.03712 0.0
H277 H 0.21617 0.12684 0.00619 0.0
H278 H 0.20785 0.08059 0.01124 0.0
H279 H 0.2107 0.11246 0.03009 0.0
C280 C 0.19396 0.04259 0.05923 0.0
C281 C 0.19178 0.0619 0.07608 0.0
C282 C 0.17299 0.05245 0.04388 0.0
C283 C 0.15051 0.08243 0.04506 0.0
C284 C 0.14524 0.09891 0.06251 0.0
H285 H 0.08429 0.26014 0.98151 0.0
H286 H 0.09136 0.2127 0.00487 0.0
C287 C 0.16552 0.08852 0.07797 0.0
C288 C 0.1372 0.10041 0.02793 0.0
H289 H 0.16644 0.14584 0.9893 0.0
C290 C 0.10062 0.10851 0.02651 0.0
C291 C 0.16124 0.11378 0.01422 0.0
C292 C 0.20119 0.10832 0.01552 0.0
C293 C 0.08765 0.13034 0.012 0.0
C294 C 0.11186 0.14417 -0.00135 0.0
C295 C 0.14803 0.13486 -0.00043 0.0
C296 C 0.1013 0.17098 0.98453 0.0
C297 C 0.04839 0.13919 0.01124 0.0
C298 C 0.10443 0.16307 0.96541 0.0
C299 C 0.10047 0.19006 0.95205 0.0
C300 C 0.09388 0.22553 0.95763 0.0
C301 C 0.08952 0.23312 0.97679 0.0
C302 C 0.09319 0.20601 0.99013 0.0
H303 H 0.03222 0.1204 0.01985 0.0
H304 H 0.04421 0.16665 0.01672 0.0
H305 H 0.03858 0.13852 -0.00343 0.0
H306 H 0.11113 0.13624 0.96087 0.0
H307 H 0.10392 0.18331 0.9374 0.0
H308 H 0.29633 0.54139 0.19361 0.0
H309 H 0.3379 0.56475 0.21686 0.0
H310 H 0.40665 0.60356 0.17278 0.0
H311 H 0.36503 0.58062 0.14932 0.0
H312 H 0.41596 0.56622 0.22536 0.0
H313 H 0.35923 0.69359 0.19749 0.0
H314 H 0.34013 0.65067 0.19181 0.0
H315 H 0.38139 0.66446 0.18117 0.0
C316 C 0.32088 0.55377 0.18881 0.0
C317 C 0.32683 0.56017 0.16963 0.0
C318 C 0.34471 0.56698 0.20214 0.0
C319 C 0.37481 0.58656 0.19648 0.0
C320 C 0.38324 0.58889 0.17737 0.0
H321 H 0.44804 0.75952 0.26889 0.0
H322 H 0.44937 0.7175 0.24262 0.0
C323 C 0.35939 0.57572 0.16399 0.0
C324 C 0.39253 0.61012 0.21023 0.0
H325 H 0.39207 0.69674 0.22508 0.0
C326 C 0.41144 0.59487 0.22517 0.0
C327 C 0.38652 0.64748 0.20987 0.0
C328 C 0.36557 0.6652 0.19433 0.0
C329 C 0.42347 0.61598 0.24018 0.0
C330 C 0.41544 0.65298 0.2404 0.0
C331 C 0.39826 0.6684 0.22491 0.0
C332 C 0.42056 0.67564 0.25723 0.0
C333 C 0.4441 0.59828 0.25577 0.0
C334 C 0.40437 0.66592 0.27425 0.0
C335 C 0.40381 0.68976 0.28929 0.0
C336 C 0.41878 0.72405 0.28747 0.0
C337 C 0.43603 0.73336 0.27065 0.0
C338 C 0.43696 0.70932 0.25567 0.0
H339 H 0.45966 0.57512 0.25043 0.0
H340 H 0.46271 0.61729 0.26267 0.0
H341 H 0.42506 0.58798 0.26643 0.0
H342 H 0.39055 0.6406 0.27564 0.0
H343 H 0.3902 0.68185 0.30205 0.0
H344 H 0.93242 0.80165 0.42162 0.0
H345 H 0.91971 0.85165 0.44273 0.0
H346 H 0.87391 0.77802 0.48276 0.0
H347 H 0.88816 0.7281 0.46221 0.0
H348 H 0.85837 0.8745 0.45196 0.0
H349 H 0.92517 0.84067 0.51797 0.0
H350 H 0.93569 0.81771 0.49641 0.0
H351 H 0.89922 0.80271 0.51108 0.0
C352 C 0.92047 0.79615 0.43515 0.0
C353 C 0.91123 0.76105 0.4403 0.0
C354 C 0.91324 0.82471 0.44719 0.0
C355 C 0.89633 0.81867 0.46449 0.0
C356 C 0.88809 0.78341 0.46982 0.0
H357 H 0.72465 0.91348 0.51531 0.0
H358 H 0.7701 0.8952 0.49296 0.0
C359 C 0.89594 0.75483 0.45797 0.0
C360 C 0.88289 0.84903 0.47587 0.0
H361 H 0.868 0.87303 0.52122 0.0
C362 C 0.86132 0.87479 0.46708 0.0
C363 C 0.88754 0.85048 0.49552 0.0
C364 C 0.91357 0.8266 0.50569 0.0
C365 C 0.84151 0.89951 0.47757 0.0
C366 C 0.84222 0.89745 0.49736 0.0
C367 C 0.86661 0.87419 0.50605 0.0
C368 C 0.81482 0.91505 0.50924 0.0
C369 C 0.81926 0.9268 0.46729 0.0
C370 C 0.82455 0.93241 0.52592 0.0
C371 C 0.79848 0.94198 0.53903 0.0
C372 C 0.76224 0.93468 0.53557 0.0
C373 C 0.75233 0.91973 0.5183 0.0
C374 C 0.7784 0.90954 0.50539 0.0
H375 H 0.83304 0.93561 0.45427 0.0
H376 H 0.79355 0.91443 0.46305 0.0
H377 H 0.81367 0.95067 0.47606 0.0
H378 H 0.85244 0.93691 0.52924 0.0
H379 H 0.80682 0.95365 0.55221 0.0
H380 H 0.66845 0.41731 0.66474 0.0
H381 H 0.6276 0.4002 0.68994 0.0
H382 H 0.7014 0.44218 0.73076 0.0
H383 H 0.7422 0.4597 0.70572 0.0
H384 H 0.65336 0.34999 0.71467 0.0
H385 H 0.60471 0.46801 0.75385 0.0
H386 H 0.62149 0.47093 0.73013 0.0
H387 H 0.65198 0.46923 0.74958 0.0
C388 C 0.67548 0.42402 0.67903 0.0
C389 C 0.70887 0.43927 0.68326 0.0
C390 C 0.65203 0.41428 0.69341 0.0
C391 C 0.66141 0.42 0.7122 0.0
C392 C 0.6933 0.43807 0.71635 0.0
H393 H 0.63941 0.32813 0.81932 0.0
H394 H 0.64682 0.36766 0.79233 0.0
C395 C 0.71679 0.44777 0.702 0.0
C396 C 0.64205 0.40099 0.72732 0.0
H397 H 0.60506 0.4119 0.77068 0.0
C398 C 0.64198 0.36349 0.72673 0.0
C399 C 0.62773 0.41874 0.7431 0.0
C400 C 0.62614 0.45898 0.74416 0.0
C401 C 0.62998 0.34314 0.74197 0.0
C402 C 0.61658 0.36083 0.75805 0.0
C403 C 0.61521 0.3984 0.75832 0.0
C404 C 0.60733 0.34071 0.77527 0.0
C405 C 0.63406 0.30296 0.74112 0.0
C406 C 0.58161 0.31335 0.77491 0.0
C407 C 0.57783 0.29027 0.79019 0.0
C408 C 0.59914 0.29472 0.80622 0.0
C409 C 0.62276 0.3239 0.80712 0.0
C410 C 0.62694 0.34661 0.79173 0.0
H411 H 0.65224 0.29447 0.72963 0.0
H412 H 0.64466 0.29232 0.75454 0.0
H413 H 0.60757 0.29057 0.73856 0.0
H414 H 0.56555 0.30893 0.76251 0.0
H415 H 0.55894 0.26836 0.78924 0.0
H416 H 0.59253 0.10832 0.94468 0.0
H417 H 0.56523 0.10715 0.97589 0.0
H418 H 0.4827 0.03671 0.95537 0.0
H419 H 0.50997 0.03769 0.92423 0.0
H420 H 0.49863 0.13138 0.98396 0.0
H421 H 0.50921 0.98883 0.00414 0.0
H422 H 0.5347 0.00783 0.98506 0.0
H423 H 0.48894 0.99449 0.98158 0.0
C424 C 0.56867 0.09248 0.94688 0.0
C425 C 0.55298 0.07355 0.93202 0.0
C426 C 0.55327 0.09162 0.96472 0.0
C427 C 0.52214 0.07159 0.96798 0.0
C428 C 0.50717 0.05169 0.95328 0.0
H429 H 0.3529 0.06002 0.04777 0.0
H430 H 0.39372 0.05618 0.02112 0.0
C431 C 0.52267 0.05239 0.93549 0.0
C432 C 0.50338 0.0741 0.98619 0.0
H433 H 0.46607 0.02392 0.02109 0.0
C434 C 0.49201 0.10796 0.99225 0.0
C435 C 0.49476 0.04348 -0.00306 0.0
C436 C 0.50786 0.00667 0.9917 0.0
C437 C 0.47095 0.11187 0.00838 0.0
C438 C 0.46133 0.08113 0.01873 0.0
C439 C 0.47345 0.04738 0.013 0.0
C440 C 0.43723 0.08334 0.03506 0.0
C441 C 0.45792 0.14861 0.01385 0.0
C442 C 0.44842 0.09976 0.0517 0.0
C443 C 0.42519 0.10201 0.067 0.0
C444 C 0.39039 0.08788 0.06586 0.0
C445 C 0.37943 0.07133 0.04912 0.0
C446 C 0.40272 0.06897 0.03389 0.0
H447 H 0.46306 0.16878 0.00272 0.0
H448 H 0.42881 0.148 0.0169 0.0
H449 H 0.47186 0.15734 0.02677 0.0
H450 H 0.47514 0.1107 0.05286 0.0
H451 H 0.43453 0.1148 0.0797 0.0
H452 H 0.40257 0.9005 0.27904 0.0
H453 H 0.40391 0.95392 0.25942 0.0
H454 H 0.40426 0.02063 0.30869 0.0
H455 H 0.40318 0.96722 0.32858 0.0
H456 H 0.35422 0.01289 0.2592 0.0
H457 H 0.49335 0.05309 0.27749 0.0
H458 H 0.47663 0.00856 0.28193 0.0
H459 H 0.46225 0.04514 0.29632 0.0
C460 C 0.4028 0.92647 0.28576 0.0
C461 C 0.40294 0.92954 0.30539 0.0
C462 C 0.40353 0.95696 0.27452 0.0
C463 C 0.40456 0.99108 0.28265 0.0
C464 C 0.40394 0.99444 0.3022 0.0
H465 H 0.38122 0.15923 0.19764 0.0
H466 H 0.3798 0.13575 0.22976 0.0
C467 C 0.40314 0.96389 0.3135 0.0
C468 C 0.40661 0.02279 0.27036 0.0
H469 H 0.4653 0.08458 0.25314 0.0
C470 C 0.37814 0.02917 0.25809 0.0
C471 C 0.43799 0.04373 0.26905 0.0
C472 C 0.46949 0.03739 0.28179 0.0
C473 C 0.38097 0.05456 0.24372 0.0
C474 C 0.41299 0.07448 0.24186 0.0
C475 C 0.44072 0.0695 0.2548 0.0
C476 C 0.42017 0.09547 0.22472 0.0
C477 C 0.35074 0.05789 0.22982 0.0
C478 C 0.44517 0.08232 0.2118 0.0
C479 C 0.44596 0.09557 0.19355 0.0
C480 C 0.42159 0.12203 0.18796 0.0
C481 C 0.39948 0.13803 0.20149 0.0
C482 C 0.39874 0.12478 0.21981 0.0
H483 H 0.32997 0.03699 0.23188 0.0
H484 H 0.33783 0.08442 0.23143 0.0
H485 H 0.36101 0.05589 0.21525 0.0
H486 H 0.46206 0.05979 0.21536 0.0
H487 H 0.46347 0.08286 0.18345 0.0
H488 H 0.36888 0.86852 0.43287 0.0
H489 H 0.37817 0.86284 0.4667 0.0
H490 H 0.45914 0.94491 0.46416 0.0
H491 H 0.45072 0.95006 0.4305 0.0
H492 H 0.44167 0.84143 0.48181 0.0
H493 H 0.4057 0.97242 0.51141 0.0
H494 H 0.38989 0.95772 0.48874 0.0
H495 H 0.43308 0.9787 0.49104 0.0
C496 C 0.38875 0.88523 0.4395 0.0
C497 C 0.40996 0.90889 0.42891 0.0
C498 C 0.39357 0.88236 0.45889 0.0
C499 C 0.41904 0.90372 0.46797 0.0
C500 C 0.43871 0.92875 0.45754 0.0
H501 H 0.59193 0.88604 0.53107 0.0
H502 H 0.53996 0.87819 0.51108 0.0
C503 C 0.43407 0.93147 0.43824 0.0
C504 C 0.42941 0.8967 0.48761 0.0
H505 H 0.45682 0.94196 0.52644 0.0
C506 C 0.44385 0.86304 0.49189 0.0
C507 C 0.43152 0.92452 0.50097 0.0
C508 C 0.4138 0.96023 0.49785 0.0
C509 C 0.46433 0.85795 0.50809 0.0
C510 C 0.47074 0.88736 0.52004 0.0
C511 C 0.45246 0.91959 0.51703 0.0
C512 C 0.50127 0.88757 0.53313 0.0
C513 C 0.48101 0.82186 0.51156 0.0
C514 C 0.49675 0.89577 0.55217 0.0
C515 C 0.52662 0.90035 0.56371 0.0
C516 C 0.56134 0.89751 0.55623 0.0
C517 C 0.56559 0.88856 0.53725 0.0
C518 C 0.53587 0.88365 0.52584 0.0
H519 H 0.46391 0.80008 0.50592 0.0
H520 H 0.50716 0.82052 0.50423 0.0
H521 H 0.4855 0.81716 0.52674 0.0
H522 H 0.47022 0.89938 0.55796 0.0
H523 H 0.52254 0.90735 0.57829 0.0
H524 H 0.6129 0.13223 0.78868 0.0
H525 H 0.61346 0.08797 0.76356 0.0
H526 H 0.61151 0.00279 0.80428 0.0
H527 H 0.61096 0.04683 0.82966 0.0
H528 H 0.66094 0.99459 0.77116 0.0
H529 H 0.51997 0.02666 0.75371 0.0
H530 H 0.54891 0.06487 0.75572 0.0
H531 H 0.53989 0.03782 0.77601 0.0
C532 C 0.61306 0.10412 0.79236 0.0
C533 C 0.61146 0.09309 0.81119 0.0
C534 C 0.61329 0.07891 0.77798 0.0
C535 C 0.61197 0.0423 0.78216 0.0
C536 C 0.61233 0.03102 0.80087 0.0
H537 H 0.55289 0.90099 0.6894 0.0
H538 H 0.55819 0.92257 0.7218 0.0
C539 C 0.612 0.05624 0.81531 0.0
C540 C 0.60826 0.01615 0.76685 0.0
H541 H 0.55262 0.99302 0.73111 0.0
C542 C 0.63712 0.99376 0.76252 0.0
C543 C 0.57683 0.01472 0.75594 0.0
C544 C 0.54445 0.03704 0.76063 0.0
C545 C 0.63614 0.97141 0.74674 0.0
C546 C 0.60568 0.97196 0.73502 0.0
C547 C 0.57601 0.99275 0.74007 0.0
C548 C 0.60534 0.95458 0.71644 0.0
C549 C 0.66795 0.948 0.74253 0.0
C550 C 0.62998 0.96557 0.70277 0.0
C551 C 0.62691 0.95346 0.6844 0.0
C552 C 0.59926 0.92994 0.67935 0.0
C553 C 0.57479 0.91861 0.69306 0.0
C554 C 0.57784 0.93082 0.71151 0.0
H555 H 0.68293 0.94139 0.75551 0.0
H556 H 0.65972 0.92273 0.73559 0.0
H557 H 0.68641 0.96253 0.73301 0.0
H558 H 0.65053 0.98497 0.7061 0.0
H559 H 0.64513 0.96402 0.67397 0.0
H560 H 0.06501 0.47204 0.81756 0.0
H561 H 0.04256 0.47385 0.78531 0.0
H562 H 0.03036 0.35913 0.78588 0.0
H563 H 0.05016 0.35741 0.81833 0.0
H564 H 0.06069 0.44169 0.75085 0.0
H565 H 0.92926 0.39519 0.77781 0.0
H566 H 0.96492 0.40911 0.79312 0.0
H567 H 0.96541 0.36519 0.78281 0.0
C568 C 0.05804 0.44719 0.81067 0.0
C569 C 0.0601 0.41453 0.82035 0.0
C570 C 0.04545 0.44823 0.79225 0.0
C571 C 0.03458 0.41664 0.78332 0.0
C572 C 0.03842 0.38382 0.7926 0.0
H573 H 0.95227 0.39753 0.66874 0.0
H574 H 0.9923 0.39578 0.69595 0.0
C575 C 0.05044 0.38282 0.81107 0.0
C576 C 0.01564 0.41839 0.76519 0.0
H577 H 0.9349 0.40122 0.7451 0.0
C578 C 0.0332 0.43283 0.74951 0.0
C579 C 0.97963 0.40727 0.76365 0.0
C580 C 0.95854 0.39364 0.78027 0.0
C581 C 0.01555 0.43642 0.73224 0.0
C582 C 0.97974 0.42472 0.73068 0.0
C583 C 0.96243 0.41002 0.74634 0.0
C584 C 0.95853 0.42905 0.71337 0.0
C585 C 0.03491 0.45362 0.71601 0.0
C586 C 0.92646 0.44833 0.71418 0.0
C587 C 0.9034 0.44877 0.69891 0.0
C588 C 0.91207 0.43013 0.68243 0.0
C589 C 0.94499 0.41216 0.68127 0.0
C590 C 0.96796 0.41135 0.69673 0.0
H591 H 0.05904 0.46846 0.72067 0.0
H592 H 0.04354 0.43253 0.70605 0.0
H593 H 0.01706 0.47233 0.70839 0.0
H594 H 0.91874 0.46223 0.72688 0.0
H595 H 0.87844 0.46325 0.70015 0.0
H596 H 0.10774 0.46914 0.9154 0.0
H597 H 0.1137 0.52435 0.93354 0.0
H598 H 0.13177 0.46241 0.98363 0.0
H599 H 0.12617 0.40723 0.9657 0.0
H600 H 0.06969 0.54377 0.96301 0.0
H601 H 0.21008 0.53831 0.98645 0.0
H602 H 0.19367 0.51207 0.96701 0.0
H603 H 0.18769 0.49665 0.99073 0.0
C604 C 0.11359 0.46725 0.93022 0.0
C605 C 0.11641 0.43373 0.93913 0.0
C606 C 0.11697 0.49884 0.94054 0.0
C607 C 0.12368 0.49743 0.95984 0.0
C608 C 0.12739 0.46408 0.96865 0.0
H609 H 0.06178 0.5883 0.05723 0.0
H610 H 0.06366 0.56819 0.02487 0.0
C611 C 0.12389 0.43253 0.9584 0.0
C612 C 0.12341 0.53032 0.97131 0.0
H613 H 0.16895 0.57045 0.00681 0.0
C614 C 0.09173 0.55031 0.97226 0.0
C615 C 0.15243 0.53942 0.98301 0.0
C616 C 0.18802 0.52069 0.98161 0.0
C617 C 0.08709 0.57683 0.98595 0.0
C618 C 0.11464 0.58295 -0.00091 0.0
C619 C 0.14759 0.56549 -0.00312 0.0
C620 C 0.10815 0.60211 0.01691 0.0
C621 C 0.05216 0.59685 0.98671 0.0
C622 C 0.1319 0.62862 0.02314 0.0
C623 C 0.13091 0.64012 0.04178 0.0
C624 C 0.10658 0.62477 0.05447 0.0
C625 C 0.08084 0.60063 0.04778 0.0
C626 C 0.08179 0.58921 0.0292 0.0
H627 H 0.04079 0.60016 0.97244 0.0
H628 H 0.03263 0.58126 -0.00488 0.0
H629 H 0.05541 0.62365 0.9932 0.0
H630 H 0.15242 0.63895 0.01387 0.0
H631 H 0.15035 0.6596 0.04645 0.0
H632 H 0.15647 0.54896 0.1935 0.0
H633 H 0.11373 0.54478 0.21922 0.0
H634 H 0.0455 0.62141 0.19166 0.0
H635 H 0.08764 0.62481 0.16546 0.0
H636 H 0.09378 0.5953 0.24261 0.0
H637 H 0.97419 0.54506 0.20517 0.0
H638 H 0.01803 0.54571 0.19461 0.0
H639 H 0.99146 0.58579 0.1954 0.0
C640 C 0.13228 0.56481 0.19284 0.0
C641 C 0.12542 0.58724 0.17745 0.0
C642 C 0.10783 0.56231 0.20753 0.0
C643 C 0.07616 0.58235 0.20724 0.0
C644 C 0.06929 0.60496 0.19195 0.0
H645 H 0.9622 0.63146 0.30915 0.0
H646 H 0.99334 0.63445 0.27934 0.0
C647 C 0.09355 0.60712 0.17708 0.0
C648 C 0.05159 0.58103 0.22351 0.0
H649 H 0.96518 0.56509 0.23659 0.0
C650 C 0.0657 0.58853 0.24128 0.0
C651 C 0.01506 0.57174 0.22179 0.0
C652 C -0.00117 0.56125 0.20324 0.0
C653 C 0.04432 0.58729 0.25737 0.0
C654 C 0.00746 0.57954 0.25557 0.0
C655 C 0.99334 0.57155 0.23786 0.0
C656 C 0.9835 0.57916 0.27207 0.0
C657 C 0.06168 0.59352 0.27619 0.0
C658 C 0.96575 0.54763 0.27733 0.0
C659 C 0.94664 0.54618 0.29417 0.0
C660 C 0.94481 0.5763 0.30591 0.0
C661 C 0.96158 0.60818 0.30019 0.0
C662 C 0.98019 0.60974 0.28328 0.0
H663 H 0.09095 0.58865 0.27564 0.0
H664 H 0.05753 0.62176 0.28044 0.0
H665 H 0.0499 0.57594 0.28712 0.0
H666 H 0.96796 0.52374 0.26882 0.0
H667 H 0.9343 0.52117 0.29832 0.0
H668 H 0.90622 0.51374 0.4061 0.0
H669 H 0.90465 0.46248 0.42758 0.0
H670 H 0.8763 0.53291 0.47309 0.0
H671 H 0.87762 0.58388 0.45191 0.0
H672 H 0.94886 0.45574 0.4585 0.0
H673 H 0.80807 0.44922 0.48094 0.0
H674 H 0.82189 0.47182 0.45972 0.0
H675 H 0.82399 0.49441 0.482 0.0
C676 C 0.89894 0.51815 0.42062 0.0
C677 C 0.8922 0.5529 0.42734 0.0
C678 C 0.89806 0.48885 0.43283 0.0
C679 C 0.88981 0.49385 0.45183 0.0
C680 C 0.8819 0.52832 0.45838 0.0
H681 H 0.9612 0.44903 0.5549 0.0
H682 H 0.9558 0.45662 0.52116 0.0
C683 C 0.88303 0.55752 0.44628 0.0
C684 C 0.89349 0.46442 0.46554 0.0
H685 H 0.85235 0.43177 0.50454 0.0
C686 C 0.92749 0.44951 0.46827 0.0
C687 C 0.86544 0.4555 0.47797 0.0
C688 C 0.82771 0.46831 0.47486 0.0
C689 C 0.93514 0.42936 0.48435 0.0
C690 C 0.90824 0.42466 0.49807 0.0
C691 C 0.87323 0.43592 0.4942 0.0
C692 C 0.91682 0.41429 0.51757 0.0
C693 C 0.97242 0.41496 0.48695 0.0
C694 C 0.8971 0.38762 0.52681 0.0
C695 C 0.90006 0.38338 0.54621 0.0
C696 C 0.92226 0.4062 0.55667 0.0
C697 C 0.94382 0.4311 0.54722 0.0
C698 C 0.94092 0.43529 0.52787 0.0
H699 H 0.98451 0.40772 0.47323 0.0
H700 H 0.98945 0.43599 0.49333 0.0
H701 H 0.97263 0.39107 0.49621 0.0
H702 H 0.87835 0.37113 0.51912 0.0
H703 H 0.88404 0.36312 0.55307 0.0
H704 H 0.21414 0.71178 0.11576 0.0
H705 H 0.24578 0.76872 0.11813 0.0
H706 H 0.32918 0.71799 0.15024 0.0
H707 H 0.29751 0.66102 0.14822 0.0
H708 H 0.30443 0.77784 0.16714 0.0
H709 H 0.335 0.807 0.09294 0.0
H710 H 0.28861 0.79649 0.09605 0.0
H711 H 0.32194 0.763 0.10089 0.0
C712 C 0.23947 0.71257 0.12307 0.0
C713 C 0.25318 0.6819 0.13186 0.0
C714 C 0.25767 0.74509 0.12431 0.0
C715 C 0.29007 0.74742 0.13414 0.0
C716 C 0.30431 0.71668 0.1425 0.0
H717 H 0.37863 0.96291 0.12847 0.0
H718 H 0.38121 0.89755 0.13104 0.0
C719 C 0.28611 0.68417 0.14133 0.0
C720 C 0.30718 0.78263 0.13704 0.0
H721 H 0.33189 0.85816 0.11369 0.0
C722 C 0.31118 0.7952 0.15547 0.0
C723 C 0.3168 0.80491 0.12186 0.0
C724 C 0.31574 0.79198 0.10184 0.0
C725 C 0.32188 0.83049 0.15904 0.0
C726 C 0.32805 0.85381 0.14378 0.0
C727 C 0.32677 0.84038 0.12542 0.0
C728 C 0.3313 0.89295 0.14624 0.0
C729 C 0.32549 0.84271 0.17908 0.0
C730 C 0.30301 0.91201 0.15448 0.0
C731 C 0.30173 0.9492 0.15316 0.0
C732 C 0.3286 0.96776 0.14352 0.0
C733 C 0.35802 0.94902 0.1363 0.0
C734 C 0.35937 0.91179 0.13765 0.0
H735 H 0.33319 0.82013 0.18836 0.0
H736 H 0.34566 0.86435 0.18046 0.0
H737 H 0.29933 0.85299 0.18406 0.0
H738 H 0.28059 0.89804 0.16071 0.0
H739 H 0.27855 0.96327 0.1585 0.0
H740 H 0.82344 0.72912 0.39886 0.0
H741 H 0.76525 0.75575 0.39266 0.0
H742 H 0.74715 0.67962 0.34832 0.0
H743 H 0.8058 0.65261 0.35434 0.0
H744 H 0.7259 0.75439 0.34066 0.0
H745 H 0.67262 0.70014 0.40769 0.0
H746 H 0.71341 0.72528 0.40961 0.0
H747 H 0.71318 0.68369 0.39702 0.0
C748 C 0.80731 0.71809 0.38767 0.0
C749 C 0.81905 0.68834 0.37726 0.0
C750 C 0.77404 0.73338 0.38418 0.0
C751 C 0.75179 0.71921 0.37029 0.0
C752 C 0.764 0.69073 0.3592 0.0
H753 H 0.52412 0.74261 0.35775 0.0
H754 H 0.58559 0.72156 0.36209 0.0
C755 C 0.79744 0.67534 0.36266 0.0
C756 C 0.7151 0.73307 0.3681 0.0
H757 H 0.6351 0.73958 0.39087 0.0
C758 C 0.70597 0.75118 0.35158 0.0
C759 C 0.68924 0.7285 0.38238 0.0
C760 C 0.69736 0.7081 0.40013 0.0
C761 C 0.67154 0.76528 0.34906 0.0
C762 C 0.64592 0.7613 0.36351 0.0
C763 C 0.655 0.74287 0.37993 0.0
C764 C 0.60893 0.77454 0.36152 0.0
C765 C 0.66259 0.78371 0.33085 0.0
C766 C 0.60178 0.81131 0.36019 0.0
C767 C 0.56669 0.82332 0.35782 0.0
C768 C 0.53847 0.79867 0.35683 0.0
C769 C 0.5456 0.762 0.35858 0.0
C770 C 0.58056 0.75002 0.361 0.0
H771 H 0.68285 0.77826 0.31981 0.0
H772 H 0.63598 0.77502 0.32568 0.0
H773 H 0.66157 0.81303 0.33318 0.0
H774 H 0.62334 0.83062 0.36082 0.0
H775 H 0.5617 0.8517 0.35624 0.0
H776 H 0.65265 0.07834 0.58074 0.0
H777 H 0.67465 0.13868 0.58772 0.0
H778 H 0.72202 0.09964 0.6389 0.0
H779 H 0.70136 0.03898 0.63147 0.0
H780 H 0.66537 0.18503 0.61679 0.0
H781 H 0.80723 0.14287 0.61176 0.0
H782 H 0.77079 0.11455 0.60444 0.0
H783 H 0.78198 0.11829 0.62887 0.0
C784 C 0.6679 0.08278 0.59342 0.0
C785 C 0.67629 0.05416 0.60533 0.0
C786 C 0.68019 0.11717 0.59747 0.0
C787 C 0.70076 0.12337 0.61357 0.0
C788 C 0.70704 0.09517 0.62614 0.0
H789 H 0.7597 0.33218 0.65673 0.0
H790 H 0.73249 0.27382 0.65123 0.0
C791 C 0.695 0.06071 0.62199 0.0
C792 C 0.7167 0.15905 0.61679 0.0
H793 H 0.79646 0.20209 0.62212 0.0
C794 C 0.69402 0.18883 0.61794 0.0
C795 C 0.75414 0.16393 0.61789 0.0
C796 C 0.78001 0.13329 0.61549 0.0
C797 C 0.70778 0.22342 0.62043 0.0
C798 C 0.74515 0.22811 0.62225 0.0
C799 C 0.76781 0.19836 0.62088 0.0
C800 C 0.76145 0.26364 0.6255 0.0
C801 C 0.68221 0.25462 0.62065 0.0
C802 C 0.78764 0.27679 0.61318 0.0
C803 C 0.80375 0.30991 0.61645 0.0
C804 C 0.79384 0.33048 0.6321 0.0
C805 C 0.76771 0.31713 0.64445 0.0
C806 C 0.7519 0.28388 0.64127 0.0
H807 H 0.65662 0.2479 0.61359 0.0
H808 H 0.67599 0.26178 0.63538 0.0
H809 H 0.69401 0.2784 0.61366 0.0
H810 H 0.79552 0.26144 0.60098 0.0
H811 H 0.82374 0.31948 0.60666 0.0
H812 H 0.4468 0.19064 0.82919 0.0
H813 H 0.38268 0.20416 0.8307 0.0
H814 H 0.38761 0.20368 0.89108 0.0
H815 H 0.45186 0.19078 0.88963 0.0
H816 H 0.32468 0.16549 0.87137 0.0
H817 H 0.3505 0.30712 0.85064 0.0
H818 H 0.37011 0.27188 0.83685 0.0
H819 H 0.38518 0.2792 0.86037 0.0
C820 C 0.43408 0.19341 0.84276 0.0
C821 C 0.45409 0.19032 0.85931 0.0
C822 C 0.39759 0.20087 0.84359 0.0
C823 C 0.38074 0.20508 0.86099 0.0
C824 C 0.40034 0.20041 0.87754 0.0
H825 H 0.19092 0.26825 0.91492 0.0
H826 H 0.24445 0.23821 0.90367 0.0
C827 C 0.43687 0.19311 0.87671 0.0
C828 C 0.34333 0.21701 0.86207 0.0
H829 H 0.29201 0.292 0.85922 0.0
C830 C 0.31729 0.193 0.86851 0.0
C831 C 0.33397 0.25278 0.85808 0.0
C832 C 0.36129 0.27946 0.85116 0.0
C833 C 0.28204 0.20425 0.87164 0.0
C834 C 0.27316 0.24063 0.86876 0.0
C835 C 0.29891 0.26415 0.86146 0.0
C836 C 0.23862 0.25582 0.87492 0.0
C837 C 0.25483 0.17714 0.87814 0.0
C838 C 0.21788 0.27635 0.86258 0.0
C839 C 0.18751 0.2942 0.86907 0.0
C840 C 0.17742 0.29185 0.88802 0.0
C841 C 0.19783 0.27056 0.90022 0.0
C842 C 0.22828 0.253 0.89376 0.0
H843 H 0.26165 0.1499 0.87304 0.0
H844 H 0.25467 0.17629 0.89368 0.0
H845 H 0.22755 0.18405 0.87323 0.0
H846 H 0.22559 0.27909 0.84801 0.0
H847 H 0.17225 0.31009 0.85928 0.0
H848 H 0.86446 0.5691 0.61796 0.0
H849 H 0.85186 0.63258 0.61195 0.0
H850 H 0.7426 0.60593 0.59859 0.0
H851 H 0.75541 0.54257 0.60418 0.0
H852 H 0.77252 0.65822 0.57496 0.0
H853 H 0.79246 0.689 0.65054 0.0
H854 H 0.8296 0.66853 0.6387 0.0
H855 H 0.78886 0.64382 0.64187 0.0
C856 C 0.83811 0.57685 0.6132 0.0
C857 C 0.81086 0.55128 0.61137 0.0
C858 C 0.83084 0.61301 0.61 0.0
C859 C 0.79618 0.62387 0.60514 0.0
C860 C 0.7695 0.59803 0.60237 0.0
H861 H 0.67281 0.81296 0.62019 0.0
H862 H 0.70408 0.7557 0.62275 0.0
C863 C 0.77678 0.56197 0.60552 0.0
C864 C 0.78666 0.66214 0.60409 0.0
H865 H 0.77441 0.73648 0.63111 0.0
C866 C 0.77329 0.67553 0.58715 0.0
C867 C 0.78729 0.68432 0.62015 0.0
C868 C 0.80004 0.67076 0.63891 0.0
C869 C 0.75974 0.71039 0.5859 0.0
C870 C 0.76025 0.73255 0.60197 0.0
C871 C 0.77433 0.71941 0.61882 0.0
C872 C 0.74406 0.76858 0.60184 0.0
C873 C 0.74354 0.72259 0.56761 0.0
C874 C 0.75704 0.79514 0.58976 0.0
C875 C 0.73912 0.82769 0.58815 0.0
C876 C 0.70812 0.83437 0.59878 0.0
C877 C 0.69649 0.80855 0.61175 0.0
C878 C 0.71432 0.77585 0.61323 0.0
H879 H 0.73803 0.6998 0.55805 0.0
H880 H 0.7182 0.7373 0.57008 0.0
H881 H 0.76244 0.74093 0.56042 0.0
H882 H 0.78048 0.79032 0.5812 0.0
H883 H 0.74909 0.84726 0.57823 0.0
H884 H 0.66588 0.26314 0.86702 0.0
H885 H 0.72358 0.28697 0.877 0.0
H886 H 0.75376 0.18272 0.8975 0.0
H887 H 0.69541 0.15894 0.88817 0.0
H888 H 0.77921 0.23671 0.91981 0.0
H889 H 0.80973 0.26373 0.84499 0.0
H890 H 0.77069 0.28664 0.85326 0.0
H891 H 0.77104 0.23853 0.85228 0.0
C892 C 0.68461 0.24542 0.87391 0.0
C893 C 0.6765 0.20905 0.87653 0.0
C894 C 0.71757 0.25904 0.87953 0.0
C895 C 0.74327 0.23634 0.88744 0.0
C896 C 0.73435 0.20058 0.89125 0.0
H897 H 0.97118 0.26703 0.88044 0.0
H898 H 0.909 0.24688 0.87766 0.0
C899 C 0.70106 0.18704 0.88592 0.0
C900 C 0.78024 0.24913 0.89035 0.0
H901 H 0.85203 0.28392 0.86714 0.0
C902 C 0.79522 0.24704 0.90833 0.0
C903 C 0.80119 0.26195 0.87523 0.0
C904 C 0.78752 0.26255 0.85533 0.0
C905 C 0.83064 0.25768 0.91163 0.0
C906 C 0.85117 0.27153 0.8966 0.0
C907 C 0.83613 0.27354 0.87865 0.0
C908 C 0.88874 0.28303 0.89889 0.0
C909 C 0.84599 0.25304 0.93102 0.0
C910 C 0.89783 0.31021 0.9116 0.0
C911 C 0.93331 0.32136 0.91329 0.0
C912 C 0.95987 0.30589 0.90206 0.0
C913 C 0.95084 0.27919 0.88917 0.0
C914 C 0.91549 0.26775 0.88763 0.0
H915 H 0.83059 0.23317 0.93935 0.0
H916 H 0.87432 0.24431 0.93038 0.0
H917 H 0.84485 0.27898 0.93854 0.0
H918 H 0.87749 0.32304 0.92005 0.0
H919 H 0.94001 0.34219 0.92323 0.0
H920 H 0.24299 0.46312 0.08713 0.0
H921 H 0.24099 0.39782 0.08538 0.0
H922 H 0.14003 0.39782 0.11472 0.0
H923 H 0.14239 0.4633 0.11667 0.0
H924 H 0.19097 0.35943 0.13262 0.0
H925 H 0.18732 0.31898 0.05825 0.0
H926 H 0.22067 0.35262 0.06218 0.0
H927 H 0.17425 0.36312 0.06596 0.0
C928 C 0.21971 0.44914 0.09245 0.0
C929 C 0.19264 0.46786 0.1018 0.0
C930 C 0.21848 0.41191 0.09142 0.0
C931 C 0.19014 0.39301 0.09974 0.0
C932 C 0.1619 0.41197 0.10804 0.0
H933 H 0.22154 0.16108 0.09963 0.0
H934 H 0.19037 0.21828 0.09789 0.0
C935 C 0.16313 0.44925 0.10905 0.0
C936 C 0.19348 0.354 0.10255 0.0
H937 H 0.21588 0.27725 0.07967 0.0
C938 C 0.19555 0.34123 0.12103 0.0
C939 C 0.19903 0.33022 0.08746 0.0
C940 C 0.19482 0.34189 0.06735 0.0
C941 C 0.20562 0.30588 0.12482 0.0
C942 C 0.21439 0.28305 0.10974 0.0
C943 C 0.2097 0.29502 0.09124 0.0
C944 C 0.23118 0.24777 0.11275 0.0
C945 C 0.2077 0.29363 0.14493 0.0
C946 C 0.26431 0.24541 0.12188 0.0
C947 C 0.28228 0.21275 0.12293 0.0
C948 C 0.26753 0.182 0.11469 0.0
C949 C 0.23377 0.1843 0.10606 0.0
C950 C 0.21585 0.21693 0.10505 0.0
H951 H 0.18938 0.30931 0.15403 0.0
H952 H 0.20096 0.2648 0.14627 0.0
H953 H 0.23531 0.29773 0.15017 0.0
H954 H 0.27695 0.2691 0.12757 0.0
H955 H 0.30823 0.21191 0.12961 0.0
H956 H 0.31094 0.82168 0.37894 0.0
H957 H 0.25422 0.79286 0.38695 0.0
H958 H 0.25705 0.7343 0.33491 0.0
H959 H 0.31392 0.76239 0.3269 0.0
H960 H 0.19132 0.79679 0.36754 0.0
H961 H 0.23583 0.65582 0.37288 0.0
H962 H 0.26673 0.69294 0.37268 0.0
H963 H 0.24816 0.67649 0.3511 0.0
C964 C 0.29964 0.80249 0.36925 0.0
C965 C 0.31698 0.79435 0.35228 0.0
C966 C 0.26726 0.78603 0.37386 0.0
C967 C 0.25176 0.76105 0.36165 0.0
C968 C 0.26898 0.75287 0.34473 0.0
H969 H 0.0295 0.70103 0.35418 0.0
H970 H 0.09045 0.72315 0.34881 0.0
C971 C 0.30137 0.76919 0.34012 0.0
C972 C 0.21654 0.7451 0.36606 0.0
H973 H 0.17273 0.66551 0.37107 0.0
C974 C 0.18729 0.7681 0.36845 0.0
C975 C 0.21148 0.70769 0.36747 0.0
C976 C 0.24228 0.68179 0.36609 0.0
C977 C 0.15286 0.75465 0.3717 0.0
C978 C 0.14753 0.71721 0.3722 0.0
C979 C 0.17691 0.6942 0.37038 0.0
C980 C 0.11155 0.70159 0.3747 0.0
C981 C 0.12254 0.78063 0.37471 0.0
C982 C 0.10376 0.68091 0.3906 0.0
C983 C 0.06914 0.66809 0.39357 0.0
C984 C 0.04197 0.67585 0.38068 0.0
C985 C 0.05011 0.69511 0.36436 0.0
C986 C 0.08472 0.70788 0.36137 0.0
H987 H 0.13244 0.80759 0.37872 0.0
H988 H 0.10717 0.78336 0.3615 0.0
H989 H 0.10405 0.77091 0.38579 0.0
H990 H 0.12425 0.67545 0.40093 0.0
H991 H 0.06343 0.65262 0.40606 0.0
loop_
_geom_bond_atom_site_label_1
_geom_bond_atom_site_label_2
_geom_bond_distance
_geom_bond_site_symmetry_2
_ccdc_geom_bond_type
Co0 O3 1.970 . S
Co0 N17 1.989 . S
Co0 O25 1.967 . S
Co0 O32 1.920 . S
Co1 O4 1.966 . S
Co1 N10 2.022 . S
Co1 N18 1.993 . S
Co1 O26 1.941 . S
C2 O3 1.258 . S
C2 O4 1.263 . S
O3 Co0 1.970 . S
O3 C2 1.258 . S
O4 Co1 1.966 . S
O4 C2 1.263 . S
C5 O6 1.235 . S
C5 O32 1.289 . S
O6 C5 1.235 . S
C7 C9 1.400 . S
C7 N10 1.351 . S
C7 C12 1.501 . S
C8 C9 1.387 . S
C8 N11 1.341 . S
C9 C7 1.400 . S
C9 C8 1.387 . S
N10 Co1 2.022 . S
N10 C7 1.351 . S
N10 N11 1.365 . S
N11 C8 1.341 . S
N11 N10 1.365 . S
N11 H31 0.862 . S
C12 C7 1.501 . S
C12 H13 0.961 . S
C12 H14 0.961 . S
C12 H15 0.960 . S
H13 C12 0.961 . S
H14 C12 0.961 . S
H15 C12 0.960 . S
C16 N17 1.342 . S
C16 C20 1.401 1_545 S
C16 C21 1.499 . S
N17 Co0 1.989 . S
N17 C16 1.342 . S
N17 N18 1.388 . S
N18 Co1 1.993 . S
N18 N17 1.388 . S
N18 C19 1.346 1_545 S
C19 N18 1.346 1_565 S
C19 C20 1.396 . S
C19 C29 1.510 . S
C20 C16 1.401 1_565 S
C20 C19 1.396 . S
C21 C16 1.499 . S
C21 H22 0.959 . S
C21 H23 0.960 1_545 S
C21 H24 0.961 1_545 S
H22 C21 0.959 . S
H23 C21 0.960 1_565 S
H24 C21 0.961 1_565 S
O25 Co0 1.967 . S
O25 C33 1.258 . S
O26 Co1 1.941 . S
O26 C33 1.266 . S
H27 C29 0.959 . S
H28 C29 0.961 . S
C29 C19 1.510 . S
C29 H27 0.959 . S
C29 H28 0.961 . S
C29 H30 0.960 . S
H30 C29 0.960 . S
H31 N11 0.862 . S
O32 Co0 1.920 . S
O32 C5 1.289 . S
C33 O25 1.258 . S
C33 O26 1.266 . S
Co34 O37 1.970 . S
Co34 N51 1.989 . S
Co34 O59 1.967 . S
Co34 O66 1.920 . S
Co35 O38 1.966 . S
Co35 N44 2.022 . S
Co35 N52 1.993 . S
Co35 O60 1.941 . S
C36 O37 1.258 . S
C36 O38 1.263 . S
O37 Co34 1.970 . S
O37 C36 1.258 . S
O38 Co35 1.966 . S
O38 C36 1.263 . S
C39 O40 1.235 . S
C39 O66 1.289 . S
O40 C39 1.235 . S
C41 C43 1.400 . S
C41 N44 1.351 . S
C41 C46 1.501 . S
C42 C43 1.387 . S
C42 N45 1.341 . S
C43 C41 1.400 . S
C43 C42 1.387 . S
N44 Co35 2.022 . S
N44 C41 1.351 . S
N44 N45 1.365 . S
N45 C42 1.341 . S
N45 N44 1.365 . S
N45 H65 0.862 . S
C46 C41 1.501 . S
C46 H47 0.961 . S
C46 H48 0.961 . S
C46 H49 0.960 . S
H47 C46 0.961 . S
H48 C46 0.961 . S
H49 C46 0.960 . S
C50 N51 1.342 . S
C50 C54 1.401 . S
C50 C55 1.499 . S
N51 Co34 1.989 . S
N51 C50 1.342 . S
N51 N52 1.388 . S
N52 Co35 1.993 . S
N52 N51 1.388 . S
N52 C53 1.346 . S
C53 N52 1.346 . S
C53 C54 1.396 . S
C53 C63 1.510 . S
C54 C50 1.401 . S
C54 C53 1.396 . S
C55 C50 1.499 . S
C55 H56 0.959 . S
C55 H57 0.960 . S
C55 H58 0.961 . S
H56 C55 0.959 . S
H57 C55 0.960 . S
H58 C55 0.961 . S
O59 Co34 1.967 . S
O59 C67 1.258 . S
O60 Co35 1.941 . S
O60 C67 1.266 . S
H61 C63 0.959 . S
H62 C63 0.961 . S
C63 C53 1.510 . S
C63 H61 0.959 . S
C63 H62 0.961 . S
C63 H64 0.960 . S
H64 C63 0.960 . S
H65 N45 0.862 . S
O66 Co34 1.920 . S
O66 C39 1.289 . S
C67 O59 1.258 . S
C67 O60 1.266 . S
Co68 O71 1.970 . S
Co68 N85 1.989 . S
Co68 O93 1.967 . S
Co68 O100 1.920 . S
Co69 O72 1.966 . S
Co69 N78 2.022 . S
Co69 N86 1.993 . S
Co69 O94 1.941 . S
C70 O71 1.258 . S
C70 O72 1.263 . S
O71 Co68 1.970 . S
O71 C70 1.258 . S
O72 Co69 1.966 . S
O72 C70 1.263 . S
C73 O74 1.235 . S
C73 O100 1.289 . S
O74 C73 1.235 . S
C75 C77 1.400 . S
C75 N78 1.351 . S
C75 C80 1.501 . S
C76 C77 1.387 1_545 S
C76 N79 1.341 1_545 S
C77 C75 1.400 . S
C77 C76 1.387 1_565 S
N78 Co69 2.022 . S
N78 C75 1.351 . S
N78 N79 1.365 . S
N79 C76 1.341 1_565 S
N79 N78 1.365 . S
N79 H99 0.862 1_565 S
C80 C75 1.501 . S
C80 H81 0.961 . S
C80 H82 0.961 . S
C80 H83 0.960 . S
H81 C80 0.961 . S
H82 C80 0.961 . S
H83 C80 0.960 . S
C84 N85 1.342 1_545 S
C84 C88 1.401 . S
C84 C89 1.499 . S
N85 Co68 1.989 . S
N85 C84 1.342 1_565 S
N85 N86 1.388 . S
N86 Co69 1.993 . S
N86 N85 1.388 . S
N86 C87 1.346 1_565 S
C87 N86 1.346 1_545 S
C87 C88 1.396 . S
C87 C97 1.510 . S
C88 C84 1.401 . S
C88 C87 1.396 . S
C89 C84 1.499 . S
C89 H90 0.959 1_545 S
C89 H91 0.960 . S
C89 H92 0.961 . S
H90 C89 0.959 1_565 S
H91 C89 0.960 . S
H92 C89 0.961 . S
O93 Co68 1.967 . S
O93 C101 1.258 . S
O94 Co69 1.941 . S
O94 C101 1.266 . S
H95 C97 0.959 . S
H96 C97 0.961 . S
C97 C87 1.510 . S
C97 H95 0.959 . S
C97 H96 0.961 . S
C97 H98 0.960 . S
H98 C97 0.960 . S
H99 N79 0.862 1_545 S
O100 Co68 1.920 . S
O100 C73 1.289 . S
C101 O93 1.258 . S
C101 O94 1.266 . S
Co102 O105 1.970 . S
Co102 N119 1.989 . S
Co102 O127 1.967 . S
Co102 O134 1.920 . S
Co103 O106 1.966 . S
Co103 N112 2.022 . S
Co103 N120 1.993 . S
Co103 O128 1.941 . S
C104 O105 1.258 . S
C104 O106 1.263 . S
O105 Co102 1.970 . S
O105 C104 1.258 . S
O106 Co103 1.966 . S
O106 C104 1.263 . S
C107 O108 1.235 . S
C107 O134 1.289 . S
O108 C107 1.235 . S
C109 C111 1.400 . S
C109 N112 1.351 . S
C109 C114 1.501 . S
C110 C111 1.387 . S
C110 N113 1.341 . S
C111 C109 1.400 . S
C111 C110 1.387 . S
N112 Co103 2.022 . S
N112 C109 1.351 . S
N112 N113 1.365 . S
N113 C110 1.341 . S
N113 N112 1.365 . S
N113 H133 0.862 . S
C114 C109 1.501 . S
C114 H115 0.961 . S
C114 H116 0.961 . S
C114 H117 0.960 . S
H115 C114 0.961 . S
H116 C114 0.961 . S
H117 C114 0.960 . S
C118 N119 1.342 . S
C118 C122 1.401 . S
C118 C123 1.499 . S
N119 Co102 1.989 . S
N119 C118 1.342 . S
N119 N120 1.388 . S
N120 Co103 1.993 . S
N120 N119 1.388 . S
N120 C121 1.346 . S
C121 N120 1.346 . S
C121 C122 1.396 . S
C121 C131 1.510 . S
C122 C118 1.401 . S
C122 C121 1.396 . S
C123 C118 1.499 . S
C123 H124 0.959 . S
C123 H125 0.960 . S
C123 H126 0.961 . S
H124 C123 0.959 . S
H125 C123 0.960 . S
H126 C123 0.961 . S
O127 Co102 1.967 . S
O127 C135 1.258 . S
O128 Co103 1.941 . S
O128 C135 1.266 . S
H129 C131 0.959 . S
H130 C131 0.961 . S
C131 C121 1.510 . S
C131 H129 0.959 . S
C131 H130 0.961 . S
C131 H132 0.960 . S
H132 C131 0.960 . S
H133 N113 0.862 . S
O134 Co102 1.920 . S
O134 C107 1.289 . S
C135 O127 1.258 . S
C135 O128 1.266 . S
Co136 O139 1.970 . S
Co136 N153 1.989 . S
Co136 O161 1.967 . S
Co136 O168 1.920 . S
Co137 O140 1.966 . S
Co137 N146 2.022 . S
Co137 N154 1.993 . S
Co137 O162 1.941 . S
C138 O139 1.258 . S
C138 O140 1.263 . S
O139 Co136 1.970 . S
O139 C138 1.258 . S
O140 Co137 1.966 . S
O140 C138 1.263 . S
C141 O142 1.235 . S
C141 O168 1.289 . S
O142 C141 1.235 . S
C143 C145 1.400 . S
C143 N146 1.351 . S
C143 C148 1.501 . S
C144 C145 1.387 . S
C144 N147 1.341 . S
C145 C143 1.400 . S
C145 C144 1.387 . S
N146 Co137 2.022 . S
N146 C143 1.351 . S
N146 N147 1.365 . S
N147 C144 1.341 . S
N147 N146 1.365 . S
N147 H167 0.862 . S
C148 C143 1.501 . S
C148 H149 0.961 . S
C148 H150 0.961 . S
C148 H151 0.960 . S
H149 C148 0.961 . S
H150 C148 0.961 . S
H151 C148 0.960 . S
C152 N153 1.342 . S
C152 C156 1.401 . S
C152 C157 1.499 . S
N153 Co136 1.989 . S
N153 C152 1.342 . S
N153 N154 1.388 . S
N154 Co137 1.993 . S
N154 N153 1.388 . S
N154 C155 1.346 . S
C155 N154 1.346 . S
C155 C156 1.396 . S
C155 C165 1.510 . S
C156 C152 1.401 . S
C156 C155 1.396 . S
C157 C152 1.499 . S
C157 H158 0.959 . S
C157 H159 0.960 . S
C157 H160 0.961 . S
H158 C157 0.959 . S
H159 C157 0.960 . S
H160 C157 0.961 . S
O161 Co136 1.967 . S
O161 C169 1.258 . S
O162 Co137 1.941 . S
O162 C169 1.266 . S
H163 C165 0.959 . S
H164 C165 0.961 . S
C165 C155 1.510 . S
C165 H163 0.959 . S
C165 H164 0.961 . S
C165 H166 0.960 . S
H166 C165 0.960 . S
H167 N147 0.862 . S
O168 Co136 1.920 . S
O168 C141 1.289 . S
C169 O161 1.258 . S
C169 O162 1.266 . S
Co170 O173 1.970 . S
Co170 N187 1.989 . S
Co170 O195 1.967 . S
Co170 O202 1.920 . S
Co171 O174 1.966 . S
Co171 N180 2.022 . S
Co171 N188 1.993 . S
Co171 O196 1.941 . S
C172 O173 1.258 . S
C172 O174 1.263 . S
O173 Co170 1.970 . S
O173 C172 1.258 . S
O174 Co171 1.966 . S
O174 C172 1.263 . S
C175 O176 1.235 . S
C175 O202 1.289 . S
O176 C175 1.235 . S
C177 C179 1.400 . S
C177 N180 1.351 . S
C177 C182 1.501 . S
C178 C179 1.387 . S
C178 N181 1.341 . S
C179 C177 1.400 . S
C179 C178 1.387 . S
N180 Co171 2.022 . S
N180 C177 1.351 . S
N180 N181 1.365 . S
N181 C178 1.341 . S
N181 N180 1.365 . S
N181 H201 0.862 . S
C182 C177 1.501 . S
C182 H183 0.961 . S
C182 H184 0.961 . S
C182 H185 0.960 . S
H183 C182 0.961 . S
H184 C182 0.961 . S
H185 C182 0.960 . S
C186 N187 1.342 . S
C186 C190 1.401 1_455 S
C186 C191 1.499 . S
N187 Co170 1.989 . S
N187 C186 1.342 . S
N187 N188 1.388 . S
N188 Co171 1.993 . S
N188 N187 1.388 . S
N188 C189 1.346 1_455 S
C189 N188 1.346 1_655 S
C189 C190 1.396 . S
C189 C199 1.510 . S
C190 C186 1.401 1_655 S
C190 C189 1.396 . S
C191 C186 1.499 . S
C191 H192 0.959 . S
C191 H193 0.960 1_455 S
C191 H194 0.961 1_455 S
H192 C191 0.959 . S
H193 C191 0.960 1_655 S
H194 C191 0.961 1_655 S
O195 Co170 1.967 . S
O195 C203 1.258 . S
O196 Co171 1.941 . S
O196 C203 1.266 . S
H197 C199 0.959 . S
H198 C199 0.961 . S
C199 C189 1.510 . S
C199 H197 0.959 . S
C199 H198 0.961 . S
C199 H200 0.960 . S
H200 C199 0.960 . S
H201 N181 0.862 . S
O202 Co170 1.920 . S
O202 C175 1.289 . S
C203 O195 1.258 . S
C203 O196 1.266 . S
Co204 O207 1.970 . S
Co204 N221 1.989 . S
Co204 O229 1.967 . S
Co204 O236 1.920 . S
Co205 O208 1.966 . S
Co205 N214 2.022 . S
Co205 N222 1.993 . S
Co205 O230 1.941 . S
C206 O207 1.258 . S
C206 O208 1.263 . S
O207 Co204 1.970 . S
O207 C206 1.258 . S
O208 Co205 1.966 . S
O208 C206 1.263 . S
C209 O210 1.235 . S
C209 O236 1.289 . S
O210 C209 1.235 . S
C211 C213 1.400 . S
C211 N214 1.351 . S
C211 C216 1.501 . S
C212 C213 1.387 . S
C212 N215 1.341 . S
C213 C211 1.400 . S
C213 C212 1.387 . S
N214 Co205 2.022 . S
N214 C211 1.351 . S
N214 N215 1.365 . S
N215 C212 1.341 . S
N215 N214 1.365 . S
N215 H235 0.862 . S
C216 C211 1.501 . S
C216 H217 0.961 . S
C216 H218 0.961 . S
C216 H219 0.960 . S
H217 C216 0.961 . S
H218 C216 0.961 . S
H219 C216 0.960 . S
C220 N221 1.342 . S
C220 C224 1.401 . S
C220 C225 1.499 . S
N221 Co204 1.989 . S
N221 C220 1.342 . S
N221 N222 1.388 . S
N222 Co205 1.993 . S
N222 N221 1.388 . S
N222 C223 1.346 . S
C223 N222 1.346 . S
C223 C224 1.396 . S
C223 C233 1.510 . S
C224 C220 1.401 . S
C224 C223 1.396 . S
C225 C220 1.499 . S
C225 H226 0.959 . S
C225 H227 0.960 . S
C225 H228 0.961 . S
H226 C225 0.959 . S
H227 C225 0.960 . S
H228 C225 0.961 . S
O229 Co204 1.967 . S
O229 C237 1.258 . S
O230 Co205 1.941 . S
O230 C237 1.266 . S
H231 C233 0.959 . S
H232 C233 0.961 . S
C233 C223 1.510 . S
C233 H231 0.959 . S
C233 H232 0.961 . S
C233 H234 0.960 . S
H234 C233 0.960 . S
H235 N215 0.862 . S
O236 Co204 1.920 . S
O236 C209 1.289 . S
C237 O229 1.258 . S
C237 O230 1.266 . S
Co238 O241 1.970 . S
Co238 N255 1.989 . S
Co238 O263 1.967 . S
Co238 O270 1.920 . S
Co239 O242 1.966 . S
Co239 N248 2.022 . S
Co239 N256 1.993 . S
Co239 O264 1.941 . S
C240 O241 1.258 . S
C240 O242 1.263 . S
O241 Co238 1.970 . S
O241 C240 1.258 . S
O242 Co239 1.966 . S
O242 C240 1.263 . S
C243 O244 1.235 . S
C243 O270 1.289 . S
O244 C243 1.235 . S
C245 C247 1.400 . S
C245 N248 1.351 . S
C245 C250 1.501 . S
C246 C247 1.387 1_455 S
C246 N249 1.341 1_455 S
C247 C245 1.400 . S
C247 C246 1.387 1_655 S
N248 Co239 2.022 . S
N248 C245 1.351 . S
N248 N249 1.365 . S
N249 C246 1.341 1_655 S
N249 N248 1.365 . S
N249 H269 0.862 1_655 S
C250 C245 1.501 . S
C250 H251 0.961 . S
C250 H252 0.961 . S
C250 H253 0.960 . S
H251 C250 0.961 . S
H252 C250 0.961 . S
H253 C250 0.960 . S
C254 N255 1.342 1_455 S
C254 C258 1.401 . S
C254 C259 1.499 . S
N255 Co238 1.989 . S
N255 C254 1.342 1_655 S
N255 N256 1.388 . S
N256 Co239 1.993 . S
N256 N255 1.388 . S
N256 C257 1.346 1_655 S
C257 N256 1.346 1_455 S
C257 C258 1.396 . S
C257 C267 1.510 . S
C258 C254 1.401 . S
C258 C257 1.396 . S
C259 C254 1.499 . S
C259 H260 0.959 1_455 S
C259 H261 0.960 . S
C259 H262 0.961 . S
H260 C259 0.959 1_655 S
H261 C259 0.960 . S
H262 C259 0.961 . S
O263 Co238 1.967 . S
O263 C271 1.258 . S
O264 Co239 1.941 . S
O264 C271 1.266 . S
H265 C267 0.959 . S
H266 C267 0.961 . S
C267 C257 1.510 . S
C267 H265 0.959 . S
C267 H266 0.961 . S
C267 H268 0.960 . S
H268 C267 0.960 . S
H269 N249 0.862 1_455 S
O270 Co238 1.920 . S
O270 C243 1.289 . S
C271 O263 1.258 . S
C271 O264 1.266 . S
H272 C280 0.929 . S
H273 C282 0.930 . S
H274 C284 0.930 . S
H275 C287 0.929 . S
H276 C290 0.930 . S
H277 C292 0.968 . S
H278 C292 0.961 . S
H279 C292 0.951 1_554 S
C280 H272 0.929 . S
C280 C281 1.377 . S
C280 C282 1.384 . S
C281 C280 1.377 . S
C281 C287 1.390 . S
C282 H273 0.930 . S
C282 C280 1.384 . S
C282 C283 1.372 . S
C283 C282 1.372 . S
C283 C284 1.400 . S
C283 C288 1.490 . S
C284 H274 0.930 . S
C284 C283 1.400 . S
C284 C287 1.386 . S
H285 C301 0.930 . S
H286 C302 0.931 . S
C287 H275 0.929 . S
C287 C281 1.390 . S
C287 C284 1.386 . S
C288 C283 1.490 . S
C288 C290 1.395 . S
C288 C291 1.427 . S
H289 C295 0.930 . S
C290 H276 0.930 . S
C290 C288 1.395 . S
C290 C293 1.387 1_554 S
C291 C288 1.427 . S
C291 C292 1.523 1_554 S
C291 C295 1.376 1_554 S
C292 H277 0.968 . S
C292 H278 0.961 . S
C292 H279 0.951 1_556 S
C292 C291 1.523 1_556 S
C293 C290 1.387 1_556 S
C293 C294 1.408 . S
C293 C297 1.495 . S
C294 C293 1.408 . S
C294 C295 1.385 . S
C294 C296 1.478 . S
C295 H289 0.930 . S
C295 C291 1.376 1_556 S
C295 C294 1.385 . S
C296 C294 1.478 . S
C296 C298 1.381 . S
C296 C302 1.383 . S
C297 C293 1.495 . S
C297 H303 0.950 1_556 S
C297 H304 0.957 1_556 S
C297 H305 0.970 . S
C298 C296 1.381 . S
C298 C299 1.394 . S
C298 H306 0.930 . S
C299 C298 1.394 . S
C299 C300 1.383 . S
C299 H307 0.929 . S
C300 C299 1.383 . S
C300 C301 1.377 . S
C301 H285 0.930 . S
C301 C300 1.377 . S
C301 C302 1.379 . S
C302 H286 0.931 . S
C302 C296 1.383 . S
C302 C301 1.379 . S
H303 C297 0.950 1_554 S
H304 C297 0.957 1_554 S
H305 C297 0.970 . S
H306 C298 0.930 . S
H307 C299 0.929 . S
H308 C316 0.929 . S
H309 C318 0.930 . S
H310 C320 0.930 . S
H311 C323 0.929 . S
H312 C326 0.930 . S
H313 C328 0.960 . S
H314 C328 0.960 . S
H315 C328 0.960 . S
C316 H308 0.929 . S
C316 C317 1.377 . S
C316 C318 1.384 . S
C317 C316 1.377 . S
C317 C323 1.390 . S
C318 H309 0.930 . S
C318 C316 1.384 . S
C318 C319 1.372 . S
C319 C318 1.372 . S
C319 C320 1.400 . S
C319 C324 1.490 . S
C320 H310 0.930 . S
C320 C319 1.400 . S
C320 C323 1.386 . S
H321 C337 0.930 . S
H322 C338 0.931 . S
C323 H311 0.929 . S
C323 C317 1.390 . S
C323 C320 1.386 . S
C324 C319 1.490 . S
C324 C326 1.395 . S
C324 C327 1.403 . S
H325 C331 0.930 . S
C326 H312 0.930 . S
C326 C324 1.395 . S
C326 C329 1.403 . S
C327 C324 1.403 . S
C327 C328 1.524 . S
C327 C331 1.400 . S
C328 H313 0.960 . S
C328 H314 0.960 . S
C328 H315 0.960 . S
C328 C327 1.524 . S
C329 C326 1.403 . S
C329 C330 1.392 . S
C329 C333 1.495 . S
C330 C329 1.392 . S
C330 C331 1.385 . S
C330 C332 1.478 . S
C331 H325 0.930 . S
C331 C327 1.400 . S
C331 C330 1.385 . S
C332 C330 1.478 . S
C332 C334 1.381 . S
C332 C338 1.383 . S
C333 C329 1.495 . S
C333 H339 0.959 . S
C333 H340 0.961 . S
C333 H341 0.960 . S
C334 C332 1.381 . S
C334 C335 1.394 . S
C334 H342 0.930 . S
C335 C334 1.394 . S
C335 C336 1.383 . S
C335 H343 0.929 . S
C336 C335 1.383 . S
C336 C337 1.377 . S
C337 H321 0.930 . S
C337 C336 1.377 . S
C337 C338 1.379 . S
C338 H322 0.931 . S
C338 C332 1.383 . S
C338 C337 1.379 . S
H339 C333 0.959 . S
H340 C333 0.961 . S
H341 C333 0.960 . S
H342 C334 0.930 . S
H343 C335 0.929 . S
H344 C352 0.929 . S
H345 C354 0.930 . S
H346 C356 0.930 . S
H347 C359 0.929 . S
H348 C362 0.930 . S
H349 C364 0.960 . S
H350 C364 0.960 . S
H351 C364 0.960 . S
C352 H344 0.929 . S
C352 C353 1.377 . S
C352 C354 1.384 . S
C353 C352 1.377 . S
C353 C359 1.390 . S
C354 H345 0.930 . S
C354 C352 1.384 . S
C354 C355 1.372 . S
C355 C354 1.372 . S
C355 C356 1.400 . S
C355 C360 1.490 . S
C356 H346 0.930 . S
C356 C355 1.400 . S
C356 C359 1.386 . S
H357 C373 0.930 . S
H358 C374 0.931 . S
C359 H347 0.929 . S
C359 C353 1.390 . S
C359 C356 1.386 . S
C360 C355 1.490 . S
C360 C362 1.395 . S
C360 C363 1.403 . S
H361 C367 0.930 . S
C362 H348 0.930 . S
C362 C360 1.395 . S
C362 C365 1.403 . S
C363 C360 1.403 . S
C363 C364 1.524 . S
C363 C367 1.400 . S
C364 H349 0.960 . S
C364 H350 0.960 . S
C364 H351 0.960 . S
C364 C363 1.524 . S
C365 C362 1.403 . S
C365 C366 1.392 . S
C365 C369 1.495 . S
C366 C365 1.392 . S
C366 C367 1.385 . S
C366 C368 1.478 . S
C367 H361 0.930 . S
C367 C363 1.400 . S
C367 C366 1.385 . S
C368 C366 1.478 . S
C368 C370 1.381 . S
C368 C374 1.383 . S
C369 C365 1.495 . S
C369 H375 0.959 . S
C369 H376 0.961 . S
C369 H377 0.960 . S
C370 C368 1.381 . S
C370 C371 1.394 . S
C370 H378 0.930 . S
C371 C370 1.394 . S
C371 C372 1.383 . S
C371 H379 0.929 . S
C372 C371 1.383 . S
C372 C373 1.377 . S
C373 H357 0.930 . S
C373 C372 1.377 . S
C373 C374 1.379 . S
C374 H358 0.931 . S
C374 C368 1.383 . S
C374 C373 1.379 . S
H375 C369 0.959 . S
H376 C369 0.961 . S
H377 C369 0.960 . S
H378 C370 0.930 . S
H379 C371 0.929 . S
H380 C388 0.929 . S
H381 C390 0.930 . S
H382 C392 0.930 . S
H383 C395 0.929 . S
H384 C398 0.930 . S
H385 C400 0.960 . S
H386 C400 0.960 . S
H387 C400 0.960 . S
C388 H380 0.929 . S
C388 C389 1.377 . S
C388 C390 1.384 . S
C389 C388 1.377 . S
C389 C395 1.390 . S
C390 H381 0.930 . S
C390 C388 1.384 . S
C390 C391 1.372 . S
C391 C390 1.372 . S
C391 C392 1.400 . S
C391 C396 1.490 . S
C392 H382 0.930 . S
C392 C391 1.400 . S
C392 C395 1.386 . S
H393 C409 0.930 . S
H394 C410 0.931 . S
C395 H383 0.929 . S
C395 C389 1.390 . S
C395 C392 1.386 . S
C396 C391 1.490 . S
C396 C398 1.395 . S
C396 C399 1.403 . S
H397 C403 0.930 . S
C398 H384 0.930 . S
C398 C396 1.395 . S
C398 C401 1.403 . S
C399 C396 1.403 . S
C399 C400 1.524 . S
C399 C403 1.400 . S
C400 H385 0.960 . S
C400 H386 0.960 . S
C400 H387 0.960 . S
C400 C399 1.524 . S
C401 C398 1.403 . S
C401 C402 1.392 . S
C401 C405 1.495 . S
C402 C401 1.392 . S
C402 C403 1.385 . S
C402 C404 1.478 . S
C403 H397 0.930 . S
C403 C399 1.400 . S
C403 C402 1.385 . S
C404 C402 1.478 . S
C404 C406 1.381 . S
C404 C410 1.383 . S
C405 C401 1.495 . S
C405 H411 0.959 . S
C405 H412 0.961 . S
C405 H413 0.960 . S
C406 C404 1.381 . S
C406 C407 1.394 . S
C406 H414 0.930 . S
C407 C406 1.394 . S
C407 C408 1.383 . S
C407 H415 0.929 . S
C408 C407 1.383 . S
C408 C409 1.377 . S
C409 H393 0.930 . S
C409 C408 1.377 . S
C409 C410 1.379 . S
C410 H394 0.931 . S
C410 C404 1.383 . S
C410 C409 1.379 . S
H411 C405 0.959 . S
H412 C405 0.961 . S
H413 C405 0.960 . S
H414 C406 0.930 . S
H415 C407 0.929 . S
H416 C424 0.929 . S
H417 C426 0.930 . S
H418 C428 0.930 . S
H419 C431 0.929 . S
H420 C434 0.930 . S
H421 C436 0.960 . S
H422 C436 0.960 . S
H423 C436 0.960 . S
C424 H416 0.929 . S
C424 C425 1.377 . S
C424 C426 1.384 . S
C425 C424 1.377 . S
C425 C431 1.390 . S
C426 H417 0.930 . S
C426 C424 1.384 . S
C426 C427 1.372 . S
C427 C426 1.372 . S
C427 C428 1.400 . S
C427 C432 1.490 . S
C428 H418 0.930 . S
C428 C427 1.400 . S
C428 C431 1.386 . S
H429 C445 0.930 . S
H430 C446 0.931 . S
C431 H419 0.929 . S
C431 C425 1.390 . S
C431 C428 1.386 . S
C432 C427 1.490 . S
C432 C434 1.395 1_556 S
C432 C435 1.403 . S
H433 C439 0.930 . S
C434 H420 0.930 . S
C434 C432 1.395 1_554 S
C434 C437 1.403 . S
C435 C432 1.403 . S
C435 C436 1.524 . S
C435 C439 1.400 1_556 S
C436 H421 0.960 . S
C436 H422 0.960 . S
C436 H423 0.960 . S
C436 C435 1.524 . S
C437 C434 1.403 . S
C437 C438 1.392 . S
C437 C441 1.495 . S
C438 C437 1.392 . S
C438 C439 1.385 . S
C438 C440 1.478 . S
C439 H433 0.930 . S
C439 C435 1.400 1_554 S
C439 C438 1.385 . S
C440 C438 1.478 . S
C440 C442 1.381 . S
C440 C446 1.383 . S
C441 C437 1.495 . S
C441 H447 0.959 . S
C441 H448 0.961 . S
C441 H449 0.960 . S
C442 C440 1.381 . S
C442 C443 1.394 . S
C442 H450 0.930 . S
C443 C442 1.394 . S
C443 C444 1.383 . S
C443 H451 0.929 . S
C444 C443 1.383 . S
C444 C445 1.377 . S
C445 H429 0.930 . S
C445 C444 1.377 . S
C445 C446 1.379 . S
C446 H430 0.931 . S
C446 C440 1.383 . S
C446 C445 1.379 . S
H447 C441 0.959 . S
H448 C441 0.961 . S
H449 C441 0.960 . S
H450 C442 0.930 . S
H451 C443 0.929 . S
H452 C460 0.929 . S
H453 C462 0.930 . S
H454 C464 0.930 . S
H455 C467 0.929 . S
H456 C470 0.930 . S
H457 C472 0.960 . S
H458 C472 0.960 . S
H459 C472 0.960 . S
C460 H452 0.929 . S
C460 C461 1.377 . S
C460 C462 1.384 . S
C461 C460 1.377 . S
C461 C467 1.390 . S
C462 H453 0.930 . S
C462 C460 1.384 . S
C462 C463 1.372 . S
C463 C462 1.372 . S
C463 C464 1.400 . S
C463 C468 1.490 . S
C464 H454 0.930 . S
C464 C463 1.400 . S
C464 C467 1.386 . S
H465 C481 0.930 . S
H466 C482 0.931 . S
C467 H455 0.929 . S
C467 C461 1.390 . S
C467 C464 1.386 . S
C468 C463 1.490 . S
C468 C470 1.395 . S
C468 C471 1.403 . S
H469 C475 0.930 . S
C470 H456 0.930 . S
C470 C468 1.395 . S
C470 C473 1.403 . S
C471 C468 1.403 . S
C471 C472 1.524 . S
C471 C475 1.400 . S
C472 H457 0.960 . S
C472 H458 0.960 . S
C472 H459 0.960 . S
C472 C471 1.524 . S
C473 C470 1.403 . S
C473 C474 1.392 . S
C473 C477 1.495 1_565 S
C474 C473 1.392 . S
C474 C475 1.385 . S
C474 C476 1.478 . S
C475 H469 0.930 . S
C475 C471 1.400 . S
C475 C474 1.385 . S
C476 C474 1.478 . S
C476 C478 1.381 . S
C476 C482 1.383 1_565 S
C477 C473 1.495 1_545 S
C477 H483 0.959 . S
C477 H484 0.961 . S
C477 H485 0.951 1_545 S
C478 C476 1.381 . S
C478 C479 1.394 1_565 S
C478 H486 0.930 . S
C479 C478 1.394 1_545 S
C479 C480 1.383 . S
C479 H487 0.929 1_545 S
C480 C479 1.383 . S
C480 C481 1.377 . S
C481 H465 0.930 . S
C481 C480 1.377 . S
C481 C482 1.379 . S
C482 H466 0.931 . S
C482 C476 1.383 1_545 S
C482 C481 1.379 . S
H483 C477 0.959 . S
H484 C477 0.961 . S
H485 C477 0.951 1_565 S
H486 C478 0.930 . S
H487 C479 0.929 1_565 S
H488 C496 0.929 . S
H489 C498 0.930 . S
H490 C500 0.930 . S
H491 C503 0.929 . S
H492 C506 0.930 . S
H493 C508 0.960 . S
H494 C508 0.960 . S
H495 C508 0.960 . S
C496 H488 0.929 . S
C496 C497 1.377 . S
C496 C498 1.384 . S
C497 C496 1.377 . S
C497 C503 1.390 . S
C498 H489 0.930 . S
C498 C496 1.384 . S
C498 C499 1.372 . S
C499 C498 1.372 . S
C499 C500 1.400 . S
C499 C504 1.490 . S
C500 H490 0.930 . S
C500 C499 1.400 . S
C500 C503 1.386 . S
H501 C517 0.930 . S
H502 C518 0.931 . S
C503 H491 0.929 . S
C503 C497 1.390 . S
C503 C500 1.386 . S
C504 C499 1.490 . S
C504 C506 1.395 . S
C504 C507 1.403 . S
H505 C511 0.930 . S
C506 H492 0.930 . S
C506 C504 1.395 . S
C506 C509 1.403 . S
C507 C504 1.403 . S
C507 C508 1.524 . S
C507 C511 1.400 . S
C508 H493 0.960 . S
C508 H494 0.960 . S
C508 H495 0.960 . S
C508 C507 1.524 . S
C509 C506 1.403 . S
C509 C510 1.392 . S
C509 C513 1.495 . S
C510 C509 1.392 . S
C510 C511 1.385 . S
C510 C512 1.478 . S
C511 H505 0.930 . S
C511 C507 1.400 . S
C511 C510 1.385 . S
C512 C510 1.478 . S
C512 C514 1.381 . S
C512 C518 1.383 . S
C513 C509 1.495 . S
C513 H519 0.959 . S
C513 H520 0.961 . S
C513 H521 0.960 . S
C514 C512 1.381 . S
C514 C515 1.394 . S
C514 H522 0.930 . S
C515 C514 1.394 . S
C515 C516 1.383 . S
C515 H523 0.929 . S
C516 C515 1.383 . S
C516 C517 1.377 . S
C517 H501 0.930 . S
C517 C516 1.377 . S
C517 C518 1.379 . S
C518 H502 0.931 . S
C518 C512 1.383 . S
C518 C517 1.379 . S
H519 C513 0.959 . S
H520 C513 0.961 . S
H521 C513 0.960 . S
H522 C514 0.930 . S
H523 C515 0.929 . S
H524 C532 0.929 . S
H525 C534 0.930 . S
H526 C536 0.930 . S
H527 C539 0.929 . S
H528 C542 0.930 . S
H529 C544 0.960 . S
H530 C544 0.960 . S
H531 C544 0.960 . S
C532 H524 0.929 . S
C532 C533 1.377 . S
C532 C534 1.384 . S
C533 C532 1.377 . S
C533 C539 1.390 . S
C534 H525 0.930 . S
C534 C532 1.384 . S
C534 C535 1.372 . S
C535 C534 1.372 . S
C535 C536 1.400 . S
C535 C540 1.490 . S
C536 H526 0.930 . S
C536 C535 1.400 . S
C536 C539 1.386 . S
H537 C553 0.930 . S
H538 C554 0.931 . S
C539 H527 0.929 . S
C539 C533 1.390 . S
C539 C536 1.386 . S
C540 C535 1.490 . S
C540 C542 1.395 . S
C540 C543 1.403 . S
H541 C547 0.930 . S
C542 H528 0.930 . S
C542 C540 1.395 . S
C542 C545 1.403 . S
C543 C540 1.403 . S
C543 C544 1.524 . S
C543 C547 1.400 . S
C544 H529 0.960 . S
C544 H530 0.960 . S
C544 H531 0.960 . S
C544 C543 1.524 . S
C545 C542 1.403 . S
C545 C546 1.392 . S
C545 C549 1.495 1_545 S
C546 C545 1.392 . S
C546 C547 1.385 . S
C546 C548 1.478 . S
C547 H541 0.930 . S
C547 C543 1.400 . S
C547 C546 1.385 . S
C548 C546 1.478 . S
C548 C550 1.381 1_545 S
C548 C554 1.383 . S
C549 C545 1.495 1_565 S
C549 H555 0.959 . S
C549 H556 0.961 . S
C549 H557 0.960 . S
C550 C548 1.381 1_565 S
C550 C551 1.394 . S
C550 H558 0.930 . S
C551 C550 1.394 . S
C551 C552 1.383 . S
C551 H559 0.929 . S
C552 C551 1.383 . S
C552 C553 1.377 . S
C553 H537 0.930 . S
C553 C552 1.377 . S
C553 C554 1.379 1_565 S
C554 H538 0.931 . S
C554 C548 1.383 . S
C554 C553 1.379 1_545 S
H555 C549 0.959 . S
H556 C549 0.961 . S
H557 C549 0.960 . S
H558 C550 0.930 . S
H559 C551 0.929 . S
H560 C568 0.929 . S
H561 C570 0.939 . S
H562 C572 0.930 . S
H563 C575 0.929 . S
H564 C578 0.930 1_455 S
H565 C580 0.960 . S
H566 C580 0.960 . S
H567 C580 0.960 . S
C568 H560 0.929 . S
C568 C569 1.377 . S
C568 C570 1.372 1_455 S
C569 C568 1.377 . S
C569 C575 1.390 . S
C570 H561 0.939 . S
C570 C568 1.372 1_655 S
C570 C571 1.376 . S
C571 C570 1.376 . S
C571 C572 1.400 1_655 S
C571 C576 1.490 . S
C572 H562 0.930 . S
C572 C571 1.400 1_455 S
C572 C575 1.386 . S
H573 C589 0.930 . S
H574 C590 0.931 . S
C575 H563 0.929 . S
C575 C569 1.390 . S
C575 C572 1.386 . S
C576 C571 1.490 . S
C576 C578 1.395 . S
C576 C579 1.403 . S
H577 C583 0.930 . S
C578 H564 0.930 1_655 S
C578 C576 1.395 . S
C578 C581 1.403 . S
C579 C576 1.403 . S
C579 C580 1.524 . S
C579 C583 1.400 . S
C580 H565 0.960 . S
C580 H566 0.960 . S
C580 H567 0.960 . S
C580 C579 1.524 . S
C581 C578 1.403 . S
C581 C582 1.392 . S
C581 C585 1.495 1_655 S
C582 C581 1.392 . S
C582 C583 1.385 . S
C582 C584 1.478 . S
C583 H577 0.930 . S
C583 C579 1.400 . S
C583 C582 1.385 . S
C584 C582 1.478 . S
C584 C586 1.381 . S
C584 C590 1.383 . S
C585 C581 1.495 1_455 S
C585 H591 0.959 . S
C585 H592 0.961 . S
C585 H593 0.960 1_455 S
C586 C584 1.381 . S
C586 C587 1.394 . S
C586 H594 0.930 . S
C587 C586 1.394 . S
C587 C588 1.383 . S
C587 H595 0.929 . S
C588 C587 1.383 . S
C588 C589 1.377 . S
C589 H573 0.930 . S
C589 C588 1.377 . S
C589 C590 1.379 . S
C590 H574 0.931 . S
C590 C584 1.383 . S
C590 C589 1.379 . S
H591 C585 0.959 . S
H592 C585 0.961 . S
H593 C585 0.960 1_655 S
H594 C586 0.930 . S
H595 C587 0.929 . S
H596 C604 0.929 . S
H597 C606 0.930 . S
H598 C608 0.930 . S
H599 C611 0.929 . S
H600 C614 0.930 . S
H601 C616 0.960 . S
H602 C616 0.960 . S
H603 C616 0.960 . S
C604 H596 0.929 . S
C604 C605 1.377 . S
C604 C606 1.384 . S
C605 C604 1.377 . S
C605 C611 1.390 . S
C606 H597 0.930 . S
C606 C604 1.384 . S
C606 C607 1.372 . S
C607 C606 1.372 . S
C607 C608 1.400 . S
C607 C612 1.490 . S
C608 H598 0.930 . S
C608 C607 1.400 . S
C608 C611 1.386 . S
H609 C625 0.930 . S
H610 C626 0.931 . S
C611 H599 0.929 . S
C611 C605 1.390 . S
C611 C608 1.386 . S
C612 C607 1.490 . S
C612 C614 1.395 . S
C612 C615 1.403 . S
H613 C619 0.930 . S
C614 H600 0.930 . S
C614 C612 1.395 . S
C614 C617 1.403 . S
C615 C612 1.403 . S
C615 C616 1.524 . S
C615 C619 1.400 1_556 S
C616 H601 0.960 . S
C616 H602 0.960 . S
C616 H603 0.960 . S
C616 C615 1.524 . S
C617 C614 1.403 . S
C617 C618 1.392 1_556 S
C617 C621 1.495 1_556 S
C618 C617 1.392 1_554 S
C618 C619 1.385 . S
C618 C620 1.478 . S
C619 H613 0.930 . S
C619 C615 1.400 1_554 S
C619 C618 1.385 . S
C620 C618 1.478 . S
C620 C622 1.381 . S
C620 C626 1.383 . S
C621 C617 1.495 1_554 S
C621 H627 0.959 1_554 S
C621 H628 0.961 . S
C621 H629 0.960 . S
C622 C620 1.381 . S
C622 C623 1.394 . S
C622 H630 0.930 . S
C623 C622 1.394 . S
C623 C624 1.383 . S
C623 H631 0.929 . S
C624 C623 1.383 . S
C624 C625 1.377 . S
C625 H609 0.930 . S
C625 C624 1.377 . S
C625 C626 1.379 . S
C626 H610 0.931 . S
C626 C620 1.383 . S
C626 C625 1.379 . S
H627 C621 0.959 1_556 S
H628 C621 0.961 . S
H629 C621 0.960 . S
H630 C622 0.930 . S
H631 C623 0.929 . S
H632 C640 0.929 . S
H633 C642 0.930 . S
H634 C644 0.930 . S
H635 C647 0.929 . S
H636 C650 0.930 . S
H637 C652 0.960 1_655 S
H638 C652 0.960 . S
H639 C652 0.960 . S
C640 H632 0.929 . S
C640 C641 1.377 . S
C640 C642 1.384 . S
C641 C640 1.377 . S
C641 C647 1.390 . S
C642 H633 0.930 . S
C642 C640 1.384 . S
C642 C643 1.372 . S
C643 C642 1.372 . S
C643 C644 1.400 . S
C643 C648 1.490 . S
C644 H634 0.930 . S
C644 C643 1.400 . S
C644 C647 1.386 . S
H645 C661 0.930 . S
H646 C662 0.931 . S
C647 H635 0.929 . S
C647 C641 1.390 . S
C647 C644 1.386 . S
C648 C643 1.490 . S
C648 C650 1.395 . S
C648 C651 1.403 . S
H649 C655 0.930 1_655 S
C650 H636 0.930 . S
C650 C648 1.395 . S
C650 C653 1.403 . S
C651 C648 1.403 . S
C651 C652 1.524 . S
C651 C655 1.400 . S
C652 H637 0.960 1_455 S
C652 H638 0.960 . S
C652 H639 0.960 . S
C652 C651 1.524 . S
C653 C650 1.403 . S
C653 C654 1.392 . S
C653 C657 1.495 . S
C654 C653 1.392 . S
C654 C655 1.385 . S
C654 C656 1.478 . S
C655 H649 0.930 1_455 S
C655 C651 1.400 . S
C655 C654 1.385 . S
C656 C654 1.478 . S
C656 C658 1.381 . S
C656 C662 1.383 1_455 S
C657 C653 1.495 . S
C657 H663 0.959 . S
C657 H664 0.961 . S
C657 H665 0.960 . S
C658 C656 1.381 . S
C658 C659 1.394 . S
C658 H666 0.930 . S
C659 C658 1.394 . S
C659 C660 1.383 1_455 S
C659 H667 0.929 . S
C660 C659 1.383 1_655 S
C660 C661 1.377 . S
C661 H645 0.930 . S
C661 C660 1.377 . S
C661 C662 1.379 . S
C662 H646 0.931 . S
C662 C656 1.383 1_655 S
C662 C661 1.379 . S
H663 C657 0.959 . S
H664 C657 0.961 . S
H665 C657 0.960 . S
H666 C658 0.930 . S
H667 C659 0.929 . S
H668 C676 0.929 . S
H669 C678 0.930 . S
H670 C680 0.930 . S
H671 C683 0.929 . S
H672 C686 0.930 . S
H673 C688 0.960 . S
H674 C688 0.960 . S
H675 C688 0.960 . S
C676 H668 0.929 . S
C676 C677 1.377 . S
C676 C678 1.384 . S
C677 C676 1.377 . S
C677 C683 1.390 . S
C678 H669 0.930 . S
C678 C676 1.384 . S
C678 C679 1.372 . S
C679 C678 1.372 . S
C679 C680 1.400 . S
C679 C684 1.490 . S
C680 H670 0.930 . S
C680 C679 1.400 . S
C680 C683 1.386 . S
H681 C697 0.930 . S
H682 C698 0.931 . S
C683 H671 0.929 . S
C683 C677 1.390 . S
C683 C680 1.386 . S
C684 C679 1.490 . S
C684 C686 1.395 . S
C684 C687 1.403 . S
H685 C691 0.930 . S
C686 H672 0.930 . S
C686 C684 1.395 . S
C686 C689 1.403 . S
C687 C684 1.403 . S
C687 C688 1.524 . S
C687 C691 1.400 . S
C688 H673 0.960 . S
C688 H674 0.960 . S
C688 H675 0.960 . S
C688 C687 1.524 . S
C689 C686 1.403 . S
C689 C690 1.392 . S
C689 C693 1.495 . S
C690 C689 1.392 . S
C690 C691 1.385 . S
C690 C692 1.478 . S
C691 H685 0.930 . S
C691 C687 1.400 . S
C691 C690 1.385 . S
C692 C690 1.478 . S
C692 C694 1.381 . S
C692 C698 1.383 . S
C693 C689 1.495 . S
C693 H699 0.959 . S
C693 H700 0.961 . S
C693 H701 0.960 . S
C694 C692 1.381 . S
C694 C695 1.394 . S
C694 H702 0.930 . S
C695 C694 1.394 . S
C695 C696 1.383 . S
C695 H703 0.929 . S
C696 C695 1.383 . S
C696 C697 1.377 . S
C697 H681 0.930 . S
C697 C696 1.377 . S
C697 C698 1.379 . S
C698 H682 0.931 . S
C698 C692 1.383 . S
C698 C697 1.379 . S
H699 C693 0.959 . S
H700 C693 0.961 . S
H701 C693 0.960 . S
H702 C694 0.930 . S
H703 C695 0.929 . S
H704 C712 0.929 . S
H705 C714 0.930 . S
H706 C716 0.930 . S
H707 C719 0.929 . S
H708 C722 0.930 . S
H709 C724 0.960 . S
H710 C724 0.960 . S
H711 C724 0.960 . S
C712 H704 0.929 . S
C712 C713 1.377 . S
C712 C714 1.384 . S
C713 C712 1.377 . S
C713 C719 1.390 . S
C714 H705 0.930 . S
C714 C712 1.384 . S
C714 C715 1.372 . S
C715 C714 1.372 . S
C715 C716 1.400 . S
C715 C720 1.490 . S
C716 H706 0.930 . S
C716 C715 1.400 . S
C716 C719 1.386 . S
H717 C733 0.930 . S
H718 C734 0.931 . S
C719 H707 0.929 . S
C719 C713 1.390 . S
C719 C716 1.386 . S
C720 C715 1.490 . S
C720 C722 1.395 . S
C720 C723 1.403 . S
H721 C727 0.930 . S
C722 H708 0.930 . S
C722 C720 1.395 . S
C722 C725 1.403 . S
C723 C720 1.403 . S
C723 C724 1.524 . S
C723 C727 1.400 . S
C724 H709 0.960 . S
C724 H710 0.960 . S
C724 H711 0.960 . S
C724 C723 1.524 . S
C725 C722 1.403 . S
C725 C726 1.392 . S
C725 C729 1.495 . S
C726 C725 1.392 . S
C726 C727 1.385 . S
C726 C728 1.478 . S
C727 H721 0.930 . S
C727 C723 1.400 . S
C727 C726 1.385 . S
C728 C726 1.478 . S
C728 C730 1.381 . S
C728 C734 1.383 . S
C729 C725 1.495 . S
C729 H735 0.959 . S
C729 H736 0.961 . S
C729 H737 0.960 . S
C730 C728 1.381 . S
C730 C731 1.394 . S
C730 H738 0.930 . S
C731 C730 1.394 . S
C731 C732 1.383 . S
C731 H739 0.929 . S
C732 C731 1.383 . S
C732 C733 1.377 . S
C733 H717 0.930 . S
C733 C732 1.377 . S
C733 C734 1.379 . S
C734 H718 0.931 . S
C734 C728 1.383 . S
C734 C733 1.379 . S
H735 C729 0.959 . S
H736 C729 0.961 . S
H737 C729 0.960 . S
H738 C730 0.930 . S
H739 C731 0.929 . S
H740 C748 0.929 . S
H741 C750 0.930 . S
H742 C752 0.930 . S
H743 C755 0.929 . S
H744 C758 0.930 . S
H745 C760 0.960 . S
H746 C760 0.960 . S
H747 C760 0.960 . S
C748 H740 0.929 . S
C748 C749 1.377 . S
C748 C750 1.384 . S
C749 C748 1.377 . S
C749 C755 1.390 . S
C750 H741 0.930 . S
C750 C748 1.384 . S
C750 C751 1.372 . S
C751 C750 1.372 . S
C751 C752 1.400 . S
C751 C756 1.490 . S
C752 H742 0.930 . S
C752 C751 1.400 . S
C752 C755 1.386 . S
H753 C769 0.930 . S
H754 C770 0.931 . S
C755 H743 0.929 . S
C755 C749 1.390 . S
C755 C752 1.386 . S
C756 C751 1.490 . S
C756 C758 1.395 . S
C756 C759 1.403 . S
H757 C763 0.930 . S
C758 H744 0.930 . S
C758 C756 1.395 . S
C758 C761 1.403 . S
C759 C756 1.403 . S
C759 C760 1.524 . S
C759 C763 1.400 . S
C760 H745 0.960 . S
C760 H746 0.960 . S
C760 H747 0.960 . S
C760 C759 1.524 . S
C761 C758 1.403 . S
C761 C762 1.392 . S
C761 C765 1.495 . S
C762 C761 1.392 . S
C762 C763 1.385 . S
C762 C764 1.478 . S
C763 H757 0.930 . S
C763 C759 1.400 . S
C763 C762 1.385 . S
C764 C762 1.478 . S
C764 C766 1.381 . S
C764 C770 1.383 . S
C765 C761 1.495 . S
C765 H771 0.959 . S
C765 H772 0.961 . S
C765 H773 0.960 . S
C766 C764 1.381 . S
C766 C767 1.394 . S
C766 H774 0.930 . S
C767 C766 1.394 . S
C767 C768 1.383 . S
C767 H775 0.929 . S
C768 C767 1.383 . S
C768 C769 1.377 . S
C769 H753 0.930 . S
C769 C768 1.377 . S
C769 C770 1.379 . S
C770 H754 0.931 . S
C770 C764 1.383 . S
C770 C769 1.379 . S
H771 C765 0.959 . S
H772 C765 0.961 . S
H773 C765 0.960 . S
H774 C766 0.930 . S
H775 C767 0.929 . S
H776 C784 0.929 . S
H777 C786 0.930 . S
H778 C788 0.930 . S
H779 C791 0.929 . S
H780 C794 0.930 . S
H781 C796 0.960 . S
H782 C796 0.960 . S
H783 C796 0.960 . S
C784 H776 0.929 . S
C784 C785 1.377 . S
C784 C786 1.384 . S
C785 C784 1.377 . S
C785 C791 1.390 . S
C786 H777 0.930 . S
C786 C784 1.384 . S
C786 C787 1.372 . S
C787 C786 1.372 . S
C787 C788 1.400 . S
C787 C792 1.490 . S
C788 H778 0.930 . S
C788 C787 1.400 . S
C788 C791 1.386 . S
H789 C805 0.930 . S
H790 C806 0.931 . S
C791 H779 0.929 . S
C791 C785 1.390 . S
C791 C788 1.386 . S
C792 C787 1.490 . S
C792 C794 1.395 . S
C792 C795 1.403 . S
H793 C799 0.930 . S
C794 H780 0.930 . S
C794 C792 1.395 . S
C794 C797 1.403 . S
C795 C792 1.403 . S
C795 C796 1.524 . S
C795 C799 1.400 . S
C796 H781 0.960 . S
C796 H782 0.960 . S
C796 H783 0.960 . S
C796 C795 1.524 . S
C797 C794 1.403 . S
C797 C798 1.392 . S
C797 C801 1.495 . S
C798 C797 1.392 . S
C798 C799 1.385 . S
C798 C800 1.478 . S
C799 H793 0.930 . S
C799 C795 1.400 . S
C799 C798 1.385 . S
C800 C798 1.478 . S
C800 C802 1.381 . S
C800 C806 1.383 . S
C801 C797 1.495 . S
C801 H807 0.959 . S
C801 H808 0.961 . S
C801 H809 0.960 . S
C802 C800 1.381 . S
C802 C803 1.394 . S
C802 H810 0.930 . S
C803 C802 1.394 . S
C803 C804 1.383 . S
C803 H811 0.929 . S
C804 C803 1.383 . S
C804 C805 1.377 . S
C805 H789 0.930 . S
C805 C804 1.377 . S
C805 C806 1.379 . S
C806 H790 0.931 . S
C806 C800 1.383 . S
C806 C805 1.379 . S
H807 C801 0.959 . S
H808 C801 0.961 . S
H809 C801 0.960 . S
H810 C802 0.930 . S
H811 C803 0.929 . S
H812 C820 0.929 . S
H813 C822 0.930 . S
H814 C824 0.930 . S
H815 C827 0.929 . S
H816 C830 0.930 . S
H817 C832 0.960 . S
H818 C832 0.960 . S
H819 C832 0.960 . S
C820 H812 0.929 . S
C820 C821 1.377 . S
C820 C822 1.384 . S
C821 C820 1.377 . S
C821 C827 1.390 . S
C822 H813 0.930 . S
C822 C820 1.384 . S
C822 C823 1.372 . S
C823 C822 1.372 . S
C823 C824 1.400 . S
C823 C828 1.490 . S
C824 H814 0.930 . S
C824 C823 1.400 . S
C824 C827 1.386 . S
H825 C841 0.930 . S
H826 C842 0.931 . S
C827 H815 0.929 . S
C827 C821 1.390 . S
C827 C824 1.386 . S
C828 C823 1.490 . S
C828 C830 1.395 . S
C828 C831 1.403 . S
H829 C835 0.930 . S
C830 H816 0.930 . S
C830 C828 1.395 . S
C830 C833 1.403 . S
C831 C828 1.403 . S
C831 C832 1.524 . S
C831 C835 1.400 . S
C832 H817 0.960 . S
C832 H818 0.960 . S
C832 H819 0.960 . S
C832 C831 1.524 . S
C833 C830 1.403 . S
C833 C834 1.392 . S
C833 C837 1.495 . S
C834 C833 1.392 . S
C834 C835 1.385 . S
C834 C836 1.478 . S
C835 H829 0.930 . S
C835 C831 1.400 . S
C835 C834 1.385 . S
C836 C834 1.478 . S
C836 C838 1.381 . S
C836 C842 1.383 . S
C837 C833 1.495 . S
C837 H843 0.959 . S
C837 H844 0.961 . S
C837 H845 0.960 . S
C838 C836 1.381 . S
C838 C839 1.394 . S
C838 H846 0.930 . S
C839 C838 1.394 . S
C839 C840 1.383 . S
C839 H847 0.929 . S
C840 C839 1.383 . S
C840 C841 1.377 . S
C841 H825 0.930 . S
C841 C840 1.377 . S
C841 C842 1.379 . S
C842 H826 0.931 . S
C842 C836 1.383 . S
C842 C841 1.379 . S
H843 C837 0.959 . S
H844 C837 0.961 . S
H845 C837 0.960 . S
H846 C838 0.930 . S
H847 C839 0.929 . S
H848 C856 0.929 . S
H849 C858 0.930 . S
H850 C860 0.930 . S
H851 C863 0.929 . S
H852 C866 0.930 . S
H853 C868 0.960 . S
H854 C868 0.960 . S
H855 C868 0.960 . S
C856 H848 0.929 . S
C856 C857 1.377 . S
C856 C858 1.384 . S
C857 C856 1.377 . S
C857 C863 1.390 . S
C858 H849 0.930 . S
C858 C856 1.384 . S
C858 C859 1.372 . S
C859 C858 1.372 . S
C859 C860 1.400 . S
C859 C864 1.490 . S
C860 H850 0.930 . S
C860 C859 1.400 . S
C860 C863 1.386 . S
H861 C877 0.930 . S
H862 C878 0.931 . S
C863 H851 0.929 . S
C863 C857 1.390 . S
C863 C860 1.386 . S
C864 C859 1.490 . S
C864 C866 1.395 . S
C864 C867 1.403 . S
H865 C871 0.930 . S
C866 H852 0.930 . S
C866 C864 1.395 . S
C866 C869 1.403 . S
C867 C864 1.403 . S
C867 C868 1.524 . S
C867 C871 1.400 . S
C868 H853 0.960 . S
C868 H854 0.960 . S
C868 H855 0.960 . S
C868 C867 1.524 . S
C869 C866 1.403 . S
C869 C870 1.392 . S
C869 C873 1.495 . S
C870 C869 1.392 . S
C870 C871 1.385 . S
C870 C872 1.478 . S
C871 H865 0.930 . S
C871 C867 1.400 . S
C871 C870 1.385 . S
C872 C870 1.478 . S
C872 C874 1.381 . S
C872 C878 1.383 . S
C873 C869 1.495 . S
C873 H879 0.959 . S
C873 H880 0.961 . S
C873 H881 0.960 . S
C874 C872 1.381 . S
C874 C875 1.394 . S
C874 H882 0.930 . S
C875 C874 1.394 . S
C875 C876 1.383 . S
C875 H883 0.929 . S
C876 C875 1.383 . S
C876 C877 1.377 . S
C877 H861 0.930 . S
C877 C876 1.377 . S
C877 C878 1.379 . S
C878 H862 0.931 . S
C878 C872 1.383 . S
C878 C877 1.379 . S
H879 C873 0.959 . S
H880 C873 0.961 . S
H881 C873 0.960 . S
H882 C874 0.930 . S
H883 C875 0.929 . S
H884 C892 0.929 . S
H885 C894 0.930 . S
H886 C896 0.930 . S
H887 C899 0.929 . S
H888 C902 0.930 . S
H889 C904 0.960 . S
H890 C904 0.960 . S
H891 C904 0.960 . S
C892 H884 0.929 . S
C892 C893 1.377 . S
C892 C894 1.384 . S
C893 C892 1.377 . S
C893 C899 1.390 . S
C894 H885 0.930 . S
C894 C892 1.384 . S
C894 C895 1.372 . S
C895 C894 1.372 . S
C895 C896 1.400 . S
C895 C900 1.490 . S
C896 H886 0.930 . S
C896 C895 1.400 . S
C896 C899 1.386 . S
H897 C913 0.930 . S
H898 C914 0.931 . S
C899 H887 0.929 . S
C899 C893 1.390 . S
C899 C896 1.386 . S
C900 C895 1.490 . S
C900 C902 1.395 . S
C900 C903 1.403 . S
H901 C907 0.930 . S
C902 H888 0.930 . S
C902 C900 1.395 . S
C902 C905 1.403 . S
C903 C900 1.403 . S
C903 C904 1.524 . S
C903 C907 1.400 . S
C904 H889 0.960 . S
C904 H890 0.960 . S
C904 H891 0.960 . S
C904 C903 1.524 . S
C905 C902 1.403 . S
C905 C906 1.392 . S
C905 C909 1.495 . S
C906 C905 1.392 . S
C906 C907 1.385 . S
C906 C908 1.478 . S
C907 H901 0.930 . S
C907 C903 1.400 . S
C907 C906 1.385 . S
C908 C906 1.478 . S
C908 C910 1.381 . S
C908 C914 1.383 . S
C909 C905 1.495 . S
C909 H915 0.959 . S
C909 H916 0.961 . S
C909 H917 0.960 . S
C910 C908 1.381 . S
C910 C911 1.394 . S
C910 H918 0.930 . S
C911 C910 1.394 . S
C911 C912 1.383 . S
C911 H919 0.929 . S
C912 C911 1.383 . S
C912 C913 1.377 . S
C913 H897 0.930 . S
C913 C912 1.377 . S
C913 C914 1.379 . S
C914 H898 0.931 . S
C914 C908 1.383 . S
C914 C913 1.379 . S
H915 C909 0.959 . S
H916 C909 0.961 . S
H917 C909 0.960 . S
H918 C910 0.930 . S
H919 C911 0.929 . S
H920 C928 0.929 . S
H921 C930 0.930 . S
H922 C932 0.930 . S
H923 C935 0.929 . S
H924 C938 0.930 . S
H925 C940 0.960 . S
H926 C940 0.960 . S
H927 C940 0.960 . S
C928 H920 0.929 . S
C928 C929 1.377 . S
C928 C930 1.384 . S
C929 C928 1.377 . S
C929 C935 1.390 . S
C930 H921 0.930 . S
C930 C928 1.384 . S
C930 C931 1.372 . S
C931 C930 1.372 . S
C931 C932 1.400 . S
C931 C936 1.490 . S
C932 H922 0.930 . S
C932 C931 1.400 . S
C932 C935 1.386 . S
H933 C949 0.930 . S
H934 C950 0.931 . S
C935 H923 0.929 . S
C935 C929 1.390 . S
C935 C932 1.386 . S
C936 C931 1.490 . S
C936 C938 1.395 . S
C936 C939 1.403 . S
H937 C943 0.930 . S
C938 H924 0.930 . S
C938 C936 1.395 . S
C938 C941 1.403 . S
C939 C936 1.403 . S
C939 C940 1.524 . S
C939 C943 1.400 . S
C940 H925 0.960 . S
C940 H926 0.960 . S
C940 H927 0.960 . S
C940 C939 1.524 . S
C941 C938 1.403 . S
C941 C942 1.392 . S
C941 C945 1.495 . S
C942 C941 1.392 . S
C942 C943 1.385 . S
C942 C944 1.478 . S
C943 H937 0.930 . S
C943 C939 1.400 . S
C943 C942 1.385 . S
C944 C942 1.478 . S
C944 C946 1.381 . S
C944 C950 1.383 . S
C945 C941 1.495 . S
C945 H951 0.959 . S
C945 H952 0.961 . S
C945 H953 0.960 . S
C946 C944 1.381 . S
C946 C947 1.394 . S
C946 H954 0.930 . S
C947 C946 1.394 . S
C947 C948 1.383 . S
C947 H955 0.929 . S
C948 C947 1.383 . S
C948 C949 1.377 . S
C949 H933 0.930 . S
C949 C948 1.377 . S
C949 C950 1.379 . S
C950 H934 0.931 . S
C950 C944 1.383 . S
C950 C949 1.379 . S
H951 C945 0.959 . S
H952 C945 0.961 . S
H953 C945 0.960 . S
H954 C946 0.930 . S
H955 C947 0.929 . S
H956 C964 0.929 . S
H957 C966 0.930 . S
H958 C968 0.930 . S
H959 C971 0.929 . S
H960 C974 0.930 . S
H961 C976 0.960 . S
H962 C976 0.960 . S
H963 C976 0.960 . S
C964 H956 0.929 . S
C964 C965 1.377 . S
C964 C966 1.384 . S
C965 C964 1.377 . S
C965 C971 1.390 . S
C966 H957 0.930 . S
C966 C964 1.384 . S
C966 C967 1.372 . S
C967 C966 1.372 . S
C967 C968 1.400 . S
C967 C972 1.490 . S
C968 H958 0.930 . S
C968 C967 1.400 . S
C968 C971 1.386 . S
H969 C985 0.930 . S
H970 C986 0.931 . S
C971 H959 0.929 . S
C971 C965 1.390 . S
C971 C968 1.386 . S
C972 C967 1.490 . S
C972 C974 1.395 . S
C972 C975 1.403 . S
H973 C979 0.930 . S
C974 H960 0.930 . S
C974 C972 1.395 . S
C974 C977 1.403 . S
C975 C972 1.403 . S
C975 C976 1.524 . S
C975 C979 1.400 . S
C976 H961 0.960 . S
C976 H962 0.960 . S
C976 H963 0.960 . S
C976 C975 1.524 . S
C977 C974 1.403 . S
C977 C978 1.392 . S
C977 C981 1.495 . S
C978 C977 1.392 . S
C978 C979 1.385 . S
C978 C980 1.478 . S
C979 H973 0.930 . S
C979 C975 1.400 . S
C979 C978 1.385 . S
C980 C978 1.478 . S
C980 C982 1.381 . S
C980 C986 1.383 . S
C981 C977 1.495 . S
C981 H987 0.959 . S
C981 H988 0.961 . S
C981 H989 0.960 . S
C982 C980 1.381 . S
C982 C983 1.394 . S
C982 H990 0.930 . S
C983 C982 1.394 . S
C983 C984 1.383 . S
C983 H991 0.929 . S
C984 C983 1.383 . S
C984 C985 1.377 . S
C985 H969 0.930 . S
C985 C984 1.377 . S
C985 C986 1.379 . S
C986 H970 0.931 . S
C986 C980 1.383 . S
C986 C985 1.379 . S
H987 C981 0.959 . S
H988 C981 0.961 . S
H989 C981 0.960 . S
H990 C982 0.930 . S
H991 C983 0.929 . S
C281 C5 0.581 . S
C300 C175 0.613 . S
C317 C209 0.568 . S
C336 C39 0.558 . S
C353 C243 0.582 . S
C372 C73 0.613 . S
C389 C141 0.571 . S
C408 C107 0.555 . S
C425 C111 0.662 . S
C444 C33 0.709 . S
C461 C67 0.656 . S
C480 C9 0.702 . S
C497 C43 0.672 . S
C516 C101 0.678 . S
C533 C135 0.662 . S
C552 C77 0.710 . S
C569 C179 0.656 . S
C588 C169 0.697 . S
C605 C203 0.672 . S
C624 C213 0.672 . S
C641 C237 0.662 . S
C660 C247 0.636 . S
C677 C271 0.671 . S
C696 C145 0.682 . S
C713 C206 1.089 . S
C732 C20 1.098 . S
C749 C240 1.083 . S
C768 C54 1.104 . S
C785 C88 1.106 . S
C804 C138 1.076 . S
C821 C122 1.106 . S
C840 C172 1.090 . S
C857 C156 1.105 . S
C876 C70 1.065 . S
C893 C104 1.086 . S
C912 C190 1.108 . S
C929 C224 1.105 . S
C948 C2 1.111 . S
C965 C36 1.090 . S
C984 C258 1.105 . S
