# Generated by pormake.
# Topology ume, (4)-cn, num edge types: 1
# Building blocks:
#     Node 0, Type 0, BuildingBlock: NAWXER_clean_sbu_0, # of connection points: 4
#     Node 1, Type 0, BuildingBlock: NAWXER_clean_sbu_0, # of connection points: 4
#     Node 2, Type 0, BuildingBlock: NAWXER_clean_sbu_0, # of connection points: 4
#     Node 3, Type 0, BuildingBlock: NAWXER_clean_sbu_0, # of connection points: 4
#     Node 4, Type 0, BuildingBlock: NAWXER_clean_sbu_0, # of connection points: 4
#     Node 5, Type 0, BuildingBlock: NAWXER_clean_sbu_0, # of connection points: 4
#     Node 6, Type 0, BuildingBlock: NAWXER_clean_sbu_0, # of connection points: 4
#     Node 7, Type 0, BuildingBlock: NAWXER_clean_sbu_0, # of connection points: 4
#     Node 8, Type 0, BuildingBlock: NAWXER_clean_sbu_0, # of connection points: 4
#     Node 9, Type 0, BuildingBlock: NAWXER_clean_sbu_0, # of connection points: 4
#     Node 10, Type 0, BuildingBlock: NAWXER_clean_sbu_0, # of connection points: 4
#     Node 11, Type 0, BuildingBlock: NAWXER_clean_sbu_0, # of connection points: 4
#     Node 12, Type 0, BuildingBlock: NAWXER_clean_sbu_0, # of connection points: 4
#     Node 13, Type 0, BuildingBlock: NAWXER_clean_sbu_0, # of connection points: 4
#     Node 14, Type 0, BuildingBlock: NAWXER_clean_sbu_0, # of connection points: 4
#     Node 15, Type 0, BuildingBlock: NAWXER_clean_sbu_0, # of connection points: 4
#     Edge 16, Type (0, 0), BuildingBlock: XUDNAN_clean_linker_2, # of connection points: 2
#     Edge 17, Type (0, 0), BuildingBlock: XUDNAN_clean_linker_2, # of connection points: 2
#     Edge 18, Type (0, 0), BuildingBlock: XUDNAN_clean_linker_2, # of connection points: 2
#     Edge 19, Type (0, 0), BuildingBlock: XUDNAN_clean_linker_2, # of connection points: 2
#     Edge 20, Type (0, 0), BuildingBlock: XUDNAN_clean_linker_2, # of connection points: 2
#     Edge 21, Type (0, 0), BuildingBlock: XUDNAN_clean_linker_2, # of connection points: 2
#     Edge 22, Type (0, 0), BuildingBlock: XUDNAN_clean_linker_2, # of connection points: 2
#     Edge 23, Type (0, 0), BuildingBlock: XUDNAN_clean_linker_2, # of connection points: 2
#     Edge 24, Type (0, 0), BuildingBlock: XUDNAN_clean_linker_2, # of connection points: 2
#     Edge 25, Type (0, 0), BuildingBlock: XUDNAN_clean_linker_2, # of connection points: 2
#     Edge 26, Type (0, 0), BuildingBlock: XUDNAN_clean_linker_2, # of connection points: 2
#     Edge 27, Type (0, 0), BuildingBlock: XUDNAN_clean_linker_2, # of connection points: 2
#     Edge 28, Type (0, 0), BuildingBlock: XUDNAN_clean_linker_2, # of connection points: 2
#     Edge 29, Type (0, 0), BuildingBlock: XUDNAN_clean_linker_2, # of connection points: 2
#     Edge 30, Type (0, 0), BuildingBlock: XUDNAN_clean_linker_2, # of connection points: 2
#     Edge 31, Type (0, 0), BuildingBlock: XUDNAN_clean_linker_2, # of connection points: 2
#     Edge 32, Type (0, 0), BuildingBlock: XUDNAN_clean_linker_2, # of connection points: 2
#     Edge 33, Type (0, 0), BuildingBlock: XUDNAN_clean_linker_2, # of connection points: 2
#     Edge 34, Type (0, 0), BuildingBlock: XUDNAN_clean_linker_2, # of connection points: 2
#     Edge 35, Type (0, 0), BuildingBlock: XUDNAN_clean_linker_2, # of connection points: 2
#     Edge 36, Type (0, 0), BuildingBlock: XUDNAN_clean_linker_2, # of connection points: 2
#     Edge 37, Type (0, 0), BuildingBlock: XUDNAN_clean_linker_2, # of connection points: 2
#     Edge 38, Type (0, 0), BuildingBlock: XUDNAN_clean_linker_2, # of connection points: 2
#     Edge 39, Type (0, 0), BuildingBlock: XUDNAN_clean_linker_2, # of connection points: 2
#     Edge 40, Type (0, 0), BuildingBlock: XUDNAN_clean_linker_2, # of connection points: 2
#     Edge 41, Type (0, 0), BuildingBlock: XUDNAN_clean_linker_2, # of connection points: 2
#     Edge 42, Type (0, 0), BuildingBlock: XUDNAN_clean_linker_2, # of connection points: 2
#     Edge 43, Type (0, 0), BuildingBlock: XUDNAN_clean_linker_2, # of connection points: 2
#     Edge 44, Type (0, 0), BuildingBlock: XUDNAN_clean_linker_2, # of connection points: 2
#     Edge 45, Type (0, 0), BuildingBlock: XUDNAN_clean_linker_2, # of connection points: 2
#     Edge 46, Type (0, 0), BuildingBlock: XUDNAN_clean_linker_2, # of connection points: 2
#     Edge 47, Type (0, 0), BuildingBlock: XUDNAN_clean_linker_2, # of connection points: 2
# Relax obj value: 0.054
# Max RMSD: 0.243
# Mean RMSD: 0.243
data_MOF--net-ume--node1-NAWXER_clean_sbu_0--edge1-XUDNAN_clean_linker_2
_symmetry_space_group_name_H-M    P1
_symmetry_Int_Tables_number       1
_symmetry_cell_setting            triclinic
loop_
_symmetry_equiv_pos_as_xyz
'x, y, z'
_cell_length_a     28.56477
_cell_length_b     28.612239
_cell_length_c     111.87949
_cell_angle_alpha  90.010336
_cell_angle_beta   90.084714
_cell_angle_gamma 90.007967
loop_
_atom_site_label
_atom_site_type_symbol
_atom_site_fract_x
_atom_site_fract_y
_atom_site_fract_z
_atom_type_partial_charge
C0 C 0.24393 0.11276 0.34783 0.0
C1 C 0.27074 0.10965 0.30508 0.0
O2 O 0.25024 0.146 0.34051 0.0
Zn3 Zn 0.25055 0.11011 0.32619 0.0
O4 O 0.23858 0.07102 0.34381 0.0
Zn5 Zn 0.23922 0.03884 0.32608 0.0
O6 O 0.28541 0.99251 0.32846 0.0
O7 O 0.31216 0.06505 0.32896 0.0
O8 O 0.26219 0.06833 0.30902 0.0
O9 O 0.26574 0.14441 0.31198 0.0
O10 O 0.17804 0.09112 0.32384 0.0
O11 O 0.17782 0.01435 0.32361 0.0
C12 C 0.3194 0.02071 0.32966 0.0
C13 C 0.15552 0.05246 0.32301 0.0
C14 C 0.99594 0.82385 0.58014 0.0
C15 C 0.96403 0.66006 0.57365 0.0
O16 O 0.02405 0.78972 0.57919 0.0
Zn17 Zn 0.97761 0.74354 0.5768 0.0
O18 O 0.95151 0.81667 0.57944 0.0
Zn19 Zn 0.90633 0.75502 0.57688 0.0
O20 O 0.8705 0.75451 0.59121 0.0
O21 O 0.94541 0.74193 0.59453 0.0
O22 O 0.92531 0.68254 0.57447 0.0
O23 O 0.0022 0.68232 0.57429 0.0
O24 O 0.94783 0.76637 0.55968 0.0
O25 O 0.87167 0.76996 0.56271 0.0
C26 C 0.9036 0.74721 0.59854 0.0
C27 C 0.90634 0.77485 0.55577 0.0
C28 C 0.17248 0.48882 0.82545 0.0
C29 C 0.33702 0.47055 0.81756 0.0
O30 O 0.20203 0.51629 0.82078 0.0
Zn31 Zn 0.25296 0.4748 0.82112 0.0
O32 O 0.18493 0.44707 0.82835 0.0
Zn33 Zn 0.252 0.40793 0.8276 0.0
O34 O 0.26033 0.39227 0.84408 0.0
O35 O 0.26274 0.46798 0.84051 0.0
O36 O 0.32223 0.43243 0.82236 0.0
O37 O 0.30792 0.50247 0.8152 0.0
O38 O 0.23228 0.42291 0.80794 0.0
O39 O 0.23669 0.35585 0.81748 0.0
C40 C 0.26396 0.43377 0.84797 0.0
C41 C 0.22723 0.37834 0.80803 0.0
C42 C 0.54597 0.65461 0.0817 0.0
C43 C 0.51526 0.81878 0.07515 0.0
O44 O 0.5072 0.67623 0.08118 0.0
Zn45 Zn 0.53308 0.73612 0.07842 0.0
O46 O 0.58457 0.67743 0.08064 0.0
Zn47 Zn 0.60412 0.75097 0.07767 0.0
O48 O 0.63972 0.76443 0.09181 0.0
O49 O 0.56564 0.74927 0.09565 0.0
O50 O 0.55965 0.81178 0.07557 0.0
O51 O 0.48784 0.78431 0.07615 0.0
O52 O 0.56563 0.72397 0.06116 0.0
O53 O 0.63894 0.74701 0.06287 0.0
C54 C 0.60704 0.75913 0.09937 0.0
C55 C 0.6065 0.72918 0.05659 0.0
C56 C 0.24847 0.42324 0.93578 0.0
C57 C 0.27628 0.3651 0.97606 0.0
O58 O 0.25575 0.38164 0.93926 0.0
Zn59 Zn 0.25697 0.39446 0.95611 0.0
O60 O 0.24335 0.45574 0.9436 0.0
Zn61 Zn 0.24526 0.46076 0.96307 0.0
O62 O 0.29273 0.50684 0.96504 0.0
O63 O 0.31785 0.44016 0.95742 0.0
O64 O 0.26556 0.40871 0.97632 0.0
O65 O 0.27443 0.34324 0.96622 0.0
O66 O 0.18424 0.40921 0.96016 0.0
O67 O 0.184 0.48083 0.96735 0.0
C68 C 0.32593 0.48218 0.96092 0.0
C69 C 0.16171 0.44442 0.96436 0.0
C70 C 0.61861 0.74048 0.18721 0.0
C71 C 0.61771 0.76634 0.23011 0.0
O72 O 0.65257 0.74709 0.19434 0.0
Zn73 Zn 0.61747 0.74703 0.2089 0.0
O74 O 0.57723 0.73492 0.19147 0.0
Zn75 Zn 0.54591 0.73545 0.20924 0.0
O76 O 0.49947 0.78191 0.20707 0.0
O77 O 0.57209 0.80857 0.20641 0.0
O78 O 0.57627 0.75767 0.22621 0.0
O79 O 0.65235 0.76196 0.22313 0.0
O80 O 0.5985 0.67442 0.21121 0.0
O81 O 0.52161 0.67397 0.21167 0.0
C82 C 0.52765 0.81589 0.20588 0.0
C83 C 0.55987 0.65179 0.21212 0.0
C84 C 0.24591 0.13926 0.47809 0.0
C85 C 0.26995 0.11977 0.43567 0.0
O86 O 0.25317 0.1687 0.46986 0.0
Zn87 Zn 0.26141 0.1263 0.45713 0.0
O88 O 0.24675 0.09528 0.47565 0.0
Zn89 Zn 0.25911 0.05438 0.45918 0.0
O90 O 0.31644 0.01938 0.46208 0.0
O91 O 0.32797 0.09526 0.46098 0.0
O92 O 0.26604 0.07927 0.44058 0.0
O93 O 0.27064 0.15582 0.44223 0.0
O94 O 0.19307 0.09413 0.45498 0.0
O95 O 0.2023 0.01847 0.45818 0.0
C96 C 0.34413 0.05395 0.46258 0.0
C97 C 0.17585 0.05271 0.4556 0.0
C98 C 0.97514 0.82077 0.71208 0.0
C99 C 0.94303 0.65588 0.70816 0.0
O100 O 1.00175 0.78556 0.71281 0.0
Zn101 Zn 0.95588 0.73796 0.71028 0.0
O102 O 0.93114 0.81447 0.71037 0.0
Zn103 Zn 0.88637 0.75387 0.70823 0.0
O104 O 0.84417 0.75771 0.72127 0.0
O105 O 0.91436 0.73444 0.72684 0.0
O106 O 0.90463 0.67926 0.70746 0.0
O107 O 0.98143 0.67728 0.70972 0.0
O108 O 0.93247 0.74682 0.69162 0.0
O109 O 0.85761 0.7639 0.69321 0.0
C110 C 0.87146 0.74354 0.72942 0.0
C111 C 0.89297 0.75651 0.68665 0.0
C112 C 0.83767 0.56148 0.8299 0.0
C113 C 0.66908 0.55077 0.82425 0.0
O114 O 0.81294 0.52505 0.82834 0.0
Zn115 Zn 0.75386 0.55702 0.82773 0.0
O116 O 0.81772 0.60168 0.83047 0.0
Zn117 Zn 0.74667 0.62877 0.82944 0.0
O118 O 0.7378 0.65765 0.84456 0.0
O119 O 0.74832 0.5818 0.84619 0.0
O120 O 0.68236 0.59328 0.82548 0.0
O121 O 0.6988 0.51816 0.82527 0.0
O122 O 0.7626 0.59828 0.81105 0.0
O123 O 0.75086 0.67141 0.81662 0.0
C124 C 0.74253 0.62195 0.85113 0.0
C125 C 0.76025 0.64212 0.80847 0.0
C126 C 0.39033 0.24866 0.09863 0.0
C127 C 0.38415 0.26159 0.05535 0.0
O128 O 0.35584 0.25545 0.0917 0.0
Zn129 Zn 0.38886 0.25217 0.07691 0.0
O130 O 0.43103 0.24132 0.09412 0.0
Zn131 Zn 0.45971 0.23803 0.07601 0.0
O132 O 0.50683 0.2849 0.07651 0.0
O133 O 0.43508 0.31263 0.07805 0.0
O134 O 0.42565 0.25041 0.05878 0.0
O135 O 0.35203 0.26626 0.06305 0.0
O136 O 0.40664 0.1781 0.07526 0.0
O137 O 0.4837 0.17657 0.07476 0.0
C138 C 0.47954 0.31944 0.07778 0.0
C139 C 0.4451 0.15485 0.0746 0.0
C140 C 0.65502 0.9567 0.33215 0.0
C141 C 0.81896 0.98463 0.3244 0.0
O142 O 0.67681 0.99516 0.33106 0.0
Zn143 Zn 0.73624 0.96838 0.32821 0.0
O144 O 0.67745 0.91785 0.33128 0.0
Zn145 Zn 0.75045 0.89717 0.32802 0.0
O146 O 0.76436 0.86354 0.34247 0.0
O147 O 0.75029 0.93821 0.34566 0.0
O148 O 0.81153 0.94052 0.3253 0.0
O149 O 0.78482 0.01256 0.32529 0.0
O150 O 0.7222 0.93382 0.31132 0.0
O151 O 0.74522 0.86078 0.31347 0.0
C152 C 0.75977 0.89733 0.34973 0.0
C153 C 0.72711 0.89252 0.30703 0.0
C154 C 0.11296 0.26237 0.59959 0.0
C155 C 0.1366 0.24358 0.55705 0.0
O156 O 0.14876 0.26858 0.59311 0.0
Zn157 Zn 0.12087 0.25656 0.5781 0.0
O158 O 0.07368 0.25221 0.59457 0.0
Zn159 Zn 0.0512 0.2411 0.57592 0.0
O160 O 0.02514 0.18056 0.57688 0.0
O161 O 0.10175 0.18249 0.57955 0.0
O162 O 0.09346 0.23535 0.55955 0.0
O163 O 0.16375 0.25811 0.56519 0.0
O164 O 0.07708 0.31724 0.57528 0.0
O165 O 0.00616 0.28908 0.57283 0.0
C166 C 0.06327 0.15923 0.57888 0.0
C167 C 0.0333 0.32397 0.57335 0.0
C168 C 0.78732 0.8999 0.47979 0.0
C169 C 0.7466 0.90077 0.4377 0.0
O170 O 0.77183 0.86688 0.47336 0.0
Zn171 Zn 0.75927 0.90305 0.45919 0.0
O172 O 0.78646 0.94187 0.47574 0.0
Zn173 Zn 0.76276 0.9744 0.45915 0.0
O174 O 0.70971 0.01089 0.46299 0.0
O175 O 0.69161 0.93641 0.46265 0.0
O176 O 0.75036 0.9428 0.44164 0.0
O177 O 0.74823 0.86705 0.44505 0.0
O178 O 0.82873 0.93538 0.45499 0.0
O179 O 0.8146 0.01143 0.45539 0.0
C180 C 0.67921 0.97923 0.46402 0.0
C181 C 0.8429 0.97791 0.45377 0.0
C182 C 0.04785 0.15636 0.71161 0.0
C183 C 0.01261 0.32064 0.70852 0.0
O184 O 0.00931 0.17809 0.71131 0.0
Zn185 Zn 0.03315 0.23954 0.71005 0.0
O186 O 0.08633 0.1796 0.71107 0.0
Zn187 Zn 0.10362 0.25373 0.70939 0.0
O188 O 0.14048 0.26805 0.72309 0.0
O189 O 0.06671 0.25308 0.72745 0.0
O190 O 0.05716 0.31424 0.70837 0.0
O191 O 0.98554 0.28577 0.70945 0.0
O192 O 0.06247 0.24307 0.69193 0.0
O193 O 0.13729 0.2573 0.69486 0.0
C194 C 0.10832 0.26438 0.73081 0.0
C195 C 0.10361 0.25056 0.68769 0.0
C196 C 0.66124 0.54678 0.95635 0.0
C197 C 0.82533 0.51332 0.96282 0.0
O198 O 0.68215 0.5076 0.95657 0.0
Zn199 Zn 0.74275 0.53208 0.9595 0.0
O200 O 0.68483 0.58473 0.95765 0.0
Zn201 Zn 0.75854 0.60295 0.96063 0.0
O202 O 0.77224 0.6388 0.94654 0.0
O203 O 0.75634 0.56518 0.94247 0.0
O204 O 0.81871 0.55771 0.96267 0.0
O205 O 0.79062 0.4863 0.96154 0.0
O206 O 0.73105 0.56361 0.9769 0.0
O207 O 0.75463 0.63679 0.97559 0.0
C208 C 0.76658 0.60653 0.93888 0.0
C209 C 0.73642 0.60407 0.98168 0.0
C210 C 0.46365 0.15153 0.20354 0.0
C211 C 0.49242 0.31526 0.21162 0.0
O212 O 0.50226 0.17324 0.20449 0.0
Zn213 Zn 0.47573 0.23258 0.20768 0.0
O214 O 0.42484 0.17398 0.20464 0.0
Zn215 Zn 0.40461 0.24692 0.20823 0.0
O216 O 0.36974 0.26207 0.19412 0.0
O217 O 0.44411 0.2479 0.19039 0.0
O218 O 0.4482 0.30782 0.21089 0.0
O219 O 0.5203 0.28114 0.21059 0.0
O220 O 0.44215 0.21767 0.22469 0.0
O221 O 0.36909 0.24137 0.22285 0.0
C222 C 0.40285 0.25809 0.18663 0.0
C223 C 0.40102 0.22266 0.22912 0.0
H224 H 0.90205 0.93603 0.32428 0.0
H225 H 0.84422 0.07581 0.32097 0.0
H226 H 0.92391 0.1081 0.31928 0.0
H227 H 0.99873 0.96736 0.34237 0.0
H228 H 0.03883 0.92678 0.33553 0.0
H229 H 0.9771 0.91418 0.33571 0.0
H230 H 0.9774 0.90548 0.31265 0.0
H231 H 0.03921 0.91797 0.3124 0.0
H232 H 0.99943 0.95258 0.30355 0.0
H233 H 0.01001 0.12588 0.31907 0.0
H234 H 0.09647 0.12733 0.32013 0.0
H235 H 0.09782 0.9761 0.32344 0.0
C236 C 0.90609 0.97335 0.32306 0.0
C237 C 0.86683 0.00332 0.32273 0.0
C238 C 0.87372 0.05207 0.32123 0.0
C239 C 0.91887 0.0708 0.32025 0.0
C240 C 0.95682 0.04038 0.32074 0.0
C241 C 0.95095 0.99269 0.32207 0.0
C242 C 0.99766 0.96788 0.32276 0.0
C243 C 0.0034 0.94257 0.33481 0.0
C244 C 0.00377 0.93398 0.31221 0.0
C245 C 0.03063 0.00913 0.32177 0.0
C246 C 0.00643 0.05063 0.32057 0.0
C247 C 0.02941 0.09356 0.3199 0.0
C248 C 0.07848 0.09405 0.32053 0.0
C249 C 0.10394 0.05188 0.32182 0.0
C250 C 0.07948 0.00896 0.32235 0.0
H251 H 0.04037 0.60243 0.57445 0.0
H252 H 0.88925 0.60113 0.5702 0.0
H253 H 0.8909 0.51484 0.56884 0.0
H254 H 0.06586 0.50638 0.55435 0.0
H255 H 0.1124 0.48392 0.5636 0.0
H256 H 0.09937 0.54552 0.56365 0.0
H257 H 0.0885 0.5431 0.58664 0.0
H258 H 0.10143 0.48153 0.58667 0.0
H259 H 0.04742 0.50237 0.59305 0.0
H260 H 0.9091 0.42862 0.56854 0.0
H261 H 0.94189 0.34901 0.56969 0.0
H262 H 0.08111 0.40726 0.57441 0.0
C263 C 0.00758 0.58414 0.57311 0.0
C264 C 0.96465 0.60857 0.57238 0.0
C265 C 0.92255 0.58317 0.57076 0.0
C266 C 0.92316 0.53419 0.56996 0.0
C267 C 0.96612 0.51125 0.57081 0.0
C268 C 0.00754 0.53542 0.57236 0.0
C269 C 0.04885 0.50251 0.57344 0.0
C270 C 0.08367 0.51004 0.56314 0.0
C271 C 0.07295 0.50769 0.58568 0.0
C272 C 0.0242 0.45592 0.57233 0.0
C273 C 0.97654 0.46171 0.57076 0.0
C274 C 0.94638 0.42369 0.56972 0.0
C275 C 0.9654 0.37858 0.57039 0.0
C276 C 0.01413 0.37182 0.57213 0.0
C277 C 0.04378 0.41117 0.57303 0.0
H278 H 0.61197 0.47937 0.83219 0.0
H279 H 0.61595 0.60005 0.80875 0.0
H280 H 0.5341 0.58536 0.80281 0.0
H281 H 0.53275 0.40596 0.81402 0.0
H282 H 0.50103 0.38425 0.82678 0.0
H283 H 0.5618 0.40031 0.82826 0.0
H284 H 0.54078 0.45721 0.84544 0.0
H285 H 0.4801 0.4411 0.84406 0.0
H286 H 0.49706 0.50163 0.84296 0.0
H287 H 0.4527 0.56058 0.79989 0.0
H288 H 0.37171 0.53328 0.80185 0.0
H289 H 0.41571 0.43063 0.82816 0.0
C290 C 0.59561 0.50213 0.82568 0.0
C291 C 0.62023 0.54059 0.8208 0.0
C292 C 0.59761 0.57043 0.81255 0.0
C293 C 0.5513 0.56214 0.80906 0.0
C294 C 0.5278 0.52419 0.81403 0.0
C295 C 0.54873 0.49498 0.82229 0.0
C296 C 0.51365 0.45967 0.82711 0.0
C297 C 0.52819 0.40957 0.82385 0.0
C298 C 0.50754 0.46526 0.8407 0.0
C299 C 0.46969 0.47421 0.82039 0.0
C300 C 0.47928 0.51089 0.81273 0.0
C301 C 0.44471 0.53182 0.80582 0.0
C302 C 0.39871 0.516 0.80703 0.0
C303 C 0.38723 0.47985 0.81518 0.0
C304 C 0.42348 0.45785 0.82174 0.0
H305 H 0.52142 0.09725 0.0745 0.0
H306 H 0.36949 0.09543 0.07312 0.0
H307 H 0.37107 0.00897 0.0723 0.0
H308 H 0.54111 1.00001 0.05449 0.0
H309 H 0.59045 0.97836 0.06289 0.0
H310 H 0.57718 0.03991 0.06292 0.0
H311 H 0.57334 0.03912 0.08606 0.0
H312 H 0.58661 0.97762 0.08611 0.0
H313 H 0.5346 0.99867 0.09346 0.0
H314 H 0.38961 0.9227 0.07219 0.0
H315 H 0.42303 0.84335 0.07312 0.0
H316 H 0.56301 0.90232 0.07467 0.0
C317 C 0.48836 0.07884 0.07394 0.0
C318 C 0.44525 0.10317 0.07384 0.0
C319 C 0.4029 0.07756 0.0732 0.0
C320 C 0.40348 0.02849 0.07271 0.0
C321 C 0.44667 0.00569 0.07287 0.0
C322 C 0.48831 0.03008 0.07348 0.0
C323 C 0.53001 0.99742 0.07388 0.0
C324 C 0.56153 0.00434 0.06289 0.0
C325 C 0.55776 0.00358 0.08557 0.0
C326 C 0.50538 0.95066 0.07349 0.0
C327 C 0.45734 0.95618 0.07285 0.0
C328 C 0.42717 0.918 0.07264 0.0
C329 C 0.44656 0.87303 0.07318 0.0
C330 C 0.49572 0.86652 0.07395 0.0
C331 C 0.52537 0.90602 0.07401 0.0
H332 H 0.10382 0.51939 0.96756 0.0
H333 H 0.1027 0.36899 0.96243 0.0
H334 H 0.01607 0.36985 0.96259 0.0
H335 H 1.00182 0.52699 0.98695 0.0
H336 H 0.98159 0.58061 0.98025 0.0
H337 H 0.04327 0.56752 0.98062 0.0
H338 H 0.04747 0.57743 0.95762 0.0
H339 H 0.98585 0.59044 0.95717 0.0
H340 H 0.00903 0.54347 0.94822 0.0
H341 H 0.92979 0.38775 0.96261 0.0
H342 H 0.85033 0.42113 0.96178 0.0
H343 H 0.90829 0.56037 0.9663 0.0
C344 C 0.08544 0.48647 0.96665 0.0
C345 C 0.11001 0.444 0.96508 0.0
C346 C 0.08458 0.40187 0.96369 0.0
C347 C 0.03542 0.40203 0.9638 0.0
C348 C 0.01235 0.44462 0.96524 0.0
C349 C 0.03654 0.48607 0.96661 0.0
C350 C 0.00356 0.52743 0.96735 0.0
C351 C 0.00782 0.55208 0.97952 0.0
C352 C 0.01199 0.5617 0.95697 0.0
C353 C 0.95692 0.50284 0.96609 0.0
C354 C 0.96275 0.45506 0.96499 0.0
C355 C 0.92482 0.42508 0.96351 0.0
C356 C 0.87978 0.44445 0.96305 0.0
C357 C 0.87299 0.49343 0.96398 0.0
C358 C 0.91223 0.52283 0.9656 0.0
H359 H 0.44366 0.39821 0.21183 0.0
H360 H 0.58397 0.34079 0.21465 0.0
H361 H 0.61632 0.42051 0.21598 0.0
H362 H 0.47348 0.49398 0.19335 0.0
H363 H 0.43331 0.53427 0.20028 0.0
H364 H 0.42077 0.47262 0.20031 0.0
H365 H 0.41385 0.47394 0.22341 0.0
H366 H 0.42625 0.53568 0.22344 0.0
H367 H 0.46168 0.49644 0.23223 0.0
H368 H 0.634 0.50666 0.21591 0.0
H369 H 0.63519 0.59295 0.21469 0.0
H370 H 0.4835 0.59387 0.21205 0.0
C371 C 0.48113 0.40235 0.21288 0.0
C372 C 0.51122 0.36316 0.21316 0.0
C373 C 0.56013 0.37021 0.21443 0.0
C374 C 0.5789 0.41538 0.2152 0.0
C375 C 0.54835 0.45324 0.21474 0.0
C376 C 0.5005 0.44723 0.21366 0.0
C377 C 0.47552 0.49382 0.21296 0.0
C378 C 0.44923 0.49896 0.20101 0.0
C379 C 0.44238 0.50034 0.22365 0.0
C380 C 0.51684 0.52689 0.21367 0.0
C381 C 0.55854 0.50284 0.21474 0.0
C382 C 0.60152 0.52592 0.21517 0.0
C383 C 0.60186 0.57491 0.21446 0.0
C384 C 0.55949 0.60024 0.21332 0.0
C385 C 0.51652 0.57566 0.213 0.0
H386 H 0.39902 0.97606 0.45838 0.0
H387 H 0.40338 0.11769 0.47226 0.0
H388 H 0.48807 0.10988 0.47584 0.0
H389 H 0.4893 0.9261 0.47837 0.0
H390 H 0.51444 0.89018 0.4668 0.0
H391 H 0.453 0.90453 0.46638 0.0
H392 H 0.46286 0.93856 0.44509 0.0
H393 H 0.52422 0.92427 0.44543 0.0
H394 H 0.50595 0.98348 0.44251 0.0
H395 H 0.57148 0.08977 0.47686 0.0
H396 H 0.65141 0.06 0.47435 0.0
H397 H 0.59654 0.93112 0.45934 0.0
C398 C 0.41779 0.00505 0.46236 0.0
C399 C 0.39457 0.04743 0.46513 0.0
C400 C 0.42041 0.08497 0.47008 0.0
C401 C 0.46849 0.08077 0.4722 0.0
C402 C 0.49045 0.03889 0.46927 0.0
C403 C 0.46623 0.00167 0.4644 0.0
C404 C 0.49945 0.96199 0.46125 0.0
C405 C 0.48838 0.9181 0.46864 0.0
C406 C 0.49803 0.95148 0.44777 0.0
C407 C 0.5461 0.98319 0.46492 0.0
C408 C 0.53966 0.02735 0.46966 0.0
C409 C 0.57703 0.05513 0.47325 0.0
C410 C 0.62237 0.03787 0.47174 0.0
C411 C 0.63033 0.99319 0.46665 0.0
C412 C 0.59153 0.96509 0.4634 0.0
H413 H 0.97155 0.09906 0.71072 0.0
H414 H 0.12299 0.09671 0.7141 0.0
H415 H 0.12081 0.01023 0.71511 0.0
H416 H 0.94723 0.00362 0.73069 0.0
H417 H 0.89951 0.98165 0.72175 0.0
H418 H 0.91324 0.04309 0.7216 0.0
H419 H 0.92184 0.04048 0.69854 0.0
H420 H 0.90811 0.97907 0.69862 0.0
H421 H 0.96172 0.99921 0.69188 0.0
H422 H 0.10147 0.92384 0.71552 0.0
H423 H 0.06736 0.84467 0.71488 0.0
H424 H 0.92856 0.90471 0.71098 0.0
C425 C 0.00437 0.08054 0.71173 0.0
C426 C 0.0475 0.1047 0.71237 0.0
C427 C 0.08956 0.07895 0.71361 0.0
C428 C 0.08863 0.02988 0.7142 0.0
C429 C 0.0454 0.00726 0.71352 0.0
C430 C 0.00408 0.03183 0.71229 0.0
C431 C 0.96227 0.99946 0.71149 0.0
C432 C 0.92859 0.00744 0.72201 0.0
C433 C 0.93702 0.00488 0.69942 0.0
C434 C 0.98643 0.95261 0.71244 0.0
C435 C 0.03434 0.95782 0.71365 0.0
C436 C 0.06402 0.9194 0.71459 0.0
C437 C 0.04424 0.87455 0.71422 0.0
C438 C 0.99521 0.86841 0.71288 0.0
C439 C 0.9661 0.90814 0.71203 0.0
H440 H 0.59697 0.03254 0.3322 0.0
H441 H 0.59721 0.88124 0.33537 0.0
H442 H 0.51083 0.88171 0.33643 0.0
H443 H 0.49708 0.05468 0.35195 0.0
H444 H 0.4755 0.10171 0.34274 0.0
H445 H 0.53736 0.08963 0.34336 0.0
H446 H 0.5391 0.08124 0.32029 0.0
H447 H 0.47729 0.09301 0.3196 0.0
H448 H 0.50031 0.04013 0.31312 0.0
H449 H 0.42476 0.89827 0.33563 0.0
H450 H 0.3449 0.92959 0.33319 0.0
H451 H 0.40155 0.07007 0.33043 0.0
C452 C 0.579 0.9995 0.33332 0.0
C453 C 0.6038 0.95684 0.33375 0.0
C454 C 0.57889 0.91436 0.33507 0.0
C455 C 0.52988 0.91427 0.33569 0.0
C456 C 0.50652 0.95694 0.33503 0.0
C457 C 0.53025 0.99878 0.33392 0.0
C458 C 0.49692 0.03958 0.33272 0.0
C459 C 0.50202 0.07339 0.34333 0.0
C460 C 0.50383 0.06495 0.32072 0.0
C461 C 0.45064 0.01407 0.3331 0.0
C462 C 0.45691 0.96649 0.33452 0.0
C463 C 0.41936 0.93551 0.33463 0.0
C464 C 0.37417 0.95366 0.3332 0.0
C465 C 0.36701 0.00231 0.33164 0.0
C466 C 0.40583 0.03279 0.3317 0.0
H467 H 0.9476 0.90641 0.5789 0.0
H468 H 0.08683 0.84921 0.58433 0.0
H469 H 0.11909 0.92906 0.58546 0.0
H470 H 0.98198 0.99879 0.55998 0.0
H471 H 0.9403 0.04013 0.56584 0.0
H472 H 0.92763 0.97854 0.56631 0.0
H473 H 0.9152 0.98345 0.58923 0.0
H474 H 0.92763 0.04515 0.58882 0.0
H475 H 0.96084 0.00739 0.59855 0.0
H476 H 0.13678 0.01515 0.58499 0.0
H477 H 0.13815 0.10125 0.58308 0.0
H478 H 0.98744 0.10123 0.57784 0.0
C479 C 0.98476 0.91064 0.58049 0.0
C480 C 0.01465 0.87161 0.58156 0.0
C481 C 0.06321 0.87864 0.58349 0.0
C482 C 0.0819 0.92384 0.58416 0.0
C483 C 0.05155 0.96157 0.5829 0.0
C484 C 0.00402 0.95545 0.58114 0.0
C485 C 0.97928 0.00174 0.57957 0.0
C486 C 0.95594 0.00497 0.56719 0.0
C487 C 0.94364 0.0099 0.58965 0.0
C488 C 0.02041 0.03478 0.58059 0.0
C489 C 0.06178 0.01103 0.58257 0.0
C490 C 0.10456 0.0342 0.58352 0.0
C491 C 0.10501 0.08305 0.58241 0.0
C492 C 0.06294 0.10796 0.58033 0.0
C493 C 0.02022 0.08329 0.57947 0.0
H494 H 0.08963 0.43917 0.82633 0.0
H495 H 0.14816 0.57858 0.82972 0.0
H496 H 0.06917 0.61089 0.83256 0.0
H497 H 0.99123 0.47339 0.80917 0.0
H498 H 0.95095 0.43274 0.81592 0.0
H499 H 0.01245 0.41918 0.81535 0.0
H500 H 0.0137 0.40806 0.83833 0.0
H501 H 0.9521 0.42147 0.83897 0.0
H502 H 0.99306 0.4545 0.84786 0.0
H503 H 0.98515 0.62927 0.83391 0.0
H504 H 0.89918 0.63318 0.83326 0.0
H505 H 0.89292 0.48256 0.82845 0.0
C506 C 0.08569 0.47632 0.82788 0.0
C507 C 0.12491 0.5064 0.82785 0.0
C508 C 0.11851 0.55497 0.82967 0.0
C509 C 0.07383 0.57366 0.83135 0.0
C510 C 0.03579 0.54338 0.83112 0.0
C511 C 0.04101 0.49579 0.82942 0.0
C512 C 0.9937 0.47179 0.82877 0.0
C513 C 0.98669 0.44788 0.81658 0.0
C514 C 0.9878 0.43689 0.8391 0.0
C515 C 0.96136 0.51349 0.83021 0.0
C516 C 0.98656 0.55427 0.83168 0.0
C517 C 0.96489 0.59757 0.83285 0.0
C518 C 0.91599 0.5994 0.83244 0.0
C519 C 0.88922 0.55821 0.83081 0.0
C520 C 0.91236 0.51465 0.82976 0.0
H521 H 0.4702 0.59649 0.08285 0.0
H522 H 0.62224 0.59634 0.08241 0.0
H523 H 0.62185 0.50997 0.08221 0.0
H524 H 0.45536 0.49307 0.10166 0.0
H525 H 0.40481 0.47335 0.09342 0.0
H526 H 0.41741 0.53491 0.09449 0.0
H527 H 0.41681 0.541 0.07137 0.0
H528 H 0.4046 0.47946 0.07022 0.0
H529 H 0.45488 0.50376 0.06275 0.0
H530 H 0.60458 0.42401 0.08072 0.0
H531 H 0.57197 0.3446 0.0786 0.0
H532 H 0.4312 0.40177 0.07992 0.0
C533 C 0.5035 0.5784 0.0829 0.0
C534 C 0.54628 0.60316 0.08268 0.0
C535 C 0.58904 0.57809 0.08263 0.0
C536 C 0.58917 0.52907 0.08251 0.0
C537 C 0.54629 0.50582 0.08249 0.0
C538 C 0.50426 0.52967 0.08276 0.0
C539 C 0.46299 0.49661 0.08217 0.0
C540 C 0.43341 0.49967 0.09362 0.0
C541 C 0.43308 0.50576 0.07096 0.0
C542 C 0.48834 0.45038 0.08135 0.0
C543 C 0.53635 0.4564 0.0816 0.0
C544 C 0.56705 0.41883 0.08061 0.0
C545 C 0.54815 0.37389 0.07937 0.0
C546 C 0.49901 0.36697 0.0791 0.0
C547 C 0.46889 0.40584 0.08014 0.0
H548 H 0.40683 0.43551 0.95571 0.0
H549 H 0.35234 0.5735 0.96391 0.0
H550 H 0.43196 0.60639 0.9621 0.0
H551 H 0.51143 0.44671 0.97244 0.0
H552 H 0.54662 0.41416 0.96199 0.0
H553 H 0.48494 0.40236 0.9632 0.0
H554 H 0.47511 0.41741 0.94047 0.0
H555 H 0.5368 0.42956 0.93921 0.0
H556 H 0.49457 0.47211 0.93421 0.0
H557 H 0.51787 0.62365 0.95999 0.0
H558 H 0.60424 0.62314 0.95898 0.0
H559 H 0.60175 0.47354 0.95242 0.0
C560 C 0.41152 0.47272 0.95703 0.0
C561 C 0.37342 0.50199 0.95991 0.0
C562 C 0.3811 0.55041 0.96171 0.0
C563 C 0.42611 0.56946 0.96064 0.0
C564 C 0.46291 0.53958 0.95778 0.0
C565 C 0.45612 0.49222 0.95607 0.0
C566 C 0.50179 0.46725 0.9537 0.0
C567 C 0.51177 0.43047 0.96341 0.0
C568 C 0.50206 0.4453 0.94115 0.0
C569 C 0.53546 0.50788 0.9545 0.0
C570 C 0.51237 0.54939 0.95672 0.0
C571 C 0.53635 0.59141 0.95818 0.0
C572 C 0.58537 0.59077 0.95756 0.0
C573 C 0.6097 0.54831 0.95561 0.0
C574 C 0.58419 0.5066 0.95387 0.0
H575 H 0.5771 0.89799 0.20495 0.0
H576 H 0.43614 0.84161 0.20284 0.0
H577 H 0.40468 0.92137 0.20059 0.0
H578 H 0.54854 0.99644 0.22241 0.0
H579 H 0.58925 0.03512 0.2151 0.0
H580 H 0.60094 0.97337 0.21565 0.0
H581 H 0.60782 0.97131 0.19255 0.0
H582 H 0.59608 0.03313 0.19192 0.0
H583 H 0.5602 0.99299 0.18352 0.0
H584 H 0.38808 0.00744 0.19977 0.0
H585 H 0.38781 0.09372 0.20069 0.0
H586 H 0.53956 0.09333 0.20321 0.0
C587 C 0.53967 0.90233 0.20387 0.0
C588 C 0.50912 0.86356 0.20405 0.0
C589 C 0.46028 0.8708 0.20273 0.0
C590 C 0.44204 0.91595 0.20141 0.0
C591 C 0.47309 0.95344 0.20138 0.0
C592 C 0.52085 0.94712 0.20256 0.0
C593 C 0.54643 0.99339 0.20281 0.0
C594 C 0.57282 0.99995 0.2147 0.0
C595 C 0.57959 0.99796 0.19206 0.0
C596 C 0.5055 0.0267 0.20178 0.0
C597 C 0.46352 0.00302 0.20089 0.0
C598 C 0.42078 0.02642 0.20035 0.0
C599 C 0.42097 0.0754 0.20089 0.0
C600 C 0.46364 0.10028 0.20197 0.0
C601 C 0.50636 0.07542 0.20226 0.0
H602 H 0.9238 0.93221 0.46046 0.0
H603 H 0.87131 0.05076 0.44033 0.0
H604 H 0.95184 0.07871 0.43726 0.0
H605 H 0.00923 0.99365 0.47599 0.0
H606 H 0.05321 0.94848 0.47584 0.0
H607 H 0.99221 0.93308 0.47502 0.0
H608 H 0.00699 0.88749 0.45538 0.0
H609 H 0.06826 0.90232 0.45621 0.0
H610 H 0.03496 0.91652 0.443 0.0
H611 H 0.03498 0.09969 0.4385 0.0
H612 H 0.1187 0.11037 0.44297 0.0
H613 H 0.12 0.97849 0.46218 0.0
C614 C 0.9296 0.96315 0.45509 0.0
C615 C 0.89156 0.98924 0.45055 0.0
C616 C 0.90011 0.03033 0.44386 0.0
C617 C 0.94569 0.04642 0.44204 0.0
C618 C 0.98242 0.02101 0.44697 0.0
C619 C 0.97519 0.98003 0.45326 0.0
C620 C 0.02089 0.96182 0.4584 0.0
C621 C 0.01873 0.95912 0.47213 0.0
C622 C 0.03352 0.91421 0.45292 0.0
C623 C 0.05441 0.99969 0.45428 0.0
C624 C 0.03132 0.03327 0.44765 0.0
C625 C 0.05374 0.0733 0.44351 0.0
C626 C 0.1012 0.07921 0.44617 0.0
C627 C 0.12584 0.0452 0.45288 0.0
C628 C 0.10215 0.00474 0.4569 0.0
H629 H 0.0601 0.40384 0.70847 0.0
H630 H 0.92013 0.34488 0.70681 0.0
H631 H 0.88674 0.42432 0.70589 0.0
H632 H 0.0315 0.49964 0.72731 0.0
H633 H 0.07071 0.53987 0.72001 0.0
H634 H 0.08355 0.47828 0.72003 0.0
H635 H 0.08803 0.47888 0.69688 0.0
H636 H 0.0752 0.54052 0.69679 0.0
H637 H 0.0391 0.50071 0.68835 0.0
H638 H 0.86853 0.51056 0.70563 0.0
H639 H 0.86727 0.59701 0.70632 0.0
H640 H 0.01914 0.59831 0.70827 0.0
C641 C 0.02245 0.40757 0.70783 0.0
C642 C 0.99276 0.36817 0.7077 0.0
C643 C 0.94361 0.37459 0.70694 0.0
C644 C 0.92428 0.41955 0.70638 0.0
C645 C 0.95455 0.45766 0.7066 0.0
C646 C 0.00257 0.45211 0.70731 0.0
C647 C 0.02737 0.49873 0.70772 0.0
C648 C 0.05489 0.50445 0.71947 0.0
C649 C 0.0593 0.50507 0.69678 0.0
C650 C 0.98578 0.53134 0.70723 0.0
C651 C 0.94407 0.5071 0.70652 0.0
C652 C 0.90099 0.52997 0.70614 0.0
C653 C 0.90061 0.57901 0.70653 0.0
C654 C 0.94305 0.60439 0.70735 0.0
C655 C 0.98604 0.58001 0.70764 0.0
H656 H 0.23814 0.04957 0.36653 0.0
H657 H 0.25611 0.19722 0.35866 0.0
H658 H 0.26662 0.21344 0.38006 0.0
H659 H 0.17328 0.06625 0.39427 0.0
H660 H 0.20043 0.01734 0.4017 0.0
H661 H 0.19348 0.01689 0.38569 0.0
H662 H 0.28256 0.00299 0.38326 0.0
H663 H 0.28986 0.00387 0.39926 0.0
H664 H 0.3233 0.04323 0.39004 0.0
H665 H 0.27791 0.21428 0.40188 0.0
H666 H 0.28346 0.20086 0.42349 0.0
H667 H 0.25697 0.05281 0.41799 0.0
C668 C 0.24384 0.08535 0.36933 0.0
C669 C 0.24631 0.12211 0.36086 0.0
C670 C 0.25403 0.16842 0.36491 0.0
C671 C 0.2602 0.17804 0.37707 0.0
C672 C 0.25839 0.14107 0.38513 0.0
C673 C 0.24994 0.09571 0.3815 0.0
C674 C 0.24952 0.06271 0.39215 0.0
C675 C 0.2013 0.03943 0.39353 0.0
C676 C 0.28864 0.02603 0.39111 0.0
C677 C 0.25918 0.09674 0.40228 0.0
C678 C 0.2644 0.14165 0.39794 0.0
C679 C 0.27368 0.17933 0.40542 0.0
C680 C 0.27685 0.17123 0.41771 0.0
C681 C 0.27058 0.12576 0.4225 0.0
C682 C 0.26213 0.08791 0.41462 0.0
H683 H 0.96601 0.73659 0.61736 0.0
H684 H 0.81882 0.75876 0.60925 0.0
H685 H 0.80152 0.76377 0.63071 0.0
H686 H 0.94693 0.66505 0.64392 0.0
H687 H 0.99576 0.68956 0.65199 0.0
H688 H 0.99715 0.68676 0.6359 0.0
H689 H 0.01221 0.77595 0.63499 0.0
H690 H 0.01058 0.77907 0.65107 0.0
H691 H 0.97204 0.81528 0.64228 0.0
H692 H 0.79953 0.76924 0.65266 0.0
H693 H 0.81204 0.77073 0.67435 0.0
H694 H 0.9603 0.74368 0.66903 0.0
C695 C 0.93011 0.74214 0.62011 0.0
C696 C 0.89379 0.74729 0.61157 0.0
C697 C 0.84731 0.75467 0.61557 0.0
C698 C 0.83706 0.75766 0.62776 0.0
C699 C 0.87356 0.75303 0.63591 0.0
C700 C 0.91911 0.74508 0.63233 0.0
C701 C 0.95153 0.74149 0.64308 0.0
C702 C 0.97418 0.69281 0.64376 0.0
C703 C 0.98879 0.78026 0.64284 0.0
C704 C 0.91698 0.74892 0.65322 0.0
C705 C 0.8723 0.75564 0.6488 0.0
C706 C 0.83429 0.7638 0.65626 0.0
C707 C 0.84189 0.76468 0.6686 0.0
C708 C 0.88718 0.75726 0.67346 0.0
C709 C 0.92528 0.74944 0.66562 0.0
H710 H 0.26789 0.36878 0.86597 0.0
H711 H 0.26226 0.51835 0.85959 0.0
H712 H 0.25738 0.53212 0.88136 0.0
H713 H 0.18625 0.3661 0.88975 0.0
H714 H 0.21681 0.3218 0.89814 0.0
H715 H 0.22213 0.32375 0.88212 0.0
H716 H 0.31244 0.32876 0.88399 0.0
H717 H 0.30744 0.32632 0.90002 0.0
H718 H 0.33827 0.37404 0.89306 0.0
H719 H 0.24929 0.52913 0.9039 0.0
H720 H 0.24368 0.50995 0.92538 0.0
H721 H 0.25505 0.36232 0.91687 0.0
C722 C 0.26618 0.40451 0.86913 0.0
C723 C 0.26555 0.4425 0.86104 0.0
C724 C 0.26303 0.48867 0.86559 0.0
C725 C 0.26007 0.49684 0.87795 0.0
C726 C 0.25986 0.45851 0.88565 0.0
C727 C 0.26329 0.41328 0.88141 0.0
C728 C 0.2618 0.37812 0.89152 0.0
C729 C 0.21921 0.34553 0.89031 0.0
C730 C 0.30773 0.35018 0.89219 0.0
C731 C 0.25666 0.41058 0.90213 0.0
C732 C 0.25549 0.4568 0.89856 0.0
C733 C 0.25039 0.49305 0.90679 0.0
C734 C 0.24703 0.48177 0.91897 0.0
C735 C 0.2489 0.43462 0.92284 0.0
C736 C 0.2535 0.39871 0.91424 0.0
H737 H 0.54593 0.74606 0.11809 0.0
H738 H 0.69175 0.77536 0.11008 0.0
H739 H 0.71046 0.77251 0.13159 0.0
H740 H 0.54047 0.81467 0.14541 0.0
H741 H 0.50248 0.77377 0.15288 0.0
H742 H 0.50038 0.77928 0.13685 0.0
H743 H 0.51577 0.6904 0.13476 0.0
H744 H 0.51837 0.68469 0.15078 0.0
H745 H 0.56676 0.66515 0.14174 0.0
H746 H 0.71404 0.76393 0.15387 0.0
H747 H 0.70148 0.75487 0.17553 0.0
H748 H 0.55321 0.73167 0.16921 0.0
C749 C 0.58173 0.75231 0.12086 0.0
C750 C 0.61736 0.76098 0.11236 0.0
C751 C 0.66379 0.76876 0.11639 0.0
C752 C 0.67483 0.76709 0.1286 0.0
C753 C 0.63906 0.75773 0.1367 0.0
C754 C 0.59338 0.75086 0.13302 0.0
C755 C 0.56157 0.7413 0.14359 0.0
C756 C 0.52402 0.77954 0.14475 0.0
C757 C 0.53932 0.69248 0.14266 0.0
C758 C 0.59658 0.74366 0.15377 0.0
C759 C 0.64108 0.75304 0.14958 0.0
C760 C 0.67932 0.75672 0.15726 0.0
C761 C 0.67182 0.75136 0.16956 0.0
C762 C 0.62637 0.7425 0.17411 0.0
C763 C 0.5884 0.73827 0.16604 0.0
H764 H 0.74454 0.55366 0.86868 0.0
H765 H 0.74713 0.70407 0.86339 0.0
H766 H 0.75669 0.7157 0.88502 0.0
H767 H 0.67804 0.557 0.8963 0.0
H768 H 0.70939 0.50901 0.903 0.0
H769 H 0.70321 0.51212 0.887 0.0
H770 H 0.79335 0.50738 0.88474 0.0
H771 H 0.79981 0.50468 0.90074 0.0
H772 H 0.82976 0.54937 0.89236 0.0
H773 H 0.76825 0.71182 0.90703 0.0
H774 H 0.77372 0.69265 0.92846 0.0
H775 H 0.76103 0.54503 0.91995 0.0
C776 C 0.74691 0.589 0.87209 0.0
C777 C 0.74513 0.62791 0.86429 0.0
C778 C 0.74824 0.67363 0.86914 0.0
C779 C 0.75391 0.68068 0.88143 0.0
C780 C 0.75609 0.64173 0.88884 0.0
C781 C 0.75212 0.59679 0.88442 0.0
C782 C 0.75437 0.56122 0.89446 0.0
C783 C 0.70852 0.53319 0.89523 0.0
C784 C 0.79686 0.52875 0.89298 0.0
C785 C 0.7603 0.59329 0.90517 0.0
C786 C 0.76164 0.63954 0.90168 0.0
C787 C 0.76709 0.67572 0.9099 0.0
C788 C 0.77036 0.66444 0.92206 0.0
C789 C 0.76778 0.61735 0.92592 0.0
C790 C 0.76316 0.58136 0.91731 0.0
H791 H 0.46388 0.24475 0.16784 0.0
H792 H 0.31941 0.27974 0.17597 0.0
H793 H 0.30113 0.28105 0.15444 0.0
H794 H 0.47319 0.3168 0.14106 0.0
H795 H 0.50914 0.27505 0.13324 0.0
H796 H 0.51142 0.2784 0.14931 0.0
H797 H 0.4916 0.1902 0.15067 0.0
H798 H 0.4889 0.18665 0.13461 0.0
H799 H 0.4395 0.16838 0.14346 0.0
H800 H 0.29737 0.27562 0.13222 0.0
H801 H 0.30908 0.26753 0.11053 0.0
H802 H 0.45616 0.23658 0.11651 0.0
C803 C 0.42851 0.25318 0.1651 0.0
C804 C 0.39309 0.26221 0.17364 0.0
C805 C 0.34719 0.27277 0.16964 0.0
C806 C 0.3364 0.27353 0.15742 0.0
C807 C 0.37188 0.26379 0.14927 0.0
C808 C 0.41709 0.25414 0.1529 0.0
C809 C 0.44847 0.24437 0.14226 0.0
C810 C 0.48788 0.28084 0.14142 0.0
C811 C 0.46827 0.19443 0.14278 0.0
C812 C 0.41371 0.24974 0.13208 0.0
C813 C 0.36975 0.26089 0.13636 0.0
C814 C 0.33167 0.26712 0.12875 0.0
C815 C 0.33871 0.2623 0.11643 0.0
C816 C 0.38355 0.25142 0.11177 0.0
C817 C 0.42146 0.2449 0.11976 0.0
H818 H 0.75572 0.96229 0.36789 0.0
H819 H 0.76599 0.81309 0.36122 0.0
H820 H 0.76122 0.79808 0.38289 0.0
H821 H 0.82594 0.96239 0.39504 0.0
H822 H 0.79084 0.00654 0.40222 0.0
H823 H 0.79576 0.00555 0.38618 0.0
H824 H 0.70537 0.00202 0.38441 0.0
H825 H 0.70019 0.00245 0.40045 0.0
H826 H 0.67382 0.95598 0.39189 0.0
H827 H 0.75209 0.7988 0.40514 0.0
H828 H 0.74666 0.81542 0.4267 0.0
H829 H 0.74416 0.96431 0.41914 0.0
C830 C 0.75738 0.92646 0.37098 0.0
C831 C 0.76121 0.88886 0.36282 0.0
C832 C 0.76323 0.84252 0.36727 0.0
C833 C 0.76032 0.83359 0.37957 0.0
C834 C 0.7557 0.87136 0.38734 0.0
C835 C 0.75484 0.91691 0.38326 0.0
C836 C 0.75019 0.95114 0.39355 0.0
C837 C 0.79325 0.98329 0.39429 0.0
C838 C 0.70468 0.97957 0.39251 0.0
C839 C 0.74836 0.91766 0.40405 0.0
C840 C 0.75126 0.87181 0.40024 0.0
C841 C 0.75002 0.83458 0.40824 0.0
C842 C 0.74672 0.84443 0.42048 0.0
C843 C 0.74497 0.89119 0.42466 0.0
C844 C 0.7453 0.92819 0.41627 0.0
H845 H 0.04122 0.23671 0.66891 0.0
H846 H 0.1861 0.27155 0.67687 0.0
H847 H 0.20219 0.27989 0.65547 0.0
H848 H 0.06618 0.16885 0.64223 0.0
H849 H 0.01535 0.18898 0.63417 0.0
H850 H 0.0142 0.18583 0.65025 0.0
H851 H 0.99123 0.27331 0.65126 0.0
H852 H 0.99256 0.27678 0.63518 0.0
H853 H 0.02768 0.31618 0.64401 0.0
H854 H 0.20369 0.2859 0.63364 0.0
H855 H 0.19166 0.28523 0.61194 0.0
H856 H 0.04627 0.24521 0.61715 0.0
C857 C 0.07631 0.24596 0.66613 0.0
C858 C 0.11234 0.25351 0.67464 0.0
C859 C 0.15782 0.26552 0.6706 0.0
C860 C 0.16739 0.27049 0.65843 0.0
C861 C 0.13126 0.2632 0.65031 0.0
C862 C 0.08669 0.25089 0.6539 0.0
C863 C 0.05474 0.24455 0.64313 0.0
C864 C 0.03655 0.19404 0.6424 0.0
C865 C 0.01415 0.27981 0.64342 0.0
C866 C 0.0885 0.25523 0.633 0.0
C867 C 0.1323 0.26613 0.63744 0.0
C868 C 0.16961 0.27732 0.63002 0.0
C869 C 0.1623 0.27687 0.61767 0.0
C870 C 0.11801 0.2651 0.61277 0.0
C871 C 0.08049 0.25446 0.62059 0.0
H872 H 0.25931 0.1847 0.29009 0.0
H873 H 0.32985 0.05104 0.29326 0.0
H874 H 0.37278 0.06691 0.27451 0.0
H875 H 0.24555 0.17908 0.2575 0.0
H876 H 0.25385 0.24109 0.25561 0.0
H877 H 0.22873 0.21885 0.26923 0.0
H878 H 0.29297 0.26154 0.28143 0.0
H879 H 0.31873 0.28331 0.26784 0.0
H880 H 0.35374 0.25013 0.27822 0.0
H881 H 0.41318 0.10066 0.25649 0.0
H882 H 0.43839 0.14328 0.23841 0.0
H883 H 0.3363 0.25172 0.24577 0.0
C884 C 0.28339 0.15858 0.28673 0.0
C885 C 0.29137 0.11663 0.2931 0.0
C886 C 0.32295 0.08317 0.28845 0.0
C887 C 0.34776 0.09207 0.27787 0.0
C888 C 0.33982 0.13417 0.27193 0.0
C889 C 0.30753 0.16636 0.27601 0.0
C890 C 0.30441 0.20812 0.26769 0.0
C891 C 0.25521 0.21199 0.26218 0.0
C892 C 0.3183 0.25345 0.27419 0.0
C893 C 0.34051 0.19471 0.25838 0.0
C894 C 0.36109 0.15231 0.26112 0.0
C895 C 0.39691 0.13359 0.25417 0.0
C896 C 0.41127 0.15826 0.24398 0.0
C897 C 0.38927 0.20072 0.2407 0.0
C898 C 0.35357 0.21922 0.24805 0.0
H899 H 0.76175 0.83442 0.49644 0.0
H900 H 0.86603 0.94038 0.48883 0.0
H901 H 0.91031 0.91691 0.5069 0.0
H902 H 0.76303 0.85248 0.52869 0.0
H903 H 0.7536 0.79153 0.53198 0.0
H904 H 0.73113 0.8162 0.51832 0.0
H905 H 0.77549 0.75302 0.5062 0.0
H906 H 0.79865 0.72858 0.51982 0.0
H907 H 0.83787 0.74677 0.5081 0.0
H908 H 0.9459 0.87779 0.52508 0.0
H909 H 0.96322 0.83569 0.54392 0.0
H910 H 0.83192 0.76063 0.54073 0.0
C911 C 0.79373 0.85285 0.49865 0.0
C912 C 0.81063 0.88914 0.49127 0.0
C913 C 0.85237 0.91276 0.49445 0.0
C914 C 0.87792 0.89938 0.50463 0.0
C915 C 0.86071 0.86297 0.51165 0.0
C916 C 0.81897 0.84082 0.50896 0.0
C917 C 0.80694 0.80444 0.51832 0.0
C918 C 0.76096 0.81692 0.5247 0.0
C919 C 0.80461 0.7553 0.51277 0.0
C920 C 0.84865 0.80921 0.52662 0.0
C921 C 0.87972 0.84252 0.52249 0.0
C922 C 0.9216 0.85197 0.52846 0.0
C923 C 0.93134 0.82763 0.53908 0.0
C924 C 0.89892 0.795 0.54374 0.0
C925 C 0.85726 0.78551 0.53736 0.0
H926 H 0.16693 0.33179 0.73921 0.0
H927 H 0.07376 0.22122 0.75082 0.0
H928 H 0.09584 0.23702 0.77191 0.0
H929 H 0.2579 0.31522 0.76069 0.0
H930 H 0.26863 0.37673 0.76284 0.0
H931 H 0.24635 0.35594 0.74875 0.0
H932 H 0.17575 0.41242 0.75041 0.0
H933 H 0.19799 0.43364 0.76447 0.0
H934 H 0.13933 0.41068 0.76355 0.0
H935 H 0.13251 0.26203 0.79156 0.0
H936 H 0.1719 0.30094 0.80854 0.0
H937 H 0.23518 0.40035 0.78417 0.0
C938 C 0.15123 0.31089 0.74621 0.0
C939 C 0.11906 0.27491 0.74344 0.0
C940 C 0.0985 0.24886 0.7528 0.0
C941 C 0.11102 0.25748 0.76477 0.0
C942 C 0.14328 0.29296 0.76718 0.0
C943 C 0.16235 0.31987 0.75817 0.0
C944 C 0.19447 0.35734 0.76316 0.0
C945 C 0.24482 0.3509 0.75859 0.0
C946 C 0.17575 0.40642 0.76022 0.0
C947 C 0.19107 0.34701 0.7764 0.0
C948 C 0.16194 0.30927 0.77852 0.0
C949 C 0.15492 0.29191 0.79001 0.0
C950 C 0.17768 0.31407 0.79958 0.0
C951 C 0.2064 0.35374 0.79766 0.0
C952 C 0.2131 0.37033 0.7859 0.0
H953 H 0.75666 0.67562 0.99751 0.0
H954 H 0.66528 0.55615 0.99212 0.0
H955 H 0.62078 0.5776 1.01013 0.0
H956 H 0.75968 0.66562 0.03024 0.0
H957 H 0.76101 0.72798 0.03252 0.0
H958 H 0.78607 0.70309 0.01919 0.0
H959 H 0.73328 0.75669 1.00627 0.0
H960 H 0.70752 0.78121 0.01956 0.0
H961 H 0.67069 0.75507 1.0083 0.0
H962 H 0.58214 0.615 0.02762 0.0
H963 H 0.55943 0.65838 0.04572 0.0
H964 H 0.67883 0.75055 0.04112 0.0
C965 C 0.72767 0.65369 1.00023 0.0
C966 C 0.71452 0.61414 0.9934 0.0
C967 C 0.67637 0.5863 0.99725 0.0
C968 C 0.65056 0.59843 1.00742 0.0
C969 C 0.66374 0.63808 1.0138 0.0
C970 C 0.70203 0.66472 1.01056 0.0
C971 C 0.7094 0.70472 0.0193 0.0
C972 C 0.75686 0.70005 0.02569 0.0
C973 C 0.70495 0.75223 1.01297 0.0
C974 C 0.66895 0.6966 0.02784 0.0
C975 C 0.64268 0.6584 0.02435 0.0
C976 C 0.60269 0.64469 0.03052 0.0
C977 C 0.58984 0.66986 0.04074 0.0
C978 C 0.61731 0.70788 0.04484 0.0
C979 C 0.65719 0.72161 0.03821 0.0
H980 H 0.32309 0.3253 0.04595 0.0
H981 H 0.42206 0.21726 0.03599 0.0
H982 H 0.40265 0.22996 1.01464 0.0
H983 H 0.23608 0.30342 0.0234 0.0
H984 H 0.22385 0.36437 0.02077 0.0
H985 H 0.24398 0.34543 0.03525 0.0
H986 H 0.31293 0.40411 0.03416 0.0
H987 H 0.29287 0.42341 0.01971 0.0
H988 H 0.35197 0.40247 0.02152 0.0
H989 H 0.36978 0.25237 0.99449 0.0
H990 H 0.33377 0.28918 0.97678 0.0
H991 H 0.26125 0.38766 0.99972 0.0
C992 C 0.34046 0.30417 0.03926 0.0
C993 C 0.37367 0.26988 0.04258 0.0
C994 C 0.39646 0.24359 0.0336 0.0
C995 C 0.3855 0.25045 0.02148 0.0
C996 C 0.35238 0.28439 0.0185 0.0
C997 C 0.33082 0.31141 0.02712 0.0
C998 C 0.29854 0.34738 0.02151 0.0
C999 C 0.24759 0.33967 0.02547 0.0
C1000 C 0.31508 0.3973 0.02439 0.0
C1001 C 0.3049 0.33609 1.00837 0.0
C1002 C 0.33557 0.29918 1.00686 0.0
C1003 C 0.34602 0.28151 0.99557 0.0
C1004 C 0.32516 0.30253 0.98557 0.0
C1005 C 0.29478 0.34137 0.98686 0.0
C1006 C 0.28451 0.3582 0.99845 0.0
H1007 H 0.75747 0.82862 0.29026 0.0
H1008 H 0.64748 0.92897 0.29771 0.0
H1009 H 0.60593 0.90467 0.27937 0.0
H1010 H 0.75747 0.84888 0.25801 0.0
H1011 H 0.76982 0.78871 0.25444 0.0
H1012 H 0.79033 0.81321 0.26832 0.0
H1013 H 0.74812 0.74718 0.27992 0.0
H1014 H 0.72697 0.72282 0.26608 0.0
H1015 H 0.68622 0.73826 0.27771 0.0
H1016 H 0.57345 0.86568 0.26108 0.0
H1017 H 0.5586 0.82426 0.24206 0.0
H1018 H 0.69303 0.75476 0.24517 0.0
C1019 C 0.72481 0.84561 0.28795 0.0
C1020 C 0.70559 0.88062 0.29539 0.0
C1021 C 0.66298 0.90237 0.29207 0.0
C1022 C 0.63892 0.88853 0.28173 0.0
C1023 C 0.6584 0.85353 0.27466 0.0
C1024 C 0.70092 0.83314 0.27744 0.0
C1025 C 0.71515 0.79808 0.26794 0.0
C1026 C 0.7609 0.81313 0.26181 0.0
C1027 C 0.71935 0.74866 0.27323 0.0
C1028 C 0.67375 0.80164 0.25947 0.0
C1029 C 0.64103 0.83318 0.26365 0.0
C1030 C 0.59903 0.84126 0.25764 0.0
C1031 C 0.59073 0.81731 0.2469 0.0
C1032 C 0.62467 0.78644 0.24216 0.0
C1033 C 0.66658 0.77835 0.24858 0.0
H1034 H 0.18116 0.10935 0.49486 0.0
H1035 H 0.29152 0.21058 0.48861 0.0
H1036 H 0.27457 0.24788 0.50796 0.0
H1037 H 0.10106 0.19051 0.50795 0.0
H1038 H 0.078 0.15055 0.51891 0.0
H1039 H 0.10066 0.12857 0.50498 0.0
H1040 H 0.15797 0.0746 0.51644 0.0
H1041 H 0.13506 0.09597 0.53041 0.0
H1042 H 0.19695 0.09947 0.52742 0.0
H1043 H 0.24592 0.27537 0.52745 0.0
H1044 H 0.20703 0.29165 0.54663 0.0
H1045 H 0.11114 0.17644 0.54042 0.0
C1046 C 0.20224 0.13874 0.49773 0.0
C1047 C 0.23802 0.15689 0.49033 0.0
C1048 C 0.26415 0.19612 0.49419 0.0
C1049 C 0.25475 0.21756 0.50516 0.0
C1050 C 0.21864 0.19976 0.51213 0.0
C1051 C 0.1927 0.16128 0.50865 0.0
C1052 C 0.1545 0.15091 0.51773 0.0
C1053 C 0.10566 0.15541 0.51205 0.0
C1054 C 0.16156 0.10235 0.52334 0.0
C1055 C 0.16323 0.18957 0.5268 0.0
C1056 C 0.20064 0.21703 0.52335 0.0
C1057 C 0.2165 0.25424 0.53026 0.0
C1058 C 0.19414 0.26325 0.54113 0.0
C1059 C 0.1559 0.2356 0.54496 0.0
C1060 C 0.13981 0.19862 0.53761 0.0
H1061 H 0.89635 0.67696 0.74623 0.0
H1062 H 0.80202 0.7932 0.7398 0.0
H1063 H 0.76295 0.77804 0.75902 0.0
H1064 H 0.81013 0.60159 0.75921 0.0
H1065 H 0.84871 0.57646 0.77023 0.0
H1066 H 0.87208 0.59767 0.7563 0.0
H1067 H 0.92922 0.65185 0.76777 0.0
H1068 H 0.90645 0.63035 0.78173 0.0
H1069 H 0.90647 0.69221 0.77869 0.0
H1070 H 0.73343 0.75103 0.7785 0.0
H1071 H 0.71547 0.71397 0.79783 0.0
H1072 H 0.82505 0.61167 0.7918 0.0
C1073 C 0.86805 0.69965 0.74901 0.0
C1074 C 0.85242 0.73657 0.74158 0.0
C1075 C 0.8146 0.76487 0.74537 0.0
C1076 C 0.79212 0.75649 0.75626 0.0
C1077 C 0.80748 0.7193 0.76325 0.0
C1078 C 0.84456 0.69128 0.75985 0.0
C1079 C 0.85269 0.65271 0.76898 0.0
C1080 C 0.84546 0.60423 0.76334 0.0
C1081 C 0.90161 0.65706 0.77463 0.0
C1082 C 0.81445 0.66367 0.778 0.0
C1083 C 0.78906 0.7024 0.77447 0.0
C1084 C 0.75289 0.72056 0.78136 0.0
C1085 C 0.74289 0.69923 0.79231 0.0
C1086 C 0.76851 0.65975 0.79623 0.0
C1087 C 0.80433 0.64126 0.78889 0.0
loop_
_geom_bond_atom_site_label_1
_geom_bond_atom_site_label_2
_geom_bond_distance
_geom_bond_site_symmetry_2
_ccdc_geom_bond_type
C0 O2 1.247 . S
C0 O4 1.258 . S
C1 O8 1.247 . S
C1 O9 1.258 . S
O2 C0 1.247 . S
O2 Zn3 2.028 . S
Zn3 O2 2.028 . S
Zn3 O7 2.035 . S
Zn3 O9 2.035 . S
Zn3 O10 2.028 . S
O4 C0 1.258 . S
O4 Zn5 2.035 . S
Zn5 O4 2.035 . S
Zn5 O6 2.028 . S
Zn5 O8 2.028 . S
Zn5 O11 2.035 . S
O6 Zn5 2.028 . S
O6 C12 1.247 . S
O7 Zn3 2.035 . S
O7 C12 1.258 . S
O8 C1 1.247 . S
O8 Zn5 2.028 . S
O9 C1 1.258 . S
O9 Zn3 2.035 . S
O10 Zn3 2.028 . S
O10 C13 1.247 . S
O11 Zn5 2.035 . S
O11 C13 1.258 . S
C12 O6 1.247 . S
C12 O7 1.258 . S
C13 O10 1.247 . S
C13 O11 1.258 . S
C14 O16 1.247 . S
C14 O18 1.258 . S
C15 O22 1.247 . S
C15 O23 1.258 . S
O16 C14 1.247 . S
O16 Zn17 2.028 . S
Zn17 O16 2.028 . S
Zn17 O21 2.035 . S
Zn17 O23 2.035 . S
Zn17 O24 2.028 . S
O18 C14 1.258 . S
O18 Zn19 2.035 . S
Zn19 O18 2.035 . S
Zn19 O20 2.028 . S
Zn19 O22 2.028 . S
Zn19 O25 2.035 . S
O20 Zn19 2.028 . S
O20 C26 1.247 . S
O21 Zn17 2.035 . S
O21 C26 1.258 . S
O22 C15 1.247 . S
O22 Zn19 2.028 . S
O23 C15 1.258 . S
O23 Zn17 2.035 . S
O24 Zn17 2.028 . S
O24 C27 1.247 . S
O25 Zn19 2.035 . S
O25 C27 1.258 . S
C26 O20 1.247 . S
C26 O21 1.258 . S
C27 O24 1.247 . S
C27 O25 1.258 . S
C28 O30 1.247 . S
C28 O32 1.258 . S
C29 O36 1.247 . S
C29 O37 1.258 . S
O30 C28 1.247 . S
O30 Zn31 2.028 . S
Zn31 O30 2.028 . S
Zn31 O35 2.035 . S
Zn31 O37 2.035 . S
Zn31 O38 2.028 . S
O32 C28 1.258 . S
O32 Zn33 2.035 . S
Zn33 O32 2.035 . S
Zn33 O34 2.028 . S
Zn33 O36 2.028 . S
Zn33 O39 2.035 . S
O34 Zn33 2.028 . S
O34 C40 1.247 . S
O35 Zn31 2.035 . S
O35 C40 1.258 . S
O36 C29 1.247 . S
O36 Zn33 2.028 . S
O37 C29 1.258 . S
O37 Zn31 2.035 . S
O38 Zn31 2.028 . S
O38 C41 1.247 . S
O39 Zn33 2.035 . S
O39 C41 1.258 . S
C40 O34 1.247 . S
C40 O35 1.258 . S
C41 O38 1.247 . S
C41 O39 1.258 . S
C42 O44 1.247 . S
C42 O46 1.258 . S
C43 O50 1.247 . S
C43 O51 1.258 . S
O44 C42 1.247 . S
O44 Zn45 2.028 . S
Zn45 O44 2.028 . S
Zn45 O49 2.035 . S
Zn45 O51 2.035 . S
Zn45 O52 2.028 . S
O46 C42 1.258 . S
O46 Zn47 2.035 . S
Zn47 O46 2.035 . S
Zn47 O48 2.028 . S
Zn47 O50 2.028 . S
Zn47 O53 2.035 . S
O48 Zn47 2.028 . S
O48 C54 1.247 . S
O49 Zn45 2.035 . S
O49 C54 1.258 . S
O50 C43 1.247 . S
O50 Zn47 2.028 . S
O51 C43 1.258 . S
O51 Zn45 2.035 . S
O52 Zn45 2.028 . S
O52 C55 1.247 . S
O53 Zn47 2.035 . S
O53 C55 1.258 . S
C54 O48 1.247 . S
C54 O49 1.258 . S
C55 O52 1.247 . S
C55 O53 1.258 . S
C56 O58 1.247 . S
C56 O60 1.258 . S
C57 O64 1.247 . S
C57 O65 1.258 . S
O58 C56 1.247 . S
O58 Zn59 2.028 . S
Zn59 O58 2.028 . S
Zn59 O63 2.035 . S
Zn59 O65 2.035 . S
Zn59 O66 2.028 . S
O60 C56 1.258 . S
O60 Zn61 2.035 . S
Zn61 O60 2.035 . S
Zn61 O62 2.028 . S
Zn61 O64 2.028 . S
Zn61 O67 2.035 . S
O62 Zn61 2.028 . S
O62 C68 1.247 . S
O63 Zn59 2.035 . S
O63 C68 1.258 . S
O64 C57 1.247 . S
O64 Zn61 2.028 . S
O65 C57 1.258 . S
O65 Zn59 2.035 . S
O66 Zn59 2.028 . S
O66 C69 1.247 . S
O67 Zn61 2.035 . S
O67 C69 1.258 . S
C68 O62 1.247 . S
C68 O63 1.258 . S
C69 O66 1.247 . S
C69 O67 1.258 . S
C70 O72 1.247 . S
C70 O74 1.258 . S
C71 O78 1.247 . S
C71 O79 1.258 . S
O72 C70 1.247 . S
O72 Zn73 2.028 . S
Zn73 O72 2.028 . S
Zn73 O77 2.035 . S
Zn73 O79 2.035 . S
Zn73 O80 2.028 . S
O74 C70 1.258 . S
O74 Zn75 2.035 . S
Zn75 O74 2.035 . S
Zn75 O76 2.028 . S
Zn75 O78 2.028 . S
Zn75 O81 2.035 . S
O76 Zn75 2.028 . S
O76 C82 1.247 . S
O77 Zn73 2.035 . S
O77 C82 1.258 . S
O78 C71 1.247 . S
O78 Zn75 2.028 . S
O79 C71 1.258 . S
O79 Zn73 2.035 . S
O80 Zn73 2.028 . S
O80 C83 1.247 . S
O81 Zn75 2.035 . S
O81 C83 1.258 . S
C82 O76 1.247 . S
C82 O77 1.258 . S
C83 O80 1.247 . S
C83 O81 1.258 . S
C84 O86 1.247 . S
C84 O88 1.258 . S
C85 O92 1.247 . S
C85 O93 1.258 . S
O86 C84 1.247 . S
O86 Zn87 2.028 . S
Zn87 O86 2.028 . S
Zn87 O91 2.035 . S
Zn87 O93 2.035 . S
Zn87 O94 2.028 . S
O88 C84 1.258 . S
O88 Zn89 2.035 . S
Zn89 O88 2.035 . S
Zn89 O90 2.028 . S
Zn89 O92 2.028 . S
Zn89 O95 2.035 . S
O90 Zn89 2.028 . S
O90 C96 1.247 . S
O91 Zn87 2.035 . S
O91 C96 1.258 . S
O92 C85 1.247 . S
O92 Zn89 2.028 . S
O93 C85 1.258 . S
O93 Zn87 2.035 . S
O94 Zn87 2.028 . S
O94 C97 1.247 . S
O95 Zn89 2.035 . S
O95 C97 1.258 . S
C96 O90 1.247 . S
C96 O91 1.258 . S
C97 O94 1.247 . S
C97 O95 1.258 . S
C98 O100 1.247 . S
C98 O102 1.258 . S
C99 O106 1.247 . S
C99 O107 1.258 . S
O100 C98 1.247 . S
O100 Zn101 2.028 . S
Zn101 O100 2.028 . S
Zn101 O105 2.035 . S
Zn101 O107 2.035 . S
Zn101 O108 2.028 . S
O102 C98 1.258 . S
O102 Zn103 2.035 . S
Zn103 O102 2.035 . S
Zn103 O104 2.028 . S
Zn103 O106 2.028 . S
Zn103 O109 2.035 . S
O104 Zn103 2.028 . S
O104 C110 1.247 . S
O105 Zn101 2.035 . S
O105 C110 1.258 . S
O106 C99 1.247 . S
O106 Zn103 2.028 . S
O107 C99 1.258 . S
O107 Zn101 2.035 . S
O108 Zn101 2.028 . S
O108 C111 1.247 . S
O109 Zn103 2.035 . S
O109 C111 1.258 . S
C110 O104 1.247 . S
C110 O105 1.258 . S
C111 O108 1.247 . S
C111 O109 1.258 . S
C112 O114 1.247 . S
C112 O116 1.258 . S
C113 O120 1.247 . S
C113 O121 1.258 . S
O114 C112 1.247 . S
O114 Zn115 2.028 . S
Zn115 O114 2.028 . S
Zn115 O119 2.035 . S
Zn115 O121 2.035 . S
Zn115 O122 2.028 . S
O116 C112 1.258 . S
O116 Zn117 2.035 . S
Zn117 O116 2.035 . S
Zn117 O118 2.028 . S
Zn117 O120 2.028 . S
Zn117 O123 2.035 . S
O118 Zn117 2.028 . S
O118 C124 1.247 . S
O119 Zn115 2.035 . S
O119 C124 1.258 . S
O120 C113 1.247 . S
O120 Zn117 2.028 . S
O121 C113 1.258 . S
O121 Zn115 2.035 . S
O122 Zn115 2.028 . S
O122 C125 1.247 . S
O123 Zn117 2.035 . S
O123 C125 1.258 . S
C124 O118 1.247 . S
C124 O119 1.258 . S
C125 O122 1.247 . S
C125 O123 1.258 . S
C126 O128 1.247 . S
C126 O130 1.258 . S
C127 O134 1.247 . S
C127 O135 1.258 . S
O128 C126 1.247 . S
O128 Zn129 2.028 . S
Zn129 O128 2.028 . S
Zn129 O133 2.035 . S
Zn129 O135 2.035 . S
Zn129 O136 2.028 . S
O130 C126 1.258 . S
O130 Zn131 2.035 . S
Zn131 O130 2.035 . S
Zn131 O132 2.028 . S
Zn131 O134 2.028 . S
Zn131 O137 2.035 . S
O132 Zn131 2.028 . S
O132 C138 1.247 . S
O133 Zn129 2.035 . S
O133 C138 1.258 . S
O134 C127 1.247 . S
O134 Zn131 2.028 . S
O135 C127 1.258 . S
O135 Zn129 2.035 . S
O136 Zn129 2.028 . S
O136 C139 1.247 . S
O137 Zn131 2.035 . S
O137 C139 1.258 . S
C138 O132 1.247 . S
C138 O133 1.258 . S
C139 O136 1.247 . S
C139 O137 1.258 . S
C140 O142 1.247 . S
C140 O144 1.258 . S
C141 O148 1.247 . S
C141 O149 1.258 . S
O142 C140 1.247 . S
O142 Zn143 2.028 . S
Zn143 O142 2.028 . S
Zn143 O147 2.035 . S
Zn143 O149 2.035 . S
Zn143 O150 2.028 . S
O144 C140 1.258 . S
O144 Zn145 2.035 . S
Zn145 O144 2.035 . S
Zn145 O146 2.028 . S
Zn145 O148 2.028 . S
Zn145 O151 2.035 . S
O146 Zn145 2.028 . S
O146 C152 1.247 . S
O147 Zn143 2.035 . S
O147 C152 1.258 . S
O148 C141 1.247 . S
O148 Zn145 2.028 . S
O149 C141 1.258 . S
O149 Zn143 2.035 . S
O150 Zn143 2.028 . S
O150 C153 1.247 . S
O151 Zn145 2.035 . S
O151 C153 1.258 . S
C152 O146 1.247 . S
C152 O147 1.258 . S
C153 O150 1.247 . S
C153 O151 1.258 . S
C154 O156 1.247 . S
C154 O158 1.258 . S
C155 O162 1.247 . S
C155 O163 1.258 . S
O156 C154 1.247 . S
O156 Zn157 2.028 . S
Zn157 O156 2.028 . S
Zn157 O161 2.035 . S
Zn157 O163 2.035 . S
Zn157 O164 2.028 . S
O158 C154 1.258 . S
O158 Zn159 2.035 . S
Zn159 O158 2.035 . S
Zn159 O160 2.028 . S
Zn159 O162 2.028 . S
Zn159 O165 2.035 . S
O160 Zn159 2.028 . S
O160 C166 1.247 . S
O161 Zn157 2.035 . S
O161 C166 1.258 . S
O162 C155 1.247 . S
O162 Zn159 2.028 . S
O163 C155 1.258 . S
O163 Zn157 2.035 . S
O164 Zn157 2.028 . S
O164 C167 1.247 . S
O165 Zn159 2.035 . S
O165 C167 1.258 . S
C166 O160 1.247 . S
C166 O161 1.258 . S
C167 O164 1.247 . S
C167 O165 1.258 . S
C168 O170 1.247 . S
C168 O172 1.258 . S
C169 O176 1.247 . S
C169 O177 1.258 . S
O170 C168 1.247 . S
O170 Zn171 2.028 . S
Zn171 O170 2.028 . S
Zn171 O175 2.035 . S
Zn171 O177 2.035 . S
Zn171 O178 2.028 . S
O172 C168 1.258 . S
O172 Zn173 2.035 . S
Zn173 O172 2.035 . S
Zn173 O174 2.028 . S
Zn173 O176 2.028 . S
Zn173 O179 2.035 . S
O174 Zn173 2.028 . S
O174 C180 1.247 . S
O175 Zn171 2.035 . S
O175 C180 1.258 . S
O176 C169 1.247 . S
O176 Zn173 2.028 . S
O177 C169 1.258 . S
O177 Zn171 2.035 . S
O178 Zn171 2.028 . S
O178 C181 1.247 . S
O179 Zn173 2.035 . S
O179 C181 1.258 . S
C180 O174 1.247 . S
C180 O175 1.258 . S
C181 O178 1.247 . S
C181 O179 1.258 . S
C182 O184 1.247 . S
C182 O186 1.258 . S
C183 O190 1.247 . S
C183 O191 1.258 . S
O184 C182 1.247 . S
O184 Zn185 2.028 . S
Zn185 O184 2.028 . S
Zn185 O189 2.035 . S
Zn185 O191 2.035 . S
Zn185 O192 2.028 . S
O186 C182 1.258 . S
O186 Zn187 2.035 . S
Zn187 O186 2.035 . S
Zn187 O188 2.028 . S
Zn187 O190 2.028 . S
Zn187 O193 2.035 . S
O188 Zn187 2.028 . S
O188 C194 1.247 . S
O189 Zn185 2.035 . S
O189 C194 1.258 . S
O190 C183 1.247 . S
O190 Zn187 2.028 . S
O191 C183 1.258 . S
O191 Zn185 2.035 . S
O192 Zn185 2.028 . S
O192 C195 1.247 . S
O193 Zn187 2.035 . S
O193 C195 1.258 . S
C194 O188 1.247 . S
C194 O189 1.258 . S
C195 O192 1.247 . S
C195 O193 1.258 . S
C196 O198 1.247 . S
C196 O200 1.258 . S
C197 O204 1.247 . S
C197 O205 1.258 . S
O198 C196 1.247 . S
O198 Zn199 2.028 . S
Zn199 O198 2.028 . S
Zn199 O203 2.035 . S
Zn199 O205 2.035 . S
Zn199 O206 2.028 . S
O200 C196 1.258 . S
O200 Zn201 2.035 . S
Zn201 O200 2.035 . S
Zn201 O202 2.028 . S
Zn201 O204 2.028 . S
Zn201 O207 2.035 . S
O202 Zn201 2.028 . S
O202 C208 1.247 . S
O203 Zn199 2.035 . S
O203 C208 1.258 . S
O204 C197 1.247 . S
O204 Zn201 2.028 . S
O205 C197 1.258 . S
O205 Zn199 2.035 . S
O206 Zn199 2.028 . S
O206 C209 1.247 . S
O207 Zn201 2.035 . S
O207 C209 1.258 . S
C208 O202 1.247 . S
C208 O203 1.258 . S
C209 O206 1.247 . S
C209 O207 1.258 . S
C210 O212 1.247 . S
C210 O214 1.258 . S
C211 O218 1.247 . S
C211 O219 1.258 . S
O212 C210 1.247 . S
O212 Zn213 2.028 . S
Zn213 O212 2.028 . S
Zn213 O217 2.035 . S
Zn213 O219 2.035 . S
Zn213 O220 2.028 . S
O214 C210 1.258 . S
O214 Zn215 2.035 . S
Zn215 O214 2.035 . S
Zn215 O216 2.028 . S
Zn215 O218 2.028 . S
Zn215 O221 2.035 . S
O216 Zn215 2.028 . S
O216 C222 1.247 . S
O217 Zn213 2.035 . S
O217 C222 1.258 . S
O218 C211 1.247 . S
O218 Zn215 2.028 . S
O219 C211 1.258 . S
O219 Zn213 2.035 . S
O220 Zn213 2.028 . S
O220 C223 1.247 . S
O221 Zn215 2.035 . S
O221 C223 1.258 . S
C222 O216 1.247 . S
C222 O217 1.258 . S
C223 O220 1.247 . S
C223 O221 1.258 . S
H224 C236 0.930 . S
H225 C238 0.930 . S
H226 C239 0.930 . S
H227 C243 0.959 . S
H228 C243 0.959 . S
H229 C243 0.961 . S
H230 C244 0.960 . S
H231 C244 0.961 . S
H232 C244 0.959 . S
H233 C247 0.929 1_655 S
H234 C248 0.931 . S
H235 C250 0.930 1_565 S
C236 H224 0.930 . S
C236 C237 1.399 . S
C236 C241 1.399 . S
C237 C236 1.399 . S
C237 C238 1.376 . S
C238 H225 0.930 . S
C238 C237 1.376 . S
C238 C239 1.388 1_565 S
C239 H226 0.930 . S
C239 C238 1.388 1_545 S
C239 C240 1.390 . S
C240 C239 1.390 . S
C240 C241 1.394 1_545 S
C240 C246 1.465 1_655 S
C241 C236 1.399 . S
C241 C240 1.394 1_565 S
C241 C242 1.516 1_655 S
C242 C241 1.516 1_455 S
C242 C243 1.502 . S
C242 C244 1.561 . S
C242 C245 1.526 1_565 S
C243 H227 0.959 . S
C243 H228 0.959 . S
C243 H229 0.961 . S
C243 C242 1.502 . S
C244 H230 0.960 . S
C244 H231 0.961 . S
C244 H232 0.959 . S
C244 C242 1.561 . S
C245 C242 1.526 1_545 S
C245 C246 1.396 . S
C245 C250 1.390 . S
C246 C240 1.465 1_455 S
C246 C245 1.396 . S
C246 C247 1.399 . S
C247 H233 0.929 1_455 S
C247 C246 1.399 . S
C247 C248 1.385 . S
C248 H234 0.931 . S
C248 C247 1.385 . S
C248 C249 1.389 . S
C249 C248 1.389 . S
C249 C250 1.387 . S
C250 H235 0.930 1_545 S
C250 C245 1.390 . S
C250 C249 1.387 . S
H251 C263 0.930 . S
H252 C265 0.930 . S
H253 C266 0.930 . S
H254 C270 0.959 . S
H255 C270 0.959 . S
H256 C270 0.961 . S
H257 C271 0.960 1_655 S
H258 C271 0.961 . S
H259 C271 0.959 1_655 S
H260 C274 0.929 . S
H261 C275 0.931 . S
H262 C277 0.930 . S
C263 H251 0.930 . S
C263 C264 1.399 . S
C263 C268 1.399 . S
C264 C263 1.399 . S
C264 C265 1.376 . S
C265 H252 0.930 . S
C265 C264 1.376 . S
C265 C266 1.388 . S
C266 H253 0.930 . S
C266 C265 1.388 . S
C266 C267 1.390 . S
C267 C266 1.390 . S
C267 C268 1.394 . S
C267 C273 1.465 . S
C268 C263 1.399 . S
C268 C267 1.394 . S
C268 C269 1.516 1_655 S
C269 C268 1.516 1_455 S
C269 C270 1.502 . S
C269 C271 1.561 . S
C269 C272 1.526 . S
C270 H254 0.959 . S
C270 H255 0.959 . S
C270 H256 0.961 . S
C270 C269 1.502 . S
C271 H257 0.960 1_455 S
C271 H258 0.961 . S
C271 H259 0.959 1_455 S
C271 C269 1.561 . S
C272 C269 1.526 . S
C272 C273 1.396 1_455 S
C272 C277 1.390 . S
C273 C267 1.465 . S
C273 C272 1.396 1_655 S
C273 C274 1.399 . S
C274 H260 0.929 . S
C274 C273 1.399 . S
C274 C275 1.385 1_655 S
C275 H261 0.931 . S
C275 C274 1.385 1_455 S
C275 C276 1.389 . S
C276 C275 1.389 . S
C276 C277 1.387 . S
C277 H262 0.930 . S
C277 C272 1.390 . S
C277 C276 1.387 . S
H278 C290 0.930 . S
H279 C292 0.930 . S
H280 C293 0.930 . S
H281 C297 0.959 . S
H282 C297 0.959 . S
H283 C297 0.961 . S
H284 C298 0.960 . S
H285 C298 0.961 . S
H286 C298 0.959 . S
H287 C301 0.929 . S
H288 C302 0.931 . S
H289 C304 0.930 . S
C290 H278 0.930 . S
C290 C291 1.399 . S
C290 C295 1.399 . S
C291 C290 1.399 . S
C291 C292 1.376 . S
C292 H279 0.930 . S
C292 C291 1.376 . S
C292 C293 1.388 . S
C293 H280 0.930 . S
C293 C292 1.388 . S
C293 C294 1.390 . S
C294 C293 1.390 . S
C294 C295 1.394 . S
C294 C300 1.465 . S
C295 C290 1.399 . S
C295 C294 1.394 . S
C295 C296 1.516 . S
C296 C295 1.516 . S
C296 C297 1.502 . S
C296 C298 1.561 . S
C296 C299 1.526 . S
C297 H281 0.959 . S
C297 H282 0.959 . S
C297 H283 0.961 . S
C297 C296 1.502 . S
C298 H284 0.960 . S
C298 H285 0.961 . S
C298 H286 0.959 . S
C298 C296 1.561 . S
C299 C296 1.526 . S
C299 C300 1.396 . S
C299 C304 1.390 . S
C300 C294 1.465 . S
C300 C299 1.396 . S
C300 C301 1.399 . S
C301 H287 0.929 . S
C301 C300 1.399 . S
C301 C302 1.385 . S
C302 H288 0.931 . S
C302 C301 1.385 . S
C302 C303 1.389 . S
C303 C302 1.389 . S
C303 C304 1.387 . S
C304 H289 0.930 . S
C304 C299 1.390 . S
C304 C303 1.387 . S
H305 C317 0.930 . S
H306 C319 0.930 . S
H307 C320 0.930 . S
H308 C324 0.959 . S
H309 C324 0.959 . S
H310 C324 0.961 1_545 S
H311 C325 0.960 . S
H312 C325 0.947 1_565 S
H313 C325 0.959 . S
H314 C328 0.929 . S
H315 C329 0.931 . S
H316 C331 0.930 . S
C317 H305 0.930 . S
C317 C318 1.399 . S
C317 C322 1.399 . S
C318 C317 1.399 . S
C318 C319 1.376 . S
C319 H306 0.930 . S
C319 C318 1.376 . S
C319 C320 1.388 . S
C320 H307 0.930 . S
C320 C319 1.388 . S
C320 C321 1.390 . S
C321 C320 1.390 . S
C321 C322 1.394 . S
C321 C327 1.465 1_545 S
C322 C317 1.399 . S
C322 C321 1.394 . S
C322 C323 1.510 1_545 S
C323 C322 1.510 1_565 S
C323 C324 1.505 . S
C323 C325 1.558 1_565 S
C323 C326 1.531 . S
C324 H308 0.959 . S
C324 H309 0.959 . S
C324 H310 0.961 1_565 S
C324 C323 1.505 . S
C325 H311 0.960 . S
C325 H312 0.947 1_545 S
C325 H313 0.959 . S
C325 C323 1.558 1_545 S
C326 C323 1.531 . S
C326 C327 1.396 . S
C326 C331 1.390 . S
C327 C321 1.465 1_565 S
C327 C326 1.396 . S
C327 C328 1.399 . S
C328 H314 0.929 . S
C328 C327 1.399 . S
C328 C329 1.385 . S
C329 H315 0.931 . S
C329 C328 1.385 . S
C329 C330 1.389 . S
C330 C329 1.389 . S
C330 C331 1.387 . S
C331 H316 0.930 . S
C331 C326 1.390 . S
C331 C330 1.387 . S
H332 C344 0.930 . S
H333 C346 0.930 . S
H334 C347 0.930 . S
H335 C351 0.959 . S
H336 C351 0.959 . S
H337 C351 0.961 . S
H338 C352 0.960 1_455 S
H339 C352 0.961 . S
H340 C352 0.959 . S
H341 C355 0.929 . S
H342 C356 0.931 . S
H343 C358 0.930 . S
C344 H332 0.930 . S
C344 C345 1.399 . S
C344 C349 1.399 . S
C345 C344 1.399 . S
C345 C346 1.376 . S
C346 H333 0.930 . S
C346 C345 1.376 . S
C346 C347 1.388 . S
C347 H334 0.930 . S
C347 C346 1.388 . S
C347 C348 1.390 . S
C348 C347 1.390 . S
C348 C349 1.394 . S
C348 C354 1.465 1_455 S
C349 C344 1.399 . S
C349 C348 1.394 . S
C349 C350 1.516 . S
C350 C349 1.516 . S
C350 C351 1.502 . S
C350 C352 1.561 1_455 S
C350 C353 1.526 1_455 S
C351 H335 0.959 . S
C351 H336 0.959 . S
C351 H337 0.961 . S
C351 C350 1.502 . S
C352 H338 0.960 1_655 S
C352 H339 0.961 . S
C352 H340 0.959 . S
C352 C350 1.561 1_655 S
C353 C350 1.526 1_655 S
C353 C354 1.396 . S
C353 C358 1.390 . S
C354 C348 1.465 1_655 S
C354 C353 1.396 . S
C354 C355 1.399 . S
C355 H341 0.929 . S
C355 C354 1.399 . S
C355 C356 1.385 . S
C356 H342 0.931 . S
C356 C355 1.385 . S
C356 C357 1.389 . S
C357 C356 1.389 . S
C357 C358 1.387 . S
C358 H343 0.930 . S
C358 C353 1.390 . S
C358 C357 1.387 . S
H359 C371 0.930 . S
H360 C373 0.930 . S
H361 C374 0.930 . S
H362 C378 0.959 . S
H363 C378 0.959 . S
H364 C378 0.961 . S
H365 C379 0.960 . S
H366 C379 0.961 . S
H367 C379 0.959 . S
H368 C382 0.929 . S
H369 C383 0.931 . S
H370 C385 0.930 . S
C371 H359 0.930 . S
C371 C372 1.399 . S
C371 C376 1.399 . S
C372 C371 1.399 . S
C372 C373 1.376 . S
C373 H360 0.930 . S
C373 C372 1.376 . S
C373 C374 1.388 . S
C374 H361 0.930 . S
C374 C373 1.388 . S
C374 C375 1.390 . S
C375 C374 1.390 . S
C375 C376 1.394 . S
C375 C381 1.465 . S
C376 C371 1.399 . S
C376 C375 1.394 . S
C376 C377 1.516 . S
C377 C376 1.516 . S
C377 C378 1.502 . S
C377 C379 1.561 . S
C377 C380 1.526 . S
C378 H362 0.959 . S
C378 H363 0.959 . S
C378 H364 0.961 . S
C378 C377 1.502 . S
C379 H365 0.960 . S
C379 H366 0.961 . S
C379 H367 0.959 . S
C379 C377 1.561 . S
C380 C377 1.526 . S
C380 C381 1.396 . S
C380 C385 1.390 . S
C381 C375 1.465 . S
C381 C380 1.396 . S
C381 C382 1.399 . S
C382 H368 0.929 . S
C382 C381 1.399 . S
C382 C383 1.385 . S
C383 H369 0.931 . S
C383 C382 1.385 . S
C383 C384 1.389 . S
C384 C383 1.389 . S
C384 C385 1.387 . S
C385 H370 0.930 . S
C385 C380 1.390 . S
C385 C384 1.387 . S
H386 C398 0.930 . S
H387 C400 0.930 . S
H388 C401 0.930 . S
H389 C405 0.959 . S
H390 C405 0.959 . S
H391 C405 0.961 . S
H392 C406 0.960 . S
H393 C406 0.961 1_565 S
H394 C406 0.959 . S
H395 C409 0.928 1_545 S
H396 C410 0.931 . S
H397 C412 0.930 . S
C398 H386 0.930 . S
C398 C399 1.399 . S
C398 C403 1.399 . S
C399 C398 1.399 . S
C399 C400 1.376 . S
C400 H387 0.930 . S
C400 C399 1.376 . S
C400 C401 1.388 . S
C401 H388 0.930 . S
C401 C400 1.388 . S
C401 C402 1.390 . S
C402 C401 1.390 . S
C402 C403 1.394 . S
C402 C408 1.472 . S
C403 C398 1.399 . S
C403 C402 1.394 . S
C403 C404 1.516 1_545 S
C404 C403 1.516 1_565 S
C404 C405 1.502 . S
C404 C406 1.561 1_565 S
C404 C407 1.526 . S
C405 H389 0.959 . S
C405 H390 0.959 . S
C405 H391 0.961 . S
C405 C404 1.502 . S
C406 H392 0.960 . S
C406 H393 0.961 1_545 S
C406 H394 0.959 . S
C406 C404 1.561 1_545 S
C407 C404 1.526 . S
C407 C408 1.389 1_565 S
C407 C412 1.390 . S
C408 C402 1.472 . S
C408 C407 1.389 1_545 S
C408 C409 1.399 1_545 S
C409 H395 0.928 1_565 S
C409 C408 1.399 1_565 S
C409 C410 1.387 . S
C410 H396 0.931 . S
C410 C409 1.387 . S
C410 C411 1.389 . S
C411 C410 1.389 . S
C411 C412 1.387 . S
C412 H397 0.930 . S
C412 C407 1.390 . S
C412 C411 1.387 . S
H413 C425 0.930 . S
H414 C427 0.930 . S
H415 C428 0.930 . S
H416 C432 0.959 . S
H417 C432 0.959 . S
H418 C432 0.961 . S
H419 C433 0.960 1_545 S
H420 C433 0.961 1_655 S
H421 C433 0.959 . S
H422 C436 0.929 1_455 S
H423 C437 0.931 . S
H424 C439 0.930 . S
C425 H413 0.930 . S
C425 C426 1.399 . S
C425 C430 1.399 . S
C426 C425 1.399 . S
C426 C427 1.376 . S
C427 H414 0.930 . S
C427 C426 1.376 . S
C427 C428 1.388 . S
C428 H415 0.930 . S
C428 C427 1.388 . S
C428 C429 1.390 . S
C429 C428 1.390 . S
C429 C430 1.394 . S
C429 C435 1.461 1_445 S
C430 C425 1.399 . S
C430 C429 1.394 . S
C430 C431 1.516 1_455 S
C431 C430 1.516 1_655 S
C431 C432 1.502 . S
C431 C433 1.561 1_645 S
C431 C434 1.526 1_545 S
C432 H416 0.959 . S
C432 H417 0.959 . S
C432 H418 0.961 . S
C432 C431 1.502 . S
C433 H419 0.960 1_565 S
C433 H420 0.961 1_455 S
C433 H421 0.959 . S
C433 C431 1.561 1_465 S
C434 C431 1.526 1_565 S
C434 C435 1.400 . S
C434 C439 1.390 . S
C435 C429 1.461 1_665 S
C435 C434 1.400 . S
C435 C436 1.399 . S
C436 H422 0.929 1_655 S
C436 C435 1.399 . S
C436 C437 1.385 . S
C437 H423 0.931 . S
C437 C436 1.385 . S
C437 C438 1.389 . S
C438 C437 1.389 . S
C438 C439 1.387 . S
C439 H424 0.930 . S
C439 C434 1.390 . S
C439 C438 1.387 . S
H440 C452 0.930 . S
H441 C454 0.930 . S
H442 C455 0.930 . S
H443 C459 0.959 . S
H444 C459 0.959 . S
H445 C459 0.961 . S
H446 C460 0.960 . S
H447 C460 0.972 . S
H448 C460 0.959 . S
H449 C463 0.929 1_565 S
H450 C464 0.931 . S
H451 C466 0.930 . S
C452 H440 0.930 . S
C452 C453 1.399 . S
C452 C457 1.399 . S
C453 C452 1.399 . S
C453 C454 1.376 . S
C454 H441 0.930 . S
C454 C453 1.376 . S
C454 C455 1.388 . S
C455 H442 0.930 . S
C455 C454 1.388 . S
C455 C456 1.390 . S
C456 C455 1.390 . S
C456 C457 1.394 . S
C456 C462 1.465 1_565 S
C457 C452 1.399 . S
C457 C456 1.394 . S
C457 C458 1.516 1_565 S
C458 C457 1.516 1_545 S
C458 C459 1.502 . S
C458 C460 1.561 1_545 S
C458 C461 1.526 . S
C459 H443 0.959 . S
C459 H444 0.959 . S
C459 H445 0.961 . S
C459 C458 1.502 . S
C460 H446 0.960 . S
C460 H447 0.972 . S
C460 H448 0.959 . S
C460 C458 1.561 1_565 S
C461 C458 1.526 . S
C461 C462 1.396 . S
C461 C466 1.390 . S
C462 C456 1.465 1_545 S
C462 C461 1.396 . S
C462 C463 1.399 . S
C463 H449 0.929 1_545 S
C463 C462 1.399 . S
C463 C464 1.385 . S
C464 H450 0.931 . S
C464 C463 1.385 . S
C464 C465 1.389 . S
C465 C464 1.389 . S
C465 C466 1.387 . S
C466 H451 0.930 . S
C466 C461 1.390 . S
C466 C465 1.387 . S
H467 C479 0.930 . S
H468 C481 0.930 . S
H469 C482 0.930 1_455 S
H470 C486 0.959 . S
H471 C486 0.959 . S
H472 C486 0.961 . S
H473 C487 0.960 . S
H474 C487 0.961 1_545 S
H475 C487 0.959 . S
H476 C490 0.929 . S
H477 C491 0.931 . S
H478 C493 0.930 . S
C479 H467 0.930 . S
C479 C480 1.399 . S
C479 C484 1.399 . S
C480 C479 1.399 . S
C480 C481 1.376 . S
C481 H468 0.930 . S
C481 C480 1.376 . S
C481 C482 1.388 . S
C482 H469 0.930 1_655 S
C482 C481 1.388 . S
C482 C483 1.390 . S
C483 C482 1.390 . S
C483 C484 1.394 . S
C483 C489 1.465 1_665 S
C484 C479 1.399 . S
C484 C483 1.394 . S
C484 C485 1.516 1_565 S
C485 C484 1.516 1_545 S
C485 C486 1.502 . S
C485 C487 1.561 1_645 S
C485 C488 1.526 1_655 S
C486 H470 0.959 . S
C486 H471 0.959 . S
C486 H472 0.961 . S
C486 C485 1.502 . S
C487 H473 0.960 . S
C487 H474 0.961 1_565 S
C487 H475 0.959 . S
C487 C485 1.561 1_465 S
C488 C485 1.526 1_455 S
C488 C489 1.396 . S
C488 C493 1.390 . S
C489 C483 1.465 1_445 S
C489 C488 1.396 . S
C489 C490 1.399 . S
C490 H476 0.929 . S
C490 C489 1.399 . S
C490 C491 1.385 . S
C491 H477 0.931 . S
C491 C490 1.385 . S
C491 C492 1.389 . S
C492 C491 1.389 . S
C492 C493 1.387 . S
C493 H478 0.930 . S
C493 C488 1.390 . S
C493 C492 1.387 . S
H494 C506 0.930 . S
H495 C508 0.930 . S
H496 C509 0.930 . S
H497 C513 0.959 . S
H498 C513 0.959 . S
H499 C513 0.961 . S
H500 C514 0.960 . S
H501 C514 0.961 1_655 S
H502 C514 0.959 . S
H503 C517 0.929 . S
H504 C518 0.931 . S
H505 C520 0.930 . S
C506 H494 0.930 . S
C506 C507 1.399 . S
C506 C511 1.399 . S
C507 C506 1.399 . S
C507 C508 1.376 . S
C508 H495 0.930 . S
C508 C507 1.376 . S
C508 C509 1.388 . S
C509 H496 0.930 . S
C509 C508 1.388 . S
C509 C510 1.390 . S
C510 C509 1.390 . S
C510 C511 1.394 . S
C510 C516 1.465 1_455 S
C511 C506 1.399 . S
C511 C510 1.394 . S
C511 C512 1.516 1_455 S
C512 C511 1.516 1_655 S
C512 C513 1.502 . S
C512 C514 1.561 1_655 S
C512 C515 1.526 . S
C513 H497 0.959 . S
C513 H498 0.959 . S
C513 H499 0.961 . S
C513 C512 1.502 . S
C514 H500 0.960 . S
C514 H501 0.961 1_455 S
C514 H502 0.959 . S
C514 C512 1.561 1_455 S
C515 C512 1.526 . S
C515 C516 1.396 . S
C515 C520 1.390 . S
C516 C510 1.465 1_655 S
C516 C515 1.396 . S
C516 C517 1.399 . S
C517 H503 0.929 . S
C517 C516 1.399 . S
C517 C518 1.385 . S
C518 H504 0.931 . S
C518 C517 1.385 . S
C518 C519 1.389 . S
C519 C518 1.389 . S
C519 C520 1.387 . S
C520 H505 0.930 . S
C520 C515 1.390 . S
C520 C519 1.387 . S
H521 C533 0.930 . S
H522 C535 0.930 . S
H523 C536 0.930 . S
H524 C540 0.959 . S
H525 C540 0.959 . S
H526 C540 0.961 . S
H527 C541 0.960 . S
H528 C541 0.961 . S
H529 C541 0.959 . S
H530 C544 0.929 . S
H531 C545 0.931 . S
H532 C547 0.930 . S
C533 H521 0.930 . S
C533 C534 1.399 . S
C533 C538 1.399 . S
C534 C533 1.399 . S
C534 C535 1.376 . S
C535 H522 0.930 . S
C535 C534 1.376 . S
C535 C536 1.388 . S
C536 H523 0.930 . S
C536 C535 1.388 . S
C536 C537 1.390 . S
C537 C536 1.390 . S
C537 C538 1.394 . S
C537 C543 1.465 . S
C538 C533 1.399 . S
C538 C537 1.394 . S
C538 C539 1.516 . S
C539 C538 1.516 . S
C539 C540 1.502 . S
C539 C541 1.561 . S
C539 C542 1.526 . S
C540 H524 0.959 . S
C540 H525 0.959 . S
C540 H526 0.961 . S
C540 C539 1.502 . S
C541 H527 0.960 . S
C541 H528 0.961 . S
C541 H529 0.959 . S
C541 C539 1.561 . S
C542 C539 1.526 . S
C542 C543 1.396 . S
C542 C547 1.390 . S
C543 C537 1.465 . S
C543 C542 1.396 . S
C543 C544 1.399 . S
C544 H530 0.929 . S
C544 C543 1.399 . S
C544 C545 1.385 . S
C545 H531 0.931 . S
C545 C544 1.385 . S
C545 C546 1.389 . S
C546 C545 1.389 . S
C546 C547 1.387 . S
C547 H532 0.930 . S
C547 C542 1.390 . S
C547 C546 1.387 . S
H548 C560 0.930 . S
H549 C562 0.930 . S
H550 C563 0.930 . S
H551 C567 0.959 . S
H552 C567 0.959 . S
H553 C567 0.961 . S
H554 C568 0.960 . S
H555 C568 0.961 . S
H556 C568 0.959 . S
H557 C571 0.929 . S
H558 C572 0.931 . S
H559 C574 0.930 . S
C560 H548 0.930 . S
C560 C561 1.399 . S
C560 C565 1.399 . S
C561 C560 1.399 . S
C561 C562 1.376 . S
C562 H549 0.930 . S
C562 C561 1.376 . S
C562 C563 1.388 . S
C563 H550 0.930 . S
C563 C562 1.388 . S
C563 C564 1.390 . S
C564 C563 1.390 . S
C564 C565 1.394 . S
C564 C570 1.465 . S
C565 C560 1.399 . S
C565 C564 1.394 . S
C565 C566 1.516 . S
C566 C565 1.516 . S
C566 C567 1.502 . S
C566 C568 1.561 . S
C566 C569 1.526 . S
C567 H551 0.959 . S
C567 H552 0.959 . S
C567 H553 0.961 . S
C567 C566 1.502 . S
C568 H554 0.960 . S
C568 H555 0.961 . S
C568 H556 0.959 . S
C568 C566 1.561 . S
C569 C566 1.526 . S
C569 C570 1.396 . S
C569 C574 1.390 . S
C570 C564 1.465 . S
C570 C569 1.396 . S
C570 C571 1.399 . S
C571 H557 0.929 . S
C571 C570 1.399 . S
C571 C572 1.385 . S
C572 H558 0.931 . S
C572 C571 1.385 . S
C572 C573 1.389 . S
C573 C572 1.389 . S
C573 C574 1.387 . S
C574 H559 0.930 . S
C574 C569 1.390 . S
C574 C573 1.387 . S
H575 C587 0.930 . S
H576 C589 0.930 . S
H577 C590 0.930 . S
H578 C594 0.959 . S
H579 C594 0.959 . S
H580 C594 0.961 . S
H581 C595 0.960 . S
H582 C595 0.968 . S
H583 C595 0.959 . S
H584 C598 0.929 . S
H585 C599 0.931 . S
H586 C601 0.930 . S
C587 H575 0.930 . S
C587 C588 1.399 . S
C587 C592 1.399 . S
C588 C587 1.399 . S
C588 C589 1.376 . S
C589 H576 0.930 . S
C589 C588 1.376 . S
C589 C590 1.388 . S
C590 H577 0.930 . S
C590 C589 1.388 . S
C590 C591 1.390 . S
C591 C590 1.390 . S
C591 C592 1.394 . S
C591 C597 1.465 1_565 S
C592 C587 1.399 . S
C592 C591 1.394 . S
C592 C593 1.500 1_565 S
C593 C592 1.500 1_545 S
C593 C594 1.513 . S
C593 C595 1.551 1_545 S
C593 C596 1.541 . S
C594 H578 0.959 . S
C594 H579 0.959 . S
C594 H580 0.961 . S
C594 C593 1.513 . S
C595 H581 0.960 . S
C595 H582 0.968 . S
C595 H583 0.959 . S
C595 C593 1.551 1_565 S
C596 C593 1.541 . S
C596 C597 1.396 . S
C596 C601 1.390 . S
C597 C591 1.465 1_545 S
C597 C596 1.396 . S
C597 C598 1.399 . S
C598 H584 0.929 . S
C598 C597 1.399 . S
C598 C599 1.385 . S
C599 H585 0.931 . S
C599 C598 1.385 . S
C599 C600 1.389 . S
C600 C599 1.389 . S
C600 C601 1.387 . S
C601 H586 0.930 . S
C601 C596 1.390 . S
C601 C600 1.387 . S
H602 C614 0.930 . S
H603 C616 0.930 . S
H604 C617 0.930 . S
H605 C621 0.959 . S
H606 C621 0.959 1_455 S
H607 C621 0.961 1_565 S
H608 C622 0.960 . S
H609 C622 0.961 . S
H610 C622 0.959 . S
H611 C625 0.929 . S
H612 C626 0.931 . S
H613 C628 0.930 . S
C614 H602 0.930 . S
C614 C615 1.399 . S
C614 C619 1.399 . S
C615 C614 1.399 . S
C615 C616 1.376 . S
C616 H603 0.930 . S
C616 C615 1.376 . S
C616 C617 1.388 . S
C617 H604 0.930 . S
C617 C616 1.388 . S
C617 C618 1.390 . S
C618 C617 1.390 . S
C618 C619 1.394 . S
C618 C624 1.465 1_665 S
C619 C614 1.399 . S
C619 C618 1.394 . S
C619 C620 1.516 1_655 S
C620 C619 1.516 1_455 S
C620 C621 1.502 1_465 S
C620 C622 1.561 . S
C620 C623 1.526 1_565 S
C621 H605 0.959 . S
C621 H606 0.959 1_655 S
C621 H607 0.961 1_545 S
C621 C620 1.502 1_645 S
C622 H608 0.960 . S
C622 H609 0.961 . S
C622 H610 0.959 . S
C622 C620 1.561 . S
C623 C620 1.526 1_545 S
C623 C624 1.396 . S
C623 C628 1.390 . S
C624 C618 1.465 1_445 S
C624 C623 1.396 . S
C624 C625 1.399 . S
C625 H611 0.929 . S
C625 C624 1.399 . S
C625 C626 1.385 . S
C626 H612 0.931 . S
C626 C625 1.385 . S
C626 C627 1.389 . S
C627 C626 1.389 . S
C627 C628 1.387 . S
C628 H613 0.930 . S
C628 C623 1.390 . S
C628 C627 1.387 . S
H629 C641 0.930 . S
H630 C643 0.930 . S
H631 C644 0.930 . S
H632 C648 0.959 . S
H633 C648 0.959 . S
H634 C648 0.961 . S
H635 C649 0.960 . S
H636 C649 0.961 . S
H637 C649 0.959 . S
H638 C652 0.929 . S
H639 C653 0.931 . S
H640 C655 0.930 . S
C641 H629 0.930 . S
C641 C642 1.399 . S
C641 C646 1.399 . S
C642 C641 1.399 . S
C642 C643 1.376 . S
C643 H630 0.930 . S
C643 C642 1.376 . S
C643 C644 1.388 . S
C644 H631 0.930 . S
C644 C643 1.388 . S
C644 C645 1.390 . S
C645 C644 1.390 . S
C645 C646 1.394 . S
C645 C651 1.465 1_455 S
C646 C641 1.399 . S
C646 C645 1.394 . S
C646 C647 1.516 1_455 S
C647 C646 1.516 1_655 S
C647 C648 1.502 1_655 S
C647 C649 1.561 . S
C647 C650 1.526 . S
C648 H632 0.959 . S
C648 H633 0.959 . S
C648 H634 0.961 . S
C648 C647 1.502 1_455 S
C649 H635 0.960 . S
C649 H636 0.961 . S
C649 H637 0.959 . S
C649 C647 1.561 . S
C650 C647 1.526 . S
C650 C651 1.396 . S
C650 C655 1.390 . S
C651 C645 1.465 1_655 S
C651 C650 1.396 . S
C651 C652 1.399 . S
C652 H638 0.929 . S
C652 C651 1.399 . S
C652 C653 1.385 . S
C653 H639 0.931 . S
C653 C652 1.385 . S
C653 C654 1.389 . S
C654 C653 1.389 . S
C654 C655 1.387 . S
C655 H640 0.930 . S
C655 C650 1.390 . S
C655 C654 1.387 . S
H656 C668 0.930 . S
H657 C670 0.930 . S
H658 C671 0.930 . S
H659 C675 0.959 1_545 S
H660 C675 0.959 . S
H661 C675 0.961 . S
H662 C676 0.960 . S
H663 C676 0.961 . S
H664 C676 0.959 . S
H665 C679 0.929 . S
H666 C680 0.931 . S
H667 C682 0.930 . S
C668 H656 0.930 . S
C668 C669 1.399 . S
C668 C673 1.399 . S
C669 C668 1.399 . S
C669 C670 1.376 . S
C670 H657 0.930 . S
C670 C669 1.376 . S
C670 C671 1.388 . S
C671 H658 0.930 . S
C671 C670 1.388 . S
C671 C672 1.390 . S
C672 C671 1.390 . S
C672 C673 1.394 . S
C672 C678 1.465 . S
C673 C668 1.399 . S
C673 C672 1.394 . S
C673 C674 1.516 . S
C674 C673 1.516 . S
C674 C675 1.502 1_545 S
C674 C676 1.561 1_545 S
C674 C677 1.526 . S
C675 H659 0.959 1_565 S
C675 H660 0.959 . S
C675 H661 0.961 . S
C675 C674 1.502 1_565 S
C676 H662 0.960 . S
C676 H663 0.961 . S
C676 H664 0.959 . S
C676 C674 1.561 1_565 S
C677 C674 1.526 . S
C677 C678 1.396 . S
C677 C682 1.390 . S
C678 C672 1.465 . S
C678 C677 1.396 . S
C678 C679 1.399 . S
C679 H665 0.929 . S
C679 C678 1.399 . S
C679 C680 1.385 . S
C680 H666 0.931 . S
C680 C679 1.385 . S
C680 C681 1.389 . S
C681 C680 1.389 . S
C681 C682 1.387 . S
C682 H667 0.930 . S
C682 C677 1.390 . S
C682 C681 1.387 . S
H683 C695 0.930 . S
H684 C697 0.930 . S
H685 C698 0.930 . S
H686 C702 0.959 . S
H687 C702 0.959 . S
H688 C702 0.961 . S
H689 C703 0.960 . S
H690 C703 0.961 . S
H691 C703 0.959 . S
H692 C706 0.929 . S
H693 C707 0.931 . S
H694 C709 0.930 . S
C695 H683 0.930 . S
C695 C696 1.399 . S
C695 C700 1.399 . S
C696 C695 1.399 . S
C696 C697 1.376 . S
C697 H684 0.930 . S
C697 C696 1.376 . S
C697 C698 1.388 . S
C698 H685 0.930 . S
C698 C697 1.388 . S
C698 C699 1.390 . S
C699 C698 1.390 . S
C699 C700 1.394 . S
C699 C705 1.465 . S
C700 C695 1.399 . S
C700 C699 1.394 . S
C700 C701 1.516 . S
C701 C700 1.516 . S
C701 C702 1.502 1_655 S
C701 C703 1.561 . S
C701 C704 1.526 . S
C702 H686 0.959 . S
C702 H687 0.959 . S
C702 H688 0.961 . S
C702 C701 1.502 1_455 S
C703 H689 0.960 . S
C703 H690 0.961 . S
C703 H691 0.959 . S
C703 C701 1.561 . S
C704 C701 1.526 . S
C704 C705 1.396 . S
C704 C709 1.390 . S
C705 C699 1.465 . S
C705 C704 1.396 . S
C705 C706 1.399 . S
C706 H692 0.929 . S
C706 C705 1.399 . S
C706 C707 1.385 . S
C707 H693 0.931 . S
C707 C706 1.385 . S
C707 C708 1.389 . S
C708 C707 1.389 . S
C708 C709 1.387 . S
C709 H694 0.930 . S
C709 C704 1.390 . S
C709 C708 1.387 . S
H710 C722 0.930 . S
H711 C724 0.930 . S
H712 C725 0.930 . S
H713 C729 0.959 . S
H714 C729 0.959 . S
H715 C729 0.961 . S
H716 C730 0.960 . S
H717 C730 0.961 . S
H718 C730 0.959 . S
H719 C733 0.929 . S
H720 C734 0.931 . S
H721 C736 0.930 . S
C722 H710 0.930 . S
C722 C723 1.399 . S
C722 C727 1.399 . S
C723 C722 1.399 . S
C723 C724 1.376 . S
C724 H711 0.930 . S
C724 C723 1.376 . S
C724 C725 1.388 . S
C725 H712 0.930 . S
C725 C724 1.388 . S
C725 C726 1.390 . S
C726 C725 1.390 . S
C726 C727 1.394 . S
C726 C732 1.465 . S
C727 C722 1.399 . S
C727 C726 1.394 . S
C727 C728 1.516 . S
C728 C727 1.516 . S
C728 C729 1.502 . S
C728 C730 1.561 . S
C728 C731 1.526 . S
C729 H713 0.959 . S
C729 H714 0.959 . S
C729 H715 0.961 . S
C729 C728 1.502 . S
C730 H716 0.960 . S
C730 H717 0.961 . S
C730 H718 0.959 . S
C730 C728 1.561 . S
C731 C728 1.526 . S
C731 C732 1.396 . S
C731 C736 1.390 . S
C732 C726 1.465 . S
C732 C731 1.396 . S
C732 C733 1.399 . S
C733 H719 0.929 . S
C733 C732 1.399 . S
C733 C734 1.385 . S
C734 H720 0.931 . S
C734 C733 1.385 . S
C734 C735 1.389 . S
C735 C734 1.389 . S
C735 C736 1.387 . S
C736 H721 0.930 . S
C736 C731 1.390 . S
C736 C735 1.387 . S
H737 C749 0.930 . S
H738 C751 0.930 . S
H739 C752 0.930 . S
H740 C756 0.959 . S
H741 C756 0.959 . S
H742 C756 0.961 . S
H743 C757 0.960 . S
H744 C757 0.961 . S
H745 C757 0.959 . S
H746 C760 0.929 . S
H747 C761 0.931 . S
H748 C763 0.930 . S
C749 H737 0.930 . S
C749 C750 1.399 . S
C749 C754 1.399 . S
C750 C749 1.399 . S
C750 C751 1.376 . S
C751 H738 0.930 . S
C751 C750 1.376 . S
C751 C752 1.388 . S
C752 H739 0.930 . S
C752 C751 1.388 . S
C752 C753 1.390 . S
C753 C752 1.390 . S
C753 C754 1.394 . S
C753 C759 1.465 . S
C754 C749 1.399 . S
C754 C753 1.394 . S
C754 C755 1.516 . S
C755 C754 1.516 . S
C755 C756 1.502 . S
C755 C757 1.561 . S
C755 C758 1.526 . S
C756 H740 0.959 . S
C756 H741 0.959 . S
C756 H742 0.961 . S
C756 C755 1.502 . S
C757 H743 0.960 . S
C757 H744 0.961 . S
C757 H745 0.959 . S
C757 C755 1.561 . S
C758 C755 1.526 . S
C758 C759 1.396 . S
C758 C763 1.390 . S
C759 C753 1.465 . S
C759 C758 1.396 . S
C759 C760 1.399 . S
C760 H746 0.929 . S
C760 C759 1.399 . S
C760 C761 1.385 . S
C761 H747 0.931 . S
C761 C760 1.385 . S
C761 C762 1.389 . S
C762 C761 1.389 . S
C762 C763 1.387 . S
C763 H748 0.930 . S
C763 C758 1.390 . S
C763 C762 1.387 . S
H764 C776 0.930 . S
H765 C778 0.930 . S
H766 C779 0.930 . S
H767 C783 0.959 . S
H768 C783 0.959 . S
H769 C783 0.961 . S
H770 C784 0.960 . S
H771 C784 0.961 . S
H772 C784 0.959 . S
H773 C787 0.929 . S
H774 C788 0.931 . S
H775 C790 0.930 . S
C776 H764 0.930 . S
C776 C777 1.399 . S
C776 C781 1.399 . S
C777 C776 1.399 . S
C777 C778 1.376 . S
C778 H765 0.930 . S
C778 C777 1.376 . S
C778 C779 1.388 . S
C779 H766 0.930 . S
C779 C778 1.388 . S
C779 C780 1.390 . S
C780 C779 1.390 . S
C780 C781 1.394 . S
C780 C786 1.465 . S
C781 C776 1.399 . S
C781 C780 1.394 . S
C781 C782 1.516 . S
C782 C781 1.516 . S
C782 C783 1.502 . S
C782 C784 1.561 . S
C782 C785 1.526 . S
C783 H767 0.959 . S
C783 H768 0.959 . S
C783 H769 0.961 . S
C783 C782 1.502 . S
C784 H770 0.960 . S
C784 H771 0.961 . S
C784 H772 0.959 . S
C784 C782 1.561 . S
C785 C782 1.526 . S
C785 C786 1.396 . S
C785 C790 1.390 . S
C786 C780 1.465 . S
C786 C785 1.396 . S
C786 C787 1.399 . S
C787 H773 0.929 . S
C787 C786 1.399 . S
C787 C788 1.385 . S
C788 H774 0.931 . S
C788 C787 1.385 . S
C788 C789 1.389 . S
C789 C788 1.389 . S
C789 C790 1.387 . S
C790 H775 0.930 . S
C790 C785 1.390 . S
C790 C789 1.387 . S
H791 C803 0.930 . S
H792 C805 0.930 . S
H793 C806 0.930 . S
H794 C810 0.959 . S
H795 C810 0.959 . S
H796 C810 0.961 . S
H797 C811 0.960 . S
H798 C811 0.961 . S
H799 C811 0.959 . S
H800 C814 0.929 . S
H801 C815 0.931 . S
H802 C817 0.930 . S
C803 H791 0.930 . S
C803 C804 1.399 . S
C803 C808 1.399 . S
C804 C803 1.399 . S
C804 C805 1.376 . S
C805 H792 0.930 . S
C805 C804 1.376 . S
C805 C806 1.388 . S
C806 H793 0.930 . S
C806 C805 1.388 . S
C806 C807 1.390 . S
C807 C806 1.390 . S
C807 C808 1.394 . S
C807 C813 1.465 . S
C808 C803 1.399 . S
C808 C807 1.394 . S
C808 C809 1.516 . S
C809 C808 1.516 . S
C809 C810 1.502 . S
C809 C811 1.561 . S
C809 C812 1.526 . S
C810 H794 0.959 . S
C810 H795 0.959 . S
C810 H796 0.961 . S
C810 C809 1.502 . S
C811 H797 0.960 . S
C811 H798 0.961 . S
C811 H799 0.959 . S
C811 C809 1.561 . S
C812 C809 1.526 . S
C812 C813 1.396 . S
C812 C817 1.390 . S
C813 C807 1.465 . S
C813 C812 1.396 . S
C813 C814 1.399 . S
C814 H800 0.929 . S
C814 C813 1.399 . S
C814 C815 1.385 . S
C815 H801 0.931 . S
C815 C814 1.385 . S
C815 C816 1.389 . S
C816 C815 1.389 . S
C816 C817 1.387 . S
C817 H802 0.930 . S
C817 C812 1.390 . S
C817 C816 1.387 . S
H818 C830 0.930 . S
H819 C832 0.930 . S
H820 C833 0.930 . S
H821 C837 0.959 1_565 S
H822 C837 0.959 . S
H823 C837 0.961 . S
H824 C838 0.960 . S
H825 C838 0.961 . S
H826 C838 0.959 . S
H827 C841 0.929 . S
H828 C842 0.931 . S
H829 C844 0.930 . S
C830 H818 0.930 . S
C830 C831 1.399 . S
C830 C835 1.399 . S
C831 C830 1.399 . S
C831 C832 1.376 . S
C832 H819 0.930 . S
C832 C831 1.376 . S
C832 C833 1.388 . S
C833 H820 0.930 . S
C833 C832 1.388 . S
C833 C834 1.390 . S
C834 C833 1.390 . S
C834 C835 1.394 . S
C834 C840 1.465 . S
C835 C830 1.399 . S
C835 C834 1.394 . S
C835 C836 1.516 . S
C836 C835 1.516 . S
C836 C837 1.502 1_565 S
C836 C838 1.561 1_565 S
C836 C839 1.526 . S
C837 H821 0.959 1_545 S
C837 H822 0.959 . S
C837 H823 0.961 . S
C837 C836 1.502 1_545 S
C838 H824 0.960 . S
C838 H825 0.961 . S
C838 H826 0.959 . S
C838 C836 1.561 1_545 S
C839 C836 1.526 . S
C839 C840 1.396 . S
C839 C844 1.390 . S
C840 C834 1.465 . S
C840 C839 1.396 . S
C840 C841 1.399 . S
C841 H827 0.929 . S
C841 C840 1.399 . S
C841 C842 1.385 . S
C842 H828 0.931 . S
C842 C841 1.385 . S
C842 C843 1.389 . S
C843 C842 1.389 . S
C843 C844 1.387 . S
C844 H829 0.930 . S
C844 C839 1.390 . S
C844 C843 1.387 . S
H845 C857 0.930 . S
H846 C859 0.930 . S
H847 C860 0.930 . S
H848 C864 0.959 1_655 S
H849 C864 0.959 . S
H850 C864 0.961 . S
H851 C865 0.960 . S
H852 C865 0.961 . S
H853 C865 0.959 . S
H854 C868 0.929 . S
H855 C869 0.931 . S
H856 C871 0.930 . S
C857 H845 0.930 . S
C857 C858 1.399 . S
C857 C862 1.399 . S
C858 C857 1.399 . S
C858 C859 1.376 . S
C859 H846 0.930 . S
C859 C858 1.376 . S
C859 C860 1.388 . S
C860 H847 0.930 . S
C860 C859 1.388 . S
C860 C861 1.390 . S
C861 C860 1.390 . S
C861 C862 1.394 . S
C861 C867 1.465 . S
C862 C857 1.399 . S
C862 C861 1.394 . S
C862 C863 1.516 . S
C863 C862 1.516 . S
C863 C864 1.502 . S
C863 C865 1.561 . S
C863 C866 1.526 . S
C864 H848 0.959 1_455 S
C864 H849 0.959 . S
C864 H850 0.961 . S
C864 C863 1.502 . S
C865 H851 0.960 . S
C865 H852 0.961 . S
C865 H853 0.959 . S
C865 C863 1.561 . S
C866 C863 1.526 . S
C866 C867 1.396 . S
C866 C871 1.390 . S
C867 C861 1.465 . S
C867 C866 1.396 . S
C867 C868 1.399 . S
C868 H854 0.929 . S
C868 C867 1.399 . S
C868 C869 1.385 . S
C869 H855 0.931 . S
C869 C868 1.385 . S
C869 C870 1.389 . S
C870 C869 1.389 . S
C870 C871 1.387 . S
C871 H856 0.930 . S
C871 C866 1.390 . S
C871 C870 1.387 . S
H872 C884 0.930 . S
H873 C886 0.930 . S
H874 C887 0.930 . S
H875 C891 0.959 . S
H876 C891 0.959 . S
H877 C891 0.961 . S
H878 C892 0.960 . S
H879 C892 0.961 . S
H880 C892 0.959 . S
H881 C895 0.929 . S
H882 C896 0.931 . S
H883 C898 0.930 . S
C884 H872 0.930 . S
C884 C885 1.399 . S
C884 C889 1.399 . S
C885 C884 1.399 . S
C885 C886 1.376 . S
C886 H873 0.930 . S
C886 C885 1.376 . S
C886 C887 1.388 . S
C887 H874 0.930 . S
C887 C886 1.388 . S
C887 C888 1.390 . S
C888 C887 1.390 . S
C888 C889 1.394 . S
C888 C894 1.465 . S
C889 C884 1.399 . S
C889 C888 1.394 . S
C889 C890 1.516 . S
C890 C889 1.516 . S
C890 C891 1.502 . S
C890 C892 1.561 . S
C890 C893 1.526 . S
C891 H875 0.959 . S
C891 H876 0.959 . S
C891 H877 0.961 . S
C891 C890 1.502 . S
C892 H878 0.960 . S
C892 H879 0.961 . S
C892 H880 0.959 . S
C892 C890 1.561 . S
C893 C890 1.526 . S
C893 C894 1.396 . S
C893 C898 1.390 . S
C894 C888 1.465 . S
C894 C893 1.396 . S
C894 C895 1.399 . S
C895 H881 0.929 . S
C895 C894 1.399 . S
C895 C896 1.385 . S
C896 H882 0.931 . S
C896 C895 1.385 . S
C896 C897 1.389 . S
C897 C896 1.389 . S
C897 C898 1.387 . S
C898 H883 0.930 . S
C898 C893 1.390 . S
C898 C897 1.387 . S
H899 C911 0.930 . S
H900 C913 0.930 . S
H901 C914 0.930 . S
H902 C918 0.959 . S
H903 C918 0.959 . S
H904 C918 0.961 . S
H905 C919 0.960 . S
H906 C919 0.961 . S
H907 C919 0.959 . S
H908 C922 0.929 . S
H909 C923 0.931 . S
H910 C925 0.930 . S
C911 H899 0.930 . S
C911 C912 1.399 . S
C911 C916 1.399 . S
C912 C911 1.399 . S
C912 C913 1.376 . S
C913 H900 0.930 . S
C913 C912 1.376 . S
C913 C914 1.388 . S
C914 H901 0.930 . S
C914 C913 1.388 . S
C914 C915 1.390 . S
C915 C914 1.390 . S
C915 C916 1.394 . S
C915 C921 1.465 . S
C916 C911 1.399 . S
C916 C915 1.394 . S
C916 C917 1.516 . S
C917 C916 1.516 . S
C917 C918 1.502 . S
C917 C919 1.561 . S
C917 C920 1.526 . S
C918 H902 0.959 . S
C918 H903 0.959 . S
C918 H904 0.961 . S
C918 C917 1.502 . S
C919 H905 0.960 . S
C919 H906 0.961 . S
C919 H907 0.959 . S
C919 C917 1.561 . S
C920 C917 1.526 . S
C920 C921 1.396 . S
C920 C925 1.390 . S
C921 C915 1.465 . S
C921 C920 1.396 . S
C921 C922 1.399 . S
C922 H908 0.929 . S
C922 C921 1.399 . S
C922 C923 1.385 . S
C923 H909 0.931 . S
C923 C922 1.385 . S
C923 C924 1.389 . S
C924 C923 1.389 . S
C924 C925 1.387 . S
C925 H910 0.930 . S
C925 C920 1.390 . S
C925 C924 1.387 . S
H926 C938 0.930 . S
H927 C940 0.930 . S
H928 C941 0.930 . S
H929 C945 0.959 . S
H930 C945 0.959 . S
H931 C945 0.961 . S
H932 C946 0.960 . S
H933 C946 0.961 . S
H934 C946 0.959 . S
H935 C949 0.929 . S
H936 C950 0.931 . S
H937 C952 0.930 . S
C938 H926 0.930 . S
C938 C939 1.399 . S
C938 C943 1.399 . S
C939 C938 1.399 . S
C939 C940 1.376 . S
C940 H927 0.930 . S
C940 C939 1.376 . S
C940 C941 1.388 . S
C941 H928 0.930 . S
C941 C940 1.388 . S
C941 C942 1.390 . S
C942 C941 1.390 . S
C942 C943 1.394 . S
C942 C948 1.465 . S
C943 C938 1.399 . S
C943 C942 1.394 . S
C943 C944 1.516 . S
C944 C943 1.516 . S
C944 C945 1.502 . S
C944 C946 1.561 . S
C944 C947 1.526 . S
C945 H929 0.959 . S
C945 H930 0.959 . S
C945 H931 0.961 . S
C945 C944 1.502 . S
C946 H932 0.960 . S
C946 H933 0.961 . S
C946 H934 0.959 . S
C946 C944 1.561 . S
C947 C944 1.526 . S
C947 C948 1.396 . S
C947 C952 1.390 . S
C948 C942 1.465 . S
C948 C947 1.396 . S
C948 C949 1.399 . S
C949 H935 0.929 . S
C949 C948 1.399 . S
C949 C950 1.385 . S
C950 H936 0.931 . S
C950 C949 1.385 . S
C950 C951 1.389 . S
C951 C950 1.389 . S
C951 C952 1.387 . S
C952 H937 0.930 . S
C952 C947 1.390 . S
C952 C951 1.387 . S
H953 C965 0.930 . S
H954 C967 0.930 . S
H955 C968 0.930 . S
H956 C972 0.959 . S
H957 C972 0.959 . S
H958 C972 0.961 1_556 S
H959 C973 0.960 . S
H960 C973 0.961 . S
H961 C973 0.959 . S
H962 C976 0.929 . S
H963 C977 0.931 . S
H964 C979 0.930 . S
C965 H953 0.930 . S
C965 C966 1.399 . S
C965 C970 1.399 . S
C966 C965 1.399 . S
C966 C967 1.376 . S
C967 H954 0.930 . S
C967 C966 1.376 . S
C967 C968 1.388 . S
C968 H955 0.930 . S
C968 C967 1.388 . S
C968 C969 1.390 . S
C969 C968 1.390 . S
C969 C970 1.394 . S
C969 C975 1.465 1_556 S
C970 C965 1.399 . S
C970 C969 1.394 . S
C970 C971 1.516 . S
C971 C970 1.516 . S
C971 C972 1.502 1_556 S
C971 C973 1.561 . S
C971 C974 1.526 1_556 S
C972 H956 0.959 . S
C972 H957 0.959 . S
C972 H958 0.961 1_554 S
C972 C971 1.502 1_554 S
C973 H959 0.960 . S
C973 H960 0.961 . S
C973 H961 0.959 . S
C973 C971 1.561 . S
C974 C971 1.526 1_554 S
C974 C975 1.396 . S
C974 C979 1.390 . S
C975 C969 1.465 1_554 S
C975 C974 1.396 . S
C975 C976 1.399 . S
C976 H962 0.929 . S
C976 C975 1.399 . S
C976 C977 1.385 . S
C977 H963 0.931 . S
C977 C976 1.385 . S
C977 C978 1.389 . S
C978 C977 1.389 . S
C978 C979 1.387 . S
C979 H964 0.930 . S
C979 C974 1.390 . S
C979 C978 1.387 . S
H980 C992 0.930 . S
H981 C994 0.930 . S
H982 C995 0.930 . S
H983 C999 0.959 . S
H984 C999 1.011 . S
H985 C999 0.961 . S
H986 C1000 0.960 1_554 S
H987 C1000 0.961 . S
H988 C1000 0.959 . S
H989 C1003 0.929 . S
H990 C1004 0.931 . S
H991 C1006 0.930 . S
C992 H980 0.930 . S
C992 C993 1.399 . S
C992 C997 1.399 . S
C993 C992 1.399 . S
C993 C994 1.376 . S
C994 H981 0.930 . S
C994 C993 1.376 . S
C994 C995 1.388 . S
C995 H982 0.930 . S
C995 C994 1.388 . S
C995 C996 1.390 . S
C996 C995 1.390 . S
C996 C997 1.394 . S
C996 C1002 1.465 1_554 S
C997 C992 1.399 . S
C997 C996 1.394 . S
C997 C998 1.537 . S
C998 C997 1.537 . S
C998 C999 1.517 . S
C998 C1000 1.546 1_554 S
C998 C1001 1.503 1_554 S
C999 H983 0.959 . S
C999 H984 1.011 . S
C999 H985 0.961 . S
C999 C998 1.517 . S
C1000 H986 0.960 1_556 S
C1000 H987 0.961 . S
C1000 H988 0.959 . S
C1000 C998 1.546 1_556 S
C1001 C998 1.503 1_556 S
C1001 C1002 1.396 . S
C1001 C1006 1.390 . S
C1002 C996 1.465 1_556 S
C1002 C1001 1.396 . S
C1002 C1003 1.399 . S
C1003 H989 0.929 . S
C1003 C1002 1.399 . S
C1003 C1004 1.385 . S
C1004 H990 0.931 . S
C1004 C1003 1.385 . S
C1004 C1005 1.389 . S
C1005 C1004 1.389 . S
C1005 C1006 1.387 . S
C1006 H991 0.930 . S
C1006 C1001 1.390 . S
C1006 C1005 1.387 . S
H1007 C1019 0.930 . S
H1008 C1021 0.930 . S
H1009 C1022 0.930 . S
H1010 C1026 0.959 . S
H1011 C1026 0.959 . S
H1012 C1026 0.961 . S
H1013 C1027 0.960 . S
H1014 C1027 0.961 . S
H1015 C1027 0.959 . S
H1016 C1030 0.929 . S
H1017 C1031 0.931 . S
H1018 C1033 0.930 . S
C1019 H1007 0.930 . S
C1019 C1020 1.399 . S
C1019 C1024 1.399 . S
C1020 C1019 1.399 . S
C1020 C1021 1.376 . S
C1021 H1008 0.930 . S
C1021 C1020 1.376 . S
C1021 C1022 1.388 . S
C1022 H1009 0.930 . S
C1022 C1021 1.388 . S
C1022 C1023 1.390 . S
C1023 C1022 1.390 . S
C1023 C1024 1.394 . S
C1023 C1029 1.465 . S
C1024 C1019 1.399 . S
C1024 C1023 1.394 . S
C1024 C1025 1.516 . S
C1025 C1024 1.516 . S
C1025 C1026 1.502 . S
C1025 C1027 1.561 . S
C1025 C1028 1.526 . S
C1026 H1010 0.959 . S
C1026 H1011 0.959 . S
C1026 H1012 0.961 . S
C1026 C1025 1.502 . S
C1027 H1013 0.960 . S
C1027 H1014 0.961 . S
C1027 H1015 0.959 . S
C1027 C1025 1.561 . S
C1028 C1025 1.526 . S
C1028 C1029 1.396 . S
C1028 C1033 1.390 . S
C1029 C1023 1.465 . S
C1029 C1028 1.396 . S
C1029 C1030 1.399 . S
C1030 H1016 0.929 . S
C1030 C1029 1.399 . S
C1030 C1031 1.385 . S
C1031 H1017 0.931 . S
C1031 C1030 1.385 . S
C1031 C1032 1.389 . S
C1032 C1031 1.389 . S
C1032 C1033 1.387 . S
C1033 H1018 0.930 . S
C1033 C1028 1.390 . S
C1033 C1032 1.387 . S
H1034 C1046 0.930 . S
H1035 C1048 0.930 . S
H1036 C1049 0.930 . S
H1037 C1053 0.959 . S
H1038 C1053 0.959 . S
H1039 C1053 0.961 . S
H1040 C1054 0.960 . S
H1041 C1054 0.961 . S
H1042 C1054 0.959 . S
H1043 C1057 0.929 . S
H1044 C1058 0.931 . S
H1045 C1060 0.930 . S
C1046 H1034 0.930 . S
C1046 C1047 1.399 . S
C1046 C1051 1.399 . S
C1047 C1046 1.399 . S
C1047 C1048 1.376 . S
C1048 H1035 0.930 . S
C1048 C1047 1.376 . S
C1048 C1049 1.388 . S
C1049 H1036 0.930 . S
C1049 C1048 1.388 . S
C1049 C1050 1.390 . S
C1050 C1049 1.390 . S
C1050 C1051 1.394 . S
C1050 C1056 1.465 . S
C1051 C1046 1.399 . S
C1051 C1050 1.394 . S
C1051 C1052 1.516 . S
C1052 C1051 1.516 . S
C1052 C1053 1.502 . S
C1052 C1054 1.561 . S
C1052 C1055 1.526 . S
C1053 H1037 0.959 . S
C1053 H1038 0.959 . S
C1053 H1039 0.961 . S
C1053 C1052 1.502 . S
C1054 H1040 0.960 . S
C1054 H1041 0.961 . S
C1054 H1042 0.959 . S
C1054 C1052 1.561 . S
C1055 C1052 1.526 . S
C1055 C1056 1.396 . S
C1055 C1060 1.390 . S
C1056 C1050 1.465 . S
C1056 C1055 1.396 . S
C1056 C1057 1.399 . S
C1057 H1043 0.929 . S
C1057 C1056 1.399 . S
C1057 C1058 1.385 . S
C1058 H1044 0.931 . S
C1058 C1057 1.385 . S
C1058 C1059 1.389 . S
C1059 C1058 1.389 . S
C1059 C1060 1.387 . S
C1060 H1045 0.930 . S
C1060 C1055 1.390 . S
C1060 C1059 1.387 . S
H1061 C1073 0.930 . S
H1062 C1075 0.930 . S
H1063 C1076 0.930 . S
H1064 C1080 0.959 . S
H1065 C1080 0.959 . S
H1066 C1080 0.961 . S
H1067 C1081 0.960 . S
H1068 C1081 0.961 . S
H1069 C1081 0.959 . S
H1070 C1084 0.929 . S
H1071 C1085 0.931 . S
H1072 C1087 0.930 . S
C1073 H1061 0.930 . S
C1073 C1074 1.399 . S
C1073 C1078 1.399 . S
C1074 C1073 1.399 . S
C1074 C1075 1.376 . S
C1075 H1062 0.930 . S
C1075 C1074 1.376 . S
C1075 C1076 1.388 . S
C1076 H1063 0.930 . S
C1076 C1075 1.388 . S
C1076 C1077 1.390 . S
C1077 C1076 1.390 . S
C1077 C1078 1.394 . S
C1077 C1083 1.465 . S
C1078 C1073 1.399 . S
C1078 C1077 1.394 . S
C1078 C1079 1.516 . S
C1079 C1078 1.516 . S
C1079 C1080 1.502 . S
C1079 C1081 1.561 . S
C1079 C1082 1.526 . S
C1080 H1064 0.959 . S
C1080 H1065 0.959 . S
C1080 H1066 0.961 . S
C1080 C1079 1.502 . S
C1081 H1067 0.960 . S
C1081 H1068 0.961 . S
C1081 H1069 0.959 . S
C1081 C1079 1.561 . S
C1082 C1079 1.526 . S
C1082 C1083 1.396 . S
C1082 C1087 1.390 . S
C1083 C1077 1.465 . S
C1083 C1082 1.396 . S
C1083 C1084 1.399 . S
C1084 H1070 0.929 . S
C1084 C1083 1.399 . S
C1084 C1085 1.385 . S
C1085 H1071 0.931 . S
C1085 C1084 1.385 . S
C1085 C1086 1.389 . S
C1086 C1085 1.389 . S
C1086 C1087 1.387 . S
C1087 H1072 0.930 . S
C1087 C1082 1.390 . S
C1087 C1086 1.387 . S
C237 C141 2.050 . S
C249 C13 2.094 . S
C264 C15 2.094 . S
C276 C167 2.051 . S
C291 C113 2.090 . S
C303 C29 2.057 . S
C318 C139 2.062 . S
C330 C43 2.083 . S
C345 C69 2.091 . S
C357 C197 2.055 . S
C372 C211 2.052 . S
C384 C83 2.093 . S
C399 C96 2.089 . S
C411 C180 2.050 . S
C426 C182 2.087 . S
C438 C98 2.051 . S
C453 C140 1.484 . S
C465 C12 1.437 . S
C480 C14 1.435 . S
C492 C166 1.482 . S
C507 C28 1.429 . S
C519 C112 1.490 . S
C534 C42 1.497 . S
C546 C138 1.425 . S
C561 C68 1.431 . S
C573 C196 1.487 . S
C588 C82 1.443 . S
C600 C210 1.476 . S
C615 C181 1.465 . S
C627 C97 1.461 . S
C642 C183 1.449 . S
C654 C99 1.475 . S
C669 C0 1.614 . S
C681 C85 1.636 . S
C696 C26 1.638 . S
C708 C111 1.615 . S
C723 C40 1.655 . S
C735 C56 1.636 . S
C750 C54 1.636 . S
C762 C70 1.615 . S
C777 C124 1.613 . S
C789 C208 1.639 . S
C804 C222 1.640 . S
C816 C126 1.614 . S
C831 C152 1.614 . S
C843 C169 1.636 . S
C858 C195 1.646 . S
C870 C154 1.614 . S
C885 C1 1.724 . S
C897 C223 1.715 . S
C912 C168 1.720 . S
C924 C27 1.718 . S
C939 C194 1.735 . S
C951 C41 1.703 . S
C966 C209 1.717 . S
C978 C55 1.722 . S
C993 C127 1.726 . S
C1005 C57 1.709 . S
C1020 C153 1.713 . S
C1032 C71 1.726 . S
C1047 C84 1.709 . S
C1059 C155 1.723 . S
C1074 C110 1.717 . S
C1086 C125 1.716 . S
