# Generated by pormake.
# Topology yfw, (5)-cn, num edge types: 1
# Building blocks:
#     Node 0, Type 0, BuildingBlock: XOMCOT_clean_sbu_0, # of connection points: 5
#     Node 1, Type 0, BuildingBlock: XOMCOT_clean_sbu_0, # of connection points: 5
#     Node 2, Type 0, BuildingBlock: XOMCOT_clean_sbu_0, # of connection points: 5
#     Node 3, Type 0, BuildingBlock: XOMCOT_clean_sbu_0, # of connection points: 5
#     Node 4, Type 0, BuildingBlock: XOMCOT_clean_sbu_0, # of connection points: 5
#     Node 5, Type 0, BuildingBlock: XOMCOT_clean_sbu_0, # of connection points: 5
#     Node 6, Type 0, BuildingBlock: XOMCOT_clean_sbu_0, # of connection points: 5
#     Node 7, Type 0, BuildingBlock: XOMCOT_clean_sbu_0, # of connection points: 5
#     Node 8, Type 0, BuildingBlock: XOMCOT_clean_sbu_0, # of connection points: 5
#     Node 9, Type 0, BuildingBlock: XOMCOT_clean_sbu_0, # of connection points: 5
#     Node 10, Type 0, BuildingBlock: XOMCOT_clean_sbu_0, # of connection points: 5
#     Node 11, Type 0, BuildingBlock: XOMCOT_clean_sbu_0, # of connection points: 5
#     Node 12, Type 0, BuildingBlock: XOMCOT_clean_sbu_0, # of connection points: 5
#     Node 13, Type 0, BuildingBlock: XOMCOT_clean_sbu_0, # of connection points: 5
#     Node 14, Type 0, BuildingBlock: XOMCOT_clean_sbu_0, # of connection points: 5
#     Node 15, Type 0, BuildingBlock: XOMCOT_clean_sbu_0, # of connection points: 5
#     Edge 16, Type (0, 0), BuildingBlock: ZUJKAS_clean_linker_0, # of connection points: 2
#     Edge 17, Type (0, 0), BuildingBlock: ZUJKAS_clean_linker_0, # of connection points: 2
#     Edge 18, Type (0, 0), BuildingBlock: ZUJKAS_clean_linker_0, # of connection points: 2
#     Edge 19, Type (0, 0), BuildingBlock: ZUJKAS_clean_linker_0, # of connection points: 2
#     Edge 20, Type (0, 0), BuildingBlock: ZUJKAS_clean_linker_0, # of connection points: 2
#     Edge 21, Type (0, 0), BuildingBlock: ZUJKAS_clean_linker_0, # of connection points: 2
#     Edge 22, Type (0, 0), BuildingBlock: ZUJKAS_clean_linker_0, # of connection points: 2
#     Edge 23, Type (0, 0), BuildingBlock: ZUJKAS_clean_linker_0, # of connection points: 2
#     Edge 24, Type (0, 0), BuildingBlock: ZUJKAS_clean_linker_0, # of connection points: 2
#     Edge 25, Type (0, 0), BuildingBlock: ZUJKAS_clean_linker_0, # of connection points: 2
#     Edge 26, Type (0, 0), BuildingBlock: ZUJKAS_clean_linker_0, # of connection points: 2
#     Edge 27, Type (0, 0), BuildingBlock: ZUJKAS_clean_linker_0, # of connection points: 2
#     Edge 28, Type (0, 0), BuildingBlock: ZUJKAS_clean_linker_0, # of connection points: 2
#     Edge 29, Type (0, 0), BuildingBlock: ZUJKAS_clean_linker_0, # of connection points: 2
#     Edge 30, Type (0, 0), BuildingBlock: ZUJKAS_clean_linker_0, # of connection points: 2
#     Edge 31, Type (0, 0), BuildingBlock: ZUJKAS_clean_linker_0, # of connection points: 2
#     Edge 32, Type (0, 0), BuildingBlock: ZUJKAS_clean_linker_0, # of connection points: 2
#     Edge 33, Type (0, 0), BuildingBlock: ZUJKAS_clean_linker_0, # of connection points: 2
#     Edge 34, Type (0, 0), BuildingBlock: ZUJKAS_clean_linker_0, # of connection points: 2
#     Edge 35, Type (0, 0), BuildingBlock: ZUJKAS_clean_linker_0, # of connection points: 2
#     Edge 36, Type (0, 0), BuildingBlock: ZUJKAS_clean_linker_0, # of connection points: 2
#     Edge 37, Type (0, 0), BuildingBlock: ZUJKAS_clean_linker_0, # of connection points: 2
#     Edge 38, Type (0, 0), BuildingBlock: ZUJKAS_clean_linker_0, # of connection points: 2
#     Edge 39, Type (0, 0), BuildingBlock: ZUJKAS_clean_linker_0, # of connection points: 2
#     Edge 40, Type (0, 0), BuildingBlock: ZUJKAS_clean_linker_0, # of connection points: 2
#     Edge 41, Type (0, 0), BuildingBlock: ZUJKAS_clean_linker_0, # of connection points: 2
#     Edge 42, Type (0, 0), BuildingBlock: ZUJKAS_clean_linker_0, # of connection points: 2
#     Edge 43, Type (0, 0), BuildingBlock: ZUJKAS_clean_linker_0, # of connection points: 2
#     Edge 44, Type (0, 0), BuildingBlock: ZUJKAS_clean_linker_0, # of connection points: 2
#     Edge 45, Type (0, 0), BuildingBlock: ZUJKAS_clean_linker_0, # of connection points: 2
#     Edge 46, Type (0, 0), BuildingBlock: ZUJKAS_clean_linker_0, # of connection points: 2
#     Edge 47, Type (0, 0), BuildingBlock: ZUJKAS_clean_linker_0, # of connection points: 2
#     Edge 48, Type (0, 0), BuildingBlock: ZUJKAS_clean_linker_0, # of connection points: 2
#     Edge 49, Type (0, 0), BuildingBlock: ZUJKAS_clean_linker_0, # of connection points: 2
#     Edge 50, Type (0, 0), BuildingBlock: ZUJKAS_clean_linker_0, # of connection points: 2
#     Edge 51, Type (0, 0), BuildingBlock: ZUJKAS_clean_linker_0, # of connection points: 2
#     Edge 52, Type (0, 0), BuildingBlock: ZUJKAS_clean_linker_0, # of connection points: 2
#     Edge 53, Type (0, 0), BuildingBlock: ZUJKAS_clean_linker_0, # of connection points: 2
#     Edge 54, Type (0, 0), BuildingBlock: ZUJKAS_clean_linker_0, # of connection points: 2
#     Edge 55, Type (0, 0), BuildingBlock: ZUJKAS_clean_linker_0, # of connection points: 2
# Relax obj value: 0.118
# Max RMSD: 0.166
# Mean RMSD: 0.166
data_MOF--net-yfw--node1-XOMCOT_clean_sbu_0--edge1-ZUJKAS_clean_linker_0
_symmetry_space_group_name_H-M    P1
_symmetry_Int_Tables_number       1
_symmetry_cell_setting            triclinic
loop_
_symmetry_equiv_pos_as_xyz
'x, y, z'
_cell_length_a     72.161201
_cell_length_b     72.175475
_cell_length_c     31.410792
_cell_angle_alpha  90.012495
_cell_angle_beta   89.994686
_cell_angle_gamma 89.945758
loop_
_atom_site_label
_atom_site_type_symbol
_atom_site_fract_x
_atom_site_fract_y
_atom_site_fract_z
_atom_type_partial_charge
Co0 Co 0.14114 0.07813 0.00448 0.0
C1 C 0.17945 0.0891 0.98315 0.0
C2 C 0.17881 0.06646 0.02747 0.0
C3 C 0.19695 0.06987 0.01655 0.0
N4 N 0.16787 0.07852 0.00654 0.0
N5 N 0.19735 0.08403 0.98845 0.0
H6 H 0.17478 0.09964 0.96111 0.0
H7 H 0.17394 0.05546 0.04795 0.0
C8 C 0.12877 0.06792 0.09285 0.0
O9 O 0.11539 0.0802 0.08952 0.0
N10 N 0.11421 0.07715 1.0017 0.0
C11 C 0.10206 0.09016 0.9885 0.0
C12 C 0.0845 0.08278 0.98912 0.0
C13 C 0.10382 0.0619 0.009 0.0
N14 N 0.08559 0.06501 0.00208 0.0
C15 C 0.13679 0.11765 0.00194 0.0
C16 C 0.14497 0.12456 0.08629 0.0
C17 C 0.1387 0.13926 0.06079 0.0
C18 C 0.13529 0.13568 0.01762 0.0
C19 C 0.14643 0.10673 0.06908 0.0
N20 N 0.1409 0.10317 0.02826 0.0
H21 H 0.13425 0.11534 0.96852 0.0
H22 H 0.15199 0.09587 0.0889 0.0
H23 H 0.10541 0.10387 0.97762 0.0
H24 H 0.10959 0.0488 0.01933 0.0
O25 O 0.14189 0.08419 0.94445 0.0
O26 O 0.14217 0.05573 0.97074 0.0
O27 O 0.14051 0.06597 0.06264 0.0
C28 C 0.14242 0.06644 0.93743 0.0
H29 H 0.20889 0.06223 0.02783 0.0
H30 H 0.07197 0.08983 0.97927 0.0
H31 H 0.14835 0.12665 0.11953 0.0
H32 H 0.1314 0.14671 0.996 0.0
Co33 Co 0.92589 0.63571 0.23202 0.0
C34 C 0.91524 0.6732 0.20353 0.0
C35 C 0.93315 0.67433 0.25807 0.0
C36 C 0.92885 0.69216 0.24601 0.0
N37 N 0.92454 0.66246 0.23152 0.0
N38 N 0.91767 0.69142 0.21165 0.0
H39 H 0.90689 0.66779 0.17776 0.0
H40 H 0.94219 0.67043 0.28396 0.0
C41 C 0.93469 0.62477 0.32245 0.0
O42 O 0.92373 0.61028 0.32027 0.0
N43 N 0.9275 0.60877 0.23179 0.0
C44 C 0.91467 0.59639 0.21894 0.0
C45 C 0.92211 0.5789 0.22101 0.0
C46 C 0.94275 0.59852 0.24058 0.0
N47 N 0.93976 0.58019 0.23471 0.0
C48 C 0.88646 0.63129 0.22003 0.0
C49 C 0.87638 0.63952 0.30275 0.0
C50 C 0.86259 0.6338 0.27421 0.0
C51 C 0.86779 0.63007 0.232 0.0
C52 C 0.89481 0.64049 0.28948 0.0
N53 N 0.89988 0.63522 0.24933 0.0
H54 H 0.89019 0.62859 0.18731 0.0
H55 H 0.90484 0.6457 0.3118 0.0
H56 H 0.90102 0.59952 0.20729 0.0
H57 H 0.95573 0.60444 0.2511 0.0
O58 O 0.92373 0.63531 0.17002 0.0
O59 O 0.94989 0.63697 0.20686 0.0
O60 O 0.93537 0.63644 0.29202 0.0
C61 C 0.94179 0.63651 0.17009 0.0
H62 H 0.93403 0.70472 0.26062 0.0
H63 H 0.91518 0.56626 0.21153 0.0
H64 H 0.87308 0.64293 0.33546 0.0
H65 H 0.85754 0.62628 0.20838 0.0
Co66 Co 0.36998 0.42901 0.50027 0.0
C67 C 0.3307 0.41756 0.48494 0.0
C68 C 0.33279 0.44003 0.52911 0.0
C69 C 0.31435 0.43663 0.52161 0.0
N70 N 0.34316 0.42769 0.50727 0.0
N71 N 0.31303 0.42252 0.49373 0.0
H72 H 0.33434 0.40755 0.46089 0.0
H73 H 0.3382 0.45154 0.54725 0.0
C74 C 0.3652 0.43557 0.59435 0.0
O75 O 0.35428 0.42106 0.59717 0.0
N76 N 0.39642 0.43093 0.49254 0.0
C77 C 0.4074 0.41875 0.47212 0.0
C78 C 0.42519 0.42563 0.47166 0.0
C79 C 0.40752 0.44512 0.50387 0.0
N80 N 0.42526 0.44222 0.49158 0.0
C81 C 0.3665 0.38903 0.4982 0.0
C82 C 0.38808 0.38248 0.56931 0.0
C83 C 0.38019 0.36731 0.54817 0.0
C84 C 0.36939 0.37078 0.51187 0.0
C85 C 0.38486 0.40043 0.55456 0.0
N86 N 0.37349 0.40366 0.52056 0.0
H87 H 0.35925 0.39128 0.46874 0.0
H88 H 0.3919 0.41173 0.5702 0.0
H89 H 0.40273 0.40593 0.45793 0.0
H90 H 0.40265 0.45731 0.5205 0.0
O91 O 0.36736 0.42484 0.43934 0.0
O92 O 0.3667 0.45218 0.47188 0.0
O93 O 0.37278 0.43977 0.55895 0.0
C94 C 0.36586 0.44283 0.43666 0.0
H95 H 0.30284 0.44473 0.53362 0.0
H96 H 0.43701 0.41914 0.45659 0.0
H97 H 0.39672 0.38058 0.59715 0.0
H98 H 0.36366 0.35947 0.49343 0.0
Co99 Co 0.58127 0.87092 0.76522 0.0
C100 C 0.58815 0.83287 0.73321 0.0
C101 C 0.57545 0.83309 0.79509 0.0
C102 C 0.57849 0.81498 0.78325 0.0
N103 N 0.58146 0.84423 0.76374 0.0
N104 N 0.5865 0.81483 0.74438 0.0
H105 H 0.59442 0.83771 0.70397 0.0
H106 H 0.5694 0.83781 0.82467 0.0
C107 C 0.55257 0.87519 0.82365 0.0
O108 O 0.56768 0.8791 0.84521 0.0
N109 N 0.58104 0.89785 0.76802 0.0
C110 C 0.59312 0.90843 0.78994 0.0
C111 C 0.58701 0.92648 0.78974 0.0
C112 C 0.56758 0.90969 0.75533 0.0
N113 N 0.57084 0.92727 0.76822 0.0
C114 C 0.61858 0.87972 0.73627 0.0
C115 C 0.63415 0.86722 0.81171 0.0
C116 C 0.64518 0.87737 0.78339 0.0
C117 C 0.63745 0.88305 0.7444 0.0
C118 C 0.61556 0.86421 0.8024 0.0
N119 N 0.60794 0.87094 0.76596 0.0
H120 H 0.61226 0.88527 0.70778 0.0
H121 H 0.60681 0.85754 0.82576 0.0
H122 H 0.60518 0.90332 0.80665 0.0
H123 H 0.55506 0.90541 0.73928 0.0
O124 O 0.57804 0.87184 0.7019 0.0
O125 O 0.55489 0.87034 0.74362 0.0
O126 O 0.5542 0.87095 0.78386 0.0
C127 C 0.56052 0.871 0.7047 0.0
H128 H 0.57491 0.80286 0.80177 0.0
H129 H 0.59378 0.938 0.80531 0.0
H130 H 0.63964 0.8624 0.84184 0.0
H131 H 0.64555 0.89097 0.72182 0.0
Co132 Co 0.87619 0.08129 0.49504 0.0
C133 C 0.83636 0.08781 0.47586 0.0
C134 C 0.84253 0.09079 0.54233 0.0
C135 C 0.8241 0.09497 0.53598 0.0
N136 N 0.85019 0.08628 0.50465 0.0
N137 N 0.82026 0.09309 0.49415 0.0
H138 H 0.83811 0.08589 0.44198 0.0
H139 H 0.84996 0.09151 0.57217 0.0
C140 C 0.87259 0.05192 0.54856 0.0
O141 O 0.87729 0.0663 0.57177 0.0
N142 N 0.90223 0.07655 0.48506 0.0
C143 C 0.91329 0.08685 0.45997 0.0
C144 C 0.9304 0.07854 0.45759 0.0
C145 C 0.91273 0.06203 0.49751 0.0
N146 N 0.93003 0.06286 0.48101 0.0
C147 C 0.87345 0.12072 0.47787 0.0
C148 C 0.89554 0.13015 0.54676 0.0
C149 C 0.8873 0.14435 0.52288 0.0
C150 C 0.87615 0.13948 0.48788 0.0
C151 C 0.89228 0.11172 0.53609 0.0
N152 N 0.88143 0.10726 0.50219 0.0
H153 H 0.86458 0.11698 0.45149 0.0
H154 H 0.89812 0.10081 0.55552 0.0
H155 H 0.90908 0.09939 0.44377 0.0
H156 H 0.9077 0.05073 0.51681 0.0
O157 O 0.87249 0.08186 0.43225 0.0
O158 O 0.87017 0.05664 0.46686 0.0
O159 O 0.87137 0.05409 0.50782 0.0
C160 C 0.8697 0.06455 0.43 0.0
H161 H 0.81434 0.09922 0.56026 0.0
H162 H 0.94215 0.08363 0.4397 0.0
H163 H 0.90392 0.13323 0.57449 0.0
H164 H 0.86951 0.15004 0.4687 0.0
Co165 Co 0.92462 0.37131 0.75853 0.0
C166 C 0.91859 0.33283 0.72946 0.0
C167 C 0.92191 0.33443 0.79725 0.0
C168 C 0.91874 0.31621 0.78614 0.0
N169 N 0.92189 0.34477 0.76166 0.0
N170 N 0.91662 0.31523 0.74345 0.0
H171 H 0.91762 0.33694 0.69645 0.0
H172 H 0.92379 0.33978 0.8291 0.0
C173 C 0.95253 0.37133 0.81874 0.0
O174 O 0.93719 0.37529 0.83941 0.0
N175 N 0.9271 0.39807 0.75432 0.0
C176 C 0.91528 0.40929 0.73323 0.0
C177 C 0.92254 0.42686 0.73188 0.0
C178 C 0.94155 0.40905 0.76508 0.0
N179 N 0.93909 0.42668 0.75171 0.0
C180 C 0.88639 0.36854 0.72817 0.0
C181 C 0.87258 0.38443 0.8021 0.0
C182 C 0.86015 0.3794 0.76988 0.0
C183 C 0.86716 0.37109 0.73268 0.0
C184 C 0.89144 0.38143 0.79659 0.0
N185 N 0.8981 0.37394 0.75995 0.0
H186 H 0.89186 0.3624 0.69941 0.0
H187 H 0.90098 0.38534 0.82156 0.0
H188 H 0.90256 0.40493 0.71814 0.0
H189 H 0.95411 0.40418 0.78001 0.0
O190 O 0.928 0.37027 0.69535 0.0
O191 O 0.95092 0.36819 0.73775 0.0
O192 O 0.95147 0.36884 0.77807 0.0
C193 C 0.94546 0.36864 0.6987 0.0
H194 H 0.91764 0.30469 0.80802 0.0
H195 H 0.91629 0.43874 0.71652 0.0
H196 H 0.86773 0.39053 0.83159 0.0
H197 H 0.85794 0.36694 0.70721 0.0
Co198 Co 0.63325 0.42861 0.98935 0.0
C199 C 0.67105 0.41952 0.96057 0.0
C200 C 0.67123 0.44107 0.00769 0.0
C201 C 0.68911 0.43824 0.99375 0.0
N202 N 0.65996 0.42931 0.9869 0.0
N203 N 0.68898 0.42475 0.96393 0.0
H204 H 0.66593 0.40937 0.9381 0.0
H205 H 0.66674 0.45141 0.03037 0.0
C206 C 0.62239 0.43711 0.07984 0.0
O207 O 0.60799 0.42609 0.0768 0.0
N208 N 0.60623 0.42827 0.99099 0.0
C209 C 0.59442 0.41388 0.98697 0.0
C210 C 0.57653 0.42042 0.98843 0.0
C211 C 0.59521 0.44336 0.99461 0.0
N212 N 0.577 0.43897 0.99314 0.0
C213 C 0.63154 0.3891 0.9775 0.0
C214 C 0.64025 0.37942 0.06021 0.0
C215 C 0.63507 0.36539 0.03167 0.0
C216 C 0.63124 0.37042 0.9894 0.0
C217 C 0.64038 0.39789 0.04695 0.0
N218 N 0.63486 0.40268 0.00682 0.0
H219 H 0.62818 0.39271 0.94505 0.0
H220 H 0.64496 0.4082 0.06937 0.0
H221 H 0.59813 0.39953 0.98331 0.0
H222 H 0.60047 0.45731 0.99777 0.0
O223 O 0.63242 0.42598 0.9276 0.0
O224 O 0.63225 0.45255 0.96316 0.0
O225 O 0.63415 0.43823 0.04956 0.0
C226 C 0.63183 0.44404 0.92685 0.0
H227 H 0.70121 0.44576 0.00442 0.0
H228 H 0.56413 0.41203 0.98653 0.0
H229 H 0.64368 0.37629 0.09298 0.0
H230 H 0.62781 0.36004 0.96579 0.0
Co231 Co 0.58311 0.13617 0.2452 0.0
C232 C 0.59463 0.17421 0.22209 0.0
C233 C 0.57418 0.17424 0.27174 0.0
C234 C 0.57852 0.1923 0.26198 0.0
N235 N 0.58435 0.16292 0.24691 0.0
N236 N 0.59133 0.19228 0.23068 0.0
H237 H 0.6042 0.1693 0.19805 0.0
H238 H 0.56393 0.1698 0.29461 0.0
C239 C 0.57258 0.12402 0.33371 0.0
O240 O 0.58376 0.10968 0.33131 0.0
N241 N 0.58146 0.10927 0.24279 0.0
C242 C 0.59421 0.09702 0.22872 0.0
C243 C 0.58646 0.07965 0.22781 0.0
C244 C 0.566 0.0991 0.24949 0.0
N245 N 0.56872 0.08095 0.24082 0.0
C246 C 0.62268 0.13145 0.23818 0.0
C247 C 0.63081 0.1384 0.3226 0.0
C248 C 0.64518 0.13269 0.29554 0.0
C249 C 0.64098 0.1297 0.25245 0.0
C250 C 0.61277 0.14002 0.30697 0.0
N251 N 0.60863 0.13529 0.26593 0.0
H252 H 0.61976 0.12929 0.20484 0.0
H253 H 0.60228 0.14522 0.32821 0.0
H254 H 0.60802 0.10022 0.21819 0.0
H255 H 0.55287 0.10499 0.25925 0.0
O256 O 0.58705 0.13648 0.18379 0.0
O257 O 0.55983 0.13784 0.21654 0.0
O258 O 0.57216 0.13606 0.304 0.0
C259 C 0.56903 0.13753 0.18112 0.0
H260 H 0.57219 0.2045 0.27576 0.0
H261 H 0.59334 0.06704 0.21783 0.0
H262 H 0.63332 0.1413 0.35593 0.0
H263 H 0.65172 0.12605 0.22986 0.0
Co264 Co 0.63436 0.57994 0.48938 0.0
C265 C 0.6734 0.59028 0.46832 0.0
C266 C 0.67188 0.56778 0.51246 0.0
C267 C 0.69011 0.57034 0.50143 0.0
N268 N 0.66133 0.58064 0.49282 0.0
N269 N 0.69109 0.58445 0.47342 0.0
H270 H 0.66928 0.60016 0.44439 0.0
H271 H 0.66662 0.5565 0.5316 0.0
C272 C 0.64167 0.57386 0.58249 0.0
O273 O 0.65375 0.58748 0.58225 0.0
N274 N 0.60774 0.57855 0.48495 0.0
C275 C 0.5965 0.591 0.46622 0.0
C276 C 0.57874 0.58405 0.46613 0.0
C277 C 0.5968 0.56418 0.49582 0.0
N278 N 0.57895 0.56715 0.48461 0.0
C279 C 0.63885 0.61998 0.48684 0.0
C280 C 0.61913 0.62685 0.56063 0.0
C281 C 0.62724 0.64185 0.53934 0.0
C282 C 0.63693 0.63826 0.50143 0.0
C283 C 0.62136 0.60891 0.54496 0.0
N284 N 0.63189 0.60546 0.50964 0.0
H285 H 0.64549 0.61764 0.45666 0.0
H286 H 0.61422 0.59779 0.561 0.0
H287 H 0.60099 0.60403 0.4527 0.0
H288 H 0.60198 0.55151 0.50994 0.0
O289 O 0.63569 0.58367 0.428 0.0
O290 O 0.63648 0.55654 0.46137 0.0
O291 O 0.63267 0.56972 0.54885 0.0
C292 C 0.63685 0.56563 0.42578 0.0
H293 H 0.70163 0.56196 0.51217 0.0
H294 H 0.56666 0.59086 0.45302 0.0
H295 H 0.61073 0.62895 0.5888 0.0
H296 H 0.64301 0.64944 0.4832 0.0
Co297 Co 0.43225 0.1362 0.74971 0.0
C298 C 0.42253 0.17501 0.72881 0.0
C299 C 0.44409 0.17333 0.7758 0.0
C300 C 0.44116 0.19166 0.76602 0.0
N301 N 0.43239 0.16292 0.75256 0.0
N302 N 0.4277 0.19274 0.73627 0.0
H303 H 0.41238 0.17084 0.70532 0.0
H304 H 0.45447 0.16798 0.79736 0.0
C305 C 0.44025 0.1226 0.83821 0.0
O306 O 0.42892 0.10856 0.83284 0.0
N307 N 0.43277 0.10925 0.74621 0.0
C308 C 0.41966 0.09732 0.73247 0.0
C309 C 0.42704 0.07975 0.73124 0.0
C310 C 0.448 0.09866 0.7525 0.0
N311 N 0.44488 0.0806 0.74377 0.0
C312 C 0.39259 0.13284 0.73954 0.0
C313 C 0.38365 0.14093 0.823 0.0
C314 C 0.36952 0.13499 0.79558 0.0
C315 C 0.37409 0.13156 0.75283 0.0
C316 C 0.40188 0.14189 0.80844 0.0
N317 N 0.40639 0.13652 0.76803 0.0
H318 H 0.3959 0.13019 0.70655 0.0
H319 H 0.41228 0.14708 0.82997 0.0
H320 H 0.40583 0.10081 0.72263 0.0
H321 H 0.46128 0.10422 0.76215 0.0
O322 O 0.42952 0.13733 0.68801 0.0
O323 O 0.45608 0.13681 0.72345 0.0
O324 O 0.44186 0.13509 0.80971 0.0
C325 C 0.44761 0.13728 0.68708 0.0
H326 H 0.4486 0.20328 0.77948 0.0
H327 H 0.41981 0.06732 0.72146 0.0
H328 H 0.38067 0.1448 0.85561 0.0
H329 H 0.36363 0.12737 0.73009 0.0
Co330 Co 0.87416 0.92984 0.99586 0.0
C331 C 0.83528 0.92404 0.96855 0.0
C332 C 0.83756 0.92733 0.03624 0.0
C333 C 0.81924 0.92415 0.02611 0.0
N334 N 0.84756 0.92736 1.00011 0.0
N335 N 0.81783 0.92205 0.98349 0.0
H336 H 0.83901 0.92298 0.93534 0.0
H337 H 0.84322 0.92908 0.06784 0.0
C338 C 0.87319 0.95935 0.0499 0.0
O339 O 0.87678 0.94457 0.07284 0.0
N340 N 0.90086 0.932 0.99078 0.0
C341 C 0.91171 0.92032 0.9684 0.0
C342 C 0.92965 0.92667 0.96948 0.0
C343 C 0.91237 0.94544 0.00483 0.0
N344 N 0.93007 0.9425 0.99232 0.0
C345 C 0.86996 0.8908 0.97466 0.0
C346 C 0.88596 0.8793 0.05042 0.0
C347 C 0.87885 0.86586 0.02258 0.0
C348 C 0.87099 0.87179 0.98389 0.0
C349 C 0.88459 0.89799 0.0401 0.0
N350 N 0.87666 0.90348 0.00293 0.0
H351 H 0.86351 0.89534 0.94542 0.0
H352 H 0.88974 0.9083 0.06211 0.0
H353 H 0.90683 0.90824 0.95143 0.0
H354 H 0.90799 0.95727 0.02324 0.0
O355 O 0.87276 0.92996 0.93267 0.0
O356 O 0.87115 0.95508 0.96787 0.0
O357 O 0.87169 0.95735 0.00913 0.0
C358 C 0.8712 0.94742 0.9307 0.0
H359 H 0.80797 0.92292 0.04864 0.0
H360 H 0.94135 0.92048 0.95327 0.0
H361 H 0.89252 0.87544 0.08014 0.0
H362 H 0.86524 0.86191 0.96157 0.0
Co363 Co 0.07735 0.37009 0.2469 0.0
C364 C 0.08965 0.33151 0.23252 0.0
C365 C 0.06635 0.33288 0.27499 0.0
C366 C 0.07108 0.31457 0.26927 0.0
N367 N 0.07807 0.34346 0.2522 0.0
N368 N 0.08567 0.31373 0.24249 0.0
H369 H 0.10063 0.33574 0.21118 0.0
H370 H 0.05484 0.33802 0.2936 0.0
C371 C 0.06575 0.38405 0.33379 0.0
O372 O 0.07668 0.39848 0.32954 0.0
N373 N 0.07619 0.3969 0.2409 0.0
C374 C 0.08919 0.40855 0.22563 0.0
C375 C 0.082 0.42617 0.22428 0.0
C376 C 0.06105 0.40762 0.24728 0.0
N377 N 0.06431 0.42564 0.2381 0.0
C378 C 0.11693 0.37429 0.24431 0.0
C379 C 0.12358 0.36895 0.32996 0.0
C380 C 0.13844 0.37404 0.30359 0.0
C381 C 0.13496 0.37612 0.25993 0.0
C382 C 0.10576 0.36715 0.31287 0.0
N383 N 0.10235 0.37113 0.27103 0.0
H384 H 0.11473 0.37573 0.2105 0.0
H385 H 0.09487 0.3624 0.33359 0.0
H386 H 0.10279 0.40475 0.21466 0.0
H387 H 0.04799 0.40227 0.25885 0.0
O388 O 0.08347 0.36803 0.18692 0.0
O389 O 0.05502 0.36813 0.21319 0.0
O390 O 0.06506 0.37161 0.30481 0.0
C391 C 0.06572 0.36725 0.17992 0.0
H392 H 0.06389 0.30276 0.28255 0.0
H393 H 0.08915 0.43834 0.21267 0.0
H394 H 0.12557 0.36667 0.36372 0.0
H395 H 0.14608 0.37911 0.23783 0.0
Co396 Co 0.36836 0.58028 0.00281 0.0
C397 C 0.3299 0.58813 0.97439 0.0
C398 C 0.33067 0.57983 0.03989 0.0
C399 C 0.31257 0.58338 0.02885 0.0
N400 N 0.34157 0.58269 0.00568 0.0
N401 N 0.31205 0.58854 0.98758 0.0
H402 H 0.33433 0.59156 0.94251 0.0
H403 H 0.33539 0.57571 0.07109 0.0
C404 C 0.38158 0.57071 0.09107 0.0
O405 O 0.39664 0.58063 0.08565 0.0
N406 N 0.3952 0.57775 0.99931 0.0
C407 C 0.40801 0.59086 0.99079 0.0
C408 C 0.42529 0.58286 0.99096 0.0
C409 C 0.40497 0.56185 0.00368 0.0
N410 N 0.42338 0.56464 0.99914 0.0
C411 C 0.37323 0.61951 0.98991 0.0
C412 C 0.36843 0.6299 0.07383 0.0
C413 C 0.37307 0.64356 0.04395 0.0
C414 C 0.37509 0.63819 1.00124 0.0
C415 C 0.36671 0.61146 0.06115 0.0
N416 N 0.37018 0.60623 0.02009 0.0
H417 H 0.37489 0.61564 0.95692 0.0
H418 H 0.36234 0.60159 0.08474 0.0
H419 H 0.40535 0.60526 0.98452 0.0
H420 H 0.39873 0.54859 0.01097 0.0
O421 O 0.36773 0.58265 0.94093 0.0
O422 O 0.36565 0.5564 0.97722 0.0
O423 O 0.36881 0.57064 0.06295 0.0
C424 C 0.36598 0.56465 0.9406 0.0
H425 H 0.30078 0.58252 0.05002 0.0
H426 H 0.43825 0.58989 0.98475 0.0
H427 H 0.36643 0.63331 0.10709 0.0
H428 H 0.37809 0.6483 0.97675 0.0
Co429 Co 0.42978 0.87255 0.2505 0.0
C430 C 0.41881 0.83417 0.23009 0.0
C431 C 0.44078 0.83487 0.27614 0.0
C432 C 0.43687 0.81666 0.26672 0.0
N433 N 0.4294 0.84582 0.25328 0.0
N434 N 0.42313 0.81624 0.23761 0.0
H435 H 0.40836 0.83875 0.20771 0.0
H436 H 0.45161 0.83971 0.29713 0.0
C437 C 0.44094 0.88521 0.33825 0.0
O438 O 0.42862 0.89859 0.33571 0.0
N439 N 0.43059 0.89946 0.24693 0.0
C440 C 0.41755 0.91126 0.23239 0.0
C441 C 0.42467 0.92891 0.23215 0.0
C442 C 0.44566 0.91014 0.25414 0.0
N443 N 0.44236 0.92826 0.24595 0.0
C444 C 0.39015 0.8767 0.25002 0.0
C445 C 0.38422 0.86863 0.33482 0.0
C446 C 0.36917 0.87443 0.30992 0.0
C447 C 0.37224 0.87792 0.26662 0.0
C448 C 0.40191 0.86744 0.31674 0.0
N449 N 0.40496 0.87283 0.2756 0.0
H450 H 0.39208 0.87912 0.21643 0.0
H451 H 0.413 0.862 0.336 0.0
H452 H 0.40401 0.90758 0.22091 0.0
H453 H 0.45877 0.90466 0.26512 0.0
O454 O 0.42318 0.87147 0.19072 0.0
O455 O 0.45185 0.8714 0.21579 0.0
O456 O 0.44253 0.87347 0.30793 0.0
C457 C 0.44088 0.8709 0.18295 0.0
H458 H 0.44415 0.80468 0.279 0.0
H459 H 0.41753 0.94117 0.22098 0.0
H460 H 0.38233 0.86488 0.36792 0.0
H461 H 0.36098 0.882 0.24583 0.0
Co462 Co 0.13862 0.92627 0.51757 0.0
C463 C 0.17732 0.92 0.48956 0.0
C464 C 0.17568 0.93191 0.55212 0.0
C465 C 0.19403 0.92905 0.54224 0.0
N466 N 0.16528 0.92631 0.51908 0.0
N467 N 0.19511 0.92158 0.50284 0.0
H468 H 0.17308 0.91435 0.45919 0.0
H469 H 0.17027 0.93735 0.5817 0.0
C470 C 0.13306 0.95436 0.57747 0.0
O471 O 0.12856 0.93911 0.59784 0.0
N472 N 0.1117 0.92623 0.51757 0.0
C473 C 0.1009 0.9142 0.53902 0.0
C474 C 0.08281 0.92026 0.53742 0.0
C475 C 0.10002 0.93958 0.50368 0.0
N476 N 0.0823 0.9363 0.51545 0.0
C477 C 0.1306 0.8897 0.48374 0.0
C478 C 0.14408 0.87196 0.55564 0.0
C479 C 0.13501 0.8614 0.52449 0.0
C480 C 0.12845 0.87046 0.48777 0.0
C481 C 0.14574 0.89103 0.55058 0.0
N482 N 0.13883 0.89962 0.51547 0.0
H483 H 0.12487 0.89676 0.45637 0.0
H484 H 0.15181 0.89922 0.57582 0.0
H485 H 0.1059 0.90235 0.55665 0.0
H486 H 0.10438 0.95183 0.48673 0.0
O487 O 0.13898 0.93041 0.45452 0.0
O488 O 0.13938 0.95297 0.49793 0.0
O489 O 0.13804 0.95306 0.53807 0.0
C490 C 0.1396 0.94788 0.4586 0.0
H491 H 0.20561 0.93182 0.56314 0.0
H492 H 0.07115 0.91391 0.55341 0.0
H493 H 0.14901 0.86571 0.58488 0.0
H494 H 0.12136 0.86282 0.46297 0.0
Co495 Co 0.07764 0.63382 0.73252 0.0
C496 C 0.08705 0.67275 0.7105 0.0
C497 C 0.06716 0.67145 0.76083 0.0
C498 C 0.06961 0.68971 0.74969 0.0
N499 N 0.07854 0.66075 0.73721 0.0
N500 N 0.0821 0.69054 0.71783 0.0
H501 H 0.0954 0.66852 0.68372 0.0
H502 H 0.05682 0.6664 0.7828 0.0
C503 C 0.07235 0.63903 0.82729 0.0
O504 O 0.08667 0.65024 0.82947 0.0
N505 N 0.07621 0.60728 0.72683 0.0
C506 C 0.088 0.59631 0.70516 0.0
C507 C 0.08138 0.57843 0.70642 0.0
C508 C 0.06259 0.59609 0.74083 0.0
N509 N 0.06541 0.57833 0.72882 0.0
C510 C 0.11754 0.63912 0.72911 0.0
C511 C 0.12527 0.61686 0.79851 0.0
C512 C 0.13998 0.62566 0.77765 0.0
C513 C 0.13595 0.63686 0.74233 0.0
C514 C 0.10715 0.6196 0.7845 0.0
N515 N 0.10332 0.63115 0.75115 0.0
H516 H 0.11487 0.64679 0.70044 0.0
H517 H 0.09617 0.61211 0.80024 0.0
H518 H 0.10037 0.60105 0.68908 0.0
H519 H 0.05055 0.60097 0.75805 0.0
O520 O 0.08057 0.63569 0.67094 0.0
O521 O 0.05396 0.63607 0.70638 0.0
O522 O 0.06789 0.63149 0.79208 0.0
C523 C 0.06247 0.63662 0.67007 0.0
H524 H 0.0622 0.70136 0.76315 0.0
H525 H 0.0878 0.56646 0.69179 0.0
H526 H 0.12769 0.60794 0.82568 0.0
H527 H 0.14696 0.64341 0.7244 0.0
H528 H 0.93016 0.97973 0.00592 0.0
H529 H 0.95732 0.99982 0.01231 0.0
H530 H 0.99319 0.95231 1.00022 0.0
H531 H 0.96616 0.93213 0.9941 0.0
H532 H 0.98759 0.99933 0.07062 0.0
H533 H 0.0106 0.98694 0.9042 0.0
H534 H 0.98772 0.98086 0.92274 0.0
H535 H 0.00721 0.96634 0.9353 0.0
C536 C 0.9438 0.9735 0.00513 0.0
C537 C 0.94595 0.9543 0.99899 0.0
C538 C 0.95932 0.98503 0.00862 0.0
C539 C 0.97726 0.97759 0.00591 0.0
C540 C 0.97946 0.95839 1.00137 0.0
H541 H 0.08719 0.02743 0.9965 0.0
H542 H 0.06121 0.00575 1.0011 0.0
C543 C 0.96399 0.94687 0.99783 0.0
C544 C 0.99367 0.98994 0.00709 0.0
H545 H 0.03062 0.0045 0.94797 0.0
C546 C 0.997 1.0005 0.04382 0.0
C547 C 0.00594 0.99139 0.97209 0.0
C548 C 1.00266 0.98092 0.93117 0.0
C549 C 0.0124 0.01234 0.04666 0.0
C550 C 0.02459 0.0139 0.01152 0.0
C551 C 0.02131 1.00323 0.97493 0.0
C552 C 0.04047 0.02696 0.01136 0.0
C553 C 0.01565 0.02285 0.08751 0.0
C554 C 0.03744 0.04607 0.01546 0.0
C555 C 0.05226 0.05848 0.01308 0.0
C556 C 0.07044 0.05206 0.00619 0.0
C557 C 0.07344 0.03286 0.00236 0.0
C558 C 0.05858 0.02045 0.00474 0.0
H559 H 0.00849 0.01622 0.11485 0.0
H560 H 0.03067 0.02383 0.09486 0.0
H561 H 0.0101 0.03712 0.08411 0.0
H562 H 0.02355 0.05145 0.01975 0.0
H563 H 0.04944 0.07312 0.01662 0.0
H564 H 0.97748 0.58164 0.23154 0.0
H565 H 0.99898 0.55538 0.23583 0.0
H566 H 0.95297 0.51811 0.25313 0.0
H567 H 0.93147 0.54416 0.24982 0.0
H568 H 1.00263 0.52667 0.30381 0.0
H569 H 0.98188 0.49847 0.14612 0.0
H570 H 0.97735 0.52214 0.16165 0.0
H571 H 0.96324 0.50372 0.18216 0.0
C572 C 0.97193 0.56791 0.23681 0.0
C573 C 0.95268 0.56503 0.23978 0.0
C574 C 0.98424 0.55291 0.23906 0.0
C575 C 0.97751 0.5348 0.24409 0.0
C576 C 0.95841 0.53195 0.24843 0.0
H577 H 0.02657 0.42472 0.23844 0.0
H578 H 0.00548 0.4512 0.24308 0.0
C579 C 0.94613 0.54688 0.24635 0.0
C580 C 0.99035 0.51876 0.24412 0.0
H581 H 1.00211 0.48009 0.18756 0.0
C582 C 1.00261 0.5165 0.27836 0.0
C583 C 0.99016 0.5055 0.21098 0.0
C584 C 0.97757 0.50756 0.17291 0.0
C585 C 0.01452 0.50111 0.28071 0.0
C586 C 0.01442 0.48787 0.24739 0.0
C587 C 1.00213 0.49019 0.21315 0.0
C588 C 0.02724 0.47175 0.24678 0.0
C589 C 0.02675 0.49894 0.31936 0.0
C590 C 0.04648 0.47447 0.24713 0.0
C591 C 0.05856 0.45936 0.24489 0.0
C592 C 0.0517 0.44115 0.24168 0.0
C593 C 0.03239 0.43847 0.24138 0.0
C594 C 0.02029 0.45362 0.24377 0.0
H595 H 0.02126 0.50683 0.34701 0.0
H596 H 0.02813 0.48415 0.3286 0.0
H597 H 0.04075 0.50439 0.312 0.0
H598 H 0.05219 0.48833 0.24851 0.0
H599 H 0.0733 0.46202 0.24574 0.0
H600 H 0.57456 0.53998 0.54357 0.0
H601 H 0.54882 0.51792 0.54861 0.0
H602 H 0.52264 0.54368 0.44037 0.0
H603 H 0.54839 0.56541 0.43449 0.0
H604 H 0.50977 0.52516 0.5585 0.0
H605 H 0.52586 0.4882 0.40794 0.0
H606 H 0.54236 0.50309 0.43432 0.0
H607 H 0.52409 0.51293 0.40268 0.0
C608 C 0.5634 0.54085 0.52066 0.0
C609 C 0.56361 0.55444 0.48853 0.0
C610 C 0.54865 0.52833 0.52376 0.0
C611 C 0.53395 0.52905 0.49454 0.0
C612 C 0.53397 0.54274 0.46289 0.0
H613 H 0.42454 0.47971 0.50011 0.0
H614 H 0.45119 0.50052 0.5044 0.0
C615 C 0.54864 0.55528 0.45986 0.0
C616 C 0.51856 0.51549 0.49689 0.0
H617 H 0.4969 0.48143 0.44028 0.0
C618 C 0.50699 0.51552 0.53281 0.0
C619 C 0.51511 0.50279 0.46353 0.0
C620 C 0.52759 0.50156 0.42507 0.0
C621 C 0.49174 0.50347 0.53575 0.0
C622 C 0.4879 0.49124 0.50165 0.0
C623 C 0.49976 0.49092 0.46624 0.0
C624 C 0.47167 0.47862 0.50186 0.0
C625 C 0.47998 0.5038 0.57544 0.0
C626 C 0.4743 0.45942 0.49862 0.0
C627 C 0.4591 0.44749 0.49613 0.0
C628 C 0.44089 0.45452 0.49651 0.0
C629 C 0.43831 0.47378 0.50034 0.0
C630 C 0.45355 0.48571 0.50283 0.0
H631 H 0.48741 0.51028 0.60261 0.0
H632 H 0.46726 0.51203 0.56925 0.0
H633 H 0.47571 0.48958 0.58469 0.0
H634 H 0.48817 0.45365 0.49778 0.0
H635 H 0.46163 0.43275 0.49384 0.0
H636 H 0.57021 0.95841 0.81724 0.0
H637 H 0.54909 0.98464 0.81109 0.0
H638 H 0.52226 0.95857 0.7042 0.0
H639 H 0.5436 0.93234 0.70937 0.0
H640 H 0.54244 0.00845 0.73835 0.0
H641 H 0.47965 0.96993 0.79008 0.0
H642 H 0.50284 0.96145 0.79952 0.0
H643 H 0.4927 0.95955 0.74752 0.0
C644 C 0.56003 0.95825 0.79201 0.0
C645 C 0.55866 0.9431 0.76388 0.0
C646 C 0.54787 0.97327 0.78874 0.0
C647 C 0.53398 0.97343 0.75757 0.0
C648 C 0.53269 0.95855 0.72899 0.0
H649 H 0.44451 0.04913 0.69657 0.0
H650 H 0.46657 0.0235 0.69976 0.0
C651 C 0.54491 0.94353 0.73207 0.0
C652 C 0.52086 0.98922 0.75508 0.0
H653 H 0.4753 1.00084 0.7674 0.0
C654 C 0.52776 0.00683 0.74476 0.0
C655 C 0.50174 0.98702 0.76347 0.0
C656 C 0.49373 0.96852 0.77611 0.0
C657 C 0.51596 0.02229 0.7419 0.0
C658 C 0.49683 0.02012 0.75053 0.0
C659 C 0.48996 1.00248 0.76082 0.0
C660 C 0.48364 0.03591 0.74863 0.0
C661 C 0.52402 0.04069 0.72867 0.0
C662 C 0.48578 0.05135 0.77539 0.0
C663 C 0.47314 0.06606 0.7737 0.0
C664 C 0.45801 0.06552 0.74549 0.0
C665 C 0.45585 0.04993 0.71901 0.0
C666 C 0.46851 0.03529 0.72064 0.0
H667 H 0.5376 0.039 0.71242 0.0
H668 H 0.51445 0.04821 0.70703 0.0
H669 H 0.52624 0.04936 0.75739 0.0
H670 H 0.49711 0.05194 0.79797 0.0
H671 H 0.47503 0.07769 0.79501 0.0
H672 H 0.04605 0.92649 0.51331 0.0
H673 H 0.01928 0.94721 0.50826 0.0
H674 H 0.05587 0.99428 0.50053 0.0
H675 H 0.08265 0.97377 0.50687 0.0
H676 H 0.02692 0.99891 0.55891 0.0
H677 H 1.00078 0.97476 0.40211 0.0
H678 H 0.00412 0.95677 0.44087 0.0
H679 H 0.02377 0.96938 0.42111 0.0
C680 C 0.0484 0.94125 0.51058 0.0
C681 C 0.06653 0.94842 0.51029 0.0
C682 C 0.03309 0.95306 0.50731 0.0
C683 C 0.03559 0.97226 0.50349 0.0
C684 C 0.05363 0.97948 0.50318 0.0
H685 H 0.95838 0.0567 0.426 0.0
H686 H 0.98358 0.03447 0.43371 0.0
C687 C 0.06895 0.9677 0.50641 0.0
C688 C 0.01943 0.98493 0.50088 0.0
H689 H 0.98196 0.99613 0.43963 0.0
C690 C 0.01706 0.99831 0.53288 0.0
C691 C 0.0067 0.98419 0.46668 0.0
C692 C 0.00899 0.97063 0.43049 0.0
C693 C 1.00229 0.01098 0.53164 0.0
C694 C 0.98939 0.01006 0.49778 0.0
C695 C 0.99177 0.99669 0.46576 0.0
C696 C 0.97389 0.02347 0.49374 0.0
C697 C 1.0009 0.02556 0.56593 0.0
C698 C 0.95993 0.02456 0.52478 0.0
C699 C 0.94551 0.03744 0.52067 0.0
C700 C 0.94475 0.04941 0.48533 0.0
C701 C 0.95866 0.04801 0.45405 0.0
C702 C 0.97303 0.03518 0.4582 0.0
H703 H 0.01408 0.02704 0.58388 0.0
H704 H 0.99716 0.03923 0.55211 0.0
H705 H 0.98989 0.02159 0.58882 0.0
H706 H 0.96016 0.01544 0.55214 0.0
H707 H 0.9351 0.03815 0.54542 0.0
H708 H 0.94305 0.4548 0.69551 0.0
H709 H 0.96521 0.4802 0.69893 0.0
H710 H 0.98708 0.45836 0.81647 0.0
H711 H 0.96488 0.43268 0.81305 0.0
H712 H 0.96954 0.50701 0.75933 0.0
H713 H 0.03359 0.46465 0.74456 0.0
H714 H 0.01083 0.45536 0.73412 0.0
H715 H 0.01868 0.45835 0.78799 0.0
C716 C 0.95245 0.45543 0.72229 0.0
C717 C 0.95217 0.44172 0.75407 0.0
C718 C 0.96518 0.46994 0.7241 0.0
C719 C 0.97793 0.47108 0.75769 0.0
C720 C 0.97761 0.45754 0.78979 0.0
H721 H 0.0424 0.57304 0.79594 0.0
H722 H 0.02137 0.54687 0.80724 0.0
C723 C 0.96491 0.4429 0.78785 0.0
C724 C 0.99135 0.48663 0.7588 0.0
H725 H 0.03749 0.49686 0.75401 0.0
C726 C 0.98441 0.50481 0.75841 0.0
C727 C 0.01072 0.48369 0.75717 0.0
C728 C 0.01896 0.46448 0.7556 0.0
C729 C 0.99629 0.52015 0.75568 0.0
C730 C 0.01567 0.51723 0.75431 0.0
C731 C 0.02263 0.49905 0.75539 0.0
C732 C 0.02891 0.53276 0.74892 0.0
C733 C 0.98793 0.53928 0.75256 0.0
C734 C 0.04052 0.53325 0.7131 0.0
C735 C 0.05261 0.54808 0.70677 0.0
C736 C 0.05334 0.56276 0.73614 0.0
C737 C 0.04192 0.5621 0.77241 0.0
C738 C 0.0299 0.54717 0.77888 0.0
H739 H 0.97302 0.53879 0.74374 0.0
H740 H 0.98906 0.54629 0.7839 0.0
H741 H 0.99538 0.54781 0.72865 0.0
H742 H 0.03997 0.52228 0.68956 0.0
H743 H 0.06106 0.54825 0.67833 0.0
H744 H 0.5422 0.4329 0.96314 0.0
H745 H 0.51577 0.45396 0.96661 0.0
H746 H 0.54952 0.4946 0.03047 0.0
H747 H 0.57601 0.47348 0.02804 0.0
H748 H 0.49928 0.471 0.04167 0.0
H749 H 0.52697 0.52222 0.92581 0.0
H750 H 0.53591 0.49891 0.9299 0.0
H751 H 0.54226 0.51603 0.96871 0.0
C752 C 0.54404 0.44621 0.97835 0.0
C753 C 0.56135 0.45145 0.99522 0.0
C754 C 0.5289 0.45827 0.98009 0.0
C755 C 0.53075 0.47588 0.99838 0.0
C756 C 0.54789 0.48116 0.0156 0.0
H757 H 0.45845 0.57072 0.02588 0.0
H758 H 0.48398 0.5485 0.02736 0.0
C759 C 0.56305 0.46907 0.01404 0.0
C760 C 0.51471 0.4887 0.99946 0.0
H761 H 0.49902 0.53 0.96069 0.0
C762 C 0.49916 0.48389 0.02393 0.0
C763 C 0.51464 0.50547 0.97625 0.0
C764 C 0.53075 0.51098 0.94837 0.0
C765 C 0.48365 0.49564 0.02652 0.0
C766 C 0.48356 0.51242 0.0032 0.0
C767 C 0.49911 0.51715 0.97859 0.0
C768 C 0.46764 0.52548 0.0042 0.0
C769 C 0.46775 0.4902 0.05507 0.0
C770 C 0.44991 0.51994 0.99077 0.0
C771 C 0.43524 0.53266 0.99003 0.0
C772 C 0.43811 0.55119 0.0021 0.0
C773 C 0.45585 0.55662 0.01583 0.0
C774 C 0.47044 0.54391 0.01685 0.0
H775 H 0.47206 0.47982 0.07926 0.0
H776 H 0.46192 0.50246 0.07174 0.0
H777 H 0.4566 0.48392 0.03548 0.0
H778 H 0.44751 0.50591 0.97991 0.0
H779 H 0.42181 0.52814 0.97876 0.0
H780 H 0.43355 0.96466 0.25444 0.0
H781 H 0.45482 0.9909 0.25583 0.0
H782 H 0.50131 0.95356 0.24801 0.0
H783 H 0.48013 0.92711 0.24556 0.0
H784 H 0.50357 0.98409 0.31232 0.0
H785 H 0.48583 0.00737 0.14843 0.0
H786 H 0.46662 1.00302 0.18353 0.0
H787 H 0.48119 0.98416 0.16709 0.0
C788 C 0.44827 0.96194 0.25262 0.0
C789 C 0.45505 0.94368 0.24932 0.0
C790 C 0.46041 0.97699 0.25365 0.0
C791 C 0.47959 0.97416 0.25154 0.0
C792 C 0.48651 0.956 0.24959 0.0
H793 H 0.56759 0.05032 0.19123 0.0
H794 H 0.54568 0.02463 0.19593 0.0
C795 C 0.47436 0.94089 0.24836 0.0
C796 C 0.49237 0.9902 0.25039 0.0
H797 H 0.50585 0.02659 0.18824 0.0
C798 C 0.50408 0.99342 0.28527 0.0
C799 C 0.49305 1.00223 0.2149 0.0
C800 C 0.48112 0.99904 0.17613 0.0
C801 C 0.5164 0.0085 0.28569 0.0
C802 C 0.51691 0.02065 0.25038 0.0
C803 C 0.50529 0.01733 0.21541 0.0
C804 C 0.53007 0.03638 0.24814 0.0
C805 C 0.52905 0.01115 0.32343 0.0
C806 C 0.52841 0.05164 0.27565 0.0
C807 C 0.54095 0.0664 0.27301 0.0
C808 C 0.5554 0.06609 0.24294 0.0
C809 C 0.55683 0.05085 0.2152 0.0
C810 C 0.54426 0.03621 0.21766 0.0
H811 H 0.52929 0.99878 0.34447 0.0
H812 H 0.5434 0.01414 0.31271 0.0
H813 H 0.52417 0.02317 0.34241 0.0
H814 H 0.51739 0.05213 0.29905 0.0
H815 H 0.53954 0.0779 0.29492 0.0
H816 H 0.13979 0.98576 0.46075 0.0
H817 H 0.13804 0.00713 0.40005 0.0
H818 H 0.13694 0.96067 0.31375 0.0
H819 H 0.13858 0.93929 0.37413 0.0
H820 H 0.16209 0.01082 0.32873 0.0
H821 H 0.09086 0.99113 0.27997 0.0
H822 H 0.10036 0.98526 0.33141 0.0
H823 H 0.10656 0.97194 0.2852 0.0
C824 C 0.1392 0.98013 0.42881 0.0
C825 C 0.13924 0.96087 0.42216 0.0
C826 C 0.13821 0.99233 0.3942 0.0
C827 C 0.13708 0.98548 0.35242 0.0
C828 C 0.13746 0.96626 0.34574 0.0
H829 H 0.15529 0.04198 0.11197 0.0
H830 H 0.15751 0.02276 0.17587 0.0
C831 C 0.13849 0.95406 0.38027 0.0
C832 C 0.13558 0.99839 0.31572 0.0
H833 H 0.10771 0.01024 0.23209 0.0
C834 C 0.15017 0.01076 0.30768 0.0
C835 C 0.11992 0.99846 0.28861 0.0
C836 C 0.10344 0.98612 0.29682 0.0
C837 C 0.14971 0.02289 0.27265 0.0
C838 C 0.13434 0.02249 0.24467 0.0
C839 C 0.11956 0.01042 0.25332 0.0
C840 C 0.13327 0.03448 0.20625 0.0
C841 C 0.16559 0.03618 0.26618 0.0
C842 C 0.1187 0.04723 0.20164 0.0
C843 C 0.11735 0.05821 0.16504 0.0
C844 C 0.13047 0.05657 0.13209 0.0
C845 C 0.14501 0.04372 0.13677 0.0
C846 C 0.14637 0.03277 0.17342 0.0
H847 H 0.17372 0.03816 0.29587 0.0
H848 H 0.17505 0.03055 0.24151 0.0
H849 H 0.1605 0.04989 0.25514 0.0
H850 H 0.10838 0.04871 0.22645 0.0
H851 H 0.10593 0.06789 0.1625 0.0
H852 H 0.0256 0.64235 0.66405 0.0
H853 H 0.00627 0.64119 0.60103 0.0
H854 H 0.05458 0.63198 0.52288 0.0
H855 H 0.07431 0.63274 0.58691 0.0
H856 H 0.00636 0.66273 0.52972 0.0
H857 H 0.02017 0.58876 0.49075 0.0
H858 H 0.02667 0.59892 0.54108 0.0
H859 H 0.04011 0.6036 0.4942 0.0
C860 C 0.03224 0.64011 0.63354 0.0
C861 C 0.0515 0.63749 0.63047 0.0
C862 C 0.02112 0.63949 0.59748 0.0
C863 C 0.02893 0.63625 0.55739 0.0
C864 C 0.04826 0.63418 0.55373 0.0
H865 H 0.96232 0.65025 0.32938 0.0
H866 H 0.98547 0.65298 0.3851 0.0
C867 C 0.05951 0.63477 0.59016 0.0
C868 C 0.01644 0.63496 0.52014 0.0
H869 H 0.99889 0.60465 0.44706 0.0
C870 C 0.00483 0.65009 0.51136 0.0
C871 C 0.01426 0.61832 0.49688 0.0
C872 C 0.02583 0.60138 0.50624 0.0
C873 C 0.99086 0.64897 0.48047 0.0
C874 C 0.98878 0.6324 0.45691 0.0
C875 C 1.00054 0.61733 0.46523 0.0
C876 C 0.97455 0.63055 0.42321 0.0
C877 C 0.97808 0.66534 0.47446 0.0
C878 C 0.9609 0.61672 0.42563 0.0
C879 C 0.94759 0.61499 0.39343 0.0
C880 C 0.94776 0.62708 0.35835 0.0
C881 C 0.96151 0.64089 0.35623 0.0
C882 C 0.97481 0.64251 0.38812 0.0
H883 H 0.97806 0.67457 0.50277 0.0
H884 H 0.98285 0.6736 0.44677 0.0
H885 H 0.96365 0.66075 0.46825 0.0
H886 H 0.96054 0.60729 0.45245 0.0
H887 H 0.9373 0.60412 0.39583 0.0
H888 H 0.38421 0.46824 0.59571 0.0
H889 H 0.38529 0.49112 0.65283 0.0
H890 H 0.35167 0.4557 0.73175 0.0
H891 H 0.35038 0.43261 0.67455 0.0
H892 H 0.35225 0.50814 0.69233 0.0
H893 H 0.39795 0.47069 0.80602 0.0
H894 H 0.39722 0.46525 0.74988 0.0
H895 H 0.37894 0.4576 0.78439 0.0
C896 C 0.37717 0.46516 0.62532 0.0
C897 C 0.36718 0.44855 0.63056 0.0
C898 C 0.37777 0.47831 0.65785 0.0
C899 C 0.36861 0.47504 0.69639 0.0
C900 C 0.35895 0.45836 0.70223 0.0
H901 H 0.35214 0.53009 0.93329 0.0
H902 H 0.35261 0.50992 0.87124 0.0
C903 C 0.35823 0.4452 0.66955 0.0
C904 C 0.36866 0.48938 0.72999 0.0
H905 H 0.38367 0.49814 0.83085 0.0
C906 C 0.35918 0.50607 0.72259 0.0
C907 C 0.37782 0.48658 0.76915 0.0
C908 C 0.3887 0.46914 0.77796 0.0
C909 C 0.35803 0.51982 0.75416 0.0
C910 C 0.36694 0.51688 0.79369 0.0
C911 C 0.37681 0.50035 0.80054 0.0
C912 C 0.36533 0.53012 0.82959 0.0
C913 C 0.34672 0.53701 0.74554 0.0
C914 C 0.37199 0.54839 0.82661 0.0
C915 C 0.37153 0.56012 0.86221 0.0
C916 C 0.36468 0.55358 0.90126 0.0
C917 C 0.35763 0.53548 0.90368 0.0
C918 C 0.3579 0.52391 0.86825 0.0
H919 H 0.33737 0.5352 0.71774 0.0
H920 H 0.33824 0.54079 0.77373 0.0
H921 H 0.3562 0.54872 0.73857 0.0
H922 H 0.37807 0.55336 0.79725 0.0
H923 H 0.37718 0.57398 0.85965 0.0
H924 H 0.42133 0.87157 0.10822 0.0
H925 H 0.43372 0.86986 0.03556 0.0
H926 H 0.48916 0.86589 0.08592 0.0
H927 H 0.47696 0.86753 0.15836 0.0
H928 H 0.45913 0.89416 0.99682 0.0
H929 H 0.4867 0.82264 1.00088 0.0
H930 H 0.46995 0.83107 0.03904 0.0
H931 H 0.49419 0.83615 0.04566 0.0
C932 C 0.43616 0.87022 0.10378 0.0
C933 C 0.44818 0.86965 0.13902 0.0
C934 C 0.44319 0.86923 0.06227 0.0
C935 C 0.46232 0.86742 0.05537 0.0
C936 C 0.47432 0.86687 0.09053 0.0
H937 H 0.54285 0.89876 0.8861 0.0
H938 H 0.51624 0.89656 0.93344 0.0
C939 C 0.46733 0.86795 0.13193 0.0
C940 C 0.47005 0.86712 0.01161 0.0
H941 H 0.50009 0.84309 0.94837 0.0
C942 C 0.46776 0.88282 0.98577 0.0
C943 C 0.48098 0.85218 0.99675 0.0
C944 C 0.48296 0.83447 0.02185 0.0
C945 C 0.47737 0.88459 0.94709 0.0
C946 C 0.48968 0.87039 0.93425 0.0
C947 C 0.49075 0.85405 0.95834 0.0
C948 C 0.50373 0.8734 0.90048 0.0
C949 C 0.47483 0.90198 0.92114 0.0
C950 C 0.50548 0.86122 0.86572 0.0
C951 C 0.52075 0.86257 0.83817 0.0
C952 C 0.5346 0.87581 0.84588 0.0
C953 C 0.53235 0.88842 0.8795 0.0
C954 C 0.51707 0.88727 0.90642 0.0
H955 H 0.46087 0.90809 0.92632 0.0
H956 H 0.48526 0.9124 0.93118 0.0
H957 H 0.47671 0.89923 0.88662 0.0
H958 H 0.49542 0.8503 0.86088 0.0
H959 H 0.52232 0.85258 0.81267 0.0
H960 H 0.84141 0.0436 0.59121 0.0
H961 H 0.83971 0.02281 0.65264 0.0
H962 H 0.89415 1.00178 0.62293 0.0
H963 H 0.89594 0.0229 0.56177 0.0
H964 H 0.84304 0.98564 0.67244 0.0
H965 H 0.90169 0.02607 0.73896 0.0
H966 H 0.88958 0.03296 0.69129 0.0
H967 H 0.90673 0.01489 0.68922 0.0
C968 C 0.85259 0.03384 0.59655 0.0
C969 C 0.86862 0.03454 0.57123 0.0
C970 C 0.85173 0.02213 0.63202 0.0
C971 C 0.86699 0.01106 0.64313 0.0
C972 C 0.88234 0.01047 0.61551 0.0
H973 H 0.8714 0.93217 0.85179 0.0
H974 H 0.86973 0.94773 0.78308 0.0
C975 C 0.88321 0.02224 0.58002 0.0
C976 C 0.86747 1.00173 0.68553 0.0
H977 H 0.89083 1.001 0.78035 0.0
C978 C 0.85353 0.98895 0.69596 0.0
C979 C 0.88085 0.00642 0.7168 0.0
C980 C 0.89546 0.02096 0.70882 0.0
C981 C 0.85282 0.98048 0.73633 0.0
C982 C 0.8666 0.98466 0.76702 0.0
C983 C 0.88034 0.99768 0.75684 0.0
C984 C 0.86732 0.97532 0.80939 0.0
C985 C 0.83706 0.96742 0.74598 0.0
C986 C 0.86706 0.98565 0.84745 0.0
C987 C 0.86819 0.97673 0.88717 0.0
C988 C 0.86972 0.95734 0.88943 0.0
C989 C 0.8701 0.94712 0.85127 0.0
C990 C 0.86901 0.95599 0.81181 0.0
H991 H 0.82494 0.97004 0.72498 0.0
H992 H 0.84171 0.95296 0.74044 0.0
H993 H 0.83253 0.96867 0.77965 0.0
H994 H 0.86593 1.0006 0.84643 0.0
H995 H 0.86794 0.98497 0.91597 0.0
H996 H 0.98342 0.34929 0.80732 0.0
H997 H 0.0098 0.34643 0.85703 0.0
H998 H 0.98712 0.39063 0.93347 0.0
H999 H 0.96111 0.39347 0.8846 0.0
H1000 H 0.02653 0.39187 0.92408 0.0
H1001 H 1.00001 0.32303 0.97668 0.0
H1002 H 0.00495 0.32634 0.92102 0.0
H1003 H 0.98606 0.33862 0.94518 0.0
C1004 C 0.9844 0.35863 0.83423 0.0
C1005 C 0.97018 0.37145 0.84249 0.0
C1006 C 0.99935 0.35691 0.86271 0.0
C1007 C 1.00026 0.36816 0.89928 0.0
C1008 C 0.98669 0.38177 0.90561 0.0
H1009 H 0.02934 0.36521 0.15682 0.0
H1010 H 0.0165 0.36377 0.08491 0.0
C1011 C 0.97179 0.38333 0.87771 0.0
C1012 C 0.01412 0.3651 0.9335 0.0
H1013 H 0.02258 0.33717 0.01917 0.0
C1014 C 0.02605 0.37972 0.94435 0.0
C1015 C 0.01324 0.34932 0.96017 0.0
C1016 C 1.00035 0.33341 0.95057 0.0
C1017 C 0.0364 0.37941 0.98228 0.0
C1018 C 0.03489 0.36399 0.00986 0.0
C1019 C 0.02371 0.34895 0.99791 0.0
C1020 C 0.04312 0.36408 0.05321 0.0
C1021 C 0.04793 0.3961 0.9939 0.0
C1022 C 0.06238 0.36452 0.05934 0.0
C1023 C 0.06979 0.36538 0.10054 0.0
C1024 C 0.05804 0.36576 0.1363 0.0
C1025 C 0.03877 0.36498 0.13 0.0
C1026 C 0.03141 0.3641 0.0889 0.0
H1027 H 0.04533 0.40802 0.97232 0.0
H1028 H 0.045 0.40049 0.02711 0.0
H1029 H 0.06284 0.39244 0.99185 0.0
H1030 H 0.07168 0.36426 0.03228 0.0
H1031 H 0.0847 0.36587 0.10435 0.0
H1032 H 0.65531 0.53373 0.41258 0.0
H1033 H 0.65382 0.51359 0.3504 0.0
H1034 H 0.61866 0.5533 0.28681 0.0
H1035 H 0.62075 0.57395 0.34895 0.0
H1036 H 0.6231 0.49768 0.3229 0.0
H1037 H 0.65361 0.53922 0.19186 0.0
H1038 H 0.65608 0.54561 0.24712 0.0
H1039 H 0.6349 0.55054 0.21914 0.0
C1040 C 0.6476 0.53836 0.38493 0.0
C1041 C 0.63814 0.55536 0.3854 0.0
C1042 C 0.64671 0.52682 0.34947 0.0
C1043 C 0.63614 0.53189 0.31386 0.0
C1044 C 0.62719 0.54923 0.31357 0.0
H1045 H 0.5956 0.44772 0.13631 0.0
H1046 H 0.59822 0.47089 0.19281 0.0
C1047 C 0.62836 0.561 0.34902 0.0
C1048 C 0.63341 0.51821 0.27909 0.0
H1049 H 0.63919 0.51089 0.17253 0.0
C1050 C 0.62666 0.50057 0.29001 0.0
C1051 C 0.63815 0.52194 0.23627 0.0
C1052 C 0.64625 0.54029 0.22283 0.0
C1053 C 0.62474 0.48651 0.25954 0.0
C1054 C 0.62913 0.49033 0.21654 0.0
C1055 C 0.63573 0.50801 0.20548 0.0
C1056 C 0.62746 0.47603 0.18275 0.0
C1057 C 0.61862 0.46753 0.27407 0.0
C1058 C 0.64293 0.47141 0.1578 0.0
C1059 C 0.6414 0.45835 0.12517 0.0
C1060 C 0.62439 0.44957 0.11694 0.0
C1061 C 0.60897 0.454 0.14233 0.0
C1062 C 0.61046 0.46725 0.17467 0.0
H1063 H 0.62105 0.46551 0.30869 0.0
H1064 H 0.60355 0.46598 0.26817 0.0
H1065 H 0.62603 0.45644 0.25645 0.0
H1066 H 0.65619 0.47799 0.16346 0.0
H1067 H 0.65353 0.45525 0.10614 0.0
H1068 H 0.54545 0.15001 0.34293 0.0
H1069 H 0.52268 0.15263 0.39967 0.0
H1070 H 0.54654 0.10513 0.4624 0.0
H1071 H 0.56943 0.10216 0.40499 0.0
H1072 H 0.50749 0.10433 0.45757 0.0
H1073 H 0.53276 0.17177 0.51965 0.0
H1074 H 0.52768 0.17183 0.4637 0.0
H1075 H 0.54624 0.15765 0.4837 0.0
C1076 C 0.54607 0.14019 0.36893 0.0
C1077 C 0.55946 0.12599 0.36964 0.0
C1078 C 0.533 0.14174 0.40138 0.0
C1079 C 0.5331 0.12925 0.43549 0.0
C1080 C 0.54631 0.11496 0.43634 0.0
H1081 H 0.48494 0.13846 0.68056 0.0
H1082 H 0.5038 0.13667 0.61676 0.0
C1083 C 0.55942 0.11334 0.40368 0.0
C1084 C 0.51932 0.13116 0.4701 0.0
H1085 H 0.50449 0.16064 0.54789 0.0
C1086 C 0.50679 0.11662 0.47737 0.0
C1087 C 0.5185 0.14723 0.49581 0.0
C1088 C 0.53211 0.16295 0.49068 0.0
C1089 C 0.49353 0.11768 0.51002 0.0
C1090 C 0.49266 0.13381 0.53551 0.0
C1091 C 0.50505 0.1484 0.52787 0.0
C1092 C 0.48056 0.13503 0.57345 0.0
C1093 C 0.48099 0.10133 0.51798 0.0
C1094 C 0.46113 0.13488 0.57024 0.0
C1095 C 0.45015 0.13587 0.60706 0.0
C1096 C 0.45854 0.13708 0.64734 0.0
C1097 C 0.47799 0.13751 0.65008 0.0
C1098 C 0.48884 0.1365 0.61359 0.0
H1099 H 0.48554 0.08881 0.50022 0.0
H1100 H 0.48051 0.09797 0.55246 0.0
H1101 H 0.46671 0.10485 0.50763 0.0
H1102 H 0.45449 0.13402 0.53939 0.0
H1103 H 0.4352 0.13554 0.60405 0.0
H1104 H 0.61188 0.47507 0.91485 0.0
H1105 H 0.61254 0.49584 0.85363 0.0
H1106 H 0.65097 0.45916 0.79021 0.0
H1107 H 0.64951 0.43778 0.85104 0.0
H1108 H 0.64091 0.51452 0.82745 0.0
H1109 H 0.61678 0.47052 0.69388 0.0
H1110 H 0.61465 0.46346 0.74873 0.0
H1111 H 0.63639 0.46095 0.72122 0.0
C1112 C 0.62014 0.47126 0.88738 0.0
C1113 C 0.63059 0.45486 0.88736 0.0
C1114 C 0.62057 0.48315 0.8525 0.0
C1115 C 0.63174 0.47909 0.81712 0.0
C1116 C 0.6419 0.46242 0.81662 0.0
H1117 H 0.66727 0.56745 0.64482 0.0
H1118 H 0.66546 0.54447 0.70193 0.0
C1119 C 0.64112 0.45024 0.85135 0.0
C1120 C 0.63364 0.49307 0.78269 0.0
H1121 H 0.62957 0.49981 0.67556 0.0
C1122 C 0.63833 0.5113 0.79424 0.0
C1123 C 0.63016 0.48894 0.7394 0.0
C1124 C 0.62404 0.46996 0.72505 0.0
C1125 C 0.63941 0.52552 0.76396 0.0
C1126 C 0.63648 0.52129 0.72051 0.0
C1127 C 0.63193 0.50304 0.70885 0.0
C1128 C 0.63755 0.53564 0.68669 0.0
C1129 C 0.64309 0.54502 0.77919 0.0
C1130 C 0.62264 0.53809 0.65853 0.0
C1131 C 0.62381 0.55093 0.6254 0.0
C1132 C 0.63984 0.56172 0.62003 0.0
C1133 C 0.65462 0.55956 0.64869 0.0
C1134 C 0.65358 0.54645 0.6814 0.0
H1135 H 0.63924 0.54679 0.81321 0.0
H1136 H 0.6581 0.54805 0.77619 0.0
H1137 H 0.63527 0.55534 0.76008 0.0
H1138 H 0.61013 0.52994 0.66194 0.0
H1139 H 0.61221 0.55228 0.60369 0.0
H1140 H 0.53565 0.15291 0.16617 0.0
H1141 H 0.51591 0.1486 0.10403 0.0
H1142 H 0.55904 0.11687 0.04284 0.0
H1143 H 0.57922 0.12157 0.10523 0.0
H1144 H 0.53996 0.14045 0.98708 0.0
H1145 H 0.49094 0.09882 0.08264 0.0
H1146 H 0.49507 0.1211 0.10606 0.0
H1147 H 0.51382 0.10474 0.10139 0.0
C1148 C 0.54105 0.14523 0.13924 0.0
C1149 C 0.55886 0.1374 0.14053 0.0
C1150 C 0.52971 0.14267 0.10392 0.0
C1151 C 0.53581 0.13192 0.0695 0.0
C1152 C 0.55403 0.12501 0.06943 0.0
H1153 H 0.45213 0.09356 0.88699 0.0
H1154 H 0.47651 0.09413 0.94132 0.0
C1155 C 0.56555 0.12778 0.10483 0.0
C1156 C 0.52274 0.12761 0.03457 0.0
H1157 H 0.47928 0.11073 0.01644 0.0
C1158 C 0.52679 0.13374 0.99327 0.0
C1159 C 0.50575 0.11843 0.04253 0.0
C1160 C 0.50121 0.11021 0.08547 0.0
C1161 C 0.51384 0.13185 0.9602 0.0
C1162 C 0.49623 0.12407 0.96907 0.0
C1163 C 0.49263 0.11701 0.00982 0.0
C1164 C 0.48114 0.12371 0.93705 0.0
C1165 C 0.51917 0.13825 0.91613 0.0
C1166 C 0.47519 0.14022 0.91783 0.0
C1167 C 0.46137 0.13991 0.88678 0.0
C1168 C 0.45298 0.12312 0.87494 0.0
C1169 C 0.45827 0.10671 0.8957 0.0
C1170 C 0.47228 0.107 0.92648 0.0
H1171 H 0.53443 0.13784 0.91157 0.0
H1172 H 0.51256 0.12958 0.89119 0.0
H1173 H 0.5146 0.15281 0.91172 0.0
H1174 H 0.48133 0.15336 0.92659 0.0
H1175 H 0.45742 0.15281 0.87165 0.0
H1176 H 0.86205 0.08036 0.35364 0.0
H1177 H 0.85991 0.06549 0.28404 0.0
H1178 H 0.86998 0.01231 0.34233 0.0
H1179 H 0.87159 0.0272 0.4126 0.0
H1180 H 0.88569 0.04772 0.24139 0.0
H1181 H 0.82703 0.99964 0.26658 0.0
H1182 H 0.83252 0.01791 0.3037 0.0
H1183 H 0.84515 0.99639 0.30495 0.0
C1184 C 0.86355 0.06545 0.35178 0.0
C1185 C 0.86693 0.05494 0.38868 0.0
C1186 C 0.86236 0.05695 0.31185 0.0
C1187 C 0.86458 0.03771 0.30765 0.0
C1188 C 0.86776 0.02711 0.34462 0.0
H1189 H 0.90127 0.97563 0.09154 0.0
H1190 H 0.89832 0.99745 0.15035 0.0
C1191 C 0.86877 0.03563 0.38482 0.0
C1192 C 0.86462 0.02907 0.26433 0.0
H1193 H 0.84556 0.99438 0.20455 0.0
C1194 C 0.87676 0.03616 0.23331 0.0
C1195 C 0.85277 0.01421 0.25316 0.0
C1196 C 0.83849 0.00671 0.2837 0.0
C1197 C 0.87782 0.02847 0.1922 0.0
C1198 C 0.86674 0.01292 0.18183 0.0
C1199 C 0.85414 0.00623 0.21234 0.0
C1200 C 0.86901 1.00247 0.14105 0.0
C1201 C 0.89078 0.03717 0.16028 0.0
C1202 C 0.85364 0.99819 0.11521 0.0
C1203 C 0.85539 0.9857 0.08107 0.0
C1204 C 0.87252 0.97727 0.07239 0.0
C1205 C 0.88805 0.98241 0.09661 0.0
C1206 C 0.88633 0.99485 0.1305 0.0
H1207 H 0.89289 0.05212 0.16712 0.0
H1208 H 0.9045 0.03027 0.16228 0.0
H1209 H 0.88548 0.03571 0.12727 0.0
H1210 H 0.84009 1.00375 0.12282 0.0
H1211 H 0.84309 0.98146 0.0639 0.0
H1212 H 0.05333 0.41108 0.38764 0.0
H1213 H 0.03371 0.40735 0.4506 0.0
H1214 H 0.03384 0.34808 0.43226 0.0
H1215 H 0.05269 0.35186 0.36821 0.0
H1216 H 1.00072 0.35848 0.45004 0.0
H1217 H 0.04674 0.39189 0.56774 0.0
H1218 H 0.04122 0.40742 0.5251 0.0
H1219 H 0.0543 0.38664 0.51437 0.0
C1220 C 0.04928 0.39725 0.39727 0.0
C1221 C 0.05458 0.38176 0.37301 0.0
C1222 C 0.03817 0.3951 0.4335 0.0
C1223 C 0.03257 0.37738 0.44695 0.0
C1224 C 0.03798 0.36191 0.42277 0.0
H1225 H 0.98219 0.35934 0.69745 0.0
H1226 H 1.00332 0.36 0.63632 0.0
C1227 C 0.04877 0.36408 0.3861 0.0
C1228 C 0.0204 0.37498 0.48499 0.0
H1229 H 0.01533 0.38704 0.58959 0.0
C1230 C 0.00404 0.3646 0.48064 0.0
C1231 C 0.02479 0.38263 0.52531 0.0
C1232 C 0.04282 0.39258 0.53356 0.0
C1233 C 0.99183 0.36197 0.51496 0.0
C1234 C 0.99564 0.37059 0.55454 0.0
C1235 C 0.0122 0.38062 0.5592 0.0
C1236 C 0.98262 0.36952 0.59137 0.0
C1237 C 0.97518 0.34964 0.50849 0.0
C1238 C 0.96396 0.37473 0.58677 0.0
C1239 C 0.95181 0.37398 0.62143 0.0
C1240 C 0.95818 0.36848 0.66176 0.0
C1241 C 0.97689 0.36355 0.66666 0.0
C1242 C 0.98898 0.36398 0.63176 0.0
H1243 H 0.97769 0.33933 0.48284 0.0
H1244 H 0.97152 0.34208 0.53809 0.0
H1245 H 0.96316 0.35823 0.49872 0.0
H1246 H 0.95879 0.37967 0.55646 0.0
H1247 H 0.93752 0.37814 0.61685 0.0
H1248 H 0.35031 0.5536 0.11989 0.0
H1249 H 0.34778 0.53084 0.17694 0.0
H1250 H 0.40638 0.53577 0.20151 0.0
H1251 H 0.40894 0.55904 0.14514 0.0
H1252 H 0.36411 0.49726 0.18323 0.0
H1253 H 0.38509 0.54155 0.31941 0.0
H1254 H 0.37959 0.55099 0.26778 0.0
H1255 H 0.40191 0.54068 0.27738 0.0
C1256 C 0.36263 0.55008 0.13782 0.0
C1257 C 0.3798 0.55827 0.12823 0.0
C1258 C 0.36117 0.53697 0.17029 0.0
C1259 C 0.37684 0.5317 0.19373 0.0
C1260 C 0.39402 0.53991 0.18444 0.0
H1261 H 0.38127 0.43374 0.35972 0.0
H1262 H 0.38372 0.45413 0.29728 0.0
C1263 C 0.39546 0.55321 0.1522 0.0
C1264 C 0.37514 0.51733 0.22724 0.0
H1265 H 0.38132 0.50958 0.33335 0.0
C1266 C 0.36785 0.49994 0.21611 0.0
C1267 C 0.37991 0.5209 0.27011 0.0
C1268 C 0.38689 0.53959 0.28456 0.0
C1269 C 0.36502 0.48607 0.24681 0.0
C1270 C 0.37001 0.48958 0.28956 0.0
C1271 C 0.37754 0.50689 0.3005 0.0
C1272 C 0.36679 0.47601 0.32422 0.0
C1273 C 0.3562 0.46804 0.23342 0.0
C1274 C 0.35632 0.48141 0.35975 0.0
C1275 C 0.35519 0.46998 0.39535 0.0
C1276 C 0.36432 0.45281 0.39601 0.0
C1277 C 0.3739 0.44682 0.35962 0.0
C1278 C 0.37529 0.45846 0.32402 0.0
H1279 H 0.34893 0.46935 0.20237 0.0
H1280 H 0.36713 0.45732 0.22993 0.0
H1281 H 0.34613 0.46317 0.25768 0.0
H1282 H 0.34957 0.49482 0.36054 0.0
H1283 H 0.34768 0.47488 0.42304 0.0
H1284 H 0.44151 0.90763 0.40872 0.0
H1285 H 0.46142 0.90493 0.47147 0.0
H1286 H 0.48716 0.85632 0.41784 0.0
H1287 H 0.46723 0.85878 0.35515 0.0
H1288 H 0.47761 0.85235 0.50408 0.0
H1289 H 0.51699 0.91725 0.47583 0.0
H1290 H 0.49226 0.92009 0.477 0.0
H1291 H 0.50277 0.90661 0.43538 0.0
C1292 C 0.45139 0.89635 0.41021 0.0
C1293 C 0.45278 0.88345 0.37674 0.0
C1294 C 0.46284 0.89489 0.44604 0.0
C1295 C 0.47596 0.88057 0.44909 0.0
C1296 C 0.47718 0.86752 0.41609 0.0
H1297 H 0.57002 0.87321 0.62079 0.0
H1298 H 0.54924 0.87501 0.55926 0.0
C1299 C 0.46577 0.86897 0.38023 0.0
C1300 C 0.48836 0.87911 0.48674 0.0
H1301 H 0.52245 0.90183 0.54127 0.0
C1302 C 0.48742 0.86316 0.51223 0.0
C1303 C 0.50132 0.89312 0.49702 0.0
C1304 C 0.50359 0.91017 0.46972 0.0
C1305 C 0.49892 0.86094 0.54802 0.0
C1306 C 0.51155 0.87516 0.5589 0.0
C1307 C 0.51265 0.89101 0.53311 0.0
C1308 C 0.52403 0.87373 0.59643 0.0
C1309 C 0.49771 0.84323 0.57338 0.0
C1310 C 0.51677 0.87254 0.63784 0.0
C1311 C 0.52863 0.8715 0.67307 0.0
C1312 C 0.54795 0.87171 0.66751 0.0
C1313 C 0.55519 0.87297 0.62606 0.0
C1314 C 0.54334 0.87402 0.59089 0.0
H1315 H 0.4908 0.83201 0.55512 0.0
H1316 H 0.51171 0.8384 0.58306 0.0
H1317 H 0.4895 0.84578 0.60267 0.0
H1318 H 0.50193 0.87265 0.64297 0.0
H1319 H 0.52266 0.87067 0.70466 0.0
H1320 H 0.11054 0.96352 0.64257 0.0
H1321 H 0.11343 0.98981 0.69064 0.0
H1322 H 0.15849 0.01124 0.61508 0.0
H1323 H 0.15554 0.98467 0.56618 0.0
H1324 H 0.16696 0.00615 0.70205 0.0
H1325 H 0.10152 0.04521 0.68509 0.0
H1326 H 0.09745 0.02078 0.68984 0.0
H1327 H 0.10995 0.02956 0.64451 0.0
C1328 C 0.12077 0.97406 0.63553 0.0
C1329 C 0.13286 0.97208 0.6008 0.0
C1330 C 0.12232 0.98917 0.66288 0.0
C1331 C 0.13604 1.0026 0.65623 0.0
C1332 C 0.14769 1.0011 0.62049 0.0
H1333 H 0.14082 0.08549 0.86221 0.0
H1334 H 0.14152 0.07267 0.78991 0.0
C1335 C 0.14596 0.98601 0.59257 0.0
C1336 C 0.13946 0.01654 0.68999 0.0
H1337 H 0.11658 0.04711 0.75418 0.0
C1338 C 0.15613 0.01548 0.71285 0.0
C1339 C 0.12542 0.02882 0.70387 0.0
C1340 C 0.10765 0.03131 0.67924 0.0
C1341 C 0.15855 0.02529 0.75104 0.0
C1342 C 0.14383 0.03624 0.76693 0.0
C1343 C 0.12775 0.03847 0.74233 0.0
C1344 C 0.14424 0.0442 0.81045 0.0
C1345 C 0.17662 0.02337 0.77477 0.0
C1346 C 0.14531 0.03241 0.84592 0.0
C1347 C 0.14482 0.03965 0.88716 0.0
C1348 C 0.1432 0.05884 0.89373 0.0
C1349 C 0.14214 0.07064 0.85816 0.0
C1350 C 0.14254 0.06336 0.81686 0.0
H1351 H 0.18813 0.01949 0.75299 0.0
H1352 H 0.18031 0.03644 0.79136 0.0
H1353 H 0.17527 0.01226 0.79899 0.0
H1354 H 0.14622 0.01754 0.8417 0.0
H1355 H 0.1456 0.03019 0.91386 0.0
H1356 H 0.93301 0.62512 0.08869 0.0
H1357 H 0.95428 0.62392 0.02722 0.0
H1358 H 0.99718 0.64916 0.10317 0.0
H1359 H 0.97642 0.6501 0.16404 0.0
H1360 H 0.97498 0.65195 0.98452 0.0
H1361 H 0.02139 0.6011 0.06255 0.0
H1362 H 0.99829 0.60592 0.08169 0.0
H1363 H 0.01719 0.62112 0.09503 0.0
C1364 C 0.94694 0.63053 0.09193 0.0
C1365 C 0.95318 0.63743 0.1312 0.0
C1366 C 0.95906 0.62979 0.057 0.0
C1367 C 0.97744 0.63599 0.06115 0.0
C1368 C 0.98324 0.6438 0.09968 0.0
H1369 H 0.07375 0.65613 0.90551 0.0
H1370 H 0.05033 0.65456 0.96219 0.0
C1371 C 0.97131 0.64439 0.13438 0.0
C1372 C 0.99091 0.63427 0.02584 0.0
H1373 H 0.03392 0.61724 0.0024 0.0
C1374 C 0.98775 0.64417 0.98812 0.0
C1375 C 0.00756 0.62406 0.0307 0.0
C1376 C 0.01125 0.6123 0.06951 0.0
C1377 C 1.00116 0.6447 0.95575 0.0
C1378 C 0.01805 0.63508 0.96145 0.0
C1379 C 0.02103 0.6248 0.99859 0.0
C1380 C 0.03266 0.63529 0.9286 0.0
C1381 C 0.99747 0.65585 0.91604 0.0
C1382 C 0.03059 0.62457 0.89182 0.0
C1383 C 0.04392 0.62529 0.85975 0.0
C1384 C 0.05956 0.63684 0.86378 0.0
C1385 C 0.06189 0.64711 0.90142 0.0
C1386 C 0.04853 0.64629 0.9337 0.0
H1387 H 0.98458 0.6642 0.91855 0.0
H1388 H 0.00929 0.66528 0.90952 0.0
H1389 H 0.99614 0.64634 0.88844 0.0
H1390 H 0.01851 0.61585 0.88766 0.0
H1391 H 0.04169 0.61708 0.83134 0.0
H1392 H 0.08979 0.2811 0.28342 0.0
H1393 H 0.10171 0.25211 0.25382 0.0
H1394 H 0.11204 0.27949 0.13408 0.0
H1395 H 0.10041 0.30862 0.16394 0.0
H1396 H 0.08744 0.23301 0.18948 0.0
H1397 H 0.1599 0.25148 0.14976 0.0
H1398 H 0.14549 0.26583 0.18325 0.0
H1399 H 0.14326 0.26686 0.12624 0.0
C1400 C 0.09476 0.28096 0.25091 0.0
C1401 C 0.09415 0.29712 0.226 0.0
C1402 C 0.10162 0.26441 0.23405 0.0
C1403 C 0.10798 0.26362 0.19184 0.0
C1404 C 0.10767 0.27982 0.16704 0.0
H1405 H 0.11071 0.16334 0.04074 0.0
H1406 H 0.10422 0.1936 0.07176 0.0
C1407 C 0.10097 0.29647 0.18408 0.0
C1408 C 0.11357 0.24553 0.1731 0.0
H1409 H 0.14852 0.22309 0.12067 0.0
C1410 C 0.10085 0.23083 0.17468 0.0
C1411 C 0.13114 0.2426 0.15419 0.0
C1412 C 0.14581 0.25747 0.15358 0.0
C1413 C 0.10507 0.21341 0.15738 0.0
C1414 C 0.12232 0.21069 0.13688 0.0
C1415 C 0.13521 0.22526 0.13596 0.0
C1416 C 0.12713 0.19283 0.11614 0.0
C1417 C 0.09107 0.198 0.16184 0.0
C1418 C 0.14264 0.18262 0.12952 0.0
C1419 C 0.14664 0.16538 0.11122 0.0
C1420 C 0.13521 0.15803 0.07904 0.0
C1421 C 0.11995 0.16857 0.06507 0.0
C1422 C 0.11605 0.18581 0.0832 0.0
H1423 H 0.0813 0.20065 0.18852 0.0
H1424 H 0.08281 0.19701 0.13213 0.0
H1425 H 0.09798 0.18446 0.16732 0.0
H1426 H 0.15148 0.18786 0.15466 0.0
H1427 H 0.15868 0.15783 0.12229 0.0
H1428 H 0.83836 0.60602 0.25335 0.0
H1429 H 0.80759 0.60028 0.28322 0.0
H1430 H 0.81211 0.64979 0.35928 0.0
H1431 H 0.84278 0.65579 0.32921 0.0
H1432 H 0.80266 0.61843 0.40608 0.0
H1433 H 0.75725 0.62573 0.26456 0.0
H1434 H 0.77658 0.61038 0.25688 0.0
H1435 H 0.78063 0.63462 0.26606 0.0
C1436 C 0.83264 0.61594 0.27566 0.0
C1437 C 0.84311 0.63134 0.28897 0.0
C1438 C 0.81503 0.61263 0.29274 0.0
C1439 C 0.80748 0.62469 0.32324 0.0
C1440 C 0.81767 0.64031 0.33577 0.0
H1441 H 0.69644 0.61801 0.43587 0.0
H1442 H 0.72435 0.6287 0.39882 0.0
C1443 C 0.83525 0.64366 0.3187 0.0
C1444 C 0.78964 0.62025 0.34453 0.0
H1445 H 0.74369 0.61196 0.32625 0.0
C1446 C 0.78975 0.61715 0.38866 0.0
C1447 C 0.77277 0.61875 0.32185 0.0
C1448 C 0.77168 0.62271 0.27477 0.0
C1449 C 0.77355 0.61209 0.41051 0.0
C1450 C 0.75683 0.60989 0.38758 0.0
C1451 C 0.75657 0.61352 0.34368 0.0
C1452 C 0.73966 0.60329 0.40864 0.0
C1453 C 0.77445 0.60912 0.45802 0.0
C1454 C 0.73892 0.58537 0.42572 0.0
C1455 C 0.72299 0.57917 0.44659 0.0
C1456 C 0.70739 0.59077 0.45088 0.0
C1457 C 0.70809 0.60865 0.43298 0.0
C1458 C 0.72406 0.61481 0.41191 0.0
H1459 H 0.78695 0.61565 0.47221 0.0
H1460 H 0.76194 0.61484 0.4739 0.0
H1461 H 0.77503 0.59404 0.46472 0.0
H1462 H 0.7507 0.57613 0.42285 0.0
H1463 H 0.72292 0.5652 0.45898 0.0
H1464 H 0.41254 0.35276 0.57938 0.0
H1465 H 0.41771 0.3219 0.60888 0.0
H1466 H 0.36114 0.30714 0.58091 0.0
H1467 H 0.35569 0.33821 0.55187 0.0
H1468 H 0.3972 0.30619 0.67867 0.0
H1469 H 0.39241 0.26355 0.53137 0.0
H1470 H 0.39662 0.28821 0.52997 0.0
H1471 H 0.37382 0.27962 0.54128 0.0
C1472 C 0.40113 0.34302 0.57959 0.0
C1473 C 0.38363 0.34806 0.56352 0.0
C1474 C 0.40417 0.32533 0.59623 0.0
C1475 C 0.38986 0.3122 0.59684 0.0
C1476 C 0.37246 0.31699 0.58015 0.0
H1477 H 0.394 0.19866 0.69972 0.0
H1478 H 0.3831 0.22734 0.66583 0.0
C1479 C 0.36938 0.33475 0.56354 0.0
C1480 C 0.39308 0.29388 0.61699 0.0
H1481 H 0.39765 0.24764 0.59587 0.0
C1482 C 0.39722 0.29337 0.66061 0.0
C1483 C 0.3929 0.27717 0.59343 0.0
C1484 C 0.38882 0.27703 0.54634 0.0
C1485 C 0.40148 0.27666 0.68123 0.0
C1486 C 0.40202 0.26003 0.6574 0.0
C1487 C 0.39729 0.26041 0.61403 0.0
C1488 C 0.40859 0.24239 0.67653 0.0
C1489 C 0.40537 0.27698 0.72843 0.0
C1490 C 0.42664 0.2412 0.69282 0.0
C1491 C 0.43288 0.22492 0.71204 0.0
C1492 C 0.42125 0.20934 0.71522 0.0
C1493 C 0.40331 0.21037 0.69775 0.0
C1494 C 0.39705 0.22675 0.6785 0.0
H1495 H 0.39904 0.28929 0.74397 0.0
H1496 H 0.40005 0.26429 0.74423 0.0
H1497 H 0.42057 0.27767 0.7336 0.0
H1498 H 0.43596 0.25292 0.69064 0.0
H1499 H 0.44692 0.22452 0.72405 0.0
H1500 H 0.65428 0.89396 0.85777 0.0
H1501 H 0.68504 0.90163 0.88454 0.0
H1502 H 0.70942 0.88167 0.76777 0.0
H1503 H 0.67832 0.87421 0.74037 0.0
H1504 H 0.71286 0.87687 0.8988 0.0
H1505 H 0.73607 0.93097 0.78464 0.0
H1506 H 0.71218 0.92375 0.7886 0.0
H1507 H 0.72875 0.90946 0.76127 0.0
C1508 C 0.66618 0.89131 0.83763 0.0
C1509 C 0.66394 0.88332 0.79714 0.0
C1510 C 0.68376 0.89574 0.85294 0.0
C1511 C 0.69957 0.8923 0.8282 0.0
C1512 C 0.69741 0.88474 0.78719 0.0
H1513 H 0.81573 0.9056 0.90548 0.0
H1514 H 0.78765 0.89802 0.86561 0.0
C1515 C 0.67968 0.88042 0.77161 0.0
C1516 C 0.71817 0.8957 0.84703 0.0
H1517 H 0.75741 0.92194 0.8379 0.0
C1518 C 0.7226 0.88669 0.88536 0.0
C1519 C 0.73096 0.90842 0.82937 0.0
C1520 C 0.72677 0.91885 0.78889 0.0
C1521 C 0.73925 0.89028 0.90689 0.0
C1522 C 0.75178 0.90339 0.88994 0.0
C1523 C 0.7477 0.91197 0.85091 0.0
C1524 C 0.76886 0.90875 0.91321 0.0
C1525 C 0.7433 0.88001 0.9477 0.0
C1526 C 0.76762 0.91761 0.95288 0.0
C1527 C 0.78364 0.9221 0.97569 0.0
C1528 C 0.80129 0.91786 0.95929 0.0
C1529 C 0.80245 0.90928 0.91905 0.0
C1530 C 0.78639 0.90484 0.8962 0.0
H1531 H 0.73477 0.86727 0.95067 0.0
H1532 H 0.75816 0.87612 0.94965 0.0
H1533 H 0.74005 0.88913 0.97516 0.0
H1534 H 0.75421 0.92105 0.96625 0.0
H1535 H 0.78215 0.929 0.00606 0.0
H1536 H 0.90047 0.3138 0.66513 0.0
H1537 H 0.89409 0.28618 0.62265 0.0
H1538 H 0.91725 0.25185 0.72153 0.0
H1539 H 0.92397 0.27938 0.76402 0.0
H1540 H 0.91918 0.25883 0.59275 0.0
H1541 H 0.86581 0.22882 0.69953 0.0
H1542 H 0.8732 0.25266 0.70324 0.0
H1543 H 0.8872 0.23452 0.7257 0.0
C1544 C 0.90437 0.30043 0.67784 0.0
C1545 C 0.91273 0.29891 0.71823 0.0
C1546 C 0.9006 0.28462 0.65353 0.0
C1547 C 0.90495 0.26694 0.66916 0.0
C1548 C 0.91342 0.26534 0.70921 0.0
H1549 H 0.91934 0.16155 0.54699 0.0
H1550 H 0.92277 0.1924 0.57814 0.0
C1551 C 0.91724 0.28113 0.73352 0.0
C1552 C 0.90099 0.25018 0.6433 0.0
H1553 H 0.8773 0.20922 0.64448 0.0
C1554 C 0.90992 0.24804 0.60388 0.0
C1555 C 0.88869 0.23624 0.65756 0.0
C1556 C 0.87802 0.23818 0.69863 0.0
C1557 C 0.90738 0.23203 0.57907 0.0
C1558 C 0.89574 0.21772 0.59427 0.0
C1559 C 0.88631 0.22015 0.63297 0.0
C1560 C 0.89383 0.19975 0.57167 0.0
C1561 C 0.91721 0.23053 0.53682 0.0
C1562 C 0.87641 0.19359 0.55762 0.0
C1563 C 0.8744 0.1759 0.5398 0.0
C1564 C 0.88974 0.16397 0.53632 0.0
C1565 C 0.90724 0.17039 0.54943 0.0
C1566 C 0.90925 0.18807 0.56694 0.0
H1567 H 0.92128 0.24436 0.52444 0.0
H1568 H 0.93 0.22218 0.54089 0.0
H1569 H 0.90834 0.22355 0.5128 0.0
H1570 H 0.8643 0.20234 0.56123 0.0
H1571 H 0.86071 0.17128 0.53048 0.0
H1572 H 0.83107 0.35524 0.76037 0.0
H1573 H 0.79866 0.3604 0.78187 0.0
H1574 H 0.81205 0.41658 0.81701 0.0
H1575 H 0.84412 0.41159 0.79524 0.0
H1576 H 0.78778 0.36984 0.86459 0.0
H1577 H 0.76395 0.42333 0.75115 0.0
H1578 H 0.78419 0.4092 0.74146 0.0
H1579 H 0.78568 0.4293 0.77524 0.0
C1580 C 0.82692 0.36881 0.77161 0.0
C1581 C 0.84008 0.38301 0.7762 0.0
C1582 C 0.80846 0.37171 0.78411 0.0
C1583 C 0.80288 0.38894 0.80063 0.0
C1584 C 0.8159 0.4033 0.8036 0.0
H1585 H 0.72053 0.4436 0.94569 0.0
H1586 H 0.74679 0.43284 0.90356 0.0
C1587 C 0.83427 0.40039 0.79144 0.0
C1588 C 0.78403 0.39166 0.81867 0.0
H1589 H 0.74726 0.42148 0.81756 0.0
C1590 C 0.7787 0.38087 0.85379 0.0
C1591 C 0.77223 0.40607 0.80459 0.0
C1592 C 0.77671 0.41751 0.76576 0.0
C1593 C 0.76246 0.38484 0.8768 0.0
C1594 C 0.75112 0.39984 0.8639 0.0
C1595 C 0.75602 0.41007 0.82759 0.0
C1596 C 0.73491 0.40604 0.88938 0.0
C1597 C 0.75808 0.37363 0.91608 0.0
C1598 C 0.71941 0.39458 0.89528 0.0
C1599 C 0.70436 0.40065 0.91979 0.0
C1600 C 0.7045 0.41834 0.93878 0.0
C1601 C 0.72002 0.4298 0.93234 0.0
C1602 C 0.73501 0.42373 0.90787 0.0
H1603 H 0.76999 0.3649 0.92619 0.0
H1604 H 0.75413 0.38284 0.9429 0.0
H1605 H 0.74619 0.36435 0.90933 0.0
H1606 H 0.71893 0.38096 0.88082 0.0
H1607 H 0.69271 0.39143 0.9242 0.0
H1608 H 0.60213 0.19497 0.14806 0.0
H1609 H 0.61182 0.22316 0.11069 0.0
H1610 H 0.60671 0.25424 0.22739 0.0
H1611 H 0.59691 0.22622 0.26467 0.0
H1612 H 0.58873 0.27079 0.162 0.0
H1613 H 0.66013 0.25212 0.11219 0.0
H1614 H 0.64275 0.2358 0.09593 0.0
H1615 H 0.64745 0.23908 0.15162 0.0
C1616 C 0.60342 0.20774 0.16589 0.0
C1617 C 0.59869 0.20837 0.20932 0.0
C1618 C 0.60899 0.22385 0.14451 0.0
C1619 C 0.61016 0.24081 0.1663 0.0
C1620 C 0.60589 0.24133 0.20988 0.0
H1621 H 0.65674 0.34614 0.08864 0.0
H1622 H 0.65079 0.3155 0.11896 0.0
C1623 C 0.60023 0.22531 0.23113 0.0
C1624 C 0.61462 0.2583 0.14347 0.0
H1625 H 0.64776 0.28008 0.08401 0.0
C1626 C 0.60165 0.27281 0.14497 0.0
C1627 C 0.63154 0.261 0.12156 0.0
C1628 C 0.64636 0.24626 0.12046 0.0
C1629 C 0.6051 0.2899 0.12522 0.0
C1630 C 0.62183 0.29247 0.10245 0.0
C1631 C 0.63486 0.27801 0.10106 0.0
C1632 C 0.62624 0.31035 0.08129 0.0
C1633 C 0.59099 0.30522 0.12994 0.0
C1634 C 0.61472 0.31743 0.04916 0.0
C1635 C 0.61794 0.33503 0.0321 0.0
C1636 C 0.63287 0.34589 0.04657 0.0
C1637 C 0.6449 0.33835 0.07733 0.0
C1638 C 0.64162 0.32075 0.09446 0.0
H1639 H 0.58139 0.30263 0.15696 0.0
H1640 H 0.59786 0.3188 0.135 0.0
H1641 H 0.58258 0.30612 0.10044 0.0
H1642 H 0.60296 0.30949 0.03793 0.0
H1643 H 0.6083 0.34039 0.00871 0.0
H1644 H 0.66981 0.10529 0.2736 0.0
H1645 H 0.70017 0.09888 0.30512 0.0
H1646 H 0.69393 0.146 0.38816 0.0
H1647 H 0.66382 0.15288 0.35616 0.0
H1648 H 0.73286 0.12411 0.31455 0.0
H1649 H 0.70291 0.09966 0.4677 0.0
H1650 H 0.68954 0.10085 0.41915 0.0
H1651 H 0.6946 0.12161 0.44838 0.0
C1652 C 0.675 0.11451 0.29804 0.0
C1653 C 0.66424 0.12954 0.31251 0.0
C1654 C 0.69231 0.11074 0.31619 0.0
C1655 C 0.69914 0.12181 0.34934 0.0
C1656 C 0.68874 0.13711 0.36306 0.0
H1657 H 0.79379 0.1176 0.51852 0.0
H1658 H 0.76468 0.12447 0.48195 0.0
C1659 C 0.67149 0.14097 0.34481 0.0
C1660 C 0.71697 0.11719 0.37024 0.0
H1661 H 0.73549 0.10226 0.4642 0.0
C1662 C 0.73349 0.11926 0.3472 0.0
C1663 C 0.71768 0.11091 0.41284 0.0
C1664 C 0.70026 0.10796 0.43854 0.0
C1665 C 0.7508 0.11562 0.36602 0.0
C1666 C 0.75153 0.10929 0.40869 0.0
C1667 C 0.73494 0.10712 0.43155 0.0
C1668 C 0.76932 0.10506 0.43051 0.0
C1669 C 0.76813 0.11913 0.3404 0.0
C1670 C 0.78153 0.09166 0.41415 0.0
C1671 C 0.79822 0.08774 0.43498 0.0
C1672 C 0.80293 0.09695 0.47295 0.0
C1673 C 0.79052 0.11013 0.48962 0.0
C1674 C 0.77391 0.11413 0.46862 0.0
H1675 H 0.76548 0.12873 0.31342 0.0
H1676 H 0.77928 0.12506 0.36059 0.0
H1677 H 0.77317 0.10583 0.32697 0.0
H1678 H 0.77807 0.0841 0.38546 0.0
H1679 H 0.80731 0.0773 0.42171 0.0
H1680 H 0.5889 0.81135 0.65826 0.0
H1681 H 0.59653 0.78314 0.61816 0.0
H1682 H 0.6044 0.75354 0.73596 0.0
H1683 H 0.59688 0.7815 0.77602 0.0
H1684 H 0.62822 0.75994 0.6185 0.0
H1685 H 0.56595 0.72201 0.67358 0.0
H1686 H 0.56844 0.74675 0.67968 0.0
H1687 H 0.57955 0.7312 0.71647 0.0
C1688 C 0.59242 0.79887 0.67559 0.0
C1689 C 0.59201 0.79864 0.7204 0.0
C1690 C 0.59671 0.78275 0.65263 0.0
C1691 C 0.60064 0.76612 0.67406 0.0
C1692 C 0.60093 0.76606 0.71872 0.0
H1693 H 0.6289 0.65299 0.62243 0.0
H1694 H 0.6229 0.68379 0.6515 0.0
C1695 C 0.5966 0.78209 0.74161 0.0
C1696 C 0.60427 0.74871 0.65015 0.0
H1697 H 0.58951 0.70396 0.64018 0.0
C1698 C 0.61966 0.74774 0.62281 0.0
C1699 C 0.59302 0.73283 0.65563 0.0
C1700 C 0.57571 0.73324 0.68259 0.0
C1701 C 0.62453 0.73108 0.60229 0.0
C1702 C 0.61361 0.71508 0.60896 0.0
C1703 C 0.59796 0.71621 0.63536 0.0
C1704 C 0.61844 0.69677 0.5903 0.0
C1705 C 0.64169 0.73054 0.57489 0.0
C1706 C 0.61803 0.69381 0.5461 0.0
C1707 C 0.62135 0.67611 0.52929 0.0
C1708 C 0.62503 0.66102 0.55642 0.0
C1709 C 0.62581 0.6642 0.60061 0.0
C1710 C 0.62248 0.68183 0.61731 0.0
H1711 H 0.65055 0.74294 0.57968 0.0
H1712 H 0.65 0.71794 0.58182 0.0
H1713 H 0.63755 0.73003 0.54089 0.0
H1714 H 0.61463 0.70507 0.52469 0.0
H1715 H 0.62041 0.67414 0.49519 0.0
H1716 H 0.35958 0.12022 0.87229 0.0
H1717 H 0.3285 0.11461 0.89979 0.0
H1718 H 0.30489 0.13651 0.78421 0.0
H1719 H 0.33609 0.14249 0.75645 0.0
H1720 H 0.2989 0.14014 0.91282 0.0
H1721 H 0.28098 0.08454 0.7971 0.0
H1722 H 0.3045 0.09226 0.80534 0.0
H1723 H 0.28867 0.10621 0.77507 0.0
C1724 C 0.34782 0.1241 0.8528 0.0
C1725 C 0.3504 0.13188 0.81213 0.0
C1726 C 0.33004 0.12078 0.86855 0.0
C1727 C 0.31439 0.125 0.84396 0.0
C1728 C 0.3168 0.1329 0.80347 0.0
H1729 H 0.20218 0.11848 0.95526 0.0
H1730 H 0.22952 0.13001 0.9171 0.0
C1731 C 0.33465 0.13627 0.78764 0.0
C1732 C 0.29566 0.12088 0.86105 0.0
H1733 H 0.2586 0.09194 0.84891 0.0
C1734 C 0.28997 0.12976 0.89863 0.0
C1735 C 0.28415 0.10721 0.84261 0.0
C1736 C 0.28984 0.09686 0.80297 0.0
C1737 C 0.27323 0.12506 0.91879 0.0
C1738 C 0.26183 0.11123 0.90064 0.0
C1739 C 0.26733 0.10263 0.86257 0.0
C1740 C 0.24493 0.10439 0.92252 0.0
C1741 C 0.26825 0.13435 0.96028 0.0
C1742 C 0.2444 0.0861 0.93747 0.0
C1743 C 0.22884 0.07948 0.95906 0.0
C1744 C 0.21337 0.09098 0.96601 0.0
C1745 C 0.21382 0.10925 0.95036 0.0
C1746 C 0.22948 0.1159 0.92883 0.0
H1747 H 0.28004 0.14232 0.97373 0.0
H1748 H 0.25656 0.14407 0.9549 0.0
H1749 H 0.26371 0.12393 0.9841 0.0
H1750 H 0.25614 0.07695 0.93276 0.0
H1751 H 0.22888 0.06525 0.96985 0.0
H1752 H 0.87236 0.85087 0.10098 0.0
H1753 H 0.87654 0.81887 0.12349 0.0
H1754 H 0.88995 0.80323 0.99458 0.0
H1755 H 0.88665 0.83561 0.97202 0.0
H1756 H 0.85989 0.78678 0.10164 0.0
H1757 H 0.93465 0.78406 0.0587 0.0
H1758 H 0.92169 0.80543 0.0592 0.0
H1759 H 0.91924 0.78949 0.01559 0.0
C1760 C 0.87637 0.8407 0.07736 0.0
C1761 C 0.87955 0.84592 0.03481 0.0
C1762 C 0.87858 0.82233 0.09025 0.0
C1763 C 0.88393 0.80868 0.06095 0.0
C1764 C 0.88625 0.81361 0.01798 0.0
H1765 H 0.91193 0.69311 0.12642 0.0
H1766 H 0.90203 0.72034 0.08531 0.0
C1767 C 0.88414 0.83209 0.00503 0.0
C1768 C 0.8875 0.78951 0.0763 0.0
H1769 H 0.92186 0.75739 0.09006 0.0
C1770 C 0.8734 0.78029 0.09871 0.0
C1771 C 0.90515 0.78103 0.07259 0.0
C1772 C 0.92113 0.79052 0.05056 0.0
C1773 C 0.8766 0.76312 0.11842 0.0
C1774 C 0.89434 0.75496 0.11569 0.0
C1775 C 0.90824 0.76373 0.0919 0.0
C1776 C 0.89922 0.73814 0.14032 0.0
C1777 C 0.8611 0.75395 0.14277 0.0
C1778 C 0.90091 0.7392 0.18473 0.0
C1779 C 0.90667 0.72378 0.20813 0.0
C1780 C 0.91074 0.70695 0.1876 0.0
C1781 C 0.90868 0.70582 0.14313 0.0
C1782 C 0.90313 0.72136 0.11962 0.0
H1783 H 0.84736 0.75985 0.13431 0.0
H1784 H 0.86093 0.7388 0.13659 0.0
H1785 H 0.86336 0.75604 0.17739 0.0
H1786 H 0.89811 0.75209 0.20122 0.0
H1787 H 0.90799 0.72501 0.24234 0.0
H1788 H 0.30874 0.40835 0.41403 0.0
H1789 H 0.27965 0.39879 0.3804 0.0
H1790 H 0.25007 0.41156 0.49604 0.0
H1791 H 0.27904 0.4212 0.52969 0.0
H1792 H 0.25352 0.37211 0.40094 0.0
H1793 H 0.22252 0.44235 0.40789 0.0
H1794 H 0.24679 0.43816 0.41786 0.0
H1795 H 0.22991 0.43392 0.45889 0.0
C1796 C 0.29609 0.40894 0.43245 0.0
C1797 C 0.29619 0.41572 0.47446 0.0
C1798 C 0.27945 0.40354 0.41312 0.0
C1799 C 0.26262 0.40482 0.4354 0.0
C1800 C 0.2628 0.41091 0.47783 0.0
H1801 H 0.15633 0.35546 0.36839 0.0
H1802 H 0.18663 0.36242 0.3993 0.0
C1803 C 0.27937 0.4164 0.49706 0.0
C1804 C 0.24482 0.40006 0.41423 0.0
H1805 H 0.20236 0.41774 0.38854 0.0
C1806 C 0.24235 0.38209 0.39805 0.0
C1807 C 0.23036 0.41318 0.40985 0.0
C1808 C 0.23254 0.43303 0.42414 0.0
C1809 C 0.22565 0.37679 0.3784 0.0
C1810 C 0.21092 0.38971 0.37559 0.0
C1811 C 0.21356 0.40777 0.39108 0.0
C1812 C 0.19272 0.38499 0.35616 0.0
C1813 C 0.22409 0.35751 0.36017 0.0
C1814 C 0.18582 0.39562 0.32227 0.0
C1815 C 0.16835 0.39191 0.30506 0.0
C1816 C 0.15732 0.37746 0.32132 0.0
C1817 C 0.16432 0.36678 0.35522 0.0
C1818 C 0.1818 0.37057 0.37258 0.0
H1819 H 0.23795 0.35134 0.35399 0.0
H1820 H 0.2168 0.34849 0.38332 0.0
H1821 H 0.21608 0.35755 0.32999 0.0
H1822 H 0.19391 0.40691 0.30928 0.0
H1823 H 0.16333 0.40068 0.27956 0.0
H1824 H 0.41005 0.81383 0.15676 0.0
H1825 H 0.39991 0.78575 0.11978 0.0
H1826 H 0.4098 0.75378 0.23354 0.0
H1827 H 0.42011 0.78175 0.27044 0.0
H1828 H 0.4252 0.73782 0.16433 0.0
H1829 H 0.35218 0.75652 0.12931 0.0
H1830 H 0.36878 0.77302 0.11007 0.0
H1831 H 0.36625 0.76941 0.16641 0.0
C1832 C 0.40974 0.80088 0.1741 0.0
C1833 C 0.41587 0.80002 0.21658 0.0
C1834 C 0.40392 0.78483 0.15293 0.0
C1835 C 0.40388 0.76766 0.174 0.0
C1836 C 0.40971 0.76686 0.2166 0.0
H1837 H 0.35374 0.66355 0.10371 0.0
H1838 H 0.36133 0.69408 0.13232 0.0
C1839 C 0.41565 0.78284 0.23764 0.0
C1840 C 0.39871 0.75034 0.15131 0.0
H1841 H 0.36356 0.7289 0.09757 0.0
C1842 C 0.41172 0.73588 0.14972 0.0
C1843 C 0.38106 0.74776 0.13255 0.0
C1844 C 0.36618 0.76242 0.13493 0.0
C1845 C 0.40758 0.7189 0.13013 0.0
C1846 C 0.39008 0.71643 0.11058 0.0
C1847 C 0.37705 0.73089 0.1121 0.0
C1848 C 0.38473 0.69856 0.09053 0.0
C1849 C 0.42181 0.70356 0.13176 0.0
C1850 C 0.39502 0.69113 0.05663 0.0
C1851 C 0.39088 0.67352 0.04055 0.0
C1852 C 0.37624 0.66306 0.05781 0.0
C1853 C 0.36537 0.671 0.09029 0.0
C1854 C 0.36958 0.68855 0.10646 0.0
H1855 H 0.43238 0.70606 0.15684 0.0
H1856 H 0.41514 0.68996 0.13789 0.0
H1857 H 0.42909 0.70277 0.1007 0.0
H1858 H 0.40652 0.69878 0.0432 0.0
H1859 H 0.39958 0.66786 0.01566 0.0
H1860 H 0.19825 0.89713 0.43686 0.0
H1861 H 0.22682 0.88733 0.40128 0.0
H1862 H 0.25856 0.92322 0.48301 0.0
H1863 H 0.23022 0.93354 0.51787 0.0
H1864 H 0.25624 0.91263 0.36138 0.0
H1865 H 0.28092 0.8687 0.49532 0.0
H1866 H 0.2568 0.87471 0.48819 0.0
H1867 H 0.27273 0.89148 0.50908 0.0
C1868 C 0.21123 0.90313 0.44705 0.0
C1869 C 0.21181 0.91605 0.48068 0.0
C1870 C 0.22757 0.89742 0.42677 0.0
C1871 C 0.24477 0.90438 0.43996 0.0
C1872 C 0.24542 0.91748 0.47284 0.0
H1873 H 0.36073 0.89095 0.38569 0.0
H1874 H 0.33003 0.89722 0.41536 0.0
C1875 C 0.22915 0.92329 0.4929 0.0
C1876 C 0.26219 0.89809 0.41954 0.0
H1877 H 0.30219 0.87434 0.43943 0.0
C1878 C 0.26625 0.90409 0.37813 0.0
C1879 C 0.27518 0.88707 0.44172 0.0
C1880 C 0.27123 0.87995 0.48595 0.0
C1881 C 0.28332 0.89989 0.35879 0.0
C1882 C 0.29645 0.88899 0.38115 0.0
C1883 C 0.29215 0.88269 0.42229 0.0
C1884 C 0.31502 0.88458 0.36326 0.0
C1885 C 0.28741 0.90782 0.31534 0.0
C1886 C 0.31684 0.87504 0.32451 0.0
C1887 C 0.3344 0.8715 0.30739 0.0
C1888 C 0.3505 0.87719 0.32901 0.0
C1889 C 0.34863 0.88624 0.36843 0.0
C1890 C 0.33108 0.8899 0.38534 0.0
H1891 H 0.27814 0.91966 0.30763 0.0
H1892 H 0.30201 0.91258 0.31315 0.0
H1893 H 0.2852 0.89695 0.2909 0.0
H1894 H 0.30469 0.87033 0.30746 0.0
H1895 H 0.33539 0.86423 0.2773 0.0
H1896 H 0.1584 0.83549 0.55862 0.0
H1897 H 0.15035 0.80456 0.58441 0.0
H1898 H 0.09486 0.81126 0.53595 0.0
H1899 H 0.10272 0.84235 0.51052 0.0
H1900 H 0.12182 0.79935 0.64542 0.0
H1901 H 0.10949 0.7579 0.49904 0.0
H1902 H 0.12279 0.77911 0.49889 0.0
H1903 H 0.09794 0.77998 0.50096 0.0
C1904 C 0.14455 0.83029 0.55289 0.0
C1905 C 0.13117 0.84146 0.53277 0.0
C1906 C 0.14 0.81259 0.56754 0.0
C1907 C 0.12204 0.80559 0.562 0.0
C1908 C 0.10889 0.81627 0.53998 0.0
H1909 H 0.06414 0.72371 0.71217 0.0
H1910 H 0.07427 0.75124 0.6737 0.0
C1911 C 0.11343 0.83404 0.52537 0.0
C1912 C 0.1166 0.78803 0.58314 0.0
H1913 H 0.10056 0.7442 0.56482 0.0
C1914 C 0.11726 0.78727 0.62778 0.0
C1915 C 0.11072 0.77227 0.56004 0.0
C1916 C 0.1103 0.7722 0.51205 0.0
C1917 C 0.1119 0.77128 0.64999 0.0
C1918 C 0.10564 0.75567 0.62699 0.0
C1919 C 0.10528 0.75626 0.58232 0.0
C1920 C 0.09929 0.7387 0.64912 0.0
C1921 C 0.11303 0.77113 0.69796 0.0
C1922 C 0.10993 0.72245 0.6477 0.0
C1923 C 0.10431 0.70667 0.67017 0.0
C1924 C 0.08782 0.70678 0.69421 0.0
C1925 C 0.07706 0.72309 0.69481 0.0
C1926 C 0.08276 0.73886 0.67256 0.0
H1927 H 0.12133 0.78291 0.71041 0.0
H1928 H 0.09884 0.77215 0.7114 0.0
H1929 H 0.11926 0.75797 0.7094 0.0
H1930 H 0.12278 0.7221 0.62985 0.0
H1931 H 0.11309 0.69452 0.66925 0.0
H1932 H 0.27637 0.57892 0.00423 0.0
H1933 H 0.24888 0.58718 0.96337 0.0
H1934 H 0.28281 0.61678 0.87334 0.0
H1935 H 0.31049 0.60897 0.91458 0.0
H1936 H 0.23639 0.62438 0.94148 0.0
H1937 H 0.25084 0.57996 0.80036 0.0
H1938 H 0.2619 0.57622 0.85123 0.0
H1939 H 0.26918 0.59503 0.81789 0.0
C1940 C 0.27809 0.58734 0.97605 0.0
C1941 C 0.29578 0.59328 0.96293 0.0
C1942 C 0.26231 0.59196 0.95256 0.0
C1943 C 0.26383 0.60246 0.9152 0.0
C1944 C 0.28138 0.60844 0.90182 0.0
H1945 H 0.16723 0.65177 0.78733 0.0
H1946 H 0.19832 0.64734 0.81743 0.0
C1947 C 0.29721 0.60391 0.92544 0.0
C1948 C 0.24691 0.60728 0.89082 0.0
H1949 H 0.22359 0.598 0.7986 0.0
C1950 C 0.23364 0.61876 0.91008 0.0
C1951 C 0.24334 0.59978 0.85005 0.0
C1952 C 0.25696 0.58695 0.82856 0.0
C1953 C 0.21676 0.6228 0.88983 0.0
C1954 C 0.21314 0.61524 0.84911 0.0
C1955 C 0.2265 0.60389 0.82965 0.0
C1956 C 0.19501 0.61789 0.82773 0.0
C1957 C 0.20263 0.63458 0.91274 0.0
C1958 C 0.18312 0.60272 0.8224 0.0
C1959 C 0.16544 0.60519 0.8052 0.0
C1960 C 0.15933 0.62289 0.7927 0.0
C1961 C 0.17155 0.63797 0.79655 0.0
C1962 C 0.18924 0.63549 0.81401 0.0
H1963 H 0.20623 0.63661 0.94682 0.0
H1964 H 0.2019 0.64839 0.89735 0.0
H1965 H 0.18867 0.62818 0.91076 0.0
H1966 H 0.18735 0.58901 0.83258 0.0
H1967 H 0.15647 0.59324 0.802 0.0
loop_
_geom_bond_atom_site_label_1
_geom_bond_atom_site_label_2
_geom_bond_distance
_geom_bond_site_symmetry_2
_ccdc_geom_bond_type
Co0 N4 2.148 . S
Co0 N10 2.128 . S
Co0 N20 2.194 1_556 S
Co0 O25 2.351 . S
Co0 O26 2.155 . S
Co0 O27 2.096 1_556 S
C1 N4 1.301 . S
C1 N5 1.328 . S
C1 H6 0.930 . S
C2 C3 1.333 . S
C2 N4 1.317 1_554 S
C2 H7 0.930 . S
C3 C2 1.333 . S
C3 N5 1.350 1_554 S
C3 H29 0.931 . S
N4 Co0 2.148 . S
N4 C1 1.301 . S
N4 C2 1.317 1_556 S
N5 C1 1.328 . S
N5 C3 1.350 1_556 S
H6 C1 0.930 . S
H7 C2 0.930 . S
C8 O9 1.224 . S
C8 O27 1.247 . S
O9 C8 1.224 . S
N10 Co0 2.128 . S
N10 C11 1.355 . S
N10 C13 1.311 1_556 S
C11 N10 1.355 . S
C11 C12 1.363 . S
C11 H23 0.929 . S
C12 C11 1.363 . S
C12 N14 1.375 1_556 S
C12 H30 0.931 . S
C13 N10 1.311 1_554 S
C13 N14 1.347 . S
C13 H24 0.929 . S
N14 C12 1.375 1_554 S
N14 C13 1.347 . S
C15 C18 1.365 . S
C15 N20 1.328 1_556 S
C15 H21 0.929 . S
C16 C17 1.362 . S
C16 C19 1.378 . S
C16 H31 0.929 . S
C17 C16 1.362 . S
C17 C18 1.366 1_554 S
C18 C15 1.365 . S
C18 C17 1.366 1_556 S
C18 H32 0.930 . S
C19 C16 1.378 . S
C19 N20 1.315 . S
C19 H22 0.930 . S
N20 Co0 2.194 1_554 S
N20 C15 1.328 1_554 S
N20 C19 1.315 . S
H21 C15 0.929 . S
H22 C19 0.930 . S
H23 C11 0.929 . S
H24 C13 0.929 . S
O25 Co0 2.351 . S
O25 C28 1.244 . S
O26 Co0 2.155 . S
O26 C28 1.240 . S
O27 Co0 2.096 1_554 S
O27 C8 1.247 . S
C28 O25 1.244 . S
C28 O26 1.240 . S
H29 C3 0.931 . S
H30 C12 0.931 . S
H31 C16 0.929 . S
H32 C18 0.930 . S
Co33 N37 2.148 . S
Co33 N43 2.128 . S
Co33 N53 2.194 . S
Co33 O58 2.351 . S
Co33 O59 2.155 . S
Co33 O60 2.096 . S
C34 N37 1.301 . S
C34 N38 1.328 . S
C34 H39 0.930 . S
C35 C36 1.333 . S
C35 N37 1.317 . S
C35 H40 0.930 . S
C36 C35 1.333 . S
C36 N38 1.350 . S
C36 H62 0.931 . S
N37 Co33 2.148 . S
N37 C34 1.301 . S
N37 C35 1.317 . S
N38 C34 1.328 . S
N38 C36 1.350 . S
H39 C34 0.930 . S
H40 C35 0.930 . S
C41 O42 1.224 . S
C41 O60 1.247 . S
O42 C41 1.224 . S
N43 Co33 2.128 . S
N43 C44 1.355 . S
N43 C46 1.311 . S
C44 N43 1.355 . S
C44 C45 1.363 . S
C44 H56 0.929 . S
C45 C44 1.363 . S
C45 N47 1.375 . S
C45 H63 0.931 . S
C46 N43 1.311 . S
C46 N47 1.347 . S
C46 H57 0.929 . S
N47 C45 1.375 . S
N47 C46 1.347 . S
C48 C51 1.365 . S
C48 N53 1.328 . S
C48 H54 0.929 . S
C49 C50 1.362 . S
C49 C52 1.378 . S
C49 H64 0.929 . S
C50 C49 1.362 . S
C50 C51 1.366 . S
C51 C48 1.365 . S
C51 C50 1.366 . S
C51 H65 0.930 . S
C52 C49 1.378 . S
C52 N53 1.315 . S
C52 H55 0.930 . S
N53 Co33 2.194 . S
N53 C48 1.328 . S
N53 C52 1.315 . S
H54 C48 0.929 . S
H55 C52 0.930 . S
H56 C44 0.929 . S
H57 C46 0.929 . S
O58 Co33 2.351 . S
O58 C61 1.244 . S
O59 Co33 2.155 . S
O59 C61 1.240 . S
O60 Co33 2.096 . S
O60 C41 1.247 . S
C61 O58 1.244 . S
C61 O59 1.240 . S
H62 C36 0.931 . S
H63 C45 0.931 . S
H64 C49 0.929 . S
H65 C51 0.930 . S
Co66 N70 2.148 . S
Co66 N76 2.128 . S
Co66 N86 2.194 . S
Co66 O91 2.351 . S
Co66 O92 2.155 . S
Co66 O93 2.096 . S
C67 N70 1.301 . S
C67 N71 1.328 . S
C67 H72 0.930 . S
C68 C69 1.333 . S
C68 N70 1.317 . S
C68 H73 0.930 . S
C69 C68 1.333 . S
C69 N71 1.350 . S
C69 H95 0.931 . S
N70 Co66 2.148 . S
N70 C67 1.301 . S
N70 C68 1.317 . S
N71 C67 1.328 . S
N71 C69 1.350 . S
H72 C67 0.930 . S
H73 C68 0.930 . S
C74 O75 1.224 . S
C74 O93 1.247 . S
O75 C74 1.224 . S
N76 Co66 2.128 . S
N76 C77 1.355 . S
N76 C79 1.311 . S
C77 N76 1.355 . S
C77 C78 1.363 . S
C77 H89 0.929 . S
C78 C77 1.363 . S
C78 N80 1.375 . S
C78 H96 0.931 . S
C79 N76 1.311 . S
C79 N80 1.347 . S
C79 H90 0.929 . S
N80 C78 1.375 . S
N80 C79 1.347 . S
C81 C84 1.365 . S
C81 N86 1.328 . S
C81 H87 0.929 . S
C82 C83 1.362 . S
C82 C85 1.378 . S
C82 H97 0.929 . S
C83 C82 1.362 . S
C83 C84 1.366 . S
C84 C81 1.365 . S
C84 C83 1.366 . S
C84 H98 0.930 . S
C85 C82 1.378 . S
C85 N86 1.315 . S
C85 H88 0.930 . S
N86 Co66 2.194 . S
N86 C81 1.328 . S
N86 C85 1.315 . S
H87 C81 0.929 . S
H88 C85 0.930 . S
H89 C77 0.929 . S
H90 C79 0.929 . S
O91 Co66 2.351 . S
O91 C94 1.244 . S
O92 Co66 2.155 . S
O92 C94 1.240 . S
O93 Co66 2.096 . S
O93 C74 1.247 . S
C94 O91 1.244 . S
C94 O92 1.240 . S
H95 C69 0.931 . S
H96 C78 0.931 . S
H97 C82 0.929 . S
H98 C84 0.930 . S
Co99 N103 2.148 . S
Co99 N109 2.128 . S
Co99 N119 2.194 . S
Co99 O124 2.351 . S
Co99 O125 2.155 . S
Co99 O126 2.096 . S
C100 N103 1.301 . S
C100 N104 1.328 . S
C100 H105 0.930 . S
C101 C102 1.333 . S
C101 N103 1.317 . S
C101 H106 0.930 . S
C102 C101 1.333 . S
C102 N104 1.350 . S
C102 H128 0.931 . S
N103 Co99 2.148 . S
N103 C100 1.301 . S
N103 C101 1.317 . S
N104 C100 1.328 . S
N104 C102 1.350 . S
H105 C100 0.930 . S
H106 C101 0.930 . S
C107 O108 1.224 . S
C107 O126 1.247 . S
O108 C107 1.224 . S
N109 Co99 2.128 . S
N109 C110 1.355 . S
N109 C112 1.311 . S
C110 N109 1.355 . S
C110 C111 1.363 . S
C110 H122 0.929 . S
C111 C110 1.363 . S
C111 N113 1.375 . S
C111 H129 0.931 . S
C112 N109 1.311 . S
C112 N113 1.347 . S
C112 H123 0.929 . S
N113 C111 1.375 . S
N113 C112 1.347 . S
C114 C117 1.365 . S
C114 N119 1.328 . S
C114 H120 0.929 . S
C115 C116 1.362 . S
C115 C118 1.378 . S
C115 H130 0.929 . S
C116 C115 1.362 . S
C116 C117 1.366 . S
C117 C114 1.365 . S
C117 C116 1.366 . S
C117 H131 0.930 . S
C118 C115 1.378 . S
C118 N119 1.315 . S
C118 H121 0.930 . S
N119 Co99 2.194 . S
N119 C114 1.328 . S
N119 C118 1.315 . S
H120 C114 0.929 . S
H121 C118 0.930 . S
H122 C110 0.929 . S
H123 C112 0.929 . S
O124 Co99 2.351 . S
O124 C127 1.244 . S
O125 Co99 2.155 . S
O125 C127 1.240 . S
O126 Co99 2.096 . S
O126 C107 1.247 . S
C127 O124 1.244 . S
C127 O125 1.240 . S
H128 C102 0.931 . S
H129 C111 0.931 . S
H130 C115 0.929 . S
H131 C117 0.930 . S
Co132 N136 2.148 . S
Co132 N142 2.128 . S
Co132 N152 2.194 . S
Co132 O157 2.351 . S
Co132 O158 2.155 . S
Co132 O159 2.096 . S
C133 N136 1.301 . S
C133 N137 1.328 . S
C133 H138 0.930 . S
C134 C135 1.333 . S
C134 N136 1.317 . S
C134 H139 0.930 . S
C135 C134 1.333 . S
C135 N137 1.350 . S
C135 H161 0.931 . S
N136 Co132 2.148 . S
N136 C133 1.301 . S
N136 C134 1.317 . S
N137 C133 1.328 . S
N137 C135 1.350 . S
H138 C133 0.930 . S
H139 C134 0.930 . S
C140 O141 1.224 . S
C140 O159 1.247 . S
O141 C140 1.224 . S
N142 Co132 2.128 . S
N142 C143 1.355 . S
N142 C145 1.311 . S
C143 N142 1.355 . S
C143 C144 1.363 . S
C143 H155 0.929 . S
C144 C143 1.363 . S
C144 N146 1.375 . S
C144 H162 0.931 . S
C145 N142 1.311 . S
C145 N146 1.347 . S
C145 H156 0.929 . S
N146 C144 1.375 . S
N146 C145 1.347 . S
C147 C150 1.365 . S
C147 N152 1.328 . S
C147 H153 0.929 . S
C148 C149 1.362 . S
C148 C151 1.378 . S
C148 H163 0.929 . S
C149 C148 1.362 . S
C149 C150 1.366 . S
C150 C147 1.365 . S
C150 C149 1.366 . S
C150 H164 0.930 . S
C151 C148 1.378 . S
C151 N152 1.315 . S
C151 H154 0.930 . S
N152 Co132 2.194 . S
N152 C147 1.328 . S
N152 C151 1.315 . S
H153 C147 0.929 . S
H154 C151 0.930 . S
H155 C143 0.929 . S
H156 C145 0.929 . S
O157 Co132 2.351 . S
O157 C160 1.244 . S
O158 Co132 2.155 . S
O158 C160 1.240 . S
O159 Co132 2.096 . S
O159 C140 1.247 . S
C160 O157 1.244 . S
C160 O158 1.240 . S
H161 C135 0.931 . S
H162 C144 0.931 . S
H163 C148 0.929 . S
H164 C150 0.930 . S
Co165 N169 2.148 . S
Co165 N175 2.128 . S
Co165 N185 2.194 . S
Co165 O190 2.351 . S
Co165 O191 2.155 . S
Co165 O192 2.096 . S
C166 N169 1.301 . S
C166 N170 1.328 . S
C166 H171 0.930 . S
C167 C168 1.333 . S
C167 N169 1.317 . S
C167 H172 0.930 . S
C168 C167 1.333 . S
C168 N170 1.350 . S
C168 H194 0.931 . S
N169 Co165 2.148 . S
N169 C166 1.301 . S
N169 C167 1.317 . S
N170 C166 1.328 . S
N170 C168 1.350 . S
H171 C166 0.930 . S
H172 C167 0.930 . S
C173 O174 1.224 . S
C173 O192 1.247 . S
O174 C173 1.224 . S
N175 Co165 2.128 . S
N175 C176 1.355 . S
N175 C178 1.311 . S
C176 N175 1.355 . S
C176 C177 1.363 . S
C176 H188 0.929 . S
C177 C176 1.363 . S
C177 N179 1.375 . S
C177 H195 0.931 . S
C178 N175 1.311 . S
C178 N179 1.347 . S
C178 H189 0.929 . S
N179 C177 1.375 . S
N179 C178 1.347 . S
C180 C183 1.365 . S
C180 N185 1.328 . S
C180 H186 0.929 . S
C181 C182 1.362 . S
C181 C184 1.378 . S
C181 H196 0.929 . S
C182 C181 1.362 . S
C182 C183 1.366 . S
C183 C180 1.365 . S
C183 C182 1.366 . S
C183 H197 0.930 . S
C184 C181 1.378 . S
C184 N185 1.315 . S
C184 H187 0.930 . S
N185 Co165 2.194 . S
N185 C180 1.328 . S
N185 C184 1.315 . S
H186 C180 0.929 . S
H187 C184 0.930 . S
H188 C176 0.929 . S
H189 C178 0.929 . S
O190 Co165 2.351 . S
O190 C193 1.244 . S
O191 Co165 2.155 . S
O191 C193 1.240 . S
O192 Co165 2.096 . S
O192 C173 1.247 . S
C193 O190 1.244 . S
C193 O191 1.240 . S
H194 C168 0.931 . S
H195 C177 0.931 . S
H196 C181 0.929 . S
H197 C183 0.930 . S
Co198 N202 2.148 . S
Co198 N208 2.128 . S
Co198 N218 2.194 1_556 S
Co198 O223 2.351 . S
Co198 O224 2.155 . S
Co198 O225 2.096 1_556 S
C199 N202 1.301 . S
C199 N203 1.328 . S
C199 H204 0.930 . S
C200 C201 1.333 . S
C200 N202 1.317 1_554 S
C200 H205 0.930 . S
C201 C200 1.333 . S
C201 N203 1.350 1_554 S
C201 H227 0.931 . S
N202 Co198 2.148 . S
N202 C199 1.301 . S
N202 C200 1.317 1_556 S
N203 C199 1.328 . S
N203 C201 1.350 1_556 S
H204 C199 0.930 . S
H205 C200 0.930 . S
C206 O207 1.224 . S
C206 O225 1.247 . S
O207 C206 1.224 . S
N208 Co198 2.128 . S
N208 C209 1.355 . S
N208 C211 1.311 1_556 S
C209 N208 1.355 . S
C209 C210 1.363 . S
C209 H221 0.929 . S
C210 C209 1.363 . S
C210 N212 1.375 1_556 S
C210 H228 0.931 . S
C211 N208 1.311 1_554 S
C211 N212 1.347 . S
C211 H222 0.929 . S
N212 C210 1.375 1_554 S
N212 C211 1.347 . S
C213 C216 1.365 . S
C213 N218 1.328 1_556 S
C213 H219 0.929 . S
C214 C215 1.362 . S
C214 C217 1.378 . S
C214 H229 0.929 . S
C215 C214 1.362 . S
C215 C216 1.366 1_554 S
C216 C213 1.365 . S
C216 C215 1.366 1_556 S
C216 H230 0.930 . S
C217 C214 1.378 . S
C217 N218 1.315 . S
C217 H220 0.930 . S
N218 Co198 2.194 1_554 S
N218 C213 1.328 1_554 S
N218 C217 1.315 . S
H219 C213 0.929 . S
H220 C217 0.930 . S
H221 C209 0.929 . S
H222 C211 0.929 . S
O223 Co198 2.351 . S
O223 C226 1.244 . S
O224 Co198 2.155 . S
O224 C226 1.240 . S
O225 Co198 2.096 1_554 S
O225 C206 1.247 . S
C226 O223 1.244 . S
C226 O224 1.240 . S
H227 C201 0.931 . S
H228 C210 0.931 . S
H229 C214 0.929 . S
H230 C216 0.930 . S
Co231 N235 2.148 . S
Co231 N241 2.128 . S
Co231 N251 2.194 . S
Co231 O256 2.351 . S
Co231 O257 2.155 . S
Co231 O258 2.096 . S
C232 N235 1.301 . S
C232 N236 1.328 . S
C232 H237 0.930 . S
C233 C234 1.333 . S
C233 N235 1.317 . S
C233 H238 0.930 . S
C234 C233 1.333 . S
C234 N236 1.350 . S
C234 H260 0.931 . S
N235 Co231 2.148 . S
N235 C232 1.301 . S
N235 C233 1.317 . S
N236 C232 1.328 . S
N236 C234 1.350 . S
H237 C232 0.930 . S
H238 C233 0.930 . S
C239 O240 1.224 . S
C239 O258 1.247 . S
O240 C239 1.224 . S
N241 Co231 2.128 . S
N241 C242 1.355 . S
N241 C244 1.311 . S
C242 N241 1.355 . S
C242 C243 1.363 . S
C242 H254 0.929 . S
C243 C242 1.363 . S
C243 N245 1.375 . S
C243 H261 0.931 . S
C244 N241 1.311 . S
C244 N245 1.347 . S
C244 H255 0.929 . S
N245 C243 1.375 . S
N245 C244 1.347 . S
C246 C249 1.365 . S
C246 N251 1.328 . S
C246 H252 0.929 . S
C247 C248 1.362 . S
C247 C250 1.378 . S
C247 H262 0.929 . S
C248 C247 1.362 . S
C248 C249 1.366 . S
C249 C246 1.365 . S
C249 C248 1.366 . S
C249 H263 0.930 . S
C250 C247 1.378 . S
C250 N251 1.315 . S
C250 H253 0.930 . S
N251 Co231 2.194 . S
N251 C246 1.328 . S
N251 C250 1.315 . S
H252 C246 0.929 . S
H253 C250 0.930 . S
H254 C242 0.929 . S
H255 C244 0.929 . S
O256 Co231 2.351 . S
O256 C259 1.244 . S
O257 Co231 2.155 . S
O257 C259 1.240 . S
O258 Co231 2.096 . S
O258 C239 1.247 . S
C259 O256 1.244 . S
C259 O257 1.240 . S
H260 C234 0.931 . S
H261 C243 0.931 . S
H262 C247 0.929 . S
H263 C249 0.930 . S
Co264 N268 2.148 . S
Co264 N274 2.128 . S
Co264 N284 2.194 . S
Co264 O289 2.351 . S
Co264 O290 2.155 . S
Co264 O291 2.096 . S
C265 N268 1.301 . S
C265 N269 1.328 . S
C265 H270 0.930 . S
C266 C267 1.333 . S
C266 N268 1.317 . S
C266 H271 0.930 . S
C267 C266 1.333 . S
C267 N269 1.350 . S
C267 H293 0.931 . S
N268 Co264 2.148 . S
N268 C265 1.301 . S
N268 C266 1.317 . S
N269 C265 1.328 . S
N269 C267 1.350 . S
H270 C265 0.930 . S
H271 C266 0.930 . S
C272 O273 1.224 . S
C272 O291 1.247 . S
O273 C272 1.224 . S
N274 Co264 2.128 . S
N274 C275 1.355 . S
N274 C277 1.311 . S
C275 N274 1.355 . S
C275 C276 1.363 . S
C275 H287 0.929 . S
C276 C275 1.363 . S
C276 N278 1.375 . S
C276 H294 0.931 . S
C277 N274 1.311 . S
C277 N278 1.347 . S
C277 H288 0.929 . S
N278 C276 1.375 . S
N278 C277 1.347 . S
C279 C282 1.365 . S
C279 N284 1.328 . S
C279 H285 0.929 . S
C280 C281 1.362 . S
C280 C283 1.378 . S
C280 H295 0.929 . S
C281 C280 1.362 . S
C281 C282 1.366 . S
C282 C279 1.365 . S
C282 C281 1.366 . S
C282 H296 0.930 . S
C283 C280 1.378 . S
C283 N284 1.315 . S
C283 H286 0.930 . S
N284 Co264 2.194 . S
N284 C279 1.328 . S
N284 C283 1.315 . S
H285 C279 0.929 . S
H286 C283 0.930 . S
H287 C275 0.929 . S
H288 C277 0.929 . S
O289 Co264 2.351 . S
O289 C292 1.244 . S
O290 Co264 2.155 . S
O290 C292 1.240 . S
O291 Co264 2.096 . S
O291 C272 1.247 . S
C292 O289 1.244 . S
C292 O290 1.240 . S
H293 C267 0.931 . S
H294 C276 0.931 . S
H295 C280 0.929 . S
H296 C282 0.930 . S
Co297 N301 2.148 . S
Co297 N307 2.128 . S
Co297 N317 2.194 . S
Co297 O322 2.351 . S
Co297 O323 2.155 . S
Co297 O324 2.096 . S
C298 N301 1.301 . S
C298 N302 1.328 . S
C298 H303 0.930 . S
C299 C300 1.333 . S
C299 N301 1.317 . S
C299 H304 0.930 . S
C300 C299 1.333 . S
C300 N302 1.350 . S
C300 H326 0.931 . S
N301 Co297 2.148 . S
N301 C298 1.301 . S
N301 C299 1.317 . S
N302 C298 1.328 . S
N302 C300 1.350 . S
H303 C298 0.930 . S
H304 C299 0.930 . S
C305 O306 1.224 . S
C305 O324 1.247 . S
O306 C305 1.224 . S
N307 Co297 2.128 . S
N307 C308 1.355 . S
N307 C310 1.311 . S
C308 N307 1.355 . S
C308 C309 1.363 . S
C308 H320 0.929 . S
C309 C308 1.363 . S
C309 N311 1.375 . S
C309 H327 0.931 . S
C310 N307 1.311 . S
C310 N311 1.347 . S
C310 H321 0.929 . S
N311 C309 1.375 . S
N311 C310 1.347 . S
C312 C315 1.365 . S
C312 N317 1.328 . S
C312 H318 0.929 . S
C313 C314 1.362 . S
C313 C316 1.378 . S
C313 H328 0.929 . S
C314 C313 1.362 . S
C314 C315 1.366 . S
C315 C312 1.365 . S
C315 C314 1.366 . S
C315 H329 0.930 . S
C316 C313 1.378 . S
C316 N317 1.315 . S
C316 H319 0.930 . S
N317 Co297 2.194 . S
N317 C312 1.328 . S
N317 C316 1.315 . S
H318 C312 0.929 . S
H319 C316 0.930 . S
H320 C308 0.929 . S
H321 C310 0.929 . S
O322 Co297 2.351 . S
O322 C325 1.244 . S
O323 Co297 2.155 . S
O323 C325 1.240 . S
O324 Co297 2.096 . S
O324 C305 1.247 . S
C325 O322 1.244 . S
C325 O323 1.240 . S
H326 C300 0.931 . S
H327 C309 0.931 . S
H328 C313 0.929 . S
H329 C315 0.930 . S
Co330 N334 2.148 . S
Co330 N340 2.128 . S
Co330 N350 2.194 1_556 S
Co330 O355 2.351 . S
Co330 O356 2.155 . S
Co330 O357 2.096 1_556 S
C331 N334 1.301 . S
C331 N335 1.328 . S
C331 H336 0.930 . S
C332 C333 1.333 . S
C332 N334 1.317 1_554 S
C332 H337 0.930 . S
C333 C332 1.333 . S
C333 N335 1.350 1_554 S
C333 H359 0.931 . S
N334 Co330 2.148 . S
N334 C331 1.301 . S
N334 C332 1.317 1_556 S
N335 C331 1.328 . S
N335 C333 1.350 1_556 S
H336 C331 0.930 . S
H337 C332 0.930 . S
C338 O339 1.224 . S
C338 O357 1.247 . S
O339 C338 1.224 . S
N340 Co330 2.128 . S
N340 C341 1.355 . S
N340 C343 1.311 1_556 S
C341 N340 1.355 . S
C341 C342 1.363 . S
C341 H353 0.929 . S
C342 C341 1.363 . S
C342 N344 1.375 1_556 S
C342 H360 0.931 . S
C343 N340 1.311 1_554 S
C343 N344 1.347 . S
C343 H354 0.929 . S
N344 C342 1.375 1_554 S
N344 C343 1.347 . S
C345 C348 1.365 . S
C345 N350 1.328 1_556 S
C345 H351 0.929 . S
C346 C347 1.362 . S
C346 C349 1.378 . S
C346 H361 0.929 . S
C347 C346 1.362 . S
C347 C348 1.366 1_554 S
C348 C345 1.365 . S
C348 C347 1.366 1_556 S
C348 H362 0.930 . S
C349 C346 1.378 . S
C349 N350 1.315 . S
C349 H352 0.930 . S
N350 Co330 2.194 1_554 S
N350 C345 1.328 1_554 S
N350 C349 1.315 . S
H351 C345 0.929 . S
H352 C349 0.930 . S
H353 C341 0.929 . S
H354 C343 0.929 . S
O355 Co330 2.351 . S
O355 C358 1.244 . S
O356 Co330 2.155 . S
O356 C358 1.240 . S
O357 Co330 2.096 1_554 S
O357 C338 1.247 . S
C358 O355 1.244 . S
C358 O356 1.240 . S
H359 C333 0.931 . S
H360 C342 0.931 . S
H361 C346 0.929 . S
H362 C348 0.930 . S
Co363 N367 2.148 . S
Co363 N373 2.128 . S
Co363 N383 2.194 . S
Co363 O388 2.351 . S
Co363 O389 2.155 . S
Co363 O390 2.096 . S
C364 N367 1.301 . S
C364 N368 1.328 . S
C364 H369 0.930 . S
C365 C366 1.333 . S
C365 N367 1.317 . S
C365 H370 0.930 . S
C366 C365 1.333 . S
C366 N368 1.350 . S
C366 H392 0.931 . S
N367 Co363 2.148 . S
N367 C364 1.301 . S
N367 C365 1.317 . S
N368 C364 1.328 . S
N368 C366 1.350 . S
H369 C364 0.930 . S
H370 C365 0.930 . S
C371 O372 1.224 . S
C371 O390 1.247 . S
O372 C371 1.224 . S
N373 Co363 2.128 . S
N373 C374 1.355 . S
N373 C376 1.311 . S
C374 N373 1.355 . S
C374 C375 1.363 . S
C374 H386 0.929 . S
C375 C374 1.363 . S
C375 N377 1.375 . S
C375 H393 0.931 . S
C376 N373 1.311 . S
C376 N377 1.347 . S
C376 H387 0.929 . S
N377 C375 1.375 . S
N377 C376 1.347 . S
C378 C381 1.365 . S
C378 N383 1.328 . S
C378 H384 0.929 . S
C379 C380 1.362 . S
C379 C382 1.378 . S
C379 H394 0.929 . S
C380 C379 1.362 . S
C380 C381 1.366 . S
C381 C378 1.365 . S
C381 C380 1.366 . S
C381 H395 0.930 . S
C382 C379 1.378 . S
C382 N383 1.315 . S
C382 H385 0.930 . S
N383 Co363 2.194 . S
N383 C378 1.328 . S
N383 C382 1.315 . S
H384 C378 0.929 . S
H385 C382 0.930 . S
H386 C374 0.929 . S
H387 C376 0.929 . S
O388 Co363 2.351 . S
O388 C391 1.244 . S
O389 Co363 2.155 . S
O389 C391 1.240 . S
O390 Co363 2.096 . S
O390 C371 1.247 . S
C391 O388 1.244 . S
C391 O389 1.240 . S
H392 C366 0.931 . S
H393 C375 0.931 . S
H394 C379 0.929 . S
H395 C381 0.930 . S
Co396 N400 2.148 . S
Co396 N406 2.128 . S
Co396 N416 2.194 1_556 S
Co396 O421 2.351 . S
Co396 O422 2.155 . S
Co396 O423 2.096 1_556 S
C397 N400 1.301 . S
C397 N401 1.328 . S
C397 H402 0.930 . S
C398 C399 1.333 . S
C398 N400 1.317 1_554 S
C398 H403 0.930 . S
C399 C398 1.333 . S
C399 N401 1.350 1_554 S
C399 H425 0.931 . S
N400 Co396 2.148 . S
N400 C397 1.301 . S
N400 C398 1.317 1_556 S
N401 C397 1.328 . S
N401 C399 1.350 1_556 S
H402 C397 0.930 . S
H403 C398 0.930 . S
C404 O405 1.224 . S
C404 O423 1.247 . S
O405 C404 1.224 . S
N406 Co396 2.128 . S
N406 C407 1.355 . S
N406 C409 1.311 1_556 S
C407 N406 1.355 . S
C407 C408 1.363 . S
C407 H419 0.929 . S
C408 C407 1.363 . S
C408 N410 1.375 1_556 S
C408 H426 0.931 . S
C409 N406 1.311 1_554 S
C409 N410 1.347 . S
C409 H420 0.929 . S
N410 C408 1.375 1_554 S
N410 C409 1.347 . S
C411 C414 1.365 . S
C411 N416 1.328 1_556 S
C411 H417 0.929 . S
C412 C413 1.362 . S
C412 C415 1.378 . S
C412 H427 0.929 . S
C413 C412 1.362 . S
C413 C414 1.366 1_554 S
C414 C411 1.365 . S
C414 C413 1.366 1_556 S
C414 H428 0.930 . S
C415 C412 1.378 . S
C415 N416 1.315 . S
C415 H418 0.930 . S
N416 Co396 2.194 1_554 S
N416 C411 1.328 1_554 S
N416 C415 1.315 . S
H417 C411 0.929 . S
H418 C415 0.930 . S
H419 C407 0.929 . S
H420 C409 0.929 . S
O421 Co396 2.351 . S
O421 C424 1.244 . S
O422 Co396 2.155 . S
O422 C424 1.240 . S
O423 Co396 2.096 1_554 S
O423 C404 1.247 . S
C424 O421 1.244 . S
C424 O422 1.240 . S
H425 C399 0.931 . S
H426 C408 0.931 . S
H427 C412 0.929 . S
H428 C414 0.930 . S
Co429 N433 2.148 . S
Co429 N439 2.128 . S
Co429 N449 2.194 . S
Co429 O454 2.351 . S
Co429 O455 2.155 . S
Co429 O456 2.096 . S
C430 N433 1.301 . S
C430 N434 1.328 . S
C430 H435 0.930 . S
C431 C432 1.333 . S
C431 N433 1.317 . S
C431 H436 0.930 . S
C432 C431 1.333 . S
C432 N434 1.350 . S
C432 H458 0.931 . S
N433 Co429 2.148 . S
N433 C430 1.301 . S
N433 C431 1.317 . S
N434 C430 1.328 . S
N434 C432 1.350 . S
H435 C430 0.930 . S
H436 C431 0.930 . S
C437 O438 1.224 . S
C437 O456 1.247 . S
O438 C437 1.224 . S
N439 Co429 2.128 . S
N439 C440 1.355 . S
N439 C442 1.311 . S
C440 N439 1.355 . S
C440 C441 1.363 . S
C440 H452 0.929 . S
C441 C440 1.363 . S
C441 N443 1.375 . S
C441 H459 0.931 . S
C442 N439 1.311 . S
C442 N443 1.347 . S
C442 H453 0.929 . S
N443 C441 1.375 . S
N443 C442 1.347 . S
C444 C447 1.365 . S
C444 N449 1.328 . S
C444 H450 0.929 . S
C445 C446 1.362 . S
C445 C448 1.378 . S
C445 H460 0.929 . S
C446 C445 1.362 . S
C446 C447 1.366 . S
C447 C444 1.365 . S
C447 C446 1.366 . S
C447 H461 0.930 . S
C448 C445 1.378 . S
C448 N449 1.315 . S
C448 H451 0.930 . S
N449 Co429 2.194 . S
N449 C444 1.328 . S
N449 C448 1.315 . S
H450 C444 0.929 . S
H451 C448 0.930 . S
H452 C440 0.929 . S
H453 C442 0.929 . S
O454 Co429 2.351 . S
O454 C457 1.244 . S
O455 Co429 2.155 . S
O455 C457 1.240 . S
O456 Co429 2.096 . S
O456 C437 1.247 . S
C457 O454 1.244 . S
C457 O455 1.240 . S
H458 C432 0.931 . S
H459 C441 0.931 . S
H460 C445 0.929 . S
H461 C447 0.930 . S
Co462 N466 2.148 . S
Co462 N472 2.128 . S
Co462 N482 2.194 . S
Co462 O487 2.351 . S
Co462 O488 2.155 . S
Co462 O489 2.096 . S
C463 N466 1.301 . S
C463 N467 1.328 . S
C463 H468 0.930 . S
C464 C465 1.333 . S
C464 N466 1.317 . S
C464 H469 0.930 . S
C465 C464 1.333 . S
C465 N467 1.350 . S
C465 H491 0.931 . S
N466 Co462 2.148 . S
N466 C463 1.301 . S
N466 C464 1.317 . S
N467 C463 1.328 . S
N467 C465 1.350 . S
H468 C463 0.930 . S
H469 C464 0.930 . S
C470 O471 1.224 . S
C470 O489 1.247 . S
O471 C470 1.224 . S
N472 Co462 2.128 . S
N472 C473 1.355 . S
N472 C475 1.311 . S
C473 N472 1.355 . S
C473 C474 1.363 . S
C473 H485 0.929 . S
C474 C473 1.363 . S
C474 N476 1.375 . S
C474 H492 0.931 . S
C475 N472 1.311 . S
C475 N476 1.347 . S
C475 H486 0.929 . S
N476 C474 1.375 . S
N476 C475 1.347 . S
C477 C480 1.365 . S
C477 N482 1.328 . S
C477 H483 0.929 . S
C478 C479 1.362 . S
C478 C481 1.378 . S
C478 H493 0.929 . S
C479 C478 1.362 . S
C479 C480 1.366 . S
C480 C477 1.365 . S
C480 C479 1.366 . S
C480 H494 0.930 . S
C481 C478 1.378 . S
C481 N482 1.315 . S
C481 H484 0.930 . S
N482 Co462 2.194 . S
N482 C477 1.328 . S
N482 C481 1.315 . S
H483 C477 0.929 . S
H484 C481 0.930 . S
H485 C473 0.929 . S
H486 C475 0.929 . S
O487 Co462 2.351 . S
O487 C490 1.244 . S
O488 Co462 2.155 . S
O488 C490 1.240 . S
O489 Co462 2.096 . S
O489 C470 1.247 . S
C490 O487 1.244 . S
C490 O488 1.240 . S
H491 C465 0.931 . S
H492 C474 0.931 . S
H493 C478 0.929 . S
H494 C480 0.930 . S
Co495 N499 2.148 . S
Co495 N505 2.128 . S
Co495 N515 2.194 . S
Co495 O520 2.351 . S
Co495 O521 2.155 . S
Co495 O522 2.096 . S
C496 N499 1.301 . S
C496 N500 1.328 . S
C496 H501 0.930 . S
C497 C498 1.333 . S
C497 N499 1.317 . S
C497 H502 0.930 . S
C498 C497 1.333 . S
C498 N500 1.350 . S
C498 H524 0.931 . S
N499 Co495 2.148 . S
N499 C496 1.301 . S
N499 C497 1.317 . S
N500 C496 1.328 . S
N500 C498 1.350 . S
H501 C496 0.930 . S
H502 C497 0.930 . S
C503 O504 1.224 . S
C503 O522 1.247 . S
O504 C503 1.224 . S
N505 Co495 2.128 . S
N505 C506 1.355 . S
N505 C508 1.311 . S
C506 N505 1.355 . S
C506 C507 1.363 . S
C506 H518 0.929 . S
C507 C506 1.363 . S
C507 N509 1.375 . S
C507 H525 0.931 . S
C508 N505 1.311 . S
C508 N509 1.347 . S
C508 H519 0.929 . S
N509 C507 1.375 . S
N509 C508 1.347 . S
C510 C513 1.365 . S
C510 N515 1.328 . S
C510 H516 0.929 . S
C511 C512 1.362 . S
C511 C514 1.378 . S
C511 H526 0.929 . S
C512 C511 1.362 . S
C512 C513 1.366 . S
C513 C510 1.365 . S
C513 C512 1.366 . S
C513 H527 0.930 . S
C514 C511 1.378 . S
C514 N515 1.315 . S
C514 H517 0.930 . S
N515 Co495 2.194 . S
N515 C510 1.328 . S
N515 C514 1.315 . S
H516 C510 0.929 . S
H517 C514 0.930 . S
H518 C506 0.929 . S
H519 C508 0.929 . S
O520 Co495 2.351 . S
O520 C523 1.244 . S
O521 Co495 2.155 . S
O521 C523 1.240 . S
O522 Co495 2.096 . S
O522 C503 1.247 . S
C523 O520 1.244 . S
C523 O521 1.240 . S
H524 C498 0.931 . S
H525 C507 0.931 . S
H526 C511 0.929 . S
H527 C513 0.930 . S
H528 C536 0.929 . S
H529 C538 0.930 1_545 S
H530 C540 0.930 . S
H531 C543 0.929 . S
H532 C546 0.930 . S
H533 C548 0.960 1_455 S
H534 C548 0.960 . S
H535 C548 0.960 . S
C536 H528 0.929 . S
C536 C537 1.377 . S
C536 C538 1.384 . S
C537 C536 1.377 . S
C537 C543 1.390 . S
C538 H529 0.930 1_565 S
C538 C536 1.384 . S
C538 C539 1.372 . S
C539 C538 1.372 . S
C539 C540 1.400 . S
C539 C544 1.490 . S
C540 H530 0.930 . S
C540 C539 1.400 . S
C540 C543 1.386 . S
H541 C557 0.930 . S
H542 C558 0.883 1_565 S
C543 H531 0.929 . S
C543 C537 1.390 . S
C543 C540 1.386 . S
C544 C539 1.490 . S
C544 C546 1.395 1_565 S
C544 C547 1.403 . S
H545 C551 0.930 1_556 S
C546 H532 0.930 . S
C546 C544 1.395 1_545 S
C546 C549 1.403 1_655 S
C547 C544 1.403 . S
C547 C548 1.524 1_554 S
C547 C551 1.400 1_655 S
C548 H533 0.960 1_655 S
C548 H534 0.960 . S
C548 H535 0.960 . S
C548 C547 1.524 1_556 S
C549 C546 1.403 1_455 S
C549 C550 1.392 . S
C549 C553 1.495 . S
C550 C549 1.392 . S
C550 C551 1.385 1_545 S
C550 C552 1.478 . S
C551 H545 0.930 1_554 S
C551 C547 1.400 1_455 S
C551 C550 1.385 1_565 S
C552 C550 1.478 . S
C552 C554 1.381 . S
C552 C558 1.383 . S
C553 C549 1.495 . S
C553 H559 0.959 1_455 S
C553 H560 0.961 . S
C553 H561 0.960 . S
C554 C552 1.381 . S
C554 C555 1.394 . S
C554 H562 0.930 . S
C555 C554 1.394 . S
C555 C556 1.383 . S
C555 H563 0.929 . S
C556 C555 1.383 . S
C556 C557 1.377 . S
C557 H541 0.930 . S
C557 C556 1.377 . S
C557 C558 1.379 . S
C558 H542 0.883 1_545 S
C558 C552 1.383 . S
C558 C557 1.379 . S
H559 C553 0.959 1_655 S
H560 C553 0.961 . S
H561 C553 0.960 . S
H562 C554 0.930 . S
H563 C555 0.929 . S
H564 C572 0.929 . S
H565 C574 0.930 1_455 S
H566 C576 0.930 . S
H567 C579 0.929 . S
H568 C582 0.930 . S
H569 C584 0.960 . S
H570 C584 0.960 . S
H571 C584 0.960 . S
C572 H564 0.929 . S
C572 C573 1.377 . S
C572 C574 1.384 . S
C573 C572 1.377 . S
C573 C579 1.390 . S
C574 H565 0.930 1_655 S
C574 C572 1.384 . S
C574 C575 1.372 . S
C575 C574 1.372 . S
C575 C576 1.400 . S
C575 C580 1.490 . S
C576 H566 0.930 . S
C576 C575 1.400 . S
C576 C579 1.386 . S
H577 C593 0.930 . S
H578 C594 0.931 1_655 S
C579 H567 0.929 . S
C579 C573 1.390 . S
C579 C576 1.386 . S
C580 C575 1.490 . S
C580 C582 1.395 1_655 S
C580 C583 1.403 . S
H581 C587 0.929 . S
C582 H568 0.930 . S
C582 C580 1.395 1_455 S
C582 C585 1.403 . S
C583 C580 1.403 . S
C583 C584 1.524 . S
C583 C587 1.377 1_655 S
C584 H569 0.960 . S
C584 H570 0.960 . S
C584 H571 0.960 . S
C584 C583 1.524 . S
C585 C582 1.403 . S
C585 C586 1.392 . S
C585 C589 1.495 . S
C586 C585 1.392 . S
C586 C587 1.412 . S
C586 C588 1.478 . S
C587 H581 0.929 . S
C587 C583 1.377 1_455 S
C587 C586 1.412 . S
C588 C586 1.478 . S
C588 C590 1.381 . S
C588 C594 1.383 . S
C589 C585 1.495 . S
C589 H595 0.959 . S
C589 H596 0.961 . S
C589 H597 0.960 . S
C590 C588 1.381 . S
C590 C591 1.394 . S
C590 H598 0.930 . S
C591 C590 1.394 . S
C591 C592 1.383 . S
C591 H599 0.929 . S
C592 C591 1.383 . S
C592 C593 1.377 . S
C593 H577 0.930 . S
C593 C592 1.377 . S
C593 C594 1.379 . S
C594 H578 0.931 1_455 S
C594 C588 1.383 . S
C594 C593 1.379 . S
H595 C589 0.959 . S
H596 C589 0.961 . S
H597 C589 0.960 . S
H598 C590 0.930 . S
H599 C591 0.929 . S
H600 C608 0.929 . S
H601 C610 0.930 . S
H602 C612 0.930 . S
H603 C615 0.929 . S
H604 C618 0.930 . S
H605 C620 0.960 . S
H606 C620 0.960 . S
H607 C620 0.960 . S
C608 H600 0.929 . S
C608 C609 1.377 . S
C608 C610 1.384 . S
C609 C608 1.377 . S
C609 C615 1.390 . S
C610 H601 0.930 . S
C610 C608 1.384 . S
C610 C611 1.372 . S
C611 C610 1.372 . S
C611 C612 1.400 . S
C611 C616 1.490 . S
C612 H602 0.930 . S
C612 C611 1.400 . S
C612 C615 1.386 . S
H613 C629 0.930 . S
H614 C630 0.931 . S
C615 H603 0.929 . S
C615 C609 1.390 . S
C615 C612 1.386 . S
C616 C611 1.490 . S
C616 C618 1.395 . S
C616 C619 1.403 . S
H617 C623 0.930 . S
C618 H604 0.930 . S
C618 C616 1.395 . S
C618 C621 1.403 . S
C619 C616 1.403 . S
C619 C620 1.524 . S
C619 C623 1.400 . S
C620 H605 0.960 . S
C620 H606 0.960 . S
C620 H607 0.960 . S
C620 C619 1.524 . S
C621 C618 1.403 . S
C621 C622 1.392 . S
C621 C625 1.495 . S
C622 C621 1.392 . S
C622 C623 1.385 . S
C622 C624 1.478 . S
C623 H617 0.930 . S
C623 C619 1.400 . S
C623 C622 1.385 . S
C624 C622 1.478 . S
C624 C626 1.381 . S
C624 C630 1.383 . S
C625 C621 1.495 . S
C625 H631 0.959 . S
C625 H632 0.961 . S
C625 H633 0.960 . S
C626 C624 1.381 . S
C626 C627 1.394 . S
C626 H634 0.930 . S
C627 C626 1.394 . S
C627 C628 1.383 . S
C627 H635 0.929 . S
C628 C627 1.383 . S
C628 C629 1.377 . S
C629 H613 0.930 . S
C629 C628 1.377 . S
C629 C630 1.379 . S
C630 H614 0.931 . S
C630 C624 1.383 . S
C630 C629 1.379 . S
H631 C625 0.959 . S
H632 C625 0.961 . S
H633 C625 0.960 . S
H634 C626 0.930 . S
H635 C627 0.929 . S
H636 C644 0.929 . S
H637 C646 0.930 . S
H638 C648 0.930 . S
H639 C651 0.929 . S
H640 C654 0.939 . S
H641 C656 0.960 . S
H642 C656 0.960 . S
H643 C656 0.960 . S
C644 H636 0.929 . S
C644 C645 1.377 . S
C644 C646 1.384 . S
C645 C644 1.377 . S
C645 C651 1.390 . S
C646 H637 0.930 . S
C646 C644 1.384 . S
C646 C647 1.372 . S
C647 C646 1.372 . S
C647 C648 1.400 . S
C647 C652 1.490 . S
C648 H638 0.930 . S
C648 C647 1.400 . S
C648 C651 1.386 . S
H649 C665 0.930 . S
H650 C666 0.931 . S
C651 H639 0.929 . S
C651 C645 1.390 . S
C651 C648 1.386 . S
C652 C647 1.490 . S
C652 C654 1.440 . S
C652 C655 1.403 . S
H653 C659 0.930 . S
C654 H640 0.939 . S
C654 C652 1.440 . S
C654 C657 1.351 1_565 S
C655 C652 1.403 . S
C655 C656 1.524 . S
C655 C659 1.400 1_565 S
C656 H641 0.960 . S
C656 H642 0.960 . S
C656 H643 0.960 . S
C656 C655 1.524 . S
C657 C654 1.351 1_545 S
C657 C658 1.392 . S
C657 C661 1.495 . S
C658 C657 1.392 . S
C658 C659 1.385 . S
C658 C660 1.478 . S
C659 H653 0.930 . S
C659 C655 1.400 1_545 S
C659 C658 1.385 . S
C660 C658 1.478 . S
C660 C662 1.381 . S
C660 C666 1.383 . S
C661 C657 1.495 . S
C661 H667 0.959 . S
C661 H668 0.961 . S
C661 H669 0.960 . S
C662 C660 1.381 . S
C662 C663 1.394 . S
C662 H670 0.930 . S
C663 C662 1.394 . S
C663 C664 1.383 . S
C663 H671 0.929 . S
C664 C663 1.383 . S
C664 C665 1.377 . S
C665 H649 0.930 . S
C665 C664 1.377 . S
C665 C666 1.379 . S
C666 H650 0.931 . S
C666 C660 1.383 . S
C666 C665 1.379 . S
H667 C661 0.959 . S
H668 C661 0.961 . S
H669 C661 0.960 . S
H670 C662 0.930 . S
H671 C663 0.929 . S
H672 C680 0.929 . S
H673 C682 0.930 . S
H674 C684 0.930 . S
H675 C687 0.929 . S
H676 C690 0.930 . S
H677 C692 0.960 1_655 S
H678 C692 0.960 . S
H679 C692 0.960 . S
C680 H672 0.929 . S
C680 C681 1.377 . S
C680 C682 1.384 . S
C681 C680 1.377 . S
C681 C687 1.390 . S
C682 H673 0.930 . S
C682 C680 1.384 . S
C682 C683 1.372 . S
C683 C682 1.372 . S
C683 C684 1.400 . S
C683 C688 1.490 . S
C684 H674 0.930 . S
C684 C683 1.400 . S
C684 C687 1.386 . S
H685 C701 0.930 . S
H686 C702 0.931 . S
C687 H675 0.929 . S
C687 C681 1.390 . S
C687 C684 1.386 . S
C688 C683 1.490 . S
C688 C690 1.377 1_565 S
C688 C691 1.403 . S
H689 C695 0.930 . S
C690 H676 0.930 . S
C690 C688 1.377 1_545 S
C690 C693 1.421 1_455 S
C691 C688 1.403 . S
C691 C692 1.524 . S
C691 C695 1.399 1_455 S
C692 H677 0.960 1_455 S
C692 H678 0.960 . S
C692 H679 0.960 . S
C692 C691 1.524 . S
C693 C690 1.421 1_655 S
C693 C694 1.392 . S
C693 C697 1.495 . S
C694 C693 1.392 . S
C694 C695 1.386 1_545 S
C694 C696 1.478 . S
C695 H689 0.930 . S
C695 C691 1.399 1_655 S
C695 C694 1.386 1_565 S
C696 C694 1.478 . S
C696 C698 1.381 . S
C696 C702 1.383 . S
C697 C693 1.495 . S
C697 H703 0.959 1_655 S
C697 H704 0.961 . S
C697 H705 0.960 . S
C698 C696 1.381 . S
C698 C699 1.394 . S
C698 H706 0.930 . S
C699 C698 1.394 . S
C699 C700 1.383 . S
C699 H707 0.929 . S
C700 C699 1.383 . S
C700 C701 1.377 . S
C701 H685 0.930 . S
C701 C700 1.377 . S
C701 C702 1.379 . S
C702 H686 0.931 . S
C702 C696 1.383 . S
C702 C701 1.379 . S
H703 C697 0.959 1_455 S
H704 C697 0.961 . S
H705 C697 0.960 . S
H706 C698 0.930 . S
H707 C699 0.929 . S
H708 C716 0.929 . S
H709 C718 0.930 . S
H710 C720 0.930 . S
H711 C723 0.929 . S
H712 C726 0.930 . S
H713 C728 0.960 . S
H714 C728 0.960 . S
H715 C728 0.960 . S
C716 H708 0.929 . S
C716 C717 1.377 . S
C716 C718 1.384 . S
C717 C716 1.377 . S
C717 C723 1.390 . S
C718 H709 0.930 . S
C718 C716 1.384 . S
C718 C719 1.372 . S
C719 C718 1.372 . S
C719 C720 1.400 . S
C719 C724 1.490 . S
C720 H710 0.930 . S
C720 C719 1.400 . S
C720 C723 1.386 . S
H721 C737 0.930 . S
H722 C738 0.931 . S
C723 H711 0.929 . S
C723 C717 1.390 . S
C723 C720 1.386 . S
C724 C719 1.490 . S
C724 C726 1.395 . S
C724 C727 1.403 1_655 S
H725 C731 0.930 . S
C726 H712 0.930 . S
C726 C724 1.395 . S
C726 C729 1.403 . S
C727 C724 1.403 1_455 S
C727 C728 1.524 . S
C727 C731 1.400 . S
C728 H713 0.960 . S
C728 H714 0.960 . S
C728 H715 0.960 . S
C728 C727 1.524 . S
C729 C726 1.403 . S
C729 C730 1.392 1_655 S
C729 C733 1.495 . S
C730 C729 1.392 1_455 S
C730 C731 1.385 . S
C730 C732 1.478 . S
C731 H725 0.930 . S
C731 C727 1.400 . S
C731 C730 1.385 . S
C732 C730 1.478 . S
C732 C734 1.381 . S
C732 C738 1.383 . S
C733 C729 1.495 . S
C733 H739 0.959 . S
C733 H740 0.961 . S
C733 H741 0.960 . S
C734 C732 1.381 . S
C734 C735 1.394 . S
C734 H742 0.930 . S
C735 C734 1.394 . S
C735 C736 1.383 . S
C735 H743 0.929 . S
C736 C735 1.383 . S
C736 C737 1.377 . S
C737 H721 0.930 . S
C737 C736 1.377 . S
C737 C738 1.379 . S
C738 H722 0.931 . S
C738 C732 1.383 . S
C738 C737 1.379 . S
H739 C733 0.959 . S
H740 C733 0.961 . S
H741 C733 0.960 . S
H742 C734 0.930 . S
H743 C735 0.929 . S
H744 C752 0.929 . S
H745 C754 0.930 . S
H746 C756 0.930 . S
H747 C759 0.929 . S
H748 C762 0.930 . S
H749 C764 0.960 . S
H750 C764 0.960 . S
H751 C764 0.960 . S
C752 H744 0.929 . S
C752 C753 1.377 1_556 S
C752 C754 1.384 . S
C753 C752 1.377 1_554 S
C753 C759 1.390 . S
C754 H745 0.930 . S
C754 C752 1.384 . S
C754 C755 1.372 1_556 S
C755 C754 1.372 1_554 S
C755 C756 1.400 . S
C755 C760 1.490 . S
C756 H746 0.930 . S
C756 C755 1.400 . S
C756 C759 1.386 . S
H757 C773 0.930 . S
H758 C774 0.931 . S
C759 H747 0.929 . S
C759 C753 1.390 . S
C759 C756 1.386 . S
C760 C755 1.490 . S
C760 C762 1.395 . S
C760 C763 1.403 . S
H761 C767 0.930 . S
C762 H748 0.930 . S
C762 C760 1.395 . S
C762 C765 1.403 . S
C763 C760 1.403 . S
C763 C764 1.524 . S
C763 C767 1.400 . S
C764 H749 0.960 . S
C764 H750 0.960 . S
C764 H751 0.960 . S
C764 C763 1.524 . S
C765 C762 1.403 . S
C765 C766 1.392 . S
C765 C769 1.495 . S
C766 C765 1.392 . S
C766 C767 1.385 . S
C766 C768 1.478 . S
C767 H761 0.930 . S
C767 C763 1.400 . S
C767 C766 1.385 . S
C768 C766 1.478 . S
C768 C770 1.381 1_554 S
C768 C774 1.383 . S
C769 C765 1.495 . S
C769 H775 0.959 . S
C769 H776 0.961 . S
C769 H777 0.960 1_554 S
C770 C768 1.381 1_556 S
C770 C771 1.394 . S
C770 H778 0.930 . S
C771 C770 1.394 . S
C771 C772 1.383 1_556 S
C771 H779 0.929 . S
C772 C771 1.383 1_554 S
C772 C773 1.377 . S
C773 H757 0.930 . S
C773 C772 1.377 . S
C773 C774 1.379 . S
C774 H758 0.931 . S
C774 C768 1.383 . S
C774 C773 1.379 . S
H775 C769 0.959 . S
H776 C769 0.961 . S
H777 C769 0.960 1_556 S
H778 C770 0.930 . S
H779 C771 0.929 . S
H780 C788 0.929 . S
H781 C790 0.930 . S
H782 C792 0.930 . S
H783 C795 0.929 . S
H784 C798 0.930 . S
H785 C800 0.960 1_545 S
H786 C800 0.960 . S
H787 C800 0.960 . S
C788 H780 0.929 . S
C788 C789 1.377 . S
C788 C790 1.384 . S
C789 C788 1.377 . S
C789 C795 1.390 . S
C790 H781 0.930 . S
C790 C788 1.384 . S
C790 C791 1.372 . S
C791 C790 1.372 . S
C791 C792 1.400 . S
C791 C796 1.490 . S
C792 H782 0.930 . S
C792 C791 1.400 . S
C792 C795 1.386 . S
H793 C809 0.930 . S
H794 C810 0.931 . S
C795 H783 0.929 . S
C795 C789 1.390 . S
C795 C792 1.386 . S
C796 C791 1.490 . S
C796 C798 1.395 . S
C796 C799 1.403 . S
H797 C803 0.930 . S
C798 H784 0.930 . S
C798 C796 1.395 . S
C798 C801 1.403 1_565 S
C799 C796 1.403 . S
C799 C800 1.524 . S
C799 C803 1.400 1_565 S
C800 H785 0.960 1_565 S
C800 H786 0.960 . S
C800 H787 0.960 . S
C800 C799 1.524 . S
C801 C798 1.403 1_545 S
C801 C802 1.392 . S
C801 C805 1.495 . S
C802 C801 1.392 . S
C802 C803 1.385 . S
C802 C804 1.478 . S
C803 H797 0.930 . S
C803 C799 1.400 1_545 S
C803 C802 1.385 . S
C804 C802 1.478 . S
C804 C806 1.381 . S
C804 C810 1.383 . S
C805 C801 1.495 . S
C805 H811 0.959 1_545 S
C805 H812 0.961 . S
C805 H813 0.960 . S
C806 C804 1.381 . S
C806 C807 1.394 . S
C806 H814 0.930 . S
C807 C806 1.394 . S
C807 C808 1.383 . S
C807 H815 0.929 . S
C808 C807 1.383 . S
C808 C809 1.377 . S
C809 H793 0.930 . S
C809 C808 1.377 . S
C809 C810 1.379 . S
C810 H794 0.931 . S
C810 C804 1.383 . S
C810 C809 1.379 . S
H811 C805 0.959 1_565 S
H812 C805 0.961 . S
H813 C805 0.960 . S
H814 C806 0.930 . S
H815 C807 0.929 . S
H816 C824 0.929 . S
H817 C826 0.930 . S
H818 C828 0.930 . S
H819 C831 0.929 . S
H820 C834 0.930 . S
H821 C836 0.960 . S
H822 C836 0.960 . S
H823 C836 0.960 . S
C824 H816 0.929 . S
C824 C825 1.377 . S
C824 C826 1.384 . S
C825 C824 1.377 . S
C825 C831 1.390 . S
C826 H817 0.930 . S
C826 C824 1.384 . S
C826 C827 1.372 . S
C827 C826 1.372 . S
C827 C828 1.400 . S
C827 C832 1.490 . S
C828 H818 0.930 . S
C828 C827 1.400 . S
C828 C831 1.386 . S
H829 C845 0.930 . S
H830 C846 0.931 1_565 S
C831 H819 0.929 . S
C831 C825 1.390 . S
C831 C828 1.386 . S
C832 C827 1.490 . S
C832 C834 1.395 . S
C832 C835 1.403 . S
H833 C839 0.930 . S
C834 H820 0.930 . S
C834 C832 1.395 . S
C834 C837 1.403 1_565 S
C835 C832 1.403 . S
C835 C836 1.524 . S
C835 C839 1.400 . S
C836 H821 0.960 . S
C836 H822 0.960 . S
C836 H823 0.960 . S
C836 C835 1.524 . S
C837 C834 1.403 1_545 S
C837 C838 1.392 . S
C837 C841 1.495 . S
C838 C837 1.392 . S
C838 C839 1.385 1_545 S
C838 C840 1.478 . S
C839 H833 0.930 . S
C839 C835 1.400 . S
C839 C838 1.385 1_565 S
C840 C838 1.478 . S
C840 C842 1.381 . S
C840 C846 1.383 . S
C841 C837 1.495 . S
C841 H847 0.959 . S
C841 H848 0.961 . S
C841 H849 0.960 . S
C842 C840 1.381 . S
C842 C843 1.394 . S
C842 H850 0.930 . S
C843 C842 1.394 . S
C843 C844 1.383 . S
C843 H851 0.929 . S
C844 C843 1.383 . S
C844 C845 1.377 . S
C845 H829 0.930 . S
C845 C844 1.377 . S
C845 C846 1.379 . S
C846 H830 0.931 1_545 S
C846 C840 1.383 . S
C846 C845 1.379 . S
H847 C841 0.959 . S
H848 C841 0.961 . S
H849 C841 0.960 . S
H850 C842 0.930 . S
H851 C843 0.929 . S
H852 C860 0.929 . S
H853 C862 0.930 . S
H854 C864 0.930 . S
H855 C867 0.929 . S
H856 C870 0.930 . S
H857 C872 0.960 . S
H858 C872 0.960 . S
H859 C872 0.960 . S
C860 H852 0.929 . S
C860 C861 1.377 . S
C860 C862 1.384 . S
C861 C860 1.377 . S
C861 C867 1.390 . S
C862 H853 0.930 . S
C862 C860 1.384 . S
C862 C863 1.372 . S
C863 C862 1.372 . S
C863 C864 1.400 . S
C863 C868 1.490 . S
C864 H854 0.930 . S
C864 C863 1.400 . S
C864 C867 1.386 . S
H865 C881 0.930 . S
H866 C882 0.931 1_455 S
C867 H855 0.929 . S
C867 C861 1.390 . S
C867 C864 1.386 . S
C868 C863 1.490 . S
C868 C870 1.395 . S
C868 C871 1.403 . S
H869 C875 0.931 . S
C870 H856 0.930 . S
C870 C868 1.395 . S
C870 C873 1.403 1_455 S
C871 C868 1.403 . S
C871 C872 1.524 . S
C871 C875 1.400 . S
C872 H857 0.960 . S
C872 H858 0.960 . S
C872 H859 0.960 . S
C872 C871 1.524 . S
C873 C870 1.403 1_655 S
C873 C874 1.392 . S
C873 C877 1.495 . S
C874 C873 1.392 . S
C874 C875 1.385 1_655 S
C874 C876 1.478 . S
C875 H869 0.931 . S
C875 C871 1.400 . S
C875 C874 1.385 1_455 S
C876 C874 1.478 . S
C876 C878 1.381 . S
C876 C882 1.383 . S
C877 C873 1.495 . S
C877 H883 0.959 . S
C877 H884 0.961 . S
C877 H885 0.960 . S
C878 C876 1.381 . S
C878 C879 1.394 . S
C878 H886 0.930 . S
C879 C878 1.394 . S
C879 C880 1.383 . S
C879 H887 0.929 . S
C880 C879 1.383 . S
C880 C881 1.377 . S
C881 H865 0.930 . S
C881 C880 1.377 . S
C881 C882 1.379 . S
C882 H866 0.931 1_655 S
C882 C876 1.383 . S
C882 C881 1.379 . S
H883 C877 0.959 . S
H884 C877 0.961 . S
H885 C877 0.960 . S
H886 C878 0.930 . S
H887 C879 0.929 . S
H888 C896 0.929 . S
H889 C898 0.930 . S
H890 C900 0.930 . S
H891 C903 0.929 . S
H892 C906 0.930 . S
H893 C908 0.960 . S
H894 C908 0.960 . S
H895 C908 0.960 . S
C896 H888 0.929 . S
C896 C897 1.377 . S
C896 C898 1.384 . S
C897 C896 1.377 . S
C897 C903 1.390 . S
C898 H889 0.930 . S
C898 C896 1.384 . S
C898 C899 1.372 . S
C899 C898 1.372 . S
C899 C900 1.400 . S
C899 C904 1.490 . S
C900 H890 0.930 . S
C900 C899 1.400 . S
C900 C903 1.386 . S
H901 C917 0.930 . S
H902 C918 0.931 . S
C903 H891 0.929 . S
C903 C897 1.390 . S
C903 C900 1.386 . S
C904 C899 1.490 . S
C904 C906 1.395 . S
C904 C907 1.403 . S
H905 C911 0.930 . S
C906 H892 0.930 . S
C906 C904 1.395 . S
C906 C909 1.403 . S
C907 C904 1.403 . S
C907 C908 1.524 . S
C907 C911 1.400 . S
C908 H893 0.960 . S
C908 H894 0.960 . S
C908 H895 0.960 . S
C908 C907 1.524 . S
C909 C906 1.403 . S
C909 C910 1.392 . S
C909 C913 1.495 . S
C910 C909 1.392 . S
C910 C911 1.385 . S
C910 C912 1.478 . S
C911 H905 0.930 . S
C911 C907 1.400 . S
C911 C910 1.385 . S
C912 C910 1.478 . S
C912 C914 1.381 . S
C912 C918 1.383 . S
C913 C909 1.495 . S
C913 H919 0.959 . S
C913 H920 0.961 . S
C913 H921 0.960 . S
C914 C912 1.381 . S
C914 C915 1.394 . S
C914 H922 0.930 . S
C915 C914 1.394 . S
C915 C916 1.383 . S
C915 H923 0.929 . S
C916 C915 1.383 . S
C916 C917 1.377 . S
C917 H901 0.930 . S
C917 C916 1.377 . S
C917 C918 1.379 . S
C918 H902 0.931 . S
C918 C912 1.383 . S
C918 C917 1.379 . S
H919 C913 0.959 . S
H920 C913 0.961 . S
H921 C913 0.960 . S
H922 C914 0.930 . S
H923 C915 0.929 . S
H924 C932 0.929 . S
H925 C934 0.930 . S
H926 C936 0.930 . S
H927 C939 0.929 . S
H928 C942 0.930 . S
H929 C944 0.960 . S
H930 C944 0.960 . S
H931 C944 0.960 . S
C932 H924 0.929 . S
C932 C933 1.377 . S
C932 C934 1.384 . S
C933 C932 1.377 . S
C933 C939 1.390 . S
C934 H925 0.930 . S
C934 C932 1.384 . S
C934 C935 1.372 . S
C935 C934 1.372 . S
C935 C936 1.400 . S
C935 C940 1.490 . S
C936 H926 0.930 . S
C936 C935 1.400 . S
C936 C939 1.386 . S
H937 C953 0.930 . S
H938 C954 0.931 . S
C939 H927 0.929 . S
C939 C933 1.390 . S
C939 C936 1.386 . S
C940 C935 1.490 . S
C940 C942 1.395 1_554 S
C940 C943 1.403 . S
H941 C947 0.930 . S
C942 H928 0.930 . S
C942 C940 1.395 1_556 S
C942 C945 1.403 . S
C943 C940 1.403 . S
C943 C944 1.524 . S
C943 C947 1.400 1_554 S
C944 H929 0.960 . S
C944 H930 0.960 . S
C944 H931 0.960 . S
C944 C943 1.524 . S
C945 C942 1.403 . S
C945 C946 1.392 . S
C945 C949 1.495 . S
C946 C945 1.392 . S
C946 C947 1.385 . S
C946 C948 1.478 . S
C947 H941 0.930 . S
C947 C943 1.400 1_556 S
C947 C946 1.385 . S
C948 C946 1.478 . S
C948 C950 1.381 . S
C948 C954 1.383 . S
C949 C945 1.495 . S
C949 H955 0.959 . S
C949 H956 0.961 . S
C949 H957 0.960 . S
C950 C948 1.381 . S
C950 C951 1.394 . S
C950 H958 0.930 . S
C951 C950 1.394 . S
C951 C952 1.383 . S
C951 H959 0.929 . S
C952 C951 1.383 . S
C952 C953 1.377 . S
C953 H937 0.930 . S
C953 C952 1.377 . S
C953 C954 1.379 . S
C954 H938 0.931 . S
C954 C948 1.383 . S
C954 C953 1.379 . S
H955 C949 0.959 . S
H956 C949 0.961 . S
H957 C949 0.960 . S
H958 C950 0.930 . S
H959 C951 0.929 . S
H960 C968 0.929 . S
H961 C970 0.930 . S
H962 C972 0.930 1_565 S
H963 C975 0.929 . S
H964 C978 0.930 . S
H965 C980 0.960 1_565 S
H966 C980 0.960 . S
H967 C980 0.960 1_565 S
C968 H960 0.929 . S
C968 C969 1.377 . S
C968 C970 1.384 . S
C969 C968 1.377 . S
C969 C975 1.390 . S
C970 H961 0.930 . S
C970 C968 1.384 . S
C970 C971 1.372 . S
C971 C970 1.372 . S
C971 C972 1.400 . S
C971 C976 1.490 . S
C972 H962 0.930 1_545 S
C972 C971 1.400 . S
C972 C975 1.386 . S
H973 C989 0.930 . S
H974 C990 0.931 . S
C975 H963 0.929 . S
C975 C969 1.390 . S
C975 C972 1.386 . S
C976 C971 1.490 . S
C976 C978 1.395 . S
C976 C979 1.403 1_545 S
H977 C983 0.930 . S
C978 H964 0.930 . S
C978 C976 1.395 . S
C978 C981 1.403 1_545 S
C979 C976 1.403 1_565 S
C979 C980 1.524 1_565 S
C979 C983 1.400 . S
C980 H965 0.960 1_545 S
C980 H966 0.960 . S
C980 H967 0.960 1_545 S
C980 C979 1.524 1_545 S
C981 C978 1.403 1_565 S
C981 C982 1.392 . S
C981 C985 1.495 . S
C982 C981 1.392 . S
C982 C983 1.385 . S
C982 C984 1.478 . S
C983 H977 0.930 . S
C983 C979 1.400 . S
C983 C982 1.385 . S
C984 C982 1.478 . S
C984 C986 1.381 . S
C984 C990 1.383 . S
C985 C981 1.495 . S
C985 H991 0.959 . S
C985 H992 0.961 . S
C985 H993 0.960 . S
C986 C984 1.381 . S
C986 C987 1.394 . S
C986 H994 0.930 . S
C987 C986 1.394 . S
C987 C988 1.383 . S
C987 H995 0.929 . S
C988 C987 1.383 . S
C988 C989 1.377 . S
C989 H973 0.930 . S
C989 C988 1.377 . S
C989 C990 1.379 . S
C990 H974 0.931 . S
C990 C984 1.383 . S
C990 C989 1.379 . S
H991 C985 0.959 . S
H992 C985 0.961 . S
H993 C985 0.960 . S
H994 C986 0.930 . S
H995 C987 0.929 . S
H996 C1004 0.929 . S
H997 C1006 0.930 1_455 S
H998 C1008 0.930 . S
H999 C1011 0.929 . S
H1000 C1014 0.930 . S
H1001 C1016 0.960 1_554 S
H1002 C1016 0.960 . S
H1003 C1016 0.960 . S
C1004 H996 0.929 . S
C1004 C1005 1.377 . S
C1004 C1006 1.384 . S
C1005 C1004 1.377 . S
C1005 C1011 1.390 . S
C1006 H997 0.930 1_655 S
C1006 C1004 1.384 . S
C1006 C1007 1.372 . S
C1007 C1006 1.372 . S
C1007 C1008 1.400 . S
C1007 C1012 1.490 . S
C1008 H998 0.930 . S
C1008 C1007 1.400 . S
C1008 C1011 1.386 . S
H1009 C1025 0.930 . S
H1010 C1026 0.931 . S
C1011 H999 0.929 . S
C1011 C1005 1.390 . S
C1011 C1008 1.386 . S
C1012 C1007 1.490 . S
C1012 C1014 1.395 1_655 S
C1012 C1015 1.403 . S
H1013 C1019 0.924 1_655 S
C1014 H1000 0.930 . S
C1014 C1012 1.395 1_455 S
C1014 C1017 1.403 . S
C1015 C1012 1.403 . S
C1015 C1016 1.524 . S
C1015 C1019 1.400 1_656 S
C1016 H1001 0.960 1_556 S
C1016 H1002 0.960 . S
C1016 H1003 0.960 . S
C1016 C1015 1.524 . S
C1017 C1014 1.403 . S
C1017 C1018 1.392 1_556 S
C1017 C1021 1.495 . S
C1018 C1017 1.392 1_554 S
C1018 C1019 1.385 . S
C1018 C1020 1.478 . S
C1019 H1013 0.924 1_455 S
C1019 C1015 1.400 1_454 S
C1019 C1018 1.385 . S
C1020 C1018 1.478 . S
C1020 C1022 1.381 . S
C1020 C1026 1.383 . S
C1021 C1017 1.495 . S
C1021 H1027 0.959 . S
C1021 H1028 0.961 1_556 S
C1021 H1029 0.960 . S
C1022 C1020 1.381 . S
C1022 C1023 1.394 . S
C1022 H1030 0.930 . S
C1023 C1022 1.394 . S
C1023 C1024 1.383 . S
C1023 H1031 0.929 . S
C1024 C1023 1.383 . S
C1024 C1025 1.377 . S
C1025 H1009 0.930 . S
C1025 C1024 1.377 . S
C1025 C1026 1.379 . S
C1026 H1010 0.931 . S
C1026 C1020 1.383 . S
C1026 C1025 1.379 . S
H1027 C1021 0.959 . S
H1028 C1021 0.961 1_554 S
H1029 C1021 0.960 . S
H1030 C1022 0.930 . S
H1031 C1023 0.929 . S
H1032 C1040 0.929 . S
H1033 C1042 0.930 . S
H1034 C1044 0.930 . S
H1035 C1047 0.929 . S
H1036 C1050 0.930 . S
H1037 C1052 0.960 . S
H1038 C1052 0.960 . S
H1039 C1052 0.960 . S
C1040 H1032 0.929 . S
C1040 C1041 1.377 . S
C1040 C1042 1.384 . S
C1041 C1040 1.377 . S
C1041 C1047 1.390 . S
C1042 H1033 0.930 . S
C1042 C1040 1.384 . S
C1042 C1043 1.372 . S
C1043 C1042 1.372 . S
C1043 C1044 1.400 . S
C1043 C1048 1.490 . S
C1044 H1034 0.930 . S
C1044 C1043 1.400 . S
C1044 C1047 1.386 . S
H1045 C1061 0.930 . S
H1046 C1062 0.931 . S
C1047 H1035 0.929 . S
C1047 C1041 1.390 . S
C1047 C1044 1.386 . S
C1048 C1043 1.490 . S
C1048 C1050 1.395 . S
C1048 C1051 1.403 . S
H1049 C1055 0.930 . S
C1050 H1036 0.930 . S
C1050 C1048 1.395 . S
C1050 C1053 1.403 . S
C1051 C1048 1.403 . S
C1051 C1052 1.524 . S
C1051 C1055 1.400 . S
C1052 H1037 0.960 . S
C1052 H1038 0.960 . S
C1052 H1039 0.960 . S
C1052 C1051 1.524 . S
C1053 C1050 1.403 . S
C1053 C1054 1.392 . S
C1053 C1057 1.495 . S
C1054 C1053 1.392 . S
C1054 C1055 1.385 . S
C1054 C1056 1.478 . S
C1055 H1049 0.930 . S
C1055 C1051 1.400 . S
C1055 C1054 1.385 . S
C1056 C1054 1.478 . S
C1056 C1058 1.381 . S
C1056 C1062 1.383 . S
C1057 C1053 1.495 . S
C1057 H1063 0.959 . S
C1057 H1064 0.961 . S
C1057 H1065 0.960 . S
C1058 C1056 1.381 . S
C1058 C1059 1.394 . S
C1058 H1066 0.930 . S
C1059 C1058 1.394 . S
C1059 C1060 1.383 . S
C1059 H1067 0.929 . S
C1060 C1059 1.383 . S
C1060 C1061 1.377 . S
C1061 H1045 0.930 . S
C1061 C1060 1.377 . S
C1061 C1062 1.379 . S
C1062 H1046 0.931 . S
C1062 C1056 1.383 . S
C1062 C1061 1.379 . S
H1063 C1057 0.959 . S
H1064 C1057 0.961 . S
H1065 C1057 0.960 . S
H1066 C1058 0.930 . S
H1067 C1059 0.929 . S
H1068 C1076 0.929 . S
H1069 C1078 0.930 . S
H1070 C1080 0.930 . S
H1071 C1083 0.929 . S
H1072 C1086 0.930 . S
H1073 C1088 0.960 . S
H1074 C1088 0.960 . S
H1075 C1088 0.960 . S
C1076 H1068 0.929 . S
C1076 C1077 1.377 . S
C1076 C1078 1.384 . S
C1077 C1076 1.377 . S
C1077 C1083 1.390 . S
C1078 H1069 0.930 . S
C1078 C1076 1.384 . S
C1078 C1079 1.372 . S
C1079 C1078 1.372 . S
C1079 C1080 1.400 . S
C1079 C1084 1.490 . S
C1080 H1070 0.930 . S
C1080 C1079 1.400 . S
C1080 C1083 1.386 . S
H1081 C1097 0.930 . S
H1082 C1098 0.931 . S
C1083 H1071 0.929 . S
C1083 C1077 1.390 . S
C1083 C1080 1.386 . S
C1084 C1079 1.490 . S
C1084 C1086 1.395 . S
C1084 C1087 1.403 . S
H1085 C1091 0.930 . S
C1086 H1072 0.930 . S
C1086 C1084 1.395 . S
C1086 C1089 1.403 . S
C1087 C1084 1.403 . S
C1087 C1088 1.524 . S
C1087 C1091 1.400 . S
C1088 H1073 0.960 . S
C1088 H1074 0.960 . S
C1088 H1075 0.960 . S
C1088 C1087 1.524 . S
C1089 C1086 1.403 . S
C1089 C1090 1.392 . S
C1089 C1093 1.495 . S
C1090 C1089 1.392 . S
C1090 C1091 1.385 . S
C1090 C1092 1.478 . S
C1091 H1085 0.930 . S
C1091 C1087 1.400 . S
C1091 C1090 1.385 . S
C1092 C1090 1.478 . S
C1092 C1094 1.381 . S
C1092 C1098 1.383 . S
C1093 C1089 1.495 . S
C1093 H1099 0.959 . S
C1093 H1100 0.961 . S
C1093 H1101 0.960 . S
C1094 C1092 1.381 . S
C1094 C1095 1.394 . S
C1094 H1102 0.930 . S
C1095 C1094 1.394 . S
C1095 C1096 1.383 . S
C1095 H1103 0.929 . S
C1096 C1095 1.383 . S
C1096 C1097 1.377 . S
C1097 H1081 0.930 . S
C1097 C1096 1.377 . S
C1097 C1098 1.379 . S
C1098 H1082 0.931 . S
C1098 C1092 1.383 . S
C1098 C1097 1.379 . S
H1099 C1093 0.959 . S
H1100 C1093 0.961 . S
H1101 C1093 0.960 . S
H1102 C1094 0.930 . S
H1103 C1095 0.929 . S
H1104 C1112 0.929 . S
H1105 C1114 0.930 . S
H1106 C1116 0.930 . S
H1107 C1119 0.929 . S
H1108 C1122 0.930 . S
H1109 C1124 0.960 . S
H1110 C1124 0.960 . S
H1111 C1124 0.960 . S
C1112 H1104 0.929 . S
C1112 C1113 1.377 . S
C1112 C1114 1.384 . S
C1113 C1112 1.377 . S
C1113 C1119 1.390 . S
C1114 H1105 0.930 . S
C1114 C1112 1.384 . S
C1114 C1115 1.372 . S
C1115 C1114 1.372 . S
C1115 C1116 1.400 . S
C1115 C1120 1.490 . S
C1116 H1106 0.930 . S
C1116 C1115 1.400 . S
C1116 C1119 1.386 . S
H1117 C1133 0.930 . S
H1118 C1134 0.931 . S
C1119 H1107 0.929 . S
C1119 C1113 1.390 . S
C1119 C1116 1.386 . S
C1120 C1115 1.490 . S
C1120 C1122 1.395 . S
C1120 C1123 1.403 . S
H1121 C1127 0.930 . S
C1122 H1108 0.930 . S
C1122 C1120 1.395 . S
C1122 C1125 1.403 . S
C1123 C1120 1.403 . S
C1123 C1124 1.524 . S
C1123 C1127 1.400 . S
C1124 H1109 0.960 . S
C1124 H1110 0.960 . S
C1124 H1111 0.960 . S
C1124 C1123 1.524 . S
C1125 C1122 1.403 . S
C1125 C1126 1.392 . S
C1125 C1129 1.495 . S
C1126 C1125 1.392 . S
C1126 C1127 1.385 . S
C1126 C1128 1.478 . S
C1127 H1121 0.930 . S
C1127 C1123 1.400 . S
C1127 C1126 1.385 . S
C1128 C1126 1.478 . S
C1128 C1130 1.381 . S
C1128 C1134 1.383 . S
C1129 C1125 1.495 . S
C1129 H1135 0.959 . S
C1129 H1136 0.961 . S
C1129 H1137 0.960 . S
C1130 C1128 1.381 . S
C1130 C1131 1.394 . S
C1130 H1138 0.930 . S
C1131 C1130 1.394 . S
C1131 C1132 1.383 . S
C1131 H1139 0.929 . S
C1132 C1131 1.383 . S
C1132 C1133 1.377 . S
C1133 H1117 0.930 . S
C1133 C1132 1.377 . S
C1133 C1134 1.379 . S
C1134 H1118 0.931 . S
C1134 C1128 1.383 . S
C1134 C1133 1.379 . S
H1135 C1129 0.959 . S
H1136 C1129 0.961 . S
H1137 C1129 0.960 . S
H1138 C1130 0.930 . S
H1139 C1131 0.929 . S
H1140 C1148 0.929 . S
H1141 C1150 0.930 . S
H1142 C1152 0.930 . S
H1143 C1155 0.929 . S
H1144 C1158 0.930 . S
H1145 C1160 0.960 . S
H1146 C1160 0.960 . S
H1147 C1160 0.960 . S
C1148 H1140 0.929 . S
C1148 C1149 1.377 . S
C1148 C1150 1.384 . S
C1149 C1148 1.377 . S
C1149 C1155 1.390 . S
C1150 H1141 0.930 . S
C1150 C1148 1.384 . S
C1150 C1151 1.372 . S
C1151 C1150 1.372 . S
C1151 C1152 1.400 . S
C1151 C1156 1.490 . S
C1152 H1142 0.930 . S
C1152 C1151 1.400 . S
C1152 C1155 1.386 . S
H1153 C1169 0.930 . S
H1154 C1170 0.931 . S
C1155 H1143 0.929 . S
C1155 C1149 1.390 . S
C1155 C1152 1.386 . S
C1156 C1151 1.490 . S
C1156 C1158 1.395 1_554 S
C1156 C1159 1.403 . S
H1157 C1163 0.930 . S
C1158 H1144 0.930 . S
C1158 C1156 1.395 1_556 S
C1158 C1161 1.403 . S
C1159 C1156 1.403 . S
C1159 C1160 1.524 . S
C1159 C1163 1.400 1_554 S
C1160 H1145 0.960 . S
C1160 H1146 0.960 . S
C1160 H1147 0.960 . S
C1160 C1159 1.524 . S
C1161 C1158 1.403 . S
C1161 C1162 1.392 . S
C1161 C1165 1.495 . S
C1162 C1161 1.392 . S
C1162 C1163 1.385 . S
C1162 C1164 1.478 . S
C1163 H1157 0.930 . S
C1163 C1159 1.400 1_556 S
C1163 C1162 1.385 . S
C1164 C1162 1.478 . S
C1164 C1166 1.381 . S
C1164 C1170 1.383 . S
C1165 C1161 1.495 . S
C1165 H1171 0.959 . S
C1165 H1172 0.961 . S
C1165 H1173 0.960 . S
C1166 C1164 1.381 . S
C1166 C1167 1.394 . S
C1166 H1174 0.930 . S
C1167 C1166 1.394 . S
C1167 C1168 1.383 . S
C1167 H1175 0.929 . S
C1168 C1167 1.383 . S
C1168 C1169 1.377 . S
C1169 H1153 0.930 . S
C1169 C1168 1.377 . S
C1169 C1170 1.379 . S
C1170 H1154 0.931 . S
C1170 C1164 1.383 . S
C1170 C1169 1.379 . S
H1171 C1165 0.959 . S
H1172 C1165 0.961 . S
H1173 C1165 0.960 . S
H1174 C1166 0.930 . S
H1175 C1167 0.929 . S
H1176 C1184 0.929 . S
H1177 C1186 0.930 . S
H1178 C1188 0.930 . S
H1179 C1191 0.929 . S
H1180 C1194 0.930 . S
H1181 C1196 0.955 . S
H1182 C1196 0.965 1_545 S
H1183 C1196 0.958 . S
C1184 H1176 0.929 . S
C1184 C1185 1.377 . S
C1184 C1186 1.384 . S
C1185 C1184 1.377 . S
C1185 C1191 1.390 . S
C1186 H1177 0.930 . S
C1186 C1184 1.384 . S
C1186 C1187 1.372 . S
C1187 C1186 1.372 . S
C1187 C1188 1.400 . S
C1187 C1192 1.490 . S
C1188 H1178 0.930 . S
C1188 C1187 1.400 . S
C1188 C1191 1.386 . S
H1189 C1205 0.930 . S
H1190 C1206 0.931 . S
C1191 H1179 0.929 . S
C1191 C1185 1.390 . S
C1191 C1188 1.386 . S
C1192 C1187 1.490 . S
C1192 C1194 1.395 . S
C1192 C1195 1.403 . S
H1193 C1199 0.930 . S
C1194 H1180 0.930 . S
C1194 C1192 1.395 . S
C1194 C1197 1.403 . S
C1195 C1192 1.403 . S
C1195 C1196 1.525 1_545 S
C1195 C1199 1.400 1_545 S
C1196 H1181 0.955 . S
C1196 H1182 0.965 1_565 S
C1196 H1183 0.958 . S
C1196 C1195 1.525 1_565 S
C1197 C1194 1.403 . S
C1197 C1198 1.392 1_545 S
C1197 C1201 1.495 . S
C1198 C1197 1.392 1_565 S
C1198 C1199 1.385 . S
C1198 C1200 1.478 . S
C1199 H1193 0.930 . S
C1199 C1195 1.400 1_565 S
C1199 C1198 1.385 . S
C1200 C1198 1.478 . S
C1200 C1202 1.381 . S
C1200 C1206 1.383 . S
C1201 C1197 1.495 . S
C1201 H1207 0.959 . S
C1201 H1208 0.961 . S
C1201 H1209 0.960 . S
C1202 C1200 1.381 . S
C1202 C1203 1.394 . S
C1202 H1210 0.930 1_565 S
C1203 C1202 1.394 . S
C1203 C1204 1.383 . S
C1203 H1211 0.929 . S
C1204 C1203 1.383 . S
C1204 C1205 1.377 . S
C1205 H1189 0.930 . S
C1205 C1204 1.377 . S
C1205 C1206 1.379 . S
C1206 H1190 0.931 . S
C1206 C1200 1.383 . S
C1206 C1205 1.379 . S
H1207 C1201 0.959 . S
H1208 C1201 0.961 . S
H1209 C1201 0.960 . S
H1210 C1202 0.930 1_545 S
H1211 C1203 0.929 . S
H1212 C1220 0.929 . S
H1213 C1222 0.924 1_655 S
H1214 C1224 0.930 . S
H1215 C1227 0.929 . S
H1216 C1230 0.930 . S
H1217 C1232 0.960 . S
H1218 C1232 0.960 . S
H1219 C1232 0.960 . S
C1220 H1212 0.929 . S
C1220 C1221 1.377 . S
C1220 C1222 1.384 . S
C1221 C1220 1.377 . S
C1221 C1227 1.390 . S
C1222 H1213 0.924 1_455 S
C1222 C1220 1.384 . S
C1222 C1223 1.372 . S
C1223 C1222 1.372 . S
C1223 C1224 1.400 . S
C1223 C1228 1.490 . S
C1224 H1214 0.930 . S
C1224 C1223 1.400 . S
C1224 C1227 1.386 . S
H1225 C1241 0.930 . S
H1226 C1242 0.931 . S
C1227 H1215 0.929 . S
C1227 C1221 1.390 . S
C1227 C1224 1.386 . S
C1228 C1223 1.490 . S
C1228 C1230 1.395 1_455 S
C1228 C1231 1.403 . S
H1229 C1235 0.930 1_455 S
C1230 H1216 0.930 . S
C1230 C1228 1.395 1_655 S
C1230 C1233 1.403 . S
C1231 C1228 1.403 . S
C1231 C1232 1.524 . S
C1231 C1235 1.400 1_455 S
C1232 H1217 0.960 . S
C1232 H1218 0.960 . S
C1232 H1219 0.960 . S
C1232 C1231 1.524 . S
C1233 C1230 1.403 . S
C1233 C1234 1.392 . S
C1233 C1237 1.495 . S
C1234 C1233 1.392 . S
C1234 C1235 1.385 . S
C1234 C1236 1.478 . S
C1235 H1229 0.930 1_655 S
C1235 C1231 1.400 1_655 S
C1235 C1234 1.385 . S
C1236 C1234 1.478 . S
C1236 C1238 1.381 . S
C1236 C1242 1.383 . S
C1237 C1233 1.495 . S
C1237 H1243 0.959 . S
C1237 H1244 0.961 . S
C1237 H1245 0.960 . S
C1238 C1236 1.381 . S
C1238 C1239 1.394 . S
C1238 H1246 0.930 . S
C1239 C1238 1.394 . S
C1239 C1240 1.383 . S
C1239 H1247 0.929 . S
C1240 C1239 1.383 . S
C1240 C1241 1.377 . S
C1241 H1225 0.930 . S
C1241 C1240 1.377 . S
C1241 C1242 1.379 . S
C1242 H1226 0.931 . S
C1242 C1236 1.383 . S
C1242 C1241 1.379 . S
H1243 C1237 0.959 . S
H1244 C1237 0.961 . S
H1245 C1237 0.960 . S
H1246 C1238 0.930 . S
H1247 C1239 0.929 . S
H1248 C1256 0.929 . S
H1249 C1258 0.930 . S
H1250 C1260 0.930 . S
H1251 C1263 0.929 . S
H1252 C1266 0.930 . S
H1253 C1268 0.960 . S
H1254 C1268 0.960 . S
H1255 C1268 0.960 . S
C1256 H1248 0.929 . S
C1256 C1257 1.377 . S
C1256 C1258 1.384 . S
C1257 C1256 1.377 . S
C1257 C1263 1.390 . S
C1258 H1249 0.930 . S
C1258 C1256 1.384 . S
C1258 C1259 1.372 . S
C1259 C1258 1.372 . S
C1259 C1260 1.400 . S
C1259 C1264 1.490 . S
C1260 H1250 0.930 . S
C1260 C1259 1.400 . S
C1260 C1263 1.386 . S
H1261 C1277 0.930 . S
H1262 C1278 0.931 . S
C1263 H1251 0.929 . S
C1263 C1257 1.390 . S
C1263 C1260 1.386 . S
C1264 C1259 1.490 . S
C1264 C1266 1.395 . S
C1264 C1267 1.403 . S
H1265 C1271 0.930 . S
C1266 H1252 0.930 . S
C1266 C1264 1.395 . S
C1266 C1269 1.403 . S
C1267 C1264 1.403 . S
C1267 C1268 1.524 . S
C1267 C1271 1.400 . S
C1268 H1253 0.960 . S
C1268 H1254 0.960 . S
C1268 H1255 0.960 . S
C1268 C1267 1.524 . S
C1269 C1266 1.403 . S
C1269 C1270 1.392 . S
C1269 C1273 1.495 . S
C1270 C1269 1.392 . S
C1270 C1271 1.385 . S
C1270 C1272 1.478 . S
C1271 H1265 0.930 . S
C1271 C1267 1.400 . S
C1271 C1270 1.385 . S
C1272 C1270 1.478 . S
C1272 C1274 1.381 . S
C1272 C1278 1.383 . S
C1273 C1269 1.495 . S
C1273 H1279 0.959 . S
C1273 H1280 0.961 . S
C1273 H1281 0.960 . S
C1274 C1272 1.381 . S
C1274 C1275 1.394 . S
C1274 H1282 0.930 . S
C1275 C1274 1.394 . S
C1275 C1276 1.383 . S
C1275 H1283 0.929 . S
C1276 C1275 1.383 . S
C1276 C1277 1.377 . S
C1277 H1261 0.930 . S
C1277 C1276 1.377 . S
C1277 C1278 1.379 . S
C1278 H1262 0.931 . S
C1278 C1272 1.383 . S
C1278 C1277 1.379 . S
H1279 C1273 0.959 . S
H1280 C1273 0.961 . S
H1281 C1273 0.960 . S
H1282 C1274 0.930 . S
H1283 C1275 0.929 . S
H1284 C1292 0.929 . S
H1285 C1294 0.930 . S
H1286 C1296 0.930 . S
H1287 C1299 0.929 . S
H1288 C1302 0.930 . S
H1289 C1304 0.960 . S
H1290 C1304 0.960 . S
H1291 C1304 0.960 . S
C1292 H1284 0.929 . S
C1292 C1293 1.377 . S
C1292 C1294 1.384 . S
C1293 C1292 1.377 . S
C1293 C1299 1.390 . S
C1294 H1285 0.930 . S
C1294 C1292 1.384 . S
C1294 C1295 1.372 . S
C1295 C1294 1.372 . S
C1295 C1296 1.400 . S
C1295 C1300 1.490 . S
C1296 H1286 0.930 . S
C1296 C1295 1.400 . S
C1296 C1299 1.386 . S
H1297 C1313 0.930 . S
H1298 C1314 0.931 . S
C1299 H1287 0.929 . S
C1299 C1293 1.390 . S
C1299 C1296 1.386 . S
C1300 C1295 1.490 . S
C1300 C1302 1.395 . S
C1300 C1303 1.403 . S
H1301 C1307 0.930 . S
C1302 H1288 0.930 . S
C1302 C1300 1.395 . S
C1302 C1305 1.403 . S
C1303 C1300 1.403 . S
C1303 C1304 1.524 . S
C1303 C1307 1.400 . S
C1304 H1289 0.960 . S
C1304 H1290 0.960 . S
C1304 H1291 0.960 . S
C1304 C1303 1.524 . S
C1305 C1302 1.403 . S
C1305 C1306 1.392 . S
C1305 C1309 1.495 . S
C1306 C1305 1.392 . S
C1306 C1307 1.385 . S
C1306 C1308 1.478 . S
C1307 H1301 0.930 . S
C1307 C1303 1.400 . S
C1307 C1306 1.385 . S
C1308 C1306 1.478 . S
C1308 C1310 1.381 . S
C1308 C1314 1.383 . S
C1309 C1305 1.495 . S
C1309 H1315 0.959 . S
C1309 H1316 0.961 . S
C1309 H1317 0.960 . S
C1310 C1308 1.381 . S
C1310 C1311 1.394 . S
C1310 H1318 0.930 . S
C1311 C1310 1.394 . S
C1311 C1312 1.383 . S
C1311 H1319 0.929 . S
C1312 C1311 1.383 . S
C1312 C1313 1.377 . S
C1313 H1297 0.930 . S
C1313 C1312 1.377 . S
C1313 C1314 1.379 . S
C1314 H1298 0.931 . S
C1314 C1308 1.383 . S
C1314 C1313 1.379 . S
H1315 C1309 0.959 . S
H1316 C1309 0.961 . S
H1317 C1309 0.960 . S
H1318 C1310 0.930 . S
H1319 C1311 0.929 . S
H1320 C1328 0.929 . S
H1321 C1330 0.930 . S
H1322 C1332 0.889 1_545 S
H1323 C1335 0.929 . S
H1324 C1338 0.930 . S
H1325 C1340 0.960 . S
H1326 C1340 0.960 . S
H1327 C1340 0.960 . S
C1328 H1320 0.929 . S
C1328 C1329 1.377 . S
C1328 C1330 1.384 . S
C1329 C1328 1.377 . S
C1329 C1335 1.390 . S
C1330 H1321 0.930 . S
C1330 C1328 1.384 . S
C1330 C1331 1.372 . S
C1331 C1330 1.372 . S
C1331 C1332 1.400 . S
C1331 C1336 1.490 . S
C1332 H1322 0.889 1_565 S
C1332 C1331 1.400 . S
C1332 C1335 1.386 . S
H1333 C1349 0.930 . S
H1334 C1350 0.931 . S
C1335 H1323 0.929 . S
C1335 C1329 1.390 . S
C1335 C1332 1.386 . S
C1336 C1331 1.490 . S
C1336 C1338 1.395 . S
C1336 C1339 1.403 1_565 S
H1337 C1343 0.930 . S
C1338 H1324 0.930 . S
C1338 C1336 1.395 . S
C1338 C1341 1.403 . S
C1339 C1336 1.403 1_545 S
C1339 C1340 1.524 . S
C1339 C1343 1.400 . S
C1340 H1325 0.960 . S
C1340 H1326 0.960 . S
C1340 H1327 0.960 . S
C1340 C1339 1.524 . S
C1341 C1338 1.403 . S
C1341 C1342 1.392 1_565 S
C1341 C1345 1.495 . S
C1342 C1341 1.392 1_545 S
C1342 C1343 1.385 . S
C1342 C1344 1.478 . S
C1343 H1337 0.930 . S
C1343 C1339 1.400 . S
C1343 C1342 1.385 . S
C1344 C1342 1.478 . S
C1344 C1346 1.381 . S
C1344 C1350 1.383 . S
C1345 C1341 1.495 . S
C1345 H1351 0.959 . S
C1345 H1352 0.961 . S
C1345 H1353 0.960 . S
C1346 C1344 1.381 . S
C1346 C1347 1.394 . S
C1346 H1354 0.930 . S
C1347 C1346 1.394 . S
C1347 C1348 1.383 . S
C1347 H1355 0.929 . S
C1348 C1347 1.383 . S
C1348 C1349 1.377 . S
C1349 H1333 0.930 . S
C1349 C1348 1.377 . S
C1349 C1350 1.379 . S
C1350 H1334 0.931 . S
C1350 C1344 1.383 . S
C1350 C1349 1.379 . S
H1351 C1345 0.959 . S
H1352 C1345 0.961 . S
H1353 C1345 0.960 . S
H1354 C1346 0.930 . S
H1355 C1347 0.929 . S
H1356 C1364 0.929 . S
H1357 C1366 0.930 . S
H1358 C1368 0.930 . S
H1359 C1371 0.929 . S
H1360 C1374 0.930 . S
H1361 C1376 0.960 . S
H1362 C1376 0.960 . S
H1363 C1376 0.960 . S
C1364 H1356 0.929 . S
C1364 C1365 1.377 . S
C1364 C1366 1.384 . S
C1365 C1364 1.377 . S
C1365 C1371 1.390 . S
C1366 H1357 0.930 . S
C1366 C1364 1.384 . S
C1366 C1367 1.372 . S
C1367 C1366 1.372 . S
C1367 C1368 1.400 . S
C1367 C1372 1.490 . S
C1368 H1358 0.930 . S
C1368 C1367 1.400 . S
C1368 C1371 1.386 . S
H1369 C1385 0.930 . S
H1370 C1386 0.931 . S
C1371 H1359 0.929 . S
C1371 C1365 1.390 . S
C1371 C1368 1.386 . S
C1372 C1367 1.490 . S
C1372 C1374 1.395 1_554 S
C1372 C1375 1.403 1_655 S
H1373 C1379 0.930 . S
C1374 H1360 0.930 . S
C1374 C1372 1.395 1_556 S
C1374 C1377 1.403 . S
C1375 C1372 1.403 1_455 S
C1375 C1376 1.524 . S
C1375 C1379 1.400 1_554 S
C1376 H1361 0.960 . S
C1376 H1362 0.960 . S
C1376 H1363 0.960 . S
C1376 C1375 1.524 . S
C1377 C1374 1.403 . S
C1377 C1378 1.392 1_655 S
C1377 C1381 1.495 . S
C1378 C1377 1.392 1_455 S
C1378 C1379 1.385 . S
C1378 C1380 1.478 . S
C1379 H1373 0.930 . S
C1379 C1375 1.400 1_556 S
C1379 C1378 1.385 . S
C1380 C1378 1.478 . S
C1380 C1382 1.381 . S
C1380 C1386 1.383 . S
C1381 C1377 1.495 . S
C1381 H1387 0.959 . S
C1381 H1388 0.961 . S
C1381 H1389 0.960 . S
C1382 C1380 1.381 . S
C1382 C1383 1.394 . S
C1382 H1390 0.930 . S
C1383 C1382 1.394 . S
C1383 C1384 1.383 . S
C1383 H1391 0.929 . S
C1384 C1383 1.383 . S
C1384 C1385 1.377 . S
C1385 H1369 0.930 . S
C1385 C1384 1.377 . S
C1385 C1386 1.379 . S
C1386 H1370 0.931 . S
C1386 C1380 1.383 . S
C1386 C1385 1.379 . S
H1387 C1381 0.959 . S
H1388 C1381 0.961 . S
H1389 C1381 0.960 . S
H1390 C1382 0.930 . S
H1391 C1383 0.929 . S
H1392 C1400 0.929 . S
H1393 C1402 0.930 . S
H1394 C1404 0.930 . S
H1395 C1407 0.929 . S
H1396 C1410 0.930 . S
H1397 C1412 0.960 . S
H1398 C1412 0.960 . S
H1399 C1412 0.960 . S
C1400 H1392 0.929 . S
C1400 C1401 1.377 . S
C1400 C1402 1.384 . S
C1401 C1400 1.377 . S
C1401 C1407 1.390 . S
C1402 H1393 0.930 . S
C1402 C1400 1.384 . S
C1402 C1403 1.372 . S
C1403 C1402 1.372 . S
C1403 C1404 1.400 . S
C1403 C1408 1.490 . S
C1404 H1394 0.930 . S
C1404 C1403 1.400 . S
C1404 C1407 1.386 . S
H1405 C1421 0.946 . S
H1406 C1422 0.931 . S
C1407 H1395 0.929 . S
C1407 C1401 1.390 . S
C1407 C1404 1.386 . S
C1408 C1403 1.490 . S
C1408 C1410 1.395 . S
C1408 C1411 1.403 . S
H1409 C1415 0.930 . S
C1410 H1396 0.930 . S
C1410 C1408 1.395 . S
C1410 C1413 1.403 . S
C1411 C1408 1.403 . S
C1411 C1412 1.524 . S
C1411 C1415 1.400 . S
C1412 H1397 0.960 . S
C1412 H1398 0.960 . S
C1412 H1399 0.960 . S
C1412 C1411 1.524 . S
C1413 C1410 1.403 . S
C1413 C1414 1.392 . S
C1413 C1417 1.495 . S
C1414 C1413 1.392 . S
C1414 C1415 1.385 . S
C1414 C1416 1.478 . S
C1415 H1409 0.930 . S
C1415 C1411 1.400 . S
C1415 C1414 1.385 . S
C1416 C1414 1.478 . S
C1416 C1418 1.381 . S
C1416 C1422 1.383 . S
C1417 C1413 1.495 . S
C1417 H1423 0.959 . S
C1417 H1424 0.961 . S
C1417 H1425 0.960 . S
C1418 C1416 1.381 . S
C1418 C1419 1.394 . S
C1418 H1426 0.930 . S
C1419 C1418 1.394 . S
C1419 C1420 1.383 . S
C1419 H1427 0.929 . S
C1420 C1419 1.383 . S
C1420 C1421 1.377 . S
C1421 H1405 0.946 . S
C1421 C1420 1.377 . S
C1421 C1422 1.379 . S
C1422 H1406 0.931 . S
C1422 C1416 1.383 . S
C1422 C1421 1.379 . S
H1423 C1417 0.959 . S
H1424 C1417 0.961 . S
H1425 C1417 0.960 . S
H1426 C1418 0.930 . S
H1427 C1419 0.929 . S
H1428 C1436 0.929 . S
H1429 C1438 0.930 . S
H1430 C1440 0.930 . S
H1431 C1443 0.929 . S
H1432 C1446 0.930 . S
H1433 C1448 0.960 . S
H1434 C1448 0.960 . S
H1435 C1448 0.960 . S
C1436 H1428 0.929 . S
C1436 C1437 1.377 . S
C1436 C1438 1.384 . S
C1437 C1436 1.377 . S
C1437 C1443 1.390 . S
C1438 H1429 0.930 . S
C1438 C1436 1.384 . S
C1438 C1439 1.372 . S
C1439 C1438 1.372 . S
C1439 C1440 1.400 . S
C1439 C1444 1.490 . S
C1440 H1430 0.930 . S
C1440 C1439 1.400 . S
C1440 C1443 1.386 . S
H1441 C1457 0.930 . S
H1442 C1458 0.931 . S
C1443 H1431 0.929 . S
C1443 C1437 1.390 . S
C1443 C1440 1.386 . S
C1444 C1439 1.490 . S
C1444 C1446 1.395 . S
C1444 C1447 1.403 . S
H1445 C1451 0.930 . S
C1446 H1432 0.930 . S
C1446 C1444 1.395 . S
C1446 C1449 1.403 . S
C1447 C1444 1.403 . S
C1447 C1448 1.524 . S
C1447 C1451 1.400 . S
C1448 H1433 0.960 . S
C1448 H1434 0.960 . S
C1448 H1435 0.960 . S
C1448 C1447 1.524 . S
C1449 C1446 1.403 . S
C1449 C1450 1.392 . S
C1449 C1453 1.495 . S
C1450 C1449 1.392 . S
C1450 C1451 1.385 . S
C1450 C1452 1.478 . S
C1451 H1445 0.930 . S
C1451 C1447 1.400 . S
C1451 C1450 1.385 . S
C1452 C1450 1.478 . S
C1452 C1454 1.381 . S
C1452 C1458 1.383 . S
C1453 C1449 1.495 . S
C1453 H1459 0.959 . S
C1453 H1460 0.961 . S
C1453 H1461 0.960 . S
C1454 C1452 1.381 . S
C1454 C1455 1.394 . S
C1454 H1462 0.930 . S
C1455 C1454 1.394 . S
C1455 C1456 1.383 . S
C1455 H1463 0.929 . S
C1456 C1455 1.383 . S
C1456 C1457 1.377 . S
C1457 H1441 0.930 . S
C1457 C1456 1.377 . S
C1457 C1458 1.379 . S
C1458 H1442 0.931 . S
C1458 C1452 1.383 . S
C1458 C1457 1.379 . S
H1459 C1453 0.959 . S
H1460 C1453 0.961 . S
H1461 C1453 0.960 . S
H1462 C1454 0.930 . S
H1463 C1455 0.929 . S
H1464 C1472 0.929 . S
H1465 C1474 0.930 . S
H1466 C1476 0.930 . S
H1467 C1479 0.929 . S
H1468 C1482 0.930 . S
H1469 C1484 0.960 . S
H1470 C1484 0.960 . S
H1471 C1484 0.960 . S
C1472 H1464 0.929 . S
C1472 C1473 1.377 . S
C1472 C1474 1.384 . S
C1473 C1472 1.377 . S
C1473 C1479 1.390 . S
C1474 H1465 0.930 . S
C1474 C1472 1.384 . S
C1474 C1475 1.372 . S
C1475 C1474 1.372 . S
C1475 C1476 1.400 . S
C1475 C1480 1.490 . S
C1476 H1466 0.930 . S
C1476 C1475 1.400 . S
C1476 C1479 1.386 . S
H1477 C1493 0.930 . S
H1478 C1494 0.931 . S
C1479 H1467 0.929 . S
C1479 C1473 1.390 . S
C1479 C1476 1.386 . S
C1480 C1475 1.490 . S
C1480 C1482 1.395 . S
C1480 C1483 1.403 . S
H1481 C1487 0.930 . S
C1482 H1468 0.930 . S
C1482 C1480 1.395 . S
C1482 C1485 1.403 . S
C1483 C1480 1.403 . S
C1483 C1484 1.524 . S
C1483 C1487 1.400 . S
C1484 H1469 0.960 . S
C1484 H1470 0.960 . S
C1484 H1471 0.960 . S
C1484 C1483 1.524 . S
C1485 C1482 1.403 . S
C1485 C1486 1.392 . S
C1485 C1489 1.495 . S
C1486 C1485 1.392 . S
C1486 C1487 1.385 . S
C1486 C1488 1.478 . S
C1487 H1481 0.930 . S
C1487 C1483 1.400 . S
C1487 C1486 1.385 . S
C1488 C1486 1.478 . S
C1488 C1490 1.381 . S
C1488 C1494 1.383 . S
C1489 C1485 1.495 . S
C1489 H1495 0.959 . S
C1489 H1496 0.961 . S
C1489 H1497 0.960 . S
C1490 C1488 1.381 . S
C1490 C1491 1.394 . S
C1490 H1498 0.930 . S
C1491 C1490 1.394 . S
C1491 C1492 1.383 . S
C1491 H1499 0.929 . S
C1492 C1491 1.383 . S
C1492 C1493 1.377 . S
C1493 H1477 0.930 . S
C1493 C1492 1.377 . S
C1493 C1494 1.379 . S
C1494 H1478 0.931 . S
C1494 C1488 1.383 . S
C1494 C1493 1.379 . S
H1495 C1489 0.959 . S
H1496 C1489 0.961 . S
H1497 C1489 0.960 . S
H1498 C1490 0.930 . S
H1499 C1491 0.929 . S
H1500 C1508 0.929 . S
H1501 C1510 0.930 . S
H1502 C1512 0.930 . S
H1503 C1515 0.929 . S
H1504 C1518 0.930 . S
H1505 C1520 0.960 . S
H1506 C1520 0.960 . S
H1507 C1520 0.960 . S
C1508 H1500 0.929 . S
C1508 C1509 1.377 . S
C1508 C1510 1.384 . S
C1509 C1508 1.377 . S
C1509 C1515 1.390 . S
C1510 H1501 0.930 . S
C1510 C1508 1.384 . S
C1510 C1511 1.372 . S
C1511 C1510 1.372 . S
C1511 C1512 1.400 . S
C1511 C1516 1.490 . S
C1512 H1502 0.930 . S
C1512 C1511 1.400 . S
C1512 C1515 1.386 . S
H1513 C1529 0.930 . S
H1514 C1530 0.931 . S
C1515 H1503 0.929 . S
C1515 C1509 1.390 . S
C1515 C1512 1.386 . S
C1516 C1511 1.490 . S
C1516 C1518 1.395 . S
C1516 C1519 1.403 . S
H1517 C1523 0.930 . S
C1518 H1504 0.930 . S
C1518 C1516 1.395 . S
C1518 C1521 1.403 . S
C1519 C1516 1.403 . S
C1519 C1520 1.524 . S
C1519 C1523 1.400 . S
C1520 H1505 0.960 . S
C1520 H1506 0.960 . S
C1520 H1507 0.960 . S
C1520 C1519 1.524 . S
C1521 C1518 1.403 . S
C1521 C1522 1.392 . S
C1521 C1525 1.495 . S
C1522 C1521 1.392 . S
C1522 C1523 1.385 . S
C1522 C1524 1.478 . S
C1523 H1517 0.930 . S
C1523 C1519 1.400 . S
C1523 C1522 1.385 . S
C1524 C1522 1.478 . S
C1524 C1526 1.381 . S
C1524 C1530 1.383 . S
C1525 C1521 1.495 . S
C1525 H1531 0.959 . S
C1525 H1532 0.961 . S
C1525 H1533 0.960 . S
C1526 C1524 1.381 . S
C1526 C1527 1.394 . S
C1526 H1534 0.930 . S
C1527 C1526 1.394 . S
C1527 C1528 1.383 . S
C1527 H1535 0.929 . S
C1528 C1527 1.383 . S
C1528 C1529 1.377 . S
C1529 H1513 0.930 . S
C1529 C1528 1.377 . S
C1529 C1530 1.379 . S
C1530 H1514 0.931 . S
C1530 C1524 1.383 . S
C1530 C1529 1.379 . S
H1531 C1525 0.959 . S
H1532 C1525 0.961 . S
H1533 C1525 0.960 . S
H1534 C1526 0.930 . S
H1535 C1527 0.929 . S
H1536 C1544 0.929 . S
H1537 C1546 0.930 . S
H1538 C1548 0.930 . S
H1539 C1551 0.929 . S
H1540 C1554 0.930 . S
H1541 C1556 0.960 . S
H1542 C1556 0.960 . S
H1543 C1556 0.960 . S
C1544 H1536 0.929 . S
C1544 C1545 1.377 . S
C1544 C1546 1.384 . S
C1545 C1544 1.377 . S
C1545 C1551 1.390 . S
C1546 H1537 0.930 . S
C1546 C1544 1.384 . S
C1546 C1547 1.372 . S
C1547 C1546 1.372 . S
C1547 C1548 1.400 . S
C1547 C1552 1.490 . S
C1548 H1538 0.930 . S
C1548 C1547 1.400 . S
C1548 C1551 1.386 . S
H1549 C1565 0.930 . S
H1550 C1566 0.931 . S
C1551 H1539 0.929 . S
C1551 C1545 1.390 . S
C1551 C1548 1.386 . S
C1552 C1547 1.490 . S
C1552 C1554 1.395 . S
C1552 C1555 1.403 . S
H1553 C1559 0.930 . S
C1554 H1540 0.930 . S
C1554 C1552 1.395 . S
C1554 C1557 1.403 . S
C1555 C1552 1.403 . S
C1555 C1556 1.524 . S
C1555 C1559 1.400 . S
C1556 H1541 0.960 . S
C1556 H1542 0.960 . S
C1556 H1543 0.960 . S
C1556 C1555 1.524 . S
C1557 C1554 1.403 . S
C1557 C1558 1.392 . S
C1557 C1561 1.495 . S
C1558 C1557 1.392 . S
C1558 C1559 1.385 . S
C1558 C1560 1.478 . S
C1559 H1553 0.930 . S
C1559 C1555 1.400 . S
C1559 C1558 1.385 . S
C1560 C1558 1.478 . S
C1560 C1562 1.381 . S
C1560 C1566 1.383 . S
C1561 C1557 1.495 . S
C1561 H1567 0.959 . S
C1561 H1568 0.961 . S
C1561 H1569 0.960 . S
C1562 C1560 1.381 . S
C1562 C1563 1.394 . S
C1562 H1570 0.930 . S
C1563 C1562 1.394 . S
C1563 C1564 1.383 . S
C1563 H1571 0.929 . S
C1564 C1563 1.383 . S
C1564 C1565 1.377 . S
C1565 H1549 0.930 . S
C1565 C1564 1.377 . S
C1565 C1566 1.379 . S
C1566 H1550 0.931 . S
C1566 C1560 1.383 . S
C1566 C1565 1.379 . S
H1567 C1561 0.959 . S
H1568 C1561 0.961 . S
H1569 C1561 0.960 . S
H1570 C1562 0.930 . S
H1571 C1563 0.929 . S
H1572 C1580 0.929 . S
H1573 C1582 0.930 . S
H1574 C1584 0.930 . S
H1575 C1587 0.929 . S
H1576 C1590 0.930 . S
H1577 C1592 0.960 . S
H1578 C1592 0.960 . S
H1579 C1592 0.960 . S
C1580 H1572 0.929 . S
C1580 C1581 1.377 . S
C1580 C1582 1.384 . S
C1581 C1580 1.377 . S
C1581 C1587 1.390 . S
C1582 H1573 0.930 . S
C1582 C1580 1.384 . S
C1582 C1583 1.372 . S
C1583 C1582 1.372 . S
C1583 C1584 1.400 . S
C1583 C1588 1.490 . S
C1584 H1574 0.930 . S
C1584 C1583 1.400 . S
C1584 C1587 1.386 . S
H1585 C1601 0.930 . S
H1586 C1602 0.931 . S
C1587 H1575 0.929 . S
C1587 C1581 1.390 . S
C1587 C1584 1.386 . S
C1588 C1583 1.490 . S
C1588 C1590 1.395 . S
C1588 C1591 1.403 . S
H1589 C1595 0.930 . S
C1590 H1576 0.930 . S
C1590 C1588 1.395 . S
C1590 C1593 1.403 . S
C1591 C1588 1.403 . S
C1591 C1592 1.524 . S
C1591 C1595 1.400 . S
C1592 H1577 0.960 . S
C1592 H1578 0.960 . S
C1592 H1579 0.960 . S
C1592 C1591 1.524 . S
C1593 C1590 1.403 . S
C1593 C1594 1.392 . S
C1593 C1597 1.495 . S
C1594 C1593 1.392 . S
C1594 C1595 1.385 . S
C1594 C1596 1.478 . S
C1595 H1589 0.930 . S
C1595 C1591 1.400 . S
C1595 C1594 1.385 . S
C1596 C1594 1.478 . S
C1596 C1598 1.381 . S
C1596 C1602 1.383 . S
C1597 C1593 1.495 . S
C1597 H1603 0.959 . S
C1597 H1604 0.961 . S
C1597 H1605 0.960 . S
C1598 C1596 1.381 . S
C1598 C1599 1.394 . S
C1598 H1606 0.930 . S
C1599 C1598 1.394 . S
C1599 C1600 1.383 . S
C1599 H1607 0.929 . S
C1600 C1599 1.383 . S
C1600 C1601 1.377 . S
C1601 H1585 0.930 . S
C1601 C1600 1.377 . S
C1601 C1602 1.379 . S
C1602 H1586 0.931 . S
C1602 C1596 1.383 . S
C1602 C1601 1.379 . S
H1603 C1597 0.959 . S
H1604 C1597 0.961 . S
H1605 C1597 0.960 . S
H1606 C1598 0.930 . S
H1607 C1599 0.929 . S
H1608 C1616 0.929 . S
H1609 C1618 0.930 . S
H1610 C1620 0.930 . S
H1611 C1623 0.929 . S
H1612 C1626 0.930 . S
H1613 C1628 0.960 . S
H1614 C1628 0.960 . S
H1615 C1628 0.960 . S
C1616 H1608 0.929 . S
C1616 C1617 1.377 . S
C1616 C1618 1.384 . S
C1617 C1616 1.377 . S
C1617 C1623 1.390 . S
C1618 H1609 0.930 . S
C1618 C1616 1.384 . S
C1618 C1619 1.372 . S
C1619 C1618 1.372 . S
C1619 C1620 1.400 . S
C1619 C1624 1.490 . S
C1620 H1610 0.930 . S
C1620 C1619 1.400 . S
C1620 C1623 1.386 . S
H1621 C1637 0.930 . S
H1622 C1638 0.931 . S
C1623 H1611 0.929 . S
C1623 C1617 1.390 . S
C1623 C1620 1.386 . S
C1624 C1619 1.490 . S
C1624 C1626 1.395 . S
C1624 C1627 1.403 . S
H1625 C1631 0.930 . S
C1626 H1612 0.930 . S
C1626 C1624 1.395 . S
C1626 C1629 1.403 . S
C1627 C1624 1.403 . S
C1627 C1628 1.524 . S
C1627 C1631 1.400 . S
C1628 H1613 0.960 . S
C1628 H1614 0.960 . S
C1628 H1615 0.960 . S
C1628 C1627 1.524 . S
C1629 C1626 1.403 . S
C1629 C1630 1.392 . S
C1629 C1633 1.495 . S
C1630 C1629 1.392 . S
C1630 C1631 1.385 . S
C1630 C1632 1.478 . S
C1631 H1625 0.930 . S
C1631 C1627 1.400 . S
C1631 C1630 1.385 . S
C1632 C1630 1.478 . S
C1632 C1634 1.381 . S
C1632 C1638 1.383 . S
C1633 C1629 1.495 . S
C1633 H1639 0.959 . S
C1633 H1640 0.961 . S
C1633 H1641 0.960 . S
C1634 C1632 1.381 . S
C1634 C1635 1.394 . S
C1634 H1642 0.930 . S
C1635 C1634 1.394 . S
C1635 C1636 1.383 . S
C1635 H1643 0.929 1_554 S
C1636 C1635 1.383 . S
C1636 C1637 1.377 . S
C1637 H1621 0.930 . S
C1637 C1636 1.377 . S
C1637 C1638 1.379 . S
C1638 H1622 0.931 . S
C1638 C1632 1.383 . S
C1638 C1637 1.379 . S
H1639 C1633 0.959 . S
H1640 C1633 0.961 . S
H1641 C1633 0.960 . S
H1642 C1634 0.930 . S
H1643 C1635 0.929 1_556 S
H1644 C1652 0.929 . S
H1645 C1654 0.930 . S
H1646 C1656 0.930 . S
H1647 C1659 0.929 . S
H1648 C1662 0.930 . S
H1649 C1664 0.960 . S
H1650 C1664 0.960 . S
H1651 C1664 0.960 . S
C1652 H1644 0.929 . S
C1652 C1653 1.377 . S
C1652 C1654 1.384 . S
C1653 C1652 1.377 . S
C1653 C1659 1.390 . S
C1654 H1645 0.930 . S
C1654 C1652 1.384 . S
C1654 C1655 1.372 . S
C1655 C1654 1.372 . S
C1655 C1656 1.400 . S
C1655 C1660 1.490 . S
C1656 H1646 0.930 . S
C1656 C1655 1.400 . S
C1656 C1659 1.386 . S
H1657 C1673 0.930 . S
H1658 C1674 0.931 . S
C1659 H1647 0.929 . S
C1659 C1653 1.390 . S
C1659 C1656 1.386 . S
C1660 C1655 1.490 . S
C1660 C1662 1.395 . S
C1660 C1663 1.403 . S
H1661 C1667 0.930 . S
C1662 H1648 0.930 . S
C1662 C1660 1.395 . S
C1662 C1665 1.403 . S
C1663 C1660 1.403 . S
C1663 C1664 1.524 . S
C1663 C1667 1.400 . S
C1664 H1649 0.960 . S
C1664 H1650 0.960 . S
C1664 H1651 0.960 . S
C1664 C1663 1.524 . S
C1665 C1662 1.403 . S
C1665 C1666 1.392 . S
C1665 C1669 1.495 . S
C1666 C1665 1.392 . S
C1666 C1667 1.385 . S
C1666 C1668 1.478 . S
C1667 H1661 0.930 . S
C1667 C1663 1.400 . S
C1667 C1666 1.385 . S
C1668 C1666 1.478 . S
C1668 C1670 1.381 . S
C1668 C1674 1.383 . S
C1669 C1665 1.495 . S
C1669 H1675 0.959 . S
C1669 H1676 0.961 . S
C1669 H1677 0.960 . S
C1670 C1668 1.381 . S
C1670 C1671 1.394 . S
C1670 H1678 0.930 . S
C1671 C1670 1.394 . S
C1671 C1672 1.383 . S
C1671 H1679 0.929 . S
C1672 C1671 1.383 . S
C1672 C1673 1.377 . S
C1673 H1657 0.930 . S
C1673 C1672 1.377 . S
C1673 C1674 1.379 . S
C1674 H1658 0.931 . S
C1674 C1668 1.383 . S
C1674 C1673 1.379 . S
H1675 C1669 0.959 . S
H1676 C1669 0.961 . S
H1677 C1669 0.960 . S
H1678 C1670 0.930 . S
H1679 C1671 0.929 . S
H1680 C1688 0.929 . S
H1681 C1690 0.930 . S
H1682 C1692 0.930 . S
H1683 C1695 0.929 . S
H1684 C1698 0.930 . S
H1685 C1700 0.960 . S
H1686 C1700 0.960 . S
H1687 C1700 0.960 . S
C1688 H1680 0.929 . S
C1688 C1689 1.377 . S
C1688 C1690 1.384 . S
C1689 C1688 1.377 . S
C1689 C1695 1.390 . S
C1690 H1681 0.930 . S
C1690 C1688 1.384 . S
C1690 C1691 1.372 . S
C1691 C1690 1.372 . S
C1691 C1692 1.400 . S
C1691 C1696 1.490 . S
C1692 H1682 0.930 . S
C1692 C1691 1.400 . S
C1692 C1695 1.386 . S
H1693 C1709 0.930 . S
H1694 C1710 0.931 . S
C1695 H1683 0.929 . S
C1695 C1689 1.390 . S
C1695 C1692 1.386 . S
C1696 C1691 1.490 . S
C1696 C1698 1.395 . S
C1696 C1699 1.403 . S
H1697 C1703 0.930 . S
C1698 H1684 0.930 . S
C1698 C1696 1.395 . S
C1698 C1701 1.403 . S
C1699 C1696 1.403 . S
C1699 C1700 1.524 . S
C1699 C1703 1.400 . S
C1700 H1685 0.960 . S
C1700 H1686 0.960 . S
C1700 H1687 0.960 . S
C1700 C1699 1.524 . S
C1701 C1698 1.403 . S
C1701 C1702 1.392 . S
C1701 C1705 1.495 . S
C1702 C1701 1.392 . S
C1702 C1703 1.385 . S
C1702 C1704 1.478 . S
C1703 H1697 0.930 . S
C1703 C1699 1.400 . S
C1703 C1702 1.385 . S
C1704 C1702 1.478 . S
C1704 C1706 1.381 . S
C1704 C1710 1.383 . S
C1705 C1701 1.495 . S
C1705 H1711 0.959 . S
C1705 H1712 0.961 . S
C1705 H1713 0.960 . S
C1706 C1704 1.381 . S
C1706 C1707 1.394 . S
C1706 H1714 0.930 . S
C1707 C1706 1.394 . S
C1707 C1708 1.383 . S
C1707 H1715 0.929 . S
C1708 C1707 1.383 . S
C1708 C1709 1.377 . S
C1709 H1693 0.930 . S
C1709 C1708 1.377 . S
C1709 C1710 1.379 . S
C1710 H1694 0.931 . S
C1710 C1704 1.383 . S
C1710 C1709 1.379 . S
H1711 C1705 0.959 . S
H1712 C1705 0.961 . S
H1713 C1705 0.960 . S
H1714 C1706 0.930 . S
H1715 C1707 0.929 . S
H1716 C1724 0.929 . S
H1717 C1726 0.930 . S
H1718 C1728 0.930 . S
H1719 C1731 0.929 . S
H1720 C1734 0.930 . S
H1721 C1736 0.960 . S
H1722 C1736 0.960 . S
H1723 C1736 0.960 . S
C1724 H1716 0.929 . S
C1724 C1725 1.377 . S
C1724 C1726 1.384 . S
C1725 C1724 1.377 . S
C1725 C1731 1.390 . S
C1726 H1717 0.930 . S
C1726 C1724 1.384 . S
C1726 C1727 1.372 . S
C1727 C1726 1.372 . S
C1727 C1728 1.400 . S
C1727 C1732 1.490 . S
C1728 H1718 0.930 . S
C1728 C1727 1.400 . S
C1728 C1731 1.386 . S
H1729 C1745 0.930 . S
H1730 C1746 0.931 . S
C1731 H1719 0.929 . S
C1731 C1725 1.390 . S
C1731 C1728 1.386 . S
C1732 C1727 1.490 . S
C1732 C1734 1.395 . S
C1732 C1735 1.403 . S
H1733 C1739 0.930 . S
C1734 H1720 0.930 . S
C1734 C1732 1.395 . S
C1734 C1737 1.403 . S
C1735 C1732 1.403 . S
C1735 C1736 1.524 . S
C1735 C1739 1.400 . S
C1736 H1721 0.960 . S
C1736 H1722 0.960 . S
C1736 H1723 0.960 . S
C1736 C1735 1.524 . S
C1737 C1734 1.403 . S
C1737 C1738 1.392 . S
C1737 C1741 1.495 . S
C1738 C1737 1.392 . S
C1738 C1739 1.385 . S
C1738 C1740 1.478 . S
C1739 H1733 0.930 . S
C1739 C1735 1.400 . S
C1739 C1738 1.385 . S
C1740 C1738 1.478 . S
C1740 C1742 1.381 . S
C1740 C1746 1.383 . S
C1741 C1737 1.495 . S
C1741 H1747 0.959 . S
C1741 H1748 0.961 . S
C1741 H1749 0.960 . S
C1742 C1740 1.381 . S
C1742 C1743 1.394 . S
C1742 H1750 0.930 . S
C1743 C1742 1.394 . S
C1743 C1744 1.383 . S
C1743 H1751 0.929 . S
C1744 C1743 1.383 . S
C1744 C1745 1.377 . S
C1745 H1729 0.930 . S
C1745 C1744 1.377 . S
C1745 C1746 1.379 . S
C1746 H1730 0.931 . S
C1746 C1740 1.383 . S
C1746 C1745 1.379 . S
H1747 C1741 0.959 . S
H1748 C1741 0.961 . S
H1749 C1741 0.960 . S
H1750 C1742 0.930 . S
H1751 C1743 0.929 . S
H1752 C1760 0.929 . S
H1753 C1762 0.930 . S
H1754 C1764 0.930 . S
H1755 C1767 0.929 1_556 S
H1756 C1770 0.930 . S
H1757 C1772 0.960 . S
H1758 C1772 0.960 . S
H1759 C1772 0.960 . S
C1760 H1752 0.929 . S
C1760 C1761 1.377 . S
C1760 C1762 1.384 . S
C1761 C1760 1.377 . S
C1761 C1767 1.390 . S
C1762 H1753 0.930 . S
C1762 C1760 1.384 . S
C1762 C1763 1.372 . S
C1763 C1762 1.372 . S
C1763 C1764 1.400 . S
C1763 C1768 1.490 . S
C1764 H1754 0.930 . S
C1764 C1763 1.400 . S
C1764 C1767 1.386 . S
H1765 C1781 0.930 . S
H1766 C1782 0.931 . S
C1767 H1755 0.929 1_554 S
C1767 C1761 1.390 . S
C1767 C1764 1.386 . S
C1768 C1763 1.490 . S
C1768 C1770 1.395 . S
C1768 C1771 1.403 . S
H1769 C1775 0.930 . S
C1770 H1756 0.930 . S
C1770 C1768 1.395 . S
C1770 C1773 1.403 . S
C1771 C1768 1.403 . S
C1771 C1772 1.524 . S
C1771 C1775 1.400 . S
C1772 H1757 0.960 . S
C1772 H1758 0.960 . S
C1772 H1759 0.960 . S
C1772 C1771 1.524 . S
C1773 C1770 1.403 . S
C1773 C1774 1.392 . S
C1773 C1777 1.495 . S
C1774 C1773 1.392 . S
C1774 C1775 1.385 . S
C1774 C1776 1.478 . S
C1775 H1769 0.930 . S
C1775 C1771 1.400 . S
C1775 C1774 1.385 . S
C1776 C1774 1.478 . S
C1776 C1778 1.381 . S
C1776 C1782 1.383 . S
C1777 C1773 1.495 . S
C1777 H1783 0.959 . S
C1777 H1784 0.961 . S
C1777 H1785 0.960 . S
C1778 C1776 1.381 . S
C1778 C1779 1.394 . S
C1778 H1786 0.930 . S
C1779 C1778 1.394 . S
C1779 C1780 1.383 . S
C1779 H1787 0.929 . S
C1780 C1779 1.383 . S
C1780 C1781 1.377 . S
C1781 H1765 0.930 . S
C1781 C1780 1.377 . S
C1781 C1782 1.379 . S
C1782 H1766 0.931 . S
C1782 C1776 1.383 . S
C1782 C1781 1.379 . S
H1783 C1777 0.959 . S
H1784 C1777 0.961 . S
H1785 C1777 0.960 . S
H1786 C1778 0.930 . S
H1787 C1779 0.929 . S
H1788 C1796 0.929 . S
H1789 C1798 0.930 . S
H1790 C1800 0.930 . S
H1791 C1803 0.929 . S
H1792 C1806 0.930 . S
H1793 C1808 0.960 . S
H1794 C1808 0.960 . S
H1795 C1808 0.960 . S
C1796 H1788 0.929 . S
C1796 C1797 1.377 . S
C1796 C1798 1.384 . S
C1797 C1796 1.377 . S
C1797 C1803 1.390 . S
C1798 H1789 0.930 . S
C1798 C1796 1.384 . S
C1798 C1799 1.372 . S
C1799 C1798 1.372 . S
C1799 C1800 1.400 . S
C1799 C1804 1.490 . S
C1800 H1790 0.930 . S
C1800 C1799 1.400 . S
C1800 C1803 1.386 . S
H1801 C1817 0.930 . S
H1802 C1818 0.931 . S
C1803 H1791 0.929 . S
C1803 C1797 1.390 . S
C1803 C1800 1.386 . S
C1804 C1799 1.490 . S
C1804 C1806 1.395 . S
C1804 C1807 1.403 . S
H1805 C1811 0.930 . S
C1806 H1792 0.930 . S
C1806 C1804 1.395 . S
C1806 C1809 1.403 . S
C1807 C1804 1.403 . S
C1807 C1808 1.524 . S
C1807 C1811 1.400 . S
C1808 H1793 0.960 . S
C1808 H1794 0.960 . S
C1808 H1795 0.960 . S
C1808 C1807 1.524 . S
C1809 C1806 1.403 . S
C1809 C1810 1.392 . S
C1809 C1813 1.495 . S
C1810 C1809 1.392 . S
C1810 C1811 1.385 . S
C1810 C1812 1.478 . S
C1811 H1805 0.930 . S
C1811 C1807 1.400 . S
C1811 C1810 1.385 . S
C1812 C1810 1.478 . S
C1812 C1814 1.381 . S
C1812 C1818 1.383 . S
C1813 C1809 1.495 . S
C1813 H1819 0.959 . S
C1813 H1820 0.961 . S
C1813 H1821 0.960 . S
C1814 C1812 1.381 . S
C1814 C1815 1.394 . S
C1814 H1822 0.930 . S
C1815 C1814 1.394 . S
C1815 C1816 1.383 . S
C1815 H1823 0.929 . S
C1816 C1815 1.383 . S
C1816 C1817 1.377 . S
C1817 H1801 0.930 . S
C1817 C1816 1.377 . S
C1817 C1818 1.379 . S
C1818 H1802 0.931 . S
C1818 C1812 1.383 . S
C1818 C1817 1.379 . S
H1819 C1813 0.959 . S
H1820 C1813 0.961 . S
H1821 C1813 0.960 . S
H1822 C1814 0.930 . S
H1823 C1815 0.929 . S
H1824 C1832 0.929 . S
H1825 C1834 0.930 . S
H1826 C1836 0.930 . S
H1827 C1839 0.929 . S
H1828 C1842 0.930 . S
H1829 C1844 0.960 . S
H1830 C1844 0.960 . S
H1831 C1844 0.960 . S
C1832 H1824 0.929 . S
C1832 C1833 1.377 . S
C1832 C1834 1.384 . S
C1833 C1832 1.377 . S
C1833 C1839 1.390 . S
C1834 H1825 0.930 . S
C1834 C1832 1.384 . S
C1834 C1835 1.372 . S
C1835 C1834 1.372 . S
C1835 C1836 1.400 . S
C1835 C1840 1.490 . S
C1836 H1826 0.930 . S
C1836 C1835 1.400 . S
C1836 C1839 1.386 . S
H1837 C1853 0.930 . S
H1838 C1854 0.931 . S
C1839 H1827 0.929 . S
C1839 C1833 1.390 . S
C1839 C1836 1.386 . S
C1840 C1835 1.490 . S
C1840 C1842 1.395 . S
C1840 C1843 1.403 . S
H1841 C1847 0.930 . S
C1842 H1828 0.930 . S
C1842 C1840 1.395 . S
C1842 C1845 1.403 . S
C1843 C1840 1.403 . S
C1843 C1844 1.524 . S
C1843 C1847 1.400 . S
C1844 H1829 0.960 . S
C1844 H1830 0.960 . S
C1844 H1831 0.960 . S
C1844 C1843 1.524 . S
C1845 C1842 1.403 . S
C1845 C1846 1.392 . S
C1845 C1849 1.495 . S
C1846 C1845 1.392 . S
C1846 C1847 1.385 . S
C1846 C1848 1.478 . S
C1847 H1841 0.930 . S
C1847 C1843 1.400 . S
C1847 C1846 1.385 . S
C1848 C1846 1.478 . S
C1848 C1850 1.381 . S
C1848 C1854 1.383 . S
C1849 C1845 1.495 . S
C1849 H1855 0.959 . S
C1849 H1856 0.961 . S
C1849 H1857 0.960 . S
C1850 C1848 1.381 . S
C1850 C1851 1.394 . S
C1850 H1858 0.930 . S
C1851 C1850 1.394 . S
C1851 C1852 1.383 . S
C1851 H1859 0.929 1_554 S
C1852 C1851 1.383 . S
C1852 C1853 1.377 . S
C1853 H1837 0.930 . S
C1853 C1852 1.377 . S
C1853 C1854 1.379 . S
C1854 H1838 0.931 . S
C1854 C1848 1.383 . S
C1854 C1853 1.379 . S
H1855 C1849 0.959 . S
H1856 C1849 0.961 . S
H1857 C1849 0.960 . S
H1858 C1850 0.930 . S
H1859 C1851 0.929 1_556 S
H1860 C1868 0.929 . S
H1861 C1870 0.930 . S
H1862 C1872 0.930 . S
H1863 C1875 0.929 . S
H1864 C1878 0.930 . S
H1865 C1880 0.960 . S
H1866 C1880 0.960 . S
H1867 C1880 0.960 . S
C1868 H1860 0.929 . S
C1868 C1869 1.377 . S
C1868 C1870 1.384 . S
C1869 C1868 1.377 . S
C1869 C1875 1.390 . S
C1870 H1861 0.930 . S
C1870 C1868 1.384 . S
C1870 C1871 1.372 . S
C1871 C1870 1.372 . S
C1871 C1872 1.400 . S
C1871 C1876 1.490 . S
C1872 H1862 0.930 . S
C1872 C1871 1.400 . S
C1872 C1875 1.386 . S
H1873 C1889 0.930 . S
H1874 C1890 0.931 . S
C1875 H1863 0.929 . S
C1875 C1869 1.390 . S
C1875 C1872 1.386 . S
C1876 C1871 1.490 . S
C1876 C1878 1.395 . S
C1876 C1879 1.403 . S
H1877 C1883 0.930 . S
C1878 H1864 0.930 . S
C1878 C1876 1.395 . S
C1878 C1881 1.403 . S
C1879 C1876 1.403 . S
C1879 C1880 1.524 . S
C1879 C1883 1.400 . S
C1880 H1865 0.960 . S
C1880 H1866 0.960 . S
C1880 H1867 0.960 . S
C1880 C1879 1.524 . S
C1881 C1878 1.403 . S
C1881 C1882 1.392 . S
C1881 C1885 1.495 . S
C1882 C1881 1.392 . S
C1882 C1883 1.385 . S
C1882 C1884 1.478 . S
C1883 H1877 0.930 . S
C1883 C1879 1.400 . S
C1883 C1882 1.385 . S
C1884 C1882 1.478 . S
C1884 C1886 1.381 . S
C1884 C1890 1.383 . S
C1885 C1881 1.495 . S
C1885 H1891 0.959 . S
C1885 H1892 0.961 . S
C1885 H1893 0.960 . S
C1886 C1884 1.381 . S
C1886 C1887 1.394 . S
C1886 H1894 0.930 . S
C1887 C1886 1.394 . S
C1887 C1888 1.383 . S
C1887 H1895 0.929 . S
C1888 C1887 1.383 . S
C1888 C1889 1.377 . S
C1889 H1873 0.930 . S
C1889 C1888 1.377 . S
C1889 C1890 1.379 . S
C1890 H1874 0.931 . S
C1890 C1884 1.383 . S
C1890 C1889 1.379 . S
H1891 C1885 0.959 . S
H1892 C1885 0.961 . S
H1893 C1885 0.960 . S
H1894 C1886 0.930 . S
H1895 C1887 0.929 . S
H1896 C1904 0.929 . S
H1897 C1906 0.930 . S
H1898 C1908 0.930 . S
H1899 C1911 0.929 . S
H1900 C1914 0.930 . S
H1901 C1916 0.960 . S
H1902 C1916 0.960 . S
H1903 C1916 0.960 . S
C1904 H1896 0.929 . S
C1904 C1905 1.377 . S
C1904 C1906 1.384 . S
C1905 C1904 1.377 . S
C1905 C1911 1.390 . S
C1906 H1897 0.930 . S
C1906 C1904 1.384 . S
C1906 C1907 1.372 . S
C1907 C1906 1.372 . S
C1907 C1908 1.400 . S
C1907 C1912 1.490 . S
C1908 H1898 0.930 . S
C1908 C1907 1.400 . S
C1908 C1911 1.386 . S
H1909 C1925 0.930 . S
H1910 C1926 0.931 . S
C1911 H1899 0.929 . S
C1911 C1905 1.390 . S
C1911 C1908 1.386 . S
C1912 C1907 1.490 . S
C1912 C1914 1.395 . S
C1912 C1915 1.403 . S
H1913 C1919 0.930 . S
C1914 H1900 0.930 . S
C1914 C1912 1.395 . S
C1914 C1917 1.403 . S
C1915 C1912 1.403 . S
C1915 C1916 1.524 . S
C1915 C1919 1.400 . S
C1916 H1901 0.960 . S
C1916 H1902 0.960 . S
C1916 H1903 0.960 . S
C1916 C1915 1.524 . S
C1917 C1914 1.403 . S
C1917 C1918 1.392 . S
C1917 C1921 1.495 . S
C1918 C1917 1.392 . S
C1918 C1919 1.385 . S
C1918 C1920 1.478 . S
C1919 H1913 0.930 . S
C1919 C1915 1.400 . S
C1919 C1918 1.385 . S
C1920 C1918 1.478 . S
C1920 C1922 1.381 . S
C1920 C1926 1.383 . S
C1921 C1917 1.495 . S
C1921 H1927 0.959 . S
C1921 H1928 0.961 . S
C1921 H1929 0.960 . S
C1922 C1920 1.381 . S
C1922 C1923 1.394 . S
C1922 H1930 0.930 . S
C1923 C1922 1.394 . S
C1923 C1924 1.383 . S
C1923 H1931 0.929 . S
C1924 C1923 1.383 . S
C1924 C1925 1.377 . S
C1925 H1909 0.930 . S
C1925 C1924 1.377 . S
C1925 C1926 1.379 . S
C1926 H1910 0.931 . S
C1926 C1920 1.383 . S
C1926 C1925 1.379 . S
H1927 C1921 0.959 . S
H1928 C1921 0.961 . S
H1929 C1921 0.960 . S
H1930 C1922 0.930 . S
H1931 C1923 0.929 . S
H1932 C1940 0.929 . S
H1933 C1942 0.930 . S
H1934 C1944 0.930 . S
H1935 C1947 0.929 . S
H1936 C1950 0.930 . S
H1937 C1952 0.960 . S
H1938 C1952 0.960 . S
H1939 C1952 0.960 . S
C1940 H1932 0.929 . S
C1940 C1941 1.377 . S
C1940 C1942 1.384 . S
C1941 C1940 1.377 . S
C1941 C1947 1.390 . S
C1942 H1933 0.930 . S
C1942 C1940 1.384 . S
C1942 C1943 1.372 . S
C1943 C1942 1.372 . S
C1943 C1944 1.400 . S
C1943 C1948 1.490 . S
C1944 H1934 0.930 . S
C1944 C1943 1.400 . S
C1944 C1947 1.386 . S
H1945 C1961 0.930 . S
H1946 C1962 0.931 . S
C1947 H1935 0.929 . S
C1947 C1941 1.390 . S
C1947 C1944 1.386 . S
C1948 C1943 1.490 . S
C1948 C1950 1.395 . S
C1948 C1951 1.403 . S
H1949 C1955 0.930 . S
C1950 H1936 0.930 . S
C1950 C1948 1.395 . S
C1950 C1953 1.403 . S
C1951 C1948 1.403 . S
C1951 C1952 1.524 . S
C1951 C1955 1.400 . S
C1952 H1937 0.960 . S
C1952 H1938 0.960 . S
C1952 H1939 0.960 . S
C1952 C1951 1.524 . S
C1953 C1950 1.403 . S
C1953 C1954 1.392 . S
C1953 C1957 1.495 . S
C1954 C1953 1.392 . S
C1954 C1955 1.385 . S
C1954 C1956 1.478 . S
C1955 H1949 0.930 . S
C1955 C1951 1.400 . S
C1955 C1954 1.385 . S
C1956 C1954 1.478 . S
C1956 C1958 1.381 . S
C1956 C1962 1.383 . S
C1957 C1953 1.495 . S
C1957 H1963 0.959 . S
C1957 H1964 0.961 . S
C1957 H1965 0.960 . S
C1958 C1956 1.381 . S
C1958 C1959 1.394 . S
C1958 H1966 0.930 . S
C1959 C1958 1.394 . S
C1959 C1960 1.383 . S
C1959 H1967 0.929 . S
C1960 C1959 1.383 . S
C1960 C1961 1.377 . S
C1961 H1945 0.930 . S
C1961 C1960 1.377 . S
C1961 C1962 1.379 . S
C1962 H1946 0.931 . S
C1962 C1956 1.383 . S
C1962 C1961 1.379 . S
H1963 C1957 0.959 . S
H1964 C1957 0.961 . S
H1965 C1957 0.960 . S
H1966 C1958 0.930 . S
H1967 C1959 0.929 . S
C537 N344 1.584 . S
C556 N14 1.599 . S
C573 N47 1.586 . S
C592 N377 1.605 . S
C609 N278 1.588 . S
C628 N80 1.608 . S
C645 N113 1.593 . S
C664 N311 1.582 . S
C681 N476 1.587 . S
C700 N146 1.603 . S
C717 N179 1.586 . S
C736 N509 1.581 . S
C753 N212 1.584 . S
C772 N410 1.591 . S
C789 N443 1.588 . S
C808 N245 1.599 . S
C825 C490 0.727 . S
C844 C8 0.744 . S
C861 C523 0.727 . S
C880 C41 0.747 . S
C897 C74 0.729 . S
C916 C424 0.758 . S
C933 C457 0.738 . S
C952 C107 0.726 . S
C969 C140 0.729 . S
C988 C358 0.749 . S
C1005 C173 0.736 . S
C1024 C391 0.745 . S
C1041 C292 0.738 . S
C1060 C206 0.719 . S
C1077 C239 0.737 . S
C1096 C325 0.734 . S
C1113 C226 0.733 . S
C1132 C272 0.725 . S
C1149 C259 0.729 . S
C1168 C305 0.750 . S
C1185 C160 0.739 . S
C1204 C338 0.721 . S
C1221 C371 0.729 . S
C1240 C193 0.764 . S
C1257 C404 0.731 . S
C1276 C94 0.758 . S
C1293 C437 0.729 . S
C1312 C127 0.749 . S
C1329 C470 0.729 . S
C1348 C28 0.719 . S
C1365 C61 0.727 . S
C1384 C503 0.739 . S
C1401 N368 1.738 . S
C1420 C17 1.712 . S
C1437 C50 1.729 . S
C1456 N269 1.727 . S
C1473 C83 1.729 . S
C1492 N302 1.730 . S
C1509 C116 1.729 . S
C1528 N335 1.728 . S
C1545 N170 1.737 . S
C1564 C149 1.731 . S
C1581 C182 1.728 . S
C1600 N203 1.736 . S
C1617 N236 1.737 . S
C1636 C215 1.725 . S
C1653 C248 1.727 . S
C1672 N137 1.739 . S
C1689 N104 1.734 . S
C1708 C281 1.733 . S
C1725 C314 1.727 . S
C1744 N5 1.737 . S
C1761 C347 1.724 . S
C1780 N38 1.741 . S
C1797 N71 1.734 . S
C1816 C380 1.731 . S
C1833 N434 1.737 . S
C1852 C413 1.720 . S
C1869 N467 1.738 . S
C1888 C446 1.735 . S
C1905 C479 1.727 . S
C1924 N500 1.730 . S
C1941 N401 1.734 . S
C1960 C512 1.711 . S
