# Generated by pormake.
# Topology umq, (4)-cn, num edge types: 1
# Building blocks:
#     Node 0, Type 0, BuildingBlock: AZAVOO_clean_sbu_0, # of connection points: 4
#     Node 1, Type 0, BuildingBlock: AZAVOO_clean_sbu_0, # of connection points: 4
#     Node 2, Type 0, BuildingBlock: AZAVOO_clean_sbu_0, # of connection points: 4
#     Node 3, Type 0, BuildingBlock: AZAVOO_clean_sbu_0, # of connection points: 4
#     Node 4, Type 0, BuildingBlock: AZAVOO_clean_sbu_0, # of connection points: 4
#     Node 5, Type 0, BuildingBlock: AZAVOO_clean_sbu_0, # of connection points: 4
#     Node 6, Type 0, BuildingBlock: AZAVOO_clean_sbu_0, # of connection points: 4
#     Node 7, Type 0, BuildingBlock: AZAVOO_clean_sbu_0, # of connection points: 4
#     Node 8, Type 0, BuildingBlock: AZAVOO_clean_sbu_0, # of connection points: 4
#     Node 9, Type 0, BuildingBlock: AZAVOO_clean_sbu_0, # of connection points: 4
#     Node 10, Type 0, BuildingBlock: AZAVOO_clean_sbu_0, # of connection points: 4
#     Node 11, Type 0, BuildingBlock: AZAVOO_clean_sbu_0, # of connection points: 4
#     Node 12, Type 0, BuildingBlock: AZAVOO_clean_sbu_0, # of connection points: 4
#     Node 13, Type 0, BuildingBlock: AZAVOO_clean_sbu_0, # of connection points: 4
#     Node 14, Type 0, BuildingBlock: AZAVOO_clean_sbu_0, # of connection points: 4
#     Node 15, Type 0, BuildingBlock: AZAVOO_clean_sbu_0, # of connection points: 4
#     Node 16, Type 0, BuildingBlock: AZAVOO_clean_sbu_0, # of connection points: 4
#     Node 17, Type 0, BuildingBlock: AZAVOO_clean_sbu_0, # of connection points: 4
#     Node 18, Type 0, BuildingBlock: AZAVOO_clean_sbu_0, # of connection points: 4
#     Node 19, Type 0, BuildingBlock: AZAVOO_clean_sbu_0, # of connection points: 4
#     Node 20, Type 0, BuildingBlock: AZAVOO_clean_sbu_0, # of connection points: 4
#     Node 21, Type 0, BuildingBlock: AZAVOO_clean_sbu_0, # of connection points: 4
#     Node 22, Type 0, BuildingBlock: AZAVOO_clean_sbu_0, # of connection points: 4
#     Node 23, Type 0, BuildingBlock: AZAVOO_clean_sbu_0, # of connection points: 4
#     Node 24, Type 0, BuildingBlock: AZAVOO_clean_sbu_0, # of connection points: 4
#     Node 25, Type 0, BuildingBlock: AZAVOO_clean_sbu_0, # of connection points: 4
#     Node 26, Type 0, BuildingBlock: AZAVOO_clean_sbu_0, # of connection points: 4
#     Node 27, Type 0, BuildingBlock: AZAVOO_clean_sbu_0, # of connection points: 4
#     Node 28, Type 0, BuildingBlock: AZAVOO_clean_sbu_0, # of connection points: 4
#     Node 29, Type 0, BuildingBlock: AZAVOO_clean_sbu_0, # of connection points: 4
#     Node 30, Type 0, BuildingBlock: AZAVOO_clean_sbu_0, # of connection points: 4
#     Node 31, Type 0, BuildingBlock: AZAVOO_clean_sbu_0, # of connection points: 4
#     Edge 32, Type (0, 0), BuildingBlock: XIVTED_clean_linker_0, # of connection points: 2
#     Edge 33, Type (0, 0), BuildingBlock: XIVTED_clean_linker_0, # of connection points: 2
#     Edge 34, Type (0, 0), BuildingBlock: XIVTED_clean_linker_0, # of connection points: 2
#     Edge 35, Type (0, 0), BuildingBlock: XIVTED_clean_linker_0, # of connection points: 2
#     Edge 36, Type (0, 0), BuildingBlock: XIVTED_clean_linker_0, # of connection points: 2
#     Edge 37, Type (0, 0), BuildingBlock: XIVTED_clean_linker_0, # of connection points: 2
#     Edge 38, Type (0, 0), BuildingBlock: XIVTED_clean_linker_0, # of connection points: 2
#     Edge 39, Type (0, 0), BuildingBlock: XIVTED_clean_linker_0, # of connection points: 2
#     Edge 40, Type (0, 0), BuildingBlock: XIVTED_clean_linker_0, # of connection points: 2
#     Edge 41, Type (0, 0), BuildingBlock: XIVTED_clean_linker_0, # of connection points: 2
#     Edge 42, Type (0, 0), BuildingBlock: XIVTED_clean_linker_0, # of connection points: 2
#     Edge 43, Type (0, 0), BuildingBlock: XIVTED_clean_linker_0, # of connection points: 2
#     Edge 44, Type (0, 0), BuildingBlock: XIVTED_clean_linker_0, # of connection points: 2
#     Edge 45, Type (0, 0), BuildingBlock: XIVTED_clean_linker_0, # of connection points: 2
#     Edge 46, Type (0, 0), BuildingBlock: XIVTED_clean_linker_0, # of connection points: 2
#     Edge 47, Type (0, 0), BuildingBlock: XIVTED_clean_linker_0, # of connection points: 2
#     Edge 48, Type (0, 0), BuildingBlock: XIVTED_clean_linker_0, # of connection points: 2
#     Edge 49, Type (0, 0), BuildingBlock: XIVTED_clean_linker_0, # of connection points: 2
#     Edge 50, Type (0, 0), BuildingBlock: XIVTED_clean_linker_0, # of connection points: 2
#     Edge 51, Type (0, 0), BuildingBlock: XIVTED_clean_linker_0, # of connection points: 2
#     Edge 52, Type (0, 0), BuildingBlock: XIVTED_clean_linker_0, # of connection points: 2
#     Edge 53, Type (0, 0), BuildingBlock: XIVTED_clean_linker_0, # of connection points: 2
#     Edge 54, Type (0, 0), BuildingBlock: XIVTED_clean_linker_0, # of connection points: 2
#     Edge 55, Type (0, 0), BuildingBlock: XIVTED_clean_linker_0, # of connection points: 2
#     Edge 56, Type (0, 0), BuildingBlock: XIVTED_clean_linker_0, # of connection points: 2
#     Edge 57, Type (0, 0), BuildingBlock: XIVTED_clean_linker_0, # of connection points: 2
#     Edge 58, Type (0, 0), BuildingBlock: XIVTED_clean_linker_0, # of connection points: 2
#     Edge 59, Type (0, 0), BuildingBlock: XIVTED_clean_linker_0, # of connection points: 2
#     Edge 60, Type (0, 0), BuildingBlock: XIVTED_clean_linker_0, # of connection points: 2
#     Edge 61, Type (0, 0), BuildingBlock: XIVTED_clean_linker_0, # of connection points: 2
#     Edge 62, Type (0, 0), BuildingBlock: XIVTED_clean_linker_0, # of connection points: 2
#     Edge 63, Type (0, 0), BuildingBlock: XIVTED_clean_linker_0, # of connection points: 2
#     Edge 64, Type (0, 0), BuildingBlock: XIVTED_clean_linker_0, # of connection points: 2
#     Edge 65, Type (0, 0), BuildingBlock: XIVTED_clean_linker_0, # of connection points: 2
#     Edge 66, Type (0, 0), BuildingBlock: XIVTED_clean_linker_0, # of connection points: 2
#     Edge 67, Type (0, 0), BuildingBlock: XIVTED_clean_linker_0, # of connection points: 2
#     Edge 68, Type (0, 0), BuildingBlock: XIVTED_clean_linker_0, # of connection points: 2
#     Edge 69, Type (0, 0), BuildingBlock: XIVTED_clean_linker_0, # of connection points: 2
#     Edge 70, Type (0, 0), BuildingBlock: XIVTED_clean_linker_0, # of connection points: 2
#     Edge 71, Type (0, 0), BuildingBlock: XIVTED_clean_linker_0, # of connection points: 2
#     Edge 72, Type (0, 0), BuildingBlock: XIVTED_clean_linker_0, # of connection points: 2
#     Edge 73, Type (0, 0), BuildingBlock: XIVTED_clean_linker_0, # of connection points: 2
#     Edge 74, Type (0, 0), BuildingBlock: XIVTED_clean_linker_0, # of connection points: 2
#     Edge 75, Type (0, 0), BuildingBlock: XIVTED_clean_linker_0, # of connection points: 2
#     Edge 76, Type (0, 0), BuildingBlock: XIVTED_clean_linker_0, # of connection points: 2
#     Edge 77, Type (0, 0), BuildingBlock: XIVTED_clean_linker_0, # of connection points: 2
#     Edge 78, Type (0, 0), BuildingBlock: XIVTED_clean_linker_0, # of connection points: 2
#     Edge 79, Type (0, 0), BuildingBlock: XIVTED_clean_linker_0, # of connection points: 2
#     Edge 80, Type (0, 0), BuildingBlock: XIVTED_clean_linker_0, # of connection points: 2
#     Edge 81, Type (0, 0), BuildingBlock: XIVTED_clean_linker_0, # of connection points: 2
#     Edge 82, Type (0, 0), BuildingBlock: XIVTED_clean_linker_0, # of connection points: 2
#     Edge 83, Type (0, 0), BuildingBlock: XIVTED_clean_linker_0, # of connection points: 2
#     Edge 84, Type (0, 0), BuildingBlock: XIVTED_clean_linker_0, # of connection points: 2
#     Edge 85, Type (0, 0), BuildingBlock: XIVTED_clean_linker_0, # of connection points: 2
#     Edge 86, Type (0, 0), BuildingBlock: XIVTED_clean_linker_0, # of connection points: 2
#     Edge 87, Type (0, 0), BuildingBlock: XIVTED_clean_linker_0, # of connection points: 2
#     Edge 88, Type (0, 0), BuildingBlock: XIVTED_clean_linker_0, # of connection points: 2
#     Edge 89, Type (0, 0), BuildingBlock: XIVTED_clean_linker_0, # of connection points: 2
#     Edge 90, Type (0, 0), BuildingBlock: XIVTED_clean_linker_0, # of connection points: 2
#     Edge 91, Type (0, 0), BuildingBlock: XIVTED_clean_linker_0, # of connection points: 2
#     Edge 92, Type (0, 0), BuildingBlock: XIVTED_clean_linker_0, # of connection points: 2
#     Edge 93, Type (0, 0), BuildingBlock: XIVTED_clean_linker_0, # of connection points: 2
#     Edge 94, Type (0, 0), BuildingBlock: XIVTED_clean_linker_0, # of connection points: 2
#     Edge 95, Type (0, 0), BuildingBlock: XIVTED_clean_linker_0, # of connection points: 2
# Relax obj value: 0.100
# Max RMSD: 0.122
# Mean RMSD: 0.122
data_MOF--net-umq--node1-AZAVOO_clean_sbu_0--edge1-XIVTED_clean_linker_0
_symmetry_space_group_name_H-M    P1
_symmetry_Int_Tables_number       1
_symmetry_cell_setting            triclinic
loop_
_symmetry_equiv_pos_as_xyz
'x, y, z'
_cell_length_a     65.121636
_cell_length_b     65.112984
_cell_length_c     45.448815
_cell_angle_alpha  90.018675
_cell_angle_beta   90.072186
_cell_angle_gamma 89.991289
loop_
_atom_site_label
_atom_site_type_symbol
_atom_site_fract_x
_atom_site_fract_y
_atom_site_fract_z
_atom_type_partial_charge
Mg0 Mg 0.23193 0.08688 0.17496 0.0
O1 O 0.25299 0.11425 0.18602 0.0
O2 O 0.24966 0.12012 0.23426 0.0
Mg3 Mg 0.22801 0.09677 0.25438 0.0
C4 C 0.25735 0.12448 0.20922 0.0
C5 C 0.24421 0.06767 0.11488 0.0
O6 O 0.23615 0.05173 0.1283 0.0
O7 O 0.25533 0.06469 0.19515 0.0
O8 O 0.25089 0.07136 0.24301 0.0
O9 O 0.20535 0.10832 0.16919 0.0
O10 O 0.21344 0.09345 0.21125 0.0
C11 C 0.25961 0.06143 0.22224 0.0
C12 C 0.20212 0.10629 0.19714 0.0
O13 O 0.24581 0.08451 0.12888 0.0
Mg14 Mg 0.89931 0.23071 0.17354 0.0
O15 O 0.87246 0.25171 0.18642 0.0
O16 O 0.86787 0.24893 0.23496 0.0
Mg17 Mg 0.89174 0.227 0.25348 0.0
C18 C 0.86292 0.25643 0.21 0.0
C19 C 0.91461 0.24283 0.11033 0.0
O20 O 0.93129 0.23371 0.12008 0.0
O21 O 0.92216 0.25408 0.19219 0.0
O22 O 0.917 0.2496 0.24041 0.0
O23 O 0.87776 0.20417 0.16917 0.0
O24 O 0.89395 0.21218 0.21028 0.0
C25 C 0.92633 0.25827 0.21905 0.0
C26 C 0.88072 0.20085 0.19694 0.0
O27 O 0.8994 0.24491 0.12758 0.0
Mg28 Mg 0.7614 0.90513 0.17101 0.0
O29 O 0.74143 0.8772 0.18293 0.0
O30 O 0.74465 0.87166 0.23124 0.0
Mg31 Mg 0.76507 0.89637 0.25082 0.0
C32 C 0.73733 0.8669 0.20609 0.0
C33 C 0.74735 0.88915 0.11007 0.0
O34 O 0.75352 0.87222 0.12306 0.0
O35 O 0.7369 0.92657 0.19008 0.0
O36 O 0.7411 0.92048 0.23815 0.0
O37 O 0.78884 0.88474 0.16634 0.0
O38 O 0.77989 0.89984 0.20786 0.0
C39 C 0.73216 0.92982 0.217 0.0
C40 C 0.79178 0.88724 0.19428 0.0
O41 O 0.74771 0.90589 0.12451 0.0
Mg42 Mg 0.08985 0.76203 0.1738 0.0
O43 O 0.11711 0.74075 0.18453 0.0
O44 O 0.12259 0.74327 0.23298 0.0
Mg45 Mg 0.09913 0.76464 0.25349 0.0
C46 C 0.12715 0.736 0.20774 0.0
C47 C 0.07091 0.75087 0.11316 0.0
O48 O 0.05516 0.75939 0.12647 0.0
O49 O 0.06749 0.73842 0.19282 0.0
O50 O 0.0737 0.74205 0.24095 0.0
O51 O 0.11138 0.78862 0.16923 0.0
O52 O 0.09625 0.77994 0.21081 0.0
C53 C 0.06395 0.73372 0.21966 0.0
C54 C 0.10921 0.79143 0.19726 0.0
O55 O 0.08762 0.7487 0.12734 0.0
Mg56 Mg 0.23281 0.90185 0.33648 0.0
O57 O 0.25423 0.87467 0.32571 0.0
O58 O 0.25137 0.86908 0.27733 0.0
Mg59 Mg 0.22975 0.89235 0.25687 0.0
C60 C 0.25886 0.86462 0.30248 0.0
C61 C 0.24463 0.9211 0.3967 0.0
O62 O 0.23688 0.93705 0.38288 0.0
O63 O 0.25625 0.92431 0.31708 0.0
O64 O 0.25229 0.91788 0.26906 0.0
O65 O 0.20621 0.88026 0.34129 0.0
O66 O 0.21475 0.89539 0.29966 0.0
C67 C 0.26073 0.92775 0.29013 0.0
C68 C 0.20325 0.88251 0.3133 0.0
O69 O 0.24619 0.90417 0.38294 0.0
Mg70 Mg 0.08846 0.23098 0.32887 0.0
O71 O 0.11525 0.25283 0.31855 0.0
O72 O 0.12088 0.25088 0.27013 0.0
Mg73 Mg 0.09814 0.22878 0.24931 0.0
C74 C 0.12517 0.25809 0.29551 0.0
C75 C 0.06969 0.24143 0.39003 0.0
O76 O 0.05398 0.23247 0.37716 0.0
O77 O 0.06565 0.25417 0.30968 0.0
O78 O 0.07194 0.25054 0.2616 0.0
O79 O 0.11041 0.20476 0.33361 0.0
O80 O 0.09533 0.21327 0.29186 0.0
C81 C 0.06194 0.25865 0.28279 0.0
C82 C 0.10834 0.2019 0.30557 0.0
O83 O 0.08607 0.24415 0.37537 0.0
Mg84 Mg 0.75867 0.08665 0.33103 0.0
O85 O 0.73815 0.11458 0.32105 0.0
O86 O 0.74055 0.1207 0.27278 0.0
Mg87 Mg 0.76131 0.09695 0.25163 0.0
C88 C 0.73352 0.12506 0.29822 0.0
C89 C 0.74862 0.06821 0.39226 0.0
O90 O 0.75815 0.0528 0.37954 0.0
O91 O 0.73442 0.06514 0.31147 0.0
O92 O 0.73813 0.07192 0.26353 0.0
O93 O 0.78585 0.1074 0.33607 0.0
O94 O 0.77664 0.09295 0.29415 0.0
C95 C 0.7296 0.06208 0.28453 0.0
C96 C 0.78853 0.10542 0.30798 0.0
O97 O 0.74539 0.08447 0.37747 0.0
Mg98 Mg 0.90416 0.76341 0.32909 0.0
O99 O 0.87691 0.74244 0.31764 0.0
O100 O 0.8711 0.74488 0.26931 0.0
Mg101 Mg 0.89482 0.76628 0.24935 0.0
C102 C 0.86673 0.73764 0.29462 0.0
C103 C 0.88923 0.74874 0.39038 0.0
O104 O 0.87194 0.75446 0.37793 0.0
O105 O 0.92629 0.7396 0.30992 0.0
O106 O 0.91999 0.74337 0.26182 0.0
O107 O 0.88296 0.79027 0.3337 0.0
O108 O 0.89808 0.78147 0.29215 0.0
C109 C 0.9297 0.73489 0.28303 0.0
C110 C 0.88531 0.79317 0.30573 0.0
O111 O 0.90576 0.74977 0.37555 0.0
Mg112 Mg 0.763 0.90085 0.82934 0.0
O113 O 0.74169 0.87379 0.81786 0.0
O114 O 0.74453 0.8681 0.76953 0.0
Mg115 Mg 0.76638 0.89144 0.74971 0.0
C116 C 0.737 0.86374 0.79467 0.0
C117 C 0.74834 0.88673 0.89104 0.0
O118 O 0.75406 0.86924 0.87918 0.0
O119 O 0.73961 0.92323 0.8097 0.0
O120 O 0.74377 0.91698 0.76169 0.0
O121 O 0.78953 0.87928 0.83458 0.0
O122 O 0.78125 0.89437 0.79276 0.0
C123 C 0.73523 0.92677 0.78273 0.0
C124 C 0.79265 0.88146 0.80662 0.0
O125 O 0.74923 0.903 0.8756 0.0
Mg126 Mg 0.08761 0.76004 0.83299 0.0
O127 O 0.11565 0.73953 0.82354 0.0
O128 O 0.12199 0.74193 0.77532 0.0
Mg129 Mg 0.09827 0.76251 0.75368 0.0
C130 C 0.12626 0.73494 0.80083 0.0
C131 C 0.06855 0.74921 0.8937 0.0
O132 O 0.05274 0.75753 0.88024 0.0
O133 O 0.06627 0.73565 0.81336 0.0
O134 O 0.07327 0.73928 0.76548 0.0
O135 O 0.10822 0.78734 0.838 0.0
O136 O 0.094 0.77793 0.79602 0.0
C137 C 0.06335 0.73076 0.78641 0.0
C138 C 0.10634 0.78993 0.80988 0.0
O139 O 0.08524 0.74698 0.87957 0.0
Mg140 Mg 0.2316 0.08743 0.83473 0.0
O141 O 0.25248 0.115 0.82411 0.0
O142 O 0.24999 0.12044 0.77567 0.0
Mg143 Mg 0.22901 0.09666 0.75503 0.0
C144 C 0.25713 0.12511 0.80096 0.0
C145 C 0.24333 0.06882 0.8955 0.0
O146 O 0.23535 0.05275 0.88226 0.0
O147 O 0.25553 0.06532 0.81579 0.0
O148 O 0.25185 0.0715 0.76767 0.0
O149 O 0.20468 0.10862 0.8391 0.0
O150 O 0.21367 0.09349 0.79762 0.0
C151 C 0.26027 0.06183 0.78894 0.0
C152 C 0.20196 0.10632 0.81106 0.0
O153 O 0.24492 0.08555 0.88125 0.0
Mg154 Mg 0.90493 0.22861 0.82923 0.0
O155 O 0.87788 0.25059 0.82036 0.0
O156 O 0.87084 0.24818 0.77231 0.0
Mg157 Mg 0.893 0.22619 0.75025 0.0
C158 C 0.86725 0.25557 0.7978 0.0
C159 C 0.8947 0.24398 0.89315 0.0
O160 O 0.87601 0.23989 0.88394 0.0
O161 O 0.92709 0.25169 0.80855 0.0
O162 O 0.91942 0.24812 0.76085 0.0
O163 O 0.88293 0.20248 0.83533 0.0
O164 O 0.89683 0.21095 0.79279 0.0
C165 C 0.92998 0.25624 0.7815 0.0
C166 C 0.88411 0.1997 0.80717 0.0
O167 O 0.90965 0.24177 0.87545 0.0
Mg168 Mg 0.75839 0.0889 0.67182 0.0
O169 O 0.7363 0.1155 0.68279 0.0
O170 O 0.73885 0.12059 0.73131 0.0
Mg171 Mg 0.76127 0.09797 0.75151 0.0
C172 C 0.73129 0.12513 0.70623 0.0
C173 C 0.74769 0.06935 0.61172 0.0
O174 O 0.75644 0.05395 0.62559 0.0
O175 O 0.7356 0.06577 0.69102 0.0
O176 O 0.73961 0.07171 0.73914 0.0
O177 O 0.78437 0.11113 0.66695 0.0
O178 O 0.77632 0.09578 0.70863 0.0
C179 C 0.73139 0.06183 0.7179 0.0
C180 C 0.78746 0.10897 0.69493 0.0
O181 O 0.74507 0.08618 0.62542 0.0
Mg182 Mg 0.90528 0.75858 0.67082 0.0
O183 O 0.87787 0.73775 0.68258 0.0
O184 O 0.87228 0.74124 0.73084 0.0
Mg185 Mg 0.89618 0.76255 0.75047 0.0
C186 C 0.86772 0.73356 0.70585 0.0
C187 C 0.89044 0.74439 0.60937 0.0
O188 O 0.87322 0.7503 0.62179 0.0
O189 O 0.92742 0.7349 0.69046 0.0
O190 O 0.9211 0.73931 0.73841 0.0
O191 O 0.88409 0.78538 0.66551 0.0
O192 O 0.89922 0.77714 0.70732 0.0
C193 C 0.93076 0.7305 0.71748 0.0
C194 C 0.88636 0.78858 0.69343 0.0
O195 O 0.90691 0.74482 0.62446 0.0
Mg196 Mg 0.23058 0.90277 0.67693 0.0
O197 O 0.25141 0.87523 0.68759 0.0
O198 O 0.24887 0.86936 0.7359 0.0
Mg199 Mg 0.22755 0.89291 0.75643 0.0
C200 C 0.25612 0.86498 0.7106 0.0
C201 C 0.24238 0.92135 0.6161 0.0
O202 O 0.234 0.93738 0.62892 0.0
O203 O 0.25444 0.92469 0.69657 0.0
O204 O 0.25049 0.91815 0.74455 0.0
O205 O 0.20366 0.88168 0.67184 0.0
O206 O 0.21245 0.89649 0.71366 0.0
C207 C 0.25904 0.92797 0.72354 0.0
C208 C 0.20076 0.88383 0.69985 0.0
O209 O 0.2442 0.90477 0.63064 0.0
Mg210 Mg 0.09074 0.22779 0.66939 0.0
O211 O 0.11756 0.24956 0.68036 0.0
O212 O 0.12279 0.24727 0.72888 0.0
Mg213 Mg 0.09965 0.22547 0.74918 0.0
C214 C 0.12734 0.25458 0.70368 0.0
C215 C 0.07135 0.23985 0.60941 0.0
O216 O 0.05536 0.23243 0.62344 0.0
O217 O 0.068 0.25117 0.68809 0.0
O218 O 0.07397 0.24766 0.73629 0.0
O219 O 0.11263 0.2014 0.66521 0.0
O220 O 0.09716 0.21009 0.70653 0.0
C221 C 0.06424 0.25585 0.71487 0.0
C222 C 0.11026 0.19862 0.69321 0.0
O223 O 0.08844 0.24098 0.62288 0.0
Mg224 Mg 0.73293 0.58648 0.67847 0.0
O225 O 0.75435 0.614 0.68709 0.0
O226 O 0.75181 0.62131 0.73502 0.0
Mg227 Mg 0.73009 0.59892 0.75721 0.0
C228 C 0.75916 0.62485 0.7095 0.0
C229 C 0.74809 0.59676 0.61464 0.0
O230 O 0.74347 0.61535 0.62374 0.0
O231 O 0.75636 0.5649 0.69966 0.0
O232 O 0.75247 0.57274 0.74723 0.0
O233 O 0.70635 0.60786 0.67179 0.0
O234 O 0.71501 0.59447 0.71463 0.0
C235 C 0.76084 0.5622 0.72679 0.0
C236 C 0.70347 0.60678 0.69993 0.0
O237 O 0.7463 0.58179 0.63242 0.0
Mg238 Mg 0.40208 0.73149 0.67366 0.0
O239 O 0.37494 0.75219 0.6865 0.0
O240 O 0.37037 0.74935 0.73504 0.0
Mg241 Mg 0.39478 0.72812 0.75368 0.0
C242 C 0.36529 0.75671 0.71007 0.0
C243 C 0.41726 0.7441 0.61051 0.0
O244 O 0.43424 0.73563 0.62037 0.0
O245 O 0.42473 0.75516 0.6919 0.0
O246 O 0.41948 0.75126 0.74023 0.0
O247 O 0.38082 0.70473 0.66965 0.0
O248 O 0.39705 0.71306 0.71063 0.0
C249 C 0.42869 0.7598 0.71866 0.0
C250 C 0.38385 0.70159 0.69745 0.0
O251 O 0.4019 0.74555 0.62762 0.0
Mg252 Mg 0.25708 0.40571 0.67271 0.0
O253 O 0.23599 0.37822 0.68263 0.0
O254 O 0.23798 0.37249 0.73104 0.0
Mg255 Mg 0.25901 0.39598 0.7523 0.0
C256 C 0.23105 0.36801 0.70556 0.0
C257 C 0.24691 0.42423 0.61136 0.0
O258 O 0.25581 0.43993 0.62431 0.0
O259 O 0.23314 0.42788 0.69152 0.0
O260 O 0.23655 0.42147 0.73961 0.0
O261 O 0.28388 0.3844 0.66845 0.0
O262 O 0.27471 0.3993 0.71001 0.0
C263 C 0.22832 0.43133 0.71835 0.0
C264 C 0.28642 0.38649 0.69656 0.0
O265 O 0.24414 0.40783 0.62601 0.0
Mg266 Mg 0.58712 0.26309 0.67992 0.0
O267 O 0.61351 0.24041 0.68944 0.0
O268 O 0.61988 0.24261 0.7377 0.0
Mg269 Mg 0.59812 0.26528 0.75918 0.0
C270 C 0.62364 0.23511 0.71232 0.0
C271 C 0.59749 0.24723 0.61615 0.0
O272 O 0.61626 0.25067 0.62559 0.0
O273 O 0.56411 0.24063 0.70009 0.0
O274 O 0.57122 0.2441 0.74797 0.0
O275 O 0.60981 0.28872 0.67434 0.0
O276 O 0.59523 0.28056 0.71652 0.0
C277 C 0.56072 0.23623 0.72707 0.0
C278 C 0.60833 0.29157 0.70245 0.0
O279 O 0.58251 0.25002 0.63362 0.0
Mg280 Mg 0.73318 0.40188 0.83996 0.0
O281 O 0.75467 0.37484 0.8289 0.0
O282 O 0.75207 0.36979 0.78037 0.0
Mg283 Mg 0.73039 0.39312 0.7602 0.0
C284 C 0.75946 0.36508 0.80549 0.0
C285 C 0.74582 0.42114 0.89984 0.0
O286 O 0.73889 0.43734 0.88574 0.0
O287 O 0.7566 0.42449 0.82116 0.0
O288 O 0.75279 0.41867 0.77297 0.0
O289 O 0.70674 0.38018 0.8445 0.0
O290 O 0.7152 0.39552 0.80298 0.0
C291 C 0.76115 0.4283 0.79435 0.0
C292 C 0.70382 0.38246 0.8165 0.0
O293 O 0.7465 0.40402 0.88641 0.0
Mg294 Mg 0.58944 0.73082 0.83169 0.0
O295 O 0.61647 0.75216 0.82046 0.0
O296 O 0.62186 0.74935 0.77206 0.0
Mg297 Mg 0.59865 0.72735 0.75215 0.0
C298 C 0.62638 0.75688 0.79717 0.0
C299 C 0.57046 0.74366 0.89182 0.0
O300 O 0.55423 0.73601 0.87856 0.0
O301 O 0.56687 0.75396 0.81205 0.0
O302 O 0.57282 0.74974 0.76399 0.0
O303 O 0.61115 0.70458 0.83724 0.0
O304 O 0.59606 0.71246 0.79522 0.0
C305 C 0.56307 0.75822 0.78513 0.0
C306 C 0.60911 0.70133 0.80928 0.0
O307 O 0.58728 0.7447 0.87774 0.0
Mg308 Mg 0.26088 0.58908 0.83284 0.0
O309 O 0.24042 0.61707 0.82289 0.0
O310 O 0.24297 0.62314 0.77461 0.0
Mg311 Mg 0.26358 0.59927 0.75343 0.0
C312 C 0.2359 0.62756 0.80001 0.0
C313 C 0.25101 0.57063 0.894 0.0
O314 O 0.2604 0.55522 0.88106 0.0
O315 O 0.23647 0.56769 0.81335 0.0
O316 O 0.2403 0.57436 0.7654 0.0
O317 O 0.28822 0.60968 0.83775 0.0
O318 O 0.27885 0.59522 0.79593 0.0
C319 C 0.23168 0.5646 0.7864 0.0
C320 C 0.29087 0.60762 0.80968 0.0
O321 O 0.24773 0.58693 0.87934 0.0
Mg322 Mg 0.39838 0.26508 0.83744 0.0
O323 O 0.3718 0.24287 0.8271 0.0
O324 O 0.36629 0.24481 0.77861 0.0
Mg325 Mg 0.38886 0.26698 0.75778 0.0
C326 C 0.36199 0.23756 0.80395 0.0
C327 C 0.41841 0.25421 0.89724 0.0
O328 O 0.43384 0.26258 0.88301 0.0
O329 O 0.42134 0.24203 0.81849 0.0
O330 O 0.4151 0.24535 0.77033 0.0
O331 O 0.37614 0.29117 0.84181 0.0
O332 O 0.3914 0.28254 0.80031 0.0
C333 C 0.42508 0.23739 0.79169 0.0
C334 C 0.37826 0.29388 0.81375 0.0
O335 O 0.40134 0.25206 0.88397 0.0
Mg336 Mg 0.26045 0.40334 0.33234 0.0
O337 O 0.23873 0.37659 0.3207 0.0
O338 O 0.24188 0.37134 0.27229 0.0
Mg339 Mg 0.26428 0.39422 0.25275 0.0
C340 C 0.23408 0.36683 0.29721 0.0
C341 C 0.24833 0.42287 0.39199 0.0
O342 O 0.25667 0.43854 0.37825 0.0
O343 O 0.23769 0.42628 0.31251 0.0
O344 O 0.24219 0.42025 0.26451 0.0
O345 O 0.2865 0.38124 0.33789 0.0
O346 O 0.27882 0.39661 0.29604 0.0
C347 C 0.23367 0.43011 0.28551 0.0
C348 C 0.28985 0.38343 0.30999 0.0
O349 O 0.24653 0.40591 0.37835 0.0
Mg350 Mg 0.5898 0.26055 0.3364 0.0
O351 O 0.6172 0.24017 0.32378 0.0
O352 O 0.62223 0.24345 0.27538 0.0
Mg353 Mg 0.59793 0.26478 0.25662 0.0
C354 C 0.6271 0.23589 0.30032 0.0
C355 C 0.57443 0.24818 0.39943 0.0
O356 O 0.55769 0.25711 0.38956 0.0
O357 O 0.56761 0.23674 0.31721 0.0
O358 O 0.57323 0.24139 0.26912 0.0
O359 O 0.61077 0.28752 0.3413 0.0
O360 O 0.59502 0.27934 0.2999 0.0
C361 C 0.5639 0.23246 0.29024 0.0
C362 C 0.60795 0.29087 0.31351 0.0
O363 O 0.58972 0.24623 0.38229 0.0
Mg364 Mg 0.73431 0.59113 0.33424 0.0
O365 O 0.75486 0.61826 0.32083 0.0
O366 O 0.75196 0.6223 0.27219 0.0
Mg367 Mg 0.73089 0.59759 0.25407 0.0
C368 C 0.7593 0.62769 0.29704 0.0
C369 C 0.74701 0.57648 0.39758 0.0
O370 O 0.73874 0.55938 0.38784 0.0
O371 O 0.75812 0.56843 0.31657 0.0
O372 O 0.75419 0.57318 0.26813 0.0
O373 O 0.70747 0.61231 0.33777 0.0
O374 O 0.71586 0.59572 0.29715 0.0
C375 C 0.7628 0.56425 0.28991 0.0
C376 C 0.70435 0.60902 0.31002 0.0
O377 O 0.74835 0.59178 0.38032 0.0
Mg378 Mg 0.40893 0.7328 0.32888 0.0
O379 O 0.38136 0.75423 0.32052 0.0
O380 O 0.37448 0.75231 0.27239 0.0
Mg381 Mg 0.39719 0.73114 0.24981 0.0
C382 C 0.37065 0.75926 0.29806 0.0
C383 C 0.39818 0.74701 0.3931 0.0
O384 O 0.37964 0.74254 0.38364 0.0
O385 O 0.4306 0.75663 0.30892 0.0
O386 O 0.42317 0.75346 0.2611 0.0
O387 O 0.38758 0.70608 0.33422 0.0
O388 O 0.40131 0.71542 0.29194 0.0
C389 C 0.4335 0.76155 0.28201 0.0
C390 C 0.38887 0.70367 0.306 0.0
O391 O 0.41324 0.74547 0.37545 0.0
Mg392 Mg 0.26339 0.59099 0.17366 0.0
O393 O 0.24182 0.61811 0.18373 0.0
O394 O 0.24403 0.62394 0.23211 0.0
Mg395 Mg 0.26579 0.601 0.25315 0.0
C396 C 0.2368 0.62821 0.20673 0.0
C397 C 0.25244 0.57138 0.11346 0.0
O398 O 0.26094 0.55581 0.12725 0.0
O399 O 0.23994 0.56861 0.19303 0.0
O400 O 0.24361 0.57509 0.24107 0.0
O401 O 0.28987 0.61265 0.16879 0.0
O402 O 0.28116 0.59784 0.21061 0.0
C403 C 0.23537 0.56512 0.21992 0.0
C404 C 0.29268 0.61067 0.19685 0.0
O405 O 0.25019 0.58825 0.12719 0.0
Mg406 Mg 0.40401 0.25926 0.17835 0.0
O407 O 0.37679 0.23775 0.18802 0.0
O408 O 0.37071 0.23977 0.23633 0.0
Mg409 Mg 0.39369 0.26129 0.25776 0.0
C410 C 0.36654 0.23268 0.21084 0.0
C411 C 0.42236 0.25077 0.11661 0.0
O412 O 0.43731 0.26111 0.12919 0.0
O413 O 0.42636 0.23568 0.19771 0.0
O414 O 0.41956 0.2391 0.24569 0.0
O415 O 0.38244 0.28577 0.17348 0.0
O416 O 0.39709 0.27692 0.2154 0.0
C417 C 0.42967 0.23096 0.22462 0.0
C418 C 0.3843 0.28848 0.20158 0.0
O419 O 0.40655 0.24636 0.13172 0.0
Mg420 Mg 0.73074 0.40446 0.1798 0.0
O421 O 0.75136 0.37691 0.19122 0.0
O422 O 0.74886 0.37178 0.23972 0.0
Mg423 Mg 0.7277 0.39579 0.25953 0.0
C424 C 0.75602 0.36696 0.21452 0.0
C425 C 0.74353 0.42252 0.11906 0.0
O426 O 0.73594 0.43895 0.13185 0.0
O427 O 0.7547 0.42644 0.1988 0.0
O428 O 0.75077 0.42083 0.24701 0.0
O429 O 0.7038 0.38346 0.17505 0.0
O430 O 0.71254 0.39867 0.21663 0.0
C431 C 0.75934 0.43021 0.22561 0.0
C432 C 0.70087 0.38586 0.20302 0.0
O433 O 0.74446 0.40586 0.13359 0.0
Mg434 Mg 0.59255 0.73111 0.17127 0.0
O435 O 0.62017 0.75192 0.18166 0.0
O436 O 0.62568 0.74993 0.23013 0.0
Mg437 Mg 0.60189 0.72905 0.25094 0.0
C438 C 0.63029 0.75683 0.20471 0.0
C439 C 0.57361 0.74343 0.11099 0.0
O440 O 0.55736 0.73631 0.12474 0.0
O441 O 0.57074 0.75536 0.1899 0.0
O442 O 0.57682 0.75197 0.2381 0.0
O443 O 0.61349 0.70398 0.16715 0.0
O444 O 0.59853 0.71343 0.20853 0.0
C445 C 0.56725 0.76032 0.21666 0.0
C446 C 0.61117 0.70146 0.19521 0.0
O447 O 0.59062 0.74421 0.12472 0.0
H448 H 0.35518 0.20943 0.16274 0.0
H449 H 0.2659 0.1526 0.25191 0.0
H450 H 0.33861 0.22231 0.25289 0.0
H451 H 0.28222 0.13594 0.16294 0.0
H452 H 0.29116 0.17991 0.25056 0.0
H453 H 0.32734 0.18408 0.1604 0.0
C454 C 0.34566 0.20703 0.18196 0.0
C455 C 0.34935 0.21793 0.20813 0.0
C456 C 0.28925 0.17036 0.23124 0.0
C457 C 0.31757 0.18906 0.20555 0.0
C458 C 0.27479 0.15468 0.232 0.0
C459 C 0.27202 0.14178 0.20758 0.0
C460 C 0.30122 0.17324 0.20592 0.0
C461 C 0.28389 0.14546 0.18232 0.0
C462 C 0.32981 0.19255 0.18061 0.0
C463 C 0.33652 0.21419 0.23232 0.0
N464 N 0.2981 0.16081 0.18219 0.0
N465 N 0.32129 0.20008 0.23043 0.0
H466 H 0.84954 0.27911 0.16259 0.0
H467 H 0.76659 0.34023 0.25826 0.0
H468 H 0.83741 0.26804 0.25467 0.0
H469 H 0.77827 0.3536 0.16669 0.0
H470 H 0.79126 0.31233 0.25592 0.0
H471 H 0.82229 0.30504 0.1623 0.0
C472 C 0.84111 0.28203 0.18269 0.0
C473 C 0.84589 0.27145 0.20875 0.0
C474 C 0.78843 0.3213 0.23627 0.0
C475 C 0.81476 0.30106 0.20852 0.0
C476 C 0.77432 0.3373 0.23759 0.0
C477 C 0.77042 0.34943 0.21267 0.0
C478 C 0.79887 0.31732 0.20988 0.0
C479 C 0.78084 0.34471 0.18647 0.0
C480 C 0.82558 0.29685 0.18249 0.0
C481 C 0.83442 0.27587 0.2341 0.0
N482 N 0.79469 0.32906 0.18579 0.0
N483 N 0.81947 0.29035 0.23334 0.0
H484 H 0.64231 0.77985 0.15685 0.0
H485 H 0.72878 0.83889 0.24898 0.0
H486 H 0.65791 0.76704 0.24743 0.0
H487 H 0.71398 0.85416 0.15891 0.0
H488 H 0.7044 0.81074 0.24688 0.0
H489 H 0.66996 0.80537 0.15531 0.0
C490 C 0.6516 0.78228 0.17632 0.0
C491 C 0.64764 0.77139 0.20239 0.0
C492 C 0.70648 0.82017 0.22749 0.0
C493 C 0.6792 0.80051 0.20075 0.0
C494 C 0.72043 0.83631 0.22868 0.0
C495 C 0.72332 0.84907 0.20417 0.0
C496 C 0.69517 0.8167 0.20165 0.0
C497 C 0.71217 0.84477 0.17839 0.0
C498 C 0.66735 0.79687 0.17543 0.0
C499 C 0.66021 0.77517 0.22692 0.0
N500 N 0.69846 0.82901 0.17786 0.0
N501 N 0.67532 0.78943 0.2255 0.0
H502 H 0.21326 0.63969 0.15897 0.0
H503 H 0.15499 0.72688 0.25057 0.0
H504 H 0.22626 0.6557 0.24935 0.0
H505 H 0.13912 0.712 0.16073 0.0
H506 H 0.18263 0.702 0.24862 0.0
H507 H 0.18748 0.66717 0.15735 0.0
C508 C 0.2108 0.64902 0.17838 0.0
C509 C 0.22186 0.64526 0.20441 0.0
C510 C 0.17318 0.70414 0.22924 0.0
C511 C 0.19249 0.67661 0.20267 0.0
C512 C 0.15731 0.71838 0.23035 0.0
C513 C 0.14455 0.72146 0.20584 0.0
C514 C 0.17639 0.69269 0.20349 0.0
C515 C 0.14853 0.71009 0.18018 0.0
C516 C 0.19608 0.66466 0.17744 0.0
C517 C 0.21804 0.65785 0.22886 0.0
N518 N 0.16406 0.69608 0.17972 0.0
N519 N 0.20367 0.67286 0.22738 0.0
H520 H 0.26689 0.83601 0.26036 0.0
H521 H 0.35953 0.78216 0.34665 0.0
H522 H 0.28472 0.85407 0.34822 0.0
H523 H 0.34175 0.76895 0.257 0.0
H524 H 0.33094 0.80667 0.34999 0.0
H525 H 0.29276 0.80929 0.26129 0.0
C526 C 0.27624 0.83435 0.27995 0.0
C527 C 0.27374 0.84749 0.30414 0.0
C528 C 0.33333 0.79831 0.32969 0.0
C529 C 0.30369 0.81673 0.3053 0.0
C530 C 0.34961 0.78433 0.32775 0.0
C531 C 0.35317 0.77359 0.30142 0.0
C532 C 0.32054 0.80143 0.30516 0.0
C533 C 0.3398 0.77697 0.27768 0.0
C534 C 0.29106 0.81901 0.28047 0.0
C535 C 0.28618 0.84433 0.32902 0.0
N536 N 0.32417 0.79058 0.28013 0.0
N537 N 0.30077 0.82933 0.3289 0.0
H538 H 0.22376 0.34045 0.25303 0.0
H539 H 0.13729 0.28065 0.34389 0.0
H540 H 0.21012 0.35427 0.34391 0.0
H541 H 0.15168 0.27 0.25237 0.0
H542 H 0.16474 0.30642 0.34588 0.0
H543 H 0.19832 0.31331 0.25401 0.0
C544 C 0.21542 0.33779 0.27328 0.0
C545 C 0.21904 0.34981 0.29839 0.0
C546 C 0.16187 0.29836 0.32544 0.0
C547 C 0.18963 0.31852 0.29963 0.0
C548 C 0.14624 0.28364 0.32428 0.0
C549 C 0.14207 0.2732 0.29787 0.0
C550 C 0.1734 0.30257 0.30004 0.0
C551 C 0.15417 0.27771 0.27318 0.0
C552 C 0.20085 0.32221 0.27382 0.0
C553 C 0.2078 0.34542 0.32401 0.0
N554 N 0.1692 0.29204 0.27489 0.0
N555 N 0.1935 0.33017 0.32395 0.0
H556 H 0.71104 0.13738 0.34645 0.0
H557 H 0.65437 0.22663 0.25674 0.0
H558 H 0.72358 0.15304 0.25587 0.0
H559 H 0.63941 0.2117 0.3468 0.0
H560 H 0.68153 0.2011 0.25783 0.0
H561 H 0.68641 0.1658 0.34874 0.0
C562 C 0.70872 0.14682 0.32712 0.0
C563 C 0.7193 0.14269 0.30086 0.0
C564 C 0.67239 0.20341 0.27744 0.0
C565 C 0.69121 0.17516 0.30336 0.0
C566 C 0.65682 0.21802 0.27683 0.0
C567 C 0.64443 0.22123 0.30165 0.0
C568 C 0.67564 0.19175 0.30301 0.0
C569 C 0.64853 0.20969 0.32712 0.0
C570 C 0.69465 0.16302 0.32844 0.0
C571 C 0.71569 0.15547 0.27653 0.0
N572 N 0.66372 0.19534 0.32708 0.0
N573 N 0.70193 0.17103 0.27837 0.0
H574 H 0.76923 0.65367 0.25214 0.0
H575 H 0.85407 0.71581 0.34321 0.0
H576 H 0.78221 0.64185 0.34383 0.0
H577 H 0.84024 0.72565 0.25128 0.0
H578 H 0.82663 0.69013 0.34524 0.0
H579 H 0.79398 0.68154 0.25285 0.0
C580 C 0.77726 0.65694 0.27249 0.0
C581 C 0.7737 0.64525 0.29792 0.0
C582 C 0.82958 0.698 0.3247 0.0
C583 C 0.80226 0.67731 0.29884 0.0
C584 C 0.84523 0.71267 0.32351 0.0
C585 C 0.84959 0.72282 0.29696 0.0
C586 C 0.81824 0.6935 0.29919 0.0
C587 C 0.83758 0.71815 0.27218 0.0
C588 C 0.79142 0.67292 0.27288 0.0
C589 C 0.7845 0.6504 0.32368 0.0
N590 N 0.82255 0.70381 0.2739 0.0
N591 N 0.79839 0.666 0.32345 0.0
H592 H 0.72636 0.83674 0.75137 0.0
H593 H 0.63932 0.77975 0.8448 0.0
H594 H 0.71348 0.85181 0.84207 0.0
H595 H 0.6529 0.76762 0.7534 0.0
H596 H 0.66741 0.80483 0.84581 0.0
H597 H 0.70061 0.80988 0.7534 0.0
C598 C 0.71814 0.8344 0.77179 0.0
C599 C 0.72202 0.84671 0.79652 0.0
C600 C 0.66422 0.7966 0.82562 0.0
C601 C 0.69227 0.8158 0.79897 0.0
C602 C 0.64821 0.78228 0.82501 0.0
C603 C 0.64363 0.77163 0.79892 0.0
C604 C 0.67571 0.80021 0.79999 0.0
C605 C 0.6557 0.77552 0.77398 0.0
C606 C 0.70339 0.81899 0.77294 0.0
C607 C 0.71094 0.84274 0.82243 0.0
N608 N 0.6711 0.78948 0.77515 0.0
N609 N 0.69646 0.82767 0.82294 0.0
H610 H 0.13746 0.71106 0.84833 0.0
H611 H 0.22837 0.65706 0.75892 0.0
H612 H 0.15543 0.72656 0.75961 0.0
H613 H 0.21099 0.63829 0.84656 0.0
H614 H 0.20337 0.68462 0.76127 0.0
H615 H 0.16583 0.68628 0.85046 0.0
C616 C 0.14742 0.70937 0.8294 0.0
C617 C 0.14392 0.72078 0.80364 0.0
C618 C 0.20501 0.67456 0.78009 0.0
C619 C 0.17629 0.69257 0.80598 0.0
C620 C 0.21931 0.65875 0.77875 0.0
C621 C 0.22166 0.64517 0.80247 0.0
C622 C 0.19275 0.67685 0.80526 0.0
C623 C 0.20963 0.64835 0.82771 0.0
C624 C 0.16357 0.69522 0.83064 0.0
C625 C 0.15733 0.71799 0.77983 0.0
N626 N 0.19554 0.6638 0.82837 0.0
N627 N 0.17282 0.70415 0.78157 0.0
H628 H 0.35079 0.21372 0.85149 0.0
H629 H 0.26618 0.15291 0.75811 0.0
H630 H 0.33507 0.22635 0.7609 0.0
H631 H 0.28038 0.13777 0.84841 0.0
H632 H 0.29033 0.18116 0.76051 0.0
H633 H 0.32406 0.18716 0.85255 0.0
C634 C 0.34168 0.21102 0.83191 0.0
C635 C 0.34531 0.2222 0.80599 0.0
C636 C 0.2882 0.17174 0.77989 0.0
C637 C 0.31482 0.19193 0.80709 0.0
C638 C 0.27438 0.15551 0.77852 0.0
C639 C 0.27132 0.14279 0.80304 0.0
C640 C 0.29923 0.17536 0.80592 0.0
C641 C 0.2823 0.14714 0.82895 0.0
C642 C 0.32646 0.19584 0.83253 0.0
C643 C 0.33301 0.21805 0.78132 0.0
N644 N 0.29589 0.16303 0.82967 0.0
N645 N 0.31842 0.20325 0.78249 0.0
H646 H 0.83859 0.26555 0.75655 0.0
H647 H 0.78376 0.35289 0.85216 0.0
H648 H 0.85693 0.27948 0.84575 0.0
H649 H 0.76881 0.33785 0.76205 0.0
H650 H 0.8092 0.32504 0.85224 0.0
H651 H 0.81149 0.29088 0.76024 0.0
C652 C 0.83694 0.27394 0.777 0.0
C653 C 0.85023 0.27047 0.8008 0.0
C654 C 0.80025 0.32785 0.83255 0.0
C655 C 0.81899 0.29976 0.80516 0.0
C656 C 0.78572 0.3437 0.83249 0.0
C657 C 0.77422 0.34784 0.80698 0.0
C658 C 0.80318 0.31608 0.80698 0.0
C659 C 0.7774 0.33543 0.78216 0.0
C660 C 0.82137 0.28845 0.77911 0.0
C661 C 0.84709 0.28172 0.82681 0.0
N662 N 0.79157 0.32022 0.7828 0.0
N663 N 0.83183 0.29599 0.82826 0.0
H664 H 0.6506 0.22349 0.75502 0.0
H665 H 0.70773 0.13782 0.65901 0.0
H666 H 0.63485 0.21176 0.66418 0.0
H667 H 0.72032 0.15116 0.75039 0.0
H668 H 0.68203 0.16545 0.6588 0.0
H669 H 0.67729 0.19772 0.75201 0.0
C670 C 0.65273 0.21549 0.73435 0.0
C671 C 0.64031 0.21975 0.70986 0.0
C672 C 0.6905 0.16229 0.6788 0.0
C673 C 0.67111 0.18993 0.70626 0.0
C674 C 0.70517 0.14656 0.67895 0.0
C675 C 0.71615 0.14206 0.7048 0.0
C676 C 0.68689 0.17356 0.70466 0.0
C677 C 0.7122 0.1539 0.72997 0.0
C678 C 0.66806 0.20071 0.73264 0.0
C679 C 0.64403 0.20892 0.68364 0.0
N680 N 0.69793 0.16901 0.72924 0.0
N681 N 0.65907 0.1944 0.68255 0.0
H682 H 0.78263 0.63533 0.66126 0.0
H683 H 0.83946 0.72568 0.74851 0.0
H684 H 0.7692 0.65364 0.75056 0.0
H685 H 0.85604 0.70845 0.65987 0.0
H686 H 0.81196 0.70062 0.74747 0.0
H687 H 0.80798 0.66315 0.65826 0.0
C688 C 0.78492 0.64522 0.68015 0.0
C689 C 0.77388 0.64201 0.7063 0.0
C690 C 0.82153 0.70229 0.72815 0.0
C691 C 0.80272 0.67377 0.70296 0.0
C692 C 0.83732 0.71663 0.72874 0.0
C693 C 0.85025 0.71907 0.70433 0.0
C694 C 0.8186 0.69008 0.70304 0.0
C695 C 0.84649 0.70702 0.67924 0.0
C696 C 0.79938 0.66107 0.67841 0.0
C697 C 0.77744 0.65534 0.73003 0.0
N698 N 0.83106 0.6929 0.6793 0.0
N699 N 0.79155 0.67052 0.72779 0.0
H700 H 0.27873 0.85264 0.66252 0.0
H701 H 0.33868 0.76658 0.75422 0.0
H702 H 0.26706 0.83788 0.75365 0.0
H703 H 0.35201 0.77995 0.66312 0.0
H704 H 0.311 0.79154 0.75291 0.0
H705 H 0.30424 0.82498 0.66083 0.0
C706 C 0.28142 0.84355 0.6821 0.0
C707 C 0.27082 0.84772 0.70833 0.0
C708 C 0.3199 0.78901 0.73313 0.0
C709 C 0.29993 0.81614 0.70652 0.0
C710 C 0.33578 0.77474 0.73386 0.0
C711 C 0.34783 0.77123 0.70879 0.0
C712 C 0.316 0.80003 0.70717 0.0
C713 C 0.34316 0.78219 0.683 0.0
C714 C 0.296 0.82779 0.68111 0.0
C715 C 0.27493 0.8354 0.73299 0.0
N716 N 0.32766 0.79621 0.6829 0.0
N717 N 0.28918 0.82027 0.73148 0.0
H718 H 0.15487 0.26435 0.74662 0.0
H719 H 0.20876 0.35535 0.65718 0.0
H720 H 0.13828 0.27946 0.65714 0.0
H721 H 0.22102 0.34029 0.7481 0.0
H722 H 0.18463 0.32644 0.65478 0.0
H723 H 0.18111 0.29074 0.74541 0.0
C724 C 0.15676 0.2732 0.72662 0.0
C725 C 0.14418 0.26977 0.70202 0.0
C726 C 0.19269 0.32949 0.67517 0.0
C727 C 0.17436 0.30028 0.70054 0.0
C728 C 0.20646 0.34596 0.67657 0.0
C729 C 0.21685 0.35037 0.70294 0.0
C730 C 0.1894 0.31736 0.70028 0.0
C731 C 0.21328 0.33766 0.72734 0.0
C732 C 0.17181 0.28831 0.72595 0.0
C733 C 0.14759 0.28162 0.67665 0.0
N734 N 0.19987 0.32182 0.7254 0.0
N735 N 0.16229 0.29648 0.67662 0.0
H736 H 0.24206 0.03424 0.07849 0.0
H737 H 0.25648 0.10017 0.9314 0.0
H738 H 0.25639 0.09897 0.07827 0.0
H739 H 0.24069 0.03579 0.93255 0.0
H740 H 0.26044 0.09925 0.98493 0.0
H741 H 0.2455 0.03375 0.02503 0.0
C742 C 0.24614 0.04833 0.06725 0.0
C743 C 0.24874 0.06672 0.08293 0.0
C744 C 0.25628 0.08528 0.97343 0.0
C745 C 0.25255 0.06629 0.0215 0.0
C746 C 0.25405 0.08578 0.94284 0.0
C747 C 0.24804 0.06807 0.92743 0.0
C748 C 0.25245 0.06694 0.98878 0.0
C749 C 0.24518 0.04986 0.94347 0.0
C750 C 0.24807 0.04803 0.03666 0.0
C751 C 0.25413 0.08445 0.06711 0.0
N752 N 0.24726 0.04982 0.97323 0.0
N753 N 0.25566 0.08384 0.03726 0.0
H754 H 0.93172 0.24687 0.92181 0.0
H755 H 0.88038 0.25666 0.08122 0.0
H756 H 0.86638 0.25137 0.93641 0.0
H757 H 0.9439 0.24043 0.06714 0.0
H758 H 0.87609 0.26085 0.02814 0.0
H759 H 0.93736 0.25052 0.97476 0.0
C760 C 0.91856 0.24887 0.93607 0.0
C761 C 0.89851 0.24859 0.92463 0.0
C762 C 0.89101 0.25655 0.03669 0.0
C763 C 0.9049 0.25274 0.98533 0.0
C764 C 0.89351 0.25422 0.06703 0.0
C765 C 0.91249 0.24796 0.07869 0.0
C766 C 0.90762 0.25267 0.0178 0.0
C767 C 0.92894 0.24509 0.05915 0.0
C768 C 0.9218 0.25088 0.96634 0.0
C769 C 0.88209 0.2513 0.94424 0.0
N770 N 0.92609 0.24733 0.02967 0.0
N771 N 0.88564 0.25313 0.97361 0.0
H772 H 0.74162 0.92087 0.92544 0.0
H773 H 0.74238 0.85571 0.07457 0.0
H774 H 0.74386 0.85467 0.92925 0.0
H775 H 0.74156 0.92198 0.07278 0.0
H776 H 0.73863 0.85527 0.02124 0.0
H777 H 0.73739 0.9218 0.97899 0.0
C778 C 0.74098 0.90653 0.93746 0.0
C779 C 0.74332 0.88767 0.92283 0.0
C780 C 0.73909 0.86993 0.03246 0.0
C781 C 0.73858 0.88863 0.9841 0.0
C782 C 0.74122 0.8702 0.06299 0.0
C783 C 0.74251 0.88891 0.07819 0.0
C784 C 0.73838 0.88853 0.01683 0.0
C785 C 0.74073 0.90719 0.06196 0.0
C786 C 0.73861 0.90707 0.96804 0.0
C787 C 0.74232 0.86958 0.93956 0.0
N788 N 0.73898 0.90654 0.03211 0.0
N789 N 0.74019 0.87053 0.96926 0.0
H790 H 0.03547 0.75284 0.93042 0.0
H791 H 0.10164 0.73664 0.07709 0.0
H792 H 0.09966 0.73628 0.9302 0.0
H793 H 0.03783 0.75462 0.07634 0.0
H794 H 0.10033 0.73264 0.02359 0.0
H795 H 0.03518 0.74972 0.98392 0.0
C796 C 0.04947 0.74835 0.94158 0.0
C797 C 0.06767 0.74501 0.92575 0.0
C798 C 0.08657 0.73729 0.03516 0.0
C799 C 0.06748 0.74154 0.98722 0.0
C800 C 0.08729 0.73954 0.06575 0.0
C801 C 0.06987 0.74616 0.08126 0.0
C802 C 0.06831 0.74171 0.01994 0.0
C803 C 0.0517 0.74963 0.06534 0.0
C804 C 0.0493 0.74659 0.97219 0.0
C805 C 0.0853 0.73912 0.94147 0.0
N806 N 0.05144 0.74752 0.03559 0.0
N807 N 0.08481 0.73775 0.97134 0.0
H808 H 0.24235 0.95477 0.43261 0.0
H809 H 0.25607 0.88988 0.58088 0.0
H810 H 0.25635 0.88997 0.43397 0.0
H811 H 0.23963 0.95409 0.57851 0.0
H812 H 0.26031 0.89044 0.5274 0.0
H813 H 0.24544 0.95561 0.48611 0.0
C814 C 0.24628 0.94073 0.44411 0.0
C815 C 0.24889 0.92222 0.42873 0.0
C816 C 0.25595 0.90445 0.53862 0.0
C817 C 0.25232 0.92305 0.49021 0.0
C818 C 0.25356 0.90416 0.56919 0.0
C819 C 0.24728 0.92193 0.58424 0.0
C820 C 0.25203 0.92264 0.52294 0.0
C821 C 0.24433 0.93998 0.56788 0.0
C822 C 0.24801 0.94122 0.47472 0.0
C823 C 0.25408 0.90457 0.44489 0.0
N824 N 0.24657 0.93982 0.53814 0.0
N825 N 0.25544 0.90538 0.47475 0.0
H826 H 0.03745 0.23783 0.57389 0.0
H827 H 0.10091 0.25558 0.42533 0.0
H828 H 0.10214 0.25223 0.57209 0.0
H829 H 0.03731 0.23698 0.42788 0.0
H830 H 0.10063 0.25881 0.47896 0.0
H831 H 0.03616 0.24184 0.52054 0.0
C832 C 0.05136 0.24203 0.56233 0.0
C833 C 0.06998 0.24449 0.57753 0.0
C834 C 0.08669 0.25419 0.46775 0.0
C835 C 0.06862 0.24901 0.51623 0.0
C836 C 0.08681 0.2524 0.4371 0.0
C837 C 0.06915 0.2458 0.42205 0.0
C838 C 0.06877 0.24937 0.48351 0.0
C839 C 0.05134 0.24195 0.43852 0.0
C840 C 0.05061 0.24429 0.5318 0.0
C841 C 0.08747 0.25005 0.5613 0.0
N842 N 0.05165 0.24365 0.46832 0.0
N843 N 0.0864 0.25195 0.53152 0.0
H844 H 0.75219 0.03583 0.57602 0.0
H845 H 0.73294 0.09883 0.42732 0.0
H846 H 0.73374 0.0995 0.57433 0.0
H847 H 0.75411 0.03603 0.43017 0.0
H848 H 0.72916 0.09828 0.48089 0.0
H849 H 0.74893 0.03457 0.52258 0.0
C850 C 0.74726 0.04951 0.56446 0.0
C851 C 0.74343 0.06786 0.57973 0.0
C852 C 0.73446 0.08457 0.46976 0.0
C853 C 0.73978 0.06655 0.5183 0.0
C854 C 0.73658 0.08485 0.43914 0.0
C855 C 0.74404 0.0675 0.4242 0.0
C856 C 0.73983 0.06682 0.48557 0.0
C857 C 0.74846 0.04982 0.44072 0.0
C858 C 0.74542 0.04878 0.53387 0.0
C859 C 0.73697 0.08505 0.56349 0.0
N860 N 0.74643 0.04999 0.47048 0.0
N861 N 0.73552 0.08402 0.53365 0.0
H862 H 0.92405 0.73853 0.57364 0.0
H863 H 0.85643 0.74271 0.42669 0.0
H864 H 0.85781 0.74053 0.572 0.0
H865 H 0.92271 0.74266 0.42641 0.0
H866 H 0.85691 0.7376 0.47979 0.0
H867 H 0.92412 0.73572 0.51987 0.0
C868 C 0.90952 0.7381 0.56205 0.0
C869 C 0.89089 0.73999 0.57737 0.0
C870 C 0.87138 0.73854 0.46815 0.0
C871 C 0.89087 0.73689 0.51585 0.0
C872 C 0.87111 0.74146 0.43776 0.0
C873 C 0.88956 0.74334 0.42206 0.0
C874 C 0.89023 0.73762 0.48316 0.0
C875 C 0.90811 0.7414 0.43763 0.0
C876 C 0.90957 0.73656 0.53133 0.0
C877 C 0.87255 0.73932 0.56115 0.0
N878 N 0.90798 0.73885 0.46737 0.0
N879 N 0.87302 0.738 0.53134 0.0
H880 H 0.75199 0.55979 0.58616 0.0
H881 H 0.75964 0.61123 0.42653 0.0
H882 H 0.75463 0.62521 0.57127 0.0
H883 H 0.74579 0.54717 0.44089 0.0
H884 H 0.76385 0.61572 0.47957 0.0
H885 H 0.75567 0.55417 0.53322 0.0
C886 C 0.75359 0.57298 0.57183 0.0
C887 C 0.75277 0.59303 0.58319 0.0
C888 C 0.76006 0.60064 0.47109 0.0
C889 C 0.75695 0.58667 0.52251 0.0
C890 C 0.75771 0.59804 0.44078 0.0
C891 C 0.75212 0.57883 0.42921 0.0
C892 C 0.75687 0.58392 0.49006 0.0
C893 C 0.74993 0.5623 0.4488 0.0
C894 C 0.75562 0.56975 0.54158 0.0
C895 C 0.75498 0.6095 0.56351 0.0
N896 N 0.75216 0.56526 0.47826 0.0
N897 N 0.75683 0.60596 0.53415 0.0
H898 H 0.43501 0.7504 0.42217 0.0
H899 H 0.38276 0.75711 0.5813 0.0
H900 H 0.36952 0.75314 0.43629 0.0
H901 H 0.44677 0.74282 0.56752 0.0
H902 H 0.37857 0.76166 0.52828 0.0
H903 H 0.44034 0.75353 0.47526 0.0
C904 C 0.42174 0.7519 0.43637 0.0
C905 C 0.40176 0.7513 0.42474 0.0
C906 C 0.39357 0.7577 0.53687 0.0
C907 C 0.40779 0.75483 0.48558 0.0
C908 C 0.39601 0.75516 0.56719 0.0
C909 C 0.41511 0.74935 0.57891 0.0
C910 C 0.41037 0.75448 0.51807 0.0
C911 C 0.43172 0.74712 0.55948 0.0
C912 C 0.42482 0.75362 0.4667 0.0
C913 C 0.38519 0.75335 0.44426 0.0
N914 N 0.42893 0.74955 0.53001 0.0
N915 N 0.38857 0.7549 0.4737 0.0
H916 H 0.25124 0.45662 0.42764 0.0
H917 H 0.23245 0.39318 0.57598 0.0
H918 H 0.23493 0.39237 0.42911 0.0
H919 H 0.25171 0.45659 0.57356 0.0
H920 H 0.22914 0.3936 0.52235 0.0
H921 H 0.2473 0.45787 0.48098 0.0
C922 C 0.24663 0.4428 0.43912 0.0
C923 C 0.24362 0.4243 0.42384 0.0
C924 C 0.23392 0.40747 0.53359 0.0
C925 C 0.23919 0.42561 0.48515 0.0
C926 C 0.23577 0.40726 0.56424 0.0
C927 C 0.24256 0.42483 0.57933 0.0
C928 C 0.2389 0.42537 0.51787 0.0
C929 C 0.24658 0.44263 0.5629 0.0
C930 C 0.24441 0.44352 0.46965 0.0
C931 C 0.23754 0.40694 0.43997 0.0
N932 N 0.24484 0.4424 0.5331 0.0
N933 N 0.23571 0.40797 0.46976 0.0
H934 H 0.6258 0.23875 0.57327 0.0
H935 H 0.54493 0.25011 0.44234 0.0
H936 H 0.56058 0.24552 0.58705 0.0
H937 H 0.60885 0.23525 0.42897 0.0
H938 H 0.54986 0.24609 0.49534 0.0
H939 H 0.61954 0.23507 0.52052 0.0
C940 C 0.61014 0.23927 0.56526 0.0
C941 C 0.59371 0.24264 0.58464 0.0
C942 C 0.56276 0.24349 0.4808 0.0
C943 C 0.58644 0.23861 0.52412 0.0
C944 C 0.55995 0.24578 0.4505 0.0
C945 C 0.57654 0.24322 0.43114 0.0
C946 C 0.58235 0.23877 0.49192 0.0
C947 C 0.59563 0.2375 0.44303 0.0
C948 C 0.60657 0.23715 0.5351 0.0
C949 C 0.57373 0.24305 0.57296 0.0
N950 N 0.59806 0.2357 0.47263 0.0
N951 N 0.57068 0.24129 0.54345 0.0
H952 H 0.74491 0.45511 0.93531 0.0
H953 H 0.75611 0.39046 0.08416 0.0
H954 H 0.7564 0.38983 0.93744 0.0
H955 H 0.74214 0.45524 0.08127 0.0
H956 H 0.76047 0.39066 0.03072 0.0
H957 H 0.7481 0.45615 0.9888 0.0
C958 C 0.74831 0.44101 0.94698 0.0
C959 C 0.75017 0.42231 0.93182 0.0
C960 C 0.75663 0.40487 0.04181 0.0
C961 C 0.75372 0.42338 0.99327 0.0
C962 C 0.75417 0.40478 0.07236 0.0
C963 C 0.74854 0.42283 0.08725 0.0
C964 C 0.75342 0.42313 0.02598 0.0
C965 C 0.74632 0.44093 0.07075 0.0
C966 C 0.7501 0.44161 0.97758 0.0
C967 C 0.75471 0.40457 0.94818 0.0
N968 N 0.7486 0.44057 0.04103 0.0
N969 N 0.75614 0.40551 0.97802 0.0
H970 H 0.6049 0.75561 0.07447 0.0
H971 H 0.53726 0.74229 0.92869 0.0
H972 H 0.54008 0.74172 0.07467 0.0
H973 H 0.60223 0.75546 0.92786 0.0
H974 H 0.53728 0.74599 0.98214 0.0
H975 H 0.6035 0.75952 0.02099 0.0
C976 C 0.59032 0.75359 0.06333 0.0
C977 C 0.57262 0.74812 0.0791 0.0
C978 C 0.55151 0.74826 0.97027 0.0
C979 C 0.57094 0.75247 0.0178 0.0
C980 C 0.5515 0.74617 0.93969 0.0
C981 C 0.56981 0.74836 0.92373 0.0
C982 C 0.56997 0.75247 0.98511 0.0
C983 C 0.58777 0.75351 0.93924 0.0
C984 C 0.58955 0.7558 0.03276 0.0
C985 C 0.55416 0.74578 0.06346 0.0
N986 N 0.58743 0.7552 0.96907 0.0
N987 N 0.55384 0.7478 0.03369 0.0
H988 H 0.2564 0.53788 0.07755 0.0
H989 H 0.23586 0.60126 0.92951 0.0
H990 H 0.23842 0.6017 0.07644 0.0
H991 H 0.25666 0.53832 0.93164 0.0
H992 H 0.23269 0.60063 0.98316 0.0
H993 H 0.25253 0.53673 0.02418 0.0
C994 C 0.25144 0.55162 0.06613 0.0
C995 C 0.24792 0.56997 0.08154 0.0
C996 C 0.23777 0.58691 0.97185 0.0
C997 C 0.24357 0.56878 0.0202 0.0
C998 C 0.23954 0.58723 0.9412 0.0
C999 C 0.24672 0.56987 0.92602 0.0
C1000 C 0.24322 0.5691 0.98748 0.0
C1001 C 0.25121 0.55213 0.94237 0.0
C1002 C 0.24927 0.55095 0.03559 0.0
C1003 C 0.24143 0.58724 0.06549 0.0
N1004 N 0.24954 0.55226 0.97217 0.0
N1005 N 0.23963 0.58627 0.03569 0.0
H1006 H 0.45236 0.25836 0.93225 0.0
H1007 H 0.39191 0.23456 0.0817 0.0
H1008 H 0.38881 0.23962 0.93492 0.0
H1009 H 0.4538 0.25816 0.07816 0.0
H1010 H 0.3918 0.23198 0.02797 0.0
H1011 H 0.4544 0.25404 0.98548 0.0
C1012 C 0.43886 0.25315 0.94397 0.0
C1013 C 0.42032 0.24954 0.92906 0.0
C1014 C 0.40547 0.23755 0.03898 0.0
C1015 C 0.42254 0.24464 0.99025 0.0
C1016 C 0.40557 0.23897 0.06968 0.0
C1017 C 0.42283 0.24677 0.0845 0.0
C1018 C 0.42276 0.24394 0.02295 0.0
C1019 C 0.44009 0.25221 0.06772 0.0
C1020 C 0.44004 0.25071 0.97444 0.0
C1021 C 0.40338 0.24271 0.94549 0.0
N1022 N 0.43955 0.25082 0.03789 0.0
N1023 N 0.40486 0.24064 0.97522 0.0
H1024 H 0.27718 0.05371 0.27573 0.0
H1025 H 0.27893 0.93582 0.23725 0.0
H1026 H 0.27129 0.02851 0.18826 0.0
H1027 H 0.27134 0.96082 0.32454 0.0
H1028 H 0.2901 0.96944 0.22 0.0
H1029 H 0.28896 0.02038 0.29334 0.0
C1030 C 0.27884 0.0413 0.26003 0.0
C1031 C 0.27253 0.0437 0.23065 0.0
C1032 C 0.28649 0.96746 0.24308 0.0
C1033 C 0.28586 0.00549 0.25082 0.0
C1034 C 0.28011 0.94826 0.253 0.0
C1035 C 0.27348 0.9457 0.28219 0.0
C1036 C 0.28609 0.98424 0.26242 0.0
C1037 C 0.27587 0.9622 0.30172 0.0
C1038 C 0.28558 0.02226 0.27016 0.0
C1039 C 0.27555 0.02725 0.21122 0.0
N1040 N 0.2815 0.98094 0.29131 0.0
N1041 N 0.28153 0.00866 0.2218 0.0
H1042 H 0.95767 0.27059 0.18257 0.0
H1043 H 0.03042 0.27108 0.31893 0.0
H1044 H 0.93665 0.27462 0.27243 0.0
H1045 H 0.0515 0.27433 0.22902 0.0
H1046 H -0.00349 0.28233 0.30269 0.0
H1047 H 0.99161 0.28197 0.19859 0.0
C1048 C 0.96 0.27441 0.20553 0.0
C1049 C 0.94451 0.27092 0.22634 0.0
C1050 C 0.00868 0.28105 0.28657 0.0
C1051 C 0.98339 0.28353 0.24495 0.0
C1052 C 0.0281 0.27467 0.2959 0.0
C1053 C 0.04362 0.27102 0.27517 0.0
C1054 C 0.00475 0.28353 0.25632 0.0
C1055 C 0.03978 0.27628 0.24567 0.0
C1056 C 0.97944 0.28085 0.21473 0.0
C1057 C 0.94835 0.27644 0.25574 0.0
N1058 N 0.02061 0.28175 0.23702 0.0
N1059 N 0.96754 0.28196 0.26429 0.0
H1060 H 0.71123 0.0545 0.23151 0.0
H1061 H 0.7132 0.93683 0.26964 0.0
H1062 H 0.71816 0.02924 0.31877 0.0
H1063 H 0.71996 0.96229 0.18251 0.0
H1064 H 0.70037 0.96987 0.28691 0.0
H1065 H 0.69974 0.02104 0.21396 0.0
C1066 C 0.70982 0.04205 0.24719 0.0
C1067 C 0.71643 0.04446 0.27644 0.0
C1068 C 0.70415 0.96809 0.26385 0.0
C1069 C 0.70345 0.00611 0.25635 0.0
C1070 C 0.71149 0.94922 0.25392 0.0
C1071 C 0.7184 0.94704 0.22481 0.0
C1072 C 0.7039 0.98491 0.24459 0.0
C1073 C 0.71526 0.96342 0.2053 0.0
C1074 C 0.70325 0.02294 0.2371 0.0
C1075 C 0.7137 0.02797 0.29589 0.0
N1076 N 0.70874 0.98187 0.21573 0.0
N1077 N 0.70792 0.00931 0.28531 0.0
H1078 H 0.05522 0.71566 0.27247 0.0
H1079 H 0.9381 0.71694 0.23002 0.0
H1080 H 0.03153 0.72265 0.18428 0.0
H1081 H 0.96194 0.72307 0.31826 0.0
H1082 H 0.97164 0.70491 0.21366 0.0
H1083 H 0.02145 0.70423 0.28869 0.0
C1084 C 0.04305 0.7143 0.25632 0.0
C1085 C 0.046 0.72085 0.22717 0.0
C1086 C 0.9694 0.70839 0.23675 0.0
C1087 C 0.00729 0.70794 0.24574 0.0
C1088 C 0.95025 0.71527 0.24615 0.0
C1089 C 0.94743 0.72176 0.27537 0.0
C1090 C 0.98587 0.70814 0.25664 0.0
C1091 C 0.96355 0.71871 0.29539 0.0
C1092 C 0.02376 0.70776 0.26564 0.0
C1093 C 0.02983 0.71821 0.2071 0.0
N1094 N 0.98226 0.7126 0.28549 0.0
N1095 N 0.01099 0.71245 0.21693 0.0
H1096 H 0.72153 0.95793 0.8186 0.0
H1097 H 0.71973 0.03004 0.68169 0.0
H1098 H 0.71943 0.93648 0.72874 0.0
H1099 H 0.71552 0.0513 0.77147 0.0
H1100 H 0.70928 -0.00411 0.69796 0.0
H1101 H 0.70908 0.99136 0.80209 0.0
C1102 C 0.71796 0.96006 0.79551 0.0
C1103 C 0.72228 0.94463 0.77488 0.0
C1104 C 0.71016 0.00814 0.71403 0.0
C1105 C 0.70838 0.98293 0.75575 0.0
C1106 C 0.71607 0.0277 0.70469 0.0
C1107 C 0.71926 0.04335 0.72541 0.0
C1108 C 0.7077 0.00424 0.74428 0.0
C1109 C 0.71394 0.03949 0.75485 0.0
C1110 C 0.71088 0.9792 0.78604 0.0
C1111 C 0.71699 0.94817 0.74532 0.0
N1112 N 0.70894 0.0202 0.76352 0.0
N1113 N 0.71082 0.96709 0.73654 0.0
H1114 H 0.93816 0.71215 0.77049 0.0
H1115 H 0.05608 0.71232 0.73337 0.0
H1116 H 0.96373 0.71907 0.68347 0.0
H1117 H 0.03045 0.71913 0.82038 0.0
H1118 H 0.02283 0.7004 0.7156 0.0
H1119 H 0.97146 0.70031 0.7882 0.0
C1120 C 0.95065 0.71068 0.7549 0.0
C1121 C 0.94837 0.71734 0.72566 0.0
C1122 C 0.02461 0.70399 0.73874 0.0
C1123 C 0.98654 0.70397 0.74595 0.0
C1124 C 0.0436 0.71081 0.74895 0.0
C1125 C 0.04584 0.71747 0.7782 0.0
C1126 C 0.00772 0.70399 0.75785 0.0
C1127 C 0.0293 0.71461 0.79751 0.0
C1128 C 0.96967 0.70391 0.76508 0.0
C1129 C 0.96491 0.71455 0.70633 0.0
N1130 N 0.01076 0.70858 0.78681 0.0
N1131 N 0.98348 0.70857 0.717 0.0
H1132 H 0.27692 0.93599 0.77676 0.0
H1133 H 0.27867 0.05346 0.73627 0.0
H1134 H 0.27086 0.96049 0.68892 0.0
H1135 H 0.27117 0.02918 0.82397 0.0
H1136 H 0.29001 0.01974 0.7196 0.0
H1137 H 0.28894 0.96941 0.79374 0.0
C1138 C 0.2786 0.94826 0.76085 0.0
C1139 C 0.27215 0.94566 0.73156 0.0
C1140 C 0.28639 0.02191 0.74265 0.0
C1141 C 0.28577 0.98396 0.751 0.0
C1142 C 0.27991 0.04117 0.75224 0.0
C1143 C 0.27323 0.04395 0.78136 0.0
C1144 C 0.28603 0.0053 0.76226 0.0
C1145 C 0.27572 0.02763 0.80118 0.0
C1146 C 0.28548 0.96734 0.77061 0.0
C1147 C 0.27521 0.96192 0.71183 0.0
N1148 N 0.28143 0.00882 0.79109 0.0
N1149 N 0.28132 0.98057 0.72207 0.0
H1150 H 0.96167 0.26996 0.81644 0.0
H1151 H 0.03252 0.26762 0.67861 0.0
H1152 H 0.93945 0.27113 0.7269 0.0
H1153 H 0.05459 0.27312 0.76788 0.0
H1154 H -0.00121 0.27933 0.69491 0.0
H1155 H 0.99514 0.28154 0.79904 0.0
C1156 C 0.96365 0.27314 0.79322 0.0
C1157 C 0.94797 0.26878 0.77297 0.0
C1158 C 0.01114 0.27846 0.71084 0.0
C1159 C 0.98633 0.28167 0.75283 0.0
C1160 C 0.03046 0.27182 0.70148 0.0
C1161 C 0.04617 0.26862 0.72211 0.0
C1162 C 0.00755 0.28165 0.74103 0.0
C1163 C 0.04269 0.27467 0.75136 0.0
C1164 C 0.98282 0.27973 0.78324 0.0
C1165 C 0.95132 0.27359 0.74322 0.0
N1166 N 0.02362 0.28038 0.7601 0.0
N1167 N 0.97029 0.27925 0.73395 0.0
H1168 H 0.77529 0.53067 0.69224 0.0
H1169 H 0.77296 0.46004 0.83053 0.0
H1170 H 0.77542 0.55299 0.78171 0.0
H1171 H 0.77837 0.43791 0.74133 0.0
H1172 H 0.78457 0.49378 0.81413 0.0
H1173 H 0.78712 0.49735 0.70998 0.0
C1174 C 0.77829 0.52876 0.71552 0.0
C1175 C 0.77357 0.54441 0.73563 0.0
C1176 C 0.78371 0.48142 0.79823 0.0
C1177 C 0.78675 0.5062 0.75616 0.0
C1178 C 0.77713 0.46209 0.80765 0.0
C1179 C 0.77393 0.44636 0.78706 0.0
C1180 C 0.78684 0.485 0.76803 0.0
C1181 C 0.77993 0.44982 0.7578 0.0
C1182 C 0.78503 0.50967 0.7257 0.0
C1183 C 0.77817 0.54114 0.76548 0.0
N1184 N 0.78558 0.4689 0.74901 0.0
N1185 N 0.78399 0.52225 0.77493 0.0
H1186 H 0.53158 0.77052 0.82118 0.0
H1187 H 0.43557 0.78216 0.76856 0.0
H1188 H 0.553 0.77446 0.73153 0.0
H1189 H 0.46302 0.76644 0.68524 0.0
H1190 H 0.46894 0.79361 0.78633 0.0
H1191 H 0.498 0.78208 0.80519 0.0
C1192 C 0.5294 0.77447 0.79823 0.0
C1193 C 0.54494 0.77087 0.77754 0.0
C1194 C 0.46779 0.78773 0.76415 0.0
C1195 C 0.50632 0.78428 0.75875 0.0
C1196 C 0.44862 0.78145 0.75382 0.0
C1197 C 0.4467 0.77266 0.72574 0.0
C1198 C 0.48521 0.78465 0.74648 0.0
C1199 C 0.4639 0.77271 0.70727 0.0
C1200 C 0.51009 0.7812 0.78897 0.0
C1201 C 0.54127 0.77645 0.74815 0.0
N1202 N 0.48256 0.77807 0.71824 0.0
N1203 N 0.52221 0.78238 0.73954 0.0
H1204 H 0.21661 0.46345 0.68278 0.0
H1205 H 0.21807 0.53302 0.82156 0.0
H1206 H 0.21118 0.44061 0.77159 0.0
H1207 H 0.21481 0.55612 0.73265 0.0
H1208 H 0.20531 0.49995 0.80414 0.0
H1209 H 0.20562 0.49722 0.69993 0.0
C1210 C 0.21255 0.46535 0.70572 0.0
C1211 C 0.2156 0.44939 0.72598 0.0
C1212 C 0.2069 0.5124 0.78851 0.0
C1213 C 0.20345 0.48808 0.74589 0.0
C1214 C 0.21415 0.53135 0.79852 0.0
C1215 C 0.21827 0.54711 0.77836 0.0
C1216 C 0.20407 0.50919 0.75814 0.0
C1217 C 0.21254 0.54414 0.74884 0.0
C1218 C 0.20633 0.4847 0.71558 0.0
C1219 C 0.20974 0.45269 0.75535 0.0
N1220 N 0.20625 0.52538 0.73949 0.0
N1221 N 0.20449 0.47179 0.76458 0.0
H1222 H 0.45666 0.22546 0.82811 0.0
H1223 H 0.529 0.22354 0.69141 0.0
H1224 H 0.43537 0.22101 0.73832 0.0
H1225 H 0.55032 0.22144 0.78136 0.0
H1226 H 0.49511 0.2126 0.70803 0.0
H1227 H 0.49054 0.21398 0.81212 0.0
C1228 C 0.45893 0.22156 0.80517 0.0
C1229 C 0.44337 0.22494 0.78435 0.0
C1230 C 0.50732 0.21408 0.72408 0.0
C1231 C 0.48217 0.21216 0.76581 0.0
C1232 C 0.52673 0.2203 0.71455 0.0
C1233 C 0.54232 0.22417 0.73514 0.0
C1234 C 0.50349 0.212 0.7544 0.0
C1235 C 0.53856 0.21932 0.76478 0.0
C1236 C 0.47833 0.21504 0.79599 0.0
C1237 C 0.44712 0.21929 0.75501 0.0
N1238 N 0.5194 0.21399 0.77362 0.0
N1239 N 0.46627 0.21367 0.74648 0.0
H1240 H 0.22254 0.53362 0.18398 0.0
H1241 H 0.22122 0.46183 0.32128 0.0
H1242 H 0.21931 0.55528 0.27365 0.0
H1243 H 0.21815 0.44026 0.23154 0.0
H1244 H 0.21026 0.49573 0.30461 0.0
H1245 H 0.2107 0.49998 0.20045 0.0
C1246 C 0.21884 0.53149 0.207 0.0
C1247 C 0.22267 0.54707 0.22762 0.0
C1248 C 0.2115 0.48346 0.28862 0.0
C1249 C 0.20949 0.50852 0.24672 0.0
C1250 C 0.21771 0.46404 0.29819 0.0
C1251 C 0.22135 0.44839 0.27763 0.0
C1252 C 0.20919 0.48723 0.25831 0.0
C1253 C 0.21621 0.45208 0.24806 0.0
C1254 C 0.21211 0.51223 0.21646 0.0
C1255 C 0.21724 0.5435 0.2571 0.0
N1256 N 0.2109 0.47125 0.23918 0.0
N1257 N 0.21143 0.52446 0.26589 0.0
H1258 H 0.55575 0.21436 0.23727 0.0
H1259 H 0.43823 0.21321 0.27775 0.0
H1260 H 0.53143 0.22087 0.32509 0.0
H1261 H 0.46249 0.22009 0.18995 0.0
H1262 H 0.47198 0.20209 0.29466 0.0
H1263 H 0.52223 0.20249 0.22044 0.0
C1264 C 0.54349 0.2128 0.25321 0.0
C1265 C 0.54618 0.21932 0.28244 0.0
C1266 C 0.4698 0.20554 0.27155 0.0
C1267 C 0.50776 0.20592 0.26318 0.0
C1268 C 0.45053 0.2119 0.26183 0.0
C1269 C 0.44772 0.21831 0.23257 0.0
C1270 C 0.4864 0.20572 0.25194 0.0
C1271 C 0.46406 0.21574 0.21283 0.0
C1272 C 0.52435 0.20602 0.24354 0.0
C1273 C 0.52993 0.21643 0.30223 0.0
N1274 N 0.48287 0.21013 0.22304 0.0
N1275 N 0.51123 0.21043 0.29207 0.0
H1276 H 0.78533 0.55707 0.24032 0.0
H1277 H 0.77214 0.4612 0.18903 0.0
H1278 H 0.76945 0.53019 0.32396 0.0
H1279 H 0.7764 0.44003 0.2788 0.0
H1280 H 0.78453 0.49458 0.20454 0.0
H1281 H 0.79667 0.52353 0.22305 0.0
C1282 C 0.78458 0.54412 0.25524 0.0
C1283 C 0.77574 0.54623 0.28324 0.0
C1284 C 0.78355 0.48258 0.22088 0.0
C1285 C 0.78758 0.50756 0.26309 0.0
C1286 C 0.77635 0.46337 0.21189 0.0
C1287 C 0.77256 0.448 0.23278 0.0
C1288 C 0.78691 0.4864 0.25103 0.0
C1289 C 0.7785 0.45165 0.26205 0.0
C1290 C 0.79079 0.52486 0.24521 0.0
C1291 C 0.77575 0.52916 0.30198 0.0
N1292 N 0.78487 0.47061 0.27041 0.0
N1293 N 0.78102 0.5104 0.29127 0.0
H1294 H 0.46493 0.77519 0.31749 0.0
H1295 H 0.53599 0.77309 0.18026 0.0
H1296 H 0.44301 0.77719 0.22784 0.0
H1297 H 0.55786 0.7777 0.26973 0.0
H1298 H 0.50246 0.78539 0.19643 0.0
H1299 H 0.49846 0.78691 0.30056 0.0
C1300 C 0.46698 0.77859 0.29436 0.0
C1301 C 0.45138 0.77439 0.27391 0.0
C1302 C 0.51473 0.78421 0.21244 0.0
C1303 C 0.48982 0.78743 0.25429 0.0
C1304 C 0.53394 0.77723 0.20315 0.0
C1305 C 0.5495 0.77358 0.22387 0.0
C1306 C 0.51108 0.78726 0.24264 0.0
C1307 C 0.54606 0.77958 0.25315 0.0
C1308 C 0.48618 0.78526 0.28464 0.0
C1309 C 0.45482 0.77951 0.24429 0.0
N1310 N 0.52706 0.7856 0.26181 0.0
N1311 N 0.47383 0.78523 0.23525 0.0
H1312 H 0.19155 0.10465 0.25534 0.0
H1313 H 0.10741 0.19277 0.24675 0.0
H1314 H 0.17858 0.13771 0.1751 0.0
H1315 H 0.13875 0.17705 0.32743 0.0
H1316 H 0.12981 0.16932 0.22003 0.0
H1317 H 0.1686 0.12766 0.28187 0.0
C1318 C 0.18402 0.11684 0.24328 0.0
C1319 C 0.18735 0.1195 0.213 0.0
C1320 C 0.13183 0.17109 0.24355 0.0
C1321 C 0.1606 0.14557 0.24324 0.0
C1322 C 0.1191 0.18455 0.25887 0.0
C1323 C 0.12144 0.18721 0.28936 0.0
C1324 C 0.14677 0.15988 0.25888 0.0
C1325 C 0.1365 0.17561 0.30392 0.0
C1326 C 0.17085 0.12992 0.25848 0.0
C1327 C 0.1766 0.13519 0.19846 0.0
N1328 N 0.14859 0.1624 0.28854 0.0
N1329 N 0.16367 0.14764 0.21373 0.0
H1330 H 0.88355 0.19066 0.25527 0.0
H1331 H 0.79797 0.10383 0.2494 0.0
H1332 H 0.84968 0.17636 0.17614 0.0
H1333 H 0.81321 0.13615 0.32946 0.0
H1334 H 0.8208 0.12655 0.22219 0.0
H1335 H 0.86174 0.16702 0.28265 0.0
C1336 C 0.87144 0.1827 0.24363 0.0
C1337 C 0.86818 0.18585 0.21342 0.0
C1338 C 0.81909 0.12869 0.24569 0.0
C1339 C 0.84354 0.15831 0.2446 0.0
C1340 C 0.80598 0.11578 0.26128 0.0
C1341 C 0.8033 0.11836 0.29171 0.0
C1342 C 0.82992 0.14406 0.26068 0.0
C1343 C 0.81467 0.13372 0.306 0.0
C1344 C 0.85906 0.16913 0.25932 0.0
C1345 C 0.85263 0.17455 0.19944 0.0
N1346 N 0.82752 0.14602 0.29034 0.0
N1347 N 0.84089 0.16125 0.21515 0.0
H1348 H 0.88746 0.80285 0.24723 0.0
H1349 H 0.80176 0.88966 0.25273 0.0
H1350 H 0.85463 0.81802 0.3268 0.0
H1351 H 0.81646 0.85645 0.17326 0.0
H1352 H 0.82497 0.86737 0.28016 0.0
H1353 H 0.86539 0.82628 0.21987 0.0
C1354 C 0.87552 0.81096 0.25897 0.0
C1355 C 0.87262 0.80811 0.28931 0.0
C1356 C 0.82305 0.86495 0.25674 0.0
C1357 C 0.84767 0.83542 0.25812 0.0
C1358 C 0.80973 0.87761 0.24102 0.0
C1359 C 0.8068 0.87465 0.2107 0.0
C1360 C 0.83383 0.84944 0.24196 0.0
C1361 C 0.81812 0.85917 0.19664 0.0
C1362 C 0.86299 0.82442 0.2433 0.0
C1363 C 0.85729 0.8196 0.30341 0.0
N1364 N 0.83116 0.84713 0.2124 0.0
N1365 N 0.84538 0.83279 0.28768 0.0
H1366 H 0.17893 0.85139 0.33439 0.0
H1367 H 0.14055 0.8154 0.17619 0.0
H1368 H 0.1934 0.88459 0.25486 0.0
H1369 H 0.10772 0.80076 0.25595 0.0
H1370 H 0.16296 0.83818 0.20467 0.0
H1371 H 0.15535 0.82971 0.30601 0.0
C1372 C 0.17721 0.85411 0.31101 0.0
C1373 C 0.18844 0.86963 0.29692 0.0
C1374 C 0.15083 0.82993 0.21586 0.0
C1375 C 0.16169 0.84485 0.2644 0.0
C1376 C 0.13805 0.81693 0.19965 0.0
C1377 C 0.12242 0.80588 0.21376 0.0
C1378 C 0.14807 0.83171 0.24641 0.0
C1379 C 0.11984 0.80856 0.24421 0.0
C1380 C 0.16374 0.84176 0.29486 0.0
C1381 C 0.18548 0.87253 0.26658 0.0
N1382 N 0.13263 0.82107 0.25956 0.0
N1383 N 0.17253 0.86016 0.2513 0.0
H1384 H 0.85524 0.81251 0.67157 0.0
H1385 H 0.81694 0.85061 0.82853 0.0
H1386 H 0.88804 0.79883 0.75182 0.0
H1387 H 0.80257 0.88293 0.74816 0.0
H1388 H 0.84056 0.82863 0.80082 0.0
H1389 H 0.833 0.83586 0.69929 0.0
C1390 C 0.85777 0.81438 0.69497 0.0
C1391 C 0.87332 0.80341 0.70946 0.0
C1392 C 0.83219 0.84056 0.78933 0.0
C1393 C 0.84787 0.82989 0.74125 0.0
C1394 C 0.8187 0.85308 0.8051 0.0
C1395 C 0.80749 0.86844 0.79058 0.0
C1396 C 0.83428 0.8433 0.75882 0.0
C1397 C 0.81048 0.87101 0.7602 0.0
C1398 C 0.84509 0.82771 0.71075 0.0
C1399 C 0.87596 0.80654 0.73982 0.0
N1400 N 0.82346 0.85847 0.74529 0.0
N1401 N 0.86326 0.81935 0.75475 0.0
H1402 H 0.19085 0.88579 0.75827 0.0
H1403 H 0.10486 0.79928 0.75122 0.0
H1404 H 0.1762 0.85301 0.67836 0.0
H1405 H 0.13674 0.81494 0.83151 0.0
H1406 H 0.1273 0.8225 0.72418 0.0
H1407 H 0.16749 0.86351 0.78529 0.0
C1408 C 0.18286 0.87382 0.74638 0.0
C1409 C 0.18584 0.87101 0.71605 0.0
C1410 C 0.12942 0.82079 0.74769 0.0
C1411 C 0.15862 0.84579 0.74686 0.0
C1412 C 0.11667 0.80746 0.76319 0.0
C1413 C 0.11919 0.80481 0.79365 0.0
C1414 C 0.14458 0.83185 0.76279 0.0
C1415 C 0.13436 0.81637 0.80802 0.0
C1416 C 0.16945 0.86116 0.76187 0.0
C1417 C 0.17451 0.85562 0.70176 0.0
N1418 N 0.1465 0.82942 0.79245 0.0
N1419 N 0.16138 0.84357 0.7173 0.0
H1420 H 0.14162 0.17437 0.67274 0.0
H1421 H 0.17768 0.13762 0.83167 0.0
H1422 H 0.10814 0.18933 0.75183 0.0
H1423 H 0.19261 0.10424 0.75243 0.0
H1424 H 0.15471 0.15962 0.8028 0.0
H1425 H 0.16341 0.15121 0.70162 0.0
C1426 C 0.13887 0.17284 0.69613 0.0
C1427 C 0.12323 0.18408 0.70995 0.0
C1428 C 0.16307 0.14746 0.79182 0.0
C1429 C 0.14814 0.15782 0.74304 0.0
C1430 C 0.17617 0.13492 0.80825 0.0
C1431 C 0.18736 0.11927 0.79439 0.0
C1432 C 0.16134 0.14444 0.7613 0.0
C1433 C 0.18471 0.1164 0.76398 0.0
C1434 C 0.15128 0.15962 0.71257 0.0
C1435 C 0.12029 0.18139 0.74032 0.0
N1436 N 0.17211 0.12897 0.74841 0.0
N1437 N 0.13272 0.16867 0.75589 0.0
H1438 H 0.85257 0.17663 0.82983 0.0
H1439 H 0.8118 0.13972 0.67308 0.0
H1440 H 0.88425 0.18997 0.74867 0.0
H1441 H 0.79703 0.10785 0.75361 0.0
H1442 H 0.83568 0.16148 0.70069 0.0
H1443 H 0.82913 0.15413 0.80249 0.0
C1444 C 0.85459 0.17488 0.80632 0.0
C1445 C 0.87021 0.18547 0.79146 0.0
C1446 C 0.82714 0.14972 0.71225 0.0
C1447 C 0.84342 0.16 0.76014 0.0
C1448 C 0.8135 0.13733 0.69654 0.0
C1449 C 0.80216 0.1221 0.71109 0.0
C1450 C 0.8293 0.14698 0.74276 0.0
C1451 C 0.80509 0.11963 0.74152 0.0
C1452 C 0.84123 0.16205 0.79075 0.0
C1453 C 0.87217 0.18253 0.76097 0.0
N1454 N 0.81827 0.13203 0.75638 0.0
N1455 N 0.85885 0.1702 0.7463 0.0
H1456 H 0.67929 0.6372 0.6764 0.0
H1457 H 0.63989 0.67744 0.83204 0.0
H1458 H 0.69355 0.6068 0.75834 0.0
H1459 H 0.60856 0.6914 0.75068 0.0
H1460 H 0.6624 0.65395 0.80514 0.0
H1461 H 0.65567 0.65989 0.703 0.0
C1462 C 0.6775 0.6353 0.69994 0.0
C1463 C 0.68867 0.62028 0.71522 0.0
C1464 C 0.65058 0.6622 0.79322 0.0
C1465 C 0.66188 0.64619 0.74569 0.0
C1466 C 0.63775 0.67562 0.80854 0.0
C1467 C 0.62248 0.68664 0.79355 0.0
C1468 C 0.64824 0.65994 0.76267 0.0
C1469 C 0.62036 0.68357 0.76309 0.0
C1470 C 0.66402 0.64822 0.71507 0.0
C1471 C 0.68566 0.61844 0.7457 0.0
N1472 N 0.63319 0.67061 0.74861 0.0
N1473 N 0.67267 0.63133 0.75995 0.0
H1474 H 0.30037 0.60557 0.75117 0.0
H1475 H 0.38667 0.69177 0.75594 0.0
H1476 H 0.31583 0.63824 0.83085 0.0
H1477 H 0.35277 0.67702 0.67701 0.0
H1478 H 0.3647 0.66845 0.78368 0.0
H1479 H 0.32348 0.62785 0.72374 0.0
C1480 C 0.30849 0.61752 0.76293 0.0
C1481 C 0.30579 0.62032 0.79331 0.0
C1482 C 0.36206 0.67039 0.76031 0.0
C1483 C 0.33273 0.64554 0.76202 0.0
C1484 C 0.37454 0.68377 0.74442 0.0
C1485 C 0.37131 0.6867 0.71415 0.0
C1486 C 0.34649 0.65955 0.74574 0.0
C1487 C 0.35571 0.67537 0.70034 0.0
C1488 C 0.32176 0.63018 0.74721 0.0
C1489 C 0.3173 0.63565 0.80742 0.0
N1490 N 0.34388 0.66226 0.71625 0.0
N1491 N 0.3303 0.64771 0.79164 0.0
H1492 H 0.34684 0.31794 0.83451 0.0
H1493 H 0.31075 0.35532 0.67574 0.0
H1494 H 0.37999 0.30309 0.7551 0.0
H1495 H 0.29534 0.38802 0.75537 0.0
H1496 H 0.33358 0.33311 0.70446 0.0
H1497 H 0.32485 0.34106 0.80584 0.0
C1498 C 0.34947 0.31948 0.81109 0.0
C1499 C 0.36509 0.3083 0.79713 0.0
C1500 C 0.32515 0.34517 0.71558 0.0
C1501 C 0.33997 0.33452 0.76428 0.0
C1502 C 0.31212 0.35783 0.69922 0.0
C1503 C 0.30085 0.37336 0.71322 0.0
C1504 C 0.32674 0.34796 0.74615 0.0
C1505 C 0.30333 0.37597 0.74371 0.0
C1506 C 0.33695 0.33267 0.79477 0.0
C1507 C 0.36788 0.31099 0.76673 0.0
N1508 N 0.31588 0.3633 0.75919 0.0
N1509 N 0.35536 0.3237 0.75129 0.0
H1510 H 0.64013 0.31461 0.68043 0.0
H1511 H 0.67934 0.35166 0.83789 0.0
H1512 H 0.60771 0.30121 0.76098 0.0
H1513 H 0.6945 0.38381 0.75773 0.0
H1514 H 0.65578 0.32983 0.80983 0.0
H1515 H 0.66322 0.3372 0.70821 0.0
C1516 C 0.63788 0.31635 0.7039 0.0
C1517 C 0.62215 0.30573 0.71845 0.0
C1518 C 0.66433 0.34167 0.79845 0.0
C1519 C 0.64853 0.33133 0.75027 0.0
C1520 C 0.67778 0.35411 0.81442 0.0
C1521 C 0.68915 0.36942 0.8001 0.0
C1522 C 0.6624 0.34444 0.76792 0.0
C1523 C 0.68642 0.37195 0.76964 0.0
C1524 C 0.65104 0.32925 0.71971 0.0
C1525 C 0.61989 0.30867 0.7489 0.0
N1526 N 0.67343 0.3595 0.75453 0.0
N1527 N 0.63301 0.32106 0.76382 0.0
H1528 H 0.38497 0.29746 0.26044 0.0
H1529 H 0.30041 0.38514 0.25178 0.0
H1530 H 0.35394 0.31332 0.17957 0.0
H1531 H 0.31325 0.35187 0.33188 0.0
H1532 H 0.3235 0.36229 0.22523 0.0
H1533 H 0.36229 0.32067 0.28712 0.0
C1534 C 0.3733 0.30566 0.24827 0.0
C1535 C 0.37112 0.30311 0.21774 0.0
C1536 C 0.32118 0.35995 0.24859 0.0
C1537 C 0.34546 0.33015 0.24817 0.0
C1538 C 0.30793 0.37294 0.2638 0.0
C1539 C 0.30454 0.37018 0.29405 0.0
C1540 C 0.33146 0.3443 0.26379 0.0
C1541 C 0.31527 0.35446 0.30854 0.0
C1542 C 0.3604 0.31898 0.26356 0.0
C1543 C 0.35607 0.31468 0.20311 0.0
N1544 N 0.3283 0.34211 0.29327 0.0
N1545 N 0.34382 0.32775 0.21847 0.0
H1546 H 0.60518 0.30136 0.25531 0.0
H1547 H 0.69136 0.38763 0.26164 0.0
H1548 H 0.63886 0.31539 0.3347 0.0
H1549 H 0.67607 0.35525 0.18165 0.0
H1550 H 0.66823 0.36517 0.28882 0.0
H1551 H 0.62714 0.32499 0.22817 0.0
C1552 C 0.61727 0.30927 0.26705 0.0
C1553 C 0.62045 0.30603 0.29726 0.0
C1554 C 0.67001 0.36296 0.26533 0.0
C1555 C 0.64527 0.33355 0.26635 0.0
C1556 C 0.68328 0.37573 0.24976 0.0
C1557 C 0.68602 0.37306 0.21936 0.0
C1558 C 0.65908 0.34766 0.25034 0.0
C1559 C 0.67458 0.35774 0.20509 0.0
C1560 C 0.62974 0.32283 0.25151 0.0
C1561 C 0.63597 0.31727 0.3114 0.0
N1562 N 0.66157 0.3456 0.22072 0.0
N1563 N 0.64782 0.33056 0.29581 0.0
H1564 H 0.69455 0.60563 0.25157 0.0
H1565 H 0.60884 0.69244 0.25387 0.0
H1566 H 0.67988 0.64038 0.32969 0.0
H1567 H 0.64189 0.67631 0.17488 0.0
H1568 H 0.6309 0.66945 0.28196 0.0
H1569 H 0.67144 0.6275 0.22323 0.0
C1570 C 0.68661 0.61793 0.26279 0.0
C1571 C 0.68951 0.62143 0.293 0.0
C1572 C 0.63335 0.671 0.2585 0.0
C1573 C 0.6626 0.64614 0.26072 0.0
C1574 C 0.62082 0.68421 0.2424 0.0
C1575 C 0.6238 0.68668 0.21202 0.0
C1576 C 0.64874 0.65986 0.24406 0.0
C1577 C 0.63917 0.67502 0.19829 0.0
C1578 C 0.67335 0.63035 0.24655 0.0
C1579 C 0.67825 0.63723 0.30642 0.0
N1580 N 0.6511 0.66208 0.21444 0.0
N1581 N 0.66526 0.64901 0.29018 0.0
H1582 H 0.30217 0.60935 0.25551 0.0
H1583 H 0.38932 0.69459 0.24725 0.0
H1584 H 0.31726 0.64135 0.17521 0.0
H1585 H 0.35811 0.67934 0.3281 0.0
H1586 H 0.36615 0.67189 0.22054 0.0
H1587 H 0.32567 0.63166 0.28237 0.0
C1588 C 0.31027 0.62117 0.24351 0.0
C1589 C 0.30743 0.62371 0.21309 0.0
C1590 C 0.36432 0.67358 0.2441 0.0
C1591 C 0.33479 0.64897 0.24372 0.0
C1592 C 0.3775 0.68662 0.25942 0.0
C1593 C 0.37542 0.6892 0.28994 0.0
C1594 C 0.34914 0.66275 0.25945 0.0
C1595 C 0.36017 0.67792 0.30456 0.0
C1596 C 0.32375 0.63385 0.2589 0.0
C1597 C 0.31886 0.63893 0.19867 0.0
N1598 N 0.34761 0.66515 0.28916 0.0
N1599 N 0.33208 0.65098 0.21412 0.0
loop_
_geom_bond_atom_site_label_1
_geom_bond_atom_site_label_2
_geom_bond_distance
_geom_bond_site_symmetry_2
_ccdc_geom_bond_type
Mg0 O1 2.028 . S
Mg0 O7 1.986 . S
Mg0 O9 2.114 . S
Mg0 O10 2.251 . S
Mg0 O13 2.010 . S
O1 Mg0 2.028 . S
O1 C4 1.250 . S
O2 Mg3 2.028 . S
O2 C4 1.248 . S
Mg3 O2 2.028 . S
Mg3 O8 2.032 . S
Mg3 O10 2.079 . S
C4 O1 1.250 . S
C4 O2 1.248 . S
C5 O6 1.264 . S
C5 O13 1.249 . S
O6 C5 1.264 . S
O7 Mg0 1.986 . S
O7 C11 1.246 . S
O8 Mg3 2.032 . S
O8 C11 1.259 . S
O9 Mg0 2.114 . S
O9 C12 1.252 . S
O10 Mg0 2.251 . S
O10 Mg3 2.079 . S
O10 C12 1.273 . S
C11 O7 1.246 . S
C11 O8 1.259 . S
C12 O9 1.252 . S
C12 O10 1.273 . S
O13 Mg0 2.010 . S
O13 C5 1.249 . S
Mg14 O15 2.028 . S
Mg14 O21 1.986 . S
Mg14 O23 2.114 . S
Mg14 O24 2.251 . S
Mg14 O27 2.010 . S
O15 Mg14 2.028 . S
O15 C18 1.250 . S
O16 Mg17 2.028 . S
O16 C18 1.248 . S
Mg17 O16 2.028 . S
Mg17 O22 2.032 . S
Mg17 O24 2.079 . S
C18 O15 1.250 . S
C18 O16 1.248 . S
C19 O20 1.264 . S
C19 O27 1.249 . S
O20 C19 1.264 . S
O21 Mg14 1.986 . S
O21 C25 1.246 . S
O22 Mg17 2.032 . S
O22 C25 1.259 . S
O23 Mg14 2.114 . S
O23 C26 1.252 . S
O24 Mg14 2.251 . S
O24 Mg17 2.079 . S
O24 C26 1.273 . S
C25 O21 1.246 . S
C25 O22 1.259 . S
C26 O23 1.252 . S
C26 O24 1.273 . S
O27 Mg14 2.010 . S
O27 C19 1.249 . S
Mg28 O29 2.028 . S
Mg28 O35 1.986 . S
Mg28 O37 2.114 . S
Mg28 O38 2.251 . S
Mg28 O41 2.010 . S
O29 Mg28 2.028 . S
O29 C32 1.250 . S
O30 Mg31 2.028 . S
O30 C32 1.248 . S
Mg31 O30 2.028 . S
Mg31 O36 2.032 . S
Mg31 O38 2.079 . S
C32 O29 1.250 . S
C32 O30 1.248 . S
C33 O34 1.264 . S
C33 O41 1.249 . S
O34 C33 1.264 . S
O35 Mg28 1.986 . S
O35 C39 1.246 . S
O36 Mg31 2.032 . S
O36 C39 1.259 . S
O37 Mg28 2.114 . S
O37 C40 1.252 . S
O38 Mg28 2.251 . S
O38 Mg31 2.079 . S
O38 C40 1.273 . S
C39 O35 1.246 . S
C39 O36 1.259 . S
C40 O37 1.252 . S
C40 O38 1.273 . S
O41 Mg28 2.010 . S
O41 C33 1.249 . S
Mg42 O43 2.028 . S
Mg42 O49 1.986 . S
Mg42 O51 2.114 . S
Mg42 O52 2.251 . S
Mg42 O55 2.010 . S
O43 Mg42 2.028 . S
O43 C46 1.250 . S
O44 Mg45 2.028 . S
O44 C46 1.248 . S
Mg45 O44 2.028 . S
Mg45 O50 2.032 . S
Mg45 O52 2.079 . S
C46 O43 1.250 . S
C46 O44 1.248 . S
C47 O48 1.264 . S
C47 O55 1.249 . S
O48 C47 1.264 . S
O49 Mg42 1.986 . S
O49 C53 1.246 . S
O50 Mg45 2.032 . S
O50 C53 1.259 . S
O51 Mg42 2.114 . S
O51 C54 1.252 . S
O52 Mg42 2.251 . S
O52 Mg45 2.079 . S
O52 C54 1.273 . S
C53 O49 1.246 . S
C53 O50 1.259 . S
C54 O51 1.252 . S
C54 O52 1.273 . S
O55 Mg42 2.010 . S
O55 C47 1.249 . S
Mg56 O57 2.028 . S
Mg56 O63 1.986 . S
Mg56 O65 2.114 . S
Mg56 O66 2.251 . S
Mg56 O69 2.010 . S
O57 Mg56 2.028 . S
O57 C60 1.250 . S
O58 Mg59 2.028 . S
O58 C60 1.248 . S
Mg59 O58 2.028 . S
Mg59 O64 2.032 . S
Mg59 O66 2.079 . S
C60 O57 1.250 . S
C60 O58 1.248 . S
C61 O62 1.264 . S
C61 O69 1.249 . S
O62 C61 1.264 . S
O63 Mg56 1.986 . S
O63 C67 1.246 . S
O64 Mg59 2.032 . S
O64 C67 1.259 . S
O65 Mg56 2.114 . S
O65 C68 1.252 . S
O66 Mg56 2.251 . S
O66 Mg59 2.079 . S
O66 C68 1.273 . S
C67 O63 1.246 . S
C67 O64 1.259 . S
C68 O65 1.252 . S
C68 O66 1.273 . S
O69 Mg56 2.010 . S
O69 C61 1.249 . S
Mg70 O71 2.028 . S
Mg70 O77 1.986 . S
Mg70 O79 2.114 . S
Mg70 O80 2.251 . S
Mg70 O83 2.010 . S
O71 Mg70 2.028 . S
O71 C74 1.250 . S
O72 Mg73 2.028 . S
O72 C74 1.248 . S
Mg73 O72 2.028 . S
Mg73 O78 2.032 . S
Mg73 O80 2.079 . S
C74 O71 1.250 . S
C74 O72 1.248 . S
C75 O76 1.264 . S
C75 O83 1.249 . S
O76 C75 1.264 . S
O77 Mg70 1.986 . S
O77 C81 1.246 . S
O78 Mg73 2.032 . S
O78 C81 1.259 . S
O79 Mg70 2.114 . S
O79 C82 1.252 . S
O80 Mg70 2.251 . S
O80 Mg73 2.079 . S
O80 C82 1.273 . S
C81 O77 1.246 . S
C81 O78 1.259 . S
C82 O79 1.252 . S
C82 O80 1.273 . S
O83 Mg70 2.010 . S
O83 C75 1.249 . S
Mg84 O85 2.028 . S
Mg84 O91 1.986 . S
Mg84 O93 2.114 . S
Mg84 O94 2.251 . S
Mg84 O97 2.010 . S
O85 Mg84 2.028 . S
O85 C88 1.250 . S
O86 Mg87 2.028 . S
O86 C88 1.248 . S
Mg87 O86 2.028 . S
Mg87 O92 2.032 . S
Mg87 O94 2.079 . S
C88 O85 1.250 . S
C88 O86 1.248 . S
C89 O90 1.264 . S
C89 O97 1.249 . S
O90 C89 1.264 . S
O91 Mg84 1.986 . S
O91 C95 1.246 . S
O92 Mg87 2.032 . S
O92 C95 1.259 . S
O93 Mg84 2.114 . S
O93 C96 1.252 . S
O94 Mg84 2.251 . S
O94 Mg87 2.079 . S
O94 C96 1.273 . S
C95 O91 1.246 . S
C95 O92 1.259 . S
C96 O93 1.252 . S
C96 O94 1.273 . S
O97 Mg84 2.010 . S
O97 C89 1.249 . S
Mg98 O99 2.028 . S
Mg98 O105 1.986 . S
Mg98 O107 2.114 . S
Mg98 O108 2.251 . S
Mg98 O111 2.010 . S
O99 Mg98 2.028 . S
O99 C102 1.250 . S
O100 Mg101 2.028 . S
O100 C102 1.248 . S
Mg101 O100 2.028 . S
Mg101 O106 2.032 . S
Mg101 O108 2.079 . S
C102 O99 1.250 . S
C102 O100 1.248 . S
C103 O104 1.264 . S
C103 O111 1.249 . S
O104 C103 1.264 . S
O105 Mg98 1.986 . S
O105 C109 1.246 . S
O106 Mg101 2.032 . S
O106 C109 1.259 . S
O107 Mg98 2.114 . S
O107 C110 1.252 . S
O108 Mg98 2.251 . S
O108 Mg101 2.079 . S
O108 C110 1.273 . S
C109 O105 1.246 . S
C109 O106 1.259 . S
C110 O107 1.252 . S
C110 O108 1.273 . S
O111 Mg98 2.010 . S
O111 C103 1.249 . S
Mg112 O113 2.028 . S
Mg112 O119 1.986 . S
Mg112 O121 2.114 . S
Mg112 O122 2.251 . S
Mg112 O125 2.010 . S
O113 Mg112 2.028 . S
O113 C116 1.250 . S
O114 Mg115 2.028 . S
O114 C116 1.248 . S
Mg115 O114 2.028 . S
Mg115 O120 2.032 . S
Mg115 O122 2.079 . S
C116 O113 1.250 . S
C116 O114 1.248 . S
C117 O118 1.264 . S
C117 O125 1.249 . S
O118 C117 1.264 . S
O119 Mg112 1.986 . S
O119 C123 1.246 . S
O120 Mg115 2.032 . S
O120 C123 1.259 . S
O121 Mg112 2.114 . S
O121 C124 1.252 . S
O122 Mg112 2.251 . S
O122 Mg115 2.079 . S
O122 C124 1.273 . S
C123 O119 1.246 . S
C123 O120 1.259 . S
C124 O121 1.252 . S
C124 O122 1.273 . S
O125 Mg112 2.010 . S
O125 C117 1.249 . S
Mg126 O127 2.028 . S
Mg126 O133 1.986 . S
Mg126 O135 2.114 . S
Mg126 O136 2.251 . S
Mg126 O139 2.010 . S
O127 Mg126 2.028 . S
O127 C130 1.250 . S
O128 Mg129 2.028 . S
O128 C130 1.248 . S
Mg129 O128 2.028 . S
Mg129 O134 2.032 . S
Mg129 O136 2.079 . S
C130 O127 1.250 . S
C130 O128 1.248 . S
C131 O132 1.264 . S
C131 O139 1.249 . S
O132 C131 1.264 . S
O133 Mg126 1.986 . S
O133 C137 1.246 . S
O134 Mg129 2.032 . S
O134 C137 1.259 . S
O135 Mg126 2.114 . S
O135 C138 1.252 . S
O136 Mg126 2.251 . S
O136 Mg129 2.079 . S
O136 C138 1.273 . S
C137 O133 1.246 . S
C137 O134 1.259 . S
C138 O135 1.252 . S
C138 O136 1.273 . S
O139 Mg126 2.010 . S
O139 C131 1.249 . S
Mg140 O141 2.028 . S
Mg140 O147 1.986 . S
Mg140 O149 2.114 . S
Mg140 O150 2.251 . S
Mg140 O153 2.010 . S
O141 Mg140 2.028 . S
O141 C144 1.250 . S
O142 Mg143 2.028 . S
O142 C144 1.248 . S
Mg143 O142 2.028 . S
Mg143 O148 2.032 . S
Mg143 O150 2.079 . S
C144 O141 1.250 . S
C144 O142 1.248 . S
C145 O146 1.264 . S
C145 O153 1.249 . S
O146 C145 1.264 . S
O147 Mg140 1.986 . S
O147 C151 1.246 . S
O148 Mg143 2.032 . S
O148 C151 1.259 . S
O149 Mg140 2.114 . S
O149 C152 1.252 . S
O150 Mg140 2.251 . S
O150 Mg143 2.079 . S
O150 C152 1.273 . S
C151 O147 1.246 . S
C151 O148 1.259 . S
C152 O149 1.252 . S
C152 O150 1.273 . S
O153 Mg140 2.010 . S
O153 C145 1.249 . S
Mg154 O155 2.028 . S
Mg154 O161 1.986 . S
Mg154 O163 2.114 . S
Mg154 O164 2.251 . S
Mg154 O167 2.010 . S
O155 Mg154 2.028 . S
O155 C158 1.250 . S
O156 Mg157 2.028 . S
O156 C158 1.248 . S
Mg157 O156 2.028 . S
Mg157 O162 2.032 . S
Mg157 O164 2.079 . S
C158 O155 1.250 . S
C158 O156 1.248 . S
C159 O160 1.264 . S
C159 O167 1.249 . S
O160 C159 1.264 . S
O161 Mg154 1.986 . S
O161 C165 1.246 . S
O162 Mg157 2.032 . S
O162 C165 1.259 . S
O163 Mg154 2.114 . S
O163 C166 1.252 . S
O164 Mg154 2.251 . S
O164 Mg157 2.079 . S
O164 C166 1.273 . S
C165 O161 1.246 . S
C165 O162 1.259 . S
C166 O163 1.252 . S
C166 O164 1.273 . S
O167 Mg154 2.010 . S
O167 C159 1.249 . S
Mg168 O169 2.028 . S
Mg168 O175 1.986 . S
Mg168 O177 2.114 . S
Mg168 O178 2.251 . S
Mg168 O181 2.010 . S
O169 Mg168 2.028 . S
O169 C172 1.250 . S
O170 Mg171 2.028 . S
O170 C172 1.248 . S
Mg171 O170 2.028 . S
Mg171 O176 2.032 . S
Mg171 O178 2.079 . S
C172 O169 1.250 . S
C172 O170 1.248 . S
C173 O174 1.264 . S
C173 O181 1.249 . S
O174 C173 1.264 . S
O175 Mg168 1.986 . S
O175 C179 1.246 . S
O176 Mg171 2.032 . S
O176 C179 1.259 . S
O177 Mg168 2.114 . S
O177 C180 1.252 . S
O178 Mg168 2.251 . S
O178 Mg171 2.079 . S
O178 C180 1.273 . S
C179 O175 1.246 . S
C179 O176 1.259 . S
C180 O177 1.252 . S
C180 O178 1.273 . S
O181 Mg168 2.010 . S
O181 C173 1.249 . S
Mg182 O183 2.028 . S
Mg182 O189 1.986 . S
Mg182 O191 2.114 . S
Mg182 O192 2.251 . S
Mg182 O195 2.010 . S
O183 Mg182 2.028 . S
O183 C186 1.250 . S
O184 Mg185 2.028 . S
O184 C186 1.248 . S
Mg185 O184 2.028 . S
Mg185 O190 2.032 . S
Mg185 O192 2.079 . S
C186 O183 1.250 . S
C186 O184 1.248 . S
C187 O188 1.264 . S
C187 O195 1.249 . S
O188 C187 1.264 . S
O189 Mg182 1.986 . S
O189 C193 1.246 . S
O190 Mg185 2.032 . S
O190 C193 1.259 . S
O191 Mg182 2.114 . S
O191 C194 1.252 . S
O192 Mg182 2.251 . S
O192 Mg185 2.079 . S
O192 C194 1.273 . S
C193 O189 1.246 . S
C193 O190 1.259 . S
C194 O191 1.252 . S
C194 O192 1.273 . S
O195 Mg182 2.010 . S
O195 C187 1.249 . S
Mg196 O197 2.028 . S
Mg196 O203 1.986 . S
Mg196 O205 2.114 . S
Mg196 O206 2.251 . S
Mg196 O209 2.010 . S
O197 Mg196 2.028 . S
O197 C200 1.250 . S
O198 Mg199 2.028 . S
O198 C200 1.248 . S
Mg199 O198 2.028 . S
Mg199 O204 2.032 . S
Mg199 O206 2.079 . S
C200 O197 1.250 . S
C200 O198 1.248 . S
C201 O202 1.264 . S
C201 O209 1.249 . S
O202 C201 1.264 . S
O203 Mg196 1.986 . S
O203 C207 1.246 . S
O204 Mg199 2.032 . S
O204 C207 1.259 . S
O205 Mg196 2.114 . S
O205 C208 1.252 . S
O206 Mg196 2.251 . S
O206 Mg199 2.079 . S
O206 C208 1.273 . S
C207 O203 1.246 . S
C207 O204 1.259 . S
C208 O205 1.252 . S
C208 O206 1.273 . S
O209 Mg196 2.010 . S
O209 C201 1.249 . S
Mg210 O211 2.028 . S
Mg210 O217 1.986 . S
Mg210 O219 2.114 . S
Mg210 O220 2.251 . S
Mg210 O223 2.010 . S
O211 Mg210 2.028 . S
O211 C214 1.250 . S
O212 Mg213 2.028 . S
O212 C214 1.248 . S
Mg213 O212 2.028 . S
Mg213 O218 2.032 . S
Mg213 O220 2.079 . S
C214 O211 1.250 . S
C214 O212 1.248 . S
C215 O216 1.264 . S
C215 O223 1.249 . S
O216 C215 1.264 . S
O217 Mg210 1.986 . S
O217 C221 1.246 . S
O218 Mg213 2.032 . S
O218 C221 1.259 . S
O219 Mg210 2.114 . S
O219 C222 1.252 . S
O220 Mg210 2.251 . S
O220 Mg213 2.079 . S
O220 C222 1.273 . S
C221 O217 1.246 . S
C221 O218 1.259 . S
C222 O219 1.252 . S
C222 O220 1.273 . S
O223 Mg210 2.010 . S
O223 C215 1.249 . S
Mg224 O225 2.028 . S
Mg224 O231 1.986 . S
Mg224 O233 2.114 . S
Mg224 O234 2.251 . S
Mg224 O237 2.010 . S
O225 Mg224 2.028 . S
O225 C228 1.250 . S
O226 Mg227 2.028 . S
O226 C228 1.248 . S
Mg227 O226 2.028 . S
Mg227 O232 2.032 . S
Mg227 O234 2.079 . S
C228 O225 1.250 . S
C228 O226 1.248 . S
C229 O230 1.264 . S
C229 O237 1.249 . S
O230 C229 1.264 . S
O231 Mg224 1.986 . S
O231 C235 1.246 . S
O232 Mg227 2.032 . S
O232 C235 1.259 . S
O233 Mg224 2.114 . S
O233 C236 1.252 . S
O234 Mg224 2.251 . S
O234 Mg227 2.079 . S
O234 C236 1.273 . S
C235 O231 1.246 . S
C235 O232 1.259 . S
C236 O233 1.252 . S
C236 O234 1.273 . S
O237 Mg224 2.010 . S
O237 C229 1.249 . S
Mg238 O239 2.028 . S
Mg238 O245 1.986 . S
Mg238 O247 2.114 . S
Mg238 O248 2.251 . S
Mg238 O251 2.010 . S
O239 Mg238 2.028 . S
O239 C242 1.250 . S
O240 Mg241 2.028 . S
O240 C242 1.248 . S
Mg241 O240 2.028 . S
Mg241 O246 2.032 . S
Mg241 O248 2.079 . S
C242 O239 1.250 . S
C242 O240 1.248 . S
C243 O244 1.264 . S
C243 O251 1.249 . S
O244 C243 1.264 . S
O245 Mg238 1.986 . S
O245 C249 1.246 . S
O246 Mg241 2.032 . S
O246 C249 1.259 . S
O247 Mg238 2.114 . S
O247 C250 1.252 . S
O248 Mg238 2.251 . S
O248 Mg241 2.079 . S
O248 C250 1.273 . S
C249 O245 1.246 . S
C249 O246 1.259 . S
C250 O247 1.252 . S
C250 O248 1.273 . S
O251 Mg238 2.010 . S
O251 C243 1.249 . S
Mg252 O253 2.028 . S
Mg252 O259 1.986 . S
Mg252 O261 2.114 . S
Mg252 O262 2.251 . S
Mg252 O265 2.010 . S
O253 Mg252 2.028 . S
O253 C256 1.250 . S
O254 Mg255 2.028 . S
O254 C256 1.248 . S
Mg255 O254 2.028 . S
Mg255 O260 2.032 . S
Mg255 O262 2.079 . S
C256 O253 1.250 . S
C256 O254 1.248 . S
C257 O258 1.264 . S
C257 O265 1.249 . S
O258 C257 1.264 . S
O259 Mg252 1.986 . S
O259 C263 1.246 . S
O260 Mg255 2.032 . S
O260 C263 1.259 . S
O261 Mg252 2.114 . S
O261 C264 1.252 . S
O262 Mg252 2.251 . S
O262 Mg255 2.079 . S
O262 C264 1.273 . S
C263 O259 1.246 . S
C263 O260 1.259 . S
C264 O261 1.252 . S
C264 O262 1.273 . S
O265 Mg252 2.010 . S
O265 C257 1.249 . S
Mg266 O267 2.028 . S
Mg266 O273 1.986 . S
Mg266 O275 2.114 . S
Mg266 O276 2.251 . S
Mg266 O279 2.010 . S
O267 Mg266 2.028 . S
O267 C270 1.250 . S
O268 Mg269 2.028 . S
O268 C270 1.248 . S
Mg269 O268 2.028 . S
Mg269 O274 2.032 . S
Mg269 O276 2.079 . S
C270 O267 1.250 . S
C270 O268 1.248 . S
C271 O272 1.264 . S
C271 O279 1.249 . S
O272 C271 1.264 . S
O273 Mg266 1.986 . S
O273 C277 1.246 . S
O274 Mg269 2.032 . S
O274 C277 1.259 . S
O275 Mg266 2.114 . S
O275 C278 1.252 . S
O276 Mg266 2.251 . S
O276 Mg269 2.079 . S
O276 C278 1.273 . S
C277 O273 1.246 . S
C277 O274 1.259 . S
C278 O275 1.252 . S
C278 O276 1.273 . S
O279 Mg266 2.010 . S
O279 C271 1.249 . S
Mg280 O281 2.028 . S
Mg280 O287 1.986 . S
Mg280 O289 2.114 . S
Mg280 O290 2.251 . S
Mg280 O293 2.010 . S
O281 Mg280 2.028 . S
O281 C284 1.250 . S
O282 Mg283 2.028 . S
O282 C284 1.248 . S
Mg283 O282 2.028 . S
Mg283 O288 2.032 . S
Mg283 O290 2.079 . S
C284 O281 1.250 . S
C284 O282 1.248 . S
C285 O286 1.264 . S
C285 O293 1.249 . S
O286 C285 1.264 . S
O287 Mg280 1.986 . S
O287 C291 1.246 . S
O288 Mg283 2.032 . S
O288 C291 1.259 . S
O289 Mg280 2.114 . S
O289 C292 1.252 . S
O290 Mg280 2.251 . S
O290 Mg283 2.079 . S
O290 C292 1.273 . S
C291 O287 1.246 . S
C291 O288 1.259 . S
C292 O289 1.252 . S
C292 O290 1.273 . S
O293 Mg280 2.010 . S
O293 C285 1.249 . S
Mg294 O295 2.028 . S
Mg294 O301 1.986 . S
Mg294 O303 2.114 . S
Mg294 O304 2.251 . S
Mg294 O307 2.010 . S
O295 Mg294 2.028 . S
O295 C298 1.250 . S
O296 Mg297 2.028 . S
O296 C298 1.248 . S
Mg297 O296 2.028 . S
Mg297 O302 2.032 . S
Mg297 O304 2.079 . S
C298 O295 1.250 . S
C298 O296 1.248 . S
C299 O300 1.264 . S
C299 O307 1.249 . S
O300 C299 1.264 . S
O301 Mg294 1.986 . S
O301 C305 1.246 . S
O302 Mg297 2.032 . S
O302 C305 1.259 . S
O303 Mg294 2.114 . S
O303 C306 1.252 . S
O304 Mg294 2.251 . S
O304 Mg297 2.079 . S
O304 C306 1.273 . S
C305 O301 1.246 . S
C305 O302 1.259 . S
C306 O303 1.252 . S
C306 O304 1.273 . S
O307 Mg294 2.010 . S
O307 C299 1.249 . S
Mg308 O309 2.028 . S
Mg308 O315 1.986 . S
Mg308 O317 2.114 . S
Mg308 O318 2.251 . S
Mg308 O321 2.010 . S
O309 Mg308 2.028 . S
O309 C312 1.250 . S
O310 Mg311 2.028 . S
O310 C312 1.248 . S
Mg311 O310 2.028 . S
Mg311 O316 2.032 . S
Mg311 O318 2.079 . S
C312 O309 1.250 . S
C312 O310 1.248 . S
C313 O314 1.264 . S
C313 O321 1.249 . S
O314 C313 1.264 . S
O315 Mg308 1.986 . S
O315 C319 1.246 . S
O316 Mg311 2.032 . S
O316 C319 1.259 . S
O317 Mg308 2.114 . S
O317 C320 1.252 . S
O318 Mg308 2.251 . S
O318 Mg311 2.079 . S
O318 C320 1.273 . S
C319 O315 1.246 . S
C319 O316 1.259 . S
C320 O317 1.252 . S
C320 O318 1.273 . S
O321 Mg308 2.010 . S
O321 C313 1.249 . S
Mg322 O323 2.028 . S
Mg322 O329 1.986 . S
Mg322 O331 2.114 . S
Mg322 O332 2.251 . S
Mg322 O335 2.010 . S
O323 Mg322 2.028 . S
O323 C326 1.250 . S
O324 Mg325 2.028 . S
O324 C326 1.248 . S
Mg325 O324 2.028 . S
Mg325 O330 2.032 . S
Mg325 O332 2.079 . S
C326 O323 1.250 . S
C326 O324 1.248 . S
C327 O328 1.264 . S
C327 O335 1.249 . S
O328 C327 1.264 . S
O329 Mg322 1.986 . S
O329 C333 1.246 . S
O330 Mg325 2.032 . S
O330 C333 1.259 . S
O331 Mg322 2.114 . S
O331 C334 1.252 . S
O332 Mg322 2.251 . S
O332 Mg325 2.079 . S
O332 C334 1.273 . S
C333 O329 1.246 . S
C333 O330 1.259 . S
C334 O331 1.252 . S
C334 O332 1.273 . S
O335 Mg322 2.010 . S
O335 C327 1.249 . S
Mg336 O337 2.028 . S
Mg336 O343 1.986 . S
Mg336 O345 2.114 . S
Mg336 O346 2.251 . S
Mg336 O349 2.010 . S
O337 Mg336 2.028 . S
O337 C340 1.250 . S
O338 Mg339 2.028 . S
O338 C340 1.248 . S
Mg339 O338 2.028 . S
Mg339 O344 2.032 . S
Mg339 O346 2.079 . S
C340 O337 1.250 . S
C340 O338 1.248 . S
C341 O342 1.264 . S
C341 O349 1.249 . S
O342 C341 1.264 . S
O343 Mg336 1.986 . S
O343 C347 1.246 . S
O344 Mg339 2.032 . S
O344 C347 1.259 . S
O345 Mg336 2.114 . S
O345 C348 1.252 . S
O346 Mg336 2.251 . S
O346 Mg339 2.079 . S
O346 C348 1.273 . S
C347 O343 1.246 . S
C347 O344 1.259 . S
C348 O345 1.252 . S
C348 O346 1.273 . S
O349 Mg336 2.010 . S
O349 C341 1.249 . S
Mg350 O351 2.028 . S
Mg350 O357 1.986 . S
Mg350 O359 2.114 . S
Mg350 O360 2.251 . S
Mg350 O363 2.010 . S
O351 Mg350 2.028 . S
O351 C354 1.250 . S
O352 Mg353 2.028 . S
O352 C354 1.248 . S
Mg353 O352 2.028 . S
Mg353 O358 2.032 . S
Mg353 O360 2.079 . S
C354 O351 1.250 . S
C354 O352 1.248 . S
C355 O356 1.264 . S
C355 O363 1.249 . S
O356 C355 1.264 . S
O357 Mg350 1.986 . S
O357 C361 1.246 . S
O358 Mg353 2.032 . S
O358 C361 1.259 . S
O359 Mg350 2.114 . S
O359 C362 1.252 . S
O360 Mg350 2.251 . S
O360 Mg353 2.079 . S
O360 C362 1.273 . S
C361 O357 1.246 . S
C361 O358 1.259 . S
C362 O359 1.252 . S
C362 O360 1.273 . S
O363 Mg350 2.010 . S
O363 C355 1.249 . S
Mg364 O365 2.028 . S
Mg364 O371 1.986 . S
Mg364 O373 2.114 . S
Mg364 O374 2.251 . S
Mg364 O377 2.010 . S
O365 Mg364 2.028 . S
O365 C368 1.250 . S
O366 Mg367 2.028 . S
O366 C368 1.248 . S
Mg367 O366 2.028 . S
Mg367 O372 2.032 . S
Mg367 O374 2.079 . S
C368 O365 1.250 . S
C368 O366 1.248 . S
C369 O370 1.264 . S
C369 O377 1.249 . S
O370 C369 1.264 . S
O371 Mg364 1.986 . S
O371 C375 1.246 . S
O372 Mg367 2.032 . S
O372 C375 1.259 . S
O373 Mg364 2.114 . S
O373 C376 1.252 . S
O374 Mg364 2.251 . S
O374 Mg367 2.079 . S
O374 C376 1.273 . S
C375 O371 1.246 . S
C375 O372 1.259 . S
C376 O373 1.252 . S
C376 O374 1.273 . S
O377 Mg364 2.010 . S
O377 C369 1.249 . S
Mg378 O379 2.028 . S
Mg378 O385 1.986 . S
Mg378 O387 2.114 . S
Mg378 O388 2.251 . S
Mg378 O391 2.010 . S
O379 Mg378 2.028 . S
O379 C382 1.250 . S
O380 Mg381 2.028 . S
O380 C382 1.248 . S
Mg381 O380 2.028 . S
Mg381 O386 2.032 . S
Mg381 O388 2.079 . S
C382 O379 1.250 . S
C382 O380 1.248 . S
C383 O384 1.264 . S
C383 O391 1.249 . S
O384 C383 1.264 . S
O385 Mg378 1.986 . S
O385 C389 1.246 . S
O386 Mg381 2.032 . S
O386 C389 1.259 . S
O387 Mg378 2.114 . S
O387 C390 1.252 . S
O388 Mg378 2.251 . S
O388 Mg381 2.079 . S
O388 C390 1.273 . S
C389 O385 1.246 . S
C389 O386 1.259 . S
C390 O387 1.252 . S
C390 O388 1.273 . S
O391 Mg378 2.010 . S
O391 C383 1.249 . S
Mg392 O393 2.028 . S
Mg392 O399 1.986 . S
Mg392 O401 2.114 . S
Mg392 O402 2.251 . S
Mg392 O405 2.010 . S
O393 Mg392 2.028 . S
O393 C396 1.250 . S
O394 Mg395 2.028 . S
O394 C396 1.248 . S
Mg395 O394 2.028 . S
Mg395 O400 2.032 . S
Mg395 O402 2.079 . S
C396 O393 1.250 . S
C396 O394 1.248 . S
C397 O398 1.264 . S
C397 O405 1.249 . S
O398 C397 1.264 . S
O399 Mg392 1.986 . S
O399 C403 1.246 . S
O400 Mg395 2.032 . S
O400 C403 1.259 . S
O401 Mg392 2.114 . S
O401 C404 1.252 . S
O402 Mg392 2.251 . S
O402 Mg395 2.079 . S
O402 C404 1.273 . S
C403 O399 1.246 . S
C403 O400 1.259 . S
C404 O401 1.252 . S
C404 O402 1.273 . S
O405 Mg392 2.010 . S
O405 C397 1.249 . S
Mg406 O407 2.028 . S
Mg406 O413 1.986 . S
Mg406 O415 2.114 . S
Mg406 O416 2.251 . S
Mg406 O419 2.010 . S
O407 Mg406 2.028 . S
O407 C410 1.250 . S
O408 Mg409 2.028 . S
O408 C410 1.248 . S
Mg409 O408 2.028 . S
Mg409 O414 2.032 . S
Mg409 O416 2.079 . S
C410 O407 1.250 . S
C410 O408 1.248 . S
C411 O412 1.264 . S
C411 O419 1.249 . S
O412 C411 1.264 . S
O413 Mg406 1.986 . S
O413 C417 1.246 . S
O414 Mg409 2.032 . S
O414 C417 1.259 . S
O415 Mg406 2.114 . S
O415 C418 1.252 . S
O416 Mg406 2.251 . S
O416 Mg409 2.079 . S
O416 C418 1.273 . S
C417 O413 1.246 . S
C417 O414 1.259 . S
C418 O415 1.252 . S
C418 O416 1.273 . S
O419 Mg406 2.010 . S
O419 C411 1.249 . S
Mg420 O421 2.028 . S
Mg420 O427 1.986 . S
Mg420 O429 2.114 . S
Mg420 O430 2.251 . S
Mg420 O433 2.010 . S
O421 Mg420 2.028 . S
O421 C424 1.250 . S
O422 Mg423 2.028 . S
O422 C424 1.248 . S
Mg423 O422 2.028 . S
Mg423 O428 2.032 . S
Mg423 O430 2.079 . S
C424 O421 1.250 . S
C424 O422 1.248 . S
C425 O426 1.264 . S
C425 O433 1.249 . S
O426 C425 1.264 . S
O427 Mg420 1.986 . S
O427 C431 1.246 . S
O428 Mg423 2.032 . S
O428 C431 1.259 . S
O429 Mg420 2.114 . S
O429 C432 1.252 . S
O430 Mg420 2.251 . S
O430 Mg423 2.079 . S
O430 C432 1.273 . S
C431 O427 1.246 . S
C431 O428 1.259 . S
C432 O429 1.252 . S
C432 O430 1.273 . S
O433 Mg420 2.010 . S
O433 C425 1.249 . S
Mg434 O435 2.028 . S
Mg434 O441 1.986 . S
Mg434 O443 2.114 . S
Mg434 O444 2.251 . S
Mg434 O447 2.010 . S
O435 Mg434 2.028 . S
O435 C438 1.250 . S
O436 Mg437 2.028 . S
O436 C438 1.248 . S
Mg437 O436 2.028 . S
Mg437 O442 2.032 . S
Mg437 O444 2.079 . S
C438 O435 1.250 . S
C438 O436 1.248 . S
C439 O440 1.264 . S
C439 O447 1.249 . S
O440 C439 1.264 . S
O441 Mg434 1.986 . S
O441 C445 1.246 . S
O442 Mg437 2.032 . S
O442 C445 1.259 . S
O443 Mg434 2.114 . S
O443 C446 1.252 . S
O444 Mg434 2.251 . S
O444 Mg437 2.079 . S
O444 C446 1.273 . S
C445 O441 1.246 . S
C445 O442 1.259 . S
C446 O443 1.252 . S
C446 O444 1.273 . S
O447 Mg434 2.010 . S
O447 C439 1.249 . S
H448 C454 0.930 . S
H449 C458 0.930 . S
H450 C463 0.929 . S
H451 C461 0.929 . S
H452 C456 0.929 . S
H453 C462 0.929 . S
C454 H448 0.930 . S
C454 C455 1.367 . S
C454 C462 1.378 . S
C455 C454 1.367 . S
C455 C463 1.433 . S
C456 H452 0.929 . S
C456 C458 1.378 . S
C456 C460 1.350 . S
C457 C460 1.463 . S
C457 C462 1.350 . S
C457 N465 1.427 . S
C458 H449 0.930 . S
C458 C456 1.378 . S
C458 C459 1.367 . S
C459 C458 1.367 . S
C459 C461 1.433 . S
C460 C456 1.350 . S
C460 C457 1.463 . S
C460 N464 1.427 . S
C461 H451 0.929 . S
C461 C459 1.433 . S
C461 N464 1.384 . S
C462 H453 0.929 . S
C462 C454 1.378 . S
C462 C457 1.350 . S
C463 H450 0.929 . S
C463 C455 1.433 . S
C463 N465 1.384 . S
N464 C460 1.427 . S
N464 C461 1.384 . S
N465 C457 1.427 . S
N465 C463 1.384 . S
H466 C472 0.930 . S
H467 C476 0.930 . S
H468 C481 0.929 . S
H469 C479 0.929 . S
H470 C474 0.929 . S
H471 C480 0.929 . S
C472 H466 0.930 . S
C472 C473 1.367 . S
C472 C480 1.378 . S
C473 C472 1.367 . S
C473 C481 1.433 . S
C474 H470 0.929 . S
C474 C476 1.378 . S
C474 C478 1.350 . S
C475 C478 1.463 . S
C475 C480 1.350 . S
C475 N483 1.427 . S
C476 H467 0.930 . S
C476 C474 1.378 . S
C476 C477 1.367 . S
C477 C476 1.367 . S
C477 C479 1.433 . S
C478 C474 1.350 . S
C478 C475 1.463 . S
C478 N482 1.427 . S
C479 H469 0.929 . S
C479 C477 1.433 . S
C479 N482 1.384 . S
C480 H471 0.929 . S
C480 C472 1.378 . S
C480 C475 1.350 . S
C481 H468 0.929 . S
C481 C473 1.433 . S
C481 N483 1.384 . S
N482 C478 1.427 . S
N482 C479 1.384 . S
N483 C475 1.427 . S
N483 C481 1.384 . S
H484 C490 0.930 . S
H485 C494 0.930 . S
H486 C499 0.929 . S
H487 C497 0.929 . S
H488 C492 0.929 . S
H489 C498 0.929 . S
C490 H484 0.930 . S
C490 C491 1.367 . S
C490 C498 1.378 . S
C491 C490 1.367 . S
C491 C499 1.433 . S
C492 H488 0.929 . S
C492 C494 1.378 . S
C492 C496 1.350 . S
C493 C496 1.463 . S
C493 C498 1.350 . S
C493 N501 1.427 . S
C494 H485 0.930 . S
C494 C492 1.378 . S
C494 C495 1.367 . S
C495 C494 1.367 . S
C495 C497 1.433 . S
C496 C492 1.350 . S
C496 C493 1.463 . S
C496 N500 1.427 . S
C497 H487 0.929 . S
C497 C495 1.433 . S
C497 N500 1.384 . S
C498 H489 0.929 . S
C498 C490 1.378 . S
C498 C493 1.350 . S
C499 H486 0.929 . S
C499 C491 1.433 . S
C499 N501 1.384 . S
N500 C496 1.427 . S
N500 C497 1.384 . S
N501 C493 1.427 . S
N501 C499 1.384 . S
H502 C508 0.930 . S
H503 C512 0.930 . S
H504 C517 0.929 . S
H505 C515 0.929 . S
H506 C510 0.929 . S
H507 C516 0.929 . S
C508 H502 0.930 . S
C508 C509 1.367 . S
C508 C516 1.378 . S
C509 C508 1.367 . S
C509 C517 1.433 . S
C510 H506 0.929 . S
C510 C512 1.378 . S
C510 C514 1.350 . S
C511 C514 1.463 . S
C511 C516 1.350 . S
C511 N519 1.427 . S
C512 H503 0.930 . S
C512 C510 1.378 . S
C512 C513 1.367 . S
C513 C512 1.367 . S
C513 C515 1.433 . S
C514 C510 1.350 . S
C514 C511 1.463 . S
C514 N518 1.427 . S
C515 H505 0.929 . S
C515 C513 1.433 . S
C515 N518 1.384 . S
C516 H507 0.929 . S
C516 C508 1.378 . S
C516 C511 1.350 . S
C517 H504 0.929 . S
C517 C509 1.433 . S
C517 N519 1.384 . S
N518 C514 1.427 . S
N518 C515 1.384 . S
N519 C511 1.427 . S
N519 C517 1.384 . S
H520 C526 0.930 . S
H521 C530 0.930 . S
H522 C535 0.929 . S
H523 C533 0.929 . S
H524 C528 0.929 . S
H525 C534 0.929 . S
C526 H520 0.930 . S
C526 C527 1.367 . S
C526 C534 1.378 . S
C527 C526 1.367 . S
C527 C535 1.433 . S
C528 H524 0.929 . S
C528 C530 1.378 . S
C528 C532 1.350 . S
C529 C532 1.463 . S
C529 C534 1.350 . S
C529 N537 1.427 . S
C530 H521 0.930 . S
C530 C528 1.378 . S
C530 C531 1.367 . S
C531 C530 1.367 . S
C531 C533 1.433 . S
C532 C528 1.350 . S
C532 C529 1.463 . S
C532 N536 1.427 . S
C533 H523 0.929 . S
C533 C531 1.433 . S
C533 N536 1.384 . S
C534 H525 0.929 . S
C534 C526 1.378 . S
C534 C529 1.350 . S
C535 H522 0.929 . S
C535 C527 1.433 . S
C535 N537 1.384 . S
N536 C532 1.427 . S
N536 C533 1.384 . S
N537 C529 1.427 . S
N537 C535 1.384 . S
H538 C544 0.930 . S
H539 C548 0.930 . S
H540 C553 0.929 . S
H541 C551 0.929 . S
H542 C546 0.929 . S
H543 C552 0.929 . S
C544 H538 0.930 . S
C544 C545 1.367 . S
C544 C552 1.378 . S
C545 C544 1.367 . S
C545 C553 1.433 . S
C546 H542 0.929 . S
C546 C548 1.378 . S
C546 C550 1.350 . S
C547 C550 1.463 . S
C547 C552 1.350 . S
C547 N555 1.427 . S
C548 H539 0.930 . S
C548 C546 1.378 . S
C548 C549 1.367 . S
C549 C548 1.367 . S
C549 C551 1.433 . S
C550 C546 1.350 . S
C550 C547 1.463 . S
C550 N554 1.427 . S
C551 H541 0.929 . S
C551 C549 1.433 . S
C551 N554 1.384 . S
C552 H543 0.929 . S
C552 C544 1.378 . S
C552 C547 1.350 . S
C553 H540 0.929 . S
C553 C545 1.433 . S
C553 N555 1.384 . S
N554 C550 1.427 . S
N554 C551 1.384 . S
N555 C547 1.427 . S
N555 C553 1.384 . S
H556 C562 0.930 . S
H557 C566 0.930 . S
H558 C571 0.929 . S
H559 C569 0.929 . S
H560 C564 0.929 . S
H561 C570 0.929 . S
C562 H556 0.930 . S
C562 C563 1.367 . S
C562 C570 1.378 . S
C563 C562 1.367 . S
C563 C571 1.433 . S
C564 H560 0.929 . S
C564 C566 1.378 . S
C564 C568 1.350 . S
C565 C568 1.463 . S
C565 C570 1.350 . S
C565 N573 1.427 . S
C566 H557 0.930 . S
C566 C564 1.378 . S
C566 C567 1.367 . S
C567 C566 1.367 . S
C567 C569 1.433 . S
C568 C564 1.350 . S
C568 C565 1.463 . S
C568 N572 1.427 . S
C569 H559 0.929 . S
C569 C567 1.433 . S
C569 N572 1.384 . S
C570 H561 0.929 . S
C570 C562 1.378 . S
C570 C565 1.350 . S
C571 H558 0.929 . S
C571 C563 1.433 . S
C571 N573 1.384 . S
N572 C568 1.427 . S
N572 C569 1.384 . S
N573 C565 1.427 . S
N573 C571 1.384 . S
H574 C580 0.930 . S
H575 C584 0.930 . S
H576 C589 0.929 . S
H577 C587 0.929 . S
H578 C582 0.929 . S
H579 C588 0.929 . S
C580 H574 0.930 . S
C580 C581 1.367 . S
C580 C588 1.378 . S
C581 C580 1.367 . S
C581 C589 1.433 . S
C582 H578 0.929 . S
C582 C584 1.378 . S
C582 C586 1.350 . S
C583 C586 1.463 . S
C583 C588 1.350 . S
C583 N591 1.427 . S
C584 H575 0.930 . S
C584 C582 1.378 . S
C584 C585 1.367 . S
C585 C584 1.367 . S
C585 C587 1.433 . S
C586 C582 1.350 . S
C586 C583 1.463 . S
C586 N590 1.427 . S
C587 H577 0.929 . S
C587 C585 1.433 . S
C587 N590 1.384 . S
C588 H579 0.929 . S
C588 C580 1.378 . S
C588 C583 1.350 . S
C589 H576 0.929 . S
C589 C581 1.433 . S
C589 N591 1.384 . S
N590 C586 1.427 . S
N590 C587 1.384 . S
N591 C583 1.427 . S
N591 C589 1.384 . S
H592 C598 0.930 . S
H593 C602 0.930 . S
H594 C607 0.929 . S
H595 C605 0.929 . S
H596 C600 0.929 . S
H597 C606 0.929 . S
C598 H592 0.930 . S
C598 C599 1.367 . S
C598 C606 1.378 . S
C599 C598 1.367 . S
C599 C607 1.433 . S
C600 H596 0.929 . S
C600 C602 1.378 . S
C600 C604 1.350 . S
C601 C604 1.463 . S
C601 C606 1.350 . S
C601 N609 1.427 . S
C602 H593 0.930 . S
C602 C600 1.378 . S
C602 C603 1.367 . S
C603 C602 1.367 . S
C603 C605 1.433 . S
C604 C600 1.350 . S
C604 C601 1.463 . S
C604 N608 1.427 . S
C605 H595 0.929 . S
C605 C603 1.433 . S
C605 N608 1.384 . S
C606 H597 0.929 . S
C606 C598 1.378 . S
C606 C601 1.350 . S
C607 H594 0.929 . S
C607 C599 1.433 . S
C607 N609 1.384 . S
N608 C604 1.427 . S
N608 C605 1.384 . S
N609 C601 1.427 . S
N609 C607 1.384 . S
H610 C616 0.930 . S
H611 C620 0.930 . S
H612 C625 0.929 . S
H613 C623 0.929 . S
H614 C618 0.929 . S
H615 C624 0.929 . S
C616 H610 0.930 . S
C616 C617 1.367 . S
C616 C624 1.378 . S
C617 C616 1.367 . S
C617 C625 1.433 . S
C618 H614 0.929 . S
C618 C620 1.378 . S
C618 C622 1.350 . S
C619 C622 1.463 . S
C619 C624 1.350 . S
C619 N627 1.427 . S
C620 H611 0.930 . S
C620 C618 1.378 . S
C620 C621 1.367 . S
C621 C620 1.367 . S
C621 C623 1.433 . S
C622 C618 1.350 . S
C622 C619 1.463 . S
C622 N626 1.427 . S
C623 H613 0.929 . S
C623 C621 1.433 . S
C623 N626 1.384 . S
C624 H615 0.929 . S
C624 C616 1.378 . S
C624 C619 1.350 . S
C625 H612 0.929 . S
C625 C617 1.433 . S
C625 N627 1.384 . S
N626 C622 1.427 . S
N626 C623 1.384 . S
N627 C619 1.427 . S
N627 C625 1.384 . S
H628 C634 0.930 . S
H629 C638 0.930 . S
H630 C643 0.929 . S
H631 C641 0.929 . S
H632 C636 0.929 . S
H633 C642 0.929 . S
C634 H628 0.930 . S
C634 C635 1.367 . S
C634 C642 1.378 . S
C635 C634 1.367 . S
C635 C643 1.433 . S
C636 H632 0.929 . S
C636 C638 1.378 . S
C636 C640 1.350 . S
C637 C640 1.463 . S
C637 C642 1.350 . S
C637 N645 1.427 . S
C638 H629 0.930 . S
C638 C636 1.378 . S
C638 C639 1.367 . S
C639 C638 1.367 . S
C639 C641 1.433 . S
C640 C636 1.350 . S
C640 C637 1.463 . S
C640 N644 1.427 . S
C641 H631 0.929 . S
C641 C639 1.433 . S
C641 N644 1.384 . S
C642 H633 0.929 . S
C642 C634 1.378 . S
C642 C637 1.350 . S
C643 H630 0.929 . S
C643 C635 1.433 . S
C643 N645 1.384 . S
N644 C640 1.427 . S
N644 C641 1.384 . S
N645 C637 1.427 . S
N645 C643 1.384 . S
H646 C652 0.930 . S
H647 C656 0.930 . S
H648 C661 0.929 . S
H649 C659 0.929 . S
H650 C654 0.929 . S
H651 C660 0.929 . S
C652 H646 0.930 . S
C652 C653 1.367 . S
C652 C660 1.378 . S
C653 C652 1.367 . S
C653 C661 1.433 . S
C654 H650 0.929 . S
C654 C656 1.378 . S
C654 C658 1.350 . S
C655 C658 1.463 . S
C655 C660 1.350 . S
C655 N663 1.427 . S
C656 H647 0.930 . S
C656 C654 1.378 . S
C656 C657 1.367 . S
C657 C656 1.367 . S
C657 C659 1.433 . S
C658 C654 1.350 . S
C658 C655 1.463 . S
C658 N662 1.427 . S
C659 H649 0.929 . S
C659 C657 1.433 . S
C659 N662 1.384 . S
C660 H651 0.929 . S
C660 C652 1.378 . S
C660 C655 1.350 . S
C661 H648 0.929 . S
C661 C653 1.433 . S
C661 N663 1.384 . S
N662 C658 1.427 . S
N662 C659 1.384 . S
N663 C655 1.427 . S
N663 C661 1.384 . S
H664 C670 0.930 . S
H665 C674 0.930 . S
H666 C679 0.929 . S
H667 C677 0.929 . S
H668 C672 0.929 . S
H669 C678 0.929 . S
C670 H664 0.930 . S
C670 C671 1.367 . S
C670 C678 1.378 . S
C671 C670 1.367 . S
C671 C679 1.433 . S
C672 H668 0.929 . S
C672 C674 1.378 . S
C672 C676 1.350 . S
C673 C676 1.463 . S
C673 C678 1.350 . S
C673 N681 1.427 . S
C674 H665 0.930 . S
C674 C672 1.378 . S
C674 C675 1.367 . S
C675 C674 1.367 . S
C675 C677 1.433 . S
C676 C672 1.350 . S
C676 C673 1.463 . S
C676 N680 1.427 . S
C677 H667 0.929 . S
C677 C675 1.433 . S
C677 N680 1.384 . S
C678 H669 0.929 . S
C678 C670 1.378 . S
C678 C673 1.350 . S
C679 H666 0.929 . S
C679 C671 1.433 . S
C679 N681 1.384 . S
N680 C676 1.427 . S
N680 C677 1.384 . S
N681 C673 1.427 . S
N681 C679 1.384 . S
H682 C688 0.930 . S
H683 C692 0.930 . S
H684 C697 0.929 . S
H685 C695 0.929 . S
H686 C690 0.929 . S
H687 C696 0.929 . S
C688 H682 0.930 . S
C688 C689 1.367 . S
C688 C696 1.378 . S
C689 C688 1.367 . S
C689 C697 1.433 . S
C690 H686 0.929 . S
C690 C692 1.378 . S
C690 C694 1.350 . S
C691 C694 1.463 . S
C691 C696 1.350 . S
C691 N699 1.427 . S
C692 H683 0.930 . S
C692 C690 1.378 . S
C692 C693 1.367 . S
C693 C692 1.367 . S
C693 C695 1.433 . S
C694 C690 1.350 . S
C694 C691 1.463 . S
C694 N698 1.427 . S
C695 H685 0.929 . S
C695 C693 1.433 . S
C695 N698 1.384 . S
C696 H687 0.929 . S
C696 C688 1.378 . S
C696 C691 1.350 . S
C697 H684 0.929 . S
C697 C689 1.433 . S
C697 N699 1.384 . S
N698 C694 1.427 . S
N698 C695 1.384 . S
N699 C691 1.427 . S
N699 C697 1.384 . S
H700 C706 0.930 . S
H701 C710 0.930 . S
H702 C715 0.929 . S
H703 C713 0.929 . S
H704 C708 0.929 . S
H705 C714 0.929 . S
C706 H700 0.930 . S
C706 C707 1.367 . S
C706 C714 1.378 . S
C707 C706 1.367 . S
C707 C715 1.433 . S
C708 H704 0.929 . S
C708 C710 1.378 . S
C708 C712 1.350 . S
C709 C712 1.463 . S
C709 C714 1.350 . S
C709 N717 1.427 . S
C710 H701 0.930 . S
C710 C708 1.378 . S
C710 C711 1.367 . S
C711 C710 1.367 . S
C711 C713 1.433 . S
C712 C708 1.350 . S
C712 C709 1.463 . S
C712 N716 1.427 . S
C713 H703 0.929 . S
C713 C711 1.433 . S
C713 N716 1.384 . S
C714 H705 0.929 . S
C714 C706 1.378 . S
C714 C709 1.350 . S
C715 H702 0.929 . S
C715 C707 1.433 . S
C715 N717 1.384 . S
N716 C712 1.427 . S
N716 C713 1.384 . S
N717 C709 1.427 . S
N717 C715 1.384 . S
H718 C724 0.930 . S
H719 C728 0.930 . S
H720 C733 0.929 . S
H721 C731 0.929 . S
H722 C726 0.929 . S
H723 C732 0.929 . S
C724 H718 0.930 . S
C724 C725 1.367 . S
C724 C732 1.378 . S
C725 C724 1.367 . S
C725 C733 1.433 . S
C726 H722 0.929 . S
C726 C728 1.378 . S
C726 C730 1.350 . S
C727 C730 1.463 . S
C727 C732 1.350 . S
C727 N735 1.427 . S
C728 H719 0.930 . S
C728 C726 1.378 . S
C728 C729 1.367 . S
C729 C728 1.367 . S
C729 C731 1.433 . S
C730 C726 1.350 . S
C730 C727 1.463 . S
C730 N734 1.427 . S
C731 H721 0.929 . S
C731 C729 1.433 . S
C731 N734 1.384 . S
C732 H723 0.929 . S
C732 C724 1.378 . S
C732 C727 1.350 . S
C733 H720 0.929 . S
C733 C725 1.433 . S
C733 N735 1.384 . S
N734 C730 1.427 . S
N734 C731 1.384 . S
N735 C727 1.427 . S
N735 C733 1.384 . S
H736 C742 0.930 . S
H737 C746 0.930 . S
H738 C751 0.929 . S
H739 C749 0.929 . S
H740 C744 0.929 . S
H741 C750 0.929 . S
C742 H736 0.930 . S
C742 C743 1.367 . S
C742 C750 1.378 . S
C743 C742 1.367 . S
C743 C751 1.433 . S
C744 H740 0.929 . S
C744 C746 1.378 . S
C744 C748 1.350 . S
C745 C748 1.463 1_554 S
C745 C750 1.350 . S
C745 N753 1.427 . S
C746 H737 0.930 . S
C746 C744 1.378 . S
C746 C747 1.367 . S
C747 C746 1.367 . S
C747 C749 1.433 . S
C748 C744 1.350 . S
C748 C745 1.463 1_556 S
C748 N752 1.427 . S
C749 H739 0.929 . S
C749 C747 1.433 . S
C749 N752 1.384 . S
C750 H741 0.929 . S
C750 C742 1.378 . S
C750 C745 1.350 . S
C751 H738 0.929 . S
C751 C743 1.433 . S
C751 N753 1.384 . S
N752 C748 1.427 . S
N752 C749 1.384 . S
N753 C745 1.427 . S
N753 C751 1.384 . S
H754 C760 0.930 . S
H755 C764 0.930 . S
H756 C769 0.929 . S
H757 C767 0.929 . S
H758 C762 0.929 . S
H759 C768 0.929 . S
C760 H754 0.930 . S
C760 C761 1.367 . S
C760 C768 1.378 . S
C761 C760 1.367 . S
C761 C769 1.433 . S
C762 H758 0.929 . S
C762 C764 1.378 . S
C762 C766 1.350 . S
C763 C766 1.463 1_556 S
C763 C768 1.350 . S
C763 N771 1.427 . S
C764 H755 0.930 . S
C764 C762 1.378 . S
C764 C765 1.367 . S
C765 C764 1.367 . S
C765 C767 1.433 . S
C766 C762 1.350 . S
C766 C763 1.463 1_554 S
C766 N770 1.427 . S
C767 H757 0.929 . S
C767 C765 1.433 . S
C767 N770 1.384 . S
C768 H759 0.929 . S
C768 C760 1.378 . S
C768 C763 1.350 . S
C769 H756 0.929 . S
C769 C761 1.433 . S
C769 N771 1.384 . S
N770 C766 1.427 . S
N770 C767 1.384 . S
N771 C763 1.427 . S
N771 C769 1.384 . S
H772 C778 0.930 . S
H773 C782 0.930 . S
H774 C787 0.929 . S
H775 C785 0.929 . S
H776 C780 0.929 . S
H777 C786 0.929 . S
C778 H772 0.930 . S
C778 C779 1.367 . S
C778 C786 1.378 . S
C779 C778 1.367 . S
C779 C787 1.433 . S
C780 H776 0.929 . S
C780 C782 1.378 . S
C780 C784 1.350 . S
C781 C784 1.463 1_556 S
C781 C786 1.350 . S
C781 N789 1.427 . S
C782 H773 0.930 . S
C782 C780 1.378 . S
C782 C783 1.367 . S
C783 C782 1.367 . S
C783 C785 1.433 . S
C784 C780 1.350 . S
C784 C781 1.463 1_554 S
C784 N788 1.427 . S
C785 H775 0.929 . S
C785 C783 1.433 . S
C785 N788 1.384 . S
C786 H777 0.929 . S
C786 C778 1.378 . S
C786 C781 1.350 . S
C787 H774 0.929 . S
C787 C779 1.433 . S
C787 N789 1.384 . S
N788 C784 1.427 . S
N788 C785 1.384 . S
N789 C781 1.427 . S
N789 C787 1.384 . S
H790 C796 0.930 . S
H791 C800 0.930 . S
H792 C805 0.929 . S
H793 C803 0.929 . S
H794 C798 0.929 . S
H795 C804 0.929 . S
C796 H790 0.930 . S
C796 C797 1.367 . S
C796 C804 1.378 . S
C797 C796 1.367 . S
C797 C805 1.433 . S
C798 H794 0.929 . S
C798 C800 1.378 . S
C798 C802 1.350 . S
C799 C802 1.463 1_556 S
C799 C804 1.350 . S
C799 N807 1.427 . S
C800 H791 0.930 . S
C800 C798 1.378 . S
C800 C801 1.367 . S
C801 C800 1.367 . S
C801 C803 1.433 . S
C802 C798 1.350 . S
C802 C799 1.463 1_554 S
C802 N806 1.427 . S
C803 H793 0.929 . S
C803 C801 1.433 . S
C803 N806 1.384 . S
C804 H795 0.929 . S
C804 C796 1.378 . S
C804 C799 1.350 . S
C805 H792 0.929 . S
C805 C797 1.433 . S
C805 N807 1.384 . S
N806 C802 1.427 . S
N806 C803 1.384 . S
N807 C799 1.427 . S
N807 C805 1.384 . S
H808 C814 0.930 . S
H809 C818 0.930 . S
H810 C823 0.929 . S
H811 C821 0.929 . S
H812 C816 0.929 . S
H813 C822 0.929 . S
C814 H808 0.930 . S
C814 C815 1.367 . S
C814 C822 1.378 . S
C815 C814 1.367 . S
C815 C823 1.433 . S
C816 H812 0.929 . S
C816 C818 1.378 . S
C816 C820 1.350 . S
C817 C820 1.463 . S
C817 C822 1.350 . S
C817 N825 1.427 . S
C818 H809 0.930 . S
C818 C816 1.378 . S
C818 C819 1.367 . S
C819 C818 1.367 . S
C819 C821 1.433 . S
C820 C816 1.350 . S
C820 C817 1.463 . S
C820 N824 1.427 . S
C821 H811 0.929 . S
C821 C819 1.433 . S
C821 N824 1.384 . S
C822 H813 0.929 . S
C822 C814 1.378 . S
C822 C817 1.350 . S
C823 H810 0.929 . S
C823 C815 1.433 . S
C823 N825 1.384 . S
N824 C820 1.427 . S
N824 C821 1.384 . S
N825 C817 1.427 . S
N825 C823 1.384 . S
H826 C832 0.930 . S
H827 C836 0.930 . S
H828 C841 0.929 . S
H829 C839 0.929 . S
H830 C834 0.929 . S
H831 C840 0.929 . S
C832 H826 0.930 . S
C832 C833 1.367 . S
C832 C840 1.378 . S
C833 C832 1.367 . S
C833 C841 1.433 . S
C834 H830 0.929 . S
C834 C836 1.378 . S
C834 C838 1.350 . S
C835 C838 1.463 . S
C835 C840 1.350 . S
C835 N843 1.427 . S
C836 H827 0.930 . S
C836 C834 1.378 . S
C836 C837 1.367 . S
C837 C836 1.367 . S
C837 C839 1.433 . S
C838 C834 1.350 . S
C838 C835 1.463 . S
C838 N842 1.427 . S
C839 H829 0.929 . S
C839 C837 1.433 . S
C839 N842 1.384 . S
C840 H831 0.929 . S
C840 C832 1.378 . S
C840 C835 1.350 . S
C841 H828 0.929 . S
C841 C833 1.433 . S
C841 N843 1.384 . S
N842 C838 1.427 . S
N842 C839 1.384 . S
N843 C835 1.427 . S
N843 C841 1.384 . S
H844 C850 0.930 . S
H845 C854 0.930 . S
H846 C859 0.929 . S
H847 C857 0.929 . S
H848 C852 0.929 . S
H849 C858 0.929 . S
C850 H844 0.930 . S
C850 C851 1.367 . S
C850 C858 1.378 . S
C851 C850 1.367 . S
C851 C859 1.433 . S
C852 H848 0.929 . S
C852 C854 1.378 . S
C852 C856 1.350 . S
C853 C856 1.463 . S
C853 C858 1.350 . S
C853 N861 1.427 . S
C854 H845 0.930 . S
C854 C852 1.378 . S
C854 C855 1.367 . S
C855 C854 1.367 . S
C855 C857 1.433 . S
C856 C852 1.350 . S
C856 C853 1.463 . S
C856 N860 1.427 . S
C857 H847 0.929 . S
C857 C855 1.433 . S
C857 N860 1.384 . S
C858 H849 0.929 . S
C858 C850 1.378 . S
C858 C853 1.350 . S
C859 H846 0.929 . S
C859 C851 1.433 . S
C859 N861 1.384 . S
N860 C856 1.427 . S
N860 C857 1.384 . S
N861 C853 1.427 . S
N861 C859 1.384 . S
H862 C868 0.930 . S
H863 C872 0.930 . S
H864 C877 0.929 . S
H865 C875 0.929 . S
H866 C870 0.929 . S
H867 C876 0.929 . S
C868 H862 0.930 . S
C868 C869 1.367 . S
C868 C876 1.378 . S
C869 C868 1.367 . S
C869 C877 1.433 . S
C870 H866 0.929 . S
C870 C872 1.378 . S
C870 C874 1.350 . S
C871 C874 1.463 . S
C871 C876 1.350 . S
C871 N879 1.427 . S
C872 H863 0.930 . S
C872 C870 1.378 . S
C872 C873 1.367 . S
C873 C872 1.367 . S
C873 C875 1.433 . S
C874 C870 1.350 . S
C874 C871 1.463 . S
C874 N878 1.427 . S
C875 H865 0.929 . S
C875 C873 1.433 . S
C875 N878 1.384 . S
C876 H867 0.929 . S
C876 C868 1.378 . S
C876 C871 1.350 . S
C877 H864 0.929 . S
C877 C869 1.433 . S
C877 N879 1.384 . S
N878 C874 1.427 . S
N878 C875 1.384 . S
N879 C871 1.427 . S
N879 C877 1.384 . S
H880 C886 0.930 . S
H881 C890 0.930 . S
H882 C895 0.929 . S
H883 C893 0.929 . S
H884 C888 0.929 . S
H885 C894 0.929 . S
C886 H880 0.930 . S
C886 C887 1.367 . S
C886 C894 1.378 . S
C887 C886 1.367 . S
C887 C895 1.433 . S
C888 H884 0.929 . S
C888 C890 1.378 . S
C888 C892 1.350 . S
C889 C892 1.463 . S
C889 C894 1.350 . S
C889 N897 1.427 . S
C890 H881 0.930 . S
C890 C888 1.378 . S
C890 C891 1.367 . S
C891 C890 1.367 . S
C891 C893 1.433 . S
C892 C888 1.350 . S
C892 C889 1.463 . S
C892 N896 1.427 . S
C893 H883 0.929 . S
C893 C891 1.433 . S
C893 N896 1.384 . S
C894 H885 0.929 . S
C894 C886 1.378 . S
C894 C889 1.350 . S
C895 H882 0.929 . S
C895 C887 1.433 . S
C895 N897 1.384 . S
N896 C892 1.427 . S
N896 C893 1.384 . S
N897 C889 1.427 . S
N897 C895 1.384 . S
H898 C904 0.930 . S
H899 C908 0.930 . S
H900 C913 0.929 . S
H901 C911 0.929 . S
H902 C906 0.929 . S
H903 C912 0.929 . S
C904 H898 0.930 . S
C904 C905 1.367 . S
C904 C912 1.378 . S
C905 C904 1.367 . S
C905 C913 1.433 . S
C906 H902 0.929 . S
C906 C908 1.378 . S
C906 C910 1.350 . S
C907 C910 1.463 . S
C907 C912 1.350 . S
C907 N915 1.427 . S
C908 H899 0.930 . S
C908 C906 1.378 . S
C908 C909 1.367 . S
C909 C908 1.367 . S
C909 C911 1.433 . S
C910 C906 1.350 . S
C910 C907 1.463 . S
C910 N914 1.427 . S
C911 H901 0.929 . S
C911 C909 1.433 . S
C911 N914 1.384 . S
C912 H903 0.929 . S
C912 C904 1.378 . S
C912 C907 1.350 . S
C913 H900 0.929 . S
C913 C905 1.433 . S
C913 N915 1.384 . S
N914 C910 1.427 . S
N914 C911 1.384 . S
N915 C907 1.427 . S
N915 C913 1.384 . S
H916 C922 0.930 . S
H917 C926 0.930 . S
H918 C931 0.929 . S
H919 C929 0.929 . S
H920 C924 0.929 . S
H921 C930 0.929 . S
C922 H916 0.930 . S
C922 C923 1.367 . S
C922 C930 1.378 . S
C923 C922 1.367 . S
C923 C931 1.433 . S
C924 H920 0.929 . S
C924 C926 1.378 . S
C924 C928 1.350 . S
C925 C928 1.463 . S
C925 C930 1.350 . S
C925 N933 1.427 . S
C926 H917 0.930 . S
C926 C924 1.378 . S
C926 C927 1.367 . S
C927 C926 1.367 . S
C927 C929 1.433 . S
C928 C924 1.350 . S
C928 C925 1.463 . S
C928 N932 1.427 . S
C929 H919 0.929 . S
C929 C927 1.433 . S
C929 N932 1.384 . S
C930 H921 0.929 . S
C930 C922 1.378 . S
C930 C925 1.350 . S
C931 H918 0.929 . S
C931 C923 1.433 . S
C931 N933 1.384 . S
N932 C928 1.427 . S
N932 C929 1.384 . S
N933 C925 1.427 . S
N933 C931 1.384 . S
H934 C940 0.930 . S
H935 C944 0.930 . S
H936 C949 0.929 . S
H937 C947 0.929 . S
H938 C942 0.929 . S
H939 C948 0.929 . S
C940 H934 0.930 . S
C940 C941 1.367 . S
C940 C948 1.378 . S
C941 C940 1.367 . S
C941 C949 1.433 . S
C942 H938 0.929 . S
C942 C944 1.378 . S
C942 C946 1.350 . S
C943 C946 1.463 . S
C943 C948 1.350 . S
C943 N951 1.427 . S
C944 H935 0.930 . S
C944 C942 1.378 . S
C944 C945 1.367 . S
C945 C944 1.367 . S
C945 C947 1.433 . S
C946 C942 1.350 . S
C946 C943 1.463 . S
C946 N950 1.427 . S
C947 H937 0.929 . S
C947 C945 1.433 . S
C947 N950 1.384 . S
C948 H939 0.929 . S
C948 C940 1.378 . S
C948 C943 1.350 . S
C949 H936 0.929 . S
C949 C941 1.433 . S
C949 N951 1.384 . S
N950 C946 1.427 . S
N950 C947 1.384 . S
N951 C943 1.427 . S
N951 C949 1.384 . S
H952 C958 0.930 . S
H953 C962 0.930 . S
H954 C967 0.929 . S
H955 C965 0.929 . S
H956 C960 0.929 . S
H957 C966 0.929 . S
C958 H952 0.930 . S
C958 C959 1.367 . S
C958 C966 1.378 . S
C959 C958 1.367 . S
C959 C967 1.433 . S
C960 H956 0.929 . S
C960 C962 1.378 . S
C960 C964 1.350 . S
C961 C964 1.463 1_556 S
C961 C966 1.350 . S
C961 N969 1.427 . S
C962 H953 0.930 . S
C962 C960 1.378 . S
C962 C963 1.367 . S
C963 C962 1.367 . S
C963 C965 1.433 . S
C964 C960 1.350 . S
C964 C961 1.463 1_554 S
C964 N968 1.427 . S
C965 H955 0.929 . S
C965 C963 1.433 . S
C965 N968 1.384 . S
C966 H957 0.929 . S
C966 C958 1.378 . S
C966 C961 1.350 . S
C967 H954 0.929 . S
C967 C959 1.433 . S
C967 N969 1.384 . S
N968 C964 1.427 . S
N968 C965 1.384 . S
N969 C961 1.427 . S
N969 C967 1.384 . S
H970 C976 0.930 . S
H971 C980 0.930 . S
H972 C985 0.929 . S
H973 C983 0.929 . S
H974 C978 0.929 . S
H975 C984 0.929 . S
C976 H970 0.930 . S
C976 C977 1.367 . S
C976 C984 1.378 . S
C977 C976 1.367 . S
C977 C985 1.433 . S
C978 H974 0.929 . S
C978 C980 1.378 . S
C978 C982 1.350 . S
C979 C982 1.463 1_554 S
C979 C984 1.350 . S
C979 N987 1.427 . S
C980 H971 0.930 . S
C980 C978 1.378 . S
C980 C981 1.367 . S
C981 C980 1.367 . S
C981 C983 1.433 . S
C982 C978 1.350 . S
C982 C979 1.463 1_556 S
C982 N986 1.427 . S
C983 H973 0.929 . S
C983 C981 1.433 . S
C983 N986 1.384 . S
C984 H975 0.929 . S
C984 C976 1.378 . S
C984 C979 1.350 . S
C985 H972 0.929 . S
C985 C977 1.433 . S
C985 N987 1.384 . S
N986 C982 1.427 . S
N986 C983 1.384 . S
N987 C979 1.427 . S
N987 C985 1.384 . S
H988 C994 0.930 . S
H989 C998 0.930 . S
H990 C1003 0.929 . S
H991 C1001 0.929 . S
H992 C996 0.929 . S
H993 C1002 0.929 . S
C994 H988 0.930 . S
C994 C995 1.367 . S
C994 C1002 1.378 . S
C995 C994 1.367 . S
C995 C1003 1.433 . S
C996 H992 0.929 . S
C996 C998 1.378 . S
C996 C1000 1.350 . S
C997 C1000 1.463 1_554 S
C997 C1002 1.350 . S
C997 N1005 1.427 . S
C998 H989 0.930 . S
C998 C996 1.378 . S
C998 C999 1.367 . S
C999 C998 1.367 . S
C999 C1001 1.433 . S
C1000 C996 1.350 . S
C1000 C997 1.463 1_556 S
C1000 N1004 1.427 . S
C1001 H991 0.929 . S
C1001 C999 1.433 . S
C1001 N1004 1.384 . S
C1002 H993 0.929 . S
C1002 C994 1.378 . S
C1002 C997 1.350 . S
C1003 H990 0.929 . S
C1003 C995 1.433 . S
C1003 N1005 1.384 . S
N1004 C1000 1.427 . S
N1004 C1001 1.384 . S
N1005 C997 1.427 . S
N1005 C1003 1.384 . S
H1006 C1012 0.930 . S
H1007 C1016 0.930 . S
H1008 C1021 0.929 . S
H1009 C1019 0.929 . S
H1010 C1014 0.929 . S
H1011 C1020 0.929 . S
C1012 H1006 0.930 . S
C1012 C1013 1.367 . S
C1012 C1020 1.378 . S
C1013 C1012 1.367 . S
C1013 C1021 1.433 . S
C1014 H1010 0.929 . S
C1014 C1016 1.378 . S
C1014 C1018 1.350 . S
C1015 C1018 1.463 1_556 S
C1015 C1020 1.350 . S
C1015 N1023 1.427 . S
C1016 H1007 0.930 . S
C1016 C1014 1.378 . S
C1016 C1017 1.367 . S
C1017 C1016 1.367 . S
C1017 C1019 1.433 . S
C1018 C1014 1.350 . S
C1018 C1015 1.463 1_554 S
C1018 N1022 1.427 . S
C1019 H1009 0.929 . S
C1019 C1017 1.433 . S
C1019 N1022 1.384 . S
C1020 H1011 0.929 . S
C1020 C1012 1.378 . S
C1020 C1015 1.350 . S
C1021 H1008 0.929 . S
C1021 C1013 1.433 . S
C1021 N1023 1.384 . S
N1022 C1018 1.427 . S
N1022 C1019 1.384 . S
N1023 C1015 1.427 . S
N1023 C1021 1.384 . S
H1024 C1030 0.930 . S
H1025 C1034 0.930 . S
H1026 C1039 0.929 . S
H1027 C1037 0.929 . S
H1028 C1032 0.929 . S
H1029 C1038 0.929 . S
C1030 H1024 0.930 . S
C1030 C1031 1.367 . S
C1030 C1038 1.378 . S
C1031 C1030 1.367 . S
C1031 C1039 1.433 . S
C1032 H1028 0.929 . S
C1032 C1034 1.378 . S
C1032 C1036 1.350 . S
C1033 C1036 1.463 1_545 S
C1033 C1038 1.350 . S
C1033 N1041 1.427 . S
C1034 H1025 0.930 . S
C1034 C1032 1.378 . S
C1034 C1035 1.367 . S
C1035 C1034 1.367 . S
C1035 C1037 1.433 . S
C1036 C1032 1.350 . S
C1036 C1033 1.463 1_565 S
C1036 N1040 1.427 . S
C1037 H1027 0.929 . S
C1037 C1035 1.433 . S
C1037 N1040 1.384 . S
C1038 H1029 0.929 . S
C1038 C1030 1.378 . S
C1038 C1033 1.350 . S
C1039 H1026 0.929 . S
C1039 C1031 1.433 . S
C1039 N1041 1.384 . S
N1040 C1036 1.427 . S
N1040 C1037 1.384 . S
N1041 C1033 1.427 . S
N1041 C1039 1.384 . S
H1042 C1048 0.930 . S
H1043 C1052 0.930 . S
H1044 C1057 0.929 . S
H1045 C1055 0.929 . S
H1046 C1050 0.929 . S
H1047 C1056 0.929 . S
C1048 H1042 0.930 . S
C1048 C1049 1.367 . S
C1048 C1056 1.378 . S
C1049 C1048 1.367 . S
C1049 C1057 1.433 . S
C1050 H1046 0.929 . S
C1050 C1052 1.378 . S
C1050 C1054 1.350 . S
C1051 C1054 1.463 1_655 S
C1051 C1056 1.350 . S
C1051 N1059 1.427 . S
C1052 H1043 0.930 . S
C1052 C1050 1.378 . S
C1052 C1053 1.367 . S
C1053 C1052 1.367 . S
C1053 C1055 1.433 . S
C1054 C1050 1.350 . S
C1054 C1051 1.463 1_455 S
C1054 N1058 1.427 . S
C1055 H1045 0.929 . S
C1055 C1053 1.433 . S
C1055 N1058 1.384 . S
C1056 H1047 0.929 . S
C1056 C1048 1.378 . S
C1056 C1051 1.350 . S
C1057 H1044 0.929 . S
C1057 C1049 1.433 . S
C1057 N1059 1.384 . S
N1058 C1054 1.427 . S
N1058 C1055 1.384 . S
N1059 C1051 1.427 . S
N1059 C1057 1.384 . S
H1060 C1066 0.930 . S
H1061 C1070 0.930 . S
H1062 C1075 0.929 . S
H1063 C1073 0.929 . S
H1064 C1068 0.929 . S
H1065 C1074 0.929 . S
C1066 H1060 0.930 . S
C1066 C1067 1.367 . S
C1066 C1074 1.378 . S
C1067 C1066 1.367 . S
C1067 C1075 1.433 . S
C1068 H1064 0.929 . S
C1068 C1070 1.378 . S
C1068 C1072 1.350 . S
C1069 C1072 1.463 1_545 S
C1069 C1074 1.350 . S
C1069 N1077 1.427 . S
C1070 H1061 0.930 . S
C1070 C1068 1.378 . S
C1070 C1071 1.367 . S
C1071 C1070 1.367 . S
C1071 C1073 1.433 . S
C1072 C1068 1.350 . S
C1072 C1069 1.463 1_565 S
C1072 N1076 1.427 . S
C1073 H1063 0.929 . S
C1073 C1071 1.433 . S
C1073 N1076 1.384 . S
C1074 H1065 0.929 . S
C1074 C1066 1.378 . S
C1074 C1069 1.350 . S
C1075 H1062 0.929 . S
C1075 C1067 1.433 . S
C1075 N1077 1.384 . S
N1076 C1072 1.427 . S
N1076 C1073 1.384 . S
N1077 C1069 1.427 . S
N1077 C1075 1.384 . S
H1078 C1084 0.930 . S
H1079 C1088 0.930 . S
H1080 C1093 0.929 . S
H1081 C1091 0.929 . S
H1082 C1086 0.929 . S
H1083 C1092 0.929 . S
C1084 H1078 0.930 . S
C1084 C1085 1.367 . S
C1084 C1092 1.378 . S
C1085 C1084 1.367 . S
C1085 C1093 1.433 . S
C1086 H1082 0.929 . S
C1086 C1088 1.378 . S
C1086 C1090 1.350 . S
C1087 C1090 1.463 1_455 S
C1087 C1092 1.350 . S
C1087 N1095 1.427 . S
C1088 H1079 0.930 . S
C1088 C1086 1.378 . S
C1088 C1089 1.367 . S
C1089 C1088 1.367 . S
C1089 C1091 1.433 . S
C1090 C1086 1.350 . S
C1090 C1087 1.463 1_655 S
C1090 N1094 1.427 . S
C1091 H1081 0.929 . S
C1091 C1089 1.433 . S
C1091 N1094 1.384 . S
C1092 H1083 0.929 . S
C1092 C1084 1.378 . S
C1092 C1087 1.350 . S
C1093 H1080 0.929 . S
C1093 C1085 1.433 . S
C1093 N1095 1.384 . S
N1094 C1090 1.427 . S
N1094 C1091 1.384 . S
N1095 C1087 1.427 . S
N1095 C1093 1.384 . S
H1096 C1102 0.930 . S
H1097 C1106 0.930 . S
H1098 C1111 0.929 . S
H1099 C1109 0.929 . S
H1100 C1104 0.929 1_565 S
H1101 C1110 0.929 1_545 S
C1102 H1096 0.930 . S
C1102 C1103 1.367 . S
C1102 C1110 1.378 . S
C1103 C1102 1.367 . S
C1103 C1111 1.433 . S
C1104 H1100 0.929 1_545 S
C1104 C1106 1.378 . S
C1104 C1108 1.350 . S
C1105 C1108 1.463 1_565 S
C1105 C1110 1.350 . S
C1105 N1113 1.427 . S
C1106 H1097 0.930 . S
C1106 C1104 1.378 . S
C1106 C1107 1.367 . S
C1107 C1106 1.367 . S
C1107 C1109 1.433 . S
C1108 C1104 1.350 . S
C1108 C1105 1.463 1_545 S
C1108 N1112 1.427 . S
C1109 H1099 0.929 . S
C1109 C1107 1.433 . S
C1109 N1112 1.384 . S
C1110 H1101 0.929 1_565 S
C1110 C1102 1.378 . S
C1110 C1105 1.350 . S
C1111 H1098 0.929 . S
C1111 C1103 1.433 . S
C1111 N1113 1.384 . S
N1112 C1108 1.427 . S
N1112 C1109 1.384 . S
N1113 C1105 1.427 . S
N1113 C1111 1.384 . S
H1114 C1120 0.930 . S
H1115 C1124 0.930 . S
H1116 C1129 0.929 . S
H1117 C1127 0.929 . S
H1118 C1122 0.929 . S
H1119 C1128 0.929 . S
C1120 H1114 0.930 . S
C1120 C1121 1.367 . S
C1120 C1128 1.378 . S
C1121 C1120 1.367 . S
C1121 C1129 1.433 . S
C1122 H1118 0.929 . S
C1122 C1124 1.378 . S
C1122 C1126 1.350 . S
C1123 C1126 1.463 1_655 S
C1123 C1128 1.350 . S
C1123 N1131 1.427 . S
C1124 H1115 0.930 . S
C1124 C1122 1.378 . S
C1124 C1125 1.367 . S
C1125 C1124 1.367 . S
C1125 C1127 1.433 . S
C1126 C1122 1.350 . S
C1126 C1123 1.463 1_455 S
C1126 N1130 1.427 . S
C1127 H1117 0.929 . S
C1127 C1125 1.433 . S
C1127 N1130 1.384 . S
C1128 H1119 0.929 . S
C1128 C1120 1.378 . S
C1128 C1123 1.350 . S
C1129 H1116 0.929 . S
C1129 C1121 1.433 . S
C1129 N1131 1.384 . S
N1130 C1126 1.427 . S
N1130 C1127 1.384 . S
N1131 C1123 1.427 . S
N1131 C1129 1.384 . S
H1132 C1138 0.930 . S
H1133 C1142 0.930 . S
H1134 C1147 0.929 . S
H1135 C1145 0.929 . S
H1136 C1140 0.929 . S
H1137 C1146 0.929 . S
C1138 H1132 0.930 . S
C1138 C1139 1.367 . S
C1138 C1146 1.378 . S
C1139 C1138 1.367 . S
C1139 C1147 1.433 . S
C1140 H1136 0.929 . S
C1140 C1142 1.378 . S
C1140 C1144 1.350 . S
C1141 C1144 1.463 1_565 S
C1141 C1146 1.350 . S
C1141 N1149 1.427 . S
C1142 H1133 0.930 . S
C1142 C1140 1.378 . S
C1142 C1143 1.367 . S
C1143 C1142 1.367 . S
C1143 C1145 1.433 . S
C1144 C1140 1.350 . S
C1144 C1141 1.463 1_545 S
C1144 N1148 1.427 . S
C1145 H1135 0.929 . S
C1145 C1143 1.433 . S
C1145 N1148 1.384 . S
C1146 H1137 0.929 . S
C1146 C1138 1.378 . S
C1146 C1141 1.350 . S
C1147 H1134 0.929 . S
C1147 C1139 1.433 . S
C1147 N1149 1.384 . S
N1148 C1144 1.427 . S
N1148 C1145 1.384 . S
N1149 C1141 1.427 . S
N1149 C1147 1.384 . S
H1150 C1156 0.930 . S
H1151 C1160 0.930 . S
H1152 C1165 0.929 . S
H1153 C1163 0.929 . S
H1154 C1158 0.929 . S
H1155 C1164 0.929 . S
C1156 H1150 0.930 . S
C1156 C1157 1.367 . S
C1156 C1164 1.378 . S
C1157 C1156 1.367 . S
C1157 C1165 1.433 . S
C1158 H1154 0.929 . S
C1158 C1160 1.378 . S
C1158 C1162 1.350 . S
C1159 C1162 1.463 1_655 S
C1159 C1164 1.350 . S
C1159 N1167 1.427 . S
C1160 H1151 0.930 . S
C1160 C1158 1.378 . S
C1160 C1161 1.367 . S
C1161 C1160 1.367 . S
C1161 C1163 1.433 . S
C1162 C1158 1.350 . S
C1162 C1159 1.463 1_455 S
C1162 N1166 1.427 . S
C1163 H1153 0.929 . S
C1163 C1161 1.433 . S
C1163 N1166 1.384 . S
C1164 H1155 0.929 . S
C1164 C1156 1.378 . S
C1164 C1159 1.350 . S
C1165 H1152 0.929 . S
C1165 C1157 1.433 . S
C1165 N1167 1.384 . S
N1166 C1162 1.427 . S
N1166 C1163 1.384 . S
N1167 C1159 1.427 . S
N1167 C1165 1.384 . S
H1168 C1174 0.930 . S
H1169 C1178 0.930 . S
H1170 C1183 0.929 . S
H1171 C1181 0.929 . S
H1172 C1176 0.929 . S
H1173 C1182 0.929 . S
C1174 H1168 0.930 . S
C1174 C1175 1.367 . S
C1174 C1182 1.378 . S
C1175 C1174 1.367 . S
C1175 C1183 1.433 . S
C1176 H1172 0.929 . S
C1176 C1178 1.378 . S
C1176 C1180 1.350 . S
C1177 C1180 1.463 . S
C1177 C1182 1.350 . S
C1177 N1185 1.427 . S
C1178 H1169 0.930 . S
C1178 C1176 1.378 . S
C1178 C1179 1.367 . S
C1179 C1178 1.367 . S
C1179 C1181 1.433 . S
C1180 C1176 1.350 . S
C1180 C1177 1.463 . S
C1180 N1184 1.427 . S
C1181 H1171 0.929 . S
C1181 C1179 1.433 . S
C1181 N1184 1.384 . S
C1182 H1173 0.929 . S
C1182 C1174 1.378 . S
C1182 C1177 1.350 . S
C1183 H1170 0.929 . S
C1183 C1175 1.433 . S
C1183 N1185 1.384 . S
N1184 C1180 1.427 . S
N1184 C1181 1.384 . S
N1185 C1177 1.427 . S
N1185 C1183 1.384 . S
H1186 C1192 0.930 . S
H1187 C1196 0.930 . S
H1188 C1201 0.929 . S
H1189 C1199 0.929 . S
H1190 C1194 0.929 . S
H1191 C1200 0.929 . S
C1192 H1186 0.930 . S
C1192 C1193 1.367 . S
C1192 C1200 1.378 . S
C1193 C1192 1.367 . S
C1193 C1201 1.433 . S
C1194 H1190 0.929 . S
C1194 C1196 1.378 . S
C1194 C1198 1.350 . S
C1195 C1198 1.463 . S
C1195 C1200 1.350 . S
C1195 N1203 1.427 . S
C1196 H1187 0.930 . S
C1196 C1194 1.378 . S
C1196 C1197 1.367 . S
C1197 C1196 1.367 . S
C1197 C1199 1.433 . S
C1198 C1194 1.350 . S
C1198 C1195 1.463 . S
C1198 N1202 1.427 . S
C1199 H1189 0.929 . S
C1199 C1197 1.433 . S
C1199 N1202 1.384 . S
C1200 H1191 0.929 . S
C1200 C1192 1.378 . S
C1200 C1195 1.350 . S
C1201 H1188 0.929 . S
C1201 C1193 1.433 . S
C1201 N1203 1.384 . S
N1202 C1198 1.427 . S
N1202 C1199 1.384 . S
N1203 C1195 1.427 . S
N1203 C1201 1.384 . S
H1204 C1210 0.930 . S
H1205 C1214 0.930 . S
H1206 C1219 0.929 . S
H1207 C1217 0.929 . S
H1208 C1212 0.929 . S
H1209 C1218 0.929 . S
C1210 H1204 0.930 . S
C1210 C1211 1.367 . S
C1210 C1218 1.378 . S
C1211 C1210 1.367 . S
C1211 C1219 1.433 . S
C1212 H1208 0.929 . S
C1212 C1214 1.378 . S
C1212 C1216 1.350 . S
C1213 C1216 1.463 . S
C1213 C1218 1.350 . S
C1213 N1221 1.427 . S
C1214 H1205 0.930 . S
C1214 C1212 1.378 . S
C1214 C1215 1.367 . S
C1215 C1214 1.367 . S
C1215 C1217 1.433 . S
C1216 C1212 1.350 . S
C1216 C1213 1.463 . S
C1216 N1220 1.427 . S
C1217 H1207 0.929 . S
C1217 C1215 1.433 . S
C1217 N1220 1.384 . S
C1218 H1209 0.929 . S
C1218 C1210 1.378 . S
C1218 C1213 1.350 . S
C1219 H1206 0.929 . S
C1219 C1211 1.433 . S
C1219 N1221 1.384 . S
N1220 C1216 1.427 . S
N1220 C1217 1.384 . S
N1221 C1213 1.427 . S
N1221 C1219 1.384 . S
H1222 C1228 0.930 . S
H1223 C1232 0.930 . S
H1224 C1237 0.929 . S
H1225 C1235 0.929 . S
H1226 C1230 0.929 . S
H1227 C1236 0.929 . S
C1228 H1222 0.930 . S
C1228 C1229 1.367 . S
C1228 C1236 1.378 . S
C1229 C1228 1.367 . S
C1229 C1237 1.433 . S
C1230 H1226 0.929 . S
C1230 C1232 1.378 . S
C1230 C1234 1.350 . S
C1231 C1234 1.463 . S
C1231 C1236 1.350 . S
C1231 N1239 1.427 . S
C1232 H1223 0.930 . S
C1232 C1230 1.378 . S
C1232 C1233 1.367 . S
C1233 C1232 1.367 . S
C1233 C1235 1.433 . S
C1234 C1230 1.350 . S
C1234 C1231 1.463 . S
C1234 N1238 1.427 . S
C1235 H1225 0.929 . S
C1235 C1233 1.433 . S
C1235 N1238 1.384 . S
C1236 H1227 0.929 . S
C1236 C1228 1.378 . S
C1236 C1231 1.350 . S
C1237 H1224 0.929 . S
C1237 C1229 1.433 . S
C1237 N1239 1.384 . S
N1238 C1234 1.427 . S
N1238 C1235 1.384 . S
N1239 C1231 1.427 . S
N1239 C1237 1.384 . S
H1240 C1246 0.930 . S
H1241 C1250 0.930 . S
H1242 C1255 0.929 . S
H1243 C1253 0.929 . S
H1244 C1248 0.929 . S
H1245 C1254 0.929 . S
C1246 H1240 0.930 . S
C1246 C1247 1.367 . S
C1246 C1254 1.378 . S
C1247 C1246 1.367 . S
C1247 C1255 1.433 . S
C1248 H1244 0.929 . S
C1248 C1250 1.378 . S
C1248 C1252 1.350 . S
C1249 C1252 1.463 . S
C1249 C1254 1.350 . S
C1249 N1257 1.427 . S
C1250 H1241 0.930 . S
C1250 C1248 1.378 . S
C1250 C1251 1.367 . S
C1251 C1250 1.367 . S
C1251 C1253 1.433 . S
C1252 C1248 1.350 . S
C1252 C1249 1.463 . S
C1252 N1256 1.427 . S
C1253 H1243 0.929 . S
C1253 C1251 1.433 . S
C1253 N1256 1.384 . S
C1254 H1245 0.929 . S
C1254 C1246 1.378 . S
C1254 C1249 1.350 . S
C1255 H1242 0.929 . S
C1255 C1247 1.433 . S
C1255 N1257 1.384 . S
N1256 C1252 1.427 . S
N1256 C1253 1.384 . S
N1257 C1249 1.427 . S
N1257 C1255 1.384 . S
H1258 C1264 0.930 . S
H1259 C1268 0.930 . S
H1260 C1273 0.929 . S
H1261 C1271 0.929 . S
H1262 C1266 0.929 . S
H1263 C1272 0.929 . S
C1264 H1258 0.930 . S
C1264 C1265 1.367 . S
C1264 C1272 1.378 . S
C1265 C1264 1.367 . S
C1265 C1273 1.433 . S
C1266 H1262 0.929 . S
C1266 C1268 1.378 . S
C1266 C1270 1.350 . S
C1267 C1270 1.463 . S
C1267 C1272 1.350 . S
C1267 N1275 1.427 . S
C1268 H1259 0.930 . S
C1268 C1266 1.378 . S
C1268 C1269 1.367 . S
C1269 C1268 1.367 . S
C1269 C1271 1.433 . S
C1270 C1266 1.350 . S
C1270 C1267 1.463 . S
C1270 N1274 1.427 . S
C1271 H1261 0.929 . S
C1271 C1269 1.433 . S
C1271 N1274 1.384 . S
C1272 H1263 0.929 . S
C1272 C1264 1.378 . S
C1272 C1267 1.350 . S
C1273 H1260 0.929 . S
C1273 C1265 1.433 . S
C1273 N1275 1.384 . S
N1274 C1270 1.427 . S
N1274 C1271 1.384 . S
N1275 C1267 1.427 . S
N1275 C1273 1.384 . S
H1276 C1282 0.930 . S
H1277 C1286 0.930 . S
H1278 C1291 0.929 . S
H1279 C1289 0.929 . S
H1280 C1284 0.929 . S
H1281 C1290 0.929 . S
C1282 H1276 0.930 . S
C1282 C1283 1.367 . S
C1282 C1290 1.378 . S
C1283 C1282 1.367 . S
C1283 C1291 1.433 . S
C1284 H1280 0.929 . S
C1284 C1286 1.378 . S
C1284 C1288 1.350 . S
C1285 C1288 1.463 . S
C1285 C1290 1.350 . S
C1285 N1293 1.427 . S
C1286 H1277 0.930 . S
C1286 C1284 1.378 . S
C1286 C1287 1.367 . S
C1287 C1286 1.367 . S
C1287 C1289 1.433 . S
C1288 C1284 1.350 . S
C1288 C1285 1.463 . S
C1288 N1292 1.427 . S
C1289 H1279 0.929 . S
C1289 C1287 1.433 . S
C1289 N1292 1.384 . S
C1290 H1281 0.929 . S
C1290 C1282 1.378 . S
C1290 C1285 1.350 . S
C1291 H1278 0.929 . S
C1291 C1283 1.433 . S
C1291 N1293 1.384 . S
N1292 C1288 1.427 . S
N1292 C1289 1.384 . S
N1293 C1285 1.427 . S
N1293 C1291 1.384 . S
H1294 C1300 0.930 . S
H1295 C1304 0.930 . S
H1296 C1309 0.929 . S
H1297 C1307 0.929 . S
H1298 C1302 0.929 . S
H1299 C1308 0.929 . S
C1300 H1294 0.930 . S
C1300 C1301 1.367 . S
C1300 C1308 1.378 . S
C1301 C1300 1.367 . S
C1301 C1309 1.433 . S
C1302 H1298 0.929 . S
C1302 C1304 1.378 . S
C1302 C1306 1.350 . S
C1303 C1306 1.463 . S
C1303 C1308 1.350 . S
C1303 N1311 1.427 . S
C1304 H1295 0.930 . S
C1304 C1302 1.378 . S
C1304 C1305 1.367 . S
C1305 C1304 1.367 . S
C1305 C1307 1.433 . S
C1306 C1302 1.350 . S
C1306 C1303 1.463 . S
C1306 N1310 1.427 . S
C1307 H1297 0.929 . S
C1307 C1305 1.433 . S
C1307 N1310 1.384 . S
C1308 H1299 0.929 . S
C1308 C1300 1.378 . S
C1308 C1303 1.350 . S
C1309 H1296 0.929 . S
C1309 C1301 1.433 . S
C1309 N1311 1.384 . S
N1310 C1306 1.427 . S
N1310 C1307 1.384 . S
N1311 C1303 1.427 . S
N1311 C1309 1.384 . S
H1312 C1318 0.930 . S
H1313 C1322 0.930 . S
H1314 C1327 0.929 . S
H1315 C1325 0.929 . S
H1316 C1320 0.929 . S
H1317 C1326 0.929 . S
C1318 H1312 0.930 . S
C1318 C1319 1.367 . S
C1318 C1326 1.378 . S
C1319 C1318 1.367 . S
C1319 C1327 1.433 . S
C1320 H1316 0.929 . S
C1320 C1322 1.378 . S
C1320 C1324 1.350 . S
C1321 C1324 1.463 . S
C1321 C1326 1.350 . S
C1321 N1329 1.427 . S
C1322 H1313 0.930 . S
C1322 C1320 1.378 . S
C1322 C1323 1.367 . S
C1323 C1322 1.367 . S
C1323 C1325 1.433 . S
C1324 C1320 1.350 . S
C1324 C1321 1.463 . S
C1324 N1328 1.427 . S
C1325 H1315 0.929 . S
C1325 C1323 1.433 . S
C1325 N1328 1.384 . S
C1326 H1317 0.929 . S
C1326 C1318 1.378 . S
C1326 C1321 1.350 . S
C1327 H1314 0.929 . S
C1327 C1319 1.433 . S
C1327 N1329 1.384 . S
N1328 C1324 1.427 . S
N1328 C1325 1.384 . S
N1329 C1321 1.427 . S
N1329 C1327 1.384 . S
H1330 C1336 0.930 . S
H1331 C1340 0.930 . S
H1332 C1345 0.929 . S
H1333 C1343 0.929 . S
H1334 C1338 0.929 . S
H1335 C1344 0.929 . S
C1336 H1330 0.930 . S
C1336 C1337 1.367 . S
C1336 C1344 1.378 . S
C1337 C1336 1.367 . S
C1337 C1345 1.433 . S
C1338 H1334 0.929 . S
C1338 C1340 1.378 . S
C1338 C1342 1.350 . S
C1339 C1342 1.463 . S
C1339 C1344 1.350 . S
C1339 N1347 1.427 . S
C1340 H1331 0.930 . S
C1340 C1338 1.378 . S
C1340 C1341 1.367 . S
C1341 C1340 1.367 . S
C1341 C1343 1.433 . S
C1342 C1338 1.350 . S
C1342 C1339 1.463 . S
C1342 N1346 1.427 . S
C1343 H1333 0.929 . S
C1343 C1341 1.433 . S
C1343 N1346 1.384 . S
C1344 H1335 0.929 . S
C1344 C1336 1.378 . S
C1344 C1339 1.350 . S
C1345 H1332 0.929 . S
C1345 C1337 1.433 . S
C1345 N1347 1.384 . S
N1346 C1342 1.427 . S
N1346 C1343 1.384 . S
N1347 C1339 1.427 . S
N1347 C1345 1.384 . S
H1348 C1354 0.930 . S
H1349 C1358 0.930 . S
H1350 C1363 0.929 . S
H1351 C1361 0.929 . S
H1352 C1356 0.929 . S
H1353 C1362 0.929 . S
C1354 H1348 0.930 . S
C1354 C1355 1.367 . S
C1354 C1362 1.378 . S
C1355 C1354 1.367 . S
C1355 C1363 1.433 . S
C1356 H1352 0.929 . S
C1356 C1358 1.378 . S
C1356 C1360 1.350 . S
C1357 C1360 1.463 . S
C1357 C1362 1.350 . S
C1357 N1365 1.427 . S
C1358 H1349 0.930 . S
C1358 C1356 1.378 . S
C1358 C1359 1.367 . S
C1359 C1358 1.367 . S
C1359 C1361 1.433 . S
C1360 C1356 1.350 . S
C1360 C1357 1.463 . S
C1360 N1364 1.427 . S
C1361 H1351 0.929 . S
C1361 C1359 1.433 . S
C1361 N1364 1.384 . S
C1362 H1353 0.929 . S
C1362 C1354 1.378 . S
C1362 C1357 1.350 . S
C1363 H1350 0.929 . S
C1363 C1355 1.433 . S
C1363 N1365 1.384 . S
N1364 C1360 1.427 . S
N1364 C1361 1.384 . S
N1365 C1357 1.427 . S
N1365 C1363 1.384 . S
H1366 C1372 0.930 . S
H1367 C1376 0.930 . S
H1368 C1381 0.929 . S
H1369 C1379 0.929 . S
H1370 C1374 0.929 . S
H1371 C1380 0.929 . S
C1372 H1366 0.930 . S
C1372 C1373 1.367 . S
C1372 C1380 1.378 . S
C1373 C1372 1.367 . S
C1373 C1381 1.433 . S
C1374 H1370 0.929 . S
C1374 C1376 1.378 . S
C1374 C1378 1.350 . S
C1375 C1378 1.463 . S
C1375 C1380 1.350 . S
C1375 N1383 1.427 . S
C1376 H1367 0.930 . S
C1376 C1374 1.378 . S
C1376 C1377 1.367 . S
C1377 C1376 1.367 . S
C1377 C1379 1.433 . S
C1378 C1374 1.350 . S
C1378 C1375 1.463 . S
C1378 N1382 1.427 . S
C1379 H1369 0.929 . S
C1379 C1377 1.433 . S
C1379 N1382 1.384 . S
C1380 H1371 0.929 . S
C1380 C1372 1.378 . S
C1380 C1375 1.350 . S
C1381 H1368 0.929 . S
C1381 C1373 1.433 . S
C1381 N1383 1.384 . S
N1382 C1378 1.427 . S
N1382 C1379 1.384 . S
N1383 C1375 1.427 . S
N1383 C1381 1.384 . S
H1384 C1390 0.930 . S
H1385 C1394 0.930 . S
H1386 C1399 0.929 . S
H1387 C1397 0.929 . S
H1388 C1392 0.929 . S
H1389 C1398 0.929 . S
C1390 H1384 0.930 . S
C1390 C1391 1.367 . S
C1390 C1398 1.378 . S
C1391 C1390 1.367 . S
C1391 C1399 1.433 . S
C1392 H1388 0.929 . S
C1392 C1394 1.378 . S
C1392 C1396 1.350 . S
C1393 C1396 1.463 . S
C1393 C1398 1.350 . S
C1393 N1401 1.427 . S
C1394 H1385 0.930 . S
C1394 C1392 1.378 . S
C1394 C1395 1.367 . S
C1395 C1394 1.367 . S
C1395 C1397 1.433 . S
C1396 C1392 1.350 . S
C1396 C1393 1.463 . S
C1396 N1400 1.427 . S
C1397 H1387 0.929 . S
C1397 C1395 1.433 . S
C1397 N1400 1.384 . S
C1398 H1389 0.929 . S
C1398 C1390 1.378 . S
C1398 C1393 1.350 . S
C1399 H1386 0.929 . S
C1399 C1391 1.433 . S
C1399 N1401 1.384 . S
N1400 C1396 1.427 . S
N1400 C1397 1.384 . S
N1401 C1393 1.427 . S
N1401 C1399 1.384 . S
H1402 C1408 0.930 . S
H1403 C1412 0.930 . S
H1404 C1417 0.929 . S
H1405 C1415 0.929 . S
H1406 C1410 0.929 . S
H1407 C1416 0.929 . S
C1408 H1402 0.930 . S
C1408 C1409 1.367 . S
C1408 C1416 1.378 . S
C1409 C1408 1.367 . S
C1409 C1417 1.433 . S
C1410 H1406 0.929 . S
C1410 C1412 1.378 . S
C1410 C1414 1.350 . S
C1411 C1414 1.463 . S
C1411 C1416 1.350 . S
C1411 N1419 1.427 . S
C1412 H1403 0.930 . S
C1412 C1410 1.378 . S
C1412 C1413 1.367 . S
C1413 C1412 1.367 . S
C1413 C1415 1.433 . S
C1414 C1410 1.350 . S
C1414 C1411 1.463 . S
C1414 N1418 1.427 . S
C1415 H1405 0.929 . S
C1415 C1413 1.433 . S
C1415 N1418 1.384 . S
C1416 H1407 0.929 . S
C1416 C1408 1.378 . S
C1416 C1411 1.350 . S
C1417 H1404 0.929 . S
C1417 C1409 1.433 . S
C1417 N1419 1.384 . S
N1418 C1414 1.427 . S
N1418 C1415 1.384 . S
N1419 C1411 1.427 . S
N1419 C1417 1.384 . S
H1420 C1426 0.930 . S
H1421 C1430 0.930 . S
H1422 C1435 0.929 . S
H1423 C1433 0.929 . S
H1424 C1428 0.929 . S
H1425 C1434 0.929 . S
C1426 H1420 0.930 . S
C1426 C1427 1.367 . S
C1426 C1434 1.378 . S
C1427 C1426 1.367 . S
C1427 C1435 1.433 . S
C1428 H1424 0.929 . S
C1428 C1430 1.378 . S
C1428 C1432 1.350 . S
C1429 C1432 1.463 . S
C1429 C1434 1.350 . S
C1429 N1437 1.427 . S
C1430 H1421 0.930 . S
C1430 C1428 1.378 . S
C1430 C1431 1.367 . S
C1431 C1430 1.367 . S
C1431 C1433 1.433 . S
C1432 C1428 1.350 . S
C1432 C1429 1.463 . S
C1432 N1436 1.427 . S
C1433 H1423 0.929 . S
C1433 C1431 1.433 . S
C1433 N1436 1.384 . S
C1434 H1425 0.929 . S
C1434 C1426 1.378 . S
C1434 C1429 1.350 . S
C1435 H1422 0.929 . S
C1435 C1427 1.433 . S
C1435 N1437 1.384 . S
N1436 C1432 1.427 . S
N1436 C1433 1.384 . S
N1437 C1429 1.427 . S
N1437 C1435 1.384 . S
H1438 C1444 0.930 . S
H1439 C1448 0.930 . S
H1440 C1453 0.929 . S
H1441 C1451 0.929 . S
H1442 C1446 0.929 . S
H1443 C1452 0.929 . S
C1444 H1438 0.930 . S
C1444 C1445 1.367 . S
C1444 C1452 1.378 . S
C1445 C1444 1.367 . S
C1445 C1453 1.433 . S
C1446 H1442 0.929 . S
C1446 C1448 1.378 . S
C1446 C1450 1.350 . S
C1447 C1450 1.463 . S
C1447 C1452 1.350 . S
C1447 N1455 1.427 . S
C1448 H1439 0.930 . S
C1448 C1446 1.378 . S
C1448 C1449 1.367 . S
C1449 C1448 1.367 . S
C1449 C1451 1.433 . S
C1450 C1446 1.350 . S
C1450 C1447 1.463 . S
C1450 N1454 1.427 . S
C1451 H1441 0.929 . S
C1451 C1449 1.433 . S
C1451 N1454 1.384 . S
C1452 H1443 0.929 . S
C1452 C1444 1.378 . S
C1452 C1447 1.350 . S
C1453 H1440 0.929 . S
C1453 C1445 1.433 . S
C1453 N1455 1.384 . S
N1454 C1450 1.427 . S
N1454 C1451 1.384 . S
N1455 C1447 1.427 . S
N1455 C1453 1.384 . S
H1456 C1462 0.930 . S
H1457 C1466 0.930 . S
H1458 C1471 0.929 . S
H1459 C1469 0.929 . S
H1460 C1464 0.929 . S
H1461 C1470 0.929 . S
C1462 H1456 0.930 . S
C1462 C1463 1.367 . S
C1462 C1470 1.378 . S
C1463 C1462 1.367 . S
C1463 C1471 1.433 . S
C1464 H1460 0.929 . S
C1464 C1466 1.378 . S
C1464 C1468 1.350 . S
C1465 C1468 1.463 . S
C1465 C1470 1.350 . S
C1465 N1473 1.427 . S
C1466 H1457 0.930 . S
C1466 C1464 1.378 . S
C1466 C1467 1.367 . S
C1467 C1466 1.367 . S
C1467 C1469 1.433 . S
C1468 C1464 1.350 . S
C1468 C1465 1.463 . S
C1468 N1472 1.427 . S
C1469 H1459 0.929 . S
C1469 C1467 1.433 . S
C1469 N1472 1.384 . S
C1470 H1461 0.929 . S
C1470 C1462 1.378 . S
C1470 C1465 1.350 . S
C1471 H1458 0.929 . S
C1471 C1463 1.433 . S
C1471 N1473 1.384 . S
N1472 C1468 1.427 . S
N1472 C1469 1.384 . S
N1473 C1465 1.427 . S
N1473 C1471 1.384 . S
H1474 C1480 0.930 . S
H1475 C1484 0.930 . S
H1476 C1489 0.929 . S
H1477 C1487 0.929 . S
H1478 C1482 0.929 . S
H1479 C1488 0.929 . S
C1480 H1474 0.930 . S
C1480 C1481 1.367 . S
C1480 C1488 1.378 . S
C1481 C1480 1.367 . S
C1481 C1489 1.433 . S
C1482 H1478 0.929 . S
C1482 C1484 1.378 . S
C1482 C1486 1.350 . S
C1483 C1486 1.463 . S
C1483 C1488 1.350 . S
C1483 N1491 1.427 . S
C1484 H1475 0.930 . S
C1484 C1482 1.378 . S
C1484 C1485 1.367 . S
C1485 C1484 1.367 . S
C1485 C1487 1.433 . S
C1486 C1482 1.350 . S
C1486 C1483 1.463 . S
C1486 N1490 1.427 . S
C1487 H1477 0.929 . S
C1487 C1485 1.433 . S
C1487 N1490 1.384 . S
C1488 H1479 0.929 . S
C1488 C1480 1.378 . S
C1488 C1483 1.350 . S
C1489 H1476 0.929 . S
C1489 C1481 1.433 . S
C1489 N1491 1.384 . S
N1490 C1486 1.427 . S
N1490 C1487 1.384 . S
N1491 C1483 1.427 . S
N1491 C1489 1.384 . S
H1492 C1498 0.930 . S
H1493 C1502 0.930 . S
H1494 C1507 0.929 . S
H1495 C1505 0.929 . S
H1496 C1500 0.929 . S
H1497 C1506 0.929 . S
C1498 H1492 0.930 . S
C1498 C1499 1.367 . S
C1498 C1506 1.378 . S
C1499 C1498 1.367 . S
C1499 C1507 1.433 . S
C1500 H1496 0.929 . S
C1500 C1502 1.378 . S
C1500 C1504 1.350 . S
C1501 C1504 1.463 . S
C1501 C1506 1.350 . S
C1501 N1509 1.427 . S
C1502 H1493 0.930 . S
C1502 C1500 1.378 . S
C1502 C1503 1.367 . S
C1503 C1502 1.367 . S
C1503 C1505 1.433 . S
C1504 C1500 1.350 . S
C1504 C1501 1.463 . S
C1504 N1508 1.427 . S
C1505 H1495 0.929 . S
C1505 C1503 1.433 . S
C1505 N1508 1.384 . S
C1506 H1497 0.929 . S
C1506 C1498 1.378 . S
C1506 C1501 1.350 . S
C1507 H1494 0.929 . S
C1507 C1499 1.433 . S
C1507 N1509 1.384 . S
N1508 C1504 1.427 . S
N1508 C1505 1.384 . S
N1509 C1501 1.427 . S
N1509 C1507 1.384 . S
H1510 C1516 0.930 . S
H1511 C1520 0.930 . S
H1512 C1525 0.929 . S
H1513 C1523 0.929 . S
H1514 C1518 0.929 . S
H1515 C1524 0.929 . S
C1516 H1510 0.930 . S
C1516 C1517 1.367 . S
C1516 C1524 1.378 . S
C1517 C1516 1.367 . S
C1517 C1525 1.433 . S
C1518 H1514 0.929 . S
C1518 C1520 1.378 . S
C1518 C1522 1.350 . S
C1519 C1522 1.463 . S
C1519 C1524 1.350 . S
C1519 N1527 1.427 . S
C1520 H1511 0.930 . S
C1520 C1518 1.378 . S
C1520 C1521 1.367 . S
C1521 C1520 1.367 . S
C1521 C1523 1.433 . S
C1522 C1518 1.350 . S
C1522 C1519 1.463 . S
C1522 N1526 1.427 . S
C1523 H1513 0.929 . S
C1523 C1521 1.433 . S
C1523 N1526 1.384 . S
C1524 H1515 0.929 . S
C1524 C1516 1.378 . S
C1524 C1519 1.350 . S
C1525 H1512 0.929 . S
C1525 C1517 1.433 . S
C1525 N1527 1.384 . S
N1526 C1522 1.427 . S
N1526 C1523 1.384 . S
N1527 C1519 1.427 . S
N1527 C1525 1.384 . S
H1528 C1534 0.930 . S
H1529 C1538 0.930 . S
H1530 C1543 0.929 . S
H1531 C1541 0.929 . S
H1532 C1536 0.929 . S
H1533 C1542 0.929 . S
C1534 H1528 0.930 . S
C1534 C1535 1.367 . S
C1534 C1542 1.378 . S
C1535 C1534 1.367 . S
C1535 C1543 1.433 . S
C1536 H1532 0.929 . S
C1536 C1538 1.378 . S
C1536 C1540 1.350 . S
C1537 C1540 1.463 . S
C1537 C1542 1.350 . S
C1537 N1545 1.427 . S
C1538 H1529 0.930 . S
C1538 C1536 1.378 . S
C1538 C1539 1.367 . S
C1539 C1538 1.367 . S
C1539 C1541 1.433 . S
C1540 C1536 1.350 . S
C1540 C1537 1.463 . S
C1540 N1544 1.427 . S
C1541 H1531 0.929 . S
C1541 C1539 1.433 . S
C1541 N1544 1.384 . S
C1542 H1533 0.929 . S
C1542 C1534 1.378 . S
C1542 C1537 1.350 . S
C1543 H1530 0.929 . S
C1543 C1535 1.433 . S
C1543 N1545 1.384 . S
N1544 C1540 1.427 . S
N1544 C1541 1.384 . S
N1545 C1537 1.427 . S
N1545 C1543 1.384 . S
H1546 C1552 0.930 . S
H1547 C1556 0.930 . S
H1548 C1561 0.929 . S
H1549 C1559 0.929 . S
H1550 C1554 0.929 . S
H1551 C1560 0.929 . S
C1552 H1546 0.930 . S
C1552 C1553 1.367 . S
C1552 C1560 1.378 . S
C1553 C1552 1.367 . S
C1553 C1561 1.433 . S
C1554 H1550 0.929 . S
C1554 C1556 1.378 . S
C1554 C1558 1.350 . S
C1555 C1558 1.463 . S
C1555 C1560 1.350 . S
C1555 N1563 1.427 . S
C1556 H1547 0.930 . S
C1556 C1554 1.378 . S
C1556 C1557 1.367 . S
C1557 C1556 1.367 . S
C1557 C1559 1.433 . S
C1558 C1554 1.350 . S
C1558 C1555 1.463 . S
C1558 N1562 1.427 . S
C1559 H1549 0.929 . S
C1559 C1557 1.433 . S
C1559 N1562 1.384 . S
C1560 H1551 0.929 . S
C1560 C1552 1.378 . S
C1560 C1555 1.350 . S
C1561 H1548 0.929 . S
C1561 C1553 1.433 . S
C1561 N1563 1.384 . S
N1562 C1558 1.427 . S
N1562 C1559 1.384 . S
N1563 C1555 1.427 . S
N1563 C1561 1.384 . S
H1564 C1570 0.930 . S
H1565 C1574 0.930 . S
H1566 C1579 0.929 . S
H1567 C1577 0.929 . S
H1568 C1572 0.929 . S
H1569 C1578 0.929 . S
C1570 H1564 0.930 . S
C1570 C1571 1.367 . S
C1570 C1578 1.378 . S
C1571 C1570 1.367 . S
C1571 C1579 1.433 . S
C1572 H1568 0.929 . S
C1572 C1574 1.378 . S
C1572 C1576 1.350 . S
C1573 C1576 1.463 . S
C1573 C1578 1.350 . S
C1573 N1581 1.427 . S
C1574 H1565 0.930 . S
C1574 C1572 1.378 . S
C1574 C1575 1.367 . S
C1575 C1574 1.367 . S
C1575 C1577 1.433 . S
C1576 C1572 1.350 . S
C1576 C1573 1.463 . S
C1576 N1580 1.427 . S
C1577 H1567 0.929 . S
C1577 C1575 1.433 . S
C1577 N1580 1.384 . S
C1578 H1569 0.929 . S
C1578 C1570 1.378 . S
C1578 C1573 1.350 . S
C1579 H1566 0.929 . S
C1579 C1571 1.433 . S
C1579 N1581 1.384 . S
N1580 C1576 1.427 . S
N1580 C1577 1.384 . S
N1581 C1573 1.427 . S
N1581 C1579 1.384 . S
H1582 C1588 0.930 . S
H1583 C1592 0.930 . S
H1584 C1597 0.929 . S
H1585 C1595 0.929 . S
H1586 C1590 0.929 . S
H1587 C1596 0.929 . S
C1588 H1582 0.930 . S
C1588 C1589 1.367 . S
C1588 C1596 1.378 . S
C1589 C1588 1.367 . S
C1589 C1597 1.433 . S
C1590 H1586 0.929 . S
C1590 C1592 1.378 . S
C1590 C1594 1.350 . S
C1591 C1594 1.463 . S
C1591 C1596 1.350 . S
C1591 N1599 1.427 . S
C1592 H1583 0.930 . S
C1592 C1590 1.378 . S
C1592 C1593 1.367 . S
C1593 C1592 1.367 . S
C1593 C1595 1.433 . S
C1594 C1590 1.350 . S
C1594 C1591 1.463 . S
C1594 N1598 1.427 . S
C1595 H1585 0.929 . S
C1595 C1593 1.433 . S
C1595 N1598 1.384 . S
C1596 H1587 0.929 . S
C1596 C1588 1.378 . S
C1596 C1591 1.350 . S
C1597 H1584 0.929 . S
C1597 C1589 1.433 . S
C1597 N1599 1.384 . S
N1598 C1594 1.427 . S
N1598 C1595 1.384 . S
N1599 C1591 1.427 . S
N1599 C1597 1.384 . S
C455 C410 1.221 . S
C459 C4 1.210 . S
C473 C18 1.221 . S
C477 C424 1.211 . S
C491 C438 1.222 . S
C495 C32 1.209 . S
C509 C396 1.220 . S
C513 C46 1.211 . S
C527 C60 1.209 . S
C531 C382 1.222 . S
C545 C340 1.209 . S
C549 C74 1.222 . S
C563 C88 1.217 . S
C567 C354 1.214 . S
C581 C368 1.210 . S
C585 C102 1.221 . S
C599 C116 1.209 . S
C603 C298 1.222 . S
C617 C130 1.222 . S
C621 C312 1.210 . S
C635 C326 1.222 . S
C639 C144 1.209 . S
C653 C158 1.209 . S
C657 C284 1.222 . S
C671 C270 1.213 . S
C675 C172 1.218 . S
C689 C228 1.222 . S
C693 C186 1.210 . S
C707 C200 1.221 . S
C711 C242 1.210 . S
C725 C214 1.209 . S
C729 C256 1.222 . S
C743 C5 1.278 . S
C747 C145 1.303 . S
C761 C159 1.281 . S
C765 C19 1.300 . S
C779 C117 1.284 . S
C783 C33 1.297 . S
C797 C131 1.277 . S
C801 C47 1.304 . S
C815 C61 1.277 . S
C819 C201 1.304 . S
C833 C215 1.277 . S
C837 C75 1.305 . S
C851 C173 1.290 . S
C855 C89 1.291 . S
C869 C187 1.281 . S
C873 C103 1.300 . S
C887 C229 1.282 . S
C891 C369 1.299 . S
C905 C383 1.280 . S
C909 C243 1.301 . S
C923 C341 1.288 . S
C927 C257 1.294 . S
C941 C271 1.301 . S
C945 C355 1.281 . S
C959 C285 1.280 . S
C963 C425 1.302 . S
C977 C439 1.304 . S
C981 C299 1.278 . S
C995 C397 1.287 . S
C999 C313 1.294 . S
C1013 C327 1.288 . S
C1017 C411 1.294 . S
C1031 C11 1.164 . S
C1035 C67 1.165 . S
C1049 C25 1.170 . S
C1053 C81 1.172 . S
C1067 C95 1.163 . S
C1071 C39 1.163 . S
C1085 C53 1.166 . S
C1089 C109 1.165 . S
C1103 C123 1.174 . S
C1107 C179 1.174 . S
C1121 C193 1.165 . S
C1125 C137 1.164 . S
C1139 C207 1.163 . S
C1143 C151 1.163 . S
C1157 C165 1.173 . S
C1161 C221 1.172 . S
C1175 C235 1.173 . S
C1179 C291 1.172 . S
C1193 C305 1.168 . S
C1197 C249 1.170 . S
C1211 C263 1.173 . S
C1215 C319 1.172 . S
C1229 C333 1.174 . S
C1233 C277 1.174 . S
C1247 C403 1.174 . S
C1251 C347 1.174 . S
C1265 C361 1.166 . S
C1269 C417 1.164 . S
C1283 C375 1.170 . S
C1287 C431 1.168 . S
C1301 C389 1.173 . S
C1305 C445 1.174 . S
C1319 C12 1.531 . S
C1323 C82 1.531 . S
C1337 C26 1.530 . S
C1341 C96 1.533 . S
C1355 C110 1.530 . S
C1359 C40 1.532 . S
C1373 C68 1.533 . S
C1377 C54 1.530 . S
C1391 C194 1.531 . S
C1395 C124 1.532 . S
C1409 C208 1.531 . S
C1413 C138 1.531 . S
C1427 C222 1.531 . S
C1431 C152 1.532 . S
C1445 C166 1.531 . S
C1449 C180 1.532 . S
C1463 C236 1.533 . S
C1467 C306 1.530 . S
C1481 C320 1.530 . S
C1485 C250 1.532 . S
C1499 C334 1.530 . S
C1503 C264 1.532 . S
C1517 C278 1.532 . S
C1521 C292 1.531 . S
C1535 C418 1.532 . S
C1539 C348 1.531 . S
C1553 C362 1.531 . S
C1557 C432 1.531 . S
C1571 C376 1.533 . S
C1575 C446 1.530 . S
C1589 C404 1.533 . S
C1593 C390 1.530 . S
