# Generated by pormake.
# Topology zfc, (5)-cn, num edge types: 1
# Building blocks:
#     Node 0, Type 0, BuildingBlock: BEQFEK_clean_sbu_0, # of connection points: 5
#     Node 1, Type 0, BuildingBlock: BEQFEK_clean_sbu_0, # of connection points: 5
#     Node 2, Type 0, BuildingBlock: BEQFEK_clean_sbu_0, # of connection points: 5
#     Node 3, Type 0, BuildingBlock: BEQFEK_clean_sbu_0, # of connection points: 5
#     Node 4, Type 0, BuildingBlock: BEQFEK_clean_sbu_0, # of connection points: 5
#     Node 5, Type 0, BuildingBlock: BEQFEK_clean_sbu_0, # of connection points: 5
#     Node 6, Type 0, BuildingBlock: BEQFEK_clean_sbu_0, # of connection points: 5
#     Node 7, Type 0, BuildingBlock: BEQFEK_clean_sbu_0, # of connection points: 5
#     Node 8, Type 0, BuildingBlock: BEQFEK_clean_sbu_0, # of connection points: 5
#     Node 9, Type 0, BuildingBlock: BEQFEK_clean_sbu_0, # of connection points: 5
#     Node 10, Type 0, BuildingBlock: BEQFEK_clean_sbu_0, # of connection points: 5
#     Node 11, Type 0, BuildingBlock: BEQFEK_clean_sbu_0, # of connection points: 5
#     Node 12, Type 0, BuildingBlock: BEQFEK_clean_sbu_0, # of connection points: 5
#     Node 13, Type 0, BuildingBlock: BEQFEK_clean_sbu_0, # of connection points: 5
#     Node 14, Type 0, BuildingBlock: BEQFEK_clean_sbu_0, # of connection points: 5
#     Node 15, Type 0, BuildingBlock: BEQFEK_clean_sbu_0, # of connection points: 5
#     Edge 16, Type (0, 0), BuildingBlock: XIVTED_clean_linker_0, # of connection points: 2
#     Edge 17, Type (0, 0), BuildingBlock: XIVTED_clean_linker_0, # of connection points: 2
#     Edge 18, Type (0, 0), BuildingBlock: XIVTED_clean_linker_0, # of connection points: 2
#     Edge 19, Type (0, 0), BuildingBlock: XIVTED_clean_linker_0, # of connection points: 2
#     Edge 20, Type (0, 0), BuildingBlock: XIVTED_clean_linker_0, # of connection points: 2
#     Edge 21, Type (0, 0), BuildingBlock: XIVTED_clean_linker_0, # of connection points: 2
#     Edge 22, Type (0, 0), BuildingBlock: XIVTED_clean_linker_0, # of connection points: 2
#     Edge 23, Type (0, 0), BuildingBlock: XIVTED_clean_linker_0, # of connection points: 2
#     Edge 24, Type (0, 0), BuildingBlock: XIVTED_clean_linker_0, # of connection points: 2
#     Edge 25, Type (0, 0), BuildingBlock: XIVTED_clean_linker_0, # of connection points: 2
#     Edge 26, Type (0, 0), BuildingBlock: XIVTED_clean_linker_0, # of connection points: 2
#     Edge 27, Type (0, 0), BuildingBlock: XIVTED_clean_linker_0, # of connection points: 2
#     Edge 28, Type (0, 0), BuildingBlock: XIVTED_clean_linker_0, # of connection points: 2
#     Edge 29, Type (0, 0), BuildingBlock: XIVTED_clean_linker_0, # of connection points: 2
#     Edge 30, Type (0, 0), BuildingBlock: XIVTED_clean_linker_0, # of connection points: 2
#     Edge 31, Type (0, 0), BuildingBlock: XIVTED_clean_linker_0, # of connection points: 2
#     Edge 32, Type (0, 0), BuildingBlock: XIVTED_clean_linker_0, # of connection points: 2
#     Edge 33, Type (0, 0), BuildingBlock: XIVTED_clean_linker_0, # of connection points: 2
#     Edge 34, Type (0, 0), BuildingBlock: XIVTED_clean_linker_0, # of connection points: 2
#     Edge 35, Type (0, 0), BuildingBlock: XIVTED_clean_linker_0, # of connection points: 2
#     Edge 36, Type (0, 0), BuildingBlock: XIVTED_clean_linker_0, # of connection points: 2
#     Edge 37, Type (0, 0), BuildingBlock: XIVTED_clean_linker_0, # of connection points: 2
#     Edge 38, Type (0, 0), BuildingBlock: XIVTED_clean_linker_0, # of connection points: 2
#     Edge 39, Type (0, 0), BuildingBlock: XIVTED_clean_linker_0, # of connection points: 2
#     Edge 40, Type (0, 0), BuildingBlock: XIVTED_clean_linker_0, # of connection points: 2
#     Edge 41, Type (0, 0), BuildingBlock: XIVTED_clean_linker_0, # of connection points: 2
#     Edge 42, Type (0, 0), BuildingBlock: XIVTED_clean_linker_0, # of connection points: 2
#     Edge 43, Type (0, 0), BuildingBlock: XIVTED_clean_linker_0, # of connection points: 2
#     Edge 44, Type (0, 0), BuildingBlock: XIVTED_clean_linker_0, # of connection points: 2
#     Edge 45, Type (0, 0), BuildingBlock: XIVTED_clean_linker_0, # of connection points: 2
#     Edge 46, Type (0, 0), BuildingBlock: XIVTED_clean_linker_0, # of connection points: 2
#     Edge 47, Type (0, 0), BuildingBlock: XIVTED_clean_linker_0, # of connection points: 2
#     Edge 48, Type (0, 0), BuildingBlock: XIVTED_clean_linker_0, # of connection points: 2
#     Edge 49, Type (0, 0), BuildingBlock: XIVTED_clean_linker_0, # of connection points: 2
#     Edge 50, Type (0, 0), BuildingBlock: XIVTED_clean_linker_0, # of connection points: 2
#     Edge 51, Type (0, 0), BuildingBlock: XIVTED_clean_linker_0, # of connection points: 2
#     Edge 52, Type (0, 0), BuildingBlock: XIVTED_clean_linker_0, # of connection points: 2
#     Edge 53, Type (0, 0), BuildingBlock: XIVTED_clean_linker_0, # of connection points: 2
#     Edge 54, Type (0, 0), BuildingBlock: XIVTED_clean_linker_0, # of connection points: 2
#     Edge 55, Type (0, 0), BuildingBlock: XIVTED_clean_linker_0, # of connection points: 2
# Relax obj value: 0.172
# Max RMSD: 0.198
# Mean RMSD: 0.198
data_MOF--net-zfc--node1-BEQFEK_clean_sbu_0--edge1-XIVTED_clean_linker_0
_symmetry_space_group_name_H-M    P1
_symmetry_Int_Tables_number       1
_symmetry_cell_setting            triclinic
loop_
_symmetry_equiv_pos_as_xyz
'x, y, z'
_cell_length_a     74.409925
_cell_length_b     74.396515
_cell_length_c     19.005413
_cell_angle_alpha  90.047396
_cell_angle_beta   89.978501
_cell_angle_gamma 90.048985
loop_
_atom_site_label
_atom_site_type_symbol
_atom_site_fract_x
_atom_site_fract_y
_atom_site_fract_z
_atom_type_partial_charge
Co0 Co 0.24377 0.10929 0.16394 0.0
Co1 Co 0.26094 0.11574 0.01618 0.0
C2 C 0.22547 0.13243 0.06088 0.0
O3 O 0.22535 0.12492 0.121 0.0
O4 O 0.23838 0.13003 0.01797 0.0
C5 C 0.23426 0.11673 0.29823 0.0
O6 O 0.23425 0.13251 0.26716 0.0
C7 C 0.25859 0.11272 0.8644 0.0
C8 C 0.28528 0.12201 0.82866 0.0
C9 C 0.26868 0.11616 0.8048 0.0
N10 N 0.2688 0.11615 0.92111 0.0
N11 N 0.28479 0.12158 0.89953 0.0
C12 C 0.23905 0.108 0.86771 0.0
H13 H 0.23488 0.10508 0.92254 0.0
H14 H 0.23623 0.09608 0.83448 0.0
H15 H 0.23101 0.11936 0.84678 0.0
C16 C 0.24588 0.07137 0.11641 0.0
N17 N 0.24855 0.08909 0.10685 0.0
N18 N 0.25665 0.09169 0.04609 0.0
C19 C 0.25982 0.07562 0.01581 0.0
C20 C 0.25296 0.06224 0.05907 0.0
C21 C 0.23728 0.0635 0.18053 0.0
H22 H 0.2453 0.06726 0.22753 0.0
H23 H 0.22367 0.06936 0.18728 0.0
H24 H 0.23631 0.04865 0.17724 0.0
O25 O 0.26619 0.12298 0.17932 0.0
O26 O 0.27935 0.12744 0.07627 0.0
H27 H 0.27987 0.08287 0.93965 0.0
H28 H 0.27387 0.05937 0.93846 0.0
C29 C 0.26866 0.07318 0.94562 0.0
H30 H 0.25865 0.07568 0.90361 0.0
H31 H 0.29518 0.1255 0.93311 0.0
O32 O 0.23659 0.1028 0.26061 0.0
C33 C 0.27909 0.12921 0.14289 0.0
Co34 Co 0.8829 0.24236 0.13505 0.0
Co35 Co 0.87582 0.26007 0.98893 0.0
C36 C 0.85801 0.2253 0.03657 0.0
O37 O 0.8669 0.22396 0.09348 0.0
O38 O 0.85992 0.23869 -0.00439 0.0
C39 C 0.87799 0.23047 0.27187 0.0
O40 O 0.86188 0.22762 0.24588 0.0
C41 C 0.87534 0.25589 0.83816 0.0
C42 C 0.8761 0.28372 0.79786 0.0
C43 C 0.87587 0.26587 0.77676 0.0
N44 N 0.8752 0.26725 0.89302 0.0
N45 N 0.8755 0.2839 0.86879 0.0
C46 C 0.87694 0.23591 0.84541 0.0
H47 H 0.88381 0.23245 0.8954 0.0
H48 H 0.88453 0.23006 0.80063 0.0
H49 H 0.86329 0.22991 0.84635 0.0
C50 C 0.92038 0.24342 0.08379 0.0
N51 N 0.90271 0.2466 0.07598 0.0
N52 N 0.89988 0.25444 0.01497 0.0
C53 C 0.91578 0.25675 0.98223 0.0
C54 C 0.92927 0.24978 0.02465 0.0
C55 C 0.92847 0.23524 0.14828 0.0
H56 H 0.92517 0.24373 0.19453 0.0
H57 H 0.9224 0.2218 0.15728 0.0
H58 H 0.94328 0.23396 0.14395 0.0
O59 O 0.86956 0.26504 0.15144 0.0
O60 O 0.86587 0.27918 0.04982 0.0
H61 H 0.91084 0.27797 0.90878 0.0
H62 H 0.93221 0.26686 0.89626 0.0
C63 C 0.91792 0.26488 0.91067 0.0
H64 H 0.91177 0.25583 0.87109 0.0
H65 H 0.87572 0.29533 0.9006 0.0
O66 O 0.89046 0.23546 0.23062 0.0
C67 C 0.86398 0.27848 0.11637 0.0
Co68 Co 0.75076 0.88571 0.17955 0.0
Co69 Co 0.73594 0.87847 0.0292 0.0
C70 C 0.77068 0.86216 0.08133 0.0
O71 O 0.76994 0.87008 0.14063 0.0
O72 O 0.75836 0.86421 0.03562 0.0
C73 C 0.76503 0.88241 0.31503 0.0
O74 O 0.77067 0.86707 0.28881 0.0
C75 C 0.73956 0.87848 0.87794 0.0
C76 C 0.71147 0.87786 0.84036 0.0
C77 C 0.72916 0.87856 0.8177 0.0
N78 N 0.72858 0.87772 0.93383 0.0
N79 N 0.71179 0.87717 0.91123 0.0
C80 C 0.75944 0.88137 0.88279 0.0
H81 H 0.76315 0.88695 0.93495 0.0
H82 H 0.76407 0.89068 0.84091 0.0
H83 H 0.76638 0.86835 0.87531 0.0
C84 C 0.74799 0.92349 0.1308 0.0
N85 N 0.7462 0.90566 0.1208 0.0
N86 N 0.73984 0.90267 0.05732 0.0
C87 C 0.73738 0.91855 0.0246 0.0
C88 C 0.74244 0.93229 0.07013 0.0
C89 C 0.75408 0.93176 0.19852 0.0
H90 H 0.74607 0.92615 0.24257 0.0
H91 H 0.76836 0.92819 0.20781 0.0
H92 H 0.75259 0.94659 0.19824 0.0
O93 O 0.72858 0.87151 0.1938 0.0
O94 O 0.71714 0.86697 0.0876 0.0
H95 H 0.7183 0.91342 0.94261 0.0
H96 H 0.73007 0.93453 0.93275 0.0
C97 C 0.73136 0.92037 0.9497 0.0
H98 H 0.74138 0.91394 0.9149 0.0
H99 H 0.70057 0.87676 0.94417 0.0
O100 O 0.75724 0.89355 0.27478 0.0
C101 C 0.71639 0.8651 0.15412 0.0
Co102 Co 0.10999 0.74949 0.15866 0.0
Co103 Co 0.11513 0.73385 0.00825 0.0
C104 C 0.13167 0.76913 0.05334 0.0
O105 O 0.12476 0.7685 0.11452 0.0
O106 O 0.1291 0.75658 0.00898 0.0
C107 C 0.11828 0.75951 0.29197 0.0
O108 O 0.13395 0.75965 0.26008 0.0
C109 C 0.11182 0.73624 0.85684 0.0
C110 C 0.11952 0.70904 0.82115 0.0
C111 C 0.11452 0.7259 0.79742 0.0
N112 N 0.11484 0.72594 0.91352 0.0
N113 N 0.11931 0.70965 0.89202 0.0
C114 C 0.10813 0.75601 0.85982 0.0
H115 H 0.12024 0.76344 0.84202 0.0
H116 H 0.1046 0.76023 0.91405 0.0
H117 H 0.09695 0.75955 0.82393 0.0
C118 C 0.07157 0.74584 0.1195 0.0
N119 N 0.08922 0.74434 0.10527 0.0
N120 N 0.09131 0.73751 0.04191 0.0
C121 C 0.07498 0.73441 0.01359 0.0
C122 C 0.06191 0.73962 0.06183 0.0
C123 C 0.06431 0.75229 0.18845 0.0
H124 H 0.07129 0.74528 0.23204 0.0
H125 H 0.0671 0.76688 0.1939 0.0
H126 H 0.04964 0.74989 0.19305 0.0
O127 O 0.12432 0.72742 0.17112 0.0
O128 O 0.12775 0.71544 0.06527 0.0
H129 H 0.08046 0.71553 0.93105 0.0
H130 H 0.05791 0.7245 0.92865 0.0
C131 C 0.07213 0.72766 0.94011 0.0
H132 H 0.0764 0.73818 0.90253 0.0
H133 H 0.12275 0.69911 0.92564 0.0
O134 O 0.10426 0.75666 0.25553 0.0
C135 C 0.13034 0.71505 0.13144 0.0
Co136 Co 0.24172 0.88525 0.82466 0.0
Co137 Co 0.25885 0.87828 0.97216 0.0
C138 C 0.22294 0.86245 0.92764 0.0
O139 O 0.22294 0.87003 0.86766 0.0
O140 O 0.23595 0.86452 0.97037 0.0
C141 C 0.23207 0.8781 0.6903 0.0
O142 O 0.23161 0.86232 0.72134 0.0
C143 C 0.25662 0.88136 0.12397 0.0
C144 C 0.28302 0.87135 0.15963 0.0
C145 C 0.2666 0.87765 0.18357 0.0
N146 N 0.26671 0.87763 0.06723 0.0
N147 N 0.28255 0.87177 0.08876 0.0
C148 C 0.23723 0.88663 0.12072 0.0
H149 H 0.23313 0.8896 0.06586 0.0
H150 H 0.23478 0.89866 0.15373 0.0
H151 H 0.22886 0.87553 0.14193 0.0
C152 C 0.24493 0.92307 0.8725 0.0
N153 N 0.2471 0.90528 0.88189 0.0
N154 N 0.25519 0.90243 0.94245 0.0
C155 C 0.25888 0.9184 0.97274 0.0
C156 C 0.25236 0.93198 0.92972 0.0
C157 C 0.23651 0.9312 0.80859 0.0
H158 H 0.2445 0.92743 0.76154 0.0
H159 H 0.22281 0.92556 0.80153 0.0
H160 H 0.23579 0.94607 0.81237 0.0
O161 O 0.26371 0.87095 0.80898 0.0
O162 O 0.2769 0.86614 0.91168 0.0
H163 H 0.27885 0.91055 0.04819 0.0
H164 H 0.27361 0.93423 0.04949 0.0
C165 C 0.26794 0.92058 0.04259 0.0
H166 H 0.25795 0.91839 0.08498 0.0
H167 H 0.29281 0.86756 0.05515 0.0
O168 O 0.23473 0.89197 0.72799 0.0
C169 C 0.27648 0.86437 0.84506 0.0
Co170 Co 0.10913 0.24102 0.82423 0.0
Co171 Co 0.11385 0.25782 0.9734 0.0
C172 C 0.13192 0.22303 0.92959 0.0
O173 O 0.12494 0.22297 0.86849 0.0
O174 O 0.12877 0.23567 0.97303 0.0
C175 C 0.11745 0.23153 0.69021 0.0
O176 O 0.13317 0.23205 0.72161 0.0
C177 C 0.10978 0.25533 0.12451 0.0
C178 C 0.11831 0.28217 0.16143 0.0
C179 C 0.11273 0.26541 0.18452 0.0
N180 N 0.11326 0.26567 0.0683 0.0
N181 N 0.11819 0.28177 0.09054 0.0
C182 C 0.10559 0.23567 0.12049 0.0
H183 H 0.10308 0.23149 0.06534 0.0
H184 H 0.09356 0.23253 0.15263 0.0
H185 H 0.11703 0.2279 0.14226 0.0
C186 C 0.07079 0.2425 0.86566 0.0
N187 N 0.08836 0.24515 0.87867 0.0
N188 N 0.09023 0.25303 0.94026 0.0
C189 C 0.07382 0.25605 0.96779 0.0
C190 C 0.06099 0.24936 0.92167 0.0
C191 C 0.06368 0.23446 0.7991 0.0
H192 H 0.06747 0.2432 0.75417 0.0
H193 H 0.07004 0.22116 0.79038 0.0
H194 H 0.04885 0.23297 0.80046 0.0
O195 O 0.12232 0.26384 0.81085 0.0
O196 O 0.12554 0.27661 0.91542 0.0
H197 H 0.07974 0.27647 0.04421 0.0
H198 H 0.05646 0.2695 0.04309 0.0
C199 C 0.07053 0.26487 0.03748 0.0
H200 H 0.07321 0.25504 0.07996 0.0
H201 H 0.1221 0.29226 0.05745 0.0
O202 O 0.1034 0.23363 0.72728 0.0
C203 C 0.12788 0.27672 0.84908 0.0
Co204 Co 0.74855 0.10736 0.81605 0.0
Co205 Co 0.73196 0.11518 0.96343 0.0
C206 C 0.7665 0.13244 0.91218 0.0
O207 O 0.76736 0.12329 0.85567 0.0
O208 O 0.75338 0.13086 0.95462 0.0
C209 C 0.76143 0.11117 0.6796 0.0
O210 O 0.76558 0.12704 0.70529 0.0
C211 C 0.7365 0.1155 0.11373 0.0
C212 C 0.70875 0.11604 0.15506 0.0
C213 C 0.72664 0.11537 0.17545 0.0
N214 N 0.72504 0.11626 0.05937 0.0
N215 N 0.70846 0.11675 0.08417 0.0
C216 C 0.75637 0.11304 0.1056 0.0
H217 H 0.75945 0.10644 0.05463 0.0
H218 H 0.76191 0.10483 0.14924 0.0
H219 H 0.76299 0.1264 0.10626 0.0
C220 C 0.74737 0.07004 0.86963 0.0
N221 N 0.74435 0.08779 0.87643 0.0
N222 N 0.73736 0.09101 0.93878 0.0
C223 C 0.7357 0.07534 0.97371 0.0
C224 C 0.74209 0.06162 0.93127 0.0
C225 C 0.75561 0.06153 0.80604 0.0
H226 H 0.7678 0.06916 0.79048 0.0
H227 H 0.75917 0.04726 0.81577 0.0
H228 H 0.74593 0.06228 0.76172 0.0
O229 O 0.72604 0.12109 0.80018 0.0
O230 O 0.71272 0.12503 0.90342 0.0
H231 H 0.72383 0.05911 0.05603 0.0
H232 H 0.73713 0.07787 0.08553 0.0
C233 C 0.72742 0.07331 0.04504 0.0
H234 H 0.71515 0.08168 0.04875 0.0
H235 H 0.69696 0.1171 0.05276 0.0
O236 O 0.75513 0.09929 0.72079 0.0
C237 C 0.71295 0.12688 0.83683 0.0
Co238 Co 0.88333 0.74812 0.85752 0.0
Co239 Co 0.87663 0.73229 0.00688 0.0
C240 C 0.86137 0.76806 0.96103 0.0
O241 O 0.8687 0.76732 0.90062 0.0
O242 O 0.86324 0.75539 0.00539 0.0
C243 C 0.87624 0.75841 0.72382 0.0
O244 O 0.86048 0.75921 0.75489 0.0
C245 C 0.87993 0.73445 0.15825 0.0
C246 C 0.86988 0.70801 0.19378 0.0
C247 C 0.87624 0.72442 0.2177 0.0
N248 N 0.87613 0.72439 0.10154 0.0
N249 N 0.87028 0.70853 0.12293 0.0
C250 C 0.88514 0.75387 0.15509 0.0
H251 H 0.88852 0.75788 0.10047 0.0
H252 H 0.89688 0.75648 0.18949 0.0
H253 H 0.87382 0.76221 0.1746 0.0
C254 C 0.92121 0.74456 0.90246 0.0
N255 N 0.90345 0.74267 0.91352 0.0
N256 N 0.90076 0.73567 0.97627 0.0
C257 C 0.91682 0.73281 0.00703 0.0
C258 C 0.93023 0.73846 0.96155 0.0
C259 C 0.92918 0.75261 0.83749 0.0
H260 H 0.92205 0.76528 0.82455 0.0
H261 H 0.94376 0.75533 0.84397 0.0
H262 H 0.92719 0.7432 0.79283 0.0
O263 O 0.86859 0.72638 0.84311 0.0
O264 O 0.86396 0.71422 0.94786 0.0
H265 H 0.93318 0.71844 0.08205 0.0
H266 H 0.91785 0.7345 0.11912 0.0
C267 C 0.91948 0.72421 0.0774 0.0
H268 H 0.90942 0.71342 0.08559 0.0
H269 H 0.86601 0.69829 0.08925 0.0
O270 O 0.89 0.75505 0.76112 0.0
C271 C 0.86191 0.71408 0.88137 0.0
Co272 Co 0.74241 0.60941 0.66261 0.0
Co273 Co 0.75892 0.61533 0.51366 0.0
C274 C 0.72323 0.63137 0.55751 0.0
O275 O 0.72349 0.62425 0.61835 0.0
O276 O 0.73609 0.62908 0.51429 0.0
C277 C 0.7325 0.61688 0.79682 0.0
O278 O 0.73216 0.63268 0.76597 0.0
C279 C 0.75688 0.61171 0.36216 0.0
C280 C 0.7834 0.62154 0.32675 0.0
C281 C 0.76696 0.61532 0.30271 0.0
N282 N 0.76693 0.61545 0.41895 0.0
N283 N 0.78285 0.62115 0.3976 0.0
C284 C 0.7374 0.60669 0.36521 0.0
H285 H 0.73321 0.6038 0.42004 0.0
H286 H 0.73483 0.59467 0.33228 0.0
H287 H 0.72921 0.61788 0.34382 0.0
C288 C 0.74558 0.57129 0.6193 0.0
N289 N 0.74772 0.589 0.60759 0.0
N290 N 0.75503 0.5914 0.54518 0.0
C291 C 0.75783 0.57521 0.5153 0.0
C292 C 0.75183 0.56202 0.561 0.0
C293 C 0.73727 0.56359 0.68428 0.0
H294 H 0.74651 0.56576 0.72933 0.0
H295 H 0.72457 0.5708 0.69612 0.0
H296 H 0.73457 0.54899 0.67847 0.0
O297 O 0.76436 0.62387 0.67694 0.0
O298 O 0.77706 0.62782 0.57271 0.0
H299 H 0.77763 0.58214 0.43762 0.0
H300 H 0.7723 0.55845 0.44175 0.0
C301 C 0.76668 0.57223 0.44555 0.0
H302 H 0.75659 0.57389 0.40318 0.0
H303 H 0.79309 0.62538 0.43129 0.0
O304 O 0.73531 0.60304 0.75922 0.0
C305 C 0.77696 0.63015 0.63907 0.0
Co306 Co 0.38371 0.74803 0.61928 0.0
Co307 Co 0.37462 0.76308 0.47055 0.0
C308 C 0.36023 0.72744 0.52382 0.0
O309 O 0.36858 0.72835 0.58213 0.0
O310 O 0.36137 0.73997 0.47848 0.0
C311 C 0.38209 0.73385 0.75548 0.0
O312 O 0.36701 0.72721 0.73066 0.0
C313 C 0.37552 0.75856 0.32036 0.0
C314 C 0.37122 0.78594 0.27888 0.0
C315 C 0.37438 0.76831 0.25865 0.0
N316 N 0.37308 0.76981 0.37465 0.0
N317 N 0.37037 0.78617 0.34976 0.0
C318 C 0.38079 0.73924 0.32834 0.0
H319 H 0.38669 0.7368 0.38107 0.0
H320 H 0.39062 0.73534 0.28712 0.0
H321 H 0.3687 0.73067 0.32241 0.0
C322 C 0.42074 0.75144 0.56476 0.0
N323 N 0.40284 0.75325 0.55789 0.0
N324 N 0.39917 0.75999 0.49555 0.0
C325 C 0.41473 0.76276 0.46076 0.0
C326 C 0.42883 0.75733 0.50328 0.0
C327 C 0.42971 0.74359 0.62808 0.0
H328 H 0.42888 0.75336 0.6721 0.0
H329 H 0.42252 0.73121 0.64449 0.0
H330 H 0.44404 0.74041 0.61761 0.0
O331 O 0.36892 0.76965 0.63467 0.0
O332 O 0.36278 0.78152 0.53048 0.0
H333 H 0.40646 0.78225 0.38418 0.0
H334 H 0.43001 0.77648 0.3803 0.0
C335 C 0.41628 0.77114 0.38946 0.0
H336 H 0.41342 0.76087 0.34871 0.0
H337 H 0.36834 0.79751 0.38109 0.0
O338 O 0.39254 0.74222 0.71406 0.0
C339 C 0.36164 0.7818 0.59737 0.0
Co340 Co 0.24515 0.38302 0.63584 0.0
Co341 Co 0.2303 0.37481 0.4863 0.0
C342 C 0.26435 0.35787 0.54542 0.0
O343 O 0.26459 0.3671 0.60184 0.0
O344 O 0.25171 0.3594 0.50068 0.0
C345 C 0.26128 0.38655 0.77402 0.0
O346 O 0.27355 0.37503 0.75321 0.0
C347 C 0.23495 0.37306 0.33458 0.0
C348 C 0.20751 0.37866 0.29601 0.0
C349 C 0.22515 0.37655 0.27402 0.0
N350 N 0.22373 0.37387 0.38986 0.0
N351 N 0.20728 0.37678 0.36643 0.0
C352 C 0.25447 0.36835 0.34058 0.0
H353 H 0.25595 0.35619 0.37353 0.0
H354 H 0.26179 0.37955 0.36651 0.0
H355 H 0.2606 0.36528 0.28884 0.0
C356 C 0.24432 0.42008 0.58237 0.0
N357 N 0.24161 0.40233 0.57431 0.0
N358 N 0.23545 0.39912 0.5107 0.0
C359 C 0.2342 0.41487 0.47584 0.0
C360 C 0.23975 0.42859 0.52023 0.0
C361 C 0.25157 0.42856 0.64789 0.0
H362 H 0.24131 0.4276 0.69012 0.0
H363 H 0.26365 0.4211 0.66561 0.0
H364 H 0.25509 0.44289 0.63943 0.0
O365 O 0.22269 0.36911 0.64823 0.0
O366 O 0.21042 0.36491 0.54332 0.0
H367 H 0.21364 0.41077 0.39908 0.0
H368 H 0.22617 0.43126 0.38696 0.0
C369 C 0.22716 0.41694 0.40258 0.0
H370 H 0.23624 0.40991 0.3654 0.0
H371 H 0.19606 0.37839 0.3988 0.0
O372 O 0.24962 0.39212 0.73062 0.0
C373 C 0.21001 0.36315 0.60988 0.0
Co374 Co 0.61126 0.24993 0.65437 0.0
Co375 Co 0.61404 0.23606 0.50125 0.0
C376 C 0.63301 0.2697 0.54985 0.0
O377 O 0.62649 0.26867 0.61156 0.0
O378 O 0.62946 0.25786 0.50361 0.0
C379 C 0.60215 0.26869 0.79014 0.0
O380 O 0.59445 0.28258 0.76013 0.0
C381 C 0.60902 0.241 0.3519 0.0
C382 C 0.61342 0.21374 0.30894 0.0
C383 C 0.60968 0.23132 0.28993 0.0
N384 N 0.61196 0.22964 0.40544 0.0
N385 N 0.61447 0.21333 0.37967 0.0
C386 C 0.60711 0.26093 0.36022 0.0
H387 H 0.60459 0.26453 0.41597 0.0
H388 H 0.59585 0.26605 0.32792 0.0
H389 H 0.6196 0.26759 0.3418 0.0
C390 C 0.57205 0.24714 0.62367 0.0
N391 N 0.58951 0.24626 0.60518 0.0
N392 N 0.59074 0.24048 0.53988 0.0
C393 C 0.57406 0.23774 0.51431 0.0
C394 C 0.56166 0.24182 0.56665 0.0
C395 C 0.56553 0.25136 0.6963 0.0
H396 H 0.57472 0.24541 0.7358 0.0
H397 H 0.56537 0.26615 0.70356 0.0
H398 H 0.55176 0.2461 0.70513 0.0
O399 O 0.62433 0.22708 0.65942 0.0
O400 O 0.62627 0.21602 0.55152 0.0
H401 H 0.5773 0.21926 0.42868 0.0
H402 H 0.55564 0.2303 0.42987 0.0
C403 C 0.57017 0.23201 0.44026 0.0
H404 H 0.57515 0.24246 0.40377 0.0
H405 H 0.61734 0.20204 0.41017 0.0
O406 O 0.60821 0.25579 0.75359 0.0
C407 C 0.62929 0.2148 0.61725 0.0
Co408 Co 0.74778 0.38434 0.34273 0.0
Co409 Co 0.76344 0.37676 0.49178 0.0
C410 C 0.72839 0.3605 0.44101 0.0
O411 O 0.72879 0.36864 0.3822 0.0
O412 O 0.74098 0.3624 0.48576 0.0
C413 C 0.73417 0.38051 0.20683 0.0
O414 O 0.72918 0.36495 0.23307 0.0
C415 C 0.75985 0.37675 0.64315 0.0
C416 C 0.78791 0.37602 0.68089 0.0
C417 C 0.77021 0.37678 0.70351 0.0
N418 N 0.77084 0.37594 0.58728 0.0
N419 N 0.78762 0.37534 0.61 0.0
C420 C 0.73997 0.37967 0.63812 0.0
H421 H 0.73635 0.38544 0.58624 0.0
H422 H 0.73531 0.38883 0.6805 0.0
H423 H 0.73299 0.36662 0.6445 0.0
C424 C 0.7505 0.42192 0.39257 0.0
N425 N 0.75254 0.40411 0.40184 0.0
N426 N 0.7593 0.40108 0.46464 0.0
C427 C 0.76175 0.41695 0.49767 0.0
C428 C 0.75623 0.4307 0.45308 0.0
C429 C 0.74401 0.4302 0.32548 0.0
H430 H 0.75172 0.42457 0.28063 0.0
H431 H 0.72966 0.42667 0.31759 0.0
H432 H 0.74558 0.44503 0.3256 0.0
O433 O 0.76992 0.37038 0.32761 0.0
O434 O 0.7822 0.36535 0.43196 0.0
H435 H 0.78114 0.41158 0.57822 0.0
H436 H 0.76982 0.4329 0.58867 0.0
C437 C 0.76818 0.41874 0.57206 0.0
H438 H 0.75822 0.4125 0.60771 0.0
H439 H 0.79885 0.37489 0.57715 0.0
O440 O 0.74122 0.3921 0.24737 0.0
C441 C 0.78243 0.36385 0.36519 0.0
Co442 Co 0.60997 0.74264 0.31966 0.0
Co443 Co 0.61253 0.75679 0.47262 0.0
C444 C 0.63027 0.72224 0.42611 0.0
O445 O 0.6241 0.72321 0.36386 0.0
O446 O 0.62699 0.73445 0.47115 0.0
C447 C 0.60058 0.72418 0.18373 0.0
O448 O 0.59211 0.71074 0.21386 0.0
C449 C 0.60652 0.75187 0.6215 0.0
C450 C 0.61232 0.77873 0.66572 0.0
C451 C 0.6075 0.76135 0.6839 0.0
N452 N 0.61032 0.76317 0.56853 0.0
N453 N 0.61366 0.77925 0.59506 0.0
C454 C 0.60351 0.73209 0.6124 0.0
H455 H 0.60156 0.72865 0.55618 0.0
H456 H 0.59148 0.72769 0.64203 0.0
H457 H 0.61524 0.72467 0.63359 0.0
C458 C 0.57065 0.74689 0.34823 0.0
N459 N 0.5881 0.74735 0.36729 0.0
N460 N 0.5893 0.75332 0.43235 0.0
C461 C 0.57265 0.75667 0.45706 0.0
C462 C 0.56028 0.75274 0.40452 0.0
C463 C 0.56413 0.7423 0.27599 0.0
H464 H 0.57351 0.74775 0.23602 0.0
H465 H 0.5636 0.72748 0.27038 0.0
H466 H 0.55049 0.7478 0.26641 0.0
O467 O 0.62425 0.76489 0.31555 0.0
O468 O 0.62581 0.77622 0.42313 0.0
H469 H 0.57667 0.77491 0.54304 0.0
H470 H 0.55434 0.76537 0.54015 0.0
C471 C 0.56875 0.76267 0.53081 0.0
H472 H 0.57277 0.7519 0.56764 0.0
H473 H 0.61731 0.79043 0.56515 0.0
O474 O 0.60713 0.73688 0.22009 0.0
C475 C 0.62944 0.77708 0.35777 0.0
Co476 Co 0.24964 0.60821 0.32895 0.0
Co477 Co 0.23491 0.61445 0.47981 0.0
C478 C 0.26957 0.63122 0.4291 0.0
O479 O 0.26869 0.62363 0.3692 0.0
O480 O 0.25736 0.62889 0.4751 0.0
C481 C 0.26393 0.61217 0.19347 0.0
O482 O 0.26918 0.62766 0.21961 0.0
C483 C 0.23857 0.61359 0.63061 0.0
C484 C 0.21052 0.61402 0.66883 0.0
C485 C 0.22825 0.61336 0.69102 0.0
N486 N 0.22752 0.61447 0.57504 0.0
N487 N 0.21076 0.61484 0.59797 0.0
C488 C 0.25846 0.61092 0.62516 0.0
H489 H 0.26208 0.60514 0.57322 0.0
H490 H 0.26331 0.60187 0.6675 0.0
H491 H 0.26528 0.62407 0.63122 0.0
C492 C 0.24652 0.57022 0.37243 0.0
N493 N 0.24508 0.58794 0.38533 0.0
N494 N 0.23882 0.59041 0.44928 0.0
C495 C 0.23616 0.57424 0.47962 0.0
C496 C 0.24095 0.5609 0.43184 0.0
C497 C 0.25194 0.56258 0.3027 0.0
H498 H 0.24376 0.56885 0.26058 0.0
H499 H 0.26623 0.56594 0.2924 0.0
H500 H 0.25008 0.5478 0.30044 0.0
O501 O 0.22747 0.62232 0.31602 0.0
O502 O 0.21605 0.62637 0.42259 0.0
H503 H 0.21673 0.57834 0.56117 0.0
H504 H 0.22892 0.5574 0.56898 0.0
C505 C 0.22996 0.57173 0.55397 0.0
H506 H 0.2397 0.57817 0.59001 0.0
H507 H 0.1995 0.61536 0.5653 0.0
O508 O 0.25631 0.60088 0.2336 0.0
C509 C 0.2153 0.62853 0.35619 0.0
Co510 Co 0.38467 0.24658 0.36606 0.0
Co511 Co 0.37516 0.23153 0.51395 0.0
C512 C 0.35867 0.26562 0.45226 0.0
O513 O 0.36864 0.26608 0.39786 0.0
O514 O 0.35964 0.25284 0.4966 0.0
C515 C 0.38906 0.26258 0.22835 0.0
O516 O 0.37839 0.27552 0.24991 0.0
C517 C 0.3758 0.23681 0.66568 0.0
C518 C 0.37349 0.20903 0.70563 0.0
C519 C 0.37621 0.22667 0.72702 0.0
N520 N 0.37349 0.2256 0.6109 0.0
N521 N 0.37189 0.20905 0.63511 0.0
C522 C 0.37742 0.25681 0.65853 0.0
H523 H 0.37065 0.26162 0.61052 0.0
H524 H 0.39182 0.26056 0.65448 0.0
H525 H 0.37139 0.26371 0.7046 0.0
C526 C 0.4213 0.24545 0.4241 0.0
N527 N 0.40346 0.24297 0.42989 0.0
N528 N 0.39971 0.2363 0.49223 0.0
C529 C 0.41522 0.23418 0.52812 0.0
C530 C 0.42931 0.24001 0.48624 0.0
C531 C 0.43033 0.25307 0.36044 0.0
H532 H 0.43056 0.24271 0.31841 0.0
H533 H 0.42255 0.26474 0.34065 0.0
H534 H 0.44432 0.25732 0.37216 0.0
O535 O 0.37071 0.22415 0.3529 0.0
O536 O 0.36562 0.21152 0.45653 0.0
H537 H 0.40745 0.2139 0.60235 0.0
H538 H 0.43072 0.22061 0.60833 0.0
C539 C 0.41682 0.22543 0.59873 0.0
H540 H 0.41339 0.23532 0.64023 0.0
H541 H 0.37029 0.19771 0.60334 0.0
O542 O 0.3942 0.25066 0.27149 0.0
C543 C 0.36438 0.21136 0.38975 0.0
H544 H 0.27073 0.14336 0.71052 0.0
H545 H 0.23677 0.08673 0.38232 0.0
H546 H 0.25308 0.08846 0.73241 0.0
H547 H 0.2352 0.14472 0.39055 0.0
H548 H 0.24385 0.08624 0.5084 0.0
H549 H 0.25988 0.14334 0.58894 0.0
C550 C 0.26454 0.13132 0.68947 0.0
C551 C 0.26253 0.11598 0.73126 0.0
C552 C 0.24172 0.09903 0.48255 0.0
C553 C 0.2502 0.11576 0.59278 0.0
C554 C 0.23764 0.09932 0.41075 0.0
C555 C 0.23554 0.11579 0.37571 0.0
C556 C 0.24395 0.11532 0.51894 0.0
C557 C 0.23682 0.13171 0.41515 0.0
C558 C 0.25823 0.13133 0.62047 0.0
C559 C 0.25448 0.10067 0.70195 0.0
N560 N 0.24117 0.13108 0.48436 0.0
N561 N 0.24867 0.10088 0.63412 0.0
H562 H 0.85688 0.23831 0.71748 0.0
H563 H 0.90563 0.24645 0.34379 0.0
H564 H 0.89713 0.27828 0.67056 0.0
H565 H 0.8554 0.21848 0.37497 0.0
H566 H 0.90627 0.2537 0.46931 0.0
H567 H 0.85937 0.22696 0.59704 0.0
C568 C 0.86638 0.24456 0.68191 0.0
C569 C 0.87697 0.25911 0.70391 0.0
C570 C 0.89521 0.24582 0.44871 0.0
C571 C 0.8798 0.2463 0.56627 0.0
C572 C 0.89491 0.24153 0.37722 0.0
C573 C 0.88034 0.23198 0.34879 0.0
C574 C 0.88094 0.24038 0.49205 0.0
C575 C 0.86681 0.226 0.3946 0.0
C576 C 0.86773 0.23815 0.61319 0.0
C577 C 0.88873 0.26704 0.65539 0.0
N578 N 0.86737 0.23039 0.46393 0.0
N579 N 0.8899 0.26048 0.58877 0.0
H580 H 0.78027 0.86161 0.41731 0.0
H581 H 0.71525 0.8997 0.7144 0.0
H582 H 0.74639 0.9081 0.3877 0.0
H583 H 0.75715 0.8611 0.75527 0.0
H584 H 0.72652 0.90304 0.59395 0.0
H585 H 0.77296 0.86197 0.5425 0.0
C586 C 0.77154 0.87207 0.43734 0.0
C587 C 0.76374 0.88469 0.3919 0.0
C588 C 0.73336 0.89397 0.6295 0.0
C589 C 0.75505 0.88497 0.53464 0.0
C590 C 0.72683 0.89195 0.69783 0.0
C591 C 0.73545 0.88028 0.74465 0.0
C592 C 0.74841 0.884 0.60783 0.0
C593 C 0.75039 0.87053 0.72107 0.0
C594 C 0.76731 0.87224 0.50877 0.0
C595 C 0.7526 0.89802 0.42075 0.0
N596 N 0.75637 0.87255 0.65413 0.0
N597 N 0.74836 0.89764 0.49019 0.0
H598 H 0.14646 0.75912 0.3835 0.0
H599 H 0.08695 0.74161 0.72591 0.0
H600 H 0.08845 0.75757 0.37675 0.0
H601 H 0.14181 0.72398 0.70341 0.0
H602 H 0.08765 0.75285 0.60441 0.0
H603 H 0.14535 0.75244 0.50892 0.0
C604 C 0.13346 0.75765 0.40855 0.0
C605 C 0.11751 0.75868 0.36942 0.0
C606 C 0.09953 0.74656 0.62624 0.0
C607 C 0.11622 0.75093 0.51282 0.0
C608 C 0.09915 0.74025 0.6953 0.0
C609 C 0.1144 0.73204 0.72411 0.0
C610 C 0.11533 0.7448 0.58654 0.0
C611 C 0.1298 0.73022 0.68253 0.0
C612 C 0.13287 0.75371 0.48005 0.0
C613 C 0.10107 0.75674 0.40488 0.0
N614 N 0.12992 0.73666 0.61578 0.0
N615 N 0.10084 0.75283 0.47471 0.0
H616 H 0.26795 0.85046 0.27807 0.0
H617 H 0.23549 0.90803 0.60618 0.0
H618 H 0.25177 0.90578 0.2559 0.0
H619 H 0.23231 0.85009 0.59799 0.0
H620 H 0.24266 0.90831 0.48011 0.0
H621 H 0.25713 0.85082 0.39972 0.0
C622 C 0.26209 0.86267 0.29907 0.0
C623 C 0.26048 0.87803 0.25715 0.0
C624 C 0.24016 0.89559 0.50598 0.0
C625 C 0.2482 0.87863 0.39575 0.0
C626 C 0.23602 0.89541 0.57777 0.0
C627 C 0.23344 0.87901 0.61281 0.0
C628 C 0.24195 0.87924 0.46961 0.0
C629 C 0.2343 0.86306 0.57339 0.0
C630 C 0.25581 0.86285 0.36812 0.0
C631 C 0.25285 0.89356 0.28643 0.0
N632 N 0.23871 0.86357 0.5042 0.0
N633 N 0.24706 0.89352 0.3543 0.0
H634 H 0.14546 0.23257 0.59792 0.0
H635 H 0.08546 0.24887 0.25599 0.0
H636 H 0.08745 0.23297 0.60595 0.0
H637 H 0.13995 0.26771 0.27863 0.0
H638 H 0.08639 0.23761 0.37747 0.0
H639 H 0.14409 0.23923 0.47259 0.0
C640 C 0.1324 0.23379 0.57319 0.0
C641 C 0.11653 0.23242 0.6127 0.0
C642 C 0.09814 0.24415 0.35563 0.0
C643 C 0.11493 0.24016 0.4692 0.0
C644 C 0.09765 0.25046 0.28649 0.0
C645 C 0.11272 0.25904 0.25768 0.0
C646 C 0.11389 0.24627 0.39539 0.0
C647 C 0.12806 0.26119 0.29938 0.0
C648 C 0.13166 0.23772 0.50169 0.0
C649 C 0.10001 0.23405 0.57754 0.0
N650 N 0.1283 0.25474 0.36612 0.0
N651 N 0.09963 0.23796 0.50766 0.0
H652 H 0.74408 0.08437 0.60762 0.0
H653 H 0.75531 0.13266 0.23452 0.0
H654 H 0.77524 0.13271 0.57656 0.0
H655 H 0.71326 0.09456 0.28102 0.0
H656 H 0.76665 0.1293 0.35456 0.0
H657 H 0.73714 0.08399 0.48193 0.0
C658 C 0.74975 0.09471 0.5742 0.0
C659 C 0.76009 0.10873 0.60271 0.0
C660 C 0.75501 0.12159 0.33839 0.0
C661 C 0.75205 0.10842 0.45925 0.0
C662 C 0.7486 0.12344 0.26988 0.0
C663 C 0.73346 0.11372 0.24794 0.0
C664 C 0.74623 0.10991 0.3851 0.0
C665 C 0.72496 0.1023 0.29619 0.0
C666 C 0.74565 0.09456 0.5026 0.0
C667 C 0.76707 0.12176 0.55688 0.0
N668 N 0.7315 0.10066 0.36261 0.0
N669 N 0.76281 0.12137 0.48744 0.0
H670 H 0.90619 0.75502 0.64015 0.0
H671 H 0.84879 0.72352 0.3111 0.0
H672 H 0.84833 0.75903 0.63122 0.0
H673 H 0.90438 0.73896 0.29042 0.0
H674 H 0.84899 0.73452 0.43252 0.0
H675 H 0.90655 0.7482 0.51392 0.0
C676 C 0.89361 0.75475 0.61151 0.0
C677 C 0.87719 0.75742 0.64638 0.0
C678 C 0.86112 0.73565 0.40128 0.0
C679 C 0.87751 0.74932 0.503 0.0
C680 C 0.86102 0.72925 0.33242 0.0
C681 C 0.87652 0.73058 0.2911 0.0
C682 C 0.87694 0.74309 0.42922 0.0
C683 C 0.89208 0.73807 0.32062 0.0
C684 C 0.89383 0.75082 0.53963 0.0
C685 C 0.8613 0.75694 0.60671 0.0
N686 N 0.89195 0.74397 0.38831 0.0
N687 N 0.86184 0.7527 0.53737 0.0
H688 H 0.76867 0.64281 0.20974 0.0
H689 H 0.73494 0.58676 0.88 0.0
H690 H 0.75157 0.58768 0.22934 0.0
H691 H 0.73316 0.64473 0.88987 0.0
H692 H 0.74194 0.58605 0.00604 0.0
H693 H 0.75764 0.64308 0.08844 0.0
C694 C 0.76257 0.63077 0.18822 0.0
C695 C 0.76078 0.61528 0.22927 0.0
C696 C 0.73977 0.59889 0.98059 0.0
C697 C 0.74823 0.61539 0.09118 0.0
C698 C 0.73574 0.5993 0.90881 0.0
C699 C 0.73363 0.61584 0.87425 0.0
C700 C 0.74194 0.61511 0.01745 0.0
C701 C 0.73479 0.63168 0.91414 0.0
C702 C 0.75616 0.63095 0.11941 0.0
C703 C 0.75282 0.59999 0.19944 0.0
N704 N 0.73911 0.63093 0.98337 0.0
N705 N 0.74691 0.60037 0.1318 0.0
H706 H 0.36085 0.7376 0.20048 0.0
H707 H 0.40663 0.75455 0.82605 0.0
H708 H 0.39329 0.78407 0.15256 0.0
H709 H 0.36309 0.71709 0.8596 0.0
H710 H 0.4065 0.76152 0.95166 0.0
H711 H 0.36565 0.7265 0.08093 0.0
C712 C 0.36918 0.74534 0.16495 0.0
C713 C 0.37688 0.76165 0.18634 0.0
C714 C 0.39712 0.75163 0.93156 0.0
C715 C 0.38226 0.74916 0.0496 0.0
C716 C 0.39727 0.74753 0.85998 0.0
C717 C 0.38466 0.7354 0.83219 0.0
C718 C 0.38438 0.74345 0.97558 0.0
C719 C 0.3729 0.72668 0.8787 0.0
C720 C 0.37182 0.73906 0.09668 0.0
C721 C 0.38711 0.77144 0.13777 0.0
N722 N 0.37294 0.731 0.94811 0.0
N723 N 0.38956 0.76501 0.07153 0.0
H724 H 0.25699 0.39225 0.23196 0.0
H725 H 0.23113 0.40049 0.83402 0.0
H726 H 0.20753 0.36986 0.15159 0.0
H727 H 0.28337 0.37893 0.8862 0.0
H728 H 0.22305 0.39975 0.95819 0.0
H729 H 0.26748 0.3966 0.11107 0.0
C730 C 0.24854 0.38776 0.18914 0.0
C731 C 0.23175 0.37971 0.20181 0.0
C732 C 0.23636 0.39546 0.94226 0.0
C733 C 0.24307 0.38616 0.06449 0.0
C734 C 0.24108 0.39596 0.87161 0.0
C735 C 0.25791 0.38949 0.8496 0.0
C736 C 0.24867 0.38889 0.99138 0.0
C737 C 0.27021 0.38385 0.90097 0.0
C738 C 0.25443 0.39058 0.12042 0.0
C739 C 0.22073 0.3757 0.14411 0.0
N740 N 0.26532 0.38361 0.96994 0.0
N741 N 0.22657 0.37902 0.07775 0.0
H742 H 0.63407 0.22599 0.18684 0.0
H743 H 0.57972 0.28121 0.89473 0.0
H744 H 0.58363 0.25226 0.2299 0.0
H745 H 0.6295 0.25293 0.85881 0.0
H746 H 0.58209 0.27395 0.02086 0.0
H747 H 0.63348 0.23816 0.06778 0.0
C748 C 0.62289 0.23438 0.17094 0.0
C749 C 0.60903 0.2384 0.21797 0.0
C750 C 0.59257 0.26955 0.98526 0.0
C751 C 0.60814 0.25237 0.0822 0.0
C752 C 0.59127 0.2738 0.91367 0.0
C753 C 0.60431 0.26743 0.86671 0.0
C754 C 0.60704 0.25901 0.00909 0.0
C755 C 0.619 0.25783 0.89333 0.0
C756 C 0.62257 0.24142 0.10325 0.0
C757 C 0.59481 0.24931 0.19537 0.0
N758 N 0.61989 0.25382 0.96255 0.0
N759 N 0.59468 0.25592 0.12874 0.0
H760 H 0.71932 0.35943 0.10442 0.0
H761 H 0.78437 0.39761 0.8076 0.0
H762 H 0.75288 0.40619 0.13427 0.0
H763 H 0.742 0.3595 0.76559 0.0
H764 H 0.77321 0.40079 0.92832 0.0
H765 H 0.72676 0.35973 0.97931 0.0
C766 C 0.72802 0.36994 0.08445 0.0
C767 C 0.73564 0.38268 0.12992 0.0
C768 C 0.76625 0.39186 0.89246 0.0
C769 C 0.7445 0.38289 0.98724 0.0
C770 C 0.77271 0.38994 0.82394 0.0
C771 C 0.76393 0.37846 0.77669 0.0
C772 C 0.75111 0.38198 0.91393 0.0
C773 C 0.7489 0.3688 0.80008 0.0
C774 C 0.73231 0.37007 0.01306 0.0
C775 C 0.74676 0.39605 0.10116 0.0
N776 N 0.74299 0.37072 0.86722 0.0
N777 N 0.75108 0.39564 0.03176 0.0
H778 H 0.62936 0.73714 0.11492 0.0
H779 H 0.58042 0.74126 0.742 0.0
H780 H 0.57693 0.7141 0.07949 0.0
H781 H 0.63172 0.76546 0.78855 0.0
H782 H 0.57968 0.72853 0.86095 0.0
H783 H 0.63167 0.74411 0.99056 0.0
C784 C 0.61839 0.73336 0.08043 0.0
C785 C 0.60285 0.72523 0.1072 0.0
C786 C 0.59116 0.73649 0.84488 0.0
C787 C 0.6052 0.73351 0.96474 0.0
C788 C 0.59164 0.74364 0.77703 0.0
C789 C 0.60632 0.75411 0.75556 0.0
C790 C 0.60543 0.73996 0.89119 0.0
C791 C 0.62018 0.75743 0.8034 0.0
C792 C 0.61968 0.73739 0.00943 0.0
C793 C 0.58912 0.72039 0.06047 0.0
N794 N 0.61942 0.75034 0.86897 0.0
N795 N 0.59049 0.72487 0.99121 0.0
H796 H 0.27826 0.63354 0.09076 0.0
H797 H 0.21485 0.59227 0.79559 0.0
H798 H 0.24672 0.58541 0.12141 0.0
H799 H 0.25599 0.63156 0.75176 0.0
H800 H 0.22626 0.58966 0.9161 0.0
H801 H 0.27113 0.63252 0.96543 0.0
C802 C 0.27009 0.6226 0.07095 0.0
C803 C 0.26286 0.6097 0.11668 0.0
C804 C 0.23291 0.59872 0.87986 0.0
C805 C 0.25439 0.60864 0.9739 0.0
C806 C 0.2263 0.60031 0.81152 0.0
C807 C 0.23467 0.61196 0.76392 0.0
C808 C 0.24776 0.60912 0.90073 0.0
C809 C 0.24943 0.62212 0.78665 0.0
C810 C 0.26598 0.62205 -0.00054 0.0
C811 C 0.25245 0.59574 0.08813 0.0
N812 N 0.25548 0.62053 0.85364 0.0
N813 N 0.24829 0.59574 0.01866 0.0
H814 H 0.38482 0.28579 0.11702 0.0
H815 H 0.36514 0.21016 0.84694 0.0
H816 H 0.39723 0.23055 0.16745 0.0
H817 H 0.39636 0.25561 0.77543 0.0
H818 H 0.37085 0.21947 0.96842 0.0
H819 H 0.38351 0.27739 0.99166 0.0
C820 C 0.38753 0.27203 0.10172 0.0
C821 C 0.39109 0.25886 0.1526 0.0
C822 C 0.37622 0.22745 0.92562 0.0
C823 C 0.38902 0.24922 0.01126 0.0
C824 C 0.37297 0.2222 0.85646 0.0
C825 C 0.37961 0.2325 0.80037 0.0
C826 C 0.38595 0.24323 0.93874 0.0
C827 C 0.38995 0.24783 0.81617 0.0
C828 C 0.38676 0.26728 0.0306 0.0
C829 C 0.39446 0.24117 0.13009 0.0
N830 N 0.39259 0.25291 0.88404 0.0
N831 N 0.39298 0.2368 0.06117 0.0
H832 H 0.28437 0.13228 0.28467 0.0
H833 H 0.36291 0.20459 0.24847 0.0
H834 H 0.30701 0.14853 0.08528 0.0
H835 H 0.34322 0.18495 0.44793 0.0
H836 H 0.34407 0.18265 0.18814 0.0
H837 H 0.30713 0.15001 0.34518 0.0
C838 C 0.29418 0.13951 0.25347 0.0
C839 C 0.29365 0.13903 0.17957 0.0
C840 C 0.34398 0.18302 0.2451 0.0
C841 C 0.3198 0.15946 0.24901 0.0
C842 C 0.35473 0.19556 0.27972 0.0
C843 C 0.35452 0.19675 0.35351 0.0
C844 C 0.33279 0.17162 0.28437 0.0
C845 C 0.34377 0.18457 0.39103 0.0
C846 C 0.30722 0.14961 0.28822 0.0
C847 C 0.30684 0.14857 0.14223 0.0
N848 N 0.33319 0.17264 0.35599 0.0
N849 N 0.31928 0.15852 0.17738 0.0
H850 H 0.78988 0.36281 0.22463 0.0
H851 H 0.86054 0.28288 0.25867 0.0
H852 H 0.80798 0.34176 0.42406 0.0
H853 H 0.84585 0.30737 0.06092 0.0
H854 H 0.84296 0.30555 0.32055 0.0
H855 H 0.81183 0.344 0.16469 0.0
C856 C 0.79856 0.35431 0.25598 0.0
C857 C 0.79694 0.35373 0.3296 0.0
C858 C 0.84369 0.30607 0.26368 0.0
C859 C 0.82212 0.33201 0.26083 0.0
C860 C 0.85371 0.29309 0.22815 0.0
C861 C 0.85454 0.29309 0.15427 0.0
C862 C 0.8343 0.31911 0.22518 0.0
C863 C 0.84552 0.30677 0.11782 0.0
C864 C 0.81113 0.34357 0.22157 0.0
C865 C 0.8087 0.34258 0.36726 0.0
N866 N 0.83565 0.31913 0.15363 0.0
N867 N 0.82067 0.33201 0.33238 0.0
H868 H 0.63355 0.78642 0.22013 0.0
H869 H 0.70979 0.85933 0.29424 0.0
H870 H 0.64965 0.80214 0.42963 0.0
H871 H 0.68934 0.84675 0.08727 0.0
H872 H 0.68685 0.83987 0.34563 0.0
H873 H 0.6528 0.80974 0.17171 0.0
C874 C 0.6411 0.79484 0.25611 0.0
C875 C 0.64012 0.79218 0.32916 0.0
C876 C 0.68729 0.84148 0.28903 0.0
C877 C 0.66234 0.81899 0.27363 0.0
C878 C 0.70041 0.85258 0.25953 0.0
C879 C 0.70162 0.85456 0.18614 0.0
C880 C 0.67536 0.83219 0.24488 0.0
C881 C 0.68901 0.84556 0.14402 0.0
C882 C 0.65207 0.80821 0.22829 0.0
C883 C 0.65005 0.80367 0.37301 0.0
N884 N 0.67651 0.83467 0.17399 0.0
N885 N 0.66091 0.81648 0.34451 0.0
H886 H 0.18928 0.64834 0.42344 0.0
H887 H 0.14882 0.68794 0.06492 0.0
H888 H 0.20775 0.63298 0.21649 0.0
H889 H 0.13598 0.70863 0.27133 0.0
H890 H 0.16766 0.66498 0.11996 0.0
H891 H 0.16673 0.66773 0.36874 0.0
C892 C 0.18851 0.64892 0.36658 0.0
C893 C 0.20055 0.63914 0.32457 0.0
C894 C 0.16064 0.6745 0.15315 0.0
C895 C 0.17483 0.66133 0.26165 0.0
C896 C 0.14986 0.6876 0.12175 0.0
C897 C 0.14092 0.70034 0.16346 0.0
C898 C 0.16244 0.67411 0.22676 0.0
C899 C 0.14273 0.69919 0.23694 0.0
C900 C 0.17567 0.66003 0.33537 0.0
C901 C 0.19888 0.64039 0.25107 0.0
N902 N 0.15333 0.68637 0.26616 0.0
N903 N 0.18633 0.65135 0.22202 0.0
H904 H 0.3599 0.7886 0.7385 0.0
H905 H 0.28102 0.86055 0.7031 0.0
H906 H 0.33934 0.80725 0.53902 0.0
H907 H 0.30429 0.84481 0.90189 0.0
H908 H 0.30326 0.8423 0.64212 0.0
H909 H 0.34079 0.81026 0.79867 0.0
C910 C 0.35143 0.79732 0.70719 0.0
C911 C 0.35113 0.79598 0.63343 0.0
C912 C 0.3036 0.84291 0.69903 0.0
C913 C 0.32908 0.82083 0.70248 0.0
C914 C 0.29086 0.85332 0.73407 0.0
C915 C 0.29068 0.85413 0.80797 0.0
C916 C 0.31624 0.8331 0.73797 0.0
C917 C 0.30387 0.84454 0.84497 0.0
C918 C 0.34052 0.80972 0.74174 0.0
C919 C 0.33998 0.80776 0.59588 0.0
N920 N 0.31603 0.83433 0.80957 0.0
N921 N 0.32929 0.8196 0.63088 0.0
H922 H 0.14579 0.3048 0.91197 0.0
H923 H 0.18333 0.34332 0.54678 0.0
H924 H 0.13225 0.28283 0.7083 0.0
H925 H 0.20301 0.35988 0.75057 0.0
H926 H 0.1611 0.32424 0.60519 0.0
H927 H 0.16354 0.32813 0.8535 0.0
C928 C 0.14643 0.30495 0.85504 0.0
C929 C 0.13766 0.29172 0.81509 0.0
C930 C 0.17021 0.33216 0.63707 0.0
C931 C 0.15792 0.31836 0.7479 0.0
C932 C 0.18287 0.34311 0.60374 0.0
C933 C 0.1952 0.35306 0.64377 0.0
C934 C 0.16985 0.33121 0.71092 0.0
C935 C 0.19391 0.35228 0.71749 0.0
C936 C 0.15658 0.31825 0.82169 0.0
C937 C 0.13892 0.29263 0.74138 0.0
N938 N 0.18156 0.34146 0.74864 0.0
N939 N 0.14892 0.30565 0.71026 0.0
H940 H 0.70856 0.13275 0.69544 0.0
H941 H 0.63011 0.20394 0.7538 0.0
H942 H 0.68404 0.14385 0.89688 0.0
H943 H 0.6506 0.19013 0.5482 0.0
H944 H 0.64822 0.18015 0.805 0.0
H945 H 0.68606 0.15174 0.63889 0.0
C946 C 0.69836 0.13904 0.72781 0.0
C947 C 0.69833 0.13685 0.80128 0.0
C948 C 0.6487 0.18218 0.74861 0.0
C949 C 0.67257 0.15867 0.73662 0.0
C950 C 0.63838 0.19582 0.71924 0.0
C951 C 0.63901 0.19919 0.64661 0.0
C952 C 0.65996 0.17186 0.70534 0.0
C953 C 0.64978 0.18805 0.60447 0.0
C954 C 0.6855 0.14988 0.69536 0.0
C955 C 0.68469 0.14524 0.84024 0.0
N956 N 0.66002 0.175 0.63461 0.0
N957 N 0.67248 0.1559 0.8075 0.0
H958 H 0.80416 0.64956 0.57713 0.0
H959 H 0.84158 0.68763 0.94379 0.0
H960 H 0.78247 0.63493 0.78005 0.0
H961 H 0.85764 0.70802 0.74049 0.0
H962 H 0.82241 0.66553 0.88472 0.0
H963 H 0.82646 0.66843 0.63642 0.0
C964 C 0.80415 0.65021 0.63407 0.0
C965 C 0.79132 0.64075 0.67356 0.0
C966 C 0.83021 0.6748 0.85312 0.0
C967 C 0.81679 0.6623 0.74172 0.0
C968 C 0.84118 0.68739 0.88683 0.0
C969 C 0.85113 0.6998 0.84714 0.0
C970 C 0.82923 0.67458 0.77924 0.0
C971 C 0.85011 0.69882 0.77337 0.0
C972 C 0.81686 0.66101 0.6679 0.0
C973 C 0.792 0.64208 0.74731 0.0
N974 N 0.83931 0.68649 0.74189 0.0
N975 N 0.80446 0.6527 0.77891 0.0
H976 H 0.22353 0.04089 0.04368 0.0
H977 H 0.28154 0.95359 0.94552 0.0
H978 H 0.2814 0.03976 0.04131 0.0
H979 H 0.22366 0.95418 0.94724 0.0
H980 H 0.28171 0.98534 0.97962 0.0
H981 H 0.22308 0.00902 0.01009 0.0
C982 C 0.23612 0.03381 0.03656 0.0
C983 C 0.25252 0.0428 0.04466 0.0
C984 C 0.26895 0.97859 0.97241 0.0
C985 C 0.25221 0.00664 0.00578 0.0
C986 C 0.26888 0.96052 0.95289 0.0
C987 C 0.25257 0.95142 0.94416 0.0
C988 C 0.25256 0.98756 0.98319 0.0
C989 C 0.23649 0.96087 0.95353 0.0
C990 C 0.23589 0.01571 0.01705 0.0
C991 C 0.2685 0.03322 0.03479 0.0
N992 N 0.23687 0.97846 0.97291 0.0
N993 N 0.26796 0.01565 0.0156 0.0
H994 H 0.03921 0.27851 0.93197 0.0
H995 H 0.95099 0.22044 0.01563 0.0
H996 H 0.03855 0.22062 0.93277 0.0
H997 H 0.95135 0.2782 9e-05 0.0
H998 H 0.98315 0.22004 0.98684 0.0
H999 H 0.0069 0.27864 0.95649 0.0
C1000 C 0.03214 0.26584 0.93708 0.0
C1001 C 0.04137 0.24954 0.93092 0.0
C1002 C 0.97621 0.23281 0.98964 0.0
C1003 C 0.0046 0.24948 0.95907 0.0
C1004 C 0.95794 0.23302 0.00637 0.0
C1005 C 0.94869 0.24937 0.00987 0.0
C1006 C 0.9852 0.2491 0.97671 0.0
C1007 C 0.95811 0.26533 -0.0027 0.0
C1008 C 0.01375 0.26589 0.95105 0.0
C1009 C 0.03176 0.23344 0.93728 0.0
N1010 N 0.97588 0.26481 0.98124 0.0
N1011 N 0.01386 0.2338 0.95145 0.0
H1012 H 0.77017 0.95598 0.08688 0.0
H1013 H 0.72376 0.03413 0.87028 0.0
H1014 H 0.71487 0.95275 0.02046 0.0
H1015 H 0.76217 0.04599 0.0334 0.0
H1016 H 0.7237 0.00246 0.90742 0.0
H1017 H 0.77057 0.98789 0.05347 0.0
C1018 C 0.7581 0.96206 0.06579 0.0
C1019 C 0.74251 0.95179 0.05559 0.0
C1020 C 0.73218 0.01201 0.93483 0.0
C1021 C 0.74304 0.98783 0.01571 0.0
C1022 C 0.73231 0.02994 0.91338 0.0
C1023 C 0.74301 0.04243 0.949 0.0
C1024 C 0.7431 0.00663 0.99128 0.0
C1025 C 0.75379 0.03658 0.00486 0.0
C1026 C 0.75836 0.98016 0.04649 0.0
C1027 C 0.72724 0.96019 0.02773 0.0
N1028 N 0.75366 0.01901 0.02421 0.0
N1029 N 0.72794 0.97769 0.00782 0.0
H1030 H 0.95636 0.71951 0.89445 0.0
H1031 H 0.03837 0.76721 0.08206 0.0
H1032 H 0.94776 0.758 0.06053 0.0
H1033 H 0.0408 0.71144 0.02099 0.0
H1034 H 0.00587 0.76701 0.05936 0.0
H1035 H 0.98867 0.71941 0.92238 0.0
C1036 C 0.96138 0.728 0.93643 0.0
C1037 C 0.94964 0.73879 0.9754 0.0
C1038 C 0.01357 0.75484 0.05108 0.0
C1039 C 0.98615 0.73891 0.00695 0.0
C1040 C 0.03202 0.75492 0.0642 0.0
C1041 C 0.04221 0.73939 0.05236 0.0
C1042 C 0.00543 0.7392 0.02476 0.0
C1043 C 0.03342 0.72382 0.02899 0.0
C1044 C 0.97967 0.72787 0.95258 0.0
C1045 C 0.95656 0.74953 0.02956 0.0
N1046 N 0.01553 0.72416 0.015 0.0
N1047 N 0.97446 0.74945 0.0435 0.0
H1048 H 0.78351 0.45193 0.50153 0.0
H1049 H 0.73191 0.54431 0.46392 0.0
H1050 H 0.72796 0.45365 0.4375 0.0
H1051 H 0.77123 0.53603 0.62696 0.0
H1052 H 0.73267 0.51197 0.43728 0.0
H1053 H 0.78193 0.48397 0.53167 0.0
C1054 C 0.77097 0.45907 0.49416 0.0
C1055 C 0.75577 0.45018 0.468 0.0
C1056 C 0.74103 0.51724 0.47916 0.0
C1057 C 0.75403 0.48672 0.50013 0.0
C1058 C 0.7406 0.53557 0.49424 0.0
C1059 C 0.75144 0.54257 0.54784 0.0
C1060 C 0.75273 0.50603 0.51688 0.0
C1061 C 0.76261 0.53094 0.58559 0.0
C1062 C 0.7701 0.47729 0.51118 0.0
C1063 C 0.73998 0.46009 0.45743 0.0
N1064 N 0.76312 0.51318 0.56891 0.0
N1065 N 0.73952 0.4779 0.47325 0.0
H1066 H 0.45579 0.7754 0.56896 0.0
H1067 H 0.5354 0.72719 0.37074 0.0
H1068 H 0.44515 0.73909 0.39721 0.0
H1069 H 0.54036 0.78163 0.44616 0.0
H1070 H 0.50276 0.72886 0.38928 0.0
H1071 H 0.48783 0.77526 0.53729 0.0
C1072 C 0.4603 0.76739 0.52472 0.0
C1073 C 0.44806 0.75723 0.48549 0.0
C1074 C 0.51102 0.74045 0.40133 0.0
C1075 C 0.48432 0.75685 0.44956 0.0
C1076 C 0.52956 0.73953 0.39061 0.0
C1077 C 0.54051 0.75417 0.40846 0.0
C1078 C 0.50355 0.75602 0.43106 0.0
C1079 C 0.53237 0.76988 0.4338 0.0
C1080 C 0.47845 0.76739 0.50642 0.0
C1081 C 0.45434 0.74709 0.42844 0.0
N1082 N 0.51438 0.77031 0.44554 0.0
N1083 N 0.47214 0.74699 0.41245 0.0
H1084 H 0.26037 0.4461 0.42413 0.0
H1085 H 0.2127 0.54071 0.47801 0.0
H1086 H 0.21989 0.45468 0.58267 0.0
H1087 H 0.26763 0.53656 0.40771 0.0
H1088 H 0.21235 0.50821 0.4995 0.0
H1089 H 0.26063 0.47858 0.39991 0.0
C1090 C 0.25155 0.45491 0.45362 0.0
C1091 C 0.24013 0.44796 0.5054 0.0
C1092 C 0.22447 0.51444 0.47941 0.0
C1093 C 0.24012 0.48469 0.47769 0.0
C1094 C 0.22469 0.53292 0.46737 0.0
C1095 C 0.24029 0.54124 0.442 0.0
C1096 C 0.23985 0.50422 0.46446 0.0
C1097 C 0.25534 0.53056 0.42722 0.0
C1098 C 0.25172 0.47333 0.44003 0.0
C1099 C 0.2289 0.4597 0.5425 0.0
N1100 N 0.25475 0.51254 0.43851 0.0
N1101 N 0.22907 0.47755 0.5276 0.0
H1102 H 0.54165 0.21322 0.52252 0.0
H1103 H 0.44618 0.25768 0.59269 0.0
H1104 H 0.53686 0.2671 0.60408 0.0
H1105 H 0.45583 0.22186 0.41852 0.0
H1106 H 0.47857 0.25753 0.61911 0.0
H1107 H 0.50898 0.21224 0.50618 0.0
C1108 C 0.53368 0.22484 0.53684 0.0
C1109 C 0.54189 0.24044 0.56287 0.0
C1110 C 0.47355 0.2497 0.57525 0.0
C1111 C 0.50469 0.23918 0.5467 0.0
C1112 C 0.45518 0.24976 0.56036 0.0
C1113 C 0.44858 0.23986 0.50325 0.0
C1114 C 0.48517 0.23933 0.53359 0.0
C1115 C 0.46058 0.22975 0.46269 0.0
C1116 C 0.51511 0.22424 0.52779 0.0
C1117 C 0.53098 0.25489 0.58327 0.0
N1118 N 0.47835 0.22965 0.47887 0.0
N1119 N 0.51286 0.25394 0.57462 0.0
H1120 H 0.21708 0.14465 0.92929 0.0
H1121 H 0.14362 0.21446 0.06185 0.0
H1122 H 0.19998 0.14777 0.1461 0.0
H1123 H 0.14864 0.19849 0.84424 0.0
H1124 H 0.16536 0.19129 0.09413 0.0
H1125 H 0.19321 0.1656 0.89722 0.0
C1126 C 0.20827 0.1497 0.97016 0.0
C1127 C 0.21056 0.14448 0.04056 0.0
C1128 C 0.1616 0.19279 0.0394 0.0
C1129 C 0.1833 0.16857 0.00415 0.0
C1130 C 0.14924 0.20604 0.02087 0.0
C1131 C 0.14434 0.20846 0.95017 0.0
C1132 C 0.16933 0.18202 0.98679 0.0
C1133 C 0.152 0.19709 0.89938 0.0
C1134 C 0.19461 0.16161 0.95172 0.0
C1135 C 0.19869 0.1514 0.09118 0.0
N1136 N 0.16424 0.18447 0.91862 0.0
N1137 N 0.18565 0.16322 0.07207 0.0
H1138 H 0.82599 0.23012 0.9711 0.0
H1139 H 0.80275 0.12969 0.88874 0.0
H1140 H 0.86016 0.18895 0.05829 0.0
H1141 H 0.76221 0.16507 0.97332 0.0
H1142 H 0.82589 0.15206 0.92026 0.0
H1143 H 0.8039 0.20698 0.93989 0.0
C1144 C 0.82886 0.21619 0.9833 0.0
C1145 C 0.84481 0.21137 0.01764 0.0
C1146 C 0.8119 0.1548 0.9317 0.0
C1147 C 0.81995 0.18502 0.98055 0.0
C1148 C 0.79876 0.14219 0.91348 0.0
C1149 C 0.78064 0.14562 0.92868 0.0
C1150 C 0.80669 0.17107 0.96294 0.0
C1151 C 0.77608 0.16192 0.96112 0.0
C1152 C 0.81628 0.20308 0.96569 0.0
C1153 C 0.84791 0.19316 0.03241 0.0
N1154 N 0.78901 0.17418 0.97641 0.0
N1155 N 0.83562 0.18053 0.01306 0.0
H1156 H 0.84733 0.79331 0.87219 0.0
H1157 H 0.79578 0.8482 0.17229 0.0
H1158 H 0.84922 0.77816 0.09137 0.0
H1159 H 0.77989 0.84796 0.95386 0.0
H1160 H 0.81956 0.82652 0.14409 0.0
H1161 H 0.82678 0.81772 0.9024 0.0
C1162 C 0.84356 0.7952 0.92674 0.0
C1163 C 0.84989 0.78359 0.97927 0.0
C1164 C 0.8109 0.83135 0.10244 0.0
C1165 C 0.82645 0.81153 0.01409 0.0
C1166 C 0.79739 0.84376 0.11836 0.0
C1167 C 0.7858 0.84992 0.0653 0.0
C1168 C 0.81296 0.82531 0.03288 0.0
C1169 C 0.78847 0.84363 -0.00358 0.0
C1170 C 0.83178 0.80909 0.94387 0.0
C1171 C 0.84453 0.7867 0.04912 0.0
N1172 N 0.80176 0.83171 0.98221 0.0
N1173 N 0.83309 0.80038 0.06455 0.0
H1174 H 0.14308 0.77877 0.92184 0.0
H1175 H 0.2143 0.85018 0.05897 0.0
H1176 H 0.14713 0.79415 0.14037 0.0
H1177 H 0.1975 0.84729 0.84181 0.0
H1178 H 0.19063 0.82883 0.08997 0.0
H1179 H 0.16386 0.80295 0.89124 0.0
C1180 C 0.14826 0.78729 0.96338 0.0
C1181 C 0.1434 0.78439 0.03383 0.0
C1182 C 0.19203 0.83299 0.03565 0.0
C1183 C 0.16732 0.81199 -0.00086 0.0
C1184 C 0.20558 0.84512 0.01783 0.0
C1185 C 0.20793 0.85047 0.9476 0.0
C1186 C 0.18092 0.82592 0.98274 0.0
C1187 C 0.19616 0.84355 0.8966 0.0
C1188 C 0.16009 0.80113 0.9458 0.0
C1189 C 0.1505 0.7959 0.08538 0.0
N1190 N 0.18327 0.83149 0.91508 0.0
N1191 N 0.16225 0.80909 0.06708 0.0
H1192 H 0.64079 0.71239 0.5584 0.0
H1193 H 0.71449 0.64305 0.42548 0.0
H1194 H 0.6468 0.69772 0.3398 0.0
H1195 H 0.69731 0.64617 0.6422 0.0
H1196 H 0.69032 0.6636 0.39296 0.0
H1197 H 0.66193 0.68872 0.59033 0.0
C1198 C 0.64646 0.70412 0.5171 0.0
C1199 C 0.64206 0.70711 0.44624 0.0
C1200 C 0.69175 0.65967 0.44753 0.0
C1201 C 0.66644 0.68008 0.48251 0.0
C1202 C 0.70559 0.64799 0.46623 0.0
C1203 C 0.70799 0.64295 0.53678 0.0
C1204 C 0.68036 0.66658 0.49984 0.0
C1205 C 0.69597 0.6497 0.5872 0.0
C1206 C 0.65851 0.69058 0.53544 0.0
C1207 C 0.6498 0.69591 0.39506 0.0
N1208 N 0.68277 0.66131 0.56784 0.0
N1209 N 0.66176 0.683 0.41415 0.0
H1210 H 0.34599 0.71733 0.39719 0.0
H1211 H 0.27918 0.64546 0.55655 0.0
H1212 H 0.34762 0.70207 0.61622 0.0
H1213 H 0.29402 0.64557 0.33693 0.0
H1214 H 0.30283 0.66741 0.58 0.0
H1215 H 0.32554 0.69238 0.37406 0.0
C1216 C 0.34216 0.70867 0.44037 0.0
C1217 C 0.34855 0.71181 0.50877 0.0
C1218 C 0.30102 0.66248 0.52683 0.0
C1219 C 0.32492 0.68336 0.48271 0.0
C1220 C 0.2875 0.64996 0.51334 0.0
C1221 C 0.2846 0.64362 0.44467 0.0
C1222 C 0.3115 0.66899 0.47106 0.0
C1223 C 0.29579 0.65004 0.39071 0.0
C1224 C 0.33051 0.6944 0.42704 0.0
C1225 C 0.34306 0.70013 0.56267 0.0
N1226 N 0.30862 0.66253 0.40493 0.0
N1227 N 0.33139 0.68653 0.54862 0.0
H1228 H 0.36193 0.30171 0.42621 0.0
H1229 H 0.2606 0.32546 0.48201 0.0
H1230 H 0.32518 0.26175 0.50604 0.0
H1231 H 0.30027 0.36021 0.5767 0.0
H1232 H 0.28414 0.30322 0.45879 0.0
H1233 H 0.33924 0.32509 0.45067 0.0
C1234 C 0.34907 0.29789 0.4484 0.0
C1235 C 0.34532 0.27987 0.46429 0.0
C1236 C 0.28763 0.31575 0.48448 0.0
C1237 C 0.31956 0.30617 0.49063 0.0
C1238 C 0.2743 0.32842 0.49757 0.0
C1239 C 0.27856 0.34459 0.53163 0.0
C1240 C 0.30541 0.31953 0.50361 0.0
C1241 C 0.29648 0.3478 0.55087 0.0
C1242 C 0.33628 0.31117 0.46267 0.0
C1243 C 0.32856 0.27553 0.4934 0.0
N1244 N 0.30938 0.3354 0.53588 0.0
N1245 N 0.31617 0.28858 0.50483 0.0
H1246 H 0.72055 0.34478 0.56731 0.0
H1247 H 0.6446 0.28024 0.41934 0.0
H1248 H 0.70188 0.34812 0.35264 0.0
H1249 H 0.65013 0.29268 0.64024 0.0
H1250 H 0.66676 0.30354 0.39223 0.0
H1251 H 0.69612 0.32404 0.59372 0.0
C1252 C 0.71125 0.34127 0.52577 0.0
C1253 C 0.71325 0.34831 0.45771 0.0
C1254 C 0.66299 0.30125 0.44653 0.0
C1255 C 0.68536 0.32427 0.48749 0.0
C1256 C 0.65039 0.28793 0.46211 0.0
C1257 C 0.64553 0.28447 0.53223 0.0
C1258 C 0.67101 0.31096 0.50151 0.0
C1259 C 0.65345 0.29489 0.58546 0.0
C1260 C 0.69728 0.32943 0.54097 0.0
C1261 C 0.70082 0.34309 0.40592 0.0
N1262 N 0.66593 0.30754 0.56904 0.0
N1263 N 0.68748 0.33125 0.42174 0.0
loop_
_geom_bond_atom_site_label_1
_geom_bond_atom_site_label_2
_geom_bond_distance
_geom_bond_site_symmetry_2
_ccdc_geom_bond_type
Co0 O3 1.970 . S
Co0 N17 1.989 . S
Co0 O25 1.967 . S
Co0 O32 1.920 . S
Co1 O4 1.966 . S
Co1 N10 2.022 . S
Co1 N18 1.993 1_556 S
Co1 O26 1.941 1_556 S
C2 O3 1.258 . S
C2 O4 1.263 1_554 S
O3 Co0 1.970 . S
O3 C2 1.258 . S
O4 Co1 1.966 . S
O4 C2 1.263 1_556 S
C5 O6 1.235 . S
C5 O32 1.289 . S
O6 C5 1.235 . S
C7 C9 1.400 . S
C7 N10 1.351 . S
C7 C12 1.501 . S
C8 C9 1.387 . S
C8 N11 1.341 . S
C9 C7 1.400 . S
C9 C8 1.387 . S
N10 Co1 2.022 . S
N10 C7 1.351 . S
N10 N11 1.365 . S
N11 C8 1.341 . S
N11 N10 1.365 . S
N11 H31 0.862 . S
C12 C7 1.501 . S
C12 H13 0.961 . S
C12 H14 0.961 . S
C12 H15 0.960 . S
H13 C12 0.961 . S
H14 C12 0.961 . S
H15 C12 0.960 . S
C16 N17 1.342 . S
C16 C20 1.401 . S
C16 C21 1.499 . S
N17 Co0 1.989 . S
N17 C16 1.342 . S
N17 N18 1.388 . S
N18 Co1 1.993 1_554 S
N18 N17 1.388 . S
N18 C19 1.346 1_554 S
C19 N18 1.346 1_556 S
C19 C20 1.396 1_556 S
C19 C29 1.510 . S
C20 C16 1.401 . S
C20 C19 1.396 1_554 S
C21 C16 1.499 . S
C21 H22 0.959 . S
C21 H23 0.960 . S
C21 H24 0.961 . S
H22 C21 0.959 . S
H23 C21 0.960 . S
H24 C21 0.961 . S
O25 Co0 1.967 . S
O25 C33 1.258 . S
O26 Co1 1.941 1_554 S
O26 C33 1.266 . S
H27 C29 0.959 . S
H28 C29 0.961 . S
C29 C19 1.510 . S
C29 H27 0.959 . S
C29 H28 0.961 . S
C29 H30 0.960 . S
H30 C29 0.960 . S
H31 N11 0.862 . S
O32 Co0 1.920 . S
O32 C5 1.289 . S
C33 O25 1.258 . S
C33 O26 1.266 . S
Co34 O37 1.970 . S
Co34 N51 1.989 . S
Co34 O59 1.967 . S
Co34 O66 1.920 . S
Co35 O38 1.966 . S
Co35 N44 2.022 . S
Co35 N52 1.993 1_556 S
Co35 O60 1.941 1_556 S
C36 O37 1.258 . S
C36 O38 1.263 1_554 S
O37 Co34 1.970 . S
O37 C36 1.258 . S
O38 Co35 1.966 . S
O38 C36 1.263 1_556 S
C39 O40 1.235 . S
C39 O66 1.289 . S
O40 C39 1.235 . S
C41 C43 1.400 . S
C41 N44 1.351 . S
C41 C46 1.501 . S
C42 C43 1.387 . S
C42 N45 1.341 . S
C43 C41 1.400 . S
C43 C42 1.387 . S
N44 Co35 2.022 . S
N44 C41 1.351 . S
N44 N45 1.365 . S
N45 C42 1.341 . S
N45 N44 1.365 . S
N45 H65 0.862 . S
C46 C41 1.501 . S
C46 H47 0.961 . S
C46 H48 0.961 . S
C46 H49 0.960 . S
H47 C46 0.961 . S
H48 C46 0.961 . S
H49 C46 0.960 . S
C50 N51 1.342 . S
C50 C54 1.401 . S
C50 C55 1.499 . S
N51 Co34 1.989 . S
N51 C50 1.342 . S
N51 N52 1.388 . S
N52 Co35 1.993 1_554 S
N52 N51 1.388 . S
N52 C53 1.346 1_554 S
C53 N52 1.346 1_556 S
C53 C54 1.396 1_556 S
C53 C63 1.510 . S
C54 C50 1.401 . S
C54 C53 1.396 1_554 S
C55 C50 1.499 . S
C55 H56 0.959 . S
C55 H57 0.960 . S
C55 H58 0.961 . S
H56 C55 0.959 . S
H57 C55 0.960 . S
H58 C55 0.961 . S
O59 Co34 1.967 . S
O59 C67 1.258 . S
O60 Co35 1.941 1_554 S
O60 C67 1.266 . S
H61 C63 0.959 . S
H62 C63 0.961 . S
C63 C53 1.510 . S
C63 H61 0.959 . S
C63 H62 0.961 . S
C63 H64 0.960 . S
H64 C63 0.960 . S
H65 N45 0.862 . S
O66 Co34 1.920 . S
O66 C39 1.289 . S
C67 O59 1.258 . S
C67 O60 1.266 . S
Co68 O71 1.970 . S
Co68 N85 1.989 . S
Co68 O93 1.967 . S
Co68 O100 1.920 . S
Co69 O72 1.966 . S
Co69 N78 2.022 . S
Co69 N86 1.993 1_556 S
Co69 O94 1.941 1_556 S
C70 O71 1.258 . S
C70 O72 1.263 1_554 S
O71 Co68 1.970 . S
O71 C70 1.258 . S
O72 Co69 1.966 . S
O72 C70 1.263 1_556 S
C73 O74 1.235 . S
C73 O100 1.289 . S
O74 C73 1.235 . S
C75 C77 1.400 . S
C75 N78 1.351 . S
C75 C80 1.501 . S
C76 C77 1.387 . S
C76 N79 1.341 . S
C77 C75 1.400 . S
C77 C76 1.387 . S
N78 Co69 2.022 . S
N78 C75 1.351 . S
N78 N79 1.365 . S
N79 C76 1.341 . S
N79 N78 1.365 . S
N79 H99 0.862 . S
C80 C75 1.501 . S
C80 H81 0.961 . S
C80 H82 0.961 . S
C80 H83 0.960 . S
H81 C80 0.961 . S
H82 C80 0.961 . S
H83 C80 0.960 . S
C84 N85 1.342 . S
C84 C88 1.401 . S
C84 C89 1.499 . S
N85 Co68 1.989 . S
N85 C84 1.342 . S
N85 N86 1.388 . S
N86 Co69 1.993 1_554 S
N86 N85 1.388 . S
N86 C87 1.346 1_554 S
C87 N86 1.346 1_556 S
C87 C88 1.396 1_556 S
C87 C97 1.510 . S
C88 C84 1.401 . S
C88 C87 1.396 1_554 S
C89 C84 1.499 . S
C89 H90 0.959 . S
C89 H91 0.960 . S
C89 H92 0.961 . S
H90 C89 0.959 . S
H91 C89 0.960 . S
H92 C89 0.961 . S
O93 Co68 1.967 . S
O93 C101 1.258 . S
O94 Co69 1.941 1_554 S
O94 C101 1.266 . S
H95 C97 0.959 . S
H96 C97 0.961 . S
C97 C87 1.510 . S
C97 H95 0.959 . S
C97 H96 0.961 . S
C97 H98 0.960 . S
H98 C97 0.960 . S
H99 N79 0.862 . S
O100 Co68 1.920 . S
O100 C73 1.289 . S
C101 O93 1.258 . S
C101 O94 1.266 . S
Co102 O105 1.970 . S
Co102 N119 1.989 . S
Co102 O127 1.967 . S
Co102 O134 1.920 . S
Co103 O106 1.966 . S
Co103 N112 2.022 . S
Co103 N120 1.993 1_556 S
Co103 O128 1.941 1_556 S
C104 O105 1.258 . S
C104 O106 1.263 1_554 S
O105 Co102 1.970 . S
O105 C104 1.258 . S
O106 Co103 1.966 . S
O106 C104 1.263 1_556 S
C107 O108 1.235 . S
C107 O134 1.289 . S
O108 C107 1.235 . S
C109 C111 1.400 . S
C109 N112 1.351 . S
C109 C114 1.501 . S
C110 C111 1.387 . S
C110 N113 1.341 . S
C111 C109 1.400 . S
C111 C110 1.387 . S
N112 Co103 2.022 . S
N112 C109 1.351 . S
N112 N113 1.365 . S
N113 C110 1.341 . S
N113 N112 1.365 . S
N113 H133 0.862 . S
C114 C109 1.501 . S
C114 H115 0.961 . S
C114 H116 0.961 . S
C114 H117 0.960 . S
H115 C114 0.961 . S
H116 C114 0.961 . S
H117 C114 0.960 . S
C118 N119 1.342 . S
C118 C122 1.401 . S
C118 C123 1.499 . S
N119 Co102 1.989 . S
N119 C118 1.342 . S
N119 N120 1.388 . S
N120 Co103 1.993 1_554 S
N120 N119 1.388 . S
N120 C121 1.346 1_554 S
C121 N120 1.346 1_556 S
C121 C122 1.396 1_556 S
C121 C131 1.510 . S
C122 C118 1.401 . S
C122 C121 1.396 1_554 S
C123 C118 1.499 . S
C123 H124 0.959 . S
C123 H125 0.960 . S
C123 H126 0.961 . S
H124 C123 0.959 . S
H125 C123 0.960 . S
H126 C123 0.961 . S
O127 Co102 1.967 . S
O127 C135 1.258 . S
O128 Co103 1.941 1_554 S
O128 C135 1.266 . S
H129 C131 0.959 . S
H130 C131 0.961 . S
C131 C121 1.510 . S
C131 H129 0.959 . S
C131 H130 0.961 . S
C131 H132 0.960 . S
H132 C131 0.960 . S
H133 N113 0.862 . S
O134 Co102 1.920 . S
O134 C107 1.289 . S
C135 O127 1.258 . S
C135 O128 1.266 . S
Co136 O139 1.970 . S
Co136 N153 1.989 . S
Co136 O161 1.967 . S
Co136 O168 1.920 . S
Co137 O140 1.966 . S
Co137 N146 2.022 . S
Co137 N154 1.993 1_554 S
Co137 O162 1.941 1_554 S
C138 O139 1.258 . S
C138 O140 1.263 1_556 S
O139 Co136 1.970 . S
O139 C138 1.258 . S
O140 Co137 1.966 . S
O140 C138 1.263 1_554 S
C141 O142 1.235 . S
C141 O168 1.289 . S
O142 C141 1.235 . S
C143 C145 1.400 . S
C143 N146 1.351 . S
C143 C148 1.501 . S
C144 C145 1.387 . S
C144 N147 1.341 . S
C145 C143 1.400 . S
C145 C144 1.387 . S
N146 Co137 2.022 . S
N146 C143 1.351 . S
N146 N147 1.365 . S
N147 C144 1.341 . S
N147 N146 1.365 . S
N147 H167 0.862 . S
C148 C143 1.501 . S
C148 H149 0.961 . S
C148 H150 0.961 . S
C148 H151 0.960 . S
H149 C148 0.961 . S
H150 C148 0.961 . S
H151 C148 0.960 . S
C152 N153 1.342 . S
C152 C156 1.401 . S
C152 C157 1.499 . S
N153 Co136 1.989 . S
N153 C152 1.342 . S
N153 N154 1.388 . S
N154 Co137 1.993 1_556 S
N154 N153 1.388 . S
N154 C155 1.346 1_556 S
C155 N154 1.346 1_554 S
C155 C156 1.396 1_554 S
C155 C165 1.510 . S
C156 C152 1.401 . S
C156 C155 1.396 1_556 S
C157 C152 1.499 . S
C157 H158 0.959 . S
C157 H159 0.960 . S
C157 H160 0.961 . S
H158 C157 0.959 . S
H159 C157 0.960 . S
H160 C157 0.961 . S
O161 Co136 1.967 . S
O161 C169 1.258 . S
O162 Co137 1.941 1_556 S
O162 C169 1.266 . S
H163 C165 0.959 . S
H164 C165 0.961 . S
C165 C155 1.510 . S
C165 H163 0.959 . S
C165 H164 0.961 . S
C165 H166 0.960 . S
H166 C165 0.960 . S
H167 N147 0.862 . S
O168 Co136 1.920 . S
O168 C141 1.289 . S
C169 O161 1.258 . S
C169 O162 1.266 . S
Co170 O173 1.970 . S
Co170 N187 1.989 . S
Co170 O195 1.967 . S
Co170 O202 1.920 . S
Co171 O174 1.966 . S
Co171 N180 2.022 . S
Co171 N188 1.993 1_554 S
Co171 O196 1.941 1_554 S
C172 O173 1.258 . S
C172 O174 1.263 1_556 S
O173 Co170 1.970 . S
O173 C172 1.258 . S
O174 Co171 1.966 . S
O174 C172 1.263 1_554 S
C175 O176 1.235 . S
C175 O202 1.289 . S
O176 C175 1.235 . S
C177 C179 1.400 . S
C177 N180 1.351 . S
C177 C182 1.501 . S
C178 C179 1.387 . S
C178 N181 1.341 . S
C179 C177 1.400 . S
C179 C178 1.387 . S
N180 Co171 2.022 . S
N180 C177 1.351 . S
N180 N181 1.365 . S
N181 C178 1.341 . S
N181 N180 1.365 . S
N181 H201 0.862 . S
C182 C177 1.501 . S
C182 H183 0.961 . S
C182 H184 0.961 . S
C182 H185 0.960 . S
H183 C182 0.961 . S
H184 C182 0.961 . S
H185 C182 0.960 . S
C186 N187 1.342 . S
C186 C190 1.401 . S
C186 C191 1.499 . S
N187 Co170 1.989 . S
N187 C186 1.342 . S
N187 N188 1.388 . S
N188 Co171 1.993 1_556 S
N188 N187 1.388 . S
N188 C189 1.346 1_556 S
C189 N188 1.346 1_554 S
C189 C190 1.396 1_554 S
C189 C199 1.510 . S
C190 C186 1.401 . S
C190 C189 1.396 1_556 S
C191 C186 1.499 . S
C191 H192 0.959 . S
C191 H193 0.960 . S
C191 H194 0.961 . S
H192 C191 0.959 . S
H193 C191 0.960 . S
H194 C191 0.961 . S
O195 Co170 1.967 . S
O195 C203 1.258 . S
O196 Co171 1.941 1_556 S
O196 C203 1.266 . S
H197 C199 0.959 . S
H198 C199 0.961 . S
C199 C189 1.510 . S
C199 H197 0.959 . S
C199 H198 0.961 . S
C199 H200 0.960 . S
H200 C199 0.960 . S
H201 N181 0.862 . S
O202 Co170 1.920 . S
O202 C175 1.289 . S
C203 O195 1.258 . S
C203 O196 1.266 . S
Co204 O207 1.970 . S
Co204 N221 1.989 . S
Co204 O229 1.967 . S
Co204 O236 1.920 . S
Co205 O208 1.966 . S
Co205 N214 2.022 . S
Co205 N222 1.993 1_554 S
Co205 O230 1.941 1_554 S
C206 O207 1.258 . S
C206 O208 1.263 1_556 S
O207 Co204 1.970 . S
O207 C206 1.258 . S
O208 Co205 1.966 . S
O208 C206 1.263 1_554 S
C209 O210 1.235 . S
C209 O236 1.289 . S
O210 C209 1.235 . S
C211 C213 1.400 . S
C211 N214 1.351 . S
C211 C216 1.501 . S
C212 C213 1.387 . S
C212 N215 1.341 . S
C213 C211 1.400 . S
C213 C212 1.387 . S
N214 Co205 2.022 . S
N214 C211 1.351 . S
N214 N215 1.365 . S
N215 C212 1.341 . S
N215 N214 1.365 . S
N215 H235 0.862 . S
C216 C211 1.501 . S
C216 H217 0.961 . S
C216 H218 0.961 . S
C216 H219 0.960 . S
H217 C216 0.961 . S
H218 C216 0.961 . S
H219 C216 0.960 . S
C220 N221 1.342 . S
C220 C224 1.401 . S
C220 C225 1.499 . S
N221 Co204 1.989 . S
N221 C220 1.342 . S
N221 N222 1.388 . S
N222 Co205 1.993 1_556 S
N222 N221 1.388 . S
N222 C223 1.346 1_556 S
C223 N222 1.346 1_554 S
C223 C224 1.396 1_554 S
C223 C233 1.510 . S
C224 C220 1.401 . S
C224 C223 1.396 1_556 S
C225 C220 1.499 . S
C225 H226 0.959 . S
C225 H227 0.960 . S
C225 H228 0.961 . S
H226 C225 0.959 . S
H227 C225 0.960 . S
H228 C225 0.961 . S
O229 Co204 1.967 . S
O229 C237 1.258 . S
O230 Co205 1.941 1_556 S
O230 C237 1.266 . S
H231 C233 0.959 . S
H232 C233 0.961 . S
C233 C223 1.510 . S
C233 H231 0.959 . S
C233 H232 0.961 . S
C233 H234 0.960 . S
H234 C233 0.960 . S
H235 N215 0.862 . S
O236 Co204 1.920 . S
O236 C209 1.289 . S
C237 O229 1.258 . S
C237 O230 1.266 . S
Co238 O241 1.970 . S
Co238 N255 1.989 . S
Co238 O263 1.967 . S
Co238 O270 1.920 . S
Co239 O242 1.966 . S
Co239 N248 2.022 . S
Co239 N256 1.993 1_554 S
Co239 O264 1.941 1_554 S
C240 O241 1.258 . S
C240 O242 1.263 1_556 S
O241 Co238 1.970 . S
O241 C240 1.258 . S
O242 Co239 1.966 . S
O242 C240 1.263 1_554 S
C243 O244 1.235 . S
C243 O270 1.289 . S
O244 C243 1.235 . S
C245 C247 1.400 . S
C245 N248 1.351 . S
C245 C250 1.501 . S
C246 C247 1.387 . S
C246 N249 1.341 . S
C247 C245 1.400 . S
C247 C246 1.387 . S
N248 Co239 2.022 . S
N248 C245 1.351 . S
N248 N249 1.365 . S
N249 C246 1.341 . S
N249 N248 1.365 . S
N249 H269 0.862 . S
C250 C245 1.501 . S
C250 H251 0.961 . S
C250 H252 0.961 . S
C250 H253 0.960 . S
H251 C250 0.961 . S
H252 C250 0.961 . S
H253 C250 0.960 . S
C254 N255 1.342 . S
C254 C258 1.401 . S
C254 C259 1.499 . S
N255 Co238 1.989 . S
N255 C254 1.342 . S
N255 N256 1.388 . S
N256 Co239 1.993 1_556 S
N256 N255 1.388 . S
N256 C257 1.346 1_556 S
C257 N256 1.346 1_554 S
C257 C258 1.396 1_554 S
C257 C267 1.510 . S
C258 C254 1.401 . S
C258 C257 1.396 1_556 S
C259 C254 1.499 . S
C259 H260 0.959 . S
C259 H261 0.960 . S
C259 H262 0.961 . S
H260 C259 0.959 . S
H261 C259 0.960 . S
H262 C259 0.961 . S
O263 Co238 1.967 . S
O263 C271 1.258 . S
O264 Co239 1.941 1_556 S
O264 C271 1.266 . S
H265 C267 0.959 . S
H266 C267 0.961 . S
C267 C257 1.510 . S
C267 H265 0.959 . S
C267 H266 0.961 . S
C267 H268 0.960 . S
H268 C267 0.960 . S
H269 N249 0.862 . S
O270 Co238 1.920 . S
O270 C243 1.289 . S
C271 O263 1.258 . S
C271 O264 1.266 . S
Co272 O275 1.970 . S
Co272 N289 1.989 . S
Co272 O297 1.967 . S
Co272 O304 1.920 . S
Co273 O276 1.966 . S
Co273 N282 2.022 . S
Co273 N290 1.993 . S
Co273 O298 1.941 . S
C274 O275 1.258 . S
C274 O276 1.263 . S
O275 Co272 1.970 . S
O275 C274 1.258 . S
O276 Co273 1.966 . S
O276 C274 1.263 . S
C277 O278 1.235 . S
C277 O304 1.289 . S
O278 C277 1.235 . S
C279 C281 1.400 . S
C279 N282 1.351 . S
C279 C284 1.501 . S
C280 C281 1.387 . S
C280 N283 1.341 . S
C281 C279 1.400 . S
C281 C280 1.387 . S
N282 Co273 2.022 . S
N282 C279 1.351 . S
N282 N283 1.365 . S
N283 C280 1.341 . S
N283 N282 1.365 . S
N283 H303 0.862 . S
C284 C279 1.501 . S
C284 H285 0.961 . S
C284 H286 0.961 . S
C284 H287 0.960 . S
H285 C284 0.961 . S
H286 C284 0.961 . S
H287 C284 0.960 . S
C288 N289 1.342 . S
C288 C292 1.401 . S
C288 C293 1.499 . S
N289 Co272 1.989 . S
N289 C288 1.342 . S
N289 N290 1.388 . S
N290 Co273 1.993 . S
N290 N289 1.388 . S
N290 C291 1.346 . S
C291 N290 1.346 . S
C291 C292 1.396 . S
C291 C301 1.510 . S
C292 C288 1.401 . S
C292 C291 1.396 . S
C293 C288 1.499 . S
C293 H294 0.959 . S
C293 H295 0.960 . S
C293 H296 0.961 . S
H294 C293 0.959 . S
H295 C293 0.960 . S
H296 C293 0.961 . S
O297 Co272 1.967 . S
O297 C305 1.258 . S
O298 Co273 1.941 . S
O298 C305 1.266 . S
H299 C301 0.959 . S
H300 C301 0.961 . S
C301 C291 1.510 . S
C301 H299 0.959 . S
C301 H300 0.961 . S
C301 H302 0.960 . S
H302 C301 0.960 . S
H303 N283 0.862 . S
O304 Co272 1.920 . S
O304 C277 1.289 . S
C305 O297 1.258 . S
C305 O298 1.266 . S
Co306 O309 1.970 . S
Co306 N323 1.989 . S
Co306 O331 1.967 . S
Co306 O338 1.920 . S
Co307 O310 1.966 . S
Co307 N316 2.022 . S
Co307 N324 1.993 . S
Co307 O332 1.941 . S
C308 O309 1.258 . S
C308 O310 1.263 . S
O309 Co306 1.970 . S
O309 C308 1.258 . S
O310 Co307 1.966 . S
O310 C308 1.263 . S
C311 O312 1.235 . S
C311 O338 1.289 . S
O312 C311 1.235 . S
C313 C315 1.400 . S
C313 N316 1.351 . S
C313 C318 1.501 . S
C314 C315 1.387 . S
C314 N317 1.341 . S
C315 C313 1.400 . S
C315 C314 1.387 . S
N316 Co307 2.022 . S
N316 C313 1.351 . S
N316 N317 1.365 . S
N317 C314 1.341 . S
N317 N316 1.365 . S
N317 H337 0.862 . S
C318 C313 1.501 . S
C318 H319 0.961 . S
C318 H320 0.961 . S
C318 H321 0.960 . S
H319 C318 0.961 . S
H320 C318 0.961 . S
H321 C318 0.960 . S
C322 N323 1.342 . S
C322 C326 1.401 . S
C322 C327 1.499 . S
N323 Co306 1.989 . S
N323 C322 1.342 . S
N323 N324 1.388 . S
N324 Co307 1.993 . S
N324 N323 1.388 . S
N324 C325 1.346 . S
C325 N324 1.346 . S
C325 C326 1.396 . S
C325 C335 1.510 . S
C326 C322 1.401 . S
C326 C325 1.396 . S
C327 C322 1.499 . S
C327 H328 0.959 . S
C327 H329 0.960 . S
C327 H330 0.961 . S
H328 C327 0.959 . S
H329 C327 0.960 . S
H330 C327 0.961 . S
O331 Co306 1.967 . S
O331 C339 1.258 . S
O332 Co307 1.941 . S
O332 C339 1.266 . S
H333 C335 0.959 . S
H334 C335 0.961 . S
C335 C325 1.510 . S
C335 H333 0.959 . S
C335 H334 0.961 . S
C335 H336 0.960 . S
H336 C335 0.960 . S
H337 N317 0.862 . S
O338 Co306 1.920 . S
O338 C311 1.289 . S
C339 O331 1.258 . S
C339 O332 1.266 . S
Co340 O343 1.970 . S
Co340 N357 1.989 . S
Co340 O365 1.967 . S
Co340 O372 1.920 . S
Co341 O344 1.966 . S
Co341 N350 2.022 . S
Co341 N358 1.993 . S
Co341 O366 1.941 . S
C342 O343 1.258 . S
C342 O344 1.263 . S
O343 Co340 1.970 . S
O343 C342 1.258 . S
O344 Co341 1.966 . S
O344 C342 1.263 . S
C345 O346 1.235 . S
C345 O372 1.289 . S
O346 C345 1.235 . S
C347 C349 1.400 . S
C347 N350 1.351 . S
C347 C352 1.501 . S
C348 C349 1.387 . S
C348 N351 1.341 . S
C349 C347 1.400 . S
C349 C348 1.387 . S
N350 Co341 2.022 . S
N350 C347 1.351 . S
N350 N351 1.365 . S
N351 C348 1.341 . S
N351 N350 1.365 . S
N351 H371 0.862 . S
C352 C347 1.501 . S
C352 H353 0.961 . S
C352 H354 0.961 . S
C352 H355 0.960 . S
H353 C352 0.961 . S
H354 C352 0.961 . S
H355 C352 0.960 . S
C356 N357 1.342 . S
C356 C360 1.401 . S
C356 C361 1.499 . S
N357 Co340 1.989 . S
N357 C356 1.342 . S
N357 N358 1.388 . S
N358 Co341 1.993 . S
N358 N357 1.388 . S
N358 C359 1.346 . S
C359 N358 1.346 . S
C359 C360 1.396 . S
C359 C369 1.510 . S
C360 C356 1.401 . S
C360 C359 1.396 . S
C361 C356 1.499 . S
C361 H362 0.959 . S
C361 H363 0.960 . S
C361 H364 0.961 . S
H362 C361 0.959 . S
H363 C361 0.960 . S
H364 C361 0.961 . S
O365 Co340 1.967 . S
O365 C373 1.258 . S
O366 Co341 1.941 . S
O366 C373 1.266 . S
H367 C369 0.959 . S
H368 C369 0.961 . S
C369 C359 1.510 . S
C369 H367 0.959 . S
C369 H368 0.961 . S
C369 H370 0.960 . S
H370 C369 0.960 . S
H371 N351 0.862 . S
O372 Co340 1.920 . S
O372 C345 1.289 . S
C373 O365 1.258 . S
C373 O366 1.266 . S
Co374 O377 1.970 . S
Co374 N391 1.989 . S
Co374 O399 1.967 . S
Co374 O406 1.920 . S
Co375 O378 1.966 . S
Co375 N384 2.022 . S
Co375 N392 1.993 . S
Co375 O400 1.941 . S
C376 O377 1.258 . S
C376 O378 1.263 . S
O377 Co374 1.970 . S
O377 C376 1.258 . S
O378 Co375 1.966 . S
O378 C376 1.263 . S
C379 O380 1.235 . S
C379 O406 1.289 . S
O380 C379 1.235 . S
C381 C383 1.400 . S
C381 N384 1.351 . S
C381 C386 1.501 . S
C382 C383 1.387 . S
C382 N385 1.341 . S
C383 C381 1.400 . S
C383 C382 1.387 . S
N384 Co375 2.022 . S
N384 C381 1.351 . S
N384 N385 1.365 . S
N385 C382 1.341 . S
N385 N384 1.365 . S
N385 H405 0.862 . S
C386 C381 1.501 . S
C386 H387 0.961 . S
C386 H388 0.961 . S
C386 H389 0.960 . S
H387 C386 0.961 . S
H388 C386 0.961 . S
H389 C386 0.960 . S
C390 N391 1.342 . S
C390 C394 1.401 . S
C390 C395 1.499 . S
N391 Co374 1.989 . S
N391 C390 1.342 . S
N391 N392 1.388 . S
N392 Co375 1.993 . S
N392 N391 1.388 . S
N392 C393 1.346 . S
C393 N392 1.346 . S
C393 C394 1.396 . S
C393 C403 1.510 . S
C394 C390 1.401 . S
C394 C393 1.396 . S
C395 C390 1.499 . S
C395 H396 0.959 . S
C395 H397 0.960 . S
C395 H398 0.961 . S
H396 C395 0.959 . S
H397 C395 0.960 . S
H398 C395 0.961 . S
O399 Co374 1.967 . S
O399 C407 1.258 . S
O400 Co375 1.941 . S
O400 C407 1.266 . S
H401 C403 0.959 . S
H402 C403 0.961 . S
C403 C393 1.510 . S
C403 H401 0.959 . S
C403 H402 0.961 . S
C403 H404 0.960 . S
H404 C403 0.960 . S
H405 N385 0.862 . S
O406 Co374 1.920 . S
O406 C379 1.289 . S
C407 O399 1.258 . S
C407 O400 1.266 . S
Co408 O411 1.970 . S
Co408 N425 1.989 . S
Co408 O433 1.967 . S
Co408 O440 1.920 . S
Co409 O412 1.966 . S
Co409 N418 2.022 . S
Co409 N426 1.993 . S
Co409 O434 1.941 . S
C410 O411 1.258 . S
C410 O412 1.263 . S
O411 Co408 1.970 . S
O411 C410 1.258 . S
O412 Co409 1.966 . S
O412 C410 1.263 . S
C413 O414 1.235 . S
C413 O440 1.289 . S
O414 C413 1.235 . S
C415 C417 1.400 . S
C415 N418 1.351 . S
C415 C420 1.501 . S
C416 C417 1.387 . S
C416 N419 1.341 . S
C417 C415 1.400 . S
C417 C416 1.387 . S
N418 Co409 2.022 . S
N418 C415 1.351 . S
N418 N419 1.365 . S
N419 C416 1.341 . S
N419 N418 1.365 . S
N419 H439 0.862 . S
C420 C415 1.501 . S
C420 H421 0.961 . S
C420 H422 0.961 . S
C420 H423 0.960 . S
H421 C420 0.961 . S
H422 C420 0.961 . S
H423 C420 0.960 . S
C424 N425 1.342 . S
C424 C428 1.401 . S
C424 C429 1.499 . S
N425 Co408 1.989 . S
N425 C424 1.342 . S
N425 N426 1.388 . S
N426 Co409 1.993 . S
N426 N425 1.388 . S
N426 C427 1.346 . S
C427 N426 1.346 . S
C427 C428 1.396 . S
C427 C437 1.510 . S
C428 C424 1.401 . S
C428 C427 1.396 . S
C429 C424 1.499 . S
C429 H430 0.959 . S
C429 H431 0.960 . S
C429 H432 0.961 . S
H430 C429 0.959 . S
H431 C429 0.960 . S
H432 C429 0.961 . S
O433 Co408 1.967 . S
O433 C441 1.258 . S
O434 Co409 1.941 . S
O434 C441 1.266 . S
H435 C437 0.959 . S
H436 C437 0.961 . S
C437 C427 1.510 . S
C437 H435 0.959 . S
C437 H436 0.961 . S
C437 H438 0.960 . S
H438 C437 0.960 . S
H439 N419 0.862 . S
O440 Co408 1.920 . S
O440 C413 1.289 . S
C441 O433 1.258 . S
C441 O434 1.266 . S
Co442 O445 1.970 . S
Co442 N459 1.989 . S
Co442 O467 1.967 . S
Co442 O474 1.920 . S
Co443 O446 1.966 . S
Co443 N452 2.022 . S
Co443 N460 1.993 . S
Co443 O468 1.941 . S
C444 O445 1.258 . S
C444 O446 1.263 . S
O445 Co442 1.970 . S
O445 C444 1.258 . S
O446 Co443 1.966 . S
O446 C444 1.263 . S
C447 O448 1.235 . S
C447 O474 1.289 . S
O448 C447 1.235 . S
C449 C451 1.400 . S
C449 N452 1.351 . S
C449 C454 1.501 . S
C450 C451 1.387 . S
C450 N453 1.341 . S
C451 C449 1.400 . S
C451 C450 1.387 . S
N452 Co443 2.022 . S
N452 C449 1.351 . S
N452 N453 1.365 . S
N453 C450 1.341 . S
N453 N452 1.365 . S
N453 H473 0.862 . S
C454 C449 1.501 . S
C454 H455 0.961 . S
C454 H456 0.961 . S
C454 H457 0.960 . S
H455 C454 0.961 . S
H456 C454 0.961 . S
H457 C454 0.960 . S
C458 N459 1.342 . S
C458 C462 1.401 . S
C458 C463 1.499 . S
N459 Co442 1.989 . S
N459 C458 1.342 . S
N459 N460 1.388 . S
N460 Co443 1.993 . S
N460 N459 1.388 . S
N460 C461 1.346 . S
C461 N460 1.346 . S
C461 C462 1.396 . S
C461 C471 1.510 . S
C462 C458 1.401 . S
C462 C461 1.396 . S
C463 C458 1.499 . S
C463 H464 0.959 . S
C463 H465 0.960 . S
C463 H466 0.961 . S
H464 C463 0.959 . S
H465 C463 0.960 . S
H466 C463 0.961 . S
O467 Co442 1.967 . S
O467 C475 1.258 . S
O468 Co443 1.941 . S
O468 C475 1.266 . S
H469 C471 0.959 . S
H470 C471 0.961 . S
C471 C461 1.510 . S
C471 H469 0.959 . S
C471 H470 0.961 . S
C471 H472 0.960 . S
H472 C471 0.960 . S
H473 N453 0.862 . S
O474 Co442 1.920 . S
O474 C447 1.289 . S
C475 O467 1.258 . S
C475 O468 1.266 . S
Co476 O479 1.970 . S
Co476 N493 1.989 . S
Co476 O501 1.967 . S
Co476 O508 1.920 . S
Co477 O480 1.966 . S
Co477 N486 2.022 . S
Co477 N494 1.993 . S
Co477 O502 1.941 . S
C478 O479 1.258 . S
C478 O480 1.263 . S
O479 Co476 1.970 . S
O479 C478 1.258 . S
O480 Co477 1.966 . S
O480 C478 1.263 . S
C481 O482 1.235 . S
C481 O508 1.289 . S
O482 C481 1.235 . S
C483 C485 1.400 . S
C483 N486 1.351 . S
C483 C488 1.501 . S
C484 C485 1.387 . S
C484 N487 1.341 . S
C485 C483 1.400 . S
C485 C484 1.387 . S
N486 Co477 2.022 . S
N486 C483 1.351 . S
N486 N487 1.365 . S
N487 C484 1.341 . S
N487 N486 1.365 . S
N487 H507 0.862 . S
C488 C483 1.501 . S
C488 H489 0.961 . S
C488 H490 0.961 . S
C488 H491 0.960 . S
H489 C488 0.961 . S
H490 C488 0.961 . S
H491 C488 0.960 . S
C492 N493 1.342 . S
C492 C496 1.401 . S
C492 C497 1.499 . S
N493 Co476 1.989 . S
N493 C492 1.342 . S
N493 N494 1.388 . S
N494 Co477 1.993 . S
N494 N493 1.388 . S
N494 C495 1.346 . S
C495 N494 1.346 . S
C495 C496 1.396 . S
C495 C505 1.510 . S
C496 C492 1.401 . S
C496 C495 1.396 . S
C497 C492 1.499 . S
C497 H498 0.959 . S
C497 H499 0.960 . S
C497 H500 0.961 . S
H498 C497 0.959 . S
H499 C497 0.960 . S
H500 C497 0.961 . S
O501 Co476 1.967 . S
O501 C509 1.258 . S
O502 Co477 1.941 . S
O502 C509 1.266 . S
H503 C505 0.959 . S
H504 C505 0.961 . S
C505 C495 1.510 . S
C505 H503 0.959 . S
C505 H504 0.961 . S
C505 H506 0.960 . S
H506 C505 0.960 . S
H507 N487 0.862 . S
O508 Co476 1.920 . S
O508 C481 1.289 . S
C509 O501 1.258 . S
C509 O502 1.266 . S
Co510 O513 1.970 . S
Co510 N527 1.989 . S
Co510 O535 1.967 . S
Co510 O542 1.920 . S
Co511 O514 1.966 . S
Co511 N520 2.022 . S
Co511 N528 1.993 . S
Co511 O536 1.941 . S
C512 O513 1.258 . S
C512 O514 1.263 . S
O513 Co510 1.970 . S
O513 C512 1.258 . S
O514 Co511 1.966 . S
O514 C512 1.263 . S
C515 O516 1.235 . S
C515 O542 1.289 . S
O516 C515 1.235 . S
C517 C519 1.400 . S
C517 N520 1.351 . S
C517 C522 1.501 . S
C518 C519 1.387 . S
C518 N521 1.341 . S
C519 C517 1.400 . S
C519 C518 1.387 . S
N520 Co511 2.022 . S
N520 C517 1.351 . S
N520 N521 1.365 . S
N521 C518 1.341 . S
N521 N520 1.365 . S
N521 H541 0.862 . S
C522 C517 1.501 . S
C522 H523 0.961 . S
C522 H524 0.961 . S
C522 H525 0.960 . S
H523 C522 0.961 . S
H524 C522 0.961 . S
H525 C522 0.960 . S
C526 N527 1.342 . S
C526 C530 1.401 . S
C526 C531 1.499 . S
N527 Co510 1.989 . S
N527 C526 1.342 . S
N527 N528 1.388 . S
N528 Co511 1.993 . S
N528 N527 1.388 . S
N528 C529 1.346 . S
C529 N528 1.346 . S
C529 C530 1.396 . S
C529 C539 1.510 . S
C530 C526 1.401 . S
C530 C529 1.396 . S
C531 C526 1.499 . S
C531 H532 0.959 . S
C531 H533 0.960 . S
C531 H534 0.961 . S
H532 C531 0.959 . S
H533 C531 0.960 . S
H534 C531 0.961 . S
O535 Co510 1.967 . S
O535 C543 1.258 . S
O536 Co511 1.941 . S
O536 C543 1.266 . S
H537 C539 0.959 . S
H538 C539 0.961 . S
C539 C529 1.510 . S
C539 H537 0.959 . S
C539 H538 0.961 . S
C539 H540 0.960 . S
H540 C539 0.960 . S
H541 N521 0.862 . S
O542 Co510 1.920 . S
O542 C515 1.289 . S
C543 O535 1.258 . S
C543 O536 1.266 . S
H544 C550 0.930 . S
H545 C554 0.930 . S
H546 C559 0.929 . S
H547 C557 0.929 . S
H548 C552 0.929 . S
H549 C558 0.929 . S
C550 H544 0.930 . S
C550 C551 1.367 . S
C550 C558 1.378 . S
C551 C550 1.367 . S
C551 C559 1.433 . S
C552 H548 0.929 . S
C552 C554 1.378 . S
C552 C556 1.350 . S
C553 C556 1.463 . S
C553 C558 1.350 . S
C553 N561 1.427 . S
C554 H545 0.930 . S
C554 C552 1.378 . S
C554 C555 1.367 . S
C555 C554 1.367 . S
C555 C557 1.433 . S
C556 C552 1.350 . S
C556 C553 1.463 . S
C556 N560 1.427 . S
C557 H547 0.929 . S
C557 C555 1.433 . S
C557 N560 1.384 . S
C558 H549 0.929 . S
C558 C550 1.378 . S
C558 C553 1.350 . S
C559 H546 0.929 . S
C559 C551 1.433 . S
C559 N561 1.384 . S
N560 C556 1.427 . S
N560 C557 1.384 . S
N561 C553 1.427 . S
N561 C559 1.384 . S
H562 C568 0.930 . S
H563 C572 0.930 . S
H564 C577 0.929 . S
H565 C575 0.929 . S
H566 C570 0.929 . S
H567 C576 0.929 . S
C568 H562 0.930 . S
C568 C569 1.367 . S
C568 C576 1.378 . S
C569 C568 1.367 . S
C569 C577 1.433 . S
C570 H566 0.929 . S
C570 C572 1.378 . S
C570 C574 1.350 . S
C571 C574 1.463 . S
C571 C576 1.350 . S
C571 N579 1.427 . S
C572 H563 0.930 . S
C572 C570 1.378 . S
C572 C573 1.367 . S
C573 C572 1.367 . S
C573 C575 1.433 . S
C574 C570 1.350 . S
C574 C571 1.463 . S
C574 N578 1.427 . S
C575 H565 0.929 . S
C575 C573 1.433 . S
C575 N578 1.384 . S
C576 H567 0.929 . S
C576 C568 1.378 . S
C576 C571 1.350 . S
C577 H564 0.929 . S
C577 C569 1.433 . S
C577 N579 1.384 . S
N578 C574 1.427 . S
N578 C575 1.384 . S
N579 C571 1.427 . S
N579 C577 1.384 . S
H580 C586 0.930 . S
H581 C590 0.930 . S
H582 C595 0.929 . S
H583 C593 0.929 . S
H584 C588 0.929 . S
H585 C594 0.929 . S
C586 H580 0.930 . S
C586 C587 1.367 . S
C586 C594 1.378 . S
C587 C586 1.367 . S
C587 C595 1.433 . S
C588 H584 0.929 . S
C588 C590 1.378 . S
C588 C592 1.350 . S
C589 C592 1.463 . S
C589 C594 1.350 . S
C589 N597 1.427 . S
C590 H581 0.930 . S
C590 C588 1.378 . S
C590 C591 1.367 . S
C591 C590 1.367 . S
C591 C593 1.433 . S
C592 C588 1.350 . S
C592 C589 1.463 . S
C592 N596 1.427 . S
C593 H583 0.929 . S
C593 C591 1.433 . S
C593 N596 1.384 . S
C594 H585 0.929 . S
C594 C586 1.378 . S
C594 C589 1.350 . S
C595 H582 0.929 . S
C595 C587 1.433 . S
C595 N597 1.384 . S
N596 C592 1.427 . S
N596 C593 1.384 . S
N597 C589 1.427 . S
N597 C595 1.384 . S
H598 C604 0.930 . S
H599 C608 0.930 . S
H600 C613 0.929 . S
H601 C611 0.929 . S
H602 C606 0.929 . S
H603 C612 0.929 . S
C604 H598 0.930 . S
C604 C605 1.367 . S
C604 C612 1.378 . S
C605 C604 1.367 . S
C605 C613 1.433 . S
C606 H602 0.929 . S
C606 C608 1.378 . S
C606 C610 1.350 . S
C607 C610 1.463 . S
C607 C612 1.350 . S
C607 N615 1.427 . S
C608 H599 0.930 . S
C608 C606 1.378 . S
C608 C609 1.367 . S
C609 C608 1.367 . S
C609 C611 1.433 . S
C610 C606 1.350 . S
C610 C607 1.463 . S
C610 N614 1.427 . S
C611 H601 0.929 . S
C611 C609 1.433 . S
C611 N614 1.384 . S
C612 H603 0.929 . S
C612 C604 1.378 . S
C612 C607 1.350 . S
C613 H600 0.929 . S
C613 C605 1.433 . S
C613 N615 1.384 . S
N614 C610 1.427 . S
N614 C611 1.384 . S
N615 C607 1.427 . S
N615 C613 1.384 . S
H616 C622 0.930 . S
H617 C626 0.930 . S
H618 C631 0.929 . S
H619 C629 0.929 . S
H620 C624 0.929 . S
H621 C630 0.929 . S
C622 H616 0.930 . S
C622 C623 1.367 . S
C622 C630 1.378 . S
C623 C622 1.367 . S
C623 C631 1.433 . S
C624 H620 0.929 . S
C624 C626 1.378 . S
C624 C628 1.350 . S
C625 C628 1.463 . S
C625 C630 1.350 . S
C625 N633 1.427 . S
C626 H617 0.930 . S
C626 C624 1.378 . S
C626 C627 1.367 . S
C627 C626 1.367 . S
C627 C629 1.433 . S
C628 C624 1.350 . S
C628 C625 1.463 . S
C628 N632 1.427 . S
C629 H619 0.929 . S
C629 C627 1.433 . S
C629 N632 1.384 . S
C630 H621 0.929 . S
C630 C622 1.378 . S
C630 C625 1.350 . S
C631 H618 0.929 . S
C631 C623 1.433 . S
C631 N633 1.384 . S
N632 C628 1.427 . S
N632 C629 1.384 . S
N633 C625 1.427 . S
N633 C631 1.384 . S
H634 C640 0.930 . S
H635 C644 0.930 . S
H636 C649 0.929 . S
H637 C647 0.929 . S
H638 C642 0.929 . S
H639 C648 0.929 . S
C640 H634 0.930 . S
C640 C641 1.367 . S
C640 C648 1.378 . S
C641 C640 1.367 . S
C641 C649 1.433 . S
C642 H638 0.929 . S
C642 C644 1.378 . S
C642 C646 1.350 . S
C643 C646 1.463 . S
C643 C648 1.350 . S
C643 N651 1.427 . S
C644 H635 0.930 . S
C644 C642 1.378 . S
C644 C645 1.367 . S
C645 C644 1.367 . S
C645 C647 1.433 . S
C646 C642 1.350 . S
C646 C643 1.463 . S
C646 N650 1.427 . S
C647 H637 0.929 . S
C647 C645 1.433 . S
C647 N650 1.384 . S
C648 H639 0.929 . S
C648 C640 1.378 . S
C648 C643 1.350 . S
C649 H636 0.929 . S
C649 C641 1.433 . S
C649 N651 1.384 . S
N650 C646 1.427 . S
N650 C647 1.384 . S
N651 C643 1.427 . S
N651 C649 1.384 . S
H652 C658 0.930 . S
H653 C662 0.930 . S
H654 C667 0.929 . S
H655 C665 0.929 . S
H656 C660 0.929 . S
H657 C666 0.929 . S
C658 H652 0.930 . S
C658 C659 1.367 . S
C658 C666 1.378 . S
C659 C658 1.367 . S
C659 C667 1.433 . S
C660 H656 0.929 . S
C660 C662 1.378 . S
C660 C664 1.350 . S
C661 C664 1.463 . S
C661 C666 1.350 . S
C661 N669 1.427 . S
C662 H653 0.930 . S
C662 C660 1.378 . S
C662 C663 1.367 . S
C663 C662 1.367 . S
C663 C665 1.433 . S
C664 C660 1.350 . S
C664 C661 1.463 . S
C664 N668 1.427 . S
C665 H655 0.929 . S
C665 C663 1.433 . S
C665 N668 1.384 . S
C666 H657 0.929 . S
C666 C658 1.378 . S
C666 C661 1.350 . S
C667 H654 0.929 . S
C667 C659 1.433 . S
C667 N669 1.384 . S
N668 C664 1.427 . S
N668 C665 1.384 . S
N669 C661 1.427 . S
N669 C667 1.384 . S
H670 C676 0.930 . S
H671 C680 0.930 . S
H672 C685 0.929 . S
H673 C683 0.929 . S
H674 C678 0.929 . S
H675 C684 0.929 . S
C676 H670 0.930 . S
C676 C677 1.367 . S
C676 C684 1.378 . S
C677 C676 1.367 . S
C677 C685 1.433 . S
C678 H674 0.929 . S
C678 C680 1.378 . S
C678 C682 1.350 . S
C679 C682 1.463 . S
C679 C684 1.350 . S
C679 N687 1.427 . S
C680 H671 0.930 . S
C680 C678 1.378 . S
C680 C681 1.367 . S
C681 C680 1.367 . S
C681 C683 1.433 . S
C682 C678 1.350 . S
C682 C679 1.463 . S
C682 N686 1.427 . S
C683 H673 0.929 . S
C683 C681 1.433 . S
C683 N686 1.384 . S
C684 H675 0.929 . S
C684 C676 1.378 . S
C684 C679 1.350 . S
C685 H672 0.929 . S
C685 C677 1.433 . S
C685 N687 1.384 . S
N686 C682 1.427 . S
N686 C683 1.384 . S
N687 C679 1.427 . S
N687 C685 1.384 . S
H688 C694 0.930 . S
H689 C698 0.930 . S
H690 C703 0.929 . S
H691 C701 0.929 . S
H692 C696 0.929 . S
H693 C702 0.929 . S
C694 H688 0.930 . S
C694 C695 1.367 . S
C694 C702 1.378 . S
C695 C694 1.367 . S
C695 C703 1.433 . S
C696 H692 0.929 . S
C696 C698 1.378 . S
C696 C700 1.350 . S
C697 C700 1.463 1_554 S
C697 C702 1.350 . S
C697 N705 1.427 . S
C698 H689 0.930 . S
C698 C696 1.378 . S
C698 C699 1.367 . S
C699 C698 1.367 . S
C699 C701 1.433 . S
C700 C696 1.350 . S
C700 C697 1.463 1_556 S
C700 N704 1.427 . S
C701 H691 0.929 . S
C701 C699 1.433 . S
C701 N704 1.384 . S
C702 H693 0.929 . S
C702 C694 1.378 . S
C702 C697 1.350 . S
C703 H690 0.929 . S
C703 C695 1.433 . S
C703 N705 1.384 . S
N704 C700 1.427 . S
N704 C701 1.384 . S
N705 C697 1.427 . S
N705 C703 1.384 . S
H706 C712 0.930 . S
H707 C716 0.930 . S
H708 C721 0.929 . S
H709 C719 0.929 . S
H710 C714 0.929 . S
H711 C720 0.929 . S
C712 H706 0.930 . S
C712 C713 1.367 . S
C712 C720 1.378 . S
C713 C712 1.367 . S
C713 C721 1.433 . S
C714 H710 0.929 . S
C714 C716 1.378 . S
C714 C718 1.350 . S
C715 C718 1.463 1_554 S
C715 C720 1.350 . S
C715 N723 1.427 . S
C716 H707 0.930 . S
C716 C714 1.378 . S
C716 C717 1.367 . S
C717 C716 1.367 . S
C717 C719 1.433 . S
C718 C714 1.350 . S
C718 C715 1.463 1_556 S
C718 N722 1.427 . S
C719 H709 0.929 . S
C719 C717 1.433 . S
C719 N722 1.384 . S
C720 H711 0.929 . S
C720 C712 1.378 . S
C720 C715 1.350 . S
C721 H708 0.929 . S
C721 C713 1.433 . S
C721 N723 1.384 . S
N722 C718 1.427 . S
N722 C719 1.384 . S
N723 C715 1.427 . S
N723 C721 1.384 . S
H724 C730 0.930 . S
H725 C734 0.930 . S
H726 C739 0.929 . S
H727 C737 0.929 . S
H728 C732 0.929 . S
H729 C738 0.929 . S
C730 H724 0.930 . S
C730 C731 1.367 . S
C730 C738 1.378 . S
C731 C730 1.367 . S
C731 C739 1.433 . S
C732 H728 0.929 . S
C732 C734 1.378 . S
C732 C736 1.350 . S
C733 C736 1.463 1_554 S
C733 C738 1.350 . S
C733 N741 1.427 . S
C734 H725 0.930 . S
C734 C732 1.378 . S
C734 C735 1.367 . S
C735 C734 1.367 . S
C735 C737 1.433 . S
C736 C732 1.350 . S
C736 C733 1.463 1_556 S
C736 N740 1.427 . S
C737 H727 0.929 . S
C737 C735 1.433 . S
C737 N740 1.384 . S
C738 H729 0.929 . S
C738 C730 1.378 . S
C738 C733 1.350 . S
C739 H726 0.929 . S
C739 C731 1.433 . S
C739 N741 1.384 . S
N740 C736 1.427 . S
N740 C737 1.384 . S
N741 C733 1.427 . S
N741 C739 1.384 . S
H742 C748 0.930 . S
H743 C752 0.930 . S
H744 C757 0.929 . S
H745 C755 0.929 . S
H746 C750 0.929 . S
H747 C756 0.929 . S
C748 H742 0.930 . S
C748 C749 1.367 . S
C748 C756 1.378 . S
C749 C748 1.367 . S
C749 C757 1.433 . S
C750 H746 0.929 . S
C750 C752 1.378 . S
C750 C754 1.350 . S
C751 C754 1.463 1_554 S
C751 C756 1.350 . S
C751 N759 1.427 . S
C752 H743 0.930 . S
C752 C750 1.378 . S
C752 C753 1.367 . S
C753 C752 1.367 . S
C753 C755 1.433 . S
C754 C750 1.350 . S
C754 C751 1.463 1_556 S
C754 N758 1.427 . S
C755 H745 0.929 . S
C755 C753 1.433 . S
C755 N758 1.384 . S
C756 H747 0.929 . S
C756 C748 1.378 . S
C756 C751 1.350 . S
C757 H744 0.929 . S
C757 C749 1.433 . S
C757 N759 1.384 . S
N758 C754 1.427 . S
N758 C755 1.384 . S
N759 C751 1.427 . S
N759 C757 1.384 . S
H760 C766 0.930 . S
H761 C770 0.930 . S
H762 C775 0.929 . S
H763 C773 0.929 . S
H764 C768 0.929 . S
H765 C774 0.929 . S
C766 H760 0.930 . S
C766 C767 1.367 . S
C766 C774 1.378 . S
C767 C766 1.367 . S
C767 C775 1.433 . S
C768 H764 0.929 . S
C768 C770 1.378 . S
C768 C772 1.350 . S
C769 C772 1.463 1_554 S
C769 C774 1.350 . S
C769 N777 1.427 . S
C770 H761 0.930 . S
C770 C768 1.378 . S
C770 C771 1.367 . S
C771 C770 1.367 . S
C771 C773 1.433 . S
C772 C768 1.350 . S
C772 C769 1.463 1_556 S
C772 N776 1.427 . S
C773 H763 0.929 . S
C773 C771 1.433 . S
C773 N776 1.384 . S
C774 H765 0.929 . S
C774 C766 1.378 . S
C774 C769 1.350 . S
C775 H762 0.929 . S
C775 C767 1.433 . S
C775 N777 1.384 . S
N776 C772 1.427 . S
N776 C773 1.384 . S
N777 C769 1.427 . S
N777 C775 1.384 . S
H778 C784 0.930 . S
H779 C788 0.930 . S
H780 C793 0.929 . S
H781 C791 0.929 . S
H782 C786 0.929 . S
H783 C792 0.929 . S
C784 H778 0.930 . S
C784 C785 1.367 . S
C784 C792 1.378 . S
C785 C784 1.367 . S
C785 C793 1.433 . S
C786 H782 0.929 . S
C786 C788 1.378 . S
C786 C790 1.350 . S
C787 C790 1.463 1_554 S
C787 C792 1.350 . S
C787 N795 1.427 . S
C788 H779 0.930 . S
C788 C786 1.378 . S
C788 C789 1.367 . S
C789 C788 1.367 . S
C789 C791 1.433 . S
C790 C786 1.350 . S
C790 C787 1.463 1_556 S
C790 N794 1.427 . S
C791 H781 0.929 . S
C791 C789 1.433 . S
C791 N794 1.384 . S
C792 H783 0.929 . S
C792 C784 1.378 . S
C792 C787 1.350 . S
C793 H780 0.929 . S
C793 C785 1.433 . S
C793 N795 1.384 . S
N794 C790 1.427 . S
N794 C791 1.384 . S
N795 C787 1.427 . S
N795 C793 1.384 . S
H796 C802 0.930 . S
H797 C806 0.930 . S
H798 C811 0.929 . S
H799 C809 0.929 . S
H800 C804 0.929 . S
H801 C810 0.929 . S
C802 H796 0.930 . S
C802 C803 1.367 . S
C802 C810 1.378 . S
C803 C802 1.367 . S
C803 C811 1.433 . S
C804 H800 0.929 . S
C804 C806 1.378 . S
C804 C808 1.350 . S
C805 C808 1.463 1_554 S
C805 C810 1.350 . S
C805 N813 1.427 . S
C806 H797 0.930 . S
C806 C804 1.378 . S
C806 C807 1.367 . S
C807 C806 1.367 . S
C807 C809 1.433 . S
C808 C804 1.350 . S
C808 C805 1.463 1_556 S
C808 N812 1.427 . S
C809 H799 0.929 . S
C809 C807 1.433 . S
C809 N812 1.384 . S
C810 H801 0.929 . S
C810 C802 1.378 . S
C810 C805 1.350 . S
C811 H798 0.929 . S
C811 C803 1.433 . S
C811 N813 1.384 . S
N812 C808 1.427 . S
N812 C809 1.384 . S
N813 C805 1.427 . S
N813 C811 1.384 . S
H814 C820 0.930 . S
H815 C824 0.930 . S
H816 C829 0.929 . S
H817 C827 0.929 . S
H818 C822 0.929 . S
H819 C828 0.929 . S
C820 H814 0.930 . S
C820 C821 1.367 . S
C820 C828 1.378 . S
C821 C820 1.367 . S
C821 C829 1.433 . S
C822 H818 0.929 . S
C822 C824 1.378 . S
C822 C826 1.350 . S
C823 C826 1.463 1_554 S
C823 C828 1.350 . S
C823 N831 1.427 . S
C824 H815 0.930 . S
C824 C822 1.378 . S
C824 C825 1.367 . S
C825 C824 1.367 . S
C825 C827 1.433 . S
C826 C822 1.350 . S
C826 C823 1.463 1_556 S
C826 N830 1.427 . S
C827 H817 0.929 . S
C827 C825 1.433 . S
C827 N830 1.384 . S
C828 H819 0.929 . S
C828 C820 1.378 . S
C828 C823 1.350 . S
C829 H816 0.929 . S
C829 C821 1.433 . S
C829 N831 1.384 . S
N830 C826 1.427 . S
N830 C827 1.384 . S
N831 C823 1.427 . S
N831 C829 1.384 . S
H832 C838 0.930 . S
H833 C842 0.930 . S
H834 C847 0.929 . S
H835 C845 0.929 . S
H836 C840 0.929 . S
H837 C846 0.929 . S
C838 H832 0.930 . S
C838 C839 1.367 . S
C838 C846 1.378 . S
C839 C838 1.367 . S
C839 C847 1.433 . S
C840 H836 0.929 . S
C840 C842 1.378 . S
C840 C844 1.350 . S
C841 C844 1.463 . S
C841 C846 1.350 . S
C841 N849 1.427 . S
C842 H833 0.930 . S
C842 C840 1.378 . S
C842 C843 1.367 . S
C843 C842 1.367 . S
C843 C845 1.433 . S
C844 C840 1.350 . S
C844 C841 1.463 . S
C844 N848 1.427 . S
C845 H835 0.929 . S
C845 C843 1.433 . S
C845 N848 1.384 . S
C846 H837 0.929 . S
C846 C838 1.378 . S
C846 C841 1.350 . S
C847 H834 0.929 . S
C847 C839 1.433 . S
C847 N849 1.384 . S
N848 C844 1.427 . S
N848 C845 1.384 . S
N849 C841 1.427 . S
N849 C847 1.384 . S
H850 C856 0.930 . S
H851 C860 0.930 . S
H852 C865 0.929 . S
H853 C863 0.929 . S
H854 C858 0.929 . S
H855 C864 0.929 . S
C856 H850 0.930 . S
C856 C857 1.367 . S
C856 C864 1.378 . S
C857 C856 1.367 . S
C857 C865 1.433 . S
C858 H854 0.929 . S
C858 C860 1.378 . S
C858 C862 1.350 . S
C859 C862 1.463 . S
C859 C864 1.350 . S
C859 N867 1.427 . S
C860 H851 0.930 . S
C860 C858 1.378 . S
C860 C861 1.367 . S
C861 C860 1.367 . S
C861 C863 1.433 . S
C862 C858 1.350 . S
C862 C859 1.463 . S
C862 N866 1.427 . S
C863 H853 0.929 . S
C863 C861 1.433 . S
C863 N866 1.384 . S
C864 H855 0.929 . S
C864 C856 1.378 . S
C864 C859 1.350 . S
C865 H852 0.929 . S
C865 C857 1.433 . S
C865 N867 1.384 . S
N866 C862 1.427 . S
N866 C863 1.384 . S
N867 C859 1.427 . S
N867 C865 1.384 . S
H868 C874 0.930 . S
H869 C878 0.930 . S
H870 C883 0.929 . S
H871 C881 0.929 . S
H872 C876 0.929 . S
H873 C882 0.929 . S
C874 H868 0.930 . S
C874 C875 1.367 . S
C874 C882 1.378 . S
C875 C874 1.367 . S
C875 C883 1.433 . S
C876 H872 0.929 . S
C876 C878 1.378 . S
C876 C880 1.350 . S
C877 C880 1.463 . S
C877 C882 1.350 . S
C877 N885 1.427 . S
C878 H869 0.930 . S
C878 C876 1.378 . S
C878 C879 1.367 . S
C879 C878 1.367 . S
C879 C881 1.433 . S
C880 C876 1.350 . S
C880 C877 1.463 . S
C880 N884 1.427 . S
C881 H871 0.929 . S
C881 C879 1.433 . S
C881 N884 1.384 . S
C882 H873 0.929 . S
C882 C874 1.378 . S
C882 C877 1.350 . S
C883 H870 0.929 . S
C883 C875 1.433 . S
C883 N885 1.384 . S
N884 C880 1.427 . S
N884 C881 1.384 . S
N885 C877 1.427 . S
N885 C883 1.384 . S
H886 C892 0.930 . S
H887 C896 0.930 . S
H888 C901 0.929 . S
H889 C899 0.929 . S
H890 C894 0.929 . S
H891 C900 0.929 . S
C892 H886 0.930 . S
C892 C893 1.367 . S
C892 C900 1.378 . S
C893 C892 1.367 . S
C893 C901 1.433 . S
C894 H890 0.929 . S
C894 C896 1.378 . S
C894 C898 1.350 . S
C895 C898 1.463 . S
C895 C900 1.350 . S
C895 N903 1.427 . S
C896 H887 0.930 . S
C896 C894 1.378 . S
C896 C897 1.367 . S
C897 C896 1.367 . S
C897 C899 1.433 . S
C898 C894 1.350 . S
C898 C895 1.463 . S
C898 N902 1.427 . S
C899 H889 0.929 . S
C899 C897 1.433 . S
C899 N902 1.384 . S
C900 H891 0.929 . S
C900 C892 1.378 . S
C900 C895 1.350 . S
C901 H888 0.929 . S
C901 C893 1.433 . S
C901 N903 1.384 . S
N902 C898 1.427 . S
N902 C899 1.384 . S
N903 C895 1.427 . S
N903 C901 1.384 . S
H904 C910 0.930 . S
H905 C914 0.930 . S
H906 C919 0.929 . S
H907 C917 0.929 . S
H908 C912 0.929 . S
H909 C918 0.929 . S
C910 H904 0.930 . S
C910 C911 1.367 . S
C910 C918 1.378 . S
C911 C910 1.367 . S
C911 C919 1.433 . S
C912 H908 0.929 . S
C912 C914 1.378 . S
C912 C916 1.350 . S
C913 C916 1.463 . S
C913 C918 1.350 . S
C913 N921 1.427 . S
C914 H905 0.930 . S
C914 C912 1.378 . S
C914 C915 1.367 . S
C915 C914 1.367 . S
C915 C917 1.433 . S
C916 C912 1.350 . S
C916 C913 1.463 . S
C916 N920 1.427 . S
C917 H907 0.929 . S
C917 C915 1.433 . S
C917 N920 1.384 . S
C918 H909 0.929 . S
C918 C910 1.378 . S
C918 C913 1.350 . S
C919 H906 0.929 . S
C919 C911 1.433 . S
C919 N921 1.384 . S
N920 C916 1.427 . S
N920 C917 1.384 . S
N921 C913 1.427 . S
N921 C919 1.384 . S
H922 C928 0.930 . S
H923 C932 0.930 . S
H924 C937 0.929 . S
H925 C935 0.929 . S
H926 C930 0.929 . S
H927 C936 0.929 . S
C928 H922 0.930 . S
C928 C929 1.367 . S
C928 C936 1.378 . S
C929 C928 1.367 . S
C929 C937 1.433 . S
C930 H926 0.929 . S
C930 C932 1.378 . S
C930 C934 1.350 . S
C931 C934 1.463 . S
C931 C936 1.350 . S
C931 N939 1.427 . S
C932 H923 0.930 . S
C932 C930 1.378 . S
C932 C933 1.367 . S
C933 C932 1.367 . S
C933 C935 1.433 . S
C934 C930 1.350 . S
C934 C931 1.463 . S
C934 N938 1.427 . S
C935 H925 0.929 . S
C935 C933 1.433 . S
C935 N938 1.384 . S
C936 H927 0.929 . S
C936 C928 1.378 . S
C936 C931 1.350 . S
C937 H924 0.929 . S
C937 C929 1.433 . S
C937 N939 1.384 . S
N938 C934 1.427 . S
N938 C935 1.384 . S
N939 C931 1.427 . S
N939 C937 1.384 . S
H940 C946 0.930 . S
H941 C950 0.930 . S
H942 C955 0.929 . S
H943 C953 0.929 . S
H944 C948 0.929 . S
H945 C954 0.929 . S
C946 H940 0.930 . S
C946 C947 1.367 . S
C946 C954 1.378 . S
C947 C946 1.367 . S
C947 C955 1.433 . S
C948 H944 0.929 . S
C948 C950 1.378 . S
C948 C952 1.350 . S
C949 C952 1.463 . S
C949 C954 1.350 . S
C949 N957 1.427 . S
C950 H941 0.930 . S
C950 C948 1.378 . S
C950 C951 1.367 . S
C951 C950 1.367 . S
C951 C953 1.433 . S
C952 C948 1.350 . S
C952 C949 1.463 . S
C952 N956 1.427 . S
C953 H943 0.929 . S
C953 C951 1.433 . S
C953 N956 1.384 . S
C954 H945 0.929 . S
C954 C946 1.378 . S
C954 C949 1.350 . S
C955 H942 0.929 . S
C955 C947 1.433 . S
C955 N957 1.384 . S
N956 C952 1.427 . S
N956 C953 1.384 . S
N957 C949 1.427 . S
N957 C955 1.384 . S
H958 C964 0.930 . S
H959 C968 0.930 . S
H960 C973 0.929 . S
H961 C971 0.929 . S
H962 C966 0.929 . S
H963 C972 0.929 . S
C964 H958 0.930 . S
C964 C965 1.367 . S
C964 C972 1.378 . S
C965 C964 1.367 . S
C965 C973 1.433 . S
C966 H962 0.929 . S
C966 C968 1.378 . S
C966 C970 1.350 . S
C967 C970 1.463 . S
C967 C972 1.350 . S
C967 N975 1.427 . S
C968 H959 0.930 . S
C968 C966 1.378 . S
C968 C969 1.367 . S
C969 C968 1.367 . S
C969 C971 1.433 . S
C970 C966 1.350 . S
C970 C967 1.463 . S
C970 N974 1.427 . S
C971 H961 0.929 . S
C971 C969 1.433 . S
C971 N974 1.384 . S
C972 H963 0.929 . S
C972 C964 1.378 . S
C972 C967 1.350 . S
C973 H960 0.929 . S
C973 C965 1.433 . S
C973 N975 1.384 . S
N974 C970 1.427 . S
N974 C971 1.384 . S
N975 C967 1.427 . S
N975 C973 1.384 . S
H976 C982 0.930 . S
H977 C986 0.930 . S
H978 C991 0.929 1_556 S
H979 C989 0.929 1_554 S
H980 C984 0.929 . S
H981 C990 0.929 . S
C982 H976 0.930 . S
C982 C983 1.367 . S
C982 C990 1.378 . S
C983 C982 1.367 . S
C983 C991 1.433 . S
C984 H980 0.929 . S
C984 C986 1.378 . S
C984 C988 1.350 . S
C985 C988 1.463 1_544 S
C985 C990 1.350 . S
C985 N993 1.427 1_554 S
C986 H977 0.930 . S
C986 C984 1.378 . S
C986 C987 1.367 . S
C987 C986 1.367 . S
C987 C989 1.433 . S
C988 C984 1.350 . S
C988 C985 1.463 1_566 S
C988 N992 1.427 1_556 S
C989 H979 0.929 1_556 S
C989 C987 1.433 . S
C989 N992 1.384 1_556 S
C990 H981 0.929 . S
C990 C982 1.378 . S
C990 C985 1.350 . S
C991 H978 0.929 1_554 S
C991 C983 1.433 . S
C991 N993 1.384 1_554 S
N992 C988 1.427 1_554 S
N992 C989 1.384 1_554 S
N993 C985 1.427 1_556 S
N993 C991 1.384 1_556 S
H994 C1000 0.930 . S
H995 C1004 0.930 . S
H996 C1009 0.929 . S
H997 C1007 0.929 . S
H998 C1002 0.929 1_556 S
H999 C1008 0.929 1_554 S
C1000 H994 0.930 . S
C1000 C1001 1.367 . S
C1000 C1008 1.378 . S
C1001 C1000 1.367 . S
C1001 C1009 1.433 . S
C1002 H998 0.929 1_554 S
C1002 C1004 1.378 . S
C1002 C1006 1.350 . S
C1003 C1006 1.463 1_456 S
C1003 C1008 1.350 . S
C1003 N1011 1.427 . S
C1004 H995 0.930 . S
C1004 C1002 1.378 . S
C1004 C1005 1.367 . S
C1005 C1004 1.367 . S
C1005 C1007 1.433 . S
C1006 C1002 1.350 . S
C1006 C1003 1.463 1_654 S
C1006 N1010 1.427 . S
C1007 H997 0.929 . S
C1007 C1005 1.433 . S
C1007 N1010 1.384 . S
C1008 H999 0.929 1_556 S
C1008 C1000 1.378 . S
C1008 C1003 1.350 . S
C1009 H996 0.929 . S
C1009 C1001 1.433 . S
C1009 N1011 1.384 . S
N1010 C1006 1.427 . S
N1010 C1007 1.384 . S
N1011 C1003 1.427 . S
N1011 C1009 1.384 . S
H1012 C1018 0.930 . S
H1013 C1022 0.930 . S
H1014 C1027 0.929 . S
H1015 C1025 0.929 . S
H1016 C1020 0.929 . S
H1017 C1026 0.929 . S
C1018 H1012 0.930 . S
C1018 C1019 1.367 . S
C1018 C1026 1.378 . S
C1019 C1018 1.367 . S
C1019 C1027 1.433 1_554 S
C1020 H1016 0.929 . S
C1020 C1022 1.378 . S
C1020 C1024 1.350 . S
C1021 C1024 1.463 1_564 S
C1021 C1026 1.350 . S
C1021 N1029 1.427 1_554 S
C1022 H1013 0.930 . S
C1022 C1020 1.378 . S
C1022 C1023 1.367 . S
C1023 C1022 1.367 . S
C1023 C1025 1.433 1_556 S
C1024 C1020 1.350 . S
C1024 C1021 1.463 1_546 S
C1024 N1028 1.427 1_556 S
C1025 H1015 0.929 . S
C1025 C1023 1.433 1_554 S
C1025 N1028 1.384 . S
C1026 H1017 0.929 . S
C1026 C1018 1.378 . S
C1026 C1021 1.350 . S
C1027 H1014 0.929 . S
C1027 C1019 1.433 1_556 S
C1027 N1029 1.384 . S
N1028 C1024 1.427 1_554 S
N1028 C1025 1.384 . S
N1029 C1021 1.427 1_556 S
N1029 C1027 1.384 . S
H1030 C1036 0.930 . S
H1031 C1040 0.930 . S
H1032 C1045 0.929 . S
H1033 C1043 0.929 . S
H1034 C1038 0.929 . S
H1035 C1044 0.929 . S
C1036 H1030 0.930 . S
C1036 C1037 1.367 . S
C1036 C1044 1.378 . S
C1037 C1036 1.367 . S
C1037 C1045 1.433 1_556 S
C1038 H1034 0.929 . S
C1038 C1040 1.378 . S
C1038 C1042 1.350 . S
C1039 C1042 1.463 1_656 S
C1039 C1044 1.350 . S
C1039 N1047 1.427 1_556 S
C1040 H1031 0.930 . S
C1040 C1038 1.378 . S
C1040 C1041 1.367 . S
C1041 C1040 1.367 . S
C1041 C1043 1.433 1_554 S
C1042 C1038 1.350 . S
C1042 C1039 1.463 1_454 S
C1042 N1046 1.427 1_554 S
C1043 H1033 0.929 . S
C1043 C1041 1.433 1_556 S
C1043 N1046 1.384 . S
C1044 H1035 0.929 . S
C1044 C1036 1.378 . S
C1044 C1039 1.350 . S
C1045 H1032 0.929 . S
C1045 C1037 1.433 1_554 S
C1045 N1047 1.384 . S
N1046 C1042 1.427 1_556 S
N1046 C1043 1.384 . S
N1047 C1039 1.427 1_554 S
N1047 C1045 1.384 . S
H1048 C1054 0.930 . S
H1049 C1058 0.930 . S
H1050 C1063 0.929 . S
H1051 C1061 0.929 . S
H1052 C1056 0.929 . S
H1053 C1062 0.929 . S
C1054 H1048 0.930 . S
C1054 C1055 1.367 . S
C1054 C1062 1.378 . S
C1055 C1054 1.367 . S
C1055 C1063 1.433 . S
C1056 H1052 0.929 . S
C1056 C1058 1.378 . S
C1056 C1060 1.350 . S
C1057 C1060 1.463 . S
C1057 C1062 1.350 . S
C1057 N1065 1.427 . S
C1058 H1049 0.930 . S
C1058 C1056 1.378 . S
C1058 C1059 1.367 . S
C1059 C1058 1.367 . S
C1059 C1061 1.433 . S
C1060 C1056 1.350 . S
C1060 C1057 1.463 . S
C1060 N1064 1.427 . S
C1061 H1051 0.929 . S
C1061 C1059 1.433 . S
C1061 N1064 1.384 . S
C1062 H1053 0.929 . S
C1062 C1054 1.378 . S
C1062 C1057 1.350 . S
C1063 H1050 0.929 . S
C1063 C1055 1.433 . S
C1063 N1065 1.384 . S
N1064 C1060 1.427 . S
N1064 C1061 1.384 . S
N1065 C1057 1.427 . S
N1065 C1063 1.384 . S
H1066 C1072 0.930 . S
H1067 C1076 0.930 . S
H1068 C1081 0.929 . S
H1069 C1079 0.929 . S
H1070 C1074 0.929 . S
H1071 C1080 0.929 . S
C1072 H1066 0.930 . S
C1072 C1073 1.367 . S
C1072 C1080 1.378 . S
C1073 C1072 1.367 . S
C1073 C1081 1.433 . S
C1074 H1070 0.929 . S
C1074 C1076 1.378 . S
C1074 C1078 1.350 . S
C1075 C1078 1.463 . S
C1075 C1080 1.350 . S
C1075 N1083 1.427 . S
C1076 H1067 0.930 . S
C1076 C1074 1.378 . S
C1076 C1077 1.367 . S
C1077 C1076 1.367 . S
C1077 C1079 1.433 . S
C1078 C1074 1.350 . S
C1078 C1075 1.463 . S
C1078 N1082 1.427 . S
C1079 H1069 0.929 . S
C1079 C1077 1.433 . S
C1079 N1082 1.384 . S
C1080 H1071 0.929 . S
C1080 C1072 1.378 . S
C1080 C1075 1.350 . S
C1081 H1068 0.929 . S
C1081 C1073 1.433 . S
C1081 N1083 1.384 . S
N1082 C1078 1.427 . S
N1082 C1079 1.384 . S
N1083 C1075 1.427 . S
N1083 C1081 1.384 . S
H1084 C1090 0.930 . S
H1085 C1094 0.930 . S
H1086 C1099 0.929 . S
H1087 C1097 0.929 . S
H1088 C1092 0.929 . S
H1089 C1098 0.929 . S
C1090 H1084 0.930 . S
C1090 C1091 1.367 . S
C1090 C1098 1.378 . S
C1091 C1090 1.367 . S
C1091 C1099 1.433 . S
C1092 H1088 0.929 . S
C1092 C1094 1.378 . S
C1092 C1096 1.350 . S
C1093 C1096 1.463 . S
C1093 C1098 1.350 . S
C1093 N1101 1.427 . S
C1094 H1085 0.930 . S
C1094 C1092 1.378 . S
C1094 C1095 1.367 . S
C1095 C1094 1.367 . S
C1095 C1097 1.433 . S
C1096 C1092 1.350 . S
C1096 C1093 1.463 . S
C1096 N1100 1.427 . S
C1097 H1087 0.929 . S
C1097 C1095 1.433 . S
C1097 N1100 1.384 . S
C1098 H1089 0.929 . S
C1098 C1090 1.378 . S
C1098 C1093 1.350 . S
C1099 H1086 0.929 . S
C1099 C1091 1.433 . S
C1099 N1101 1.384 . S
N1100 C1096 1.427 . S
N1100 C1097 1.384 . S
N1101 C1093 1.427 . S
N1101 C1099 1.384 . S
H1102 C1108 0.930 . S
H1103 C1112 0.930 . S
H1104 C1117 0.929 . S
H1105 C1115 0.929 . S
H1106 C1110 0.929 . S
H1107 C1116 0.929 . S
C1108 H1102 0.930 . S
C1108 C1109 1.367 . S
C1108 C1116 1.378 . S
C1109 C1108 1.367 . S
C1109 C1117 1.433 . S
C1110 H1106 0.929 . S
C1110 C1112 1.378 . S
C1110 C1114 1.350 . S
C1111 C1114 1.463 . S
C1111 C1116 1.350 . S
C1111 N1119 1.427 . S
C1112 H1103 0.930 . S
C1112 C1110 1.378 . S
C1112 C1113 1.367 . S
C1113 C1112 1.367 . S
C1113 C1115 1.433 . S
C1114 C1110 1.350 . S
C1114 C1111 1.463 . S
C1114 N1118 1.427 . S
C1115 H1105 0.929 . S
C1115 C1113 1.433 . S
C1115 N1118 1.384 . S
C1116 H1107 0.929 . S
C1116 C1108 1.378 . S
C1116 C1111 1.350 . S
C1117 H1104 0.929 . S
C1117 C1109 1.433 . S
C1117 N1119 1.384 . S
N1118 C1114 1.427 . S
N1118 C1115 1.384 . S
N1119 C1111 1.427 . S
N1119 C1117 1.384 . S
H1120 C1126 0.930 . S
H1121 C1130 0.930 . S
H1122 C1135 0.929 . S
H1123 C1133 0.929 . S
H1124 C1128 0.929 . S
H1125 C1134 0.929 . S
C1126 H1120 0.930 . S
C1126 C1127 1.367 1_556 S
C1126 C1134 1.378 . S
C1127 C1126 1.367 1_554 S
C1127 C1135 1.433 . S
C1128 H1124 0.929 . S
C1128 C1130 1.378 . S
C1128 C1132 1.350 1_554 S
C1129 C1132 1.463 1_554 S
C1129 C1134 1.350 1_554 S
C1129 N1137 1.427 . S
C1130 H1121 0.930 . S
C1130 C1128 1.378 . S
C1130 C1131 1.367 1_554 S
C1131 C1130 1.367 1_556 S
C1131 C1133 1.433 . S
C1132 C1128 1.350 1_556 S
C1132 C1129 1.463 1_556 S
C1132 N1136 1.427 . S
C1133 H1123 0.929 . S
C1133 C1131 1.433 . S
C1133 N1136 1.384 . S
C1134 H1125 0.929 . S
C1134 C1126 1.378 . S
C1134 C1129 1.350 1_556 S
C1135 H1122 0.929 . S
C1135 C1127 1.433 . S
C1135 N1137 1.384 . S
N1136 C1132 1.427 . S
N1136 C1133 1.384 . S
N1137 C1129 1.427 . S
N1137 C1135 1.384 . S
H1138 C1144 0.930 . S
H1139 C1148 0.930 . S
H1140 C1153 0.929 . S
H1141 C1151 0.929 . S
H1142 C1146 0.929 . S
H1143 C1152 0.929 . S
C1144 H1138 0.930 . S
C1144 C1145 1.367 . S
C1144 C1152 1.378 . S
C1145 C1144 1.367 . S
C1145 C1153 1.433 . S
C1146 H1142 0.929 . S
C1146 C1148 1.378 . S
C1146 C1150 1.350 . S
C1147 C1150 1.463 1_554 S
C1147 C1152 1.350 . S
C1147 N1155 1.427 . S
C1148 H1139 0.930 . S
C1148 C1146 1.378 . S
C1148 C1149 1.367 . S
C1149 C1148 1.367 . S
C1149 C1151 1.433 . S
C1150 C1146 1.350 . S
C1150 C1147 1.463 1_556 S
C1150 N1154 1.427 . S
C1151 H1141 0.929 . S
C1151 C1149 1.433 . S
C1151 N1154 1.384 . S
C1152 H1143 0.929 . S
C1152 C1144 1.378 . S
C1152 C1147 1.350 . S
C1153 H1140 0.929 . S
C1153 C1145 1.433 . S
C1153 N1155 1.384 . S
N1154 C1150 1.427 . S
N1154 C1151 1.384 . S
N1155 C1147 1.427 . S
N1155 C1153 1.384 . S
H1156 C1162 0.930 . S
H1157 C1166 0.930 . S
H1158 C1171 0.929 . S
H1159 C1169 0.929 . S
H1160 C1164 0.929 . S
H1161 C1170 0.929 . S
C1162 H1156 0.930 . S
C1162 C1163 1.367 . S
C1162 C1170 1.378 . S
C1163 C1162 1.367 . S
C1163 C1171 1.433 1_556 S
C1164 H1160 0.929 . S
C1164 C1166 1.378 . S
C1164 C1168 1.350 . S
C1165 C1168 1.463 1_556 S
C1165 C1170 1.350 . S
C1165 N1173 1.427 1_556 S
C1166 H1157 0.930 . S
C1166 C1164 1.378 . S
C1166 C1167 1.367 . S
C1167 C1166 1.367 . S
C1167 C1169 1.433 1_554 S
C1168 C1164 1.350 . S
C1168 C1165 1.463 1_554 S
C1168 N1172 1.427 1_554 S
C1169 H1159 0.929 . S
C1169 C1167 1.433 1_556 S
C1169 N1172 1.384 . S
C1170 H1161 0.929 . S
C1170 C1162 1.378 . S
C1170 C1165 1.350 . S
C1171 H1158 0.929 . S
C1171 C1163 1.433 1_554 S
C1171 N1173 1.384 . S
N1172 C1168 1.427 1_556 S
N1172 C1169 1.384 . S
N1173 C1165 1.427 1_554 S
N1173 C1171 1.384 . S
H1174 C1180 0.930 . S
H1175 C1184 0.930 . S
H1176 C1189 0.929 . S
H1177 C1187 0.929 . S
H1178 C1182 0.929 . S
H1179 C1188 0.929 . S
C1180 H1174 0.930 . S
C1180 C1181 1.367 1_556 S
C1180 C1188 1.378 . S
C1181 C1180 1.367 1_554 S
C1181 C1189 1.433 . S
C1182 H1178 0.929 . S
C1182 C1184 1.378 . S
C1182 C1186 1.350 1_554 S
C1183 C1186 1.463 1_554 S
C1183 C1188 1.350 1_554 S
C1183 N1191 1.427 . S
C1184 H1175 0.930 . S
C1184 C1182 1.378 . S
C1184 C1185 1.367 1_554 S
C1185 C1184 1.367 1_556 S
C1185 C1187 1.433 . S
C1186 C1182 1.350 1_556 S
C1186 C1183 1.463 1_556 S
C1186 N1190 1.427 . S
C1187 H1177 0.929 . S
C1187 C1185 1.433 . S
C1187 N1190 1.384 . S
C1188 H1179 0.929 . S
C1188 C1180 1.378 . S
C1188 C1183 1.350 1_556 S
C1189 H1176 0.929 . S
C1189 C1181 1.433 . S
C1189 N1191 1.384 . S
N1190 C1186 1.427 . S
N1190 C1187 1.384 . S
N1191 C1183 1.427 . S
N1191 C1189 1.384 . S
H1192 C1198 0.930 . S
H1193 C1202 0.930 . S
H1194 C1207 0.929 . S
H1195 C1205 0.929 . S
H1196 C1200 0.929 . S
H1197 C1206 0.929 . S
C1198 H1192 0.930 . S
C1198 C1199 1.367 . S
C1198 C1206 1.378 . S
C1199 C1198 1.367 . S
C1199 C1207 1.433 . S
C1200 H1196 0.929 . S
C1200 C1202 1.378 . S
C1200 C1204 1.350 . S
C1201 C1204 1.463 . S
C1201 C1206 1.350 . S
C1201 N1209 1.427 . S
C1202 H1193 0.930 . S
C1202 C1200 1.378 . S
C1202 C1203 1.367 . S
C1203 C1202 1.367 . S
C1203 C1205 1.433 . S
C1204 C1200 1.350 . S
C1204 C1201 1.463 . S
C1204 N1208 1.427 . S
C1205 H1195 0.929 . S
C1205 C1203 1.433 . S
C1205 N1208 1.384 . S
C1206 H1197 0.929 . S
C1206 C1198 1.378 . S
C1206 C1201 1.350 . S
C1207 H1194 0.929 . S
C1207 C1199 1.433 . S
C1207 N1209 1.384 . S
N1208 C1204 1.427 . S
N1208 C1205 1.384 . S
N1209 C1201 1.427 . S
N1209 C1207 1.384 . S
H1210 C1216 0.930 . S
H1211 C1220 0.930 . S
H1212 C1225 0.929 . S
H1213 C1223 0.929 . S
H1214 C1218 0.929 . S
H1215 C1224 0.929 . S
C1216 H1210 0.930 . S
C1216 C1217 1.367 . S
C1216 C1224 1.378 . S
C1217 C1216 1.367 . S
C1217 C1225 1.433 . S
C1218 H1214 0.929 . S
C1218 C1220 1.378 . S
C1218 C1222 1.350 . S
C1219 C1222 1.463 . S
C1219 C1224 1.350 . S
C1219 N1227 1.427 . S
C1220 H1211 0.930 . S
C1220 C1218 1.378 . S
C1220 C1221 1.367 . S
C1221 C1220 1.367 . S
C1221 C1223 1.433 . S
C1222 C1218 1.350 . S
C1222 C1219 1.463 . S
C1222 N1226 1.427 . S
C1223 H1213 0.929 . S
C1223 C1221 1.433 . S
C1223 N1226 1.384 . S
C1224 H1215 0.929 . S
C1224 C1216 1.378 . S
C1224 C1219 1.350 . S
C1225 H1212 0.929 . S
C1225 C1217 1.433 . S
C1225 N1227 1.384 . S
N1226 C1222 1.427 . S
N1226 C1223 1.384 . S
N1227 C1219 1.427 . S
N1227 C1225 1.384 . S
H1228 C1234 0.930 . S
H1229 C1238 0.930 . S
H1230 C1243 0.929 . S
H1231 C1241 0.929 . S
H1232 C1236 0.929 . S
H1233 C1242 0.929 . S
C1234 H1228 0.930 . S
C1234 C1235 1.367 . S
C1234 C1242 1.378 . S
C1235 C1234 1.367 . S
C1235 C1243 1.433 . S
C1236 H1232 0.929 . S
C1236 C1238 1.378 . S
C1236 C1240 1.350 . S
C1237 C1240 1.463 . S
C1237 C1242 1.350 . S
C1237 N1245 1.427 . S
C1238 H1229 0.930 . S
C1238 C1236 1.378 . S
C1238 C1239 1.367 . S
C1239 C1238 1.367 . S
C1239 C1241 1.433 . S
C1240 C1236 1.350 . S
C1240 C1237 1.463 . S
C1240 N1244 1.427 . S
C1241 H1231 0.929 . S
C1241 C1239 1.433 . S
C1241 N1244 1.384 . S
C1242 H1233 0.929 . S
C1242 C1234 1.378 . S
C1242 C1237 1.350 . S
C1243 H1230 0.929 . S
C1243 C1235 1.433 . S
C1243 N1245 1.384 . S
N1244 C1240 1.427 . S
N1244 C1241 1.384 . S
N1245 C1237 1.427 . S
N1245 C1243 1.384 . S
H1246 C1252 0.930 . S
H1247 C1256 0.930 . S
H1248 C1261 0.929 . S
H1249 C1259 0.929 . S
H1250 C1254 0.929 . S
H1251 C1260 0.929 . S
C1252 H1246 0.930 . S
C1252 C1253 1.367 . S
C1252 C1260 1.378 . S
C1253 C1252 1.367 . S
C1253 C1261 1.433 . S
C1254 H1250 0.929 . S
C1254 C1256 1.378 . S
C1254 C1258 1.350 . S
C1255 C1258 1.463 . S
C1255 C1260 1.350 . S
C1255 N1263 1.427 . S
C1256 H1247 0.930 . S
C1256 C1254 1.378 . S
C1256 C1257 1.367 . S
C1257 C1256 1.367 . S
C1257 C1259 1.433 . S
C1258 C1254 1.350 . S
C1258 C1255 1.463 . S
C1258 N1262 1.427 . S
C1259 H1249 0.929 . S
C1259 C1257 1.433 . S
C1259 N1262 1.384 . S
C1260 H1251 0.929 . S
C1260 C1252 1.378 . S
C1260 C1255 1.350 . S
C1261 H1248 0.929 . S
C1261 C1253 1.433 . S
C1261 N1263 1.384 . S
N1262 C1258 1.427 . S
N1262 C1259 1.384 . S
N1263 C1255 1.427 . S
N1263 C1261 1.384 . S
C551 C9 1.178 . S
C555 C5 1.197 . S
C569 C43 1.187 . S
C573 C39 1.193 . S
C587 C73 1.196 . S
C591 C77 1.177 . S
C605 C107 1.190 . S
C609 C111 1.187 . S
C623 C145 1.178 . S
C627 C141 1.197 . S
C641 C175 1.190 . S
C645 C179 1.186 . S
C659 C209 1.193 . S
C663 C213 1.186 . S
C677 C243 1.197 . S
C681 C247 1.177 . S
C695 C281 1.179 . S
C699 C277 1.197 . S
C713 C315 1.187 . S
C717 C311 1.193 . S
C731 C349 1.188 . S
C735 C345 1.190 . S
C749 C383 1.177 . S
C753 C379 1.197 . S
C767 C413 1.193 . S
C771 C417 1.179 . S
C785 C447 1.190 . S
C789 C451 1.187 . S
C803 C481 1.193 . S
C807 C485 1.180 . S
C821 C515 1.197 . S
C825 C519 1.178 . S
C839 C33 1.408 . S
C843 C543 1.403 . S
C857 C441 1.406 . S
C861 C67 1.402 . S
C875 C475 1.401 . S
C879 C101 1.401 . S
C893 C509 1.410 . S
C897 C135 1.413 . S
C911 C339 1.400 . S
C915 C169 1.403 . S
C929 C203 1.413 . S
C933 C373 1.413 . S
C947 C237 1.406 . S
C951 C407 1.401 . S
C965 C305 1.408 . S
C969 C271 1.413 . S
C983 C20 1.564 . S
C987 C156 1.570 . S
C1001 C190 1.569 . S
C1005 C54 1.564 . S
C1019 C88 1.566 . S
C1023 C224 1.569 . S
C1037 C258 1.569 . S
C1041 C122 1.566 . S
C1055 C428 1.569 . S
C1059 C292 1.564 . S
C1073 C326 1.570 . S
C1077 C462 1.564 . S
C1091 C360 1.564 . S
C1095 C496 1.569 . S
C1109 C394 1.569 . S
C1113 C530 1.564 . S
C1127 C2 1.758 . S
C1131 C172 1.758 . S
C1145 C36 1.759 . S
C1149 C206 1.759 . S
C1163 C240 1.760 . S
C1167 C70 1.760 . S
C1181 C104 1.758 . S
C1185 C138 1.759 . S
C1199 C444 1.758 . S
C1203 C274 1.758 . S
C1217 C308 1.759 . S
C1221 C478 1.758 . S
C1235 C512 1.759 . S
C1239 C342 1.759 . S
C1253 C410 1.758 . S
C1257 C376 1.758 . S
