# Generated by pormake.
# Topology vbm, (6)-cn, num edge types: 1
# Building blocks:
#     Node 0, Type 0, BuildingBlock: CIFDUS_clean_sbu_1, # of connection points: 6
#     Node 1, Type 0, BuildingBlock: CIFDUS_clean_sbu_1, # of connection points: 6
#     Node 2, Type 0, BuildingBlock: CIFDUS_clean_sbu_1, # of connection points: 6
#     Node 3, Type 0, BuildingBlock: CIFDUS_clean_sbu_1, # of connection points: 6
#     Node 4, Type 0, BuildingBlock: CIFDUS_clean_sbu_1, # of connection points: 6
#     Node 5, Type 0, BuildingBlock: CIFDUS_clean_sbu_1, # of connection points: 6
#     Node 6, Type 0, BuildingBlock: CIFDUS_clean_sbu_1, # of connection points: 6
#     Node 7, Type 0, BuildingBlock: CIFDUS_clean_sbu_1, # of connection points: 6
#     Node 8, Type 0, BuildingBlock: CIFDUS_clean_sbu_1, # of connection points: 6
#     Node 9, Type 0, BuildingBlock: CIFDUS_clean_sbu_1, # of connection points: 6
#     Node 10, Type 0, BuildingBlock: CIFDUS_clean_sbu_1, # of connection points: 6
#     Node 11, Type 0, BuildingBlock: CIFDUS_clean_sbu_1, # of connection points: 6
#     Node 12, Type 0, BuildingBlock: CIFDUS_clean_sbu_1, # of connection points: 6
#     Node 13, Type 0, BuildingBlock: CIFDUS_clean_sbu_1, # of connection points: 6
#     Node 14, Type 0, BuildingBlock: CIFDUS_clean_sbu_1, # of connection points: 6
#     Node 15, Type 0, BuildingBlock: CIFDUS_clean_sbu_1, # of connection points: 6
#     Edge 16, Type (0, 0), BuildingBlock: EZIPEK_clean_linker_0, # of connection points: 2
#     Edge 17, Type (0, 0), BuildingBlock: EZIPEK_clean_linker_0, # of connection points: 2
#     Edge 18, Type (0, 0), BuildingBlock: EZIPEK_clean_linker_0, # of connection points: 2
#     Edge 19, Type (0, 0), BuildingBlock: EZIPEK_clean_linker_0, # of connection points: 2
#     Edge 20, Type (0, 0), BuildingBlock: EZIPEK_clean_linker_0, # of connection points: 2
#     Edge 21, Type (0, 0), BuildingBlock: EZIPEK_clean_linker_0, # of connection points: 2
#     Edge 22, Type (0, 0), BuildingBlock: EZIPEK_clean_linker_0, # of connection points: 2
#     Edge 23, Type (0, 0), BuildingBlock: EZIPEK_clean_linker_0, # of connection points: 2
#     Edge 24, Type (0, 0), BuildingBlock: EZIPEK_clean_linker_0, # of connection points: 2
#     Edge 25, Type (0, 0), BuildingBlock: EZIPEK_clean_linker_0, # of connection points: 2
#     Edge 26, Type (0, 0), BuildingBlock: EZIPEK_clean_linker_0, # of connection points: 2
#     Edge 27, Type (0, 0), BuildingBlock: EZIPEK_clean_linker_0, # of connection points: 2
#     Edge 28, Type (0, 0), BuildingBlock: EZIPEK_clean_linker_0, # of connection points: 2
#     Edge 29, Type (0, 0), BuildingBlock: EZIPEK_clean_linker_0, # of connection points: 2
#     Edge 30, Type (0, 0), BuildingBlock: EZIPEK_clean_linker_0, # of connection points: 2
#     Edge 31, Type (0, 0), BuildingBlock: EZIPEK_clean_linker_0, # of connection points: 2
#     Edge 32, Type (0, 0), BuildingBlock: EZIPEK_clean_linker_0, # of connection points: 2
#     Edge 33, Type (0, 0), BuildingBlock: EZIPEK_clean_linker_0, # of connection points: 2
#     Edge 34, Type (0, 0), BuildingBlock: EZIPEK_clean_linker_0, # of connection points: 2
#     Edge 35, Type (0, 0), BuildingBlock: EZIPEK_clean_linker_0, # of connection points: 2
#     Edge 36, Type (0, 0), BuildingBlock: EZIPEK_clean_linker_0, # of connection points: 2
#     Edge 37, Type (0, 0), BuildingBlock: EZIPEK_clean_linker_0, # of connection points: 2
#     Edge 38, Type (0, 0), BuildingBlock: EZIPEK_clean_linker_0, # of connection points: 2
#     Edge 39, Type (0, 0), BuildingBlock: EZIPEK_clean_linker_0, # of connection points: 2
#     Edge 40, Type (0, 0), BuildingBlock: EZIPEK_clean_linker_0, # of connection points: 2
#     Edge 41, Type (0, 0), BuildingBlock: EZIPEK_clean_linker_0, # of connection points: 2
#     Edge 42, Type (0, 0), BuildingBlock: EZIPEK_clean_linker_0, # of connection points: 2
#     Edge 43, Type (0, 0), BuildingBlock: EZIPEK_clean_linker_0, # of connection points: 2
#     Edge 44, Type (0, 0), BuildingBlock: EZIPEK_clean_linker_0, # of connection points: 2
#     Edge 45, Type (0, 0), BuildingBlock: EZIPEK_clean_linker_0, # of connection points: 2
#     Edge 46, Type (0, 0), BuildingBlock: EZIPEK_clean_linker_0, # of connection points: 2
#     Edge 47, Type (0, 0), BuildingBlock: EZIPEK_clean_linker_0, # of connection points: 2
#     Edge 48, Type (0, 0), BuildingBlock: EZIPEK_clean_linker_0, # of connection points: 2
#     Edge 49, Type (0, 0), BuildingBlock: EZIPEK_clean_linker_0, # of connection points: 2
#     Edge 50, Type (0, 0), BuildingBlock: EZIPEK_clean_linker_0, # of connection points: 2
#     Edge 51, Type (0, 0), BuildingBlock: EZIPEK_clean_linker_0, # of connection points: 2
#     Edge 52, Type (0, 0), BuildingBlock: EZIPEK_clean_linker_0, # of connection points: 2
#     Edge 53, Type (0, 0), BuildingBlock: EZIPEK_clean_linker_0, # of connection points: 2
#     Edge 54, Type (0, 0), BuildingBlock: EZIPEK_clean_linker_0, # of connection points: 2
#     Edge 55, Type (0, 0), BuildingBlock: EZIPEK_clean_linker_0, # of connection points: 2
#     Edge 56, Type (0, 0), BuildingBlock: EZIPEK_clean_linker_0, # of connection points: 2
#     Edge 57, Type (0, 0), BuildingBlock: EZIPEK_clean_linker_0, # of connection points: 2
#     Edge 58, Type (0, 0), BuildingBlock: EZIPEK_clean_linker_0, # of connection points: 2
#     Edge 59, Type (0, 0), BuildingBlock: EZIPEK_clean_linker_0, # of connection points: 2
#     Edge 60, Type (0, 0), BuildingBlock: EZIPEK_clean_linker_0, # of connection points: 2
#     Edge 61, Type (0, 0), BuildingBlock: EZIPEK_clean_linker_0, # of connection points: 2
#     Edge 62, Type (0, 0), BuildingBlock: EZIPEK_clean_linker_0, # of connection points: 2
#     Edge 63, Type (0, 0), BuildingBlock: EZIPEK_clean_linker_0, # of connection points: 2
# Relax obj value: 0.038
# Max RMSD: 0.079
# Mean RMSD: 0.079
data_MOF--net-vbm--node1-CIFDUS_clean_sbu_1--edge1-EZIPEK_clean_linker_0
_symmetry_space_group_name_H-M    P1
_symmetry_Int_Tables_number       1
_symmetry_cell_setting            triclinic
loop_
_symmetry_equiv_pos_as_xyz
'x, y, z'
_cell_length_a     45.752639
_cell_length_b     11.777194
_cell_length_c     45.334447
_cell_angle_alpha  89.876868
_cell_angle_beta   90.029832
_cell_angle_gamma 89.859554
loop_
_atom_site_label
_atom_site_type_symbol
_atom_site_fract_x
_atom_site_fract_y
_atom_site_fract_z
_atom_type_partial_charge
O0 O 0.13763 0.95889 0.13349 0.0
Mn1 Mn 0.13064 0.14038 0.13121 0.0
O2 O 0.14854 0.90759 0.08888 0.0
Mn3 Mn 0.119 0.00876 0.08189 0.0
O4 O 0.12345 0.31824 0.13167 0.0
O5 O 0.13049 0.13109 0.1781 0.0
Mn6 Mn 0.16151 0.22323 0.1805 0.0
O7 O 0.17641 0.17513 0.12546 0.0
O8 O 0.15534 0.36814 0.1659 0.0
O9 O 0.08491 0.1113 0.13282 0.0
O10 O 0.08356 0.97344 0.09966 0.0
O11 O 0.15328 0.20485 0.21812 0.0
O12 O 0.19614 0.15841 0.16902 0.0
C13 C 0.1259 0.14535 0.05576 0.0
C14 C 0.14629 0.88134 0.11549 0.0
C15 C 0.1378 0.39553 0.14555 0.0
C16 C 0.13349 0.13813 0.20727 0.0
C17 C 0.19934 0.17306 0.14182 0.0
C18 C 0.07072 0.0338 0.11885 0.0
O19 O 0.12909 0.15538 0.08474 0.0
O20 O 0.11667 0.0506 0.04464 0.0
O21 O 0.83711 0.81558 0.12308 0.0
Mn22 Mn 0.88329 0.85037 0.12892 0.0
O23 O 0.81862 0.82454 0.16747 0.0
Mn24 Mn 0.85363 0.75973 0.17718 0.0
O25 O 0.92878 0.87858 0.13307 0.0
O26 O 0.8855 0.83659 0.08194 0.0
Mn27 Mn 0.90045 0.97646 0.07841 0.0
O28 O 0.87701 0.03094 0.13088 0.0
O29 O 0.93696 0.99531 0.0953 0.0
O30 O 0.89166 0.67385 0.12883 0.0
O31 O 0.85945 0.61775 0.16156 0.0
O32 O 0.90132 0.93289 0.04142 0.0
O33 O 0.87381 0.08877 0.0852 0.0
C34 C 0.87911 0.8461 0.20482 0.0
C35 C 0.81461 0.81401 0.1403 0.0
C36 C 0.94578 0.94424 0.1183 0.0
C37 C 0.88915 0.84363 0.05279 0.0
C38 C 0.8728 0.11153 0.11212 0.0
C39 C 0.87775 0.59404 0.14194 0.0
O40 O 0.8821 0.86295 0.17586 0.0
O41 O 0.86307 0.76352 0.21459 0.0
O42 O 0.1774 0.8674 0.38553 0.0
Mn43 Mn 0.13202 0.87162 0.38027 0.0
O44 O 0.1916 0.7478 0.35153 0.0
Mn45 Mn 0.15713 0.76507 0.33094 0.0
O46 O 0.08595 0.88324 0.3799 0.0
O47 O 0.13353 0.8604 0.42652 0.0
Mn48 Mn 0.11984 1.00225 0.42926 0.0
O49 O 0.13397 0.05351 0.37709 0.0
O50 O 0.08358 0.02428 0.41207 0.0
O51 O 0.12912 0.6871 0.3801 0.0
O52 O 0.13623 0.63587 0.3336 0.0
O53 O 0.11947 0.96199 0.46668 0.0
O54 O 0.14636 0.11345 0.4206 0.0
C55 C 0.14107 0.90382 0.30765 0.0
C56 C 0.1965 0.80066 0.37494 0.0
C57 C 0.07119 0.96027 0.39346 0.0
C58 C 0.13139 0.87173 0.45548 0.0
C59 C 0.1422 0.13519 0.39391 0.0
C60 C 0.1285 0.6099 0.35948 0.0
O61 O 0.13027 0.878 0.3339 0.0
O62 O 0.16275 0.84348 0.29801 0.0
O63 O 0.83824 0.18305 0.38347 0.0
Mn64 Mn 0.88328 0.14165 0.37812 0.0
O65 O 0.82362 0.25322 0.34005 0.0
Mn66 Mn 0.86118 0.26959 0.3266 0.0
O67 O 0.92886 0.10406 0.37468 0.0
O68 O 0.88727 0.1371 0.42365 0.0
Mn69 Mn 0.90443 0.00578 0.43176 0.0
O70 O 0.87408 0.9656 0.3739 0.0
O71 O 0.9418 0.02844 0.41881 0.0
O72 O 0.89218 0.31818 0.38199 0.0
O73 O 0.87914 0.39734 0.33924 0.0
O74 O 0.88671 0.04758 0.46571 0.0
O75 O 0.88811 0.88057 0.41559 0.0
C76 C 0.87987 0.14437 0.30249 0.0
C77 C 0.81836 0.22646 0.36663 0.0
C78 C 0.94811 0.06265 0.39282 0.0
C79 C 0.87705 0.13333 0.45062 0.0
C80 C 0.87792 0.87617 0.38985 0.0
C81 C 0.88863 0.40566 0.36521 0.0
O82 O 0.88125 0.14245 0.33173 0.0
O83 O 0.86863 0.23294 0.28964 0.0
O84 O 0.83645 0.81694 0.88421 0.0
Mn85 Mn 0.88119 0.8546 0.87536 0.0
O86 O 0.81797 0.75704 0.84158 0.0
Mn87 Mn 0.85455 0.73181 0.82706 0.0
O88 O 0.92631 0.89045 0.86831 0.0
O89 O 0.88853 0.8554 0.92084 0.0
Mn90 Mn 0.90829 0.98372 0.9265 0.0
O91 O 0.8717 0.03071 0.87214 0.0
O92 O 0.94469 0.95279 0.91165 0.0
O93 O 0.89044 0.6781 0.8788 0.0
O94 O 0.87094 0.59943 0.83887 0.0
O95 O 0.89201 0.95198 0.96178 0.0
O96 O 0.89289 0.11305 0.91087 0.0
C97 C 0.87242 0.84458 0.79945 0.0
C98 C 0.81481 0.78172 0.86849 0.0
C99 C 0.94779 0.92447 0.88469 0.0
C100 C 0.87995 0.86723 0.94835 0.0
C101 C 0.87872 0.1192 0.88713 0.0
C102 C 0.88408 0.59068 0.86309 0.0
O103 O 0.87649 0.85594 0.82849 0.0
O104 O 0.85919 0.75534 0.78933 0.0
O105 O 0.17514 0.17873 0.88322 0.0
Mn106 Mn 0.13023 0.13394 0.87666 0.0
O107 O 0.19355 0.21706 0.83895 0.0
Mn108 Mn 0.15694 0.24773 0.82513 0.0
O109 O 0.08551 0.08738 0.87038 0.0
O110 O 0.12744 0.14064 0.92317 0.0
Mn111 Mn 0.10568 0.01753 0.92838 0.0
O112 O 0.14003 0.95716 0.8753 0.0
O113 O 0.06854 0.04074 0.91474 0.0
O114 O 0.12009 0.30974 0.87751 0.0
O115 O 0.14213 0.38363 0.83783 0.0
O116 O 0.11218 0.05595 0.96531 0.0
O117 O 0.12199 0.88322 0.91678 0.0
C118 C 0.13484 0.13037 0.801 0.0
C119 C 0.19687 0.20495 0.86641 0.0
C120 C 0.06453 0.05443 0.88737 0.0
C121 C 0.12519 0.14038 0.9524 0.0
C122 C 0.13383 0.87128 0.89185 0.0
C123 C 0.12808 0.39543 0.86167 0.0
O124 O 0.13292 0.13093 0.83023 0.0
O125 O 0.14998 0.20925 0.78811 0.0
O126 O 0.83506 0.18803 0.62613 0.0
Mn127 Mn 0.88052 0.1542 0.62906 0.0
O128 O 0.82107 0.25725 0.66975 0.0
Mn129 Mn 0.85898 0.28099 0.68198 0.0
O130 O 0.9263 0.12038 0.62995 0.0
O131 O 0.88072 0.15401 0.58247 0.0
Mn132 Mn 0.89139 0.00801 0.58077 0.0
O133 O 0.87305 0.97724 0.63552 0.0
O134 O 0.92729 0.97839 0.59775 0.0
O135 O 0.88767 0.33153 0.6245 0.0
O136 O 0.87506 0.41046 0.66755 0.0
O137 O 0.89078 0.04354 0.54289 0.0
O138 O 0.86358 0.9075 0.5921 0.0
C139 C 0.88104 0.15595 0.70446 0.0
C140 C 0.81521 0.22724 0.64352 0.0
C141 C 0.94019 0.03933 0.61678 0.0
C142 C 0.88217 0.14034 0.55345 0.0
C143 C 0.8655 0.89292 0.61943 0.0
C144 C 0.88393 0.41873 0.64128 0.0
O145 O 0.88053 0.15859 0.67528 0.0
O146 O 0.86922 0.24035 0.71844 0.0
O147 O 0.17486 0.86584 0.6176 0.0
Mn148 Mn 0.12944 0.87686 0.62794 0.0
O149 O 0.19611 0.7783 0.65527 0.0
Mn150 Mn 0.16114 0.75472 0.67337 0.0
O151 O 0.08332 0.89137 0.63539 0.0
O152 O 0.12409 0.88445 0.58329 0.0
Mn153 Mn 0.10072 0.99942 0.57563 0.0
O154 O 0.13299 0.05602 0.63095 0.0
O155 O 0.06576 0.97461 0.59413 0.0
O156 O 0.12479 0.69933 0.62361 0.0
O157 O 0.14426 0.62045 0.66382 0.0
O158 O 0.10864 0.94047 0.53959 0.0
O159 O 0.11916 0.12875 0.58712 0.0
C160 C 0.14057 0.85677 0.70326 0.0
C161 C 0.19754 0.8226 0.63004 0.0
C162 C 0.06204 0.93255 0.61973 0.0
C163 C 0.12485 0.87127 0.55475 0.0
C164 C 0.12913 0.14006 0.61298 0.0
C165 C 0.13081 0.61234 0.63968 0.0
O166 O 0.135 0.8688 0.67454 0.0
O167 O 0.16114 0.78679 0.71105 0.0
O168 O 0.63271 0.44916 0.1288 0.0
Mn169 Mn 0.63079 0.62882 0.12601 0.0
O170 O 0.62822 0.37921 0.08365 0.0
Mn171 Mn 0.60952 0.50996 0.07353 0.0
O172 O 0.62876 0.80841 0.12325 0.0
O173 O 0.63278 0.62224 0.17295 0.0
Mn174 Mn 0.65672 0.74118 0.17726 0.0
O175 O 0.67651 0.63663 0.12078 0.0
O176 O 0.63936 0.87549 0.16781 0.0
O177 O 0.58424 0.6203 0.12918 0.0
O178 O 0.57297 0.52194 0.08903 0.0
O179 O 0.65206 0.69894 0.21432 0.0
O180 O 0.69329 0.72253 0.16113 0.0
C181 C 0.62974 0.63622 0.05063 0.0
C182 C 0.63301 0.36524 0.11074 0.0
C183 C 0.63147 0.89118 0.1415 0.0
C184 C 0.6352 0.62366 0.20228 0.0
C185 C 0.69734 0.68082 0.13574 0.0
C186 C 0.56511 0.57221 0.1124 0.0
O187 O 0.63032 0.63423 0.07981 0.0
O188 O 0.61488 0.55881 0.03692 0.0
O189 O 0.33671 0.35347 0.11818 0.0
Mn190 Mn 0.3822 0.37568 0.12781 0.0
O191 O 0.31576 0.29712 0.16024 0.0
Mn192 Mn 0.35085 0.25956 0.17639 0.0
O193 O 0.42686 0.39869 0.13598 0.0
O194 O 0.39025 0.36556 0.08214 0.0
Mn195 Mn 0.40221 0.50907 0.08044 0.0
O196 O 0.37708 0.55786 0.13037 0.0
O197 O 0.4351 0.53743 0.10354 0.0
O198 O 0.38887 0.1982 0.12584 0.0
O199 O 0.36463 0.12361 0.16349 0.0
O200 O 0.4088 0.46565 0.0438 0.0
O201 O 0.37144 0.60627 0.08442 0.0
C202 C 0.37284 0.37059 0.20258 0.0
C203 C 0.31401 0.32485 0.13338 0.0
C204 C 0.44326 0.47712 0.12537 0.0
C205 C 0.39707 0.37307 0.05381 0.0
C206 C 0.37151 0.63501 0.11086 0.0
C207 C 0.38037 0.11174 0.14079 0.0
O208 O 0.37644 0.37241 0.17361 0.0
O209 O 0.35626 0.29321 0.21416 0.0
O210 O 0.67851 0.36734 0.38517 0.0
Mn211 Mn 0.63271 0.37866 0.37836 0.0
O212 O 0.69834 0.30114 0.3443 0.0
Mn213 Mn 0.6619 0.26506 0.33083 0.0
O214 O 0.58631 0.39499 0.3759 0.0
O215 O 0.63193 0.37819 0.42465 0.0
Mn216 Mn 0.61541 0.51338 0.4286 0.0
O217 O 0.6368 0.55796 0.37322 0.0
O218 O 0.57941 0.52445 0.41102 0.0
O219 O 0.62812 0.20147 0.38282 0.0
O220 O 0.64889 0.12661 0.34289 0.0
O221 O 0.6173 0.46874 0.46593 0.0
O222 O 0.64012 0.62624 0.41837 0.0
C223 C 0.6376 0.35852 0.30176 0.0
C224 C 0.70093 0.33717 0.37024 0.0
C225 C 0.56939 0.46293 0.39044 0.0
C226 C 0.63053 0.38314 0.45379 0.0
C227 C 0.64149 0.64097 0.39098 0.0
C228 C 0.63541 0.11585 0.36695 0.0
O229 O 0.63379 0.37313 0.33083 0.0
O230 O 0.6577 0.28839 0.29303 0.0
O231 O 0.3345 0.64168 0.39089 0.0
Mn232 Mn 0.37951 0.61221 0.37876 0.0
O233 O 0.31043 0.66542 0.34988 0.0
Mn234 Mn 0.34522 0.71448 0.33547 0.0
O235 O 0.4252 0.58748 0.37136 0.0
O236 O 0.38527 0.60928 0.42405 0.0
Mn237 Mn 0.40381 0.47861 0.42922 0.0
O238 O 0.37297 0.43289 0.37525 0.0
O239 O 0.43947 0.48443 0.41069 0.0
O240 O 0.38677 0.78807 0.38134 0.0
O241 O 0.35758 0.85678 0.34619 0.0
O242 O 0.40069 0.53087 0.4661 0.0
O243 O 0.38157 0.35741 0.41951 0.0
C244 C 0.36719 0.63126 0.30351 0.0
C245 C 0.31012 0.65552 0.37727 0.0
C246 C 0.44505 0.53426 0.3864 0.0
C247 C 0.38804 0.61557 0.45287 0.0
C248 C 0.37388 0.34706 0.393 0.0
C249 C 0.37572 0.87159 0.36688 0.0
O250 O 0.37481 0.61517 0.33165 0.0
O251 O 0.34482 0.6952 0.29778 0.0
O252 O 0.33656 0.34576 0.88045 0.0
Mn253 Mn 0.38207 0.36752 0.87448 0.0
O254 O 0.31817 0.27177 0.83908 0.0
Mn255 Mn 0.3547 0.2432 0.82366 0.0
O256 O 0.42777 0.39695 0.87178 0.0
O257 O 0.38525 0.36804 0.92036 0.0
Mn258 Mn 0.39383 0.51491 0.92208 0.0
O259 O 0.37597 0.54479 0.86835 0.0
O260 O 0.42866 0.5437 0.90294 0.0
O261 O 0.38835 0.18953 0.87851 0.0
O262 O 0.37125 0.11144 0.8369 0.0
O263 O 0.39481 0.47788 0.95995 0.0
O264 O 0.36461 0.61071 0.91141 0.0
C265 C 0.37807 0.36254 0.79959 0.0
C266 C 0.31495 0.30938 0.86504 0.0
C267 C 0.44152 0.47963 0.88444 0.0
C268 C 0.38786 0.37952 0.94918 0.0
C269 C 0.36744 0.62783 0.88428 0.0
C270 C 0.3831 0.1027 0.86203 0.0
O271 O 0.37886 0.36017 0.82867 0.0
O272 O 0.36244 0.28591 0.78652 0.0
O273 O 0.67519 0.65212 0.88576 0.0
Mn274 Mn 0.63006 0.63905 0.87738 0.0
O275 O 0.69444 0.74439 0.84712 0.0
Mn276 Mn 0.65892 0.76992 0.82888 0.0
O277 O 0.58429 0.62441 0.86953 0.0
O278 O 0.62517 0.63082 0.92258 0.0
Mn279 Mn 0.60165 0.51433 0.92834 0.0
O280 O 0.63443 0.46114 0.87332 0.0
O281 O 0.56655 0.5395 0.91018 0.0
O282 O 0.62505 0.81645 0.88219 0.0
O283 O 0.64036 0.89843 0.84055 0.0
O284 O 0.60833 0.5656 0.9652 0.0
O285 O 0.61974 0.38479 0.91623 0.0
C286 C 0.63907 0.64843 0.80287 0.0
C287 C 0.69698 0.69627 0.8721 0.0
C288 C 0.56299 0.5821 0.88464 0.0
C289 C 0.62484 0.63774 0.95147 0.0
C290 C 0.63001 0.37538 0.89044 0.0
C291 C 0.62917 0.90446 0.8659 0.0
O292 O 0.63601 0.64831 0.83181 0.0
O293 O 0.65419 0.72992 0.79119 0.0
O294 O 0.3342 0.68132 0.62392 0.0
Mn295 Mn 0.37966 0.64475 0.63109 0.0
O296 O 0.31347 0.6552 0.66625 0.0
Mn297 Mn 0.34705 0.72679 0.67816 0.0
O298 O 0.42513 0.61184 0.63326 0.0
O299 O 0.38177 0.65545 0.58464 0.0
Mn300 Mn 0.38904 0.50569 0.58464 0.0
O301 O 0.3727 0.46402 0.63531 0.0
O302 O 0.42347 0.46306 0.60376 0.0
O303 O 0.38663 0.82255 0.63074 0.0
O304 O 0.35303 0.87238 0.66369 0.0
O305 O 0.39335 0.5365 0.5469 0.0
O306 O 0.35746 0.41494 0.59228 0.0
C307 C 0.37544 0.6513 0.70674 0.0
C308 C 0.31077 0.67458 0.63927 0.0
C309 C 0.43777 0.52547 0.62137 0.0
C310 C 0.38572 0.63644 0.55611 0.0
C311 C 0.36189 0.38715 0.61849 0.0
C312 C 0.37158 0.89943 0.64422 0.0
O313 O 0.37943 0.64081 0.67785 0.0
O314 O 0.35367 0.71235 0.71604 0.0
O315 O 0.67379 0.35704 0.62185 0.0
Mn316 Mn 0.62817 0.37111 0.62917 0.0
O317 O 0.68931 0.24242 0.65793 0.0
Mn318 Mn 0.6529 0.23358 0.67511 0.0
O319 O 0.582 0.38755 0.63658 0.0
O320 O 0.62382 0.37737 0.58368 0.0
Mn321 Mn 0.59853 0.48872 0.57775 0.0
O322 O 0.63262 0.54915 0.63242 0.0
O323 O 0.56325 0.45584 0.59433 0.0
O324 O 0.62254 0.19432 0.62299 0.0
O325 O 0.63164 0.1105 0.66543 0.0
O326 O 0.60636 0.44129 0.54093 0.0
O327 O 0.61409 0.62202 0.59046 0.0
C328 C 0.63904 0.34998 0.70459 0.0
C329 C 0.69417 0.3006 0.63493 0.0
C330 C 0.56013 0.42098 0.62061 0.0
C331 C 0.62351 0.37114 0.55471 0.0
C332 C 0.62617 0.63356 0.61541 0.0
C333 C 0.62323 0.1053 0.63922 0.0
O334 O 0.63399 0.36734 0.67592 0.0
O335 O 0.65159 0.25664 0.71314 0.0
C336 C 0.24586 0.17194 0.11095 0.0
C337 C 0.22735 0.22735 0.13159 0.0
C338 C 0.26302 0.38372 0.13361 0.0
C339 C 0.28425 0.31401 0.12055 0.0
N340 N 0.29618 0.13962 0.09585 0.0
N341 N 0.22186 0.385 0.16617 0.0
C342 C 0.27555 0.20873 0.10809 0.0
C343 C 0.23656 0.33425 0.14354 0.0
N344 N 0.23562 0.08207 0.0951 0.0
N345 N 0.2695 0.49482 0.13896 0.0
H346 H 0.2045 0.3483 0.17714 0.0
H347 H 0.22941 0.45739 0.1769 0.0
H348 H 0.28953 0.52969 0.13262 0.0
H349 H 0.25414 0.55323 0.14664 0.0
H350 H 0.2474 0.04485 0.07799 0.0
H351 H 0.21438 0.05133 0.09746 0.0
H352 H 0.29201 0.05647 0.08933 0.0
H353 H 0.31795 0.16433 0.09387 0.0
C354 C 0.7677 0.81252 0.10972 0.0
C355 C 0.78611 0.76047 0.13122 0.0
C356 C 0.74793 0.61614 0.13958 0.0
C357 C 0.72778 0.68405 0.1245 0.0
N358 N 0.71785 0.83821 0.09141 0.0
N359 N 0.79125 0.61138 0.16881 0.0
C360 C 0.73765 0.77846 0.10782 0.0
C361 C 0.77582 0.66053 0.14633 0.0
N362 N 0.77853 0.89646 0.09206 0.0
N363 N 0.7397 0.51032 0.14865 0.0
H364 H 0.81157 0.63709 0.17589 0.0
H365 H 0.78251 0.54972 0.18273 0.0
H366 H 0.71884 0.4788 0.14433 0.0
H367 H 0.75426 0.45069 0.1573 0.0
H368 H 0.76704 0.93146 0.07441 0.0
H369 H 0.79992 0.92593 0.09383 0.0
H370 H 0.72238 0.91524 0.08112 0.0
H371 H 0.6963 0.8108 0.08892 0.0
C372 C 0.27763 0.82218 0.38508 0.0
C373 C 0.28372 0.70642 0.39172 0.0
C374 C 0.23188 0.68013 0.40324 0.0
C375 C 0.22556 0.78484 0.38886 0.0
N376 N 0.24211 0.96165 0.36849 0.0
N377 N 0.26783 0.53021 0.41243 0.0
C378 C 0.24839 0.85919 0.38125 0.0
C379 C 0.26121 0.63739 0.40312 0.0
N380 N 0.30025 0.89547 0.38186 0.0
N381 N 0.20963 0.62193 0.41637 0.0
H382 H 0.2894 0.50113 0.41326 0.0
H383 H 0.25229 0.47075 0.41886 0.0
H384 H 0.1883 0.65379 0.41674 0.0
H385 H 0.21263 0.54842 0.42879 0.0
H386 H 0.29797 0.98272 0.37886 0.0
H387 H 0.32135 0.86749 0.38575 0.0
H388 H 0.25778 0.01368 0.35879 0.0
H389 H 0.22079 0.99251 0.36657 0.0
C390 C 0.76992 0.201 0.39426 0.0
C391 C 0.78999 0.27036 0.37861 0.0
C392 C 0.75146 0.41309 0.37033 0.0
C393 C 0.73094 0.33809 0.38275 0.0
N394 N 0.72215 0.18994 0.41778 0.0
N395 N 0.80228 0.46117 0.36315 0.0
C396 C 0.74079 0.24165 0.39863 0.0
C397 C 0.78152 0.38311 0.3706 0.0
N398 N 0.77789 0.09475 0.40329 0.0
N399 N 0.74187 0.51005 0.35683 0.0
H400 H 0.82451 0.44218 0.36323 0.0
H401 H 0.79778 0.5469 0.35972 0.0
H402 H 0.72005 0.53612 0.35796 0.0
H403 H 0.75511 0.56161 0.34382 0.0
H404 H 0.76319 0.03631 0.41204 0.0
H405 H 0.79898 0.06282 0.40065 0.0
H406 H 0.72834 0.1238 0.43175 0.0
H407 H 0.70152 0.22405 0.42198 0.0
C408 C 0.74651 0.60941 0.87326 0.0
C409 C 0.72689 0.69067 0.8846 0.0
C410 C 0.7675 0.81827 0.8966 0.0
C411 C 0.78674 0.74307 0.88183 0.0
N412 N 0.79683 0.54975 0.86737 0.0
N413 N 0.71915 0.84446 0.91805 0.0
C414 C 0.77692 0.63215 0.87421 0.0
C415 C 0.73767 0.78591 0.90013 0.0
N416 N 0.73587 0.51404 0.86 0.0
N417 N 0.77712 0.9222 0.90555 0.0
H418 H 0.69788 0.81592 0.92166 0.0
H419 H 0.72571 0.91098 0.9316 0.0
H420 H 0.79891 0.94683 0.90373 0.0
H421 H 0.76331 0.98521 0.91368 0.0
H422 H 0.74867 0.45833 0.8477 0.0
H423 H 0.7137 0.49326 0.86063 0.0
H424 H 0.79135 0.46507 0.86389 0.0
H425 H 0.81925 0.56468 0.86793 0.0
C426 C 0.2643 0.38689 0.86738 0.0
C427 C 0.28484 0.30608 0.87743 0.0
C428 C 0.24503 0.1795 0.89355 0.0
C429 C 0.22504 0.25019 0.87831 0.0
N430 N 0.21321 0.43653 0.8599 0.0
N431 N 0.29588 0.14146 0.90653 0.0
C432 C 0.23401 0.35986 0.86849 0.0
C433 C 0.27541 0.20819 0.89314 0.0
N434 N 0.27416 0.4876 0.85612 0.0
N435 N 0.23495 0.08464 0.90757 0.0
H436 H 0.31774 0.16569 0.90733 0.0
H437 H 0.29151 0.06584 0.91749 0.0
H438 H 0.2128 0.06428 0.90826 0.0
H439 H 0.24793 0.02866 0.91957 0.0
H440 H 0.26095 0.55007 0.84684 0.0
H441 H 0.29626 0.50956 0.85652 0.0
H442 H 0.21744 0.51708 0.85158 0.0
H443 H 0.19103 0.42078 0.86295 0.0
C444 C 0.74363 0.38792 0.63919 0.0
C445 C 0.72524 0.30766 0.62551 0.0
C446 C 0.76731 0.18231 0.61652 0.0
C447 C 0.78548 0.25912 0.63222 0.0
N448 N 0.79304 0.45458 0.6466 0.0
N449 N 0.72104 0.1559 0.59089 0.0
C450 C 0.77429 0.3686 0.63962 0.0
C451 C 0.7377 0.21383 0.61065 0.0
N452 N 0.73167 0.47965 0.65311 0.0
N453 N 0.77749 0.07746 0.6088 0.0
H454 H 0.70001 0.18371 0.58557 0.0
H455 H 0.72913 0.09124 0.57752 0.0
H456 H 0.79879 0.05051 0.613 0.0
H457 H 0.76419 0.01444 0.59996 0.0
H458 H 0.74359 0.53322 0.66684 0.0
H459 H 0.7094 0.49864 0.65189 0.0
H460 H 0.78628 0.53822 0.64975 0.0
H461 H 0.81568 0.44484 0.64598 0.0
C462 C 0.24739 0.88897 0.63355 0.0
C463 C 0.22734 0.82658 0.61699 0.0
C464 C 0.26649 0.6897 0.60518 0.0
C465 C 0.28325 0.73337 0.62909 0.0
N466 N 0.2869 0.87701 0.66796 0.0
N467 N 0.21876 0.68317 0.58096 0.0
C468 C 0.27333 0.83516 0.64346 0.0
C469 C 0.23748 0.73279 0.60037 0.0
N470 N 0.24015 0.99672 0.6418 0.0
N471 N 0.27779 0.60547 0.58792 0.0
H472 H 0.1984 0.71939 0.57649 0.0
H473 H 0.22315 0.60824 0.56968 0.0
H474 H 0.29837 0.56995 0.59167 0.0
H475 H 0.26769 0.57568 0.56889 0.0
H476 H 0.25475 0.05162 0.65213 0.0
H477 H 0.22039 0.03365 0.6352 0.0
H478 H 0.2784 0.94359 0.68041 0.0
H479 H 0.30462 0.8395 0.67824 0.0
C480 C 0.11337 0.0691 0.28386 0.0
C481 C 0.12258 0.95454 0.28354 0.0
C482 C 0.11833 0.95073 0.2295 0.0
C483 C 0.11674 0.0705 0.22959 0.0
N484 N 0.1 0.23666 0.25484 0.0
N485 N 0.11832 0.77608 0.25843 0.0
C486 C 0.10944 0.1268 0.25633 0.0
C487 C 0.11968 0.8918 0.25695 0.0
N488 N 0.10883 0.12156 0.31018 0.0
N489 N 0.11994 0.89457 0.20336 0.0
H490 H 0.11816 0.73327 0.27863 0.0
H491 H 0.11459 0.72387 0.24035 0.0
H492 H 0.116 0.93559 0.18342 0.0
H493 H 0.12425 0.80828 0.20153 0.0
H494 H 0.10318 0.20657 0.31254 0.0
H495 H 0.10934 0.07613 0.32986 0.0
H496 H 0.0938 0.28494 0.27298 0.0
H497 H 0.09686 0.27705 0.23453 0.0
C498 C 0.85618 0.01773 0.26802 0.0
C499 C 0.8823 0.04356 0.28312 0.0
C500 C 0.90966 0.94421 0.24406 0.0
C501 C 0.88365 0.93687 0.22705 0.0
N502 N 0.83415 1.00075 0.22002 0.0
N503 N 0.93479 0.04072 0.28429 0.0
C504 C 0.85757 0.98504 0.2382 0.0
C505 C 0.90946 0.00896 0.27087 0.0
N506 N 0.8299 0.02945 0.28197 0.0
N507 N 0.93421 0.88916 0.23477 0.0
H508 H 0.93477 0.08582 0.3041 0.0
H509 H 0.95537 0.02674 0.27515 0.0
H510 H 0.93493 0.84627 0.21464 0.0
H511 H 0.95307 0.8824 0.24754 0.0
H512 H 0.81017 0.00491 0.27242 0.0
H513 H 0.8285 0.05244 0.30417 0.0
H514 H 0.81512 0.04245 0.22661 0.0
H515 H 0.83557 0.98534 0.19745 0.0
C516 C 0.90815 0.04666 0.74352 0.0
C517 C 0.88497 0.05229 0.72257 0.0
C518 C 0.85333 0.95369 0.75724 0.0
C519 C 0.87707 0.9351 0.7769 0.0
N520 N 0.92871 0.94987 0.78636 0.0
N521 N 0.83831 0.98181 0.70667 0.0
C522 C 0.90512 0.97724 0.76936 0.0
C523 C 0.85875 0.99384 0.72839 0.0
N524 N 0.93251 0.11108 0.73922 0.0
N525 N 0.8253 0.93606 0.76659 0.0
H526 H 0.84174 0.0114 0.68526 0.0
H527 H 0.81957 0.93254 0.70925 0.0
H528 H 0.82038 0.91296 0.78828 0.0
H529 H 0.80705 0.95699 0.75389 0.0
H530 H 0.94892 0.11984 0.75499 0.0
H531 H 0.93527 0.16042 0.72028 0.0
H532 H 0.95011 0.96942 0.78041 0.0
H533 H 0.92682 0.90188 0.80562 0.0
C534 C 0.10865 0.08405 0.75483 0.0
C535 C 0.12223 0.04334 0.78102 0.0
C536 C 0.12788 0.86094 0.75669 0.0
C537 C 0.12474 0.91355 0.7285 0.0
N538 N 0.10848 0.07906 0.70149 0.0
N539 N 0.14871 0.89071 0.80475 0.0
C540 C 0.11331 0.02558 0.72765 0.0
C541 C 0.13224 0.92986 0.78181 0.0
N542 N 0.09238 0.18113 0.75594 0.0
N543 N 0.12812 0.74551 0.75919 0.0
H544 H 0.15409 0.94087 0.82278 0.0
H545 H 0.15894 0.81145 0.80446 0.0
H546 H 0.12343 0.6931 0.74124 0.0
H547 H 0.12977 0.70415 0.77948 0.0
H548 H 0.08016 0.21113 0.73813 0.0
H549 H 0.08896 0.22419 0.77578 0.0
H550 H 0.1041 0.16572 0.69998 0.0
H551 H 0.10941 0.03717 0.68142 0.0
C552 C 0.61221 0.53119 0.27731 0.0
C553 C 0.62103 0.41596 0.27688 0.0
C554 C 0.62683 0.42527 0.22299 0.0
C555 C 0.62099 0.54324 0.22354 0.0
N556 N 0.5964 0.69553 0.24864 0.0
N557 N 0.61943 0.24513 0.24765 0.0
C558 C 0.6094 0.59123 0.24993 0.0
C559 C 0.6219 0.36038 0.24897 0.0
N560 N 0.60766 0.58457 0.30346 0.0
N561 N 0.63983 0.3765 0.19912 0.0
H562 H 0.61511 0.1967 0.26648 0.0
H563 H 0.61847 0.20092 0.22776 0.0
H564 H 0.64556 0.42273 0.18049 0.0
H565 H 0.64719 0.29263 0.19906 0.0
H566 H 0.60528 0.67221 0.30526 0.0
H567 H 0.60642 0.54015 0.32325 0.0
H568 H 0.58563 0.73259 0.26644 0.0
H569 H 0.59404 0.73922 0.2287 0.0
C570 C 0.39699 0.47675 0.2753 0.0
C571 C 0.382 0.58253 0.27652 0.0
C572 C 0.36796 0.56093 0.2251 0.0
C573 C 0.38366 0.45848 0.22295 0.0
N574 N 0.42006 0.33497 0.24377 0.0
N575 N 0.36762 0.74571 0.24733 0.0
C576 C 0.40105 0.42326 0.24724 0.0
C577 C 0.37335 0.63234 0.24927 0.0
N578 N 0.40537 0.42276 0.30041 0.0
N579 N 0.34496 0.58298 0.20689 0.0
H580 H 0.37431 0.80238 0.2637 0.0
H581 H 0.35764 0.78215 0.22902 0.0
H582 H 0.3396 0.53198 0.18891 0.0
H583 H 0.3296 0.64569 0.21192 0.0
H584 H 0.41319 0.33969 0.30043 0.0
H585 H 0.40337 0.45924 0.32111 0.0
H586 H 0.43489 0.31017 0.26002 0.0
H587 H 0.4227 0.2948 0.22341 0.0
C588 C 0.40555 0.41279 0.75417 0.0
C589 C 0.39153 0.45055 0.78041 0.0
C590 C 0.3901 0.63975 0.75906 0.0
C591 C 0.39309 0.59326 0.73036 0.0
N592 N 0.40902 0.43356 0.70104 0.0
N593 N 0.365 0.6022 0.80445 0.0
C594 C 0.40323 0.4797 0.72794 0.0
C595 C 0.38319 0.56591 0.78261 0.0
N596 N 0.41998 0.31131 0.75427 0.0
N597 N 0.39055 0.75443 0.76299 0.0
H598 H 0.35545 0.54673 0.81947 0.0
H599 H 0.35663 0.68464 0.80515 0.0
H600 H 0.3953 0.80961 0.74557 0.0
H601 H 0.38905 0.79158 0.78382 0.0
H602 H 0.4323 0.28229 0.73648 0.0
H603 H 0.42184 0.2623 0.77343 0.0
H604 H 0.41264 0.34708 0.69785 0.0
H605 H 0.40983 0.48183 0.68186 0.0
C606 C 0.60893 0.55082 0.76404 0.0
C607 C 0.63342 0.55037 0.78336 0.0
C608 C 0.66191 0.44979 0.74637 0.0
C609 C 0.63686 0.43816 0.72806 0.0
N610 N 0.58495 0.46242 0.72198 0.0
N611 N 0.68002 0.47058 0.79618 0.0
C612 C 0.60978 0.48445 0.73756 0.0
C613 C 0.65865 0.48854 0.77564 0.0
N614 N 0.58529 0.61661 0.77072 0.0
N615 N 0.68909 0.42668 0.73537 0.0
H616 H 0.67781 0.49809 0.81795 0.0
H617 H 0.69811 0.41867 0.79236 0.0
H618 H 0.6925 0.40442 0.71334 0.0
H619 H 0.70827 0.44211 0.7471 0.0
H620 H 0.56802 0.63041 0.75615 0.0
H621 H 0.58383 0.66087 0.79061 0.0
H622 H 0.56417 0.48528 0.72926 0.0
H623 H 0.5852 0.4149 0.70259 0.0
C624 C 0.10778 0.28017 0.98724 0.0
C625 C 0.13243 0.23617 0.97234 0.0
C626 C 0.1591 0.2296 0.01915 0.0
C627 C 0.13203 0.2369 0.03406 0.0
N628 N 0.08333 0.30921 0.03479 0.0
N629 N 0.18408 0.21087 0.97164 0.0
C630 C 0.10745 0.28006 0.0188 0.0
C631 C 0.15928 0.22877 0.98758 0.0
N632 N 0.08381 0.3033 0.97044 0.0
N633 N 0.18381 0.21399 0.03547 0.0
H634 H 0.18342 0.20932 0.94859 0.0
H635 H 0.20478 0.20112 0.98081 0.0
H636 H 0.18299 0.21401 0.05852 0.0
H637 H 0.20465 0.20555 0.02659 0.0
H638 H 0.0635 0.32779 0.97867 0.0
H639 H 0.0635 0.32779 0.97867 0.0
H640 H 0.06405 0.34126 0.02589 0.0
H641 H 0.08355 0.30509 0.05783 0.0
C642 C 0.89976 0.72195 0.98141 0.0
C643 C 0.87433 0.77093 0.96899 0.0
C644 C 0.85166 0.7741 0.01808 0.0
C645 C 0.87961 0.75746 0.03074 0.0
N646 N 0.9268 0.6728 0.02642 0.0
N647 N 0.82298 0.80085 0.97291 0.0
C648 C 0.90221 0.71269 0.01286 0.0
C649 C 0.84893 0.77928 0.9866 0.0
N650 N 0.9225 0.70238 0.96272 0.0
N651 N 0.82867 0.79479 0.03642 0.0
H652 H 0.82176 0.8058 0.94991 0.0
H653 H 0.80306 0.80819 0.98379 0.0
H654 H 0.8312 0.79021 0.0593 0.0
H655 H 0.8076 0.81373 0.0293 0.0
H656 H 0.9433 0.67612 0.96922 0.0
H657 H 0.9433 0.67612 0.96922 0.0
H658 H 0.94439 0.63578 0.01553 0.0
H659 H 0.92843 0.67153 0.04942 0.0
C660 C 0.12569 0.71661 0.49162 0.0
C661 C 0.1447 0.79222 0.47694 0.0
C662 C 0.16744 0.8418 0.52381 0.0
C663 C 0.14341 0.79089 0.53828 0.0
N664 N 0.1106 0.6342 0.53862 0.0
N665 N 0.19122 0.88391 0.47684 0.0
C666 C 0.12721 0.70849 0.52292 0.0
C667 C 0.16892 0.83638 0.49244 0.0
N668 N 0.10413 0.66498 0.47597 0.0
N669 N 0.18587 0.90864 0.53974 0.0
H670 H 0.19119 0.88282 0.45378 0.0
H671 H 0.21012 0.91612 0.48646 0.0
H672 H 0.18367 0.91573 0.56257 0.0
H673 H 0.20235 0.95805 0.53053 0.0
H674 H 0.08768 0.6162 0.48549 0.0
H675 H 0.10261 0.67617 0.45318 0.0
H676 H 0.09871 0.56873 0.52899 0.0
H677 H 0.11083 0.63519 0.56168 0.0
C678 C 0.90003 0.2673 0.51431 0.0
C679 C 0.87586 0.23002 0.5311 0.0
C680 C 0.84573 0.22978 0.48637 0.0
C681 C 0.87159 0.23422 0.46943 0.0
N682 N 0.91927 0.30726 0.46448 0.0
N683 N 0.82399 0.21769 0.53563 0.0
C684 C 0.89719 0.27603 0.48285 0.0
C685 C 0.84785 0.22881 0.51789 0.0
N686 N 0.92585 0.2789 0.52894 0.0
N687 N 0.81992 0.21472 0.47194 0.0
H688 H 0.82614 0.21612 0.55859 0.0
H689 H 0.80256 0.21557 0.52798 0.0
H690 H 0.81921 0.21386 0.44888 0.0
H691 H 0.79981 0.20513 0.48233 0.0
H692 H 0.94585 0.2972 0.51907 0.0
H693 H 0.94585 0.2972 0.51907 0.0
H694 H 0.93953 0.33762 0.47132 0.0
H695 H 0.93953 0.33762 0.47132 0.0
C696 C 0.66892 0.66561 0.01545 0.0
C697 C 0.64591 0.71651 0.03149 0.0
C698 C 0.62691 0.79771 0.98562 0.0
C699 C 0.64282 0.7143 0.96999 0.0
N700 N 0.68575 0.59929 0.96727 0.0
N701 N 0.61092 0.8661 0.03396 0.0
C702 C 0.66701 0.66213 0.98399 0.0
C703 C 0.62834 0.7983 0.01712 0.0
N704 N 0.69026 0.6101 0.03077 0.0
N705 N 0.60851 0.8669 0.97019 0.0
H706 H 0.61202 0.86252 0.05698 0.0
H707 H 0.59627 0.92549 0.0255 0.0
H708 H 0.60729 0.86205 0.9472 0.0
H709 H 0.59564 0.92989 0.97968 0.0
H710 H 0.70788 0.56868 0.02105 0.0
H711 H 0.69041 0.61077 0.05383 0.0
H712 H 0.70314 0.55235 0.97571 0.0
H713 H 0.68354 0.59637 0.94434 0.0
C714 C 0.41427 0.25752 0.98305 0.0
C715 C 0.38705 0.28447 0.97045 0.0
C716 C 0.36431 0.27296 0.01925 0.0
C717 C 0.39248 0.28154 0.03182 0.0
N718 N 0.44377 0.23984 0.02649 0.0
N719 N 0.33511 0.27718 0.97399 0.0
C720 C 0.41702 0.25468 0.01411 0.0
C721 C 0.36155 0.27447 0.98781 0.0
N722 N 0.43793 0.25052 0.96496 0.0
N723 N 0.34069 0.27302 0.03748 0.0
H724 H 0.33379 0.28021 0.95099 0.0
H725 H 0.3151 0.27349 0.98482 0.0
H726 H 0.34339 0.2742 0.06033 0.0
H727 H 0.31913 0.26774 0.03036 0.0
H728 H 0.4592 0.23731 0.97262 0.0
H729 H 0.4592 0.23731 0.97262 0.0
H730 H 0.44692 0.23917 0.0493 0.0
H731 H 0.44692 0.23917 0.0493 0.0
C732 C 0.62655 0.22147 0.48797 0.0
C733 C 0.64489 0.30263 0.47451 0.0
C734 C 0.66601 0.34809 0.52272 0.0
C735 C 0.64164 0.29541 0.53605 0.0
N736 N 0.60745 0.14342 0.53415 0.0
N737 N 0.68963 0.40599 0.4767 0.0
C738 C 0.62559 0.21553 0.51946 0.0
C739 C 0.66796 0.34982 0.49125 0.0
N740 N 0.6083 0.15978 0.47053 0.0
N741 N 0.68491 0.40669 0.54021 0.0
H742 H 0.69003 0.40889 0.45365 0.0
H743 H 0.70736 0.44433 0.48698 0.0
H744 H 0.68264 0.40573 0.56314 0.0
H745 H 0.70246 0.45393 0.53239 0.0
H746 H 0.5928 0.103 0.47847 0.0
H747 H 0.60934 0.1664 0.44755 0.0
H748 H 0.59485 0.08138 0.52397 0.0
H749 H 0.60645 0.14399 0.55719 0.0
C750 C 0.40679 0.75786 0.51743 0.0
C751 C 0.38141 0.72361 0.53287 0.0
C752 C 0.35431 0.71489 0.48641 0.0
C753 C 0.38134 0.7156 0.4714 0.0
N754 N 0.42975 0.78237 0.46879 0.0
N755 N 0.32932 0.71409 0.53413 0.0
C756 C 0.40615 0.75836 0.48593 0.0
C757 C 0.35432 0.72085 0.51789 0.0
N758 N 0.43176 0.77669 0.53311 0.0
N759 N 0.32942 0.6991 0.47047 0.0
H760 H 0.33 0.71789 0.55715 0.0
H761 H 0.30843 0.70989 0.52516 0.0
H762 H 0.33017 0.69456 0.44748 0.0
H763 H 0.30861 0.69368 0.47957 0.0
H764 H 0.45205 0.79396 0.52385 0.0
H765 H 0.43166 0.77491 0.55616 0.0
H766 H 0.44986 0.81038 0.47668 0.0
H767 H 0.44986 0.81038 0.47668 0.0
C768 C 0.99074 0.00631 0.148 0.0
C769 C 0.97801 0.94879 0.12361 0.0
C770 C 0.02319 0.97296 0.09618 0.0
C771 C 0.03806 0.01535 0.12154 0.0
N772 N 0.03563 0.05295 0.17407 0.0
N773 N 0.98616 0.84419 0.07883 0.0
C774 C 0.02178 0.02673 0.14832 0.0
C775 C 0.99583 0.91973 0.09943 0.0
N776 N 0.97327 0.04423 0.17029 0.0
N777 N 0.03385 0.99153 0.06843 0.0
H778 H 0.96616 0.8023 0.08084 0.0
H779 H 0.99947 0.81481 0.06177 0.0
H780 H 0.05133 0.0459 0.06421 0.0
H781 H 0.02261 0.96701 0.04946 0.0
H782 H 0.98076 0.09737 0.187 0.0
H783 H 0.95087 0.02786 0.17086 0.0
H784 H 0.02502 0.05318 0.19441 0.0
H785 H 0.05814 0.06408 0.17561 0.0
C786 C 0.99167 0.98619 0.36341 0.0
C787 C 0.97988 0.05794 0.38572 0.0
C788 C 0.02436 0.03559 0.41381 0.0
C789 C 0.03876 0.97972 0.39001 0.0
N790 N 0.03581 0.92283 0.33857 0.0
N791 N 0.99017 0.18342 0.42618 0.0
C792 C 0.02245 0.96108 0.36354 0.0
C793 C 0.99843 0.09579 0.40837 0.0
N794 N 0.97362 0.93794 0.34309 0.0
N795 N 0.03394 0.02393 0.44221 0.0
H796 H 0.97095 0.22937 0.42247 0.0
H797 H 1.00396 0.21623 0.4424 0.0
H798 H 0.05014 0.96571 0.44821 0.0
H799 H 0.02283 0.05949 0.46006 0.0
H800 H 0.98065 0.87594 0.3283 0.0
H801 H 0.95126 0.95462 0.34253 0.0
H802 H 0.02495 0.91712 0.31841 0.0
H803 H 0.05814 0.90704 0.3372 0.0
C804 C 0.0287 0.89358 0.88622 0.0
C805 C 0.03686 0.00347 0.87556 0.0
C806 C 0.98676 0.03325 0.8577 0.0
C807 C 0.97799 0.93336 0.87292 0.0
N808 N 0.99018 0.75427 0.89462 0.0
N809 N 0.02628 0.16081 0.84334 0.0
C810 C 0.99905 0.85834 0.88461 0.0
C811 C 0.01678 0.06736 0.85838 0.0
N812 N 0.04946 0.82472 0.89858 0.0
N813 N 0.96593 0.09806 0.84417 0.0
H814 H 0.04795 0.18767 0.84385 0.0
H815 H 0.01342 0.20748 0.82878 0.0
H816 H 0.94437 0.07066 0.84241 0.0
H817 H 0.96963 0.17757 0.83491 0.0
H818 H 0.0452 0.75025 0.91011 0.0
H819 H 0.07165 0.84232 0.89687 0.0
H820 H 1.00395 0.69195 0.90309 0.0
H821 H 0.96851 0.72742 0.89284 0.0
C822 C 0.98796 0.0303 0.64865 0.0
C823 C 0.97221 0.01047 0.62182 0.0
C824 C 0.01211 0.88479 0.60636 0.0
C825 C 0.03059 0.92629 0.62859 0.0
N826 N 0.03601 0.04169 0.67185 0.0
N827 N 0.97822 0.95404 0.57049 0.0
C828 C 0.01845 0.99972 0.65023 0.0
C829 C 0.98667 0.94661 0.59936 0.0
N830 N 0.9742 0.0743 0.67273 0.0
N831 N 0.02069 0.79452 0.58966 0.0
H832 H 0.9633 0.01471 0.56299 0.0
H833 H 0.98943 0.91273 0.55358 0.0
H834 H 0.03999 0.7501 0.59419 0.0
H835 H 0.00719 0.75889 0.5736 0.0
H836 H 0.98435 0.08211 0.69319 0.0
H837 H 0.95197 0.09241 0.67321 0.0
H838 H 0.02959 0.10638 0.68611 0.0
H839 H 0.05743 0.01327 0.67452 0.0
C840 C 0.49177 0.43666 0.10764 0.0
C841 C 0.47519 0.47876 0.13106 0.0
C842 C 0.51871 0.58705 0.14695 0.0
C843 C 0.53276 0.56009 0.1195 0.0
N844 N 0.52021 0.51344 0.06863 0.0
N845 N 0.4717 0.60606 0.17223 0.0
C846 C 0.51575 0.50025 0.09822 0.0
C847 C 0.48835 0.55735 0.15076 0.0
N848 N 0.48275 0.34407 0.09222 0.0
N849 N 0.53333 0.64169 0.16893 0.0
H850 H 0.45001 0.58203 0.17574 0.0
H851 H 0.47899 0.67298 0.18529 0.0
H852 H 0.55415 0.67533 0.16656 0.0
H853 H 0.52474 0.65087 0.19008 0.0
H854 H 0.49513 0.31036 0.07497 0.0
H855 H 0.46476 0.29619 0.09897 0.0
H856 H 0.50706 0.47347 0.05295 0.0
H857 H 0.53367 0.57697 0.0601 0.0
C858 C 0.49101 0.48373 0.35656 0.0
C859 C 0.47702 0.54325 0.37993 0.0
C860 C 0.52044 0.52063 0.40966 0.0
C861 C 0.5368 0.47553 0.38558 0.0
N862 N 0.5371 0.43429 0.33308 0.0
N863 N 0.48371 0.65732 0.42326 0.0
C864 C 0.52203 0.4628 0.35794 0.0
C865 C 0.49402 0.57749 0.40413 0.0
N866 N 0.47476 0.44544 0.33353 0.0
N867 N 0.52873 0.50159 0.43822 0.0
H868 H 0.46404 0.70019 0.41946 0.0
H869 H 0.49625 0.6877 0.44079 0.0
H870 H 0.5454 0.44481 0.44383 0.0
H871 H 0.51629 0.52924 0.45612 0.0
H872 H 0.48286 0.39028 0.31754 0.0
H873 H 0.45276 0.46645 0.33149 0.0
H874 H 0.52752 0.43381 0.31222 0.0
H875 H 0.55953 0.42024 0.33276 0.0
C876 C 0.48957 0.48922 0.85342 0.0
C877 C 0.47356 0.50597 0.88017 0.0
C878 C 0.513 0.62855 0.89744 0.0
C879 C 0.53181 0.58927 0.87524 0.0
N880 N 0.53808 0.47838 0.83119 0.0
N881 N 0.47868 0.55484 0.9321 0.0
C882 C 0.5201 0.51887 0.85269 0.0
C883 C 0.48764 0.56599 0.90348 0.0
N884 N 0.47602 0.44888 0.8288 0.0
N885 N 0.52119 0.71682 0.91499 0.0
H886 H 0.46336 0.49436 0.93868 0.0
H887 H 0.48964 0.59338 0.9496 0.0
H888 H 0.54047 0.76187 0.91112 0.0
H889 H 0.5074 0.7503 0.93114 0.0
H890 H 0.48642 0.4437 0.8084 0.0
H891 H 0.4538 0.43065 0.82799 0.0
H892 H 0.53167 0.41656 0.81611 0.0
H893 H 0.55976 0.50474 0.82938 0.0
C894 C 0.48703 0.52601 0.6507 0.0
C895 C 0.46978 0.49474 0.62563 0.0
C896 C 0.50961 0.36684 0.61087 0.0
C897 C 0.52905 0.4182 0.63076 0.0
N898 N 0.53643 0.55742 0.66879 0.0
N899 N 0.47316 0.41906 0.57566 0.0
C900 C 0.51777 0.50015 0.65079 0.0
C901 C 0.48323 0.42317 0.60404 0.0
N902 N 0.47464 0.57809 0.67447 0.0
N903 N 0.51788 0.2716 0.59596 0.0
H904 H 0.45796 0.4769 0.5673 0.0
H905 H 0.48353 0.37169 0.55929 0.0
H906 H 0.53777 0.23097 0.60027 0.0
H907 H 0.50371 0.22865 0.58182 0.0
H908 H 0.48613 0.5931 0.69393 0.0
H909 H 0.45247 0.59614 0.67606 0.0
H910 H 0.53004 0.62706 0.68142 0.0
H911 H 0.55865 0.53842 0.66957 0.0
C912 C 0.12795 0.68058 0.10393 0.0
C913 C 0.14315 0.75705 0.12312 0.0
C914 C 0.14587 0.60257 0.15926 0.0
C915 C 0.1363 0.52092 0.13791 0.0
N916 N 0.12617 0.48865 0.08587 0.0
N917 N 0.17296 0.77672 0.1666 0.0
C918 C 0.12953 0.56131 0.10907 0.0
C919 C 0.15417 0.71362 0.15001 0.0
N920 N 0.1109 0.71987 0.08135 0.0
N921 N 0.14575 0.57688 0.18866 0.0
H922 H 0.17994 0.85744 0.16025 0.0
H923 H 0.18368 0.74379 0.18505 0.0
H924 H 0.13554 0.50469 0.19709 0.0
H925 H 0.15203 0.63453 0.20487 0.0
H926 H 0.09742 0.66651 0.06907 0.0
H927 H 0.10719 0.80525 0.07704 0.0
H928 H 0.12355 0.51726 0.06423 0.0
H929 H 0.1298 0.40174 0.08704 0.0
C930 C 0.89156 0.31145 0.10187 0.0
C931 C 0.87612 0.23427 0.1207 0.0
C932 C 0.87307 0.3878 0.1567 0.0
C933 C 0.88119 0.46998 0.13486 0.0
N934 N 0.89175 0.50221 0.08291 0.0
N935 N 0.84726 0.21181 0.16494 0.0
C936 C 0.88861 0.43012 0.10631 0.0
C937 C 0.86538 0.27607 0.14785 0.0
N938 N 0.91059 0.27335 0.0809 0.0
N939 N 0.87382 0.41416 0.18601 0.0
H940 H 0.83968 0.13237 0.1584 0.0
H941 H 0.83723 0.24358 0.18387 0.0
H942 H 0.88272 0.48976 0.19386 0.0
H943 H 0.86953 0.3545 0.20248 0.0
H944 H 0.92352 0.32848 0.06849 0.0
H945 H 0.91682 0.18874 0.07897 0.0
H946 H 0.89512 0.47262 0.06149 0.0
H947 H 0.88756 0.58883 0.0838 0.0
C948 C 0.11763 0.32864 0.4019 0.0
C949 C 0.13653 0.25631 0.3849 0.0
C950 C 0.13672 0.40158 0.34628 0.0
C951 C 0.12507 0.48411 0.36618 0.0
N952 N 0.09755 0.51713 0.41042 0.0
N953 N 0.16649 0.233 0.34156 0.0
C954 C 0.11365 0.44498 0.3934 0.0
C955 C 0.14688 0.29582 0.35736 0.0
N956 N 0.10184 0.2853 0.42492 0.0
N957 N 0.13556 0.41841 0.31648 0.0
H958 H 0.17479 0.1554 0.34895 0.0
H959 H 0.1765 0.26367 0.32248 0.0
H960 H 0.12272 0.4817 0.30689 0.0
H961 H 0.14264 0.35787 0.30132 0.0
H962 H 0.08508 0.32885 0.43553 0.0
H963 H 0.10319 0.20201 0.43221 0.0
H964 H 0.09192 0.50019 0.43221 0.0
H965 H 0.0893 0.59383 0.4024 0.0
C966 C 0.86762 0.56177 0.39619 0.0
C967 C 0.88965 0.52436 0.37623 0.0
C968 C 0.89497 0.71942 0.35734 0.0
C969 C 0.87459 0.75845 0.37856 0.0
N970 N 0.84001 0.71951 0.41702 0.0
N971 N 0.92792 0.56873 0.34195 0.0
C972 C 0.86027 0.67953 0.39741 0.0
C973 C 0.90443 0.60422 0.35815 0.0
N974 N 0.85302 0.48431 0.41318 0.0
N975 N 0.90494 0.79204 0.33609 0.0
H976 H 0.9355 0.48504 0.34277 0.0
H977 H 0.94148 0.6232 0.33015 0.0
H978 H 0.89762 0.87546 0.33419 0.0
H979 H 0.91796 0.76689 0.31843 0.0
H980 H 0.83439 0.50245 0.42543 0.0
H981 H 0.859 0.39928 0.4147 0.0
H982 H 0.83091 0.67205 0.43404 0.0
H983 H 0.83258 0.80344 0.4164 0.0
C984 C 0.86032 0.31381 0.8969 0.0
C985 C 0.87361 0.23727 0.87673 0.0
C986 C 0.90074 0.39458 0.85442 0.0
C987 C 0.88695 0.47219 0.87383 0.0
N988 N 0.85326 0.50826 0.91364 0.0
N989 N 0.89992 0.20881 0.83149 0.0
C990 C 0.86678 0.43229 0.89535 0.0
C991 C 0.8918 0.27908 0.85396 0.0
N992 N 0.84169 0.27111 0.91771 0.0
N993 N 0.92275 0.4324 0.83659 0.0
H994 H 0.89271 0.12514 0.83006 0.0
H995 H 0.91123 0.23609 0.81286 0.0
H996 H 0.92993 0.51652 0.8371 0.0
H997 H 0.93563 0.37913 0.82367 0.0
H998 H 0.83283 0.31756 0.93502 0.0
H999 H 0.83509 0.18625 0.91752 0.0
H1000 H 0.83623 0.48825 0.92788 0.0
H1001 H 0.85877 0.59394 0.91435 0.0
C1002 C 0.14094 0.55225 0.89691 0.0
C1003 C 0.12481 0.51529 0.8719 0.0
C1004 C 0.11618 0.71539 0.85796 0.0
C1005 C 0.13517 0.75152 0.88104 0.0
N1006 N 0.16912 0.70323 0.91956 0.0
N1007 N 0.09837 0.56111 0.82745 0.0
C1008 C 0.14851 0.66918 0.89963 0.0
C1009 C 0.11291 0.59707 0.85207 0.0
N1010 N 0.14904 0.47626 0.91826 0.0
N1011 N 0.09975 0.79323 0.84281 0.0
H1012 H 0.09298 0.47614 0.82392 0.0
H1013 H 0.09255 0.61448 0.81007 0.0
H1014 H 0.10133 0.88044 0.846 0.0
H1015 H 0.08299 0.77148 0.82837 0.0
H1016 H 0.15773 0.5003 0.93853 0.0
H1017 H 0.14456 0.38988 0.91724 0.0
H1018 H 0.18185 0.64721 0.9319 0.0
H1019 H 0.17556 0.78784 0.92157 0.0
C1020 C 0.89551 0.73492 0.64399 0.0
C1021 C 0.86941 0.77198 0.62928 0.0
C1022 C 0.86056 0.57529 0.61322 0.0
C1023 C 0.88476 0.53708 0.63005 0.0
N1024 N 0.92418 0.57755 0.66333 0.0
N1025 N 0.82372 0.72125 0.60659 0.0
C1026 C 0.90204 0.61655 0.6457 0.0
C1027 C 0.85099 0.68982 0.61591 0.0
N1028 N 0.91473 0.81115 0.65573 0.0
N1029 N 0.84648 0.50185 0.59478 0.0
H1030 H 0.81568 0.80359 0.60936 0.0
H1031 H 0.80809 0.66371 0.59923 0.0
H1032 H 0.85301 0.41775 0.59201 0.0
H1033 H 0.83025 0.5272 0.58002 0.0
H1034 H 0.93616 0.79014 0.66131 0.0
H1035 H 0.90996 0.89563 0.65994 0.0
H1036 H 0.93478 0.62725 0.67899 0.0
H1037 H 0.93103 0.49288 0.66314 0.0
C1038 C 0.10694 0.30627 0.63862 0.0
C1039 C 0.13097 0.2585 0.62305 0.0
C1040 C 0.14766 0.44899 0.60997 0.0
C1041 C 0.12627 0.49598 0.62896 0.0
N1042 N 0.08686 0.47074 0.6635 0.0
N1043 N 0.17616 0.28291 0.59675 0.0
C1044 C 0.10629 0.42487 0.64396 0.0
C1045 C 0.15195 0.32973 0.60958 0.0
N1046 N 0.08388 0.23966 0.64672 0.0
N1047 N 0.16357 0.51846 0.59202 0.0
H1048 H 0.17992 0.19543 0.59649 0.0
H1049 H 0.19365 0.33067 0.58891 0.0
H1050 H 0.16029 0.60594 0.59139 0.0
H1051 H 0.17747 0.48851 0.5756 0.0
H1052 H 0.06435 0.27207 0.65502 0.0
H1053 H 0.08345 0.15234 0.6432 0.0
H1054 H 0.07424 0.42194 0.67783 0.0
H1055 H 0.08447 0.55824 0.66632 0.0
C1056 C 0.60546 0.06588 0.12367 0.0
C1057 C 0.63182 0.01036 0.13122 0.0
C1058 C 0.65857 0.19146 0.12935 0.0
C1059 C 0.6323 0.24678 0.12158 0.0
N1060 N 0.57982 0.24462 0.11694 0.0
N1061 N 0.68433 0.01362 0.13656 0.0
C1062 C 0.60545 0.18596 0.12012 0.0
C1063 C 0.65863 0.07159 0.13296 0.0
N1064 N 0.58063 0.0034 0.11953 0.0
N1065 N 0.68324 0.25433 0.1339 0.0
H1066 H 0.6853 0.92558 0.13835 0.0
H1067 H 0.70493 0.05046 0.13527 0.0
H1068 H 0.68367 0.34213 0.13099 0.0
H1069 H 0.70258 0.22206 0.14265 0.0
H1070 H 0.56122 0.03621 0.11108 0.0
H1071 H 0.57994 0.91566 0.12263 0.0
H1072 H 0.55917 0.20813 0.118 0.0
H1073 H 0.57906 0.33286 0.11594 0.0
C1074 C 0.3695 0.80277 0.14506 0.0
C1075 C 0.37683 0.75852 0.11735 0.0
C1076 C 0.39102 0.95304 0.1024 0.0
C1077 C 0.38646 0.99121 0.13187 0.0
N1078 N 0.38803 0.92647 0.18244 0.0
N1079 N 0.40701 0.79242 0.07368 0.0
C1080 C 0.38136 0.90739 0.15363 0.0
C1081 C 0.39124 0.83342 0.09692 0.0
N1082 N 0.34888 0.7528 0.16209 0.0
N1083 N 0.39504 0.027 0.07957 0.0
H1084 H 0.41174 0.70687 0.07072 0.0
H1085 H 0.41925 0.84505 0.05992 0.0
H1086 H 0.39726 0.1141 0.08193 0.0
H1087 H 0.3949 1.00045 0.05763 0.0
H1088 H 0.34093 0.79367 0.18085 0.0
H1089 H 0.33704 0.68258 0.15481 0.0
H1090 H 0.38685 0.86137 0.19791 0.0
H1091 H 0.39874 0.99995 0.18939 0.0
C1092 C 0.65389 0.9538 0.39592 0.0
C1093 C 0.63181 0.99854 0.37749 0.0
C1094 C 0.61489 0.80602 0.36723 0.0
C1095 C 0.64033 0.76123 0.38137 0.0
N1096 N 0.68667 0.79635 0.40497 0.0
N1097 N 0.59253 0.96821 0.34312 0.0
C1098 C 0.6607 0.8367 0.39434 0.0
C1099 C 0.61272 0.9248 0.36229 0.0
N1100 N 0.66792 0.02295 0.41536 0.0
N1101 N 0.59181 0.7377 0.36045 0.0
H1102 H 0.58906 0.05537 0.34062 0.0
H1103 H 0.58041 0.91767 0.32878 0.0
H1104 H 0.59181 0.65071 0.36396 0.0
H1105 H 0.57165 0.76902 0.35339 0.0
H1106 H 0.68261 0.99285 0.43114 0.0
H1107 H 0.66188 0.10767 0.41807 0.0
H1108 H 0.70332 0.84925 0.41246 0.0
H1109 H 0.69262 0.71091 0.40342 0.0
C1110 C 0.36306 0.03393 0.39931 0.0
C1111 C 0.38035 0.99043 0.37607 0.0
C1112 C 0.39468 0.18432 0.36345 0.0
C1113 C 0.37261 0.22782 0.38255 0.0
N1114 N 0.33222 0.18924 0.41509 0.0
N1115 N 0.41078 0.02567 0.33364 0.0
C1116 C 0.35558 0.15073 0.39925 0.0
C1117 C 0.39541 0.0662 0.3572 0.0
N1118 N 0.35425 0.96462 0.42176 0.0
N1119 N 0.41663 0.25258 0.35356 0.0
H1120 H 0.41328 0.93897 0.32956 0.0
H1121 H 0.41964 0.07881 0.31755 0.0
H1122 H 0.41822 0.33791 0.35917 0.0
H1123 H 0.4348 0.22138 0.34227 0.0
H1124 H 0.34348 0.99472 0.44044 0.0
H1125 H 0.36008 0.87904 0.42278 0.0
H1126 H 0.31767 0.13487 0.42574 0.0
H1127 H 0.32585 0.27446 0.41488 0.0
C1128 C 0.39635 0.78665 0.85788 0.0
C1129 C 0.37176 0.74938 0.8751 0.0
C1130 C 0.36608 0.94415 0.8934 0.0
C1131 C 0.38661 0.98424 0.87273 0.0
N1132 N 0.42057 0.94476 0.83369 0.0
N1133 N 0.32874 0.8044 0.9025 0.0
C1134 C 0.4016 0.90543 0.8546 0.0
C1135 C 0.35525 0.83214 0.8907 0.0
N1136 N 0.41557 0.71163 0.84547 0.0
N1137 N 0.3571 0.01224 0.91592 0.0
H1138 H 0.31922 0.72479 0.89943 0.0
H1139 H 0.31497 0.86427 0.91221 0.0
H1140 H 0.36584 0.09279 0.91935 0.0
H1141 H 0.34371 0.98321 0.93293 0.0
H1142 H 0.43586 0.73625 0.83725 0.0
H1143 H 0.4126 0.62478 0.844 0.0
H1144 H 0.42907 0.89412 0.81691 0.0
H1145 H 0.42667 0.03004 0.83244 0.0
C1146 C 0.65114 0.18418 0.89642 0.0
C1147 C 0.63281 0.2575 0.87993 0.0
C1148 C 0.60637 0.09352 0.85998 0.0
C1149 C 0.62458 0.02086 0.87688 0.0
N1150 N 0.65901 0.9959 0.91647 0.0
N1151 N 0.59442 0.28568 0.8442 0.0
C1152 C 0.64541 0.06594 0.89673 0.0
C1153 C 0.61081 0.21314 0.86106 0.0
N1154 N 0.67454 0.22854 0.91117 0.0
N1155 N 0.58447 0.04638 0.84353 0.0
H1156 H 0.59777 0.37302 0.84391 0.0
H1157 H 0.57847 0.26067 0.82927 0.0
H1158 H 0.58027 0.95924 0.84384 0.0
H1159 H 0.56945 0.09179 0.83097 0.0
H1160 H 0.69054 0.17944 0.92145 0.0
H1161 H 0.67945 0.31509 0.91058 0.0
H1162 H 0.67268 0.02444 0.93324 0.0
H1163 H 0.654 0.91003 0.91822 0.0
C1164 C 0.37012 0.10446 0.66085 0.0
C1165 C 0.37392 0.02446 0.63748 0.0
C1166 C 0.37703 0.18541 0.60329 0.0
C1167 C 0.36653 0.26239 0.62543 0.0
N1168 N 0.34908 0.28483 0.67537 0.0
N1169 N 0.37411 0.99411 0.58462 0.0
C1170 C 0.362 0.21896 0.6543 0.0
C1171 C 0.37543 0.06615 0.60816 0.0
N1172 N 0.37514 0.07225 0.68938 0.0
N1173 N 0.39043 0.22411 0.57831 0.0
H1174 H 0.37135 0.90676 0.58656 0.0
H1175 H 0.3725 0.02341 0.56294 0.0
H1176 H 0.39581 0.30866 0.57474 0.0
H1177 H 0.40022 0.16958 0.56311 0.0
H1178 H 0.37489 0.12939 0.70691 0.0
H1179 H 0.38315 0.992 0.69497 0.0
H1180 H 0.34294 0.25319 0.69594 0.0
H1181 H 0.34176 0.36729 0.6713 0.0
C1182 C 0.60983 0.79702 0.64556 0.0
C1183 C 0.62986 0.75261 0.62474 0.0
C1184 C 0.64099 0.94579 0.60746 0.0
C1185 C 0.61983 0.98912 0.62746 0.0
N1186 N 0.5792 0.95616 0.65975 0.0
N1187 N 0.66398 0.78074 0.58507 0.0
C1188 C 0.60265 0.91413 0.64459 0.0
C1189 C 0.64538 0.82635 0.60552 0.0
N1190 N 0.59803 0.72767 0.66658 0.0
N1191 N 0.65752 0.01869 0.59103 0.0
H1192 H 0.66959 0.69473 0.58504 0.0
H1193 H 0.67318 0.82609 0.5677 0.0
H1194 H 0.65311 0.10511 0.58947 0.0
H1195 H 0.67576 0.99425 0.57893 0.0
H1196 H 0.58517 0.757 0.68392 0.0
H1197 H 0.60365 0.64232 0.66862 0.0
H1198 H 0.56406 0.90535 0.67068 0.0
H1199 H 0.57332 0.04186 0.65872 0.0
loop_
_geom_bond_atom_site_label_1
_geom_bond_atom_site_label_2
_geom_bond_distance
_geom_bond_site_symmetry_2
_ccdc_geom_bond_type
O0 Mn1 2.163 1_565 S
O0 C14 1.244 . S
Mn1 O0 2.163 1_545 S
Mn1 O4 2.160 . S
Mn1 O5 2.221 . S
Mn1 O7 2.163 . S
Mn1 O9 2.160 . S
Mn1 O19 2.221 . S
O2 Mn3 2.087 . S
O2 C14 1.256 . S
Mn3 O2 2.087 . S
Mn3 O10 2.089 . S
Mn3 O19 2.290 1_565 S
Mn3 O20 2.251 1_565 S
O4 Mn1 2.160 . S
O4 C15 1.239 . S
O5 Mn1 2.221 . S
O5 Mn6 2.290 . S
O5 C16 1.278 . S
Mn6 O5 2.290 . S
Mn6 O8 2.089 . S
Mn6 O11 2.251 . S
Mn6 O12 2.087 . S
O7 Mn1 2.163 . S
O7 C17 1.244 . S
O8 Mn6 2.089 . S
O8 C15 1.256 . S
O9 Mn1 2.160 . S
O9 C18 1.239 . S
O10 Mn3 2.089 . S
O10 C18 1.256 1_565 S
O11 Mn6 2.251 . S
O11 C16 1.241 . S
O12 Mn6 2.087 . S
O12 C17 1.256 . S
C13 O19 1.278 . S
C13 O20 1.241 . S
C14 O0 1.244 . S
C14 O2 1.256 . S
C15 O4 1.239 . S
C15 O8 1.256 . S
C16 O5 1.278 . S
C16 O11 1.241 . S
C17 O7 1.244 . S
C17 O12 1.256 . S
C18 O9 1.239 . S
C18 O10 1.256 1_545 S
O19 Mn1 2.221 . S
O19 Mn3 2.290 1_545 S
O19 C13 1.278 . S
O20 Mn3 2.251 1_545 S
O20 C13 1.241 . S
O21 Mn22 2.163 . S
O21 C35 1.244 . S
Mn22 O21 2.163 . S
Mn22 O25 2.160 . S
Mn22 O26 2.221 . S
Mn22 O28 2.163 1_565 S
Mn22 O30 2.160 . S
Mn22 O40 2.221 . S
O23 Mn24 2.087 . S
O23 C35 1.256 . S
Mn24 O23 2.087 . S
Mn24 O31 2.089 . S
Mn24 O40 2.290 . S
Mn24 O41 2.251 . S
O25 Mn22 2.160 . S
O25 C36 1.239 . S
O26 Mn22 2.221 . S
O26 Mn27 2.290 1_565 S
O26 C37 1.278 . S
Mn27 O26 2.290 1_545 S
Mn27 O29 2.089 . S
Mn27 O32 2.251 1_545 S
Mn27 O33 2.087 . S
O28 Mn22 2.163 1_545 S
O28 C38 1.244 . S
O29 Mn27 2.089 . S
O29 C36 1.256 1_545 S
O30 Mn22 2.160 . S
O30 C39 1.239 . S
O31 Mn24 2.089 . S
O31 C39 1.256 . S
O32 Mn27 2.251 1_565 S
O32 C37 1.241 . S
O33 Mn27 2.087 . S
O33 C38 1.256 . S
C34 O40 1.278 . S
C34 O41 1.241 . S
C35 O21 1.244 . S
C35 O23 1.256 . S
C36 O25 1.239 . S
C36 O29 1.256 1_565 S
C37 O26 1.278 . S
C37 O32 1.241 . S
C38 O28 1.244 . S
C38 O33 1.256 . S
C39 O30 1.239 . S
C39 O31 1.256 . S
O40 Mn22 2.221 . S
O40 Mn24 2.290 . S
O40 C34 1.278 . S
O41 Mn24 2.251 . S
O41 C34 1.241 . S
O42 Mn43 2.163 . S
O42 C56 1.244 . S
Mn43 O42 2.163 . S
Mn43 O46 2.160 . S
Mn43 O47 2.221 . S
Mn43 O49 2.163 1_565 S
Mn43 O51 2.160 . S
Mn43 O61 2.221 . S
O44 Mn45 2.087 . S
O44 C56 1.256 . S
Mn45 O44 2.087 . S
Mn45 O52 2.089 . S
Mn45 O61 2.290 . S
Mn45 O62 2.251 . S
O46 Mn43 2.160 . S
O46 C57 1.239 . S
O47 Mn43 2.221 . S
O47 Mn48 2.290 1_565 S
O47 C58 1.278 . S
Mn48 O47 2.290 1_545 S
Mn48 O50 2.089 . S
Mn48 O53 2.251 1_545 S
Mn48 O54 2.087 . S
O49 Mn43 2.163 1_545 S
O49 C59 1.244 . S
O50 Mn48 2.089 . S
O50 C57 1.256 1_545 S
O51 Mn43 2.160 . S
O51 C60 1.239 . S
O52 Mn45 2.089 . S
O52 C60 1.256 . S
O53 Mn48 2.251 1_565 S
O53 C58 1.241 . S
O54 Mn48 2.087 . S
O54 C59 1.256 . S
C55 O61 1.278 . S
C55 O62 1.241 . S
C56 O42 1.244 . S
C56 O44 1.256 . S
C57 O46 1.239 . S
C57 O50 1.256 1_565 S
C58 O47 1.278 . S
C58 O53 1.241 . S
C59 O49 1.244 . S
C59 O54 1.256 . S
C60 O51 1.239 . S
C60 O52 1.256 . S
O61 Mn43 2.221 . S
O61 Mn45 2.290 . S
O61 C55 1.278 . S
O62 Mn45 2.251 . S
O62 C55 1.241 . S
O63 Mn64 2.163 . S
O63 C77 1.244 . S
Mn64 O63 2.163 . S
Mn64 O67 2.160 . S
Mn64 O68 2.221 . S
Mn64 O70 2.163 1_545 S
Mn64 O72 2.160 . S
Mn64 O82 2.221 . S
O65 Mn66 2.087 . S
O65 C77 1.256 . S
Mn66 O65 2.087 . S
Mn66 O73 2.089 . S
Mn66 O82 2.290 . S
Mn66 O83 2.251 . S
O67 Mn64 2.160 . S
O67 C78 1.239 . S
O68 Mn64 2.221 . S
O68 Mn69 2.290 1_545 S
O68 C79 1.278 . S
Mn69 O68 2.290 1_565 S
Mn69 O71 2.089 . S
Mn69 O74 2.251 1_565 S
Mn69 O75 2.087 . S
O70 Mn64 2.163 1_565 S
O70 C80 1.244 . S
O71 Mn69 2.089 . S
O71 C78 1.256 1_565 S
O72 Mn64 2.160 . S
O72 C81 1.239 . S
O73 Mn66 2.089 . S
O73 C81 1.256 . S
O74 Mn69 2.251 1_545 S
O74 C79 1.241 . S
O75 Mn69 2.087 . S
O75 C80 1.256 . S
C76 O82 1.278 . S
C76 O83 1.241 . S
C77 O63 1.244 . S
C77 O65 1.256 . S
C78 O67 1.239 . S
C78 O71 1.256 1_545 S
C79 O68 1.278 . S
C79 O74 1.241 . S
C80 O70 1.244 . S
C80 O75 1.256 . S
C81 O72 1.239 . S
C81 O73 1.256 . S
O82 Mn64 2.221 . S
O82 Mn66 2.290 . S
O82 C76 1.278 . S
O83 Mn66 2.251 . S
O83 C76 1.241 . S
O84 Mn85 2.163 . S
O84 C98 1.244 . S
Mn85 O84 2.163 . S
Mn85 O88 2.160 . S
Mn85 O89 2.221 . S
Mn85 O91 2.163 1_565 S
Mn85 O93 2.160 . S
Mn85 O103 2.221 . S
O86 Mn87 2.087 . S
O86 C98 1.256 . S
Mn87 O86 2.087 . S
Mn87 O94 2.089 . S
Mn87 O103 2.290 . S
Mn87 O104 2.251 . S
O88 Mn85 2.160 . S
O88 C99 1.239 . S
O89 Mn85 2.221 . S
O89 Mn90 2.290 1_565 S
O89 C100 1.278 . S
Mn90 O89 2.290 1_545 S
Mn90 O92 2.089 . S
Mn90 O95 2.251 1_545 S
Mn90 O96 2.087 . S
O91 Mn85 2.163 1_545 S
O91 C101 1.244 . S
O92 Mn90 2.089 . S
O92 C99 1.256 1_545 S
O93 Mn85 2.160 . S
O93 C102 1.239 . S
O94 Mn87 2.089 . S
O94 C102 1.256 . S
O95 Mn90 2.251 1_565 S
O95 C100 1.241 . S
O96 Mn90 2.087 . S
O96 C101 1.256 . S
C97 O103 1.278 . S
C97 O104 1.241 . S
C98 O84 1.244 . S
C98 O86 1.256 . S
C99 O88 1.239 . S
C99 O92 1.256 1_565 S
C100 O89 1.278 . S
C100 O95 1.241 . S
C101 O91 1.244 . S
C101 O96 1.256 . S
C102 O93 1.239 . S
C102 O94 1.256 . S
O103 Mn85 2.221 . S
O103 Mn87 2.290 . S
O103 C97 1.278 . S
O104 Mn87 2.251 . S
O104 C97 1.241 . S
O105 Mn106 2.163 . S
O105 C119 1.244 . S
Mn106 O105 2.163 . S
Mn106 O109 2.160 . S
Mn106 O110 2.221 . S
Mn106 O112 2.163 1_545 S
Mn106 O114 2.160 . S
Mn106 O124 2.221 . S
O107 Mn108 2.087 . S
O107 C119 1.256 . S
Mn108 O107 2.087 . S
Mn108 O115 2.089 . S
Mn108 O124 2.290 . S
Mn108 O125 2.251 . S
O109 Mn106 2.160 . S
O109 C120 1.239 . S
O110 Mn106 2.221 . S
O110 Mn111 2.290 1_545 S
O110 C121 1.278 . S
Mn111 O110 2.290 1_565 S
Mn111 O113 2.089 . S
Mn111 O116 2.251 1_565 S
Mn111 O117 2.087 . S
O112 Mn106 2.163 1_565 S
O112 C122 1.244 . S
O113 Mn111 2.089 . S
O113 C120 1.256 1_565 S
O114 Mn106 2.160 . S
O114 C123 1.239 . S
O115 Mn108 2.089 . S
O115 C123 1.256 . S
O116 Mn111 2.251 1_545 S
O116 C121 1.241 . S
O117 Mn111 2.087 . S
O117 C122 1.256 . S
C118 O124 1.278 . S
C118 O125 1.241 . S
C119 O105 1.244 . S
C119 O107 1.256 . S
C120 O109 1.239 . S
C120 O113 1.256 1_545 S
C121 O110 1.278 . S
C121 O116 1.241 . S
C122 O112 1.244 . S
C122 O117 1.256 . S
C123 O114 1.239 . S
C123 O115 1.256 . S
O124 Mn106 2.221 . S
O124 Mn108 2.290 . S
O124 C118 1.278 . S
O125 Mn108 2.251 . S
O125 C118 1.241 . S
O126 Mn127 2.163 . S
O126 C140 1.244 . S
Mn127 O126 2.163 . S
Mn127 O130 2.160 . S
Mn127 O131 2.221 . S
Mn127 O133 2.163 1_545 S
Mn127 O135 2.160 . S
Mn127 O145 2.221 . S
O128 Mn129 2.087 . S
O128 C140 1.256 . S
Mn129 O128 2.087 . S
Mn129 O136 2.089 . S
Mn129 O145 2.290 . S
Mn129 O146 2.251 . S
O130 Mn127 2.160 . S
O130 C141 1.239 . S
O131 Mn127 2.221 . S
O131 Mn132 2.290 1_545 S
O131 C142 1.278 . S
Mn132 O131 2.290 1_565 S
Mn132 O134 2.089 . S
Mn132 O137 2.251 1_565 S
Mn132 O138 2.087 . S
O133 Mn127 2.163 1_565 S
O133 C143 1.244 . S
O134 Mn132 2.089 . S
O134 C141 1.256 1_565 S
O135 Mn127 2.160 . S
O135 C144 1.239 . S
O136 Mn129 2.089 . S
O136 C144 1.256 . S
O137 Mn132 2.251 1_545 S
O137 C142 1.241 . S
O138 Mn132 2.087 . S
O138 C143 1.256 . S
C139 O145 1.278 . S
C139 O146 1.241 . S
C140 O126 1.244 . S
C140 O128 1.256 . S
C141 O130 1.239 . S
C141 O134 1.256 1_545 S
C142 O131 1.278 . S
C142 O137 1.241 . S
C143 O133 1.244 . S
C143 O138 1.256 . S
C144 O135 1.239 . S
C144 O136 1.256 . S
O145 Mn127 2.221 . S
O145 Mn129 2.290 . S
O145 C139 1.278 . S
O146 Mn129 2.251 . S
O146 C139 1.241 . S
O147 Mn148 2.163 . S
O147 C161 1.244 . S
Mn148 O147 2.163 . S
Mn148 O151 2.160 . S
Mn148 O152 2.221 . S
Mn148 O154 2.163 1_565 S
Mn148 O156 2.160 . S
Mn148 O166 2.221 . S
O149 Mn150 2.087 . S
O149 C161 1.256 . S
Mn150 O149 2.087 . S
Mn150 O157 2.089 . S
Mn150 O166 2.290 . S
Mn150 O167 2.251 . S
O151 Mn148 2.160 . S
O151 C162 1.239 . S
O152 Mn148 2.221 . S
O152 Mn153 2.290 1_565 S
O152 C163 1.278 . S
Mn153 O152 2.290 1_545 S
Mn153 O155 2.089 . S
Mn153 O158 2.251 1_545 S
Mn153 O159 2.087 . S
O154 Mn148 2.163 1_545 S
O154 C164 1.244 . S
O155 Mn153 2.089 . S
O155 C162 1.256 1_545 S
O156 Mn148 2.160 . S
O156 C165 1.239 . S
O157 Mn150 2.089 . S
O157 C165 1.256 . S
O158 Mn153 2.251 1_565 S
O158 C163 1.241 . S
O159 Mn153 2.087 . S
O159 C164 1.256 . S
C160 O166 1.278 . S
C160 O167 1.241 . S
C161 O147 1.244 . S
C161 O149 1.256 . S
C162 O151 1.239 . S
C162 O155 1.256 1_565 S
C163 O152 1.278 . S
C163 O158 1.241 . S
C164 O154 1.244 . S
C164 O159 1.256 . S
C165 O156 1.239 . S
C165 O157 1.256 . S
O166 Mn148 2.221 . S
O166 Mn150 2.290 . S
O166 C160 1.278 . S
O167 Mn150 2.251 . S
O167 C160 1.241 . S
O168 Mn169 2.163 . S
O168 C182 1.244 . S
Mn169 O168 2.163 . S
Mn169 O172 2.160 . S
Mn169 O173 2.221 . S
Mn169 O175 2.163 . S
Mn169 O177 2.160 . S
Mn169 O187 2.221 . S
O170 Mn171 2.087 . S
O170 C182 1.256 . S
Mn171 O170 2.087 . S
Mn171 O178 2.089 . S
Mn171 O187 2.290 . S
Mn171 O188 2.251 . S
O172 Mn169 2.160 . S
O172 C183 1.239 . S
O173 Mn169 2.221 . S
O173 Mn174 2.290 . S
O173 C184 1.278 . S
Mn174 O173 2.290 . S
Mn174 O176 2.089 . S
Mn174 O179 2.251 . S
Mn174 O180 2.087 . S
O175 Mn169 2.163 . S
O175 C185 1.244 . S
O176 Mn174 2.089 . S
O176 C183 1.256 . S
O177 Mn169 2.160 . S
O177 C186 1.239 . S
O178 Mn171 2.089 . S
O178 C186 1.256 . S
O179 Mn174 2.251 . S
O179 C184 1.241 . S
O180 Mn174 2.087 . S
O180 C185 1.256 . S
C181 O187 1.278 . S
C181 O188 1.241 . S
C182 O168 1.244 . S
C182 O170 1.256 . S
C183 O172 1.239 . S
C183 O176 1.256 . S
C184 O173 1.278 . S
C184 O179 1.241 . S
C185 O175 1.244 . S
C185 O180 1.256 . S
C186 O177 1.239 . S
C186 O178 1.256 . S
O187 Mn169 2.221 . S
O187 Mn171 2.290 . S
O187 C181 1.278 . S
O188 Mn171 2.251 . S
O188 C181 1.241 . S
O189 Mn190 2.163 . S
O189 C203 1.244 . S
Mn190 O189 2.163 . S
Mn190 O193 2.160 . S
Mn190 O194 2.221 . S
Mn190 O196 2.163 . S
Mn190 O198 2.160 . S
Mn190 O208 2.221 . S
O191 Mn192 2.087 . S
O191 C203 1.256 . S
Mn192 O191 2.087 . S
Mn192 O199 2.089 . S
Mn192 O208 2.290 . S
Mn192 O209 2.251 . S
O193 Mn190 2.160 . S
O193 C204 1.239 . S
O194 Mn190 2.221 . S
O194 Mn195 2.290 . S
O194 C205 1.278 . S
Mn195 O194 2.290 . S
Mn195 O197 2.089 . S
Mn195 O200 2.251 . S
Mn195 O201 2.087 . S
O196 Mn190 2.163 . S
O196 C206 1.244 . S
O197 Mn195 2.089 . S
O197 C204 1.256 . S
O198 Mn190 2.160 . S
O198 C207 1.239 . S
O199 Mn192 2.089 . S
O199 C207 1.256 . S
O200 Mn195 2.251 . S
O200 C205 1.241 . S
O201 Mn195 2.087 . S
O201 C206 1.256 . S
C202 O208 1.278 . S
C202 O209 1.241 . S
C203 O189 1.244 . S
C203 O191 1.256 . S
C204 O193 1.239 . S
C204 O197 1.256 . S
C205 O194 1.278 . S
C205 O200 1.241 . S
C206 O196 1.244 . S
C206 O201 1.256 . S
C207 O198 1.239 . S
C207 O199 1.256 . S
O208 Mn190 2.221 . S
O208 Mn192 2.290 . S
O208 C202 1.278 . S
O209 Mn192 2.251 . S
O209 C202 1.241 . S
O210 Mn211 2.163 . S
O210 C224 1.244 . S
Mn211 O210 2.163 . S
Mn211 O214 2.160 . S
Mn211 O215 2.221 . S
Mn211 O217 2.163 . S
Mn211 O219 2.160 . S
Mn211 O229 2.221 . S
O212 Mn213 2.087 . S
O212 C224 1.256 . S
Mn213 O212 2.087 . S
Mn213 O220 2.089 . S
Mn213 O229 2.290 . S
Mn213 O230 2.251 . S
O214 Mn211 2.160 . S
O214 C225 1.239 . S
O215 Mn211 2.221 . S
O215 Mn216 2.290 . S
O215 C226 1.278 . S
Mn216 O215 2.290 . S
Mn216 O218 2.089 . S
Mn216 O221 2.251 . S
Mn216 O222 2.087 . S
O217 Mn211 2.163 . S
O217 C227 1.244 . S
O218 Mn216 2.089 . S
O218 C225 1.256 . S
O219 Mn211 2.160 . S
O219 C228 1.239 . S
O220 Mn213 2.089 . S
O220 C228 1.256 . S
O221 Mn216 2.251 . S
O221 C226 1.241 . S
O222 Mn216 2.087 . S
O222 C227 1.256 . S
C223 O229 1.278 . S
C223 O230 1.241 . S
C224 O210 1.244 . S
C224 O212 1.256 . S
C225 O214 1.239 . S
C225 O218 1.256 . S
C226 O215 1.278 . S
C226 O221 1.241 . S
C227 O217 1.244 . S
C227 O222 1.256 . S
C228 O219 1.239 . S
C228 O220 1.256 . S
O229 Mn211 2.221 . S
O229 Mn213 2.290 . S
O229 C223 1.278 . S
O230 Mn213 2.251 . S
O230 C223 1.241 . S
O231 Mn232 2.163 . S
O231 C245 1.244 . S
Mn232 O231 2.163 . S
Mn232 O235 2.160 . S
Mn232 O236 2.221 . S
Mn232 O238 2.163 . S
Mn232 O240 2.160 . S
Mn232 O250 2.221 . S
O233 Mn234 2.087 . S
O233 C245 1.256 . S
Mn234 O233 2.087 . S
Mn234 O241 2.089 . S
Mn234 O250 2.290 . S
Mn234 O251 2.251 . S
O235 Mn232 2.160 . S
O235 C246 1.239 . S
O236 Mn232 2.221 . S
O236 Mn237 2.290 . S
O236 C247 1.278 . S
Mn237 O236 2.290 . S
Mn237 O239 2.089 . S
Mn237 O242 2.251 . S
Mn237 O243 2.087 . S
O238 Mn232 2.163 . S
O238 C248 1.244 . S
O239 Mn237 2.089 . S
O239 C246 1.256 . S
O240 Mn232 2.160 . S
O240 C249 1.239 . S
O241 Mn234 2.089 . S
O241 C249 1.256 . S
O242 Mn237 2.251 . S
O242 C247 1.241 . S
O243 Mn237 2.087 . S
O243 C248 1.256 . S
C244 O250 1.278 . S
C244 O251 1.241 . S
C245 O231 1.244 . S
C245 O233 1.256 . S
C246 O235 1.239 . S
C246 O239 1.256 . S
C247 O236 1.278 . S
C247 O242 1.241 . S
C248 O238 1.244 . S
C248 O243 1.256 . S
C249 O240 1.239 . S
C249 O241 1.256 . S
O250 Mn232 2.221 . S
O250 Mn234 2.290 . S
O250 C244 1.278 . S
O251 Mn234 2.251 . S
O251 C244 1.241 . S
O252 Mn253 2.163 . S
O252 C266 1.244 . S
Mn253 O252 2.163 . S
Mn253 O256 2.160 . S
Mn253 O257 2.221 . S
Mn253 O259 2.163 . S
Mn253 O261 2.160 . S
Mn253 O271 2.221 . S
O254 Mn255 2.087 . S
O254 C266 1.256 . S
Mn255 O254 2.087 . S
Mn255 O262 2.089 . S
Mn255 O271 2.290 . S
Mn255 O272 2.251 . S
O256 Mn253 2.160 . S
O256 C267 1.239 . S
O257 Mn253 2.221 . S
O257 Mn258 2.290 . S
O257 C268 1.278 . S
Mn258 O257 2.290 . S
Mn258 O260 2.089 . S
Mn258 O263 2.251 . S
Mn258 O264 2.087 . S
O259 Mn253 2.163 . S
O259 C269 1.244 . S
O260 Mn258 2.089 . S
O260 C267 1.256 . S
O261 Mn253 2.160 . S
O261 C270 1.239 . S
O262 Mn255 2.089 . S
O262 C270 1.256 . S
O263 Mn258 2.251 . S
O263 C268 1.241 . S
O264 Mn258 2.087 . S
O264 C269 1.256 . S
C265 O271 1.278 . S
C265 O272 1.241 . S
C266 O252 1.244 . S
C266 O254 1.256 . S
C267 O256 1.239 . S
C267 O260 1.256 . S
C268 O257 1.278 . S
C268 O263 1.241 . S
C269 O259 1.244 . S
C269 O264 1.256 . S
C270 O261 1.239 . S
C270 O262 1.256 . S
O271 Mn253 2.221 . S
O271 Mn255 2.290 . S
O271 C265 1.278 . S
O272 Mn255 2.251 . S
O272 C265 1.241 . S
O273 Mn274 2.163 . S
O273 C287 1.244 . S
Mn274 O273 2.163 . S
Mn274 O277 2.160 . S
Mn274 O278 2.221 . S
Mn274 O280 2.163 . S
Mn274 O282 2.160 . S
Mn274 O292 2.221 . S
O275 Mn276 2.087 . S
O275 C287 1.256 . S
Mn276 O275 2.087 . S
Mn276 O283 2.089 . S
Mn276 O292 2.290 . S
Mn276 O293 2.251 . S
O277 Mn274 2.160 . S
O277 C288 1.239 . S
O278 Mn274 2.221 . S
O278 Mn279 2.290 . S
O278 C289 1.278 . S
Mn279 O278 2.290 . S
Mn279 O281 2.089 . S
Mn279 O284 2.251 . S
Mn279 O285 2.087 . S
O280 Mn274 2.163 . S
O280 C290 1.244 . S
O281 Mn279 2.089 . S
O281 C288 1.256 . S
O282 Mn274 2.160 . S
O282 C291 1.239 . S
O283 Mn276 2.089 . S
O283 C291 1.256 . S
O284 Mn279 2.251 . S
O284 C289 1.241 . S
O285 Mn279 2.087 . S
O285 C290 1.256 . S
C286 O292 1.278 . S
C286 O293 1.241 . S
C287 O273 1.244 . S
C287 O275 1.256 . S
C288 O277 1.239 . S
C288 O281 1.256 . S
C289 O278 1.278 . S
C289 O284 1.241 . S
C290 O280 1.244 . S
C290 O285 1.256 . S
C291 O282 1.239 . S
C291 O283 1.256 . S
O292 Mn274 2.221 . S
O292 Mn276 2.290 . S
O292 C286 1.278 . S
O293 Mn276 2.251 . S
O293 C286 1.241 . S
O294 Mn295 2.163 . S
O294 C308 1.244 . S
Mn295 O294 2.163 . S
Mn295 O298 2.160 . S
Mn295 O299 2.221 . S
Mn295 O301 2.163 . S
Mn295 O303 2.160 . S
Mn295 O313 2.221 . S
O296 Mn297 2.087 . S
O296 C308 1.256 . S
Mn297 O296 2.087 . S
Mn297 O304 2.089 . S
Mn297 O313 2.290 . S
Mn297 O314 2.251 . S
O298 Mn295 2.160 . S
O298 C309 1.239 . S
O299 Mn295 2.221 . S
O299 Mn300 2.290 . S
O299 C310 1.278 . S
Mn300 O299 2.290 . S
Mn300 O302 2.089 . S
Mn300 O305 2.251 . S
Mn300 O306 2.087 . S
O301 Mn295 2.163 . S
O301 C311 1.244 . S
O302 Mn300 2.089 . S
O302 C309 1.256 . S
O303 Mn295 2.160 . S
O303 C312 1.239 . S
O304 Mn297 2.089 . S
O304 C312 1.256 . S
O305 Mn300 2.251 . S
O305 C310 1.241 . S
O306 Mn300 2.087 . S
O306 C311 1.256 . S
C307 O313 1.278 . S
C307 O314 1.241 . S
C308 O294 1.244 . S
C308 O296 1.256 . S
C309 O298 1.239 . S
C309 O302 1.256 . S
C310 O299 1.278 . S
C310 O305 1.241 . S
C311 O301 1.244 . S
C311 O306 1.256 . S
C312 O303 1.239 . S
C312 O304 1.256 . S
O313 Mn295 2.221 . S
O313 Mn297 2.290 . S
O313 C307 1.278 . S
O314 Mn297 2.251 . S
O314 C307 1.241 . S
O315 Mn316 2.163 . S
O315 C329 1.244 . S
Mn316 O315 2.163 . S
Mn316 O319 2.160 . S
Mn316 O320 2.221 . S
Mn316 O322 2.163 . S
Mn316 O324 2.160 . S
Mn316 O334 2.221 . S
O317 Mn318 2.087 . S
O317 C329 1.256 . S
Mn318 O317 2.087 . S
Mn318 O325 2.089 . S
Mn318 O334 2.290 . S
Mn318 O335 2.251 . S
O319 Mn316 2.160 . S
O319 C330 1.239 . S
O320 Mn316 2.221 . S
O320 Mn321 2.290 . S
O320 C331 1.278 . S
Mn321 O320 2.290 . S
Mn321 O323 2.089 . S
Mn321 O326 2.251 . S
Mn321 O327 2.087 . S
O322 Mn316 2.163 . S
O322 C332 1.244 . S
O323 Mn321 2.089 . S
O323 C330 1.256 . S
O324 Mn316 2.160 . S
O324 C333 1.239 . S
O325 Mn318 2.089 . S
O325 C333 1.256 . S
O326 Mn321 2.251 . S
O326 C331 1.241 . S
O327 Mn321 2.087 . S
O327 C332 1.256 . S
C328 O334 1.278 . S
C328 O335 1.241 . S
C329 O315 1.244 . S
C329 O317 1.256 . S
C330 O319 1.239 . S
C330 O323 1.256 . S
C331 O320 1.278 . S
C331 O326 1.241 . S
C332 O322 1.244 . S
C332 O327 1.256 . S
C333 O324 1.239 . S
C333 O325 1.256 . S
O334 Mn316 2.221 . S
O334 Mn318 2.290 . S
O334 C328 1.278 . S
O335 Mn318 2.251 . S
O335 C328 1.241 . S
C336 C337 1.363 . S
C336 C342 1.379 . S
C336 N344 1.356 . S
C337 C336 1.363 . S
C337 C343 1.363 . S
C338 C339 1.363 . S
C338 C343 1.379 . S
C338 N345 1.356 . S
C339 C338 1.363 . S
C339 C342 1.363 . S
N340 C342 1.356 . S
N340 H352 0.984 . S
N340 H353 0.985 . S
N341 C343 1.356 . S
N341 H346 0.984 . S
N341 H347 0.985 . S
C342 C336 1.379 . S
C342 C339 1.363 . S
C342 N340 1.356 . S
C343 C337 1.363 . S
C343 C338 1.379 . S
C343 N341 1.356 . S
N344 C336 1.356 . S
N344 H350 0.984 . S
N344 H351 0.984 . S
N345 C338 1.356 . S
N345 H348 0.984 . S
N345 H349 0.985 . S
H346 N341 0.984 . S
H347 N341 0.985 . S
H348 N345 0.984 . S
H349 N345 0.985 . S
H350 N344 0.984 . S
H351 N344 0.984 . S
H352 N340 0.984 . S
H353 N340 0.985 . S
C354 C355 1.363 . S
C354 C360 1.379 . S
C354 N362 1.356 . S
C355 C354 1.363 . S
C355 C361 1.363 . S
C356 C357 1.363 . S
C356 C361 1.379 . S
C356 N363 1.356 . S
C357 C356 1.363 . S
C357 C360 1.363 . S
N358 C360 1.356 . S
N358 H370 0.984 . S
N358 H371 0.985 . S
N359 C361 1.356 . S
N359 H364 0.984 . S
N359 H365 0.985 . S
C360 C354 1.379 . S
C360 C357 1.363 . S
C360 N358 1.356 . S
C361 C355 1.363 . S
C361 C356 1.379 . S
C361 N359 1.356 . S
N362 C354 1.356 . S
N362 H368 0.984 . S
N362 H369 0.984 . S
N363 C356 1.356 . S
N363 H366 0.984 . S
N363 H367 0.985 . S
H364 N359 0.984 . S
H365 N359 0.985 . S
H366 N363 0.984 . S
H367 N363 0.985 . S
H368 N362 0.984 . S
H369 N362 0.984 . S
H370 N358 0.984 . S
H371 N358 0.985 . S
C372 C373 1.363 . S
C372 C378 1.379 . S
C372 N380 1.356 . S
C373 C372 1.363 . S
C373 C379 1.363 . S
C374 C375 1.363 . S
C374 C379 1.379 . S
C374 N381 1.356 . S
C375 C374 1.363 . S
C375 C378 1.363 . S
N376 C378 1.356 . S
N376 H388 0.984 . S
N376 H389 0.985 . S
N377 C379 1.356 . S
N377 H382 0.984 . S
N377 H383 0.985 . S
C378 C372 1.379 . S
C378 C375 1.363 . S
C378 N376 1.356 . S
C379 C373 1.363 . S
C379 C374 1.379 . S
C379 N377 1.356 . S
N380 C372 1.356 . S
N380 H386 0.984 . S
N380 H387 0.984 . S
N381 C374 1.356 . S
N381 H384 0.984 . S
N381 H385 0.985 . S
H382 N377 0.984 . S
H383 N377 0.985 . S
H384 N381 0.984 . S
H385 N381 0.985 . S
H386 N380 0.984 . S
H387 N380 0.984 . S
H388 N376 0.984 . S
H389 N376 0.985 . S
C390 C391 1.363 . S
C390 C396 1.379 . S
C390 N398 1.356 . S
C391 C390 1.363 . S
C391 C397 1.363 . S
C392 C393 1.363 . S
C392 C397 1.379 . S
C392 N399 1.356 . S
C393 C392 1.363 . S
C393 C396 1.363 . S
N394 C396 1.356 . S
N394 H406 0.984 . S
N394 H407 0.985 . S
N395 C397 1.356 . S
N395 H400 0.984 . S
N395 H401 0.985 . S
C396 C390 1.379 . S
C396 C393 1.363 . S
C396 N394 1.356 . S
C397 C391 1.363 . S
C397 C392 1.379 . S
C397 N395 1.356 . S
N398 C390 1.356 . S
N398 H404 0.984 . S
N398 H405 0.984 . S
N399 C392 1.356 . S
N399 H402 0.984 . S
N399 H403 0.985 . S
H400 N395 0.984 . S
H401 N395 0.985 . S
H402 N399 0.984 . S
H403 N399 0.985 . S
H404 N398 0.984 . S
H405 N398 0.984 . S
H406 N394 0.984 . S
H407 N394 0.985 . S
C408 C409 1.363 . S
C408 C414 1.379 . S
C408 N416 1.356 . S
C409 C408 1.363 . S
C409 C415 1.363 . S
C410 C411 1.363 . S
C410 C415 1.379 . S
C410 N417 1.356 . S
C411 C410 1.363 . S
C411 C414 1.363 . S
N412 C414 1.356 . S
N412 H424 0.984 . S
N412 H425 0.985 . S
N413 C415 1.356 . S
N413 H418 0.984 . S
N413 H419 0.985 . S
C414 C408 1.379 . S
C414 C411 1.363 . S
C414 N412 1.356 . S
C415 C409 1.363 . S
C415 C410 1.379 . S
C415 N413 1.356 . S
N416 C408 1.356 . S
N416 H422 0.984 . S
N416 H423 0.984 . S
N417 C410 1.356 . S
N417 H420 0.984 . S
N417 H421 0.985 . S
H418 N413 0.984 . S
H419 N413 0.985 . S
H420 N417 0.984 . S
H421 N417 0.985 . S
H422 N416 0.984 . S
H423 N416 0.984 . S
H424 N412 0.984 . S
H425 N412 0.985 . S
C426 C427 1.363 . S
C426 C432 1.379 . S
C426 N434 1.356 . S
C427 C426 1.363 . S
C427 C433 1.363 . S
C428 C429 1.363 . S
C428 C433 1.379 . S
C428 N435 1.356 . S
C429 C428 1.363 . S
C429 C432 1.363 . S
N430 C432 1.356 . S
N430 H442 0.984 . S
N430 H443 0.985 . S
N431 C433 1.356 . S
N431 H436 0.984 . S
N431 H437 0.985 . S
C432 C426 1.379 . S
C432 C429 1.363 . S
C432 N430 1.356 . S
C433 C427 1.363 . S
C433 C428 1.379 . S
C433 N431 1.356 . S
N434 C426 1.356 . S
N434 H440 0.984 . S
N434 H441 0.984 . S
N435 C428 1.356 . S
N435 H438 0.984 . S
N435 H439 0.985 . S
H436 N431 0.984 . S
H437 N431 0.985 . S
H438 N435 0.984 . S
H439 N435 0.985 . S
H440 N434 0.984 . S
H441 N434 0.984 . S
H442 N430 0.984 . S
H443 N430 0.985 . S
C444 C445 1.363 . S
C444 C450 1.379 . S
C444 N452 1.356 . S
C445 C444 1.363 . S
C445 C451 1.363 . S
C446 C447 1.363 . S
C446 C451 1.379 . S
C446 N453 1.356 . S
C447 C446 1.363 . S
C447 C450 1.363 . S
N448 C450 1.356 . S
N448 H460 0.984 . S
N448 H461 0.985 . S
N449 C451 1.356 . S
N449 H454 0.984 . S
N449 H455 0.985 . S
C450 C444 1.379 . S
C450 C447 1.363 . S
C450 N448 1.356 . S
C451 C445 1.363 . S
C451 C446 1.379 . S
C451 N449 1.356 . S
N452 C444 1.356 . S
N452 H458 0.984 . S
N452 H459 0.984 . S
N453 C446 1.356 . S
N453 H456 0.984 . S
N453 H457 0.985 . S
H454 N449 0.984 . S
H455 N449 0.985 . S
H456 N453 0.984 . S
H457 N453 0.985 . S
H458 N452 0.984 . S
H459 N452 0.984 . S
H460 N448 0.984 . S
H461 N448 0.985 . S
C462 C463 1.363 . S
C462 C468 1.379 . S
C462 N470 1.356 . S
C463 C462 1.363 . S
C463 C469 1.363 . S
C464 C465 1.363 . S
C464 C469 1.379 . S
C464 N471 1.356 . S
C465 C464 1.363 . S
C465 C468 1.363 . S
N466 C468 1.356 . S
N466 H478 0.984 . S
N466 H479 0.985 . S
N467 C469 1.356 . S
N467 H472 0.984 . S
N467 H473 0.985 . S
C468 C462 1.379 . S
C468 C465 1.363 . S
C468 N466 1.356 . S
C469 C463 1.363 . S
C469 C464 1.379 . S
C469 N467 1.356 . S
N470 C462 1.356 . S
N470 H476 0.984 . S
N470 H477 0.984 . S
N471 C464 1.356 . S
N471 H474 0.984 . S
N471 H475 0.985 . S
H472 N467 0.984 . S
H473 N467 0.985 . S
H474 N471 0.984 . S
H475 N471 0.985 . S
H476 N470 0.984 . S
H477 N470 0.984 . S
H478 N466 0.984 . S
H479 N466 0.985 . S
C480 C481 1.363 1_545 S
C480 C486 1.379 . S
C480 N488 1.356 . S
C481 C480 1.363 1_565 S
C481 C487 1.363 . S
C482 C483 1.363 1_565 S
C482 C487 1.379 . S
C482 N489 1.356 . S
C483 C482 1.363 1_545 S
C483 C486 1.363 . S
N484 C486 1.356 . S
N484 H496 0.984 . S
N484 H497 0.985 . S
N485 C487 1.356 . S
N485 H490 0.984 . S
N485 H491 0.985 . S
C486 C480 1.379 . S
C486 C483 1.363 . S
C486 N484 1.356 . S
C487 C481 1.363 . S
C487 C482 1.379 . S
C487 N485 1.356 . S
N488 C480 1.356 . S
N488 H494 0.984 . S
N488 H495 0.984 . S
N489 C482 1.356 . S
N489 H492 0.984 . S
N489 H493 0.985 . S
H490 N485 0.984 . S
H491 N485 0.985 . S
H492 N489 0.984 . S
H493 N489 0.985 . S
H494 N488 0.984 . S
H495 N488 0.984 . S
H496 N484 0.984 . S
H497 N484 0.985 . S
C498 C499 1.363 . S
C498 C504 1.379 . S
C498 N506 1.356 . S
C499 C498 1.363 . S
C499 C505 1.363 1_545 S
C500 C501 1.363 . S
C500 C505 1.379 . S
C500 N507 1.356 . S
C501 C500 1.363 . S
C501 C504 1.363 1_565 S
N502 C504 1.356 . S
N502 H514 0.984 . S
N502 H515 0.985 1_545 S
N503 C505 1.356 . S
N503 H508 0.984 1_565 S
N503 H509 0.985 . S
C504 C498 1.379 . S
C504 C501 1.363 1_545 S
C504 N502 1.356 . S
C505 C499 1.363 1_565 S
C505 C500 1.379 . S
C505 N503 1.356 . S
N506 C498 1.356 . S
N506 H512 0.984 . S
N506 H513 0.984 . S
N507 C500 1.356 . S
N507 H510 0.984 . S
N507 H511 0.985 . S
H508 N503 0.984 1_545 S
H509 N503 0.985 . S
H510 N507 0.984 . S
H511 N507 0.985 . S
H512 N506 0.984 . S
H513 N506 0.984 . S
H514 N502 0.984 . S
H515 N502 0.985 1_565 S
C516 C517 1.363 . S
C516 C522 1.379 . S
C516 N524 1.356 . S
C517 C516 1.363 . S
C517 C523 1.363 1_545 S
C518 C519 1.363 . S
C518 C523 1.379 . S
C518 N525 1.356 . S
C519 C518 1.363 . S
C519 C522 1.363 1_565 S
N520 C522 1.356 . S
N520 H532 0.984 . S
N520 H533 0.985 1_545 S
N521 C523 1.356 . S
N521 H526 0.984 1_565 S
N521 H527 0.985 . S
C522 C516 1.379 . S
C522 C519 1.363 1_545 S
C522 N520 1.356 . S
C523 C517 1.363 1_565 S
C523 C518 1.379 . S
C523 N521 1.356 . S
N524 C516 1.356 . S
N524 H530 0.984 . S
N524 H531 0.984 . S
N525 C518 1.356 . S
N525 H528 0.984 . S
N525 H529 0.985 . S
H526 N521 0.984 1_545 S
H527 N521 0.985 . S
H528 N525 0.984 . S
H529 N525 0.985 . S
H530 N524 0.984 . S
H531 N524 0.984 . S
H532 N520 0.984 . S
H533 N520 0.985 1_565 S
C534 C535 1.363 . S
C534 C540 1.379 . S
C534 N542 1.356 . S
C535 C534 1.363 . S
C535 C541 1.363 1_545 S
C536 C537 1.363 . S
C536 C541 1.379 . S
C536 N543 1.356 . S
C537 C536 1.363 . S
C537 C540 1.363 1_565 S
N538 C540 1.356 . S
N538 H550 0.984 . S
N538 H551 0.985 . S
N539 C541 1.356 . S
N539 H544 0.984 . S
N539 H545 0.985 . S
C540 C534 1.379 . S
C540 C537 1.363 1_545 S
C540 N538 1.356 . S
C541 C535 1.363 1_565 S
C541 C536 1.379 . S
C541 N539 1.356 . S
N542 C534 1.356 . S
N542 H548 0.984 . S
N542 H549 0.984 . S
N543 C536 1.356 . S
N543 H546 0.984 . S
N543 H547 0.985 . S
H544 N539 0.984 . S
H545 N539 0.985 . S
H546 N543 0.984 . S
H547 N543 0.985 . S
H548 N542 0.984 . S
H549 N542 0.984 . S
H550 N538 0.984 . S
H551 N538 0.985 . S
C552 C553 1.363 . S
C552 C558 1.379 . S
C552 N560 1.356 . S
C553 C552 1.363 . S
C553 C559 1.363 . S
C554 C555 1.363 . S
C554 C559 1.379 . S
C554 N561 1.356 . S
C555 C554 1.363 . S
C555 C558 1.363 . S
N556 C558 1.356 . S
N556 H568 0.984 . S
N556 H569 0.985 . S
N557 C559 1.356 . S
N557 H562 0.984 . S
N557 H563 0.985 . S
C558 C552 1.379 . S
C558 C555 1.363 . S
C558 N556 1.356 . S
C559 C553 1.363 . S
C559 C554 1.379 . S
C559 N557 1.356 . S
N560 C552 1.356 . S
N560 H566 0.984 . S
N560 H567 0.984 . S
N561 C554 1.356 . S
N561 H564 0.984 . S
N561 H565 0.985 . S
H562 N557 0.984 . S
H563 N557 0.985 . S
H564 N561 0.984 . S
H565 N561 0.985 . S
H566 N560 0.984 . S
H567 N560 0.984 . S
H568 N556 0.984 . S
H569 N556 0.985 . S
C570 C571 1.363 . S
C570 C576 1.379 . S
C570 N578 1.356 . S
C571 C570 1.363 . S
C571 C577 1.363 . S
C572 C573 1.363 . S
C572 C577 1.379 . S
C572 N579 1.356 . S
C573 C572 1.363 . S
C573 C576 1.363 . S
N574 C576 1.356 . S
N574 H586 0.984 . S
N574 H587 0.985 . S
N575 C577 1.356 . S
N575 H580 0.984 . S
N575 H581 0.985 . S
C576 C570 1.379 . S
C576 C573 1.363 . S
C576 N574 1.356 . S
C577 C571 1.363 . S
C577 C572 1.379 . S
C577 N575 1.356 . S
N578 C570 1.356 . S
N578 H584 0.984 . S
N578 H585 0.984 . S
N579 C572 1.356 . S
N579 H582 0.984 . S
N579 H583 0.985 . S
H580 N575 0.984 . S
H581 N575 0.985 . S
H582 N579 0.984 . S
H583 N579 0.985 . S
H584 N578 0.984 . S
H585 N578 0.984 . S
H586 N574 0.984 . S
H587 N574 0.985 . S
C588 C589 1.363 . S
C588 C594 1.379 . S
C588 N596 1.356 . S
C589 C588 1.363 . S
C589 C595 1.363 . S
C590 C591 1.363 . S
C590 C595 1.379 . S
C590 N597 1.356 . S
C591 C590 1.363 . S
C591 C594 1.363 . S
N592 C594 1.356 . S
N592 H604 0.984 . S
N592 H605 0.985 . S
N593 C595 1.356 . S
N593 H598 0.984 . S
N593 H599 0.985 . S
C594 C588 1.379 . S
C594 C591 1.363 . S
C594 N592 1.356 . S
C595 C589 1.363 . S
C595 C590 1.379 . S
C595 N593 1.356 . S
N596 C588 1.356 . S
N596 H602 0.984 . S
N596 H603 0.984 . S
N597 C590 1.356 . S
N597 H600 0.984 . S
N597 H601 0.985 . S
H598 N593 0.984 . S
H599 N593 0.985 . S
H600 N597 0.984 . S
H601 N597 0.985 . S
H602 N596 0.984 . S
H603 N596 0.984 . S
H604 N592 0.984 . S
H605 N592 0.985 . S
C606 C607 1.363 . S
C606 C612 1.379 . S
C606 N614 1.356 . S
C607 C606 1.363 . S
C607 C613 1.363 . S
C608 C609 1.363 . S
C608 C613 1.379 . S
C608 N615 1.356 . S
C609 C608 1.363 . S
C609 C612 1.363 . S
N610 C612 1.356 . S
N610 H622 0.984 . S
N610 H623 0.985 . S
N611 C613 1.356 . S
N611 H616 0.984 . S
N611 H617 0.985 . S
C612 C606 1.379 . S
C612 C609 1.363 . S
C612 N610 1.356 . S
C613 C607 1.363 . S
C613 C608 1.379 . S
C613 N611 1.356 . S
N614 C606 1.356 . S
N614 H620 0.984 . S
N614 H621 0.984 . S
N615 C608 1.356 . S
N615 H618 0.984 . S
N615 H619 0.985 . S
H616 N611 0.984 . S
H617 N611 0.985 . S
H618 N615 0.984 . S
H619 N615 0.985 . S
H620 N614 0.984 . S
H621 N614 0.984 . S
H622 N610 0.984 . S
H623 N610 0.985 . S
C624 C625 1.363 . S
C624 C630 1.379 1_556 S
C624 N632 1.357 1_545 S
C625 C624 1.363 . S
C625 C631 1.363 . S
C626 C627 1.363 . S
C626 C631 1.379 1_554 S
C626 N633 1.356 . S
C627 C626 1.363 . S
C627 C630 1.363 . S
N628 C630 1.357 1_565 S
N628 H640 0.984 . S
N628 H641 0.985 1_565 S
N629 C631 1.356 . S
N629 H634 0.984 . S
N629 H635 0.985 . S
C630 C624 1.379 1_554 S
C630 C627 1.363 . S
C630 N628 1.357 1_545 S
C631 C625 1.363 . S
C631 C626 1.379 1_556 S
C631 N629 1.356 . S
N632 C624 1.357 1_565 S
N632 H638 0.984 . S
N632 H639 0.985 1_565 S
N633 C626 1.356 . S
N633 H636 0.984 . S
N633 H637 0.985 . S
H634 N629 0.984 . S
H635 N629 0.985 . S
H636 N633 0.984 . S
H637 N633 0.985 . S
H638 N632 0.984 . S
H639 N632 0.985 1_545 S
H640 N628 0.984 . S
H641 N628 0.985 1_545 S
C642 C643 1.363 . S
C642 C648 1.379 1_556 S
C642 N650 1.357 1_565 S
C643 C642 1.363 . S
C643 C649 1.363 . S
C644 C645 1.363 . S
C644 C649 1.379 1_554 S
C644 N651 1.356 . S
C645 C644 1.363 . S
C645 C648 1.363 . S
N646 C648 1.357 1_545 S
N646 H658 0.984 . S
N646 H659 0.985 1_545 S
N647 C649 1.356 . S
N647 H652 0.984 . S
N647 H653 0.985 . S
C648 C642 1.379 1_554 S
C648 C645 1.363 . S
C648 N646 1.357 1_565 S
C649 C643 1.363 . S
C649 C644 1.379 1_556 S
C649 N647 1.356 . S
N650 C642 1.357 1_545 S
N650 H656 0.984 . S
N650 H657 0.985 1_545 S
N651 C644 1.356 . S
N651 H654 0.984 . S
N651 H655 0.985 . S
H652 N647 0.984 . S
H653 N647 0.985 . S
H654 N651 0.984 . S
H655 N651 0.985 . S
H656 N650 0.984 . S
H657 N650 0.985 1_565 S
H658 N646 0.984 . S
H659 N646 0.985 1_565 S
C660 C661 1.363 . S
C660 C666 1.379 . S
C660 N668 1.356 . S
C661 C660 1.363 . S
C661 C667 1.363 . S
C662 C663 1.363 . S
C662 C667 1.379 . S
C662 N669 1.357 1_565 S
C663 C662 1.363 . S
C663 C666 1.363 . S
N664 C666 1.356 . S
N664 H676 0.984 . S
N664 H677 0.985 . S
N665 C667 1.357 1_545 S
N665 H670 0.985 1_545 S
N665 H671 0.984 . S
C666 C660 1.379 . S
C666 C663 1.363 . S
C666 N664 1.356 . S
C667 C661 1.363 . S
C667 C662 1.379 . S
C667 N665 1.357 1_565 S
N668 C660 1.356 . S
N668 H674 0.984 . S
N668 H675 0.984 . S
N669 C662 1.357 1_545 S
N669 H672 0.985 1_545 S
N669 H673 0.984 . S
H670 N665 0.985 1_565 S
H671 N665 0.984 . S
H672 N669 0.985 1_565 S
H673 N669 0.984 . S
H674 N668 0.984 . S
H675 N668 0.984 . S
H676 N664 0.984 . S
H677 N664 0.985 . S
C678 C679 1.363 . S
C678 C684 1.379 . S
C678 N686 1.357 1_545 S
C679 C678 1.363 . S
C679 C685 1.363 . S
C680 C681 1.363 . S
C680 C685 1.379 . S
C680 N687 1.356 . S
C681 C680 1.363 . S
C681 C684 1.363 . S
N682 C684 1.357 1_565 S
N682 H694 0.984 . S
N682 H695 0.985 1_565 S
N683 C685 1.356 . S
N683 H688 0.984 . S
N683 H689 0.985 . S
C684 C678 1.379 . S
C684 C681 1.363 . S
C684 N682 1.357 1_545 S
C685 C679 1.363 . S
C685 C680 1.379 . S
C685 N683 1.356 . S
N686 C678 1.357 1_565 S
N686 H692 0.984 . S
N686 H693 0.985 1_565 S
N687 C680 1.356 . S
N687 H690 0.984 . S
N687 H691 0.985 . S
H688 N683 0.984 . S
H689 N683 0.985 . S
H690 N687 0.984 . S
H691 N687 0.985 . S
H692 N686 0.984 . S
H693 N686 0.985 1_545 S
H694 N682 0.984 . S
H695 N682 0.985 1_545 S
C696 C697 1.363 . S
C696 C702 1.379 1_554 S
C696 N704 1.356 . S
C697 C696 1.363 . S
C697 C703 1.363 . S
C698 C699 1.363 . S
C698 C703 1.379 1_556 S
C698 N705 1.356 . S
C699 C698 1.363 . S
C699 C702 1.363 . S
N700 C702 1.356 . S
N700 H712 0.984 . S
N700 H713 0.985 . S
N701 C703 1.356 . S
N701 H706 0.984 . S
N701 H707 0.985 . S
C702 C696 1.379 1_556 S
C702 C699 1.363 . S
C702 N700 1.356 . S
C703 C697 1.363 . S
C703 C698 1.379 1_554 S
C703 N701 1.356 . S
N704 C696 1.356 . S
N704 H710 0.984 . S
N704 H711 0.984 . S
N705 C698 1.356 . S
N705 H708 0.984 . S
N705 H709 0.985 . S
H706 N701 0.984 . S
H707 N701 0.985 . S
H708 N705 0.984 . S
H709 N705 0.985 . S
H710 N704 0.984 . S
H711 N704 0.984 . S
H712 N700 0.984 . S
H713 N700 0.985 . S
C714 C715 1.363 . S
C714 C720 1.379 1_556 S
C714 N722 1.356 . S
C715 C714 1.363 . S
C715 C721 1.363 . S
C716 C717 1.363 . S
C716 C721 1.379 1_554 S
C716 N723 1.356 . S
C717 C716 1.363 . S
C717 C720 1.363 . S
N718 C720 1.356 . S
N718 H730 0.984 . S
N718 H731 0.985 . S
N719 C721 1.356 . S
N719 H724 0.984 . S
N719 H725 0.985 . S
C720 C714 1.379 1_554 S
C720 C717 1.363 . S
C720 N718 1.356 . S
C721 C715 1.363 . S
C721 C716 1.379 1_556 S
C721 N719 1.356 . S
N722 C714 1.356 . S
N722 H728 0.984 . S
N722 H729 0.984 . S
N723 C716 1.356 . S
N723 H726 0.984 . S
N723 H727 0.985 . S
H724 N719 0.984 . S
H725 N719 0.985 . S
H726 N723 0.984 . S
H727 N723 0.985 . S
H728 N722 0.984 . S
H729 N722 0.984 . S
H730 N718 0.984 . S
H731 N718 0.985 . S
C732 C733 1.363 . S
C732 C738 1.379 . S
C732 N740 1.356 . S
C733 C732 1.363 . S
C733 C739 1.363 . S
C734 C735 1.363 . S
C734 C739 1.379 . S
C734 N741 1.356 . S
C735 C734 1.363 . S
C735 C738 1.363 . S
N736 C738 1.356 . S
N736 H748 0.984 . S
N736 H749 0.985 . S
N737 C739 1.356 . S
N737 H742 0.984 . S
N737 H743 0.985 . S
C738 C732 1.379 . S
C738 C735 1.363 . S
C738 N736 1.356 . S
C739 C733 1.363 . S
C739 C734 1.379 . S
C739 N737 1.356 . S
N740 C732 1.356 . S
N740 H746 0.984 . S
N740 H747 0.984 . S
N741 C734 1.356 . S
N741 H744 0.984 . S
N741 H745 0.985 . S
H742 N737 0.984 . S
H743 N737 0.985 . S
H744 N741 0.984 . S
H745 N741 0.985 . S
H746 N740 0.984 . S
H747 N740 0.984 . S
H748 N736 0.984 . S
H749 N736 0.985 . S
C750 C751 1.363 . S
C750 C756 1.379 . S
C750 N758 1.356 . S
C751 C750 1.363 . S
C751 C757 1.363 . S
C752 C753 1.363 . S
C752 C757 1.379 . S
C752 N759 1.356 . S
C753 C752 1.363 . S
C753 C756 1.363 . S
N754 C756 1.356 . S
N754 H766 0.984 . S
N754 H767 0.985 . S
N755 C757 1.356 . S
N755 H760 0.984 . S
N755 H761 0.985 . S
C756 C750 1.379 . S
C756 C753 1.363 . S
C756 N754 1.356 . S
C757 C751 1.363 . S
C757 C752 1.379 . S
C757 N755 1.356 . S
N758 C750 1.356 . S
N758 H764 0.984 . S
N758 H765 0.984 . S
N759 C752 1.356 . S
N759 H762 0.984 . S
N759 H763 0.985 . S
H760 N755 0.984 . S
H761 N755 0.985 . S
H762 N759 0.984 . S
H763 N759 0.985 . S
H764 N758 0.984 . S
H765 N758 0.984 . S
H766 N754 0.984 . S
H767 N754 0.985 . S
C768 C769 1.363 1_545 S
C768 C774 1.379 1_655 S
C768 N776 1.356 . S
C769 C768 1.363 1_565 S
C769 C775 1.363 . S
C770 C771 1.363 1_565 S
C770 C775 1.379 1_455 S
C770 N777 1.356 . S
C771 C770 1.363 1_545 S
C771 C774 1.363 . S
N772 C774 1.356 . S
N772 H784 0.984 . S
N772 H785 0.985 . S
N773 C775 1.356 . S
N773 H778 0.984 . S
N773 H779 0.985 . S
C774 C768 1.379 1_455 S
C774 C771 1.363 . S
C774 N772 1.356 . S
C775 C769 1.363 . S
C775 C770 1.379 1_655 S
C775 N773 1.356 . S
N776 C768 1.356 . S
N776 H782 0.984 . S
N776 H783 0.984 . S
N777 C770 1.356 . S
N777 H780 0.984 . S
N777 H781 0.985 . S
H778 N773 0.984 . S
H779 N773 0.985 . S
H780 N777 0.984 . S
H781 N777 0.985 . S
H782 N776 0.984 . S
H783 N776 0.984 . S
H784 N772 0.984 . S
H785 N772 0.985 . S
C786 C787 1.363 1_565 S
C786 C792 1.379 1_655 S
C786 N794 1.356 . S
C787 C786 1.363 1_545 S
C787 C793 1.363 . S
C788 C789 1.363 1_545 S
C788 C793 1.379 1_455 S
C788 N795 1.356 . S
C789 C788 1.363 1_565 S
C789 C792 1.363 . S
N790 C792 1.356 . S
N790 H802 0.984 . S
N790 H803 0.985 . S
N791 C793 1.356 . S
N791 H796 0.984 . S
N791 H797 0.985 . S
C792 C786 1.379 1_455 S
C792 C789 1.363 . S
C792 N790 1.356 . S
C793 C787 1.363 . S
C793 C788 1.379 1_655 S
C793 N791 1.356 . S
N794 C786 1.356 . S
N794 H800 0.984 . S
N794 H801 0.984 . S
N795 C788 1.356 . S
N795 H798 0.984 . S
N795 H799 0.985 . S
H796 N791 0.984 . S
H797 N791 0.985 . S
H798 N795 0.984 . S
H799 N795 0.985 . S
H800 N794 0.984 . S
H801 N794 0.984 . S
H802 N790 0.984 . S
H803 N790 0.985 . S
C804 C805 1.363 1_565 S
C804 C810 1.379 1_455 S
C804 N812 1.356 . S
C805 C804 1.363 1_545 S
C805 C811 1.363 . S
C806 C807 1.363 1_545 S
C806 C811 1.379 1_655 S
C806 N813 1.356 . S
C807 C806 1.363 1_565 S
C807 C810 1.363 . S
N808 C810 1.356 . S
N808 H820 0.984 . S
N808 H821 0.985 . S
N809 C811 1.356 . S
N809 H814 0.984 . S
N809 H815 0.985 . S
C810 C804 1.379 1_655 S
C810 C807 1.363 . S
C810 N808 1.356 . S
C811 C805 1.363 . S
C811 C806 1.379 1_455 S
C811 N809 1.356 . S
N812 C804 1.356 . S
N812 H818 0.984 . S
N812 H819 0.984 . S
N813 C806 1.356 . S
N813 H816 0.984 . S
N813 H817 0.985 . S
H814 N809 0.984 . S
H815 N809 0.985 . S
H816 N813 0.984 . S
H817 N813 0.985 . S
H818 N812 0.984 . S
H819 N812 0.984 . S
H820 N808 0.984 . S
H821 N808 0.985 . S
C822 C823 1.363 . S
C822 C828 1.379 1_655 S
C822 N830 1.356 . S
C823 C822 1.363 . S
C823 C829 1.363 1_545 S
C824 C825 1.363 . S
C824 C829 1.379 1_455 S
C824 N831 1.356 . S
C825 C824 1.363 . S
C825 C828 1.363 1_565 S
N826 C828 1.356 . S
N826 H838 0.984 . S
N826 H839 0.985 . S
N827 C829 1.356 . S
N827 H832 0.984 . S
N827 H833 0.985 . S
C828 C822 1.379 1_455 S
C828 C825 1.363 1_545 S
C828 N826 1.356 . S
C829 C823 1.363 1_565 S
C829 C824 1.379 1_655 S
C829 N827 1.356 . S
N830 C822 1.356 . S
N830 H836 0.984 . S
N830 H837 0.984 . S
N831 C824 1.356 . S
N831 H834 0.984 . S
N831 H835 0.985 . S
H832 N827 0.984 . S
H833 N827 0.985 . S
H834 N831 0.984 . S
H835 N831 0.985 . S
H836 N830 0.984 . S
H837 N830 0.984 . S
H838 N826 0.984 . S
H839 N826 0.985 . S
C840 C841 1.363 . S
C840 C846 1.379 . S
C840 N848 1.356 . S
C841 C840 1.363 . S
C841 C847 1.363 . S
C842 C843 1.363 . S
C842 C847 1.379 . S
C842 N849 1.356 . S
C843 C842 1.363 . S
C843 C846 1.363 . S
N844 C846 1.356 . S
N844 H856 0.984 . S
N844 H857 0.985 . S
N845 C847 1.356 . S
N845 H850 0.984 . S
N845 H851 0.985 . S
C846 C840 1.379 . S
C846 C843 1.363 . S
C846 N844 1.356 . S
C847 C841 1.363 . S
C847 C842 1.379 . S
C847 N845 1.356 . S
N848 C840 1.356 . S
N848 H854 0.984 . S
N848 H855 0.984 . S
N849 C842 1.356 . S
N849 H852 0.984 . S
N849 H853 0.985 . S
H850 N845 0.984 . S
H851 N845 0.985 . S
H852 N849 0.984 . S
H853 N849 0.985 . S
H854 N848 0.984 . S
H855 N848 0.984 . S
H856 N844 0.984 . S
H857 N844 0.985 . S
C858 C859 1.363 . S
C858 C864 1.379 . S
C858 N866 1.356 . S
C859 C858 1.363 . S
C859 C865 1.363 . S
C860 C861 1.363 . S
C860 C865 1.379 . S
C860 N867 1.356 . S
C861 C860 1.363 . S
C861 C864 1.363 . S
N862 C864 1.356 . S
N862 H874 0.984 . S
N862 H875 0.985 . S
N863 C865 1.356 . S
N863 H868 0.984 . S
N863 H869 0.985 . S
C864 C858 1.379 . S
C864 C861 1.363 . S
C864 N862 1.356 . S
C865 C859 1.363 . S
C865 C860 1.379 . S
C865 N863 1.356 . S
N866 C858 1.356 . S
N866 H872 0.984 . S
N866 H873 0.984 . S
N867 C860 1.356 . S
N867 H870 0.984 . S
N867 H871 0.985 . S
H868 N863 0.984 . S
H869 N863 0.985 . S
H870 N867 0.984 . S
H871 N867 0.985 . S
H872 N866 0.984 . S
H873 N866 0.984 . S
H874 N862 0.984 . S
H875 N862 0.985 . S
C876 C877 1.363 . S
C876 C882 1.379 . S
C876 N884 1.356 . S
C877 C876 1.363 . S
C877 C883 1.363 . S
C878 C879 1.363 . S
C878 C883 1.379 . S
C878 N885 1.356 . S
C879 C878 1.363 . S
C879 C882 1.363 . S
N880 C882 1.356 . S
N880 H892 0.984 . S
N880 H893 0.985 . S
N881 C883 1.356 . S
N881 H886 0.984 . S
N881 H887 0.985 . S
C882 C876 1.379 . S
C882 C879 1.363 . S
C882 N880 1.356 . S
C883 C877 1.363 . S
C883 C878 1.379 . S
C883 N881 1.356 . S
N884 C876 1.356 . S
N884 H890 0.984 . S
N884 H891 0.984 . S
N885 C878 1.356 . S
N885 H888 0.984 . S
N885 H889 0.985 . S
H886 N881 0.984 . S
H887 N881 0.985 . S
H888 N885 0.984 . S
H889 N885 0.985 . S
H890 N884 0.984 . S
H891 N884 0.984 . S
H892 N880 0.984 . S
H893 N880 0.985 . S
C894 C895 1.363 . S
C894 C900 1.379 . S
C894 N902 1.356 . S
C895 C894 1.363 . S
C895 C901 1.363 . S
C896 C897 1.363 . S
C896 C901 1.379 . S
C896 N903 1.356 . S
C897 C896 1.363 . S
C897 C900 1.363 . S
N898 C900 1.356 . S
N898 H910 0.984 . S
N898 H911 0.985 . S
N899 C901 1.356 . S
N899 H904 0.984 . S
N899 H905 0.985 . S
C900 C894 1.379 . S
C900 C897 1.363 . S
C900 N898 1.356 . S
C901 C895 1.363 . S
C901 C896 1.379 . S
C901 N899 1.356 . S
N902 C894 1.356 . S
N902 H908 0.984 . S
N902 H909 0.984 . S
N903 C896 1.356 . S
N903 H906 0.984 . S
N903 H907 0.985 . S
H904 N899 0.984 . S
H905 N899 0.985 . S
H906 N903 0.984 . S
H907 N903 0.985 . S
H908 N902 0.984 . S
H909 N902 0.984 . S
H910 N898 0.984 . S
H911 N898 0.985 . S
C912 C913 1.363 . S
C912 C918 1.379 . S
C912 N920 1.356 . S
C913 C912 1.363 . S
C913 C919 1.363 . S
C914 C915 1.363 . S
C914 C919 1.379 . S
C914 N921 1.356 . S
C915 C914 1.363 . S
C915 C918 1.363 . S
N916 C918 1.356 . S
N916 H928 0.984 . S
N916 H929 0.985 . S
N917 C919 1.356 . S
N917 H922 0.984 . S
N917 H923 0.985 . S
C918 C912 1.379 . S
C918 C915 1.363 . S
C918 N916 1.356 . S
C919 C913 1.363 . S
C919 C914 1.379 . S
C919 N917 1.356 . S
N920 C912 1.356 . S
N920 H926 0.984 . S
N920 H927 0.984 . S
N921 C914 1.356 . S
N921 H924 0.984 . S
N921 H925 0.985 . S
H922 N917 0.984 . S
H923 N917 0.985 . S
H924 N921 0.984 . S
H925 N921 0.985 . S
H926 N920 0.984 . S
H927 N920 0.984 . S
H928 N916 0.984 . S
H929 N916 0.985 . S
C930 C931 1.363 . S
C930 C936 1.379 . S
C930 N938 1.356 . S
C931 C930 1.363 . S
C931 C937 1.363 . S
C932 C933 1.363 . S
C932 C937 1.379 . S
C932 N939 1.356 . S
C933 C932 1.363 . S
C933 C936 1.363 . S
N934 C936 1.356 . S
N934 H946 0.984 . S
N934 H947 0.985 . S
N935 C937 1.356 . S
N935 H940 0.984 . S
N935 H941 0.985 . S
C936 C930 1.379 . S
C936 C933 1.363 . S
C936 N934 1.356 . S
C937 C931 1.363 . S
C937 C932 1.379 . S
C937 N935 1.356 . S
N938 C930 1.356 . S
N938 H944 0.984 . S
N938 H945 0.984 . S
N939 C932 1.356 . S
N939 H942 0.984 . S
N939 H943 0.985 . S
H940 N935 0.984 . S
H941 N935 0.985 . S
H942 N939 0.984 . S
H943 N939 0.985 . S
H944 N938 0.984 . S
H945 N938 0.984 . S
H946 N934 0.984 . S
H947 N934 0.985 . S
C948 C949 1.363 . S
C948 C954 1.379 . S
C948 N956 1.356 . S
C949 C948 1.363 . S
C949 C955 1.363 . S
C950 C951 1.363 . S
C950 C955 1.379 . S
C950 N957 1.356 . S
C951 C950 1.363 . S
C951 C954 1.363 . S
N952 C954 1.356 . S
N952 H964 0.984 . S
N952 H965 0.985 . S
N953 C955 1.356 . S
N953 H958 0.984 . S
N953 H959 0.985 . S
C954 C948 1.379 . S
C954 C951 1.363 . S
C954 N952 1.356 . S
C955 C949 1.363 . S
C955 C950 1.379 . S
C955 N953 1.356 . S
N956 C948 1.356 . S
N956 H962 0.984 . S
N956 H963 0.984 . S
N957 C950 1.356 . S
N957 H960 0.984 . S
N957 H961 0.985 . S
H958 N953 0.984 . S
H959 N953 0.985 . S
H960 N957 0.984 . S
H961 N957 0.985 . S
H962 N956 0.984 . S
H963 N956 0.984 . S
H964 N952 0.984 . S
H965 N952 0.985 . S
C966 C967 1.363 . S
C966 C972 1.379 . S
C966 N974 1.356 . S
C967 C966 1.363 . S
C967 C973 1.363 . S
C968 C969 1.363 . S
C968 C973 1.379 . S
C968 N975 1.356 . S
C969 C968 1.363 . S
C969 C972 1.363 . S
N970 C972 1.356 . S
N970 H982 0.984 . S
N970 H983 0.985 . S
N971 C973 1.356 . S
N971 H976 0.984 . S
N971 H977 0.985 . S
C972 C966 1.379 . S
C972 C969 1.363 . S
C972 N970 1.356 . S
C973 C967 1.363 . S
C973 C968 1.379 . S
C973 N971 1.356 . S
N974 C966 1.356 . S
N974 H980 0.984 . S
N974 H981 0.984 . S
N975 C968 1.356 . S
N975 H978 0.984 . S
N975 H979 0.985 . S
H976 N971 0.984 . S
H977 N971 0.985 . S
H978 N975 0.984 . S
H979 N975 0.985 . S
H980 N974 0.984 . S
H981 N974 0.984 . S
H982 N970 0.984 . S
H983 N970 0.985 . S
C984 C985 1.363 . S
C984 C990 1.379 . S
C984 N992 1.356 . S
C985 C984 1.363 . S
C985 C991 1.363 . S
C986 C987 1.363 . S
C986 C991 1.379 . S
C986 N993 1.356 . S
C987 C986 1.363 . S
C987 C990 1.363 . S
N988 C990 1.356 . S
N988 H1000 0.984 . S
N988 H1001 0.985 . S
N989 C991 1.356 . S
N989 H994 0.984 . S
N989 H995 0.985 . S
C990 C984 1.379 . S
C990 C987 1.363 . S
C990 N988 1.356 . S
C991 C985 1.363 . S
C991 C986 1.379 . S
C991 N989 1.356 . S
N992 C984 1.356 . S
N992 H998 0.984 . S
N992 H999 0.984 . S
N993 C986 1.356 . S
N993 H996 0.984 . S
N993 H997 0.985 . S
H994 N989 0.984 . S
H995 N989 0.985 . S
H996 N993 0.984 . S
H997 N993 0.985 . S
H998 N992 0.984 . S
H999 N992 0.984 . S
H1000 N988 0.984 . S
H1001 N988 0.985 . S
C1002 C1003 1.363 . S
C1002 C1008 1.379 . S
C1002 N1010 1.356 . S
C1003 C1002 1.363 . S
C1003 C1009 1.363 . S
C1004 C1005 1.363 . S
C1004 C1009 1.379 . S
C1004 N1011 1.356 . S
C1005 C1004 1.363 . S
C1005 C1008 1.363 . S
N1006 C1008 1.356 . S
N1006 H1018 0.984 . S
N1006 H1019 0.985 . S
N1007 C1009 1.356 . S
N1007 H1012 0.984 . S
N1007 H1013 0.985 . S
C1008 C1002 1.379 . S
C1008 C1005 1.363 . S
C1008 N1006 1.356 . S
C1009 C1003 1.363 . S
C1009 C1004 1.379 . S
C1009 N1007 1.356 . S
N1010 C1002 1.356 . S
N1010 H1016 0.984 . S
N1010 H1017 0.984 . S
N1011 C1004 1.356 . S
N1011 H1014 0.984 . S
N1011 H1015 0.985 . S
H1012 N1007 0.984 . S
H1013 N1007 0.985 . S
H1014 N1011 0.984 . S
H1015 N1011 0.985 . S
H1016 N1010 0.984 . S
H1017 N1010 0.984 . S
H1018 N1006 0.984 . S
H1019 N1006 0.985 . S
C1020 C1021 1.363 . S
C1020 C1026 1.379 . S
C1020 N1028 1.356 . S
C1021 C1020 1.363 . S
C1021 C1027 1.363 . S
C1022 C1023 1.363 . S
C1022 C1027 1.379 . S
C1022 N1029 1.356 . S
C1023 C1022 1.363 . S
C1023 C1026 1.363 . S
N1024 C1026 1.356 . S
N1024 H1036 0.984 . S
N1024 H1037 0.985 . S
N1025 C1027 1.356 . S
N1025 H1030 0.984 . S
N1025 H1031 0.985 . S
C1026 C1020 1.379 . S
C1026 C1023 1.363 . S
C1026 N1024 1.356 . S
C1027 C1021 1.363 . S
C1027 C1022 1.379 . S
C1027 N1025 1.356 . S
N1028 C1020 1.356 . S
N1028 H1034 0.984 . S
N1028 H1035 0.984 . S
N1029 C1022 1.356 . S
N1029 H1032 0.984 . S
N1029 H1033 0.985 . S
H1030 N1025 0.984 . S
H1031 N1025 0.985 . S
H1032 N1029 0.984 . S
H1033 N1029 0.985 . S
H1034 N1028 0.984 . S
H1035 N1028 0.984 . S
H1036 N1024 0.984 . S
H1037 N1024 0.985 . S
C1038 C1039 1.363 . S
C1038 C1044 1.379 . S
C1038 N1046 1.356 . S
C1039 C1038 1.363 . S
C1039 C1045 1.363 . S
C1040 C1041 1.363 . S
C1040 C1045 1.379 . S
C1040 N1047 1.356 . S
C1041 C1040 1.363 . S
C1041 C1044 1.363 . S
N1042 C1044 1.356 . S
N1042 H1054 0.984 . S
N1042 H1055 0.985 . S
N1043 C1045 1.356 . S
N1043 H1048 0.984 . S
N1043 H1049 0.985 . S
C1044 C1038 1.379 . S
C1044 C1041 1.363 . S
C1044 N1042 1.356 . S
C1045 C1039 1.363 . S
C1045 C1040 1.379 . S
C1045 N1043 1.356 . S
N1046 C1038 1.356 . S
N1046 H1052 0.984 . S
N1046 H1053 0.984 . S
N1047 C1040 1.356 . S
N1047 H1050 0.984 . S
N1047 H1051 0.985 . S
H1048 N1043 0.984 . S
H1049 N1043 0.985 . S
H1050 N1047 0.984 . S
H1051 N1047 0.985 . S
H1052 N1046 0.984 . S
H1053 N1046 0.984 . S
H1054 N1042 0.984 . S
H1055 N1042 0.985 . S
C1056 C1057 1.363 . S
C1056 C1062 1.379 . S
C1056 N1064 1.356 1_545 S
C1057 C1056 1.363 . S
C1057 C1063 1.363 . S
C1058 C1059 1.363 . S
C1058 C1063 1.379 . S
C1058 N1065 1.356 . S
C1059 C1058 1.363 . S
C1059 C1062 1.363 . S
N1060 C1062 1.356 . S
N1060 H1072 0.984 . S
N1060 H1073 0.985 . S
N1061 C1063 1.356 1_565 S
N1061 H1066 0.984 . S
N1061 H1067 0.985 . S
C1062 C1056 1.379 . S
C1062 C1059 1.363 . S
C1062 N1060 1.356 . S
C1063 C1057 1.363 . S
C1063 C1058 1.379 . S
C1063 N1061 1.356 1_545 S
N1064 C1056 1.356 1_565 S
N1064 H1070 0.984 1_565 S
N1064 H1071 0.984 . S
N1065 C1058 1.356 . S
N1065 H1068 0.984 . S
N1065 H1069 0.985 . S
H1066 N1061 0.984 . S
H1067 N1061 0.985 . S
H1068 N1065 0.984 . S
H1069 N1065 0.985 . S
H1070 N1064 0.984 1_545 S
H1071 N1064 0.984 . S
H1072 N1060 0.984 . S
H1073 N1060 0.985 . S
C1074 C1075 1.363 . S
C1074 C1080 1.379 . S
C1074 N1082 1.356 . S
C1075 C1074 1.363 . S
C1075 C1081 1.363 . S
C1076 C1077 1.363 . S
C1076 C1081 1.379 . S
C1076 N1083 1.356 1_565 S
C1077 C1076 1.363 . S
C1077 C1080 1.363 . S
N1078 C1080 1.356 1_545 S
N1078 H1090 0.984 . S
N1078 H1091 0.985 . S
N1079 C1081 1.356 . S
N1079 H1084 0.984 . S
N1079 H1085 0.985 . S
C1080 C1074 1.379 . S
C1080 C1077 1.363 . S
C1080 N1078 1.356 1_565 S
C1081 C1075 1.363 . S
C1081 C1076 1.379 . S
C1081 N1079 1.356 . S
N1082 C1074 1.356 . S
N1082 H1088 0.984 . S
N1082 H1089 0.984 . S
N1083 C1076 1.356 1_545 S
N1083 H1086 0.984 . S
N1083 H1087 0.985 1_545 S
H1084 N1079 0.984 . S
H1085 N1079 0.985 . S
H1086 N1083 0.984 . S
H1087 N1083 0.985 1_565 S
H1088 N1082 0.984 . S
H1089 N1082 0.984 . S
H1090 N1078 0.984 . S
H1091 N1078 0.985 . S
C1092 C1093 1.363 . S
C1092 C1098 1.379 . S
C1092 N1100 1.356 1_565 S
C1093 C1092 1.363 . S
C1093 C1099 1.363 . S
C1094 C1095 1.363 . S
C1094 C1099 1.379 . S
C1094 N1101 1.356 . S
C1095 C1094 1.363 . S
C1095 C1098 1.363 . S
N1096 C1098 1.356 . S
N1096 H1108 0.984 . S
N1096 H1109 0.985 . S
N1097 C1099 1.356 1_545 S
N1097 H1102 0.984 . S
N1097 H1103 0.985 1_545 S
C1098 C1092 1.379 . S
C1098 C1095 1.363 . S
C1098 N1096 1.356 . S
C1099 C1093 1.363 . S
C1099 C1094 1.379 . S
C1099 N1097 1.356 1_565 S
N1100 C1092 1.356 1_545 S
N1100 H1106 0.984 . S
N1100 H1107 0.984 . S
N1101 C1094 1.356 . S
N1101 H1104 0.984 . S
N1101 H1105 0.985 . S
H1102 N1097 0.984 . S
H1103 N1097 0.985 1_565 S
H1104 N1101 0.984 . S
H1105 N1101 0.985 . S
H1106 N1100 0.984 . S
H1107 N1100 0.984 . S
H1108 N1096 0.984 . S
H1109 N1096 0.985 . S
C1110 C1111 1.363 . S
C1110 C1116 1.379 . S
C1110 N1118 1.356 1_545 S
C1111 C1110 1.363 . S
C1111 C1117 1.363 . S
C1112 C1113 1.363 . S
C1112 C1117 1.379 . S
C1112 N1119 1.356 . S
C1113 C1112 1.363 . S
C1113 C1116 1.363 . S
N1114 C1116 1.356 . S
N1114 H1126 0.984 . S
N1114 H1127 0.985 . S
N1115 C1117 1.356 1_565 S
N1115 H1120 0.984 . S
N1115 H1121 0.985 1_565 S
C1116 C1110 1.379 . S
C1116 C1113 1.363 . S
C1116 N1114 1.356 . S
C1117 C1111 1.363 . S
C1117 C1112 1.379 . S
C1117 N1115 1.356 1_545 S
N1118 C1110 1.356 1_565 S
N1118 H1124 0.984 . S
N1118 H1125 0.984 . S
N1119 C1112 1.356 . S
N1119 H1122 0.984 . S
N1119 H1123 0.985 . S
H1120 N1115 0.984 . S
H1121 N1115 0.985 1_545 S
H1122 N1119 0.984 . S
H1123 N1119 0.985 . S
H1124 N1118 0.984 . S
H1125 N1118 0.984 . S
H1126 N1114 0.984 . S
H1127 N1114 0.985 . S
C1128 C1129 1.363 . S
C1128 C1134 1.379 . S
C1128 N1136 1.356 . S
C1129 C1128 1.363 . S
C1129 C1135 1.363 . S
C1130 C1131 1.363 . S
C1130 C1135 1.379 . S
C1130 N1137 1.356 1_565 S
C1131 C1130 1.363 . S
C1131 C1134 1.363 . S
N1132 C1134 1.356 1_545 S
N1132 H1144 0.984 1_545 S
N1132 H1145 0.985 . S
N1133 C1135 1.356 . S
N1133 H1138 0.984 . S
N1133 H1139 0.985 . S
C1134 C1128 1.379 . S
C1134 C1131 1.363 . S
C1134 N1132 1.356 1_565 S
C1135 C1129 1.363 . S
C1135 C1130 1.379 . S
C1135 N1133 1.356 . S
N1136 C1128 1.356 . S
N1136 H1142 0.984 . S
N1136 H1143 0.984 . S
N1137 C1130 1.356 1_545 S
N1137 H1140 0.984 . S
N1137 H1141 0.986 . S
H1138 N1133 0.984 . S
H1139 N1133 0.985 . S
H1140 N1137 0.984 . S
H1141 N1137 0.986 . S
H1142 N1136 0.984 . S
H1143 N1136 0.984 . S
H1144 N1132 0.984 1_565 S
H1145 N1132 0.985 . S
C1146 C1147 1.363 . S
C1146 C1152 1.379 . S
C1146 N1154 1.356 . S
C1147 C1146 1.363 . S
C1147 C1153 1.363 . S
C1148 C1149 1.363 . S
C1148 C1153 1.379 . S
C1148 N1155 1.356 1_545 S
C1149 C1148 1.363 . S
C1149 C1152 1.363 . S
N1150 C1152 1.356 1_565 S
N1150 H1162 0.984 . S
N1150 H1163 0.985 . S
N1151 C1153 1.356 . S
N1151 H1156 0.984 . S
N1151 H1157 0.985 . S
C1152 C1146 1.379 . S
C1152 C1149 1.363 . S
C1152 N1150 1.356 1_545 S
C1153 C1147 1.363 . S
C1153 C1148 1.379 . S
C1153 N1151 1.356 . S
N1154 C1146 1.356 . S
N1154 H1160 0.984 . S
N1154 H1161 0.984 . S
N1155 C1148 1.356 1_565 S
N1155 H1158 0.984 . S
N1155 H1159 0.985 1_565 S
H1156 N1151 0.984 . S
H1157 N1151 0.985 . S
H1158 N1155 0.984 . S
H1159 N1155 0.985 1_545 S
H1160 N1154 0.984 . S
H1161 N1154 0.984 . S
H1162 N1150 0.984 . S
H1163 N1150 0.985 . S
C1164 C1165 1.363 . S
C1164 C1170 1.379 . S
C1164 N1172 1.356 1_545 S
C1165 C1164 1.363 . S
C1165 C1171 1.363 . S
C1166 C1167 1.363 . S
C1166 C1171 1.379 . S
C1166 N1173 1.356 . S
C1167 C1166 1.363 . S
C1167 C1170 1.363 . S
N1168 C1170 1.356 . S
N1168 H1180 0.984 . S
N1168 H1181 0.985 . S
N1169 C1171 1.356 1_565 S
N1169 H1174 0.984 . S
N1169 H1175 0.985 1_565 S
C1170 C1164 1.379 . S
C1170 C1167 1.363 . S
C1170 N1168 1.356 . S
C1171 C1165 1.363 . S
C1171 C1166 1.379 . S
C1171 N1169 1.356 1_545 S
N1172 C1164 1.356 1_565 S
N1172 H1178 0.984 . S
N1172 H1179 0.984 . S
N1173 C1166 1.356 . S
N1173 H1176 0.984 . S
N1173 H1177 0.985 . S
H1174 N1169 0.984 . S
H1175 N1169 0.985 1_545 S
H1176 N1173 0.984 . S
H1177 N1173 0.985 . S
H1178 N1172 0.984 . S
H1179 N1172 0.984 . S
H1180 N1168 0.984 . S
H1181 N1168 0.985 . S
C1182 C1183 1.363 . S
C1182 C1188 1.379 . S
C1182 N1190 1.356 . S
C1183 C1182 1.363 . S
C1183 C1189 1.363 . S
C1184 C1185 1.363 . S
C1184 C1189 1.379 . S
C1184 N1191 1.356 1_565 S
C1185 C1184 1.363 . S
C1185 C1188 1.363 . S
N1186 C1188 1.356 1_545 S
N1186 H1198 0.984 1_545 S
N1186 H1199 0.985 . S
N1187 C1189 1.356 . S
N1187 H1192 0.984 . S
N1187 H1193 0.985 . S
C1188 C1182 1.379 . S
C1188 C1185 1.363 . S
C1188 N1186 1.356 1_565 S
C1189 C1183 1.363 . S
C1189 C1184 1.379 . S
C1189 N1187 1.356 . S
N1190 C1182 1.356 . S
N1190 H1196 0.984 . S
N1190 H1197 0.984 . S
N1191 C1184 1.356 1_545 S
N1191 H1194 0.984 . S
N1191 H1195 0.985 . S
H1192 N1187 0.984 . S
H1193 N1187 0.985 . S
H1194 N1191 0.984 . S
H1195 N1191 0.985 . S
H1196 N1190 0.984 . S
H1197 N1190 0.984 . S
H1198 N1186 0.984 1_565 S
H1199 N1186 0.985 . S
C337 C17 1.448 . S
C339 C203 1.448 . S
C355 C35 1.448 . S
C357 C185 1.448 . S
C373 C245 1.448 . S
C375 C56 1.448 . S
C391 C77 1.448 . S
C393 C224 1.448 . S
C409 C287 1.448 . S
C411 C98 1.448 . S
C427 C266 1.448 . S
C429 C119 1.448 . S
C445 C329 1.448 . S
C447 C140 1.448 . S
C463 C161 1.448 . S
C465 C308 1.448 . S
C481 C55 1.343 . S
C483 C16 1.343 . S
C499 C76 1.343 . S
C501 C34 1.343 . S
C517 C139 1.343 . S
C519 C97 1.343 . S
C535 C118 1.343 . S
C537 C160 1.343 . S
C553 C223 1.343 . S
C555 C184 1.343 . S
C571 C244 1.343 . S
C573 C202 1.343 . S
C589 C265 1.343 . S
C591 C307 1.343 . S
C607 C286 1.343 . S
C609 C328 1.343 . S
C625 C121 1.296 . S
C627 C13 1.296 . S
C643 C100 1.296 . S
C645 C37 1.296 . S
C661 C58 1.296 . S
C663 C163 1.296 . S
C679 C142 1.296 . S
C681 C79 1.296 . S
C697 C181 1.296 . S
C699 C289 1.296 . S
C715 C268 1.296 . S
C717 C205 1.296 . S
C733 C226 1.296 . S
C735 C331 1.296 . S
C751 C310 1.296 . S
C753 C247 1.296 . S
C769 C36 1.446 . S
C771 C18 1.446 . S
C787 C78 1.446 . S
C789 C57 1.446 . S
C805 C120 1.446 . S
C807 C99 1.446 . S
C823 C141 1.446 . S
C825 C162 1.446 . S
C841 C204 1.446 . S
C843 C186 1.446 . S
C859 C246 1.446 . S
C861 C225 1.446 . S
C877 C267 1.446 . S
C879 C288 1.446 . S
C895 C309 1.446 . S
C897 C330 1.446 . S
C913 C14 1.394 . S
C915 C15 1.391 . S
C931 C38 1.394 . S
C933 C39 1.391 . S
C949 C59 1.394 . S
C951 C60 1.391 . S
C967 C81 1.391 . S
C969 C80 1.394 . S
C985 C101 1.394 . S
C987 C102 1.391 . S
C1003 C123 1.391 . S
C1005 C122 1.394 . S
C1021 C143 1.394 . S
C1023 C144 1.391 . S
C1039 C164 1.394 . S
C1041 C165 1.391 . S
C1057 C183 1.391 1_545 S
C1059 C182 1.394 . S
C1075 C206 1.394 . S
C1077 C207 1.391 1_565 S
C1093 C228 1.391 1_565 S
C1095 C227 1.394 . S
C1111 C249 1.391 1_545 S
C1113 C248 1.394 . S
C1129 C269 1.394 . S
C1131 C270 1.391 1_565 S
C1147 C290 1.394 . S
C1149 C291 1.391 1_545 S
C1165 C312 1.391 1_545 S
C1167 C311 1.394 . S
C1183 C332 1.394 . S
C1185 C333 1.391 1_565 S
