# Generated by pormake.
# Topology mdf, (4)-cn, num edge types: 1
# Building blocks:
#     Node 0, Type 0, BuildingBlock: NAHDIM_clean_sbu_0, # of connection points: 4
#     Node 1, Type 0, BuildingBlock: NAHDIM_clean_sbu_0, # of connection points: 4
#     Node 2, Type 0, BuildingBlock: NAHDIM_clean_sbu_0, # of connection points: 4
#     Node 3, Type 0, BuildingBlock: NAHDIM_clean_sbu_0, # of connection points: 4
#     Node 4, Type 0, BuildingBlock: NAHDIM_clean_sbu_0, # of connection points: 4
#     Node 5, Type 0, BuildingBlock: NAHDIM_clean_sbu_0, # of connection points: 4
#     Node 6, Type 0, BuildingBlock: NAHDIM_clean_sbu_0, # of connection points: 4
#     Node 7, Type 0, BuildingBlock: NAHDIM_clean_sbu_0, # of connection points: 4
#     Edge 8, Type (0, 0), BuildingBlock: MIFKUJ_clean_linker_0, # of connection points: 2
#     Edge 9, Type (0, 0), BuildingBlock: MIFKUJ_clean_linker_0, # of connection points: 2
#     Edge 10, Type (0, 0), BuildingBlock: MIFKUJ_clean_linker_0, # of connection points: 2
#     Edge 11, Type (0, 0), BuildingBlock: MIFKUJ_clean_linker_0, # of connection points: 2
#     Edge 12, Type (0, 0), BuildingBlock: MIFKUJ_clean_linker_0, # of connection points: 2
#     Edge 13, Type (0, 0), BuildingBlock: MIFKUJ_clean_linker_0, # of connection points: 2
#     Edge 14, Type (0, 0), BuildingBlock: MIFKUJ_clean_linker_0, # of connection points: 2
#     Edge 15, Type (0, 0), BuildingBlock: MIFKUJ_clean_linker_0, # of connection points: 2
#     Edge 16, Type (0, 0), BuildingBlock: MIFKUJ_clean_linker_0, # of connection points: 2
#     Edge 17, Type (0, 0), BuildingBlock: MIFKUJ_clean_linker_0, # of connection points: 2
#     Edge 18, Type (0, 0), BuildingBlock: MIFKUJ_clean_linker_0, # of connection points: 2
#     Edge 19, Type (0, 0), BuildingBlock: MIFKUJ_clean_linker_0, # of connection points: 2
#     Edge 20, Type (0, 0), BuildingBlock: MIFKUJ_clean_linker_0, # of connection points: 2
#     Edge 21, Type (0, 0), BuildingBlock: MIFKUJ_clean_linker_0, # of connection points: 2
#     Edge 22, Type (0, 0), BuildingBlock: MIFKUJ_clean_linker_0, # of connection points: 2
#     Edge 23, Type (0, 0), BuildingBlock: MIFKUJ_clean_linker_0, # of connection points: 2
# Relax obj value: 0.051
# Max RMSD: 0.056
# Mean RMSD: 0.056
data_MOF--net-mdf--node1-NAHDIM_clean_sbu_0--edge1-MIFKUJ_clean_linker_0
_symmetry_space_group_name_H-M    P1
_symmetry_Int_Tables_number       1
_symmetry_cell_setting            triclinic
loop_
_symmetry_equiv_pos_as_xyz
'x, y, z'
_cell_length_a     45.490405
_cell_length_b     45.485337
_cell_length_c     19.191888
_cell_angle_alpha  90.006027
_cell_angle_beta   90.005862
_cell_angle_gamma 95.043062
loop_
_atom_site_label
_atom_site_type_symbol
_atom_site_fract_x
_atom_site_fract_y
_atom_site_fract_z
_atom_type_partial_charge
C0 C 0.25151 0.60651 0.48302 0.0
O1 O 0.27172 0.61935 0.44155 0.0
O2 O 0.27491 0.58141 0.31977 0.0
Zn3 Zn 0.25792 0.55498 0.3961 0.0
O4 O 0.22476 0.52668 0.3591 0.0
C5 C 0.30188 0.51461 0.3884 0.0
O6 O 0.29192 0.51332 0.32409 0.0
O7 O 0.24271 0.57948 0.47343 0.0
C8 C 0.21732 0.50331 0.39351 0.0
O9 O 0.23114 0.49865 0.45208 0.0
C10 C 0.26 0.59376 0.27399 0.0
O11 O 0.23108 0.58924 0.27441 0.0
O12 O 0.2905 0.53154 0.43154 0.0
C13 C 0.40916 0.76837 0.51934 0.0
O14 O 0.40112 0.7731 0.58384 0.0
O15 O 0.43011 0.73123 0.66777 0.0
Zn16 Zn 0.45743 0.74352 0.58828 0.0
O17 O 0.48635 0.77772 0.61794 0.0
C18 C 0.47503 0.68302 0.57946 0.0
O19 O 0.45363 0.6768 0.62447 0.0
O20 O 0.43282 0.75616 0.50826 0.0
C21 C 0.51147 0.77295 0.64253 0.0
O22 O 0.51837 0.74561 0.64824 0.0
C23 C 0.43921 0.72872 0.72987 0.0
O24 O 0.46747 0.73413 0.74331 0.0
O25 O 0.48 0.70935 0.55724 0.0
C26 C 0.2632 0.90094 0.95612 0.0
O27 O 0.27163 0.89683 0.89162 0.0
O28 O 0.22272 0.91555 0.80888 0.0
Zn29 Zn 0.23401 0.94447 0.88588 0.0
O30 O 0.2683 0.97307 0.85572 0.0
C31 C 0.17258 0.95925 0.90251 0.0
O32 O 0.16527 0.93247 0.87901 0.0
O33 O 0.24633 0.92117 0.96857 0.0
C34 C 0.27382 0.99675 0.89038 0.0
O35 O 0.25746 0.00144 0.94501 0.0
C36 C 0.22553 0.92205 0.74474 0.0
O37 O 0.23547 0.949 0.72694 0.0
O38 O 0.19972 0.96805 0.91001 0.0
C39 C 0.07498 0.72598 0.00265 0.0
O40 O 0.06378 0.70607 0.04707 0.0
O41 O 0.06662 0.77659 0.16475 0.0
Zn42 Zn 0.04074 0.76324 0.0841 0.0
O43 O 0.01242 0.72876 0.11359 0.0
C44 C 0.02981 0.82235 0.04173 0.0
O45 O 0.05869 0.8269 0.04557 0.0
O46 O 0.06751 0.75218 0.00676 0.0
C47 C 0.99502 0.73239 0.16409 0.0
O48 O 0.99604 0.75833 0.19457 0.0
C49 C 0.07591 0.75867 0.2087 0.0
O50 O 0.06779 0.73035 0.2028 0.0
O51 O 0.01748 0.79677 0.05475 0.0
C52 C 0.72794 0.08971 0.97187 0.0
O53 O 0.71509 0.08866 0.91048 0.0
O54 O 0.77877 0.08207 0.82378 0.0
Zn55 Zn 0.76524 0.05336 0.89935 0.0
O56 O 0.73194 0.02493 0.86303 0.0
C57 C 0.82617 0.04098 0.92961 0.0
O58 O 0.83266 0.069 0.91479 0.0
O59 O 0.75071 0.07583 0.98086 0.0
C60 C 0.72912 0.99844 0.88489 0.0
O61 O 0.74788 0.99006 0.93136 0.0
C62 C 0.79098 0.07229 0.77007 0.0
O63 O 0.79371 0.04383 0.76533 0.0
O64 O 0.79937 0.03032 0.92761 0.0
C65 C 0.92435 0.27511 0.99851 0.0
O66 O 0.93759 0.2956 0.03866 0.0
O67 O 0.93868 0.22236 0.1628 0.0
Zn68 Zn 0.96037 0.23828 0.07773 0.0
O69 O 0.98779 0.27385 0.10509 0.0
C70 C 0.97281 0.18125 0.02517 0.0
O71 O 0.94398 0.17607 0.02926 0.0
O72 O 0.93077 0.24863 0.00511 0.0
C73 C 0.00426 0.27193 0.15815 0.0
O74 O 0.00293 0.24694 0.19283 0.0
C75 C 0.92566 0.23844 0.20495 0.0
O76 O 0.92582 0.26687 0.1927 0.0
O77 O 0.98471 0.20662 0.04178 0.0
C78 C 0.74482 0.39904 0.4933 0.0
O79 O 0.72706 0.38612 0.44637 0.0
O80 O 0.72838 0.42501 0.32418 0.0
Zn81 Zn 0.74088 0.45105 0.40603 0.0
O82 O 0.77499 0.48029 0.37816 0.0
C83 C 0.69858 0.49386 0.39574 0.0
O84 O 0.714 0.50078 0.33929 0.0
O85 O 0.75327 0.42631 0.48666 0.0
C86 C 0.78096 0.50417 0.41175 0.0
O87 O 0.76499 0.50957 0.46657 0.0
C88 C 0.73487 0.43197 0.26151 0.0
O89 O 0.75106 0.45675 0.24883 0.0
O90 O 0.70603 0.47296 0.4341 0.0
C91 C 0.58769 0.23382 0.53147 0.0
O92 O 0.5977 0.23285 0.59556 0.0
O93 O 0.56825 0.27606 0.67419 0.0
Zn94 Zn 0.5397 0.25901 0.6009 0.0
O95 O 0.5123 0.22496 0.6377 0.0
C96 C 0.5107 0.31317 0.60581 0.0
O97 O 0.52248 0.31493 0.66833 0.0
O98 O 0.56306 0.24426 0.52054 0.0
C99 C 0.49228 0.22878 0.68221 0.0
O100 O 0.48989 0.25542 0.70681 0.0
C101 C 0.57133 0.26547 0.73475 0.0
O102 O 0.55518 0.24139 0.75329 0.0
O103 O 0.51516 0.29125 0.56719 0.0
H104 H 0.45226 0.71466 0.86394 0.0
H105 H 0.41813 0.69503 0.95417 0.0
H106 H 0.34497 0.69988 0.81293 0.0
H107 H 0.37899 0.71962 0.72204 0.0
H108 H 0.33309 0.71875 0.94972 0.0
H109 H 0.36935 0.63608 0.83384 0.0
H110 H 0.40738 0.60654 0.78517 0.0
H111 H 0.44541 0.59915 0.98851 0.0
H112 H 0.40787 0.62907 0.03826 0.0
H113 H 0.23668 0.61722 0.1567 0.0
H114 H 0.26368 0.64449 0.06282 0.0
H115 H 0.34517 0.63915 0.17531 0.0
H116 H 0.31857 0.61189 0.26832 0.0
H117 H 0.3492 0.61998 0.04445 0.0
H118 H 0.31246 0.70324 0.1606 0.0
H119 H 0.27527 0.73428 0.20726 0.0
H120 H 0.23813 0.74151 0.00317 0.0
H121 H 0.2744 0.70967 0.95543 0.0
C122 C 0.42891 0.71177 0.85209 0.0
C123 C 0.41837 0.71845 0.78565 0.0
C124 C 0.40944 0.70053 0.9037 0.0
C125 C 0.3791 0.69578 0.88986 0.0
C126 C 0.36833 0.70339 0.82448 0.0
C127 C 0.38782 0.71451 0.7726 0.0
C128 C 0.359 0.68148 0.94284 0.0
C129 C 0.33622 0.69697 0.96993 0.0
C130 C 0.36343 0.65322 0.9693 0.0
C131 C 0.38595 0.63505 0.93966 0.0
C132 C 0.38596 0.62837 0.86809 0.0
C133 C 0.40741 0.61152 0.84032 0.0
C134 C 0.42884 0.60104 0.88369 0.0
C135 C 0.42882 0.60732 0.95497 0.0
C136 C 0.40745 0.6242 0.98299 0.0
C137 C 0.26029 0.62221 0.16164 0.0
C138 C 0.27551 0.61218 0.21957 0.0
C139 C 0.27566 0.63786 0.10816 0.0
C140 C 0.30643 0.64383 0.11216 0.0
C141 C 0.32144 0.63466 0.17104 0.0
C142 C 0.30618 0.61903 0.22416 0.0
C143 C 0.32362 0.65752 0.0532 0.0
C144 C 0.34583 0.64173 0.02436 0.0
C145 C 0.3185 0.68544 0.02526 0.0
C146 C 0.29598 0.70372 0.05454 0.0
C147 C 0.29609 0.71104 0.12578 0.0
C148 C 0.27523 0.72886 0.15243 0.0
C149 C 0.25438 0.73985 0.10828 0.0
C150 C 0.25428 0.73295 0.03735 0.0
C151 C 0.27491 0.71492 0.0105 0.0
H152 H 0.23834 0.75375 0.12903 0.0
H153 H 0.44542 0.58799 0.86209 0.0
H154 H 0.35835 0.79639 0.5249 0.0
H155 H 0.32987 0.81337 0.42706 0.0
H156 H 0.39028 0.77788 0.28282 0.0
H157 H 0.41912 0.76116 0.38018 0.0
H158 H 0.38151 0.83291 0.25053 0.0
H159 H 0.32177 0.7461 0.3131 0.0
H160 H 0.29162 0.71137 0.38802 0.0
H161 H 0.22852 0.77527 0.41521 0.0
H162 H 0.25836 0.8104 0.34128 0.0
H163 H 0.30149 0.85825 0.94584 0.0
H164 H 0.32215 0.83059 0.04023 0.0
H165 H 0.27043 0.87459 0.18966 0.0
H166 H 0.24948 0.90248 0.09526 0.0
H167 H 0.27356 0.81254 0.21578 0.0
H168 H 0.33806 0.90083 0.16829 0.0
H169 H 0.36809 0.93526 0.09204 0.0
H170 H 0.42146 0.8659 0.03389 0.0
H171 H 0.39146 0.83095 0.10912 0.0
C172 C 0.3655 0.79203 0.47236 0.0
C173 C 0.39112 0.77756 0.46033 0.0
C174 C 0.34907 0.80161 0.41652 0.0
C175 C 0.35783 0.79671 0.34768 0.0
C176 C 0.38313 0.78188 0.33556 0.0
C177 C 0.39959 0.77234 0.39129 0.0
C178 C 0.34181 0.80874 0.2883 0.0
C179 C 0.35797 0.82802 0.24253 0.0
C180 C 0.31095 0.80279 0.27858 0.0
C181 C 0.29281 0.78134 0.32293 0.0
C182 C 0.30175 0.753 0.33605 0.0
C183 C 0.28458 0.73309 0.37807 0.0
C184 C 0.25826 0.74115 0.40695 0.0
C185 C 0.24896 0.76903 0.39333 0.0
C186 C 0.26602 0.78896 0.35131 0.0
C187 C 0.29427 0.86193 0.99865 0.0
C188 C 0.2741 0.88285 0.01313 0.0
C189 C 0.30607 0.84604 0.05248 0.0
C190 C 0.29799 0.85076 0.12182 0.0
C191 C 0.27691 0.87065 0.13637 0.0
C192 C 0.26513 0.88669 0.08246 0.0
C193 C 0.31333 0.8367 0.17927 0.0
C194 C 0.29708 0.81715 0.2243 0.0
C195 C 0.34414 0.84218 0.18849 0.0
C196 C 0.36235 0.86323 0.14376 0.0
C197 C 0.35606 0.89288 0.13883 0.0
C198 C 0.37309 0.91249 0.09587 0.0
C199 C 0.39662 0.90275 0.058 0.0
C200 C 0.40321 0.8734 0.06318 0.0
C201 C 0.38621 0.85369 0.106 0.0
H202 H 0.40978 0.91797 0.02477 0.0
H203 H 0.24503 0.72572 0.43953 0.0
H204 H 0.09374 0.72842 0.3224 0.0
H205 H 0.126 0.74755 0.41703 0.0
H206 H 0.13579 0.83282 0.31708 0.0
H207 H 0.10352 0.81398 0.22279 0.0
H208 H 0.18861 0.81649 0.36562 0.0
H209 H 0.0863 0.81597 0.45351 0.0
H210 H 0.03827 0.79008 0.48573 0.0
H211 H 0.08165 0.73468 0.62681 0.0
H212 H 0.12991 0.76008 0.59492 0.0
H213 H 0.22019 0.93044 0.60453 0.0
H214 H 0.20289 0.89406 0.51713 0.0
H215 H 0.19524 0.82623 0.67502 0.0
H216 H 0.2117 0.86281 0.76325 0.0
H217 H 0.14805 0.82215 0.60462 0.0
H218 H 0.24737 0.82492 0.53983 0.0
H219 H 0.29811 0.84395 0.509 0.0
H220 H 0.26579 0.88697 0.32897 0.0
H221 H 0.21476 0.86863 0.35935 0.0
C222 C 0.10291 0.7512 0.32044 0.0
C223 C 0.09595 0.76974 0.26531 0.0
C224 C 0.12141 0.76208 0.37451 0.0
C225 C 0.13337 0.79161 0.37406 0.0
C226 C 0.12693 0.80992 0.3183 0.0
C227 C 0.1083 0.79916 0.26466 0.0
C228 C 0.15159 0.80429 0.43257 0.0
C229 C 0.17976 0.81797 0.41787 0.0
C230 C 0.14075 0.80457 0.50159 0.0
C231 C 0.11169 0.78968 0.52127 0.0
C232 C 0.08557 0.79816 0.49112 0.0
C233 C 0.05831 0.78359 0.50936 0.0
C234 C 0.05691 0.76068 0.55812 0.0
C235 C 0.08276 0.75237 0.58895 0.0
C236 C 0.11006 0.76685 0.57084 0.0
C237 C 0.21512 0.90773 0.62059 0.0
C238 C 0.21708 0.89958 0.69091 0.0
C239 C 0.20549 0.88683 0.57038 0.0
C240 C 0.19806 0.85724 0.58919 0.0
C241 C 0.20083 0.84889 0.65916 0.0
C242 C 0.2102 0.86986 0.70955 0.0
C243 C 0.1846 0.83598 0.53701 0.0
C244 C 0.15734 0.82048 0.55285 0.0
C245 C 0.19668 0.83338 0.46952 0.0
C246 C 0.22717 0.84559 0.45229 0.0
C247 C 0.25102 0.8388 0.49422 0.0
C248 C 0.27985 0.84938 0.47668 0.0
C249 C 0.28517 0.86669 0.41712 0.0
C250 C 0.26163 0.87361 0.37517 0.0
C251 C 0.23274 0.8631 0.39252 0.0
H252 H 0.30754 0.87466 0.40333 0.0
H253 H 0.03579 0.74942 0.57212 0.0
H254 H 0.08829 0.671 0.96469 0.0
H255 H 0.1255 0.65803 0.88162 0.0
H256 H 0.14992 0.75039 0.84226 0.0
H257 H 0.1118 0.76353 0.92384 0.0
H258 H 0.14941 0.72331 0.72581 0.0
H259 H 0.19485 0.70781 0.93923 0.0
H260 H 0.20072 0.69115 0.06028 0.0
H261 H 0.18848 0.60082 0.99383 0.0
H262 H 0.18181 0.61685 0.87256 0.0
H263 H 0.26291 0.6653 0.51462 0.0
H264 H 0.24072 0.69284 0.60779 0.0
H265 H 0.18878 0.6135 0.67169 0.0
H266 H 0.21102 0.58583 0.57989 0.0
H267 H 0.21423 0.64444 0.78268 0.0
H268 H 0.15938 0.6687 0.56661 0.0
H269 H 0.15965 0.69059 0.44875 0.0
H270 H 0.20084 0.77211 0.52948 0.0
H271 H 0.20059 0.75081 0.64754 0.0
C272 C 0.10156 0.68858 0.93841 0.0
C273 C 0.09715 0.71828 0.95097 0.0
C274 C 0.12304 0.68115 0.89129 0.0
C275 C 0.14106 0.70324 0.85678 0.0
C276 C 0.13645 0.73296 0.86853 0.0
C277 C 0.11464 0.74042 0.91511 0.0
C278 C 0.16384 0.69491 0.80675 0.0
C279 C 0.16396 0.70646 0.73885 0.0
C280 C 0.1835 0.6735 0.82374 0.0
C281 C 0.1876 0.66358 0.89667 0.0
C282 C 0.19318 0.68439 0.95041 0.0
C283 C 0.19668 0.67506 0.01908 0.0
C284 C 0.19494 0.64497 0.03468 0.0
C285 C 0.1898 0.62413 0.98162 0.0
C286 C 0.18615 0.63333 0.91288 0.0
C287 C 0.24685 0.65371 0.54873 0.0
C288 C 0.23868 0.62336 0.53975 0.0
C289 C 0.23413 0.66951 0.60177 0.0
C290 C 0.21295 0.65525 0.64636 0.0
C291 C 0.20512 0.62493 0.63795 0.0
C292 C 0.21778 0.60916 0.58521 0.0
C293 C 0.19825 0.67148 0.70146 0.0
C294 C 0.19993 0.6616 0.77046 0.0
C295 C 0.18115 0.69517 0.68616 0.0
C296 C 0.18019 0.70811 0.61556 0.0
C297 C 0.16845 0.6913 0.55905 0.0
C298 C 0.16856 0.70362 0.49228 0.0
C299 C 0.18033 0.7327 0.48159 0.0
C300 C 0.19171 0.74963 0.53773 0.0
C301 C 0.19151 0.73748 0.60459 0.0
H302 H 0.18065 0.7421 0.42979 0.0
H303 H 0.19752 0.63783 0.08791 0.0
H304 H 0.78746 0.13209 0.76084 0.0
H305 H 0.80954 0.16575 0.67166 0.0
H306 H 0.84424 0.09236 0.56686 0.0
H307 H 0.82245 0.0587 0.65543 0.0
H308 H 0.88588 0.13946 0.58592 0.0
H309 H 0.78484 0.12225 0.50346 0.0
H310 H 0.7309 0.12269 0.5125 0.0
H311 H 0.74033 0.21635 0.54658 0.0
H312 H 0.79452 0.21636 0.53907 0.0
H313 H 0.92303 0.18089 0.24602 0.0
H314 H 0.89993 0.15885 0.35031 0.0
H315 H 0.87243 0.24346 0.41158 0.0
H316 H 0.8954 0.26585 0.30636 0.0
H317 H 0.82822 0.19888 0.42797 0.0
H318 H 0.92825 0.21764 0.49566 0.0
H319 H 0.98231 0.21815 0.48581 0.0
H320 H 0.97527 0.12341 0.4821 0.0
H321 H 0.9211 0.12231 0.49098 0.0
C322 C 0.79968 0.12311 0.7186 0.0
C323 C 0.80322 0.0927 0.71522 0.0
C324 C 0.8122 0.14237 0.66766 0.0
C325 C 0.82842 0.1315 0.61263 0.0
C326 C 0.83184 0.10118 0.60904 0.0
C327 C 0.81927 0.08195 0.65961 0.0
C328 C 0.84258 0.15153 0.55922 0.0
C329 C 0.87327 0.1523 0.55102 0.0
C330 C 0.82623 0.16928 0.51587 0.0
C331 C 0.79373 0.16924 0.52146 0.0
C332 C 0.77544 0.14289 0.51362 0.0
C333 C 0.7448 0.14307 0.51829 0.0
C334 C 0.73214 0.16952 0.53012 0.0
C335 C 0.75014 0.19586 0.53746 0.0
C336 C 0.78083 0.19579 0.53304 0.0
C337 C 0.9121 0.19491 0.28152 0.0
C338 C 0.91117 0.22518 0.26796 0.0
C339 C 0.89901 0.18227 0.34134 0.0
C340 C 0.88484 0.19961 0.38916 0.0
C341 C 0.88338 0.22974 0.37542 0.0
C342 C 0.89656 0.24248 0.31539 0.0
C343 C 0.87137 0.18579 0.45283 0.0
C344 C 0.8409 0.18637 0.4634 0.0
C345 C 0.88794 0.1694 0.49883 0.0
C346 C 0.92056 0.16991 0.49362 0.0
C347 C 0.93819 0.19691 0.49229 0.0
C348 C 0.96887 0.1973 0.48695 0.0
C349 C 0.98221 0.17083 0.48324 0.0
C350 C 0.9649 0.1439 0.48499 0.0
C351 C 0.93421 0.14338 0.49029 0.0
H352 H 0.00597 0.17118 0.47909 0.0
H353 H 0.70839 0.16961 0.53348 0.0
H354 H 0.88745 0.23772 0.91871 0.0
H355 H 0.84953 0.25119 0.83674 0.0
H356 H 0.8731 0.34334 0.88008 0.0
H357 H 0.91034 0.3301 0.9628 0.0
H358 H 0.81475 0.33113 0.88255 0.0
H359 H 0.89544 0.30532 0.72843 0.0
H360 H 0.92862 0.27068 0.67862 0.0
H361 H 0.85381 0.21253 0.61627 0.0
H362 H 0.82021 0.24664 0.66612 0.0
H363 H 0.77742 0.41981 0.60531 0.0
H364 H 0.79881 0.39122 0.69682 0.0
H365 H 0.75929 0.3106 0.60522 0.0
H366 H 0.73781 0.33914 0.51294 0.0
H367 H 0.81582 0.30616 0.63114 0.0
H368 H 0.73516 0.33179 0.76381 0.0
H369 H 0.6984 0.36179 0.81642 0.0
H370 H 0.76733 0.4145 0.92274 0.0
H371 H 0.80459 0.38507 0.87026 0.0
C372 C 0.88457 0.26085 0.91056 0.0
C373 C 0.90192 0.28286 0.94731 0.0
C374 C 0.86295 0.2685 0.86354 0.0
C375 C 0.85858 0.29829 0.85187 0.0
C376 C 0.87598 0.3202 0.88838 0.0
C377 C 0.89736 0.31259 0.93558 0.0
C378 C 0.83579 0.30722 0.80261 0.0
C379 C 0.81511 0.32587 0.82742 0.0
C380 C 0.835 0.29883 0.73152 0.0
C381 C 0.85534 0.27836 0.70184 0.0
C382 C 0.88609 0.28503 0.70458 0.0
C383 C 0.90496 0.26551 0.67616 0.0
C384 C 0.89333 0.23936 0.64444 0.0
C385 C 0.8628 0.23274 0.64084 0.0
C386 C 0.84384 0.25216 0.66916 0.0
C387 C 0.77298 0.39602 0.60491 0.0
C388 C 0.75602 0.38177 0.55157 0.0
C389 C 0.78505 0.37969 0.65768 0.0
C390 C 0.78042 0.34875 0.65836 0.0
C391 C 0.76304 0.33445 0.60591 0.0
C392 C 0.75078 0.35081 0.55324 0.0
C393 C 0.79602 0.3316 0.71041 0.0
C394 C 0.81513 0.31118 0.68635 0.0
C395 C 0.79496 0.33786 0.78251 0.0
C396 C 0.77274 0.35634 0.8125 0.0
C397 C 0.74254 0.34999 0.79776 0.0
C398 C 0.72159 0.36683 0.82777 0.0
C399 C 0.73056 0.39009 0.87264 0.0
C400 C 0.76045 0.39651 0.88782 0.0
C401 C 0.78149 0.37972 0.85805 0.0
H402 H 0.71437 0.40316 0.89572 0.0
H403 H 0.90796 0.22425 0.62261 0.0
H404 H 0.69754 0.38163 0.26966 0.0
H405 H 0.67517 0.35249 0.17376 0.0
H406 H 0.72248 0.41028 0.02585 0.0
H407 H 0.74459 0.44 0.12168 0.0
H408 H 0.66501 0.40043 0.99156 0.0
H409 H 0.74278 0.33686 0.04397 0.0
H410 H 0.77282 0.30926 0.12393 0.0
H411 H 0.6944 0.26053 0.20102 0.0
H412 H 0.66398 0.28758 0.12088 0.0
H413 H 0.61355 0.31053 0.70753 0.0
H414 H 0.64656 0.33739 0.7905 0.0
H415 H 0.60913 0.28263 0.95745 0.0
H416 H 0.57663 0.25509 0.87436 0.0
H417 H 0.66627 0.29175 0.97458 0.0
H418 H 0.5882 0.3535 0.92457 0.0
H419 H 0.55647 0.38103 0.84882 0.0
H420 H 0.63251 0.43451 0.77451 0.0
H421 H 0.66471 0.40704 0.84908 0.0
C422 C 0.70345 0.38803 0.21677 0.0
C423 C 0.72285 0.41318 0.20336 0.0
C424 C 0.69076 0.3712 0.16192 0.0
C425 C 0.69747 0.37892 0.09252 0.0
C426 C 0.71709 0.40382 0.07893 0.0
C427 C 0.72973 0.42076 0.13382 0.0
C428 C 0.68262 0.36189 0.03452 0.0
C429 C 0.66573 0.37673 0.98696 0.0
C430 C 0.68296 0.33092 0.02953 0.0
C431 C 0.70118 0.31422 0.07664 0.0
C432 C 0.732 0.32022 0.07798 0.0
C433 C 0.74908 0.30463 0.12315 0.0
C434 C 0.73553 0.28312 0.16744 0.0
C435 C 0.70487 0.27712 0.16654 0.0
C436 C 0.68773 0.29244 0.12098 0.0
C437 C 0.61242 0.30411 0.76188 0.0
C438 C 0.59226 0.28084 0.78449 0.0
C439 C 0.63127 0.31956 0.80931 0.0
C440 C 0.62998 0.31241 0.88048 0.0
C441 C 0.61048 0.28862 0.90283 0.0
C442 C 0.59184 0.27294 0.8553 0.0
C443 C 0.64829 0.33014 0.93209 0.0
C444 C 0.66581 0.31546 0.97853 0.0
C445 C 0.64826 0.36125 0.93639 0.0
C446 C 0.62891 0.37798 0.89187 0.0
C447 C 0.59817 0.371 0.89171 0.0
C448 C 0.58009 0.38661 0.84902 0.0
C449 C 0.59247 0.40945 0.80672 0.0
C450 C 0.62295 0.41677 0.80719 0.0
C451 C 0.64113 0.40119 0.8497 0.0
H452 H 0.57844 0.42151 0.77371 0.0
H453 H 0.74877 0.2711 0.20247 0.0
H454 H 0.67787 0.11868 0.97112 0.0
H455 H 0.65732 0.14576 0.06656 0.0
H456 H 0.73007 0.1266 0.19829 0.0
H457 H 0.75054 0.09886 0.10324 0.0
H458 H 0.6787 0.11698 0.26555 0.0
H459 H 0.7259 0.19697 0.1307 0.0
H460 H 0.7373 0.22531 0.023 0.0
H461 H 0.64562 0.23874 0.99825 0.0
H462 H 0.63371 0.21058 0.10592 0.0
H463 H 0.64189 0.21227 0.53691 0.0
H464 H 0.66871 0.19091 0.44191 0.0
H465 H 0.59847 0.20692 0.29956 0.0
H466 H 0.57169 0.22882 0.3941 0.0
H467 H 0.65139 0.21966 0.23934 0.0
H468 H 0.6035 0.13911 0.36927 0.0
H469 H 0.59043 0.10944 0.47405 0.0
H470 H 0.68149 0.09489 0.50444 0.0
H471 H 0.69524 0.12504 0.40047 0.0
C472 C 0.6896 0.12029 0.02026 0.0
C473 C 0.71588 0.10663 0.02952 0.0
C474 C 0.6779 0.13596 0.07471 0.0
C475 C 0.69238 0.1386 0.1393 0.0
C476 C 0.71859 0.12494 0.1488 0.0
C477 C 0.73027 0.10913 0.0944 0.0
C478 C 0.67954 0.15471 0.19756 0.0
C479 C 0.67327 0.13963 0.26032 0.0
C480 C 0.67171 0.18399 0.19003 0.0
C481 C 0.67889 0.20145 0.12603 0.0
C482 C 0.70816 0.20584 0.10207 0.0
C483 C 0.71473 0.22193 0.04111 0.0
C484 C 0.69219 0.23371 0.00363 0.0
C485 C 0.66306 0.22958 0.02727 0.0
C486 C 0.65641 0.21369 0.08845 0.0
C487 C 0.63217 0.21139 0.48536 0.0
C488 C 0.6045 0.22203 0.47322 0.0
C489 C 0.64753 0.19911 0.43112 0.0
C490 C 0.63541 0.19695 0.36384 0.0
C491 C 0.60822 0.20833 0.3511 0.0
C492 C 0.59288 0.22073 0.40527 0.0
C493 C 0.65055 0.18189 0.3073 0.0
C494 C 0.65717 0.19714 0.24486 0.0
C495 C 0.65856 0.15267 0.31493 0.0
C496 C 0.65044 0.13463 0.37758 0.0
C497 C 0.62079 0.12985 0.39869 0.0
C498 C 0.61326 0.11294 0.45789 0.0
C499 C 0.63516 0.10043 0.49605 0.0
C500 C 0.66462 0.10475 0.47497 0.0
C501 C 0.67229 0.12174 0.41593 0.0
H502 H 0.62928 0.0873 0.54181 0.0
H503 H 0.69732 0.24615 0.95645 0.0
H504 H 0.33015 0.51416 0.51466 0.0
H505 H 0.36813 0.48229 0.55059 0.0
H506 H 0.36487 0.44145 0.34757 0.0
H507 H 0.32695 0.47304 0.31135 0.0
H508 H 0.36158 0.40102 0.4521 0.0
H509 H 0.42241 0.48966 0.39323 0.0
H510 H 0.43886 0.54272 0.39975 0.0
H511 H 0.45702 0.53424 0.61799 0.0
H512 H 0.44028 0.48118 0.61304 0.0
H513 H 0.48433 0.31747 0.47836 0.0
H514 H 0.45119 0.35391 0.44106 0.0
H515 H 0.46012 0.3964 0.64185 0.0
H516 H 0.49376 0.36041 0.67911 0.0
H517 H 0.46081 0.43677 0.54062 0.0
H518 H 0.39945 0.34996 0.60307 0.0
H519 H 0.38219 0.29703 0.60124 0.0
H520 H 0.3637 0.30243 0.38243 0.0
H521 H 0.38126 0.35533 0.38275 0.0
C522 C 0.33762 0.49849 0.47757 0.0
C523 C 0.32547 0.4961 0.41017 0.0
C524 C 0.35943 0.48041 0.49807 0.0
C525 C 0.36946 0.45964 0.45157 0.0
C526 C 0.35747 0.45735 0.38424 0.0
C527 C 0.33581 0.47547 0.36362 0.0
C528 C 0.39146 0.43931 0.47378 0.0
C529 C 0.38343 0.40884 0.47049 0.0
C530 C 0.41962 0.44957 0.49993 0.0
C531 C 0.42974 0.48148 0.50292 0.0
C532 C 0.42965 0.49915 0.44276 0.0
C533 C 0.43908 0.52922 0.44615 0.0
C534 C 0.44884 0.54186 0.50932 0.0
C535 C 0.44937 0.52442 0.56914 0.0
C536 C 0.43993 0.49435 0.56606 0.0
C537 C 0.47936 0.33463 0.51452 0.0
C538 C 0.49152 0.33587 0.58192 0.0
C539 C 0.46033 0.35541 0.49318 0.0
C540 C 0.45281 0.37764 0.53903 0.0
C541 C 0.46556 0.37942 0.60564 0.0
C542 C 0.4847 0.35874 0.62692 0.0
C543 C 0.431 0.39848 0.51816 0.0
C544 C 0.43898 0.42898 0.52201 0.0
C545 C 0.40263 0.38832 0.49315 0.0
C546 C 0.39195 0.35653 0.4928 0.0
C547 C 0.39192 0.3398 0.55445 0.0
C548 C 0.38205 0.30982 0.5537 0.0
C549 C 0.37193 0.29636 0.49172 0.0
C550 C 0.37159 0.31288 0.43038 0.0
C551 C 0.38148 0.34287 0.43082 0.0
H552 H 0.36429 0.27314 0.49125 0.0
H553 H 0.45604 0.56516 0.51194 0.0
H554 H 0.7226 0.93894 0.90618 0.0
H555 H 0.68428 0.90327 0.86001 0.0
H556 H 0.64359 0.97336 0.75628 0.0
H557 H 0.68207 0.00939 0.80219 0.0
H558 H 0.60304 0.93281 0.82696 0.0
H559 H 0.68167 0.93154 0.66105 0.0
H560 H 0.73306 0.92829 0.62307 0.0
H561 H 0.73186 0.84121 0.71001 0.0
H562 H 0.68058 0.84411 0.74944 0.0
H563 H 0.50734 0.83238 0.62577 0.0
H564 H 0.54296 0.87288 0.66266 0.0
H565 H 0.59863 0.80999 0.74908 0.0
H566 H 0.56362 0.76952 0.71089 0.0
H567 H 0.6309 0.85011 0.67933 0.0
H568 H 0.55436 0.85171 0.85193 0.0
H569 H 0.50356 0.85448 0.89473 0.0
H570 H 0.50107 0.93984 0.80048 0.0
H571 H 0.55175 0.9374 0.75631 0.0
C572 C 0.70551 0.94686 0.87366 0.0
C573 C 0.70547 0.97702 0.85764 0.0
C574 C 0.68366 0.9264 0.84716 0.0
C575 C 0.66125 0.93565 0.80428 0.0
C576 C 0.66074 0.96579 0.7892 0.0
C577 C 0.68279 0.9863 0.81524 0.0
C578 C 0.63864 0.9136 0.77489 0.0
C579 C 0.60898 0.91498 0.79368 0.0
C580 C 0.64657 0.89005 0.73273 0.0
C581 C 0.67736 0.88816 0.70871 0.0
C582 C 0.69244 0.91179 0.67255 0.0
C583 C 0.72154 0.90999 0.65068 0.0
C584 C 0.73574 0.88458 0.66425 0.0
C585 C 0.72084 0.86089 0.69958 0.0
C586 C 0.69175 0.86259 0.72164 0.0
C587 C 0.52716 0.8272 0.65272 0.0
C588 C 0.53263 0.79771 0.66539 0.0
C589 C 0.54745 0.85038 0.67407 0.0
C590 C 0.57338 0.84453 0.70933 0.0
C591 C 0.57883 0.81509 0.72188 0.0
C592 C 0.55873 0.79195 0.70012 0.0
C593 C 0.5952 0.86888 0.73234 0.0
C594 C 0.62479 0.868 0.7122 0.0
C595 C 0.5872 0.89273 0.77372 0.0
C596 C 0.55672 0.89422 0.80013 0.0
C597 C 0.54289 0.87096 0.83982 0.0
C598 C 0.51414 0.87249 0.86443 0.0
C599 C 0.49907 0.89728 0.85015 0.0
C600 C 0.51275 0.92063 0.81138 0.0
C601 C 0.54149 0.91919 0.78658 0.0
H602 H 0.47682 0.89843 0.86928 0.0
H603 H 0.75827 0.88323 0.64727 0.0
H604 H 0.03301 0.18338 0.02324 0.0
H605 H 0.06361 0.14347 0.99628 0.0
H606 H 0.98553 0.08522 0.95464 0.0
H607 H 0.95463 0.125 0.98304 0.0
H608 H 0.02295 0.05846 0.03339 0.0
H609 H 0.03024 0.11275 0.82103 0.0
H610 H 0.03861 0.15684 0.74648 0.0
H611 H 0.12788 0.17075 0.82011 0.0
H612 H 0.11994 0.12696 0.89585 0.0
H613 H 0.11238 0.94863 0.89012 0.0
H614 H 0.07513 0.98378 0.90765 0.0
H615 H 0.14368 0.05112 0.96432 0.0
H616 H 0.18087 0.01642 0.94657 0.0
H617 H 0.10698 0.07066 0.86842 0.0
H618 H 0.09841 0.01356 0.07988 0.0
H619 H 0.08783 0.96988 0.15452 0.0
H620 H 0.99799 0.96141 0.08364 0.0
H621 H 0.00829 0.00405 0.00618 0.0
C622 C 0.0223 0.16217 0.00787 0.0
C623 C 0.99136 0.15742 0.0052 0.0
C624 C 0.03985 0.13937 0.99214 0.0
C625 C 0.0269 0.11142 0.97256 0.0
C626 C 0.99601 0.10662 0.96948 0.0
C627 C 0.97839 0.12941 0.98555 0.0
C628 C 0.0457 0.08704 0.95789 0.0
C629 C 0.04099 0.06079 0.99628 0.0
C630 C 0.06948 0.09038 0.91025 0.0
C631 C 0.07441 0.11668 0.86452 0.0
C632 C 0.05159 0.12532 0.8217 0.0
C633 C 0.05627 0.15024 0.77917 0.0
C634 C 0.08374 0.16662 0.77867 0.0
C635 C 0.10661 0.15806 0.82058 0.0
C636 C 0.10204 0.13316 0.86325 0.0
C637 C 0.11949 0.97088 0.90676 0.0
C638 C 0.14964 0.97973 0.9167 0.0
C639 C 0.09815 0.9909 0.91694 0.0
C640 C 0.10662 0.02006 0.93743 0.0
C641 C 0.13664 0.02875 0.94831 0.0
C642 C 0.1579 0.00883 0.93828 0.0
C643 C 0.08464 0.04215 0.94496 0.0
C644 C 0.08873 0.06804 0.90495 0.0
C645 C 0.06013 0.03824 0.9907 0.0
C646 C 0.05438 0.0117 0.03557 0.0
C647 C 0.07658 0.00196 0.07873 0.0
C648 C 0.0706 0.97735 0.12178 0.0
C649 C 0.04233 0.96262 0.12329 0.0
C650 C 0.01997 0.97253 0.08187 0.0
C651 C 0.02594 0.99681 0.03798 0.0
H652 H 0.03768 0.94368 0.15689 0.0
H653 H 0.08732 0.18591 0.74571 0.0
H654 H 0.95497 0.73345 0.26988 0.0
H655 H 0.92055 0.69304 0.31127 0.0
H656 H 0.95323 0.63517 0.15689 0.0
H657 H 0.9876 0.67569 0.11441 0.0
H658 H 0.89361 0.6292 0.16305 0.0
H659 H 0.97325 0.63 0.32667 0.0
H660 H 0.00941 0.6525 0.4111 0.0
H661 H 0.93892 0.6764 0.5425 0.0
H662 H 0.90232 0.65442 0.45835 0.0
H663 H 0.8206 0.49852 0.30617 0.0
H664 H 0.85879 0.53555 0.26458 0.0
H665 H 0.83284 0.59686 0.41972 0.0
H666 H 0.79511 0.55974 0.46269 0.0
H667 H 0.89104 0.59931 0.41177 0.0
H668 H 0.81158 0.60103 0.24661 0.0
H669 H 0.775 0.57956 0.16186 0.0
H670 H 0.84472 0.55178 0.03339 0.0
H671 H 0.88171 0.57276 0.1179 0.0
C672 C 0.95491 0.71214 0.24467 0.0
C673 C 0.97412 0.70779 0.18892 0.0
C674 C 0.93527 0.68901 0.26864 0.0
C675 C 0.93457 0.66096 0.23779 0.0
C676 C 0.95346 0.65661 0.18159 0.0
C677 C 0.97313 0.67977 0.15749 0.0
C678 C 0.91382 0.63635 0.2638 0.0
C679 C 0.89336 0.62232 0.21719 0.0
C680 C 0.91307 0.62782 0.33478 0.0
C681 C 0.93504 0.64077 0.38589 0.0
C682 C 0.96546 0.64023 0.37334 0.0
C683 C 0.98603 0.65287 0.42118 0.0
C684 C 0.97647 0.66593 0.48205 0.0
C685 C 0.9463 0.6663 0.4953 0.0
C686 C 0.92563 0.65372 0.44758 0.0
C687 C 0.82308 0.51985 0.33162 0.0
C688 C 0.80471 0.52621 0.3876 0.0
C689 C 0.84485 0.54105 0.30756 0.0
C690 C 0.84843 0.56917 0.33833 0.0
C691 C 0.83049 0.57535 0.39507 0.0
C692 C 0.80886 0.5541 0.41947 0.0
C693 C 0.87063 0.5923 0.31114 0.0
C694 C 0.89139 0.60606 0.35753 0.0
C695 C 0.87159 0.60066 0.24 0.0
C696 C 0.84939 0.5882 0.18893 0.0
C697 C 0.81909 0.59016 0.20054 0.0
C698 C 0.79829 0.5781 0.15251 0.0
C699 C 0.80753 0.56424 0.09238 0.0
C700 C 0.8376 0.56248 0.08005 0.0
C701 C 0.85849 0.57447 0.12796 0.0
H702 H 0.79139 0.55492 0.05526 0.0
H703 H 0.99243 0.67573 0.51899 0.0
H704 H 0.28768 0.05121 0.94732 0.0
H705 H 0.32579 0.08902 0.90989 0.0
H706 H 0.35206 0.0315 0.747 0.0
H707 H 0.31389 0.99332 0.78431 0.0
H708 H 0.3999 0.05987 0.81694 0.0
H709 H 0.31146 0.08608 0.70586 0.0
H710 H 0.2594 0.09708 0.70054 0.0
H711 H 0.27787 0.1702 0.84001 0.0
H712 H 0.32999 0.15937 0.84697 0.0
H713 H 0.48686 0.17227 0.63122 0.0
H714 H 0.45092 0.13171 0.66539 0.0
H715 H 0.41469 0.18783 0.8186 0.0
H716 H 0.45006 0.22866 0.78357 0.0
H717 H 0.3718 0.15885 0.74898 0.0
H718 H 0.4596 0.13239 0.86329 0.0
H719 H 0.51161 0.12135 0.87116 0.0
H720 H 0.49458 0.04903 0.72878 0.0
H721 H 0.44254 0.05989 0.71931 0.0
C722 C 0.30157 0.04648 0.90362 0.0
C723 C 0.29762 0.01926 0.8686 0.0
C724 C 0.32331 0.0682 0.88216 0.0
C725 C 0.34155 0.06321 0.82517 0.0
C726 C 0.33816 0.03582 0.791 0.0
C727 C 0.31629 0.01408 0.81227 0.0
C728 C 0.36387 0.08681 0.80105 0.0
C729 C 0.39377 0.08139 0.80106 0.0
C730 C 0.35589 0.11507 0.7818 0.0
C731 C 0.32458 0.12174 0.77743 0.0
C732 C 0.30438 0.10436 0.73583 0.0
C733 C 0.27486 0.11059 0.73244 0.0
C734 C 0.26532 0.13428 0.77004 0.0
C735 C 0.28529 0.15183 0.81097 0.0
C736 C 0.31483 0.14568 0.81461 0.0
C737 C 0.47134 0.17594 0.67244 0.0
C738 C 0.47136 0.20373 0.70469 0.0
C739 C 0.45086 0.15267 0.69215 0.0
C740 C 0.43024 0.15657 0.74513 0.0
C741 C 0.43035 0.18425 0.77757 0.0
C742 C 0.45066 0.20758 0.75759 0.0
C743 C 0.408 0.13213 0.76559 0.0
C744 C 0.37803 0.13735 0.76471 0.0
C745 C 0.41597 0.10375 0.78433 0.0
C746 C 0.44725 0.09715 0.79003 0.0
C747 C 0.467 0.11428 0.83322 0.0
C748 C 0.49648 0.10803 0.83805 0.0
C749 C 0.50642 0.08456 0.80034 0.0
C750 C 0.48687 0.06724 0.75787 0.0
C751 C 0.45737 0.07341 0.75279 0.0
H752 H 0.52924 0.07975 0.80416 0.0
H753 H 0.24245 0.13906 0.76735 0.0
H754 H 0.88592 0.05591 0.93698 0.0
H755 H 0.92475 0.02302 0.95938 0.0
H756 H 0.85878 0.94931 0.97852 0.0
H757 H 0.81999 0.98193 0.95741 0.0
H758 H 0.89918 0.94866 0.0799 0.0
H759 H 0.90011 0.9633 0.82869 0.0
H760 H 0.9053 0.99358 0.72207 0.0
H761 H 0.99329 0.02544 0.78249 0.0
H762 H 0.98852 0.99553 0.88966 0.0
H763 H 0.96972 0.8205 0.03536 0.0
H764 H 0.93954 0.86155 0.01786 0.0
H765 H 0.01814 0.92119 0.99614 0.0
H766 H 0.04863 0.88009 0.01353 0.0
H767 H 0.97745 0.93509 0.90574 0.0
H768 H 0.97936 0.91696 0.14932 0.0
H769 H 0.97508 0.88784 0.25755 0.0
H770 H 0.88335 0.86415 0.2155 0.0
H771 H 0.88714 0.89284 0.10637 0.0
C772 C 0.87968 0.03271 0.94624 0.0
C773 C 0.84983 0.02154 0.94526 0.0
C774 C 0.90192 0.01393 0.95874 0.0
C775 C 0.89469 0.98364 0.96996 0.0
C776 C 0.86489 0.9726 0.97005 0.0
C777 C 0.84271 0.9913 0.95779 0.0
C778 C 0.91786 0.96307 0.98134 0.0
C779 C 0.91615 0.94552 0.04155 0.0
C780 C 0.9408 0.95987 0.93273 0.0
C781 C 0.94378 0.97754 0.86778 0.0
C782 C 0.92048 0.97695 0.8195 0.0
C783 C 0.92337 0.99399 0.75887 0.0
C784 C 0.94956 0.01152 0.74565 0.0
C785 C 0.97298 0.01193 0.79287 0.0
C786 C 0.97019 0.99492 0.85357 0.0
C787 C 0.98066 0.84232 0.02678 0.0
C788 C 0.01161 0.84706 0.02676 0.0
C789 C 0.96335 0.86583 0.01709 0.0
C790 C 0.97655 0.89465 0.00782 0.0
C791 C 0.00745 0.89928 0.00463 0.0
C792 C 0.02485 0.87573 0.01449 0.0
C793 C 0.95787 0.91976 0.00282 0.0
C794 C 0.96064 0.93836 0.94437 0.0
C795 C 0.936 0.92416 0.05338 0.0
C796 C 0.93358 0.90699 0.11933 0.0
C797 C 0.9583 0.90546 0.16286 0.0
C798 C 0.95596 0.88901 0.22444 0.0
C799 C 0.92897 0.87412 0.24336 0.0
C800 C 0.90425 0.8757 0.20078 0.0
C801 C 0.90647 0.89209 0.13908 0.0
H802 H 0.92721 0.8614 0.29106 0.0
H803 H 0.95175 0.02471 0.6987 0.0
H804 H 0.01341 0.3266 0.09749 0.0
H805 H 0.04756 0.36816 0.13526 0.0
H806 H 0.07554 0.31624 0.30713 0.0
H807 H 0.04132 0.2748 0.27032 0.0
H808 H 0.06626 0.37131 0.34839 0.0
H809 H 0.11788 0.32714 0.16109 0.0
H810 H 0.12397 0.30904 0.04127 0.0
H811 H 0.11384 0.39565 0.96075 0.0
H812 H 0.1073 0.41418 0.08012 0.0
H813 H 0.19993 0.44944 0.44956 0.0
H814 H 0.16178 0.4128 0.40712 0.0
H815 H 0.14296 0.47054 0.2376 0.0
H816 H 0.1817 0.50721 0.27904 0.0
H817 H 0.14488 0.41563 0.19182 0.0
H818 H 0.09635 0.46076 0.37913 0.0
H819 H 0.09015 0.47908 0.49869 0.0
H820 H 0.09376 0.39136 0.57901 0.0
H821 H 0.1004 0.37257 0.45998 0.0
C822 C 0.02683 0.32403 0.14334 0.0
C823 C 0.02471 0.29732 0.18072 0.0
C824 C 0.0464 0.34778 0.16472 0.0
C825 C 0.06431 0.34523 0.22367 0.0
C826 C 0.06194 0.31873 0.26151 0.0
C827 C 0.04242 0.295 0.24019 0.0
C828 C 0.08563 0.37004 0.24619 0.0
C829 C 0.08363 0.38082 0.31439 0.0
C830 C 0.10774 0.38305 0.20117 0.0
C831 C 0.11178 0.37196 0.12945 0.0
C832 C 0.11672 0.34227 0.11779 0.0
C833 C 0.1203 0.33194 0.04997 0.0
C834 C 0.11921 0.35117 0.99342 0.0
C835 C 0.11463 0.38078 0.00459 0.0
C836 C 0.11101 0.39121 0.07231 0.0
C837 C 0.18764 0.45446 0.40336 0.0
C838 C 0.1938 0.48133 0.36787 0.0
C839 C 0.1657 0.4335 0.37931 0.0
C840 C 0.14914 0.43907 0.31975 0.0
C841 C 0.15537 0.46579 0.28381 0.0
C842 C 0.17747 0.48675 0.30766 0.0
C843 C 0.1258 0.41665 0.29446 0.0
C844 C 0.12737 0.40632 0.22572 0.0
C845 C 0.10322 0.4041 0.33895 0.0
C846 C 0.09911 0.4153 0.41063 0.0
C847 C 0.09604 0.44541 0.42232 0.0
C848 C 0.09241 0.45587 0.49 0.0
C849 C 0.09162 0.43641 0.54642 0.0
C850 C 0.09439 0.40642 0.53526 0.0
C851 C 0.09806 0.39585 0.46769 0.0
H852 H 0.08881 0.44455 0.59878 0.0
H853 H 0.12198 0.34313 0.94095 0.0
H854 H 0.51856 0.68757 0.48096 0.0
H855 H 0.55174 0.65048 0.44852 0.0
H856 H 0.50822 0.58923 0.59484 0.0
H857 H 0.47482 0.6263 0.62782 0.0
H858 H 0.56904 0.59367 0.6076 0.0
H859 H 0.4979 0.57624 0.42685 0.0
H860 H 0.46505 0.58939 0.33171 0.0
H861 H 0.54007 0.62485 0.21338 0.0
H862 H 0.57331 0.61228 0.30835 0.0
H863 H 0.6563 0.47987 0.49485 0.0
H864 H 0.61423 0.5074 0.52488 0.0
H865 H 0.64163 0.57303 0.3702 0.0
H866 H 0.6831 0.54516 0.33846 0.0
H867 H 0.5843 0.5613 0.3644 0.0
H868 H 0.65489 0.58328 0.54992 0.0
H869 H 0.68776 0.57085 0.64572 0.0
H870 H 0.61392 0.52744 0.7553 0.0
H871 H 0.58066 0.53935 0.65972 0.0
C872 C 0.51586 0.66616 0.50596 0.0
C873 C 0.49408 0.65995 0.55716 0.0
C874 C 0.53477 0.64493 0.4871 0.0
C875 C 0.53234 0.61705 0.51901 0.0
C876 C 0.51045 0.61062 0.56962 0.0
C877 C 0.49136 0.63181 0.58824 0.0
C878 C 0.5537 0.59533 0.50165 0.0
C879 C 0.57203 0.58611 0.55466 0.0
C880 C 0.55791 0.58594 0.4324 0.0
C881 C 0.53805 0.59353 0.37502 0.0
C882 C 0.50734 0.58706 0.3808 0.0
C883 C 0.48867 0.59437 0.32685 0.0
C884 C 0.50046 0.60801 0.26659 0.0
C885 C 0.53096 0.61431 0.26012 0.0
C886 C 0.54973 0.60706 0.31397 0.0
C887 C 0.65335 0.50016 0.46725 0.0
C888 C 0.67311 0.5104 0.41445 0.0
C889 C 0.62933 0.51594 0.48462 0.0
C890 C 0.62494 0.54253 0.45045 0.0
C891 C 0.6445 0.55257 0.39727 0.0
C892 C 0.66829 0.53666 0.37934 0.0
C893 C 0.60018 0.56015 0.47009 0.0
C894 C 0.58116 0.56859 0.41749 0.0
C895 C 0.59541 0.56892 0.53973 0.0
C896 C 0.61536 0.56193 0.59737 0.0
C897 C 0.64571 0.57092 0.59424 0.0
C898 C 0.6644 0.564 0.64853 0.0
C899 C 0.65295 0.54829 0.70647 0.0
C900 C 0.62276 0.53956 0.71035 0.0
C901 C 0.60398 0.54641 0.65617 0.0
H902 H 0.66746 0.54294 0.74843 0.0
H903 H 0.48597 0.61364 0.22485 0.0
loop_
_geom_bond_atom_site_label_1
_geom_bond_atom_site_label_2
_geom_bond_distance
_geom_bond_site_symmetry_2
_ccdc_geom_bond_type
C0 O1 1.160 . S
C0 O7 1.185 . S
O1 C0 1.160 . S
O2 Zn3 1.899 . S
O2 C10 1.284 . S
Zn3 O2 1.899 . S
Zn3 O4 2.032 . S
Zn3 O7 2.086 . S
Zn3 O12 1.977 . S
O4 Zn3 2.032 . S
O4 C8 1.278 . S
C5 O6 1.203 . S
C5 O12 1.267 . S
O6 C5 1.203 . S
O7 C0 1.185 . S
O7 Zn3 2.086 . S
C8 O4 1.278 . S
C8 O9 1.211 . S
O9 C8 1.211 . S
C10 O2 1.284 . S
C10 O11 1.273 . S
O11 C10 1.273 . S
O12 Zn3 1.977 . S
O12 C5 1.267 . S
C13 O14 1.160 . S
C13 O20 1.185 . S
O14 C13 1.160 . S
O15 Zn16 1.899 . S
O15 C23 1.284 . S
Zn16 O15 1.899 . S
Zn16 O17 2.032 . S
Zn16 O20 2.086 . S
Zn16 O25 1.977 . S
O17 Zn16 2.032 . S
O17 C21 1.278 . S
C18 O19 1.203 . S
C18 O25 1.267 . S
O19 C18 1.203 . S
O20 C13 1.185 . S
O20 Zn16 2.086 . S
C21 O17 1.278 . S
C21 O22 1.211 . S
O22 C21 1.211 . S
C23 O15 1.284 . S
C23 O24 1.273 . S
O24 C23 1.273 . S
O25 Zn16 1.977 . S
O25 C18 1.267 . S
C26 O27 1.160 . S
C26 O33 1.185 . S
O27 C26 1.160 . S
O28 Zn29 1.899 . S
O28 C36 1.284 . S
Zn29 O28 1.899 . S
Zn29 O30 2.032 . S
Zn29 O33 2.086 . S
Zn29 O38 1.977 . S
O30 Zn29 2.032 . S
O30 C34 1.278 . S
C31 O32 1.203 . S
C31 O38 1.267 . S
O32 C31 1.203 . S
O33 C26 1.185 . S
O33 Zn29 2.086 . S
C34 O30 1.278 . S
C34 O35 1.211 1_565 S
O35 C34 1.211 1_545 S
C36 O28 1.284 . S
C36 O37 1.273 . S
O37 C36 1.273 . S
O38 Zn29 1.977 . S
O38 C31 1.267 . S
C39 O40 1.160 . S
C39 O46 1.185 . S
O40 C39 1.160 . S
O41 Zn42 1.899 . S
O41 C49 1.284 . S
Zn42 O41 1.899 . S
Zn42 O43 2.032 . S
Zn42 O46 2.086 . S
Zn42 O51 1.977 . S
O43 Zn42 2.032 . S
O43 C47 1.278 . S
C44 O45 1.203 . S
C44 O51 1.267 . S
O45 C44 1.203 . S
O46 C39 1.185 . S
O46 Zn42 2.086 . S
C47 O43 1.278 . S
C47 O48 1.211 1_455 S
O48 C47 1.211 1_655 S
C49 O41 1.284 . S
C49 O50 1.273 . S
O50 C49 1.273 . S
O51 Zn42 1.977 . S
O51 C44 1.267 . S
C52 O53 1.160 . S
C52 O59 1.185 . S
O53 C52 1.160 . S
O54 Zn55 1.899 . S
O54 C62 1.284 . S
Zn55 O54 1.899 . S
Zn55 O56 2.032 . S
Zn55 O59 2.086 . S
Zn55 O64 1.977 . S
O56 Zn55 2.032 . S
O56 C60 1.278 . S
C57 O58 1.203 . S
C57 O64 1.267 . S
O58 C57 1.203 . S
O59 C52 1.185 . S
O59 Zn55 2.086 . S
C60 O56 1.278 . S
C60 O61 1.211 1_545 S
O61 C60 1.211 1_565 S
C62 O54 1.284 . S
C62 O63 1.273 . S
O63 C62 1.273 . S
O64 Zn55 1.977 . S
O64 C57 1.267 . S
C65 O66 1.160 . S
C65 O72 1.185 . S
O66 C65 1.160 . S
O67 Zn68 1.899 . S
O67 C75 1.284 . S
Zn68 O67 1.899 . S
Zn68 O69 2.032 . S
Zn68 O72 2.086 . S
Zn68 O77 1.977 . S
O69 Zn68 2.032 . S
O69 C73 1.278 . S
C70 O71 1.203 . S
C70 O77 1.267 . S
O71 C70 1.203 . S
O72 C65 1.185 . S
O72 Zn68 2.086 . S
C73 O69 1.278 . S
C73 O74 1.211 1_655 S
O74 C73 1.211 1_455 S
C75 O67 1.284 . S
C75 O76 1.273 . S
O76 C75 1.273 . S
O77 Zn68 1.977 . S
O77 C70 1.267 . S
C78 O79 1.160 . S
C78 O85 1.185 . S
O79 C78 1.160 . S
O80 Zn81 1.899 . S
O80 C88 1.284 . S
Zn81 O80 1.899 . S
Zn81 O82 2.032 . S
Zn81 O85 2.086 . S
Zn81 O90 1.977 . S
O82 Zn81 2.032 . S
O82 C86 1.278 . S
C83 O84 1.203 . S
C83 O90 1.267 . S
O84 C83 1.203 . S
O85 C78 1.185 . S
O85 Zn81 2.086 . S
C86 O82 1.278 . S
C86 O87 1.211 . S
O87 C86 1.211 . S
C88 O80 1.284 . S
C88 O89 1.273 . S
O89 C88 1.273 . S
O90 Zn81 1.977 . S
O90 C83 1.267 . S
C91 O92 1.160 . S
C91 O98 1.185 . S
O92 C91 1.160 . S
O93 Zn94 1.899 . S
O93 C101 1.284 . S
Zn94 O93 1.899 . S
Zn94 O95 2.032 . S
Zn94 O98 2.086 . S
Zn94 O103 1.977 . S
O95 Zn94 2.032 . S
O95 C99 1.278 . S
C96 O97 1.203 . S
C96 O103 1.267 . S
O97 C96 1.203 . S
O98 C91 1.185 . S
O98 Zn94 2.086 . S
C99 O95 1.278 . S
C99 O100 1.211 . S
O100 C99 1.211 . S
C101 O93 1.284 . S
C101 O102 1.273 . S
O102 C101 1.273 . S
O103 Zn94 1.977 . S
O103 C96 1.267 . S
H104 C122 0.951 . S
H105 C124 0.951 . S
H106 C126 0.950 . S
H107 C127 0.950 . S
H108 C129 0.950 . S
H109 C132 0.950 . S
H110 C133 0.950 . S
H111 C135 0.950 . S
H112 C136 0.950 1_554 S
H113 C137 0.951 . S
H114 C139 0.951 . S
H115 C141 0.950 . S
H116 C142 0.950 . S
H117 C144 0.950 . S
H118 C147 0.950 . S
H119 C148 0.950 . S
H120 C150 0.950 . S
H121 C151 0.950 1_556 S
C122 H104 0.951 . S
C122 C123 1.366 . S
C122 C124 1.388 . S
C123 C122 1.366 . S
C123 C127 1.385 . S
C124 H105 0.951 . S
C124 C122 1.388 . S
C124 C125 1.366 . S
C125 C124 1.366 . S
C125 C126 1.414 . S
C125 C128 1.499 . S
C126 H106 0.950 . S
C126 C125 1.414 . S
C126 C127 1.374 . S
C127 H107 0.950 . S
C127 C123 1.385 . S
C127 C126 1.374 . S
C128 C125 1.499 . S
C128 C129 1.373 . S
C128 C130 1.389 . S
C129 H108 0.950 . S
C129 C128 1.373 . S
C129 C145 1.377 1_556 S
C130 C128 1.389 . S
C130 C131 1.524 . S
C130 C144 1.377 1_556 S
C131 C130 1.524 . S
C131 C132 1.397 . S
C131 C136 1.363 . S
C132 H109 0.950 . S
C132 C131 1.397 . S
C132 C133 1.334 . S
C133 H110 0.950 . S
C133 C132 1.334 . S
C133 C134 1.287 . S
C134 C133 1.287 . S
C134 C135 1.524 . S
C134 H153 0.913 . S
C135 H111 0.950 . S
C135 C134 1.524 . S
C135 C136 1.415 . S
C136 H112 0.950 1_556 S
C136 C131 1.363 . S
C136 C135 1.415 . S
C137 H113 0.951 . S
C137 C138 1.366 . S
C137 C139 1.388 . S
C138 C137 1.366 . S
C138 C142 1.385 . S
C139 H114 0.951 . S
C139 C137 1.388 . S
C139 C140 1.366 . S
C140 C139 1.366 . S
C140 C141 1.414 . S
C140 C143 1.499 . S
C141 H115 0.950 . S
C141 C140 1.414 . S
C141 C142 1.374 . S
C142 H116 0.950 . S
C142 C138 1.385 . S
C142 C141 1.374 . S
C143 C140 1.499 . S
C143 C144 1.373 . S
C143 C145 1.389 . S
C144 H117 0.950 . S
C144 C130 1.377 1_554 S
C144 C143 1.373 . S
C145 C129 1.377 1_554 S
C145 C143 1.389 . S
C145 C146 1.524 . S
C146 C145 1.524 . S
C146 C147 1.397 . S
C146 C151 1.363 . S
C147 H118 0.950 . S
C147 C146 1.397 . S
C147 C148 1.334 . S
C148 H119 0.950 . S
C148 C147 1.334 . S
C148 C149 1.287 . S
C149 C148 1.287 . S
C149 C150 1.524 . S
C149 H152 0.999 . S
C150 H120 0.950 . S
C150 C149 1.524 . S
C150 C151 1.415 . S
C151 H121 0.950 1_554 S
C151 C146 1.363 . S
C151 C150 1.415 . S
H152 C149 0.999 . S
H153 C134 0.913 . S
H154 C172 0.951 . S
H155 C174 0.951 . S
H156 C176 0.950 . S
H157 C177 0.950 . S
H158 C179 0.950 . S
H159 C182 0.950 . S
H160 C183 0.950 . S
H161 C185 0.950 . S
H162 C186 0.950 . S
H163 C187 0.951 1_556 S
H164 C189 0.951 . S
H165 C191 0.950 . S
H166 C192 0.950 . S
H167 C194 0.950 . S
H168 C197 0.950 . S
H169 C198 0.950 . S
H170 C200 0.950 . S
H171 C201 0.950 . S
C172 H154 0.951 . S
C172 C173 1.366 . S
C172 C174 1.388 . S
C173 C172 1.366 . S
C173 C177 1.385 . S
C174 H155 0.951 . S
C174 C172 1.388 . S
C174 C175 1.366 . S
C175 C174 1.366 . S
C175 C176 1.414 . S
C175 C178 1.499 . S
C176 H156 0.950 . S
C176 C175 1.414 . S
C176 C177 1.374 . S
C177 H157 0.950 . S
C177 C173 1.385 . S
C177 C176 1.374 . S
C178 C175 1.499 . S
C178 C179 1.373 . S
C178 C180 1.389 . S
C179 H158 0.950 . S
C179 C178 1.373 . S
C179 C195 1.377 . S
C180 C178 1.389 . S
C180 C181 1.524 . S
C180 C194 1.377 . S
C181 C180 1.524 . S
C181 C182 1.397 . S
C181 C186 1.363 . S
C182 H159 0.950 . S
C182 C181 1.397 . S
C182 C183 1.334 . S
C183 H160 0.950 . S
C183 C182 1.334 . S
C183 C184 1.287 . S
C184 C183 1.287 . S
C184 C185 1.524 . S
C184 H203 0.913 . S
C185 H161 0.950 . S
C185 C184 1.524 . S
C185 C186 1.415 . S
C186 H162 0.950 . S
C186 C181 1.363 . S
C186 C185 1.415 . S
C187 H163 0.951 1_554 S
C187 C188 1.366 . S
C187 C189 1.388 . S
C188 C187 1.366 . S
C188 C192 1.385 . S
C189 H164 0.951 . S
C189 C187 1.388 . S
C189 C190 1.366 . S
C190 C189 1.366 . S
C190 C191 1.414 . S
C190 C193 1.499 . S
C191 H165 0.950 . S
C191 C190 1.414 . S
C191 C192 1.374 . S
C192 H166 0.950 . S
C192 C188 1.385 . S
C192 C191 1.374 . S
C193 C190 1.499 . S
C193 C194 1.373 . S
C193 C195 1.389 . S
C194 H167 0.950 . S
C194 C180 1.377 . S
C194 C193 1.373 . S
C195 C179 1.377 . S
C195 C193 1.389 . S
C195 C196 1.524 . S
C196 C195 1.524 . S
C196 C197 1.397 . S
C196 C201 1.363 . S
C197 H168 0.950 . S
C197 C196 1.397 . S
C197 C198 1.334 . S
C198 H169 0.950 . S
C198 C197 1.334 . S
C198 C199 1.287 . S
C199 C198 1.287 . S
C199 C200 1.524 . S
C199 H202 0.999 . S
C200 H170 0.950 . S
C200 C199 1.524 . S
C200 C201 1.415 . S
C201 H171 0.950 . S
C201 C196 1.363 . S
C201 C200 1.415 . S
H202 C199 0.999 . S
H203 C184 0.913 . S
H204 C222 0.951 . S
H205 C224 0.951 . S
H206 C226 0.950 . S
H207 C227 0.950 . S
H208 C229 0.950 . S
H209 C232 0.950 . S
H210 C233 0.950 . S
H211 C235 0.950 . S
H212 C236 0.950 . S
H213 C237 0.951 . S
H214 C239 0.951 . S
H215 C241 0.950 . S
H216 C242 0.950 . S
H217 C244 0.950 . S
H218 C247 0.950 . S
H219 C248 0.950 . S
H220 C250 0.950 . S
H221 C251 0.950 . S
C222 H204 0.951 . S
C222 C223 1.366 . S
C222 C224 1.388 . S
C223 C222 1.366 . S
C223 C227 1.385 . S
C224 H205 0.951 . S
C224 C222 1.388 . S
C224 C225 1.366 . S
C225 C224 1.366 . S
C225 C226 1.414 . S
C225 C228 1.499 . S
C226 H206 0.950 . S
C226 C225 1.414 . S
C226 C227 1.374 . S
C227 H207 0.950 . S
C227 C223 1.385 . S
C227 C226 1.374 . S
C228 C225 1.499 . S
C228 C229 1.373 . S
C228 C230 1.389 . S
C229 H208 0.950 . S
C229 C228 1.373 . S
C229 C245 1.377 . S
C230 C228 1.389 . S
C230 C231 1.524 . S
C230 C244 1.377 . S
C231 C230 1.524 . S
C231 C232 1.397 . S
C231 C236 1.363 . S
C232 H209 0.950 . S
C232 C231 1.397 . S
C232 C233 1.334 . S
C233 H210 0.950 . S
C233 C232 1.334 . S
C233 C234 1.287 . S
C234 C233 1.287 . S
C234 C235 1.524 . S
C234 H253 0.913 . S
C235 H211 0.950 . S
C235 C234 1.524 . S
C235 C236 1.415 . S
C236 H212 0.950 . S
C236 C231 1.363 . S
C236 C235 1.415 . S
C237 H213 0.951 . S
C237 C238 1.366 . S
C237 C239 1.388 . S
C238 C237 1.366 . S
C238 C242 1.385 . S
C239 H214 0.951 . S
C239 C237 1.388 . S
C239 C240 1.366 . S
C240 C239 1.366 . S
C240 C241 1.414 . S
C240 C243 1.499 . S
C241 H215 0.950 . S
C241 C240 1.414 . S
C241 C242 1.374 . S
C242 H216 0.950 . S
C242 C238 1.385 . S
C242 C241 1.374 . S
C243 C240 1.499 . S
C243 C244 1.373 . S
C243 C245 1.389 . S
C244 H217 0.950 . S
C244 C230 1.377 . S
C244 C243 1.373 . S
C245 C229 1.377 . S
C245 C243 1.389 . S
C245 C246 1.524 . S
C246 C245 1.524 . S
C246 C247 1.397 . S
C246 C251 1.363 . S
C247 H218 0.950 . S
C247 C246 1.397 . S
C247 C248 1.334 . S
C248 H219 0.950 . S
C248 C247 1.334 . S
C248 C249 1.287 . S
C249 C248 1.287 . S
C249 C250 1.524 . S
C249 H252 0.999 . S
C250 H220 0.950 . S
C250 C249 1.524 . S
C250 C251 1.415 . S
C251 H221 0.950 . S
C251 C246 1.363 . S
C251 C250 1.415 . S
H252 C249 0.999 . S
H253 C234 0.913 . S
H254 C272 0.951 . S
H255 C274 0.951 . S
H256 C276 0.950 . S
H257 C277 0.950 . S
H258 C279 0.950 . S
H259 C282 0.950 . S
H260 C283 0.950 . S
H261 C285 0.950 . S
H262 C286 0.950 . S
H263 C287 0.951 . S
H264 C289 0.951 . S
H265 C291 0.950 . S
H266 C292 0.950 . S
H267 C294 0.950 . S
H268 C297 0.950 . S
H269 C298 0.950 . S
H270 C300 0.950 . S
H271 C301 0.950 . S
C272 H254 0.951 . S
C272 C273 1.366 . S
C272 C274 1.388 . S
C273 C272 1.366 . S
C273 C277 1.385 . S
C274 H255 0.951 . S
C274 C272 1.388 . S
C274 C275 1.366 . S
C275 C274 1.366 . S
C275 C276 1.414 . S
C275 C278 1.499 . S
C276 H256 0.950 . S
C276 C275 1.414 . S
C276 C277 1.374 . S
C277 H257 0.950 . S
C277 C273 1.385 . S
C277 C276 1.374 . S
C278 C275 1.499 . S
C278 C279 1.373 . S
C278 C280 1.389 . S
C279 H258 0.950 . S
C279 C278 1.373 . S
C279 C295 1.377 . S
C280 C278 1.389 . S
C280 C281 1.524 . S
C280 C294 1.377 . S
C281 C280 1.524 . S
C281 C282 1.397 . S
C281 C286 1.363 . S
C282 H259 0.950 . S
C282 C281 1.397 . S
C282 C283 1.334 1_556 S
C283 H260 0.950 . S
C283 C282 1.334 1_554 S
C283 C284 1.287 . S
C284 C283 1.287 . S
C284 C285 1.524 1_554 S
C284 H303 0.913 . S
C285 H261 0.950 . S
C285 C284 1.524 1_556 S
C285 C286 1.415 . S
C286 H262 0.950 . S
C286 C281 1.363 . S
C286 C285 1.415 . S
C287 H263 0.951 . S
C287 C288 1.366 . S
C287 C289 1.388 . S
C288 C287 1.366 . S
C288 C292 1.385 . S
C289 H264 0.951 . S
C289 C287 1.388 . S
C289 C290 1.366 . S
C290 C289 1.366 . S
C290 C291 1.414 . S
C290 C293 1.499 . S
C291 H265 0.950 . S
C291 C290 1.414 . S
C291 C292 1.374 . S
C292 H266 0.950 . S
C292 C288 1.385 . S
C292 C291 1.374 . S
C293 C290 1.499 . S
C293 C294 1.373 . S
C293 C295 1.389 . S
C294 H267 0.950 . S
C294 C280 1.377 . S
C294 C293 1.373 . S
C295 C279 1.377 . S
C295 C293 1.389 . S
C295 C296 1.524 . S
C296 C295 1.524 . S
C296 C297 1.397 . S
C296 C301 1.363 . S
C297 H268 0.950 . S
C297 C296 1.397 . S
C297 C298 1.334 . S
C298 H269 0.950 . S
C298 C297 1.334 . S
C298 C299 1.287 . S
C299 C298 1.287 . S
C299 C300 1.524 . S
C299 H302 0.999 . S
C300 H270 0.950 . S
C300 C299 1.524 . S
C300 C301 1.415 . S
C301 H271 0.950 . S
C301 C296 1.363 . S
C301 C300 1.415 . S
H302 C299 0.999 . S
H303 C284 0.913 . S
H304 C322 0.951 . S
H305 C324 0.951 . S
H306 C326 0.950 . S
H307 C327 0.950 . S
H308 C329 0.950 . S
H309 C332 0.950 . S
H310 C333 0.950 . S
H311 C335 0.950 . S
H312 C336 0.950 . S
H313 C337 0.951 . S
H314 C339 0.951 . S
H315 C341 0.950 . S
H316 C342 0.950 . S
H317 C344 0.950 . S
H318 C347 0.950 . S
H319 C348 0.950 . S
H320 C350 0.950 . S
H321 C351 0.950 . S
C322 H304 0.951 . S
C322 C323 1.366 . S
C322 C324 1.388 . S
C323 C322 1.366 . S
C323 C327 1.385 . S
C324 H305 0.951 . S
C324 C322 1.388 . S
C324 C325 1.366 . S
C325 C324 1.366 . S
C325 C326 1.414 . S
C325 C328 1.499 . S
C326 H306 0.950 . S
C326 C325 1.414 . S
C326 C327 1.374 . S
C327 H307 0.950 . S
C327 C323 1.385 . S
C327 C326 1.374 . S
C328 C325 1.499 . S
C328 C329 1.373 . S
C328 C330 1.389 . S
C329 H308 0.950 . S
C329 C328 1.373 . S
C329 C345 1.377 . S
C330 C328 1.389 . S
C330 C331 1.524 . S
C330 C344 1.377 . S
C331 C330 1.524 . S
C331 C332 1.397 . S
C331 C336 1.363 . S
C332 H309 0.950 . S
C332 C331 1.397 . S
C332 C333 1.334 . S
C333 H310 0.950 . S
C333 C332 1.334 . S
C333 C334 1.287 . S
C334 C333 1.287 . S
C334 C335 1.524 . S
C334 H353 0.913 . S
C335 H311 0.950 . S
C335 C334 1.524 . S
C335 C336 1.415 . S
C336 H312 0.950 . S
C336 C331 1.363 . S
C336 C335 1.415 . S
C337 H313 0.951 . S
C337 C338 1.366 . S
C337 C339 1.388 . S
C338 C337 1.366 . S
C338 C342 1.385 . S
C339 H314 0.951 . S
C339 C337 1.388 . S
C339 C340 1.366 . S
C340 C339 1.366 . S
C340 C341 1.414 . S
C340 C343 1.499 . S
C341 H315 0.950 . S
C341 C340 1.414 . S
C341 C342 1.374 . S
C342 H316 0.950 . S
C342 C338 1.385 . S
C342 C341 1.374 . S
C343 C340 1.499 . S
C343 C344 1.373 . S
C343 C345 1.389 . S
C344 H317 0.950 . S
C344 C330 1.377 . S
C344 C343 1.373 . S
C345 C329 1.377 . S
C345 C343 1.389 . S
C345 C346 1.524 . S
C346 C345 1.524 . S
C346 C347 1.397 . S
C346 C351 1.363 . S
C347 H318 0.950 . S
C347 C346 1.397 . S
C347 C348 1.334 . S
C348 H319 0.950 . S
C348 C347 1.334 . S
C348 C349 1.287 . S
C349 C348 1.287 . S
C349 C350 1.524 . S
C349 H352 0.999 . S
C350 H320 0.950 . S
C350 C349 1.524 . S
C350 C351 1.415 . S
C351 H321 0.950 . S
C351 C346 1.363 . S
C351 C350 1.415 . S
H352 C349 0.999 . S
H353 C334 0.913 . S
H354 C372 0.951 . S
H355 C374 0.951 . S
H356 C376 0.950 . S
H357 C377 0.950 . S
H358 C379 0.950 . S
H359 C382 0.950 . S
H360 C383 0.950 . S
H361 C385 0.950 . S
H362 C386 0.950 . S
H363 C387 0.951 . S
H364 C389 0.951 . S
H365 C391 0.950 . S
H366 C392 0.950 . S
H367 C394 0.950 . S
H368 C397 0.950 . S
H369 C398 0.950 . S
H370 C400 0.950 . S
H371 C401 0.950 . S
C372 H354 0.951 . S
C372 C373 1.366 . S
C372 C374 1.388 . S
C373 C372 1.366 . S
C373 C377 1.385 . S
C374 H355 0.951 . S
C374 C372 1.388 . S
C374 C375 1.366 . S
C375 C374 1.366 . S
C375 C376 1.414 . S
C375 C378 1.499 . S
C376 H356 0.950 . S
C376 C375 1.414 . S
C376 C377 1.374 . S
C377 H357 0.950 . S
C377 C373 1.385 . S
C377 C376 1.374 . S
C378 C375 1.499 . S
C378 C379 1.373 . S
C378 C380 1.389 . S
C379 H358 0.950 . S
C379 C378 1.373 . S
C379 C395 1.377 . S
C380 C378 1.389 . S
C380 C381 1.524 . S
C380 C394 1.377 . S
C381 C380 1.524 . S
C381 C382 1.397 . S
C381 C386 1.363 . S
C382 H359 0.950 . S
C382 C381 1.397 . S
C382 C383 1.334 . S
C383 H360 0.950 . S
C383 C382 1.334 . S
C383 C384 1.287 . S
C384 C383 1.287 . S
C384 C385 1.524 . S
C384 H403 0.913 . S
C385 H361 0.950 . S
C385 C384 1.524 . S
C385 C386 1.415 . S
C386 H362 0.950 . S
C386 C381 1.363 . S
C386 C385 1.415 . S
C387 H363 0.951 . S
C387 C388 1.366 . S
C387 C389 1.388 . S
C388 C387 1.366 . S
C388 C392 1.385 . S
C389 H364 0.951 . S
C389 C387 1.388 . S
C389 C390 1.366 . S
C390 C389 1.366 . S
C390 C391 1.414 . S
C390 C393 1.499 . S
C391 H365 0.950 . S
C391 C390 1.414 . S
C391 C392 1.374 . S
C392 H366 0.950 . S
C392 C388 1.385 . S
C392 C391 1.374 . S
C393 C390 1.499 . S
C393 C394 1.373 . S
C393 C395 1.389 . S
C394 H367 0.950 . S
C394 C380 1.377 . S
C394 C393 1.373 . S
C395 C379 1.377 . S
C395 C393 1.389 . S
C395 C396 1.524 . S
C396 C395 1.524 . S
C396 C397 1.397 . S
C396 C401 1.363 . S
C397 H368 0.950 . S
C397 C396 1.397 . S
C397 C398 1.334 . S
C398 H369 0.950 . S
C398 C397 1.334 . S
C398 C399 1.287 . S
C399 C398 1.287 . S
C399 C400 1.524 . S
C399 H402 0.999 . S
C400 H370 0.950 . S
C400 C399 1.524 . S
C400 C401 1.415 . S
C401 H371 0.950 . S
C401 C396 1.363 . S
C401 C400 1.415 . S
H402 C399 0.999 . S
H403 C384 0.913 . S
H404 C422 0.951 . S
H405 C424 0.951 . S
H406 C426 0.950 . S
H407 C427 0.950 . S
H408 C429 0.950 . S
H409 C432 0.950 . S
H410 C433 0.950 . S
H411 C435 0.950 . S
H412 C436 0.950 . S
H413 C437 0.951 . S
H414 C439 0.951 . S
H415 C441 0.950 . S
H416 C442 0.950 . S
H417 C444 0.950 . S
H418 C447 0.950 . S
H419 C448 0.950 . S
H420 C450 0.950 . S
H421 C451 0.950 . S
C422 H404 0.951 . S
C422 C423 1.366 . S
C422 C424 1.388 . S
C423 C422 1.366 . S
C423 C427 1.385 . S
C424 H405 0.951 . S
C424 C422 1.388 . S
C424 C425 1.366 . S
C425 C424 1.366 . S
C425 C426 1.414 . S
C425 C428 1.499 . S
C426 H406 0.950 . S
C426 C425 1.414 . S
C426 C427 1.374 . S
C427 H407 0.950 . S
C427 C423 1.385 . S
C427 C426 1.374 . S
C428 C425 1.499 . S
C428 C429 1.373 1_554 S
C428 C430 1.389 . S
C429 H408 0.950 . S
C429 C428 1.373 1_556 S
C429 C445 1.377 . S
C430 C428 1.389 . S
C430 C431 1.524 . S
C430 C444 1.377 . S
C431 C430 1.524 . S
C431 C432 1.397 . S
C431 C436 1.363 . S
C432 H409 0.950 . S
C432 C431 1.397 . S
C432 C433 1.334 . S
C433 H410 0.950 . S
C433 C432 1.334 . S
C433 C434 1.287 . S
C434 C433 1.287 . S
C434 C435 1.524 . S
C434 H453 0.913 . S
C435 H411 0.950 . S
C435 C434 1.524 . S
C435 C436 1.415 . S
C436 H412 0.950 . S
C436 C431 1.363 . S
C436 C435 1.415 . S
C437 H413 0.951 . S
C437 C438 1.366 . S
C437 C439 1.388 . S
C438 C437 1.366 . S
C438 C442 1.385 . S
C439 H414 0.951 . S
C439 C437 1.388 . S
C439 C440 1.366 . S
C440 C439 1.366 . S
C440 C441 1.414 . S
C440 C443 1.499 . S
C441 H415 0.950 . S
C441 C440 1.414 . S
C441 C442 1.374 . S
C442 H416 0.950 . S
C442 C438 1.385 . S
C442 C441 1.374 . S
C443 C440 1.499 . S
C443 C444 1.373 1_556 S
C443 C445 1.389 . S
C444 H417 0.950 . S
C444 C430 1.377 . S
C444 C443 1.373 1_554 S
C445 C429 1.377 . S
C445 C443 1.389 . S
C445 C446 1.524 . S
C446 C445 1.524 . S
C446 C447 1.397 . S
C446 C451 1.363 . S
C447 H418 0.950 . S
C447 C446 1.397 . S
C447 C448 1.334 . S
C448 H419 0.950 . S
C448 C447 1.334 . S
C448 C449 1.287 . S
C449 C448 1.287 . S
C449 C450 1.524 . S
C449 H452 0.999 . S
C450 H420 0.950 . S
C450 C449 1.524 . S
C450 C451 1.415 . S
C451 H421 0.950 . S
C451 C446 1.363 . S
C451 C450 1.415 . S
H452 C449 0.999 . S
H453 C434 0.913 . S
H454 C472 0.951 1_556 S
H455 C474 0.951 . S
H456 C476 0.950 . S
H457 C477 0.950 . S
H458 C479 0.950 . S
H459 C482 0.950 . S
H460 C483 0.950 . S
H461 C485 0.950 . S
H462 C486 0.950 . S
H463 C487 0.951 . S
H464 C489 0.951 . S
H465 C491 0.950 . S
H466 C492 0.950 . S
H467 C494 0.950 . S
H468 C497 0.950 . S
H469 C498 0.950 . S
H470 C500 0.950 . S
H471 C501 0.950 . S
C472 H454 0.951 1_554 S
C472 C473 1.366 . S
C472 C474 1.388 . S
C473 C472 1.366 . S
C473 C477 1.385 . S
C474 H455 0.951 . S
C474 C472 1.388 . S
C474 C475 1.366 . S
C475 C474 1.366 . S
C475 C476 1.414 . S
C475 C478 1.499 . S
C476 H456 0.950 . S
C476 C475 1.414 . S
C476 C477 1.374 . S
C477 H457 0.950 . S
C477 C473 1.385 . S
C477 C476 1.374 . S
C478 C475 1.499 . S
C478 C479 1.373 . S
C478 C480 1.389 . S
C479 H458 0.950 . S
C479 C478 1.373 . S
C479 C495 1.377 . S
C480 C478 1.389 . S
C480 C481 1.524 . S
C480 C494 1.377 . S
C481 C480 1.524 . S
C481 C482 1.397 . S
C481 C486 1.363 . S
C482 H459 0.950 . S
C482 C481 1.397 . S
C482 C483 1.334 . S
C483 H460 0.950 . S
C483 C482 1.334 . S
C483 C484 1.287 . S
C484 C483 1.287 . S
C484 C485 1.524 . S
C484 H503 0.913 . S
C485 H461 0.950 . S
C485 C484 1.524 . S
C485 C486 1.415 . S
C486 H462 0.950 . S
C486 C481 1.363 . S
C486 C485 1.415 . S
C487 H463 0.951 . S
C487 C488 1.366 . S
C487 C489 1.388 . S
C488 C487 1.366 . S
C488 C492 1.385 . S
C489 H464 0.951 . S
C489 C487 1.388 . S
C489 C490 1.366 . S
C490 C489 1.366 . S
C490 C491 1.414 . S
C490 C493 1.499 . S
C491 H465 0.950 . S
C491 C490 1.414 . S
C491 C492 1.374 . S
C492 H466 0.950 . S
C492 C488 1.385 . S
C492 C491 1.374 . S
C493 C490 1.499 . S
C493 C494 1.373 . S
C493 C495 1.389 . S
C494 H467 0.950 . S
C494 C480 1.377 . S
C494 C493 1.373 . S
C495 C479 1.377 . S
C495 C493 1.389 . S
C495 C496 1.524 . S
C496 C495 1.524 . S
C496 C497 1.397 . S
C496 C501 1.363 . S
C497 H468 0.950 . S
C497 C496 1.397 . S
C497 C498 1.334 . S
C498 H469 0.950 . S
C498 C497 1.334 . S
C498 C499 1.287 . S
C499 C498 1.287 . S
C499 C500 1.524 . S
C499 H502 0.999 . S
C500 H470 0.950 . S
C500 C499 1.524 . S
C500 C501 1.415 . S
C501 H471 0.950 . S
C501 C496 1.363 . S
C501 C500 1.415 . S
H502 C499 0.999 . S
H503 C484 0.913 . S
H504 C522 0.951 . S
H505 C524 0.951 . S
H506 C526 0.950 . S
H507 C527 0.950 . S
H508 C529 0.950 . S
H509 C532 0.950 . S
H510 C533 0.950 . S
H511 C535 0.950 . S
H512 C536 0.950 . S
H513 C537 0.951 . S
H514 C539 0.951 . S
H515 C541 0.950 . S
H516 C542 0.950 . S
H517 C544 0.950 . S
H518 C547 0.950 . S
H519 C548 0.950 . S
H520 C550 0.950 . S
H521 C551 0.950 . S
C522 H504 0.951 . S
C522 C523 1.366 . S
C522 C524 1.388 . S
C523 C522 1.366 . S
C523 C527 1.385 . S
C524 H505 0.951 . S
C524 C522 1.388 . S
C524 C525 1.366 . S
C525 C524 1.366 . S
C525 C526 1.414 . S
C525 C528 1.499 . S
C526 H506 0.950 . S
C526 C525 1.414 . S
C526 C527 1.374 . S
C527 H507 0.950 . S
C527 C523 1.385 . S
C527 C526 1.374 . S
C528 C525 1.499 . S
C528 C529 1.373 . S
C528 C530 1.389 . S
C529 H508 0.950 . S
C529 C528 1.373 . S
C529 C545 1.377 . S
C530 C528 1.389 . S
C530 C531 1.524 . S
C530 C544 1.377 . S
C531 C530 1.524 . S
C531 C532 1.397 . S
C531 C536 1.363 . S
C532 H509 0.950 . S
C532 C531 1.397 . S
C532 C533 1.334 . S
C533 H510 0.950 . S
C533 C532 1.334 . S
C533 C534 1.287 . S
C534 C533 1.287 . S
C534 C535 1.524 . S
C534 H553 0.913 . S
C535 H511 0.950 . S
C535 C534 1.524 . S
C535 C536 1.415 . S
C536 H512 0.950 . S
C536 C531 1.363 . S
C536 C535 1.415 . S
C537 H513 0.951 . S
C537 C538 1.366 . S
C537 C539 1.388 . S
C538 C537 1.366 . S
C538 C542 1.385 . S
C539 H514 0.951 . S
C539 C537 1.388 . S
C539 C540 1.366 . S
C540 C539 1.366 . S
C540 C541 1.414 . S
C540 C543 1.499 . S
C541 H515 0.950 . S
C541 C540 1.414 . S
C541 C542 1.374 . S
C542 H516 0.950 . S
C542 C538 1.385 . S
C542 C541 1.374 . S
C543 C540 1.499 . S
C543 C544 1.373 . S
C543 C545 1.389 . S
C544 H517 0.950 . S
C544 C530 1.377 . S
C544 C543 1.373 . S
C545 C529 1.377 . S
C545 C543 1.389 . S
C545 C546 1.524 . S
C546 C545 1.524 . S
C546 C547 1.397 . S
C546 C551 1.363 . S
C547 H518 0.950 . S
C547 C546 1.397 . S
C547 C548 1.334 . S
C548 H519 0.950 . S
C548 C547 1.334 . S
C548 C549 1.287 . S
C549 C548 1.287 . S
C549 C550 1.524 . S
C549 H552 0.999 . S
C550 H520 0.950 . S
C550 C549 1.524 . S
C550 C551 1.415 . S
C551 H521 0.950 . S
C551 C546 1.363 . S
C551 C550 1.415 . S
H552 C549 0.999 . S
H553 C534 0.913 . S
H554 C572 0.951 . S
H555 C574 0.951 . S
H556 C576 0.950 . S
H557 C577 0.950 1_545 S
H558 C579 0.950 . S
H559 C582 0.950 . S
H560 C583 0.950 . S
H561 C585 0.950 . S
H562 C586 0.950 . S
H563 C587 0.951 . S
H564 C589 0.951 . S
H565 C591 0.950 . S
H566 C592 0.950 . S
H567 C594 0.950 . S
H568 C597 0.950 . S
H569 C598 0.950 . S
H570 C600 0.950 . S
H571 C601 0.950 . S
C572 H554 0.951 . S
C572 C573 1.366 . S
C572 C574 1.388 . S
C573 C572 1.366 . S
C573 C577 1.385 . S
C574 H555 0.951 . S
C574 C572 1.388 . S
C574 C575 1.366 . S
C575 C574 1.366 . S
C575 C576 1.414 . S
C575 C578 1.499 . S
C576 H556 0.950 . S
C576 C575 1.414 . S
C576 C577 1.374 . S
C577 H557 0.950 1_565 S
C577 C573 1.385 . S
C577 C576 1.374 . S
C578 C575 1.499 . S
C578 C579 1.373 . S
C578 C580 1.389 . S
C579 H558 0.950 . S
C579 C578 1.373 . S
C579 C595 1.377 . S
C580 C578 1.389 . S
C580 C581 1.524 . S
C580 C594 1.377 . S
C581 C580 1.524 . S
C581 C582 1.397 . S
C581 C586 1.363 . S
C582 H559 0.950 . S
C582 C581 1.397 . S
C582 C583 1.334 . S
C583 H560 0.950 . S
C583 C582 1.334 . S
C583 C584 1.287 . S
C584 C583 1.287 . S
C584 C585 1.524 . S
C584 H603 0.913 . S
C585 H561 0.950 . S
C585 C584 1.524 . S
C585 C586 1.415 . S
C586 H562 0.950 . S
C586 C581 1.363 . S
C586 C585 1.415 . S
C587 H563 0.951 . S
C587 C588 1.366 . S
C587 C589 1.388 . S
C588 C587 1.366 . S
C588 C592 1.385 . S
C589 H564 0.951 . S
C589 C587 1.388 . S
C589 C590 1.366 . S
C590 C589 1.366 . S
C590 C591 1.414 . S
C590 C593 1.499 . S
C591 H565 0.950 . S
C591 C590 1.414 . S
C591 C592 1.374 . S
C592 H566 0.950 . S
C592 C588 1.385 . S
C592 C591 1.374 . S
C593 C590 1.499 . S
C593 C594 1.373 . S
C593 C595 1.389 . S
C594 H567 0.950 . S
C594 C580 1.377 . S
C594 C593 1.373 . S
C595 C579 1.377 . S
C595 C593 1.389 . S
C595 C596 1.524 . S
C596 C595 1.524 . S
C596 C597 1.397 . S
C596 C601 1.363 . S
C597 H568 0.950 . S
C597 C596 1.397 . S
C597 C598 1.334 . S
C598 H569 0.950 . S
C598 C597 1.334 . S
C598 C599 1.287 . S
C599 C598 1.287 . S
C599 C600 1.524 . S
C599 H602 0.999 . S
C600 H570 0.950 . S
C600 C599 1.524 . S
C600 C601 1.415 . S
C601 H571 0.950 . S
C601 C596 1.363 . S
C601 C600 1.415 . S
H602 C599 0.999 . S
H603 C584 0.913 . S
H604 C622 0.951 . S
H605 C624 0.951 . S
H606 C626 0.950 . S
H607 C627 0.947 . S
H608 C629 0.950 . S
H609 C632 0.950 . S
H610 C633 0.950 . S
H611 C635 0.950 . S
H612 C636 0.950 . S
H613 C637 0.951 1_565 S
H614 C639 0.951 . S
H615 C641 0.950 . S
H616 C642 0.950 . S
H617 C644 0.950 . S
H618 C647 0.950 . S
H619 C648 0.949 . S
H620 C650 0.950 . S
H621 C651 0.950 . S
C622 H604 0.951 . S
C622 C623 1.366 . S
C622 C624 1.388 . S
C623 C622 1.366 . S
C623 C627 1.385 1_455 S
C624 H605 0.951 . S
C624 C622 1.388 . S
C624 C625 1.366 . S
C625 C624 1.366 . S
C625 C626 1.414 . S
C625 C628 1.499 . S
C626 H606 0.950 . S
C626 C625 1.414 . S
C626 C627 1.376 1_455 S
C627 H607 0.947 . S
C627 C623 1.385 1_655 S
C627 C626 1.376 1_655 S
C628 C625 1.499 . S
C628 C629 1.373 . S
C628 C630 1.389 1_554 S
C629 H608 0.950 . S
C629 C628 1.373 . S
C629 C645 1.377 . S
C630 C628 1.389 1_556 S
C630 C631 1.524 . S
C630 C644 1.377 . S
C631 C630 1.524 . S
C631 C632 1.397 . S
C631 C636 1.363 . S
C632 H609 0.950 . S
C632 C631 1.397 . S
C632 C633 1.334 . S
C633 H610 0.950 . S
C633 C632 1.334 . S
C633 C634 1.287 . S
C634 C633 1.287 . S
C634 C635 1.524 . S
C634 H653 0.913 . S
C635 H611 0.950 . S
C635 C634 1.524 . S
C635 C636 1.415 . S
C636 H612 0.950 . S
C636 C631 1.363 . S
C636 C635 1.415 . S
C637 H613 0.951 1_545 S
C637 C638 1.366 . S
C637 C639 1.388 . S
C638 C637 1.366 . S
C638 C642 1.385 . S
C639 H614 0.951 . S
C639 C637 1.388 . S
C639 C640 1.366 . S
C640 C639 1.366 . S
C640 C641 1.414 . S
C640 C643 1.499 . S
C641 H615 0.950 . S
C641 C640 1.414 . S
C641 C642 1.374 . S
C642 H616 0.950 . S
C642 C638 1.385 . S
C642 C641 1.374 . S
C643 C640 1.499 . S
C643 C644 1.373 . S
C643 C645 1.389 1_556 S
C644 H617 0.950 . S
C644 C630 1.377 . S
C644 C643 1.373 . S
C645 C629 1.377 . S
C645 C643 1.389 1_554 S
C645 C646 1.524 . S
C646 C645 1.524 . S
C646 C647 1.397 . S
C646 C651 1.363 . S
C647 H618 0.950 . S
C647 C646 1.397 . S
C647 C648 1.334 . S
C648 H619 0.949 . S
C648 C647 1.334 . S
C648 C649 1.287 1_545 S
C649 C648 1.287 1_565 S
C649 C650 1.524 . S
C649 H652 0.999 . S
C650 H620 0.950 . S
C650 C649 1.524 . S
C650 C651 1.415 1_565 S
C651 H621 0.950 . S
C651 C646 1.363 . S
C651 C650 1.415 1_545 S
H652 C649 0.999 . S
H653 C634 0.913 . S
H654 C672 0.951 . S
H655 C674 0.951 . S
H656 C676 0.950 . S
H657 C677 0.950 1_455 S
H658 C679 0.950 . S
H659 C682 0.950 . S
H660 C683 0.950 . S
H661 C685 0.950 . S
H662 C686 0.950 . S
H663 C687 0.951 . S
H664 C689 0.951 . S
H665 C691 0.950 . S
H666 C692 0.950 . S
H667 C694 0.950 . S
H668 C697 0.950 . S
H669 C698 0.950 . S
H670 C700 0.950 . S
H671 C701 0.950 . S
C672 H654 0.951 . S
C672 C673 1.366 . S
C672 C674 1.388 . S
C673 C672 1.366 . S
C673 C677 1.385 . S
C674 H655 0.951 . S
C674 C672 1.388 . S
C674 C675 1.366 . S
C675 C674 1.366 . S
C675 C676 1.414 . S
C675 C678 1.499 . S
C676 H656 0.950 . S
C676 C675 1.414 . S
C676 C677 1.374 . S
C677 H657 0.950 1_655 S
C677 C673 1.385 . S
C677 C676 1.374 . S
C678 C675 1.499 . S
C678 C679 1.373 . S
C678 C680 1.389 . S
C679 H658 0.950 . S
C679 C678 1.373 . S
C679 C695 1.377 . S
C680 C678 1.389 . S
C680 C681 1.524 . S
C680 C694 1.377 . S
C681 C680 1.524 . S
C681 C682 1.397 . S
C681 C686 1.363 . S
C682 H659 0.950 . S
C682 C681 1.397 . S
C682 C683 1.334 . S
C683 H660 0.950 . S
C683 C682 1.334 . S
C683 C684 1.287 . S
C684 C683 1.287 . S
C684 C685 1.524 . S
C684 H703 0.913 . S
C685 H661 0.950 . S
C685 C684 1.524 . S
C685 C686 1.415 . S
C686 H662 0.950 . S
C686 C681 1.363 . S
C686 C685 1.415 . S
C687 H663 0.951 . S
C687 C688 1.366 . S
C687 C689 1.388 . S
C688 C687 1.366 . S
C688 C692 1.385 . S
C689 H664 0.951 . S
C689 C687 1.388 . S
C689 C690 1.366 . S
C690 C689 1.366 . S
C690 C691 1.414 . S
C690 C693 1.499 . S
C691 H665 0.950 . S
C691 C690 1.414 . S
C691 C692 1.374 . S
C692 H666 0.950 . S
C692 C688 1.385 . S
C692 C691 1.374 . S
C693 C690 1.499 . S
C693 C694 1.373 . S
C693 C695 1.389 . S
C694 H667 0.950 . S
C694 C680 1.377 . S
C694 C693 1.373 . S
C695 C679 1.377 . S
C695 C693 1.389 . S
C695 C696 1.524 . S
C696 C695 1.524 . S
C696 C697 1.397 . S
C696 C701 1.363 . S
C697 H668 0.950 . S
C697 C696 1.397 . S
C697 C698 1.334 . S
C698 H669 0.950 . S
C698 C697 1.334 . S
C698 C699 1.287 . S
C699 C698 1.287 . S
C699 C700 1.524 . S
C699 H702 0.999 1_554 S
C700 H670 0.950 . S
C700 C699 1.524 . S
C700 C701 1.415 . S
C701 H671 0.950 . S
C701 C696 1.363 . S
C701 C700 1.415 . S
H702 C699 0.999 1_556 S
H703 C684 0.913 . S
H704 C722 0.951 . S
H705 C724 0.951 . S
H706 C726 0.950 . S
H707 C727 0.950 1_565 S
H708 C729 0.950 . S
H709 C732 0.950 . S
H710 C733 0.950 . S
H711 C735 0.950 . S
H712 C736 0.950 . S
H713 C737 0.951 . S
H714 C739 0.951 . S
H715 C741 0.950 . S
H716 C742 0.950 . S
H717 C744 0.950 . S
H718 C747 0.950 . S
H719 C748 0.950 . S
H720 C750 0.950 . S
H721 C751 0.950 . S
C722 H704 0.951 . S
C722 C723 1.366 . S
C722 C724 1.388 . S
C723 C722 1.366 . S
C723 C727 1.385 . S
C724 H705 0.951 . S
C724 C722 1.388 . S
C724 C725 1.366 . S
C725 C724 1.366 . S
C725 C726 1.414 . S
C725 C728 1.499 . S
C726 H706 0.950 . S
C726 C725 1.414 . S
C726 C727 1.374 . S
C727 H707 0.950 1_545 S
C727 C723 1.385 . S
C727 C726 1.374 . S
C728 C725 1.499 . S
C728 C729 1.373 . S
C728 C730 1.389 . S
C729 H708 0.950 . S
C729 C728 1.373 . S
C729 C745 1.377 . S
C730 C728 1.389 . S
C730 C731 1.524 . S
C730 C744 1.377 . S
C731 C730 1.524 . S
C731 C732 1.397 . S
C731 C736 1.363 . S
C732 H709 0.950 . S
C732 C731 1.397 . S
C732 C733 1.334 . S
C733 H710 0.950 . S
C733 C732 1.334 . S
C733 C734 1.287 . S
C734 C733 1.287 . S
C734 C735 1.524 . S
C734 H753 0.913 . S
C735 H711 0.950 . S
C735 C734 1.524 . S
C735 C736 1.415 . S
C736 H712 0.950 . S
C736 C731 1.363 . S
C736 C735 1.415 . S
C737 H713 0.951 . S
C737 C738 1.366 . S
C737 C739 1.388 . S
C738 C737 1.366 . S
C738 C742 1.385 . S
C739 H714 0.951 . S
C739 C737 1.388 . S
C739 C740 1.366 . S
C740 C739 1.366 . S
C740 C741 1.414 . S
C740 C743 1.499 . S
C741 H715 0.950 . S
C741 C740 1.414 . S
C741 C742 1.374 . S
C742 H716 0.950 . S
C742 C738 1.385 . S
C742 C741 1.374 . S
C743 C740 1.499 . S
C743 C744 1.373 . S
C743 C745 1.389 . S
C744 H717 0.950 . S
C744 C730 1.377 . S
C744 C743 1.373 . S
C745 C729 1.377 . S
C745 C743 1.389 . S
C745 C746 1.524 . S
C746 C745 1.524 . S
C746 C747 1.397 . S
C746 C751 1.363 . S
C747 H718 0.950 . S
C747 C746 1.397 . S
C747 C748 1.334 . S
C748 H719 0.950 . S
C748 C747 1.334 . S
C748 C749 1.287 . S
C749 C748 1.287 . S
C749 C750 1.524 . S
C749 H752 0.999 . S
C750 H720 0.950 . S
C750 C749 1.524 . S
C750 C751 1.415 . S
C751 H721 0.950 . S
C751 C746 1.363 . S
C751 C750 1.415 . S
H752 C749 0.999 . S
H753 C734 0.913 . S
H754 C772 0.914 1_545 S
H755 C774 0.951 . S
H756 C776 0.950 . S
H757 C777 0.950 . S
H758 C779 0.950 . S
H759 C782 0.950 . S
H760 C783 0.950 . S
H761 C785 0.950 . S
H762 C786 0.950 . S
H763 C787 0.951 . S
H764 C789 0.951 . S
H765 C791 0.950 . S
H766 C792 0.947 1_455 S
H767 C794 0.950 . S
H768 C797 0.950 . S
H769 C798 0.950 . S
H770 C800 0.950 . S
H771 C801 0.950 . S
C772 H754 0.914 1_565 S
C772 C773 1.374 . S
C772 C774 1.416 . S
C773 C772 1.374 . S
C773 C777 1.385 . S
C774 H755 0.951 . S
C774 C772 1.416 . S
C774 C775 1.366 . S
C775 C774 1.366 . S
C775 C776 1.414 . S
C775 C778 1.499 . S
C776 H756 0.950 . S
C776 C775 1.414 . S
C776 C777 1.374 . S
C777 H757 0.950 . S
C777 C773 1.385 . S
C777 C776 1.374 . S
C778 C775 1.499 . S
C778 C779 1.373 1_556 S
C778 C780 1.389 . S
C779 H758 0.950 . S
C779 C778 1.373 1_554 S
C779 C795 1.377 . S
C780 C778 1.389 . S
C780 C781 1.524 . S
C780 C794 1.377 . S
C781 C780 1.524 . S
C781 C782 1.397 . S
C781 C786 1.363 . S
C782 H759 0.950 . S
C782 C781 1.397 . S
C782 C783 1.334 . S
C783 H760 0.950 . S
C783 C782 1.334 . S
C783 C784 1.287 . S
C784 C783 1.287 . S
C784 C785 1.524 . S
C784 H803 0.913 . S
C785 H761 0.950 . S
C785 C784 1.524 . S
C785 C786 1.415 . S
C786 H762 0.950 . S
C786 C781 1.363 . S
C786 C785 1.415 . S
C787 H763 0.951 . S
C787 C788 1.366 . S
C787 C789 1.388 . S
C788 C787 1.366 . S
C788 C792 1.385 . S
C789 H764 0.951 . S
C789 C787 1.388 . S
C789 C790 1.366 . S
C790 C789 1.366 . S
C790 C791 1.414 . S
C790 C793 1.499 . S
C791 H765 0.950 . S
C791 C790 1.414 . S
C791 C792 1.376 . S
C792 H766 0.947 1_655 S
C792 C788 1.385 . S
C792 C791 1.376 . S
C793 C790 1.499 . S
C793 C794 1.373 1_554 S
C793 C795 1.389 . S
C794 H767 0.950 . S
C794 C780 1.377 . S
C794 C793 1.373 1_556 S
C795 C779 1.377 . S
C795 C793 1.389 . S
C795 C796 1.524 . S
C796 C795 1.524 . S
C796 C797 1.397 . S
C796 C801 1.363 . S
C797 H768 0.950 . S
C797 C796 1.397 . S
C797 C798 1.334 . S
C798 H769 0.950 . S
C798 C797 1.334 . S
C798 C799 1.287 . S
C799 C798 1.287 . S
C799 C800 1.524 . S
C799 H802 0.999 . S
C800 H770 0.950 . S
C800 C799 1.524 . S
C800 C801 1.415 . S
C801 H771 0.950 . S
C801 C796 1.363 . S
C801 C800 1.415 . S
H802 C799 0.999 . S
H803 C784 0.913 . S
H804 C822 0.951 1_655 S
H805 C824 0.951 . S
H806 C826 0.950 . S
H807 C827 0.950 . S
H808 C829 0.950 . S
H809 C832 0.950 . S
H810 C833 0.950 1_556 S
H811 C835 0.950 . S
H812 C836 0.950 . S
H813 C837 0.951 . S
H814 C839 0.951 . S
H815 C841 0.950 . S
H816 C842 0.950 . S
H817 C844 0.950 . S
H818 C847 0.950 . S
H819 C848 0.950 . S
H820 C850 0.950 . S
H821 C851 0.950 . S
C822 H804 0.951 1_455 S
C822 C823 1.366 . S
C822 C824 1.388 . S
C823 C822 1.366 . S
C823 C827 1.385 . S
C824 H805 0.951 . S
C824 C822 1.388 . S
C824 C825 1.366 . S
C825 C824 1.366 . S
C825 C826 1.414 . S
C825 C828 1.499 . S
C826 H806 0.950 . S
C826 C825 1.414 . S
C826 C827 1.374 . S
C827 H807 0.950 . S
C827 C823 1.385 . S
C827 C826 1.374 . S
C828 C825 1.499 . S
C828 C829 1.373 . S
C828 C830 1.389 . S
C829 H808 0.950 . S
C829 C828 1.373 . S
C829 C845 1.377 . S
C830 C828 1.389 . S
C830 C831 1.524 . S
C830 C844 1.377 . S
C831 C830 1.524 . S
C831 C832 1.397 . S
C831 C836 1.363 . S
C832 H809 0.950 . S
C832 C831 1.397 . S
C832 C833 1.334 . S
C833 H810 0.950 1_554 S
C833 C832 1.334 . S
C833 C834 1.287 1_554 S
C834 C833 1.287 1_556 S
C834 C835 1.524 . S
C834 H853 0.913 . S
C835 H811 0.950 . S
C835 C834 1.524 . S
C835 C836 1.415 1_556 S
C836 H812 0.950 . S
C836 C831 1.363 . S
C836 C835 1.415 1_554 S
C837 H813 0.951 . S
C837 C838 1.366 . S
C837 C839 1.388 . S
C838 C837 1.366 . S
C838 C842 1.385 . S
C839 H814 0.951 . S
C839 C837 1.388 . S
C839 C840 1.366 . S
C840 C839 1.366 . S
C840 C841 1.414 . S
C840 C843 1.499 . S
C841 H815 0.950 . S
C841 C840 1.414 . S
C841 C842 1.374 . S
C842 H816 0.950 . S
C842 C838 1.385 . S
C842 C841 1.374 . S
C843 C840 1.499 . S
C843 C844 1.373 . S
C843 C845 1.389 . S
C844 H817 0.950 . S
C844 C830 1.377 . S
C844 C843 1.373 . S
C845 C829 1.377 . S
C845 C843 1.389 . S
C845 C846 1.524 . S
C846 C845 1.524 . S
C846 C847 1.397 . S
C846 C851 1.363 . S
C847 H818 0.950 . S
C847 C846 1.397 . S
C847 C848 1.334 . S
C848 H819 0.950 . S
C848 C847 1.334 . S
C848 C849 1.287 . S
C849 C848 1.287 . S
C849 C850 1.524 . S
C849 H852 0.999 . S
C850 H820 0.950 . S
C850 C849 1.524 . S
C850 C851 1.415 . S
C851 H821 0.950 . S
C851 C846 1.363 . S
C851 C850 1.415 . S
H852 C849 0.999 . S
H853 C834 0.913 . S
H854 C872 0.951 . S
H855 C874 0.951 . S
H856 C876 0.950 . S
H857 C877 0.950 . S
H858 C879 0.950 . S
H859 C882 0.950 . S
H860 C883 0.950 . S
H861 C885 0.950 . S
H862 C886 0.950 . S
H863 C887 0.951 . S
H864 C889 0.951 . S
H865 C891 0.950 . S
H866 C892 0.950 . S
H867 C894 0.950 . S
H868 C897 0.950 . S
H869 C898 0.950 . S
H870 C900 0.950 . S
H871 C901 0.950 . S
C872 H854 0.951 . S
C872 C873 1.366 . S
C872 C874 1.388 . S
C873 C872 1.366 . S
C873 C877 1.385 . S
C874 H855 0.951 . S
C874 C872 1.388 . S
C874 C875 1.366 . S
C875 C874 1.366 . S
C875 C876 1.414 . S
C875 C878 1.499 . S
C876 H856 0.950 . S
C876 C875 1.414 . S
C876 C877 1.374 . S
C877 H857 0.950 . S
C877 C873 1.385 . S
C877 C876 1.374 . S
C878 C875 1.499 . S
C878 C879 1.373 . S
C878 C880 1.389 . S
C879 H858 0.950 . S
C879 C878 1.373 . S
C879 C895 1.377 . S
C880 C878 1.389 . S
C880 C881 1.524 . S
C880 C894 1.377 . S
C881 C880 1.524 . S
C881 C882 1.397 . S
C881 C886 1.363 . S
C882 H859 0.950 . S
C882 C881 1.397 . S
C882 C883 1.334 . S
C883 H860 0.950 . S
C883 C882 1.334 . S
C883 C884 1.287 . S
C884 C883 1.287 . S
C884 C885 1.524 . S
C884 H903 0.913 . S
C885 H861 0.950 . S
C885 C884 1.524 . S
C885 C886 1.415 . S
C886 H862 0.950 . S
C886 C881 1.363 . S
C886 C885 1.415 . S
C887 H863 0.951 . S
C887 C888 1.366 . S
C887 C889 1.388 . S
C888 C887 1.366 . S
C888 C892 1.385 . S
C889 H864 0.951 . S
C889 C887 1.388 . S
C889 C890 1.366 . S
C890 C889 1.366 . S
C890 C891 1.414 . S
C890 C893 1.499 . S
C891 H865 0.950 . S
C891 C890 1.414 . S
C891 C892 1.374 . S
C892 H866 0.950 . S
C892 C888 1.385 . S
C892 C891 1.374 . S
C893 C890 1.499 . S
C893 C894 1.373 . S
C893 C895 1.389 . S
C894 H867 0.950 . S
C894 C880 1.377 . S
C894 C893 1.373 . S
C895 C879 1.377 . S
C895 C893 1.389 . S
C895 C896 1.524 . S
C896 C895 1.524 . S
C896 C897 1.397 . S
C896 C901 1.363 . S
C897 H868 0.950 . S
C897 C896 1.397 . S
C897 C898 1.334 . S
C898 H869 0.950 . S
C898 C897 1.334 . S
C898 C899 1.287 . S
C899 C898 1.287 . S
C899 C900 1.524 . S
C899 H902 0.999 . S
C900 H870 0.950 . S
C900 C899 1.524 . S
C900 C901 1.415 . S
C901 H871 0.950 . S
C901 C896 1.363 . S
C901 C900 1.415 . S
H902 C899 0.999 . S
H903 C884 0.913 . S
C123 C23 1.348 . S
C138 C10 1.348 . S
C173 C13 1.363 . S
C188 C26 1.363 1_554 S
C223 C49 1.348 . S
C238 C36 1.348 . S
C273 C39 1.363 1_556 S
C288 C0 1.363 . S
C323 C62 1.348 . S
C338 C75 1.348 . S
C373 C65 1.362 1_556 S
C388 C78 1.363 . S
C423 C88 1.348 . S
C438 C101 1.348 . S
C473 C52 1.363 1_554 S
C488 C91 1.363 . S
C523 C5 1.416 . S
C538 C96 1.416 . S
C573 C60 1.417 1_565 S
C588 C21 1.416 . S
C623 C70 1.415 1_455 S
C638 C31 1.415 1_545 S
C673 C47 1.417 1_655 S
C688 C86 1.417 . S
C723 C34 1.417 1_545 S
C738 C99 1.416 . S
C773 C57 1.416 1_565 S
C788 C44 1.416 1_655 S
C823 C73 1.417 1_455 S
C838 C8 1.417 . S
C873 C18 1.415 . S
C888 C83 1.415 . S
