# Generated by pormake.
# Topology smc, (6)-cn, num edge types: 1
# Building blocks:
#     Node 0, Type 0, BuildingBlock: UKALOJ_clean_sbu_0, # of connection points: 6
#     Node 1, Type 0, BuildingBlock: UKALOJ_clean_sbu_0, # of connection points: 6
#     Node 2, Type 0, BuildingBlock: UKALOJ_clean_sbu_0, # of connection points: 6
#     Node 3, Type 0, BuildingBlock: UKALOJ_clean_sbu_0, # of connection points: 6
#     Node 4, Type 0, BuildingBlock: UKALOJ_clean_sbu_0, # of connection points: 6
#     Node 5, Type 0, BuildingBlock: UKALOJ_clean_sbu_0, # of connection points: 6
#     Node 6, Type 0, BuildingBlock: UKALOJ_clean_sbu_0, # of connection points: 6
#     Node 7, Type 0, BuildingBlock: UKALOJ_clean_sbu_0, # of connection points: 6
#     Node 8, Type 0, BuildingBlock: UKALOJ_clean_sbu_0, # of connection points: 6
#     Edge 9, Type (0, 0), BuildingBlock: KIFKEQ_clean_linker_1, # of connection points: 2
#     Edge 10, Type (0, 0), BuildingBlock: KIFKEQ_clean_linker_1, # of connection points: 2
#     Edge 11, Type (0, 0), BuildingBlock: KIFKEQ_clean_linker_1, # of connection points: 2
#     Edge 12, Type (0, 0), BuildingBlock: KIFKEQ_clean_linker_1, # of connection points: 2
#     Edge 13, Type (0, 0), BuildingBlock: KIFKEQ_clean_linker_1, # of connection points: 2
#     Edge 14, Type (0, 0), BuildingBlock: KIFKEQ_clean_linker_1, # of connection points: 2
#     Edge 15, Type (0, 0), BuildingBlock: KIFKEQ_clean_linker_1, # of connection points: 2
#     Edge 16, Type (0, 0), BuildingBlock: KIFKEQ_clean_linker_1, # of connection points: 2
#     Edge 17, Type (0, 0), BuildingBlock: KIFKEQ_clean_linker_1, # of connection points: 2
#     Edge 18, Type (0, 0), BuildingBlock: KIFKEQ_clean_linker_1, # of connection points: 2
#     Edge 19, Type (0, 0), BuildingBlock: KIFKEQ_clean_linker_1, # of connection points: 2
#     Edge 20, Type (0, 0), BuildingBlock: KIFKEQ_clean_linker_1, # of connection points: 2
#     Edge 21, Type (0, 0), BuildingBlock: KIFKEQ_clean_linker_1, # of connection points: 2
#     Edge 22, Type (0, 0), BuildingBlock: KIFKEQ_clean_linker_1, # of connection points: 2
#     Edge 23, Type (0, 0), BuildingBlock: KIFKEQ_clean_linker_1, # of connection points: 2
#     Edge 24, Type (0, 0), BuildingBlock: KIFKEQ_clean_linker_1, # of connection points: 2
#     Edge 25, Type (0, 0), BuildingBlock: KIFKEQ_clean_linker_1, # of connection points: 2
#     Edge 26, Type (0, 0), BuildingBlock: KIFKEQ_clean_linker_1, # of connection points: 2
#     Edge 27, Type (0, 0), BuildingBlock: KIFKEQ_clean_linker_1, # of connection points: 2
#     Edge 28, Type (0, 0), BuildingBlock: KIFKEQ_clean_linker_1, # of connection points: 2
#     Edge 29, Type (0, 0), BuildingBlock: KIFKEQ_clean_linker_1, # of connection points: 2
#     Edge 30, Type (0, 0), BuildingBlock: KIFKEQ_clean_linker_1, # of connection points: 2
#     Edge 31, Type (0, 0), BuildingBlock: KIFKEQ_clean_linker_1, # of connection points: 2
#     Edge 32, Type (0, 0), BuildingBlock: KIFKEQ_clean_linker_1, # of connection points: 2
#     Edge 33, Type (0, 0), BuildingBlock: KIFKEQ_clean_linker_1, # of connection points: 2
#     Edge 34, Type (0, 0), BuildingBlock: KIFKEQ_clean_linker_1, # of connection points: 2
#     Edge 35, Type (0, 0), BuildingBlock: KIFKEQ_clean_linker_1, # of connection points: 2
# Relax obj value: 0.107
# Max RMSD: 0.212
# Mean RMSD: 0.212
data_MOF--net-smc--node1-UKALOJ_clean_sbu_0--edge1-KIFKEQ_clean_linker_1
_symmetry_space_group_name_H-M    P1
_symmetry_Int_Tables_number       1
_symmetry_cell_setting            triclinic
loop_
_symmetry_equiv_pos_as_xyz
'x, y, z'
_cell_length_a     28.656876
_cell_length_b     28.660151
_cell_length_c     60.005567
_cell_angle_alpha  90.011409
_cell_angle_beta   90.007643
_cell_angle_gamma 119.97372
loop_
_atom_site_label
_atom_site_type_symbol
_atom_site_fract_x
_atom_site_fract_y
_atom_site_fract_z
_atom_type_partial_charge
Zn0 Zn 0.01072 0.42994 0.06187 0.0
O1 O 0.07224 0.5109 0.0636 0.0
C2 C 0.08965 0.40231 0.04515 0.0
Zn3 Zn 0.0114 0.43044 0.0245 0.0
C4 C 0.08694 0.53692 0.04538 0.0
O5 O 0.06885 0.51248 0.02698 0.0
C6 C 0.92994 0.32506 0.04104 0.0
O7 O 0.95223 0.45322 0.02278 0.0
O8 O 0.95545 0.45765 0.05938 0.0
N9 N 0.02062 0.43472 0.99035 0.0
C10 C 0.98642 0.41071 0.97315 0.0
C11 C 0.06494 0.4582 0.95943 0.0
N12 N 0.0693 0.46431 0.98171 0.0
N13 N 0.01336 0.42449 0.95351 0.0
C14 C 0.03409 0.43053 0.11321 0.0
C15 C 0.95934 0.41453 0.12734 0.0
N16 N 0.00156 0.42632 0.09612 0.0
N17 N 0.95522 0.41663 0.10502 0.0
N18 N 0.00846 0.42297 0.1329 0.0
H19 H 0.10986 0.46954 0.09577 0.0
H20 H 0.1152 0.46645 0.12572 0.0
H21 H 0.09282 0.40658 0.10932 0.0
C22 C 0.09153 0.44446 0.11079 0.0
C23 C 0.92666 0.3762 0.9756 0.0
H24 H 0.91252 0.38507 0.99135 0.0
H25 H 0.90575 0.38233 0.9613 0.0
H26 H 0.91609 0.3334 0.97583 0.0
O27 O 0.95211 0.34909 0.02298 0.0
O28 O 0.94739 0.34943 0.05951 0.0
C29 C 0.938 0.465 0.04101 0.0
O30 O 0.06793 0.40466 0.06327 0.0
O31 O 0.07259 0.41019 0.02678 0.0
Zn32 Zn 0.59289 0.59434 0.06248 0.0
O33 O 0.51147 0.57055 0.06401 0.0
C34 C 0.61919 0.70195 0.04661 0.0
Zn35 Zn 0.59277 0.59756 0.02519 0.0
C36 C 0.48561 0.56384 0.04599 0.0
O37 O 0.51024 0.57485 0.0274 0.0
C38 C 0.69849 0.62127 0.04204 0.0
O39 O 0.56838 0.51516 0.02304 0.0
O40 O 0.56893 0.51237 0.05969 0.0
N41 N 0.59036 0.6042 0.99116 0.0
C42 C 0.61587 0.5949 0.9743 0.0
C43 C 0.57182 0.62933 0.96013 0.0
N44 N 0.56288 0.62539 0.98226 0.0
N45 N 0.60531 0.61087 0.95461 0.0
C46 C 0.5885 0.61422 0.11374 0.0
C47 C 0.62301 0.56968 0.12732 0.0
N48 N 0.59815 0.58978 0.09656 0.0
N49 N 0.61933 0.56193 0.10511 0.0
N50 N 0.60434 0.60274 0.13327 0.0
H51 H 0.53656 0.63603 0.09605 0.0
H52 H 0.53555 0.64132 0.1261 0.0
H53 H 0.59244 0.69005 0.11032 0.0
C54 C 0.56131 0.64698 0.11138 0.0
C55 C 0.64871 0.56784 0.97712 0.0
H56 H 0.63587 0.54168 0.99205 0.0
H57 H 0.64512 0.54338 0.9622 0.0
H58 H 0.69157 0.59896 0.9793 0.0
O59 O 0.6744 0.61807 0.02384 0.0
O60 O 0.67394 0.61526 0.06035 0.0
C61 C 0.55947 0.48849 0.04099 0.0
O62 O 0.61408 0.67593 0.06445 0.0
O63 O 0.61458 0.67918 0.02793 0.0
Zn64 Zn 0.42586 0.01082 0.02374 0.0
O65 O 0.50758 0.06789 0.02166 0.0
C66 C 0.39988 0.09257 0.03969 0.0
Zn67 Zn 0.42837 0.01653 0.0609 0.0
C68 C 0.53377 0.08962 0.03938 0.0
O69 O 0.50968 0.07793 0.05809 0.0
C70 C 0.32191 0.93295 0.04491 0.0
O71 O 0.45563 0.96134 0.06293 0.0
O72 O 0.44827 0.95102 0.02655 0.0
N73 N 0.43179 0.02619 0.09495 0.0
C74 C 0.40782 0.99123 0.1119 0.0
C75 C 0.4496 0.06998 0.12593 0.0
N76 N 0.45789 0.07503 0.10376 0.0
N77 N 0.41792 0.0178 0.13157 0.0
C78 C 0.42982 0.03402 0.97242 0.0
C79 C 0.39001 0.95413 0.95942 0.0
N80 N 0.4196 0.00026 0.98978 0.0
N81 N 0.39532 0.95072 0.98157 0.0
N82 N 0.41164 0.006 0.95324 0.0
H83 H 0.47577 0.10902 0.99022 0.0
H84 H 0.48018 0.11451 0.96017 0.0
H85 H 0.41984 0.10283 0.97394 0.0
C86 C 0.4531 0.09363 0.97444 0.0
C87 C 0.37695 0.93124 0.10919 0.0
H88 H 0.39031 0.91862 0.09421 0.0
H89 H 0.38193 0.91119 0.12409 0.0
H90 H 0.33363 0.9178 0.10718 0.0
O91 O 0.34749 0.95358 0.06286 0.0
O92 O 0.34481 0.95189 0.02635 0.0
C93 C 0.46111 0.94001 0.04531 0.0
O94 O 0.40553 0.07224 0.02178 0.0
O95 O 0.40404 0.07388 0.0583 0.0
Zn96 Zn 0.67602 0.76405 0.39616 0.0
O97 O 0.7346 0.84493 0.39814 0.0
C98 C 0.75669 0.73655 0.38087 0.0
Zn99 Zn 0.6803 0.76444 0.3589 0.0
C100 C 0.75434 0.87092 0.3802 0.0
O101 O 0.74069 0.84661 0.36153 0.0
C102 C 0.59702 0.65912 0.37528 0.0
O103 O 0.62303 0.78987 0.35642 0.0
O104 O 0.61912 0.78928 0.39305 0.0
N105 N 0.69042 0.76726 0.32487 0.0
C106 C 0.65593 0.7424 0.30785 0.0
C107 C 0.73482 0.78547 0.29404 0.0
N108 N 0.73935 0.79414 0.31619 0.0
N109 N 0.6829 0.75275 0.28828 0.0
C110 C 0.69812 0.76891 0.4477 0.0
C111 C 0.61786 0.7284 0.46026 0.0
N112 N 0.66483 0.75834 0.43013 0.0
N113 N 0.61505 0.73365 0.43808 0.0
N114 N 0.66958 0.75051 0.46675 0.0
H115 H 0.77325 0.81201 0.42967 0.0
H116 H 0.778 0.82332 0.45943 0.0
H117 H 0.768 0.76066 0.44879 0.0
C118 C 0.75788 0.79288 0.4461 0.0
C119 C 0.59593 0.71039 0.31038 0.0
H120 H 0.58255 0.72328 0.32528 0.0
H121 H 0.57575 0.71474 0.29539 0.0
H122 H 0.58344 0.66731 0.31242 0.0
O123 O 0.61856 0.68311 0.35715 0.0
O124 O 0.61524 0.68353 0.39363 0.0
C125 C 0.60521 0.79905 0.3743 0.0
O126 O 0.73508 0.74144 0.39854 0.0
O127 O 0.73948 0.74167 0.36204 0.0
Zn128 Zn 0.25862 0.92959 0.35693 0.0
O129 O 0.23461 0.8474 0.35624 0.0
C130 C 0.36576 0.95563 0.37301 0.0
Zn131 Zn 0.26188 0.93179 0.39417 0.0
C132 C 0.22697 0.82313 0.37476 0.0
O133 O 0.23758 0.84947 0.39289 0.0
C134 C 0.2866 0.03668 0.37628 0.0
O135 O 0.18058 0.90856 0.39643 0.0
O136 O 0.17616 0.90687 0.35981 0.0
N137 N 0.26908 0.93083 0.42819 0.0
C138 C 0.26047 0.95708 0.44495 0.0
C139 C 0.2934 0.91186 0.45931 0.0
N140 N 0.28938 0.90268 0.43721 0.0
N141 N 0.27589 0.94619 0.46471 0.0
C142 C 0.27892 0.92316 0.30597 0.0
C143 C 0.23303 0.95542 0.2917 0.0
N144 N 0.25374 0.93284 0.32285 0.0
N145 N 0.22507 0.95263 0.31388 0.0
N146 N 0.26702 0.93757 0.28619 0.0
H147 H 0.3004 0.87148 0.324 0.0
H148 H 0.30929 0.87237 0.29413 0.0
H149 H 0.35538 0.92887 0.31093 0.0
C150 C 0.31268 0.89714 0.30892 0.0
C151 C 0.23458 0.99095 0.44194 0.0
H152 H 0.20858 0.97842 0.42695 0.0
H153 H 0.21019 0.98806 0.45678 0.0
H154 H 0.26641 0.03355 0.43972 0.0
O155 O 0.28359 0.0136 0.39473 0.0
O156 O 0.2801 0.01104 0.35822 0.0
C157 C 0.15313 0.89895 0.37868 0.0
O158 O 0.34034 0.95019 0.35496 0.0
O159 O 0.34261 0.95207 0.39148 0.0
Zn160 Zn 0.09445 0.34677 0.39605 0.0
O161 O 0.1158 0.28673 0.39694 0.0
C162 C 0.98851 0.26727 0.37914 0.0
Zn163 Zn 0.09325 0.34893 0.35877 0.0
C164 C 0.12764 0.2739 0.37838 0.0
O165 O 0.12078 0.29312 0.36039 0.0
C166 C 0.06707 0.42713 0.37689 0.0
O167 O 0.17447 0.41049 0.35749 0.0
O168 O 0.17664 0.40342 0.39394 0.0
N169 N 0.09006 0.34224 0.32445 0.0
C170 C 0.09233 0.37503 0.3078 0.0
C171 C 0.08084 0.30271 0.29273 0.0
N172 N 0.08313 0.29745 0.31496 0.0
N173 N 0.08635 0.35102 0.2878 0.0
C174 C 0.07469 0.31913 0.44718 0.0
C175 C 0.11434 0.39797 0.46121 0.0
N176 N 0.09817 0.35421 0.43021 0.0
N177 N 0.12316 0.40309 0.43907 0.0
N178 N 0.08437 0.34564 0.46675 0.0
H179 H 0.04256 0.24596 0.42771 0.0
H180 H 0.04975 0.23829 0.45723 0.0
H181 H -0.00327 0.24902 0.44768 0.0
C182 C 0.03905 0.2596 0.44457 0.0
C183 C 0.10325 0.43139 0.31098 0.0
H184 H 0.13051 0.45057 0.32538 0.0
H185 H 0.12176 0.45594 0.29582 0.0
H186 H 0.06455 0.43018 0.31414 0.0
O187 O 0.06808 0.40645 0.3583 0.0
O188 O 0.0756 0.40862 0.39469 0.0
C189 C 0.20085 0.42321 0.37565 0.0
O190 O 0.01291 0.28857 0.39723 0.0
O191 O 0.01258 0.28546 0.36066 0.0
Zn192 Zn 0.34561 0.09846 0.69085 0.0
O193 O 0.28881 0.12418 0.68957 0.0
C194 C 0.26231 0.99096 0.70592 0.0
Zn195 Zn 0.34156 0.09351 0.7281 0.0
C196 C 0.27044 0.13072 0.70784 0.0
O197 O 0.2841 0.11862 0.72616 0.0
C198 C 0.42205 0.06805 0.71103 0.0
O199 O 0.40016 0.17484 0.7308 0.0
O200 O 0.40611 0.1798 0.69423 0.0
N201 N 0.33168 0.08626 0.76211 0.0
C202 C 0.36566 0.09485 0.77923 0.0
C203 C 0.28721 0.0644 0.79298 0.0
N204 N 0.28305 0.06749 0.77075 0.0
N205 N 0.3386 0.08105 0.79883 0.0
C206 C 0.3215 0.08163 0.63952 0.0
C207 C 0.40078 0.12417 0.62606 0.0
N208 N 0.3558 0.10422 0.65679 0.0
N209 N 0.40497 0.13085 0.64832 0.0
N210 N 0.34882 0.09306 0.62 0.0
H211 H 0.24826 0.06172 0.65726 0.0
H212 H 0.2422 0.05814 0.62721 0.0
H213 H 0.24788 0.00724 0.64247 0.0
C214 C 0.26146 0.05074 0.64179 0.0
C215 C 0.42536 0.11923 0.77673 0.0
H216 H 0.44002 0.14456 0.76158 0.0
H217 H 0.4466 0.14394 0.79155 0.0
H218 H 0.4351 0.08651 0.77516 0.0
O219 O 0.40128 0.07111 0.72929 0.0
O220 O 0.40404 0.07517 0.69278 0.0
C221 C 0.41994 0.20242 0.7132 0.0
O222 O 0.28379 0.01775 0.6883 0.0
O223 O 0.2805 0.01252 0.7248 0.0
Zn224 Zn 0.926 0.25993 0.69133 0.0
O225 O 0.90551 0.17882 0.69085 0.0
C226 C 0.03112 0.28718 0.70861 0.0
Zn227 Zn 0.92473 0.26253 0.72854 0.0
C228 C 0.89293 0.15388 0.70933 0.0
O229 O 0.89856 0.17956 0.72735 0.0
C230 C 0.95068 0.36683 0.71023 0.0
O231 O 0.84347 0.24161 0.72994 0.0
O232 O 0.84304 0.23336 0.69347 0.0
N233 N 0.93018 0.26111 0.76268 0.0
C234 C 0.92157 0.28755 0.77937 0.0
C235 C 0.95704 0.24467 0.79381 0.0
N236 N 0.9518 0.23419 0.77179 0.0
N237 N 0.93806 0.27779 0.79901 0.0
C238 C 0.94804 0.2535 0.64041 0.0
C239 C 0.89682 0.27891 0.62568 0.0
N240 N 0.92173 0.26213 0.65715 0.0
N241 N 0.88984 0.27772 0.64789 0.0
N242 N 0.93338 0.26418 0.62043 0.0
H243 H 0.97544 0.20748 0.65911 0.0
H244 H 0.98402 0.20713 0.62924 0.0
H245 H 0.02733 0.26623 0.64539 0.0
C246 C 0.98564 0.232 0.64372 0.0
C247 C 0.90125 0.32611 0.77625 0.0
H248 H 0.87773 0.3175 0.76063 0.0
H249 H 0.87583 0.3239 0.79061 0.0
H250 H 0.93614 0.36766 0.77553 0.0
O251 O 0.94846 0.34469 0.72884 0.0
O252 O 0.94391 0.34047 0.69234 0.0
C253 C 0.81789 0.22816 0.71159 0.0
O254 O 0.0082 0.28405 0.69011 0.0
O255 O 0.00538 0.28091 0.72663 0.0
Zn256 Zn 0.76195 0.68125 0.72902 0.0
O257 O 0.78738 0.6242 0.73006 0.0
C258 C 0.6543 0.59853 0.71381 0.0
Zn259 Zn 0.75693 0.67792 0.69176 0.0
C260 C 0.79386 0.60616 0.71168 0.0
O261 O 0.78187 0.62028 0.69345 0.0
C262 C 0.73167 0.75816 0.70921 0.0
O263 O 0.83833 0.73647 0.68914 0.0
O264 O 0.8434 0.74163 0.72573 0.0
N265 N 0.74964 0.66858 0.65772 0.0
C266 C 0.75824 0.70281 0.6407 0.0
C267 C 0.72769 0.62457 0.62673 0.0
N268 N 0.7308 0.62007 0.64893 0.0
N269 N 0.74439 0.67605 0.62103 0.0
C270 C 0.7445 0.6567 0.7803 0.0
C271 C 0.78728 0.73585 0.79388 0.0
N272 N 0.76764 0.69105 0.7631 0.0
N273 N 0.79443 0.74014 0.77164 0.0
N274 N 0.7557 0.68391 0.79985 0.0
H275 H 0.72458 0.58351 0.76253 0.0
H276 H 0.72029 0.57725 0.79259 0.0
H277 H 0.66993 0.58335 0.77711 0.0
C278 C 0.71336 0.59669 0.77796 0.0
C279 C 0.7827 0.76248 0.64338 0.0
H280 H 0.80808 0.77688 0.65853 0.0
H281 H 0.80737 0.78393 0.62859 0.0
H282 H 0.75001 0.77224 0.64507 0.0
O283 O 0.73465 0.73773 0.69084 0.0
O284 O 0.73888 0.73982 0.72734 0.0
C285 C 0.86598 0.75584 0.70676 0.0
O286 O 0.68115 0.61964 0.73146 0.0
O287 O 0.67589 0.61694 0.69496 0.0
H288 H 0.42029 0.49391 0.07743 0.0
H289 H 0.41796 0.56773 1.01502 0.0
H290 H 0.3228 0.43884 0.0765 0.0
H291 H 0.31989 0.51519 1.01468 0.0
H292 H 0.14795 0.3987 1.00976 0.0
H293 H 0.24399 0.42963 1.00987 0.0
H294 H 0.24616 0.44461 0.08166 0.0
H295 H 0.15038 0.41049 0.08153 0.0
C296 C 0.39868 0.49921 0.06375 0.0
C297 C 0.42646 0.53557 0.04643 0.0
C298 C 0.34274 0.46747 0.06316 0.0
C299 C 0.3132 0.47225 0.04549 0.0
C300 C 0.34122 0.5093 0.02829 0.0
C301 C 0.39735 0.54017 0.02863 0.0
C302 C 0.16868 0.40682 0.02561 0.0
C303 C 0.14177 0.40358 0.04563 0.0
C304 C 0.22394 0.42538 0.02566 0.0
C305 C 0.25336 0.44162 0.04569 0.0
C306 C 0.22519 0.43279 0.06585 0.0
C307 C 0.16989 0.41333 0.06581 0.0
H308 H 0.52743 0.94186 0.07806 0.0
H309 H 0.45936 0.86938 1.0144 0.0
H310 H 0.58113 0.89779 0.07815 0.0
H311 H 0.51071 0.82267 1.01499 0.0
H312 H 0.62748 0.76714 1.01174 0.0
H313 H 0.5972 0.83278 1.01166 0.0
H314 H 0.57276 0.81355 0.08295 0.0
H315 H 0.60604 0.751 0.0831 0.0
C316 C 0.52318 0.91559 0.06427 0.0
C317 C 0.48887 0.90857 0.0463 0.0
C318 C 0.55411 0.89043 0.06429 0.0
C319 C 0.55065 0.85687 0.04653 0.0
C320 C 0.51559 0.84933 0.02869 0.0
C321 C 0.48542 0.87534 0.02848 0.0
C322 C 0.61736 0.77836 0.02749 0.0
C323 C 0.61775 0.7527 0.04739 0.0
C324 C 0.59922 0.8154 0.02741 0.0
C325 C 0.58061 0.827 0.04717 0.0
C326 C 0.58646 0.80557 0.06736 0.0
C327 C 0.60542 0.76928 0.06747 0.0
H328 H 0.26958 0.86957 1.00938 0.0
H329 H 0.26157 0.87651 0.08114 0.0
H330 H 0.20732 0.77407 1.01026 0.0
H331 H 0.19657 0.78025 0.08201 0.0
H332 H 0.08091 0.60295 1.01492 0.0
H333 H 0.12342 0.70023 1.01618 0.0
H334 H 0.20386 0.70206 0.0775 0.0
H335 H 0.15794 0.60372 0.07689 0.0
C336 C 0.25302 0.85104 0.02535 0.0
C337 C 0.27174 0.88038 0.04527 0.0
C338 C 0.21696 0.79593 0.02586 0.0
C339 C 0.19783 0.769 0.04628 0.0
C340 C 0.212 0.79945 0.06606 0.0
C341 C 0.24877 0.85472 0.06555 0.0
C342 C 0.10805 0.6242 0.02859 0.0
C343 C 0.11713 0.59606 0.0456 0.0
C344 C 0.1323 0.68003 0.02935 0.0
C345 C 0.1674 0.70924 0.04686 0.0
C346 C 0.17632 0.6809 0.06396 0.0
C347 C 0.15085 0.6247 0.06347 0.0
H348 H 0.39893 0.15011 1.00329 0.0
H349 H 0.40685 0.15444 0.07524 0.0
H350 H 0.42893 0.24608 1.00272 0.0
H351 H 0.43951 0.24982 0.0747 0.0
H352 H 0.48614 0.42154 0.0708 0.0
H353 H 0.43132 0.32424 0.06893 0.0
H354 H 0.5122 0.32461 1.00792 0.0
H355 H 0.56425 0.42289 1.00912 0.0
C356 C 0.40599 0.17123 1.01898 0.0
C357 C 0.40158 0.14488 0.03926 0.0
C358 C 0.42395 0.22643 1.01866 0.0
C359 C 0.43827 0.25626 0.03861 0.0
C360 C 0.42884 0.22858 0.05895 0.0
C361 C 0.41012 0.17349 0.05927 0.0
C362 C 0.49239 0.40068 0.05708 0.0
C363 C 0.53015 0.42938 0.04034 0.0
C364 C 0.46085 0.34483 0.05595 0.0
C365 C 0.46741 0.31616 0.03837 0.0
C366 C 0.50518 0.3452 0.02151 0.0
C367 C 0.53574 0.4014 0.02234 0.0
H368 H 0.59957 0.0858 1.00784 0.0
H369 H 0.60088 0.16315 0.06981 0.0
H370 H 0.69722 0.12935 1.00881 0.0
H371 H 0.6989 0.20951 0.0702 0.0
H372 H 0.87026 0.26334 0.07618 0.0
H373 H 0.77415 0.19863 0.07559 0.0
H374 H 0.77403 0.21231 1.00379 0.0
H375 H 0.87003 0.27368 1.00438 0.0
C376 C 0.62094 0.11317 0.02142 0.0
C377 C 0.59284 0.1216 0.03866 0.0
C378 C 0.67694 0.138 0.02203 0.0
C379 C 0.70612 0.17269 0.03966 0.0
C380 C 0.6778 0.18191 0.05667 0.0
C381 C 0.62169 0.15615 0.05629 0.0
C382 C 0.84995 0.25105 0.06023 0.0
C383 C 0.87745 0.27481 0.04034 0.0
C384 C 0.79469 0.21459 0.0599 0.0
C385 C 0.76589 0.20179 0.03972 0.0
C386 C 0.79459 0.22127 0.01969 0.0
C387 C 0.84992 0.25688 0.02 0.0
H388 H 0.94149 0.53452 0.0723 0.0
H389 H 0.8693 0.46338 1.00899 0.0
H390 H 0.89764 0.58821 0.07154 0.0
H391 H 0.82229 0.51475 1.00878 0.0
H392 H 0.76213 0.62965 1.00633 0.0
H393 H 0.82851 0.6001 1.00546 0.0
H394 H 0.81225 0.57571 0.07682 0.0
H395 H 0.7484 0.60715 0.07774 0.0
C396 C 0.91529 0.52963 0.0584 0.0
C397 C 0.90789 0.4941 0.04089 0.0
C398 C 0.89024 0.56056 0.05792 0.0
C399 C 0.85612 0.55573 0.04017 0.0
C400 C 0.84904 0.52031 0.02254 0.0
C401 C 0.8752 0.4902 0.02278 0.0
C402 C 0.77395 0.61935 0.02186 0.0
C403 C 0.74905 0.61949 0.042 0.0
C404 C 0.81155 0.60187 0.02135 0.0
C405 C 0.82466 0.58405 0.04097 0.0
C406 C 0.80345 0.58919 0.06135 0.0
C407 C 0.7665 0.6072 0.06188 0.0
H408 H 0.81304 0.72389 0.3469 0.0
H409 H 0.81991 0.75599 0.41753 0.0
H410 H 0.90929 0.75569 0.34689 0.0
H411 H 0.91597 0.79067 0.41733 0.0
H412 H 0.09024 0.83833 0.41291 0.0
H413 H -0.00734 0.78366 0.4137 0.0
H414 H 0.98489 0.84272 0.34822 0.0
H415 H 0.08289 0.89489 0.34701 0.0
C416 C 0.83483 0.73659 0.36253 0.0
C417 C 0.80908 0.73856 0.38213 0.0
C418 C 0.89018 0.75564 0.36246 0.0
C419 C 0.92085 0.77762 0.38192 0.0
C420 C 0.89394 0.77427 0.40197 0.0
C421 C 0.83854 0.75435 0.4021 0.0
C422 C 0.06758 0.83996 0.39877 0.0
C423 C 0.094 0.87127 0.37998 0.0
C424 C 0.01158 0.80843 0.39919 0.0
C425 C 0.98066 0.80836 0.38098 0.0
C426 C 0.00731 0.84055 0.36232 0.0
C427 C 0.06343 0.87122 0.36173 0.0
H428 H 0.19367 0.27535 0.34576 0.0
H429 H 0.12841 0.20591 0.41012 0.0
H430 H 0.24774 0.23184 0.34574 0.0
H431 H 0.18026 0.15951 0.40961 0.0
H432 H 0.2976 0.10293 0.41131 0.0
H433 H 0.26692 0.1684 0.41198 0.0
H434 H 0.23659 0.14653 0.34106 0.0
H435 H 0.26919 0.08353 0.34028 0.0
C436 C 0.19011 0.24983 0.35973 0.0
C437 C 0.15625 0.24328 0.37781 0.0
C438 C 0.22128 0.225 0.35976 0.0
C439 C 0.21847 0.19209 0.37765 0.0
C440 C 0.18438 0.18548 0.39575 0.0
C441 C 0.15396 0.21128 0.39591 0.0
C442 C 0.28584 0.11339 0.39579 0.0
C443 C 0.28462 0.08711 0.37586 0.0
C444 C 0.26766 0.15043 0.3962 0.0
C445 C 0.24772 0.16156 0.37671 0.0
C446 C 0.25163 0.13916 0.35643 0.0
C447 C 0.27036 0.10276 0.35599 0.0
H448 H 0.9262 0.20821 0.34395 0.0
H449 H 0.93821 0.20656 0.41569 0.0
H450 H 0.8617 0.112 0.34431 0.0
H451 H 0.87705 0.11054 0.416 0.0
H452 H 0.75118 0.93642 0.41197 0.0
H453 H 0.7942 0.03396 0.41114 0.0
H454 H 0.87209 0.03636 0.349 0.0
H455 H 0.82605 0.93829 0.34926 0.0
C456 C 0.91427 0.18756 0.35984 0.0
C457 C 0.93835 0.2147 0.37975 0.0
C458 C 0.87795 0.13225 0.36002 0.0
C459 C 0.86562 0.10306 0.38009 0.0
C460 C 0.88554 0.13139 0.40019 0.0
C461 C 0.921 0.18674 0.40002 0.0
C462 C 0.77796 0.95792 0.39825 0.0
C463 C 0.78592 0.93001 0.3808 0.0
C464 C 0.80249 0.01388 0.39772 0.0
C465 C 0.8365 0.04326 0.37996 0.0
C466 C 0.84508 0.01512 0.36267 0.0
C467 C 0.81953 0.959 0.36297 0.0
H468 H 0.16452 0.75925 0.40824 0.0
H469 H 0.2226 0.75401 0.3424 0.0
H470 H 0.10996 0.66177 0.40853 0.0
H471 H 0.17047 0.65581 0.34314 0.0
H472 H 0.05307 0.4821 0.34248 0.0
H473 H 0.08394 0.57823 0.34195 0.0
H474 H 0.12051 0.58736 0.41231 0.0
H475 H 0.08759 0.4918 0.41298 0.0
C476 C 0.16647 0.73703 0.394 0.0
C477 C 0.19842 0.76399 0.37543 0.0
C478 C 0.13501 0.6811 0.39412 0.0
C479 C 0.13572 0.6507 0.37588 0.0
C480 C 0.16795 0.67787 0.3573 0.0
C481 C 0.19856 0.73404 0.35698 0.0
C482 C 0.06626 0.50446 0.35792 0.0
C483 C 0.06915 0.47959 0.37762 0.0
C484 C 0.08455 0.55969 0.35758 0.0
C485 C 0.10632 0.59095 0.37692 0.0
C486 C 0.10406 0.56484 0.39705 0.0
C487 C 0.08517 0.50971 0.39744 0.0
H488 H 0.26727 0.4945 0.34413 0.0
H489 H 0.26751 0.41745 0.40596 0.0
H490 H 0.36562 0.5407 0.34336 0.0
H491 H 0.36483 0.4605 0.40457 0.0
H492 H 0.53401 0.60769 0.41101 0.0
H493 H 0.43847 0.5452 0.41036 0.0
H494 H 0.44381 0.53285 0.33866 0.0
H495 H 0.54007 0.59788 0.33929 0.0
C496 C 0.28844 0.48744 0.35749 0.0
C497 C 0.26003 0.45353 0.37535 0.0
C498 C 0.34465 0.5131 0.3569 0.0
C499 C 0.37327 0.50432 0.37392 0.0
C500 C 0.34436 0.46917 0.39144 0.0
C501 C 0.2885 0.44461 0.39228 0.0
C502 C 0.51528 0.59075 0.39511 0.0
C503 C 0.54439 0.60897 0.37512 0.0
C504 C 0.46017 0.55457 0.39473 0.0
C505 C 0.43303 0.53491 0.37438 0.0
C506 C 0.46322 0.54866 0.35456 0.0
C507 C 0.51849 0.58546 0.35493 0.0
H508 H 0.41699 0.94392 0.40879 0.0
H509 H 0.42771 0.96081 0.33712 0.0
H510 H 0.48061 0.91231 0.40825 0.0
H511 H 0.49418 0.93135 0.3366 0.0
H512 H 0.5372 0.79639 0.34172 0.0
H513 H 0.48995 0.84754 0.34071 0.0
H514 H 0.56512 0.92382 0.40313 0.0
H515 H 0.60881 0.87005 0.40474 0.0
C516 C 0.43441 0.94273 0.39292 0.0
C517 C 0.41617 0.95354 0.37291 0.0
C518 C 0.47129 0.92462 0.39261 0.0
C519 C 0.4918 0.91799 0.37231 0.0
C520 C 0.47781 0.93425 0.35247 0.0
C521 C 0.44017 0.95172 0.35277 0.0
C522 C 0.54293 0.82376 0.35526 0.0
C523 C 0.57534 0.82832 0.37357 0.0
C524 C 0.51666 0.85376 0.35456 0.0
C525 C 0.52351 0.88986 0.3719 0.0
C526 C 0.55768 0.89554 0.38977 0.0
C527 C 0.58267 0.8646 0.39074 0.0
H528 H 0.75024 0.23105 0.74299 0.0
H529 H 0.75231 0.15737 0.68048 0.0
H530 H 0.652 0.17849 0.74329 0.0
H531 H 0.65491 0.10262 0.68135 0.0
H532 H 0.48485 0.07968 0.67515 0.0
H533 H 0.5804 0.11246 0.67581 0.0
H534 H 0.57444 0.09229 0.74739 0.0
H535 H 0.4783 0.06154 0.74677 0.0
C536 C 0.72959 0.20351 0.72937 0.0
C537 C 0.75867 0.1991 0.7115 0.0
C538 C 0.6734 0.17269 0.72969 0.0
C539 C 0.64537 0.13607 0.71235 0.0
C540 C 0.67491 0.13107 0.69475 0.0
C541 C 0.73081 0.16264 0.69421 0.0
C542 C 0.50344 0.08079 0.69102 0.0
C543 C 0.47422 0.06945 0.711 0.0
C544 C 0.55857 0.09961 0.6914 0.0
C545 C 0.58558 0.10648 0.71175 0.0
C546 C 0.55518 0.08926 0.73151 0.0
C547 C 0.49994 0.07098 0.73114 0.0
H548 H 0.96347 0.43492 0.74475 0.0
H549 H 0.9307 0.41125 0.67409 0.0
H550 H 0.93373 0.50111 0.74513 0.0
H551 H 0.89856 0.47459 0.67463 0.0
H552 H 0.8562 0.60373 0.67836 0.0
H553 H 0.90978 0.55965 0.67828 0.0
H554 H 0.8485 0.49434 0.74374 0.0
H555 H 0.79758 0.54169 0.74427 0.0
C556 C 0.95094 0.4446 0.72924 0.0
C557 C 0.94843 0.41709 0.7095 0.0
C558 C 0.93322 0.482 0.72949 0.0
C559 C 0.9122 0.4921 0.71006 0.0
C560 C 0.91452 0.46817 0.68995 0.0
C561 C 0.93296 0.43153 0.68964 0.0
C562 C 0.85395 0.57961 0.69266 0.0
C563 C 0.82214 0.57528 0.71119 0.0
C564 C 0.8848 0.55443 0.69266 0.0
C565 C 0.88354 0.52324 0.71097 0.0
C566 C 0.85148 0.51893 0.72953 0.0
C567 C 0.82156 0.54525 0.72973 0.0
H568 H 0.5882 0.5403 0.67938 0.0
H569 H 0.607 0.53716 0.75066 0.0
H570 H 0.52377 0.44416 0.67979 0.0
H571 H 0.54591 0.44109 0.75097 0.0
H572 H 0.41941 0.26613 0.74655 0.0
H573 H 0.4626 0.36385 0.74672 0.0
H574 H 0.53629 0.36938 0.68309 0.0
H575 H 0.4904 0.27144 0.68244 0.0
C576 C 0.57786 0.51936 0.69521 0.0
C577 C 0.60402 0.54606 0.71493 0.0
C578 C 0.54153 0.46407 0.69541 0.0
C579 C 0.53126 0.43442 0.71527 0.0
C580 C 0.55298 0.46231 0.73531 0.0
C581 C 0.58847 0.51768 0.73514 0.0
C582 C 0.44534 0.28839 0.73273 0.0
C583 C 0.45205 0.26141 0.71456 0.0
C584 C 0.46992 0.34441 0.73277 0.0
C585 C 0.50257 0.37466 0.71482 0.0
C586 C 0.5102 0.34744 0.6969 0.0
C587 C 0.48473 0.29137 0.69667 0.0
H588 H 0.74348 0.82022 0.74538 0.0
H589 H 0.72489 0.81504 0.67379 0.0
H590 H 0.77667 0.91586 0.74509 0.0
H591 H 0.75596 0.91123 0.67356 0.0
H592 H 0.89549 0.08604 0.67803 0.0
H593 H 0.84256 0.98791 0.67771 0.0
H594 H 0.76797 0.99118 0.73995 0.0
H595 H 0.82315 0.0886 0.74082 0.0
C596 C 0.74457 0.83914 0.72961 0.0
C597 C 0.73306 0.8103 0.70951 0.0
C598 C 0.76361 0.89431 0.72945 0.0
C599 C 0.77052 0.9217 0.70921 0.0
C600 C 0.75295 0.89165 0.68936 0.0
C601 C 0.73449 0.83639 0.6895 0.0
C602 C 0.8682 0.06551 0.69172 0.0
C603 C 0.86418 0.09469 0.70965 0.0
C604 C 0.83714 0.00938 0.69139 0.0
C605 C 0.80065 0.98148 0.70876 0.0
C606 C 0.79624 0.01109 0.72649 0.0
C607 C 0.82807 0.06699 0.72705 0.0
H608 H 0.92962 0.75658 0.6731 0.0
H609 H 0.93514 0.82531 0.73778 0.0
H610 H 0.02737 0.80013 0.67278 0.0
H611 H 0.0331 0.87156 0.737 0.0
H612 H 0.20439 0.92394 0.74015 0.0
H613 H 0.10823 0.85944 0.73977 0.0
H614 H 0.10432 0.8838 0.6688 0.0
H615 H 0.20036 0.94503 0.66907 0.0
C616 C 0.95192 0.78208 0.68703 0.0
C617 C 0.92498 0.78806 0.70539 0.0
C618 C 0.00797 0.80687 0.6869 0.0
C619 C 0.0383 0.83901 0.70495 0.0
C620 C 0.01112 0.84588 0.72309 0.0
C621 C 0.95502 0.8202 0.7234 0.0
C622 C 0.18325 0.91408 0.72436 0.0
C623 C 0.20973 0.94081 0.70471 0.0
C624 C 0.12795 0.87771 0.72418 0.0
C625 C 0.09807 0.86796 0.70441 0.0
C626 C 0.12573 0.89039 0.6844 0.0
C627 C 0.1811 0.92594 0.68454 0.0
H628 H 0.26927 0.19474 0.74067 0.0
H629 H 0.2055 0.13342 0.67521 0.0
H630 H 0.22558 0.24867 0.74039 0.0
H631 H 0.15843 0.18463 0.67541 0.0
H632 H 0.07717 0.26939 0.74474 0.0
H633 H 0.14076 0.23764 0.74426 0.0
H634 H 0.1648 0.26957 0.67348 0.0
H635 H 0.0983 0.29895 0.67383 0.0
C636 C 0.24483 0.19198 0.7264 0.0
C637 C 0.23986 0.15928 0.70811 0.0
C638 C 0.21988 0.22303 0.72619 0.0
C639 C 0.18823 0.22104 0.70792 0.0
C640 C 0.18336 0.18815 0.68959 0.0
C641 C 0.20951 0.15807 0.68958 0.0
C642 C 0.09693 0.27102 0.72913 0.0
C643 C 0.08163 0.28537 0.7092 0.0
C644 C 0.13376 0.25283 0.72886 0.0
C645 C 0.15705 0.24967 0.70871 0.0
C646 C 0.14616 0.26969 0.68916 0.0
C647 C 0.10856 0.28717 0.68939 0.0
H648 H 0.14071 0.35361 0.25091 0.0
H649 H 0.01861 0.38593 0.27549 0.0
H650 H 0.12782 0.37741 0.21321 0.0
H651 H 0.00277 0.40676 0.2378 0.0
H652 H 0.006 0.47506 0.16979 0.0
H653 H 0.0309 0.46429 0.20763 0.0
H654 H 0.06958 0.34533 0.18341 0.0
H655 H 0.04745 0.359 0.14566 0.0
C656 C 0.11116 0.36602 0.24811 0.0
C657 C 0.08114 0.3687 0.26599 0.0
C658 C 0.10322 0.37914 0.22651 0.0
C659 C 0.06389 0.39384 0.22218 0.0
C660 C 0.03421 0.39686 0.24032 0.0
C661 C 0.04304 0.38479 0.26198 0.0
C662 C 0.0206 0.44727 0.17272 0.0
C663 C 0.0257 0.41848 0.15491 0.0
C664 C 0.03442 0.44058 0.1944 0.0
C665 C 0.05236 0.40377 0.19884 0.0
C666 C 0.05734 0.37503 0.18079 0.0
C667 C 0.04452 0.38262 0.1591 0.0
H668 H 0.60351 0.65184 0.27654 0.0
H669 H 0.72297 0.80504 0.2496 0.0
H670 H 0.57658 0.61633 0.23914 0.0
H671 H 0.69952 0.76837 0.21207 0.0
H672 H 0.62798 0.70413 0.14539 0.0
H673 H 0.63822 0.73946 0.18286 0.0
H674 H 0.60628 0.586 0.2094 0.0
H675 H 0.5913 0.54952 0.17178 0.0
C676 C 0.62319 0.67849 0.26266 0.0
C677 C 0.66425 0.732 0.26613 0.0
C678 C 0.60865 0.65763 0.24107 0.0
C679 C 0.63572 0.68926 0.22236 0.0
C680 C 0.67675 0.74289 0.22589 0.0
C681 C 0.69066 0.76391 0.24746 0.0
C682 C 0.62062 0.67712 0.15916 0.0
C683 C 0.60692 0.62329 0.1555 0.0
C684 C 0.62796 0.69788 0.18079 0.0
C685 C 0.62327 0.66584 0.19938 0.0
C686 C 0.60922 0.61184 0.19568 0.0
C687 C 0.60106 0.59092 0.17406 0.0
H688 H 0.31788 0.93662 0.14321 0.0
H689 H 0.46996 0.05817 0.1703 0.0
H690 H 0.28261 0.90879 0.18056 0.0
H691 H 0.43335 0.0338 0.20781 0.0
H692 H 0.36899 0.96225 0.27453 0.0
H693 H 0.40507 0.97275 0.23714 0.0
H694 H 0.25102 0.93762 0.21003 0.0
H695 H 0.214 0.92254 0.24751 0.0
C696 C 0.34437 0.95658 0.15711 0.0
C697 C 0.3975 -0.00147 0.15369 0.0
C698 C 0.32361 0.9415 0.17867 0.0
C699 C 0.35488 0.96894 0.19742 0.0
C700 C 0.40817 0.01077 0.19395 0.0
C701 C 0.42914 0.0252 0.1724 0.0
C702 C 0.3421 0.95432 0.26064 0.0
C703 C 0.28798 0.9398 0.26408 0.0
C704 C 0.36324 0.96173 0.23906 0.0
C705 C 0.33122 0.95622 0.22034 0.0
C706 C 0.2769 0.9412 0.22385 0.0
C707 C 0.25563 0.93299 0.24539 0.0
H708 H 0.31826 0.98255 0.93401 0.0
H709 H 0.49003 0.06894 0.92422 0.0
H710 H 0.3051 0.00804 0.89658 0.0
H711 H 0.47738 0.09457 0.88645 0.0
H712 H 0.41213 0.05261 0.81197 0.0
H713 H 0.43497 0.04246 0.85015 0.0
H714 H 0.32447 0.09136 0.87485 0.0
H715 H 0.30294 0.10321 0.83658 0.0
C716 C 0.35313 0.0075 0.92378 0.0
C717 C 0.40505 0.02424 0.93183 0.0
C718 C 0.34576 0.02231 0.90246 0.0
C719 C 0.39025 0.0535 0.88861 0.0
C720 C 0.44239 0.07044 0.89675 0.0
C721 C 0.44972 0.0562 0.91829 0.0
C722 C 0.39435 0.06332 0.82547 0.0
C723 C 0.35662 0.08 0.82119 0.0
C724 C 0.40707 0.057 0.84739 0.0
C725 C 0.38154 0.06614 0.86549 0.0
C726 C 0.34457 0.08371 0.86123 0.0
C727 C 0.33233 0.09059 0.83936 0.0
H728 H 0.93884 0.32342 0.93979 0.0
H729 H 0.0495 0.48357 0.91607 0.0
H730 H 0.91546 0.29199 0.90148 0.0
H731 H 0.02745 0.45166 0.87761 0.0
H732 H 0.03172 0.34877 0.81773 0.0
H733 H 0.04549 0.38797 0.8551 0.0
H734 H 0.87333 0.30297 0.86558 0.0
H735 H 0.86012 0.26426 0.82787 0.0
C736 C 0.9568 0.35241 0.92648 0.0
C737 C -0.00493 0.40644 0.93106 0.0
C738 C 0.94377 0.33422 0.90446 0.0
C739 C 0.96953 0.36936 0.88652 0.0
C740 C 0.0071 0.42355 0.89108 0.0
C741 C 0.01964 0.44183 0.91307 0.0
C742 C -0.00298 0.33934 0.828 0.0
C743 C 0.94498 0.30409 0.8201 0.0
C744 C 0.00473 0.36178 0.84929 0.0
C745 C 0.96046 0.34865 0.86327 0.0
C746 C 0.90818 0.31369 0.8552 0.0
C747 C 0.90051 0.29186 0.83369 0.0
H748 H 0.65523 0.60444 0.81198 0.0
H749 H 0.80877 0.72488 0.83834 0.0
H750 H 0.62021 0.57879 0.84943 0.0
H751 H 0.77243 0.70277 0.87598 0.0
H752 H 0.70688 0.63391 0.94317 0.0
H753 H 0.74295 0.64287 0.90583 0.0
H754 H 0.5901 0.61061 0.87839 0.0
H755 H 0.55302 0.59711 0.91583 0.0
C756 C 0.68213 0.62453 0.82574 0.0
C757 C 0.73555 0.66555 0.82208 0.0
C758 C 0.6615 0.61077 0.84737 0.0
C759 C 0.69321 0.63868 0.86595 0.0
C760 C 0.74687 0.67947 0.86226 0.0
C761 C 0.7677 0.69258 0.84063 0.0
C762 C 0.68024 0.62636 0.92922 0.0
C763 C 0.6264 0.61298 0.93254 0.0
C764 C 0.70138 0.63286 0.90768 0.0
C765 C 0.66965 0.62751 0.88888 0.0
C766 C 0.61568 0.61393 0.89228 0.0
C767 C 0.59441 0.60666 0.91379 0.0
H768 H 0.64475 0.65692 0.48612 0.0
H769 H 0.73306 0.8287 0.4958 0.0
H770 H 0.67013 0.64349 0.52353 0.0
H771 H 0.75854 0.81576 0.53356 0.0
H772 H 0.71646 0.75016 0.60814 0.0
H773 H 0.70621 0.7734 0.57003 0.0
H774 H 0.75404 0.6624 0.54495 0.0
H775 H 0.76606 0.6405 0.58313 0.0
C776 C 0.67003 0.69172 0.49633 0.0
C777 C 0.68737 0.74373 0.48824 0.0
C778 C 0.68479 0.6842 0.51763 0.0
C779 C 0.71653 0.72861 0.53144 0.0
C780 C 0.734 0.78083 0.52329 0.0
C781 C 0.71983 0.78832 0.50175 0.0
C782 C 0.72694 0.73235 0.59458 0.0
C783 C 0.74335 0.69437 0.59871 0.0
C784 C 0.72054 0.7453 0.5727 0.0
C785 C 0.72933 0.71973 0.55451 0.0
C786 C 0.74667 0.68253 0.55863 0.0
C787 C 0.75364 0.67008 0.58046 0.0
H788 H 0.29981 0.04795 0.47638 0.0
H789 H 0.26064 0.89308 0.50333 0.0
H790 H 0.30876 0.08352 0.51386 0.0
H791 H 0.27407 0.92954 0.54084 0.0
H792 H 0.26851 -0.0066 0.6074 0.0
H793 H 0.24264 0.95963 0.56982 0.0
H794 H 0.36819 0.11177 0.54392 0.0
H795 H 0.39051 0.14699 0.58174 0.0
C796 C 0.29176 0.02102 0.49027 0.0
C797 C 0.27779 0.96706 0.4868 0.0
C798 C 0.29822 0.04184 0.51188 0.0
C799 C 0.29216 0.0096 0.53059 0.0
C800 C 0.27793 0.95552 0.52703 0.0
C801 C 0.2707 0.9346 0.50547 0.0
C802 C 0.28892 0.0206 0.59377 0.0
C803 C 0.33045 0.07367 0.59768 0.0
C804 C 0.27502 0.00067 0.57206 0.0
C805 C 0.30334 0.03268 0.55361 0.0
C806 C 0.3446 0.08601 0.55754 0.0
C807 C 0.35783 0.10618 0.57926 0.0
H808 H 0.8757 0.23764 0.58253 0.0
H809 H 0.03658 0.29645 0.60771 0.0
H810 H 0.90989 0.25043 0.54438 0.0
H811 H 0.07045 0.3075 0.56963 0.0
H812 H 0.1025 0.28399 0.49549 0.0
H813 H 0.06383 0.25611 0.53312 0.0
H814 H 0.97146 0.33594 0.52303 0.0
H815 H 0.0107 0.36389 0.48579 0.0
C816 C 0.91816 0.25217 0.57991 0.0
C817 C 0.95312 0.26496 0.59821 0.0
C818 C 0.93774 0.25959 0.5581 0.0
C819 C -0.00717 0.27986 0.55403 0.0
C820 C 0.02764 0.29092 0.57226 0.0
C821 C 0.00809 0.28408 0.59413 0.0
C822 C 0.07346 0.2948 0.5014 0.0
C823 C 0.05911 0.32568 0.48796 0.0
C824 C 0.05162 0.27924 0.52285 0.0
C825 C 0.01445 0.29367 0.53096 0.0
C826 C -0.00058 0.32361 0.51716 0.0
C827 C 0.02189 0.3398 0.49596 0.0
loop_
_geom_bond_atom_site_label_1
_geom_bond_atom_site_label_2
_geom_bond_distance
_geom_bond_site_symmetry_2
_ccdc_geom_bond_type
Zn0 O1 2.055 . S
Zn0 O8 2.046 1_455 S
Zn0 N16 2.036 . S
Zn0 O28 2.053 1_455 S
Zn0 O30 2.066 . S
O1 Zn0 2.055 . S
O1 C4 1.259 . S
C2 O30 1.256 . S
C2 O31 1.244 . S
Zn3 O5 2.038 1_556 S
Zn3 O7 2.044 1_456 S
Zn3 N9 2.085 . S
Zn3 O27 2.061 1_456 S
Zn3 O31 2.039 1_556 S
C4 O1 1.259 . S
C4 O5 1.254 . S
O5 Zn3 2.038 1_554 S
O5 C4 1.254 . S
C6 O27 1.256 . S
C6 O28 1.244 . S
O7 Zn3 2.044 1_654 S
O7 C29 1.259 . S
O8 Zn0 2.046 1_655 S
O8 C29 1.254 . S
N9 Zn3 2.085 . S
N9 C10 1.298 1_455 S
N9 N12 1.398 . S
C10 N9 1.298 1_655 S
C10 N13 1.367 . S
C10 C23 1.481 . S
C11 N12 1.299 . S
C11 N13 1.379 1_455 S
N12 N9 1.398 . S
N12 C11 1.299 . S
N13 C10 1.367 . S
N13 C11 1.379 1_655 S
C14 N16 1.298 . S
C14 N18 1.367 . S
C14 C22 1.481 . S
C15 N17 1.299 . S
C15 N18 1.379 1_655 S
N16 Zn0 2.036 . S
N16 C14 1.298 . S
N16 N17 1.398 1_455 S
N17 C15 1.299 . S
N17 N16 1.398 1_655 S
N18 C14 1.367 . S
N18 C15 1.379 1_455 S
H19 C22 0.980 . S
H20 C22 0.981 . S
H21 C22 0.981 . S
C22 C14 1.481 . S
C22 H19 0.980 . S
C22 H20 0.981 . S
C22 H21 0.981 . S
C23 C10 1.481 . S
C23 H24 0.980 . S
C23 H25 0.981 . S
C23 H26 0.981 . S
H24 C23 0.980 . S
H25 C23 0.981 . S
H26 C23 0.981 . S
O27 Zn3 2.061 1_654 S
O27 C6 1.256 . S
O28 Zn0 2.053 1_655 S
O28 C6 1.244 . S
C29 O7 1.259 . S
C29 O8 1.254 . S
O30 Zn0 2.066 . S
O30 C2 1.256 . S
O31 C2 1.244 . S
O31 Zn3 2.039 1_554 S
Zn32 O33 2.055 . S
Zn32 O40 2.046 . S
Zn32 N48 2.036 . S
Zn32 O60 2.053 . S
Zn32 O62 2.066 . S
O33 Zn32 2.055 . S
O33 C36 1.259 . S
C34 O62 1.256 . S
C34 O63 1.244 . S
Zn35 O37 2.038 1_556 S
Zn35 O39 2.043 1_556 S
Zn35 N41 2.085 . S
Zn35 O59 2.061 1_556 S
Zn35 O63 2.039 1_556 S
C36 O33 1.259 . S
C36 O37 1.254 . S
O37 Zn35 2.038 1_554 S
O37 C36 1.254 . S
C38 O59 1.256 . S
C38 O60 1.244 . S
O39 Zn35 2.043 1_554 S
O39 C61 1.259 . S
O40 Zn32 2.046 . S
O40 C61 1.254 . S
N41 Zn35 2.085 . S
N41 C42 1.298 . S
N41 N44 1.398 . S
C42 N41 1.298 . S
C42 N45 1.367 . S
C42 C55 1.481 . S
C43 N44 1.299 . S
C43 N45 1.379 . S
N44 N41 1.398 . S
N44 C43 1.299 . S
N45 C42 1.367 . S
N45 C43 1.379 . S
C46 N48 1.298 . S
C46 N50 1.367 . S
C46 C54 1.481 . S
C47 N49 1.299 . S
C47 N50 1.379 . S
N48 Zn32 2.036 . S
N48 C46 1.298 . S
N48 N49 1.398 . S
N49 C47 1.299 . S
N49 N48 1.398 . S
N50 C46 1.367 . S
N50 C47 1.379 . S
H51 C54 0.980 . S
H52 C54 0.981 . S
H53 C54 0.981 . S
C54 C46 1.481 . S
C54 H51 0.980 . S
C54 H52 0.981 . S
C54 H53 0.981 . S
C55 C42 1.481 . S
C55 H56 0.980 . S
C55 H57 0.981 . S
C55 H58 0.981 . S
H56 C55 0.980 . S
H57 C55 0.981 . S
H58 C55 0.981 . S
O59 Zn35 2.061 1_554 S
O59 C38 1.256 . S
O60 Zn32 2.053 . S
O60 C38 1.244 . S
C61 O39 1.259 . S
C61 O40 1.254 . S
O62 Zn32 2.066 . S
O62 C34 1.256 . S
O63 C34 1.244 . S
O63 Zn35 2.039 1_554 S
Zn64 O65 2.044 1_556 S
Zn64 O72 2.038 1_546 S
Zn64 N80 2.085 . S
Zn64 O92 2.039 1_546 S
Zn64 O94 2.061 1_556 S
O65 Zn64 2.044 1_554 S
O65 C68 1.259 . S
C66 O94 1.256 . S
C66 O95 1.244 . S
Zn67 O69 2.046 . S
Zn67 O71 2.055 1_545 S
Zn67 N73 2.036 . S
Zn67 O91 2.066 1_545 S
Zn67 O95 2.053 . S
C68 O65 1.259 . S
C68 O69 1.254 . S
O69 Zn67 2.046 . S
O69 C68 1.254 . S
C70 O91 1.256 . S
C70 O92 1.244 . S
O71 Zn67 2.055 1_565 S
O71 C93 1.259 . S
O72 Zn64 2.038 1_564 S
O72 C93 1.254 . S
N73 Zn67 2.036 . S
N73 C74 1.298 1_545 S
N73 N76 1.398 . S
C74 N73 1.298 1_565 S
C74 N77 1.367 . S
C74 C87 1.481 . S
C75 N76 1.299 . S
C75 N77 1.379 1_545 S
N76 N73 1.398 . S
N76 C75 1.299 . S
N77 C74 1.367 . S
N77 C75 1.379 1_565 S
C78 N80 1.298 . S
C78 N82 1.367 . S
C78 C86 1.481 . S
C79 N81 1.299 . S
C79 N82 1.379 1_565 S
N80 Zn64 2.085 . S
N80 C78 1.298 . S
N80 N81 1.398 1_545 S
N81 C79 1.299 . S
N81 N80 1.398 1_565 S
N82 C78 1.367 . S
N82 C79 1.379 1_545 S
H83 C86 0.980 . S
H84 C86 0.981 . S
H85 C86 0.981 . S
C86 C78 1.481 . S
C86 H83 0.980 . S
C86 H84 0.981 . S
C86 H85 0.981 . S
C87 C74 1.481 . S
C87 H88 0.980 . S
C87 H89 0.981 . S
C87 H90 0.981 . S
H88 C87 0.980 . S
H89 C87 0.981 . S
H90 C87 0.981 . S
O91 Zn67 2.066 1_565 S
O91 C70 1.256 . S
O92 Zn64 2.039 1_564 S
O92 C70 1.244 . S
C93 O71 1.259 . S
C93 O72 1.254 . S
O94 Zn64 2.061 1_554 S
O94 C66 1.256 . S
O95 C66 1.244 . S
O95 Zn67 2.053 . S
Zn96 O97 2.055 . S
Zn96 O104 2.046 . S
Zn96 N112 2.036 . S
Zn96 O124 2.053 . S
Zn96 O126 2.066 . S
O97 Zn96 2.055 . S
O97 C100 1.259 . S
C98 O126 1.256 . S
C98 O127 1.244 . S
Zn99 O101 2.046 . S
Zn99 O103 2.055 . S
Zn99 N105 2.036 . S
Zn99 O123 2.066 . S
Zn99 O127 2.053 . S
C100 O97 1.259 . S
C100 O101 1.254 . S
O101 Zn99 2.046 . S
O101 C100 1.254 . S
C102 O123 1.256 . S
C102 O124 1.244 . S
O103 Zn99 2.055 . S
O103 C125 1.259 . S
O104 Zn96 2.046 . S
O104 C125 1.254 . S
N105 Zn99 2.036 . S
N105 C106 1.298 . S
N105 N108 1.398 . S
C106 N105 1.298 . S
C106 N109 1.367 . S
C106 C119 1.481 . S
C107 N108 1.299 . S
C107 N109 1.379 . S
N108 N105 1.398 . S
N108 C107 1.299 . S
N109 C106 1.367 . S
N109 C107 1.379 . S
C110 N112 1.298 . S
C110 N114 1.367 . S
C110 C118 1.481 . S
C111 N113 1.299 . S
C111 N114 1.379 . S
N112 Zn96 2.036 . S
N112 C110 1.298 . S
N112 N113 1.398 . S
N113 C111 1.299 . S
N113 N112 1.398 . S
N114 C110 1.367 . S
N114 C111 1.379 . S
H115 C118 0.980 . S
H116 C118 0.981 . S
H117 C118 0.981 . S
C118 C110 1.481 . S
C118 H115 0.980 . S
C118 H116 0.981 . S
C118 H117 0.981 . S
C119 C106 1.481 . S
C119 H120 0.980 . S
C119 H121 0.981 . S
C119 H122 0.981 . S
H120 C119 0.980 . S
H121 C119 0.981 . S
H122 C119 0.981 . S
O123 Zn99 2.066 . S
O123 C102 1.256 . S
O124 Zn96 2.053 . S
O124 C102 1.244 . S
C125 O103 1.259 . S
C125 O104 1.254 . S
O126 Zn96 2.066 . S
O126 C98 1.256 . S
O127 C98 1.244 . S
O127 Zn99 2.053 . S
Zn128 O129 2.055 . S
Zn128 O136 2.046 . S
Zn128 N144 2.036 . S
Zn128 O156 2.053 . S
Zn128 O158 2.066 . S
O129 Zn128 2.055 . S
O129 C132 1.259 . S
C130 O158 1.256 . S
C130 O159 1.244 . S
Zn131 O133 2.046 . S
Zn131 O135 2.055 . S
Zn131 N137 2.036 . S
Zn131 O155 2.066 . S
Zn131 O159 2.053 . S
C132 O129 1.259 . S
C132 O133 1.254 . S
O133 Zn131 2.046 . S
O133 C132 1.254 . S
C134 O155 1.256 . S
C134 O156 1.244 . S
O135 Zn131 2.055 . S
O135 C157 1.259 . S
O136 Zn128 2.046 . S
O136 C157 1.254 . S
N137 Zn131 2.036 . S
N137 C138 1.298 . S
N137 N140 1.398 . S
C138 N137 1.298 . S
C138 N141 1.367 . S
C138 C151 1.481 . S
C139 N140 1.299 . S
C139 N141 1.379 . S
N140 N137 1.398 . S
N140 C139 1.299 . S
N141 C138 1.367 . S
N141 C139 1.379 . S
C142 N144 1.298 . S
C142 N146 1.367 . S
C142 C150 1.481 . S
C143 N145 1.299 . S
C143 N146 1.379 . S
N144 Zn128 2.036 . S
N144 C142 1.298 . S
N144 N145 1.398 . S
N145 C143 1.299 . S
N145 N144 1.398 . S
N146 C142 1.367 . S
N146 C143 1.379 . S
H147 C150 0.980 . S
H148 C150 0.981 . S
H149 C150 0.981 . S
C150 C142 1.481 . S
C150 H147 0.980 . S
C150 H148 0.981 . S
C150 H149 0.981 . S
C151 C138 1.481 . S
C151 H152 0.980 . S
C151 H153 0.981 . S
C151 H154 0.981 . S
H152 C151 0.980 . S
H153 C151 0.981 . S
H154 C151 0.981 . S
O155 Zn131 2.066 . S
O155 C134 1.256 . S
O156 Zn128 2.053 . S
O156 C134 1.244 . S
C157 O135 1.259 . S
C157 O136 1.254 . S
O158 Zn128 2.066 . S
O158 C130 1.256 . S
O159 C130 1.244 . S
O159 Zn131 2.053 . S
Zn160 O161 2.055 . S
Zn160 O168 2.046 . S
Zn160 N176 2.036 . S
Zn160 O188 2.053 . S
Zn160 O190 2.066 . S
O161 Zn160 2.055 . S
O161 C164 1.259 . S
C162 O190 1.256 . S
C162 O191 1.244 . S
Zn163 O165 2.046 . S
Zn163 O167 2.055 . S
Zn163 N169 2.036 . S
Zn163 O187 2.066 . S
Zn163 O191 2.053 . S
C164 O161 1.259 . S
C164 O165 1.254 . S
O165 Zn163 2.046 . S
O165 C164 1.254 . S
C166 O187 1.256 . S
C166 O188 1.244 . S
O167 Zn163 2.055 . S
O167 C189 1.259 . S
O168 Zn160 2.046 . S
O168 C189 1.254 . S
N169 Zn163 2.036 . S
N169 C170 1.298 . S
N169 N172 1.398 . S
C170 N169 1.298 . S
C170 N173 1.367 . S
C170 C183 1.481 . S
C171 N172 1.299 . S
C171 N173 1.379 . S
N172 N169 1.398 . S
N172 C171 1.299 . S
N173 C170 1.367 . S
N173 C171 1.379 . S
C174 N176 1.298 . S
C174 N178 1.367 . S
C174 C182 1.481 . S
C175 N177 1.299 . S
C175 N178 1.379 . S
N176 Zn160 2.036 . S
N176 C174 1.298 . S
N176 N177 1.398 . S
N177 C175 1.299 . S
N177 N176 1.398 . S
N178 C174 1.367 . S
N178 C175 1.379 . S
H179 C182 0.980 . S
H180 C182 0.981 . S
H181 C182 0.981 . S
C182 C174 1.481 . S
C182 H179 0.980 . S
C182 H180 0.981 . S
C182 H181 0.981 . S
C183 C170 1.481 . S
C183 H184 0.980 . S
C183 H185 0.981 . S
C183 H186 0.981 . S
H184 C183 0.980 . S
H185 C183 0.981 . S
H186 C183 0.981 . S
O187 Zn163 2.066 . S
O187 C166 1.256 . S
O188 Zn160 2.053 . S
O188 C166 1.244 . S
C189 O167 1.259 . S
C189 O168 1.254 . S
O190 Zn160 2.066 . S
O190 C162 1.256 . S
O191 C162 1.244 . S
O191 Zn163 2.053 . S
Zn192 O193 2.055 . S
Zn192 O200 2.046 . S
Zn192 N208 2.036 . S
Zn192 O220 2.053 . S
Zn192 O222 2.066 . S
O193 Zn192 2.055 . S
O193 C196 1.259 . S
C194 O222 1.256 . S
C194 O223 1.244 . S
Zn195 O197 2.046 . S
Zn195 O199 2.055 . S
Zn195 N201 2.036 . S
Zn195 O219 2.066 . S
Zn195 O223 2.053 . S
C196 O193 1.259 . S
C196 O197 1.254 . S
O197 Zn195 2.046 . S
O197 C196 1.254 . S
C198 O219 1.256 . S
C198 O220 1.244 . S
O199 Zn195 2.055 . S
O199 C221 1.259 . S
O200 Zn192 2.046 . S
O200 C221 1.254 . S
N201 Zn195 2.036 . S
N201 C202 1.298 . S
N201 N204 1.398 . S
C202 N201 1.298 . S
C202 N205 1.367 . S
C202 C215 1.481 . S
C203 N204 1.299 . S
C203 N205 1.379 . S
N204 N201 1.398 . S
N204 C203 1.299 . S
N205 C202 1.367 . S
N205 C203 1.379 . S
C206 N208 1.298 . S
C206 N210 1.367 . S
C206 C214 1.481 . S
C207 N209 1.299 . S
C207 N210 1.379 . S
N208 Zn192 2.036 . S
N208 C206 1.298 . S
N208 N209 1.398 . S
N209 C207 1.299 . S
N209 N208 1.398 . S
N210 C206 1.367 . S
N210 C207 1.379 . S
H211 C214 0.980 . S
H212 C214 0.981 . S
H213 C214 0.981 . S
C214 C206 1.481 . S
C214 H211 0.980 . S
C214 H212 0.981 . S
C214 H213 0.981 . S
C215 C202 1.481 . S
C215 H216 0.980 . S
C215 H217 0.981 . S
C215 H218 0.981 . S
H216 C215 0.980 . S
H217 C215 0.981 . S
H218 C215 0.981 . S
O219 Zn195 2.066 . S
O219 C198 1.256 . S
O220 Zn192 2.053 . S
O220 C198 1.244 . S
C221 O199 1.259 . S
C221 O200 1.254 . S
O222 Zn192 2.066 . S
O222 C194 1.256 . S
O223 C194 1.244 . S
O223 Zn195 2.053 . S
Zn224 O225 2.055 . S
Zn224 O232 2.046 . S
Zn224 N240 2.036 . S
Zn224 O252 2.053 . S
Zn224 O254 2.066 . S
O225 Zn224 2.055 . S
O225 C228 1.259 . S
C226 O254 1.256 . S
C226 O255 1.244 . S
Zn227 O229 2.046 . S
Zn227 O231 2.055 . S
Zn227 N233 2.036 . S
Zn227 O251 2.066 . S
Zn227 O255 2.053 . S
C228 O225 1.259 . S
C228 O229 1.254 . S
O229 Zn227 2.046 . S
O229 C228 1.254 . S
C230 O251 1.256 . S
C230 O252 1.244 . S
O231 Zn227 2.055 . S
O231 C253 1.259 . S
O232 Zn224 2.046 . S
O232 C253 1.254 . S
N233 Zn227 2.036 . S
N233 C234 1.298 . S
N233 N236 1.398 . S
C234 N233 1.298 . S
C234 N237 1.367 . S
C234 C247 1.481 . S
C235 N236 1.299 . S
C235 N237 1.379 . S
N236 N233 1.398 . S
N236 C235 1.299 . S
N237 C234 1.367 . S
N237 C235 1.379 . S
C238 N240 1.298 . S
C238 N242 1.367 . S
C238 C246 1.481 . S
C239 N241 1.299 . S
C239 N242 1.379 . S
N240 Zn224 2.036 . S
N240 C238 1.298 . S
N240 N241 1.398 . S
N241 C239 1.299 . S
N241 N240 1.398 . S
N242 C238 1.367 . S
N242 C239 1.379 . S
H243 C246 0.980 . S
H244 C246 0.981 . S
H245 C246 0.981 . S
C246 C238 1.481 . S
C246 H243 0.980 . S
C246 H244 0.981 . S
C246 H245 0.981 . S
C247 C234 1.481 . S
C247 H248 0.980 . S
C247 H249 0.981 . S
C247 H250 0.981 . S
H248 C247 0.980 . S
H249 C247 0.981 . S
H250 C247 0.981 . S
O251 Zn227 2.066 . S
O251 C230 1.256 . S
O252 Zn224 2.053 . S
O252 C230 1.244 . S
C253 O231 1.259 . S
C253 O232 1.254 . S
O254 Zn224 2.066 . S
O254 C226 1.256 . S
O255 C226 1.244 . S
O255 Zn227 2.053 . S
Zn256 O257 2.055 . S
Zn256 O264 2.046 . S
Zn256 N272 2.036 . S
Zn256 O284 2.053 . S
Zn256 O286 2.066 . S
O257 Zn256 2.055 . S
O257 C260 1.259 . S
C258 O286 1.256 . S
C258 O287 1.244 . S
Zn259 O261 2.046 . S
Zn259 O263 2.055 . S
Zn259 N265 2.036 . S
Zn259 O283 2.066 . S
Zn259 O287 2.053 . S
C260 O257 1.259 . S
C260 O261 1.254 . S
O261 Zn259 2.046 . S
O261 C260 1.254 . S
C262 O283 1.256 . S
C262 O284 1.244 . S
O263 Zn259 2.055 . S
O263 C285 1.259 . S
O264 Zn256 2.046 . S
O264 C285 1.254 . S
N265 Zn259 2.036 . S
N265 C266 1.298 . S
N265 N268 1.398 . S
C266 N265 1.298 . S
C266 N269 1.367 . S
C266 C279 1.481 . S
C267 N268 1.299 . S
C267 N269 1.379 . S
N268 N265 1.398 . S
N268 C267 1.299 . S
N269 C266 1.367 . S
N269 C267 1.379 . S
C270 N272 1.298 . S
C270 N274 1.367 . S
C270 C278 1.481 . S
C271 N273 1.299 . S
C271 N274 1.379 . S
N272 Zn256 2.036 . S
N272 C270 1.298 . S
N272 N273 1.398 . S
N273 C271 1.299 . S
N273 N272 1.398 . S
N274 C270 1.367 . S
N274 C271 1.379 . S
H275 C278 0.980 . S
H276 C278 0.981 . S
H277 C278 0.981 . S
C278 C270 1.481 . S
C278 H275 0.980 . S
C278 H276 0.981 . S
C278 H277 0.981 . S
C279 C266 1.481 . S
C279 H280 0.980 . S
C279 H281 0.981 . S
C279 H282 0.981 . S
H280 C279 0.980 . S
H281 C279 0.981 . S
H282 C279 0.981 . S
O283 Zn259 2.066 . S
O283 C262 1.256 . S
O284 Zn256 2.053 . S
O284 C262 1.244 . S
C285 O263 1.259 . S
C285 O264 1.254 . S
O286 Zn256 2.066 . S
O286 C258 1.256 . S
O287 C258 1.244 . S
O287 Zn259 2.053 . S
H288 C296 0.950 . S
H289 C301 0.950 . S
H290 C298 0.950 . S
H291 C300 0.950 . S
H292 C302 0.950 . S
H293 C304 0.950 . S
H294 C306 0.950 . S
H295 C307 0.950 . S
C296 H288 0.950 . S
C296 C297 1.386 . S
C296 C298 1.391 . S
C297 C296 1.386 . S
C297 C301 1.393 . S
C298 H290 0.950 . S
C298 C296 1.391 . S
C298 C299 1.400 . S
C299 C298 1.400 . S
C299 C300 1.398 . S
C299 C305 1.491 . S
C300 H291 0.950 . S
C300 C299 1.398 . S
C300 C301 1.391 . S
C301 H289 0.950 . S
C301 C297 1.393 . S
C301 C300 1.391 . S
C302 H292 0.950 . S
C302 C303 1.386 . S
C302 C304 1.391 . S
C303 C302 1.386 . S
C303 C307 1.393 . S
C304 H293 0.950 . S
C304 C302 1.391 . S
C304 C305 1.400 . S
C305 C299 1.491 . S
C305 C304 1.400 . S
C305 C306 1.398 . S
C306 H294 0.950 . S
C306 C305 1.398 . S
C306 C307 1.391 . S
C307 H295 0.950 . S
C307 C303 1.393 . S
C307 C306 1.391 . S
H308 C316 0.950 . S
H309 C321 0.950 1_556 S
H310 C318 0.950 . S
H311 C320 0.950 1_556 S
H312 C322 0.950 1_556 S
H313 C324 0.950 1_556 S
H314 C326 0.950 . S
H315 C327 0.950 . S
C316 H308 0.950 . S
C316 C317 1.386 . S
C316 C318 1.391 . S
C317 C316 1.386 . S
C317 C321 1.393 . S
C318 H310 0.950 . S
C318 C316 1.391 . S
C318 C319 1.400 . S
C319 C318 1.400 . S
C319 C320 1.398 . S
C319 C325 1.491 . S
C320 H311 0.950 1_554 S
C320 C319 1.398 . S
C320 C321 1.391 . S
C321 H309 0.950 1_554 S
C321 C317 1.393 . S
C321 C320 1.391 . S
C322 H312 0.950 1_554 S
C322 C323 1.386 . S
C322 C324 1.391 . S
C323 C322 1.386 . S
C323 C327 1.393 . S
C324 H313 0.950 1_554 S
C324 C322 1.391 . S
C324 C325 1.400 . S
C325 C319 1.491 . S
C325 C324 1.400 . S
C325 C326 1.398 . S
C326 H314 0.950 . S
C326 C325 1.398 . S
C326 C327 1.391 . S
C327 H315 0.950 . S
C327 C323 1.393 . S
C327 C326 1.391 . S
H328 C336 0.950 . S
H329 C341 0.950 . S
H330 C338 0.950 . S
H331 C340 0.950 . S
H332 C342 0.950 . S
H333 C344 0.950 . S
H334 C346 0.950 . S
H335 C347 0.950 . S
C336 H328 0.950 . S
C336 C337 1.386 . S
C336 C338 1.391 . S
C337 C336 1.386 . S
C337 C341 1.393 . S
C338 H330 0.950 . S
C338 C336 1.391 . S
C338 C339 1.400 . S
C339 C338 1.400 . S
C339 C340 1.398 . S
C339 C345 1.491 . S
C340 H331 0.950 . S
C340 C339 1.398 . S
C340 C341 1.391 . S
C341 H329 0.950 . S
C341 C337 1.393 . S
C341 C340 1.391 . S
C342 H332 0.950 . S
C342 C343 1.386 . S
C342 C344 1.391 . S
C343 C342 1.386 . S
C343 C347 1.393 . S
C344 H333 0.950 . S
C344 C342 1.391 . S
C344 C345 1.400 . S
C345 C339 1.491 . S
C345 C344 1.400 . S
C345 C346 1.398 . S
C346 H334 0.950 . S
C346 C345 1.398 . S
C346 C347 1.391 . S
C347 H335 0.950 . S
C347 C343 1.393 . S
C347 C346 1.391 . S
H348 C356 0.959 . S
H349 C361 0.950 . S
H350 C358 0.950 . S
H351 C360 0.950 . S
H352 C362 0.950 . S
H353 C364 0.950 . S
H354 C366 0.950 . S
H355 C367 0.950 . S
C356 H348 0.959 . S
C356 C357 1.386 . S
C356 C358 1.391 . S
C357 C356 1.386 . S
C357 C361 1.393 . S
C358 H350 0.950 . S
C358 C356 1.391 . S
C358 C359 1.400 . S
C359 C358 1.400 . S
C359 C360 1.398 . S
C359 C365 1.491 . S
C360 H351 0.950 . S
C360 C359 1.398 . S
C360 C361 1.391 . S
C361 H349 0.950 . S
C361 C357 1.393 . S
C361 C360 1.391 . S
C362 H352 0.950 . S
C362 C363 1.386 . S
C362 C364 1.391 . S
C363 C362 1.386 . S
C363 C367 1.393 . S
C364 H353 0.950 . S
C364 C362 1.391 . S
C364 C365 1.400 . S
C365 C359 1.491 . S
C365 C364 1.400 . S
C365 C366 1.398 . S
C366 H354 0.950 . S
C366 C365 1.398 . S
C366 C367 1.391 . S
C367 H355 0.950 . S
C367 C363 1.393 . S
C367 C366 1.391 . S
H368 C376 0.950 . S
H369 C381 0.950 . S
H370 C378 0.950 . S
H371 C380 0.950 . S
H372 C382 0.950 . S
H373 C384 0.950 . S
H374 C386 0.950 . S
H375 C387 0.950 . S
C376 H368 0.950 . S
C376 C377 1.386 . S
C376 C378 1.391 . S
C377 C376 1.386 . S
C377 C381 1.393 . S
C378 H370 0.950 . S
C378 C376 1.391 . S
C378 C379 1.400 . S
C379 C378 1.400 . S
C379 C380 1.398 . S
C379 C385 1.491 . S
C380 H371 0.950 . S
C380 C379 1.398 . S
C380 C381 1.391 . S
C381 H369 0.950 . S
C381 C377 1.393 . S
C381 C380 1.391 . S
C382 H372 0.950 . S
C382 C383 1.386 . S
C382 C384 1.391 . S
C383 C382 1.386 . S
C383 C387 1.393 . S
C384 H373 0.950 . S
C384 C382 1.391 . S
C384 C385 1.400 . S
C385 C379 1.491 . S
C385 C384 1.400 . S
C385 C386 1.398 . S
C386 H374 0.950 . S
C386 C385 1.398 . S
C386 C387 1.391 . S
C387 H375 0.950 . S
C387 C383 1.393 . S
C387 C386 1.391 . S
H388 C396 0.950 . S
H389 C401 0.950 . S
H390 C398 0.950 . S
H391 C400 0.950 . S
H392 C402 0.950 . S
H393 C404 0.950 . S
H394 C406 0.950 . S
H395 C407 0.950 . S
C396 H388 0.950 . S
C396 C397 1.386 . S
C396 C398 1.391 . S
C397 C396 1.386 . S
C397 C401 1.393 . S
C398 H390 0.950 . S
C398 C396 1.391 . S
C398 C399 1.400 . S
C399 C398 1.400 . S
C399 C400 1.398 . S
C399 C405 1.491 . S
C400 H391 0.950 . S
C400 C399 1.398 . S
C400 C401 1.391 . S
C401 H389 0.950 . S
C401 C397 1.393 . S
C401 C400 1.391 . S
C402 H392 0.950 . S
C402 C403 1.386 . S
C402 C404 1.391 . S
C403 C402 1.386 . S
C403 C407 1.393 . S
C404 H393 0.950 . S
C404 C402 1.391 . S
C404 C405 1.400 . S
C405 C399 1.491 . S
C405 C404 1.400 . S
C405 C406 1.398 . S
C406 H394 0.950 . S
C406 C405 1.398 . S
C406 C407 1.391 . S
C407 H395 0.950 . S
C407 C403 1.393 . S
C407 C406 1.391 . S
H408 C416 0.950 . S
H409 C421 0.950 . S
H410 C418 0.950 . S
H411 C420 0.950 . S
H412 C422 0.950 . S
H413 C424 0.950 1_655 S
H414 C426 0.950 . S
H415 C427 0.950 . S
C416 H408 0.950 . S
C416 C417 1.386 . S
C416 C418 1.391 . S
C417 C416 1.386 . S
C417 C421 1.393 . S
C418 H410 0.950 . S
C418 C416 1.391 . S
C418 C419 1.400 . S
C419 C418 1.400 . S
C419 C420 1.398 . S
C419 C425 1.491 . S
C420 H411 0.950 . S
C420 C419 1.398 . S
C420 C421 1.391 . S
C421 H409 0.950 . S
C421 C417 1.393 . S
C421 C420 1.391 . S
C422 H412 0.950 . S
C422 C423 1.386 . S
C422 C424 1.391 . S
C423 C422 1.386 . S
C423 C427 1.393 . S
C424 H413 0.950 1_455 S
C424 C422 1.391 . S
C424 C425 1.400 1_455 S
C425 C419 1.491 . S
C425 C424 1.400 1_655 S
C425 C426 1.398 . S
C426 H414 0.950 . S
C426 C425 1.398 . S
C426 C427 1.391 1_655 S
C427 H415 0.950 . S
C427 C423 1.393 . S
C427 C426 1.391 1_455 S
H428 C436 0.950 . S
H429 C441 0.950 . S
H430 C438 0.950 . S
H431 C440 0.950 . S
H432 C442 0.950 . S
H433 C444 0.950 . S
H434 C446 0.950 . S
H435 C447 0.950 1_565 S
C436 H428 0.950 . S
C436 C437 1.386 . S
C436 C438 1.391 . S
C437 C436 1.386 . S
C437 C441 1.393 . S
C438 H430 0.950 . S
C438 C436 1.391 . S
C438 C439 1.400 . S
C439 C438 1.400 . S
C439 C440 1.398 . S
C439 C445 1.491 . S
C440 H431 0.950 . S
C440 C439 1.398 . S
C440 C441 1.391 . S
C441 H429 0.950 . S
C441 C437 1.393 . S
C441 C440 1.391 . S
C442 H432 0.950 . S
C442 C443 1.386 . S
C442 C444 1.391 . S
C443 C442 1.386 . S
C443 C447 1.393 . S
C444 H433 0.950 . S
C444 C442 1.391 . S
C444 C445 1.400 . S
C445 C439 1.491 . S
C445 C444 1.400 . S
C445 C446 1.398 . S
C446 H434 0.950 . S
C446 C445 1.398 . S
C446 C447 1.391 . S
C447 H435 0.950 1_545 S
C447 C443 1.393 . S
C447 C446 1.391 . S
H448 C456 0.950 1_455 S
H449 C461 0.950 1_455 S
H450 C458 0.950 . S
H451 C460 0.950 . S
H452 C462 0.950 . S
H453 C464 0.950 . S
H454 C466 0.950 . S
H455 C467 0.950 . S
C456 H448 0.950 1_655 S
C456 C457 1.386 1_655 S
C456 C458 1.391 . S
C457 C456 1.386 1_455 S
C457 C461 1.393 1_455 S
C458 H450 0.950 . S
C458 C456 1.391 . S
C458 C459 1.400 . S
C459 C458 1.400 . S
C459 C460 1.398 . S
C459 C465 1.491 . S
C460 H451 0.950 . S
C460 C459 1.398 . S
C460 C461 1.391 . S
C461 H449 0.950 1_655 S
C461 C457 1.393 1_655 S
C461 C460 1.391 . S
C462 H452 0.950 . S
C462 C463 1.386 . S
C462 C464 1.391 1_565 S
C463 C462 1.386 . S
C463 C467 1.393 . S
C464 H453 0.950 . S
C464 C462 1.391 1_545 S
C464 C465 1.400 . S
C465 C459 1.491 . S
C465 C464 1.400 . S
C465 C466 1.398 . S
C466 H454 0.950 . S
C466 C465 1.398 . S
C466 C467 1.391 1_545 S
C467 H455 0.950 . S
C467 C463 1.393 . S
C467 C466 1.391 1_565 S
H468 C476 0.950 . S
H469 C481 0.950 . S
H470 C478 0.950 . S
H471 C480 0.950 . S
H472 C482 0.950 . S
H473 C484 0.950 . S
H474 C486 0.950 . S
H475 C487 0.950 . S
C476 H468 0.950 . S
C476 C477 1.386 . S
C476 C478 1.391 . S
C477 C476 1.386 . S
C477 C481 1.393 . S
C478 H470 0.950 . S
C478 C476 1.391 . S
C478 C479 1.400 . S
C479 C478 1.400 . S
C479 C480 1.398 . S
C479 C485 1.491 . S
C480 H471 0.950 . S
C480 C479 1.398 . S
C480 C481 1.391 . S
C481 H469 0.950 . S
C481 C477 1.393 . S
C481 C480 1.391 . S
C482 H472 0.950 . S
C482 C483 1.386 . S
C482 C484 1.391 . S
C483 C482 1.386 . S
C483 C487 1.393 . S
C484 H473 0.950 . S
C484 C482 1.391 . S
C484 C485 1.400 . S
C485 C479 1.491 . S
C485 C484 1.400 . S
C485 C486 1.398 . S
C486 H474 0.950 . S
C486 C485 1.398 . S
C486 C487 1.391 . S
C487 H475 0.950 . S
C487 C483 1.393 . S
C487 C486 1.391 . S
H488 C496 0.950 . S
H489 C501 0.950 . S
H490 C498 0.950 . S
H491 C500 0.950 . S
H492 C502 0.950 . S
H493 C504 0.950 . S
H494 C506 0.950 . S
H495 C507 0.950 . S
C496 H488 0.950 . S
C496 C497 1.386 . S
C496 C498 1.391 . S
C497 C496 1.386 . S
C497 C501 1.393 . S
C498 H490 0.950 . S
C498 C496 1.391 . S
C498 C499 1.400 . S
C499 C498 1.400 . S
C499 C500 1.398 . S
C499 C505 1.491 . S
C500 H491 0.950 . S
C500 C499 1.398 . S
C500 C501 1.391 . S
C501 H489 0.950 . S
C501 C497 1.393 . S
C501 C500 1.391 . S
C502 H492 0.950 . S
C502 C503 1.386 . S
C502 C504 1.391 . S
C503 C502 1.386 . S
C503 C507 1.393 . S
C504 H493 0.950 . S
C504 C502 1.391 . S
C504 C505 1.400 . S
C505 C499 1.491 . S
C505 C504 1.400 . S
C505 C506 1.398 . S
C506 H494 0.950 . S
C506 C505 1.398 . S
C506 C507 1.391 . S
C507 H495 0.950 . S
C507 C503 1.393 . S
C507 C506 1.391 . S
H508 C516 0.950 . S
H509 C521 0.950 . S
H510 C518 0.950 . S
H511 C520 0.950 . S
H512 C522 0.950 . S
H513 C524 0.950 . S
H514 C526 0.950 . S
H515 C527 0.950 . S
C516 H508 0.950 . S
C516 C517 1.386 . S
C516 C518 1.391 . S
C517 C516 1.386 . S
C517 C521 1.393 . S
C518 H510 0.950 . S
C518 C516 1.391 . S
C518 C519 1.400 . S
C519 C518 1.400 . S
C519 C520 1.398 . S
C519 C525 1.491 . S
C520 H511 0.950 . S
C520 C519 1.398 . S
C520 C521 1.391 . S
C521 H509 0.950 . S
C521 C517 1.393 . S
C521 C520 1.391 . S
C522 H512 0.950 . S
C522 C523 1.386 . S
C522 C524 1.391 . S
C523 C522 1.386 . S
C523 C527 1.393 . S
C524 H513 0.950 . S
C524 C522 1.391 . S
C524 C525 1.400 . S
C525 C519 1.491 . S
C525 C524 1.400 . S
C525 C526 1.398 . S
C526 H514 0.950 . S
C526 C525 1.398 . S
C526 C527 1.391 . S
C527 H515 0.950 . S
C527 C523 1.393 . S
C527 C526 1.391 . S
H528 C536 0.950 . S
H529 C541 0.950 . S
H530 C538 0.950 . S
H531 C540 0.950 . S
H532 C542 0.950 . S
H533 C544 0.950 . S
H534 C546 0.950 . S
H535 C547 0.950 . S
C536 H528 0.950 . S
C536 C537 1.386 . S
C536 C538 1.391 . S
C537 C536 1.386 . S
C537 C541 1.393 . S
C538 H530 0.950 . S
C538 C536 1.391 . S
C538 C539 1.400 . S
C539 C538 1.400 . S
C539 C540 1.398 . S
C539 C545 1.491 . S
C540 H531 0.950 . S
C540 C539 1.398 . S
C540 C541 1.391 . S
C541 H529 0.950 . S
C541 C537 1.393 . S
C541 C540 1.391 . S
C542 H532 0.950 . S
C542 C543 1.386 . S
C542 C544 1.391 . S
C543 C542 1.386 . S
C543 C547 1.393 . S
C544 H533 0.950 . S
C544 C542 1.391 . S
C544 C545 1.400 . S
C545 C539 1.491 . S
C545 C544 1.400 . S
C545 C546 1.398 . S
C546 H534 0.950 . S
C546 C545 1.398 . S
C546 C547 1.391 . S
C547 H535 0.950 . S
C547 C543 1.393 . S
C547 C546 1.391 . S
H548 C556 0.950 . S
H549 C561 0.950 . S
H550 C558 0.950 . S
H551 C560 0.950 . S
H552 C562 0.950 . S
H553 C564 0.950 . S
H554 C566 0.950 . S
H555 C567 0.950 . S
C556 H548 0.950 . S
C556 C557 1.386 . S
C556 C558 1.391 . S
C557 C556 1.386 . S
C557 C561 1.393 . S
C558 H550 0.950 . S
C558 C556 1.391 . S
C558 C559 1.400 . S
C559 C558 1.400 . S
C559 C560 1.398 . S
C559 C565 1.491 . S
C560 H551 0.950 . S
C560 C559 1.398 . S
C560 C561 1.391 . S
C561 H549 0.950 . S
C561 C557 1.393 . S
C561 C560 1.391 . S
C562 H552 0.950 . S
C562 C563 1.386 . S
C562 C564 1.391 . S
C563 C562 1.386 . S
C563 C567 1.393 . S
C564 H553 0.950 . S
C564 C562 1.391 . S
C564 C565 1.400 . S
C565 C559 1.491 . S
C565 C564 1.400 . S
C565 C566 1.398 . S
C566 H554 0.950 . S
C566 C565 1.398 . S
C566 C567 1.391 . S
C567 H555 0.950 . S
C567 C563 1.393 . S
C567 C566 1.391 . S
H568 C576 0.950 . S
H569 C581 0.950 . S
H570 C578 0.950 . S
H571 C580 0.950 . S
H572 C582 0.950 . S
H573 C584 0.950 . S
H574 C586 0.950 . S
H575 C587 0.950 . S
C576 H568 0.950 . S
C576 C577 1.386 . S
C576 C578 1.391 . S
C577 C576 1.386 . S
C577 C581 1.393 . S
C578 H570 0.950 . S
C578 C576 1.391 . S
C578 C579 1.400 . S
C579 C578 1.400 . S
C579 C580 1.398 . S
C579 C585 1.491 . S
C580 H571 0.950 . S
C580 C579 1.398 . S
C580 C581 1.391 . S
C581 H569 0.950 . S
C581 C577 1.393 . S
C581 C580 1.391 . S
C582 H572 0.950 . S
C582 C583 1.386 . S
C582 C584 1.391 . S
C583 C582 1.386 . S
C583 C587 1.393 . S
C584 H573 0.950 . S
C584 C582 1.391 . S
C584 C585 1.400 . S
C585 C579 1.491 . S
C585 C584 1.400 . S
C585 C586 1.398 . S
C586 H574 0.950 . S
C586 C585 1.398 . S
C586 C587 1.391 . S
C587 H575 0.950 . S
C587 C583 1.393 . S
C587 C586 1.391 . S
H588 C596 0.950 . S
H589 C601 0.950 . S
H590 C598 0.950 . S
H591 C600 0.950 . S
H592 C602 0.950 . S
H593 C604 0.950 1_565 S
H594 C606 0.950 . S
H595 C607 0.950 . S
C596 H588 0.950 . S
C596 C597 1.386 . S
C596 C598 1.391 . S
C597 C596 1.386 . S
C597 C601 1.393 . S
C598 H590 0.950 . S
C598 C596 1.391 . S
C598 C599 1.400 . S
C599 C598 1.400 . S
C599 C600 1.398 . S
C599 C605 1.491 . S
C600 H591 0.950 . S
C600 C599 1.398 . S
C600 C601 1.391 . S
C601 H589 0.950 . S
C601 C597 1.393 . S
C601 C600 1.391 . S
C602 H592 0.950 . S
C602 C603 1.386 . S
C602 C604 1.391 . S
C603 C602 1.386 . S
C603 C607 1.393 . S
C604 H593 0.950 1_545 S
C604 C602 1.391 . S
C604 C605 1.400 1_545 S
C605 C599 1.491 . S
C605 C604 1.400 1_565 S
C605 C606 1.398 . S
C606 H594 0.950 . S
C606 C605 1.398 . S
C606 C607 1.391 1_565 S
C607 H595 0.950 . S
C607 C603 1.393 . S
C607 C606 1.391 1_545 S
H608 C616 0.950 . S
H609 C621 0.950 . S
H610 C618 0.950 . S
H611 C620 0.950 . S
H612 C622 0.950 . S
H613 C624 0.950 . S
H614 C626 0.950 . S
H615 C627 0.950 . S
C616 H608 0.950 . S
C616 C617 1.386 . S
C616 C618 1.391 1_655 S
C617 C616 1.386 . S
C617 C621 1.393 . S
C618 H610 0.950 . S
C618 C616 1.391 1_455 S
C618 C619 1.400 . S
C619 C618 1.400 . S
C619 C620 1.398 . S
C619 C625 1.491 . S
C620 H611 0.950 . S
C620 C619 1.398 . S
C620 C621 1.391 1_455 S
C621 H609 0.950 . S
C621 C617 1.393 . S
C621 C620 1.391 1_655 S
C622 H612 0.950 . S
C622 C623 1.386 . S
C622 C624 1.391 1_545 S
C623 C622 1.386 . S
C623 C627 1.393 1_545 S
C624 H613 0.950 . S
C624 C622 1.391 1_565 S
C624 C625 1.400 . S
C625 C619 1.491 . S
C625 C624 1.400 . S
C625 C626 1.398 . S
C626 H614 0.950 . S
C626 C625 1.398 . S
C626 C627 1.391 . S
C627 H615 0.950 . S
C627 C623 1.393 1_565 S
C627 C626 1.391 . S
H628 C636 0.950 . S
H629 C641 0.950 . S
H630 C638 0.950 . S
H631 C640 0.950 . S
H632 C642 0.950 1_655 S
H633 C644 0.950 . S
H634 C646 0.950 . S
H635 C647 0.950 . S
C636 H628 0.950 . S
C636 C637 1.386 . S
C636 C638 1.391 . S
C637 C636 1.386 . S
C637 C641 1.393 . S
C638 H630 0.950 . S
C638 C636 1.391 . S
C638 C639 1.400 . S
C639 C638 1.400 . S
C639 C640 1.398 . S
C639 C645 1.491 . S
C640 H631 0.950 . S
C640 C639 1.398 . S
C640 C641 1.391 . S
C641 H629 0.950 . S
C641 C637 1.393 . S
C641 C640 1.391 . S
C642 H632 0.950 1_455 S
C642 C643 1.386 . S
C642 C644 1.391 . S
C643 C642 1.386 . S
C643 C647 1.393 . S
C644 H633 0.950 . S
C644 C642 1.391 . S
C644 C645 1.400 . S
C645 C639 1.491 . S
C645 C644 1.400 . S
C645 C646 1.398 . S
C646 H634 0.950 . S
C646 C645 1.398 . S
C646 C647 1.391 . S
C647 H635 0.950 . S
C647 C643 1.393 . S
C647 C646 1.391 . S
H648 C656 0.950 . S
H649 C661 0.950 . S
H650 C658 0.950 . S
H651 C660 0.950 . S
H652 C662 0.950 . S
H653 C664 0.950 . S
H654 C666 0.950 . S
H655 C667 0.950 . S
C656 H648 0.950 . S
C656 C657 1.386 . S
C656 C658 1.391 . S
C657 C656 1.386 . S
C657 C661 1.393 . S
C658 H650 0.950 . S
C658 C656 1.391 . S
C658 C659 1.400 . S
C659 C658 1.400 . S
C659 C660 1.398 . S
C659 C665 1.491 . S
C660 H651 0.950 . S
C660 C659 1.398 . S
C660 C661 1.391 . S
C661 H649 0.950 . S
C661 C657 1.393 . S
C661 C660 1.391 . S
C662 H652 0.950 . S
C662 C663 1.386 . S
C662 C664 1.391 . S
C663 C662 1.386 . S
C663 C667 1.393 . S
C664 H653 0.950 . S
C664 C662 1.391 . S
C664 C665 1.400 . S
C665 C659 1.491 . S
C665 C664 1.400 . S
C665 C666 1.398 . S
C666 H654 0.950 . S
C666 C665 1.398 . S
C666 C667 1.391 . S
C667 H655 0.950 . S
C667 C663 1.393 . S
C667 C666 1.391 . S
H668 C676 0.950 . S
H669 C681 0.950 . S
H670 C678 0.950 . S
H671 C680 0.950 . S
H672 C682 0.950 . S
H673 C684 0.950 . S
H674 C686 0.950 . S
H675 C687 0.950 . S
C676 H668 0.950 . S
C676 C677 1.386 . S
C676 C678 1.391 . S
C677 C676 1.386 . S
C677 C681 1.393 . S
C678 H670 0.950 . S
C678 C676 1.391 . S
C678 C679 1.400 . S
C679 C678 1.400 . S
C679 C680 1.398 . S
C679 C685 1.491 . S
C680 H671 0.950 . S
C680 C679 1.398 . S
C680 C681 1.391 . S
C681 H669 0.950 . S
C681 C677 1.393 . S
C681 C680 1.391 . S
C682 H672 0.950 . S
C682 C683 1.386 . S
C682 C684 1.391 . S
C683 C682 1.386 . S
C683 C687 1.393 . S
C684 H673 0.950 . S
C684 C682 1.391 . S
C684 C685 1.400 . S
C685 C679 1.491 . S
C685 C684 1.400 . S
C685 C686 1.398 . S
C686 H674 0.950 . S
C686 C685 1.398 . S
C686 C687 1.391 . S
C687 H675 0.950 . S
C687 C683 1.393 . S
C687 C686 1.391 . S
H688 C696 0.950 . S
H689 C701 0.950 1_545 S
H690 C698 0.950 . S
H691 C700 0.950 . S
H692 C702 0.950 . S
H693 C704 0.950 . S
H694 C706 0.950 . S
H695 C707 0.950 . S
C696 H688 0.950 . S
C696 C697 1.386 . S
C696 C698 1.391 . S
C697 C696 1.386 . S
C697 C701 1.393 . S
C698 H690 0.950 . S
C698 C696 1.391 . S
C698 C699 1.400 . S
C699 C698 1.400 . S
C699 C700 1.398 . S
C699 C705 1.491 . S
C700 H691 0.950 . S
C700 C699 1.398 . S
C700 C701 1.391 . S
C701 H689 0.950 1_565 S
C701 C697 1.393 . S
C701 C700 1.391 . S
C702 H692 0.950 . S
C702 C703 1.386 . S
C702 C704 1.391 . S
C703 C702 1.386 . S
C703 C707 1.393 . S
C704 H693 0.950 . S
C704 C702 1.391 . S
C704 C705 1.400 . S
C705 C699 1.491 . S
C705 C704 1.400 . S
C705 C706 1.398 . S
C706 H694 0.950 . S
C706 C705 1.398 . S
C706 C707 1.391 . S
C707 H695 0.950 . S
C707 C703 1.393 . S
C707 C706 1.391 . S
H708 C716 0.950 . S
H709 C721 0.950 . S
H710 C718 0.950 . S
H711 C720 0.950 . S
H712 C722 0.950 . S
H713 C724 0.950 . S
H714 C726 0.950 . S
H715 C727 0.950 . S
C716 H708 0.950 . S
C716 C717 1.386 . S
C716 C718 1.391 . S
C717 C716 1.386 . S
C717 C721 1.393 . S
C718 H710 0.950 . S
C718 C716 1.391 . S
C718 C719 1.400 . S
C719 C718 1.400 . S
C719 C720 1.398 . S
C719 C725 1.491 . S
C720 H711 0.950 . S
C720 C719 1.398 . S
C720 C721 1.391 . S
C721 H709 0.950 . S
C721 C717 1.393 . S
C721 C720 1.391 . S
C722 H712 0.950 . S
C722 C723 1.386 . S
C722 C724 1.391 . S
C723 C722 1.386 . S
C723 C727 1.393 . S
C724 H713 0.950 . S
C724 C722 1.391 . S
C724 C725 1.400 . S
C725 C719 1.491 . S
C725 C724 1.400 . S
C725 C726 1.398 . S
C726 H714 0.950 . S
C726 C725 1.398 . S
C726 C727 1.391 . S
C727 H715 0.950 . S
C727 C723 1.393 . S
C727 C726 1.391 . S
H728 C736 0.950 . S
H729 C741 0.950 . S
H730 C738 0.950 . S
H731 C740 0.950 1_455 S
H732 C742 0.950 . S
H733 C744 0.950 1_455 S
H734 C746 0.950 . S
H735 C747 0.950 . S
C736 H728 0.950 . S
C736 C737 1.386 . S
C736 C738 1.391 . S
C737 C736 1.386 . S
C737 C741 1.393 1_655 S
C738 H730 0.950 . S
C738 C736 1.391 . S
C738 C739 1.400 . S
C739 C738 1.400 . S
C739 C740 1.398 . S
C739 C745 1.491 . S
C740 H731 0.950 1_655 S
C740 C739 1.398 . S
C740 C741 1.391 1_655 S
C741 H729 0.950 . S
C741 C737 1.393 1_455 S
C741 C740 1.391 1_455 S
C742 H732 0.950 . S
C742 C743 1.386 . S
C742 C744 1.391 . S
C743 C742 1.386 . S
C743 C747 1.393 . S
C744 H733 0.950 1_655 S
C744 C742 1.391 . S
C744 C745 1.400 . S
C745 C739 1.491 . S
C745 C744 1.400 . S
C745 C746 1.398 . S
C746 H734 0.950 . S
C746 C745 1.398 . S
C746 C747 1.391 . S
C747 H735 0.950 . S
C747 C743 1.393 . S
C747 C746 1.391 . S
H748 C756 0.950 . S
H749 C761 0.950 . S
H750 C758 0.950 . S
H751 C760 0.950 . S
H752 C762 0.950 . S
H753 C764 0.950 . S
H754 C766 0.950 . S
H755 C767 0.950 . S
C756 H748 0.950 . S
C756 C757 1.386 . S
C756 C758 1.391 . S
C757 C756 1.386 . S
C757 C761 1.393 . S
C758 H750 0.950 . S
C758 C756 1.391 . S
C758 C759 1.400 . S
C759 C758 1.400 . S
C759 C760 1.398 . S
C759 C765 1.491 . S
C760 H751 0.950 . S
C760 C759 1.398 . S
C760 C761 1.391 . S
C761 H749 0.950 . S
C761 C757 1.393 . S
C761 C760 1.391 . S
C762 H752 0.950 . S
C762 C763 1.386 . S
C762 C764 1.391 . S
C763 C762 1.386 . S
C763 C767 1.393 . S
C764 H753 0.950 . S
C764 C762 1.391 . S
C764 C765 1.400 . S
C765 C759 1.491 . S
C765 C764 1.400 . S
C765 C766 1.398 . S
C766 H754 0.950 . S
C766 C765 1.398 . S
C766 C767 1.391 . S
C767 H755 0.950 . S
C767 C763 1.393 . S
C767 C766 1.391 . S
H768 C776 0.950 . S
H769 C781 0.950 . S
H770 C778 0.950 . S
H771 C780 0.950 . S
H772 C782 0.950 . S
H773 C784 0.950 . S
H774 C786 0.950 . S
H775 C787 0.950 . S
C776 H768 0.950 . S
C776 C777 1.386 . S
C776 C778 1.391 . S
C777 C776 1.386 . S
C777 C781 1.393 . S
C778 H770 0.950 . S
C778 C776 1.391 . S
C778 C779 1.400 . S
C779 C778 1.400 . S
C779 C780 1.398 . S
C779 C785 1.491 . S
C780 H771 0.950 . S
C780 C779 1.398 . S
C780 C781 1.391 . S
C781 H769 0.950 . S
C781 C777 1.393 . S
C781 C780 1.391 . S
C782 H772 0.950 . S
C782 C783 1.386 . S
C782 C784 1.391 . S
C783 C782 1.386 . S
C783 C787 1.393 . S
C784 H773 0.950 . S
C784 C782 1.391 . S
C784 C785 1.400 . S
C785 C779 1.491 . S
C785 C784 1.400 . S
C785 C786 1.398 . S
C786 H774 0.950 . S
C786 C785 1.398 . S
C786 C787 1.391 . S
C787 H775 0.950 . S
C787 C783 1.393 . S
C787 C786 1.391 . S
H788 C796 0.956 . S
H789 C801 0.950 . S
H790 C798 0.950 . S
H791 C800 0.950 . S
H792 C802 0.950 . S
H793 C804 0.950 1_565 S
H794 C806 0.950 . S
H795 C807 0.950 . S
C796 H788 0.956 . S
C796 C797 1.375 1_545 S
C796 C798 1.396 . S
C797 C796 1.375 1_565 S
C797 C801 1.393 . S
C798 H790 0.950 . S
C798 C796 1.396 . S
C798 C799 1.400 . S
C799 C798 1.400 . S
C799 C800 1.398 1_545 S
C799 C805 1.491 . S
C800 H791 0.950 . S
C800 C799 1.398 1_565 S
C800 C801 1.391 . S
C801 H789 0.950 . S
C801 C797 1.393 . S
C801 C800 1.391 . S
C802 H792 0.950 . S
C802 C803 1.386 . S
C802 C804 1.391 . S
C803 C802 1.386 . S
C803 C807 1.393 . S
C804 H793 0.950 1_545 S
C804 C802 1.391 . S
C804 C805 1.400 . S
C805 C799 1.491 . S
C805 C804 1.400 . S
C805 C806 1.398 . S
C806 H794 0.950 . S
C806 C805 1.398 . S
C806 C807 1.391 . S
C807 H795 0.950 . S
C807 C803 1.393 . S
C807 C806 1.391 . S
H808 C816 0.950 . S
H809 C821 0.950 . S
H810 C818 0.950 . S
H811 C820 0.950 . S
H812 C822 0.950 . S
H813 C824 0.950 . S
H814 C826 0.950 1_655 S
H815 C827 0.950 . S
C816 H808 0.950 . S
C816 C817 1.386 . S
C816 C818 1.391 . S
C817 C816 1.386 . S
C817 C821 1.393 . S
C818 H810 0.950 . S
C818 C816 1.391 . S
C818 C819 1.400 1_655 S
C819 C818 1.400 1_455 S
C819 C820 1.398 . S
C819 C825 1.491 . S
C820 H811 0.950 . S
C820 C819 1.398 . S
C820 C821 1.391 1_455 S
C821 H809 0.950 . S
C821 C817 1.393 . S
C821 C820 1.391 1_655 S
C822 H812 0.950 . S
C822 C823 1.386 . S
C822 C824 1.391 . S
C823 C822 1.386 . S
C823 C827 1.393 . S
C824 H813 0.950 . S
C824 C822 1.391 . S
C824 C825 1.400 . S
C825 C819 1.491 . S
C825 C824 1.400 . S
C825 C826 1.398 . S
C826 H814 0.950 1_455 S
C826 C825 1.398 . S
C826 C827 1.391 . S
C827 H815 0.950 . S
C827 C823 1.393 . S
C827 C826 1.391 . S
C297 C36 1.105 . S
C303 C2 1.099 . S
C317 C93 1.107 . S
C323 C34 1.102 . S
C337 C70 1.090 . S
C343 C4 1.102 . S
C357 C66 1.099 . S
C363 C61 1.107 . S
C377 C68 1.105 . S
C383 C6 1.098 . S
C397 C29 1.098 . S
C403 C38 1.082 . S
C417 C98 1.078 . S
C423 C157 1.095 . S
C437 C164 1.098 . S
C443 C134 1.083 1_545 S
C457 C162 1.078 . S
C463 C100 1.095 . S
C477 C132 1.098 . S
C483 C166 1.084 . S
C497 C189 1.108 . S
C503 C102 1.102 . S
C517 C130 1.086 . S
C523 C125 1.098 . S
C537 C253 1.107 . S
C543 C198 1.100 . S
C557 C230 1.101 . S
C563 C260 1.108 . S
C577 C258 1.088 . S
C583 C221 1.101 . S
C597 C262 1.079 . S
C603 C228 1.095 . S
C617 C285 1.107 . S
C623 C194 1.102 . S
C637 C196 1.101 . S
C643 C226 1.092 1_455 S
C657 N173 1.844 . S
C663 N18 1.860 . S
C677 N109 1.860 . S
C683 N50 1.844 . S
C697 N77 1.860 . S
C703 N146 1.843 . S
C717 N82 1.854 . S
C723 N205 1.847 . S
C737 N13 1.854 . S
C743 N237 1.851 . S
C757 N274 1.860 . S
C763 N45 1.843 . S
C777 N114 1.853 . S
C783 N269 1.848 . S
C797 N141 1.859 . S
C803 N210 1.845 . S
C817 N242 1.847 . S
C823 N178 1.854 . S
