# Generated by pormake.
# Topology uku, (4)-cn, num edge types: 1
# Building blocks:
#     Node 0, Type 0, BuildingBlock: KUFVIS_clean_sbu_0, # of connection points: 4
#     Node 1, Type 0, BuildingBlock: KUFVIS_clean_sbu_0, # of connection points: 4
#     Node 2, Type 0, BuildingBlock: KUFVIS_clean_sbu_0, # of connection points: 4
#     Node 3, Type 0, BuildingBlock: KUFVIS_clean_sbu_0, # of connection points: 4
#     Node 4, Type 0, BuildingBlock: KUFVIS_clean_sbu_0, # of connection points: 4
#     Node 5, Type 0, BuildingBlock: KUFVIS_clean_sbu_0, # of connection points: 4
#     Node 6, Type 0, BuildingBlock: KUFVIS_clean_sbu_0, # of connection points: 4
#     Node 7, Type 0, BuildingBlock: KUFVIS_clean_sbu_0, # of connection points: 4
#     Node 8, Type 0, BuildingBlock: KUFVIS_clean_sbu_0, # of connection points: 4
#     Node 9, Type 0, BuildingBlock: KUFVIS_clean_sbu_0, # of connection points: 4
#     Node 10, Type 0, BuildingBlock: KUFVIS_clean_sbu_0, # of connection points: 4
#     Node 11, Type 0, BuildingBlock: KUFVIS_clean_sbu_0, # of connection points: 4
#     Edge 12, Type (0, 0), BuildingBlock: KIFKEQ_clean_linker_1, # of connection points: 2
#     Edge 13, Type (0, 0), BuildingBlock: KIFKEQ_clean_linker_1, # of connection points: 2
#     Edge 14, Type (0, 0), BuildingBlock: KIFKEQ_clean_linker_1, # of connection points: 2
#     Edge 15, Type (0, 0), BuildingBlock: KIFKEQ_clean_linker_1, # of connection points: 2
#     Edge 16, Type (0, 0), BuildingBlock: KIFKEQ_clean_linker_1, # of connection points: 2
#     Edge 17, Type (0, 0), BuildingBlock: KIFKEQ_clean_linker_1, # of connection points: 2
#     Edge 18, Type (0, 0), BuildingBlock: KIFKEQ_clean_linker_1, # of connection points: 2
#     Edge 19, Type (0, 0), BuildingBlock: KIFKEQ_clean_linker_1, # of connection points: 2
#     Edge 20, Type (0, 0), BuildingBlock: KIFKEQ_clean_linker_1, # of connection points: 2
#     Edge 21, Type (0, 0), BuildingBlock: KIFKEQ_clean_linker_1, # of connection points: 2
#     Edge 22, Type (0, 0), BuildingBlock: KIFKEQ_clean_linker_1, # of connection points: 2
#     Edge 23, Type (0, 0), BuildingBlock: KIFKEQ_clean_linker_1, # of connection points: 2
#     Edge 24, Type (0, 0), BuildingBlock: KIFKEQ_clean_linker_1, # of connection points: 2
#     Edge 25, Type (0, 0), BuildingBlock: KIFKEQ_clean_linker_1, # of connection points: 2
#     Edge 26, Type (0, 0), BuildingBlock: KIFKEQ_clean_linker_1, # of connection points: 2
#     Edge 27, Type (0, 0), BuildingBlock: KIFKEQ_clean_linker_1, # of connection points: 2
#     Edge 28, Type (0, 0), BuildingBlock: KIFKEQ_clean_linker_1, # of connection points: 2
#     Edge 29, Type (0, 0), BuildingBlock: KIFKEQ_clean_linker_1, # of connection points: 2
#     Edge 30, Type (0, 0), BuildingBlock: KIFKEQ_clean_linker_1, # of connection points: 2
#     Edge 31, Type (0, 0), BuildingBlock: KIFKEQ_clean_linker_1, # of connection points: 2
#     Edge 32, Type (0, 0), BuildingBlock: KIFKEQ_clean_linker_1, # of connection points: 2
#     Edge 33, Type (0, 0), BuildingBlock: KIFKEQ_clean_linker_1, # of connection points: 2
#     Edge 34, Type (0, 0), BuildingBlock: KIFKEQ_clean_linker_1, # of connection points: 2
#     Edge 35, Type (0, 0), BuildingBlock: KIFKEQ_clean_linker_1, # of connection points: 2
# Relax obj value: 0.400
# Max RMSD: 0.284
# Mean RMSD: 0.284
data_MOF--net-uku--node1-KUFVIS_clean_sbu_0--edge1-KIFKEQ_clean_linker_1
_symmetry_space_group_name_H-M    P1
_symmetry_Int_Tables_number       1
_symmetry_cell_setting            triclinic
loop_
_symmetry_equiv_pos_as_xyz
'x, y, z'
_cell_length_a     41.293935
_cell_length_b     41.28181
_cell_length_c     41.417007
_cell_angle_alpha  89.931691
_cell_angle_beta   90.048512
_cell_angle_gamma 89.955306
loop_
_atom_site_label
_atom_site_type_symbol
_atom_site_fract_x
_atom_site_fract_y
_atom_site_fract_z
_atom_type_partial_charge
Mn0 Mn 0.06754 0.17274 0.66272 0.0
Mn1 Mn 0.98816 0.18363 0.67725 0.0
C2 C 0.05073 0.21748 0.69077 0.0
C3 C 0.11496 0.14725 0.67861 0.0
C4 C 0.01985 0.19817 0.6128 0.0
O5 O 0.04812 0.12938 0.65266 0.0
O6 O 0.99598 0.13696 0.66631 0.0
C7 C 0.98294 0.14458 0.737 0.0
N8 N 0.97967 0.17352 0.72149 0.0
C9 C 0.96236 0.19974 0.77039 0.0
C10 C 0.96529 0.17016 0.78682 0.0
C11 C 0.97564 0.14247 0.77005 0.0
C12 C 0.96963 0.20029 0.73737 0.0
H13 H 0.99119 0.1233 0.7243 0.0
C14 C 0.01944 0.11903 0.65656 0.0
O15 O 0.11093 0.15629 0.64875 0.0
O16 O 0.09194 0.15373 0.69878 0.0
N17 N 0.97749 0.2273 0.68865 0.0
C18 C 0.97764 0.25431 0.6697 0.0
C19 C 0.96878 0.28427 0.68307 0.0
C20 C 0.95984 0.28616 0.71573 0.0
C21 C 0.95967 0.258 0.7347 0.0
C22 C 0.96836 0.22875 0.71996 0.0
H23 H 0.98479 0.25308 0.64468 0.0
O24 O 0.07915 0.21701 0.67738 0.0
O25 O 0.03356 0.19123 0.68801 0.0
O26 O 0.04879 0.19094 0.62096 0.0
O27 O 0.99543 0.19552 0.63163 0.0
C28 C 0.95184 0.25793 0.7678 0.0
C29 C 0.95318 0.22883 0.78564 0.0
H30 H 0.95996 0.1685 0.81237 0.0
H31 H 0.97815 0.1196 0.7826 0.0
H32 H 0.96906 0.30591 0.6683 0.0
H33 H 0.95338 0.30938 0.72605 0.0
H34 H 0.94513 0.28021 0.77988 0.0
H35 H 0.94748 0.22916 0.81116 0.0
Mn36 Mn 0.92981 0.83109 0.65452 0.0
Mn37 Mn 0.00666 0.81379 0.67529 0.0
C38 C 0.93986 0.78881 0.68903 0.0
C39 C 0.88457 0.86289 0.66319 0.0
C40 C 0.97656 0.79568 0.61087 0.0
O41 O 0.95478 0.87036 0.64016 0.0
O42 O 0.00406 0.86011 0.66106 0.0
C43 C 0.01423 0.8563 0.73232 0.0
N44 N 0.01483 0.82615 0.71901 0.0
C45 C 0.02908 0.80199 0.76998 0.0
C46 C 0.02888 0.83282 0.78416 0.0
C47 C 0.02139 0.86008 0.76524 0.0
C48 C 0.02216 0.79976 0.73695 0.0
H49 H 0.00823 0.87732 0.71795 0.0
C50 C 0.98355 0.87886 0.64706 0.0
O51 O 0.88917 0.84896 0.63544 0.0
O52 O 0.90583 0.85797 0.68569 0.0
N53 N 0.01192 0.77018 0.69023 0.0
C54 C 0.00861 0.74197 0.67349 0.0
C55 C 0.0138 0.71232 0.68931 0.0
C56 C 0.02239 0.71196 0.72212 0.0
C57 C 0.02576 0.74128 0.73883 0.0
C58 C 0.02057 0.77011 0.72173 0.0
H59 H 0.0018 0.74205 0.64833 0.0
O60 O 0.91235 0.79091 0.67398 0.0
O61 O 0.9602 0.81242 0.68433 0.0
O62 O 0.94791 0.80528 0.61704 0.0
O63 O 0.00043 0.7993 0.63021 0.0
C64 C 0.03334 0.74299 0.77196 0.0
C65 C 0.03503 0.77333 0.78752 0.0
H66 H 0.03407 0.8358 0.80963 0.0
H67 H 0.02098 0.88393 0.77606 0.0
H68 H 0.01102 0.68978 0.67628 0.0
H69 H 0.02607 0.68902 0.73431 0.0
H70 H 0.03747 0.7211 0.78581 0.0
H71 H 0.04042 0.7743 0.8131 0.0
Mn72 Mn 0.06929 0.82745 0.3372 0.0
Mn73 Mn 0.99102 0.81056 0.32197 0.0
C74 C 0.0566 0.78579 0.30296 0.0
C75 C 0.11398 0.85918 0.32584 0.0
C76 C 0.02589 0.7911 0.3836 0.0
O77 O 0.04556 0.86648 0.354 0.0
O78 O 0.99467 0.8564 0.33736 0.0
C79 C 0.97919 0.85479 0.26689 0.0
N80 N 0.97954 0.82425 0.27937 0.0
C81 C 0.96111 0.80169 0.22907 0.0
C82 C 0.96031 0.83293 0.21577 0.0
C83 C 0.96942 0.85958 0.23476 0.0
C84 C 0.97067 0.79844 0.26137 0.0
H85 H 0.9864 0.87534 0.28132 0.0
C86 C 0.0162 0.87488 0.35004 0.0
O87 O 0.11118 0.84478 0.35363 0.0
O88 O 0.09116 0.85482 0.3048 0.0
N89 N 0.98447 0.76744 0.30631 0.0
C90 C 0.98889 0.73874 0.322 0.0
C91 C 0.98225 0.70959 0.30588 0.0
C92 C 0.97104 0.71024 0.27386 0.0
C93 C 0.96653 0.74006 0.25825 0.0
C94 C 0.9733 0.76834 0.27562 0.0
H95 H -0.0023 0.73805 0.34654 0.0
O96 O 0.08516 0.7876 0.31595 0.0
O97 O 0.03668 0.80938 0.3094 0.0
O98 O 0.05394 0.80107 0.37562 0.0
O99 O 0.0007 0.79477 0.36599 0.0
C100 C 0.95631 0.74279 0.22589 0.0
C101 C 0.95358 0.77358 0.21133 0.0
H102 H 0.95308 0.83669 0.19089 0.0
H103 H 0.96906 0.88374 0.2246 0.0
H104 H 0.9859 0.68666 0.31805 0.0
H105 H 0.96624 0.68768 0.2614 0.0
H106 H 0.95092 0.72134 0.21185 0.0
H107 H 0.94613 0.77534 0.1863 0.0
Mn108 Mn 0.92344 0.16277 0.33538 0.0
Mn109 Mn 0.0019 0.17714 0.31909 0.0
C110 C 0.93688 0.20451 0.30134 0.0
C111 C 0.87774 0.13254 0.32406 0.0
C112 C 0.96902 0.19624 0.38183 0.0
O113 O 0.94611 0.12266 0.3512 0.0
O114 O -0.00299 0.13114 0.33377 0.0
C115 C 0.01125 0.13376 0.26302 0.0
N116 N 0.01212 0.16402 0.27605 0.0
C117 C 0.03017 0.18709 0.22582 0.0
C118 C 0.02971 0.15613 0.21193 0.0
C119 C 0.02018 0.12936 0.23061 0.0
C120 C 0.02142 0.18993 0.25836 0.0
H121 H 0.00372 0.11314 0.27722 0.0
C122 C 0.97507 0.11327 0.34666 0.0
O123 O 0.8812 0.14637 0.35203 0.0
O124 O 0.90036 0.13678 0.30283 0.0
N125 N 0.0095 0.22036 0.30412 0.0
C126 C 0.00615 0.24883 0.32039 0.0
C127 C 0.01327 0.27812 0.30466 0.0
C128 C 0.0238 0.27783 0.27242 0.0
C129 C 0.02716 0.24822 0.2562 0.0
C130 C 0.01998 0.21978 0.2732 0.0
H131 H -0.00214 0.24924 0.34509 0.0
O132 O 0.90858 0.20355 0.31493 0.0
O133 O 0.9561 0.1802 0.30731 0.0
O134 O 0.94039 0.18779 0.37408 0.0
O135 O 0.99365 0.19215 0.3636 0.0
C136 C 0.0366 0.24588 0.2236 0.0
C137 C 0.03813 0.21533 0.20844 0.0
H138 H 0.03627 0.15268 0.18685 0.0
H139 H 0.01957 0.10543 0.22001 0.0
H140 H 0.0105 0.30088 0.3173 0.0
H141 H 0.02898 0.30049 0.26028 0.0
H142 H 0.04228 0.26746 0.20984 0.0
H143 H 0.04497 0.21389 0.18323 0.0
Mn144 Mn 0.65157 0.07551 0.15923 0.0
Mn145 Mn 0.68041 0.00103 0.17508 0.0
C146 C 0.68668 0.06845 0.2016 0.0
C147 C 0.65559 0.12134 0.12746 0.0
C148 C 0.61229 0.02326 0.19171 0.0
O149 O 0.64026 0.04942 0.11955 0.0
O150 O 0.66822 0.00344 0.12848 0.0
C151 C 0.74023 0.0019 0.13577 0.0
N152 N 0.72551 -0.00135 0.16502 0.0
C153 C 0.77674 0.99051 0.19158 0.0
C154 C 0.79241 0.99353 0.1617 0.0
C155 C 0.77407 -0.00073 0.13369 0.0
C156 C 0.74292 0.99304 0.19211 0.0
H157 H 0.72625 0.00657 0.11421 0.0
C158 C 0.6516 0.02232 0.11022 0.0
O159 O 0.62834 0.11399 0.14133 0.0
O160 O 0.68032 0.10275 0.13276 0.0
N161 N 0.69361 0.99604 0.21916 0.0
C162 C 0.67499 0.99547 0.2463 0.0
C163 C 0.68976 0.99087 0.27652 0.0
C164 C 0.72348 0.98683 0.27852 0.0
C165 C 0.74212 0.98725 0.25025 0.0
C166 C 0.72602 0.99154 0.22078 0.0
H167 H 0.64908 -0.00133 0.24497 0.0
O168 O 0.6692 0.09454 0.19975 0.0
O169 O 0.68396 0.04814 0.17781 0.0
O170 O 0.61598 0.05306 0.18456 0.0
O171 O 0.63392 0.00157 0.18698 0.0
C172 C 0.77611 0.9842 0.25023 0.0
C173 C 0.7934 0.98584 0.22092 0.0
H174 H 0.81853 0.9918 0.16004 0.0
H175 H 0.786 0.00182 0.11058 0.0
H176 H 0.67521 0.99061 0.29823 0.0
H177 H 0.73482 0.98365 0.30191 0.0
H178 H 0.78923 0.98101 0.27267 0.0
H179 H 0.81956 0.9839 0.22127 0.0
Mn180 Mn 0.3415 0.91429 0.16381 0.0
Mn181 Mn 0.31566 0.98979 0.17942 0.0
C182 C 0.30629 0.92265 0.20581 0.0
C183 C 0.33578 0.86897 0.13166 0.0
C184 C 0.38287 0.96474 0.19627 0.0
O185 O 0.35436 0.94012 0.12442 0.0
O186 O 0.32779 0.98698 0.13282 0.0
C187 C 0.25584 0.99161 0.14006 0.0
N188 N 0.27068 0.99407 0.16933 0.0
C189 C 0.21984 0.00408 0.19588 0.0
C190 C 0.20404 0.00189 0.16598 0.0
C191 C 0.22213 0.99561 0.13796 0.0
C192 C 0.25353 0.0002 0.19643 0.0
H193 H 0.26961 0.98653 0.11849 0.0
C194 C 0.34408 0.96759 0.11486 0.0
O195 O 0.36317 0.87497 0.14593 0.0
O196 O 0.31182 0.88854 0.13687 0.0
N197 N 0.30271 0.99514 0.2235 0.0
C198 C 0.32137 0.99487 0.25066 0.0
C199 C 0.30682 -8e-05 0.28087 0.0
C200 C 0.27329 0.00524 0.28287 0.0
C201 C 0.25461 0.00567 0.25459 0.0
C202 C 0.2705 0.00088 0.22511 0.0
H203 H 0.34713 0.99068 0.24933 0.0
O204 O 0.32262 0.89582 0.20407 0.0
O205 O 0.31015 0.94291 0.18211 0.0
O206 O 0.37787 0.93504 0.18952 0.0
O207 O 0.36208 0.98723 0.19132 0.0
C208 C 0.22077 0.01005 0.25455 0.0
C209 C 0.2034 0.00925 0.22522 0.0
H210 H 0.17801 0.00469 0.16429 0.0
H211 H 0.21009 0.99371 0.11482 0.0
H212 H 0.32139 -0.00048 0.30259 0.0
H213 H 0.26211 0.00877 0.30625 0.0
H214 H 0.20781 0.01366 0.27699 0.0
H215 H 0.17734 0.01224 0.22555 0.0
Mn216 Mn 0.65691 0.91901 0.82417 0.0
Mn217 Mn 0.68444 0.99377 0.80791 0.0
C218 C 0.69219 0.92615 0.78203 0.0
C219 C 0.6616 0.87399 0.85709 0.0
C220 C 0.61666 0.9703 0.79147 0.0
O221 O 0.64462 0.94553 0.86322 0.0
O222 O 0.67259 0.9915 0.85462 0.0
C223 C 0.74459 0.99418 0.84679 0.0
N224 N 0.72957 -0.00302 0.81763 0.0
C225 C 0.78041 0.00578 0.79066 0.0
C226 C 0.79639 0.00323 0.82044 0.0
C227 C 0.77839 -0.00262 0.84862 0.0
C228 C 0.74664 0.0027 0.79038 0.0
H229 H 0.73088 0.98942 0.86848 0.0
C230 C 0.65572 0.97267 0.87266 0.0
O231 O 0.63437 0.88042 0.84266 0.0
O232 O 0.68601 0.89286 0.85148 0.0
N233 N 0.69717 -0.0014 0.7637 0.0
C234 C 0.67832 -0.00141 0.73667 0.0
C235 C 0.69275 0.00318 0.70632 0.0
C236 C 0.72636 0.0078 0.70405 0.0
C237 C 0.74524 0.00797 0.7322 0.0
C238 C 0.72947 0.00366 0.76182 0.0
H239 H 0.65249 0.99494 0.73821 0.0
O240 O 0.67535 0.89969 0.78413 0.0
O241 O 0.68881 0.94672 0.80551 0.0
O242 O 0.62107 0.94047 0.79817 0.0
O243 O 0.63786 0.99236 0.79641 0.0
C244 C 0.77917 0.01159 0.73196 0.0
C245 C 0.79674 0.01049 0.76116 0.0
H246 H 0.82249 0.0054 0.82191 0.0
H247 H 0.79058 0.99518 0.87166 0.0
H248 H 0.67801 0.00297 0.6847 0.0
H249 H 0.73744 0.01096 0.68056 0.0
H250 H 0.79204 0.0148 0.7094 0.0
H251 H 0.82286 0.01286 0.76062 0.0
Mn252 Mn 0.33967 0.06883 0.82796 0.0
Mn253 Mn 0.31933 0.99178 0.81158 0.0
C254 C 0.30645 0.05819 0.78477 0.0
C255 C 0.32947 0.11465 0.85841 0.0
C256 C 0.38499 0.02112 0.79608 0.0
O257 O 0.35239 0.04442 0.86821 0.0
O258 O 0.33147 0.99509 0.85823 0.0
C259 C 0.26016 0.98483 0.85126 0.0
N260 N 0.27492 0.98391 0.82188 0.0
C261 C 0.22503 0.96937 0.7956 0.0
C262 C 0.20934 0.96994 0.82561 0.0
C263 C 0.22699 0.97773 0.85355 0.0
C264 C 0.25823 0.97623 0.79486 0.0
H265 H 0.27358 0.99101 0.87278 0.0
C266 C 0.34501 0.01581 0.87699 0.0
O267 O 0.3579 0.10991 0.84579 0.0
O268 O 0.30726 0.09321 0.85298 0.0
N269 N 0.30649 0.98596 0.76753 0.0
C270 C 0.32464 0.98893 0.74023 0.0
C271 C 0.31022 0.98341 0.71001 0.0
C272 C 0.27736 0.97487 0.70818 0.0
C273 C 0.25919 0.9719 0.73661 0.0
C274 C 0.27492 0.97743 0.76606 0.0
H275 H 0.34986 0.99568 0.74145 0.0
O276 O 0.3217 0.08559 0.78681 0.0
O277 O 0.31042 0.03824 0.80883 0.0
O278 O 0.37841 0.05019 0.80404 0.0
O279 O 0.36527 -0.00248 0.79949 0.0
C280 C 0.22591 0.96437 0.73683 0.0
C281 C 0.20885 0.96307 0.7663 0.0
H282 H 0.18369 0.9648 0.82743 0.0
H283 H 0.21502 0.9784 0.87677 0.0
H284 H 0.32438 0.98587 0.68817 0.0
H285 H 0.26626 0.97091 0.68481 0.0
H286 H 0.2131 0.95997 0.71443 0.0
H287 H 0.18318 0.9577 0.76612 0.0
Mn288 Mn 0.16761 0.66217 0.06793 0.0
Mn289 Mn 0.18599 0.67694 0.99031 0.0
C290 C 0.2151 0.68817 0.05562 0.0
C291 C 0.13872 0.67864 0.11278 0.0
C292 C 0.1932 0.61098 0.02224 0.0
O293 O 0.12567 0.65466 0.04456 0.0
O294 O 0.13798 0.67023 0.99399 0.0
C295 C 0.15292 0.74008 0.98217 0.0
N296 N 0.18057 0.72207 0.9814 0.0
C297 C 0.21234 0.76867 0.96679 0.0
C298 C 0.18417 0.78765 0.96717 0.0
C299 C 0.15434 0.77328 0.97491 0.0
C300 C 0.20938 0.73562 0.97385 0.0
H301 H 0.12998 0.72924 0.98841 0.0
C302 C 0.1177 0.66081 0.01556 0.0
O303 O 0.14678 0.64838 0.10916 0.0
O304 O 0.14828 0.69895 0.09092 0.0
N305 N 0.23127 0.68459 0.9838 0.0
C306 C 0.25646 0.66342 0.98657 0.0
C307 C 0.28813 0.67424 0.98067 0.0
C308 C 0.2936 0.70669 0.97204 0.0
C309 C 0.2673 0.72801 0.96927 0.0
C310 C 0.23622 0.71576 0.97506 0.0
H311 H 0.25248 0.63855 0.99355 0.0
O312 O 0.2114 0.67447 0.08362 0.0
O313 O 0.19037 0.68686 0.03619 0.0
O314 O 0.18506 0.61959 0.05065 0.0
O315 O 0.19323 0.63011 -0.00212 0.0
C316 C 0.27079 0.7611 0.96167 0.0
C317 C 0.24333 0.78142 0.96042 0.0
H318 H 0.18521 0.81334 0.96189 0.0
H319 H 0.13252 0.78781 0.97545 0.0
H320 H 0.30832 0.65767 0.98301 0.0
H321 H 0.31811 0.71503 0.96788 0.0
H322 H 0.29454 0.77128 0.95716 0.0
H323 H 0.24638 0.8069 0.95496 0.0
Mn324 Mn 0.15815 0.33686 0.91687 0.0
Mn325 Mn 0.17929 0.30945 0.99005 0.0
C326 C 0.20211 0.30303 0.92138 0.0
C327 C 0.12311 0.3318 0.8738 0.0
C328 C 0.19089 0.37831 0.96639 0.0
O329 O 0.12019 0.3478 0.94569 0.0
O330 O 0.13156 0.31774 0.9897 0.0
C331 C 0.14499 0.24651 0.99126 0.0
N332 N 0.17307 0.26366 0.99331 0.0
C333 C 0.20417 0.21488 0.00071 0.0
C334 C 0.17552 0.19675 -0.00086 0.0
C335 C 0.14581 0.21264 0.99431 0.0
C336 C 0.20181 0.24861 -0.00214 0.0
H337 H 0.12218 0.25855 0.98707 0.0
C338 C 0.11219 0.33488 0.97244 0.0
O339 O 0.13701 0.35936 0.87987 0.0
O340 O 0.13032 0.30725 0.89199 0.0
N341 N 0.22464 0.29991 0.99277 0.0
C342 C 0.25028 0.32065 0.99157 0.0
C343 C 0.28187 0.30843 0.99473 0.0
C344 C 0.2868 0.27506 -0.00084 0.0
C345 C 0.26007 0.2542 0.00055 0.0
C346 C 0.22912 0.26781 -0.00237 0.0
H347 H 0.24673 0.34631 0.98811 0.0
O348 O 0.19786 0.31987 0.89523 0.0
O349 O 0.1796 0.30547 0.94312 0.0
O350 O 0.18392 0.37322 0.93689 0.0
O351 O 0.18748 0.35695 0.9886 0.0
C352 C 0.26297 0.22037 0.00403 0.0
C353 C 0.23505 0.20072 0.0041 0.0
H354 H 0.17609 0.17059 0.00115 0.0
H355 H 0.12363 0.19879 0.99273 0.0
H356 H 0.30238 0.32468 0.9936 0.0
H357 H 0.31123 0.26569 0.00123 0.0
H358 H 0.28661 0.20916 0.00617 0.0
H359 H 0.23763 0.17469 0.00625 0.0
Mn360 Mn 0.82399 0.66728 0.92547 0.0
Mn361 Mn 0.80962 0.68324 0.00362 0.0
C362 C 0.77689 0.69301 0.93975 0.0
C363 C 0.84998 0.6832 0.8787 0.0
C364 C 0.80177 0.61661 0.97365 0.0
O365 O 0.86732 0.66097 0.94661 0.0
O366 O 0.85742 0.67663 -0.00236 0.0
C367 C 0.84249 0.74671 0.00876 0.0
N368 N 0.81507 0.72857 0.01125 0.0
C369 C 0.78359 0.77531 0.02607 0.0
C370 C 0.81155 0.79444 0.02391 0.0
C371 C 0.84112 0.78007 0.01521 0.0
C372 C 0.78652 0.74212 0.01976 0.0
H373 H 0.86522 0.73585 0.00176 0.0
C374 C 0.87668 0.66729 0.97513 0.0
O375 O 0.84276 0.65289 0.88346 0.0
O376 O 0.84124 0.70382 0.90056 0.0
N377 N 0.76467 0.69072 0.01218 0.0
C378 C 0.73958 0.66933 0.01109 0.0
C379 C 0.70809 0.6801 0.01805 0.0
C380 C 0.70272 0.71272 0.02604 0.0
C381 C 0.72892 0.73427 0.0271 0.0
C382 C 0.75982 0.72207 0.02028 0.0
H383 H 0.7435 0.6443 0.00466 0.0
O384 O 0.77918 0.67855 0.91201 0.0
O385 O 0.80267 0.69233 0.95783 0.0
O386 O 0.80832 0.62483 0.94471 0.0
O387 O 0.80253 0.63623 -0.00246 0.0
C388 C 0.72549 0.76751 0.03396 0.0
C389 C 0.7528 0.78802 0.03347 0.0
H390 H 0.81052 0.82024 0.02855 0.0
H391 H 0.86276 0.79471 0.0133 0.0
H392 H 0.68797 0.66335 0.01706 0.0
H393 H 0.67835 0.72101 0.03105 0.0
H394 H 0.70188 0.77765 0.03926 0.0
H395 H 0.74978 0.81361 0.03839 0.0
Mn396 Mn 0.82527 0.32886 0.0655 0.0
Mn397 Mn 0.80415 0.31391 0.98863 0.0
C398 C 0.77745 0.30257 0.05499 0.0
C399 C 0.85596 0.31222 0.10934 0.0
C400 C 0.79888 0.3801 0.02047 0.0
O401 O 0.866 0.33737 0.04025 0.0
O402 O 0.85236 0.31934 0.99072 0.0
C403 C 0.83488 0.24968 0.98015 0.0
N404 N 0.80785 0.26861 0.97981 0.0
C405 C 0.77419 0.22303 0.9663 0.0
C406 C 0.80173 0.20314 0.9661 0.0
C407 C 0.83219 0.21653 0.97311 0.0
C408 C 0.77841 0.25599 0.97308 0.0
H409 H 0.85826 0.25977 0.98597 0.0
C410 C 0.87294 0.33034 0.0112 0.0
O411 O 0.84764 0.34246 0.10609 0.0
O412 O 0.84597 0.2921 0.08755 0.0
N413 N 0.75846 0.30764 0.98366 0.0
C414 C 0.73405 0.32961 0.98708 0.0
C415 C 0.70188 0.31979 0.98215 0.0
C416 C 0.69512 0.28754 0.97378 0.0
C417 C 0.72063 0.2654 0.97025 0.0
C418 C 0.75226 0.27667 0.97507 0.0
H419 H 0.73905 0.35437 0.99375 0.0
O420 O 0.78227 0.31592 0.08296 0.0
O421 O 0.80134 0.30423 0.03465 0.0
O422 O 0.80664 0.37126 0.04896 0.0
O423 O 0.79869 0.36101 -0.00388 0.0
C424 C 0.71587 0.23244 0.96286 0.0
C425 C 0.74262 0.21128 0.96088 0.0
H426 H 0.79971 0.17749 0.96103 0.0
H427 H 0.85352 0.20128 0.9733 0.0
H428 H 0.68231 0.337 0.98502 0.0
H429 H 0.67024 0.27998 0.97037 0.0
H430 H 0.69168 0.22302 0.95911 0.0
H431 H 0.7386 0.18589 0.95565 0.0
H432 H 0.023 0.22676 0.40502 0.0
H433 H 0.92764 0.19392 0.43305 0.0
H434 H 0.03561 0.2383 0.46133 0.0
H435 H 0.94058 0.20434 0.4891 0.0
H436 H 0.06011 0.19189 0.56101 0.0
H437 H 0.0472 0.20199 0.50478 0.0
H438 H 0.9536 0.2398 0.53252 0.0
H439 H 0.96608 0.22854 0.5889 0.0
C440 C 0.00459 0.22241 0.42313 0.0
C441 C 0.97458 0.20879 0.41469 0.0
C442 C 0.01185 0.22894 0.45537 0.0
C443 C 0.98934 0.22171 0.47975 0.0
C444 C 0.95843 0.21048 0.47097 0.0
C445 C 0.95107 0.20425 0.43875 0.0
C446 C 0.03698 0.20284 0.5552 0.0
C447 C 0.01386 0.20878 0.57932 0.0
C448 C 0.02966 0.20894 0.52292 0.0
C449 C -0.00079 0.22143 0.51413 0.0
C450 C 0.97701 0.22956 0.53849 0.0
C451 C 0.98419 0.22313 0.57077 0.0
H452 H 0.97453 0.75609 0.40637 0.0
H453 H 0.06788 0.79436 0.43427 0.0
H454 H 0.96319 0.74285 0.46258 0.0
H455 H 0.05611 0.7824 0.49021 0.0
H456 H 0.93592 0.79441 0.55901 0.0
H457 H 0.94931 0.77989 0.50415 0.0
H458 H 0.04434 0.74852 0.53517 0.0
H459 H 0.03124 0.76425 0.59035 0.0
C460 C 0.99281 0.76122 0.42442 0.0
C461 C 0.0217 0.7771 0.41606 0.0
C462 C 0.98632 0.75364 0.45659 0.0
C463 C 0.0084 0.76225 0.48096 0.0
C464 C 0.03858 0.77525 0.47212 0.0
C465 C 0.04523 0.78244 0.43996 0.0
C466 C 0.95948 0.78387 0.55435 0.0
C467 C 0.98285 0.78137 0.57888 0.0
C468 C 0.96707 0.77514 0.52282 0.0
C469 C -0.00191 0.76341 0.51517 0.0
C470 C 0.02046 0.75813 0.54022 0.0
C471 C 0.01297 0.76718 0.5718 0.0
H472 H 0.41028 0.0247 0.19507 0.0
H473 H 0.42894 0.92562 0.22341 0.0
H474 H 0.46663 0.03796 0.20409 0.0
H475 H 0.48537 0.93925 0.23394 0.0
H476 H 0.5849 0.96348 0.18743 0.0
H477 H 0.52913 0.94921 0.19892 0.0
H478 H 0.51234 0.04533 0.23698 0.0
H479 H 0.56794 0.06001 0.2239 0.0
C480 C 0.42624 0.00594 0.20415 0.0
C481 C 0.41536 0.97395 0.20782 0.0
C482 C 0.45863 0.01361 0.20961 0.0
C483 C 0.48074 0.98954 0.21933 0.0
C484 C 0.46916 0.95816 0.22568 0.0
C485 C 0.43682 0.95037 0.21975 0.0
C486 C 0.56946 0.98136 0.1988 0.0
C487 C 0.58049 0.01304 0.20411 0.0
C488 C 0.53747 0.97312 0.20567 0.0
C489 C 0.51602 0.99629 0.21848 0.0
C490 C 0.52797 0.02717 0.22634 0.0
C491 C 0.55982 0.03557 0.21894 0.0
H492 H 0.58807 0.02924 0.79835 0.0
H493 H 0.57233 0.93363 0.7591 0.0
H494 H 0.53152 0.04233 0.78967 0.0
H495 H 0.51584 0.94724 0.74869 0.0
H496 H 0.41514 0.96251 0.79478 0.0
H497 H 0.47159 0.95178 0.78359 0.0
H498 H 0.48567 0.05237 0.75775 0.0
H499 H 0.42913 0.06341 0.77061 0.0
C500 C 0.5727 0.01136 0.78689 0.0
C501 C 0.58436 0.98018 0.78007 0.0
C502 C 0.54022 0.01894 0.78166 0.0
C503 C 0.51888 0.99563 0.76896 0.0
C504 C 0.53139 0.96544 0.75937 0.0
C505 C 0.56375 0.95766 0.76519 0.0
C506 C 0.43011 0.98227 0.78622 0.0
C507 C 0.41787 0.01393 0.78421 0.0
C508 C 0.46255 0.97606 0.77947 0.0
C509 C 0.48339 0.00129 0.77004 0.0
C510 C 0.47048 0.03253 0.76568 0.0
C511 C 0.43809 0.03885 0.77296 0.0
H512 H 0.19428 0.43128 0.92727 0.0
H513 H 0.21073 0.40034 0.02577 0.0
H514 H 0.20285 0.48686 0.94293 0.0
H515 H 0.22063 0.45648 0.04133 0.0
H516 H 0.17813 0.55926 0.06032 0.0
H517 H 0.18628 0.50232 0.04826 0.0
H518 H 0.23753 0.52832 0.96097 0.0
H519 H 0.22796 0.58537 0.97231 0.0
C520 C 0.20045 0.43622 0.9522 0.0
C521 C 0.20119 0.41135 0.9754 0.0
C522 C 0.20571 0.46824 0.96115 0.0
C523 C 0.21221 0.47623 0.99347 0.0
C524 C 0.21507 0.45116 0.01634 0.0
C525 C 0.20951 0.419 0.0074 0.0
C526 C 0.19151 0.55284 0.03876 0.0
C527 C 0.20187 0.57676 0.01695 0.0
C528 C 0.19647 0.52015 0.03199 0.0
C529 C 0.21228 0.51071 0.00346 0.0
C530 C 0.2246 0.53477 0.98279 0.0
C531 C 0.21918 0.56746 0.9893 0.0
H532 H 0.77668 0.59015 0.02887 0.0
H533 H 0.8093 0.56538 0.93279 0.0
H534 H 0.76821 0.53292 0.04058 0.0
H535 H 0.80181 0.50841 0.94484 0.0
H536 H 0.80954 0.43058 0.06158 0.0
H537 H 0.80367 0.48791 0.05019 0.0
H538 H 0.76452 0.4654 0.95602 0.0
H539 H 0.77135 0.40781 0.96702 0.0
C540 C 0.78193 0.57254 0.01022 0.0
C541 C 0.79403 0.5823 0.98003 0.0
C542 C 0.77713 0.53977 0.01696 0.0
C543 C 0.78454 0.51611 0.99373 0.0
C544 C 0.79541 0.526 0.96313 0.0
C545 C 0.79997 0.55872 0.95631 0.0
C546 C 0.79926 0.43777 0.0386 0.0
C547 C 0.79139 0.41464 0.01501 0.0
C548 C 0.79567 0.47071 0.03215 0.0
C549 C 0.78386 0.48123 0.00209 0.0
C550 C 0.77427 0.45804 0.97918 0.0
C551 C 0.77811 0.42506 0.98552 0.0
H552 H 0.1334 0.13828 0.74035 0.0
H553 H 0.16078 0.11511 0.64239 0.0
H554 H 0.17834 0.10706 0.76063 0.0
H555 H 0.20612 0.08244 0.66302 0.0
H556 H 0.3058 0.07448 0.72138 0.0
H557 H 0.25771 0.08995 0.6906 0.0
H558 H 0.19713 0.05349 0.76756 0.0
H559 H 0.24505 0.04159 0.79935 0.0
C560 C 0.14895 0.12619 0.72308 0.0
C561 C 0.14359 0.12913 0.68978 0.0
C562 C 0.17456 0.10781 0.73476 0.0
C563 C 0.19542 0.09146 0.7135 0.0
C564 C 0.19035 0.0946 0.68001 0.0
C565 C 0.16458 0.11337 0.66822 0.0
C566 C 0.28209 0.06883 0.73107 0.0
C567 C 0.27901 0.05622 0.76239 0.0
C568 C 0.25456 0.07754 0.71342 0.0
C569 C 0.2236 0.07367 0.72697 0.0
C570 C 0.22067 0.05754 0.75677 0.0
C571 C 0.24812 0.04984 0.77472 0.0
H572 H 0.68962 0.92194 0.71656 0.0
H573 H 0.75511 0.93073 0.79712 0.0
H574 H 0.73579 0.91651 0.67972 0.0
H575 H 0.80101 0.92429 0.76122 0.0
H576 H 0.82242 0.85074 0.64515 0.0
H577 H 0.77404 0.87493 0.66882 0.0
H578 H 0.83393 0.94419 0.71956 0.0
H579 H 0.88217 0.9184 0.69746 0.0
C580 C 0.714 0.9233 0.72614 0.0
C581 C 0.71917 0.92758 0.7593 0.0
C582 C 0.74036 0.92004 0.70522 0.0
C583 C 0.77219 0.9201 0.7174 0.0
C584 C 0.77701 0.92499 0.7507 0.0
C585 C 0.75076 0.92855 0.7714 0.0
C586 C 0.82501 0.87166 0.6607 0.0
C587 C 0.85575 0.8824 0.67013 0.0
C588 C 0.79733 0.88569 0.67419 0.0
C589 C 0.80015 0.91103 0.69679 0.0
C590 C 0.83097 0.92403 0.70311 0.0
C591 C 0.85855 0.90946 0.69033 0.0
H592 H 0.24354 0.92809 0.1901 0.0
H593 H 0.30822 0.91911 0.27131 0.0
H594 H 0.19729 0.92154 0.2255 0.0
H595 H 0.26174 0.9139 0.30769 0.0
H596 H 0.17654 0.84816 0.34319 0.0
H597 H 0.22436 0.87257 0.31885 0.0
H598 H 0.16311 0.93952 0.26632 0.0
H599 H 0.11541 0.91334 0.28906 0.0
C600 C 0.24763 0.9259 0.21586 0.0
C601 C 0.27911 0.92472 0.22826 0.0
C602 C 0.22116 0.92229 0.2363 0.0
C603 C 0.22565 0.91721 0.26964 0.0
C604 C 0.25737 0.91736 0.28214 0.0
C605 C 0.28393 0.92055 0.26148 0.0
C606 C 0.1735 0.86854 0.32696 0.0
C607 C 0.14253 0.8785 0.31736 0.0
C608 C 0.20088 0.88275 0.31312 0.0
C609 C 0.19762 0.9076 0.28998 0.0
C610 C 0.1665 0.91972 0.28318 0.0
C611 C 0.13919 0.90492 0.29631 0.0
H612 H 0.74976 0.06504 0.18685 0.0
H613 H 0.68376 0.07239 0.26704 0.0
H614 H 0.79538 0.07221 0.22305 0.0
H615 H 0.72965 0.07857 0.30417 0.0
H616 H 0.81506 0.14475 0.34042 0.0
H617 H 0.7672 0.12074 0.31548 0.0
H618 H 0.8283 0.05239 0.26492 0.0
H619 H 0.87601 0.07795 0.28833 0.0
C620 C 0.74525 0.06706 0.21255 0.0
C621 C 0.7136 0.06739 0.22447 0.0
C622 C 0.77134 0.07106 0.23341 0.0
C623 C 0.76627 0.07576 0.2667 0.0
C624 C 0.7344 0.07521 0.27869 0.0
C625 C 0.7082 0.0715 0.2576 0.0
C626 C 0.81802 0.12412 0.32455 0.0
C627 C 0.84898 0.11354 0.31564 0.0
C628 C 0.79065 0.11019 0.31036 0.0
C629 C 0.79396 0.08509 0.28757 0.0
C630 C 0.82496 0.07236 0.28154 0.0
C631 C 0.85225 0.08682 0.29505 0.0
H632 H 0.6776 0.12162 0.06632 0.0
H633 H 0.64294 0.18416 0.14205 0.0
H634 H 0.69742 0.16854 0.03642 0.0
H635 H 0.6646 0.2311 0.11353 0.0
H636 H 0.71291 0.3119 0.06442 0.0
H637 H 0.67203 0.26939 0.07131 0.0
H638 H 0.74469 0.19715 0.04915 0.0
H639 H 0.78452 0.23944 0.0418 0.0
C640 C 0.67359 0.14564 0.07609 0.0
C641 C 0.65921 0.14959 0.10645 0.0
C642 C 0.68509 0.17246 0.05916 0.0
C643 C 0.68352 0.20352 0.07298 0.0
C644 C 0.66618 0.20763 0.10201 0.0
C645 C 0.65387 0.18078 0.11852 0.0
C646 C 0.71951 0.28689 0.05998 0.0
C647 C 0.75144 0.27875 0.05189 0.0
C648 C 0.69629 0.26259 0.06407 0.0
C649 C 0.70498 0.22977 0.06094 0.0
C650 C 0.73671 0.22205 0.05112 0.0
C651 C 0.7597 0.24628 0.04691 0.0
H652 H 0.27991 0.67966 0.06387 0.0
H653 H 0.20698 0.7513 0.04261 0.0
H654 H 0.32004 0.72268 0.07145 0.0
H655 H 0.24602 0.7941 0.0508 0.0
H656 H 0.31189 0.87044 0.07118 0.0
H657 H 0.29226 0.8244 0.03995 0.0
H658 H 0.32717 0.75949 0.11441 0.0
H659 H 0.34872 0.80565 0.14418 0.0
C660 C 0.27286 0.70462 0.05983 0.0
C661 C 0.24073 0.71236 0.05206 0.0
C662 C 0.29565 0.72924 0.06437 0.0
C663 C 0.28633 0.76197 0.06207 0.0
C664 C 0.25449 0.76932 0.05223 0.0
C665 C 0.23193 0.74477 0.0475 0.0
C666 C 0.31627 0.84614 0.08013 0.0
C667 C 0.3313 0.84128 0.11009 0.0
C668 C 0.30489 0.8198 0.06243 0.0
C669 C 0.30723 0.78824 0.07505 0.0
C670 C 0.32501 0.78335 0.10375 0.0
C671 C 0.33723 0.80975 0.121 0.0
H672 H 0.71173 0.68585 0.93301 0.0
H673 H 0.78656 0.75619 0.95122 0.0
H674 H 0.67275 0.72969 0.92371 0.0
H675 H 0.74862 0.79969 0.94164 0.0
H676 H 0.68492 0.87701 0.91768 0.0
H677 H 0.70298 0.83169 0.95098 0.0
H678 H 0.66729 0.76493 0.87878 0.0
H679 H 0.64737 0.8105 0.84682 0.0
C680 C 0.71942 0.71073 0.93618 0.0
C681 C 0.75181 0.71784 0.94345 0.0
C682 C 0.69729 0.7358 0.93063 0.0
C683 C 0.7075 0.76832 0.93155 0.0
C684 C 0.73948 0.77513 0.94121 0.0
C685 C 0.76141 0.75015 0.94684 0.0
C686 C 0.68005 0.85252 0.90963 0.0
C687 C 0.66529 0.84694 0.87968 0.0
C688 C 0.6905 0.82658 0.92855 0.0
C689 C 0.68746 0.79463 0.91721 0.0
C690 C 0.66996 0.78912 0.88847 0.0
C691 C 0.65869 0.81517 0.86996 0.0
H692 H 0.29578 0.11683 0.91407 0.0
H693 H 0.34439 0.17727 0.84436 0.0
H694 H 0.27142 0.16458 0.93869 0.0
H695 H 0.31839 0.2251 0.86742 0.0
H696 H 0.26741 0.30838 0.91452 0.0
H697 H 0.30625 0.2638 0.90823 0.0
H698 H 0.22781 0.19511 0.91878 0.0
H699 H 0.18996 0.23946 0.92608 0.0
C700 C 0.30164 0.14054 0.90445 0.0
C701 C 0.32151 0.14361 0.87721 0.0
C702 C 0.28753 0.16783 0.91832 0.0
C703 C 0.29213 0.19859 0.90444 0.0
C704 C 0.31435 0.20185 0.87883 0.0
C705 C 0.32919 0.1745 0.86549 0.0
C706 C 0.25895 0.2836 0.91622 0.0
C707 C 0.22612 0.27701 0.92162 0.0
C708 C 0.28101 0.25814 0.91247 0.0
C709 C 0.27028 0.22579 0.91321 0.0
C710 C 0.23726 0.21956 0.91896 0.0
C711 C 0.21545 0.24492 0.923 0.0
H712 H 0.03502 0.80053 0.24322 0.0
H713 H 0.07182 0.72215 0.30149 0.0
H714 H 0.04251 0.76822 0.19483 0.0
H715 H 0.08287 0.6909 0.25285 0.0
H716 H 0.1062 0.64255 0.15826 0.0
H717 H 0.073 0.66325 0.20282 0.0
H718 H 0.09401 0.76124 0.17218 0.0
H719 H 0.12566 0.74082 0.12791 0.0
C720 C 0.04325 0.77575 0.24574 0.0
C721 C 0.0521 0.76342 0.27597 0.0
C722 C 0.04831 0.75746 0.21799 0.0
C723 C 0.06431 0.7274 0.21987 0.0
C724 C 0.07047 0.71389 0.25044 0.0
C725 C 0.06437 0.73184 0.27831 0.0
C726 C 0.10338 0.66847 0.16112 0.0
C727 C 0.11866 0.69008 0.13981 0.0
C728 C 0.08431 0.68031 0.18647 0.0
C729 C 0.08041 0.7139 0.19086 0.0
C730 C 0.09548 0.73523 0.1691 0.0
C731 C 0.11417 0.72349 0.14388 0.0
H732 H 0.03852 0.20507 0.75306 0.0
H733 H 0.05245 0.28309 0.68531 0.0
H734 H 0.04388 0.2424 0.79756 0.0
H735 H 0.05685 0.32154 0.73008 0.0
H736 H 0.13099 0.35025 0.81142 0.0
H737 H 0.10015 0.33014 0.76552 0.0
H738 H 0.03163 0.28555 0.83097 0.0
H739 H 0.06426 0.30371 0.87659 0.0
C740 C 0.04108 0.23066 0.7478 0.0
C741 C 0.04464 0.24144 0.71599 0.0
C742 C 0.04413 0.25227 0.77334 0.0
C743 C 0.05122 0.28515 0.76756 0.0
C744 C 0.05202 0.29632 0.73544 0.0
C745 C 0.04928 0.27448 0.70982 0.0
C746 C 0.10884 0.33688 0.81579 0.0
C747 C 0.10022 0.32775 0.84715 0.0
C748 C 0.09091 0.32551 0.78954 0.0
C749 C 0.06374 0.3054 0.79447 0.0
C750 C 0.05301 0.29998 0.82624 0.0
C751 C 0.07151 0.31047 0.85236 0.0
H752 H 0.8585 0.74508 0.85982 0.0
H753 H 0.88417 0.64677 0.83474 0.0
H754 H 0.89066 0.76523 0.81565 0.0
H755 H 0.91763 0.66729 0.79016 0.0
H756 H 0.92419 0.72517 0.68998 0.0
H757 H 0.90933 0.69436 0.73811 0.0
H758 H 0.94501 0.77225 0.79805 0.0
H759 H 0.95656 0.80398 0.75004 0.0
C760 C 0.87132 0.72772 0.84495 0.0
C761 C 0.86879 0.69435 0.85068 0.0
C762 C 0.89023 0.73932 0.81983 0.0
C763 C 0.90743 0.71791 0.79984 0.0
C764 C 0.9048 0.68437 0.80532 0.0
C765 C 0.88557 0.67264 0.83063 0.0
C766 C 0.92983 0.73505 0.71355 0.0
C767 C 0.94206 0.7666 0.71648 0.0
C768 C 0.92151 0.71739 0.74109 0.0
C769 C 0.92533 0.73121 0.77184 0.0
C770 C 0.94111 0.76126 0.77463 0.0
C771 C 0.94849 0.7792 0.74716 0.0
H772 H 0.95696 0.18863 0.24141 0.0
H773 H 0.9226 0.26843 0.29896 0.0
H774 H 0.9497 0.22053 0.19268 0.0
H775 H 0.91146 0.29929 0.24998 0.0
H776 H 0.88873 0.34774 0.15516 0.0
H777 H 0.92115 0.32647 0.20012 0.0
H778 H 0.89943 0.22886 0.16892 0.0
H779 H 0.86875 0.24986 0.12418 0.0
C780 C 0.94931 0.21361 0.24369 0.0
C781 C 0.94124 0.22648 0.27387 0.0
C782 C 0.94426 0.23166 0.21571 0.0
C783 C 0.92895 0.2621 0.21728 0.0
C784 C 0.92336 0.27602 0.24775 0.0
C785 C 0.92953 0.2583 0.27584 0.0
C786 C 0.8913 0.32178 0.15794 0.0
C787 C 0.87609 0.30046 0.13631 0.0
C788 C 0.90987 0.30959 0.18358 0.0
C789 C 0.91331 0.27593 0.18803 0.0
C790 C 0.89836 0.2549 0.1659 0.0
C791 C 0.88022 0.26698 0.14035 0.0
H792 H 0.96317 0.08421 0.66416 0.0
H793 H 0.06357 0.07436 0.63589 0.0
H794 H 0.95606 0.02581 0.65776 0.0
H795 H 0.05622 0.01644 0.62938 0.0
H796 H 0.03801 0.91142 0.66692 0.0
H797 H 0.04671 0.96987 0.66608 0.0
H798 H 0.95625 0.98301 0.61533 0.0
H799 H 0.94735 0.92486 0.61616 0.0
C800 C 0.98358 0.06975 0.6563 0.0
C801 C 0.01392 0.08406 0.65071 0.0
C802 C 0.97949 0.03633 0.65251 0.0
C803 C 0.00567 0.0166 0.64319 0.0
C804 C 0.03575 0.03097 0.63698 0.0
C805 C 0.03982 0.06427 0.6406 0.0
C806 C 0.02027 0.92668 0.65503 0.0
C807 C 0.99187 0.91337 0.64187 0.0
C808 C 0.02524 0.96017 0.65458 0.0
C809 C 0.00189 0.98099 0.64102 0.0
C810 C 0.97433 0.96759 0.62649 0.0
C811 C 0.96941 0.93419 0.62679 0.0
H812 H 0.93484 0.06875 0.37446 0.0
H813 H 0.03157 0.0798 0.33586 0.0
H814 H 0.94394 0.01097 0.38091 0.0
H815 H 0.04045 0.02169 0.34235 0.0
H816 H 0.05459 0.91999 0.37937 0.0
H817 H 0.04493 0.97787 0.38383 0.0
H818 H 0.9501 0.96554 0.34161 0.0
H819 H 0.95957 0.90737 0.33709 0.0
C820 C 0.95821 0.059 0.36766 0.0
C821 C 0.98244 0.079 0.35435 0.0
C822 C 0.96328 0.02581 0.37126 0.0
C823 C 0.99274 0.01183 0.36189 0.0
C824 C 0.01754 0.0319 0.34999 0.0
C825 C 0.01243 0.06518 0.3462 0.0
C826 C 0.03143 0.92942 0.3714 0.0
C827 C 0.00795 0.90897 0.35752 0.0
C828 C 0.02605 0.96266 0.37384 0.0
C829 C -0.00302 0.97622 0.36271 0.0
C830 C 0.97272 0.95568 0.35053 0.0
C831 C 0.97815 0.92235 0.34792 0.0
H832 H 0.62935 0.93492 0.92002 0.0
H833 H 0.67158 0.0294 0.90345 0.0
H834 H 0.6254 0.94668 0.97734 0.0
H835 H 0.66762 0.04096 0.96115 0.0
H836 H 0.62746 0.06065 0.06201 0.0
H837 H 0.62568 0.04911 0.00447 0.0
H838 H 0.6657 0.95407 0.02214 0.0
H839 H 0.66748 0.96539 0.07995 0.0
C840 C 0.63751 0.95836 0.92847 0.0
C841 C 0.65083 0.98125 0.90702 0.0
C842 C 0.63543 0.96493 0.96141 0.0
C843 C 0.64635 0.99461 0.97368 0.0
C844 C 0.6588 0.01793 0.95225 0.0
C845 C 0.66115 0.01127 0.91924 0.0
C846 C 0.63554 0.03708 0.0538 0.0
C847 C 0.64763 0.0139 0.0757 0.0
C848 C 0.63473 0.03065 0.02076 0.0
C849 C 0.6457 0.00082 0.00886 0.0
C850 C 0.65687 0.97723 0.03072 0.0
C851 C 0.65796 0.98374 0.06381 0.0
H852 H 0.32798 0.02398 0.08346 0.0
H853 H 0.37101 0.92966 0.06794 0.0
H854 H 0.33164 0.03499 0.02567 0.0
H855 H 0.37472 0.94091 0.01045 0.0
H856 H 0.33154 0.95839 0.90777 0.0
H857 H 0.33465 0.9473 0.9656 0.0
H858 H 0.37254 0.04333 0.98205 0.0
H859 H 0.36942 0.05463 0.92456 0.0
C860 C 0.33857 0.00578 0.06788 0.0
C861 C 0.34912 0.97593 0.08043 0.0
C862 C 0.34075 0.01213 0.03479 0.0
C863 C 0.35331 0.9887 0.01359 0.0
C864 C 0.36458 0.95923 0.02619 0.0
C865 C 0.36263 0.95295 0.05922 0.0
C866 C 0.34093 0.977 0.92363 0.0
C867 C 0.35008 0.00743 0.91142 0.0
C868 C 0.34277 0.97062 0.95675 0.0
C869 C 0.35362 0.99458 0.9783 0.0
C870 C 0.36367 0.02459 0.96604 0.0
C871 C 0.36204 0.03092 0.933 0.0
H872 H 0.92389 0.64867 0.93291 0.0
H873 H 0.90969 0.68049 0.03141 0.0
H874 H 0.98184 0.64607 0.94187 0.0
H875 H 0.96821 0.67814 0.04015 0.0
H876 H 0.06953 0.63621 0.05332 0.0
H877 H 0.01164 0.63735 0.0436 0.0
H878 H 0.02787 0.68281 0.95105 0.0
H879 H 0.08631 0.68152 0.96059 0.0
C880 C 0.93304 0.65512 0.95656 0.0
C881 C 0.91195 0.66475 0.98152 0.0
C882 C 0.9664 0.65382 0.96154 0.0
C883 C 0.97962 0.66201 0.99162 0.0
C884 C 0.95866 0.67139 0.01674 0.0
C885 C 0.92515 0.6728 0.01174 0.0
C886 C 0.06094 0.64633 0.03074 0.0
C887 C 0.08271 0.65889 0.00773 0.0
C888 C 0.02764 0.64718 0.02534 0.0
C889 C 0.01516 0.66049 -0.00323 0.0
C890 C 0.03683 0.67225 0.97329 0.0
C891 C 0.0703 0.67148 0.97872 0.0
H892 H 0.07616 0.29062 0.00588 0.0
H893 H 0.0702 0.38379 0.95853 0.0
H894 H 0.01725 0.29059 0.01271 0.0
H895 H 0.01148 0.38402 0.96631 0.0
H896 H 0.91382 0.37823 0.0292 0.0
H897 H 0.97235 0.38084 0.02054 0.0
H898 H 0.96817 0.29228 0.96548 0.0
H899 H 0.90925 0.29009 0.9733 0.0
C900 C 0.0624 0.31133 -0.00248 0.0
C901 C 0.07775 0.33717 0.98161 0.0
C902 C 0.02875 0.31112 0.00112 0.0
C903 C 0.01008 0.33711 0.9896 0.0
C904 C 0.02549 0.36366 0.97517 0.0
C905 C 0.05901 0.36354 0.97088 0.0
C906 C 0.92535 0.35962 0.01477 0.0
C907 C 0.90713 0.33396 0.00186 0.0
C908 C 0.95872 0.36112 0.00991 0.0
C909 C 0.97453 0.33658 0.99271 0.0
C910 C 0.95633 0.3113 0.97908 0.0
C911 C 0.92273 0.31022 0.98327 0.0
loop_
_geom_bond_atom_site_label_1
_geom_bond_atom_site_label_2
_geom_bond_distance
_geom_bond_site_symmetry_2
_ccdc_geom_bond_type
Mn0 O5 2.095 . S
Mn0 O15 2.162 . S
Mn0 O16 2.297 . S
Mn0 O24 2.385 . S
Mn0 O25 2.209 . S
Mn0 O26 2.094 . S
Mn1 O6 2.121 . S
Mn1 N8 2.257 1_455 S
Mn1 N17 2.282 . S
Mn1 O25 2.215 . S
Mn1 O27 2.117 . S
C2 O24 1.234 . S
C2 O25 1.283 . S
C3 O15 1.281 . S
C3 O16 1.236 . S
C4 O26 1.240 . S
C4 O27 1.264 . S
O5 Mn0 2.095 . S
O5 C14 1.250 . S
O6 Mn1 2.121 . S
O6 C14 1.258 . S
C7 N8 1.326 . S
C7 C11 1.460 . S
C7 H13 0.929 . S
N8 Mn1 2.257 1_655 S
N8 C7 1.326 . S
N8 C12 1.362 . S
C9 C10 1.258 . S
C9 C12 1.431 . S
C9 C29 1.449 . S
C10 C9 1.258 . S
C10 C11 1.477 . S
C10 H30 0.931 . S
C11 C7 1.460 . S
C11 C10 1.477 . S
C11 H31 0.930 . S
C12 N8 1.362 . S
C12 C9 1.431 . S
C12 C22 1.476 . S
H13 C7 0.929 . S
C14 O5 1.250 . S
C14 O6 1.258 . S
O15 Mn0 2.162 . S
O15 C3 1.281 . S
O16 Mn0 2.297 . S
O16 C3 1.236 . S
N17 Mn1 2.282 . S
N17 C18 1.328 . S
N17 C22 1.318 1_455 S
C18 N17 1.328 . S
C18 C19 1.457 . S
C18 H23 0.929 . S
C19 C18 1.457 . S
C19 C20 1.291 1_455 S
C19 H32 0.931 . S
C20 C19 1.291 1_655 S
C20 C21 1.373 . S
C20 H33 0.929 . S
C21 C20 1.373 . S
C21 C22 1.396 . S
C21 C28 1.403 . S
C22 C12 1.476 . S
C22 N17 1.318 1_655 S
C22 C21 1.396 . S
H23 C18 0.929 . S
O24 Mn0 2.385 . S
O24 C2 1.234 . S
O25 Mn0 2.209 . S
O25 Mn1 2.215 . S
O25 C2 1.283 . S
O26 Mn0 2.094 . S
O26 C4 1.240 . S
O27 Mn1 2.117 . S
O27 C4 1.264 . S
C28 C21 1.403 . S
C28 C29 1.399 . S
C28 H34 0.929 . S
C29 C9 1.449 . S
C29 C28 1.399 . S
C29 H35 0.930 . S
H30 C10 0.931 . S
H31 C11 0.930 . S
H32 C19 0.931 . S
H33 C20 0.929 . S
H34 C28 0.929 . S
H35 C29 0.930 . S
Mn36 O41 2.095 . S
Mn36 O51 2.162 . S
Mn36 O52 2.297 . S
Mn36 O60 2.385 . S
Mn36 O61 2.209 . S
Mn36 O62 2.094 . S
Mn37 O42 2.121 . S
Mn37 N44 2.257 1_655 S
Mn37 N53 2.282 . S
Mn37 O61 2.215 . S
Mn37 O63 2.117 . S
C38 O60 1.234 . S
C38 O61 1.283 . S
C39 O51 1.281 . S
C39 O52 1.236 . S
C40 O62 1.240 . S
C40 O63 1.264 . S
O41 Mn36 2.095 . S
O41 C50 1.250 . S
O42 Mn37 2.121 . S
O42 C50 1.258 . S
C43 N44 1.326 . S
C43 C47 1.460 . S
C43 H49 0.929 . S
N44 Mn37 2.257 1_455 S
N44 C43 1.326 . S
N44 C48 1.362 . S
C45 C46 1.258 . S
C45 C48 1.431 . S
C45 C65 1.449 . S
C46 C45 1.258 . S
C46 C47 1.477 . S
C46 H66 0.931 . S
C47 C43 1.460 . S
C47 C46 1.477 . S
C47 H67 0.930 . S
C48 N44 1.362 . S
C48 C45 1.431 . S
C48 C58 1.476 . S
H49 C43 0.929 . S
C50 O41 1.250 . S
C50 O42 1.258 . S
O51 Mn36 2.162 . S
O51 C39 1.281 . S
O52 Mn36 2.297 . S
O52 C39 1.236 . S
N53 Mn37 2.282 . S
N53 C54 1.328 . S
N53 C58 1.318 1_655 S
C54 N53 1.328 . S
C54 C55 1.457 . S
C54 H59 0.929 . S
C55 C54 1.457 . S
C55 C56 1.291 1_655 S
C55 H68 0.931 . S
C56 C55 1.291 1_455 S
C56 C57 1.373 . S
C56 H69 0.929 . S
C57 C56 1.373 . S
C57 C58 1.396 . S
C57 C64 1.403 . S
C58 C48 1.476 . S
C58 N53 1.318 1_455 S
C58 C57 1.396 . S
H59 C54 0.929 . S
O60 Mn36 2.385 . S
O60 C38 1.234 . S
O61 Mn36 2.209 . S
O61 Mn37 2.215 . S
O61 C38 1.283 . S
O62 Mn36 2.094 . S
O62 C40 1.240 . S
O63 Mn37 2.117 . S
O63 C40 1.264 . S
C64 C57 1.403 . S
C64 C65 1.399 . S
C64 H70 0.929 . S
C65 C45 1.449 . S
C65 C64 1.399 . S
C65 H71 0.930 . S
H66 C46 0.931 . S
H67 C47 0.930 . S
H68 C55 0.931 . S
H69 C56 0.929 . S
H70 C64 0.929 . S
H71 C65 0.930 . S
Mn72 O77 2.095 . S
Mn72 O87 2.162 . S
Mn72 O88 2.297 . S
Mn72 O96 2.385 . S
Mn72 O97 2.209 . S
Mn72 O98 2.094 . S
Mn73 O78 2.121 . S
Mn73 N80 2.257 1_455 S
Mn73 N89 2.282 . S
Mn73 O97 2.215 . S
Mn73 O99 2.117 . S
C74 O96 1.234 . S
C74 O97 1.283 . S
C75 O87 1.281 . S
C75 O88 1.236 . S
C76 O98 1.240 . S
C76 O99 1.264 . S
O77 Mn72 2.095 . S
O77 C86 1.250 . S
O78 Mn73 2.121 . S
O78 C86 1.258 . S
C79 N80 1.326 . S
C79 C83 1.460 . S
C79 H85 0.929 . S
N80 Mn73 2.257 1_655 S
N80 C79 1.326 . S
N80 C84 1.362 . S
C81 C82 1.258 . S
C81 C84 1.431 . S
C81 C101 1.449 . S
C82 C81 1.258 . S
C82 C83 1.477 . S
C82 H102 0.931 . S
C83 C79 1.460 . S
C83 C82 1.477 . S
C83 H103 0.930 . S
C84 N80 1.362 . S
C84 C81 1.431 . S
C84 C94 1.476 . S
H85 C79 0.929 . S
C86 O77 1.250 . S
C86 O78 1.258 . S
O87 Mn72 2.162 . S
O87 C75 1.281 . S
O88 Mn72 2.297 . S
O88 C75 1.236 . S
N89 Mn73 2.282 . S
N89 C90 1.328 . S
N89 C94 1.318 1_455 S
C90 N89 1.328 . S
C90 C91 1.457 . S
C90 H95 0.929 . S
C91 C90 1.457 . S
C91 C92 1.291 1_455 S
C91 H104 0.931 . S
C92 C91 1.291 1_655 S
C92 C93 1.373 . S
C92 H105 0.929 . S
C93 C92 1.373 . S
C93 C94 1.396 . S
C93 C100 1.403 . S
C94 C84 1.476 . S
C94 N89 1.318 1_655 S
C94 C93 1.396 . S
H95 C90 0.929 . S
O96 Mn72 2.385 . S
O96 C74 1.234 . S
O97 Mn72 2.209 . S
O97 Mn73 2.215 . S
O97 C74 1.283 . S
O98 Mn72 2.094 . S
O98 C76 1.240 . S
O99 Mn73 2.117 . S
O99 C76 1.264 . S
C100 C93 1.403 . S
C100 C101 1.399 . S
C100 H106 0.929 . S
C101 C81 1.449 . S
C101 C100 1.399 . S
C101 H107 0.930 . S
H102 C82 0.931 . S
H103 C83 0.930 . S
H104 C91 0.931 . S
H105 C92 0.929 . S
H106 C100 0.929 . S
H107 C101 0.930 . S
Mn108 O113 2.095 . S
Mn108 O123 2.162 . S
Mn108 O124 2.297 . S
Mn108 O132 2.385 . S
Mn108 O133 2.209 . S
Mn108 O134 2.094 . S
Mn109 O114 2.121 . S
Mn109 N116 2.257 1_655 S
Mn109 N125 2.282 . S
Mn109 O133 2.215 . S
Mn109 O135 2.117 . S
C110 O132 1.234 . S
C110 O133 1.283 . S
C111 O123 1.281 . S
C111 O124 1.236 . S
C112 O134 1.240 . S
C112 O135 1.264 . S
O113 Mn108 2.095 . S
O113 C122 1.250 . S
O114 Mn109 2.121 . S
O114 C122 1.258 . S
C115 N116 1.326 . S
C115 C119 1.460 . S
C115 H121 0.929 . S
N116 Mn109 2.257 1_455 S
N116 C115 1.326 . S
N116 C120 1.362 . S
C117 C118 1.258 . S
C117 C120 1.431 . S
C117 C137 1.449 . S
C118 C117 1.258 . S
C118 C119 1.477 . S
C118 H138 0.931 . S
C119 C115 1.460 . S
C119 C118 1.477 . S
C119 H139 0.930 . S
C120 N116 1.362 . S
C120 C117 1.431 . S
C120 C130 1.476 . S
H121 C115 0.929 . S
C122 O113 1.250 . S
C122 O114 1.258 . S
O123 Mn108 2.162 . S
O123 C111 1.281 . S
O124 Mn108 2.297 . S
O124 C111 1.236 . S
N125 Mn109 2.282 . S
N125 C126 1.328 . S
N125 C130 1.318 1_655 S
C126 N125 1.328 . S
C126 C127 1.457 . S
C126 H131 0.929 . S
C127 C126 1.457 . S
C127 C128 1.291 1_655 S
C127 H140 0.931 . S
C128 C127 1.291 1_455 S
C128 C129 1.373 . S
C128 H141 0.929 . S
C129 C128 1.373 . S
C129 C130 1.396 . S
C129 C136 1.403 . S
C130 C120 1.476 . S
C130 N125 1.318 1_455 S
C130 C129 1.396 . S
H131 C126 0.929 . S
O132 Mn108 2.385 . S
O132 C110 1.234 . S
O133 Mn108 2.209 . S
O133 Mn109 2.215 . S
O133 C110 1.283 . S
O134 Mn108 2.094 . S
O134 C112 1.240 . S
O135 Mn109 2.117 . S
O135 C112 1.264 . S
C136 C129 1.403 . S
C136 C137 1.399 . S
C136 H142 0.929 . S
C137 C117 1.449 . S
C137 C136 1.399 . S
C137 H143 0.930 . S
H138 C118 0.931 . S
H139 C119 0.930 . S
H140 C127 0.931 . S
H141 C128 0.929 . S
H142 C136 0.929 . S
H143 C137 0.930 . S
Mn144 O149 2.095 . S
Mn144 O159 2.162 . S
Mn144 O160 2.297 . S
Mn144 O168 2.385 . S
Mn144 O169 2.209 . S
Mn144 O170 2.094 . S
Mn145 O150 2.121 . S
Mn145 N152 2.257 1_545 S
Mn145 N161 2.282 . S
Mn145 O169 2.215 . S
Mn145 O171 2.117 . S
C146 O168 1.234 . S
C146 O169 1.283 . S
C147 O159 1.281 . S
C147 O160 1.236 . S
C148 O170 1.240 . S
C148 O171 1.264 . S
O149 Mn144 2.095 . S
O149 C158 1.250 . S
O150 Mn145 2.121 . S
O150 C158 1.258 . S
C151 N152 1.326 . S
C151 C155 1.460 . S
C151 H157 0.929 . S
N152 Mn145 2.257 1_565 S
N152 C151 1.326 . S
N152 C156 1.362 . S
C153 C154 1.258 . S
C153 C156 1.431 . S
C153 C173 1.449 . S
C154 C153 1.258 . S
C154 C155 1.477 . S
C154 H174 0.931 . S
C155 C151 1.460 . S
C155 C154 1.477 . S
C155 H175 0.930 . S
C156 N152 1.362 . S
C156 C153 1.431 . S
C156 C166 1.476 . S
H157 C151 0.929 . S
C158 O149 1.250 . S
C158 O150 1.258 . S
O159 Mn144 2.162 . S
O159 C147 1.281 . S
O160 Mn144 2.297 . S
O160 C147 1.236 . S
N161 Mn145 2.282 . S
N161 C162 1.328 . S
N161 C166 1.318 1_545 S
C162 N161 1.328 . S
C162 C163 1.457 . S
C162 H167 0.929 . S
C163 C162 1.457 . S
C163 C164 1.291 1_545 S
C163 H176 0.931 . S
C164 C163 1.291 1_565 S
C164 C165 1.373 . S
C164 H177 0.929 . S
C165 C164 1.373 . S
C165 C166 1.396 . S
C165 C172 1.403 . S
C166 C156 1.476 . S
C166 N161 1.318 1_565 S
C166 C165 1.396 . S
H167 C162 0.929 . S
O168 Mn144 2.385 . S
O168 C146 1.234 . S
O169 Mn144 2.209 . S
O169 Mn145 2.215 . S
O169 C146 1.283 . S
O170 Mn144 2.094 . S
O170 C148 1.240 . S
O171 Mn145 2.117 . S
O171 C148 1.264 . S
C172 C165 1.403 . S
C172 C173 1.399 . S
C172 H178 0.929 . S
C173 C153 1.449 . S
C173 C172 1.399 . S
C173 H179 0.930 . S
H174 C154 0.931 . S
H175 C155 0.930 . S
H176 C163 0.931 . S
H177 C164 0.929 . S
H178 C172 0.929 . S
H179 C173 0.930 . S
Mn180 O185 2.095 . S
Mn180 O195 2.162 . S
Mn180 O196 2.297 . S
Mn180 O204 2.385 . S
Mn180 O205 2.209 . S
Mn180 O206 2.094 . S
Mn181 O186 2.121 . S
Mn181 N188 2.257 1_565 S
Mn181 N197 2.282 . S
Mn181 O205 2.215 . S
Mn181 O207 2.117 . S
C182 O204 1.234 . S
C182 O205 1.283 . S
C183 O195 1.281 . S
C183 O196 1.236 . S
C184 O206 1.240 . S
C184 O207 1.264 . S
O185 Mn180 2.095 . S
O185 C194 1.250 . S
O186 Mn181 2.121 . S
O186 C194 1.258 . S
C187 N188 1.326 . S
C187 C191 1.460 . S
C187 H193 0.929 . S
N188 Mn181 2.257 1_545 S
N188 C187 1.326 . S
N188 C192 1.362 . S
C189 C190 1.258 . S
C189 C192 1.431 . S
C189 C209 1.449 . S
C190 C189 1.258 . S
C190 C191 1.477 . S
C190 H210 0.931 . S
C191 C187 1.460 . S
C191 C190 1.477 . S
C191 H211 0.930 . S
C192 N188 1.362 . S
C192 C189 1.431 . S
C192 C202 1.476 . S
H193 C187 0.929 . S
C194 O185 1.250 . S
C194 O186 1.258 . S
O195 Mn180 2.162 . S
O195 C183 1.281 . S
O196 Mn180 2.297 . S
O196 C183 1.236 . S
N197 Mn181 2.282 . S
N197 C198 1.328 . S
N197 C202 1.318 1_565 S
C198 N197 1.328 . S
C198 C199 1.457 . S
C198 H203 0.929 . S
C199 C198 1.457 . S
C199 C200 1.291 1_565 S
C199 H212 0.931 . S
C200 C199 1.291 1_545 S
C200 C201 1.373 . S
C200 H213 0.929 . S
C201 C200 1.373 . S
C201 C202 1.396 . S
C201 C208 1.403 . S
C202 C192 1.476 . S
C202 N197 1.318 1_545 S
C202 C201 1.396 . S
H203 C198 0.929 . S
O204 Mn180 2.385 . S
O204 C182 1.234 . S
O205 Mn180 2.209 . S
O205 Mn181 2.215 . S
O205 C182 1.283 . S
O206 Mn180 2.094 . S
O206 C184 1.240 . S
O207 Mn181 2.117 . S
O207 C184 1.264 . S
C208 C201 1.403 . S
C208 C209 1.399 . S
C208 H214 0.929 . S
C209 C189 1.449 . S
C209 C208 1.399 . S
C209 H215 0.930 . S
H210 C190 0.931 . S
H211 C191 0.930 . S
H212 C199 0.931 . S
H213 C200 0.929 . S
H214 C208 0.929 . S
H215 C209 0.930 . S
Mn216 O221 2.095 . S
Mn216 O231 2.162 . S
Mn216 O232 2.297 . S
Mn216 O240 2.385 . S
Mn216 O241 2.209 . S
Mn216 O242 2.094 . S
Mn217 O222 2.121 . S
Mn217 N224 2.257 1_565 S
Mn217 N233 2.282 . S
Mn217 O241 2.215 . S
Mn217 O243 2.117 . S
C218 O240 1.234 . S
C218 O241 1.283 . S
C219 O231 1.281 . S
C219 O232 1.236 . S
C220 O242 1.240 . S
C220 O243 1.264 . S
O221 Mn216 2.095 . S
O221 C230 1.250 . S
O222 Mn217 2.121 . S
O222 C230 1.258 . S
C223 N224 1.326 . S
C223 C227 1.460 . S
C223 H229 0.929 . S
N224 Mn217 2.257 1_545 S
N224 C223 1.326 . S
N224 C228 1.362 . S
C225 C226 1.258 . S
C225 C228 1.431 . S
C225 C245 1.449 . S
C226 C225 1.258 . S
C226 C227 1.477 . S
C226 H246 0.931 . S
C227 C223 1.460 . S
C227 C226 1.477 . S
C227 H247 0.930 . S
C228 N224 1.362 . S
C228 C225 1.431 . S
C228 C238 1.476 . S
H229 C223 0.929 . S
C230 O221 1.250 . S
C230 O222 1.258 . S
O231 Mn216 2.162 . S
O231 C219 1.281 . S
O232 Mn216 2.297 . S
O232 C219 1.236 . S
N233 Mn217 2.282 . S
N233 C234 1.328 . S
N233 C238 1.318 1_565 S
C234 N233 1.328 . S
C234 C235 1.457 . S
C234 H239 0.929 . S
C235 C234 1.457 . S
C235 C236 1.291 1_565 S
C235 H248 0.931 . S
C236 C235 1.291 1_545 S
C236 C237 1.373 . S
C236 H249 0.929 . S
C237 C236 1.373 . S
C237 C238 1.396 . S
C237 C244 1.403 . S
C238 C228 1.476 . S
C238 N233 1.318 1_545 S
C238 C237 1.396 . S
H239 C234 0.929 . S
O240 Mn216 2.385 . S
O240 C218 1.234 . S
O241 Mn216 2.209 . S
O241 Mn217 2.215 . S
O241 C218 1.283 . S
O242 Mn216 2.094 . S
O242 C220 1.240 . S
O243 Mn217 2.117 . S
O243 C220 1.264 . S
C244 C237 1.403 . S
C244 C245 1.399 . S
C244 H250 0.929 . S
C245 C225 1.449 . S
C245 C244 1.399 . S
C245 H251 0.930 . S
H246 C226 0.931 . S
H247 C227 0.930 . S
H248 C235 0.931 . S
H249 C236 0.929 . S
H250 C244 0.929 . S
H251 C245 0.930 . S
Mn252 O257 2.095 . S
Mn252 O267 2.162 . S
Mn252 O268 2.297 . S
Mn252 O276 2.385 . S
Mn252 O277 2.209 . S
Mn252 O278 2.094 . S
Mn253 O258 2.121 . S
Mn253 N260 2.257 1_545 S
Mn253 N269 2.282 . S
Mn253 O277 2.215 . S
Mn253 O279 2.117 . S
C254 O276 1.234 . S
C254 O277 1.283 . S
C255 O267 1.281 . S
C255 O268 1.236 . S
C256 O278 1.240 . S
C256 O279 1.264 . S
O257 Mn252 2.095 . S
O257 C266 1.250 . S
O258 Mn253 2.121 . S
O258 C266 1.258 . S
C259 N260 1.326 . S
C259 C263 1.460 . S
C259 H265 0.929 . S
N260 Mn253 2.257 1_565 S
N260 C259 1.326 . S
N260 C264 1.362 . S
C261 C262 1.258 . S
C261 C264 1.431 . S
C261 C281 1.449 . S
C262 C261 1.258 . S
C262 C263 1.477 . S
C262 H282 0.931 . S
C263 C259 1.460 . S
C263 C262 1.477 . S
C263 H283 0.930 . S
C264 N260 1.362 . S
C264 C261 1.431 . S
C264 C274 1.476 . S
H265 C259 0.929 . S
C266 O257 1.250 . S
C266 O258 1.258 . S
O267 Mn252 2.162 . S
O267 C255 1.281 . S
O268 Mn252 2.297 . S
O268 C255 1.236 . S
N269 Mn253 2.282 . S
N269 C270 1.328 . S
N269 C274 1.318 1_545 S
C270 N269 1.328 . S
C270 C271 1.457 . S
C270 H275 0.929 . S
C271 C270 1.457 . S
C271 C272 1.291 1_545 S
C271 H284 0.931 . S
C272 C271 1.291 1_565 S
C272 C273 1.373 . S
C272 H285 0.929 . S
C273 C272 1.373 . S
C273 C274 1.396 . S
C273 C280 1.403 . S
C274 C264 1.476 . S
C274 N269 1.318 1_565 S
C274 C273 1.396 . S
H275 C270 0.929 . S
O276 Mn252 2.385 . S
O276 C254 1.234 . S
O277 Mn252 2.209 . S
O277 Mn253 2.215 . S
O277 C254 1.283 . S
O278 Mn252 2.094 . S
O278 C256 1.240 . S
O279 Mn253 2.117 . S
O279 C256 1.264 . S
C280 C273 1.403 . S
C280 C281 1.399 . S
C280 H286 0.929 . S
C281 C261 1.449 . S
C281 C280 1.399 . S
C281 H287 0.930 . S
H282 C262 0.931 . S
H283 C263 0.930 . S
H284 C271 0.931 . S
H285 C272 0.929 . S
H286 C280 0.929 . S
H287 C281 0.930 . S
Mn288 O293 2.095 . S
Mn288 O303 2.162 . S
Mn288 O304 2.297 . S
Mn288 O312 2.385 . S
Mn288 O313 2.209 . S
Mn288 O314 2.094 . S
Mn289 O294 2.121 . S
Mn289 N296 2.257 1_554 S
Mn289 N305 2.282 . S
Mn289 O313 2.215 . S
Mn289 O315 2.117 . S
C290 O312 1.234 . S
C290 O313 1.283 . S
C291 O303 1.281 . S
C291 O304 1.236 . S
C292 O314 1.240 . S
C292 O315 1.264 . S
O293 Mn288 2.095 . S
O293 C302 1.250 . S
O294 Mn289 2.121 . S
O294 C302 1.258 . S
C295 N296 1.326 . S
C295 C299 1.460 . S
C295 H301 0.929 . S
N296 Mn289 2.257 1_556 S
N296 C295 1.326 . S
N296 C300 1.362 . S
C297 C298 1.258 . S
C297 C300 1.431 . S
C297 C317 1.449 . S
C298 C297 1.258 . S
C298 C299 1.477 . S
C298 H318 0.931 . S
C299 C295 1.460 . S
C299 C298 1.477 . S
C299 H319 0.930 . S
C300 N296 1.362 . S
C300 C297 1.431 . S
C300 C310 1.476 . S
H301 C295 0.929 . S
C302 O293 1.250 . S
C302 O294 1.258 . S
O303 Mn288 2.162 . S
O303 C291 1.281 . S
O304 Mn288 2.297 . S
O304 C291 1.236 . S
N305 Mn289 2.282 . S
N305 C306 1.328 . S
N305 C310 1.318 1_554 S
C306 N305 1.328 . S
C306 C307 1.457 . S
C306 H311 0.929 . S
C307 C306 1.457 . S
C307 C308 1.291 1_554 S
C307 H320 0.931 . S
C308 C307 1.291 1_556 S
C308 C309 1.373 . S
C308 H321 0.929 . S
C309 C308 1.373 . S
C309 C310 1.396 . S
C309 C316 1.403 . S
C310 C300 1.476 . S
C310 N305 1.318 1_556 S
C310 C309 1.396 . S
H311 C306 0.929 . S
O312 Mn288 2.385 . S
O312 C290 1.234 . S
O313 Mn288 2.209 . S
O313 Mn289 2.215 . S
O313 C290 1.283 . S
O314 Mn288 2.094 . S
O314 C292 1.240 . S
O315 Mn289 2.117 . S
O315 C292 1.264 . S
C316 C309 1.403 . S
C316 C317 1.399 . S
C316 H322 0.929 . S
C317 C297 1.449 . S
C317 C316 1.399 . S
C317 H323 0.930 . S
H318 C298 0.931 . S
H319 C299 0.930 . S
H320 C307 0.931 . S
H321 C308 0.929 . S
H322 C316 0.929 . S
H323 C317 0.930 . S
Mn324 O329 2.095 . S
Mn324 O339 2.162 . S
Mn324 O340 2.297 . S
Mn324 O348 2.385 . S
Mn324 O349 2.209 . S
Mn324 O350 2.094 . S
Mn325 O330 2.121 . S
Mn325 N332 2.257 1_556 S
Mn325 N341 2.282 . S
Mn325 O349 2.215 . S
Mn325 O351 2.117 . S
C326 O348 1.234 . S
C326 O349 1.283 . S
C327 O339 1.281 . S
C327 O340 1.236 . S
C328 O350 1.240 . S
C328 O351 1.264 . S
O329 Mn324 2.095 . S
O329 C338 1.250 . S
O330 Mn325 2.121 . S
O330 C338 1.258 . S
C331 N332 1.326 . S
C331 C335 1.460 . S
C331 H337 0.929 . S
N332 Mn325 2.257 1_554 S
N332 C331 1.326 . S
N332 C336 1.362 . S
C333 C334 1.258 . S
C333 C336 1.431 . S
C333 C353 1.449 . S
C334 C333 1.258 . S
C334 C335 1.477 . S
C334 H354 0.931 . S
C335 C331 1.460 . S
C335 C334 1.477 . S
C335 H355 0.930 . S
C336 N332 1.362 . S
C336 C333 1.431 . S
C336 C346 1.476 . S
H337 C331 0.929 . S
C338 O329 1.250 . S
C338 O330 1.258 . S
O339 Mn324 2.162 . S
O339 C327 1.281 . S
O340 Mn324 2.297 . S
O340 C327 1.236 . S
N341 Mn325 2.282 . S
N341 C342 1.328 . S
N341 C346 1.318 1_556 S
C342 N341 1.328 . S
C342 C343 1.457 . S
C342 H347 0.929 . S
C343 C342 1.457 . S
C343 C344 1.291 1_556 S
C343 H356 0.931 . S
C344 C343 1.291 1_554 S
C344 C345 1.373 . S
C344 H357 0.929 . S
C345 C344 1.373 . S
C345 C346 1.396 . S
C345 C352 1.403 . S
C346 C336 1.476 . S
C346 N341 1.318 1_554 S
C346 C345 1.396 . S
H347 C342 0.929 . S
O348 Mn324 2.385 . S
O348 C326 1.234 . S
O349 Mn324 2.209 . S
O349 Mn325 2.215 . S
O349 C326 1.283 . S
O350 Mn324 2.094 . S
O350 C328 1.240 . S
O351 Mn325 2.117 . S
O351 C328 1.264 . S
C352 C345 1.403 . S
C352 C353 1.399 . S
C352 H358 0.929 . S
C353 C333 1.449 . S
C353 C352 1.399 . S
C353 H359 0.930 . S
H354 C334 0.931 . S
H355 C335 0.930 . S
H356 C343 0.931 . S
H357 C344 0.929 . S
H358 C352 0.929 . S
H359 C353 0.930 . S
Mn360 O365 2.095 . S
Mn360 O375 2.162 . S
Mn360 O376 2.297 . S
Mn360 O384 2.385 . S
Mn360 O385 2.209 . S
Mn360 O386 2.094 . S
Mn361 O366 2.121 . S
Mn361 N368 2.257 1_556 S
Mn361 N377 2.282 . S
Mn361 O385 2.215 . S
Mn361 O387 2.117 . S
C362 O384 1.234 . S
C362 O385 1.283 . S
C363 O375 1.281 . S
C363 O376 1.236 . S
C364 O386 1.240 . S
C364 O387 1.264 . S
O365 Mn360 2.095 . S
O365 C374 1.250 . S
O366 Mn361 2.121 . S
O366 C374 1.258 . S
C367 N368 1.326 . S
C367 C371 1.460 . S
C367 H373 0.929 . S
N368 Mn361 2.257 1_554 S
N368 C367 1.326 . S
N368 C372 1.362 . S
C369 C370 1.258 . S
C369 C372 1.431 . S
C369 C389 1.449 . S
C370 C369 1.258 . S
C370 C371 1.477 . S
C370 H390 0.931 . S
C371 C367 1.460 . S
C371 C370 1.477 . S
C371 H391 0.930 . S
C372 N368 1.362 . S
C372 C369 1.431 . S
C372 C382 1.476 . S
H373 C367 0.929 . S
C374 O365 1.250 . S
C374 O366 1.258 . S
O375 Mn360 2.162 . S
O375 C363 1.281 . S
O376 Mn360 2.297 . S
O376 C363 1.236 . S
N377 Mn361 2.282 . S
N377 C378 1.328 . S
N377 C382 1.318 1_556 S
C378 N377 1.328 . S
C378 C379 1.457 . S
C378 H383 0.929 . S
C379 C378 1.457 . S
C379 C380 1.291 1_556 S
C379 H392 0.931 . S
C380 C379 1.291 1_554 S
C380 C381 1.373 . S
C380 H393 0.929 . S
C381 C380 1.373 . S
C381 C382 1.396 . S
C381 C388 1.403 . S
C382 C372 1.476 . S
C382 N377 1.318 1_554 S
C382 C381 1.396 . S
H383 C378 0.929 . S
O384 Mn360 2.385 . S
O384 C362 1.234 . S
O385 Mn360 2.209 . S
O385 Mn361 2.215 . S
O385 C362 1.283 . S
O386 Mn360 2.094 . S
O386 C364 1.240 . S
O387 Mn361 2.117 . S
O387 C364 1.264 . S
C388 C381 1.403 . S
C388 C389 1.399 . S
C388 H394 0.929 . S
C389 C369 1.449 . S
C389 C388 1.399 . S
C389 H395 0.930 . S
H390 C370 0.931 . S
H391 C371 0.930 . S
H392 C379 0.931 . S
H393 C380 0.929 . S
H394 C388 0.929 . S
H395 C389 0.930 . S
Mn396 O401 2.095 . S
Mn396 O411 2.162 . S
Mn396 O412 2.297 . S
Mn396 O420 2.385 . S
Mn396 O421 2.209 . S
Mn396 O422 2.094 . S
Mn397 O402 2.121 . S
Mn397 N404 2.257 1_554 S
Mn397 N413 2.282 . S
Mn397 O421 2.215 . S
Mn397 O423 2.117 . S
C398 O420 1.234 . S
C398 O421 1.283 . S
C399 O411 1.281 . S
C399 O412 1.236 . S
C400 O422 1.240 . S
C400 O423 1.264 . S
O401 Mn396 2.095 . S
O401 C410 1.250 . S
O402 Mn397 2.121 . S
O402 C410 1.258 . S
C403 N404 1.326 . S
C403 C407 1.460 . S
C403 H409 0.929 . S
N404 Mn397 2.257 1_556 S
N404 C403 1.326 . S
N404 C408 1.362 . S
C405 C406 1.258 . S
C405 C408 1.431 . S
C405 C425 1.449 . S
C406 C405 1.258 . S
C406 C407 1.477 . S
C406 H426 0.931 . S
C407 C403 1.460 . S
C407 C406 1.477 . S
C407 H427 0.930 . S
C408 N404 1.362 . S
C408 C405 1.431 . S
C408 C418 1.476 . S
H409 C403 0.929 . S
C410 O401 1.250 . S
C410 O402 1.258 . S
O411 Mn396 2.162 . S
O411 C399 1.281 . S
O412 Mn396 2.297 . S
O412 C399 1.236 . S
N413 Mn397 2.282 . S
N413 C414 1.328 . S
N413 C418 1.318 1_554 S
C414 N413 1.328 . S
C414 C415 1.457 . S
C414 H419 0.929 . S
C415 C414 1.457 . S
C415 C416 1.291 1_554 S
C415 H428 0.931 . S
C416 C415 1.291 1_556 S
C416 C417 1.373 . S
C416 H429 0.929 . S
C417 C416 1.373 . S
C417 C418 1.396 . S
C417 C424 1.403 . S
C418 C408 1.476 . S
C418 N413 1.318 1_556 S
C418 C417 1.396 . S
H419 C414 0.929 . S
O420 Mn396 2.385 . S
O420 C398 1.234 . S
O421 Mn396 2.209 . S
O421 Mn397 2.215 . S
O421 C398 1.283 . S
O422 Mn396 2.094 . S
O422 C400 1.240 . S
O423 Mn397 2.117 . S
O423 C400 1.264 . S
C424 C417 1.403 . S
C424 C425 1.399 . S
C424 H430 0.929 . S
C425 C405 1.449 . S
C425 C424 1.399 . S
C425 H431 0.930 . S
H426 C406 0.931 . S
H427 C407 0.930 . S
H428 C415 0.931 . S
H429 C416 0.929 . S
H430 C424 0.929 . S
H431 C425 0.930 . S
H432 C440 0.950 . S
H433 C445 0.950 . S
H434 C442 0.950 . S
H435 C444 0.950 . S
H436 C446 0.950 . S
H437 C448 0.950 . S
H438 C450 0.950 . S
H439 C451 0.950 . S
C440 H432 0.950 . S
C440 C441 1.386 . S
C440 C442 1.391 . S
C441 C440 1.386 . S
C441 C445 1.393 . S
C442 H434 0.950 . S
C442 C440 1.391 . S
C442 C443 1.400 . S
C443 C442 1.400 . S
C443 C444 1.398 . S
C443 C449 1.491 1_655 S
C444 H435 0.950 . S
C444 C443 1.398 . S
C444 C445 1.391 . S
C445 H433 0.950 . S
C445 C441 1.393 . S
C445 C444 1.391 . S
C446 H436 0.950 . S
C446 C447 1.386 . S
C446 C448 1.391 . S
C447 C446 1.386 . S
C447 C451 1.393 . S
C448 H437 0.950 . S
C448 C446 1.391 . S
C448 C449 1.400 . S
C449 C443 1.491 1_455 S
C449 C448 1.400 . S
C449 C450 1.398 . S
C450 H438 0.950 . S
C450 C449 1.398 . S
C450 C451 1.391 . S
C451 H439 0.950 . S
C451 C447 1.393 . S
C451 C450 1.391 . S
H452 C460 0.950 . S
H453 C465 0.950 . S
H454 C462 0.950 . S
H455 C464 0.950 1_655 S
H456 C466 0.950 . S
H457 C468 0.950 . S
H458 C470 0.950 1_455 S
H459 C471 0.950 . S
C460 H452 0.950 . S
C460 C461 1.386 . S
C460 C462 1.391 . S
C461 C460 1.386 . S
C461 C465 1.393 . S
C462 H454 0.950 . S
C462 C460 1.391 . S
C462 C463 1.400 . S
C463 C462 1.400 . S
C463 C464 1.398 . S
C463 C469 1.491 1_455 S
C464 H455 0.950 1_455 S
C464 C463 1.398 . S
C464 C465 1.391 . S
C465 H453 0.950 . S
C465 C461 1.393 . S
C465 C464 1.391 . S
C466 H456 0.950 . S
C466 C467 1.386 . S
C466 C468 1.391 . S
C467 C466 1.386 . S
C467 C471 1.393 . S
C468 H457 0.950 . S
C468 C466 1.391 . S
C468 C469 1.400 . S
C469 C463 1.491 1_655 S
C469 C468 1.400 . S
C469 C470 1.398 . S
C470 H458 0.950 1_655 S
C470 C469 1.398 . S
C470 C471 1.391 . S
C471 H459 0.950 . S
C471 C467 1.393 . S
C471 C470 1.391 . S
H472 C480 0.950 . S
H473 C485 0.950 . S
H474 C482 0.950 1_545 S
H475 C484 0.950 . S
H476 C486 0.950 . S
H477 C488 0.950 1_565 S
H478 C490 0.950 . S
H479 C491 0.950 . S
C480 H472 0.950 . S
C480 C481 1.386 . S
C480 C482 1.391 . S
C481 C480 1.386 . S
C481 C485 1.393 . S
C482 H474 0.950 1_565 S
C482 C480 1.391 . S
C482 C483 1.400 . S
C483 C482 1.400 . S
C483 C484 1.398 . S
C483 C489 1.491 1_565 S
C484 H475 0.950 . S
C484 C483 1.398 . S
C484 C485 1.391 . S
C485 H473 0.950 . S
C485 C481 1.393 . S
C485 C484 1.391 . S
C486 H476 0.950 . S
C486 C487 1.386 . S
C486 C488 1.391 . S
C487 C486 1.386 . S
C487 C491 1.393 . S
C488 H477 0.950 1_545 S
C488 C486 1.391 . S
C488 C489 1.400 . S
C489 C483 1.491 1_545 S
C489 C488 1.400 . S
C489 C490 1.398 . S
C490 H478 0.950 . S
C490 C489 1.398 . S
C490 C491 1.391 . S
C491 H479 0.950 . S
C491 C487 1.393 . S
C491 C490 1.391 . S
H492 C500 0.950 . S
H493 C505 0.950 . S
H494 C502 0.950 1_545 S
H495 C504 0.950 . S
H496 C506 0.950 . S
H497 C508 0.950 1_565 S
H498 C510 0.950 . S
H499 C511 0.950 . S
C500 H492 0.950 . S
C500 C501 1.386 . S
C500 C502 1.391 . S
C501 C500 1.386 . S
C501 C505 1.393 . S
C502 H494 0.950 1_565 S
C502 C500 1.391 . S
C502 C503 1.400 . S
C503 C502 1.400 . S
C503 C504 1.398 . S
C503 C509 1.491 1_565 S
C504 H495 0.950 . S
C504 C503 1.398 . S
C504 C505 1.391 . S
C505 H493 0.950 . S
C505 C501 1.393 . S
C505 C504 1.391 . S
C506 H496 0.950 . S
C506 C507 1.386 . S
C506 C508 1.391 . S
C507 C506 1.386 . S
C507 C511 1.393 . S
C508 H497 0.950 1_545 S
C508 C506 1.391 . S
C508 C509 1.400 . S
C509 C503 1.491 1_545 S
C509 C508 1.400 . S
C509 C510 1.398 . S
C510 H498 0.950 . S
C510 C509 1.398 . S
C510 C511 1.391 . S
C511 H499 0.950 . S
C511 C507 1.393 . S
C511 C510 1.391 . S
H512 C520 0.950 . S
H513 C525 0.950 . S
H514 C522 0.950 . S
H515 C524 0.950 . S
H516 C526 0.950 . S
H517 C528 0.950 . S
H518 C530 0.950 . S
H519 C531 0.950 . S
C520 H512 0.950 . S
C520 C521 1.386 . S
C520 C522 1.391 . S
C521 C520 1.386 . S
C521 C525 1.393 . S
C522 H514 0.950 . S
C522 C520 1.391 . S
C522 C523 1.400 . S
C523 C522 1.400 . S
C523 C524 1.398 1_556 S
C523 C529 1.491 1_556 S
C524 H515 0.950 . S
C524 C523 1.398 1_554 S
C524 C525 1.391 1_554 S
C525 H513 0.950 . S
C525 C521 1.393 . S
C525 C524 1.391 1_556 S
C526 H516 0.950 . S
C526 C527 1.386 . S
C526 C528 1.391 . S
C527 C526 1.386 . S
C527 C531 1.393 . S
C528 H517 0.950 . S
C528 C526 1.391 . S
C528 C529 1.400 . S
C529 C523 1.491 1_554 S
C529 C528 1.400 . S
C529 C530 1.398 1_554 S
C530 H518 0.950 . S
C530 C529 1.398 1_556 S
C530 C531 1.391 1_556 S
C531 H519 0.950 . S
C531 C527 1.393 . S
C531 C530 1.391 1_554 S
H532 C540 0.950 . S
H533 C545 0.950 . S
H534 C542 0.950 . S
H535 C544 0.950 . S
H536 C546 0.950 . S
H537 C548 0.950 . S
H538 C550 0.950 . S
H539 C551 0.950 . S
C540 H532 0.950 . S
C540 C541 1.386 . S
C540 C542 1.391 . S
C541 C540 1.386 . S
C541 C545 1.393 . S
C542 H534 0.950 . S
C542 C540 1.391 . S
C542 C543 1.400 . S
C543 C542 1.400 . S
C543 C544 1.398 . S
C543 C549 1.491 1_556 S
C544 H535 0.950 . S
C544 C543 1.398 . S
C544 C545 1.391 . S
C545 H533 0.950 . S
C545 C541 1.393 . S
C545 C544 1.391 . S
C546 H536 0.950 . S
C546 C547 1.386 . S
C546 C548 1.391 . S
C547 C546 1.386 . S
C547 C551 1.393 . S
C548 H537 0.950 . S
C548 C546 1.391 . S
C548 C549 1.400 . S
C549 C543 1.491 1_554 S
C549 C548 1.400 . S
C549 C550 1.398 . S
C550 H538 0.950 . S
C550 C549 1.398 . S
C550 C551 1.391 . S
C551 H539 0.950 . S
C551 C547 1.393 . S
C551 C550 1.391 . S
H552 C560 0.950 . S
H553 C565 0.950 . S
H554 C562 0.950 . S
H555 C564 0.950 . S
H556 C566 0.950 . S
H557 C568 0.950 . S
H558 C570 0.950 . S
H559 C571 0.950 . S
C560 H552 0.950 . S
C560 C561 1.386 . S
C560 C562 1.391 . S
C561 C560 1.386 . S
C561 C565 1.393 . S
C562 H554 0.950 . S
C562 C560 1.391 . S
C562 C563 1.400 . S
C563 C562 1.400 . S
C563 C564 1.398 . S
C563 C569 1.491 . S
C564 H555 0.950 . S
C564 C563 1.398 . S
C564 C565 1.391 . S
C565 H553 0.950 . S
C565 C561 1.393 . S
C565 C564 1.391 . S
C566 H556 0.950 . S
C566 C567 1.386 . S
C566 C568 1.391 . S
C567 C566 1.386 . S
C567 C571 1.393 . S
C568 H557 0.950 . S
C568 C566 1.391 . S
C568 C569 1.400 . S
C569 C563 1.491 . S
C569 C568 1.400 . S
C569 C570 1.398 . S
C570 H558 0.950 . S
C570 C569 1.398 . S
C570 C571 1.391 . S
C571 H559 0.950 . S
C571 C567 1.393 . S
C571 C570 1.391 . S
H572 C580 0.950 . S
H573 C585 0.950 . S
H574 C582 0.950 . S
H575 C584 0.950 . S
H576 C586 0.950 . S
H577 C588 0.950 . S
H578 C590 0.950 . S
H579 C591 0.950 . S
C580 H572 0.950 . S
C580 C581 1.386 . S
C580 C582 1.391 . S
C581 C580 1.386 . S
C581 C585 1.393 . S
C582 H574 0.950 . S
C582 C580 1.391 . S
C582 C583 1.400 . S
C583 C582 1.400 . S
C583 C584 1.398 . S
C583 C589 1.491 . S
C584 H575 0.950 . S
C584 C583 1.398 . S
C584 C585 1.391 . S
C585 H573 0.950 . S
C585 C581 1.393 . S
C585 C584 1.391 . S
C586 H576 0.950 . S
C586 C587 1.386 . S
C586 C588 1.391 . S
C587 C586 1.386 . S
C587 C591 1.393 . S
C588 H577 0.950 . S
C588 C586 1.391 . S
C588 C589 1.400 . S
C589 C583 1.491 . S
C589 C588 1.400 . S
C589 C590 1.398 . S
C590 H578 0.950 . S
C590 C589 1.398 . S
C590 C591 1.391 . S
C591 H579 0.950 . S
C591 C587 1.393 . S
C591 C590 1.391 . S
H592 C600 0.950 . S
H593 C605 0.950 . S
H594 C602 0.950 . S
H595 C604 0.950 . S
H596 C606 0.950 . S
H597 C608 0.950 . S
H598 C610 0.950 . S
H599 C611 0.950 . S
C600 H592 0.950 . S
C600 C601 1.386 . S
C600 C602 1.391 . S
C601 C600 1.386 . S
C601 C605 1.393 . S
C602 H594 0.950 . S
C602 C600 1.391 . S
C602 C603 1.400 . S
C603 C602 1.400 . S
C603 C604 1.398 . S
C603 C609 1.491 . S
C604 H595 0.950 . S
C604 C603 1.398 . S
C604 C605 1.391 . S
C605 H593 0.950 . S
C605 C601 1.393 . S
C605 C604 1.391 . S
C606 H596 0.950 . S
C606 C607 1.386 . S
C606 C608 1.391 . S
C607 C606 1.386 . S
C607 C611 1.393 . S
C608 H597 0.950 . S
C608 C606 1.391 . S
C608 C609 1.400 . S
C609 C603 1.491 . S
C609 C608 1.400 . S
C609 C610 1.398 . S
C610 H598 0.950 . S
C610 C609 1.398 . S
C610 C611 1.391 . S
C611 H599 0.950 . S
C611 C607 1.393 . S
C611 C610 1.391 . S
H612 C620 0.950 . S
H613 C625 0.950 . S
H614 C622 0.950 . S
H615 C624 0.950 . S
H616 C626 0.950 . S
H617 C628 0.950 . S
H618 C630 0.950 . S
H619 C631 0.950 . S
C620 H612 0.950 . S
C620 C621 1.386 . S
C620 C622 1.391 . S
C621 C620 1.386 . S
C621 C625 1.393 . S
C622 H614 0.950 . S
C622 C620 1.391 . S
C622 C623 1.400 . S
C623 C622 1.400 . S
C623 C624 1.398 . S
C623 C629 1.491 . S
C624 H615 0.950 . S
C624 C623 1.398 . S
C624 C625 1.391 . S
C625 H613 0.950 . S
C625 C621 1.393 . S
C625 C624 1.391 . S
C626 H616 0.950 . S
C626 C627 1.386 . S
C626 C628 1.391 . S
C627 C626 1.386 . S
C627 C631 1.393 . S
C628 H617 0.950 . S
C628 C626 1.391 . S
C628 C629 1.400 . S
C629 C623 1.491 . S
C629 C628 1.400 . S
C629 C630 1.398 . S
C630 H618 0.950 . S
C630 C629 1.398 . S
C630 C631 1.391 . S
C631 H619 0.950 . S
C631 C627 1.393 . S
C631 C630 1.391 . S
H632 C640 0.950 . S
H633 C645 0.950 . S
H634 C642 0.950 . S
H635 C644 0.950 . S
H636 C646 0.950 . S
H637 C648 0.950 . S
H638 C650 0.950 . S
H639 C651 0.950 . S
C640 H632 0.950 . S
C640 C641 1.386 . S
C640 C642 1.391 . S
C641 C640 1.386 . S
C641 C645 1.393 . S
C642 H634 0.950 . S
C642 C640 1.391 . S
C642 C643 1.400 . S
C643 C642 1.400 . S
C643 C644 1.398 . S
C643 C649 1.491 . S
C644 H635 0.950 . S
C644 C643 1.398 . S
C644 C645 1.391 . S
C645 H633 0.950 . S
C645 C641 1.393 . S
C645 C644 1.391 . S
C646 H636 0.950 . S
C646 C647 1.386 . S
C646 C648 1.391 . S
C647 C646 1.386 . S
C647 C651 1.393 . S
C648 H637 0.950 . S
C648 C646 1.391 . S
C648 C649 1.400 . S
C649 C643 1.491 . S
C649 C648 1.400 . S
C649 C650 1.398 . S
C650 H638 0.950 . S
C650 C649 1.398 . S
C650 C651 1.391 . S
C651 H639 0.950 . S
C651 C647 1.393 . S
C651 C650 1.391 . S
H652 C660 0.950 . S
H653 C665 0.950 . S
H654 C662 0.950 . S
H655 C664 0.950 . S
H656 C666 0.950 . S
H657 C668 0.950 . S
H658 C670 0.950 . S
H659 C671 0.950 . S
C660 H652 0.950 . S
C660 C661 1.386 . S
C660 C662 1.391 . S
C661 C660 1.386 . S
C661 C665 1.393 . S
C662 H654 0.950 . S
C662 C660 1.391 . S
C662 C663 1.400 . S
C663 C662 1.400 . S
C663 C664 1.398 . S
C663 C669 1.491 . S
C664 H655 0.950 . S
C664 C663 1.398 . S
C664 C665 1.391 . S
C665 H653 0.950 . S
C665 C661 1.393 . S
C665 C664 1.391 . S
C666 H656 0.950 . S
C666 C667 1.386 . S
C666 C668 1.391 . S
C667 C666 1.386 . S
C667 C671 1.393 . S
C668 H657 0.950 . S
C668 C666 1.391 . S
C668 C669 1.400 . S
C669 C663 1.491 . S
C669 C668 1.400 . S
C669 C670 1.398 . S
C670 H658 0.950 . S
C670 C669 1.398 . S
C670 C671 1.391 . S
C671 H659 0.950 . S
C671 C667 1.393 . S
C671 C670 1.391 . S
H672 C680 0.950 . S
H673 C685 0.950 . S
H674 C682 0.950 . S
H675 C684 0.950 . S
H676 C686 0.950 . S
H677 C688 0.950 . S
H678 C690 0.950 . S
H679 C691 0.950 . S
C680 H672 0.950 . S
C680 C681 1.386 . S
C680 C682 1.391 . S
C681 C680 1.386 . S
C681 C685 1.393 . S
C682 H674 0.950 . S
C682 C680 1.391 . S
C682 C683 1.400 . S
C683 C682 1.400 . S
C683 C684 1.398 . S
C683 C689 1.491 . S
C684 H675 0.950 . S
C684 C683 1.398 . S
C684 C685 1.391 . S
C685 H673 0.950 . S
C685 C681 1.393 . S
C685 C684 1.391 . S
C686 H676 0.950 . S
C686 C687 1.386 . S
C686 C688 1.391 . S
C687 C686 1.386 . S
C687 C691 1.393 . S
C688 H677 0.950 . S
C688 C686 1.391 . S
C688 C689 1.400 . S
C689 C683 1.491 . S
C689 C688 1.400 . S
C689 C690 1.398 . S
C690 H678 0.950 . S
C690 C689 1.398 . S
C690 C691 1.391 . S
C691 H679 0.950 . S
C691 C687 1.393 . S
C691 C690 1.391 . S
H692 C700 0.950 . S
H693 C705 0.950 . S
H694 C702 0.950 . S
H695 C704 0.950 . S
H696 C706 0.950 . S
H697 C708 0.950 . S
H698 C710 0.950 . S
H699 C711 0.950 . S
C700 H692 0.950 . S
C700 C701 1.386 . S
C700 C702 1.391 . S
C701 C700 1.386 . S
C701 C705 1.393 . S
C702 H694 0.950 . S
C702 C700 1.391 . S
C702 C703 1.400 . S
C703 C702 1.400 . S
C703 C704 1.398 . S
C703 C709 1.491 . S
C704 H695 0.950 . S
C704 C703 1.398 . S
C704 C705 1.391 . S
C705 H693 0.950 . S
C705 C701 1.393 . S
C705 C704 1.391 . S
C706 H696 0.950 . S
C706 C707 1.386 . S
C706 C708 1.391 . S
C707 C706 1.386 . S
C707 C711 1.393 . S
C708 H697 0.950 . S
C708 C706 1.391 . S
C708 C709 1.400 . S
C709 C703 1.491 . S
C709 C708 1.400 . S
C709 C710 1.398 . S
C710 H698 0.950 . S
C710 C709 1.398 . S
C710 C711 1.391 . S
C711 H699 0.950 . S
C711 C707 1.393 . S
C711 C710 1.391 . S
H712 C720 0.950 . S
H713 C725 0.950 . S
H714 C722 0.950 . S
H715 C724 0.950 . S
H716 C726 0.950 . S
H717 C728 0.950 . S
H718 C730 0.950 . S
H719 C731 0.950 . S
C720 H712 0.950 . S
C720 C721 1.386 . S
C720 C722 1.391 . S
C721 C720 1.386 . S
C721 C725 1.393 . S
C722 H714 0.950 . S
C722 C720 1.391 . S
C722 C723 1.400 . S
C723 C722 1.400 . S
C723 C724 1.398 . S
C723 C729 1.491 . S
C724 H715 0.950 . S
C724 C723 1.398 . S
C724 C725 1.391 . S
C725 H713 0.950 . S
C725 C721 1.393 . S
C725 C724 1.391 . S
C726 H716 0.950 . S
C726 C727 1.386 . S
C726 C728 1.391 . S
C727 C726 1.386 . S
C727 C731 1.393 . S
C728 H717 0.950 . S
C728 C726 1.391 . S
C728 C729 1.400 . S
C729 C723 1.491 . S
C729 C728 1.400 . S
C729 C730 1.398 . S
C730 H718 0.950 . S
C730 C729 1.398 . S
C730 C731 1.391 . S
C731 H719 0.950 . S
C731 C727 1.393 . S
C731 C730 1.391 . S
H732 C740 0.950 . S
H733 C745 0.950 . S
H734 C742 0.950 . S
H735 C744 0.950 . S
H736 C746 0.950 . S
H737 C748 0.950 . S
H738 C750 0.950 . S
H739 C751 0.950 . S
C740 H732 0.950 . S
C740 C741 1.386 . S
C740 C742 1.391 . S
C741 C740 1.386 . S
C741 C745 1.393 . S
C742 H734 0.950 . S
C742 C740 1.391 . S
C742 C743 1.400 . S
C743 C742 1.400 . S
C743 C744 1.398 . S
C743 C749 1.491 . S
C744 H735 0.950 . S
C744 C743 1.398 . S
C744 C745 1.391 . S
C745 H733 0.950 . S
C745 C741 1.393 . S
C745 C744 1.391 . S
C746 H736 0.950 . S
C746 C747 1.386 . S
C746 C748 1.391 . S
C747 C746 1.386 . S
C747 C751 1.393 . S
C748 H737 0.950 . S
C748 C746 1.391 . S
C748 C749 1.400 . S
C749 C743 1.491 . S
C749 C748 1.400 . S
C749 C750 1.398 . S
C750 H738 0.950 . S
C750 C749 1.398 . S
C750 C751 1.391 . S
C751 H739 0.950 . S
C751 C747 1.393 . S
C751 C750 1.391 . S
H752 C760 0.950 . S
H753 C765 0.950 . S
H754 C762 0.950 . S
H755 C764 0.950 . S
H756 C766 0.950 . S
H757 C768 0.950 . S
H758 C770 0.950 . S
H759 C771 0.950 . S
C760 H752 0.950 . S
C760 C761 1.386 . S
C760 C762 1.391 . S
C761 C760 1.386 . S
C761 C765 1.393 . S
C762 H754 0.950 . S
C762 C760 1.391 . S
C762 C763 1.400 . S
C763 C762 1.400 . S
C763 C764 1.398 . S
C763 C769 1.491 . S
C764 H755 0.950 . S
C764 C763 1.398 . S
C764 C765 1.391 . S
C765 H753 0.950 . S
C765 C761 1.393 . S
C765 C764 1.391 . S
C766 H756 0.950 . S
C766 C767 1.386 . S
C766 C768 1.391 . S
C767 C766 1.386 . S
C767 C771 1.393 . S
C768 H757 0.950 . S
C768 C766 1.391 . S
C768 C769 1.400 . S
C769 C763 1.491 . S
C769 C768 1.400 . S
C769 C770 1.398 . S
C770 H758 0.950 . S
C770 C769 1.398 . S
C770 C771 1.391 . S
C771 H759 0.950 . S
C771 C767 1.393 . S
C771 C770 1.391 . S
H772 C780 0.950 . S
H773 C785 0.950 . S
H774 C782 0.950 . S
H775 C784 0.950 . S
H776 C786 0.950 . S
H777 C788 0.950 . S
H778 C790 0.950 . S
H779 C791 0.950 . S
C780 H772 0.950 . S
C780 C781 1.386 . S
C780 C782 1.391 . S
C781 C780 1.386 . S
C781 C785 1.393 . S
C782 H774 0.950 . S
C782 C780 1.391 . S
C782 C783 1.400 . S
C783 C782 1.400 . S
C783 C784 1.398 . S
C783 C789 1.491 . S
C784 H775 0.950 . S
C784 C783 1.398 . S
C784 C785 1.391 . S
C785 H773 0.950 . S
C785 C781 1.393 . S
C785 C784 1.391 . S
C786 H776 0.950 . S
C786 C787 1.386 . S
C786 C788 1.391 . S
C787 C786 1.386 . S
C787 C791 1.393 . S
C788 H777 0.950 . S
C788 C786 1.391 . S
C788 C789 1.400 . S
C789 C783 1.491 . S
C789 C788 1.400 . S
C789 C790 1.398 . S
C790 H778 0.950 . S
C790 C789 1.398 . S
C790 C791 1.391 . S
C791 H779 0.950 . S
C791 C787 1.393 . S
C791 C790 1.391 . S
H792 C800 0.950 1_655 S
H793 C805 0.950 . S
H794 C802 0.950 . S
H795 C804 0.950 . S
H796 C806 0.950 1_455 S
H797 C808 0.950 . S
H798 C810 0.950 . S
H799 C811 0.950 . S
C800 H792 0.950 1_455 S
C800 C801 1.386 . S
C800 C802 1.391 1_455 S
C801 C800 1.386 . S
C801 C805 1.393 . S
C802 H794 0.950 . S
C802 C800 1.391 1_655 S
C802 C803 1.400 1_655 S
C803 C802 1.400 1_455 S
C803 C804 1.398 . S
C803 C809 1.491 1_445 S
C804 H795 0.950 . S
C804 C803 1.398 . S
C804 C805 1.391 . S
C805 H793 0.950 . S
C805 C801 1.393 . S
C805 C804 1.391 . S
C806 H796 0.950 1_655 S
C806 C807 1.386 . S
C806 C808 1.391 1_655 S
C807 C806 1.386 . S
C807 C811 1.393 . S
C808 H797 0.950 . S
C808 C806 1.391 1_455 S
C808 C809 1.400 1_455 S
C809 C803 1.491 1_665 S
C809 C808 1.400 1_655 S
C809 C810 1.398 . S
C810 H798 0.950 . S
C810 C809 1.398 . S
C810 C811 1.391 . S
C811 H799 0.950 . S
C811 C807 1.393 . S
C811 C810 1.391 . S
H812 C820 0.950 . S
H813 C825 0.950 1_455 S
H814 C822 0.950 . S
H815 C824 0.950 . S
H816 C826 0.950 . S
H817 C828 0.950 . S
H818 C830 0.950 . S
H819 C831 0.950 1_655 S
C820 H812 0.950 . S
C820 C821 1.386 . S
C820 C822 1.391 . S
C821 C820 1.386 . S
C821 C825 1.393 . S
C822 H814 0.950 . S
C822 C820 1.391 . S
C822 C823 1.400 . S
C823 C822 1.400 . S
C823 C824 1.398 1_655 S
C823 C829 1.491 1_645 S
C824 H815 0.950 . S
C824 C823 1.398 1_455 S
C824 C825 1.391 1_455 S
C825 H813 0.950 1_655 S
C825 C821 1.393 . S
C825 C824 1.391 1_655 S
C826 H816 0.950 . S
C826 C827 1.386 . S
C826 C828 1.391 . S
C827 C826 1.386 . S
C827 C831 1.393 . S
C828 H817 0.950 . S
C828 C826 1.391 . S
C828 C829 1.400 . S
C829 C823 1.491 1_465 S
C829 C828 1.400 . S
C829 C830 1.398 1_455 S
C830 H818 0.950 . S
C830 C829 1.398 1_655 S
C830 C831 1.391 1_655 S
C831 H819 0.950 1_455 S
C831 C827 1.393 . S
C831 C830 1.391 1_455 S
H832 C840 0.950 . S
H833 C845 0.950 . S
H834 C842 0.950 . S
H835 C844 0.968 . S
H836 C846 0.950 . S
H837 C848 0.950 . S
H838 C850 0.968 . S
H839 C851 0.950 . S
C840 H832 0.950 . S
C840 C841 1.386 . S
C840 C842 1.391 . S
C841 C840 1.386 . S
C841 C845 1.393 . S
C842 H834 0.950 . S
C842 C840 1.391 . S
C842 C843 1.400 . S
C843 C842 1.400 . S
C843 C844 1.392 1_565 S
C843 C849 1.491 1_566 S
C844 H835 0.968 . S
C844 C843 1.392 1_545 S
C844 C845 1.380 1_545 S
C845 H833 0.950 . S
C845 C841 1.393 . S
C845 C844 1.380 1_565 S
C846 H836 0.950 . S
C846 C847 1.386 . S
C846 C848 1.391 . S
C847 C846 1.386 . S
C847 C851 1.393 . S
C848 H837 0.950 . S
C848 C846 1.391 . S
C848 C849 1.400 . S
C849 C843 1.491 1_544 S
C849 C848 1.400 . S
C849 C850 1.392 1_545 S
C850 H838 0.968 . S
C850 C849 1.392 1_565 S
C850 C851 1.380 1_565 S
C851 H839 0.950 . S
C851 C847 1.393 . S
C851 C850 1.380 1_545 S
H852 C860 0.950 1_545 S
H853 C865 0.950 . S
H854 C862 0.950 . S
H855 C864 0.950 . S
H856 C866 0.950 1_565 S
H857 C868 0.950 . S
H858 C870 0.950 . S
H859 C871 0.950 . S
C860 H852 0.950 1_565 S
C860 C861 1.386 . S
C860 C862 1.391 1_565 S
C861 C860 1.386 . S
C861 C865 1.393 . S
C862 H854 0.950 . S
C862 C860 1.391 1_545 S
C862 C863 1.400 1_545 S
C863 C862 1.400 1_565 S
C863 C864 1.398 . S
C863 C869 1.491 1_564 S
C864 H855 0.950 . S
C864 C863 1.398 . S
C864 C865 1.391 . S
C865 H853 0.950 . S
C865 C861 1.393 . S
C865 C864 1.391 . S
C866 H856 0.950 1_545 S
C866 C867 1.386 . S
C866 C868 1.391 1_545 S
C867 C866 1.386 . S
C867 C871 1.393 . S
C868 H857 0.950 . S
C868 C866 1.391 1_565 S
C868 C869 1.400 1_565 S
C869 C863 1.491 1_546 S
C869 C868 1.400 1_545 S
C869 C870 1.398 . S
C870 H858 0.950 . S
C870 C869 1.398 . S
C870 C871 1.391 . S
C871 H859 0.950 . S
C871 C867 1.393 . S
C871 C870 1.391 . S
H872 C880 0.950 . S
H873 C885 0.950 1_554 S
H874 C882 0.950 . S
H875 C884 0.950 . S
H876 C886 0.950 . S
H877 C888 0.950 . S
H878 C890 0.950 . S
H879 C891 0.950 1_556 S
C880 H872 0.950 . S
C880 C881 1.386 . S
C880 C882 1.391 . S
C881 C880 1.386 . S
C881 C885 1.393 . S
C882 H874 0.950 . S
C882 C880 1.391 . S
C882 C883 1.400 . S
C883 C882 1.400 . S
C883 C884 1.398 1_556 S
C883 C889 1.491 1_656 S
C884 H875 0.950 . S
C884 C883 1.398 1_554 S
C884 C885 1.391 1_554 S
C885 H873 0.950 1_556 S
C885 C881 1.393 . S
C885 C884 1.391 1_556 S
C886 H876 0.950 . S
C886 C887 1.386 . S
C886 C888 1.391 . S
C887 C886 1.386 . S
C887 C891 1.393 . S
C888 H877 0.950 . S
C888 C886 1.391 . S
C888 C889 1.400 . S
C889 C883 1.491 1_454 S
C889 C888 1.400 . S
C889 C890 1.398 1_554 S
C890 H878 0.950 . S
C890 C889 1.398 1_556 S
C890 C891 1.391 1_556 S
C891 H879 0.950 1_554 S
C891 C887 1.393 . S
C891 C890 1.391 1_554 S
H892 C900 0.950 . S
H893 C905 0.950 . S
H894 C902 0.950 . S
H895 C904 0.950 1_554 S
H896 C906 0.950 . S
H897 C908 0.950 . S
H898 C910 0.950 1_556 S
H899 C911 0.950 . S
C900 H892 0.950 . S
C900 C901 1.386 . S
C900 C902 1.391 . S
C901 C900 1.386 . S
C901 C905 1.393 . S
C902 H894 0.950 . S
C902 C900 1.391 . S
C902 C903 1.400 . S
C903 C902 1.400 . S
C903 C904 1.398 . S
C903 C909 1.491 1_456 S
C904 H895 0.950 1_556 S
C904 C903 1.398 . S
C904 C905 1.391 . S
C905 H893 0.950 . S
C905 C901 1.393 . S
C905 C904 1.391 . S
C906 H896 0.950 . S
C906 C907 1.386 . S
C906 C908 1.391 . S
C907 C906 1.386 . S
C907 C911 1.393 . S
C908 H897 0.950 . S
C908 C906 1.391 . S
C908 C909 1.400 . S
C909 C903 1.491 1_654 S
C909 C908 1.400 . S
C909 C910 1.398 . S
C910 H898 0.950 1_554 S
C910 C909 1.398 . S
C910 C911 1.391 . S
C911 H899 0.950 . S
C911 C907 1.393 . S
C911 C910 1.391 . S
C441 C112 0.964 . S
C447 C4 0.969 . S
C461 C76 0.957 . S
C467 C40 0.969 . S
C481 C184 0.969 . S
C487 C148 0.956 . S
C501 C220 0.969 . S
C507 C256 0.956 . S
C521 C328 0.935 . S
C527 C292 0.955 . S
C541 C364 0.967 . S
C547 C400 0.967 . S
C561 C3 0.889 . S
C567 C254 0.851 . S
C581 C218 0.875 . S
C587 C39 0.905 . S
C601 C182 0.851 . S
C607 C75 0.894 . S
C621 C146 0.855 . S
C627 C111 0.899 . S
C641 C147 0.898 . S
C647 C398 0.854 . S
C661 C290 0.896 . S
C667 C183 0.888 . S
C681 C362 0.899 . S
C687 C219 0.892 . S
C701 C255 0.901 . S
C707 C326 0.858 . S
C721 C74 0.851 . S
C727 C291 0.890 . S
C741 C2 0.855 . S
C747 C327 0.899 . S
C761 C363 0.882 . S
C767 C38 0.863 . S
C781 C110 0.852 . S
C787 C399 0.888 . S
C801 C14 1.119 . S
C807 C50 1.131 . S
C821 C122 1.130 . S
C827 C86 1.118 . S
C841 C230 1.121 . S
C847 C158 1.115 . S
C861 C194 1.128 . S
C867 C266 1.140 . S
C881 C374 1.138 . S
C887 C302 1.126 . S
C901 C338 1.118 . S
C907 C410 1.116 . S
