# Generated by pormake.
# Topology wje, (4)-cn, num edge types: 1
# Building blocks:
#     Node 0, Type 0, BuildingBlock: ICAMEG_clean_sbu_1, # of connection points: 4
#     Node 1, Type 0, BuildingBlock: ICAMEG_clean_sbu_1, # of connection points: 4
#     Node 2, Type 0, BuildingBlock: ICAMEG_clean_sbu_1, # of connection points: 4
#     Node 3, Type 0, BuildingBlock: ICAMEG_clean_sbu_1, # of connection points: 4
#     Node 4, Type 0, BuildingBlock: ICAMEG_clean_sbu_1, # of connection points: 4
#     Node 5, Type 0, BuildingBlock: ICAMEG_clean_sbu_1, # of connection points: 4
#     Node 6, Type 0, BuildingBlock: ICAMEG_clean_sbu_1, # of connection points: 4
#     Node 7, Type 0, BuildingBlock: ICAMEG_clean_sbu_1, # of connection points: 4
#     Node 8, Type 0, BuildingBlock: ICAMEG_clean_sbu_1, # of connection points: 4
#     Node 9, Type 0, BuildingBlock: ICAMEG_clean_sbu_1, # of connection points: 4
#     Node 10, Type 0, BuildingBlock: ICAMEG_clean_sbu_1, # of connection points: 4
#     Node 11, Type 0, BuildingBlock: ICAMEG_clean_sbu_1, # of connection points: 4
#     Edge 12, Type (0, 0), BuildingBlock: XUDNAN_clean_linker_2, # of connection points: 2
#     Edge 13, Type (0, 0), BuildingBlock: XUDNAN_clean_linker_2, # of connection points: 2
#     Edge 14, Type (0, 0), BuildingBlock: XUDNAN_clean_linker_2, # of connection points: 2
#     Edge 15, Type (0, 0), BuildingBlock: XUDNAN_clean_linker_2, # of connection points: 2
#     Edge 16, Type (0, 0), BuildingBlock: XUDNAN_clean_linker_2, # of connection points: 2
#     Edge 17, Type (0, 0), BuildingBlock: XUDNAN_clean_linker_2, # of connection points: 2
#     Edge 18, Type (0, 0), BuildingBlock: XUDNAN_clean_linker_2, # of connection points: 2
#     Edge 19, Type (0, 0), BuildingBlock: XUDNAN_clean_linker_2, # of connection points: 2
#     Edge 20, Type (0, 0), BuildingBlock: XUDNAN_clean_linker_2, # of connection points: 2
#     Edge 21, Type (0, 0), BuildingBlock: XUDNAN_clean_linker_2, # of connection points: 2
#     Edge 22, Type (0, 0), BuildingBlock: XUDNAN_clean_linker_2, # of connection points: 2
#     Edge 23, Type (0, 0), BuildingBlock: XUDNAN_clean_linker_2, # of connection points: 2
#     Edge 24, Type (0, 0), BuildingBlock: XUDNAN_clean_linker_2, # of connection points: 2
#     Edge 25, Type (0, 0), BuildingBlock: XUDNAN_clean_linker_2, # of connection points: 2
#     Edge 26, Type (0, 0), BuildingBlock: XUDNAN_clean_linker_2, # of connection points: 2
#     Edge 27, Type (0, 0), BuildingBlock: XUDNAN_clean_linker_2, # of connection points: 2
#     Edge 28, Type (0, 0), BuildingBlock: XUDNAN_clean_linker_2, # of connection points: 2
#     Edge 29, Type (0, 0), BuildingBlock: XUDNAN_clean_linker_2, # of connection points: 2
#     Edge 30, Type (0, 0), BuildingBlock: XUDNAN_clean_linker_2, # of connection points: 2
#     Edge 31, Type (0, 0), BuildingBlock: XUDNAN_clean_linker_2, # of connection points: 2
#     Edge 32, Type (0, 0), BuildingBlock: XUDNAN_clean_linker_2, # of connection points: 2
#     Edge 33, Type (0, 0), BuildingBlock: XUDNAN_clean_linker_2, # of connection points: 2
#     Edge 34, Type (0, 0), BuildingBlock: XUDNAN_clean_linker_2, # of connection points: 2
#     Edge 35, Type (0, 0), BuildingBlock: XUDNAN_clean_linker_2, # of connection points: 2
# Relax obj value: 0.126
# Max RMSD: 0.100
# Mean RMSD: 0.100
data_MOF--net-wje--node1-ICAMEG_clean_sbu_1--edge1-XUDNAN_clean_linker_2
_symmetry_space_group_name_H-M    P1
_symmetry_Int_Tables_number       1
_symmetry_cell_setting            triclinic
loop_
_symmetry_equiv_pos_as_xyz
'x, y, z'
_cell_length_a     42.58668
_cell_length_b     42.599007
_cell_length_c     40.934313
_cell_angle_alpha  90.028851
_cell_angle_beta   89.918922
_cell_angle_gamma 120.04618
loop_
_atom_site_label
_atom_site_type_symbol
_atom_site_fract_x
_atom_site_fract_y
_atom_site_fract_z
_atom_type_partial_charge
Co0 Co 0.31507 0.9889 0.31207 0.0
Co1 Co 0.30901 0.06288 0.33931 0.0
O2 O 0.33055 0.04063 0.31195 0.0
C3 C 0.39221 0.01539 0.33121 0.0
O4 O 0.38797 0.03088 0.35726 0.0
C5 C 0.30018 0.08311 0.27111 0.0
O6 O 0.2919 0.05056 0.26116 0.0
O7 O 0.25816 0.02341 0.32948 0.0
O8 O 0.26359 0.97603 0.31333 0.0
H9 H 0.22622 0.06396 0.42635 0.0
H10 H 0.36628 0.03718 0.26153 0.0
O11 O 0.36674 1.00002 0.31039 0.0
H12 H 0.25981 0.94525 0.2008 0.0
H13 H 0.31938 0.87797 0.27612 0.0
H14 H 0.25835 0.92449 0.34735 0.0
H15 H 0.26189 0.94286 0.26089 0.0
H16 H 0.33884 0.94309 0.27646 0.0
O17 O 0.30751 0.09183 0.30111 0.0
H18 H 0.25298 0.03628 0.39134 0.0
H19 H 0.32073 0.13784 0.34559 0.0
H20 H 0.23775 0.85914 0.34744 0.0
H21 H 0.36553 0.04045 0.20138 0.0
H22 H 0.26834 0.83547 0.31165 0.0
H23 H 0.31193 0.99434 0.17063 0.0
O24 O 0.31538 0.98749 0.36098 0.0
H25 H 0.43749 0.1567 0.31191 0.0
H26 H 0.34806 0.09937 0.40059 0.0
H27 H 0.41048 0.14696 0.4139 0.0
H28 H 0.45568 0.17607 0.36934 0.0
H29 H 0.37485 0.10865 0.29978 0.0
H30 H 0.2944 0.16653 0.37985 0.0
H31 H 0.24691 0.12954 0.42069 0.0
O32 O 0.31032 0.03508 0.37799 0.0
C33 C 0.24456 0.99047 0.32037 0.0
C34 C 0.24694 0.08037 0.40868 0.0
C35 C 0.28516 0.13793 0.38254 0.0
N36 N 0.28845 0.08543 0.3665 0.0
C37 C 0.26225 0.06487 0.38883 0.0
C38 C 0.29986 0.1215 0.36311 0.0
C39 C 0.25853 0.11716 0.40547 0.0
C40 C 0.343 0.01685 0.24828 0.0
N41 N 0.31414 0.98987 0.2647 0.0
C42 C 0.34267 0.01891 0.21424 0.0
C43 C 0.31256 0.99306 0.19701 0.0
C44 C 0.2833 0.96554 0.21392 0.0
C45 C 0.28455 0.96439 0.24797 0.0
C46 C 0.30583 0.88796 0.29181 0.0
C47 C 0.27174 0.91442 0.3316 0.0
C48 C 0.31682 0.92484 0.29221 0.0
N49 N 0.29969 0.93761 0.31183 0.0
C50 C 0.26 0.87738 0.33182 0.0
C51 C 0.27718 0.86412 0.31174 0.0
C52 C 0.31278 0.0069 0.38348 0.0
C53 C 0.41804 0.14423 0.33154 0.0
C54 C 0.36764 0.11166 0.38113 0.0
C55 C 0.40291 0.13872 0.38879 0.0
C56 C 0.42824 0.15506 0.36377 0.0
N57 N 0.35784 0.10119 0.34946 0.0
C58 C 0.38252 0.11708 0.32481 0.0
Co59 Co 0.33955 0.29852 0.66642 0.0
Co60 Co 0.26628 0.31351 0.6647 0.0
O61 O 0.31425 0.32311 0.64935 0.0
C62 C 0.39579 0.37761 0.67245 0.0
O63 O 0.37052 0.38608 0.67772 0.0
C64 C 0.22325 0.29209 0.60294 0.0
O65 O 0.20237 0.25988 0.61569 0.0
O66 O 0.24562 0.25969 0.66154 0.0
O67 O 0.29364 0.25151 0.66575 0.0
H68 H 0.15313 0.25077 0.73296 0.0
H69 H 0.3671 0.34451 0.6073 0.0
O70 O 0.38738 0.34486 0.66727 0.0
H71 H 0.34204 0.22327 0.57252 0.0
H72 H 0.44117 0.27044 0.67305 0.0
H73 H 0.32165 0.2418 0.7165 0.0
H74 H 0.3313 0.23429 0.62954 0.0
H75 H 0.41038 0.3024 0.65236 0.0
O76 O 0.25152 0.31553 0.61821 0.0
H77 H 0.21333 0.26383 0.71348 0.0
H78 H 0.21795 0.34367 0.64841 0.0
H79 H 0.35134 0.20894 0.73765 0.0
H80 H 0.37853 0.33478 0.5501 0.0
H81 H 0.41148 0.22311 0.71579 0.0
H82 H 0.36591 0.27376 0.5324 0.0
O83 O 0.33043 0.30723 0.71256 0.0
H84 H 0.33743 0.4421 0.62459 0.0
H85 H 0.26354 0.36303 0.7149 0.0
H86 H 0.28999 0.42922 0.71977 0.0
H87 H 0.32716 0.46926 0.67429 0.0
H88 H 0.311 0.37579 0.62111 0.0
H89 H 0.15771 0.33126 0.66697 0.0
H90 H 0.12489 0.28456 0.7096 0.0
O91 O 0.28053 0.3127 0.71109 0.0
C92 C 0.2598 0.23954 0.66309 0.0
C93 C 0.16716 0.27119 0.71437 0.0
C94 C 0.16971 0.31633 0.67732 0.0
N95 N 0.21914 0.30443 0.67978 0.0
C96 C 0.20127 0.27873 0.70327 0.0
C97 C 0.20378 0.32317 0.66683 0.0
C98 C 0.15132 0.29014 0.70125 0.0
C99 C 0.36171 0.31794 0.59979 0.0
N100 N 0.34861 0.29003 0.62172 0.0
C101 C 0.36815 0.31256 0.56737 0.0
C102 C 0.36103 0.27831 0.55745 0.0
C103 C 0.3476 0.24995 0.57995 0.0
C104 C 0.34146 0.25633 0.61216 0.0
C105 C 0.41494 0.26398 0.68272 0.0
C106 C 0.3478 0.24808 0.70683 0.0
C107 C 0.39743 0.28209 0.67119 0.0
N108 N 0.36413 0.27384 0.68308 0.0
C109 C 0.3645 0.22943 0.71894 0.0
C110 C 0.39826 0.23742 0.7067 0.0
C111 C 0.30582 0.31123 0.72652 0.0
C112 C 0.32137 0.42496 0.64461 0.0
C113 C 0.28023 0.3803 0.69535 0.0
C114 C 0.29486 0.41775 0.69807 0.0
C115 C 0.31564 0.44018 0.67251 0.0
N116 N 0.28612 0.36556 0.668 0.0
C117 C 0.30626 0.38738 0.64275 0.0
Co118 Co 0.01602 0.33038 0.00371 0.0
Co119 Co 0.95119 0.24058 0.99584 0.0
O120 O 0.97187 0.29187 0.9827 0.0
C121 C 0.97004 0.36511 0.9901 0.0
O122 O 0.94372 0.33528 0.97729 0.0
C123 C 0.94182 0.23902 0.92256 0.0
O124 O 0.96698 0.27326 0.92046 0.0
O125 O 0.99809 0.24283 0.98571 0.0
O126 O 0.03574 0.29674 0.00824 0.0
H127 H 0.95292 0.13715 0.05323 0.0
H128 H 0.99513 0.34588 0.93835 0.0
O129 O 0.9987 0.36639 1.00081 0.0
H130 H 0.11838 0.36513 0.92402 0.0
H131 H 0.11991 0.45761 0.02043 0.0
H132 H 0.05902 0.33183 0.06125 0.0
H133 H 0.08777 0.3465 0.97739 0.0
H134 H 0.06556 0.40976 0.99271 0.0
O135 O 0.93344 0.22297 0.95011 0.0
H136 H 0.97719 0.20095 0.0371 0.0
H137 H 0.88243 0.17177 0.98129 0.0
H138 H 0.1135 0.37872 0.08944 0.0
H139 H 0.02498 0.36518 0.88486 0.0
H140 H 0.14435 0.44218 0.06906 0.0
H141 H 0.08708 0.37483 0.87728 0.0
O142 O 0.99231 0.31517 0.04705 0.0
H143 H 0.84646 0.26069 0.97366 0.0
H144 H 0.90081 0.21466 0.05296 0.0
H145 H 0.8435 0.21275 0.06666 0.0
H146 H 0.81586 0.23577 0.02682 0.0
H147 H 0.90392 0.26245 0.9611 0.0
H148 H 0.85731 0.10761 0.99657 0.0
H149 H 0.89256 0.08996 0.03291 0.0
O150 O 0.96745 0.25507 0.04225 0.0
C151 C 0.02888 0.26583 0.9975 0.0
C152 C 0.93724 0.14452 0.03748 0.0
C153 C 0.8836 0.12794 0.00565 0.0
N154 N 0.93115 0.19018 0.00851 0.0
C155 C 0.9508 0.18064 0.02834 0.0
C156 C 0.89801 0.16432 0.99704 0.0
C157 C 0.90339 0.11805 0.02604 0.0
C158 C 0.02227 0.35056 0.93562 0.0
N159 N 0.03964 0.34536 0.96128 0.0
C160 C 0.039 0.36124 0.90508 0.0
C161 C 0.0738 0.36657 0.90082 0.0
C162 C 0.09135 0.36109 0.92701 0.0
C163 C 0.07376 0.35039 0.95718 0.0
C164 C 0.10676 0.43004 0.0295 0.0
C165 C 0.07238 0.3593 0.05208 0.0
C166 C 0.07592 0.40284 0.01395 0.0
N167 N 0.05925 0.36792 0.02518 0.0
C168 C 0.10319 0.38578 0.06821 0.0
C169 C 0.12046 0.42137 0.05678 0.0
C170 C 0.97898 0.28371 0.05954 0.0
C171 C 0.85818 0.25049 0.99119 0.0
C172 C 0.8891 0.22495 0.03554 0.0
C173 C 0.85657 0.22367 0.04341 0.0
C174 C 0.84106 0.23656 0.02104 0.0
N175 N 0.90571 0.23858 0.00617 0.0
C176 C 0.89068 0.25131 0.98416 0.0
Co177 Co 0.67966 0.00459 0.33161 0.0
Co178 Co 0.70384 0.93832 0.32971 0.0
O179 O 0.67361 0.9586 0.3154 0.0
C180 C 0.60651 0.98693 0.35289 0.0
O181 O 0.62118 0.99971 0.38156 0.0
C182 C 0.71114 0.93984 0.25756 0.0
O183 O 0.71755 0.97336 0.25849 0.0
O184 O 0.74974 0.9852 0.32158 0.0
O185 O 0.73316 0.02628 0.33322 0.0
H186 H 0.80514 0.93746 0.3918 0.0
H187 H 0.6362 0.97163 0.27198 0.0
O188 O 0.62556 0.98397 0.33024 0.0
H189 H 0.73663 0.09055 0.23687 0.0
H190 H 0.65725 0.11026 0.33334 0.0
H191 H 0.72388 0.05583 0.38389 0.0
H192 H 0.73102 0.07138 0.29438 0.0
H193 H 0.64902 0.05201 0.31328 0.0
O194 O 0.70503 0.92187 0.28394 0.0
H195 H 0.76693 0.96264 0.37401 0.0
H196 H 0.70432 0.87001 0.31472 0.0
H197 H 0.73308 0.1142 0.40454 0.0
H198 H 0.64048 0.98991 0.21424 0.0
H199 H 0.6996 0.14179 0.37926 0.0
H200 H 0.69107 0.0497 0.19634 0.0
O201 O 0.67652 0.98793 0.37774 0.0
H202 H 0.57992 0.83483 0.30236 0.0
H203 H 0.67609 0.88686 0.3859 0.0
H204 H 0.61973 0.82941 0.39727 0.0
H205 H 0.57122 0.80295 0.35527 0.0
H206 H 0.63659 0.89243 0.29212 0.0
H207 H 0.74207 0.84398 0.33163 0.0
H208 H 0.79282 0.87771 0.37055 0.0
O209 O 0.70326 0.95391 0.37562 0.0
C210 C 0.75726 0.01765 0.32748 0.0
C211 C 0.78304 0.92244 0.37491 0.0
C212 C 0.74767 0.87001 0.34111 0.0
N213 N 0.73325 0.9177 0.34356 0.0
C214 C 0.76123 0.93651 0.36483 0.0
C215 C 0.72644 0.88492 0.33157 0.0
C216 C 0.77613 0.88894 0.36296 0.0
C217 C 0.65807 0.99786 0.26445 0.0
N218 N 0.68326 0.02045 0.2866 0.0
C219 C 0.66045 0.00799 0.23169 0.0
C220 C 0.68887 0.04151 0.22165 0.0
C221 C 0.71447 0.06442 0.24437 0.0
C222 C 0.71125 0.05335 0.2769 0.0
C223 C 0.67201 0.09852 0.34456 0.0
C224 C 0.70922 0.06765 0.37272 0.0
C225 C 0.66745 0.06553 0.33331 0.0
N226 N 0.68594 0.05048 0.34739 0.0
C227 C 0.71454 0.10072 0.38454 0.0
C228 C 0.69576 0.11619 0.37033 0.0
C229 C 0.69026 0.97067 0.39146 0.0
C230 C 0.6009 0.84604 0.32082 0.0
C231 C 0.65502 0.87562 0.36757 0.0
C232 C 0.62321 0.84303 0.37411 0.0
C233 C 0.59602 0.82819 0.35053 0.0
N234 N 0.65968 0.89287 0.3383 0.0
C235 C 0.63308 0.87859 0.31512 0.0
Co236 Co 0.67252 0.67145 0.65481 0.0
Co237 Co 0.75983 0.6952 0.67702 0.0
O238 O 0.71589 0.66672 0.65049 0.0
C239 C 0.64039 0.59241 0.66408 0.0
O240 O 0.66813 0.59943 0.68287 0.0
C241 C 0.78919 0.70593 0.60877 0.0
O242 O 0.76214 0.7098 0.59846 0.0
O243 O 0.76222 0.74173 0.66474 0.0
O244 O 0.70327 0.72472 0.66158 0.0
H245 H 0.83798 0.7903 0.75897 0.0
H246 H 0.67916 0.63311 0.59736 0.0
O247 O 0.63955 0.61798 0.64878 0.0
H248 H 0.67238 0.73696 0.55246 0.0
H249 H 0.54693 0.64558 0.62549 0.0
H250 H 0.65121 0.71266 0.69923 0.0
H251 H 0.6691 0.72639 0.61192 0.0
H252 H 0.60166 0.64011 0.61983 0.0
O253 O 0.79162 0.69985 0.63887 0.0
H254 H 0.78331 0.75462 0.72545 0.0
H255 H 0.8298 0.69563 0.68425 0.0
H256 H 0.59726 0.71937 0.7054 0.0
H257 H 0.68225 0.64247 0.53766 0.0
H258 H 0.54459 0.68563 0.6684 0.0
H259 H 0.67896 0.69479 0.51489 0.0
O260 O 0.67106 0.66346 0.70278 0.0
H261 H 0.74587 0.57272 0.6555 0.0
H262 H 0.76366 0.66242 0.74031 0.0
H263 H 0.75896 0.60444 0.75638 0.0
H264 H 0.75007 0.55914 0.71381 0.0
H265 H 0.75034 0.63092 0.64053 0.0
H266 H 0.88518 0.731 0.71704 0.0
H267 H 0.88945 0.77861 0.75485 0.0
O268 O 0.73006 0.69137 0.71626 0.0
C269 C 0.73664 0.74906 0.66325 0.0
C270 C 0.83643 0.76958 0.74263 0.0
C271 C 0.86293 0.73633 0.71906 0.0
N272 N 0.80327 0.72294 0.70302 0.0
C273 C 0.80549 0.74922 0.72364 0.0
C274 C 0.83155 0.71648 0.70047 0.0
C275 C 0.8653 0.76303 0.74029 0.0
C276 C 0.6774 0.65574 0.58756 0.0
N277 N 0.67387 0.6791 0.60804 0.0
C278 C 0.67929 0.66098 0.55377 0.0
C279 C 0.6775 0.69038 0.54102 0.0
C280 C 0.67385 0.71407 0.56209 0.0
C281 C 0.67211 0.70801 0.59574 0.0
C282 C 0.56974 0.66049 0.64172 0.0
C283 C 0.62851 0.69809 0.68287 0.0
C284 C 0.60077 0.65743 0.63869 0.0
N285 N 0.62971 0.67623 0.65904 0.0
C286 C 0.59799 0.70192 0.68655 0.0
C287 C 0.56844 0.68296 0.6658 0.0
C288 C 0.69654 0.676 0.72375 0.0
C289 C 0.74985 0.59229 0.67426 0.0
C290 C 0.75968 0.64281 0.72164 0.0
C291 C 0.75712 0.61006 0.73089 0.0
C292 C 0.75216 0.58466 0.70699 0.0
N293 N 0.75745 0.65012 0.68948 0.0
C294 C 0.75255 0.62534 0.66592 0.0
Co295 Co 0.98686 0.66743 0.99425 0.0
Co296 Co 0.05359 0.75623 0.99574 0.0
O297 O 0.03402 0.70654 0.97937 0.0
C298 C 1.00313 0.60929 0.01057 0.0
O299 O 0.99555 0.61236 0.04109 0.0
C300 C 0.07632 0.7964 0.93198 0.0
O301 O 0.05141 0.80566 0.93578 0.0
O302 O 0.00908 0.75645 0.9805 0.0
O303 O 0.96789 0.70159 0.99901 0.0
H304 H 0.0472 0.85741 0.05283 0.0
H305 H 0.01743 0.65879 0.9321 0.0
O306 O 0.00422 0.63156 0.98909 0.0
H307 H 0.89991 0.64734 0.90255 0.0
H308 H 0.87701 0.54179 0.99238 0.0
H309 H 0.93713 0.66021 0.04824 0.0
H310 H 0.92073 0.65772 0.95975 0.0
H311 H 0.93605 0.59109 0.97291 0.0
O312 O 0.07888 0.77517 0.95246 0.0
H313 H 0.02359 0.79472 0.03358 0.0
H314 H 0.12564 0.82412 0.99092 0.0
H315 H 0.87795 0.61186 0.06828 0.0
H316 H 0.99745 0.64801 0.8746 0.0
H317 H 0.84747 0.55206 0.04034 0.0
H318 H 0.9383 0.64224 0.85952 0.0
O319 O 0.00442 0.67786 0.04024 0.0
H320 H 0.15685 0.73134 0.9865 0.0
H321 H 0.09468 0.77592 0.05854 0.0
H322 H 0.14797 0.77375 0.07905 0.0
H323 H 0.17954 0.75149 0.04288 0.0
H324 H 0.1032 0.73358 0.96708 0.0
H325 H 0.15031 0.88719 0.00954 0.0
H326 H 0.111 0.90418 0.0408 0.0
O327 O 0.02969 0.73835 0.03952 0.0
C328 C 0.97685 0.73354 0.98957 0.0
C329 C 0.06461 0.85034 0.03924 0.0
C330 C 0.12246 0.86707 0.01493 0.0
N331 N 0.07318 0.80572 0.0111 0.0
C332 C 0.05139 0.81486 0.02829 0.0
C333 C 0.10831 0.83132 0.00437 0.0
C334 C 0.1004 0.87658 0.03247 0.0
C335 C 0.99155 0.65606 0.92575 0.0
N336 N 0.97018 0.6586 0.9493 0.0
C337 C 0.98043 0.65007 0.89314 0.0
C338 C 0.94726 0.64687 0.88469 0.0
C339 C 0.92571 0.64975 0.90882 0.0
C340 C 0.93771 0.65574 0.94116 0.0
C341 C 0.89004 0.5677 0.0048 0.0
C342 C 0.92412 0.63431 0.03592 0.0
C343 C 0.92354 0.59569 0.99394 0.0
N344 N 0.94018 0.62853 0.00946 0.0
C345 C 0.89056 0.60701 0.04739 0.0
C346 C 0.87348 0.57348 0.0317 0.0
C347 C 0.01571 0.70812 0.05472 0.0
C348 C 0.14339 0.7412 1.00246 0.0
C349 C 0.10815 0.76603 0.04269 0.0
C350 C 0.13838 0.76495 0.05442 0.0
C351 C 0.15609 0.75247 0.03411 0.0
N352 N 0.09598 0.75512 0.01155 0.0
C353 C 0.11307 0.74264 0.99157 0.0
Co354 Co 0.0155 0.6902 0.34873 0.0
Co355 Co 0.94414 0.70561 0.35481 0.0
O356 O 0.96995 0.68068 0.36936 0.0
C357 C 1.00163 0.61558 0.33631 0.0
O358 O 0.00399 0.62288 0.30496 0.0
C359 C 0.94624 0.71552 0.42692 0.0
O360 O 0.98091 0.72584 0.42603 0.0
O361 O 0.98859 0.75387 0.36175 0.0
O362 O 0.03007 0.74202 0.34051 0.0
H363 H 0.92999 0.79893 0.29166 0.0
H364 H 0.99707 0.65689 0.41458 0.0
O365 O 1.00264 0.63844 0.35712 0.0
H366 H 0.11312 0.77104 0.42812 0.0
H367 H 0.12974 0.68294 0.33823 0.0
H368 H 0.05464 0.7282 0.28838 0.0
H369 H 0.08404 0.75304 0.37405 0.0
H370 H 0.07298 0.67174 0.36465 0.0
O371 O 0.92769 0.70609 0.40072 0.0
H372 H 0.96136 0.76648 0.30947 0.0
H373 H 0.87236 0.69835 0.37074 0.0
H374 H 0.11127 0.74021 0.26125 0.0
H375 H 0.02546 0.67366 0.46905 0.0
H376 H 0.14929 0.71751 0.28618 0.0
H377 H 0.08387 0.73116 0.47609 0.0
O378 O 0.99116 0.67712 0.30532 0.0
H379 H 0.85088 0.57817 0.38557 0.0
H380 H 0.89122 0.67214 0.30013 0.0
H381 H 0.83706 0.61231 0.29063 0.0
H382 H 0.81648 0.56488 0.3336 0.0
H383 H 0.90514 0.6383 0.39392 0.0
H384 H 0.84019 0.73032 0.35386 0.0
H385 H 0.86896 0.7809 0.31392 0.0
O386 O 0.95913 0.70566 0.30832 0.0
C387 C 0.01999 0.76418 0.34986 0.0
C388 C 0.91712 0.77686 0.309 0.0
C389 C 0.86675 0.73838 0.34393 0.0
N390 N 0.91862 0.73038 0.34093 0.0
C391 C 0.93472 0.75832 0.31911 0.0
C392 C 0.88514 0.72044 0.35347 0.0
C393 C 0.8829 0.76675 0.32152 0.0
C394 C 0.02267 0.68177 0.41739 0.0
N395 N 0.03896 0.70381 0.39112 0.0
C396 C 0.03854 0.6912 0.44832 0.0
C397 C 0.07128 0.72349 0.45226 0.0
C398 C 0.08769 0.7459 0.42536 0.0
C399 C 0.07103 0.7356 0.39481 0.0
C400 C 0.11342 0.69299 0.32713 0.0
C401 C 0.07101 0.71826 0.29944 0.0
C402 C 0.08121 0.68667 0.34195 0.0
N403 N 0.06046 0.6993 0.32811 0.0
C404 C 0.10307 0.72514 0.28393 0.0
C405 C 0.12438 0.71239 0.29793 0.0
C406 C 0.97368 0.69074 0.29193 0.0
C407 C 0.85953 0.59864 0.3667 0.0
C408 C 0.88255 0.65158 0.31888 0.0
C409 C 0.8518 0.61779 0.31339 0.0
C410 C 0.84026 0.59119 0.33752 0.0
N411 N 0.90121 0.65873 0.34763 0.0
C412 C 0.89016 0.63275 0.37133 0.0
Co413 Co 0.33048 0.03371 0.68015 0.0
Co414 Co 0.2524 0.94911 0.684 0.0
O415 O 0.30104 0.98535 0.70002 0.0
C416 C 0.38407 0.00776 0.68017 0.0
O417 O 0.35883 0.97601 0.66937 0.0
C418 C 0.24598 0.94567 0.758 0.0
O419 O 0.27884 0.97347 0.76105 0.0
O420 O 0.23589 0.98564 0.68493 0.0
O421 O 0.28655 0.03747 0.67213 0.0
H422 H 0.14431 0.90526 0.61018 0.0
H423 H 0.35363 0.0219 0.74504 0.0
O424 O 0.37635 0.03228 0.68704 0.0
H425 H 0.32474 0.11935 0.76165 0.0
H426 H 0.43797 0.16023 0.67254 0.0
H427 H 0.32253 0.07052 0.62177 0.0
H428 H 0.31856 0.09208 0.70725 0.0
H429 H 0.40092 0.09959 0.69694 0.0
O430 O 0.23256 0.93384 0.72981 0.0
H431 H 0.20511 0.94913 0.63108 0.0
H432 H 0.19696 0.87326 0.70271 0.0
H433 H 0.35895 0.13072 0.59634 0.0
H434 H 0.36071 0.04883 0.79982 0.0
H435 H 0.41697 0.17619 0.62193 0.0
H436 H 0.34605 0.09781 0.80841 0.0
O437 O 0.32512 0.01195 0.63611 0.0
H438 H 0.31539 0.88486 0.72847 0.0
H439 H 0.24469 0.89245 0.63673 0.0
H440 H 0.26569 0.8481 0.63451 0.0
H441 H 0.30122 0.84398 0.68071 0.0
H442 H 0.29433 0.9291 0.72942 0.0
H443 H 0.13592 0.82879 0.68286 0.0
H444 H 0.10928 0.84462 0.63616 0.0
O445 O 0.26971 0.96201 0.6375 0.0
C446 C 0.25248 0.01895 0.67663 0.0
C447 C 0.15568 0.89801 0.63048 0.0
C448 C 0.15094 0.85511 0.67131 0.0
N449 N 0.20469 0.91371 0.66792 0.0
C450 C 0.19013 0.92269 0.64234 0.0
C451 C 0.18548 0.88047 0.68251 0.0
C452 C 0.13602 0.864 0.64509 0.0
C453 C 0.34749 0.0434 0.74855 0.0
N454 N 0.33556 0.05526 0.723 0.0
C455 C 0.35141 0.05845 0.77964 0.0
C456 C 0.34312 0.08589 0.78445 0.0
C457 C 0.33109 0.09794 0.75824 0.0
C458 C 0.32744 0.08222 0.72752 0.0
C459 C 0.41271 0.14067 0.66118 0.0
C460 C 0.34784 0.09005 0.63294 0.0
C461 C 0.39164 0.10623 0.67483 0.0
N462 N 0.35956 0.08145 0.66077 0.0
C463 C 0.36831 0.12414 0.61847 0.0
C464 C 0.4009 0.14961 0.6328 0.0
C465 C 0.29839 0.98496 0.62233 0.0
C466 C 0.2998 0.88628 0.70825 0.0
C467 C 0.2603 0.89101 0.65683 0.0
C468 C 0.27201 0.86572 0.65549 0.0
C469 C 0.29191 0.8634 0.68142 0.0
N470 N 0.26799 0.9133 0.68327 0.0
C471 C 0.28759 0.91121 0.70873 0.0
Co472 Co 0.32993 0.33957 0.03481 0.0
Co473 Co 0.31822 0.25443 0.01833 0.0
O474 O 0.34307 0.30202 0.03985 0.0
C475 C 0.40526 0.38201 0.0088 0.0
O476 O 0.39744 0.35613 0.98746 0.0
C477 C 0.3063 0.23821 0.08882 0.0
O478 O 0.29846 0.2643 0.08985 0.0
O479 O 0.26881 0.24813 0.02563 0.0
O480 O 0.27772 0.30315 0.03855 0.0
H481 H 0.23099 0.16036 0.93998 0.0
H482 H 0.38413 0.34854 0.08461 0.0
O483 O 0.38242 0.37819 0.03078 0.0
H484 H 0.28464 0.34897 0.14604 0.0
H485 H 0.34401 0.46283 0.05378 0.0
H486 H 0.27258 0.34499 0.99837 0.0
H487 H 0.28188 0.34325 0.086 0.0
H488 H 0.35983 0.41487 0.06037 0.0
O489 O 0.31481 0.22984 0.06158 0.0
H490 H 0.26163 0.22001 0.96721 0.0
H491 H 0.32389 0.18773 0.02423 0.0
H492 H 0.25571 0.3921 0.99131 0.0
H493 H 0.38815 0.35457 0.14465 0.0
H494 H 0.29151 0.45153 0.01915 0.0
H495 H 0.33808 0.35468 0.17576 0.0
O496 O 0.32602 0.33265 0.98642 0.0
H497 H 0.44373 0.28263 0.0498 0.0
H498 H 0.35524 0.24618 0.95994 0.0
H499 H 0.41578 0.25407 0.94913 0.0
H500 H 0.46046 0.27231 0.9943 0.0
H501 H 0.383 0.27478 0.05943 0.0
H502 H 0.29367 0.12759 0.99784 0.0
H503 H 0.24694 0.11365 0.95529 0.0
O504 O 0.32098 0.27835 0.97535 0.0
C505 C 0.25704 0.2695 0.03304 0.0
C506 C 0.25136 0.16614 0.95842 0.0
C507 C 0.2865 0.14773 0.99094 0.0
N508 N 0.29465 0.2074 0.99716 0.0
C509 C 0.26888 0.19991 0.97386 0.0
C510 C 0.30345 0.18179 0.00586 0.0
C511 C 0.26031 0.13993 0.96705 0.0
C512 C 0.36242 0.34893 0.09799 0.0
N513 N 0.33291 0.34573 0.08184 0.0
C514 C 0.36477 0.3522 0.13197 0.0
C515 C 0.33665 0.35221 0.14941 0.0
C516 C 0.30665 0.34899 0.13276 0.0
C517 C 0.3052 0.3457 0.09877 0.0
C518 C 0.32817 0.43703 0.04155 0.0
C519 C 0.28825 0.37072 0.01067 0.0
C520 C 0.33706 0.40979 0.04512 0.0
N521 N 0.31708 0.37707 0.02987 0.0
C522 C 0.27859 0.39733 0.00652 0.0
C523 C 0.29871 0.43067 0.02213 0.0
C524 C 0.32267 0.30796 0.96652 0.0
C525 C 0.42447 0.27459 0.02994 0.0
C526 C 0.3746 0.25428 0.97967 0.0
C527 C 0.4088 0.25861 0.97343 0.0
C528 C 0.43385 0.26883 0.99879 0.0
N529 N 0.36557 0.25985 0.01032 0.0
C530 C 0.39 0.26998 0.03528 0.0
Co531 Co 0.99212 0.32525 0.35481 0.0
Co532 Co 0.05859 0.30168 0.35801 0.0
O533 O 0.03888 0.33307 0.37153 0.0
C534 C 0.03915 0.40725 0.36061 0.0
O535 O 0.06724 0.4052 0.37085 0.0
C536 C 0.07947 0.3196 0.42936 0.0
O537 O 0.06097 0.33652 0.43166 0.0
O538 O 0.0133 0.25757 0.37242 0.0
O539 O 0.97226 0.27166 0.35441 0.0
H540 H 0.05259 0.19301 0.3035 0.0
H541 H 0.02198 0.36863 0.41605 0.0
O542 O 0.00934 0.37873 0.3538 0.0
H543 H 0.9017 0.26723 0.44615 0.0
H544 H 0.88614 0.34654 0.34648 0.0
H545 H 0.94128 0.27687 0.30398 0.0
H546 H 0.92446 0.27327 0.38988 0.0
H547 H 0.94425 0.35644 0.36855 0.0
O548 O 0.08066 0.30499 0.40255 0.0
H549 H 0.02934 0.23318 0.32025 0.0
H550 H 0.12886 0.30331 0.36796 0.0
H551 H 0.88291 0.26576 0.2816 0.0
H552 H 1.00009 0.36402 0.47237 0.0
H553 H 0.85495 0.30076 0.30282 0.0
H554 H 0.93954 0.31293 0.48789 0.0
O555 O 0.00966 0.32885 0.30922 0.0
H556 H 0.16449 0.42894 0.36787 0.0
H557 H 0.10265 0.3212 0.29709 0.0
H558 H 0.15791 0.37524 0.27726 0.0
H559 H 0.18936 0.4296 0.3128 0.0
H560 H 0.10899 0.37463 0.38651 0.0
H561 H 0.15308 0.26369 0.35199 0.0
H562 H 0.1149 0.20816 0.3194 0.0
O563 O 0.03738 0.29607 0.31315 0.0
C564 C 0.98102 0.24866 0.3642 0.0
C565 C 0.06955 0.2172 0.31759 0.0
C566 C 0.12591 0.25684 0.34485 0.0
N567 N 0.07777 0.27073 0.34483 0.0
C568 C 0.05656 0.24013 0.32705 0.0
C569 C 0.11201 0.27912 0.35388 0.0
C570 C 0.10449 0.22569 0.32655 0.0
C571 C 0.99551 0.3466 0.42228 0.0
N572 N 0.97459 0.32142 0.3994 0.0
C573 C 0.98328 0.34399 0.45439 0.0
C574 C 0.94935 0.31529 0.4631 0.0
C575 C 0.92814 0.28964 0.43971 0.0
C576 C 0.94129 0.29313 0.40786 0.0
C577 C 0.89803 0.33109 0.33706 0.0
C578 C 0.92923 0.29208 0.31351 0.0
C579 C 0.931 0.33666 0.34938 0.0
N580 N 0.94611 0.31712 0.3377 0.0
C581 C 0.89619 0.28573 0.30066 0.0
C582 C 0.88054 0.30539 0.31257 0.0
C583 C 0.0225 0.3104 0.29646 0.0
C584 C 0.15114 0.40536 0.35221 0.0
C585 C 0.11603 0.34476 0.31271 0.0
C586 C 0.1474 0.37527 0.30134 0.0
C587 C 0.16505 0.40574 0.32129 0.0
N588 N 0.10263 0.34447 0.34317 0.0
C589 C 0.11972 0.37435 0.36276 0.0
Co590 Co 0.65691 0.97945 0.68984 0.0
Co591 Co 0.74604 0.04691 0.68837 0.0
O592 O 0.69593 0.0272 0.70388 0.0
C593 C 0.62388 0.02568 0.67877 0.0
O594 O 0.65461 0.05034 0.66571 0.0
C595 C 0.78636 0.07035 0.75148 0.0
O596 O 0.79655 0.04627 0.74681 0.0
O597 O 0.74659 0.0029 0.70445 0.0
O598 O 0.69101 0.96014 0.6889 0.0
H599 H 0.84866 0.04099 0.63354 0.0
H600 H 0.64641 0.01358 0.74866 0.0
O601 O 0.6209 0.99663 0.69036 0.0
H602 H 0.63241 0.8974 0.78668 0.0
H603 H 0.52982 0.87231 0.69011 0.0
H604 H 0.65161 0.92573 0.64076 0.0
H605 H 0.64502 0.91506 0.72871 0.0
H606 H 0.57907 0.93202 0.70825 0.0
O607 O 0.76433 0.0724 0.73162 0.0
H608 H 0.78565 0.01701 0.65215 0.0
H609 H 0.81344 0.11943 0.69286 0.0
H610 H 0.60331 0.86573 0.62228 0.0
H611 H 0.63347 0.99684 0.80687 0.0
H612 H 0.54186 0.83863 0.64697 0.0
H613 H 0.62642 0.93838 0.82619 0.0
O614 O 0.66822 0.99408 0.64317 0.0
H615 H 0.72086 0.15006 0.69575 0.0
H616 H 0.76542 0.08693 0.62494 0.0
H617 H 0.76272 0.13958 0.60344 0.0
H618 H 0.74043 0.17161 0.63898 0.0
H619 H 0.72355 0.09699 0.71615 0.0
H620 H 0.8768 0.14448 0.67482 0.0
H621 H 0.89477 0.10516 0.64488 0.0
O622 O 0.72905 0.02259 0.64484 0.0
C623 C 0.72337 0.97003 0.6977 0.0
C624 C 0.84116 0.0584 0.64654 0.0
C625 C 0.85697 0.11647 0.66972 0.0
N626 N 0.79581 0.06677 0.67358 0.0
C627 C 0.8055 0.04498 0.65712 0.0
C628 C 0.82105 0.10212 0.67993 0.0
C629 C 0.86702 0.0944 0.65293 0.0
C630 C 0.64317 0.98802 0.75689 0.0
N631 N 0.64629 0.96527 0.73532 0.0
C632 C 0.63594 0.97872 0.78987 0.0
C633 C 0.63202 0.94593 0.80071 0.0
C634 C 0.63539 0.92293 0.77856 0.0
C635 C 0.64264 0.93312 0.74577 0.0
C636 C 0.55649 0.88381 0.67919 0.0
C637 C 0.62501 0.91407 0.65177 0.0
C638 C 0.58447 0.91768 0.68929 0.0
N639 N 0.61827 0.9323 0.67571 0.0
C640 C 0.59774 0.8801 0.64114 0.0
C641 C 0.56327 0.86493 0.65499 0.0
C642 C 0.69904 0.00666 0.62933 0.0
C643 C 0.73075 0.13641 0.68007 0.0
C644 C 0.7555 0.10059 0.64052 0.0
C645 C 0.75415 0.13047 0.62823 0.0
C646 C 0.74167 0.14845 0.64819 0.0
N647 N 0.74483 0.08899 0.67185 0.0
C648 C 0.7325 0.10645 0.69153 0.0
Co649 Co 0.67742 0.67412 0.03217 0.0
Co650 Co 0.69645 0.75894 0.00508 0.0
O651 O 0.66914 0.7154 0.03221 0.0
C652 C 0.60061 0.63645 0.01252 0.0
O653 O 0.60934 0.66288 0.99155 0.0
C654 C 0.70602 0.78866 0.07265 0.0
O655 O 0.71194 0.76279 0.08262 0.0
O656 O 0.74406 0.76413 0.01793 0.0
O657 O 0.73082 0.70744 0.03009 0.0
H658 H 0.79006 0.8378 0.92219 0.0
H659 H 0.63041 0.67832 0.08317 0.0
O660 O 0.62379 0.63877 0.03345 0.0
H661 H 0.73191 0.68012 0.14269 0.0
H662 H 0.65474 0.55151 0.06836 0.0
H663 H 0.72674 0.65604 0.99599 0.0
H664 H 0.72857 0.6753 0.08259 0.0
H665 H 0.64508 0.60397 0.06838 0.0
O666 O 0.69937 0.79073 0.04262 0.0
H667 H 0.75615 0.78356 0.95673 0.0
H668 H 0.69371 0.82705 0.99626 0.0
H669 H 0.7375 0.60429 0.99542 0.0
H670 H 0.63253 0.68294 0.14335 0.0
H671 H 0.70137 0.55155 0.03181 0.0
H672 H 0.68364 0.68398 0.17347 0.0
O673 O 0.67568 0.67166 0.98354 0.0
H674 H 0.57158 0.73984 0.02477 0.0
H675 H 0.66316 0.75951 0.94116 0.0
H676 H 0.6042 0.75186 0.92414 0.0
H677 H 0.55796 0.74203 0.96611 0.0
H678 H 0.63079 0.74729 0.0407 0.0
H679 H 0.72726 0.882 0.96245 0.0
H680 H 0.77571 0.88754 0.92495 0.0
O681 O 0.69414 0.72865 0.96692 0.0
C682 C 0.75348 0.74084 0.02496 0.0
C683 C 0.76896 0.83568 0.93837 0.0
C684 C 0.73374 0.8605 0.961 0.0
N685 N 0.72282 0.80203 0.97833 0.0
C686 C 0.74958 0.80497 0.95792 0.0
C687 C 0.71491 0.82937 0.98016 0.0
C688 C 0.76091 0.86358 0.93996 0.0
C689 C 0.65254 0.67843 0.09619 0.0
N690 N 0.67925 0.67643 0.07946 0.0
C691 C 0.65367 0.68119 0.13022 0.0
C692 C 0.68239 0.68182 0.1471 0.0
C693 C 0.7095 0.67969 0.12985 0.0
C694 C 0.70751 0.67704 0.09582 0.0
C695 C 0.67073 0.57439 0.05247 0.0
C696 C 0.71106 0.63329 0.01205 0.0
C697 C 0.66533 0.60414 0.05232 0.0
N698 N 0.68553 0.63318 0.03239 0.0
C699 C 0.71721 0.60403 0.01156 0.0
C700 C 0.6969 0.57443 0.03196 0.0
C701 C 0.68451 0.69559 0.9613 0.0
C702 C 0.59155 0.74422 0.00627 0.0
C703 C 0.64314 0.75514 0.95957 0.0
C704 C 0.60983 0.7509 0.94978 0.0
C705 C 0.58391 0.74541 0.97334 0.0
N706 N 0.65048 0.75407 0.99192 0.0
C707 C 0.62516 0.74859 0.01515 0.0
H708 H 0.30071 0.08177 0.20336 0.0
H709 H 0.30181 0.1463 0.28602 0.0
H710 H 0.30373 0.19222 0.24838 0.0
H711 H 0.36279 0.15779 0.15315 0.0
H712 H 0.33967 0.13773 0.11539 0.0
H713 H 0.33777 0.10915 0.14867 0.0
H714 H 0.26758 0.0756 0.14715 0.0
H715 H 0.26926 0.10404 0.11385 0.0
H716 H 0.24455 0.10127 0.15054 0.0
H717 H 0.30447 0.23079 0.20255 0.0
H718 H 0.30572 0.26088 0.15087 0.0
H719 H 0.30615 0.17342 0.09663 0.0
C720 C 0.30121 0.1055 0.2135 0.0
C721 C 0.30101 0.11028 0.24777 0.0
C722 C 0.30203 0.14193 0.25998 0.0
C723 C 0.30306 0.16822 0.23876 0.0
C724 C 0.30334 0.16279 0.20525 0.0
C725 C 0.30261 0.13237 0.19257 0.0
C726 C 0.30369 0.13374 0.15543 0.0
C727 C 0.33803 0.13466 0.1424 0.0
C728 C 0.26922 0.10176 0.14089 0.0
C729 C 0.30493 0.16956 0.14934 0.0
C730 C 0.30455 0.18568 0.17853 0.0
C731 C 0.30487 0.2185 0.17953 0.0
C732 C 0.3055 0.23535 0.14996 0.0
C733 C 0.30604 0.21959 0.1196 0.0
C734 C 0.30595 0.18627 0.1194 0.0
H735 H 0.17631 0.2501 0.55422 0.0
H736 H 0.2382 0.36095 0.58922 0.0
H737 H 0.20809 0.3798 0.5487 0.0
H738 H 0.18019 0.27569 0.46692 0.0
H739 H 0.13526 0.23855 0.45865 0.0
H740 H 0.16271 0.23401 0.48968 0.0
H741 H 0.11133 0.21718 0.53191 0.0
H742 H 0.08394 0.22217 0.50118 0.0
H743 H 0.09425 0.24778 0.53859 0.0
H744 H 0.16568 0.38511 0.50931 0.0
H745 H 0.12178 0.37883 0.46663 0.0
H746 H 0.09209 0.26644 0.4525 0.0
C747 C 0.18398 0.27844 0.55291 0.0
C748 C 0.20951 0.304 0.57503 0.0
C749 C 0.21887 0.34087 0.57251 0.0
C750 C 0.20173 0.35183 0.54967 0.0
C751 C 0.17596 0.32583 0.52887 0.0
C752 C 0.16787 0.2901 0.52957 0.0
C753 C 0.13961 0.2678 0.50397 0.0
C754 C 0.15539 0.25315 0.47828 0.0
C755 C 0.10525 0.23691 0.51988 0.0
C756 C 0.13237 0.29635 0.48946 0.0
C757 C 0.1533 0.32952 0.50451 0.0
C758 C 0.14966 0.35946 0.49691 0.0
C759 C 0.12448 0.35558 0.47287 0.0
C760 C 0.10379 0.32226 0.45627 0.0
C761 C 0.10789 0.29232 0.46465 0.0
H762 H 0.81872 0.06758 0.8088 0.0
H763 H 0.7986 0.13961 0.74879 0.0
H764 H 0.83709 0.19068 0.78534 0.0
H765 H 0.81619 0.10902 0.88692 0.0
H766 H 0.85093 0.10234 0.90509 0.0
H767 H 0.82146 0.07135 0.87434 0.0
H768 H 0.87759 0.08339 0.84004 0.0
H769 H 0.90722 0.11472 0.87049 0.0
H770 H 0.91038 0.12925 0.82867 0.0
H771 H 0.88246 0.23515 0.82551 0.0
H772 H 0.92356 0.26797 0.87155 0.0
H773 H 0.90977 0.16644 0.90859 0.0
C774 C 0.82209 0.09402 0.80362 0.0
C775 C 0.80573 0.09961 0.77587 0.0
C776 C 0.81067 0.13459 0.76997 0.0
C777 C 0.8327 0.16386 0.79049 0.0
C778 C 0.84902 0.15762 0.81725 0.0
C779 C 0.84328 0.12341 0.82436 0.0
C780 C 0.86321 0.12394 0.85526 0.0
C781 C 0.83634 0.10026 0.88198 0.0
C782 C 0.89126 0.11213 0.84817 0.0
C783 C 0.88155 0.16386 0.86403 0.0
C784 C 0.87343 0.18291 0.84152 0.0
C785 C 0.8886 0.22044 0.84354 0.0
C786 C 0.91212 0.23889 0.86961 0.0
C787 C 0.9197 0.21973 0.89363 0.0
C788 C 0.90421 0.18173 0.89067 0.0
H789 H 0.70711 0.78717 0.1401 0.0
H790 H 0.70721 0.85187 0.0581 0.0
H791 H 0.70892 0.89745 0.09627 0.0
H792 H 0.6491 0.80474 0.19198 0.0
H793 H 0.67277 0.80659 0.22904 0.0
H794 H 0.67223 0.77917 0.1953 0.0
H795 H 0.74248 0.81305 0.19526 0.0
H796 H 0.74323 0.84058 0.229 0.0
H797 H 0.76741 0.8618 0.1919 0.0
H798 H 0.71137 0.93667 0.14326 0.0
H799 H 0.71238 0.96558 0.19591 0.0
H800 H 0.70911 0.87496 0.24755 0.0
C801 C 0.70764 0.81099 0.13017 0.0
C802 C 0.70715 0.81591 0.09602 0.0
C803 C 0.70752 0.84736 0.0841 0.0
C804 C 0.70856 0.87351 0.10561 0.0
C805 C 0.70899 0.86785 0.13907 0.0
C806 C 0.70838 0.83731 0.15134 0.0
C807 C 0.70836 0.83757 0.18841 0.0
C808 C 0.67354 0.80509 0.20197 0.0
C809 C 0.7424 0.83831 0.20193 0.0
C810 C 0.70921 0.87305 0.19499 0.0
C811 C 0.70971 0.89016 0.16618 0.0
C812 C 0.71091 0.92348 0.16599 0.0
C813 C 0.71154 0.93974 0.19603 0.0
C814 C 0.71078 0.9226 0.22591 0.0
C815 C 0.70956 0.88875 0.22519 0.0
H816 H 0.8787 0.70786 0.43568 0.0
H817 H 0.9732 0.72253 0.489 0.0
H818 H 0.94325 0.72181 0.541 0.0
H819 H 0.85998 0.76516 0.4872 0.0
H820 H 0.81142 0.73692 0.48415 0.0
H821 H 0.84003 0.73805 0.45117 0.0
H822 H 0.81115 0.66828 0.45459 0.0
H823 H 0.78243 0.6669 0.48756 0.0
H824 H 0.81131 0.64762 0.49297 0.0
H825 H 0.9026 0.71826 0.58717 0.0
H826 H 0.85523 0.71423 0.62438 0.0
H827 H 0.78748 0.70374 0.54118 0.0
C828 C 0.89312 0.71083 0.45828 0.0
C829 C 0.92836 0.71515 0.45822 0.0
C830 C 0.94629 0.71924 0.48837 0.0
C831 C 0.92945 0.71881 0.51804 0.0
C832 C 0.89476 0.71453 0.51719 0.0
C833 C 0.87685 0.71079 0.48809 0.0
C834 C 0.83992 0.70708 0.49394 0.0
C835 C 0.83773 0.73869 0.47818 0.0
C836 C 0.8094 0.67028 0.48153 0.0
C837 C 0.83976 0.70917 0.53093 0.0
C838 C 0.87162 0.7133 0.5438 0.0
C839 C 0.87763 0.71518 0.57735 0.0
C840 C 0.85044 0.71278 0.59831 0.0
C841 C 0.81757 0.70876 0.58579 0.0
C842 C 0.81235 0.70708 0.55155 0.0
H843 H 0.1727 0.91225 0.77031 0.0
H844 H 0.27452 0.93119 0.81141 0.0
H845 H 0.24158 0.89245 0.85872 0.0
H846 H 0.13406 0.91698 0.8482 0.0
H847 H 0.08852 0.88286 0.83736 0.0
H848 H 0.11993 0.91068 0.80606 0.0
H849 H 0.10921 0.85291 0.77543 0.0
H850 H 0.078 0.82491 0.8068 0.0
H851 H 0.11643 0.81991 0.7965 0.0
H852 H 0.19734 0.84876 0.89969 0.0
H853 H 0.14626 0.81126 0.93656 0.0
H854 H 0.07327 0.82572 0.8726 0.0
C855 C 0.18796 0.90825 0.78937 0.0
C856 C 0.22614 0.92454 0.78723 0.0
C857 C 0.24532 0.91909 0.81272 0.0
C858 C 0.2268 0.89693 0.83953 0.0
C859 C 0.18915 0.88103 0.84086 0.0
C860 C 0.16998 0.88705 0.81687 0.0
C861 C 0.12986 0.86845 0.82532 0.0
C862 C 0.11736 0.89642 0.82949 0.0
C863 C 0.10703 0.83985 0.79947 0.0
C864 C 0.12946 0.85082 0.85768 0.0
C865 C 0.16389 0.85785 0.86578 0.0
C866 C 0.17035 0.84345 0.89381 0.0
C867 C 0.14106 0.82198 0.91453 0.0
C868 C 0.10576 0.81572 0.90763 0.0
C869 C 0.09996 0.83023 0.87864 0.0
H870 H 0.44445 0.02807 0.37722 0.0
H871 H 0.41262 0.99213 0.27725 0.0
H872 H 0.4624 0.97866 0.27263 0.0
H873 H 0.54187 0.07015 0.36429 0.0
H874 H 0.54965 0.05582 0.40339 0.0
H875 H 0.51227 0.06387 0.39826 0.0
H876 H 0.46809 0.99884 0.41907 0.0
H877 H 0.50528 0.99041 0.42376 0.0
H878 H 0.46688 0.96064 0.39885 0.0
H879 H 0.51493 0.9678 0.2791 0.0
H880 H 0.56878 0.96399 0.29527 0.0
H881 H 0.56563 0.00576 0.39129 0.0
C882 C 0.44827 0.01789 0.3542 0.0
C883 C 0.42462 0.01127 0.32758 0.0
C884 C 0.43034 0.99747 0.298 0.0
C885 C 0.4585 0.98961 0.29514 0.0
C886 C 0.48075 0.9956 0.32207 0.0
C887 C 0.47617 0.00969 0.35095 0.0
C888 C 0.50368 0.01325 0.37629 0.0
C889 C 0.52833 0.05314 0.38612 0.0
C890 C 0.48484 0.98935 0.40626 0.0
C891 C 0.52443 0.99902 0.35712 0.0
C892 C 0.51073 0.98891 0.32592 0.0
C893 C 0.52587 0.97558 0.3035 0.0
C894 C 0.55636 0.97335 0.31297 0.0
C895 C 0.57139 0.98434 0.34461 0.0
C896 C 0.55467 0.99674 0.36704 0.0
H897 H 0.57046 0.575 0.65096 0.0
H898 H 0.63597 0.52769 0.67929 0.0
H899 H 0.58038 0.46752 0.68368 0.0
H900 H 0.49839 0.524 0.70659 0.0
H901 H 0.46309 0.51935 0.67935 0.0
H902 H 0.50805 0.55808 0.67596 0.0
H903 H 0.51081 0.54317 0.61509 0.0
H904 H 0.46573 0.50452 0.61815 0.0
H905 H 0.50259 0.49873 0.60394 0.0
H906 H 0.51787 0.41284 0.6851 0.0
H907 H 0.45266 0.36748 0.6856 0.0
H908 H 0.42709 0.45098 0.65976 0.0
C909 C 0.57322 0.55188 0.65753 0.0
C910 C 0.60763 0.55589 0.66434 0.0
C911 C 0.60993 0.52515 0.67373 0.0
C912 C 0.57852 0.49092 0.67629 0.0
C913 C 0.545 0.48802 0.6698 0.0
C914 C 0.54212 0.51769 0.66076 0.0
C915 C 0.50272 0.5076 0.65674 0.0
C916 C 0.49247 0.5285 0.68112 0.0
C917 C 0.49502 0.51387 0.62137 0.0
C918 C 0.48382 0.46751 0.66492 0.0
C919 C 0.50879 0.45678 0.67206 0.0
C920 C 0.49809 0.42096 0.67965 0.0
C921 C 0.46095 0.39538 0.67982 0.0
C922 C 0.43475 0.4057 0.67285 0.0
C923 C 0.44644 0.44237 0.66553 0.0
H924 H 0.01728 0.5634 0.04661 0.0
H925 H 0.98307 0.57729 0.95049 0.0
H926 H 0.96891 0.51549 0.93543 0.0
H927 H 0.06037 0.51185 0.01711 0.0
H928 H 0.04731 0.48362 0.05304 0.0
H929 H 0.05563 0.52938 0.05576 0.0
H930 H 0.99155 0.50509 0.08059 0.0
H931 H 0.98277 0.45923 0.07737 0.0
H932 H 0.9524 0.47174 0.05845 0.0
H933 H 0.95195 0.44953 0.93309 0.0
H934 H 0.9449 0.38849 0.93975 0.0
H935 H 0.99565 0.41961 0.03505 0.0
C936 C 0.00743 0.55365 0.02221 0.0
C937 C 1.00108 0.5751 0.99982 0.0
C938 C 0.98826 0.56144 0.96806 0.0
C939 C 0.97987 0.52623 0.95933 0.0
C940 C 0.98531 0.50533 0.98233 0.0
C941 C 0.99985 0.5189 0.01276 0.0
C942 C 0.00404 0.49118 0.03258 0.0
C943 C 0.04423 0.50482 0.04005 0.0
C944 C 0.98133 0.48123 0.06411 0.0
C945 C 0.98884 0.45968 0.00883 0.0
C946 C 0.97765 0.46816 0.98017 0.0
C947 C 0.96111 0.44275 0.95523 0.0
C948 C 0.95687 0.40809 0.95933 0.0
C949 C 0.96973 0.39951 0.98786 0.0
C950 C 0.98569 0.4256 0.01294 0.0
H951 H 0.98228 0.5516 0.30448 0.0
H952 H 0.03273 0.61133 0.39324 0.0
H953 H 0.04959 0.56558 0.40822 0.0
H954 H 0.94499 0.46129 0.34243 0.0
H955 H 0.95169 0.44147 0.30608 0.0
H956 H 0.9431 0.47868 0.30278 0.0
H957 H 1.00219 0.51466 0.26908 0.0
H958 H 0.01129 0.47783 0.27274 0.0
H959 H 0.04463 0.52269 0.28605 0.0
H960 H 0.06657 0.51657 0.41059 0.0
H961 H 0.07234 0.4617 0.40543 0.0
H962 H 0.00579 0.43071 0.31822 0.0
C963 C 0.99638 0.55471 0.32731 0.0
C964 C 0.00634 0.58513 0.3476 0.0
C965 C 0.02466 0.5882 0.37735 0.0
C966 C 0.03461 0.56247 0.38597 0.0
C967 C 0.02528 0.53334 0.36499 0.0
C968 C 0.00565 0.52873 0.33675 0.0
C969 C 0.99803 0.49435 0.31902 0.0
C970 C 0.95702 0.46735 0.3175 0.0
C971 C 0.01506 0.50292 0.28469 0.0
C972 C 0.01707 0.48079 0.34134 0.0
C973 C 0.03312 0.50395 0.36745 0.0
C974 C 0.05368 0.49796 0.3905 0.0
C975 C 0.05712 0.46697 0.38722 0.0
C976 C 0.0395 0.4421 0.36148 0.0
C977 C 0.01942 0.44929 0.33821 0.0
H978 H 0.55237 0.97278 0.68151 0.0
H979 H 0.62294 0.08951 0.67664 0.0
H980 H 0.56912 0.09733 0.6781 0.0
H981 H 0.48341 0.9694 0.62858 0.0
H982 H 0.44645 0.9331 0.65071 0.0
H983 H 0.49049 0.93683 0.65062 0.0
H984 H 0.4911 0.9379 0.71386 0.0
H985 H 0.44709 0.93425 0.71419 0.0
H986 H 0.48455 0.97125 0.73514 0.0
H987 H 0.50792 0.09236 0.68154 0.0
H988 H 0.44359 0.07547 0.68187 0.0
H989 H 0.41207 0.96147 0.68117 0.0
C990 C 0.55652 1.00002 0.68097 0.0
C991 C 0.59187 0.03064 0.67928 0.0
C992 C 0.59614 0.06575 0.67798 0.0
C993 C 0.56575 0.07042 0.67891 0.0
C994 C 0.5313 0.03967 0.68066 0.0
C995 C 0.5265 0.00513 0.68128 0.0
C996 C 0.48652 0.97657 0.68178 0.0
C997 C 0.47611 0.95257 0.65109 0.0
C998 C 0.47675 0.95365 0.71311 0.0
C999 C 0.4695 1.00045 0.68154 0.0
C1000 C 0.49589 0.03674 0.68126 0.0
C1001 C 0.48704 0.06405 0.68161 0.0
C1002 C 0.45031 0.0541 0.68194 0.0
C1003 C 0.42264 0.01709 0.68152 0.0
C1004 C 0.43252 0.98995 0.68135 0.0
H1005 H 0.44786 0.43246 0.05472 0.0
H1006 H 0.43222 0.41446 0.95025 0.0
H1007 H 0.47814 0.47862 0.94027 0.0
H1008 H 0.4618 0.5216 0.05723 0.0
H1009 H 0.49748 0.53847 0.08729 0.0
H1010 H 0.4636 0.49104 0.08662 0.0
H1011 H 0.51368 0.4737 0.0815 0.0
H1012 H 0.54775 0.52104 0.08279 0.0
H1013 H 0.54676 0.49323 0.04917 0.0
H1014 H 0.52125 0.54581 0.94188 0.0
H1015 H 0.56823 0.60887 0.95402 0.0
H1016 H 0.56116 0.5824 0.05711 0.0
C1017 C 0.45461 0.442 0.02977 0.0
C1018 C 0.43663 0.4186 0.00321 0.0
C1019 C 0.44602 0.43188 0.97089 0.0
C1020 C 0.47178 0.46835 0.96501 0.0
C1021 C 0.48845 0.49096 0.9917 0.0
C1022 C 0.48109 0.47811 0.02341 0.0
C1023 C 0.50416 0.50783 0.04759 0.0
C1024 C 0.48033 0.51516 0.07107 0.0
C1025 C 0.5296 0.49838 0.06636 0.0
C1026 C 0.52518 0.53949 0.02454 0.0
C1027 C 0.51513 0.52928 0.99247 0.0
C1028 C 0.52968 0.55402 0.96685 0.0
C1029 C 0.55611 0.58989 0.97404 0.0
C1030 C 0.56831 0.60052 0.0065 0.0
C1031 C 0.5523 0.575 0.03208 0.0
H1032 H 0.07883 0.79351 0.31006 0.0
H1033 H 0.02121 0.82341 0.37942 0.0
H1034 H 0.06934 0.88806 0.37393 0.0
H1035 H 0.16521 0.85118 0.33897 0.0
H1036 H 0.1862 0.86067 0.29921 0.0
H1037 H 0.14522 0.81844 0.30648 0.0
H1038 H 0.11462 0.832 0.25795 0.0
H1039 H 0.15556 0.87462 0.25092 0.0
H1040 H 0.1132 0.8736 0.25755 0.0
H1041 H 0.129 0.94912 0.36489 0.0
H1042 H 0.19235 0.99785 0.3544 0.0
H1043 H 0.20699 0.92545 0.28981 0.0
C1044 C 0.07586 0.81353 0.3239 0.0
C1045 C 0.0463 0.80333 0.34532 0.0
C1046 C 0.0436 0.83062 0.36278 0.0
C1047 C 0.07078 0.86737 0.35976 0.0
C1048 C 0.10003 0.87629 0.33878 0.0
C1049 C 0.10234 0.84991 0.32101 0.0
C1050 C 0.1372 0.86535 0.30179 0.0
C1051 C 0.15977 0.84788 0.31226 0.0
C1052 C 0.12968 0.86115 0.26486 0.0
C1053 C 0.15493 0.90455 0.31211 0.0
C1054 C 0.13324 0.91075 0.33322 0.0
C1055 C 0.14585 0.94461 0.34792 0.0
C1056 C 0.18182 0.97224 0.34168 0.0
C1057 C 0.20471 0.96562 0.32114 0.0
C1058 C 0.19031 0.93169 0.30539 0.0
H1059 H 0.26398 0.19609 0.61812 0.0
H1060 H 0.20808 0.19459 0.70678 0.0
H1061 H 0.18667 0.12903 0.71352 0.0
H1062 H 0.1999 0.09751 0.59158 0.0
H1063 H 0.23824 0.09402 0.5777 0.0
H1064 H 0.23907 0.13668 0.57476 0.0
H1065 H 0.29918 0.1677 0.60735 0.0
H1066 H 0.29828 0.1254 0.61068 0.0
H1067 H 0.30098 0.15043 0.64711 0.0
H1068 H 0.18493 0.06865 0.71754 0.0
H1069 H 0.20295 0.0215 0.71811 0.0
H1070 H 0.26035 0.06337 0.62692 0.0
C1071 C 0.2456 0.18136 0.63795 0.0
C1072 C 0.23695 0.19987 0.66156 0.0
C1073 C 0.21398 0.18042 0.68794 0.0
C1074 C 0.20193 0.14325 0.69199 0.0
C1075 C 0.21281 0.12608 0.66919 0.0
C1076 C 0.23367 0.14456 0.64229 0.0
C1077 C 0.24702 0.12251 0.62424 0.0
C1078 C 0.23002 0.11205 0.59005 0.0
C1079 C 0.28882 0.14273 0.62231 0.0
C1080 C 0.23255 0.08971 0.64624 0.0
C1081 C 0.21206 0.09157 0.67164 0.0
C1082 C 0.19994 0.06637 0.69721 0.0
C1083 C 0.2101 0.03956 0.69733 0.0
C1084 C 0.2326 0.03873 0.67233 0.0
C1085 C 0.24257 0.06316 0.64598 0.0
H1086 H 0.22276 0.30535 0.05377 0.0
H1087 H 0.20215 0.20498 0.00776 0.0
H1088 H 0.13906 0.19012 0.99615 0.0
H1089 H 0.13146 0.2725 0.08841 0.0
H1090 H 0.13372 0.31508 0.07978 0.0
H1091 H 0.17459 0.31404 0.08878 0.0
H1092 H 0.20241 0.34754 0.03448 0.0
H1093 H 0.16145 0.34782 0.02459 0.0
H1094 H 0.1794 0.32809 0.99653 0.0
H1095 H 0.0792 0.19012 0.98467 0.0
H1096 H 0.02975 0.20422 0.97652 0.0
H1097 H 0.09375 0.30599 0.02808 0.0
C1098 C 0.20489 0.27971 0.04202 0.0
C1099 C 0.21752 0.25629 0.03182 0.0
C1100 C 0.19306 0.22322 0.01617 0.0
C1101 C 0.1572 0.21464 0.00932 0.0
C1102 C 0.14626 0.23932 0.01844 0.0
C1103 C 0.16947 0.271 0.03481 0.0
C1104 C 0.15282 0.29468 0.03979 0.0
C1105 C 0.14784 0.29932 0.07636 0.0
C1106 C 0.17535 0.33169 0.02281 0.0
C1107 C 0.11681 0.27186 0.02308 0.0
C1108 C 0.11302 0.23981 0.01116 0.0
C1109 C 0.0819 0.21507 0.99416 0.0
C1110 C 0.05402 0.22335 0.9895 0.0
C1111 C 0.05777 0.2563 1.00147 0.0
C1112 C 0.08972 0.28057 0.01845 0.0
H1113 H 0.90872 0.22169 0.35524 0.0
H1114 H 0.9884 0.18763 0.3683 0.0
H1115 H 0.9404 0.12383 0.35846 0.0
H1116 H 0.83393 0.14486 0.39456 0.0
H1117 H 0.80143 0.14485 0.3664 0.0
H1118 H 0.84216 0.18665 0.37591 0.0
H1119 H 0.85745 0.19718 0.31412 0.0
H1120 H 0.8172 0.155 0.30447 0.0
H1121 H 0.8609 0.16313 0.29078 0.0
H1122 H 0.88184 0.06294 0.34454 0.0
H1123 H 0.81952 0.01254 0.33297 0.0
H1124 H 0.78171 0.09006 0.32956 0.0
C1125 C 0.91632 0.201 0.35655 0.0
C1126 C 0.95247 0.20984 0.36262 0.0
C1127 C 0.96087 0.18157 0.36388 0.0
C1128 C 0.93381 0.14528 0.35813 0.0
C1129 C 0.89857 0.13782 0.35136 0.0
C1130 C 0.88993 0.16506 0.35101 0.0
C1131 C 0.8505 0.15079 0.34307 0.0
C1132 C 0.83086 0.15715 0.37169 0.0
C1133 C 0.84629 0.16752 0.31122 0.0
C1134 C 0.83801 0.11109 0.33885 0.0
C1135 C 0.86585 0.10379 0.34353 0.0
C1136 C 0.85993 0.0685 0.3409 0.0
C1137 C 0.8245 0.04006 0.33411 0.0
C1138 C 0.79558 0.04719 0.33021 0.0
C1139 C 0.80296 0.08337 0.33218 0.0
H1140 H 0.68862 0.77342 0.65895 0.0
H1141 H 0.80261 0.81096 0.67617 0.0
H1142 H 0.81283 0.87261 0.68774 0.0
H1143 H 0.69922 0.85444 0.62092 0.0
H1144 H 0.65892 0.84961 0.64014 0.0
H1145 H 0.66224 0.81001 0.63112 0.0
H1146 H 0.64907 0.79063 0.69191 0.0
H1147 H 0.64627 0.83045 0.70122 0.0
H1148 H 0.67757 0.82147 0.72324 0.0
H1149 H 0.80892 0.9308 0.69906 0.0
H1150 H 0.79167 0.97805 0.70688 0.0
H1151 H 0.67985 0.89818 0.68477 0.0
C1152 C 0.71597 0.79449 0.66473 0.0
C1153 C 0.74483 0.78719 0.66648 0.0
C1154 C 0.78006 0.81587 0.67437 0.0
C1155 C 0.78607 0.85093 0.68115 0.0
C1156 C 0.75658 0.85676 0.68003 0.0
C1157 C 0.72228 0.82915 0.67182 0.0
C1158 C 0.69459 0.84132 0.6732 0.0
C1159 C 0.67777 0.8387 0.63933 0.0
C1160 C 0.66516 0.81969 0.69893 0.0
C1161 C 0.71848 0.88023 0.68353 0.0
C1162 C 0.7542 0.88902 0.68729 0.0
C1163 C 0.78096 0.92403 0.69622 0.0
C1164 C 0.7709 0.95066 0.7008 0.0
C1165 C 0.73437 0.94199 0.69657 0.0
C1166 C 0.70804 0.90605 0.68832 0.0
H1167 H 0.78325 0.69932 0.04134 0.0
H1168 H 0.81171 0.80546 0.00336 0.0
H1169 H 0.87391 0.81746 0.99186 0.0
H1170 H 0.8716 0.72396 0.07742 0.0
H1171 H 0.86732 0.68122 0.06564 0.0
H1172 H 0.82736 0.68395 0.07476 0.0
H1173 H 0.80115 0.65639 0.01806 0.0
H1174 H 0.84124 0.6543 0.00838 0.0
H1175 H 0.82677 0.67831 0.98173 0.0
H1176 H 0.93271 0.81493 0.98046 0.0
H1177 H 0.98058 0.79849 0.97219 0.0
H1178 H 0.90931 0.69301 0.01531 0.0
C1179 C 0.80261 0.72551 0.0313 0.0
C1180 C 0.79244 0.75147 0.0234 0.0
C1181 C 0.81884 0.78521 0.00996 0.0
C1182 C 0.85424 0.79221 0.00319 0.0
C1183 C 0.8628 0.76526 0.01011 0.0
C1184 C 0.83763 0.73273 0.02418 0.0
C1185 C 0.85208 0.70697 0.02734 0.0
C1186 C 0.85476 0.69855 0.06344 0.0
C1187 C 0.82894 0.67195 0.00769 0.0
C1188 C 0.88915 0.7297 0.01232 0.0
C1189 C 0.89535 0.76342 0.00277 0.0
C1190 C 0.92805 0.78859 0.98801 0.0
C1191 C 0.95503 0.77899 0.98324 0.0
C1192 C 0.94882 0.74438 0.99286 0.0
C1193 C 0.91526 0.71968 0.00745 0.0
H1194 H 0.33618 0.05109 0.43715 0.0
H1195 H 0.28653 0.9383 0.40797 0.0
H1196 H 0.27937 0.92013 0.46618 0.0
H1197 H 0.38607 0.04415 0.50703 0.0
H1198 H 0.37962 0.07592 0.53112 0.0
H1199 H 0.38202 0.07975 0.48723 0.0
H1200 H 0.31976 0.07682 0.48643 0.0
H1201 H 0.31709 0.07277 0.53025 0.0
H1202 H 0.28112 0.03897 0.50539 0.0
H1203 H 0.27181 0.91433 0.5278 0.0
H1204 H 0.27048 0.92159 0.58757 0.0
H1205 H 0.32959 0.03846 0.57611 0.0
C1206 C 0.32411 0.02259 0.44294 0.0
C1207 C 0.31174 0.99607 0.41802 0.0
C1208 C 0.29636 0.95907 0.42666 0.0
C1209 C 0.29206 0.94851 0.45965 0.0
C1210 C 0.30397 0.97537 0.48362 0.0
C1211 C 0.3203 0.0117 0.47562 0.0
C1212 C 0.33071 0.03528 0.5059 0.0
C1213 C 0.37207 0.06025 0.50794 0.0
C1214 C 0.31098 0.05724 0.50705 0.0
C1215 C 0.31701 0.00651 0.53227 0.0
C1216 C 0.30139 0.97211 0.51896 0.0
C1217 C 0.28456 0.94117 0.53848 0.0
C1218 C 0.28378 0.94554 0.57243 0.0
C1219 C 0.30021 0.98055 0.5866 0.0
C1220 C 0.31732 0.01134 0.56612 0.0
H1221 H 0.34131 0.28034 0.91352 0.0
H1222 H 0.29647 0.34873 0.93987 0.0
H1223 H 0.28797 0.35691 0.88168 0.0
H1224 H 0.39073 0.3336 0.8419 0.0
H1225 H 0.38271 0.29452 0.81832 0.0
H1226 H 0.3853 0.29364 0.86222 0.0
H1227 H 0.32192 0.23572 0.86398 0.0
H1228 H 0.31911 0.23648 0.8201 0.0
H1229 H 0.28396 0.23611 0.84497 0.0
H1230 H 0.28049 0.35472 0.82164 0.0
H1231 H 0.27969 0.34721 0.76218 0.0
H1232 H 0.33352 0.28412 0.77269 0.0
C1233 C 0.3298 0.29708 0.90697 0.0
C1234 C 0.31943 0.31381 0.9313 0.0
C1235 C 0.30477 0.33579 0.92175 0.0
C1236 C 0.29971 0.34051 0.88873 0.0
C1237 C 0.31 0.32359 0.86542 0.0
C1238 C 0.32523 0.30276 0.87394 0.0
C1239 C 0.33466 0.2884 0.84369 0.0
C1240 C 0.37579 0.30344 0.8414 0.0
C1241 C 0.31365 0.2467 0.84317 0.0
C1242 C 0.32169 0.30393 0.81696 0.0
C1243 C 0.30732 0.32386 0.83023 0.0
C1244 C 0.29209 0.33958 0.81089 0.0
C1245 C 0.29166 0.33504 0.77703 0.0
C1246 C 0.30682 0.31539 0.76256 0.0
C1247 C 0.32219 0.29974 0.78293 0.0
H1248 H 0.01821 0.35105 0.24592 0.0
H1249 H 0.01105 0.24801 0.26809 0.0
H1250 H 0.99633 0.22942 0.21068 0.0
H1251 H 0.9464 0.31814 0.18647 0.0
H1252 H 0.96964 0.35648 0.15946 0.0
H1253 H 0.97884 0.36194 0.20268 0.0
H1254 H 0.04735 0.3879 0.19127 0.0
H1255 H 0.03838 0.38281 0.14802 0.0
H1256 H 0.06166 0.36202 0.16691 0.0
H1257 H 0.98018 0.22065 0.15204 0.0
H1258 H 0.97089 0.22491 0.09337 0.0
H1259 H 0.99236 0.33513 0.10697 0.0
C1260 C 0.0136 0.32465 0.23856 0.0
C1261 C 0.01581 0.30097 0.26145 0.0
C1262 C 0.00988 0.26673 0.25095 0.0
C1263 C 1.0012 0.25578 0.21843 0.0
C1264 C 0.99904 0.27957 0.19652 0.0
C1265 C 0.00566 0.31353 0.20587 0.0
C1266 C 1.00319 0.33431 0.17681 0.0
C1267 C 0.9727 0.34324 0.18165 0.0
C1268 C 0.03983 0.3688 0.17038 0.0
C1269 C 0.99394 0.30656 0.14985 0.0
C1270 C 0.99121 0.27505 0.16198 0.0
C1271 C 0.98245 0.24525 0.14215 0.0
C1272 C 0.97707 0.24793 0.1088 0.0
C1273 C 0.98098 0.2804 0.09541 0.0
C1274 C 0.98921 0.30997 0.1164 0.0
H1275 H 0.65714 0.99271 0.43724 0.0
H1276 H 0.731 0.95062 0.4277 0.0
H1277 H 0.73989 0.95468 0.48703 0.0
H1278 H 0.70424 0.05569 0.50132 0.0
H1279 H 0.66398 0.04762 0.52297 0.0
H1280 H 0.66246 0.04101 0.4794 0.0
H1281 H 0.60965 0.97504 0.48646 0.0
H1282 H 0.61092 0.98147 0.53006 0.0
H1283 H 0.61522 0.94465 0.51333 0.0
H1284 H 0.74472 0.967 0.54614 0.0
H1285 H 0.74083 0.98199 0.60361 0.0
H1286 H 0.66075 0.01209 0.57732 0.0
C1287 C 0.67497 0.98413 0.44765 0.0
C1288 C 0.69344 0.97146 0.42758 0.0
C1289 C 0.71647 0.9604 0.44232 0.0
C1290 C 0.7218 0.96264 0.4761 0.0
C1291 C 0.70355 0.97551 0.49507 0.0
C1292 C 0.68021 0.98562 0.4816 0.0
C1293 C 0.66384 0.9982 0.50796 0.0
C1294 C 0.67426 0.038 0.50258 0.0
C1295 C 0.62244 0.97335 0.50954 0.0
C1296 C 0.68209 0.994 0.53816 0.0
C1297 C 0.70512 0.98116 0.52992 0.0
C1298 C 0.7265 0.97668 0.55301 0.0
C1299 C 0.72426 0.98544 0.58551 0.0
C1300 C 0.70045 0.99803 0.59473 0.0
C1301 C 0.67884 1.0021 0.57082 0.0
H1302 H 0.72689 0.73579 0.9104 0.0
H1303 H 0.63532 0.63036 0.93454 0.0
H1304 H 0.62705 0.61399 0.87584 0.0
H1305 H 0.69281 0.7505 0.83663 0.0
H1306 H 0.73582 0.77122 0.81563 0.0
H1307 H 0.73448 0.77443 0.85943 0.0
H1308 H 0.77573 0.74615 0.86543 0.0
H1309 H 0.77749 0.74317 0.82163 0.0
H1310 H 0.76254 0.70315 0.84635 0.0
H1311 H 0.62648 0.61132 0.81375 0.0
H1312 H 0.63889 0.61916 0.7542 0.0
H1313 H 0.73361 0.72442 0.77203 0.0
C1314 C 0.70524 0.70918 0.90333 0.0
C1315 C 0.68158 0.68437 0.92684 0.0
C1316 C 0.65378 0.64966 0.9168 0.0
C1317 C 0.64877 0.64025 0.88356 0.0
C1318 C 0.67226 0.66562 0.86088 0.0
C1319 C 0.70041 0.69908 0.87045 0.0
C1320 C 0.72261 0.72108 0.8415 0.0
C1321 C 0.72133 0.75639 0.83811 0.0
C1322 C 0.76192 0.72883 0.84387 0.0
C1323 C 0.70234 0.69497 0.81404 0.0
C1324 C 0.67307 0.66332 0.82559 0.0
C1325 C 0.64957 0.63581 0.80449 0.0
C1326 C 0.65664 0.64056 0.77078 0.0
C1327 C 0.68728 0.67225 0.75874 0.0
C1328 C 0.71021 0.69976 0.78069 0.0
H1329 H 0.99957 0.66132 0.24595 0.0
H1330 H 0.9473 0.7262 0.25572 0.0
H1331 H 0.9518 0.73623 0.19651 0.0
H1332 H 0.06205 0.71381 0.18423 0.0
H1333 H 0.05878 0.67594 0.16166 0.0
H1334 H 0.05021 0.67201 0.20499 0.0
H1335 H 0.98687 0.61563 0.19547 0.0
H1336 H 0.99533 0.61919 0.1521 0.0
H1337 H 0.95557 0.61873 0.16788 0.0
H1338 H 0.96672 0.74448 0.13775 0.0
H1339 H 0.98528 0.74469 0.08064 0.0
H1340 H 0.02391 0.67109 0.10638 0.0
C1341 C 0.98859 0.67718 0.23559 0.0
C1342 C 0.9732 0.69305 0.25575 0.0
C1343 C 0.95927 0.71372 0.24107 0.0
C1344 C 0.96172 0.71968 0.20735 0.0
C1345 C 0.97767 0.70437 0.18836 0.0
C1346 C 0.99031 0.68301 0.20171 0.0
C1347 C 0.00634 0.66996 0.17543 0.0
C1348 C 0.04674 0.68376 0.18197 0.0
C1349 C 0.98473 0.62841 0.17255 0.0
C1350 C 1.00123 0.6879 0.14542 0.0
C1351 C 0.98491 0.70786 0.15368 0.0
C1352 C 0.97908 0.72859 0.13084 0.0
C1353 C 0.98993 0.72875 0.09857 0.0
C1354 C 0.00594 0.70792 0.08928 0.0
C1355 C 0.01143 0.68698 0.11293 0.0
loop_
_geom_bond_atom_site_label_1
_geom_bond_atom_site_label_2
_geom_bond_distance
_geom_bond_site_symmetry_2
_ccdc_geom_bond_type
Co0 O2 2.143 1_565 S
Co0 O8 2.074 . S
Co0 O11 2.093 1_565 S
Co0 O24 2.097 1_565 S
Co0 N41 2.151 . S
Co0 N49 2.214 . S
Co1 O2 2.160 . S
Co1 O7 2.058 . S
Co1 O17 2.057 . S
Co1 O32 2.037 . S
Co1 N36 2.145 . S
Co1 N57 2.257 . S
O2 Co0 2.143 1_545 S
O2 Co1 2.160 . S
C3 O4 1.278 . S
C3 O11 1.224 . S
O4 C3 1.278 . S
C5 O6 1.245 . S
C5 O17 1.232 . S
O6 C5 1.245 . S
O7 Co1 2.058 . S
O7 C33 1.269 1_545 S
O8 Co0 2.074 . S
O8 C33 1.257 . S
H9 C34 0.930 . S
H10 C40 0.930 . S
O11 Co0 2.093 1_545 S
O11 C3 1.224 . S
H12 C44 0.929 . S
H13 C46 0.930 . S
H14 C47 0.930 . S
H15 C45 0.929 . S
H16 C48 0.928 . S
O17 Co1 2.057 . S
O17 C5 1.232 . S
H18 C37 0.929 . S
H19 C38 0.929 . S
H20 C50 0.931 . S
H21 C42 0.929 . S
H22 C51 0.930 . S
H23 C43 0.931 . S
O24 Co0 2.097 1_545 S
O24 C52 1.214 . S
H25 C53 0.929 . S
H26 C54 0.929 . S
H27 C55 0.930 . S
H28 C56 0.929 . S
H29 C58 0.930 . S
H30 C35 0.930 . S
H31 C39 0.930 . S
O32 Co1 2.037 . S
O32 C52 1.234 . S
C33 O7 1.269 1_565 S
C33 O8 1.257 . S
C34 H9 0.930 . S
C34 C37 1.388 . S
C34 C39 1.418 . S
C35 H30 0.930 . S
C35 C38 1.404 . S
C35 C39 1.353 . S
N36 Co1 2.145 . S
N36 C37 1.397 . S
N36 C38 1.334 . S
C37 H18 0.929 . S
C37 C34 1.388 . S
C37 N36 1.397 . S
C38 H19 0.929 . S
C38 C35 1.404 . S
C38 N36 1.334 . S
C39 H31 0.930 . S
C39 C34 1.418 . S
C39 C35 1.353 . S
C40 H10 0.930 . S
C40 N41 1.330 . S
C40 C42 1.446 . S
N41 Co0 2.151 . S
N41 C40 1.330 . S
N41 C45 1.418 . S
C42 H21 0.929 . S
C42 C40 1.446 . S
C42 C43 1.332 . S
C43 H23 0.931 . S
C43 C42 1.332 . S
C43 C44 1.267 . S
C44 H12 0.929 . S
C44 C43 1.267 . S
C44 C45 1.251 . S
C45 H15 0.929 . S
C45 N41 1.418 . S
C45 C44 1.251 . S
C46 H13 0.930 . S
C46 C48 1.406 . S
C46 C51 1.261 . S
C47 H14 0.930 . S
C47 N49 1.325 . S
C47 C50 1.357 . S
C48 H16 0.928 . S
C48 C46 1.406 . S
C48 N49 1.261 . S
N49 Co0 2.214 . S
N49 C47 1.325 . S
N49 C48 1.261 . S
C50 H20 0.931 . S
C50 C47 1.357 . S
C50 C51 1.312 . S
C51 H22 0.930 . S
C51 C46 1.261 . S
C51 C50 1.312 . S
C52 O24 1.214 . S
C52 O32 1.234 . S
C53 H25 0.929 . S
C53 C56 1.391 . S
C53 C58 1.391 . S
C54 H26 0.929 . S
C54 C55 1.390 . S
C54 N57 1.391 . S
C55 H27 0.930 . S
C55 C54 1.390 . S
C55 C56 1.392 . S
C56 H28 0.929 . S
C56 C53 1.391 . S
C56 C55 1.392 . S
N57 Co1 2.257 . S
N57 C54 1.391 . S
N57 C58 1.388 . S
C58 H29 0.930 . S
C58 C53 1.391 . S
C58 N57 1.388 . S
Co59 O61 2.143 . S
Co59 O67 2.074 . S
Co59 O70 2.093 . S
Co59 O83 2.097 . S
Co59 N100 2.151 . S
Co59 N108 2.214 . S
Co60 O61 2.160 . S
Co60 O66 2.058 . S
Co60 O76 2.057 . S
Co60 O91 2.037 . S
Co60 N95 2.145 . S
Co60 N116 2.257 . S
O61 Co59 2.143 . S
O61 Co60 2.160 . S
C62 O63 1.278 . S
C62 O70 1.224 . S
O63 C62 1.278 . S
C64 O65 1.245 . S
C64 O76 1.232 . S
O65 C64 1.245 . S
O66 Co60 2.058 . S
O66 C92 1.269 . S
O67 Co59 2.074 . S
O67 C92 1.257 . S
H68 C93 0.930 . S
H69 C99 0.930 . S
O70 Co59 2.093 . S
O70 C62 1.224 . S
H71 C103 0.929 . S
H72 C105 0.930 . S
H73 C106 0.930 . S
H74 C104 0.929 . S
H75 C107 0.928 . S
O76 Co60 2.057 . S
O76 C64 1.232 . S
H77 C96 0.929 . S
H78 C97 0.929 . S
H79 C109 0.931 . S
H80 C101 0.929 . S
H81 C110 0.930 . S
H82 C102 0.931 . S
O83 Co59 2.097 . S
O83 C111 1.214 . S
H84 C112 0.929 . S
H85 C113 0.929 . S
H86 C114 0.930 . S
H87 C115 0.929 . S
H88 C117 0.930 . S
H89 C94 0.930 . S
H90 C98 0.930 . S
O91 Co60 2.037 . S
O91 C111 1.234 . S
C92 O66 1.269 . S
C92 O67 1.257 . S
C93 H68 0.930 . S
C93 C96 1.388 . S
C93 C98 1.418 . S
C94 H89 0.930 . S
C94 C97 1.404 . S
C94 C98 1.353 . S
N95 Co60 2.145 . S
N95 C96 1.397 . S
N95 C97 1.334 . S
C96 H77 0.929 . S
C96 C93 1.388 . S
C96 N95 1.397 . S
C97 H78 0.929 . S
C97 C94 1.404 . S
C97 N95 1.334 . S
C98 H90 0.930 . S
C98 C93 1.418 . S
C98 C94 1.353 . S
C99 H69 0.930 . S
C99 N100 1.330 . S
C99 C101 1.446 . S
N100 Co59 2.151 . S
N100 C99 1.330 . S
N100 C104 1.418 . S
C101 H80 0.929 . S
C101 C99 1.446 . S
C101 C102 1.332 . S
C102 H82 0.931 . S
C102 C101 1.332 . S
C102 C103 1.267 . S
C103 H71 0.929 . S
C103 C102 1.267 . S
C103 C104 1.251 . S
C104 H74 0.929 . S
C104 N100 1.418 . S
C104 C103 1.251 . S
C105 H72 0.930 . S
C105 C107 1.406 . S
C105 C110 1.261 . S
C106 H73 0.930 . S
C106 N108 1.325 . S
C106 C109 1.357 . S
C107 H75 0.928 . S
C107 C105 1.406 . S
C107 N108 1.261 . S
N108 Co59 2.214 . S
N108 C106 1.325 . S
N108 C107 1.261 . S
C109 H79 0.931 . S
C109 C106 1.357 . S
C109 C110 1.312 . S
C110 H81 0.930 . S
C110 C105 1.261 . S
C110 C109 1.312 . S
C111 O83 1.214 . S
C111 O91 1.234 . S
C112 H84 0.929 . S
C112 C115 1.391 . S
C112 C117 1.391 . S
C113 H85 0.929 . S
C113 C114 1.390 . S
C113 N116 1.391 . S
C114 H86 0.930 . S
C114 C113 1.390 . S
C114 C115 1.392 . S
C115 H87 0.929 . S
C115 C112 1.391 . S
C115 C114 1.392 . S
N116 Co60 2.257 . S
N116 C113 1.391 . S
N116 C117 1.388 . S
C117 H88 0.930 . S
C117 C112 1.391 . S
C117 N116 1.388 . S
Co118 O120 2.143 1_454 S
Co118 O126 2.074 . S
Co118 O129 2.094 1_455 S
Co118 O142 2.097 1_455 S
Co118 N159 2.151 1_554 S
Co118 N167 2.214 . S
Co119 O120 2.161 . S
Co119 O125 2.059 . S
Co119 O135 2.060 . S
Co119 O150 2.033 1_556 S
Co119 N154 2.143 1_556 S
Co119 N175 2.256 1_556 S
O120 Co118 2.143 1_656 S
O120 Co119 2.161 . S
C121 O122 1.278 . S
C121 O129 1.219 1_556 S
O122 C121 1.278 . S
C123 O124 1.245 . S
C123 O135 1.232 . S
O124 C123 1.245 . S
O125 Co119 2.059 . S
O125 C151 1.269 1_655 S
O126 Co118 2.074 . S
O126 C151 1.257 1_554 S
H127 C152 0.930 . S
H128 C158 0.930 . S
O129 Co118 2.094 1_655 S
O129 C121 1.219 1_554 S
H130 C162 0.929 . S
H131 C164 0.930 . S
H132 C165 0.930 . S
H133 C163 0.929 . S
H134 C166 0.928 . S
O135 Co119 2.060 . S
O135 C123 1.232 . S
H136 C155 0.929 . S
H137 C156 0.932 1_556 S
H138 C168 0.931 . S
H139 C160 0.929 . S
H140 C169 0.930 . S
H141 C161 0.931 . S
O142 Co118 2.097 1_655 S
O142 C170 1.214 . S
H143 C171 0.929 1_556 S
H144 C172 0.929 . S
H145 C173 0.930 . S
H146 C174 0.929 . S
H147 C176 0.930 . S
H148 C153 0.930 1_556 S
H149 C157 0.930 . S
O150 Co119 2.033 1_554 S
O150 C170 1.234 . S
C151 O125 1.269 1_455 S
C151 O126 1.257 1_556 S
C152 H127 0.930 . S
C152 C155 1.388 . S
C152 C157 1.418 . S
C153 H148 0.930 1_554 S
C153 C156 1.403 . S
C153 C157 1.353 . S
N154 Co119 2.143 1_554 S
N154 C155 1.397 . S
N154 C156 1.333 . S
C155 H136 0.929 . S
C155 C152 1.388 . S
C155 N154 1.397 . S
C156 H137 0.932 1_554 S
C156 C153 1.403 . S
C156 N154 1.333 . S
C157 H149 0.930 . S
C157 C152 1.418 . S
C157 C153 1.353 . S
C158 H128 0.930 . S
C158 N159 1.330 . S
C158 C160 1.446 . S
N159 Co118 2.151 1_556 S
N159 C158 1.330 . S
N159 C163 1.418 . S
C160 H139 0.929 . S
C160 C158 1.446 . S
C160 C161 1.332 . S
C161 H141 0.931 . S
C161 C160 1.332 . S
C161 C162 1.267 . S
C162 H130 0.929 . S
C162 C161 1.267 . S
C162 C163 1.251 . S
C163 H133 0.929 . S
C163 N159 1.418 . S
C163 C162 1.251 . S
C164 H131 0.930 . S
C164 C166 1.406 . S
C164 C169 1.261 . S
C165 H132 0.930 . S
C165 N167 1.325 . S
C165 C168 1.357 . S
C166 H134 0.928 . S
C166 C164 1.406 . S
C166 N167 1.261 . S
N167 Co118 2.214 . S
N167 C165 1.325 . S
N167 C166 1.261 . S
C168 H138 0.931 . S
C168 C165 1.357 . S
C168 C169 1.312 . S
C169 H140 0.930 . S
C169 C164 1.261 . S
C169 C168 1.312 . S
C170 O142 1.214 . S
C170 O150 1.234 . S
C171 H143 0.929 1_554 S
C171 C174 1.391 . S
C171 C176 1.391 1_554 S
C172 H144 0.929 . S
C172 C173 1.390 . S
C172 N175 1.391 . S
C173 H145 0.930 . S
C173 C172 1.390 . S
C173 C174 1.392 . S
C174 H146 0.929 . S
C174 C171 1.391 . S
C174 C173 1.392 . S
N175 Co119 2.256 1_554 S
N175 C172 1.391 . S
N175 C176 1.388 1_554 S
C176 H147 0.930 . S
C176 C171 1.391 1_556 S
C176 N175 1.388 1_556 S
Co177 O179 2.143 1_545 S
Co177 O185 2.074 . S
Co177 O188 2.093 1_545 S
Co177 O201 2.097 1_545 S
Co177 N218 2.151 . S
Co177 N226 2.214 . S
Co178 O179 2.160 . S
Co178 O184 2.058 . S
Co178 O194 2.057 . S
Co178 O209 2.037 . S
Co178 N213 2.145 . S
Co178 N234 2.257 . S
O179 Co177 2.143 1_565 S
O179 Co178 2.160 . S
C180 O181 1.278 . S
C180 O188 1.224 . S
O181 C180 1.278 . S
C182 O183 1.245 . S
C182 O194 1.232 . S
O183 C182 1.245 . S
O184 Co178 2.058 . S
O184 C210 1.269 1_565 S
O185 Co177 2.074 . S
O185 C210 1.257 . S
H186 C211 0.930 . S
H187 C217 0.930 . S
O188 Co177 2.093 1_565 S
O188 C180 1.224 . S
H189 C221 0.929 . S
H190 C223 0.930 . S
H191 C224 0.930 . S
H192 C222 0.929 . S
H193 C225 0.928 . S
O194 Co178 2.057 . S
O194 C182 1.232 . S
H195 C214 0.929 . S
H196 C215 0.929 . S
H197 C227 0.931 . S
H198 C219 0.929 . S
H199 C228 0.930 . S
H200 C220 0.931 . S
O201 Co177 2.097 1_565 S
O201 C229 1.214 . S
H202 C230 0.929 . S
H203 C231 0.929 . S
H204 C232 0.930 . S
H205 C233 0.929 . S
H206 C235 0.930 . S
H207 C212 0.930 . S
H208 C216 0.930 . S
O209 Co178 2.037 . S
O209 C229 1.234 . S
C210 O184 1.269 1_545 S
C210 O185 1.257 . S
C211 H186 0.930 . S
C211 C214 1.388 . S
C211 C216 1.418 . S
C212 H207 0.930 . S
C212 C215 1.404 . S
C212 C216 1.353 . S
N213 Co178 2.145 . S
N213 C214 1.397 . S
N213 C215 1.334 . S
C214 H195 0.929 . S
C214 C211 1.388 . S
C214 N213 1.397 . S
C215 H196 0.929 . S
C215 C212 1.404 . S
C215 N213 1.334 . S
C216 H208 0.930 . S
C216 C211 1.418 . S
C216 C212 1.353 . S
C217 H187 0.930 . S
C217 N218 1.330 . S
C217 C219 1.446 . S
N218 Co177 2.151 . S
N218 C217 1.330 . S
N218 C222 1.418 . S
C219 H198 0.929 . S
C219 C217 1.446 . S
C219 C220 1.332 . S
C220 H200 0.931 . S
C220 C219 1.332 . S
C220 C221 1.267 . S
C221 H189 0.929 . S
C221 C220 1.267 . S
C221 C222 1.251 . S
C222 H192 0.929 . S
C222 N218 1.418 . S
C222 C221 1.251 . S
C223 H190 0.930 . S
C223 C225 1.406 . S
C223 C228 1.261 . S
C224 H191 0.930 . S
C224 N226 1.325 . S
C224 C227 1.357 . S
C225 H193 0.928 . S
C225 C223 1.406 . S
C225 N226 1.261 . S
N226 Co177 2.214 . S
N226 C224 1.325 . S
N226 C225 1.261 . S
C227 H197 0.931 . S
C227 C224 1.357 . S
C227 C228 1.312 . S
C228 H199 0.930 . S
C228 C223 1.261 . S
C228 C227 1.312 . S
C229 O201 1.214 . S
C229 O209 1.234 . S
C230 H202 0.929 . S
C230 C233 1.391 . S
C230 C235 1.391 . S
C231 H203 0.929 . S
C231 C232 1.390 . S
C231 N234 1.391 . S
C232 H204 0.930 . S
C232 C231 1.390 . S
C232 C233 1.392 . S
C233 H205 0.929 . S
C233 C230 1.391 . S
C233 C232 1.392 . S
N234 Co178 2.257 . S
N234 C231 1.391 . S
N234 C235 1.388 . S
C235 H206 0.930 . S
C235 C230 1.391 . S
C235 N234 1.388 . S
Co236 O238 2.143 . S
Co236 O244 2.074 . S
Co236 O247 2.093 . S
Co236 O260 2.097 . S
Co236 N277 2.151 . S
Co236 N285 2.214 . S
Co237 O238 2.160 . S
Co237 O243 2.058 . S
Co237 O253 2.057 . S
Co237 O268 2.037 . S
Co237 N272 2.145 . S
Co237 N293 2.257 . S
O238 Co236 2.143 . S
O238 Co237 2.160 . S
C239 O240 1.278 . S
C239 O247 1.224 . S
O240 C239 1.278 . S
C241 O242 1.245 . S
C241 O253 1.232 . S
O242 C241 1.245 . S
O243 Co237 2.058 . S
O243 C269 1.269 . S
O244 Co236 2.074 . S
O244 C269 1.257 . S
H245 C270 0.930 . S
H246 C276 0.930 . S
O247 Co236 2.093 . S
O247 C239 1.224 . S
H248 C280 0.929 . S
H249 C282 0.930 . S
H250 C283 0.930 . S
H251 C281 0.929 . S
H252 C284 0.928 . S
O253 Co237 2.057 . S
O253 C241 1.232 . S
H254 C273 0.929 . S
H255 C274 0.929 . S
H256 C286 0.931 . S
H257 C278 0.929 . S
H258 C287 0.930 . S
H259 C279 0.931 . S
O260 Co236 2.097 . S
O260 C288 1.214 . S
H261 C289 0.929 . S
H262 C290 0.929 . S
H263 C291 0.930 . S
H264 C292 0.929 . S
H265 C294 0.930 . S
H266 C271 0.930 . S
H267 C275 0.930 . S
O268 Co237 2.037 . S
O268 C288 1.234 . S
C269 O243 1.269 . S
C269 O244 1.257 . S
C270 H245 0.930 . S
C270 C273 1.388 . S
C270 C275 1.418 . S
C271 H266 0.930 . S
C271 C274 1.404 . S
C271 C275 1.353 . S
N272 Co237 2.145 . S
N272 C273 1.397 . S
N272 C274 1.334 . S
C273 H254 0.929 . S
C273 C270 1.388 . S
C273 N272 1.397 . S
C274 H255 0.929 . S
C274 C271 1.404 . S
C274 N272 1.334 . S
C275 H267 0.930 . S
C275 C270 1.418 . S
C275 C271 1.353 . S
C276 H246 0.930 . S
C276 N277 1.330 . S
C276 C278 1.446 . S
N277 Co236 2.151 . S
N277 C276 1.330 . S
N277 C281 1.418 . S
C278 H257 0.929 . S
C278 C276 1.446 . S
C278 C279 1.332 . S
C279 H259 0.931 . S
C279 C278 1.332 . S
C279 C280 1.267 . S
C280 H248 0.929 . S
C280 C279 1.267 . S
C280 C281 1.251 . S
C281 H251 0.929 . S
C281 N277 1.418 . S
C281 C280 1.251 . S
C282 H249 0.930 . S
C282 C284 1.406 . S
C282 C287 1.261 . S
C283 H250 0.930 . S
C283 N285 1.325 . S
C283 C286 1.357 . S
C284 H252 0.928 . S
C284 C282 1.406 . S
C284 N285 1.261 . S
N285 Co236 2.214 . S
N285 C283 1.325 . S
N285 C284 1.261 . S
C286 H256 0.931 . S
C286 C283 1.357 . S
C286 C287 1.312 . S
C287 H258 0.930 . S
C287 C282 1.261 . S
C287 C286 1.312 . S
C288 O260 1.214 . S
C288 O268 1.234 . S
C289 H261 0.929 . S
C289 C292 1.391 . S
C289 C294 1.391 . S
C290 H262 0.929 . S
C290 C291 1.390 . S
C290 N293 1.391 . S
C291 H263 0.930 . S
C291 C290 1.390 . S
C291 C292 1.392 . S
C292 H264 0.929 . S
C292 C289 1.391 . S
C292 C291 1.392 . S
N293 Co237 2.257 . S
N293 C290 1.391 . S
N293 C294 1.388 . S
C294 H265 0.930 . S
C294 C289 1.391 . S
C294 N293 1.388 . S
Co295 O297 2.143 1_654 S
Co295 O303 2.074 . S
Co295 O306 2.094 1_655 S
Co295 O319 2.097 1_655 S
Co295 N336 2.151 1_554 S
Co295 N344 2.214 . S
Co296 O297 2.161 . S
Co296 O302 2.059 . S
Co296 O312 2.060 . S
Co296 O327 2.033 1_556 S
Co296 N331 2.143 1_556 S
Co296 N352 2.256 1_556 S
O297 Co295 2.143 1_456 S
O297 Co296 2.161 . S
C298 O299 1.278 . S
C298 O306 1.219 1_556 S
O299 C298 1.278 . S
C300 O301 1.245 . S
C300 O312 1.232 . S
O301 C300 1.245 . S
O302 Co296 2.059 . S
O302 C328 1.269 1_455 S
O303 Co295 2.074 . S
O303 C328 1.257 1_554 S
H304 C329 0.930 . S
H305 C335 0.930 . S
O306 Co295 2.094 1_455 S
O306 C298 1.219 1_554 S
H307 C339 0.929 . S
H308 C341 0.930 . S
H309 C342 0.930 . S
H310 C340 0.929 . S
H311 C343 0.928 . S
O312 Co296 2.060 . S
O312 C300 1.232 . S
H313 C332 0.929 . S
H314 C333 0.932 1_556 S
H315 C345 0.931 . S
H316 C337 0.929 . S
H317 C346 0.930 . S
H318 C338 0.931 . S
O319 Co295 2.097 1_455 S
O319 C347 1.214 . S
H320 C348 0.929 1_556 S
H321 C349 0.929 . S
H322 C350 0.930 . S
H323 C351 0.929 . S
H324 C353 0.930 . S
H325 C330 0.930 1_556 S
H326 C334 0.930 . S
O327 Co296 2.033 1_554 S
O327 C347 1.234 . S
C328 O302 1.269 1_655 S
C328 O303 1.257 1_556 S
C329 H304 0.930 . S
C329 C332 1.388 . S
C329 C334 1.418 . S
C330 H325 0.930 1_554 S
C330 C333 1.403 . S
C330 C334 1.353 . S
N331 Co296 2.143 1_554 S
N331 C332 1.397 . S
N331 C333 1.333 . S
C332 H313 0.929 . S
C332 C329 1.388 . S
C332 N331 1.397 . S
C333 H314 0.932 1_554 S
C333 C330 1.403 . S
C333 N331 1.333 . S
C334 H326 0.930 . S
C334 C329 1.418 . S
C334 C330 1.353 . S
C335 H305 0.930 . S
C335 N336 1.330 . S
C335 C337 1.446 . S
N336 Co295 2.151 1_556 S
N336 C335 1.330 . S
N336 C340 1.418 . S
C337 H316 0.929 . S
C337 C335 1.446 . S
C337 C338 1.332 . S
C338 H318 0.931 . S
C338 C337 1.332 . S
C338 C339 1.267 . S
C339 H307 0.929 . S
C339 C338 1.267 . S
C339 C340 1.251 . S
C340 H310 0.929 . S
C340 N336 1.418 . S
C340 C339 1.251 . S
C341 H308 0.930 . S
C341 C343 1.406 . S
C341 C346 1.261 . S
C342 H309 0.930 . S
C342 N344 1.325 . S
C342 C345 1.357 . S
C343 H311 0.928 . S
C343 C341 1.406 . S
C343 N344 1.261 . S
N344 Co295 2.214 . S
N344 C342 1.325 . S
N344 C343 1.261 . S
C345 H315 0.931 . S
C345 C342 1.357 . S
C345 C346 1.312 . S
C346 H317 0.930 . S
C346 C341 1.261 . S
C346 C345 1.312 . S
C347 O319 1.214 . S
C347 O327 1.234 . S
C348 H320 0.929 1_554 S
C348 C351 1.391 . S
C348 C353 1.391 1_554 S
C349 H321 0.929 . S
C349 C350 1.390 . S
C349 N352 1.391 . S
C350 H322 0.930 . S
C350 C349 1.390 . S
C350 C351 1.392 . S
C351 H323 0.929 . S
C351 C348 1.391 . S
C351 C350 1.392 . S
N352 Co296 2.256 1_554 S
N352 C349 1.391 . S
N352 C353 1.388 1_554 S
C353 H324 0.930 . S
C353 C348 1.391 1_556 S
C353 N352 1.388 1_556 S
Co354 O356 2.143 1_455 S
Co354 O362 2.074 . S
Co354 O365 2.093 1_455 S
Co354 O378 2.097 1_455 S
Co354 N395 2.151 . S
Co354 N403 2.214 . S
Co355 O356 2.160 . S
Co355 O361 2.058 . S
Co355 O371 2.057 . S
Co355 O386 2.037 . S
Co355 N390 2.145 . S
Co355 N411 2.257 . S
O356 Co354 2.143 1_655 S
O356 Co355 2.160 . S
C357 O358 1.278 . S
C357 O365 1.224 . S
O358 C357 1.278 . S
C359 O360 1.245 . S
C359 O371 1.232 . S
O360 C359 1.245 . S
O361 Co355 2.058 . S
O361 C387 1.269 1_655 S
O362 Co354 2.074 . S
O362 C387 1.257 . S
H363 C388 0.930 . S
H364 C394 0.930 . S
O365 Co354 2.093 1_655 S
O365 C357 1.224 . S
H366 C398 0.929 . S
H367 C400 0.930 . S
H368 C401 0.930 . S
H369 C399 0.929 . S
H370 C402 0.928 . S
O371 Co355 2.057 . S
O371 C359 1.232 . S
H372 C391 0.929 . S
H373 C392 0.929 . S
H374 C404 0.931 . S
H375 C396 0.929 . S
H376 C405 0.930 . S
H377 C397 0.931 . S
O378 Co354 2.097 1_655 S
O378 C406 1.214 . S
H379 C407 0.929 . S
H380 C408 0.929 . S
H381 C409 0.930 . S
H382 C410 0.929 . S
H383 C412 0.930 . S
H384 C389 0.930 . S
H385 C393 0.930 . S
O386 Co355 2.037 . S
O386 C406 1.234 . S
C387 O361 1.269 1_455 S
C387 O362 1.257 . S
C388 H363 0.930 . S
C388 C391 1.388 . S
C388 C393 1.418 . S
C389 H384 0.930 . S
C389 C392 1.404 . S
C389 C393 1.353 . S
N390 Co355 2.145 . S
N390 C391 1.397 . S
N390 C392 1.334 . S
C391 H372 0.929 . S
C391 C388 1.388 . S
C391 N390 1.397 . S
C392 H373 0.929 . S
C392 C389 1.404 . S
C392 N390 1.334 . S
C393 H385 0.930 . S
C393 C388 1.418 . S
C393 C389 1.353 . S
C394 H364 0.930 . S
C394 N395 1.330 . S
C394 C396 1.446 . S
N395 Co354 2.151 . S
N395 C394 1.330 . S
N395 C399 1.418 . S
C396 H375 0.929 . S
C396 C394 1.446 . S
C396 C397 1.332 . S
C397 H377 0.931 . S
C397 C396 1.332 . S
C397 C398 1.267 . S
C398 H366 0.929 . S
C398 C397 1.267 . S
C398 C399 1.251 . S
C399 H369 0.929 . S
C399 N395 1.418 . S
C399 C398 1.251 . S
C400 H367 0.930 . S
C400 C402 1.406 . S
C400 C405 1.261 . S
C401 H368 0.930 . S
C401 N403 1.325 . S
C401 C404 1.357 . S
C402 H370 0.928 . S
C402 C400 1.406 . S
C402 N403 1.261 . S
N403 Co354 2.214 . S
N403 C401 1.325 . S
N403 C402 1.261 . S
C404 H374 0.931 . S
C404 C401 1.357 . S
C404 C405 1.312 . S
C405 H376 0.930 . S
C405 C400 1.261 . S
C405 C404 1.312 . S
C406 O378 1.214 . S
C406 O386 1.234 . S
C407 H379 0.929 . S
C407 C410 1.391 . S
C407 C412 1.391 . S
C408 H380 0.929 . S
C408 C409 1.390 . S
C408 N411 1.391 . S
C409 H381 0.930 . S
C409 C408 1.390 . S
C409 C410 1.392 . S
C410 H382 0.929 . S
C410 C407 1.391 . S
C410 C409 1.392 . S
N411 Co355 2.257 . S
N411 C408 1.391 . S
N411 C412 1.388 . S
C412 H383 0.930 . S
C412 C407 1.391 . S
C412 N411 1.388 . S
Co413 O415 2.143 1_545 S
Co413 O421 2.074 . S
Co413 O424 2.093 1_545 S
Co413 O437 2.097 1_545 S
Co413 N454 2.151 . S
Co413 N462 2.214 . S
Co414 O415 2.160 . S
Co414 O420 2.058 . S
Co414 O430 2.057 . S
Co414 O445 2.037 . S
Co414 N449 2.145 . S
Co414 N470 2.257 . S
O415 Co413 2.143 1_565 S
O415 Co414 2.160 . S
C416 O417 1.278 . S
C416 O424 1.224 . S
O417 C416 1.278 . S
C418 O419 1.245 . S
C418 O430 1.232 . S
O419 C418 1.245 . S
O420 Co414 2.058 . S
O420 C446 1.269 1_565 S
O421 Co413 2.074 . S
O421 C446 1.257 . S
H422 C447 0.930 . S
H423 C453 0.930 . S
O424 Co413 2.093 1_565 S
O424 C416 1.224 . S
H425 C457 0.929 . S
H426 C459 0.930 . S
H427 C460 0.930 . S
H428 C458 0.929 . S
H429 C461 0.928 . S
O430 Co414 2.057 . S
O430 C418 1.232 . S
H431 C450 0.929 . S
H432 C451 0.929 . S
H433 C463 0.931 . S
H434 C455 0.929 . S
H435 C464 0.930 . S
H436 C456 0.931 . S
O437 Co413 2.097 1_565 S
O437 C465 1.214 . S
H438 C466 0.929 . S
H439 C467 0.929 . S
H440 C468 0.930 . S
H441 C469 0.929 . S
H442 C471 0.930 . S
H443 C448 0.930 . S
H444 C452 0.930 . S
O445 Co414 2.037 . S
O445 C465 1.234 . S
C446 O420 1.269 1_545 S
C446 O421 1.257 . S
C447 H422 0.930 . S
C447 C450 1.388 . S
C447 C452 1.418 . S
C448 H443 0.930 . S
C448 C451 1.404 . S
C448 C452 1.353 . S
N449 Co414 2.145 . S
N449 C450 1.397 . S
N449 C451 1.334 . S
C450 H431 0.929 . S
C450 C447 1.388 . S
C450 N449 1.397 . S
C451 H432 0.929 . S
C451 C448 1.404 . S
C451 N449 1.334 . S
C452 H444 0.930 . S
C452 C447 1.418 . S
C452 C448 1.353 . S
C453 H423 0.930 . S
C453 N454 1.330 . S
C453 C455 1.446 . S
N454 Co413 2.151 . S
N454 C453 1.330 . S
N454 C458 1.418 . S
C455 H434 0.929 . S
C455 C453 1.446 . S
C455 C456 1.332 . S
C456 H436 0.931 . S
C456 C455 1.332 . S
C456 C457 1.267 . S
C457 H425 0.929 . S
C457 C456 1.267 . S
C457 C458 1.251 . S
C458 H428 0.929 . S
C458 N454 1.418 . S
C458 C457 1.251 . S
C459 H426 0.930 . S
C459 C461 1.406 . S
C459 C464 1.261 . S
C460 H427 0.930 . S
C460 N462 1.325 . S
C460 C463 1.357 . S
C461 H429 0.928 . S
C461 C459 1.406 . S
C461 N462 1.261 . S
N462 Co413 2.214 . S
N462 C460 1.325 . S
N462 C461 1.261 . S
C463 H433 0.931 . S
C463 C460 1.357 . S
C463 C464 1.312 . S
C464 H435 0.930 . S
C464 C459 1.261 . S
C464 C463 1.312 . S
C465 O437 1.214 . S
C465 O445 1.234 . S
C466 H438 0.929 . S
C466 C469 1.391 . S
C466 C471 1.391 . S
C467 H439 0.929 . S
C467 C468 1.390 . S
C467 N470 1.391 . S
C468 H440 0.930 . S
C468 C467 1.390 . S
C468 C469 1.392 . S
C469 H441 0.929 . S
C469 C466 1.391 . S
C469 C468 1.392 . S
N470 Co414 2.257 . S
N470 C467 1.391 . S
N470 C471 1.388 . S
C471 H442 0.930 . S
C471 C466 1.391 . S
C471 N470 1.388 . S
Co472 O474 2.143 . S
Co472 O480 2.074 . S
Co472 O483 2.093 . S
Co472 O496 2.097 1_554 S
Co472 N513 2.151 . S
Co472 N521 2.214 1_554 S
Co473 O474 2.160 . S
Co473 O479 2.058 . S
Co473 O489 2.057 . S
Co473 O504 2.037 1_554 S
Co473 N508 2.145 1_554 S
Co473 N529 2.257 1_554 S
O474 Co472 2.143 . S
O474 Co473 2.160 . S
C475 O476 1.278 . S
C475 O483 1.224 . S
O476 C475 1.278 . S
C477 O478 1.245 . S
C477 O489 1.232 . S
O478 C477 1.245 . S
O479 Co473 2.058 . S
O479 C505 1.269 . S
O480 Co472 2.074 . S
O480 C505 1.257 . S
H481 C506 0.930 . S
H482 C512 0.930 . S
O483 Co472 2.093 . S
O483 C475 1.224 . S
H484 C516 0.929 . S
H485 C518 0.930 . S
H486 C519 0.930 . S
H487 C517 0.929 . S
H488 C520 0.928 1_554 S
O489 Co473 2.057 . S
O489 C477 1.232 . S
H490 C509 0.929 . S
H491 C510 0.929 . S
H492 C522 0.931 . S
H493 C514 0.929 . S
H494 C523 0.930 . S
H495 C515 0.931 . S
O496 Co472 2.097 1_556 S
O496 C524 1.214 . S
H497 C525 0.929 . S
H498 C526 0.929 . S
H499 C527 0.930 . S
H500 C528 0.929 . S
H501 C530 0.930 . S
H502 C507 0.941 . S
H503 C511 0.930 . S
O504 Co473 2.037 1_556 S
O504 C524 1.234 . S
C505 O479 1.269 . S
C505 O480 1.257 . S
C506 H481 0.930 . S
C506 C509 1.388 . S
C506 C511 1.418 . S
C507 H502 0.941 . S
C507 C510 1.409 . S
C507 C511 1.336 1_554 S
N508 Co473 2.145 1_556 S
N508 C509 1.397 . S
N508 C510 1.334 1_556 S
C509 H490 0.929 . S
C509 C506 1.388 . S
C509 N508 1.397 . S
C510 H491 0.929 . S
C510 C507 1.409 . S
C510 N508 1.334 1_554 S
C511 H503 0.930 . S
C511 C506 1.418 . S
C511 C507 1.336 1_556 S
C512 H482 0.930 . S
C512 N513 1.330 . S
C512 C514 1.446 . S
N513 Co472 2.151 . S
N513 C512 1.330 . S
N513 C517 1.418 . S
C514 H493 0.929 . S
C514 C512 1.446 . S
C514 C515 1.332 . S
C515 H495 0.931 . S
C515 C514 1.332 . S
C515 C516 1.267 . S
C516 H484 0.929 . S
C516 C515 1.267 . S
C516 C517 1.251 . S
C517 H487 0.929 . S
C517 N513 1.418 . S
C517 C516 1.251 . S
C518 H485 0.930 . S
C518 C520 1.406 . S
C518 C523 1.261 . S
C519 H486 0.930 . S
C519 N521 1.325 . S
C519 C522 1.357 . S
C520 H488 0.928 1_556 S
C520 C518 1.406 . S
C520 N521 1.261 . S
N521 Co472 2.214 1_556 S
N521 C519 1.325 . S
N521 C520 1.261 . S
C522 H492 0.931 . S
C522 C519 1.357 . S
C522 C523 1.312 . S
C523 H494 0.930 . S
C523 C518 1.261 . S
C523 C522 1.312 . S
C524 O496 1.214 . S
C524 O504 1.234 . S
C525 H497 0.929 . S
C525 C528 1.391 1_554 S
C525 C530 1.391 . S
C526 H498 0.929 . S
C526 C527 1.390 . S
C526 N529 1.391 . S
C527 H499 0.930 . S
C527 C526 1.390 . S
C527 C528 1.392 . S
C528 H500 0.929 . S
C528 C525 1.391 1_556 S
C528 C527 1.392 . S
N529 Co473 2.257 1_556 S
N529 C526 1.391 . S
N529 C530 1.388 1_556 S
C530 H501 0.930 . S
C530 C525 1.391 . S
C530 N529 1.388 1_554 S
Co531 O533 2.143 1_655 S
Co531 O539 2.074 . S
Co531 O542 2.093 1_655 S
Co531 O555 2.097 1_655 S
Co531 N572 2.151 . S
Co531 N580 2.214 . S
Co532 O533 2.160 . S
Co532 O538 2.058 . S
Co532 O548 2.057 . S
Co532 O563 2.037 . S
Co532 N567 2.145 . S
Co532 N588 2.257 . S
O533 Co531 2.143 1_455 S
O533 Co532 2.160 . S
C534 O535 1.278 . S
C534 O542 1.224 . S
O535 C534 1.278 . S
C536 O537 1.245 . S
C536 O548 1.232 . S
O537 C536 1.245 . S
O538 Co532 2.058 . S
O538 C564 1.269 1_455 S
O539 Co531 2.074 . S
O539 C564 1.257 . S
H540 C565 0.930 . S
H541 C571 0.930 . S
O542 Co531 2.093 1_455 S
O542 C534 1.224 . S
H543 C575 0.929 . S
H544 C577 0.930 . S
H545 C578 0.930 . S
H546 C576 0.929 . S
H547 C579 0.928 . S
O548 Co532 2.057 . S
O548 C536 1.232 . S
H549 C568 0.929 . S
H550 C569 0.929 . S
H551 C581 0.931 . S
H552 C573 0.929 . S
H553 C582 0.930 . S
H554 C574 0.931 . S
O555 Co531 2.097 1_455 S
O555 C583 1.214 . S
H556 C584 0.929 . S
H557 C585 0.929 . S
H558 C586 0.930 . S
H559 C587 0.929 . S
H560 C589 0.930 . S
H561 C566 0.930 . S
H562 C570 0.930 . S
O563 Co532 2.037 . S
O563 C583 1.234 . S
C564 O538 1.269 1_655 S
C564 O539 1.257 . S
C565 H540 0.930 . S
C565 C568 1.388 . S
C565 C570 1.418 . S
C566 H561 0.930 . S
C566 C569 1.404 . S
C566 C570 1.353 . S
N567 Co532 2.145 . S
N567 C568 1.397 . S
N567 C569 1.334 . S
C568 H549 0.929 . S
C568 C565 1.388 . S
C568 N567 1.397 . S
C569 H550 0.929 . S
C569 C566 1.404 . S
C569 N567 1.334 . S
C570 H562 0.930 . S
C570 C565 1.418 . S
C570 C566 1.353 . S
C571 H541 0.930 . S
C571 N572 1.330 . S
C571 C573 1.446 . S
N572 Co531 2.151 . S
N572 C571 1.330 . S
N572 C576 1.418 . S
C573 H552 0.929 . S
C573 C571 1.446 . S
C573 C574 1.332 . S
C574 H554 0.931 . S
C574 C573 1.332 . S
C574 C575 1.267 . S
C575 H543 0.929 . S
C575 C574 1.267 . S
C575 C576 1.251 . S
C576 H546 0.929 . S
C576 N572 1.418 . S
C576 C575 1.251 . S
C577 H544 0.930 . S
C577 C579 1.406 . S
C577 C582 1.261 . S
C578 H545 0.930 . S
C578 N580 1.325 . S
C578 C581 1.357 . S
C579 H547 0.928 . S
C579 C577 1.406 . S
C579 N580 1.261 . S
N580 Co531 2.214 . S
N580 C578 1.325 . S
N580 C579 1.261 . S
C581 H551 0.931 . S
C581 C578 1.357 . S
C581 C582 1.312 . S
C582 H553 0.930 . S
C582 C577 1.261 . S
C582 C581 1.312 . S
C583 O555 1.214 . S
C583 O563 1.234 . S
C584 H556 0.929 . S
C584 C587 1.391 . S
C584 C589 1.391 . S
C585 H557 0.929 . S
C585 C586 1.390 . S
C585 N588 1.391 . S
C586 H558 0.930 . S
C586 C585 1.390 . S
C586 C587 1.392 . S
C587 H559 0.929 . S
C587 C584 1.391 . S
C587 C586 1.392 . S
N588 Co532 2.257 . S
N588 C585 1.391 . S
N588 C589 1.388 . S
C589 H560 0.930 . S
C589 C584 1.391 . S
C589 N588 1.388 . S
Co590 O592 2.143 1_565 S
Co590 O598 2.074 . S
Co590 O601 2.093 1_565 S
Co590 O614 2.097 1_565 S
Co590 N631 2.151 . S
Co590 N639 2.214 . S
Co591 O592 2.160 . S
Co591 O597 2.058 . S
Co591 O607 2.057 . S
Co591 O622 2.037 . S
Co591 N626 2.145 . S
Co591 N647 2.257 . S
O592 Co590 2.143 1_545 S
O592 Co591 2.160 . S
C593 O594 1.278 . S
C593 O601 1.224 . S
O594 C593 1.278 . S
C595 O596 1.245 . S
C595 O607 1.232 . S
O596 C595 1.245 . S
O597 Co591 2.058 . S
O597 C623 1.269 1_545 S
O598 Co590 2.074 . S
O598 C623 1.257 . S
H599 C624 0.930 . S
H600 C630 0.930 . S
O601 Co590 2.093 1_545 S
O601 C593 1.224 . S
H602 C634 0.929 . S
H603 C636 0.930 . S
H604 C637 0.930 . S
H605 C635 0.929 . S
H606 C638 0.928 . S
O607 Co591 2.057 . S
O607 C595 1.232 . S
H608 C627 0.929 . S
H609 C628 0.929 . S
H610 C640 0.931 . S
H611 C632 0.929 . S
H612 C641 0.930 . S
H613 C633 0.931 . S
O614 Co590 2.097 1_545 S
O614 C642 1.214 . S
H615 C643 0.929 . S
H616 C644 0.929 . S
H617 C645 0.930 . S
H618 C646 0.929 . S
H619 C648 0.930 . S
H620 C625 0.930 . S
H621 C629 0.930 . S
O622 Co591 2.037 . S
O622 C642 1.234 . S
C623 O597 1.269 1_565 S
C623 O598 1.257 . S
C624 H599 0.930 . S
C624 C627 1.388 . S
C624 C629 1.418 . S
C625 H620 0.930 . S
C625 C628 1.404 . S
C625 C629 1.353 . S
N626 Co591 2.145 . S
N626 C627 1.397 . S
N626 C628 1.334 . S
C627 H608 0.929 . S
C627 C624 1.388 . S
C627 N626 1.397 . S
C628 H609 0.929 . S
C628 C625 1.404 . S
C628 N626 1.334 . S
C629 H621 0.930 . S
C629 C624 1.418 . S
C629 C625 1.353 . S
C630 H600 0.930 . S
C630 N631 1.330 . S
C630 C632 1.446 . S
N631 Co590 2.151 . S
N631 C630 1.330 . S
N631 C635 1.418 . S
C632 H611 0.929 . S
C632 C630 1.446 . S
C632 C633 1.332 . S
C633 H613 0.931 . S
C633 C632 1.332 . S
C633 C634 1.267 . S
C634 H602 0.929 . S
C634 C633 1.267 . S
C634 C635 1.251 . S
C635 H605 0.929 . S
C635 N631 1.418 . S
C635 C634 1.251 . S
C636 H603 0.930 . S
C636 C638 1.406 . S
C636 C641 1.261 . S
C637 H604 0.930 . S
C637 N639 1.325 . S
C637 C640 1.357 . S
C638 H606 0.928 . S
C638 C636 1.406 . S
C638 N639 1.261 . S
N639 Co590 2.214 . S
N639 C637 1.325 . S
N639 C638 1.261 . S
C640 H610 0.931 . S
C640 C637 1.357 . S
C640 C641 1.312 . S
C641 H612 0.930 . S
C641 C636 1.261 . S
C641 C640 1.312 . S
C642 O614 1.214 . S
C642 O622 1.234 . S
C643 H615 0.929 . S
C643 C646 1.391 . S
C643 C648 1.391 . S
C644 H616 0.929 . S
C644 C645 1.390 . S
C644 N647 1.391 . S
C645 H617 0.930 . S
C645 C644 1.390 . S
C645 C646 1.392 . S
C646 H618 0.929 . S
C646 C643 1.391 . S
C646 C645 1.392 . S
N647 Co591 2.257 . S
N647 C644 1.391 . S
N647 C648 1.388 . S
C648 H619 0.930 . S
C648 C643 1.391 . S
C648 N647 1.388 . S
Co649 O651 2.143 . S
Co649 O657 2.074 . S
Co649 O660 2.093 . S
Co649 O673 2.097 1_554 S
Co649 N690 2.151 . S
Co649 N698 2.214 1_554 S
Co650 O651 2.160 . S
Co650 O656 2.058 . S
Co650 O666 2.057 . S
Co650 O681 2.037 1_554 S
Co650 N685 2.145 1_554 S
Co650 N706 2.257 1_554 S
O651 Co649 2.143 . S
O651 Co650 2.160 . S
C652 O653 1.278 . S
C652 O660 1.224 . S
O653 C652 1.278 . S
C654 O655 1.245 . S
C654 O666 1.232 . S
O655 C654 1.245 . S
O656 Co650 2.058 . S
O656 C682 1.269 . S
O657 Co649 2.074 . S
O657 C682 1.257 . S
H658 C683 0.930 . S
H659 C689 0.930 . S
O660 Co649 2.093 . S
O660 C652 1.224 . S
H661 C693 0.929 . S
H662 C695 0.930 . S
H663 C696 0.930 . S
H664 C694 0.929 . S
H665 C697 0.928 1_554 S
O666 Co650 2.057 . S
O666 C654 1.232 . S
H667 C686 0.929 . S
H668 C687 0.929 . S
H669 C699 0.931 . S
H670 C691 0.929 . S
H671 C700 0.930 . S
H672 C692 0.931 . S
O673 Co649 2.097 1_556 S
O673 C701 1.214 . S
H674 C702 0.929 . S
H675 C703 0.929 . S
H676 C704 0.930 . S
H677 C705 0.929 . S
H678 C707 0.930 . S
H679 C684 0.941 . S
H680 C688 0.930 . S
O681 Co650 2.037 1_556 S
O681 C701 1.234 . S
C682 O656 1.269 . S
C682 O657 1.257 . S
C683 H658 0.930 . S
C683 C686 1.388 . S
C683 C688 1.418 . S
C684 H679 0.941 . S
C684 C687 1.409 . S
C684 C688 1.336 1_554 S
N685 Co650 2.145 1_556 S
N685 C686 1.397 . S
N685 C687 1.334 1_556 S
C686 H667 0.929 . S
C686 C683 1.388 . S
C686 N685 1.397 . S
C687 H668 0.929 . S
C687 C684 1.409 . S
C687 N685 1.334 1_554 S
C688 H680 0.930 . S
C688 C683 1.418 . S
C688 C684 1.336 1_556 S
C689 H659 0.930 . S
C689 N690 1.330 . S
C689 C691 1.446 . S
N690 Co649 2.151 . S
N690 C689 1.330 . S
N690 C694 1.418 . S
C691 H670 0.929 . S
C691 C689 1.446 . S
C691 C692 1.332 . S
C692 H672 0.931 . S
C692 C691 1.332 . S
C692 C693 1.267 . S
C693 H661 0.929 . S
C693 C692 1.267 . S
C693 C694 1.251 . S
C694 H664 0.929 . S
C694 N690 1.418 . S
C694 C693 1.251 . S
C695 H662 0.930 . S
C695 C697 1.406 . S
C695 C700 1.261 . S
C696 H663 0.930 . S
C696 N698 1.325 . S
C696 C699 1.357 . S
C697 H665 0.928 1_556 S
C697 C695 1.406 . S
C697 N698 1.261 . S
N698 Co649 2.214 1_556 S
N698 C696 1.325 . S
N698 C697 1.261 . S
C699 H669 0.931 . S
C699 C696 1.357 . S
C699 C700 1.312 . S
C700 H671 0.930 . S
C700 C695 1.261 . S
C700 C699 1.312 . S
C701 O673 1.214 . S
C701 O681 1.234 . S
C702 H674 0.929 . S
C702 C705 1.391 1_554 S
C702 C707 1.391 . S
C703 H675 0.929 . S
C703 C704 1.390 . S
C703 N706 1.391 . S
C704 H676 0.930 . S
C704 C703 1.390 . S
C704 C705 1.392 . S
C705 H677 0.929 . S
C705 C702 1.391 1_556 S
C705 C704 1.392 . S
N706 Co650 2.257 1_556 S
N706 C703 1.391 . S
N706 C707 1.388 1_556 S
C707 H678 0.930 . S
C707 C702 1.391 . S
C707 N706 1.388 1_554 S
H708 C720 0.930 . S
H709 C722 0.930 . S
H710 C723 0.930 . S
H711 C727 0.959 . S
H712 C727 0.959 . S
H713 C727 0.961 . S
H714 C728 0.960 . S
H715 C728 0.961 . S
H716 C728 0.959 . S
H717 C731 0.929 . S
H718 C732 0.931 . S
H719 C734 0.930 . S
C720 H708 0.930 . S
C720 C721 1.399 . S
C720 C725 1.399 . S
C721 C720 1.399 . S
C721 C722 1.376 . S
C722 H709 0.930 . S
C722 C721 1.376 . S
C722 C723 1.388 . S
C723 H710 0.930 . S
C723 C722 1.388 . S
C723 C724 1.390 . S
C724 C723 1.390 . S
C724 C725 1.394 . S
C724 C730 1.465 . S
C725 C720 1.399 . S
C725 C724 1.394 . S
C725 C726 1.516 . S
C726 C725 1.516 . S
C726 C727 1.502 . S
C726 C728 1.561 . S
C726 C729 1.526 . S
C727 H711 0.959 . S
C727 H712 0.959 . S
C727 H713 0.961 . S
C727 C726 1.502 . S
C728 H714 0.960 . S
C728 H715 0.961 . S
C728 H716 0.959 . S
C728 C726 1.561 . S
C729 C726 1.526 . S
C729 C730 1.396 . S
C729 C734 1.390 . S
C730 C724 1.465 . S
C730 C729 1.396 . S
C730 C731 1.399 . S
C731 H717 0.929 . S
C731 C730 1.399 . S
C731 C732 1.385 . S
C732 H718 0.931 . S
C732 C731 1.385 . S
C732 C733 1.389 . S
C733 C732 1.389 . S
C733 C734 1.387 . S
C734 H719 0.930 . S
C734 C729 1.390 . S
C734 C733 1.387 . S
H735 C747 0.930 . S
H736 C749 0.930 . S
H737 C750 0.930 . S
H738 C754 0.959 . S
H739 C754 0.959 . S
H740 C754 0.961 . S
H741 C755 0.960 . S
H742 C755 0.961 . S
H743 C755 0.959 . S
H744 C758 0.929 . S
H745 C759 0.931 . S
H746 C761 0.930 . S
C747 H735 0.930 . S
C747 C748 1.399 . S
C747 C752 1.399 . S
C748 C747 1.399 . S
C748 C749 1.376 . S
C749 H736 0.930 . S
C749 C748 1.376 . S
C749 C750 1.388 . S
C750 H737 0.930 . S
C750 C749 1.388 . S
C750 C751 1.390 . S
C751 C750 1.390 . S
C751 C752 1.394 . S
C751 C757 1.465 . S
C752 C747 1.399 . S
C752 C751 1.394 . S
C752 C753 1.516 . S
C753 C752 1.516 . S
C753 C754 1.502 . S
C753 C755 1.561 . S
C753 C756 1.526 . S
C754 H738 0.959 . S
C754 H739 0.959 . S
C754 H740 0.961 . S
C754 C753 1.502 . S
C755 H741 0.960 . S
C755 H742 0.961 . S
C755 H743 0.959 . S
C755 C753 1.561 . S
C756 C753 1.526 . S
C756 C757 1.396 . S
C756 C761 1.390 . S
C757 C751 1.465 . S
C757 C756 1.396 . S
C757 C758 1.399 . S
C758 H744 0.929 . S
C758 C757 1.399 . S
C758 C759 1.385 . S
C759 H745 0.931 . S
C759 C758 1.385 . S
C759 C760 1.389 . S
C760 C759 1.389 . S
C760 C761 1.387 . S
C761 H746 0.930 . S
C761 C756 1.390 . S
C761 C760 1.387 . S
H762 C774 0.930 . S
H763 C776 0.930 . S
H764 C777 0.930 . S
H765 C781 0.959 . S
H766 C781 0.959 . S
H767 C781 0.961 . S
H768 C782 0.960 . S
H769 C782 0.961 . S
H770 C782 0.959 . S
H771 C785 0.929 . S
H772 C786 0.931 . S
H773 C788 0.930 . S
C774 H762 0.930 . S
C774 C775 1.399 . S
C774 C779 1.399 . S
C775 C774 1.399 . S
C775 C776 1.376 . S
C776 H763 0.930 . S
C776 C775 1.376 . S
C776 C777 1.388 . S
C777 H764 0.930 . S
C777 C776 1.388 . S
C777 C778 1.390 . S
C778 C777 1.390 . S
C778 C779 1.394 . S
C778 C784 1.465 . S
C779 C774 1.399 . S
C779 C778 1.394 . S
C779 C780 1.516 . S
C780 C779 1.516 . S
C780 C781 1.502 . S
C780 C782 1.561 . S
C780 C783 1.526 . S
C781 H765 0.959 . S
C781 H766 0.959 . S
C781 H767 0.961 . S
C781 C780 1.502 . S
C782 H768 0.960 . S
C782 H769 0.961 . S
C782 H770 0.959 . S
C782 C780 1.561 . S
C783 C780 1.526 . S
C783 C784 1.396 . S
C783 C788 1.390 . S
C784 C778 1.465 . S
C784 C783 1.396 . S
C784 C785 1.399 . S
C785 H771 0.929 . S
C785 C784 1.399 . S
C785 C786 1.385 . S
C786 H772 0.931 . S
C786 C785 1.385 . S
C786 C787 1.389 . S
C787 C786 1.389 . S
C787 C788 1.387 . S
C788 H773 0.930 . S
C788 C783 1.390 . S
C788 C787 1.387 . S
H789 C801 0.930 . S
H790 C803 0.930 . S
H791 C804 0.930 . S
H792 C808 0.959 . S
H793 C808 0.959 . S
H794 C808 0.961 . S
H795 C809 0.960 . S
H796 C809 0.961 . S
H797 C809 0.959 . S
H798 C812 0.929 . S
H799 C813 0.931 . S
H800 C815 0.930 . S
C801 H789 0.930 . S
C801 C802 1.399 . S
C801 C806 1.399 . S
C802 C801 1.399 . S
C802 C803 1.376 . S
C803 H790 0.930 . S
C803 C802 1.376 . S
C803 C804 1.388 . S
C804 H791 0.930 . S
C804 C803 1.388 . S
C804 C805 1.390 . S
C805 C804 1.390 . S
C805 C806 1.394 . S
C805 C811 1.465 . S
C806 C801 1.399 . S
C806 C805 1.394 . S
C806 C807 1.516 . S
C807 C806 1.516 . S
C807 C808 1.502 . S
C807 C809 1.561 . S
C807 C810 1.526 . S
C808 H792 0.959 . S
C808 H793 0.959 . S
C808 H794 0.961 . S
C808 C807 1.502 . S
C809 H795 0.960 . S
C809 H796 0.961 . S
C809 H797 0.959 . S
C809 C807 1.561 . S
C810 C807 1.526 . S
C810 C811 1.396 . S
C810 C815 1.390 . S
C811 C805 1.465 . S
C811 C810 1.396 . S
C811 C812 1.399 . S
C812 H798 0.929 . S
C812 C811 1.399 . S
C812 C813 1.385 . S
C813 H799 0.931 . S
C813 C812 1.385 . S
C813 C814 1.389 . S
C814 C813 1.389 . S
C814 C815 1.387 . S
C815 H800 0.930 . S
C815 C810 1.390 . S
C815 C814 1.387 . S
H816 C828 0.930 . S
H817 C830 0.930 . S
H818 C831 0.930 . S
H819 C835 0.959 . S
H820 C835 0.959 . S
H821 C835 0.961 . S
H822 C836 0.960 . S
H823 C836 0.961 . S
H824 C836 0.959 . S
H825 C839 0.929 . S
H826 C840 0.931 . S
H827 C842 0.930 . S
C828 H816 0.930 . S
C828 C829 1.399 . S
C828 C833 1.399 . S
C829 C828 1.399 . S
C829 C830 1.376 . S
C830 H817 0.930 . S
C830 C829 1.376 . S
C830 C831 1.388 . S
C831 H818 0.930 . S
C831 C830 1.388 . S
C831 C832 1.390 . S
C832 C831 1.390 . S
C832 C833 1.394 . S
C832 C838 1.465 . S
C833 C828 1.399 . S
C833 C832 1.394 . S
C833 C834 1.516 . S
C834 C833 1.516 . S
C834 C835 1.502 . S
C834 C836 1.561 . S
C834 C837 1.526 . S
C835 H819 0.959 . S
C835 H820 0.959 . S
C835 H821 0.961 . S
C835 C834 1.502 . S
C836 H822 0.960 . S
C836 H823 0.961 . S
C836 H824 0.959 . S
C836 C834 1.561 . S
C837 C834 1.526 . S
C837 C838 1.396 . S
C837 C842 1.390 . S
C838 C832 1.465 . S
C838 C837 1.396 . S
C838 C839 1.399 . S
C839 H825 0.929 . S
C839 C838 1.399 . S
C839 C840 1.385 . S
C840 H826 0.931 . S
C840 C839 1.385 . S
C840 C841 1.389 . S
C841 C840 1.389 . S
C841 C842 1.387 . S
C842 H827 0.930 . S
C842 C837 1.390 . S
C842 C841 1.387 . S
H843 C855 0.930 . S
H844 C857 0.930 . S
H845 C858 0.930 . S
H846 C862 0.959 . S
H847 C862 0.959 . S
H848 C862 0.961 . S
H849 C863 0.960 . S
H850 C863 0.961 . S
H851 C863 0.959 . S
H852 C866 0.929 . S
H853 C867 0.931 . S
H854 C869 0.930 . S
C855 H843 0.930 . S
C855 C856 1.399 . S
C855 C860 1.399 . S
C856 C855 1.399 . S
C856 C857 1.376 . S
C857 H844 0.930 . S
C857 C856 1.376 . S
C857 C858 1.388 . S
C858 H845 0.930 . S
C858 C857 1.388 . S
C858 C859 1.390 . S
C859 C858 1.390 . S
C859 C860 1.394 . S
C859 C865 1.465 . S
C860 C855 1.399 . S
C860 C859 1.394 . S
C860 C861 1.516 . S
C861 C860 1.516 . S
C861 C862 1.502 . S
C861 C863 1.561 . S
C861 C864 1.526 . S
C862 H846 0.959 . S
C862 H847 0.959 . S
C862 H848 0.961 . S
C862 C861 1.502 . S
C863 H849 0.960 . S
C863 H850 0.961 . S
C863 H851 0.959 . S
C863 C861 1.561 . S
C864 C861 1.526 . S
C864 C865 1.396 . S
C864 C869 1.390 . S
C865 C859 1.465 . S
C865 C864 1.396 . S
C865 C866 1.399 . S
C866 H852 0.929 . S
C866 C865 1.399 . S
C866 C867 1.385 . S
C867 H853 0.931 . S
C867 C866 1.385 . S
C867 C868 1.389 . S
C868 C867 1.389 . S
C868 C869 1.387 . S
C869 H854 0.930 . S
C869 C864 1.390 . S
C869 C868 1.387 . S
H870 C882 0.930 . S
H871 C884 0.930 . S
H872 C885 0.930 . S
H873 C889 0.959 . S
H874 C889 0.959 . S
H875 C889 0.961 . S
H876 C890 0.960 . S
H877 C890 0.961 . S
H878 C890 0.959 . S
H879 C893 0.929 . S
H880 C894 0.931 . S
H881 C896 0.930 . S
C882 H870 0.930 . S
C882 C883 1.399 . S
C882 C887 1.399 . S
C883 C882 1.399 . S
C883 C884 1.376 . S
C884 H871 0.930 . S
C884 C883 1.376 . S
C884 C885 1.388 . S
C885 H872 0.930 . S
C885 C884 1.388 . S
C885 C886 1.390 . S
C886 C885 1.390 . S
C886 C887 1.394 . S
C886 C892 1.465 1_545 S
C887 C882 1.399 . S
C887 C886 1.394 . S
C887 C888 1.516 1_545 S
C888 C887 1.516 1_565 S
C888 C889 1.502 1_565 S
C888 C890 1.561 . S
C888 C891 1.526 . S
C889 H873 0.959 . S
C889 H874 0.959 . S
C889 H875 0.961 . S
C889 C888 1.502 1_545 S
C890 H876 0.960 . S
C890 H877 0.961 . S
C890 H878 0.959 . S
C890 C888 1.561 . S
C891 C888 1.526 . S
C891 C892 1.396 . S
C891 C896 1.390 . S
C892 C886 1.465 1_565 S
C892 C891 1.396 . S
C892 C893 1.399 . S
C893 H879 0.929 . S
C893 C892 1.399 . S
C893 C894 1.385 . S
C894 H880 0.931 . S
C894 C893 1.385 . S
C894 C895 1.389 . S
C895 C894 1.389 . S
C895 C896 1.387 . S
C896 H881 0.930 . S
C896 C891 1.390 . S
C896 C895 1.387 . S
H897 C909 0.930 . S
H898 C911 0.930 . S
H899 C912 0.930 . S
H900 C916 0.959 . S
H901 C916 0.959 . S
H902 C916 0.961 . S
H903 C917 0.960 . S
H904 C917 0.961 . S
H905 C917 0.959 . S
H906 C920 0.929 . S
H907 C921 0.931 . S
H908 C923 0.930 . S
C909 H897 0.930 . S
C909 C910 1.399 . S
C909 C914 1.399 . S
C910 C909 1.399 . S
C910 C911 1.376 . S
C911 H898 0.930 . S
C911 C910 1.376 . S
C911 C912 1.388 . S
C912 H899 0.930 . S
C912 C911 1.388 . S
C912 C913 1.390 . S
C913 C912 1.390 . S
C913 C914 1.394 . S
C913 C919 1.465 . S
C914 C909 1.399 . S
C914 C913 1.394 . S
C914 C915 1.516 . S
C915 C914 1.516 . S
C915 C916 1.502 . S
C915 C917 1.561 . S
C915 C918 1.526 . S
C916 H900 0.959 . S
C916 H901 0.959 . S
C916 H902 0.961 . S
C916 C915 1.502 . S
C917 H903 0.960 . S
C917 H904 0.961 . S
C917 H905 0.959 . S
C917 C915 1.561 . S
C918 C915 1.526 . S
C918 C919 1.396 . S
C918 C923 1.390 . S
C919 C913 1.465 . S
C919 C918 1.396 . S
C919 C920 1.399 . S
C920 H906 0.929 . S
C920 C919 1.399 . S
C920 C921 1.385 . S
C921 H907 0.931 . S
C921 C920 1.385 . S
C921 C922 1.389 . S
C922 C921 1.389 . S
C922 C923 1.387 . S
C923 H908 0.930 . S
C923 C918 1.390 . S
C923 C922 1.387 . S
H924 C936 0.930 . S
H925 C938 0.930 . S
H926 C939 0.930 . S
H927 C943 0.959 . S
H928 C943 0.959 . S
H929 C943 0.961 . S
H930 C944 0.960 . S
H931 C944 0.961 . S
H932 C944 0.959 . S
H933 C947 0.929 . S
H934 C948 0.931 . S
H935 C950 0.930 . S
C936 H924 0.930 . S
C936 C937 1.399 1_554 S
C936 C941 1.399 . S
C937 C936 1.399 1_556 S
C937 C938 1.376 . S
C938 H925 0.930 . S
C938 C937 1.376 . S
C938 C939 1.388 1_455 S
C939 H926 0.930 . S
C939 C938 1.388 1_655 S
C939 C940 1.390 . S
C940 C939 1.390 . S
C940 C941 1.394 1_656 S
C940 C946 1.465 . S
C941 C936 1.399 . S
C941 C940 1.394 1_454 S
C941 C942 1.516 . S
C942 C941 1.516 . S
C942 C943 1.502 . S
C942 C944 1.561 1_455 S
C942 C945 1.526 1_455 S
C943 H927 0.959 . S
C943 H928 0.959 . S
C943 H929 0.961 . S
C943 C942 1.502 . S
C944 H930 0.960 . S
C944 H931 0.961 . S
C944 H932 0.959 . S
C944 C942 1.561 1_655 S
C945 C942 1.526 1_655 S
C945 C946 1.396 1_554 S
C945 C950 1.390 . S
C946 C940 1.465 . S
C946 C945 1.396 1_556 S
C946 C947 1.399 . S
C947 H933 0.929 . S
C947 C946 1.399 . S
C947 C948 1.385 . S
C948 H934 0.931 . S
C948 C947 1.385 . S
C948 C949 1.389 . S
C949 C948 1.389 . S
C949 C950 1.387 1_556 S
C950 H935 0.930 . S
C950 C945 1.390 . S
C950 C949 1.387 1_554 S
H951 C963 0.930 . S
H952 C965 0.930 . S
H953 C966 0.935 . S
H954 C970 0.959 . S
H955 C970 0.959 . S
H956 C970 0.961 . S
H957 C971 0.960 . S
H958 C971 0.961 . S
H959 C971 0.959 . S
H960 C974 0.929 . S
H961 C975 0.931 . S
H962 C977 0.930 . S
C963 H951 0.930 . S
C963 C964 1.399 . S
C963 C968 1.399 . S
C964 C963 1.399 . S
C964 C965 1.376 . S
C965 H952 0.930 . S
C965 C964 1.376 . S
C965 C966 1.388 . S
C966 H953 0.935 . S
C966 C965 1.388 . S
C966 C967 1.395 . S
C967 C966 1.395 . S
C967 C968 1.397 . S
C967 C973 1.457 1_655 S
C968 C963 1.399 . S
C968 C967 1.397 . S
C968 C969 1.516 1_655 S
C969 C968 1.516 1_455 S
C969 C970 1.502 1_455 S
C969 C971 1.561 . S
C969 C972 1.526 . S
C970 H954 0.959 . S
C970 H955 0.959 . S
C970 H956 0.961 . S
C970 C969 1.502 1_655 S
C971 H957 0.960 . S
C971 H958 0.961 . S
C971 H959 0.959 . S
C971 C969 1.561 . S
C972 C969 1.526 . S
C972 C973 1.396 . S
C972 C977 1.390 . S
C973 C967 1.457 1_455 S
C973 C972 1.396 . S
C973 C974 1.399 . S
C974 H960 0.929 . S
C974 C973 1.399 . S
C974 C975 1.385 . S
C975 H961 0.931 . S
C975 C974 1.385 . S
C975 C976 1.389 . S
C976 C975 1.389 . S
C976 C977 1.387 . S
C977 H962 0.930 . S
C977 C972 1.390 . S
C977 C976 1.387 . S
H978 C990 0.930 1_565 S
H979 C992 0.930 . S
H980 C993 0.930 . S
H981 C997 0.959 . S
H982 C997 0.959 . S
H983 C997 0.961 . S
H984 C998 0.960 . S
H985 C998 0.961 . S
H986 C998 0.959 1_545 S
H987 C1001 0.929 . S
H988 C1002 0.931 . S
H989 C1004 0.930 . S
C990 H978 0.930 1_545 S
C990 C991 1.399 . S
C990 C995 1.387 . S
C991 C990 1.399 . S
C991 C992 1.376 . S
C992 H979 0.930 . S
C992 C991 1.376 . S
C992 C993 1.388 . S
C993 H980 0.930 . S
C993 C992 1.388 . S
C993 C994 1.390 . S
C994 C993 1.390 . S
C994 C995 1.415 . S
C994 C1000 1.465 . S
C995 C990 1.387 . S
C995 C994 1.415 . S
C995 C996 1.511 1_545 S
C996 C995 1.511 1_565 S
C996 C997 1.502 . S
C996 C998 1.561 . S
C996 C999 1.526 . S
C997 H981 0.959 . S
C997 H982 0.959 . S
C997 H983 0.961 . S
C997 C996 1.502 . S
C998 H984 0.960 . S
C998 H985 0.961 . S
C998 H986 0.959 1_565 S
C998 C996 1.561 . S
C999 C996 1.526 . S
C999 C1000 1.396 1_565 S
C999 C1004 1.390 . S
C1000 C994 1.465 . S
C1000 C999 1.396 1_545 S
C1000 C1001 1.399 . S
C1001 H987 0.929 . S
C1001 C1000 1.399 . S
C1001 C1002 1.385 . S
C1002 H988 0.931 . S
C1002 C1001 1.385 . S
C1002 C1003 1.389 1_545 S
C1003 C1002 1.389 1_565 S
C1003 C1004 1.387 . S
C1004 H989 0.930 . S
C1004 C999 1.390 . S
C1004 C1003 1.387 . S
H1005 C1017 0.930 . S
H1006 C1019 0.930 . S
H1007 C1020 0.930 . S
H1008 C1024 0.959 . S
H1009 C1024 0.959 . S
H1010 C1024 0.961 . S
H1011 C1025 0.960 . S
H1012 C1025 0.961 . S
H1013 C1025 0.959 . S
H1014 C1028 0.929 . S
H1015 C1029 0.931 . S
H1016 C1031 0.930 . S
C1017 H1005 0.930 . S
C1017 C1018 1.399 . S
C1017 C1022 1.399 . S
C1018 C1017 1.399 . S
C1018 C1019 1.376 1_554 S
C1019 H1006 0.930 . S
C1019 C1018 1.376 1_556 S
C1019 C1020 1.388 . S
C1020 H1007 0.930 . S
C1020 C1019 1.388 . S
C1020 C1021 1.390 1_556 S
C1021 C1020 1.390 1_554 S
C1021 C1022 1.394 . S
C1021 C1027 1.465 . S
C1022 C1017 1.399 . S
C1022 C1021 1.394 . S
C1022 C1023 1.516 . S
C1023 C1022 1.516 . S
C1023 C1024 1.502 . S
C1023 C1025 1.561 . S
C1023 C1026 1.526 . S
C1024 H1008 0.959 . S
C1024 H1009 0.959 . S
C1024 H1010 0.961 . S
C1024 C1023 1.502 . S
C1025 H1011 0.960 . S
C1025 H1012 0.961 . S
C1025 H1013 0.959 . S
C1025 C1023 1.561 . S
C1026 C1023 1.526 . S
C1026 C1027 1.396 . S
C1026 C1031 1.390 . S
C1027 C1021 1.465 . S
C1027 C1026 1.396 . S
C1027 C1028 1.399 1_554 S
C1028 H1014 0.929 . S
C1028 C1027 1.399 1_556 S
C1028 C1029 1.385 . S
C1029 H1015 0.931 . S
C1029 C1028 1.385 . S
C1029 C1030 1.389 1_556 S
C1030 C1029 1.389 1_554 S
C1030 C1031 1.387 . S
C1031 H1016 0.930 . S
C1031 C1026 1.390 . S
C1031 C1030 1.387 . S
H1032 C1044 0.930 . S
H1033 C1046 0.930 . S
H1034 C1047 0.930 . S
H1035 C1051 0.959 . S
H1036 C1051 0.959 . S
H1037 C1051 0.961 . S
H1038 C1052 0.960 . S
H1039 C1052 0.961 . S
H1040 C1052 0.959 . S
H1041 C1055 0.929 . S
H1042 C1056 0.931 . S
H1043 C1058 0.930 . S
C1044 H1032 0.930 . S
C1044 C1045 1.399 . S
C1044 C1049 1.399 . S
C1045 C1044 1.399 . S
C1045 C1046 1.376 . S
C1046 H1033 0.930 . S
C1046 C1045 1.376 . S
C1046 C1047 1.388 . S
C1047 H1034 0.930 . S
C1047 C1046 1.388 . S
C1047 C1048 1.390 . S
C1048 C1047 1.390 . S
C1048 C1049 1.394 . S
C1048 C1054 1.465 . S
C1049 C1044 1.399 . S
C1049 C1048 1.394 . S
C1049 C1050 1.516 . S
C1050 C1049 1.516 . S
C1050 C1051 1.502 . S
C1050 C1052 1.561 . S
C1050 C1053 1.526 . S
C1051 H1035 0.959 . S
C1051 H1036 0.959 . S
C1051 H1037 0.961 . S
C1051 C1050 1.502 . S
C1052 H1038 0.960 . S
C1052 H1039 0.961 . S
C1052 H1040 0.959 . S
C1052 C1050 1.561 . S
C1053 C1050 1.526 . S
C1053 C1054 1.396 . S
C1053 C1058 1.390 . S
C1054 C1048 1.465 . S
C1054 C1053 1.396 . S
C1054 C1055 1.399 . S
C1055 H1041 0.929 . S
C1055 C1054 1.399 . S
C1055 C1056 1.385 . S
C1056 H1042 0.931 . S
C1056 C1055 1.385 . S
C1056 C1057 1.389 . S
C1057 C1056 1.389 . S
C1057 C1058 1.387 . S
C1058 H1043 0.930 . S
C1058 C1053 1.390 . S
C1058 C1057 1.387 . S
H1059 C1071 0.930 . S
H1060 C1073 0.930 . S
H1061 C1074 0.930 . S
H1062 C1078 0.959 . S
H1063 C1078 0.959 . S
H1064 C1078 0.961 . S
H1065 C1079 0.960 . S
H1066 C1079 0.961 . S
H1067 C1079 0.959 . S
H1068 C1082 0.929 . S
H1069 C1083 0.931 . S
H1070 C1085 0.930 . S
C1071 H1059 0.930 . S
C1071 C1072 1.399 . S
C1071 C1076 1.399 . S
C1072 C1071 1.399 . S
C1072 C1073 1.376 . S
C1073 H1060 0.930 . S
C1073 C1072 1.376 . S
C1073 C1074 1.388 . S
C1074 H1061 0.930 . S
C1074 C1073 1.388 . S
C1074 C1075 1.390 . S
C1075 C1074 1.390 . S
C1075 C1076 1.394 . S
C1075 C1081 1.465 . S
C1076 C1071 1.399 . S
C1076 C1075 1.394 . S
C1076 C1077 1.516 . S
C1077 C1076 1.516 . S
C1077 C1078 1.502 . S
C1077 C1079 1.561 . S
C1077 C1080 1.526 . S
C1078 H1062 0.959 . S
C1078 H1063 0.959 . S
C1078 H1064 0.961 . S
C1078 C1077 1.502 . S
C1079 H1065 0.960 . S
C1079 H1066 0.961 . S
C1079 H1067 0.959 . S
C1079 C1077 1.561 . S
C1080 C1077 1.526 . S
C1080 C1081 1.396 . S
C1080 C1085 1.390 . S
C1081 C1075 1.465 . S
C1081 C1080 1.396 . S
C1081 C1082 1.399 . S
C1082 H1068 0.929 . S
C1082 C1081 1.399 . S
C1082 C1083 1.385 . S
C1083 H1069 0.931 . S
C1083 C1082 1.385 . S
C1083 C1084 1.389 . S
C1084 C1083 1.389 . S
C1084 C1085 1.387 . S
C1085 H1070 0.930 . S
C1085 C1080 1.390 . S
C1085 C1084 1.387 . S
H1086 C1098 0.930 . S
H1087 C1100 0.930 . S
H1088 C1101 0.930 . S
H1089 C1105 0.959 . S
H1090 C1105 0.959 . S
H1091 C1105 0.961 . S
H1092 C1106 0.960 . S
H1093 C1106 0.961 . S
H1094 C1106 0.959 . S
H1095 C1109 0.929 . S
H1096 C1110 0.931 . S
H1097 C1112 0.930 . S
C1098 H1086 0.930 . S
C1098 C1099 1.399 . S
C1098 C1103 1.399 . S
C1099 C1098 1.399 . S
C1099 C1100 1.376 . S
C1100 H1087 0.930 . S
C1100 C1099 1.376 . S
C1100 C1101 1.388 1_554 S
C1101 H1088 0.930 . S
C1101 C1100 1.388 1_556 S
C1101 C1102 1.389 1_556 S
C1102 C1101 1.389 1_554 S
C1102 C1103 1.397 . S
C1102 C1108 1.464 1_554 S
C1103 C1098 1.399 . S
C1103 C1102 1.397 . S
C1103 C1104 1.516 . S
C1104 C1103 1.516 . S
C1104 C1105 1.502 . S
C1104 C1106 1.561 1_554 S
C1104 C1107 1.526 . S
C1105 H1089 0.959 . S
C1105 H1090 0.959 . S
C1105 H1091 0.961 . S
C1105 C1104 1.502 . S
C1106 H1092 0.960 . S
C1106 H1093 0.961 . S
C1106 H1094 0.959 . S
C1106 C1104 1.561 1_556 S
C1107 C1104 1.526 . S
C1107 C1108 1.396 1_554 S
C1107 C1112 1.390 . S
C1108 C1102 1.464 1_556 S
C1108 C1107 1.396 1_556 S
C1108 C1109 1.399 . S
C1109 H1095 0.929 . S
C1109 C1108 1.399 . S
C1109 C1110 1.385 . S
C1110 H1096 0.931 . S
C1110 C1109 1.385 . S
C1110 C1111 1.389 . S
C1111 C1110 1.389 . S
C1111 C1112 1.387 1_556 S
C1112 H1097 0.930 . S
C1112 C1107 1.390 . S
C1112 C1111 1.387 1_554 S
H1113 C1125 0.930 . S
H1114 C1127 0.930 . S
H1115 C1128 0.930 . S
H1116 C1132 0.959 . S
H1117 C1132 0.959 . S
H1118 C1132 0.961 . S
H1119 C1133 0.960 . S
H1120 C1133 0.961 . S
H1121 C1133 0.959 . S
H1122 C1136 0.929 . S
H1123 C1137 0.931 . S
H1124 C1139 0.930 . S
C1125 H1113 0.930 . S
C1125 C1126 1.399 . S
C1125 C1130 1.399 . S
C1126 C1125 1.399 . S
C1126 C1127 1.376 . S
C1127 H1114 0.930 . S
C1127 C1126 1.376 . S
C1127 C1128 1.388 . S
C1128 H1115 0.930 . S
C1128 C1127 1.388 . S
C1128 C1129 1.390 . S
C1129 C1128 1.390 . S
C1129 C1130 1.394 . S
C1129 C1135 1.465 . S
C1130 C1125 1.399 . S
C1130 C1129 1.394 . S
C1130 C1131 1.516 . S
C1131 C1130 1.516 . S
C1131 C1132 1.502 . S
C1131 C1133 1.561 . S
C1131 C1134 1.526 . S
C1132 H1116 0.959 . S
C1132 H1117 0.959 . S
C1132 H1118 0.961 . S
C1132 C1131 1.502 . S
C1133 H1119 0.960 . S
C1133 H1120 0.961 . S
C1133 H1121 0.959 . S
C1133 C1131 1.561 . S
C1134 C1131 1.526 . S
C1134 C1135 1.396 . S
C1134 C1139 1.390 . S
C1135 C1129 1.465 . S
C1135 C1134 1.396 . S
C1135 C1136 1.399 . S
C1136 H1122 0.929 . S
C1136 C1135 1.399 . S
C1136 C1137 1.385 . S
C1137 H1123 0.931 . S
C1137 C1136 1.385 . S
C1137 C1138 1.389 . S
C1138 C1137 1.389 . S
C1138 C1139 1.387 . S
C1139 H1124 0.930 . S
C1139 C1134 1.390 . S
C1139 C1138 1.387 . S
H1140 C1152 0.930 . S
H1141 C1154 0.930 . S
H1142 C1155 0.930 . S
H1143 C1159 0.959 . S
H1144 C1159 0.959 . S
H1145 C1159 0.961 . S
H1146 C1160 0.960 . S
H1147 C1160 0.961 . S
H1148 C1160 0.959 . S
H1149 C1163 0.929 . S
H1150 C1164 0.931 . S
H1151 C1166 0.930 . S
C1152 H1140 0.930 . S
C1152 C1153 1.399 . S
C1152 C1157 1.399 . S
C1153 C1152 1.399 . S
C1153 C1154 1.376 . S
C1154 H1141 0.930 . S
C1154 C1153 1.376 . S
C1154 C1155 1.388 . S
C1155 H1142 0.930 . S
C1155 C1154 1.388 . S
C1155 C1156 1.390 . S
C1156 C1155 1.390 . S
C1156 C1157 1.394 . S
C1156 C1162 1.465 . S
C1157 C1152 1.399 . S
C1157 C1156 1.394 . S
C1157 C1158 1.516 . S
C1158 C1157 1.516 . S
C1158 C1159 1.502 . S
C1158 C1160 1.561 . S
C1158 C1161 1.526 . S
C1159 H1143 0.959 . S
C1159 H1144 0.959 . S
C1159 H1145 0.961 . S
C1159 C1158 1.502 . S
C1160 H1146 0.960 . S
C1160 H1147 0.961 . S
C1160 H1148 0.959 . S
C1160 C1158 1.561 . S
C1161 C1158 1.526 . S
C1161 C1162 1.396 . S
C1161 C1166 1.390 . S
C1162 C1156 1.465 . S
C1162 C1161 1.396 . S
C1162 C1163 1.399 . S
C1163 H1149 0.929 . S
C1163 C1162 1.399 . S
C1163 C1164 1.385 . S
C1164 H1150 0.931 . S
C1164 C1163 1.385 . S
C1164 C1165 1.389 . S
C1165 C1164 1.389 . S
C1165 C1166 1.387 . S
C1166 H1151 0.930 . S
C1166 C1161 1.390 . S
C1166 C1165 1.387 . S
H1167 C1179 0.930 . S
H1168 C1181 0.930 . S
H1169 C1182 0.930 . S
H1170 C1186 0.959 . S
H1171 C1186 0.959 . S
H1172 C1186 0.961 . S
H1173 C1187 0.960 . S
H1174 C1187 0.961 . S
H1175 C1187 0.959 . S
H1176 C1190 0.929 . S
H1177 C1191 0.931 . S
H1178 C1193 0.930 . S
C1179 H1167 0.930 . S
C1179 C1180 1.399 . S
C1179 C1184 1.399 . S
C1180 C1179 1.399 . S
C1180 C1181 1.376 1_554 S
C1181 H1168 0.930 . S
C1181 C1180 1.376 1_556 S
C1181 C1182 1.388 . S
C1182 H1169 0.930 . S
C1182 C1181 1.388 . S
C1182 C1183 1.390 . S
C1183 C1182 1.390 . S
C1183 C1184 1.394 1_556 S
C1183 C1189 1.465 . S
C1184 C1179 1.399 . S
C1184 C1183 1.394 1_554 S
C1184 C1185 1.516 . S
C1185 C1184 1.516 . S
C1185 C1186 1.502 . S
C1185 C1187 1.561 . S
C1185 C1188 1.526 . S
C1186 H1170 0.959 . S
C1186 H1171 0.959 . S
C1186 H1172 0.961 . S
C1186 C1185 1.502 . S
C1187 H1173 0.960 . S
C1187 H1174 0.961 . S
C1187 H1175 0.959 . S
C1187 C1185 1.561 . S
C1188 C1185 1.526 . S
C1188 C1189 1.396 1_554 S
C1188 C1193 1.390 . S
C1189 C1183 1.465 . S
C1189 C1188 1.396 1_556 S
C1189 C1190 1.399 . S
C1190 H1176 0.929 . S
C1190 C1189 1.399 . S
C1190 C1191 1.385 . S
C1191 H1177 0.931 . S
C1191 C1190 1.385 . S
C1191 C1192 1.389 . S
C1192 C1191 1.389 . S
C1192 C1193 1.387 1_556 S
C1193 H1178 0.930 . S
C1193 C1188 1.390 . S
C1193 C1192 1.387 1_554 S
H1194 C1206 0.930 . S
H1195 C1208 0.930 . S
H1196 C1209 0.930 . S
H1197 C1213 0.959 . S
H1198 C1213 0.959 . S
H1199 C1213 0.961 . S
H1200 C1214 0.960 . S
H1201 C1214 0.961 . S
H1202 C1214 0.959 . S
H1203 C1217 0.929 . S
H1204 C1218 0.931 . S
H1205 C1220 0.930 . S
C1206 H1194 0.930 . S
C1206 C1207 1.399 . S
C1206 C1211 1.399 . S
C1207 C1206 1.399 . S
C1207 C1208 1.376 1_545 S
C1208 H1195 0.930 . S
C1208 C1207 1.376 1_565 S
C1208 C1209 1.388 . S
C1209 H1196 0.930 . S
C1209 C1208 1.388 . S
C1209 C1210 1.390 . S
C1210 C1209 1.390 . S
C1210 C1211 1.394 1_565 S
C1210 C1216 1.465 . S
C1211 C1206 1.399 . S
C1211 C1210 1.394 1_545 S
C1211 C1212 1.516 . S
C1212 C1211 1.516 . S
C1212 C1213 1.502 . S
C1212 C1214 1.561 . S
C1212 C1215 1.526 . S
C1213 H1197 0.959 . S
C1213 H1198 0.959 . S
C1213 H1199 0.961 . S
C1213 C1212 1.502 . S
C1214 H1200 0.960 . S
C1214 H1201 0.961 . S
C1214 H1202 0.959 . S
C1214 C1212 1.561 . S
C1215 C1212 1.526 . S
C1215 C1216 1.396 1_545 S
C1215 C1220 1.390 . S
C1216 C1210 1.465 . S
C1216 C1215 1.396 1_565 S
C1216 C1217 1.399 . S
C1217 H1203 0.929 . S
C1217 C1216 1.399 . S
C1217 C1218 1.385 . S
C1218 H1204 0.931 . S
C1218 C1217 1.385 . S
C1218 C1219 1.389 . S
C1219 C1218 1.389 . S
C1219 C1220 1.387 1_565 S
C1220 H1205 0.930 . S
C1220 C1215 1.390 . S
C1220 C1219 1.387 1_545 S
H1221 C1233 0.930 . S
H1222 C1235 0.930 . S
H1223 C1236 0.930 . S
H1224 C1240 0.959 . S
H1225 C1240 0.959 . S
H1226 C1240 0.961 . S
H1227 C1241 0.960 . S
H1228 C1241 0.961 . S
H1229 C1241 0.959 . S
H1230 C1244 0.929 . S
H1231 C1245 0.931 . S
H1232 C1247 0.930 . S
C1233 H1221 0.930 . S
C1233 C1234 1.399 . S
C1233 C1238 1.399 . S
C1234 C1233 1.399 . S
C1234 C1235 1.376 . S
C1235 H1222 0.930 . S
C1235 C1234 1.376 . S
C1235 C1236 1.388 . S
C1236 H1223 0.930 . S
C1236 C1235 1.388 . S
C1236 C1237 1.390 . S
C1237 C1236 1.390 . S
C1237 C1238 1.394 . S
C1237 C1243 1.465 . S
C1238 C1233 1.399 . S
C1238 C1237 1.394 . S
C1238 C1239 1.516 . S
C1239 C1238 1.516 . S
C1239 C1240 1.502 . S
C1239 C1241 1.561 . S
C1239 C1242 1.526 . S
C1240 H1224 0.959 . S
C1240 H1225 0.959 . S
C1240 H1226 0.961 . S
C1240 C1239 1.502 . S
C1241 H1227 0.960 . S
C1241 H1228 0.961 . S
C1241 H1229 0.959 . S
C1241 C1239 1.561 . S
C1242 C1239 1.526 . S
C1242 C1243 1.396 . S
C1242 C1247 1.390 . S
C1243 C1237 1.465 . S
C1243 C1242 1.396 . S
C1243 C1244 1.399 . S
C1244 H1230 0.929 . S
C1244 C1243 1.399 . S
C1244 C1245 1.385 . S
C1245 H1231 0.931 . S
C1245 C1244 1.385 . S
C1245 C1246 1.389 . S
C1246 C1245 1.389 . S
C1246 C1247 1.387 . S
C1247 H1232 0.930 . S
C1247 C1242 1.390 . S
C1247 C1246 1.387 . S
H1248 C1260 0.930 . S
H1249 C1262 0.930 . S
H1250 C1263 0.918 . S
H1251 C1267 0.959 . S
H1252 C1267 0.959 . S
H1253 C1267 0.961 . S
H1254 C1268 0.960 . S
H1255 C1268 0.961 . S
H1256 C1268 0.959 . S
H1257 C1271 0.929 . S
H1258 C1272 0.931 . S
H1259 C1274 0.930 . S
C1260 H1248 0.930 . S
C1260 C1261 1.399 . S
C1260 C1265 1.399 . S
C1261 C1260 1.399 . S
C1261 C1262 1.376 . S
C1262 H1249 0.930 . S
C1262 C1261 1.376 . S
C1262 C1263 1.388 . S
C1263 H1250 0.918 . S
C1263 C1262 1.388 . S
C1263 C1264 1.390 . S
C1264 C1263 1.390 . S
C1264 C1265 1.394 . S
C1264 C1270 1.465 1_455 S
C1265 C1260 1.399 . S
C1265 C1264 1.394 . S
C1265 C1266 1.516 . S
C1266 C1265 1.516 . S
C1266 C1267 1.502 1_455 S
C1266 C1268 1.561 . S
C1266 C1269 1.525 . S
C1267 H1251 0.959 . S
C1267 H1252 0.959 . S
C1267 H1253 0.961 . S
C1267 C1266 1.502 1_655 S
C1268 H1254 0.960 . S
C1268 H1255 0.961 . S
C1268 H1256 0.959 . S
C1268 C1266 1.561 . S
C1269 C1266 1.525 . S
C1269 C1270 1.398 1_455 S
C1269 C1274 1.389 1_455 S
C1270 C1264 1.465 1_655 S
C1270 C1269 1.398 1_655 S
C1270 C1271 1.399 . S
C1271 H1257 0.929 . S
C1271 C1270 1.399 . S
C1271 C1272 1.385 . S
C1272 H1258 0.931 . S
C1272 C1271 1.385 . S
C1272 C1273 1.389 . S
C1273 C1272 1.389 . S
C1273 C1274 1.387 . S
C1274 H1259 0.930 . S
C1274 C1269 1.389 1_655 S
C1274 C1273 1.387 . S
H1275 C1287 0.930 . S
H1276 C1289 0.930 . S
H1277 C1290 0.930 . S
H1278 C1294 0.959 . S
H1279 C1294 0.959 . S
H1280 C1294 0.961 . S
H1281 C1295 0.960 . S
H1282 C1295 0.961 . S
H1283 C1295 0.959 . S
H1284 C1298 0.929 . S
H1285 C1299 0.931 . S
H1286 C1301 0.930 . S
C1287 H1275 0.930 . S
C1287 C1288 1.399 . S
C1287 C1292 1.399 . S
C1288 C1287 1.399 . S
C1288 C1289 1.376 1_565 S
C1289 H1276 0.930 . S
C1289 C1288 1.376 1_545 S
C1289 C1290 1.388 . S
C1290 H1277 0.930 . S
C1290 C1289 1.388 . S
C1290 C1291 1.390 . S
C1291 C1290 1.390 . S
C1291 C1292 1.394 1_545 S
C1291 C1297 1.465 . S
C1292 C1287 1.399 . S
C1292 C1291 1.394 1_565 S
C1292 C1293 1.516 . S
C1293 C1292 1.516 . S
C1293 C1294 1.502 . S
C1293 C1295 1.561 . S
C1293 C1296 1.526 . S
C1294 H1278 0.959 . S
C1294 H1279 0.959 . S
C1294 H1280 0.961 . S
C1294 C1293 1.502 . S
C1295 H1281 0.960 . S
C1295 H1282 0.961 . S
C1295 H1283 0.959 . S
C1295 C1293 1.561 . S
C1296 C1293 1.526 . S
C1296 C1297 1.396 1_565 S
C1296 C1301 1.390 . S
C1297 C1291 1.465 . S
C1297 C1296 1.396 1_545 S
C1297 C1298 1.399 . S
C1298 H1284 0.929 . S
C1298 C1297 1.399 . S
C1298 C1299 1.385 . S
C1299 H1285 0.931 . S
C1299 C1298 1.385 . S
C1299 C1300 1.389 . S
C1300 C1299 1.389 . S
C1300 C1301 1.387 1_545 S
C1301 H1286 0.930 . S
C1301 C1296 1.390 . S
C1301 C1300 1.387 1_565 S
H1302 C1314 0.930 . S
H1303 C1316 0.930 . S
H1304 C1317 0.930 . S
H1305 C1321 0.959 . S
H1306 C1321 0.959 . S
H1307 C1321 0.961 . S
H1308 C1322 0.960 . S
H1309 C1322 0.961 . S
H1310 C1322 0.959 . S
H1311 C1325 0.929 . S
H1312 C1326 0.931 . S
H1313 C1328 0.930 . S
C1314 H1302 0.930 . S
C1314 C1315 1.399 . S
C1314 C1319 1.399 . S
C1315 C1314 1.399 . S
C1315 C1316 1.376 . S
C1316 H1303 0.930 . S
C1316 C1315 1.376 . S
C1316 C1317 1.388 . S
C1317 H1304 0.930 . S
C1317 C1316 1.388 . S
C1317 C1318 1.390 . S
C1318 C1317 1.390 . S
C1318 C1319 1.394 . S
C1318 C1324 1.465 . S
C1319 C1314 1.399 . S
C1319 C1318 1.394 . S
C1319 C1320 1.516 . S
C1320 C1319 1.516 . S
C1320 C1321 1.502 . S
C1320 C1322 1.561 . S
C1320 C1323 1.526 . S
C1321 H1305 0.959 . S
C1321 H1306 0.959 . S
C1321 H1307 0.961 . S
C1321 C1320 1.502 . S
C1322 H1308 0.960 . S
C1322 H1309 0.961 . S
C1322 H1310 0.959 . S
C1322 C1320 1.561 . S
C1323 C1320 1.526 . S
C1323 C1324 1.396 . S
C1323 C1328 1.390 . S
C1324 C1318 1.465 . S
C1324 C1323 1.396 . S
C1324 C1325 1.399 . S
C1325 H1311 0.929 . S
C1325 C1324 1.399 . S
C1325 C1326 1.385 . S
C1326 H1312 0.931 . S
C1326 C1325 1.385 . S
C1326 C1327 1.389 . S
C1327 C1326 1.389 . S
C1327 C1328 1.387 . S
C1328 H1313 0.930 . S
C1328 C1323 1.390 . S
C1328 C1327 1.387 . S
H1329 C1341 0.930 . S
H1330 C1343 0.921 . S
H1331 C1344 0.930 . S
H1332 C1348 0.932 1_455 S
H1333 C1348 0.956 . S
H1334 C1348 0.963 . S
H1335 C1349 0.960 . S
H1336 C1349 0.961 . S
H1337 C1349 0.959 . S
H1338 C1352 0.929 . S
H1339 C1353 0.931 . S
H1340 C1355 0.930 1_655 S
C1341 H1329 0.930 . S
C1341 C1342 1.399 . S
C1341 C1346 1.399 . S
C1342 C1341 1.399 . S
C1342 C1343 1.376 . S
C1343 H1330 0.921 . S
C1343 C1342 1.376 . S
C1343 C1344 1.388 1_655 S
C1344 H1331 0.930 . S
C1344 C1343 1.388 1_455 S
C1344 C1345 1.399 1_455 S
C1345 C1344 1.399 1_655 S
C1345 C1346 1.388 . S
C1345 C1351 1.460 1_655 S
C1346 C1341 1.399 . S
C1346 C1345 1.388 . S
C1346 C1347 1.516 . S
C1347 C1346 1.516 . S
C1347 C1348 1.532 . S
C1347 C1349 1.561 . S
C1347 C1350 1.526 . S
C1348 H1332 0.932 1_655 S
C1348 H1333 0.956 . S
C1348 H1334 0.963 . S
C1348 C1347 1.532 . S
C1349 H1335 0.960 . S
C1349 H1336 0.961 . S
C1349 H1337 0.959 . S
C1349 C1347 1.561 . S
C1350 C1347 1.526 . S
C1350 C1351 1.396 1_655 S
C1350 C1355 1.390 1_655 S
C1351 C1345 1.460 1_455 S
C1351 C1350 1.396 1_455 S
C1351 C1352 1.399 . S
C1352 H1338 0.929 . S
C1352 C1351 1.399 . S
C1352 C1353 1.385 . S
C1353 H1339 0.931 . S
C1353 C1352 1.385 . S
C1353 C1354 1.389 . S
C1354 C1353 1.389 . S
C1354 C1355 1.387 . S
C1355 H1340 0.930 1_455 S
C1355 C1350 1.390 1_455 S
C1355 C1354 1.387 . S
C721 C5 1.670 . S
C733 C477 1.673 . S
C748 C64 1.676 . S
C760 C536 1.677 . S
C775 C595 1.674 . S
C787 C123 1.676 . S
C802 C654 1.669 . S
C814 C182 1.669 . S
C829 C359 1.671 . S
C841 C241 1.670 . S
C856 C418 1.676 . S
C868 C300 1.675 . S
C883 C3 1.790 . S
C895 C180 1.806 . S
C910 C239 1.793 . S
C922 C62 1.755 . S
C937 C298 1.783 . S
C949 C121 1.810 . S
C964 C357 1.788 . S
C976 C534 1.807 . S
C991 C593 1.798 . S
C1003 C416 1.754 . S
C1018 C475 1.785 . S
C1030 C652 1.758 . S
C1045 C387 1.097 . S
C1057 C33 1.139 . S
C1072 C92 1.095 . S
C1084 C446 1.118 . S
C1099 C505 1.125 . S
C1111 C151 1.146 . S
C1126 C564 1.093 . S
C1138 C210 1.128 . S
C1153 C269 1.147 . S
C1165 C623 1.121 . S
C1180 C682 1.103 . S
C1192 C328 1.145 . S
C1207 C52 1.215 . S
C1219 C465 1.222 . S
C1234 C524 1.219 . S
C1246 C111 1.208 . S
C1261 C583 1.221 . S
C1273 C170 1.220 . S
C1288 C229 1.213 . S
C1300 C642 1.222 . S
C1315 C701 1.199 . S
C1327 C288 1.211 . S
C1342 C406 1.220 . S
C1354 C347 1.221 . S
