# Generated by pormake.
# Topology pcl, (4)-cn, num edge types: 1
# Building blocks:
#     Node 0, Type 0, BuildingBlock: AZAVOO_clean_sbu_0, # of connection points: 4
#     Node 1, Type 0, BuildingBlock: AZAVOO_clean_sbu_0, # of connection points: 4
#     Node 2, Type 0, BuildingBlock: AZAVOO_clean_sbu_0, # of connection points: 4
#     Node 3, Type 0, BuildingBlock: AZAVOO_clean_sbu_0, # of connection points: 4
#     Node 4, Type 0, BuildingBlock: AZAVOO_clean_sbu_0, # of connection points: 4
#     Node 5, Type 0, BuildingBlock: AZAVOO_clean_sbu_0, # of connection points: 4
#     Node 6, Type 0, BuildingBlock: AZAVOO_clean_sbu_0, # of connection points: 4
#     Node 7, Type 0, BuildingBlock: AZAVOO_clean_sbu_0, # of connection points: 4
#     Node 8, Type 0, BuildingBlock: AZAVOO_clean_sbu_0, # of connection points: 4
#     Node 9, Type 0, BuildingBlock: AZAVOO_clean_sbu_0, # of connection points: 4
#     Node 10, Type 0, BuildingBlock: AZAVOO_clean_sbu_0, # of connection points: 4
#     Node 11, Type 0, BuildingBlock: AZAVOO_clean_sbu_0, # of connection points: 4
#     Node 12, Type 0, BuildingBlock: AZAVOO_clean_sbu_0, # of connection points: 4
#     Node 13, Type 0, BuildingBlock: AZAVOO_clean_sbu_0, # of connection points: 4
#     Node 14, Type 0, BuildingBlock: AZAVOO_clean_sbu_0, # of connection points: 4
#     Node 15, Type 0, BuildingBlock: AZAVOO_clean_sbu_0, # of connection points: 4
#     Edge 16, Type (0, 0), BuildingBlock: XIVTED_clean_linker_0, # of connection points: 2
#     Edge 17, Type (0, 0), BuildingBlock: XIVTED_clean_linker_0, # of connection points: 2
#     Edge 18, Type (0, 0), BuildingBlock: XIVTED_clean_linker_0, # of connection points: 2
#     Edge 19, Type (0, 0), BuildingBlock: XIVTED_clean_linker_0, # of connection points: 2
#     Edge 20, Type (0, 0), BuildingBlock: XIVTED_clean_linker_0, # of connection points: 2
#     Edge 21, Type (0, 0), BuildingBlock: XIVTED_clean_linker_0, # of connection points: 2
#     Edge 22, Type (0, 0), BuildingBlock: XIVTED_clean_linker_0, # of connection points: 2
#     Edge 23, Type (0, 0), BuildingBlock: XIVTED_clean_linker_0, # of connection points: 2
#     Edge 24, Type (0, 0), BuildingBlock: XIVTED_clean_linker_0, # of connection points: 2
#     Edge 25, Type (0, 0), BuildingBlock: XIVTED_clean_linker_0, # of connection points: 2
#     Edge 26, Type (0, 0), BuildingBlock: XIVTED_clean_linker_0, # of connection points: 2
#     Edge 27, Type (0, 0), BuildingBlock: XIVTED_clean_linker_0, # of connection points: 2
#     Edge 28, Type (0, 0), BuildingBlock: XIVTED_clean_linker_0, # of connection points: 2
#     Edge 29, Type (0, 0), BuildingBlock: XIVTED_clean_linker_0, # of connection points: 2
#     Edge 30, Type (0, 0), BuildingBlock: XIVTED_clean_linker_0, # of connection points: 2
#     Edge 31, Type (0, 0), BuildingBlock: XIVTED_clean_linker_0, # of connection points: 2
#     Edge 32, Type (0, 0), BuildingBlock: XIVTED_clean_linker_0, # of connection points: 2
#     Edge 33, Type (0, 0), BuildingBlock: XIVTED_clean_linker_0, # of connection points: 2
#     Edge 34, Type (0, 0), BuildingBlock: XIVTED_clean_linker_0, # of connection points: 2
#     Edge 35, Type (0, 0), BuildingBlock: XIVTED_clean_linker_0, # of connection points: 2
#     Edge 36, Type (0, 0), BuildingBlock: XIVTED_clean_linker_0, # of connection points: 2
#     Edge 37, Type (0, 0), BuildingBlock: XIVTED_clean_linker_0, # of connection points: 2
#     Edge 38, Type (0, 0), BuildingBlock: XIVTED_clean_linker_0, # of connection points: 2
#     Edge 39, Type (0, 0), BuildingBlock: XIVTED_clean_linker_0, # of connection points: 2
#     Edge 40, Type (0, 0), BuildingBlock: XIVTED_clean_linker_0, # of connection points: 2
#     Edge 41, Type (0, 0), BuildingBlock: XIVTED_clean_linker_0, # of connection points: 2
#     Edge 42, Type (0, 0), BuildingBlock: XIVTED_clean_linker_0, # of connection points: 2
#     Edge 43, Type (0, 0), BuildingBlock: XIVTED_clean_linker_0, # of connection points: 2
#     Edge 44, Type (0, 0), BuildingBlock: XIVTED_clean_linker_0, # of connection points: 2
#     Edge 45, Type (0, 0), BuildingBlock: XIVTED_clean_linker_0, # of connection points: 2
#     Edge 46, Type (0, 0), BuildingBlock: XIVTED_clean_linker_0, # of connection points: 2
#     Edge 47, Type (0, 0), BuildingBlock: XIVTED_clean_linker_0, # of connection points: 2
# Relax obj value: 0.076
# Max RMSD: 0.072
# Mean RMSD: 0.071
data_MOF--net-pcl--node1-AZAVOO_clean_sbu_0--edge1-XIVTED_clean_linker_0
_symmetry_space_group_name_H-M    P1
_symmetry_Int_Tables_number       1
_symmetry_cell_setting            triclinic
loop_
_symmetry_equiv_pos_as_xyz
'x, y, z'
_cell_length_a     39.053592
_cell_length_b     52.049738
_cell_length_c     46.352679
_cell_angle_alpha  89.864534
_cell_angle_beta   90.015052
_cell_angle_gamma 90.068767
loop_
_atom_site_label
_atom_site_type_symbol
_atom_site_fract_x
_atom_site_fract_y
_atom_site_fract_z
_atom_type_partial_charge
Mg0 Mg 0.23942 0.3666 0.06438 0.0
O1 O 0.18075 0.36992 0.06333 0.0
O2 O 0.16341 0.3784 0.01837 0.0
Mg3 Mg 0.21089 0.37682 0.98991 0.0
C4 C 0.15709 0.37474 0.04507 0.0
C5 C 0.25105 0.36841 0.12871 0.0
O6 O 0.27094 0.38668 0.11855 0.0
O7 O 0.23532 0.32576 0.04726 0.0
O8 O 0.21698 0.33446 0.00254 0.0
O9 O 0.24291 0.40894 0.06831 0.0
O10 O 0.24276 0.38839 0.02661 0.0
C11 C 0.22533 0.31852 0.02234 0.0
C12 C 0.24179 0.4098 0.04045 0.0
O13 O 0.23537 0.35396 0.11104 0.0
Mg14 Mg 0.80617 0.61616 0.56955 0.0
O15 O 0.86403 0.60914 0.56744 0.0
O16 O 0.87915 0.60057 0.52203 0.0
Mg17 Mg 0.83073 0.6039 0.49472 0.0
C18 C 0.88665 0.60356 0.5486 0.0
C19 C 0.78903 0.6409 0.62896 0.0
O20 O 0.76232 0.64931 0.61454 0.0
O21 O 0.81419 0.65641 0.55172 0.0
O22 O 0.8284 0.64678 0.50622 0.0
O23 O 0.79648 0.57442 0.57421 0.0
O24 O 0.79873 0.59483 0.53232 0.0
C25 C 0.82278 0.66313 0.52622 0.0
C26 C 0.79574 0.57355 0.54632 0.0
O27 O 0.81224 0.62863 0.61574 0.0
Mg28 Mg 0.19023 0.61672 0.91111 0.0
O29 O 0.1316 0.61291 0.90882 0.0
O30 O 0.11258 0.60453 0.95333 0.0
Mg31 Mg 0.1581 0.60466 0.98407 0.0
C32 C 0.10725 0.60819 0.92647 0.0
C33 C 0.21526 0.61806 0.85103 0.0
O34 O 0.23549 0.60253 0.8655 0.0
O35 O 0.18488 0.65708 0.92927 0.0
O36 O 0.16666 0.64735 0.97376 0.0
O37 O 0.1963 0.57447 0.90659 0.0
O38 O 0.19205 0.59448 0.9484 0.0
C39 C 0.1755 0.66375 0.95456 0.0
C40 C 0.19487 0.57326 0.93443 0.0
O41 O 0.19203 0.63007 0.86462 0.0
Mg42 Mg 0.77028 0.36412 0.41775 0.0
O43 O 0.8287 0.36869 0.41745 0.0
O44 O 0.84768 0.3757 0.46216 0.0
Mg45 Mg 0.80115 0.37266 0.49171 0.0
C46 C 0.85299 0.37319 0.43516 0.0
C47 C 0.75938 0.36804 0.3533 0.0
O48 O 0.74007 0.38651 0.36361 0.0
O49 O 0.77579 0.32302 0.43362 0.0
O50 O 0.79484 0.3304 0.47839 0.0
O51 O 0.76495 0.40633 0.4152 0.0
O52 O 0.76728 0.38475 0.4563 0.0
C53 C 0.78614 0.31505 0.45817 0.0
C54 C 0.76651 0.40652 0.44306 0.0
O55 O 0.77386 0.35271 0.3708 0.0
Mg56 Mg 0.77907 0.62095 0.89674 0.0
O57 O 0.83746 0.62149 0.8918 0.0
O58 O 0.85347 0.65419 0.86364 0.0
Mg59 Mg 0.80478 0.67661 0.85313 0.0
C60 C 0.86059 0.63443 0.87883 0.0
C61 C 0.80139 0.56968 0.92399 0.0
O62 O 0.81536 0.56825 0.89826 0.0
O63 O 0.78271 0.653 0.9301 0.0
O64 O 0.79868 0.68545 0.90127 0.0
O65 O 0.77452 0.59958 0.85528 0.0
O66 O 0.77357 0.64193 0.85887 0.0
C67 C 0.79121 0.67646 0.92618 0.0
C68 C 0.77369 0.62185 0.84282 0.0
O69 O 0.78444 0.58963 0.93068 0.0
Mg70 Mg 0.18052 0.36734 0.39117 0.0
O71 O 0.12185 0.3695 0.38863 0.0
O72 O 0.10374 0.33786 0.35993 0.0
Mg73 Mg 0.15032 0.31548 0.34432 0.0
C74 C 0.0978 0.35709 0.3762 0.0
C75 C 0.20981 0.40425 0.43589 0.0
O76 O 0.23742 0.39335 0.42533 0.0
O77 O 0.17671 0.33321 0.4219 0.0
O78 O 0.16075 0.30258 0.39087 0.0
O79 O 0.18669 0.39145 0.35173 0.0
O80 O 0.18303 0.34913 0.35135 0.0
C81 C 0.16926 0.30985 0.41622 0.0
C82 C 0.18601 0.37027 0.33716 0.0
O83 O 0.18066 0.39658 0.42731 0.0
Mg84 Mg 0.82954 0.37159 0.09201 0.0
O85 O 0.88828 0.36965 0.09161 0.0
O86 O 0.90393 0.33619 0.11883 0.0
Mg87 Mg 0.85589 0.31685 0.13659 0.0
C88 C 0.91132 0.35532 0.10271 0.0
C89 C 0.81036 0.42012 0.06048 0.0
O90 O 0.79148 0.42018 0.08394 0.0
O91 O 0.82606 0.33786 0.06083 0.0
O92 O 0.8391 0.30571 0.09093 0.0
O93 O 0.82955 0.39526 0.13211 0.0
O94 O 0.8276 0.3529 0.13168 0.0
C95 C 0.82971 0.31393 0.06614 0.0
C96 C 0.82839 0.37384 0.1463 0.0
O97 O 0.83022 0.40122 0.05603 0.0
Mg98 Mg 0.21605 0.61549 0.58115 0.0
O99 O 0.15727 0.61543 0.5835 0.0
O100 O 0.14067 0.64859 0.61059 0.0
Mg101 Mg 0.18833 0.67086 0.62383 0.0
C102 C 0.13386 0.62877 0.59549 0.0
C103 C 0.23685 0.56753 0.54767 0.0
O104 O 0.26229 0.57031 0.56596 0.0
O105 O 0.21494 0.64788 0.54791 0.0
O106 O 0.19909 0.6804 0.57637 0.0
O107 O 0.21901 0.59329 0.62207 0.0
O108 O 0.21896 0.6357 0.61997 0.0
C109 C 0.20781 0.67157 0.55174 0.0
C110 C 0.21875 0.61511 0.6354 0.0
O111 O 0.21332 0.58435 0.54713 0.0
Mg112 Mg 0.68349 0.87296 0.06633 0.0
O113 O 0.6279 0.86017 0.05967 0.0
O114 O 0.61699 0.86315 0.0124 0.0
Mg115 Mg 0.66523 0.87714 0.98907 0.0
C116 C 0.60762 0.85799 0.03817 0.0
C117 C 0.69642 0.87761 0.12821 0.0
O118 O 0.70853 0.89812 0.11515 0.0
O119 O 0.70261 0.83454 0.0496 0.0
O120 O 0.69475 0.84078 0.00223 0.0
O121 O 0.66633 0.91342 0.07033 0.0
O122 O 0.68135 0.89554 0.02912 0.0
C123 C 0.70582 0.82741 0.02343 0.0
C124 C 0.66969 0.91522 0.04267 0.0
O125 O 0.68338 0.85982 0.113 0.0
Mg126 Mg 0.2924 0.11546 0.55521 0.0
O127 O 0.34801 0.12903 0.55656 0.0
O128 O 0.36812 0.1295 0.51138 0.0
Mg129 Mg 0.32611 0.11381 0.48169 0.0
C130 C 0.37195 0.13323 0.53841 0.0
C131 C 0.27061 0.11095 0.61623 0.0
O132 O 0.25893 0.0904 0.60306 0.0
O133 O 0.27451 0.15362 0.53632 0.0
O134 O 0.2914 0.1484 0.49058 0.0
O135 O 0.31062 0.07567 0.56151 0.0
O136 O 0.30332 0.09359 0.51866 0.0
C137 C 0.27547 0.16096 0.51005 0.0
C138 C 0.31374 0.07431 0.53379 0.0
O139 O 0.28499 0.12835 0.60127 0.0
Mg140 Mg 0.69068 0.12868 0.92639 0.0
O141 O 0.63276 0.13593 0.92804 0.0
O142 O 0.61572 0.12934 0.97347 0.0
Mg143 Mg 0.6624 0.11935 0.00088 0.0
C144 C 0.60927 0.13484 0.94717 0.0
C145 C 0.7103 0.12915 0.86522 0.0
O146 O 0.7274 0.11053 0.87785 0.0
O147 O 0.7022 0.16748 0.94679 0.0
O148 O 0.68734 0.15854 -0.00775 0.0
O149 O 0.68043 0.08734 0.91876 0.0
O150 O 0.68722 0.10424 0.96208 0.0
C151 C 0.69996 0.17375 0.97333 0.0
C152 C 0.67997 0.08453 0.94647 0.0
O153 O 0.69249 0.14407 0.8808 0.0
Mg154 Mg 0.33442 0.86609 0.41645 0.0
O155 O 0.3906 0.85444 0.4187 0.0
O156 O 0.40607 0.85362 0.46515 0.0
Mg157 Mg 0.36056 0.86775 0.49211 0.0
C158 C 0.41279 0.85054 0.43842 0.0
C159 C 0.31907 0.87175 0.35425 0.0
O160 O 0.30827 0.89276 0.36695 0.0
O161 O 0.31691 0.82704 0.43341 0.0
O162 O 0.32835 0.83241 0.48035 0.0
O163 O 0.35037 0.9068 0.41251 0.0
O164 O 0.33986 0.88761 0.45411 0.0
C165 C 0.31528 0.81957 0.45961 0.0
C166 C 0.34961 0.90786 0.44036 0.0
O167 O 0.33137 0.8538 0.36969 0.0
Mg168 Mg 0.28897 0.10903 0.8851 0.0
O169 O 0.34582 0.11944 0.88868 0.0
O170 O 0.35419 0.15599 0.8642 0.0
Mg171 Mg 0.3032 0.16825 0.84398 0.0
C172 C 0.36529 0.13758 0.87987 0.0
C173 C 0.2658 0.06848 0.92755 0.0
O174 O 0.23717 0.07748 0.9166 0.0
O175 O 0.27648 0.14039 0.91755 0.0
O176 O 0.28067 0.17512 0.88902 0.0
O177 O 0.29738 0.0871 0.84449 0.0
O178 O 0.28531 0.12848 0.84606 0.0
C179 C 0.27331 0.16447 0.9131 0.0
C180 C 0.29244 0.10854 0.83091 0.0
O181 O 0.29395 0.07867 0.91993 0.0
Mg182 Mg 0.73486 0.87105 0.39552 0.0
O183 O 0.67942 0.85764 0.39992 0.0
O184 O 0.67307 0.8208 0.3757 0.0
Mg185 Mg 0.72374 0.81274 0.35235 0.0
C186 C 0.66125 0.83862 0.39172 0.0
C187 C 0.70447 0.91575 0.43077 0.0
O188 O 0.68513 0.91636 0.40759 0.0
O189 O 0.75299 0.83906 0.42554 0.0
O190 O 0.75074 0.80552 0.3954 0.0
O191 O 0.72051 0.89405 0.35695 0.0
O192 O 0.73746 0.85361 0.35513 0.0
C193 C 0.75883 0.81555 0.41957 0.0
C194 C 0.72566 0.8735 0.34191 0.0
O195 O 0.72748 0.8986 0.43292 0.0
Mg196 Mg 0.28554 0.86538 0.08678 0.0
O197 O 0.34112 0.85293 0.07966 0.0
O198 O 0.35066 0.81805 0.10672 0.0
Mg199 Mg 0.30125 0.80814 0.13092 0.0
C200 C 0.36082 0.83512 0.08883 0.0
C201 C 0.26223 0.90694 0.04546 0.0
O202 O 0.23493 0.9022 0.06119 0.0
O203 O 0.26675 0.83285 0.05808 0.0
O204 O 0.273 0.79975 0.08859 0.0
O205 O 0.30116 0.88909 0.1244 0.0
O206 O 0.28558 0.84838 0.12748 0.0
C207 C 0.26283 0.8092 0.06461 0.0
C208 C 0.29701 0.86867 0.14002 0.0
O209 O 0.28887 0.89343 0.04947 0.0
Mg210 Mg 0.69049 0.1147 0.59769 0.0
O211 O 0.63419 0.12601 0.59339 0.0
O212 O 0.62788 0.16503 0.61288 0.0
Mg213 Mg 0.67864 0.17616 0.63452 0.0
C214 C 0.61593 0.14556 0.59952 0.0
C215 C 0.69939 0.06254 0.56993 0.0
O216 O 0.71719 0.06094 0.59393 0.0
O217 O 0.70587 0.14436 0.56371 0.0
O218 O 0.70435 0.18018 0.59041 0.0
O219 O 0.67989 0.09473 0.63921 0.0
O220 O 0.69413 0.13568 0.63567 0.0
C221 C 0.71158 0.1683 0.56712 0.0
C222 C 0.68539 0.11657 0.65171 0.0
O223 O 0.68411 0.08345 0.56409 0.0
H224 H 0.1006 0.39179 0.01563 0.0
H225 H 0.96781 0.3358 0.12997 0.0
H226 H 0.13125 0.35809 0.09685 0.0
H227 H 0.93807 0.38664 0.06062 0.0
H228 H 0.02778 0.34288 0.11748 0.0
H229 H 0.04087 0.38936 0.03104 0.0
C230 C 0.09482 0.38399 0.03676 0.0
C231 C 0.12103 0.37499 0.0549 0.0
C232 C 0.00815 0.35262 0.10511 0.0
C233 C 0.05262 0.37202 0.07256 0.0
C234 C 0.97387 0.34852 0.11215 0.0
C235 C 0.9478 0.36054 0.09622 0.0
C236 C 0.01653 0.36862 0.08173 0.0
C237 C 0.95728 0.37696 0.07349 0.0
C238 C 0.0607 0.38268 0.04556 0.0
C239 C 0.11194 0.36523 0.08211 0.0
N240 N 0.99087 0.38035 0.06677 0.0
N241 N 0.07848 0.36379 0.09001 0.0
H242 H 0.94176 0.58678 0.51712 0.0
H243 H 0.07819 0.64508 0.62613 0.0
H244 H 0.91472 0.61828 0.60016 0.0
H245 H 0.10668 0.59625 0.5549 0.0
H246 H 0.01811 0.63535 0.61681 0.0
H247 H 0.00221 0.58963 0.53042 0.0
C248 C 0.94847 0.59408 0.53824 0.0
C249 C 0.92307 0.60251 0.55745 0.0
C250 C 0.03749 0.62658 0.60335 0.0
C251 C 0.99225 0.60601 0.57267 0.0
C252 C 0.07183 0.63222 0.60858 0.0
C253 C 0.09754 0.62161 0.59114 0.0
C254 C 0.02865 0.61049 0.58025 0.0
C255 C 0.08772 0.60489 0.56887 0.0
C256 C 0.98301 0.59565 0.54583 0.0
C257 C 0.93336 0.61164 0.5846 0.0
N258 N 0.05402 0.60005 0.56387 0.0
N259 N 0.96715 0.61341 0.59125 0.0
H260 H 0.88687 0.59809 0.91551 0.0
H261 H 0.08239 0.62745 0.87539 0.0
H262 H 0.9172 0.65368 0.85102 0.0
H263 H 0.05043 0.58932 0.95374 0.0
H264 H 0.02226 0.63091 0.86087 0.0
H265 H 0.94712 0.58845 0.92431 0.0
C266 C 0.90614 0.60815 0.90302 0.0
C267 C 0.89689 0.62696 0.88269 0.0
C268 C 0.0285 0.62164 0.88113 0.0
C269 C 0.966 0.61591 0.89268 0.0
C270 C 0.0628 0.61955 0.88939 0.0
C271 C 0.07146 0.60829 0.91596 0.0
C272 C 0.00274 0.61216 0.89944 0.0
C273 C 0.04496 0.5984 0.93322 0.0
C274 C 0.94056 0.60266 0.90812 0.0
C275 C 0.9231 0.63923 0.8671 0.0
N276 N 0.01183 0.60064 0.9247 0.0
N277 N 0.95647 0.63356 0.8725 0.0
H278 H 0.0731 0.38822 0.41912 0.0
H279 H 0.87652 0.36058 0.3813 0.0
H280 H 0.04021 0.34141 0.34745 0.0
H281 H 0.91068 0.38893 0.46396 0.0
H282 H 0.93589 0.36026 0.36474 0.0
H283 H 0.01308 0.39554 0.43174 0.0
C284 C 0.05331 0.37973 0.40583 0.0
C285 C 0.06175 0.36397 0.38233 0.0
C286 C 0.93034 0.36667 0.38645 0.0
C287 C 0.99307 0.37228 0.3967 0.0
C288 C 0.89643 0.36693 0.39592 0.0
C289 C 0.88857 0.37457 0.42419 0.0
C290 C 0.95661 0.3743 0.40526 0.0
C291 C 0.91552 0.38265 0.44209 0.0
C292 C 0.01906 0.38382 0.41314 0.0
C293 C 0.03495 0.35347 0.36592 0.0
N294 N 0.94834 0.38223 0.43236 0.0
N295 N 0.00184 0.35774 0.37348 0.0
H296 H 0.41483 0.80974 0.11361 0.0
H297 H 0.55314 0.86305 0.00141 0.0
H298 H 0.38948 0.86036 0.04283 0.0
H299 H 0.5795 0.83696 0.0871 0.0
H300 H 0.49287 0.85466 0.012 0.0
H301 H 0.47517 0.81227 0.09971 0.0
C302 C 0.42187 0.82119 0.09499 0.0
C303 C 0.39705 0.83501 0.07946 0.0
C304 C 0.51191 0.85064 0.0284 0.0
C305 C 0.46599 0.83784 0.06344 0.0
C306 C 0.54634 0.8553 0.02235 0.0
C307 C 0.57145 0.85087 0.04348 0.0
C308 C 0.50248 0.84121 0.05564 0.0
C309 C 0.56102 0.84086 0.07024 0.0
C310 C 0.45632 0.8227 0.08717 0.0
C311 C 0.40774 0.84957 0.05556 0.0
N312 N 0.5273 0.83639 0.07557 0.0
N313 N 0.44142 0.85061 0.04829 0.0
H314 H 0.57211 0.10503 0.60181 0.0
H315 H 0.42192 0.16214 0.51234 0.0
H316 H 0.57704 0.18539 0.57923 0.0
H317 H 0.40066 0.11751 0.58885 0.0
H318 H 0.48145 0.16748 0.52885 0.0
H319 H 0.51116 0.10475 0.58891 0.0
C320 C 0.56034 0.12256 0.59401 0.0
C321 C 0.57942 0.14527 0.59157 0.0
C322 C 0.46348 0.15683 0.54208 0.0
C323 C 0.51036 0.14493 0.57639 0.0
C324 C 0.4297 0.15375 0.53272 0.0
C325 C 0.40643 0.13944 0.54934 0.0
C326 C 0.47411 0.14475 0.56763 0.0
C327 C 0.41774 0.12886 0.57553 0.0
C328 C 0.52567 0.12242 0.58687 0.0
C329 C 0.56301 0.16755 0.58152 0.0
N330 N 0.45099 0.13131 0.58363 0.0
N331 N 0.52938 0.16676 0.57386 0.0
H332 H 0.55183 0.12275 0.9781 0.0
H333 H 0.41851 0.16527 0.85674 0.0
H334 H 0.58408 0.15323 0.89571 0.0
H335 H 0.39479 0.11063 0.92409 0.0
H336 H 0.47803 0.16622 0.87343 0.0
H337 H 0.49255 0.12409 0.96166 0.0
C338 C 0.54648 0.12998 0.95664 0.0
C339 C 0.57308 0.13782 0.93823 0.0
C340 C 0.45975 0.154 0.88446 0.0
C341 C 0.50509 0.13929 0.91927 0.0
C342 C 0.42579 0.15346 0.87501 0.0
C343 C 0.40161 0.1378 0.88901 0.0
C344 C 0.46945 0.13909 0.90836 0.0
C345 C 0.41254 0.12287 0.91253 0.0
C346 C 0.5126 0.13056 0.94722 0.0
C347 C 0.56444 0.14689 0.91059 0.0
N348 N 0.4456 0.12401 0.92156 0.0
N349 N 0.53115 0.1474 0.90195 0.0
H350 H 0.44571 0.86787 0.39058 0.0
H351 H 0.6214 0.79719 0.40629 0.0
H352 H 0.46101 0.82186 0.46708 0.0
H353 H 0.61809 0.87934 0.394 0.0
H354 H 0.55964 0.7977 0.41764 0.0
H355 H 0.5067 0.86343 0.37922 0.0
C356 C 0.46177 0.85642 0.40467 0.0
C357 C 0.44843 0.84524 0.42984 0.0
C358 C 0.57268 0.81551 0.41248 0.0
C359 C 0.51768 0.83989 0.4167 0.0
C360 C 0.60765 0.81525 0.40598 0.0
C361 C 0.62467 0.83829 0.39938 0.0
C362 C 0.55473 0.83879 0.41128 0.0
C363 C 0.60588 0.86122 0.39923 0.0
C364 C 0.49646 0.85408 0.39826 0.0
C365 C 0.47045 0.83085 0.44755 0.0
N366 N 0.57174 0.86086 0.4047 0.0
N367 N 0.50415 0.82844 0.44056 0.0
H368 H 0.26931 0.40309 0.16995 0.0
H369 H 0.18007 0.32953 0.30015 0.0
H370 H 0.21341 0.33225 0.15806 0.0
H371 H 0.20475 0.41038 0.30245 0.0
H372 H 0.19551 0.32857 0.24918 0.0
H373 H 0.25092 0.40394 0.22019 0.0
C374 C 0.25343 0.38756 0.17796 0.0
C375 C 0.24284 0.36756 0.15977 0.0
C376 C 0.1972 0.34656 0.2608 0.0
C377 C 0.22154 0.36857 0.21723 0.0
C378 C 0.18826 0.34717 0.2899 0.0
C379 C 0.19106 0.3701 0.30562 0.0
C380 C 0.20956 0.36893 0.24747 0.0
C381 C 0.20212 0.3923 0.29116 0.0
C382 C 0.2427 0.38821 0.20659 0.0
C383 C 0.22214 0.34804 0.17134 0.0
N384 N 0.21131 0.39111 0.26294 0.0
N385 N 0.21218 0.34901 0.19941 0.0
H386 H 0.74832 0.66902 0.66527 0.0
H387 H 0.7972 0.58683 0.80362 0.0
H388 H 0.82957 0.61279 0.66501 0.0
H389 H 0.75548 0.66332 0.81055 0.0
H390 H 0.80267 0.59303 0.75137 0.0
H391 H 0.74489 0.66494 0.71793 0.0
C392 C 0.76562 0.65605 0.67629 0.0
C393 C 0.7892 0.64121 0.66077 0.0
C394 C 0.79237 0.60843 0.76441 0.0
C395 C 0.78489 0.63606 0.72056 0.0
C396 C 0.78904 0.60483 0.7941 0.0
C397 C 0.77597 0.62462 0.8113 0.0
C398 C 0.78197 0.63177 0.75191 0.0
C399 C 0.76588 0.64765 0.79799 0.0
C400 C 0.76363 0.65371 0.70625 0.0
C401 C 0.81103 0.62465 0.6761 0.0
N402 N 0.7689 0.65056 0.76901 0.0
N403 N 0.80806 0.6223 0.70513 0.0
H404 H 0.24815 0.58438 0.81594 0.0
H405 H 0.21057 0.65765 0.66965 0.0
H406 H 0.1863 0.65308 0.81391 0.0
H407 H 0.22453 0.57544 0.67374 0.0
H408 H 0.20932 0.65907 0.72225 0.0
H409 H 0.24842 0.58389 0.76335 0.0
C410 C 0.23485 0.59951 0.80443 0.0
C411 C 0.21712 0.61882 0.81929 0.0
C412 C 0.21241 0.64074 0.71154 0.0
C413 C 0.21747 0.61831 0.75915 0.0
C414 C 0.21305 0.63986 0.6815 0.0
C415 C 0.21725 0.61633 0.66719 0.0
C416 C 0.21682 0.61802 0.72736 0.0
C417 C 0.22102 0.59398 0.68385 0.0
C418 C 0.23483 0.59907 0.77444 0.0
C419 C 0.20018 0.63783 0.80324 0.0
N420 N 0.22097 0.59539 0.71309 0.0
N421 N 0.2009 0.63718 0.77392 0.0
H422 H 0.83346 0.33238 0.18251 0.0
H423 H 0.74485 0.4047 0.31301 0.0
H424 H 0.81316 0.41389 0.18199 0.0
H425 H 0.79634 0.3319 0.32372 0.0
H426 H 0.76559 0.4068 0.26346 0.0
H427 H 0.81786 0.33072 0.23338 0.0
C428 C 0.82625 0.35001 0.19316 0.0
C429 C 0.82453 0.37331 0.17792 0.0
C430 C 0.77235 0.39037 0.27666 0.0
C431 C 0.80584 0.37138 0.23597 0.0
C432 C 0.76025 0.38901 0.30486 0.0
C433 C 0.76886 0.36806 0.32251 0.0
C434 C 0.7929 0.37051 0.26589 0.0
C435 C 0.78908 0.34839 0.31083 0.0
C436 C 0.81723 0.34901 0.22221 0.0
C437 C 0.81489 0.39553 0.19291 0.0
N438 N 0.80037 0.35006 0.28317 0.0
N439 N 0.80546 0.39396 0.22105 0.0
H440 H 0.73101 0.83269 0.30476 0.0
H441 H 0.70264 0.91752 0.16523 0.0
H442 H 0.70196 0.91265 0.30818 0.0
H443 H 0.69155 0.83501 0.16325 0.0
H444 H 0.70592 0.91585 0.21761 0.0
H445 H 0.71969 0.83271 0.25295 0.0
C446 C 0.72189 0.85017 0.29475 0.0
C447 C 0.71738 0.87272 0.31088 0.0
C448 C 0.70254 0.8981 0.20579 0.0
C449 C 0.70501 0.87291 0.25157 0.0
C450 C 0.70088 0.899 0.17587 0.0
C451 C 0.69705 0.87632 0.15993 0.0
C452 C 0.70094 0.87431 0.21994 0.0
C453 C 0.69454 0.85292 0.17483 0.0
C454 C 0.71545 0.85014 0.26515 0.0
C455 C 0.70587 0.89486 0.2966 0.0
N456 N 0.69692 0.85246 0.20411 0.0
N457 N 0.70039 0.89446 0.2677 0.0
H458 H 0.28991 0.1514 0.79646 0.0
H459 H 0.25538 0.07207 0.6535 0.0
H460 H 0.29513 0.06861 0.7929 0.0
H461 H 0.28951 0.15101 0.65127 0.0
H462 H 0.26295 0.07173 0.70567 0.0
H463 H 0.28472 0.1527 0.74404 0.0
C464 C 0.29041 0.13351 0.7847 0.0
C465 C 0.29305 0.10985 0.79913 0.0
C466 C 0.26876 0.08913 0.69376 0.0
C467 C 0.28627 0.11124 0.73922 0.0
C468 C 0.26417 0.08944 0.664 0.0
C469 C 0.2719 0.11161 0.64801 0.0
C470 C 0.28077 0.11124 0.70772 0.0
C471 C 0.28331 0.1335 0.6628 0.0
C472 C 0.28734 0.13429 0.75476 0.0
C473 C 0.29325 0.08728 0.78267 0.0
N474 N 0.28736 0.13279 0.69192 0.0
N475 N 0.28954 0.08852 0.75358 0.0
H476 H 0.68408 0.16729 0.83051 0.0
H477 H 0.68132 0.07806 0.69146 0.0
H478 H 0.72823 0.09129 0.828 0.0
H479 H 0.68673 0.16068 0.68406 0.0
H480 H 0.68623 0.08208 0.74379 0.0
H481 H 0.67461 0.1649 0.77811 0.0
C482 C 0.69196 0.15023 0.81894 0.0
C483 C 0.70705 0.12949 0.83356 0.0
C484 C 0.68608 0.09932 0.73064 0.0
C485 C 0.6955 0.12643 0.77429 0.0
C486 C 0.68303 0.09706 0.70083 0.0
C487 C 0.68382 0.11907 0.68335 0.0
C488 C 0.6895 0.12374 0.74306 0.0
C489 C 0.68616 0.14321 0.69669 0.0
C490 C 0.68649 0.14888 0.78918 0.0
C491 C 0.7167 0.10779 0.81761 0.0
N492 N 0.68897 0.14494 0.72583 0.0
N493 N 0.71047 0.10674 0.78889 0.0
H494 H 0.31848 0.909 0.17305 0.0
H495 H 0.32623 0.82895 0.32021 0.0
H496 H 0.29338 0.82828 0.17792 0.0
H497 H 0.31156 0.9111 0.31622 0.0
H498 H 0.32493 0.82756 0.26725 0.0
H499 H 0.32739 0.9092 0.22525 0.0
C500 C 0.31519 0.89127 0.18501 0.0
C501 C 0.30513 0.8686 0.17109 0.0
C502 C 0.32207 0.84585 0.27809 0.0
C503 C 0.31532 0.86871 0.23065 0.0
C504 C 0.32283 0.84665 0.30821 0.0
C505 C 0.31869 0.87013 0.32254 0.0
C506 C 0.31771 0.86874 0.26241 0.0
C507 C 0.31448 0.89253 0.30603 0.0
C508 C 0.32018 0.89142 0.21477 0.0
C509 C 0.30126 0.84617 0.18768 0.0
N510 N 0.31417 0.89129 0.27684 0.0
N511 N 0.30631 0.84679 0.21664 0.0
H512 H 0.21763 0.19428 0.90816 0.0
H513 H 0.26675 0.27981 0.04279 0.0
H514 H 0.29638 0.1721 0.96832 0.0
H515 H 0.18273 0.29488 0.98476 0.0
H516 H 0.27209 0.23656 0.0221 0.0
H517 H 0.19819 0.22697 0.94177 0.0
C518 C 0.23046 0.19617 0.92879 0.0
C519 C 0.25869 0.18084 0.93556 0.0
C520 C 0.25205 0.24918 0.01436 0.0
C521 C 0.23748 0.21871 0.97388 0.0
C522 C 0.24894 0.27378 0.02621 0.0
C523 C 0.22477 0.29103 0.01495 0.0
C524 C 0.23072 0.242 -0.00872 0.0
C525 C 0.20224 0.28235 -0.00643 0.0
C526 C 0.21943 0.21481 0.94801 0.0
C527 C 0.27449 0.18375 0.9625 0.0
N528 N 0.20605 0.2586 0.98222 0.0
N529 N 0.2641 0.20281 0.98056 0.0
H530 H 0.7869 0.70297 0.55058 0.0
H531 H 0.81177 0.78423 0.40822 0.0
H532 H 0.85977 0.68557 0.48348 0.0
H533 H 0.74683 0.80964 0.47766 0.0
H534 H 0.83681 0.75218 0.44002 0.0
H535 H 0.77904 0.74585 0.52948 0.0
C536 C 0.80187 0.70841 0.53186 0.0
C537 C 0.8234 0.69056 0.51829 0.0
C538 C 0.81742 0.76489 0.44862 0.0
C539 C 0.81444 0.73922 0.49409 0.0
C540 C 0.8031 0.78314 0.4304 0.0
C541 C 0.77697 0.79919 0.44034 0.0
C542 C 0.80482 0.7621 0.47684 0.0
C543 C 0.76687 0.79739 0.46929 0.0
C544 C 0.7973 0.73283 0.51979 0.0
C545 C 0.84229 0.69855 0.49421 0.0
N546 N 0.78033 0.77868 0.48647 0.0
N547 N 0.83701 0.72214 0.48267 0.0
H548 H 0.21835 0.77205 0.08002 0.0
H549 H 0.21604 0.70178 0.93127 0.0
H550 H 0.26354 0.8079 0.00516 0.0
H551 H 0.14271 0.68712 -0.00099 0.0
H552 H 0.23129 0.7424 0.95485 0.0
H553 H 0.18894 0.74177 0.04888 0.0
C554 C 0.22198 0.77353 0.0569 0.0
C555 C 0.24369 0.7922 0.04509 0.0
C556 C 0.21127 0.73055 0.96409 0.0
C557 C 0.21023 0.75742 0.00914 0.0
C558 C 0.20248 0.70743 0.95062 0.0
C559 C 0.1787 0.69079 0.96365 0.0
C560 C 0.19624 0.73677 0.9907 0.0
C561 C 0.16181 0.69907 0.98863 0.0
C562 C 0.20494 0.75639 0.03907 0.0
C563 C 0.24708 0.79361 0.01499 0.0
N564 N 0.17135 0.72123 0.00159 0.0
N565 N 0.23098 0.77604 -0.00206 0.0
H566 H 0.69676 0.17196 0.50921 0.0
H567 H 0.82745 0.28898 0.49503 0.0
H568 H 0.76721 0.19781 0.57461 0.0
H569 H 0.74186 0.27854 0.43738 0.0
H570 H 0.81689 0.24648 0.51523 0.0
H571 H 0.72305 0.20249 0.47489 0.0
C572 C 0.71823 0.18365 0.51605 0.0
C573 C 0.72966 0.18286 0.5447 0.0
C574 C 0.8007 0.25324 0.49783 0.0
C575 C 0.7598 0.21714 0.50601 0.0
C576 C 0.80678 0.27748 0.48627 0.0
C577 C 0.78499 0.28743 0.46503 0.0
C578 C 0.77216 0.23907 0.48853 0.0
C579 C 0.75899 0.27159 0.45401 0.0
C580 C 0.73312 0.20102 0.49659 0.0
C581 C 0.75742 0.19825 0.55275 0.0
N582 N 0.75272 0.24832 0.46641 0.0
N583 N 0.77138 0.21486 0.53358 0.0
H584 H 0.70259 0.78023 0.05028 0.0
H585 H 0.82827 0.72012 0.93274 0.0
H586 H 0.75267 0.82153 0.98143 0.0
H587 H 0.749 0.67517 0.97365 0.0
H588 H 0.81465 0.7559 0.96448 0.0
H589 H 0.73166 0.74056 0.0344 0.0
C590 C 0.72008 0.78096 0.03217 0.0
C591 C 0.72497 0.8039 0.01676 0.0
C592 C 0.80063 0.73806 0.9669 0.0
C593 C 0.75855 0.75936 -0.0008 0.0
C594 C 0.80843 0.71762 0.94886 0.0
C595 C 0.78913 0.69494 0.95015 0.0
C596 C 0.77304 0.73594 0.98613 0.0
C597 C 0.76419 0.6925 0.9718 0.0
C598 C 0.73655 0.75846 0.02317 0.0
C599 C 0.74783 0.80408 -0.00647 0.0
N600 N 0.75625 0.71307 0.98863 0.0
N601 N 0.76371 0.78215 0.98544 0.0
H602 H 0.2413 0.16581 0.45985 0.0
H603 H 0.20683 0.31271 0.46648 0.0
H604 H 0.26221 0.20609 0.53918 0.0
H605 H 0.14526 0.26075 0.4157 0.0
H606 H 0.22738 0.27594 0.4949 0.0
H607 H 0.20771 0.20215 0.44313 0.0
C608 C 0.23884 0.18242 0.47374 0.0
C609 C 0.2548 0.18313 0.50077 0.0
C610 C 0.20872 0.2728 0.47799 0.0
C611 C 0.21633 0.22495 0.48172 0.0
C612 C 0.19692 0.29373 0.4618 0.0
C613 C 0.17497 0.28969 0.4382 0.0
C614 C 0.19867 0.24786 0.47019 0.0
C615 C 0.16284 0.26471 0.43321 0.0
C616 C 0.21934 0.20306 0.46432 0.0
C617 C 0.25032 0.20495 0.51812 0.0
N618 N 0.17537 0.24472 0.44866 0.0
N619 N 0.23189 0.22533 0.50807 0.0
H620 H 0.7946 0.32178 0.01505 0.0
H621 H 0.70936 0.18856 0.029 0.0
H622 H 0.83631 0.26195 0.06943 0.0
H623 H 0.72933 0.21308 0.94141 0.0
H624 H 0.74474 0.22358 0.04646 0.0
H625 H 0.76284 0.28875 0.988 0.0
C626 C 0.79778 0.30177 0.02089 0.0
C627 C 0.81758 0.29469 0.045 0.0
C628 C 0.74114 0.22135 0.02341 0.0
C629 C 0.78099 0.25742 0.01476 0.0
C630 C 0.72072 0.20148 0.01335 0.0
C631 C 0.71664 0.19759 0.9836 0.0
C632 C 0.75724 0.23783 0.00375 0.0
C633 C 0.73203 0.21526 0.96452 0.0
C634 C 0.7796 0.28305 0.0055 0.0
C635 C 0.82084 0.26845 0.05147 0.0
N636 N 0.75182 0.23475 0.97494 0.0
N637 N 0.80209 0.25087 0.03689 0.0
H638 H 0.25139 0.66764 0.50527 0.0
H639 H 0.271 0.81629 0.50377 0.0
H640 H 0.17899 0.71873 0.54571 0.0
H641 H 0.31106 0.77242 0.43258 0.0
H642 H 0.23707 0.77945 0.5186 0.0
H643 H 0.27231 0.70374 0.47589 0.0
C644 C 0.23919 0.68622 0.50734 0.0
C645 C 0.21401 0.6904 0.52845 0.0
C646 C 0.25295 0.7778 0.49953 0.0
C647 C 0.23803 0.73151 0.49543 0.0
C648 C 0.27259 0.79877 0.49125 0.0
C649 C 0.29409 0.79718 0.46718 0.0
C650 C 0.25538 0.75471 0.48412 0.0
C651 C 0.29482 0.77421 0.45139 0.0
C652 C 0.25122 0.7068 0.49065 0.0
C653 C 0.19904 0.71481 0.53021 0.0
N654 N 0.27616 0.75355 0.46049 0.0
N655 N 0.21172 0.73452 0.51436 0.0
H656 H 0.20127 0.52535 0.91105 0.0
H657 H 0.22568 0.4563 0.06403 0.0
H658 H 0.19586 0.56499 -0.00734 0.0
H659 H 0.24229 0.41868 0.9823 0.0
H660 H 0.21143 0.49583 0.03828 0.0
H661 H 0.2118 0.48519 0.93692 0.0
C662 C 0.20194 0.52557 0.93441 0.0
C663 C 0.19771 0.54854 0.94974 0.0
C664 C 0.21816 0.47891 0.02598 0.0
C665 C 0.21005 0.50279 0.97941 0.0
C666 C 0.22642 0.45637 0.04067 0.0
C667 C 0.23493 0.43413 0.02526 0.0
C668 C 0.21843 0.47918 -0.00431 0.0
C669 C 0.23544 0.43529 -0.00497 0.0
C670 C 0.2081 0.50267 0.94916 0.0
C671 C 0.19886 0.54773 0.97997 0.0
N672 N 0.22723 0.45745 0.98122 0.0
N673 N 0.20507 0.52522 -0.00618 0.0
H674 H 0.79019 0.56599 0.48824 0.0
H675 H 0.76796 0.41383 0.50154 0.0
H676 H 0.79336 0.52515 0.5694 0.0
H677 H 0.77393 0.45464 0.42046 0.0
H678 H 0.77608 0.45439 0.527 0.0
H679 H 0.78341 0.52527 0.46319 0.0
C680 C 0.78975 0.54844 0.5008 0.0
C681 C 0.79258 0.54894 0.53095 0.0
C682 C 0.77569 0.45444 0.50364 0.0
C683 C 0.78434 0.50223 0.5024 0.0
C684 C 0.77113 0.43129 0.48908 0.0
C685 C 0.77055 0.43084 0.45884 0.0
C686 C 0.77953 0.47728 0.4878 0.0
C687 C 0.77427 0.45409 0.44381 0.0
C688 C 0.78573 0.52517 0.48647 0.0
C689 C 0.79133 0.52561 0.54612 0.0
N690 N 0.77862 0.47637 0.45846 0.0
N691 N 0.78725 0.50316 0.53166 0.0
H692 H 0.7729 0.46405 0.06585 0.0
H693 H 0.83755 0.52513 0.91702 0.0
H694 H 0.84504 0.4265 0.0094 0.0
H695 H 0.77172 0.56452 0.97723 0.0
H696 H 0.84035 0.48865 0.95018 0.0
H697 H 0.77157 0.50069 0.03308 0.0
C698 C 0.78844 0.46347 0.04652 0.0
C699 C 0.8091 0.44214 0.04035 0.0
C700 C 0.82536 0.5053 0.95617 0.0
C701 C 0.80772 0.48416 0.00268 0.0
C702 C 0.82374 0.52615 0.93725 0.0
C703 C 0.80428 0.54789 0.94433 0.0
C704 C 0.8073 0.50616 0.98233 0.0
C705 C 0.787 0.54815 0.97086 0.0
C706 C 0.78772 0.48446 0.02783 0.0
C707 C 0.82873 0.44253 0.01499 0.0
N708 N 0.78884 0.52757 0.98885 0.0
N709 N 0.82753 0.46322 -0.00295 0.0
H710 H 0.15893 0.43706 0.45301 0.0
H711 H 0.28483 0.5299 0.54035 0.0
H712 H 0.26768 0.42385 0.46078 0.0
H713 H 0.1819 0.55098 0.51597 0.0
H714 H 0.27801 0.48942 0.51439 0.0
H715 H 0.16559 0.47699 0.48011 0.0
C716 C 0.18416 0.44242 0.46064 0.0
C717 C 0.21283 0.42713 0.45454 0.0
C718 C 0.25697 0.50295 0.51462 0.0
C719 C 0.22062 0.47286 0.48538 0.0
C720 C 0.26085 0.52608 0.52941 0.0
C721 C 0.2339 0.54386 0.53031 0.0
C722 C 0.2258 0.49744 0.50085 0.0
C723 C 0.2034 0.53788 0.51575 0.0
C724 C 0.18797 0.4653 0.47594 0.0
C725 C 0.2449 0.43509 0.46489 0.0
N726 N 0.20012 0.5151 0.50174 0.0
N727 N 0.24794 0.45742 0.47978 0.0
H728 H 0.66628 0.03922 0.9191 0.0
H729 H 0.64808 0.96033 0.06623 0.0
H730 H 0.67349 0.07305 0.00387 0.0
H731 H 0.67417 0.92537 0.98476 0.0
H732 H 0.64323 0.00182 0.04193 0.0
H733 H 0.65581 -0.00263 0.94158 0.0
C734 C 0.66527 0.03793 0.94241 0.0
C735 C 0.67091 0.05965 0.95965 0.0
C736 C 0.64962 0.98498 0.02935 0.0
C737 C 0.65878 0.01201 0.98535 0.0
C738 C 0.6523 0.96129 0.04316 0.0
C739 C 0.66192 0.93942 0.02753 0.0
C740 C 0.65649 0.98676 -0.00029 0.0
C741 C 0.66688 0.94176 -0.00234 0.0
C742 C 0.65932 0.01407 0.95517 0.0
C743 C 0.66925 0.05689 0.98972 0.0
N744 N 0.66439 0.9651 0.98472 0.0
N745 N 0.66346 0.03346 0.00162 0.0
H746 H 0.35 0.91667 0.49859 0.0
H747 H 0.32565 0.06571 0.47635 0.0
H748 H 0.36423 0.95452 0.41647 0.0
H749 H 0.33575 0.03055 0.56039 0.0
H750 H 0.34503 0.02582 0.45433 0.0
H751 H 0.35071 0.95847 0.52225 0.0
C752 C 0.35393 0.93372 0.48559 0.0
C753 C 0.35652 0.93216 0.45548 0.0
C754 C 0.34351 0.02695 0.47762 0.0
C755 C 0.35676 0.98003 0.4823 0.0
C756 C 0.33238 0.04974 0.49021 0.0
C757 C 0.32875 0.05138 0.52022 0.0
C758 C 0.35053 0.00555 0.49517 0.0
C759 C 0.33786 0.03004 0.53711 0.0
C760 C 0.3543 0.95761 0.4991 0.0
C761 C 0.36173 0.95488 0.43972 0.0
N762 N 0.34788 0.00787 0.52432 0.0
N763 N 0.36108 0.97794 0.45327 0.0
H764 H 0.3173 0.92725 0.01655 0.0
H765 H 0.20994 0.04413 0.95013 0.0
H766 H 0.209 0.93823 0.03055 0.0
H767 H 0.32026 0.03977 0.94652 0.0
H768 H 0.20894 0.00416 0.97766 0.0
H769 H 0.31856 0.96683 0.98799 0.0
C770 C 0.29373 0.93786 0.01342 0.0
C771 C 0.263 0.92947 0.02604 0.0
C772 C 0.23339 0.01197 0.97095 0.0
C773 C 0.26434 0.97481 -0.00642 0.0
C774 C 0.23399 0.03483 0.95526 0.0
C775 C 0.26523 0.04531 0.946 0.0
C776 C 0.26425 -0.00065 0.97732 0.0
C777 C 0.29559 0.03241 0.9533 0.0
C778 C 0.29452 0.96052 -0.00274 0.0
C779 C 0.23328 0.94401 0.02132 0.0
N780 N 0.29433 0.01002 0.96843 0.0
N781 N 0.23471 0.96598 0.00553 0.0
H782 H 0.66305 0.05828 0.51947 0.0
H783 H 0.73884 0.91956 0.4821 0.0
H784 H 0.7318 0.01632 0.57524 0.0
H785 H 0.66276 0.95797 0.42998 0.0
H786 H 0.73565 0.95455 0.51696 0.0
H787 H 0.66187 0.02155 0.48666 0.0
C788 C 0.67785 0.04134 0.52484 0.0
C789 C 0.69768 0.04041 0.55007 0.0
C790 C 0.71952 0.95528 0.49797 0.0
C791 C 0.69646 -0.00165 0.51266 0.0
C792 C 0.72133 0.93529 0.47805 0.0
C793 C 0.70118 0.9359 0.453 0.0
C794 C 0.69754 0.97612 0.49275 0.0
C795 C 0.67885 0.95673 0.44895 0.0
C796 C 0.67711 0.02036 0.50614 0.0
C797 C 0.71623 0.01793 0.556 0.0
N798 N 0.67779 0.97609 0.46854 0.0
N799 N 0.71527 -0.00215 0.53738 0.0
loop_
_geom_bond_atom_site_label_1
_geom_bond_atom_site_label_2
_geom_bond_distance
_geom_bond_site_symmetry_2
_ccdc_geom_bond_type
Mg0 O1 2.028 . S
Mg0 O7 1.986 . S
Mg0 O9 2.114 . S
Mg0 O10 2.251 . S
Mg0 O13 2.010 . S
O1 Mg0 2.028 . S
O1 C4 1.250 . S
O2 Mg3 2.028 . S
O2 C4 1.248 . S
Mg3 O2 2.028 . S
Mg3 O8 2.032 . S
Mg3 O10 2.079 . S
C4 O1 1.250 . S
C4 O2 1.248 . S
C5 O6 1.264 . S
C5 O13 1.249 . S
O6 C5 1.264 . S
O7 Mg0 1.986 . S
O7 C11 1.246 . S
O8 Mg3 2.032 . S
O8 C11 1.259 . S
O9 Mg0 2.114 . S
O9 C12 1.252 . S
O10 Mg0 2.251 . S
O10 Mg3 2.079 . S
O10 C12 1.273 . S
C11 O7 1.246 . S
C11 O8 1.259 . S
C12 O9 1.252 . S
C12 O10 1.273 . S
O13 Mg0 2.010 . S
O13 C5 1.249 . S
Mg14 O15 2.028 . S
Mg14 O21 1.986 . S
Mg14 O23 2.114 . S
Mg14 O24 2.251 . S
Mg14 O27 2.010 . S
O15 Mg14 2.028 . S
O15 C18 1.250 . S
O16 Mg17 2.028 . S
O16 C18 1.248 . S
Mg17 O16 2.028 . S
Mg17 O22 2.032 . S
Mg17 O24 2.079 . S
C18 O15 1.250 . S
C18 O16 1.248 . S
C19 O20 1.264 . S
C19 O27 1.249 . S
O20 C19 1.264 . S
O21 Mg14 1.986 . S
O21 C25 1.246 . S
O22 Mg17 2.032 . S
O22 C25 1.259 . S
O23 Mg14 2.114 . S
O23 C26 1.252 . S
O24 Mg14 2.251 . S
O24 Mg17 2.079 . S
O24 C26 1.273 . S
C25 O21 1.246 . S
C25 O22 1.259 . S
C26 O23 1.252 . S
C26 O24 1.273 . S
O27 Mg14 2.010 . S
O27 C19 1.249 . S
Mg28 O29 2.028 . S
Mg28 O35 1.986 . S
Mg28 O37 2.114 . S
Mg28 O38 2.251 . S
Mg28 O41 2.010 . S
O29 Mg28 2.028 . S
O29 C32 1.250 . S
O30 Mg31 2.028 . S
O30 C32 1.248 . S
Mg31 O30 2.028 . S
Mg31 O36 2.032 . S
Mg31 O38 2.079 . S
C32 O29 1.250 . S
C32 O30 1.248 . S
C33 O34 1.264 . S
C33 O41 1.249 . S
O34 C33 1.264 . S
O35 Mg28 1.986 . S
O35 C39 1.246 . S
O36 Mg31 2.032 . S
O36 C39 1.259 . S
O37 Mg28 2.114 . S
O37 C40 1.252 . S
O38 Mg28 2.251 . S
O38 Mg31 2.079 . S
O38 C40 1.273 . S
C39 O35 1.246 . S
C39 O36 1.259 . S
C40 O37 1.252 . S
C40 O38 1.273 . S
O41 Mg28 2.010 . S
O41 C33 1.249 . S
Mg42 O43 2.028 . S
Mg42 O49 1.986 . S
Mg42 O51 2.114 . S
Mg42 O52 2.251 . S
Mg42 O55 2.010 . S
O43 Mg42 2.028 . S
O43 C46 1.250 . S
O44 Mg45 2.028 . S
O44 C46 1.248 . S
Mg45 O44 2.028 . S
Mg45 O50 2.032 . S
Mg45 O52 2.079 . S
C46 O43 1.250 . S
C46 O44 1.248 . S
C47 O48 1.264 . S
C47 O55 1.249 . S
O48 C47 1.264 . S
O49 Mg42 1.986 . S
O49 C53 1.246 . S
O50 Mg45 2.032 . S
O50 C53 1.259 . S
O51 Mg42 2.114 . S
O51 C54 1.252 . S
O52 Mg42 2.251 . S
O52 Mg45 2.079 . S
O52 C54 1.273 . S
C53 O49 1.246 . S
C53 O50 1.259 . S
C54 O51 1.252 . S
C54 O52 1.273 . S
O55 Mg42 2.010 . S
O55 C47 1.249 . S
Mg56 O57 2.028 . S
Mg56 O63 1.986 . S
Mg56 O65 2.114 . S
Mg56 O66 2.251 . S
Mg56 O69 2.010 . S
O57 Mg56 2.028 . S
O57 C60 1.250 . S
O58 Mg59 2.028 . S
O58 C60 1.248 . S
Mg59 O58 2.028 . S
Mg59 O64 2.032 . S
Mg59 O66 2.079 . S
C60 O57 1.250 . S
C60 O58 1.248 . S
C61 O62 1.264 . S
C61 O69 1.249 . S
O62 C61 1.264 . S
O63 Mg56 1.986 . S
O63 C67 1.246 . S
O64 Mg59 2.032 . S
O64 C67 1.259 . S
O65 Mg56 2.114 . S
O65 C68 1.252 . S
O66 Mg56 2.251 . S
O66 Mg59 2.079 . S
O66 C68 1.273 . S
C67 O63 1.246 . S
C67 O64 1.259 . S
C68 O65 1.252 . S
C68 O66 1.273 . S
O69 Mg56 2.010 . S
O69 C61 1.249 . S
Mg70 O71 2.028 . S
Mg70 O77 1.986 . S
Mg70 O79 2.114 . S
Mg70 O80 2.251 . S
Mg70 O83 2.010 . S
O71 Mg70 2.028 . S
O71 C74 1.250 . S
O72 Mg73 2.028 . S
O72 C74 1.248 . S
Mg73 O72 2.028 . S
Mg73 O78 2.032 . S
Mg73 O80 2.079 . S
C74 O71 1.250 . S
C74 O72 1.248 . S
C75 O76 1.264 . S
C75 O83 1.249 . S
O76 C75 1.264 . S
O77 Mg70 1.986 . S
O77 C81 1.246 . S
O78 Mg73 2.032 . S
O78 C81 1.259 . S
O79 Mg70 2.114 . S
O79 C82 1.252 . S
O80 Mg70 2.251 . S
O80 Mg73 2.079 . S
O80 C82 1.273 . S
C81 O77 1.246 . S
C81 O78 1.259 . S
C82 O79 1.252 . S
C82 O80 1.273 . S
O83 Mg70 2.010 . S
O83 C75 1.249 . S
Mg84 O85 2.028 . S
Mg84 O91 1.986 . S
Mg84 O93 2.114 . S
Mg84 O94 2.251 . S
Mg84 O97 2.010 . S
O85 Mg84 2.028 . S
O85 C88 1.250 . S
O86 Mg87 2.028 . S
O86 C88 1.248 . S
Mg87 O86 2.028 . S
Mg87 O92 2.032 . S
Mg87 O94 2.079 . S
C88 O85 1.250 . S
C88 O86 1.248 . S
C89 O90 1.264 . S
C89 O97 1.249 . S
O90 C89 1.264 . S
O91 Mg84 1.986 . S
O91 C95 1.246 . S
O92 Mg87 2.032 . S
O92 C95 1.259 . S
O93 Mg84 2.114 . S
O93 C96 1.252 . S
O94 Mg84 2.251 . S
O94 Mg87 2.079 . S
O94 C96 1.273 . S
C95 O91 1.246 . S
C95 O92 1.259 . S
C96 O93 1.252 . S
C96 O94 1.273 . S
O97 Mg84 2.010 . S
O97 C89 1.249 . S
Mg98 O99 2.028 . S
Mg98 O105 1.986 . S
Mg98 O107 2.114 . S
Mg98 O108 2.251 . S
Mg98 O111 2.010 . S
O99 Mg98 2.028 . S
O99 C102 1.250 . S
O100 Mg101 2.028 . S
O100 C102 1.248 . S
Mg101 O100 2.028 . S
Mg101 O106 2.032 . S
Mg101 O108 2.079 . S
C102 O99 1.250 . S
C102 O100 1.248 . S
C103 O104 1.264 . S
C103 O111 1.249 . S
O104 C103 1.264 . S
O105 Mg98 1.986 . S
O105 C109 1.246 . S
O106 Mg101 2.032 . S
O106 C109 1.259 . S
O107 Mg98 2.114 . S
O107 C110 1.252 . S
O108 Mg98 2.251 . S
O108 Mg101 2.079 . S
O108 C110 1.273 . S
C109 O105 1.246 . S
C109 O106 1.259 . S
C110 O107 1.252 . S
C110 O108 1.273 . S
O111 Mg98 2.010 . S
O111 C103 1.249 . S
Mg112 O113 2.028 . S
Mg112 O119 1.986 . S
Mg112 O121 2.114 . S
Mg112 O122 2.251 . S
Mg112 O125 2.010 . S
O113 Mg112 2.028 . S
O113 C116 1.250 . S
O114 Mg115 2.028 . S
O114 C116 1.248 . S
Mg115 O114 2.028 . S
Mg115 O120 2.032 . S
Mg115 O122 2.079 . S
C116 O113 1.250 . S
C116 O114 1.248 . S
C117 O118 1.264 . S
C117 O125 1.249 . S
O118 C117 1.264 . S
O119 Mg112 1.986 . S
O119 C123 1.246 . S
O120 Mg115 2.032 . S
O120 C123 1.259 . S
O121 Mg112 2.114 . S
O121 C124 1.252 . S
O122 Mg112 2.251 . S
O122 Mg115 2.079 . S
O122 C124 1.273 . S
C123 O119 1.246 . S
C123 O120 1.259 . S
C124 O121 1.252 . S
C124 O122 1.273 . S
O125 Mg112 2.010 . S
O125 C117 1.249 . S
Mg126 O127 2.028 . S
Mg126 O133 1.986 . S
Mg126 O135 2.114 . S
Mg126 O136 2.251 . S
Mg126 O139 2.010 . S
O127 Mg126 2.028 . S
O127 C130 1.250 . S
O128 Mg129 2.028 . S
O128 C130 1.248 . S
Mg129 O128 2.028 . S
Mg129 O134 2.032 . S
Mg129 O136 2.079 . S
C130 O127 1.250 . S
C130 O128 1.248 . S
C131 O132 1.264 . S
C131 O139 1.249 . S
O132 C131 1.264 . S
O133 Mg126 1.986 . S
O133 C137 1.246 . S
O134 Mg129 2.032 . S
O134 C137 1.259 . S
O135 Mg126 2.114 . S
O135 C138 1.252 . S
O136 Mg126 2.251 . S
O136 Mg129 2.079 . S
O136 C138 1.273 . S
C137 O133 1.246 . S
C137 O134 1.259 . S
C138 O135 1.252 . S
C138 O136 1.273 . S
O139 Mg126 2.010 . S
O139 C131 1.249 . S
Mg140 O141 2.028 . S
Mg140 O147 1.986 . S
Mg140 O149 2.114 . S
Mg140 O150 2.251 . S
Mg140 O153 2.010 . S
O141 Mg140 2.028 . S
O141 C144 1.250 . S
O142 Mg143 2.028 . S
O142 C144 1.248 . S
Mg143 O142 2.028 . S
Mg143 O148 2.032 . S
Mg143 O150 2.079 . S
C144 O141 1.250 . S
C144 O142 1.248 . S
C145 O146 1.264 . S
C145 O153 1.249 . S
O146 C145 1.264 . S
O147 Mg140 1.986 . S
O147 C151 1.246 . S
O148 Mg143 2.032 . S
O148 C151 1.259 . S
O149 Mg140 2.114 . S
O149 C152 1.252 . S
O150 Mg140 2.251 . S
O150 Mg143 2.079 . S
O150 C152 1.273 . S
C151 O147 1.246 . S
C151 O148 1.259 . S
C152 O149 1.252 . S
C152 O150 1.273 . S
O153 Mg140 2.010 . S
O153 C145 1.249 . S
Mg154 O155 2.028 . S
Mg154 O161 1.986 . S
Mg154 O163 2.114 . S
Mg154 O164 2.251 . S
Mg154 O167 2.010 . S
O155 Mg154 2.028 . S
O155 C158 1.250 . S
O156 Mg157 2.028 . S
O156 C158 1.248 . S
Mg157 O156 2.028 . S
Mg157 O162 2.032 . S
Mg157 O164 2.079 . S
C158 O155 1.250 . S
C158 O156 1.248 . S
C159 O160 1.264 . S
C159 O167 1.249 . S
O160 C159 1.264 . S
O161 Mg154 1.986 . S
O161 C165 1.246 . S
O162 Mg157 2.032 . S
O162 C165 1.259 . S
O163 Mg154 2.114 . S
O163 C166 1.252 . S
O164 Mg154 2.251 . S
O164 Mg157 2.079 . S
O164 C166 1.273 . S
C165 O161 1.246 . S
C165 O162 1.259 . S
C166 O163 1.252 . S
C166 O164 1.273 . S
O167 Mg154 2.010 . S
O167 C159 1.249 . S
Mg168 O169 2.028 . S
Mg168 O175 1.986 . S
Mg168 O177 2.114 . S
Mg168 O178 2.251 . S
Mg168 O181 2.010 . S
O169 Mg168 2.028 . S
O169 C172 1.250 . S
O170 Mg171 2.028 . S
O170 C172 1.248 . S
Mg171 O170 2.028 . S
Mg171 O176 2.032 . S
Mg171 O178 2.079 . S
C172 O169 1.250 . S
C172 O170 1.248 . S
C173 O174 1.264 . S
C173 O181 1.249 . S
O174 C173 1.264 . S
O175 Mg168 1.986 . S
O175 C179 1.246 . S
O176 Mg171 2.032 . S
O176 C179 1.259 . S
O177 Mg168 2.114 . S
O177 C180 1.252 . S
O178 Mg168 2.251 . S
O178 Mg171 2.079 . S
O178 C180 1.273 . S
C179 O175 1.246 . S
C179 O176 1.259 . S
C180 O177 1.252 . S
C180 O178 1.273 . S
O181 Mg168 2.010 . S
O181 C173 1.249 . S
Mg182 O183 2.028 . S
Mg182 O189 1.986 . S
Mg182 O191 2.114 . S
Mg182 O192 2.251 . S
Mg182 O195 2.010 . S
O183 Mg182 2.028 . S
O183 C186 1.250 . S
O184 Mg185 2.028 . S
O184 C186 1.248 . S
Mg185 O184 2.028 . S
Mg185 O190 2.032 . S
Mg185 O192 2.079 . S
C186 O183 1.250 . S
C186 O184 1.248 . S
C187 O188 1.264 . S
C187 O195 1.249 . S
O188 C187 1.264 . S
O189 Mg182 1.986 . S
O189 C193 1.246 . S
O190 Mg185 2.032 . S
O190 C193 1.259 . S
O191 Mg182 2.114 . S
O191 C194 1.252 . S
O192 Mg182 2.251 . S
O192 Mg185 2.079 . S
O192 C194 1.273 . S
C193 O189 1.246 . S
C193 O190 1.259 . S
C194 O191 1.252 . S
C194 O192 1.273 . S
O195 Mg182 2.010 . S
O195 C187 1.249 . S
Mg196 O197 2.028 . S
Mg196 O203 1.986 . S
Mg196 O205 2.114 . S
Mg196 O206 2.251 . S
Mg196 O209 2.010 . S
O197 Mg196 2.028 . S
O197 C200 1.250 . S
O198 Mg199 2.028 . S
O198 C200 1.248 . S
Mg199 O198 2.028 . S
Mg199 O204 2.032 . S
Mg199 O206 2.079 . S
C200 O197 1.250 . S
C200 O198 1.248 . S
C201 O202 1.264 . S
C201 O209 1.249 . S
O202 C201 1.264 . S
O203 Mg196 1.986 . S
O203 C207 1.246 . S
O204 Mg199 2.032 . S
O204 C207 1.259 . S
O205 Mg196 2.114 . S
O205 C208 1.252 . S
O206 Mg196 2.251 . S
O206 Mg199 2.079 . S
O206 C208 1.273 . S
C207 O203 1.246 . S
C207 O204 1.259 . S
C208 O205 1.252 . S
C208 O206 1.273 . S
O209 Mg196 2.010 . S
O209 C201 1.249 . S
Mg210 O211 2.028 . S
Mg210 O217 1.986 . S
Mg210 O219 2.114 . S
Mg210 O220 2.251 . S
Mg210 O223 2.010 . S
O211 Mg210 2.028 . S
O211 C214 1.250 . S
O212 Mg213 2.028 . S
O212 C214 1.248 . S
Mg213 O212 2.028 . S
Mg213 O218 2.032 . S
Mg213 O220 2.079 . S
C214 O211 1.250 . S
C214 O212 1.248 . S
C215 O216 1.264 . S
C215 O223 1.249 . S
O216 C215 1.264 . S
O217 Mg210 1.986 . S
O217 C221 1.246 . S
O218 Mg213 2.032 . S
O218 C221 1.259 . S
O219 Mg210 2.114 . S
O219 C222 1.252 . S
O220 Mg210 2.251 . S
O220 Mg213 2.079 . S
O220 C222 1.273 . S
C221 O217 1.246 . S
C221 O218 1.259 . S
C222 O219 1.252 . S
C222 O220 1.273 . S
O223 Mg210 2.010 . S
O223 C215 1.249 . S
H224 C230 0.930 . S
H225 C234 0.930 . S
H226 C239 0.929 . S
H227 C237 0.929 . S
H228 C232 0.929 . S
H229 C238 0.929 . S
C230 H224 0.930 . S
C230 C231 1.367 . S
C230 C238 1.378 . S
C231 C230 1.367 . S
C231 C239 1.433 . S
C232 H228 0.929 . S
C232 C234 1.378 . S
C232 C236 1.350 . S
C233 C236 1.463 1_455 S
C233 C238 1.350 . S
C233 N241 1.427 . S
C234 H225 0.930 . S
C234 C232 1.378 . S
C234 C235 1.367 . S
C235 C234 1.367 . S
C235 C237 1.433 . S
C236 C232 1.350 . S
C236 C233 1.463 1_655 S
C236 N240 1.427 . S
C237 H227 0.929 . S
C237 C235 1.433 . S
C237 N240 1.384 . S
C238 H229 0.929 . S
C238 C230 1.378 . S
C238 C233 1.350 . S
C239 H226 0.929 . S
C239 C231 1.433 . S
C239 N241 1.384 . S
N240 C236 1.427 . S
N240 C237 1.384 . S
N241 C233 1.427 . S
N241 C239 1.384 . S
H242 C248 0.930 . S
H243 C252 0.930 . S
H244 C257 0.929 . S
H245 C255 0.929 . S
H246 C250 0.929 . S
H247 C256 0.929 . S
C248 H242 0.930 . S
C248 C249 1.367 . S
C248 C256 1.378 . S
C249 C248 1.367 . S
C249 C257 1.433 . S
C250 H246 0.929 . S
C250 C252 1.378 . S
C250 C254 1.350 . S
C251 C254 1.463 1_655 S
C251 C256 1.350 . S
C251 N259 1.427 . S
C252 H243 0.930 . S
C252 C250 1.378 . S
C252 C253 1.367 . S
C253 C252 1.367 . S
C253 C255 1.433 . S
C254 C250 1.350 . S
C254 C251 1.463 1_455 S
C254 N258 1.427 . S
C255 H245 0.929 . S
C255 C253 1.433 . S
C255 N258 1.384 . S
C256 H247 0.929 . S
C256 C248 1.378 . S
C256 C251 1.350 . S
C257 H244 0.929 . S
C257 C249 1.433 . S
C257 N259 1.384 . S
N258 C254 1.427 . S
N258 C255 1.384 . S
N259 C251 1.427 . S
N259 C257 1.384 . S
H260 C266 0.930 . S
H261 C270 0.930 . S
H262 C275 0.929 . S
H263 C273 0.929 . S
H264 C268 0.929 . S
H265 C274 0.929 . S
C266 H260 0.930 . S
C266 C267 1.367 . S
C266 C274 1.378 . S
C267 C266 1.367 . S
C267 C275 1.433 . S
C268 H264 0.929 . S
C268 C270 1.378 . S
C268 C272 1.350 . S
C269 C272 1.463 1_655 S
C269 C274 1.350 . S
C269 N277 1.427 . S
C270 H261 0.930 . S
C270 C268 1.378 . S
C270 C271 1.367 . S
C271 C270 1.367 . S
C271 C273 1.433 . S
C272 C268 1.350 . S
C272 C269 1.463 1_455 S
C272 N276 1.427 . S
C273 H263 0.929 . S
C273 C271 1.433 . S
C273 N276 1.384 . S
C274 H265 0.929 . S
C274 C266 1.378 . S
C274 C269 1.350 . S
C275 H262 0.929 . S
C275 C267 1.433 . S
C275 N277 1.384 . S
N276 C272 1.427 . S
N276 C273 1.384 . S
N277 C269 1.427 . S
N277 C275 1.384 . S
H278 C284 0.930 . S
H279 C288 0.930 . S
H280 C293 0.929 . S
H281 C291 0.929 . S
H282 C286 0.929 . S
H283 C292 0.929 . S
C284 H278 0.930 . S
C284 C285 1.367 . S
C284 C292 1.378 . S
C285 C284 1.367 . S
C285 C293 1.433 . S
C286 H282 0.929 . S
C286 C288 1.378 . S
C286 C290 1.350 . S
C287 C290 1.463 1_455 S
C287 C292 1.350 . S
C287 N295 1.427 . S
C288 H279 0.930 . S
C288 C286 1.378 . S
C288 C289 1.367 . S
C289 C288 1.367 . S
C289 C291 1.433 . S
C290 C286 1.350 . S
C290 C287 1.463 1_655 S
C290 N294 1.427 . S
C291 H281 0.929 . S
C291 C289 1.433 . S
C291 N294 1.384 . S
C292 H283 0.929 . S
C292 C284 1.378 . S
C292 C287 1.350 . S
C293 H280 0.929 . S
C293 C285 1.433 . S
C293 N295 1.384 . S
N294 C290 1.427 . S
N294 C291 1.384 . S
N295 C287 1.427 . S
N295 C293 1.384 . S
H296 C302 0.930 . S
H297 C306 0.930 . S
H298 C311 0.929 . S
H299 C309 0.929 . S
H300 C304 0.929 . S
H301 C310 0.929 . S
C302 H296 0.930 . S
C302 C303 1.367 . S
C302 C310 1.378 . S
C303 C302 1.367 . S
C303 C311 1.433 . S
C304 H300 0.929 . S
C304 C306 1.378 . S
C304 C308 1.350 . S
C305 C308 1.463 . S
C305 C310 1.350 . S
C305 N313 1.427 . S
C306 H297 0.930 . S
C306 C304 1.378 . S
C306 C307 1.367 . S
C307 C306 1.367 . S
C307 C309 1.433 . S
C308 C304 1.350 . S
C308 C305 1.463 . S
C308 N312 1.427 . S
C309 H299 0.929 . S
C309 C307 1.433 . S
C309 N312 1.384 . S
C310 H301 0.929 . S
C310 C302 1.378 . S
C310 C305 1.350 . S
C311 H298 0.929 . S
C311 C303 1.433 . S
C311 N313 1.384 . S
N312 C308 1.427 . S
N312 C309 1.384 . S
N313 C305 1.427 . S
N313 C311 1.384 . S
H314 C320 0.930 . S
H315 C324 0.930 . S
H316 C329 0.929 . S
H317 C327 0.929 . S
H318 C322 0.929 . S
H319 C328 0.929 . S
C320 H314 0.930 . S
C320 C321 1.367 . S
C320 C328 1.378 . S
C321 C320 1.367 . S
C321 C329 1.433 . S
C322 H318 0.929 . S
C322 C324 1.378 . S
C322 C326 1.350 . S
C323 C326 1.463 . S
C323 C328 1.350 . S
C323 N331 1.427 . S
C324 H315 0.930 . S
C324 C322 1.378 . S
C324 C325 1.367 . S
C325 C324 1.367 . S
C325 C327 1.433 . S
C326 C322 1.350 . S
C326 C323 1.463 . S
C326 N330 1.427 . S
C327 H317 0.929 . S
C327 C325 1.433 . S
C327 N330 1.384 . S
C328 H319 0.929 . S
C328 C320 1.378 . S
C328 C323 1.350 . S
C329 H316 0.929 . S
C329 C321 1.433 . S
C329 N331 1.384 . S
N330 C326 1.427 . S
N330 C327 1.384 . S
N331 C323 1.427 . S
N331 C329 1.384 . S
H332 C338 0.930 . S
H333 C342 0.930 . S
H334 C347 0.929 . S
H335 C345 0.929 . S
H336 C340 0.929 . S
H337 C346 0.929 . S
C338 H332 0.930 . S
C338 C339 1.367 . S
C338 C346 1.378 . S
C339 C338 1.367 . S
C339 C347 1.433 . S
C340 H336 0.929 . S
C340 C342 1.378 . S
C340 C344 1.350 . S
C341 C344 1.463 . S
C341 C346 1.350 . S
C341 N349 1.427 . S
C342 H333 0.930 . S
C342 C340 1.378 . S
C342 C343 1.367 . S
C343 C342 1.367 . S
C343 C345 1.433 . S
C344 C340 1.350 . S
C344 C341 1.463 . S
C344 N348 1.427 . S
C345 H335 0.929 . S
C345 C343 1.433 . S
C345 N348 1.384 . S
C346 H337 0.929 . S
C346 C338 1.378 . S
C346 C341 1.350 . S
C347 H334 0.929 . S
C347 C339 1.433 . S
C347 N349 1.384 . S
N348 C344 1.427 . S
N348 C345 1.384 . S
N349 C341 1.427 . S
N349 C347 1.384 . S
H350 C356 0.930 . S
H351 C360 0.930 . S
H352 C365 0.929 . S
H353 C363 0.929 . S
H354 C358 0.929 . S
H355 C364 0.929 . S
C356 H350 0.930 . S
C356 C357 1.367 . S
C356 C364 1.378 . S
C357 C356 1.367 . S
C357 C365 1.433 . S
C358 H354 0.929 . S
C358 C360 1.378 . S
C358 C362 1.350 . S
C359 C362 1.463 . S
C359 C364 1.350 . S
C359 N367 1.427 . S
C360 H351 0.930 . S
C360 C358 1.378 . S
C360 C361 1.367 . S
C361 C360 1.367 . S
C361 C363 1.433 . S
C362 C358 1.350 . S
C362 C359 1.463 . S
C362 N366 1.427 . S
C363 H353 0.929 . S
C363 C361 1.433 . S
C363 N366 1.384 . S
C364 H355 0.929 . S
C364 C356 1.378 . S
C364 C359 1.350 . S
C365 H352 0.929 . S
C365 C357 1.433 . S
C365 N367 1.384 . S
N366 C362 1.427 . S
N366 C363 1.384 . S
N367 C359 1.427 . S
N367 C365 1.384 . S
H368 C374 0.930 . S
H369 C378 0.930 . S
H370 C383 0.929 . S
H371 C381 0.929 . S
H372 C376 0.929 . S
H373 C382 0.929 . S
C374 H368 0.930 . S
C374 C375 1.367 . S
C374 C382 1.378 . S
C375 C374 1.367 . S
C375 C383 1.433 . S
C376 H372 0.929 . S
C376 C378 1.378 . S
C376 C380 1.350 . S
C377 C380 1.463 . S
C377 C382 1.350 . S
C377 N385 1.427 . S
C378 H369 0.930 . S
C378 C376 1.378 . S
C378 C379 1.367 . S
C379 C378 1.367 . S
C379 C381 1.433 . S
C380 C376 1.350 . S
C380 C377 1.463 . S
C380 N384 1.427 . S
C381 H371 0.929 . S
C381 C379 1.433 . S
C381 N384 1.384 . S
C382 H373 0.929 . S
C382 C374 1.378 . S
C382 C377 1.350 . S
C383 H370 0.929 . S
C383 C375 1.433 . S
C383 N385 1.384 . S
N384 C380 1.427 . S
N384 C381 1.384 . S
N385 C377 1.427 . S
N385 C383 1.384 . S
H386 C392 0.930 . S
H387 C396 0.930 . S
H388 C401 0.929 . S
H389 C399 0.929 . S
H390 C394 0.929 . S
H391 C400 0.929 . S
C392 H386 0.930 . S
C392 C393 1.367 . S
C392 C400 1.378 . S
C393 C392 1.367 . S
C393 C401 1.433 . S
C394 H390 0.929 . S
C394 C396 1.378 . S
C394 C398 1.350 . S
C395 C398 1.463 . S
C395 C400 1.350 . S
C395 N403 1.427 . S
C396 H387 0.930 . S
C396 C394 1.378 . S
C396 C397 1.367 . S
C397 C396 1.367 . S
C397 C399 1.433 . S
C398 C394 1.350 . S
C398 C395 1.463 . S
C398 N402 1.427 . S
C399 H389 0.929 . S
C399 C397 1.433 . S
C399 N402 1.384 . S
C400 H391 0.929 . S
C400 C392 1.378 . S
C400 C395 1.350 . S
C401 H388 0.929 . S
C401 C393 1.433 . S
C401 N403 1.384 . S
N402 C398 1.427 . S
N402 C399 1.384 . S
N403 C395 1.427 . S
N403 C401 1.384 . S
H404 C410 0.930 . S
H405 C414 0.930 . S
H406 C419 0.929 . S
H407 C417 0.929 . S
H408 C412 0.929 . S
H409 C418 0.929 . S
C410 H404 0.930 . S
C410 C411 1.367 . S
C410 C418 1.378 . S
C411 C410 1.367 . S
C411 C419 1.433 . S
C412 H408 0.929 . S
C412 C414 1.378 . S
C412 C416 1.350 . S
C413 C416 1.463 . S
C413 C418 1.350 . S
C413 N421 1.427 . S
C414 H405 0.930 . S
C414 C412 1.378 . S
C414 C415 1.367 . S
C415 C414 1.367 . S
C415 C417 1.433 . S
C416 C412 1.350 . S
C416 C413 1.463 . S
C416 N420 1.427 . S
C417 H407 0.929 . S
C417 C415 1.433 . S
C417 N420 1.384 . S
C418 H409 0.929 . S
C418 C410 1.378 . S
C418 C413 1.350 . S
C419 H406 0.929 . S
C419 C411 1.433 . S
C419 N421 1.384 . S
N420 C416 1.427 . S
N420 C417 1.384 . S
N421 C413 1.427 . S
N421 C419 1.384 . S
H422 C428 0.930 . S
H423 C432 0.930 . S
H424 C437 0.929 . S
H425 C435 0.929 . S
H426 C430 0.929 . S
H427 C436 0.929 . S
C428 H422 0.930 . S
C428 C429 1.367 . S
C428 C436 1.378 . S
C429 C428 1.367 . S
C429 C437 1.433 . S
C430 H426 0.929 . S
C430 C432 1.378 . S
C430 C434 1.350 . S
C431 C434 1.463 . S
C431 C436 1.350 . S
C431 N439 1.427 . S
C432 H423 0.930 . S
C432 C430 1.378 . S
C432 C433 1.367 . S
C433 C432 1.367 . S
C433 C435 1.433 . S
C434 C430 1.350 . S
C434 C431 1.463 . S
C434 N438 1.427 . S
C435 H425 0.929 . S
C435 C433 1.433 . S
C435 N438 1.384 . S
C436 H427 0.929 . S
C436 C428 1.378 . S
C436 C431 1.350 . S
C437 H424 0.929 . S
C437 C429 1.433 . S
C437 N439 1.384 . S
N438 C434 1.427 . S
N438 C435 1.384 . S
N439 C431 1.427 . S
N439 C437 1.384 . S
H440 C446 0.930 . S
H441 C450 0.930 . S
H442 C455 0.929 . S
H443 C453 0.929 . S
H444 C448 0.929 . S
H445 C454 0.929 . S
C446 H440 0.930 . S
C446 C447 1.367 . S
C446 C454 1.378 . S
C447 C446 1.367 . S
C447 C455 1.433 . S
C448 H444 0.929 . S
C448 C450 1.378 . S
C448 C452 1.350 . S
C449 C452 1.463 . S
C449 C454 1.350 . S
C449 N457 1.427 . S
C450 H441 0.930 . S
C450 C448 1.378 . S
C450 C451 1.367 . S
C451 C450 1.367 . S
C451 C453 1.433 . S
C452 C448 1.350 . S
C452 C449 1.463 . S
C452 N456 1.427 . S
C453 H443 0.929 . S
C453 C451 1.433 . S
C453 N456 1.384 . S
C454 H445 0.929 . S
C454 C446 1.378 . S
C454 C449 1.350 . S
C455 H442 0.929 . S
C455 C447 1.433 . S
C455 N457 1.384 . S
N456 C452 1.427 . S
N456 C453 1.384 . S
N457 C449 1.427 . S
N457 C455 1.384 . S
H458 C464 0.930 . S
H459 C468 0.930 . S
H460 C473 0.929 . S
H461 C471 0.929 . S
H462 C466 0.929 . S
H463 C472 0.929 . S
C464 H458 0.930 . S
C464 C465 1.367 . S
C464 C472 1.378 . S
C465 C464 1.367 . S
C465 C473 1.433 . S
C466 H462 0.929 . S
C466 C468 1.378 . S
C466 C470 1.350 . S
C467 C470 1.463 . S
C467 C472 1.350 . S
C467 N475 1.427 . S
C468 H459 0.930 . S
C468 C466 1.378 . S
C468 C469 1.367 . S
C469 C468 1.367 . S
C469 C471 1.433 . S
C470 C466 1.350 . S
C470 C467 1.463 . S
C470 N474 1.427 . S
C471 H461 0.929 . S
C471 C469 1.433 . S
C471 N474 1.384 . S
C472 H463 0.929 . S
C472 C464 1.378 . S
C472 C467 1.350 . S
C473 H460 0.929 . S
C473 C465 1.433 . S
C473 N475 1.384 . S
N474 C470 1.427 . S
N474 C471 1.384 . S
N475 C467 1.427 . S
N475 C473 1.384 . S
H476 C482 0.930 . S
H477 C486 0.930 . S
H478 C491 0.929 . S
H479 C489 0.929 . S
H480 C484 0.929 . S
H481 C490 0.929 . S
C482 H476 0.930 . S
C482 C483 1.367 . S
C482 C490 1.378 . S
C483 C482 1.367 . S
C483 C491 1.433 . S
C484 H480 0.929 . S
C484 C486 1.378 . S
C484 C488 1.350 . S
C485 C488 1.463 . S
C485 C490 1.350 . S
C485 N493 1.427 . S
C486 H477 0.930 . S
C486 C484 1.378 . S
C486 C487 1.367 . S
C487 C486 1.367 . S
C487 C489 1.433 . S
C488 C484 1.350 . S
C488 C485 1.463 . S
C488 N492 1.427 . S
C489 H479 0.929 . S
C489 C487 1.433 . S
C489 N492 1.384 . S
C490 H481 0.929 . S
C490 C482 1.378 . S
C490 C485 1.350 . S
C491 H478 0.929 . S
C491 C483 1.433 . S
C491 N493 1.384 . S
N492 C488 1.427 . S
N492 C489 1.384 . S
N493 C485 1.427 . S
N493 C491 1.384 . S
H494 C500 0.930 . S
H495 C504 0.930 . S
H496 C509 0.929 . S
H497 C507 0.929 . S
H498 C502 0.929 . S
H499 C508 0.929 . S
C500 H494 0.930 . S
C500 C501 1.367 . S
C500 C508 1.378 . S
C501 C500 1.367 . S
C501 C509 1.433 . S
C502 H498 0.929 . S
C502 C504 1.378 . S
C502 C506 1.350 . S
C503 C506 1.463 . S
C503 C508 1.350 . S
C503 N511 1.427 . S
C504 H495 0.930 . S
C504 C502 1.378 . S
C504 C505 1.367 . S
C505 C504 1.367 . S
C505 C507 1.433 . S
C506 C502 1.350 . S
C506 C503 1.463 . S
C506 N510 1.427 . S
C507 H497 0.929 . S
C507 C505 1.433 . S
C507 N510 1.384 . S
C508 H499 0.929 . S
C508 C500 1.378 . S
C508 C503 1.350 . S
C509 H496 0.929 . S
C509 C501 1.433 . S
C509 N511 1.384 . S
N510 C506 1.427 . S
N510 C507 1.384 . S
N511 C503 1.427 . S
N511 C509 1.384 . S
H512 C518 0.930 . S
H513 C522 0.930 . S
H514 C527 0.913 1_554 S
H515 C525 0.929 1_556 S
H516 C520 0.929 . S
H517 C526 0.929 . S
C518 H512 0.930 . S
C518 C519 1.367 . S
C518 C526 1.378 . S
C519 C518 1.367 . S
C519 C527 1.433 . S
C520 H516 0.929 . S
C520 C522 1.378 . S
C520 C524 1.350 . S
C521 C524 1.463 1_556 S
C521 C526 1.350 . S
C521 N529 1.427 1_556 S
C522 H513 0.930 . S
C522 C520 1.378 . S
C522 C523 1.367 . S
C523 C522 1.367 . S
C523 C525 1.433 . S
C524 C520 1.350 . S
C524 C521 1.463 1_554 S
C524 N528 1.427 1_554 S
C525 H515 0.929 1_554 S
C525 C523 1.433 . S
C525 N528 1.384 1_554 S
C526 H517 0.929 . S
C526 C518 1.378 . S
C526 C521 1.350 . S
C527 H514 0.913 1_556 S
C527 C519 1.433 . S
C527 N529 1.384 1_556 S
N528 C524 1.427 1_556 S
N528 C525 1.384 1_556 S
N529 C521 1.427 1_554 S
N529 C527 1.384 1_554 S
H530 C536 0.930 . S
H531 C540 0.930 . S
H532 C545 0.929 . S
H533 C543 0.929 . S
H534 C538 0.929 . S
H535 C544 0.929 . S
C536 H530 0.930 . S
C536 C537 1.367 . S
C536 C544 1.378 . S
C537 C536 1.367 . S
C537 C545 1.433 . S
C538 H534 0.929 . S
C538 C540 1.378 . S
C538 C542 1.350 . S
C539 C542 1.463 . S
C539 C544 1.350 . S
C539 N547 1.427 . S
C540 H531 0.930 . S
C540 C538 1.378 . S
C540 C541 1.367 . S
C541 C540 1.367 . S
C541 C543 1.433 . S
C542 C538 1.350 . S
C542 C539 1.463 . S
C542 N546 1.427 . S
C543 H533 0.929 . S
C543 C541 1.433 . S
C543 N546 1.384 . S
C544 H535 0.929 . S
C544 C536 1.378 . S
C544 C539 1.350 . S
C545 H532 0.929 . S
C545 C537 1.433 . S
C545 N547 1.384 . S
N546 C542 1.427 . S
N546 C543 1.384 . S
N547 C539 1.427 . S
N547 C545 1.384 . S
H548 C554 0.930 . S
H549 C558 0.930 . S
H550 C563 0.929 . S
H551 C561 0.929 1_554 S
H552 C556 0.929 . S
H553 C562 0.929 . S
C554 H548 0.930 . S
C554 C555 1.367 . S
C554 C562 1.378 . S
C555 C554 1.367 . S
C555 C563 1.433 . S
C556 H552 0.929 . S
C556 C558 1.378 . S
C556 C560 1.350 . S
C557 C560 1.463 1_554 S
C557 C562 1.350 . S
C557 N565 1.427 1_554 S
C558 H549 0.930 . S
C558 C556 1.378 . S
C558 C559 1.367 . S
C559 C558 1.367 . S
C559 C561 1.433 . S
C560 C556 1.350 . S
C560 C557 1.463 1_556 S
C560 N564 1.427 1_556 S
C561 H551 0.929 1_556 S
C561 C559 1.433 . S
C561 N564 1.384 1_556 S
C562 H553 0.929 . S
C562 C554 1.378 . S
C562 C557 1.350 . S
C563 H550 0.929 . S
C563 C555 1.433 . S
C563 N565 1.384 1_554 S
N564 C560 1.427 1_554 S
N564 C561 1.384 1_554 S
N565 C557 1.427 1_556 S
N565 C563 1.384 1_556 S
H566 C572 0.930 . S
H567 C576 0.930 . S
H568 C581 0.929 . S
H569 C579 0.929 . S
H570 C574 0.929 . S
H571 C580 0.929 . S
C572 H566 0.930 . S
C572 C573 1.367 . S
C572 C580 1.378 . S
C573 C572 1.367 . S
C573 C581 1.433 . S
C574 H570 0.929 . S
C574 C576 1.378 . S
C574 C578 1.350 . S
C575 C578 1.463 . S
C575 C580 1.350 . S
C575 N583 1.427 . S
C576 H567 0.930 . S
C576 C574 1.378 . S
C576 C577 1.367 . S
C577 C576 1.367 . S
C577 C579 1.433 . S
C578 C574 1.350 . S
C578 C575 1.463 . S
C578 N582 1.427 . S
C579 H569 0.929 . S
C579 C577 1.433 . S
C579 N582 1.384 . S
C580 H571 0.929 . S
C580 C572 1.378 . S
C580 C575 1.350 . S
C581 H568 0.929 . S
C581 C573 1.433 . S
C581 N583 1.384 . S
N582 C578 1.427 . S
N582 C579 1.384 . S
N583 C575 1.427 . S
N583 C581 1.384 . S
H584 C590 0.930 . S
H585 C594 0.930 . S
H586 C599 0.929 . S
H587 C597 0.929 . S
H588 C592 0.929 . S
H589 C598 0.929 . S
C590 H584 0.930 . S
C590 C591 1.367 . S
C590 C598 1.378 . S
C591 C590 1.367 . S
C591 C599 1.433 . S
C592 H588 0.929 . S
C592 C594 1.378 . S
C592 C596 1.350 . S
C593 C596 1.463 1_554 S
C593 C598 1.350 . S
C593 N601 1.427 1_554 S
C594 H585 0.930 . S
C594 C592 1.378 . S
C594 C595 1.367 . S
C595 C594 1.367 . S
C595 C597 1.433 . S
C596 C592 1.350 . S
C596 C593 1.463 1_556 S
C596 N600 1.427 . S
C597 H587 0.929 . S
C597 C595 1.433 . S
C597 N600 1.384 . S
C598 H589 0.929 . S
C598 C590 1.378 . S
C598 C593 1.350 . S
C599 H586 0.929 . S
C599 C591 1.433 . S
C599 N601 1.384 1_554 S
N600 C596 1.427 . S
N600 C597 1.384 . S
N601 C593 1.427 1_556 S
N601 C599 1.384 1_556 S
H602 C608 0.930 . S
H603 C612 0.930 . S
H604 C617 0.929 . S
H605 C615 0.929 . S
H606 C610 0.929 . S
H607 C616 0.929 . S
C608 H602 0.930 . S
C608 C609 1.367 . S
C608 C616 1.378 . S
C609 C608 1.367 . S
C609 C617 1.433 . S
C610 H606 0.929 . S
C610 C612 1.378 . S
C610 C614 1.350 . S
C611 C614 1.463 . S
C611 C616 1.350 . S
C611 N619 1.427 . S
C612 H603 0.930 . S
C612 C610 1.378 . S
C612 C613 1.367 . S
C613 C612 1.367 . S
C613 C615 1.433 . S
C614 C610 1.350 . S
C614 C611 1.463 . S
C614 N618 1.427 . S
C615 H605 0.929 . S
C615 C613 1.433 . S
C615 N618 1.384 . S
C616 H607 0.929 . S
C616 C608 1.378 . S
C616 C611 1.350 . S
C617 H604 0.929 . S
C617 C609 1.433 . S
C617 N619 1.384 . S
N618 C614 1.427 . S
N618 C615 1.384 . S
N619 C611 1.427 . S
N619 C617 1.384 . S
H620 C626 0.930 . S
H621 C630 0.930 . S
H622 C635 0.929 . S
H623 C633 0.929 . S
H624 C628 0.929 . S
H625 C634 0.929 1_556 S
C626 H620 0.930 . S
C626 C627 1.367 . S
C626 C634 1.378 . S
C627 C626 1.367 . S
C627 C635 1.433 . S
C628 H624 0.929 . S
C628 C630 1.378 1_554 S
C628 C632 1.350 1_554 S
C629 C632 1.463 1_554 S
C629 C634 1.350 . S
C629 N637 1.427 . S
C630 H621 0.930 . S
C630 C628 1.378 1_556 S
C630 C631 1.367 . S
C631 C630 1.367 . S
C631 C633 1.433 . S
C632 C628 1.350 1_556 S
C632 C629 1.463 1_556 S
C632 N636 1.427 . S
C633 H623 0.929 . S
C633 C631 1.433 . S
C633 N636 1.384 . S
C634 H625 0.929 1_554 S
C634 C626 1.378 . S
C634 C629 1.350 . S
C635 H622 0.929 . S
C635 C627 1.433 . S
C635 N637 1.384 . S
N636 C632 1.427 . S
N636 C633 1.384 . S
N637 C629 1.427 . S
N637 C635 1.384 . S
H638 C644 0.930 . S
H639 C648 0.930 . S
H640 C653 0.929 . S
H641 C651 0.929 . S
H642 C646 0.929 . S
H643 C652 0.929 . S
C644 H638 0.930 . S
C644 C645 1.367 . S
C644 C652 1.378 . S
C645 C644 1.367 . S
C645 C653 1.433 . S
C646 H642 0.929 . S
C646 C648 1.378 . S
C646 C650 1.350 . S
C647 C650 1.463 . S
C647 C652 1.350 . S
C647 N655 1.427 . S
C648 H639 0.930 . S
C648 C646 1.378 . S
C648 C649 1.367 . S
C649 C648 1.367 . S
C649 C651 1.433 . S
C650 C646 1.350 . S
C650 C647 1.463 . S
C650 N654 1.427 . S
C651 H641 0.929 . S
C651 C649 1.433 . S
C651 N654 1.384 . S
C652 H643 0.929 . S
C652 C644 1.378 . S
C652 C647 1.350 . S
C653 H640 0.929 . S
C653 C645 1.433 . S
C653 N655 1.384 . S
N654 C650 1.427 . S
N654 C651 1.384 . S
N655 C647 1.427 . S
N655 C653 1.384 . S
H656 C662 0.930 . S
H657 C666 0.930 . S
H658 C671 0.927 1_554 S
H659 C669 0.927 1_556 S
H660 C664 0.929 . S
H661 C670 0.929 . S
C662 H656 0.930 . S
C662 C663 1.367 . S
C662 C670 1.378 . S
C663 C662 1.367 . S
C663 C671 1.433 . S
C664 H660 0.929 . S
C664 C666 1.378 . S
C664 C668 1.350 . S
C665 C668 1.463 1_556 S
C665 C670 1.350 . S
C665 N673 1.427 1_556 S
C666 H657 0.930 . S
C666 C664 1.378 . S
C666 C667 1.367 . S
C667 C666 1.367 . S
C667 C669 1.433 . S
C668 C664 1.350 . S
C668 C665 1.463 1_554 S
C668 N672 1.427 1_554 S
C669 H659 0.927 1_554 S
C669 C667 1.433 . S
C669 N672 1.384 1_554 S
C670 H661 0.929 . S
C670 C662 1.378 . S
C670 C665 1.350 . S
C671 H658 0.927 1_556 S
C671 C663 1.433 . S
C671 N673 1.384 1_556 S
N672 C668 1.427 1_556 S
N672 C669 1.384 1_556 S
N673 C665 1.427 1_554 S
N673 C671 1.384 1_554 S
H674 C680 0.930 . S
H675 C684 0.930 . S
H676 C689 0.929 . S
H677 C687 0.929 . S
H678 C682 0.929 . S
H679 C688 0.929 . S
C680 H674 0.930 . S
C680 C681 1.367 . S
C680 C688 1.378 . S
C681 C680 1.367 . S
C681 C689 1.433 . S
C682 H678 0.929 . S
C682 C684 1.378 . S
C682 C686 1.350 . S
C683 C686 1.463 . S
C683 C688 1.350 . S
C683 N691 1.427 . S
C684 H675 0.930 . S
C684 C682 1.378 . S
C684 C685 1.367 . S
C685 C684 1.367 . S
C685 C687 1.433 . S
C686 C682 1.350 . S
C686 C683 1.463 . S
C686 N690 1.427 . S
C687 H677 0.929 . S
C687 C685 1.433 . S
C687 N690 1.384 . S
C688 H679 0.929 . S
C688 C680 1.378 . S
C688 C683 1.350 . S
C689 H676 0.929 . S
C689 C681 1.433 . S
C689 N691 1.384 . S
N690 C686 1.427 . S
N690 C687 1.384 . S
N691 C683 1.427 . S
N691 C689 1.384 . S
H692 C698 0.930 . S
H693 C702 0.930 . S
H694 C707 0.931 . S
H695 C705 0.931 . S
H696 C700 0.929 . S
H697 C706 0.929 . S
C698 H692 0.930 . S
C698 C699 1.367 . S
C698 C706 1.378 . S
C699 C698 1.367 . S
C699 C707 1.433 . S
C700 H696 0.929 . S
C700 C702 1.378 . S
C700 C704 1.350 . S
C701 C704 1.463 1_554 S
C701 C706 1.350 . S
C701 N709 1.427 1_554 S
C702 H693 0.930 . S
C702 C700 1.378 . S
C702 C703 1.367 . S
C703 C702 1.367 . S
C703 C705 1.433 . S
C704 C700 1.350 . S
C704 C701 1.463 1_556 S
C704 N708 1.427 1_556 S
C705 H695 0.931 . S
C705 C703 1.433 . S
C705 N708 1.384 1_556 S
C706 H697 0.929 . S
C706 C698 1.378 . S
C706 C701 1.350 . S
C707 H694 0.931 . S
C707 C699 1.433 . S
C707 N709 1.384 1_554 S
N708 C704 1.427 1_554 S
N708 C705 1.384 1_554 S
N709 C701 1.427 1_556 S
N709 C707 1.384 1_556 S
H710 C716 0.930 . S
H711 C720 0.930 . S
H712 C725 0.929 . S
H713 C723 0.929 . S
H714 C718 0.929 . S
H715 C724 0.929 . S
C716 H710 0.930 . S
C716 C717 1.367 . S
C716 C724 1.378 . S
C717 C716 1.367 . S
C717 C725 1.433 . S
C718 H714 0.929 . S
C718 C720 1.378 . S
C718 C722 1.350 . S
C719 C722 1.463 . S
C719 C724 1.350 . S
C719 N727 1.427 . S
C720 H711 0.930 . S
C720 C718 1.378 . S
C720 C721 1.367 . S
C721 C720 1.367 . S
C721 C723 1.433 . S
C722 C718 1.350 . S
C722 C719 1.463 . S
C722 N726 1.427 . S
C723 H713 0.929 . S
C723 C721 1.433 . S
C723 N726 1.384 . S
C724 H715 0.929 . S
C724 C716 1.378 . S
C724 C719 1.350 . S
C725 H712 0.929 . S
C725 C717 1.433 . S
C725 N727 1.384 . S
N726 C722 1.427 . S
N726 C723 1.384 . S
N727 C719 1.427 . S
N727 C725 1.384 . S
H728 C734 0.930 . S
H729 C738 0.930 . S
H730 C743 0.929 . S
H731 C741 0.929 . S
H732 C736 0.916 1_545 S
H733 C742 0.916 1_565 S
C734 H728 0.930 . S
C734 C735 1.367 . S
C734 C742 1.378 . S
C735 C734 1.367 . S
C735 C743 1.433 . S
C736 H732 0.916 1_565 S
C736 C738 1.378 . S
C736 C740 1.350 . S
C737 C740 1.463 1_546 S
C737 C742 1.350 . S
C737 N745 1.427 1_556 S
C738 H729 0.930 . S
C738 C736 1.378 . S
C738 C739 1.367 . S
C739 C738 1.367 . S
C739 C741 1.433 . S
C740 C736 1.350 . S
C740 C737 1.463 1_564 S
C740 N744 1.427 1_554 S
C741 H731 0.929 . S
C741 C739 1.433 . S
C741 N744 1.384 1_554 S
C742 H733 0.916 1_545 S
C742 C734 1.378 . S
C742 C737 1.350 . S
C743 H730 0.929 . S
C743 C735 1.433 . S
C743 N745 1.384 1_556 S
N744 C740 1.427 1_556 S
N744 C741 1.384 1_556 S
N745 C737 1.427 1_554 S
N745 C743 1.384 1_554 S
H746 C752 0.930 . S
H747 C756 0.930 . S
H748 C761 0.929 . S
H749 C759 0.929 . S
H750 C754 0.929 . S
H751 C760 0.929 . S
C752 H746 0.930 . S
C752 C753 1.367 . S
C752 C760 1.378 . S
C753 C752 1.367 . S
C753 C761 1.433 . S
C754 H750 0.929 . S
C754 C756 1.378 . S
C754 C758 1.350 . S
C755 C758 1.463 1_565 S
C755 C760 1.350 . S
C755 N763 1.427 . S
C756 H747 0.930 . S
C756 C754 1.378 . S
C756 C757 1.367 . S
C757 C756 1.367 . S
C757 C759 1.433 . S
C758 C754 1.350 . S
C758 C755 1.463 1_545 S
C758 N762 1.427 . S
C759 H749 0.929 . S
C759 C757 1.433 . S
C759 N762 1.384 . S
C760 H751 0.929 . S
C760 C752 1.378 . S
C760 C755 1.350 . S
C761 H748 0.929 . S
C761 C753 1.433 . S
C761 N763 1.384 . S
N762 C758 1.427 . S
N762 C759 1.384 . S
N763 C755 1.427 . S
N763 C761 1.384 . S
H764 C770 0.930 . S
H765 C774 0.930 . S
H766 C779 0.929 . S
H767 C777 0.929 . S
H768 C772 0.929 . S
H769 C778 0.929 . S
C770 H764 0.930 . S
C770 C771 1.367 . S
C770 C778 1.378 . S
C771 C770 1.367 . S
C771 C779 1.433 . S
C772 H768 0.929 . S
C772 C774 1.378 . S
C772 C776 1.350 . S
C773 C776 1.463 1_564 S
C773 C778 1.350 . S
C773 N781 1.427 . S
C774 H765 0.930 . S
C774 C772 1.378 . S
C774 C775 1.367 . S
C775 C774 1.367 . S
C775 C777 1.433 . S
C776 C772 1.350 . S
C776 C773 1.463 1_546 S
C776 N780 1.427 . S
C777 H767 0.929 . S
C777 C775 1.433 . S
C777 N780 1.384 . S
C778 H769 0.929 . S
C778 C770 1.378 . S
C778 C773 1.350 . S
C779 H766 0.929 . S
C779 C771 1.433 . S
C779 N781 1.384 . S
N780 C776 1.427 . S
N780 C777 1.384 . S
N781 C773 1.427 . S
N781 C779 1.384 . S
H782 C788 0.930 . S
H783 C792 0.930 . S
H784 C797 0.929 . S
H785 C795 0.929 . S
H786 C790 0.929 . S
H787 C796 0.929 . S
C788 H782 0.930 . S
C788 C789 1.367 . S
C788 C796 1.378 . S
C789 C788 1.367 . S
C789 C797 1.433 . S
C790 H786 0.929 . S
C790 C792 1.378 . S
C790 C794 1.350 . S
C791 C794 1.463 1_545 S
C791 C796 1.350 . S
C791 N799 1.427 . S
C792 H783 0.930 . S
C792 C790 1.378 . S
C792 C793 1.367 . S
C793 C792 1.367 . S
C793 C795 1.433 . S
C794 C790 1.350 . S
C794 C791 1.463 1_565 S
C794 N798 1.427 . S
C795 H785 0.929 . S
C795 C793 1.433 . S
C795 N798 1.384 . S
C796 H787 0.929 . S
C796 C788 1.378 . S
C796 C791 1.350 . S
C797 H784 0.929 . S
C797 C789 1.433 . S
C797 N799 1.384 . S
N798 C794 1.427 . S
N798 C795 1.384 . S
N799 C791 1.427 . S
N799 C797 1.384 . S
C231 C4 1.466 . S
C235 C88 1.465 . S
C249 C18 1.464 . S
C253 C102 1.464 . S
C267 C60 1.475 . S
C271 C32 1.472 . S
C285 C74 1.475 . S
C289 C46 1.473 . S
C303 C200 1.465 . S
C307 C116 1.463 . S
C321 C214 1.469 . S
C325 C130 1.465 . S
C339 C144 1.466 . S
C343 C172 1.465 . S
C357 C158 1.469 . S
C361 C186 1.468 . S
C375 C5 1.297 . S
C379 C82 1.434 . S
C393 C19 1.280 . S
C397 C68 1.429 . S
C411 C33 1.296 . S
C415 C110 1.434 . S
C429 C96 1.431 . S
C433 C47 1.283 . S
C447 C194 1.431 . S
C451 C117 1.280 . S
C465 C180 1.431 . S
C469 C131 1.283 . S
C483 C145 1.285 . S
C487 C222 1.430 . S
C501 C208 1.432 . S
C505 C159 1.299 . S
C519 C179 1.329 . S
C523 C11 1.333 . S
C537 C25 1.334 . S
C541 C193 1.336 . S
C555 C207 1.331 . S
C559 C39 1.334 . S
C573 C221 1.326 . S
C577 C53 1.324 . S
C591 C123 1.328 . S
C595 C67 1.326 . S
C609 C137 1.326 . S
C613 C81 1.338 . S
C627 C95 1.330 . S
C631 C151 1.321 . S
C645 C109 1.338 . S
C649 C165 1.328 . S
C663 C40 1.545 . S
C667 C12 1.543 . S
C681 C26 1.545 . S
C685 C54 1.544 . S
C699 C89 1.175 . S
C703 C61 1.188 . S
C717 C75 1.197 . S
C721 C103 1.169 . S
C735 C152 1.546 . S
C739 C124 1.543 . S
C753 C166 1.542 . S
C757 C138 1.547 . S
C771 C201 1.194 . S
C775 C173 1.170 . S
C789 C215 1.184 . S
C793 C187 1.187 . S
