# Generated by pormake.
# Topology smc, (6)-cn, num edge types: 1
# Building blocks:
#     Node 0, Type 0, BuildingBlock: KUMJIN_clean_sbu_1, # of connection points: 6
#     Node 1, Type 0, BuildingBlock: KUMJIN_clean_sbu_1, # of connection points: 6
#     Node 2, Type 0, BuildingBlock: KUMJIN_clean_sbu_1, # of connection points: 6
#     Node 3, Type 0, BuildingBlock: KUMJIN_clean_sbu_1, # of connection points: 6
#     Node 4, Type 0, BuildingBlock: KUMJIN_clean_sbu_1, # of connection points: 6
#     Node 5, Type 0, BuildingBlock: KUMJIN_clean_sbu_1, # of connection points: 6
#     Node 6, Type 0, BuildingBlock: KUMJIN_clean_sbu_1, # of connection points: 6
#     Node 7, Type 0, BuildingBlock: KUMJIN_clean_sbu_1, # of connection points: 6
#     Node 8, Type 0, BuildingBlock: KUMJIN_clean_sbu_1, # of connection points: 6
#     Edge 9, Type (0, 0), BuildingBlock: XIVTED_clean_linker_0, # of connection points: 2
#     Edge 10, Type (0, 0), BuildingBlock: XIVTED_clean_linker_0, # of connection points: 2
#     Edge 11, Type (0, 0), BuildingBlock: XIVTED_clean_linker_0, # of connection points: 2
#     Edge 12, Type (0, 0), BuildingBlock: XIVTED_clean_linker_0, # of connection points: 2
#     Edge 13, Type (0, 0), BuildingBlock: XIVTED_clean_linker_0, # of connection points: 2
#     Edge 14, Type (0, 0), BuildingBlock: XIVTED_clean_linker_0, # of connection points: 2
#     Edge 15, Type (0, 0), BuildingBlock: XIVTED_clean_linker_0, # of connection points: 2
#     Edge 16, Type (0, 0), BuildingBlock: XIVTED_clean_linker_0, # of connection points: 2
#     Edge 17, Type (0, 0), BuildingBlock: XIVTED_clean_linker_0, # of connection points: 2
#     Edge 18, Type (0, 0), BuildingBlock: XIVTED_clean_linker_0, # of connection points: 2
#     Edge 19, Type (0, 0), BuildingBlock: XIVTED_clean_linker_0, # of connection points: 2
#     Edge 20, Type (0, 0), BuildingBlock: XIVTED_clean_linker_0, # of connection points: 2
#     Edge 21, Type (0, 0), BuildingBlock: XIVTED_clean_linker_0, # of connection points: 2
#     Edge 22, Type (0, 0), BuildingBlock: XIVTED_clean_linker_0, # of connection points: 2
#     Edge 23, Type (0, 0), BuildingBlock: XIVTED_clean_linker_0, # of connection points: 2
#     Edge 24, Type (0, 0), BuildingBlock: XIVTED_clean_linker_0, # of connection points: 2
#     Edge 25, Type (0, 0), BuildingBlock: XIVTED_clean_linker_0, # of connection points: 2
#     Edge 26, Type (0, 0), BuildingBlock: XIVTED_clean_linker_0, # of connection points: 2
#     Edge 27, Type (0, 0), BuildingBlock: XIVTED_clean_linker_0, # of connection points: 2
#     Edge 28, Type (0, 0), BuildingBlock: XIVTED_clean_linker_0, # of connection points: 2
#     Edge 29, Type (0, 0), BuildingBlock: XIVTED_clean_linker_0, # of connection points: 2
#     Edge 30, Type (0, 0), BuildingBlock: XIVTED_clean_linker_0, # of connection points: 2
#     Edge 31, Type (0, 0), BuildingBlock: XIVTED_clean_linker_0, # of connection points: 2
#     Edge 32, Type (0, 0), BuildingBlock: XIVTED_clean_linker_0, # of connection points: 2
#     Edge 33, Type (0, 0), BuildingBlock: XIVTED_clean_linker_0, # of connection points: 2
#     Edge 34, Type (0, 0), BuildingBlock: XIVTED_clean_linker_0, # of connection points: 2
#     Edge 35, Type (0, 0), BuildingBlock: XIVTED_clean_linker_0, # of connection points: 2
# Relax obj value: 0.165
# Max RMSD: 0.313
# Mean RMSD: 0.313
data_MOF--net-smc--node1-KUMJIN_clean_sbu_1--edge1-XIVTED_clean_linker_0
_symmetry_space_group_name_H-M    P1
_symmetry_Int_Tables_number       1
_symmetry_cell_setting            triclinic
loop_
_symmetry_equiv_pos_as_xyz
'x, y, z'
_cell_length_a     38.094384
_cell_length_b     38.138026
_cell_length_c     40.257015
_cell_angle_alpha  89.747165
_cell_angle_beta   90.21943
_cell_angle_gamma 119.86634
loop_
_atom_site_label
_atom_site_type_symbol
_atom_site_fract_x
_atom_site_fract_y
_atom_site_fract_z
_atom_type_partial_charge
Eu0 Eu 0.05869 0.41986 0.99161 0.0
C1 C 0.05881 0.57499 0.0201 0.0
N2 N 0.0478 0.54514 0.043 0.0
C3 C 0.08891 0.59342 0.0843 0.0
C4 C 0.0861 0.61561 0.02848 0.0
C5 C 0.06207 0.55359 0.07481 0.0
C6 C 0.10101 0.62458 0.06103 0.0
C7 C 0.0549 0.59541 0.96373 0.0
C8 C 0.04339 0.5648 0.98804 0.0
C9 C 0.08269 0.63575 0.97182 0.0
C10 C 0.09812 0.64584 1.00412 0.0
Eu11 Eu 1.00019 0.47926 0.02611 0.0
N12 N 1.01648 0.52539 0.98084 0.0
C13 C 0.03743 0.5848 0.93216 0.0
C14 C 0.99667 0.51585 0.95097 0.0
C15 C 1.00768 0.54498 0.92596 0.0
H16 H 0.05239 0.52949 0.09287 0.0
H17 H 0.99242 0.53686 0.90215 0.0
H18 H 0.08588 0.45805 0.91549 0.0
H19 H 1.00719 0.26603 0.03482 0.0
H20 H 0.97126 0.48632 0.94625 0.0
H21 H 0.04552 0.6074 0.91283 0.0
H22 H 0.03562 0.34001 0.04027 0.0
H23 H 0.10023 0.60005 0.10952 0.0
H24 H 0.09204 0.65949 0.95335 0.0
H25 H 0.11941 0.67712 1.01 0.0
H26 H 0.07971 0.43376 0.85757 0.0
H27 H 0.12205 0.65539 0.06838 0.0
H28 H 0.99053 0.23446 0.97911 0.0
N29 N 0.05517 0.39895 0.93611 0.0
C30 C 0.03791 0.35871 0.93058 0.0
C31 C 0.06769 0.41231 0.87787 0.0
C32 C 0.03366 0.3434 0.89812 0.0
C33 C 0.07102 0.42596 0.91058 0.0
C34 C 0.04848 0.3708 0.87156 0.0
N35 N 0.03388 0.34952 0.98846 0.0
C36 C 0.02849 0.3263 0.01595 0.0
C37 C 1.01071 0.29123 0.95323 0.0
C38 C 0.02673 0.3331 0.95767 0.0
C39 C 1.00286 0.2668 0.98142 0.0
C40 C 1.01234 0.28452 0.01291 0.0
H41 H 0.04583 0.36029 0.84622 0.0
H42 H 1.01171 0.28903 0.86858 0.0
H43 H 0.99163 0.24326 0.91693 0.0
O44 O 0.11358 0.45224 0.0215 0.0
O45 O 0.99526 0.37534 1.01172 0.0
O46 O 0.96353 0.41137 0.02934 0.0
O47 O 0.11425 0.42063 0.97716 0.0
O48 O 0.05038 0.41811 0.04748 0.0
O49 O 0.02204 0.45564 0.06948 0.0
O50 O 0.95035 0.49214 0.02181 0.0
O51 O 0.06812 0.50294 0.02783 0.0
O52 O 0.07739 0.48409 0.97713 0.0
O53 O 0.96826 0.48271 0.07012 0.0
O54 O 0.97198 0.43692 0.98121 0.0
O55 O 0.03257 0.45077 0.96157 0.0
C56 C 0.96425 0.37752 0.02434 0.0
C57 C 0.16253 0.4316 0.01871 0.0
C58 C 0.23195 0.44698 0.02901 0.0
C59 C 0.21698 0.41301 0.0501 0.0
C60 C 0.14807 0.39785 0.03969 0.0
C61 C 0.17532 0.38864 0.05531 0.0
C62 C 0.20427 0.45595 0.01338 0.0
C63 C 0.03953 0.43304 0.07254 0.0
C64 C 0.13497 0.44262 1.00234 0.0
C65 C 1.01581 0.30148 0.89336 0.0
C66 C 1.00434 0.27542 0.92089 0.0
C67 C 0.08968 0.51115 1.00071 0.0
C68 C 0.94423 0.52982 0.0656 0.0
C69 C 0.9117 0.57158 0.06474 0.0
C70 C 0.94222 0.59931 0.08595 0.0
C71 C 0.97336 0.55738 0.08778 0.0
C72 C 0.91314 0.53692 0.05443 0.0
C73 C 0.97263 0.59209 0.09746 0.0
C74 C 0.99348 0.43233 0.958 0.0
C75 C 0.94608 0.49398 0.05361 0.0
H76 H 0.23742 0.40499 0.06227 0.0
H77 H 0.11591 0.37882 0.04399 0.0
H78 H 0.16413 0.36254 0.07151 0.0
H79 H 0.21518 0.48236 0.99748 0.0
H80 H 0.94176 0.62592 0.09465 0.0
H81 H 0.99656 0.5521 0.09794 0.0
H82 H 0.8901 0.51549 0.03775 0.0
H83 H 0.99544 0.61321 0.1144 0.0
Eu84 Eu 0.61961 0.65167 0.99827 0.0
C85 C 0.47258 0.48992 0.02944 0.0
N86 N 0.50232 0.50926 0.05226 0.0
C87 C 0.45319 0.496 0.09461 0.0
C88 C 0.43152 0.4733 0.03837 0.0
C89 C 0.49342 0.51214 0.08457 0.0
C90 C 0.42208 0.47659 0.07138 0.0
C91 C 0.45267 0.46638 0.973 0.0
C92 C 0.48324 0.48672 0.9971 0.0
C93 C 0.41184 0.4508 0.98157 0.0
C94 C 0.40128 0.45406 0.0142 0.0
Eu95 Eu 0.5693 0.53391 0.0345 0.0
N96 N 0.52308 0.50165 0.9896 0.0
C97 C 0.46386 0.46099 0.94125 0.0
C98 C 0.53332 0.49237 0.95967 0.0
C99 C 0.50427 0.47331 0.93479 0.0
H100 H 0.51757 0.52719 0.10247 0.0
H101 H 0.51295 0.46712 0.91091 0.0
H102 H 0.57513 0.63445 0.92384 0.0
H103 H 0.77537 0.76091 0.03222 0.0
H104 H 0.56345 0.49805 0.95478 0.0
H105 H 0.44133 0.44564 0.92207 0.0
H106 H 0.70229 0.71404 0.04194 0.0
H107 H 0.44621 0.49857 0.1202 0.0
H108 H 0.3881 0.43543 0.96328 0.0
H109 H 0.36962 0.44149 0.02052 0.0
H110 H 0.59444 0.65147 0.86489 0.0
H111 H 0.39092 0.46428 0.07916 0.0
H112 H 0.80254 0.77306 0.97496 0.0
N113 N 0.63572 0.666 0.94146 0.0
C114 C 0.67532 0.69002 0.93373 0.0
C115 C 0.61752 0.66243 0.884 0.0
C116 C 0.68785 0.70013 0.90046 0.0
C117 C 0.60667 0.65287 0.91736 0.0
C118 C 0.65835 0.68577 0.87545 0.0
N119 N 0.68918 0.69866 0.99103 0.0
C120 C 0.71417 0.71912 0.01696 0.0
C121 C 0.74421 0.7334 0.9525 0.0
C122 C 0.70302 0.70656 0.95936 0.0
C123 C 0.77065 0.75229 0.97916 0.0
C124 C 0.75541 0.7456 1.01151 0.0
H125 H 0.6667 0.69295 0.84958 0.0
H126 H 0.73948 0.73264 0.8679 0.0
H127 H 0.78893 0.76179 0.91354 0.0
O128 O 0.58388 0.67298 0.02542 0.0
O129 O 0.66776 0.63756 0.01914 0.0
O130 O 0.63735 0.56887 0.03417 0.0
O131 O 0.62068 0.70761 0.98416 0.0
O132 O 0.62582 0.64725 0.05414 0.0
O133 O 0.59017 0.58095 0.07633 0.0
O134 O 0.5577 0.47153 0.03276 0.0
O135 O 0.54173 0.57426 0.03967 0.0
O136 O 0.5557 0.60132 0.98836 0.0
O137 O 0.57584 0.50403 0.0788 0.0
O138 O 0.61024 0.55074 0.98852 0.0
O139 O 0.59105 0.59409 0.96931 0.0
C140 C 0.66907 0.60529 0.03008 0.0
C141 C 0.5573 0.70332 0.98937 0.0
C142 C 0.51774 0.73669 0.97802 0.0
C143 C 0.49252 0.70453 0.95692 0.0
C144 C 0.53209 0.67226 0.96753 0.0
C145 C 0.49969 0.6726 0.95178 0.0
C146 C 0.54998 0.73564 0.99469 0.0
C147 C 0.61194 0.62103 0.07915 0.0
C148 C 0.59225 0.70251 1.00472 0.0
C149 C 0.72916 0.7251 0.89335 0.0
C150 C 0.75732 0.74164 0.91933 0.0
C151 C 0.53097 0.58719 0.01361 0.0
C152 C 0.53073 0.43256 0.08176 0.0
C153 C 0.49048 0.35844 0.08668 0.0
C154 C 0.4707 0.3631 0.11432 0.0
C155 C 0.51089 0.43599 0.10986 0.0
C156 C 0.52042 0.3936 0.07037 0.0
C157 C 0.48087 0.40152 0.12572 0.0
C158 C 0.61193 0.57584 0.96531 0.0
C159 C 0.5625 0.46913 0.06447 0.0
H160 H 0.46706 0.70402 0.94436 0.0
H161 H 0.53763 0.64784 0.96222 0.0
H162 H 0.4803 0.64818 0.93526 0.0
H163 H 0.56984 0.76025 1.01093 0.0
H164 H 0.44811 0.33703 0.12785 0.0
H165 H 0.5187 0.46526 0.11985 0.0
H166 H 0.53576 0.39076 0.0488 0.0
H167 H 0.46577 0.4046 0.14731 0.0
Eu168 Eu 0.38522 0.98447 1.00736 0.0
C169 C 0.54522 0.99037 0.02422 0.0
N170 N 0.52805 1.00367 0.0467 0.0
C171 C 0.54 0.96791 0.09033 0.0
C172 C 0.55938 0.964 0.03391 0.0
C173 C 0.52589 0.99356 0.0795 0.0
C174 C 0.5566 0.95286 0.06741 0.0
C175 C 0.56487 0.98857 0.96735 0.0
C176 C 0.54779 1.00253 0.99133 0.0
C177 C 0.57803 0.96145 0.97672 0.0
C178 C 0.57541 0.9493 1.00992 0.0
Eu179 Eu 0.50614 0.04791 0.02694 0.0
N180 N 0.53464 0.02872 0.98295 0.0
C181 C 0.56904 1.00291 0.93476 0.0
C182 C 0.54174 0.04518 0.95177 0.0
C183 C 0.55805 0.03185 0.9271 0.0
H184 H 0.51282 1.00508 0.09715 0.0
H185 H 0.56282 0.04447 0.9023 0.0
H186 H 0.37128 0.97752 0.92465 0.0
H187 H 0.30334 0.02004 0.09983 0.0
H188 H 0.53604 0.06942 0.94569 0.0
H189 H 0.58197 0.9929 0.91564 0.0
H190 H 0.34426 0.9907 0.07906 0.0
H191 H 0.53789 0.95962 0.11629 0.0
H192 H 0.59085 0.95016 0.95855 0.0
H193 H 0.58596 0.92861 0.01681 0.0
H194 H 0.34346 1.00307 0.88128 0.0
H195 H 0.56714 0.93266 0.07581 0.0
H196 H 0.28021 0.05479 0.06086 0.0
N197 N 0.35824 1.00598 0.96415 0.0
C198 C 0.33818 0.02537 0.97365 0.0
C199 C 0.34239 1.01015 0.90712 0.0
C200 C 0.32132 0.04002 0.94985 0.0
C201 C 0.35853 0.99616 0.93166 0.0
C202 C 0.32467 0.03313 0.91618 0.0
N203 N 0.34534 1.01021 0.02936 0.0
C204 C 0.33435 1.006 0.06203 0.0
C205 C 0.30764 0.04414 0.01788 0.0
C206 C 0.33122 0.02725 1.00724 0.0
C207 C 0.29827 0.04219 0.05171 0.0
C208 C 0.31122 0.02253 0.07379 0.0
H209 H 0.31206 0.0438 0.89712 0.0
H210 H 0.28716 0.07098 0.94252 0.0
H211 H 0.2753 0.07472 1.00211 0.0
O212 O 0.3567 0.92253 0.02699 0.0
O213 O 0.40948 0.04617 0.03406 0.0
O214 O 0.47398 0.08179 0.01356 0.0
O215 O 0.32644 0.93741 0.98906 0.0
O216 O 0.40308 0.97845 0.05995 0.0
O217 O 0.46602 0.03468 0.07321 0.0
O218 O 0.56878 0.09605 0.01959 0.0
O219 O 0.46728 0.98017 0.03348 0.0
O220 O 0.42949 0.96656 0.98722 0.0
O221 O 0.5406 0.08969 0.06713 0.0
O222 O 0.48353 0.06524 0.97957 0.0
O223 O 0.43001 1.00372 0.96477 0.0
C224 C 0.44352 0.08067 0.02936 0.0
C225 C 0.32504 0.87559 0.98372 0.0
C226 C 0.29421 0.80419 0.96868 0.0
C227 C 0.32145 0.81517 0.94196 0.0
C228 C 0.35124 0.88561 0.95643 0.0
C229 C 0.34969 0.85557 0.93595 0.0
C230 C 0.29656 0.83471 0.98993 0.0
C231 C 0.4305 1.00308 0.08141 0.0
C232 C 0.32783 0.90837 1.00492 0.0
C233 C 0.29989 0.05909 0.96043 0.0
C234 C 0.29306 0.06114 0.99438 0.0
C235 C 0.44864 0.95624 1.00858 0.0
C236 C 0.61144 0.11225 0.0664 0.0
C237 C 0.68552 0.14453 0.06807 0.0
C238 C 0.6822 0.11857 0.09426 0.0
C239 C 0.60919 0.08771 0.09335 0.0
C240 C 0.64982 0.14095 0.05408 0.0
C241 C 0.64431 0.09055 0.10685 0.0
C242 C 0.45614 0.04143 0.95758 0.0
C243 C 0.57429 0.10769 0.05036 0.0
H244 H 0.321 0.79242 0.92568 0.0
H245 H 0.37279 0.91679 0.95071 0.0
H246 H 0.37031 0.86367 0.91519 0.0
H247 H 0.27585 0.82687 1.01064 0.0
H248 H 0.70901 0.12086 0.10578 0.0
H249 H 0.58039 0.06641 0.10415 0.0
H250 H 0.65186 0.16038 0.03356 0.0
H251 H 0.64216 0.07128 0.12748 0.0
Eu252 Eu 0.72829 0.76179 0.35959 0.0
C253 C 0.70049 0.90486 0.37431 0.0
N254 N 0.68721 0.87062 0.39297 0.0
C255 C 0.70905 0.91052 0.44267 0.0
C256 C 0.71938 0.94338 0.38935 0.0
C257 C 0.68985 0.87296 0.42684 0.0
C258 C 0.72415 0.94588 0.42387 0.0
C259 C 0.70868 0.93651 0.32008 0.0
C260 C 0.69542 0.9016 0.33992 0.0
C261 C 0.72736 0.97475 0.33511 0.0
C262 C 0.73284 0.97818 0.36959 0.0
Eu263 Eu 0.65369 0.80931 0.36261 0.0
N264 N 0.67858 0.86437 0.32574 0.0
C265 C 0.70313 0.93195 0.28562 0.0
C266 C 0.67166 0.85952 0.29235 0.0
C267 C 0.68434 0.89328 0.27173 0.0
H268 H 0.67631 0.84622 0.44213 0.0
H269 H 0.67938 0.88946 0.24519 0.0
H270 H 0.69023 0.69731 0.29627 0.0
H271 H 0.78068 0.73785 0.47932 0.0
H272 H 0.65636 0.82957 0.28173 0.0
H273 H 0.71299 0.95805 0.26956 0.0
H274 H 0.7764 0.77776 0.43274 0.0
H275 H 0.71152 0.91213 0.46948 0.0
H276 H 0.73798 1.00191 0.32024 0.0
H277 H 0.74758 1.00795 0.38077 0.0
H278 H 0.65693 0.62352 0.28637 0.0
H279 H 0.73876 0.97491 0.43628 0.0
H280 H 0.74071 0.66308 0.47807 0.0
N281 N 0.69829 0.69219 0.34784 0.0
C282 C 0.6961 0.66771 0.37326 0.0
C283 C 0.66746 0.6355 0.31101 0.0
C284 C 0.67787 0.62558 0.36884 0.0
C285 C 0.68602 0.67714 0.31664 0.0
C286 C 0.66275 0.60951 0.33736 0.0
N287 N 0.73402 0.72618 0.40553 0.0
C288 C 0.75848 0.74515 0.43207 0.0
C289 C 0.7156 0.66119 0.42929 0.0
C290 C 0.71444 0.68527 0.4031 0.0
C291 C 0.73864 0.68043 0.45754 0.0
C292 C 0.7611 0.72261 0.45845 0.0
H293 H 0.64856 0.57729 0.33291 0.0
H294 H 0.66242 0.56867 0.39277 0.0
H295 H 0.69569 0.5999 0.44571 0.0
O296 O 0.78797 0.76717 0.36332 0.0
O297 O 0.65941 0.71648 0.35902 0.0
O298 O 0.63284 0.74955 0.38849 0.0
O299 O 0.76931 0.78162 0.31687 0.0
O300 O 0.73002 0.7978 0.40505 0.0
O301 O 0.66591 0.78815 0.41334 0.0
O302 O 0.59457 0.78947 0.33944 0.0
O303 O 0.71589 0.84064 0.33791 0.0
O304 O 0.75262 0.82696 0.3744 0.0
O305 O 0.61223 0.82821 0.38242 0.0
O306 O 0.64251 0.76658 0.31872 0.0
O307 O 0.70658 0.77564 0.31125 0.0
C308 C 0.6294 0.71644 0.37551 0.0
C309 C 0.82434 0.7684 0.31549 0.0
C310 C 0.89322 0.78372 0.30235 0.0
C311 C 0.87687 0.74799 0.28345 0.0
C312 C 0.80856 0.7329 0.29674 0.0
C313 C 0.83487 0.72285 0.28072 0.0
C314 C 0.86644 0.79361 0.31818 0.0
C315 C 0.69982 0.79063 0.42477 0.0
C316 C 0.79826 0.78024 0.33311 0.0
C317 C 0.67667 0.60117 0.39555 0.0
C318 C 0.69555 0.61895 0.42572 0.0
C319 C 0.74928 0.85272 0.35499 0.0
C320 C 0.54206 0.79216 0.36979 0.0
C321 C 0.48395 0.80171 0.3804 0.0
C322 C 0.46094 0.76039 0.38865 0.0
C323 C 0.5184 0.75112 0.37782 0.0
C324 C 0.5247 0.8173 0.37094 0.0
C325 C 0.47807 0.7354 0.38729 0.0
C326 C 0.66911 0.76183 0.30109 0.0
C327 C 0.58475 0.80967 0.35979 0.0
H328 H 0.89647 0.73909 0.27122 0.0
H329 H 0.77615 0.71308 0.29458 0.0
H330 H 0.82268 0.69536 0.26628 0.0
H331 H 0.87827 0.82126 0.33246 0.0
H332 H 0.42943 0.74716 0.39563 0.0
H333 H 0.53103 0.7313 0.37657 0.0
H334 H 0.5431 0.8491 0.36478 0.0
H335 H 0.45991 0.70362 0.39344 0.0
Eu336 Eu 0.28292 0.99879 0.35405 0.0
C337 C 0.13029 0.8333 0.36142 0.0
N338 N 0.16226 0.85205 0.38273 0.0
C339 C 0.1164 0.83718 0.42832 0.0
C340 C 0.0901 0.81679 0.37284 0.0
C341 C 0.15563 0.85233 0.41606 0.0
C342 C 0.08353 0.81978 0.40659 0.0
C343 C 0.10505 0.80943 0.30567 0.0
C344 C 0.13756 0.82965 0.3281 0.0
C345 C 0.06515 0.79344 0.31699 0.0
C346 C 0.05771 0.79724 0.35043 0.0
Eu347 Eu 0.227 0.87545 0.35846 0.0
N348 N 0.17646 0.84627 0.31748 0.0
C349 C 0.11366 0.80599 0.27243 0.0
C350 C 0.18508 0.84158 0.28549 0.0
C351 C 0.15383 0.8219 0.26237 0.0
H352 H 0.18009 0.86294 0.43372 0.0
H353 H 0.16072 0.8188 0.23686 0.0
H354 H 0.36345 0.02241 0.30607 0.0
H355 H 0.28133 0.0737 0.46848 0.0
H356 H 0.21613 0.8533 0.27788 0.0
H357 H 0.08951 0.79078 0.25445 0.0
H358 H 0.25346 0.03532 0.41644 0.0
H359 H 0.1115 0.83815 0.45469 0.0
H360 H 0.03981 0.77814 0.30006 0.0
H361 H 0.02672 0.78468 0.35878 0.0
H362 H 0.438 0.05502 0.31144 0.0
H363 H 0.05314 0.80766 0.41627 0.0
H364 H 0.35296 0.09922 0.48323 0.0
N365 N 0.35463 0.03222 0.35644 0.0
C366 C 0.37229 0.05067 0.3854 0.0
C367 C 0.41987 0.05376 0.33252 0.0
C368 C 0.41462 0.07009 0.38959 0.0
C369 C 0.37779 0.03546 0.32948 0.0
C370 C 0.43833 0.07055 0.36292 0.0
N371 N 0.30808 0.03688 0.40331 0.0
C372 C 0.2845 0.04537 0.42329 0.0
C373 C 0.36558 0.0754 0.4389 0.0
C374 C 0.34812 0.053 0.40973 0.0
C375 C 0.34078 0.08166 0.46082 0.0
C376 C 0.30028 0.06735 0.45257 0.0
H377 H 0.47097 0.0851 0.36514 0.0
H378 H 0.46436 0.10473 0.42348 0.0
H379 H 0.42147 0.1098 0.46653 0.0
O380 O 0.27771 0.05367 0.35066 0.0
O381 O 0.32201 0.96827 0.35906 0.0
O382 O 0.28196 0.91247 0.39049 0.0
O383 O 0.28724 0.02818 0.30656 0.0
O384 O 0.23572 0.96511 0.39412 0.0
O385 O 0.24147 0.90971 0.40849 0.0
O386 O 0.25026 0.83572 0.34337 0.0
O387 O 0.20471 0.90863 0.32514 0.0
O388 O 0.21427 0.96116 0.35767 0.0
O389 O 0.20107 0.81416 0.3784 0.0
O390 O 0.27484 0.9045 0.31697 0.0
O391 O 0.27301 0.96321 0.30666 0.0
C392 C 0.31737 0.93808 0.37812 0.0
C393 C 0.24067 0.05182 0.30262 0.0
C394 C 0.19643 0.0806 0.29413 0.0
C395 C 0.17147 0.04766 0.27363 0.0
C396 C 0.21489 0.01907 0.28216 0.0
C397 C 0.18063 0.01713 0.26782 0.0
C398 C 0.23107 0.08244 0.30872 0.0
C399 C 0.23734 0.94109 0.41681 0.0
C400 C 0.27647 0.05304 0.31841 0.0
C401 C 0.43193 0.08997 0.41961 0.0
C402 C 0.40746 0.09274 0.4442 0.0
C403 C 0.19203 0.93247 0.33651 0.0
C404 C 0.2388 0.78045 0.37828 0.0
C405 C 0.23011 0.71351 0.38903 0.0
C406 C 0.26584 0.73164 0.40812 0.0
C407 C 0.27393 0.79791 0.39774 0.0
C408 C 0.21663 0.73823 0.37435 0.0
C409 C 0.2874 0.77356 0.41259 0.0
C410 C 0.28513 0.93745 0.29896 0.0
C411 C 0.22461 0.80538 0.3615 0.0
H412 H 0.14434 0.04511 0.26253 0.0
H413 H 0.22092 0.99465 0.27734 0.0
H414 H 0.16095 0.99168 0.25229 0.0
H415 H 0.25057 0.10764 0.3246 0.0
H416 H 0.277 0.71334 0.41961 0.0
H417 H 0.29083 0.83024 0.40127 0.0
H418 H 0.18955 0.72474 0.35908 0.0
H419 H 0.31478 0.78722 0.42742 0.0
Eu420 Eu 0.05118 0.31947 0.33403 0.0
C421 C 0.2098 0.31683 0.35416 0.0
N422 N 0.19342 0.32948 0.37777 0.0
C423 C 0.20421 0.29041 0.41913 0.0
C424 C 0.22371 0.28973 0.36217 0.0
C425 C 0.19059 0.317 0.40996 0.0
C426 C 0.22079 0.27663 0.39512 0.0
C427 C 0.22958 0.31815 0.29689 0.0
C428 C 0.21249 0.33085 0.32192 0.0
C429 C 0.24234 0.29026 0.30453 0.0
C430 C 0.23958 0.27623 0.33712 0.0
Eu431 Eu 0.17217 0.37534 0.36148 0.0
N432 N 0.2001 0.3581 0.31533 0.0
C433 C 0.23456 0.33479 0.26511 0.0
C434 C 0.20898 0.37733 0.28515 0.0
C435 C 0.22498 0.3651 0.25942 0.0
H436 H 0.17789 0.32777 0.42857 0.0
H437 H 0.23087 0.37984 0.23541 0.0
H438 H 0.05393 0.28042 0.2606 0.0
H439 H 0.95736 0.38321 0.37164 0.0
H440 H 0.20527 0.40311 0.28058 0.0
H441 H 0.24749 0.32579 0.24523 0.0
H442 H 1.00008 0.35167 0.3798 0.0
H443 H 0.20184 0.28051 0.44467 0.0
H444 H 0.25513 0.27995 0.28552 0.0
H445 H 0.24989 0.25501 0.34271 0.0
H446 H 0.03415 0.28212 0.20221 0.0
H447 H 0.23107 0.25579 0.40222 0.0
H448 H 0.94015 0.39457 0.31469 0.0
N449 N 0.03001 0.31662 0.27834 0.0
C450 C 1.0086 0.33528 0.27106 0.0
C451 C 0.0269 0.29735 0.22132 0.0
C452 C 0.99653 0.33697 0.23824 0.0
C453 C 0.03813 0.29652 0.25434 0.0
C454 C 1.00651 0.31819 0.21313 0.0
N455 N 1.00723 0.34613 0.32819 0.0
C456 C 0.99243 0.35642 0.35495 0.0
C457 C 0.97261 0.36835 0.29093 0.0
C458 C 0.99684 0.35064 0.29692 0.0
C459 C 0.95886 0.38081 0.31819 0.0
C460 C 0.96842 0.37434 0.35038 0.0
H461 H 0.99795 0.31891 0.18755 0.0
H462 H 0.96497 0.35852 0.20665 0.0
H463 H 0.94386 0.38597 0.25291 0.0
O464 O 0.03183 0.26918 0.36917 0.0
O465 O 0.07496 0.38609 0.34827 0.0
O466 O 0.14447 0.41569 0.36038 0.0
O467 O 0.99319 0.26405 0.3277 0.0
O468 O 0.06683 0.34372 0.38672 0.0
O469 O 0.12715 0.34833 0.40502 0.0
O470 O 0.23529 0.42336 0.357 0.0
O471 O 0.12754 0.30805 0.36703 0.0
O472 O 0.0931 0.29623 0.31878 0.0
O473 O 0.20664 0.41099 0.40479 0.0
O474 O 0.15495 0.39937 0.31518 0.0
O475 O 0.1041 0.33839 0.30013 0.0
C476 C 0.11085 0.41725 0.35621 0.0
C477 C 0.96183 0.22079 0.37358 0.0
C478 C 0.90762 0.15292 0.38813 0.0
C479 C 0.89283 0.17022 0.41102 0.0
C480 C 0.94629 0.23752 0.39603 0.0
C481 C 0.91204 0.21223 0.41483 0.0
C482 C 0.94239 0.17865 0.36959 0.0
C483 C 0.0893 0.34005 0.41002 0.0
C484 C 0.99793 0.24625 0.35359 0.0
C485 C 0.97407 0.35638 0.23177 0.0
C486 C 0.96208 0.37202 0.2581 0.0
C487 C 0.11056 0.28499 0.34117 0.0
C488 C 0.27837 0.43638 0.40311 0.0
C489 C 0.35273 0.47231 0.40487 0.0
C490 C 0.35086 0.44336 0.42759 0.0
C491 C 0.27758 0.40886 0.42677 0.0
C492 C 0.31619 0.46853 0.39262 0.0
C493 C 0.31357 0.41212 0.4386 0.0
C494 C 0.1268 0.37667 0.29363 0.0
C495 C 0.2404 0.43161 0.38847 0.0
H496 H 0.86597 0.15134 0.42552 0.0
H497 H 0.96048 0.26996 0.39885 0.0
H498 H 0.90015 0.22523 0.43225 0.0
H499 H 0.95464 0.16591 0.35219 0.0
H500 H 0.37832 0.4456 0.43765 0.0
H501 H 0.24927 0.38492 0.43629 0.0
H502 H 0.31718 0.49035 0.37475 0.0
H503 H 0.31255 0.3905 0.45663 0.0
Eu504 Eu 0.38183 0.08568 0.65797 0.0
C505 C 0.38112 0.23938 0.68742 0.0
N506 N 0.37141 0.21018 0.71073 0.0
C507 C 0.41516 0.25958 0.75028 0.0
C508 C 0.40902 0.28019 0.69466 0.0
C509 C 0.38762 0.21951 0.74191 0.0
C510 C 0.42595 0.29007 0.72654 0.0
C511 C 0.37397 0.25811 0.63122 0.0
C512 C 0.36391 0.22825 0.65598 0.0
C513 C 0.4022 0.29868 0.6382 0.0
C514 C 0.4196 0.3097 0.66983 0.0
Eu515 Eu 0.32292 0.14385 0.69557 0.0
N516 N 0.33678 0.18862 0.64981 0.0
C517 C 0.35469 0.2465 0.60035 0.0
C518 C 0.31526 0.1781 0.6208 0.0
C519 C 0.32468 0.20645 0.59535 0.0
H520 H 0.37896 0.19595 0.76035 0.0
H521 H 0.30801 0.19758 0.57219 0.0
H522 H 0.40062 0.12328 0.58134 0.0
H523 H 0.34097 0.9346 0.70199 0.0
H524 H 0.2896 0.14845 0.61738 0.0
H525 H 0.3616 0.26849 0.5807 0.0
H526 H 0.36008 1.0066 0.70709 0.0
H527 H 0.42803 0.26692 0.775 0.0
H528 H 0.41045 0.32186 0.61937 0.0
H529 H 0.44128 0.34112 0.67484 0.0
H530 H 0.39857 0.10014 0.52389 0.0
H531 H 0.44754 0.32106 0.73301 0.0
H532 H 0.33391 0.90442 0.64631 0.0
N533 N 0.37957 0.0651 0.6025 0.0
C534 C 0.36891 0.02599 0.5972 0.0
C535 C 0.38958 0.07876 0.54416 0.0
C536 C 0.36737 0.01133 0.56484 0.0
C537 C 0.39066 0.0918 0.57673 0.0
C538 C 0.37748 0.03825 0.53808 0.0
N539 N 0.36258 0.01645 0.65504 0.0
C540 C 0.35683 0.99352 0.68276 0.0
C541 C 0.34949 0.96004 0.62015 0.0
C542 C 0.36005 1.0008 0.62438 0.0
C543 C 0.34209 0.93591 0.64846 0.0
C544 C 0.34605 0.95283 0.67993 0.0
H545 H 0.37667 0.02825 0.51279 0.0
H546 H 0.3549 0.9587 0.53568 0.0
H547 H 0.33915 0.9137 0.58417 0.0
O548 O 0.43691 0.12134 0.68717 0.0
O549 O 0.32007 0.04071 0.68096 0.0
O550 O 0.28914 0.07616 0.7026 0.0
O551 O 0.43923 0.09085 0.64282 0.0
O552 O 0.37614 0.08498 0.71405 0.0
O553 O 0.34806 0.12201 0.73779 0.0
O554 O 0.27129 0.15412 0.69236 0.0
O555 O 0.39063 0.16778 0.69345 0.0
O556 O 0.39713 0.14849 0.64208 0.0
O557 O 0.29437 0.15102 0.74032 0.0
O558 O 0.29134 0.09938 0.65265 0.0
O559 O 0.3498 0.11162 0.62901 0.0
C560 C 0.29048 0.04277 0.69664 0.0
C561 C 0.48718 0.10246 0.68468 0.0
C562 C 0.55644 0.11799 0.69666 0.0
C563 C 0.54072 0.08301 0.71665 0.0
C564 C 0.47221 0.06787 0.70473 0.0
C565 C 0.49895 0.05821 0.72059 0.0
C566 C 0.52921 0.12734 0.68054 0.0
C567 C 0.36641 0.10009 0.73972 0.0
C568 C 0.45941 0.11314 0.66804 0.0
C569 C 0.35632 0.9706 0.56035 0.0
C570 C 0.34732 0.94497 0.58795 0.0
C571 C 0.40997 0.17612 0.66518 0.0
C572 C 0.26914 0.19698 0.73352 0.0
C573 C 0.23766 0.23962 0.72934 0.0
C574 C 0.26959 0.26929 0.74833 0.0
C575 C 0.29977 0.22671 0.75345 0.0
C576 C 0.23776 0.20344 0.72187 0.0
C577 C 0.30019 0.26271 0.76041 0.0
C578 C 0.31036 0.0927 0.62851 0.0
C579 C 0.27018 0.15986 0.724 0.0
H580 H 0.56073 0.0746 0.72907 0.0
H581 H 0.43995 0.04844 0.7081 0.0
H582 H 0.48727 0.03141 0.73602 0.0
H583 H 0.54065 0.15434 0.66531 0.0
H584 H 0.27019 0.29712 0.75482 0.0
H585 H 0.32339 0.22224 0.76383 0.0
H586 H 0.21361 0.18048 0.70689 0.0
H587 H 0.32416 0.28546 0.77559 0.0
Eu588 Eu 0.94392 0.31653 0.65807 0.0
C589 C 0.79778 0.15746 0.69101 0.0
N590 N 0.82799 0.17691 0.71343 0.0
C591 C 0.77982 0.16509 0.75627 0.0
C592 C 0.75696 0.14148 0.70041 0.0
C593 C 0.8198 0.1806 0.74577 0.0
C594 C 0.74824 0.14549 0.73347 0.0
C595 C 0.77666 0.13305 0.63492 0.0
C596 C 0.80774 0.15356 0.65859 0.0
C597 C 0.73605 0.11803 0.64397 0.0
C598 C 0.72622 0.1221 0.67665 0.0
Eu599 Eu 0.89446 0.2004 0.69486 0.0
N600 N 0.84738 0.16809 0.65058 0.0
C601 C 0.78714 0.12701 0.60309 0.0
C602 C 0.85696 0.15835 0.62057 0.0
C603 C 0.82737 0.13902 0.59611 0.0
H604 H 0.84428 0.19565 0.76339 0.0
H605 H 0.8355 0.13241 0.57216 0.0
H606 H 0.89713 0.30171 0.58535 0.0
H607 H 0.1007 0.4255 0.68957 0.0
H608 H 0.88696 0.16387 0.61533 0.0
H609 H 0.76421 0.11148 0.58423 0.0
H610 H 0.02792 0.37866 0.70059 0.0
H611 H 0.77339 0.16823 0.78189 0.0
H612 H 0.71194 0.10252 0.62601 0.0
H613 H 0.69473 0.11 0.68334 0.0
H614 H 0.91457 0.31834 0.52589 0.0
H615 H 0.71727 0.13353 0.74164 0.0
H616 H 0.12619 0.43785 0.63176 0.0
N617 N 0.95838 0.33186 0.60129 0.0
C618 C 0.99775 0.35543 0.59276 0.0
C619 C 0.93829 0.3288 0.54443 0.0
C620 C 1.00924 0.3655 0.5593 0.0
C621 C 0.9285 0.31935 0.57799 0.0
C622 C 0.9789 0.35151 0.53498 0.0
N623 N 1.01321 0.36387 0.64974 0.0
C624 C 0.03901 0.38401 0.67533 0.0
C625 C 0.06718 0.39845 0.61027 0.0
C626 C 0.02618 0.37179 0.61784 0.0
C627 C 0.0944 0.41718 0.6365 0.0
C628 C 0.08011 0.4104 0.66917 0.0
H629 H 0.98643 0.35869 0.50898 0.0
H630 H 0.05992 0.39774 0.52579 0.0
H631 H 0.11078 0.42664 0.57051 0.0
O632 O 0.91109 0.33776 0.68878 0.0
O633 O 0.99277 0.30245 0.6776 0.0
O634 O 0.96239 0.23496 0.69587 0.0
O635 O 0.94061 0.37015 0.64383 0.0
O636 O 0.95114 0.31271 0.71379 0.0
O637 O 0.91551 0.2472 0.73692 0.0
O638 O 0.88297 0.13814 0.69271 0.0
O639 O 0.86799 0.24181 0.69946 0.0
O640 O 0.8786 0.26898 0.64806 0.0
O641 O 0.89958 0.16976 0.73923 0.0
O642 O 0.93538 0.21667 0.64881 0.0
O643 O 0.91496 0.25879 0.62941 0.0
C644 C 0.99414 0.27094 0.69038 0.0
C645 C 0.93003 0.40682 0.68583 0.0
C646 C 0.91337 0.4595 0.69812 0.0
C647 C 0.94876 0.47928 0.71756 0.0
C648 C 0.96512 0.42692 0.70524 0.0
C649 C 0.97442 0.46308 0.72099 0.0
C650 C 0.90439 0.42324 0.68214 0.0
C651 C 0.93726 0.28731 0.73932 0.0
C652 C 0.91916 0.36843 0.66953 0.0
C653 C 0.05036 0.39021 0.55141 0.0
C654 C 0.07932 0.40663 0.57687 0.0
C655 C 0.85475 0.2527 0.67364 0.0
C656 C 0.854 0.09836 0.74096 0.0
C657 C 0.81301 0.02418 0.74425 0.0
C658 C 0.79308 0.0282 0.77209 0.0
C659 C 0.83396 0.10119 0.76917 0.0
C660 C 0.84326 0.05972 0.72861 0.0
C661 C 0.80346 0.06637 0.7843 0.0
C662 C 0.93613 0.2409 0.62521 0.0
C663 C 0.88655 0.13512 0.72453 0.0
H664 H 0.95677 0.50746 0.72994 0.0
H665 H 0.98514 0.41459 0.70824 0.0
H666 H 1.00156 0.47858 0.73597 0.0
H667 H 0.87701 0.40727 0.66742 0.0
H668 H 0.77027 1.00184 0.78517 0.0
H669 H 0.84197 0.13023 0.77979 0.0
H670 H 0.85868 0.05747 0.70686 0.0
H671 H 0.78824 0.06896 0.80602 0.0
Eu672 Eu 0.71781 0.65074 0.66478 0.0
C673 C 0.87476 0.65527 0.6918 0.0
N674 N 0.85819 0.66806 0.7152 0.0
C675 C 0.87164 0.63202 0.75754 0.0
C676 C 0.88977 0.62928 0.70047 0.0
C677 C 0.85728 0.65783 0.74781 0.0
C678 C 0.88784 0.61755 0.73374 0.0
C679 C 0.89524 0.65632 0.6347 0.0
C680 C 0.87728 0.6687 0.65924 0.0
C681 C 0.90899 0.62939 0.64304 0.0
C682 C 0.90647 0.61608 0.67585 0.0
Eu683 Eu 0.83626 0.71276 0.69775 0.0
N684 N 0.86436 0.69543 0.65195 0.0
C685 C 0.9003 0.67253 0.60273 0.0
C686 C 0.87348 0.71444 0.62169 0.0
C687 C 0.89014 0.70231 0.59641 0.0
H688 H 0.84513 0.66947 0.7662 0.0
H689 H 0.89623 0.71684 0.5723 0.0
H690 H 0.72519 0.61897 0.58949 0.0
H691 H 0.61596 0.70378 0.70622 0.0
H692 H 0.8696 0.74006 0.6168 0.0
H693 H 0.91386 0.66373 0.58322 0.0
H694 H 0.66126 0.67494 0.71261 0.0
H695 H 0.87042 0.62347 0.78335 0.0
H696 H 0.92253 0.6194 0.62441 0.0
H697 H 0.91778 0.5958 0.68199 0.0
H698 H 0.70208 0.61929 0.53206 0.0
H699 H 0.89916 0.59772 0.74135 0.0
H700 H 0.60016 0.71896 0.6501 0.0
N701 N 0.69891 0.65215 0.60912 0.0
C702 C 0.67582 0.66937 0.6031 0.0
C703 C 0.69461 0.63364 0.55177 0.0
C704 C 0.66242 0.67083 0.57068 0.0
C705 C 0.70749 0.63333 0.58432 0.0
C706 C 0.67248 0.65301 0.54481 0.0
N707 N 0.67271 0.67635 0.66087 0.0
C708 C 0.65474 0.68194 0.68808 0.0
C709 C 0.63634 0.6979 0.62492 0.0
C710 C 0.66265 0.68232 0.62985 0.0
C711 C 0.62042 0.70686 0.65281 0.0
C712 C 0.62913 0.69818 0.68453 0.0
H713 H 0.66261 0.65329 0.51957 0.0
H714 H 0.62785 0.69028 0.54063 0.0
H715 H 0.60536 0.71444 0.58814 0.0
O716 O 0.69529 0.59336 0.6919 0.0
O717 O 0.73563 0.71334 0.68719 0.0
O718 O 0.80609 0.75039 0.69523 0.0
O719 O 0.66023 0.5974 0.65169 0.0
O720 O 0.72426 0.65984 0.72061 0.0
O721 O 0.79102 0.68808 0.74109 0.0
O722 O 0.90169 0.75342 0.69728 0.0
O723 O 0.79334 0.64614 0.70501 0.0
O724 O 0.7659 0.63383 0.65401 0.0
O725 O 0.86738 0.75255 0.73991 0.0
O726 O 0.82 0.73857 0.6522 0.0
O727 O 0.77331 0.67753 0.63272 0.0
C728 C 0.76992 0.74708 0.69426 0.0
C729 C 0.66302 0.53743 0.65555 0.0
C730 C 0.62783 0.46508 0.64321 0.0
C731 C 0.6594 0.47154 0.62158 0.0
C732 C 0.69351 0.54285 0.63318 0.0
C733 C 0.692 0.51018 0.61669 0.0
C734 C 0.63004 0.49822 0.66067 0.0
C735 C 0.75107 0.67069 0.74507 0.0
C736 C 0.66509 0.57323 0.67162 0.0
C737 C 0.63806 0.68841 0.5654 0.0
C738 C 0.62523 0.70215 0.59246 0.0
C739 C 0.77897 0.6222 0.67948 0.0
C740 C 0.92925 0.81335 0.72843 0.0
C741 C 0.99774 0.87182 0.72989 0.0
C742 C 0.98096 0.89708 0.73398 0.0
C743 C 0.91315 0.83913 0.73225 0.0
C744 C 0.97153 0.82987 0.72694 0.0
C745 C 0.93899 0.88081 0.73497 0.0
C746 C 0.79386 0.71675 0.62897 0.0
C747 C 0.90291 0.7692 0.72601 0.0
H748 H 0.6589 0.44657 0.60843 0.0
H749 H 0.71844 0.57239 0.62799 0.0
H750 H 0.71601 0.51493 0.59977 0.0
H751 H 0.60584 0.49371 0.67732 0.0
H752 H 1.00032 0.92953 0.73603 0.0
H753 H 0.88072 0.82709 0.73319 0.0
H754 H 0.984 0.80997 0.7241 0.0
H755 H 0.92644 0.90059 0.73792 0.0
H756 H 0.48231 0.56667 0.95837 0.0
H757 H 0.27194 0.48155 0.9707 0.0
H758 H 0.48346 0.58648 0.06376 0.0
H759 H 0.29298 0.47298 0.07505 0.0
H760 H 0.34473 0.52471 0.96259 0.0
H761 H 0.40887 0.53786 0.95807 0.0
C762 C 0.46714 0.56612 0.98123 0.0
C763 C 0.48868 0.57832 1.01122 0.0
C764 C 0.33363 0.51312 0.9872 0.0
C765 C 0.40473 0.54568 1.01128 0.0
C766 C 0.2919 0.48874 0.99192 0.0
C767 C 0.27625 0.47325 0.02358 0.0
C768 C 0.35999 0.52209 0.01437 0.0
C769 C 0.30361 0.48352 0.0501 0.0
C770 C 0.42508 0.54965 0.98113 0.0
C771 C 0.46773 0.57674 0.04021 0.0
N772 N 0.34401 0.50724 0.04488 0.0
N773 N 0.42689 0.56012 0.03961 0.0
H774 H 0.45617 0.91022 0.05641 0.0
H775 H 0.50094 0.77646 0.92937 0.0
H776 H 0.45242 0.92146 0.95006 0.0
H777 H 0.51593 0.77451 0.03549 0.0
H778 H 0.48121 0.82791 0.93627 0.0
H779 H 0.4741 0.85756 0.04911 0.0
C780 C 0.45872 0.90119 0.03146 0.0
C781 C 0.45319 0.92037 1.00377 0.0
C782 C 0.48892 0.81637 0.95806 0.0
C783 C 0.47394 0.86021 0.99517 0.0
C784 C 0.50016 0.78695 0.95417 0.0
C785 C 0.50981 0.7709 0.98195 0.0
C786 C 0.48707 0.82986 0.99002 0.0
C787 C 0.50892 0.78614 0.0134 0.0
C788 C 0.46912 0.87124 0.02731 0.0
C789 C 0.45639 0.90732 0.97203 0.0
N790 N 0.49747 0.81456 0.0166 0.0
N791 N 0.4669 0.87821 0.96857 0.0
H792 H 0.24737 0.74942 0.92142 0.0
H793 H 0.14117 0.56243 0.04755 0.0
H794 H 0.27107 0.76014 0.02684 0.0
H795 H 0.11634 0.55333 0.94244 0.0
H796 H 0.19184 0.63385 0.04019 0.0
H797 H 0.20075 0.67722 0.92861 0.0
C798 C 0.2428 0.73653 0.94613 0.0
C799 C 0.26346 0.76085 0.97356 0.0
C800 C 0.17562 0.61622 0.01866 0.0
C801 C 0.20992 0.67788 0.98197 0.0
C802 C 0.14679 0.57547 0.02285 0.0
C803 C 0.12429 0.55225 0.99561 0.0
C804 C 0.18189 0.63388 0.98698 0.0
C805 C 0.13304 0.57027 0.96408 0.0
C806 C 0.21611 0.69526 0.95021 0.0
C807 C 0.25568 0.74259 1.00505 0.0
N808 N 0.16083 0.61018 0.96068 0.0
N809 N 0.22966 0.70215 1.00838 0.0
H810 H 0.51289 0.15317 0.02863 0.0
H811 H 0.41638 0.28779 0.08516 0.0
H812 H 0.38596 0.1001 0.05194 0.0
H813 H 0.54311 0.33399 0.06481 0.0
H814 H 0.40306 0.21948 0.07211 0.0
H815 H 0.52262 0.21926 0.04109 0.0
C816 C 0.48676 0.15524 0.03631 0.0
C817 C 0.44824 0.12056 0.03883 0.0
C818 C 0.43372 0.24462 0.07041 0.0
C819 C 0.45962 0.1976 0.05349 0.0
C820 C 0.44146 0.2837 0.07794 0.0
C821 C 0.48108 0.31702 0.07622 0.0
C822 C 0.46579 0.23862 0.06103 0.0
C823 C 0.51205 0.30965 0.06614 0.0
C824 C 0.4925 0.19336 0.04351 0.0
C825 C 0.41604 0.1258 0.04943 0.0
N826 N 0.50375 0.27143 0.05909 0.0
N827 N 0.4224 0.16364 0.05628 0.0
H828 H 0.71036 0.22413 0.05698 0.0
H829 H 0.93925 0.29774 1.00701 0.0
H830 H 0.75366 0.13898 0.05514 0.0
H831 H 0.89944 0.37143 0.0577 0.0
H832 H 0.8711 0.23864 0.01521 0.0
H833 H 0.77891 0.27867 0.04518 0.0
C834 C 0.73417 0.21681 0.05357 0.0
C835 C 0.72626 0.17696 0.05719 0.0
C836 C 0.87771 0.26789 0.02457 0.0
C837 C 0.80511 0.23945 0.04397 0.0
C838 C 0.91662 0.30153 0.02012 0.0
C839 C 0.92536 0.33988 0.03149 0.0
C840 C 0.84742 0.27298 0.03991 0.0
C841 C 0.89444 0.34286 0.04802 0.0
C842 C 0.7734 0.248 0.04716 0.0
C843 C 0.75858 0.1694 0.05288 0.0
N844 N 0.85705 0.31016 0.05137 0.0
N845 N 0.79668 0.20037 0.04649 0.0
H846 H 0.83109 0.51581 0.06569 0.0
H847 H 0.74584 0.65894 1.00532 0.0
H848 H 0.91352 0.64152 0.04387 0.0
H849 H 0.68212 0.55562 0.07009 0.0
H850 H 0.80708 0.65263 1.01163 0.0
H851 H 0.7743 0.52754 0.05698 0.0
C852 C 0.83725 0.54576 0.05855 0.0
C853 C 0.87715 0.5777 0.05563 0.0
C854 C 0.7796 0.63168 0.02457 0.0
C855 C 0.81207 0.59158 0.04598 0.0
C856 C 0.74483 0.63548 0.02122 0.0
C857 C 0.70856 0.60756 0.0369 0.0
C858 C 0.77766 0.59949 0.04332 0.0
C859 C 0.70899 0.57748 0.05697 0.0
C860 C 0.80482 0.55258 0.05393 0.0
C861 C 0.88319 0.6161 0.0467 0.0
N862 N 0.74262 0.57402 0.05923 0.0
N863 N 0.85101 0.62203 0.04217 0.0
H864 H 0.95215 0.80422 0.25488 0.0
H865 H 0.13656 0.93194 0.37977 0.0
H866 H 0.93652 0.82458 0.3578 0.0
H867 H 0.15151 0.90748 0.27799 0.0
H868 H 0.06337 0.90065 0.3703 0.0
H869 H 0.02525 0.84756 0.26145 0.0
C870 C 0.96402 0.81771 0.27888 0.0
C871 C 0.93792 0.81054 0.30582 0.0
C872 C 0.08271 0.90278 0.34985 0.0
C873 C 0.02187 0.861 0.31338 0.0
C874 C 0.12448 0.92096 0.35519 0.0
C875 C 0.14979 0.92175 0.32969 0.0
C876 C 0.06639 0.88563 0.31871 0.0
C877 C 0.13276 0.90691 0.29838 0.0
C878 C 1.00581 0.84282 0.28254 0.0
C879 C 0.95524 0.82954 0.33618 0.0
N880 N 0.09209 0.8891 0.29384 0.0
N881 N 0.99603 0.85369 0.33916 0.0
H882 H 0.11946 0.23628 0.38604 0.0
H883 H 0.17248 0.1183 0.24897 0.0
H884 H 0.11961 0.2578 0.28082 0.0
H885 H 0.19439 0.11428 0.35374 0.0
H886 H 0.14866 0.16592 0.26017 0.0
H887 H 0.14053 0.18638 0.37475 0.0
C888 C 0.12365 0.23019 0.36054 0.0
C889 C 0.11834 0.25146 0.33435 0.0
C890 C 0.15878 0.15475 0.28072 0.0
C891 C 0.14251 0.19465 0.32119 0.0
C892 C 0.17234 0.12754 0.27436 0.0
C893 C 0.1853 0.11219 0.30049 0.0
C894 C 0.15773 0.16649 0.31353 0.0
C895 C 0.18493 0.12557 0.33284 0.0
C896 C 0.13575 0.20183 0.3541 0.0
C897 C 0.12347 0.24208 0.30173 0.0
N898 N 0.17109 0.15175 0.33848 0.0
N899 N 0.13563 0.21461 0.29608 0.0
H900 H 0.8765 0.09325 0.4357 0.0
H901 H 0.77593 0.91064 0.30659 0.0
H902 H 0.89099 0.11077 0.32961 0.0
H903 H 0.78771 0.8939 0.41115 0.0
H904 H 0.81759 0.98401 0.31411 0.0
H905 H 0.84171 0.02004 0.42714 0.0
C906 C 0.87232 0.08171 0.4106 0.0
C907 C 0.88676 0.10828 0.38335 0.0
C908 C 0.81151 0.9643 0.33535 0.0
C909 C 0.84723 0.02438 0.37336 0.0
C910 C 0.78777 0.9225 0.33104 0.0
C911 C 0.77819 0.8964 0.35833 0.0
C912 C 0.82527 0.98004 0.36729 0.0
C913 C 0.79442 0.91309 0.38947 0.0
C914 C 0.85276 0.03991 0.40574 0.0
C915 C 0.88081 0.09151 0.35139 0.0
N916 N 0.81667 0.95389 0.3932 0.0
N917 N 0.86134 0.05069 0.34727 0.0
H918 H 0.26237 0.66849 0.36702 0.0
H919 H 0.07168 0.45046 0.39138 0.0
H920 H 0.14892 0.65809 0.39665 0.0
H921 H 0.16684 0.4789 0.32056 0.0
H922 H 0.0972 0.5239 0.39805 0.0
H923 H 0.22749 0.59604 0.35607 0.0
C924 C 0.23006 0.65081 0.37137 0.0
C925 C 0.20852 0.66925 0.38279 0.0
C926 C 0.11181 0.51377 0.3806 0.0
C927 C 0.16812 0.58598 0.37028 0.0
C928 C 0.09711 0.47203 0.37665 0.0
C929 C 0.11746 0.45883 0.35561 0.0
C930 C 0.14713 0.54181 0.36364 0.0
C931 C 0.15056 0.48787 0.33733 0.0
C932 C 0.21005 0.60949 0.36488 0.0
C933 C 0.16652 0.64491 0.3877 0.0
N934 N 0.16461 0.52778 0.34209 0.0
N935 N 0.14762 0.60432 0.3817 0.0
H936 H 0.42078 0.47124 0.38379 0.0
H937 H 0.5655 0.70599 0.41307 0.0
H938 H 0.37655 0.55286 0.40587 0.0
H939 H 0.60192 0.64041 0.34779 0.0
H940 H 0.49829 0.6471 0.41648 0.0
H941 H 0.4888 0.52968 0.375 0.0
C942 C 0.42533 0.50147 0.38649 0.0
C943 C 0.39292 0.50721 0.39559 0.0
C944 C 0.52089 0.64549 0.40136 0.0
C945 C 0.47072 0.574 0.38625 0.0
C946 C 0.55952 0.67919 0.39937 0.0
C947 C 0.58964 0.67863 0.37965 0.0
C948 C 0.51203 0.61013 0.38418 0.0
C949 C 0.57982 0.6424 0.3632 0.0
C950 C 0.46409 0.53473 0.38142 0.0
C951 C 0.4005 0.54701 0.39866 0.0
N952 N 0.54186 0.60951 0.36592 0.0
N953 N 0.43863 0.57879 0.39444 0.0
H954 H 0.3321 0.90294 0.43107 0.0
H955 H 0.4918 0.86036 0.33577 0.0
H956 H 0.37621 0.94905 0.33293 0.0
H957 H 0.43292 0.8031 0.42769 0.0
H958 H 0.4573 0.90023 0.33701 0.0
H959 H 0.37712 0.87459 0.43331 0.0
C960 C 0.35184 0.90766 0.41016 0.0
C961 C 0.35012 0.92801 0.38166 0.0
C962 C 0.45214 0.87909 0.35698 0.0
C963 C 0.40162 0.89509 0.38381 0.0
C964 C 0.47199 0.85644 0.35639 0.0
C965 C 0.46512 0.82802 0.38156 0.0
C966 C 0.42543 0.87362 0.38308 0.0
C967 C 0.43874 0.82408 0.40746 0.0
C968 C 0.37743 0.89127 0.41138 0.0
C969 C 0.37658 0.93351 0.35539 0.0
N970 N 0.41992 0.84645 0.40749 0.0
N971 N 0.4009 0.91669 0.35691 0.0
H972 H 0.81747 0.26327 0.72637 0.0
H973 H 0.61375 0.14172 0.74546 0.0
H974 H 0.79765 0.2271 0.62367 0.0
H975 H 0.60101 0.15504 0.64036 0.0
H976 H 0.68662 0.18213 0.73987 0.0
H977 H 0.74549 0.23899 0.73262 0.0
C978 C 0.7978 0.25048 0.705 0.0
C979 C 0.81328 0.24647 0.67465 0.0
C980 C 0.66819 0.17735 0.71803 0.0
C981 C 0.73009 0.21604 0.68206 0.0
C982 C 0.62633 0.15349 0.72117 0.0
C983 C 0.60108 0.1448 0.69336 0.0
C984 C 0.68539 0.19306 0.68677 0.0
C985 C 0.61929 0.16129 0.66255 0.0
C986 C 0.75649 0.23595 0.70869 0.0
C987 C 0.78672 0.23048 0.64755 0.0
N988 N 0.66036 0.18426 0.66001 0.0
N989 N 0.74615 0.21507 0.65205 0.0
H990 H 0.88819 0.49045 0.74761 0.0
H991 H 0.76618 0.57208 0.7311 0.0
H992 H 0.87531 0.46694 0.6423 0.0
H993 H 0.80072 0.58934 0.62799 0.0
H994 H 0.78871 0.52282 0.73615 0.0
H995 H 0.84548 0.52063 0.74293 0.0
C996 C 0.87602 0.49136 0.72346 0.0
C997 C 0.88551 0.47623 0.69533 0.0
C998 C 0.79175 0.53737 0.71238 0.0
C999 C 0.83476 0.50974 0.6897 0.0
C1000 C 0.77816 0.565 0.70937 0.0
C1001 C 0.78257 0.58542 0.67933 0.0
C1002 C 0.81121 0.53102 0.6854 0.0
C1003 C 0.79733 0.57451 0.65171 0.0
C1004 C 0.85083 0.50801 0.72082 0.0
C1005 C 0.86851 0.47797 0.6647 0.0
N1006 N 0.81203 0.54861 0.65558 0.0
N1007 N 0.84437 0.49489 0.66262 0.0
H1008 H 0.59194 0.42365 0.70055 0.0
H1009 H 0.43628 0.21895 0.60711 0.0
H1010 H 0.58508 0.41187 0.59387 0.0
H1011 H 0.46339 0.22526 0.71171 0.0
H1012 H 0.48847 0.29035 0.60143 0.0
H1013 H 0.53985 0.35211 0.70534 0.0
C1014 C 0.5791 0.40611 0.67818 0.0
C1015 C 0.59302 0.42351 0.64681 0.0
C1016 C 0.48327 0.27598 0.62556 0.0
C1017 C 0.53415 0.34179 0.652 0.0
C1018 C 0.45381 0.23521 0.6287 0.0
C1019 C 0.44537 0.21656 0.65996 0.0
C1020 C 0.50436 0.29796 0.65391 0.0
C1021 C 0.46864 0.23887 0.68725 0.0
C1022 C 0.54976 0.36524 0.68089 0.0
C1023 C 0.57557 0.3994 0.61857 0.0
N1024 N 0.49684 0.27851 0.68367 0.0
N1025 N 0.54716 0.35978 0.62182 0.0
H1026 H 0.70903 0.76288 0.71497 0.0
H1027 H 0.86593 1.00148 0.72006 0.0
H1028 H 0.83336 0.82161 0.68216 0.0
H1029 H 0.73938 0.95254 0.74324 0.0
H1030 H 0.85206 0.93433 0.70494 0.0
H1031 H 0.71661 0.83036 0.72441 0.0
C1032 C 0.73761 0.78967 0.70947 0.0
C1033 C 0.77067 0.78629 0.69821 0.0
C1034 C 0.82711 0.93809 0.71314 0.0
C1035 C 0.77966 0.86319 0.70904 0.0
C1036 C 0.83503 0.97678 0.72154 0.0
C1037 C 0.80388 0.98312 0.73295 0.0
C1038 C 0.7877 0.90489 0.71629 0.0
C1039 C 0.76458 0.94921 0.73505 0.0
C1040 C 0.74201 0.82815 0.71498 0.0
C1041 C 0.80712 0.82225 0.69162 0.0
N1042 N 0.75763 0.91156 0.72698 0.0
N1043 N 0.81055 0.85876 0.69724 0.0
H1044 H 0.05378 0.92715 0.7723 0.0
H1045 H 0.24433 0.97254 0.66113 0.0
H1046 H 0.04354 0.85657 0.68567 0.0
H1047 H 0.25114 0.02948 0.75499 0.0
H1048 H 0.1729 0.92338 0.67235 0.0
H1049 H 0.12729 0.95973 0.7687 0.0
C1050 C 0.06709 0.91845 0.75253 0.0
C1051 C 0.04249 0.88945 0.72905 0.0
C1052 C 0.19033 0.94606 0.69083 0.0
C1053 C 0.1271 0.92681 0.72459 0.0
C1054 C 0.23125 0.97388 0.68455 0.0
C1055 C 0.2535 1.00543 0.70698 0.0
C1056 C 0.17184 0.95004 0.71971 0.0
C1057 C 0.23491 1.00584 0.73688 0.0
C1058 C 0.10914 0.93688 0.75056 0.0
C1059 C 0.06143 0.87884 0.70427 0.0
N1060 N 0.19515 0.9791 0.74212 0.0
N1061 N 0.10262 0.89791 0.70239 0.0
H1062 H 0.24062 0.3074 0.70182 0.0
H1063 H 1.00727 0.22613 0.73568 0.0
H1064 H 0.15659 0.18654 0.7353 0.0
H1065 H 0.07071 0.32043 0.663 0.0
H1066 H 0.06698 0.2197 0.74271 0.0
H1067 H 0.18345 0.31923 0.69224 0.0
C1068 C 0.21014 0.28325 0.70689 0.0
C1069 C 0.20338 0.24586 0.71943 0.0
C1070 C 0.06807 0.2419 0.72524 0.0
C1071 C 0.13819 0.25956 0.70912 0.0
C1072 C 0.03395 0.24583 0.72126 0.0
C1073 C 0.03355 0.27345 0.69823 0.0
C1074 C 0.10277 0.26599 0.70638 0.0
C1075 C 0.06958 0.29867 0.68096 0.0
C1076 C 0.17763 0.29007 0.70136 0.0
C1077 C 0.16329 0.21565 0.72538 0.0
N1078 N 0.10281 0.29419 0.68524 0.0
N1079 N 0.13239 0.22333 0.72055 0.0
H1080 H 0.10001 0.43095 0.28356 0.0
H1081 H 0.06802 0.38198 0.08875 0.0
H1082 H 0.13636 0.35585 0.23161 0.0
H1083 H 0.03742 0.4657 0.13398 0.0
H1084 H 0.09203 0.37257 0.1418 0.0
H1085 H 0.0781 0.44616 0.23038 0.0
C1086 C 0.1046 0.41876 0.26084 0.0
C1087 C 0.12074 0.39272 0.26184 0.0
C1088 C 0.08007 0.39302 0.14038 0.0
C1089 C 0.09478 0.409 0.20109 0.0
C1090 C 0.06599 0.39835 0.10983 0.0
C1091 C 0.05047 0.42483 0.1064 0.0
C1092 C 0.07896 0.41423 0.16838 0.0
C1093 C 0.04893 0.44489 0.13521 0.0
C1094 C 0.09163 0.42703 0.23053 0.0
C1095 C 0.12458 0.37649 0.23184 0.0
N1096 N 0.06307 0.43926 0.16494 0.0
N1097 N 0.11166 0.38479 0.20287 0.0
H1098 H 0.59444 0.70211 0.27854 0.0
H1099 H 0.67852 0.69076 0.09894 0.0
H1100 H 0.71897 0.77521 0.2484 0.0
H1101 H 0.56568 0.59383 0.13633 0.0
H1102 H 0.69079 0.72485 0.15232 0.0
H1103 H 0.57981 0.66548 0.22531 0.0
C1104 C 0.61851 0.71089 0.26056 0.0
C1105 C 0.65794 0.74201 0.26789 0.0
C1106 C 0.6634 0.69602 0.14906 0.0
C1107 C 0.64153 0.7001 0.20719 0.0
C1108 C 0.65634 0.67648 0.11847 0.0
C1109 C 0.62102 0.63926 0.11301 0.0
C1110 C 0.63469 0.67876 0.17464 0.0
C1111 C 0.59351 0.62226 0.1395 0.0
C1112 C 0.61025 0.68969 0.23038 0.0
C1113 C 0.68811 0.75155 0.2439 0.0
N1114 N 0.60073 0.64229 0.16906 0.0
N1115 N 0.67927 0.73087 0.21478 0.0
H1116 H 0.39392 0.92942 0.11159 0.0
H1117 H 0.30942 1.00185 0.25694 0.0
H1118 H 0.43818 0.05565 0.13092 0.0
H1119 H 0.31642 0.89295 0.26926 0.0
H1120 H 0.35147 0.01877 0.20804 0.0
H1121 H 0.36237 0.91262 0.16677 0.0
C1122 C 0.39767 0.95367 0.1278 0.0
C1123 C 0.41882 0.99404 0.11679 0.0
C1124 C 0.34411 0.99129 0.22148 0.0
C1125 C 0.38175 0.97486 0.17941 0.0
C1126 C 0.31973 0.98129 0.24955 0.0
C1127 C 0.30932 0.94588 0.26783 0.0
C1128 C 0.35766 0.96531 0.21057 0.0
C1129 C 0.32361 0.92056 0.25615 0.0
C1130 C 0.37964 0.94402 0.15921 0.0
C1131 C 0.42255 0.02425 0.13858 0.0
N1132 N 0.34676 0.93057 0.22804 0.0
N1133 N 0.40354 0.01398 0.16861 0.0
H1134 H 0.44825 0.10791 0.94519 0.0
H1135 H 0.3918 0.04628 0.75427 0.0
H1136 H 0.45236 1.00958 0.89676 0.0
H1137 H 0.37182 0.1366 0.80086 0.0
H1138 H 0.41871 0.03704 0.8058 0.0
H1139 H 0.42712 0.12465 0.89222 0.0
C1140 C 0.44589 0.09068 0.92313 0.0
C1141 C 0.45225 0.05749 0.92512 0.0
C1142 C 0.40838 0.05884 0.80503 0.0
C1143 C 0.4275 0.07585 0.8649 0.0
C1144 C 0.39269 0.06412 0.77538 0.0
C1145 C 0.37916 0.09228 0.77283 0.0
C1146 C 0.41097 0.08184 0.83297 0.0
C1147 C 0.38153 0.11433 0.80153 0.0
C1148 C 0.43334 0.09989 0.89307 0.0
C1149 C 0.4479 0.03549 0.89616 0.0
N1150 N 0.39724 0.10873 0.8304 0.0
N1151 N 0.43567 0.04494 0.86739 0.0
H1152 H 0.94156 0.35066 0.94999 0.0
H1153 H 0.98642 0.36719 0.75455 0.0
H1154 H 1.00742 0.46213 0.89545 0.0
H1155 H 0.90532 0.2527 0.80102 0.0
H1156 H 0.99414 0.40079 0.80712 0.0
H1157 H 0.92561 0.31306 0.89717 0.0
C1158 C 0.95147 0.36723 0.92681 0.0
C1159 C 0.97544 0.40958 0.92695 0.0
C1160 C 0.97455 0.36831 0.80604 0.0
C1161 C 0.9582 0.36695 0.86668 0.0
C1162 C 0.97022 0.34884 0.77581 0.0
C1163 C 0.94494 0.30673 0.77288 0.0
C1164 C 0.95366 0.34592 0.83422 0.0
C1165 C 0.92521 0.28512 0.80188 0.0
C1166 C 0.94273 0.34577 0.89672 0.0
C1167 C 0.98852 0.42955 0.89638 0.0
N1168 N 0.92995 0.30493 0.8313 0.0
N1169 N 0.97994 0.40815 0.86766 0.0
H1170 H 0.78995 0.67652 0.80531 0.0
H1171 H 0.57915 0.5563 0.90388 0.0
H1172 H 0.67131 0.63486 0.76304 0.0
H1173 H 0.69385 0.60996 0.9547 0.0
H1174 H 0.6146 0.57743 0.85084 0.0
H1175 H 0.75775 0.64874 0.85943 0.0
C1176 C 0.75732 0.6619 0.80729 0.0
C1177 C 0.73354 0.65816 0.7792 0.0
C1178 C 0.63228 0.5842 0.87344 0.0
C1179 C 0.69648 0.62535 0.84094 0.0
C1180 C 0.61194 0.57173 0.90372 0.0
C1181 C 0.63361 0.58116 0.93359 0.0
C1182 C 0.67483 0.60717 0.87286 0.0
C1183 C 0.6761 0.60177 0.93209 0.0
C1184 C 0.73895 0.64577 0.83818 0.0
C1185 C 0.69129 0.63862 0.78358 0.0
N1186 N 0.69542 0.6146 0.90221 0.0
N1187 N 0.67436 0.62296 0.81355 0.0
H1188 H 0.75415 0.84801 0.46659 0.0
H1189 H 0.78252 0.78285 0.62874 0.0
H1190 H 0.66287 0.72219 0.46235 0.0
H1191 H 0.78446 0.69432 0.56407 0.0
H1192 H 0.75578 0.80551 0.58263 0.0
H1193 H 0.77833 0.83537 0.51973 0.0
C1194 C 0.73824 0.81807 0.47755 0.0
C1195 C 0.70584 0.78625 0.46054 0.0
C1196 C 0.76216 0.78116 0.57868 0.0
C1197 C 0.73468 0.77127 0.52006 0.0
C1198 C 0.77761 0.76837 0.60488 0.0
C1199 C 0.78455 0.73578 0.60051 0.0
C1200 C 0.75338 0.76093 0.54809 0.0
C1201 C 0.77823 0.71861 0.5688 0.0
C1202 C 0.75225 0.81086 0.50763 0.0
C1203 C 0.68715 0.74771 0.47516 0.0
N1204 N 0.76226 0.73079 0.54403 0.0
N1205 N 0.70251 0.74109 0.50363 0.0
H1206 H 0.27839 0.93232 0.46961 0.0
H1207 H 0.27758 0.10552 0.57208 0.0
H1208 H 0.19579 0.97475 0.44455 0.0
H1209 H 0.29411 0.01493 0.62214 0.0
H1210 H 0.25068 0.06081 0.52375 0.0
H1211 H 0.28785 0.96342 0.52476 0.0
C1212 C 0.26163 0.94743 0.47594 0.0
C1213 C 0.23689 0.95167 0.45225 0.0
C1214 C 0.25989 0.05055 0.54546 0.0
C1215 C 0.24864 0.98833 0.51473 0.0
C1216 C 0.27497 0.07597 0.57318 0.0
C1217 C 0.28822 0.06391 0.60124 0.0
C1218 C 0.25927 0.01336 0.5454 0.0
C1219 C 0.28461 0.02548 0.60095 0.0
C1220 C 0.26731 0.96544 0.5073 0.0
C1221 C 0.21585 0.97155 0.46186 0.0
N1222 N 0.27129 1.00187 0.5733 0.0
N1223 N 0.22289 0.98994 0.492 0.0
H1224 H 0.90719 0.22995 0.56235 0.0
H1225 H 0.12073 0.3254 0.46784 0.0
H1226 H 0.01791 0.26914 0.61691 0.0
H1227 H 1.01374 0.32323 0.42954 0.0
H1228 H 0.08477 0.29731 0.52074 0.0
H1229 H 0.94604 0.25244 0.51076 0.0
C1230 C 0.93974 0.24272 0.56334 0.0
C1231 C 0.95934 0.24781 0.59392 0.0
C1232 C 0.06934 0.30302 0.50061 0.0
C1233 C 1.0045 0.27479 0.53485 0.0
C1234 C 0.08989 0.31925 0.47041 0.0
C1235 C 0.07032 0.32654 0.44371 0.0
C1236 C 0.02869 0.29329 0.50393 0.0
C1237 C 0.03021 0.31778 0.44885 0.0
C1238 C 0.96201 0.25585 0.53391 0.0
C1239 C 1.00164 0.26458 0.59379 0.0
N1240 N 1.01085 0.30142 0.47796 0.0
N1241 N 0.02294 0.27792 0.56475 0.0
loop_
_geom_bond_atom_site_label_1
_geom_bond_atom_site_label_2
_geom_bond_distance
_geom_bond_site_symmetry_2
_ccdc_geom_bond_type
Eu0 N29 2.600 . S
Eu0 N35 2.562 1_556 S
Eu0 O44 2.462 1_556 S
Eu0 O45 2.373 1_455 S
Eu0 O47 2.432 . S
Eu0 O48 2.291 1_556 S
Eu0 O52 2.335 . S
Eu0 O55 2.372 . S
Eu0 C64 2.787 . S
C1 N2 1.365 1_455 S
C1 C4 1.405 . S
C1 C8 1.448 . S
N2 C1 1.365 1_655 S
N2 C5 1.316 1_655 S
N2 Eu11 2.600 . S
C3 C5 1.398 . S
C3 C6 1.367 . S
C3 H23 0.931 . S
C4 C1 1.405 . S
C4 C6 1.403 . S
C4 C10 1.439 . S
C5 N2 1.316 1_455 S
C5 C3 1.398 . S
C5 H16 0.933 1_455 S
C6 C3 1.367 . S
C6 C4 1.403 . S
C6 H27 0.929 . S
C7 C8 1.432 . S
C7 C9 1.390 . S
C7 C13 1.399 1_554 S
C8 C1 1.448 . S
C8 C7 1.432 . S
C8 N12 1.351 1_454 S
C9 C7 1.390 . S
C9 C10 1.374 . S
C9 H24 0.931 . S
C10 C4 1.439 . S
C10 C9 1.374 . S
C10 H25 0.931 . S
Eu11 N2 2.600 . S
Eu11 N12 2.562 1_554 S
Eu11 O46 2.335 . S
Eu11 O49 2.372 . S
Eu11 O50 2.462 1_554 S
Eu11 O51 2.373 1_655 S
Eu11 O53 2.432 . S
Eu11 O54 2.291 1_554 S
Eu11 C75 2.787 . S
N12 C8 1.351 1_656 S
N12 Eu11 2.562 1_556 S
N12 C14 1.325 . S
C13 C7 1.399 1_556 S
C13 C15 1.366 . S
C13 H21 0.930 . S
C14 N12 1.325 . S
C14 C15 1.416 1_655 S
C14 H20 0.929 . S
C15 C13 1.366 . S
C15 C14 1.416 1_455 S
C15 H17 0.930 . S
H16 C5 0.933 1_655 S
H17 C15 0.930 . S
H18 C33 0.930 . S
H19 C40 0.930 . S
H20 C14 0.929 . S
H21 C13 0.930 . S
H22 C36 0.929 . S
H23 C3 0.931 . S
H24 C9 0.931 . S
H25 C10 0.931 . S
H26 C31 0.931 . S
H27 C6 0.929 . S
H28 C39 0.930 . S
N29 Eu0 2.600 . S
N29 C30 1.365 . S
N29 C33 1.319 . S
C30 N29 1.365 . S
C30 C32 1.405 1_455 S
C30 C38 1.448 . S
C31 H26 0.931 . S
C31 C33 1.397 1_655 S
C31 C34 1.367 . S
C32 C30 1.405 1_655 S
C32 C34 1.403 . S
C32 C65 1.439 . S
C33 H18 0.930 . S
C33 N29 1.319 . S
C33 C31 1.397 1_455 S
C34 C31 1.367 . S
C34 C32 1.403 . S
C34 H41 0.929 . S
N35 Eu0 2.562 1_554 S
N35 C36 1.325 . S
N35 C38 1.351 1_554 S
C36 H22 0.929 . S
C36 N35 1.325 . S
C36 C40 1.416 . S
C37 C38 1.430 1_654 S
C37 C39 1.404 . S
C37 C66 1.387 1_554 S
C38 C30 1.448 . S
C38 N35 1.351 1_556 S
C38 C37 1.430 1_456 S
C39 H28 0.930 . S
C39 C37 1.404 . S
C39 C40 1.366 1_655 S
C40 H19 0.930 . S
C40 C36 1.416 . S
C40 C39 1.366 1_455 S
H41 C34 0.929 . S
H42 C65 0.931 . S
H43 C66 0.931 . S
O44 Eu0 2.462 1_554 S
O44 C64 1.252 1_554 S
O45 Eu0 2.373 1_655 S
O45 C56 1.249 1_556 S
O46 Eu11 2.335 . S
O46 C56 1.264 . S
O47 Eu0 2.432 . S
O47 C64 1.268 . S
O48 Eu0 2.291 1_554 S
O48 C63 1.255 . S
O49 Eu11 2.372 . S
O49 C63 1.257 1_655 S
O50 Eu11 2.462 1_556 S
O50 C75 1.252 1_556 S
O51 Eu11 2.373 1_455 S
O51 C67 1.249 1_554 S
O52 Eu0 2.335 . S
O52 C67 1.264 . S
O53 Eu11 2.432 . S
O53 C75 1.268 . S
O54 Eu11 2.291 1_556 S
O54 C74 1.255 . S
O55 Eu0 2.372 . S
O55 C74 1.257 1_455 S
C56 O45 1.249 1_554 S
C56 O46 1.264 . S
C57 C60 1.382 . S
C57 C62 1.390 1_556 S
C57 C64 1.506 . S
C58 C59 1.398 1_554 S
C58 C62 1.392 . S
C59 C58 1.398 1_556 S
C59 C61 1.372 . S
C59 H76 0.931 . S
C60 C57 1.382 . S
C60 C61 1.390 . S
C60 H77 0.931 . S
C61 C59 1.372 . S
C61 C60 1.390 . S
C61 H78 0.929 . S
C62 C57 1.390 1_554 S
C62 C58 1.392 . S
C62 H79 0.930 . S
C63 O48 1.255 . S
C63 O49 1.257 1_455 S
C64 Eu0 2.787 . S
C64 O44 1.252 1_556 S
C64 O47 1.268 . S
C64 C57 1.506 . S
C65 C32 1.439 . S
C65 H42 0.931 . S
C65 C66 1.374 . S
C66 C37 1.387 1_556 S
C66 H43 0.931 . S
C66 C65 1.374 . S
C67 O51 1.249 1_556 S
C67 O52 1.264 . S
C68 C71 1.382 . S
C68 C72 1.390 1_554 S
C68 C75 1.506 . S
C69 C70 1.398 1_556 S
C69 C72 1.392 . S
C70 C69 1.398 1_554 S
C70 C73 1.372 . S
C70 H80 0.931 . S
C71 C68 1.382 . S
C71 C73 1.390 . S
C71 H81 0.931 . S
C72 C68 1.390 1_556 S
C72 C69 1.392 . S
C72 H82 0.930 . S
C73 C70 1.372 . S
C73 C71 1.390 . S
C73 H83 0.929 . S
C74 O54 1.255 . S
C74 O55 1.257 1_655 S
C75 Eu11 2.787 . S
C75 O50 1.252 1_554 S
C75 O53 1.268 . S
C75 C68 1.506 . S
H76 C59 0.931 . S
H77 C60 0.931 . S
H78 C61 0.929 . S
H79 C62 0.930 . S
H80 C70 0.931 . S
H81 C71 0.931 . S
H82 C72 0.930 . S
H83 C73 0.929 . S
Eu84 N113 2.600 . S
Eu84 N119 2.562 1_556 S
Eu84 O128 2.462 1_556 S
Eu84 O129 2.373 . S
Eu84 O131 2.432 . S
Eu84 O132 2.291 1_556 S
Eu84 O136 2.335 . S
Eu84 O139 2.372 . S
Eu84 C148 2.787 . S
C85 N86 1.365 . S
C85 C88 1.405 . S
C85 C92 1.448 . S
N86 C85 1.365 . S
N86 C89 1.319 . S
N86 Eu95 2.600 . S
C87 C89 1.397 . S
C87 C90 1.367 . S
C87 H107 0.931 . S
C88 C85 1.405 . S
C88 C90 1.403 . S
C88 C94 1.439 . S
C89 N86 1.319 . S
C89 C87 1.397 . S
C89 H100 0.930 . S
C90 C87 1.367 . S
C90 C88 1.403 . S
C90 H111 0.929 . S
C91 C92 1.432 . S
C91 C93 1.390 . S
C91 C97 1.399 1_554 S
C92 C85 1.448 . S
C92 C91 1.432 . S
C92 N96 1.351 1_554 S
C93 C91 1.390 . S
C93 C94 1.374 . S
C93 H108 0.931 . S
C94 C88 1.439 . S
C94 C93 1.374 . S
C94 H109 0.931 . S
Eu95 N86 2.600 . S
Eu95 N96 2.562 1_554 S
Eu95 O130 2.335 . S
Eu95 O133 2.372 . S
Eu95 O134 2.462 1_554 S
Eu95 O135 2.373 . S
Eu95 O137 2.432 . S
Eu95 O138 2.291 1_554 S
Eu95 C159 2.787 . S
N96 C92 1.351 1_556 S
N96 Eu95 2.562 1_556 S
N96 C98 1.325 . S
C97 C91 1.399 1_556 S
C97 C99 1.366 . S
C97 H105 0.930 . S
C98 N96 1.325 . S
C98 C99 1.416 . S
C98 H104 0.929 . S
C99 C97 1.366 . S
C99 C98 1.416 . S
C99 H101 0.930 . S
H100 C89 0.930 . S
H101 C99 0.930 . S
H102 C117 0.930 . S
H103 C124 0.930 . S
H104 C98 0.929 . S
H105 C97 0.930 . S
H106 C120 0.929 . S
H107 C87 0.931 . S
H108 C93 0.931 . S
H109 C94 0.931 . S
H110 C115 0.931 . S
H111 C90 0.929 . S
H112 C123 0.930 . S
N113 Eu84 2.600 . S
N113 C114 1.365 . S
N113 C117 1.319 . S
C114 N113 1.365 . S
C114 C116 1.405 . S
C114 C122 1.448 . S
C115 H110 0.931 . S
C115 C117 1.397 . S
C115 C118 1.367 . S
C116 C114 1.405 . S
C116 C118 1.403 . S
C116 C149 1.439 . S
C117 H102 0.930 . S
C117 N113 1.319 . S
C117 C115 1.397 . S
C118 C115 1.367 . S
C118 C116 1.403 . S
C118 H125 0.929 . S
N119 Eu84 2.562 1_554 S
N119 C120 1.325 . S
N119 C122 1.351 1_554 S
C120 H106 0.929 . S
C120 N119 1.325 . S
C120 C124 1.416 . S
C121 C122 1.430 1_554 S
C121 C123 1.404 . S
C121 C150 1.387 1_554 S
C122 C114 1.448 . S
C122 N119 1.351 1_556 S
C122 C121 1.430 1_556 S
C123 H112 0.930 . S
C123 C121 1.404 . S
C123 C124 1.366 . S
C124 H103 0.930 . S
C124 C120 1.416 . S
C124 C123 1.366 . S
H125 C118 0.929 . S
H126 C149 0.931 . S
H127 C150 0.931 . S
O128 Eu84 2.462 1_554 S
O128 C148 1.252 1_554 S
O129 Eu84 2.373 . S
O129 C140 1.249 1_556 S
O130 Eu95 2.335 . S
O130 C140 1.264 . S
O131 Eu84 2.432 . S
O131 C148 1.268 . S
O132 Eu84 2.291 1_554 S
O132 C147 1.255 . S
O133 Eu95 2.372 . S
O133 C147 1.257 . S
O134 Eu95 2.462 1_556 S
O134 C159 1.252 1_556 S
O135 Eu95 2.373 . S
O135 C151 1.249 1_554 S
O136 Eu84 2.335 . S
O136 C151 1.264 . S
O137 Eu95 2.432 . S
O137 C159 1.268 . S
O138 Eu95 2.291 1_556 S
O138 C158 1.255 . S
O139 Eu84 2.372 . S
O139 C158 1.257 . S
C140 O129 1.249 1_554 S
C140 O130 1.264 . S
C141 C144 1.382 . S
C141 C146 1.390 1_556 S
C141 C148 1.506 . S
C142 C143 1.398 1_554 S
C142 C146 1.392 . S
C143 C142 1.398 1_556 S
C143 C145 1.372 . S
C143 H160 0.931 . S
C144 C141 1.382 . S
C144 C145 1.390 . S
C144 H161 0.931 . S
C145 C143 1.372 . S
C145 C144 1.390 . S
C145 H162 0.929 . S
C146 C141 1.390 1_554 S
C146 C142 1.392 . S
C146 H163 0.930 . S
C147 O132 1.255 . S
C147 O133 1.257 . S
C148 Eu84 2.787 . S
C148 O128 1.252 1_556 S
C148 O131 1.268 . S
C148 C141 1.506 . S
C149 C116 1.439 . S
C149 H126 0.931 . S
C149 C150 1.374 . S
C150 C121 1.387 1_556 S
C150 H127 0.931 . S
C150 C149 1.374 . S
C151 O135 1.249 1_556 S
C151 O136 1.264 . S
C152 C155 1.382 . S
C152 C156 1.390 1_554 S
C152 C159 1.506 . S
C153 C154 1.398 1_556 S
C153 C156 1.392 . S
C154 C153 1.398 1_554 S
C154 C157 1.372 . S
C154 H164 0.931 . S
C155 C152 1.382 . S
C155 C157 1.390 . S
C155 H165 0.931 . S
C156 C152 1.390 1_556 S
C156 C153 1.392 . S
C156 H166 0.930 . S
C157 C154 1.372 . S
C157 C155 1.390 . S
C157 H167 0.929 . S
C158 O138 1.255 . S
C158 O139 1.257 . S
C159 Eu95 2.787 . S
C159 O134 1.252 1_554 S
C159 O137 1.268 . S
C159 C152 1.506 . S
H160 C143 0.931 . S
H161 C144 0.931 . S
H162 C145 0.929 . S
H163 C146 0.930 . S
H164 C154 0.931 . S
H165 C155 0.931 . S
H166 C156 0.930 . S
H167 C157 0.929 . S
Eu168 N197 2.600 . S
Eu168 N203 2.562 1_556 S
Eu168 O212 2.462 1_556 S
Eu168 O213 2.373 1_565 S
Eu168 O215 2.432 . S
Eu168 O216 2.291 1_556 S
Eu168 O220 2.335 . S
Eu168 O223 2.372 . S
Eu168 C232 2.787 . S
C169 N170 1.365 1_565 S
C169 C172 1.405 . S
C169 C176 1.448 1_565 S
N170 C169 1.365 1_545 S
N170 C173 1.319 . S
N170 Eu179 2.600 . S
C171 C173 1.397 1_565 S
C171 C174 1.367 . S
C171 H191 0.931 . S
C172 C169 1.405 . S
C172 C174 1.403 . S
C172 C178 1.439 . S
C173 N170 1.319 . S
C173 C171 1.397 1_545 S
C173 H184 0.930 . S
C174 C171 1.367 . S
C174 C172 1.403 . S
C174 H195 0.929 . S
C175 C176 1.432 1_565 S
C175 C177 1.390 . S
C175 C181 1.399 1_554 S
C176 C169 1.448 1_545 S
C176 C175 1.432 1_545 S
C176 N180 1.351 1_554 S
C177 C175 1.390 . S
C177 C178 1.374 . S
C177 H192 0.931 . S
C178 C172 1.439 . S
C178 C177 1.374 . S
C178 H193 0.931 . S
Eu179 N170 2.600 . S
Eu179 N180 2.562 1_554 S
Eu179 O214 2.335 . S
Eu179 O217 2.372 . S
Eu179 O218 2.462 1_554 S
Eu179 O219 2.373 1_545 S
Eu179 O221 2.432 . S
Eu179 O222 2.291 1_554 S
Eu179 C243 2.787 . S
N180 C176 1.351 1_556 S
N180 Eu179 2.562 1_556 S
N180 C182 1.325 . S
C181 C175 1.399 1_556 S
C181 C183 1.366 1_565 S
C181 H189 0.930 . S
C182 N180 1.325 . S
C182 C183 1.416 . S
C182 H188 0.929 . S
C183 C181 1.366 1_545 S
C183 C182 1.416 . S
C183 H185 0.930 . S
H184 C173 0.930 . S
H185 C183 0.930 . S
H186 C201 0.930 . S
H187 C208 0.930 1_565 S
H188 C182 0.929 . S
H189 C181 0.930 . S
H190 C204 0.929 . S
H191 C171 0.931 . S
H192 C177 0.931 . S
H193 C178 0.931 . S
H194 C199 0.931 . S
H195 C174 0.929 . S
H196 C207 0.930 . S
N197 Eu168 2.600 . S
N197 C198 1.365 1_565 S
N197 C201 1.319 . S
C198 N197 1.365 1_545 S
C198 C200 1.405 . S
C198 C206 1.448 . S
C199 H194 0.931 . S
C199 C201 1.397 1_545 S
C199 C202 1.367 . S
C200 C198 1.405 . S
C200 C202 1.403 . S
C200 C233 1.439 . S
C201 H186 0.930 . S
C201 N197 1.319 . S
C201 C199 1.397 1_565 S
C202 C199 1.367 . S
C202 C200 1.403 . S
C202 H209 0.929 . S
N203 Eu168 2.562 1_554 S
N203 C204 1.325 . S
N203 C206 1.351 1_564 S
C204 H190 0.929 . S
C204 N203 1.325 . S
C204 C208 1.416 1_565 S
C205 C206 1.430 1_554 S
C205 C207 1.404 . S
C205 C234 1.387 1_554 S
C206 C198 1.448 . S
C206 N203 1.351 1_546 S
C206 C205 1.430 1_556 S
C207 H196 0.930 . S
C207 C205 1.404 . S
C207 C208 1.366 . S
C208 H187 0.930 1_545 S
C208 C204 1.416 1_545 S
C208 C207 1.366 . S
H209 C202 0.929 . S
H210 C233 0.931 . S
H211 C234 0.931 . S
O212 Eu168 2.462 1_554 S
O212 C232 1.252 1_554 S
O213 Eu168 2.373 1_545 S
O213 C224 1.249 1_556 S
O214 Eu179 2.335 . S
O214 C224 1.264 . S
O215 Eu168 2.432 . S
O215 C232 1.268 . S
O216 Eu168 2.291 1_554 S
O216 C231 1.255 . S
O217 Eu179 2.372 . S
O217 C231 1.257 1_545 S
O218 Eu179 2.462 1_556 S
O218 C243 1.252 1_556 S
O219 Eu179 2.373 1_565 S
O219 C235 1.249 1_554 S
O220 Eu168 2.335 . S
O220 C235 1.264 . S
O221 Eu179 2.432 . S
O221 C243 1.268 . S
O222 Eu179 2.291 1_556 S
O222 C242 1.255 . S
O223 Eu168 2.372 . S
O223 C242 1.257 1_565 S
C224 O213 1.249 1_554 S
C224 O214 1.264 . S
C225 C228 1.382 . S
C225 C230 1.390 1_556 S
C225 C232 1.506 . S
C226 C227 1.398 1_554 S
C226 C230 1.392 . S
C227 C226 1.398 1_556 S
C227 C229 1.372 . S
C227 H244 0.931 . S
C228 C225 1.382 . S
C228 C229 1.390 . S
C228 H245 0.931 . S
C229 C227 1.372 . S
C229 C228 1.390 . S
C229 H246 0.929 . S
C230 C225 1.390 1_554 S
C230 C226 1.392 . S
C230 H247 0.930 . S
C231 O216 1.255 . S
C231 O217 1.257 1_565 S
C232 Eu168 2.787 . S
C232 O212 1.252 1_556 S
C232 O215 1.268 . S
C232 C225 1.506 . S
C233 C200 1.439 . S
C233 H210 0.931 . S
C233 C234 1.374 . S
C234 C205 1.387 1_556 S
C234 H211 0.931 . S
C234 C233 1.374 . S
C235 O219 1.249 1_556 S
C235 O220 1.264 . S
C236 C239 1.382 . S
C236 C240 1.390 1_554 S
C236 C243 1.506 . S
C237 C238 1.398 1_556 S
C237 C240 1.392 . S
C238 C237 1.398 1_554 S
C238 C241 1.372 . S
C238 H248 0.931 . S
C239 C236 1.382 . S
C239 C241 1.390 . S
C239 H249 0.931 . S
C240 C236 1.390 1_556 S
C240 C237 1.392 . S
C240 H250 0.930 . S
C241 C238 1.372 . S
C241 C239 1.390 . S
C241 H251 0.929 . S
C242 O222 1.255 . S
C242 O223 1.257 1_545 S
C243 Eu179 2.787 . S
C243 O218 1.252 1_554 S
C243 O221 1.268 . S
C243 C236 1.506 . S
H244 C227 0.931 . S
H245 C228 0.931 . S
H246 C229 0.929 . S
H247 C230 0.930 . S
H248 C238 0.931 . S
H249 C239 0.931 . S
H250 C240 0.930 . S
H251 C241 0.929 . S
Eu252 N281 2.600 . S
Eu252 N287 2.562 . S
Eu252 O296 2.462 . S
Eu252 O297 2.373 . S
Eu252 O299 2.432 . S
Eu252 O300 2.291 . S
Eu252 O304 2.335 . S
Eu252 O307 2.372 . S
Eu252 C316 2.787 . S
C253 N254 1.365 . S
C253 C256 1.405 . S
C253 C260 1.448 . S
N254 C253 1.365 . S
N254 C257 1.319 . S
N254 Eu263 2.600 . S
C255 C257 1.397 . S
C255 C258 1.367 . S
C255 H275 0.931 . S
C256 C253 1.405 . S
C256 C258 1.403 . S
C256 C262 1.436 . S
C257 N254 1.319 . S
C257 C255 1.397 . S
C257 H268 0.930 . S
C258 C255 1.367 . S
C258 C256 1.403 . S
C258 H279 0.929 . S
C259 C260 1.430 . S
C259 C261 1.387 1_565 S
C259 C265 1.404 . S
C260 C253 1.448 . S
C260 C259 1.430 . S
C260 N264 1.351 . S
C261 C259 1.387 1_545 S
C261 C262 1.375 1_545 S
C261 H276 0.931 . S
C262 C256 1.436 . S
C262 C261 1.375 1_565 S
C262 H277 0.933 1_565 S
Eu263 N254 2.600 . S
Eu263 N264 2.562 . S
Eu263 O298 2.335 . S
Eu263 O301 2.372 . S
Eu263 O302 2.462 . S
Eu263 O303 2.373 . S
Eu263 O305 2.432 . S
Eu263 O306 2.291 . S
Eu263 C327 2.787 . S
N264 C260 1.351 . S
N264 Eu263 2.562 . S
N264 C266 1.325 . S
C265 C259 1.404 . S
C265 C267 1.366 . S
C265 H273 0.928 1_565 S
C266 N264 1.325 . S
C266 C267 1.416 . S
C266 H272 0.929 . S
C267 C265 1.366 . S
C267 C266 1.416 . S
C267 H269 0.930 . S
H268 C257 0.930 . S
H269 C267 0.930 . S
H270 C285 0.930 . S
H271 C292 0.930 . S
H272 C266 0.929 . S
H273 C265 0.928 1_545 S
H274 C288 0.929 . S
H275 C255 0.931 . S
H276 C261 0.931 . S
H277 C262 0.933 1_545 S
H278 C283 0.931 . S
H279 C258 0.929 . S
H280 C291 0.930 . S
N281 Eu252 2.600 . S
N281 C282 1.365 . S
N281 C285 1.319 . S
C282 N281 1.365 . S
C282 C284 1.405 . S
C282 C290 1.448 . S
C283 H278 0.931 . S
C283 C285 1.397 . S
C283 C286 1.367 . S
C284 C282 1.405 . S
C284 C286 1.403 . S
C284 C317 1.439 . S
C285 H270 0.930 . S
C285 N281 1.319 . S
C285 C283 1.397 . S
C286 C283 1.367 . S
C286 C284 1.403 . S
C286 H293 0.929 . S
N287 Eu252 2.562 . S
N287 C288 1.325 . S
N287 C290 1.351 . S
C288 H274 0.929 . S
C288 N287 1.325 . S
C288 C292 1.416 . S
C289 C290 1.430 . S
C289 C291 1.404 . S
C289 C318 1.387 . S
C290 C282 1.448 . S
C290 N287 1.351 . S
C290 C289 1.430 . S
C291 H280 0.930 . S
C291 C289 1.404 . S
C291 C292 1.366 . S
C292 H271 0.930 . S
C292 C288 1.416 . S
C292 C291 1.366 . S
H293 C286 0.929 . S
H294 C317 0.931 . S
H295 C318 0.931 . S
O296 Eu252 2.462 . S
O296 C316 1.252 . S
O297 Eu252 2.373 . S
O297 C308 1.249 . S
O298 Eu263 2.335 . S
O298 C308 1.264 . S
O299 Eu252 2.432 . S
O299 C316 1.268 . S
O300 Eu252 2.291 . S
O300 C315 1.255 . S
O301 Eu263 2.372 . S
O301 C315 1.257 . S
O302 Eu263 2.462 . S
O302 C327 1.252 . S
O303 Eu263 2.373 . S
O303 C319 1.249 . S
O304 Eu252 2.335 . S
O304 C319 1.264 . S
O305 Eu263 2.432 . S
O305 C327 1.268 . S
O306 Eu263 2.291 . S
O306 C326 1.255 . S
O307 Eu252 2.372 . S
O307 C326 1.257 . S
C308 O297 1.249 . S
C308 O298 1.264 . S
C309 C312 1.382 . S
C309 C314 1.390 . S
C309 C316 1.506 . S
C310 C311 1.398 . S
C310 C314 1.392 . S
C311 C310 1.398 . S
C311 C313 1.372 . S
C311 H328 0.931 . S
C312 C309 1.382 . S
C312 C313 1.390 . S
C312 H329 0.931 . S
C313 C311 1.372 . S
C313 C312 1.390 . S
C313 H330 0.929 . S
C314 C309 1.390 . S
C314 C310 1.392 . S
C314 H331 0.930 . S
C315 O300 1.255 . S
C315 O301 1.257 . S
C316 Eu252 2.787 . S
C316 O296 1.252 . S
C316 O299 1.268 . S
C316 C309 1.506 . S
C317 C284 1.439 . S
C317 H294 0.931 . S
C317 C318 1.374 . S
C318 C289 1.387 . S
C318 H295 0.931 . S
C318 C317 1.374 . S
C319 O303 1.249 . S
C319 O304 1.264 . S
C320 C323 1.382 . S
C320 C324 1.390 . S
C320 C327 1.506 . S
C321 C322 1.398 . S
C321 C324 1.392 . S
C322 C321 1.398 . S
C322 C325 1.372 . S
C322 H332 0.931 . S
C323 C320 1.382 . S
C323 C325 1.390 . S
C323 H333 0.931 . S
C324 C320 1.390 . S
C324 C321 1.392 . S
C324 H334 0.930 . S
C325 C322 1.372 . S
C325 C323 1.390 . S
C325 H335 0.929 . S
C326 O306 1.255 . S
C326 O307 1.257 . S
C327 Eu263 2.787 . S
C327 O302 1.252 . S
C327 O305 1.268 . S
C327 C320 1.506 . S
H328 C311 0.931 . S
H329 C312 0.931 . S
H330 C313 0.929 . S
H331 C314 0.930 . S
H332 C322 0.931 . S
H333 C323 0.931 . S
H334 C324 0.930 . S
H335 C325 0.929 . S
Eu336 N365 2.600 . S
Eu336 N371 2.562 . S
Eu336 O380 2.462 . S
Eu336 O381 2.373 . S
Eu336 O383 2.432 . S
Eu336 O384 2.291 . S
Eu336 O388 2.335 . S
Eu336 O391 2.372 . S
Eu336 C400 2.787 1_565 S
C337 N338 1.365 . S
C337 C340 1.405 . S
C337 C344 1.448 . S
N338 C337 1.365 . S
N338 C341 1.319 . S
N338 Eu347 2.600 . S
C339 C341 1.397 . S
C339 C342 1.367 . S
C339 H359 0.931 . S
C340 C337 1.405 . S
C340 C342 1.403 . S
C340 C346 1.439 . S
C341 N338 1.319 . S
C341 C339 1.397 . S
C341 H352 0.930 . S
C342 C339 1.367 . S
C342 C340 1.403 . S
C342 H363 0.929 . S
C343 C344 1.430 . S
C343 C345 1.387 . S
C343 C349 1.404 . S
C344 C337 1.448 . S
C344 C343 1.430 . S
C344 N348 1.351 . S
C345 C343 1.387 . S
C345 C346 1.374 . S
C345 H360 0.931 1_455 S
C346 C340 1.439 . S
C346 C345 1.374 . S
C346 H361 0.931 1_455 S
Eu347 N338 2.600 . S
Eu347 N348 2.562 . S
Eu347 O382 2.335 . S
Eu347 O385 2.372 . S
Eu347 O386 2.462 . S
Eu347 O387 2.373 . S
Eu347 O389 2.432 . S
Eu347 O390 2.291 . S
Eu347 C411 2.787 . S
N348 C344 1.351 . S
N348 Eu347 2.562 . S
N348 C350 1.325 . S
C349 C343 1.404 . S
C349 C351 1.366 . S
C349 H357 0.930 . S
C350 N348 1.325 . S
C350 C351 1.416 . S
C350 H356 0.929 . S
C351 C349 1.366 . S
C351 C350 1.416 . S
C351 H353 0.930 . S
H352 C341 0.930 . S
H353 C351 0.930 . S
H354 C369 0.930 . S
H355 C376 0.930 . S
H356 C350 0.929 . S
H357 C349 0.930 . S
H358 C372 0.929 1_565 S
H359 C339 0.931 . S
H360 C345 0.931 1_655 S
H361 C346 0.931 1_655 S
H362 C367 0.931 . S
H363 C342 0.929 . S
H364 C375 0.930 . S
N365 Eu336 2.600 . S
N365 C366 1.365 1_565 S
N365 C369 1.319 . S
C366 N365 1.365 1_545 S
C366 C368 1.405 . S
C366 C374 1.448 . S
C367 H362 0.931 . S
C367 C369 1.397 . S
C367 C370 1.367 1_565 S
C368 C366 1.405 . S
C368 C370 1.403 . S
C368 C401 1.439 . S
C369 H354 0.930 . S
C369 N365 1.319 . S
C369 C367 1.397 . S
C370 C367 1.367 1_545 S
C370 C368 1.403 . S
C370 H377 0.929 . S
N371 Eu336 2.562 . S
N371 C372 1.325 1_565 S
N371 C374 1.351 1_565 S
C372 H358 0.929 1_545 S
C372 N371 1.325 1_545 S
C372 C376 1.416 . S
C373 C374 1.430 . S
C373 C375 1.404 . S
C373 C402 1.387 . S
C374 C366 1.448 . S
C374 N371 1.351 1_545 S
C374 C373 1.430 . S
C375 H364 0.930 . S
C375 C373 1.404 . S
C375 C376 1.366 . S
C376 H355 0.930 . S
C376 C372 1.416 . S
C376 C375 1.366 . S
H377 C370 0.929 . S
H378 C401 0.931 . S
H379 C402 0.931 . S
O380 Eu336 2.462 . S
O380 C400 1.252 1_565 S
O381 Eu336 2.373 . S
O381 C392 1.249 . S
O382 Eu347 2.335 . S
O382 C392 1.264 . S
O383 Eu336 2.432 . S
O383 C400 1.268 1_565 S
O384 Eu336 2.291 . S
O384 C399 1.255 . S
O385 Eu347 2.372 . S
O385 C399 1.257 . S
O386 Eu347 2.462 . S
O386 C411 1.252 . S
O387 Eu347 2.373 . S
O387 C403 1.249 . S
O388 Eu336 2.335 . S
O388 C403 1.264 . S
O389 Eu347 2.432 . S
O389 C411 1.268 . S
O390 Eu347 2.291 . S
O390 C410 1.255 . S
O391 Eu336 2.372 . S
O391 C410 1.257 . S
C392 O381 1.249 . S
C392 O382 1.264 . S
C393 C396 1.382 . S
C393 C398 1.390 . S
C393 C400 1.506 . S
C394 C395 1.398 . S
C394 C398 1.392 . S
C395 C394 1.398 . S
C395 C397 1.372 . S
C395 H412 0.931 . S
C396 C393 1.382 . S
C396 C397 1.390 . S
C396 H413 0.931 . S
C397 C395 1.372 . S
C397 C396 1.390 . S
C397 H414 0.929 . S
C398 C393 1.390 . S
C398 C394 1.392 . S
C398 H415 0.930 . S
C399 O384 1.255 . S
C399 O385 1.257 . S
C400 Eu336 2.787 1_545 S
C400 O380 1.252 1_545 S
C400 O383 1.268 1_545 S
C400 C393 1.506 . S
C401 C368 1.439 . S
C401 H378 0.931 . S
C401 C402 1.374 . S
C402 C373 1.387 . S
C402 H379 0.931 . S
C402 C401 1.374 . S
C403 O387 1.249 . S
C403 O388 1.264 . S
C404 C407 1.382 . S
C404 C408 1.390 . S
C404 C411 1.506 . S
C405 C406 1.398 . S
C405 C408 1.392 . S
C406 C405 1.398 . S
C406 C409 1.372 . S
C406 H416 0.931 . S
C407 C404 1.382 . S
C407 C409 1.390 . S
C407 H417 0.931 . S
C408 C404 1.390 . S
C408 C405 1.392 . S
C408 H418 0.930 . S
C409 C406 1.372 . S
C409 C407 1.390 . S
C409 H419 0.929 . S
C410 O390 1.255 . S
C410 O391 1.257 . S
C411 Eu347 2.787 . S
C411 O386 1.252 . S
C411 O389 1.268 . S
C411 C404 1.506 . S
H412 C395 0.931 . S
H413 C396 0.931 . S
H414 C397 0.929 . S
H415 C398 0.930 . S
H416 C406 0.931 . S
H417 C407 0.931 . S
H418 C408 0.930 . S
H419 C409 0.929 . S
Eu420 N449 2.600 . S
Eu420 N455 2.562 . S
Eu420 O464 2.462 . S
Eu420 O465 2.373 . S
Eu420 O467 2.432 . S
Eu420 O468 2.291 . S
Eu420 O472 2.335 . S
Eu420 O475 2.372 . S
Eu420 C484 2.793 . S
C421 N422 1.365 . S
C421 C424 1.405 . S
C421 C428 1.448 . S
N422 C421 1.365 . S
N422 C425 1.319 . S
N422 Eu431 2.600 . S
C423 C425 1.397 . S
C423 C426 1.367 . S
C423 H443 0.931 . S
C424 C421 1.405 . S
C424 C426 1.403 . S
C424 C430 1.439 . S
C425 N422 1.319 . S
C425 C423 1.397 . S
C425 H436 0.930 . S
C426 C423 1.367 . S
C426 C424 1.403 . S
C426 H447 0.929 . S
C427 C428 1.430 . S
C427 C429 1.387 . S
C427 C433 1.404 . S
C428 C421 1.448 . S
C428 C427 1.430 . S
C428 N432 1.351 . S
C429 C427 1.387 . S
C429 C430 1.374 . S
C429 H444 0.931 . S
C430 C424 1.439 . S
C430 C429 1.374 . S
C430 H445 0.931 . S
Eu431 N422 2.600 . S
Eu431 N432 2.562 . S
Eu431 O466 2.335 . S
Eu431 O469 2.372 . S
Eu431 O470 2.462 . S
Eu431 O471 2.373 . S
Eu431 O473 2.432 . S
Eu431 O474 2.291 . S
Eu431 C495 2.787 . S
N432 C428 1.351 . S
N432 Eu431 2.562 . S
N432 C434 1.325 . S
C433 C427 1.404 . S
C433 C435 1.366 . S
C433 H441 0.930 . S
C434 N432 1.325 . S
C434 C435 1.416 . S
C434 H440 0.929 . S
C435 C433 1.366 . S
C435 C434 1.416 . S
C435 H437 0.930 . S
H436 C425 0.930 . S
H437 C435 0.930 . S
H438 C453 0.930 . S
H439 C460 0.930 . S
H440 C434 0.929 . S
H441 C433 0.930 . S
H442 C456 0.929 . S
H443 C423 0.931 . S
H444 C429 0.931 . S
H445 C430 0.931 . S
H446 C451 0.931 . S
H447 C426 0.929 . S
H448 C459 0.930 . S
N449 Eu420 2.600 . S
N449 C450 1.365 . S
N449 C453 1.319 . S
C450 N449 1.365 . S
C450 C452 1.405 1_455 S
C450 C458 1.448 1_455 S
C451 H446 0.931 . S
C451 C453 1.397 . S
C451 C454 1.367 1_455 S
C452 C450 1.405 1_655 S
C452 C454 1.403 . S
C452 C485 1.439 . S
C453 H438 0.930 . S
C453 N449 1.319 . S
C453 C451 1.397 . S
C454 C451 1.367 1_655 S
C454 C452 1.403 . S
C454 H461 0.929 . S
N455 Eu420 2.562 . S
N455 C456 1.325 . S
N455 C458 1.351 1_455 S
C456 H442 0.929 . S
C456 N455 1.325 . S
C456 C460 1.416 1_455 S
C457 C458 1.430 . S
C457 C459 1.404 . S
C457 C486 1.387 . S
C458 C450 1.448 1_655 S
C458 N455 1.351 1_655 S
C458 C457 1.430 . S
C459 H448 0.930 . S
C459 C457 1.404 . S
C459 C460 1.366 . S
C460 H439 0.930 . S
C460 C456 1.416 1_655 S
C460 C459 1.366 . S
H461 C454 0.929 . S
H462 C485 0.931 . S
H463 C486 0.931 . S
O464 Eu420 2.462 . S
O464 C484 1.256 . S
O465 Eu420 2.373 . S
O465 C476 1.249 . S
O466 Eu431 2.335 . S
O466 C476 1.264 . S
O467 Eu420 2.432 . S
O467 C484 1.272 . S
O468 Eu420 2.291 . S
O468 C483 1.255 . S
O469 Eu431 2.372 . S
O469 C483 1.257 . S
O470 Eu431 2.462 . S
O470 C495 1.252 . S
O471 Eu431 2.373 . S
O471 C487 1.249 . S
O472 Eu420 2.335 . S
O472 C487 1.264 . S
O473 Eu431 2.432 . S
O473 C495 1.268 . S
O474 Eu431 2.291 . S
O474 C494 1.255 . S
O475 Eu420 2.372 . S
O475 C494 1.257 . S
C476 O465 1.249 . S
C476 O466 1.264 . S
C477 C480 1.382 . S
C477 C482 1.390 . S
C477 C484 1.499 1_655 S
C478 C479 1.398 . S
C478 C482 1.392 . S
C479 C478 1.398 . S
C479 C481 1.372 . S
C479 H496 0.931 . S
C480 C477 1.382 . S
C480 C481 1.390 . S
C480 H497 0.931 . S
C481 C479 1.372 . S
C481 C480 1.390 . S
C481 H498 0.929 . S
C482 C477 1.390 . S
C482 C478 1.392 . S
C482 H499 0.930 . S
C483 O468 1.255 . S
C483 O469 1.257 . S
C484 Eu420 2.793 . S
C484 O464 1.256 . S
C484 O467 1.272 . S
C484 C477 1.499 1_455 S
C485 C452 1.439 . S
C485 H462 0.931 . S
C485 C486 1.374 . S
C486 C457 1.387 . S
C486 H463 0.931 . S
C486 C485 1.374 . S
C487 O471 1.249 . S
C487 O472 1.264 . S
C488 C491 1.382 . S
C488 C492 1.390 . S
C488 C495 1.506 . S
C489 C490 1.398 . S
C489 C492 1.392 . S
C490 C489 1.398 . S
C490 C493 1.372 . S
C490 H500 0.931 . S
C491 C488 1.382 . S
C491 C493 1.390 . S
C491 H501 0.931 . S
C492 C488 1.390 . S
C492 C489 1.392 . S
C492 H502 0.930 . S
C493 C490 1.372 . S
C493 C491 1.390 . S
C493 H503 0.929 . S
C494 O474 1.255 . S
C494 O475 1.257 . S
C495 Eu431 2.787 . S
C495 O470 1.252 . S
C495 O473 1.268 . S
C495 C488 1.506 . S
H496 C479 0.931 . S
H497 C480 0.931 . S
H498 C481 0.929 . S
H499 C482 0.930 . S
H500 C490 0.931 . S
H501 C491 0.931 . S
H502 C492 0.930 . S
H503 C493 0.929 . S
Eu504 N533 2.600 . S
Eu504 N539 2.562 . S
Eu504 O548 2.462 . S
Eu504 O549 2.373 . S
Eu504 O551 2.432 . S
Eu504 O552 2.291 . S
Eu504 O556 2.335 . S
Eu504 O559 2.372 . S
Eu504 C568 2.787 . S
C505 N506 1.365 . S
C505 C508 1.405 . S
C505 C512 1.448 . S
N506 C505 1.365 . S
N506 C509 1.319 . S
N506 Eu515 2.600 . S
C507 C509 1.397 . S
C507 C510 1.367 . S
C507 H527 0.931 . S
C508 C505 1.405 . S
C508 C510 1.403 . S
C508 C514 1.439 . S
C509 N506 1.319 . S
C509 C507 1.397 . S
C509 H520 0.930 . S
C510 C507 1.367 . S
C510 C508 1.403 . S
C510 H531 0.929 . S
C511 C512 1.430 . S
C511 C513 1.387 . S
C511 C517 1.404 . S
C512 C505 1.448 . S
C512 C511 1.430 . S
C512 N516 1.351 . S
C513 C511 1.387 . S
C513 C514 1.374 . S
C513 H528 0.931 . S
C514 C508 1.439 . S
C514 C513 1.374 . S
C514 H529 0.931 . S
Eu515 N506 2.600 . S
Eu515 N516 2.562 . S
Eu515 O550 2.335 . S
Eu515 O553 2.372 . S
Eu515 O554 2.462 . S
Eu515 O555 2.373 . S
Eu515 O557 2.432 . S
Eu515 O558 2.291 . S
Eu515 C579 2.787 . S
N516 C512 1.351 . S
N516 Eu515 2.562 . S
N516 C518 1.325 . S
C517 C511 1.404 . S
C517 C519 1.366 . S
C517 H525 0.930 . S
C518 N516 1.325 . S
C518 C519 1.416 . S
C518 H524 0.929 . S
C519 C517 1.366 . S
C519 C518 1.416 . S
C519 H521 0.930 . S
H520 C509 0.930 . S
H521 C519 0.930 . S
H522 C537 0.930 . S
H523 C544 0.930 . S
H524 C518 0.929 . S
H525 C517 0.930 . S
H526 C540 0.929 . S
H527 C507 0.931 . S
H528 C513 0.931 . S
H529 C514 0.931 . S
H530 C535 0.931 . S
H531 C510 0.929 . S
H532 C543 0.930 . S
N533 Eu504 2.600 . S
N533 C534 1.365 . S
N533 C537 1.319 . S
C534 N533 1.365 . S
C534 C536 1.405 1_545 S
C534 C542 1.448 . S
C535 H530 0.931 . S
C535 C537 1.397 . S
C535 C538 1.367 1_545 S
C536 C534 1.405 1_565 S
C536 C538 1.403 . S
C536 C569 1.439 . S
C537 H522 0.930 . S
C537 N533 1.319 . S
C537 C535 1.397 . S
C538 C535 1.367 1_565 S
C538 C536 1.403 . S
C538 H545 0.929 . S
N539 Eu504 2.562 . S
N539 C540 1.325 . S
N539 C542 1.351 . S
C540 H526 0.929 . S
C540 N539 1.325 . S
C540 C544 1.416 1_545 S
C541 C542 1.430 1_565 S
C541 C543 1.404 . S
C541 C570 1.387 . S
C542 C534 1.448 . S
C542 N539 1.351 . S
C542 C541 1.430 1_545 S
C543 H532 0.930 . S
C543 C541 1.404 . S
C543 C544 1.366 . S
C544 H523 0.930 . S
C544 C540 1.416 1_565 S
C544 C543 1.366 . S
H545 C538 0.929 . S
H546 C569 0.931 . S
H547 C570 0.931 . S
O548 Eu504 2.462 . S
O548 C568 1.252 . S
O549 Eu504 2.373 . S
O549 C560 1.249 . S
O550 Eu515 2.335 . S
O550 C560 1.264 . S
O551 Eu504 2.432 . S
O551 C568 1.268 . S
O552 Eu504 2.291 . S
O552 C567 1.255 . S
O553 Eu515 2.372 . S
O553 C567 1.257 . S
O554 Eu515 2.462 . S
O554 C579 1.252 . S
O555 Eu515 2.373 . S
O555 C571 1.249 . S
O556 Eu504 2.335 . S
O556 C571 1.264 . S
O557 Eu515 2.432 . S
O557 C579 1.268 . S
O558 Eu515 2.291 . S
O558 C578 1.255 . S
O559 Eu504 2.372 . S
O559 C578 1.257 . S
C560 O549 1.249 . S
C560 O550 1.264 . S
C561 C564 1.382 . S
C561 C566 1.390 . S
C561 C568 1.506 . S
C562 C563 1.398 . S
C562 C566 1.392 . S
C563 C562 1.398 . S
C563 C565 1.372 . S
C563 H580 0.931 . S
C564 C561 1.382 . S
C564 C565 1.390 . S
C564 H581 0.931 . S
C565 C563 1.372 . S
C565 C564 1.390 . S
C565 H582 0.929 . S
C566 C561 1.390 . S
C566 C562 1.392 . S
C566 H583 0.930 . S
C567 O552 1.255 . S
C567 O553 1.257 . S
C568 Eu504 2.787 . S
C568 O548 1.252 . S
C568 O551 1.268 . S
C568 C561 1.506 . S
C569 C536 1.439 . S
C569 H546 0.931 . S
C569 C570 1.374 . S
C570 C541 1.387 . S
C570 H547 0.931 . S
C570 C569 1.374 . S
C571 O555 1.249 . S
C571 O556 1.264 . S
C572 C575 1.382 . S
C572 C576 1.390 . S
C572 C579 1.506 . S
C573 C574 1.398 . S
C573 C576 1.392 . S
C574 C573 1.398 . S
C574 C577 1.372 . S
C574 H584 0.931 . S
C575 C572 1.382 . S
C575 C577 1.390 . S
C575 H585 0.931 . S
C576 C572 1.390 . S
C576 C573 1.392 . S
C576 H586 0.930 . S
C577 C574 1.372 . S
C577 C575 1.390 . S
C577 H587 0.929 . S
C578 O558 1.255 . S
C578 O559 1.257 . S
C579 Eu515 2.787 . S
C579 O554 1.252 . S
C579 O557 1.268 . S
C579 C572 1.506 . S
H580 C563 0.931 . S
H581 C564 0.931 . S
H582 C565 0.929 . S
H583 C566 0.930 . S
H584 C574 0.931 . S
H585 C575 0.931 . S
H586 C576 0.930 . S
H587 C577 0.929 . S
Eu588 N617 2.600 . S
Eu588 N623 2.562 . S
Eu588 O632 2.462 . S
Eu588 O633 2.373 . S
Eu588 O635 2.432 . S
Eu588 O636 2.291 . S
Eu588 O640 2.335 . S
Eu588 O643 2.372 . S
Eu588 C652 2.787 . S
C589 N590 1.365 . S
C589 C592 1.405 . S
C589 C596 1.448 . S
N590 C589 1.365 . S
N590 C593 1.319 . S
N590 Eu599 2.600 . S
C591 C593 1.397 . S
C591 C594 1.367 . S
C591 H611 0.931 . S
C592 C589 1.405 . S
C592 C594 1.403 . S
C592 C598 1.439 . S
C593 N590 1.319 . S
C593 C591 1.397 . S
C593 H604 0.930 . S
C594 C591 1.367 . S
C594 C592 1.403 . S
C594 H615 0.929 . S
C595 C596 1.430 . S
C595 C597 1.387 . S
C595 C601 1.404 . S
C596 C589 1.448 . S
C596 C595 1.430 . S
C596 N600 1.351 . S
C597 C595 1.387 . S
C597 C598 1.374 . S
C597 H612 0.931 . S
C598 C592 1.439 . S
C598 C597 1.374 . S
C598 H613 0.931 . S
Eu599 N590 2.600 . S
Eu599 N600 2.562 . S
Eu599 O634 2.335 . S
Eu599 O637 2.372 . S
Eu599 O638 2.462 . S
Eu599 O639 2.373 . S
Eu599 O641 2.432 . S
Eu599 O642 2.291 . S
Eu599 C663 2.787 . S
N600 C596 1.351 . S
N600 Eu599 2.562 . S
N600 C602 1.325 . S
C601 C595 1.404 . S
C601 C603 1.366 . S
C601 H609 0.930 . S
C602 N600 1.325 . S
C602 C603 1.416 . S
C602 H608 0.929 . S
C603 C601 1.366 . S
C603 C602 1.416 . S
C603 H605 0.930 . S
H604 C593 0.930 . S
H605 C603 0.930 . S
H606 C621 0.930 . S
H607 C628 0.930 . S
H608 C602 0.929 . S
H609 C601 0.930 . S
H610 C624 0.929 . S
H611 C591 0.931 . S
H612 C597 0.931 . S
H613 C598 0.931 . S
H614 C619 0.931 . S
H615 C594 0.929 . S
H616 C627 0.930 . S
N617 Eu588 2.600 . S
N617 C618 1.360 1_655 S
N617 C621 1.319 . S
C618 N617 1.360 1_455 S
C618 C620 1.410 . S
C618 C626 1.448 . S
C619 H614 0.931 . S
C619 C621 1.397 . S
C619 C622 1.367 1_655 S
C620 C618 1.410 . S
C620 C622 1.403 . S
C620 C653 1.439 . S
C621 H606 0.930 . S
C621 N617 1.319 . S
C621 C619 1.397 . S
C622 C619 1.367 1_455 S
C622 C620 1.403 . S
C622 H629 0.929 . S
N623 Eu588 2.562 . S
N623 C624 1.325 . S
N623 C626 1.351 1_655 S
C624 H610 0.929 . S
C624 N623 1.325 . S
C624 C628 1.416 1_655 S
C625 C626 1.430 . S
C625 C627 1.404 . S
C625 C654 1.387 . S
C626 C618 1.448 . S
C626 N623 1.351 1_455 S
C626 C625 1.430 . S
C627 H616 0.930 . S
C627 C625 1.404 . S
C627 C628 1.366 . S
C628 H607 0.930 . S
C628 C624 1.416 1_455 S
C628 C627 1.366 . S
H629 C622 0.929 . S
H630 C653 0.931 . S
H631 C654 0.931 . S
O632 Eu588 2.462 . S
O632 C652 1.252 . S
O633 Eu588 2.373 . S
O633 C644 1.249 . S
O634 Eu599 2.335 . S
O634 C644 1.264 . S
O635 Eu588 2.432 . S
O635 C652 1.268 . S
O636 Eu588 2.291 . S
O636 C651 1.255 . S
O637 Eu599 2.372 . S
O637 C651 1.257 . S
O638 Eu599 2.462 . S
O638 C663 1.252 . S
O639 Eu599 2.373 . S
O639 C655 1.249 . S
O640 Eu588 2.335 . S
O640 C655 1.264 . S
O641 Eu599 2.432 . S
O641 C663 1.268 . S
O642 Eu599 2.291 . S
O642 C662 1.255 . S
O643 Eu588 2.372 . S
O643 C662 1.257 . S
C644 O633 1.249 . S
C644 O634 1.264 . S
C645 C648 1.382 . S
C645 C650 1.390 . S
C645 C652 1.506 . S
C646 C647 1.398 . S
C646 C650 1.392 . S
C647 C646 1.398 . S
C647 C649 1.372 . S
C647 H664 0.931 . S
C648 C645 1.382 . S
C648 C649 1.390 . S
C648 H665 0.931 . S
C649 C647 1.372 . S
C649 C648 1.390 . S
C649 H666 0.929 . S
C650 C645 1.390 . S
C650 C646 1.392 . S
C650 H667 0.930 . S
C651 O636 1.255 . S
C651 O637 1.257 . S
C652 Eu588 2.787 . S
C652 O632 1.252 . S
C652 O635 1.268 . S
C652 C645 1.506 . S
C653 C620 1.439 . S
C653 H630 0.931 . S
C653 C654 1.374 . S
C654 C625 1.387 . S
C654 H631 0.931 . S
C654 C653 1.374 . S
C655 O639 1.249 . S
C655 O640 1.264 . S
C656 C659 1.382 . S
C656 C660 1.390 . S
C656 C663 1.506 . S
C657 C658 1.398 1_545 S
C657 C660 1.392 . S
C658 C657 1.398 1_565 S
C658 C661 1.372 1_565 S
C658 H668 0.931 . S
C659 C656 1.382 . S
C659 C661 1.390 . S
C659 H669 0.931 . S
C660 C656 1.390 . S
C660 C657 1.392 . S
C660 H670 0.930 . S
C661 C658 1.372 1_545 S
C661 C659 1.390 . S
C661 H671 0.929 1_545 S
C662 O642 1.255 . S
C662 O643 1.257 . S
C663 Eu599 2.787 . S
C663 O638 1.252 . S
C663 O641 1.268 . S
C663 C656 1.506 . S
H664 C647 0.931 . S
H665 C648 0.931 . S
H666 C649 0.929 . S
H667 C650 0.930 . S
H668 C658 0.931 . S
H669 C659 0.931 . S
H670 C660 0.930 . S
H671 C661 0.929 1_565 S
Eu672 N701 2.600 . S
Eu672 N707 2.562 . S
Eu672 O716 2.462 . S
Eu672 O717 2.373 . S
Eu672 O719 2.432 . S
Eu672 O720 2.291 . S
Eu672 O724 2.335 . S
Eu672 O727 2.372 . S
Eu672 C736 2.787 . S
C673 N674 1.365 . S
C673 C676 1.405 . S
C673 C680 1.448 . S
N674 C673 1.365 . S
N674 C677 1.319 . S
N674 Eu683 2.600 . S
C675 C677 1.397 . S
C675 C678 1.367 . S
C675 H695 0.931 . S
C676 C673 1.405 . S
C676 C678 1.403 . S
C676 C682 1.439 . S
C677 N674 1.319 . S
C677 C675 1.397 . S
C677 H688 0.930 . S
C678 C675 1.367 . S
C678 C676 1.403 . S
C678 H699 0.929 . S
C679 C680 1.430 . S
C679 C681 1.387 . S
C679 C685 1.404 . S
C680 C673 1.448 . S
C680 C679 1.430 . S
C680 N684 1.351 . S
C681 C679 1.387 . S
C681 C682 1.374 . S
C681 H696 0.931 . S
C682 C676 1.439 . S
C682 C681 1.374 . S
C682 H697 0.931 . S
Eu683 N674 2.600 . S
Eu683 N684 2.562 . S
Eu683 O718 2.335 . S
Eu683 O721 2.372 . S
Eu683 O722 2.462 . S
Eu683 O723 2.373 . S
Eu683 O725 2.432 . S
Eu683 O726 2.291 . S
Eu683 C747 2.787 . S
N684 C680 1.351 . S
N684 Eu683 2.562 . S
N684 C686 1.325 . S
C685 C679 1.404 . S
C685 C687 1.366 . S
C685 H693 0.930 . S
C686 N684 1.325 . S
C686 C687 1.416 . S
C686 H692 0.929 . S
C687 C685 1.366 . S
C687 C686 1.416 . S
C687 H689 0.930 . S
H688 C677 0.930 . S
H689 C687 0.930 . S
H690 C705 0.930 . S
H691 C712 0.930 . S
H692 C686 0.929 . S
H693 C685 0.930 . S
H694 C708 0.929 . S
H695 C675 0.931 . S
H696 C681 0.931 . S
H697 C682 0.931 . S
H698 C703 0.931 . S
H699 C678 0.929 . S
H700 C711 0.930 . S
N701 Eu672 2.600 . S
N701 C702 1.365 . S
N701 C705 1.319 . S
C702 N701 1.365 . S
C702 C704 1.405 . S
C702 C710 1.448 . S
C703 H698 0.931 . S
C703 C705 1.397 . S
C703 C706 1.367 . S
C704 C702 1.405 . S
C704 C706 1.403 . S
C704 C737 1.439 . S
C705 H690 0.930 . S
C705 N701 1.319 . S
C705 C703 1.397 . S
C706 C703 1.367 . S
C706 C704 1.403 . S
C706 H713 0.929 . S
N707 Eu672 2.562 . S
N707 C708 1.325 . S
N707 C710 1.351 . S
C708 H694 0.929 . S
C708 N707 1.325 . S
C708 C712 1.416 . S
C709 C710 1.430 . S
C709 C711 1.404 . S
C709 C738 1.387 . S
C710 C702 1.448 . S
C710 N707 1.351 . S
C710 C709 1.430 . S
C711 H700 0.930 . S
C711 C709 1.404 . S
C711 C712 1.366 . S
C712 H691 0.930 . S
C712 C708 1.416 . S
C712 C711 1.366 . S
H713 C706 0.929 . S
H714 C737 0.931 . S
H715 C738 0.931 . S
O716 Eu672 2.462 . S
O716 C736 1.252 . S
O717 Eu672 2.373 . S
O717 C728 1.249 . S
O718 Eu683 2.335 . S
O718 C728 1.264 . S
O719 Eu672 2.432 . S
O719 C736 1.268 . S
O720 Eu672 2.291 . S
O720 C735 1.255 . S
O721 Eu683 2.372 . S
O721 C735 1.257 . S
O722 Eu683 2.462 . S
O722 C747 1.252 . S
O723 Eu683 2.373 . S
O723 C739 1.249 . S
O724 Eu672 2.335 . S
O724 C739 1.264 . S
O725 Eu683 2.432 . S
O725 C747 1.268 . S
O726 Eu683 2.291 . S
O726 C746 1.255 . S
O727 Eu672 2.372 . S
O727 C746 1.257 . S
C728 O717 1.249 . S
C728 O718 1.264 . S
C729 C732 1.382 . S
C729 C734 1.390 . S
C729 C736 1.506 . S
C730 C731 1.398 . S
C730 C734 1.392 . S
C731 C730 1.398 . S
C731 C733 1.372 . S
C731 H748 0.931 . S
C732 C729 1.382 . S
C732 C733 1.390 . S
C732 H749 0.931 . S
C733 C731 1.372 . S
C733 C732 1.390 . S
C733 H750 0.929 . S
C734 C729 1.390 . S
C734 C730 1.392 . S
C734 H751 0.930 . S
C735 O720 1.255 . S
C735 O721 1.257 . S
C736 Eu672 2.787 . S
C736 O716 1.252 . S
C736 O719 1.268 . S
C736 C729 1.506 . S
C737 C704 1.439 . S
C737 H714 0.931 . S
C737 C738 1.374 . S
C738 C709 1.387 . S
C738 H715 0.931 . S
C738 C737 1.374 . S
C739 O723 1.249 . S
C739 O724 1.264 . S
C740 C743 1.382 . S
C740 C744 1.390 . S
C740 C747 1.506 . S
C741 C742 1.398 . S
C741 C744 1.392 1_455 S
C742 C741 1.398 . S
C742 C745 1.372 . S
C742 H752 0.931 . S
C743 C740 1.382 . S
C743 C745 1.390 1_655 S
C743 H753 0.931 . S
C744 C740 1.390 . S
C744 C741 1.392 1_655 S
C744 H754 0.930 . S
C745 C742 1.372 . S
C745 C743 1.390 1_455 S
C745 H755 0.929 . S
C746 O726 1.255 . S
C746 O727 1.257 . S
C747 Eu683 2.787 . S
C747 O722 1.252 . S
C747 O725 1.268 . S
C747 C740 1.506 . S
H748 C731 0.931 . S
H749 C732 0.931 . S
H750 C733 0.929 . S
H751 C734 0.930 . S
H752 C742 0.931 . S
H753 C743 0.931 . S
H754 C744 0.930 . S
H755 C745 0.929 . S
H756 C762 0.930 . S
H757 C766 0.930 . S
H758 C771 0.929 . S
H759 C769 0.920 1_556 S
H760 C764 0.929 . S
H761 C770 0.929 . S
C762 H756 0.930 . S
C762 C763 1.367 . S
C762 C770 1.378 . S
C763 C762 1.367 . S
C763 C771 1.433 1_556 S
C764 H760 0.929 . S
C764 C766 1.378 . S
C764 C768 1.350 . S
C765 C768 1.463 . S
C765 C770 1.350 1_554 S
C765 N773 1.427 . S
C766 H757 0.930 . S
C766 C764 1.378 . S
C766 C767 1.367 . S
C767 C766 1.367 . S
C767 C769 1.446 . S
C768 C764 1.350 . S
C768 C765 1.463 . S
C768 N772 1.427 1_554 S
C769 H759 0.920 1_554 S
C769 C767 1.446 . S
C769 N772 1.380 1_554 S
C770 H761 0.929 . S
C770 C762 1.378 . S
C770 C765 1.350 1_556 S
C771 H758 0.929 . S
C771 C763 1.433 1_554 S
C771 N773 1.384 . S
N772 C768 1.427 1_556 S
N772 C769 1.380 1_556 S
N773 C765 1.427 . S
N773 C771 1.384 . S
H774 C780 0.930 . S
H775 C784 0.930 . S
H776 C789 0.929 . S
H777 C787 0.929 . S
H778 C782 0.929 . S
H779 C788 0.929 . S
C780 H774 0.930 . S
C780 C781 1.367 1_554 S
C780 C788 1.378 . S
C781 C780 1.367 1_556 S
C781 C789 1.433 . S
C782 H778 0.929 . S
C782 C784 1.378 . S
C782 C786 1.350 1_556 S
C783 C786 1.463 . S
C783 C788 1.350 . S
C783 N791 1.427 1_554 S
C784 H775 0.930 . S
C784 C782 1.378 . S
C784 C785 1.367 1_556 S
C785 C784 1.367 1_554 S
C785 C787 1.433 . S
C786 C782 1.350 1_554 S
C786 C783 1.463 . S
C786 N790 1.427 . S
C787 H777 0.929 . S
C787 C785 1.433 . S
C787 N790 1.384 . S
C788 H779 0.929 . S
C788 C780 1.378 . S
C788 C783 1.350 . S
C789 H776 0.929 . S
C789 C781 1.433 . S
C789 N791 1.384 . S
N790 C786 1.427 . S
N790 C787 1.384 . S
N791 C783 1.427 1_556 S
N791 C789 1.384 . S
H792 C798 0.930 . S
H793 C802 0.930 . S
H794 C807 0.929 . S
H795 C805 0.929 . S
H796 C800 0.929 . S
H797 C806 0.929 . S
C798 H792 0.930 . S
C798 C799 1.367 1_556 S
C798 C806 1.378 . S
C799 C798 1.367 1_554 S
C799 C807 1.433 . S
C800 H796 0.929 . S
C800 C802 1.378 . S
C800 C804 1.350 . S
C801 C804 1.463 . S
C801 C806 1.350 1_554 S
C801 N809 1.427 . S
C802 H793 0.930 . S
C802 C800 1.378 . S
C802 C803 1.367 1_554 S
C803 C802 1.367 1_556 S
C803 C805 1.433 . S
C804 C800 1.350 . S
C804 C801 1.463 . S
C804 N808 1.427 1_554 S
C805 H795 0.929 . S
C805 C803 1.433 . S
C805 N808 1.384 . S
C806 H797 0.929 . S
C806 C798 1.378 . S
C806 C801 1.350 1_556 S
C807 H794 0.929 . S
C807 C799 1.433 . S
C807 N809 1.384 . S
N808 C804 1.427 1_556 S
N808 C805 1.384 . S
N809 C801 1.427 . S
N809 C807 1.384 . S
H810 C816 0.930 . S
H811 C820 0.930 . S
H812 C825 0.929 . S
H813 C823 0.929 . S
H814 C818 0.929 . S
H815 C824 0.929 . S
C816 H810 0.930 . S
C816 C817 1.367 . S
C816 C824 1.378 . S
C817 C816 1.367 . S
C817 C825 1.433 1_554 S
C818 H814 0.929 . S
C818 C820 1.378 . S
C818 C822 1.350 . S
C819 C822 1.463 . S
C819 C824 1.348 1_556 S
C819 N827 1.429 . S
C820 H811 0.930 . S
C820 C818 1.378 . S
C820 C821 1.367 . S
C821 C820 1.367 . S
C821 C823 1.433 1_556 S
C822 C818 1.350 . S
C822 C819 1.463 . S
C822 N826 1.427 1_556 S
C823 H813 0.929 . S
C823 C821 1.433 1_554 S
C823 N826 1.384 . S
C824 H815 0.929 . S
C824 C816 1.378 . S
C824 C819 1.348 1_554 S
C825 H812 0.929 . S
C825 C817 1.433 1_556 S
C825 N827 1.384 . S
N826 C822 1.427 1_554 S
N826 C823 1.384 . S
N827 C819 1.429 . S
N827 C825 1.384 . S
H828 C834 0.930 . S
H829 C838 0.930 . S
H830 C843 0.929 . S
H831 C841 0.929 . S
H832 C836 0.929 . S
H833 C842 0.929 . S
C834 H828 0.930 . S
C834 C835 1.367 . S
C834 C842 1.378 . S
C835 C834 1.367 . S
C835 C843 1.433 1_556 S
C836 H832 0.929 . S
C836 C838 1.378 . S
C836 C840 1.341 1_554 S
C837 C840 1.465 . S
C837 C842 1.350 . S
C837 N845 1.427 1_556 S
C838 H829 0.930 . S
C838 C836 1.378 . S
C838 C839 1.367 . S
C839 C838 1.367 . S
C839 C841 1.433 1_554 S
C840 C836 1.341 1_556 S
C840 C837 1.465 . S
C840 N844 1.434 . S
C841 H831 0.929 . S
C841 C839 1.433 1_556 S
C841 N844 1.384 . S
C842 H833 0.929 . S
C842 C834 1.378 . S
C842 C837 1.350 . S
C843 H830 0.929 . S
C843 C835 1.433 1_554 S
C843 N845 1.384 . S
N844 C840 1.434 . S
N844 C841 1.384 . S
N845 C837 1.427 1_554 S
N845 C843 1.384 . S
H846 C852 0.930 . S
H847 C856 0.930 . S
H848 C861 0.929 . S
H849 C859 0.929 . S
H850 C854 0.929 . S
H851 C860 0.929 . S
C852 H846 0.930 . S
C852 C853 1.367 1_554 S
C852 C860 1.378 . S
C853 C852 1.367 1_556 S
C853 C861 1.433 . S
C854 H850 0.929 . S
C854 C856 1.378 . S
C854 C858 1.350 . S
C855 C858 1.463 . S
C855 C860 1.350 1_556 S
C855 N863 1.427 . S
C856 H847 0.930 . S
C856 C854 1.378 . S
C856 C857 1.367 1_556 S
C857 C856 1.367 1_554 S
C857 C859 1.433 . S
C858 C854 1.350 . S
C858 C855 1.463 . S
C858 N862 1.427 1_556 S
C859 H849 0.929 . S
C859 C857 1.433 . S
C859 N862 1.384 . S
C860 H851 0.929 . S
C860 C852 1.378 . S
C860 C855 1.350 1_554 S
C861 H848 0.929 . S
C861 C853 1.433 . S
C861 N863 1.384 . S
N862 C858 1.427 1_554 S
N862 C859 1.384 . S
N863 C855 1.427 . S
N863 C861 1.384 . S
H864 C870 0.930 . S
H865 C874 0.930 . S
H866 C879 0.929 . S
H867 C877 0.929 . S
H868 C872 0.929 . S
H869 C878 0.929 . S
C870 H864 0.930 . S
C870 C871 1.367 . S
C870 C878 1.378 . S
C871 C870 1.367 . S
C871 C879 1.433 . S
C872 H868 0.929 . S
C872 C874 1.378 . S
C872 C876 1.350 . S
C873 C876 1.463 1_655 S
C873 C878 1.350 . S
C873 N881 1.427 . S
C874 H865 0.930 . S
C874 C872 1.378 . S
C874 C875 1.367 . S
C875 C874 1.367 . S
C875 C877 1.433 . S
C876 C872 1.350 . S
C876 C873 1.463 1_455 S
C876 N880 1.427 . S
C877 H867 0.929 . S
C877 C875 1.433 . S
C877 N880 1.384 . S
C878 H869 0.929 . S
C878 C870 1.378 . S
C878 C873 1.350 . S
C879 H866 0.929 . S
C879 C871 1.433 . S
C879 N881 1.384 . S
N880 C876 1.427 . S
N880 C877 1.384 . S
N881 C873 1.427 . S
N881 C879 1.384 . S
H882 C888 0.930 . S
H883 C892 0.930 . S
H884 C897 0.929 . S
H885 C895 0.929 . S
H886 C890 0.929 . S
H887 C896 0.929 . S
C888 H882 0.930 . S
C888 C889 1.367 . S
C888 C896 1.378 . S
C889 C888 1.367 . S
C889 C897 1.433 . S
C890 H886 0.929 . S
C890 C892 1.378 . S
C890 C894 1.350 . S
C891 C894 1.463 . S
C891 C896 1.350 . S
C891 N899 1.427 . S
C892 H883 0.930 . S
C892 C890 1.378 . S
C892 C893 1.367 . S
C893 C892 1.367 . S
C893 C895 1.433 . S
C894 C890 1.350 . S
C894 C891 1.463 . S
C894 N898 1.427 . S
C895 H885 0.929 . S
C895 C893 1.433 . S
C895 N898 1.384 . S
C896 H887 0.929 . S
C896 C888 1.378 . S
C896 C891 1.350 . S
C897 H884 0.929 . S
C897 C889 1.433 . S
C897 N899 1.384 . S
N898 C894 1.427 . S
N898 C895 1.384 . S
N899 C891 1.427 . S
N899 C897 1.384 . S
H900 C906 0.930 . S
H901 C910 0.930 . S
H902 C915 0.929 . S
H903 C913 0.929 . S
H904 C908 0.929 . S
H905 C914 0.929 . S
C906 H900 0.930 . S
C906 C907 1.367 . S
C906 C914 1.378 . S
C907 C906 1.367 . S
C907 C915 1.433 . S
C908 H904 0.929 . S
C908 C910 1.378 . S
C908 C912 1.350 . S
C909 C912 1.463 1_545 S
C909 C914 1.350 . S
C909 N917 1.427 . S
C910 H901 0.930 . S
C910 C908 1.378 . S
C910 C911 1.367 . S
C911 C910 1.367 . S
C911 C913 1.433 . S
C912 C908 1.350 . S
C912 C909 1.463 1_565 S
C912 N916 1.427 . S
C913 H903 0.929 . S
C913 C911 1.433 . S
C913 N916 1.384 . S
C914 H905 0.929 . S
C914 C906 1.378 . S
C914 C909 1.350 . S
C915 H902 0.929 . S
C915 C907 1.433 . S
C915 N917 1.384 . S
N916 C912 1.427 . S
N916 C913 1.384 . S
N917 C909 1.427 . S
N917 C915 1.384 . S
H918 C924 0.930 . S
H919 C928 0.930 . S
H920 C933 0.929 . S
H921 C931 0.929 . S
H922 C926 0.929 . S
H923 C932 0.929 . S
C924 H918 0.930 . S
C924 C925 1.367 . S
C924 C932 1.378 . S
C925 C924 1.367 . S
C925 C933 1.433 . S
C926 H922 0.929 . S
C926 C928 1.378 . S
C926 C930 1.350 . S
C927 C930 1.463 . S
C927 C932 1.350 . S
C927 N935 1.427 . S
C928 H919 0.930 . S
C928 C926 1.378 . S
C928 C929 1.367 . S
C929 C928 1.367 . S
C929 C931 1.433 . S
C930 C926 1.350 . S
C930 C927 1.463 . S
C930 N934 1.427 . S
C931 H921 0.929 . S
C931 C929 1.433 . S
C931 N934 1.384 . S
C932 H923 0.929 . S
C932 C924 1.378 . S
C932 C927 1.350 . S
C933 H920 0.929 . S
C933 C925 1.433 . S
C933 N935 1.384 . S
N934 C930 1.427 . S
N934 C931 1.384 . S
N935 C927 1.427 . S
N935 C933 1.384 . S
H936 C942 0.930 . S
H937 C946 0.930 . S
H938 C951 0.929 . S
H939 C949 0.929 . S
H940 C944 0.929 . S
H941 C950 0.929 . S
C942 H936 0.930 . S
C942 C943 1.367 . S
C942 C950 1.378 . S
C943 C942 1.367 . S
C943 C951 1.433 . S
C944 H940 0.929 . S
C944 C946 1.378 . S
C944 C948 1.350 . S
C945 C948 1.463 . S
C945 C950 1.350 . S
C945 N953 1.427 . S
C946 H937 0.930 . S
C946 C944 1.378 . S
C946 C947 1.367 . S
C947 C946 1.367 . S
C947 C949 1.433 . S
C948 C944 1.350 . S
C948 C945 1.463 . S
C948 N952 1.427 . S
C949 H939 0.929 . S
C949 C947 1.433 . S
C949 N952 1.384 . S
C950 H941 0.929 . S
C950 C942 1.378 . S
C950 C945 1.350 . S
C951 H938 0.929 . S
C951 C943 1.433 . S
C951 N953 1.384 . S
N952 C948 1.427 . S
N952 C949 1.384 . S
N953 C945 1.427 . S
N953 C951 1.384 . S
H954 C960 0.930 . S
H955 C964 0.930 . S
H956 C969 0.929 . S
H957 C967 0.929 . S
H958 C962 0.929 . S
H959 C968 0.929 . S
C960 H954 0.930 . S
C960 C961 1.367 . S
C960 C968 1.378 . S
C961 C960 1.367 . S
C961 C969 1.433 . S
C962 H958 0.929 . S
C962 C964 1.378 . S
C962 C966 1.350 . S
C963 C966 1.463 . S
C963 C968 1.350 . S
C963 N971 1.427 . S
C964 H955 0.930 . S
C964 C962 1.378 . S
C964 C965 1.367 . S
C965 C964 1.367 . S
C965 C967 1.433 . S
C966 C962 1.350 . S
C966 C963 1.463 . S
C966 N970 1.427 . S
C967 H957 0.929 . S
C967 C965 1.433 . S
C967 N970 1.384 . S
C968 H959 0.929 . S
C968 C960 1.378 . S
C968 C963 1.350 . S
C969 H956 0.929 . S
C969 C961 1.433 . S
C969 N971 1.384 . S
N970 C966 1.427 . S
N970 C967 1.384 . S
N971 C963 1.427 . S
N971 C969 1.384 . S
H972 C978 0.930 . S
H973 C982 0.930 . S
H974 C987 0.929 . S
H975 C985 0.929 . S
H976 C980 0.929 . S
H977 C986 0.929 . S
C978 H972 0.930 . S
C978 C979 1.367 . S
C978 C986 1.378 . S
C979 C978 1.367 . S
C979 C987 1.433 . S
C980 H976 0.929 . S
C980 C982 1.378 . S
C980 C984 1.350 . S
C981 C984 1.463 . S
C981 C986 1.350 . S
C981 N989 1.427 . S
C982 H973 0.930 . S
C982 C980 1.378 . S
C982 C983 1.367 . S
C983 C982 1.367 . S
C983 C985 1.433 . S
C984 C980 1.350 . S
C984 C981 1.463 . S
C984 N988 1.427 . S
C985 H975 0.929 . S
C985 C983 1.433 . S
C985 N988 1.384 . S
C986 H977 0.929 . S
C986 C978 1.378 . S
C986 C981 1.350 . S
C987 H974 0.929 . S
C987 C979 1.433 . S
C987 N989 1.384 . S
N988 C984 1.427 . S
N988 C985 1.384 . S
N989 C981 1.427 . S
N989 C987 1.384 . S
H990 C996 0.930 . S
H991 C1000 0.930 . S
H992 C1005 0.929 . S
H993 C1003 0.929 . S
H994 C998 0.929 . S
H995 C1004 0.929 . S
C996 H990 0.930 . S
C996 C997 1.367 . S
C996 C1004 1.378 . S
C997 C996 1.367 . S
C997 C1005 1.433 . S
C998 H994 0.929 . S
C998 C1000 1.378 . S
C998 C1002 1.350 . S
C999 C1002 1.463 . S
C999 C1004 1.350 . S
C999 N1007 1.427 . S
C1000 H991 0.930 . S
C1000 C998 1.378 . S
C1000 C1001 1.367 . S
C1001 C1000 1.367 . S
C1001 C1003 1.433 . S
C1002 C998 1.350 . S
C1002 C999 1.463 . S
C1002 N1006 1.427 . S
C1003 H993 0.929 . S
C1003 C1001 1.433 . S
C1003 N1006 1.384 . S
C1004 H995 0.929 . S
C1004 C996 1.378 . S
C1004 C999 1.350 . S
C1005 H992 0.929 . S
C1005 C997 1.433 . S
C1005 N1007 1.384 . S
N1006 C1002 1.427 . S
N1006 C1003 1.384 . S
N1007 C999 1.427 . S
N1007 C1005 1.384 . S
H1008 C1014 0.930 . S
H1009 C1018 0.930 . S
H1010 C1023 0.929 . S
H1011 C1021 0.929 . S
H1012 C1016 0.929 . S
H1013 C1022 0.929 . S
C1014 H1008 0.930 . S
C1014 C1015 1.367 . S
C1014 C1022 1.378 . S
C1015 C1014 1.367 . S
C1015 C1023 1.433 . S
C1016 H1012 0.929 . S
C1016 C1018 1.378 . S
C1016 C1020 1.350 . S
C1017 C1020 1.463 . S
C1017 C1022 1.350 . S
C1017 N1025 1.427 . S
C1018 H1009 0.930 . S
C1018 C1016 1.378 . S
C1018 C1019 1.367 . S
C1019 C1018 1.367 . S
C1019 C1021 1.433 . S
C1020 C1016 1.350 . S
C1020 C1017 1.463 . S
C1020 N1024 1.427 . S
C1021 H1011 0.929 . S
C1021 C1019 1.433 . S
C1021 N1024 1.384 . S
C1022 H1013 0.929 . S
C1022 C1014 1.378 . S
C1022 C1017 1.350 . S
C1023 H1010 0.929 . S
C1023 C1015 1.433 . S
C1023 N1025 1.384 . S
N1024 C1020 1.427 . S
N1024 C1021 1.384 . S
N1025 C1017 1.427 . S
N1025 C1023 1.384 . S
H1026 C1032 0.930 . S
H1027 C1036 0.930 . S
H1028 C1041 0.929 . S
H1029 C1039 0.929 . S
H1030 C1034 0.929 . S
H1031 C1040 0.929 . S
C1032 H1026 0.930 . S
C1032 C1033 1.367 . S
C1032 C1040 1.378 . S
C1033 C1032 1.367 . S
C1033 C1041 1.433 . S
C1034 H1030 0.929 . S
C1034 C1036 1.378 . S
C1034 C1038 1.350 . S
C1035 C1038 1.463 . S
C1035 C1040 1.350 . S
C1035 N1043 1.427 . S
C1036 H1027 0.930 . S
C1036 C1034 1.378 . S
C1036 C1037 1.367 . S
C1037 C1036 1.367 . S
C1037 C1039 1.433 . S
C1038 C1034 1.350 . S
C1038 C1035 1.463 . S
C1038 N1042 1.427 . S
C1039 H1029 0.929 . S
C1039 C1037 1.433 . S
C1039 N1042 1.384 . S
C1040 H1031 0.929 . S
C1040 C1032 1.378 . S
C1040 C1035 1.350 . S
C1041 H1028 0.929 . S
C1041 C1033 1.433 . S
C1041 N1043 1.384 . S
N1042 C1038 1.427 . S
N1042 C1039 1.384 . S
N1043 C1035 1.427 . S
N1043 C1041 1.384 . S
H1044 C1050 0.930 . S
H1045 C1054 0.930 . S
H1046 C1059 0.929 . S
H1047 C1057 0.929 . S
H1048 C1052 0.929 . S
H1049 C1058 0.929 . S
C1050 H1044 0.930 . S
C1050 C1051 1.367 . S
C1050 C1058 1.378 . S
C1051 C1050 1.367 . S
C1051 C1059 1.433 . S
C1052 H1048 0.929 . S
C1052 C1054 1.378 . S
C1052 C1056 1.350 1_545 S
C1053 C1056 1.463 . S
C1053 C1058 1.350 . S
C1053 N1061 1.427 . S
C1054 H1045 0.930 . S
C1054 C1052 1.378 . S
C1054 C1055 1.367 . S
C1055 C1054 1.367 . S
C1055 C1057 1.433 . S
C1056 C1052 1.350 1_565 S
C1056 C1053 1.463 . S
C1056 N1060 1.427 . S
C1057 H1047 0.929 . S
C1057 C1055 1.433 . S
C1057 N1060 1.384 1_545 S
C1058 H1049 0.929 . S
C1058 C1050 1.378 . S
C1058 C1053 1.350 . S
C1059 H1046 0.929 . S
C1059 C1051 1.433 . S
C1059 N1061 1.384 . S
N1060 C1056 1.427 . S
N1060 C1057 1.384 1_565 S
N1061 C1053 1.427 . S
N1061 C1059 1.384 . S
H1062 C1068 0.930 . S
H1063 C1072 0.930 . S
H1064 C1077 0.929 . S
H1065 C1075 0.929 . S
H1066 C1070 0.929 . S
H1067 C1076 0.929 . S
C1068 H1062 0.930 . S
C1068 C1069 1.367 . S
C1068 C1076 1.378 . S
C1069 C1068 1.367 . S
C1069 C1077 1.433 . S
C1070 H1066 0.929 . S
C1070 C1072 1.378 1_455 S
C1070 C1074 1.350 . S
C1071 C1074 1.463 . S
C1071 C1076 1.350 . S
C1071 N1079 1.427 . S
C1072 H1063 0.930 . S
C1072 C1070 1.378 1_655 S
C1072 C1073 1.367 . S
C1073 C1072 1.367 . S
C1073 C1075 1.433 . S
C1074 C1070 1.350 . S
C1074 C1071 1.463 . S
C1074 N1078 1.427 . S
C1075 H1065 0.929 . S
C1075 C1073 1.433 . S
C1075 N1078 1.384 1_655 S
C1076 H1067 0.929 . S
C1076 C1068 1.378 . S
C1076 C1071 1.350 . S
C1077 H1064 0.929 . S
C1077 C1069 1.433 . S
C1077 N1079 1.384 . S
N1078 C1074 1.427 . S
N1078 C1075 1.384 1_455 S
N1079 C1071 1.427 . S
N1079 C1077 1.384 . S
H1080 C1086 0.930 . S
H1081 C1090 0.930 . S
H1082 C1095 0.929 . S
H1083 C1093 0.929 . S
H1084 C1088 0.929 . S
H1085 C1094 0.929 . S
C1086 H1080 0.930 . S
C1086 C1087 1.367 . S
C1086 C1094 1.378 . S
C1087 C1086 1.367 . S
C1087 C1095 1.433 . S
C1088 H1084 0.929 . S
C1088 C1090 1.378 . S
C1088 C1092 1.350 . S
C1089 C1092 1.463 . S
C1089 C1094 1.350 . S
C1089 N1097 1.427 . S
C1090 H1081 0.930 . S
C1090 C1088 1.378 . S
C1090 C1091 1.367 . S
C1091 C1090 1.367 . S
C1091 C1093 1.433 . S
C1092 C1088 1.350 . S
C1092 C1089 1.463 . S
C1092 N1096 1.427 . S
C1093 H1083 0.929 . S
C1093 C1091 1.433 . S
C1093 N1096 1.384 . S
C1094 H1085 0.929 . S
C1094 C1086 1.378 . S
C1094 C1089 1.350 . S
C1095 H1082 0.929 . S
C1095 C1087 1.433 . S
C1095 N1097 1.384 . S
N1096 C1092 1.427 . S
N1096 C1093 1.384 . S
N1097 C1089 1.427 . S
N1097 C1095 1.384 . S
H1098 C1104 0.930 . S
H1099 C1108 0.930 . S
H1100 C1113 0.929 . S
H1101 C1111 0.929 . S
H1102 C1106 0.929 . S
H1103 C1112 0.929 . S
C1104 H1098 0.930 . S
C1104 C1105 1.367 . S
C1104 C1112 1.378 . S
C1105 C1104 1.367 . S
C1105 C1113 1.433 . S
C1106 H1102 0.929 . S
C1106 C1108 1.378 . S
C1106 C1110 1.350 . S
C1107 C1110 1.463 . S
C1107 C1112 1.350 . S
C1107 N1115 1.427 . S
C1108 H1099 0.930 . S
C1108 C1106 1.378 . S
C1108 C1109 1.367 . S
C1109 C1108 1.367 . S
C1109 C1111 1.433 . S
C1110 C1106 1.350 . S
C1110 C1107 1.463 . S
C1110 N1114 1.427 . S
C1111 H1101 0.929 . S
C1111 C1109 1.433 . S
C1111 N1114 1.384 . S
C1112 H1103 0.929 . S
C1112 C1104 1.378 . S
C1112 C1107 1.350 . S
C1113 H1100 0.929 . S
C1113 C1105 1.433 . S
C1113 N1115 1.384 . S
N1114 C1110 1.427 . S
N1114 C1111 1.384 . S
N1115 C1107 1.427 . S
N1115 C1113 1.384 . S
H1116 C1122 0.930 . S
H1117 C1126 0.930 . S
H1118 C1131 0.929 1_545 S
H1119 C1129 0.929 . S
H1120 C1124 0.929 . S
H1121 C1130 0.929 . S
C1122 H1116 0.930 . S
C1122 C1123 1.367 . S
C1122 C1130 1.378 . S
C1123 C1122 1.367 . S
C1123 C1131 1.433 . S
C1124 H1120 0.929 . S
C1124 C1126 1.378 . S
C1124 C1128 1.350 . S
C1125 C1128 1.463 . S
C1125 C1130 1.350 . S
C1125 N1133 1.427 . S
C1126 H1117 0.930 . S
C1126 C1124 1.378 . S
C1126 C1127 1.367 . S
C1127 C1126 1.367 . S
C1127 C1129 1.433 . S
C1128 C1124 1.350 . S
C1128 C1125 1.463 . S
C1128 N1132 1.427 . S
C1129 H1119 0.929 . S
C1129 C1127 1.433 . S
C1129 N1132 1.384 . S
C1130 H1121 0.929 . S
C1130 C1122 1.378 . S
C1130 C1125 1.350 . S
C1131 H1118 0.929 1_565 S
C1131 C1123 1.433 . S
C1131 N1133 1.384 . S
N1132 C1128 1.427 . S
N1132 C1129 1.384 . S
N1133 C1125 1.427 . S
N1133 C1131 1.384 . S
H1134 C1140 0.930 . S
H1135 C1144 0.930 . S
H1136 C1149 0.929 1_565 S
H1137 C1147 0.929 . S
H1138 C1142 0.929 . S
H1139 C1148 0.929 . S
C1140 H1134 0.930 . S
C1140 C1141 1.367 . S
C1140 C1148 1.378 . S
C1141 C1140 1.367 . S
C1141 C1149 1.433 . S
C1142 H1138 0.929 . S
C1142 C1144 1.378 . S
C1142 C1146 1.350 . S
C1143 C1146 1.463 . S
C1143 C1148 1.350 . S
C1143 N1151 1.427 . S
C1144 H1135 0.930 . S
C1144 C1142 1.378 . S
C1144 C1145 1.367 . S
C1145 C1144 1.367 . S
C1145 C1147 1.433 . S
C1146 C1142 1.350 . S
C1146 C1143 1.463 . S
C1146 N1150 1.427 . S
C1147 H1137 0.929 . S
C1147 C1145 1.433 . S
C1147 N1150 1.384 . S
C1148 H1139 0.929 . S
C1148 C1140 1.378 . S
C1148 C1143 1.350 . S
C1149 H1136 0.929 1_545 S
C1149 C1141 1.433 . S
C1149 N1151 1.384 . S
N1150 C1146 1.427 . S
N1150 C1147 1.384 . S
N1151 C1143 1.427 . S
N1151 C1149 1.384 . S
H1152 C1158 0.930 . S
H1153 C1162 0.930 . S
H1154 C1167 0.929 . S
H1155 C1165 0.929 . S
H1156 C1160 0.929 . S
H1157 C1166 0.929 . S
C1158 H1152 0.930 . S
C1158 C1159 1.367 . S
C1158 C1166 1.378 . S
C1159 C1158 1.367 . S
C1159 C1167 1.433 . S
C1160 H1156 0.929 . S
C1160 C1162 1.378 . S
C1160 C1164 1.350 . S
C1161 C1164 1.463 . S
C1161 C1166 1.350 . S
C1161 N1169 1.427 . S
C1162 H1153 0.930 . S
C1162 C1160 1.378 . S
C1162 C1163 1.367 . S
C1163 C1162 1.367 . S
C1163 C1165 1.433 . S
C1164 C1160 1.350 . S
C1164 C1161 1.463 . S
C1164 N1168 1.427 . S
C1165 H1155 0.929 . S
C1165 C1163 1.433 . S
C1165 N1168 1.384 . S
C1166 H1157 0.929 . S
C1166 C1158 1.378 . S
C1166 C1161 1.350 . S
C1167 H1154 0.929 . S
C1167 C1159 1.433 . S
C1167 N1169 1.384 . S
N1168 C1164 1.427 . S
N1168 C1165 1.384 . S
N1169 C1161 1.427 . S
N1169 C1167 1.384 . S
H1170 C1176 0.930 . S
H1171 C1180 0.930 . S
H1172 C1185 0.929 . S
H1173 C1183 0.929 . S
H1174 C1178 0.929 . S
H1175 C1184 0.929 . S
C1176 H1170 0.930 . S
C1176 C1177 1.367 . S
C1176 C1184 1.378 . S
C1177 C1176 1.367 . S
C1177 C1185 1.433 . S
C1178 H1174 0.929 . S
C1178 C1180 1.378 . S
C1178 C1182 1.350 . S
C1179 C1182 1.463 . S
C1179 C1184 1.350 . S
C1179 N1187 1.427 . S
C1180 H1171 0.930 . S
C1180 C1178 1.378 . S
C1180 C1181 1.367 . S
C1181 C1180 1.367 . S
C1181 C1183 1.433 . S
C1182 C1178 1.350 . S
C1182 C1179 1.463 . S
C1182 N1186 1.427 . S
C1183 H1173 0.929 . S
C1183 C1181 1.433 . S
C1183 N1186 1.384 . S
C1184 H1175 0.929 . S
C1184 C1176 1.378 . S
C1184 C1179 1.350 . S
C1185 H1172 0.929 . S
C1185 C1177 1.433 . S
C1185 N1187 1.384 . S
N1186 C1182 1.427 . S
N1186 C1183 1.384 . S
N1187 C1179 1.427 . S
N1187 C1185 1.384 . S
H1188 C1194 0.930 . S
H1189 C1198 0.930 . S
H1190 C1203 0.929 . S
H1191 C1201 0.929 . S
H1192 C1196 0.929 . S
H1193 C1202 0.929 . S
C1194 H1188 0.930 . S
C1194 C1195 1.367 . S
C1194 C1202 1.378 . S
C1195 C1194 1.367 . S
C1195 C1203 1.433 . S
C1196 H1192 0.929 . S
C1196 C1198 1.378 . S
C1196 C1200 1.350 . S
C1197 C1200 1.463 . S
C1197 C1202 1.350 . S
C1197 N1205 1.427 . S
C1198 H1189 0.930 . S
C1198 C1196 1.378 . S
C1198 C1199 1.367 . S
C1199 C1198 1.367 . S
C1199 C1201 1.433 . S
C1200 C1196 1.350 . S
C1200 C1197 1.463 . S
C1200 N1204 1.427 . S
C1201 H1191 0.929 . S
C1201 C1199 1.433 . S
C1201 N1204 1.384 . S
C1202 H1193 0.929 . S
C1202 C1194 1.378 . S
C1202 C1197 1.350 . S
C1203 H1190 0.929 . S
C1203 C1195 1.433 . S
C1203 N1205 1.384 . S
N1204 C1200 1.427 . S
N1204 C1201 1.384 . S
N1205 C1197 1.427 . S
N1205 C1203 1.384 . S
H1206 C1212 0.930 . S
H1207 C1216 0.930 . S
H1208 C1221 0.929 . S
H1209 C1219 0.929 . S
H1210 C1214 0.929 . S
H1211 C1220 0.929 . S
C1212 H1206 0.930 . S
C1212 C1213 1.367 . S
C1212 C1220 1.378 . S
C1213 C1212 1.367 . S
C1213 C1221 1.433 . S
C1214 H1210 0.929 . S
C1214 C1216 1.378 . S
C1214 C1218 1.350 . S
C1215 C1218 1.463 . S
C1215 C1220 1.350 1_545 S
C1215 N1223 1.427 . S
C1216 H1207 0.930 . S
C1216 C1214 1.378 . S
C1216 C1217 1.367 . S
C1217 C1216 1.367 . S
C1217 C1219 1.433 . S
C1218 C1214 1.350 . S
C1218 C1215 1.463 . S
C1218 N1222 1.427 . S
C1219 H1209 0.929 . S
C1219 C1217 1.433 . S
C1219 N1222 1.384 . S
C1220 H1211 0.929 . S
C1220 C1212 1.378 . S
C1220 C1215 1.350 1_565 S
C1221 H1208 0.929 . S
C1221 C1213 1.433 . S
C1221 N1223 1.384 1_565 S
N1222 C1218 1.427 . S
N1222 C1219 1.384 . S
N1223 C1215 1.427 . S
N1223 C1221 1.384 1_545 S
H1224 C1230 0.930 . S
H1225 C1234 0.930 . S
H1226 C1239 0.929 . S
H1227 C1237 0.929 . S
H1228 C1232 0.929 . S
H1229 C1238 0.929 . S
C1230 H1224 0.930 . S
C1230 C1231 1.367 . S
C1230 C1238 1.378 . S
C1231 C1230 1.367 . S
C1231 C1239 1.433 . S
C1232 H1228 0.929 . S
C1232 C1234 1.378 . S
C1232 C1236 1.350 . S
C1233 C1236 1.463 1_655 S
C1233 C1238 1.350 . S
C1233 N1241 1.427 . S
C1234 H1225 0.930 . S
C1234 C1232 1.378 . S
C1234 C1235 1.367 . S
C1235 C1234 1.367 . S
C1235 C1237 1.433 . S
C1236 C1232 1.350 . S
C1236 C1233 1.463 1_455 S
C1236 N1240 1.427 1_455 S
C1237 H1227 0.929 . S
C1237 C1235 1.433 . S
C1237 N1240 1.384 1_455 S
C1238 H1229 0.929 . S
C1238 C1230 1.378 . S
C1238 C1233 1.350 . S
C1239 H1226 0.929 . S
C1239 C1231 1.433 . S
C1239 N1241 1.384 . S
N1240 C1236 1.427 1_655 S
N1240 C1237 1.384 1_655 S
N1241 C1233 1.427 . S
N1241 C1239 1.384 . S
C763 C151 1.224 . S
C767 C58 1.079 . S
C781 C235 1.215 . S
C785 C142 1.049 . S
C799 C226 1.053 . S
C803 C67 1.217 . S
C817 C224 1.487 . S
C821 C153 1.281 . S
C835 C237 1.282 . S
C839 C56 1.491 . S
C853 C69 1.261 . S
C857 C140 1.482 . S
C871 C310 1.049 . S
C875 C403 1.213 . S
C889 C487 1.216 . S
C893 C394 1.051 . S
C907 C478 1.084 . S
C911 C319 1.230 . S
C925 C405 1.283 . S
C929 C476 1.491 . S
C943 C489 1.275 . S
C947 C308 1.483 . S
C961 C392 1.491 . S
C965 C321 1.283 . S
C979 C655 1.223 . S
C983 C562 1.062 . S
C997 C646 1.070 . S
C1001 C739 1.226 . S
C1015 C730 1.076 . S
C1019 C571 1.222 . S
C1033 C728 1.490 . S
C1037 C657 1.277 1_565 S
C1051 C741 1.252 . S
C1055 C560 1.475 . S
C1069 C573 1.281 . S
C1073 C644 1.487 . S
C1087 C494 2.412 . S
C1091 C63 2.567 . S
C1105 C326 2.421 . S
C1109 C147 2.563 . S
C1123 C231 2.569 . S
C1127 C410 2.413 . S
C1141 C242 2.424 . S
C1145 C567 2.563 . S
C1159 C74 2.416 . S
C1163 C651 2.563 . S
C1177 C735 2.570 . S
C1181 C158 2.417 . S
C1195 C315 2.564 . S
C1199 C746 2.415 . S
C1213 C399 2.565 . S
C1217 C578 2.425 . S
C1231 C662 2.425 . S
C1235 C483 2.568 . S
