# Generated by pormake.
# Topology wjd, (6)-cn, num edge types: 1
# Building blocks:
#     Node 0, Type 0, BuildingBlock: BETDIP_clean_sbu_0, # of connection points: 6
#     Node 1, Type 0, BuildingBlock: BETDIP_clean_sbu_0, # of connection points: 6
#     Node 2, Type 0, BuildingBlock: BETDIP_clean_sbu_0, # of connection points: 6
#     Node 3, Type 0, BuildingBlock: BETDIP_clean_sbu_0, # of connection points: 6
#     Node 4, Type 0, BuildingBlock: BETDIP_clean_sbu_0, # of connection points: 6
#     Node 5, Type 0, BuildingBlock: BETDIP_clean_sbu_0, # of connection points: 6
#     Node 6, Type 0, BuildingBlock: BETDIP_clean_sbu_0, # of connection points: 6
#     Node 7, Type 0, BuildingBlock: BETDIP_clean_sbu_0, # of connection points: 6
#     Node 8, Type 0, BuildingBlock: BETDIP_clean_sbu_0, # of connection points: 6
#     Node 9, Type 0, BuildingBlock: BETDIP_clean_sbu_0, # of connection points: 6
#     Node 10, Type 0, BuildingBlock: BETDIP_clean_sbu_0, # of connection points: 6
#     Node 11, Type 0, BuildingBlock: BETDIP_clean_sbu_0, # of connection points: 6
#     Edge 12, Type (0, 0), BuildingBlock: XIVTED_clean_linker_0, # of connection points: 2
#     Edge 13, Type (0, 0), BuildingBlock: XIVTED_clean_linker_0, # of connection points: 2
#     Edge 14, Type (0, 0), BuildingBlock: XIVTED_clean_linker_0, # of connection points: 2
#     Edge 15, Type (0, 0), BuildingBlock: XIVTED_clean_linker_0, # of connection points: 2
#     Edge 16, Type (0, 0), BuildingBlock: XIVTED_clean_linker_0, # of connection points: 2
#     Edge 17, Type (0, 0), BuildingBlock: XIVTED_clean_linker_0, # of connection points: 2
#     Edge 18, Type (0, 0), BuildingBlock: XIVTED_clean_linker_0, # of connection points: 2
#     Edge 19, Type (0, 0), BuildingBlock: XIVTED_clean_linker_0, # of connection points: 2
#     Edge 20, Type (0, 0), BuildingBlock: XIVTED_clean_linker_0, # of connection points: 2
#     Edge 21, Type (0, 0), BuildingBlock: XIVTED_clean_linker_0, # of connection points: 2
#     Edge 22, Type (0, 0), BuildingBlock: XIVTED_clean_linker_0, # of connection points: 2
#     Edge 23, Type (0, 0), BuildingBlock: XIVTED_clean_linker_0, # of connection points: 2
#     Edge 24, Type (0, 0), BuildingBlock: XIVTED_clean_linker_0, # of connection points: 2
#     Edge 25, Type (0, 0), BuildingBlock: XIVTED_clean_linker_0, # of connection points: 2
#     Edge 26, Type (0, 0), BuildingBlock: XIVTED_clean_linker_0, # of connection points: 2
#     Edge 27, Type (0, 0), BuildingBlock: XIVTED_clean_linker_0, # of connection points: 2
#     Edge 28, Type (0, 0), BuildingBlock: XIVTED_clean_linker_0, # of connection points: 2
#     Edge 29, Type (0, 0), BuildingBlock: XIVTED_clean_linker_0, # of connection points: 2
#     Edge 30, Type (0, 0), BuildingBlock: XIVTED_clean_linker_0, # of connection points: 2
#     Edge 31, Type (0, 0), BuildingBlock: XIVTED_clean_linker_0, # of connection points: 2
#     Edge 32, Type (0, 0), BuildingBlock: XIVTED_clean_linker_0, # of connection points: 2
#     Edge 33, Type (0, 0), BuildingBlock: XIVTED_clean_linker_0, # of connection points: 2
#     Edge 34, Type (0, 0), BuildingBlock: XIVTED_clean_linker_0, # of connection points: 2
#     Edge 35, Type (0, 0), BuildingBlock: XIVTED_clean_linker_0, # of connection points: 2
#     Edge 36, Type (0, 0), BuildingBlock: XIVTED_clean_linker_0, # of connection points: 2
#     Edge 37, Type (0, 0), BuildingBlock: XIVTED_clean_linker_0, # of connection points: 2
#     Edge 38, Type (0, 0), BuildingBlock: XIVTED_clean_linker_0, # of connection points: 2
#     Edge 39, Type (0, 0), BuildingBlock: XIVTED_clean_linker_0, # of connection points: 2
#     Edge 40, Type (0, 0), BuildingBlock: XIVTED_clean_linker_0, # of connection points: 2
#     Edge 41, Type (0, 0), BuildingBlock: XIVTED_clean_linker_0, # of connection points: 2
#     Edge 42, Type (0, 0), BuildingBlock: XIVTED_clean_linker_0, # of connection points: 2
#     Edge 43, Type (0, 0), BuildingBlock: XIVTED_clean_linker_0, # of connection points: 2
#     Edge 44, Type (0, 0), BuildingBlock: XIVTED_clean_linker_0, # of connection points: 2
#     Edge 45, Type (0, 0), BuildingBlock: XIVTED_clean_linker_0, # of connection points: 2
#     Edge 46, Type (0, 0), BuildingBlock: XIVTED_clean_linker_0, # of connection points: 2
#     Edge 47, Type (0, 0), BuildingBlock: XIVTED_clean_linker_0, # of connection points: 2
# Relax obj value: 0.105
# Max RMSD: 0.214
# Mean RMSD: 0.214
data_MOF--net-wjd--node1-BETDIP_clean_sbu_0--edge1-XIVTED_clean_linker_0
_symmetry_space_group_name_H-M    P1
_symmetry_Int_Tables_number       1
_symmetry_cell_setting            triclinic
loop_
_symmetry_equiv_pos_as_xyz
'x, y, z'
_cell_length_a     40.279306
_cell_length_b     40.307961
_cell_length_c     50.934448
_cell_angle_alpha  90.143016
_cell_angle_beta   90.009491
_cell_angle_gamma 120.07118
loop_
_atom_site_label
_atom_site_type_symbol
_atom_site_fract_x
_atom_site_fract_y
_atom_site_fract_z
_atom_type_partial_charge
Tb0 Tb 0.38271 0.18577 0.13222 0.0
Tb1 Tb 0.33554 0.10146 0.15129 0.0
C2 C 0.42757 0.2549 0.12085 0.0
C3 C 0.46262 0.29057 0.12817 0.0
C4 C 0.47824 0.29721 0.15358 0.0
C5 C 0.50921 0.33335 0.16033 0.0
C6 C 0.52457 0.36332 0.14184 0.0
C7 C 0.50936 0.35592 0.11626 0.0
C8 C 0.47877 0.31995 0.10954 0.0
C9 C 0.34763 0.1308 0.09642 0.0
C10 C 0.42553 0.14267 0.15207 0.0
C11 C 0.2903 0.03077 0.14664 0.0
C12 C 0.2498 1.00454 0.15305 0.0
C13 C 0.234 0.96519 0.14866 0.0
C14 C 0.1946 0.94033 0.15161 0.0
C15 C 0.17022 0.95444 0.15886 0.0
C16 C 0.18635 0.99392 0.16376 0.0
C17 C 0.22586 0.01875 0.16096 0.0
C18 C 0.35571 0.14786 0.19221 0.0
C19 C 0.29746 0.15449 0.14763 0.0
O20 O 0.39806 0.24328 0.13655 0.0
O21 O 0.4312 0.22659 0.11143 0.0
O22 O 0.36482 0.13023 0.11667 0.0
O23 O 0.34981 0.16385 0.09506 0.0
O24 O 0.42618 0.1758 0.14996 0.0
O25 O 0.3933 0.10904 0.14986 0.0
O26 O 0.29577 0.05586 0.1284 0.0
O27 O 0.31431 0.04593 0.1664 0.0
O28 O 0.3632 0.1569 0.16838 0.0
O29 O 0.33538 0.11078 0.19369 0.0
O30 O 0.29184 0.11905 0.14671 0.0
O31 O 0.33178 0.1851 0.14539 0.0
H32 H 0.46597 0.27485 0.16827 0.0
H33 H 0.52033 0.3382 0.18019 0.0
H34 H 0.52101 0.3781 0.10142 0.0
H35 H 0.46706 0.31535 0.08984 0.0
H36 H 0.25198 0.95382 0.14222 0.0
H37 H 0.18306 0.91017 0.14734 0.0
H38 H 0.16842 1.00561 0.16962 0.0
H39 H 0.23756 0.04914 0.16434 0.0
Tb40 Tb 0.79973 0.71183 0.41734 0.0
Tb41 Tb 0.84242 0.66782 0.43341 0.0
C42 C 0.77307 0.75547 0.4246 0.0
C43 C 0.78758 0.79665 0.42005 0.0
C44 C 0.79154 0.82014 0.44161 0.0
C45 C 0.80857 0.85977 0.43862 0.0
C46 C 0.82167 0.8768 0.41393 0.0
C47 C 0.81697 0.85322 0.39218 0.0
C48 C 0.80032 0.8135 0.39524 0.0
C49 C 0.82547 0.69354 0.37523 0.0
C50 C 0.8915 0.75419 0.41884 0.0
C51 C 0.86979 0.62444 0.44042 0.0
C52 C 0.86872 0.5889 0.43141 0.0
C53 C 0.90015 0.59173 0.41749 0.0
C54 C 0.90291 0.55913 0.41223 0.0
C55 C 0.87441 0.52282 0.42095 0.0
C56 C 0.84219 0.51977 0.43405 0.0
C57 C 0.83942 0.55245 0.43929 0.0
C58 C 0.82192 0.69991 0.47091 0.0
C59 C 0.7544 0.62207 0.41642 0.0
O60 O 0.7922 0.7485 0.44243 0.0
O61 O 0.76417 0.73268 0.40407 0.0
O62 O 0.82882 0.68697 0.3989 0.0
O63 O 0.80655 0.71181 0.37445 0.0
O64 O 0.86041 0.75758 0.42088 0.0
O65 O 0.89039 0.72096 0.42032 0.0
O66 O 0.88463 0.65377 0.42438 0.0
O67 O 0.84033 0.62141 0.45351 0.0
O68 O 0.80368 0.68271 0.45075 0.0
O69 O 0.85376 0.6993 0.4713 0.0
O70 O 0.78779 0.6229 0.41743 0.0
O71 O 0.75146 0.65332 0.41925 0.0
H72 H 0.78209 0.80783 0.46095 0.0
H73 H 0.81124 0.87711 0.45565 0.0
H74 H 0.82692 0.8656 0.37293 0.0
H75 H 0.79806 0.79617 0.37831 0.0
H76 H 0.92339 0.61943 0.41139 0.0
H77 H 0.92779 0.56253 0.40173 0.0
H78 H 0.81986 0.49235 0.44128 0.0
H79 H 0.81501 0.54924 0.45032 0.0
Tb80 Tb 0.86479 0.20418 0.13455 0.0
Tb81 Tb 0.95122 0.24868 0.15164 0.0
C82 C 0.79375 0.1749 0.12704 0.0
C83 C 0.75857 0.17442 0.13621 0.0
C84 C 0.72955 0.14123 0.14832 0.0
C85 C 0.69386 0.13752 0.1539 0.0
C86 C 0.68611 0.16684 0.14734 0.0
C87 C 0.71565 0.20068 0.13602 0.0
C88 C 0.75146 0.20441 0.13046 0.0
C89 C 0.9182 0.22577 0.0976 0.0
C90 C 0.90481 0.29202 0.15159 0.0
C91 C 1.02227 0.27782 0.14594 0.0
C92 C 0.0496 0.26478 0.15188 0.0
C93 C 0.08807 0.28744 0.14457 0.0
C94 C 0.11344 0.2735 0.14734 0.0
C95 C 0.10066 0.23647 0.15729 0.0
C96 C 0.06209 0.21402 0.16494 0.0
C97 C 0.03681 0.22813 0.16235 0.0
C98 C 0.90634 0.22144 0.19327 0.0
C99 C 0.90392 0.15711 0.14952 0.0
O100 O 0.80886 0.16036 0.14282 0.0
O101 O 0.81979 0.20517 0.11443 0.0
O102 O 0.91861 0.24389 0.11766 0.0
O103 O 0.88601 0.19361 0.09696 0.0
O104 O 0.87275 0.2582 0.15025 0.0
O105 O 0.93949 0.29591 0.14935 0.0
O106 O 0.99706 0.25759 0.12781 0.0
O107 O 1.00682 0.28561 0.16602 0.0
O108 O 0.89685 0.21829 0.1695 0.0
O109 O 0.94354 0.2409 0.19442 0.0
O110 O 0.93797 0.18873 0.14747 0.0
O111 O 0.87127 0.15721 0.14807 0.0
H112 H 0.73404 0.11749 0.15277 0.0
H113 H 0.67211 0.11135 0.16303 0.0
H114 H 0.71066 0.22373 0.13046 0.0
H115 H 0.77304 0.23024 0.1209 0.0
H116 H 0.09829 0.31554 0.1361 0.0
H117 H 0.14284 0.29133 0.14096 0.0
H118 H 0.05148 0.18558 0.17291 0.0
H119 H 1.00711 0.21014 0.16801 0.0
Tb120 Tb 0.33435 0.09703 0.41505 0.0
Tb121 Tb 0.38021 0.18232 0.43381 0.0
C122 C 0.28884 0.02662 0.42066 0.0
C123 C 0.24719 1.00087 0.41675 0.0
C124 C 0.22418 0.98297 0.43877 0.0
C125 C 0.18439 0.96079 0.43635 0.0
C126 C 0.16665 0.95562 0.41175 0.0
C127 C 0.18968 0.97288 0.38955 0.0
C128 C 0.22962 0.99554 0.39204 0.0
C129 C 0.35581 0.14329 0.37413 0.0
C130 C 0.29492 0.14901 0.41716 0.0
C131 C 0.42372 0.25189 0.4448 0.0
C132 C 0.45972 0.28738 0.43899 0.0
C133 C 0.47816 0.29415 0.41457 0.0
C134 C 0.51003 0.33021 0.40907 0.0
C135 C 0.52347 0.35994 0.42783 0.0
C136 C 0.50547 0.35239 0.45246 0.0
C137 C 0.47399 0.3165 0.45796 0.0
C138 C 0.34474 0.12791 0.46958 0.0
C139 C 0.42434 0.13908 0.4158 0.0
O140 O 0.29746 0.05201 0.43934 0.0
O141 O 0.31081 0.04105 0.39987 0.0
O142 O 0.36183 0.15214 0.39808 0.0
O143 O 0.33644 0.10613 0.3724 0.0
O144 O 0.28989 0.1138 0.41831 0.0
O145 O 0.32883 0.18013 0.41988 0.0
O146 O 0.39661 0.23961 0.42696 0.0
O147 O 0.42584 0.22403 0.45643 0.0
O148 O 0.36263 0.12729 0.44972 0.0
O149 O 0.34626 0.16071 0.47048 0.0
O150 O 0.42483 0.17218 0.41807 0.0
O151 O 0.39219 0.10524 0.41715 0.0
H152 H 0.23703 0.98662 0.45805 0.0
H153 H 0.1675 0.94732 0.45373 0.0
H154 H 0.17675 0.9694 0.37035 0.0
H155 H 0.24656 1.00921 0.37472 0.0
H156 H 0.46739 0.27197 0.39964 0.0
H157 H 0.52334 0.33523 0.38992 0.0
H158 H 0.51558 0.37442 0.46749 0.0
H159 H 0.4601 0.31177 0.47691 0.0
Tb160 Tb 0.83832 0.66663 0.13413 0.0
Tb161 Tb 0.80186 0.71566 0.15142 0.0
C162 C 0.86106 0.61963 0.12607 0.0
C163 C 0.86019 0.58479 0.13631 0.0
C164 C 0.8901 0.58826 0.15247 0.0
C165 C 0.89326 0.55616 0.1586 0.0
C166 C 0.86673 0.5198 0.14859 0.0
C167 C 0.8359 0.51606 0.13332 0.0
C168 C 0.83275 0.54821 0.12716 0.0
C169 C 0.81752 0.69894 0.0971 0.0
C170 C 0.75252 0.62609 0.1547 0.0
C171 C 0.77781 0.76148 0.14472 0.0
C172 C 0.79349 0.80278 0.14956 0.0
C173 C 0.79636 0.82626 0.12838 0.0
C174 C 0.81424 0.86594 0.1315 0.0
C175 C 0.82932 0.88299 0.15598 0.0
C176 C 0.82582 0.85944 0.17737 0.0
C177 C 0.80831 0.81965 0.17415 0.0
C178 C 0.82894 0.69782 0.19288 0.0
C179 C 0.89296 0.75293 0.14733 0.0
O180 O 0.88038 0.65138 0.13963 0.0
O181 O 0.82959 0.61614 0.11577 0.0
O182 O 0.80055 0.68368 0.11798 0.0
O183 O 0.84796 0.69591 0.09562 0.0
O184 O 0.78486 0.62501 0.15298 0.0
O185 O 0.75134 0.65822 0.1514 0.0
O186 O 0.79633 0.75383 0.12676 0.0
O187 O 0.76827 0.73854 0.16513 0.0
O188 O 0.82962 0.68889 0.16927 0.0
O189 O 0.81248 0.71848 0.19387 0.0
O190 O 0.86323 0.75869 0.14619 0.0
O191 O 0.88912 0.7185 0.14576 0.0
H192 H 0.912 0.61605 0.15963 0.0
H193 H 0.91702 0.55999 0.17072 0.0
H194 H 0.81517 0.48858 0.12504 0.0
H195 H 0.8097 0.54457 0.11434 0.0
H196 H 0.78532 0.81388 0.1092 0.0
H197 H 0.81597 0.8833 0.11478 0.0
H198 H 0.83729 0.87188 0.19644 0.0
H199 H 0.80694 0.80227 0.19074 0.0
Tb200 Tb 0.94959 0.24441 0.41731 0.0
Tb201 Tb 0.86341 0.2022 0.43434 0.0
C202 C 1.02052 0.27185 0.4226 0.0
C203 C 0.04695 0.25794 0.41595 0.0
C204 C 0.086 0.28047 0.42195 0.0
C205 C 0.11064 0.26576 0.41855 0.0
C206 C 0.09654 0.22807 0.40931 0.0
C207 C 0.05743 0.2058 0.40286 0.0
C208 C 0.03288 0.22069 0.40604 0.0
C209 C 0.90466 0.21781 0.37555 0.0
C210 C 0.90006 0.15284 0.41941 0.0
C211 C 0.79302 0.17387 0.44359 0.0
C212 C 0.7577 0.1748 0.43785 0.0
C213 C 0.752 0.18893 0.41411 0.0
C214 C 0.71631 0.18566 0.4086 0.0
C215 C 0.68583 0.16791 0.42665 0.0
C216 C 0.69227 0.15484 0.45062 0.0
C217 C 0.72779 0.15829 0.45612 0.0
C218 C 0.91691 0.22182 0.47111 0.0
C219 C 0.90536 0.29022 0.41807 0.0
O220 O 0.9953 0.25164 0.44065 0.0
O221 O 1.00529 0.28068 0.40294 0.0
O222 O 0.89508 0.21529 0.39927 0.0
O223 O 0.94185 0.23594 0.37459 0.0
O224 O 0.93457 0.1839 0.4215 0.0
O225 O 0.86798 0.15405 0.4208 0.0
O226 O 0.80669 0.16167 0.42492 0.0
O227 O 0.81996 0.20238 0.45712 0.0
O228 O 0.9177 0.24064 0.4514 0.0
O229 O 0.88455 0.18986 0.47121 0.0
O230 O 0.87266 0.25702 0.41962 0.0
O231 O 0.93957 0.29286 0.41984 0.0
H232 H 0.09725 0.30908 0.42991 0.0
H233 H 0.14053 0.28349 0.42398 0.0
H234 H 0.04581 0.17686 0.39544 0.0
H235 H 1.00276 0.20281 0.40133 0.0
H236 H 0.77477 0.20168 0.3997 0.0
H237 H 0.71221 0.19598 0.38996 0.0
H238 H 0.66972 0.14177 0.46516 0.0
H239 H 0.73166 0.14724 0.47455 0.0
Tb240 Tb 0.10659 0.32384 0.65092 0.0
Tb241 Tb 0.19281 0.36594 0.63377 0.0
C242 C 0.03546 0.28156 0.64568 0.0
C243 C 1.00837 0.24137 0.65228 0.0
C244 C 0.96966 0.22517 0.64541 0.0
C245 C 0.94451 0.18588 0.64865 0.0
C246 C 0.95777 0.16202 0.65861 0.0
C247 C 0.99653 0.17856 0.66593 0.0
C248 C 1.02158 0.21794 0.66288 0.0
C249 C 0.15166 0.34198 0.69257 0.0
C250 C 0.15437 0.28011 0.64937 0.0
C251 C 0.26328 0.40717 0.6243 0.0
C252 C 0.2988 0.44322 0.63031 0.0
C253 C 0.30318 0.46477 0.65307 0.0
C254 C 0.33868 0.49746 0.65876 0.0
C255 C 0.37028 0.50876 0.64186 0.0
C256 C 0.36521 0.48736 0.61887 0.0
C257 C 0.32989 0.45501 0.61319 0.0
C258 C 0.13904 0.33239 0.5971 0.0
C259 C 0.15275 0.4137 0.65045 0.0
O260 O 0.06042 0.28594 0.62758 0.0
O261 O 0.05118 0.3056 0.66538 0.0
O262 O 0.1611 0.34846 0.66882 0.0
O263 O 0.11447 0.32363 0.69366 0.0
O264 O 0.12022 0.27738 0.64711 0.0
O265 O 0.18694 0.31298 0.6478 0.0
O266 O 0.24938 0.38108 0.64277 0.0
O267 O 0.2365 0.40933 0.61108 0.0
O268 O 0.13876 0.35098 0.61672 0.0
O269 O 0.17098 0.33201 0.59705 0.0
O270 O 0.1849 0.41221 0.64885 0.0
O271 O 0.11809 0.38275 0.64844 0.0
H272 H 0.95909 0.24273 0.63688 0.0
H273 H 0.91493 0.17397 0.64252 0.0
H274 H 1.00751 0.16105 0.6739 0.0
H275 H 0.05146 0.22994 0.66823 0.0
H276 H 0.27945 0.45601 0.66657 0.0
H277 H 0.34167 0.5133 0.67665 0.0
H278 H 0.3886 0.49565 0.60515 0.0
H279 H 0.32702 0.43876 0.5955 0.0
Tb280 Tb 0.21523 0.85505 0.93332 0.0
Tb281 Tb 0.25521 0.94051 0.91507 0.0
C282 C 0.18897 0.78533 0.9437 0.0
C283 C 0.18981 0.74987 0.93827 0.0
C284 C 0.20162 0.74264 0.91402 0.0
C285 C 0.19781 0.70661 0.90893 0.0
C286 C 0.18174 0.67732 0.92791 0.0
C287 C 0.17112 0.68534 0.95236 0.0
C288 C 0.17517 0.72121 0.95745 0.0
C289 C 0.23526 0.90947 0.96942 0.0
C290 C 0.30273 0.89818 0.91526 0.0
C291 C 0.28029 1.01085 0.92127 0.0
C292 C 0.26462 0.0367 0.91726 0.0
C293 C 0.26003 0.05518 0.9392 0.0
C294 C 0.24253 0.07741 0.93671 0.0
C295 C 0.22958 0.08204 0.91213 0.0
C296 C 0.23483 0.06417 0.89001 0.0
C297 C 0.25197 0.04147 0.89257 0.0
C298 C 0.2298 0.89452 0.87392 0.0
C299 C 0.16352 0.88884 0.91725 0.0
O300 O 0.17498 0.7977 0.9254 0.0
O301 O 0.21824 0.81316 0.9561 0.0
O302 O 0.25339 0.91 0.94937 0.0
O303 O 0.2037 0.87681 0.97034 0.0
O304 O 0.26996 0.86514 0.91751 0.0
O305 O 0.30468 0.93209 0.91684 0.0
O306 O 0.26298 0.98526 0.93968 0.0
O307 O 0.28825 0.99664 0.9005 0.0
O308 O 0.22705 0.88548 0.89779 0.0
O309 O 0.24788 0.9317 0.87242 0.0
O310 O 0.19398 0.92395 0.91827 0.0
O311 O 0.16591 0.85757 0.92007 0.0
H312 H 0.21288 0.76443 0.89891 0.0
H313 H 0.20622 0.70126 0.88991 0.0
H314 H 0.15936 0.66371 0.96755 0.0
H315 H 0.16589 0.72625 0.97627 0.0
H316 H 0.2695 0.05193 0.95846 0.0
H317 H 0.23949 0.09132 0.95402 0.0
H318 H 0.22505 0.0672 0.87083 0.0
H319 H 0.25481 0.0273 0.87533 0.0
Tb320 Tb 0.72013 0.79336 0.65312 0.0
Tb321 Tb 0.67388 0.83027 0.63163 0.0
C322 C 0.76646 0.76917 0.65086 0.0
C323 C 0.80797 0.78646 0.65603 0.0
C324 C 0.83456 0.82219 0.64525 0.0
C325 C 0.87395 0.8365 0.64794 0.0
C326 C 0.88768 0.81558 0.66168 0.0
C327 C 0.86093 0.78078 0.67362 0.0
C328 C 0.82149 0.76629 0.67067 0.0
C329 C 0.69759 0.81975 0.69267 0.0
C330 C 0.75831 0.88423 0.64916 0.0
C331 C 0.62974 0.85464 0.61848 0.0
C332 C 0.59524 0.85631 0.62558 0.0
C333 C 0.57933 0.84737 0.65087 0.0
C334 C 0.54887 0.85335 0.65745 0.0
C335 C 0.53431 0.86871 0.6389 0.0
C336 C 0.54986 0.87656 0.61346 0.0
C337 C 0.57995 0.87039 0.6069 0.0
C338 C 0.71087 0.81044 0.59743 0.0
C339 C 0.63029 0.74427 0.65206 0.0
O340 O 0.75743 0.78323 0.63073 0.0
O341 O 0.74405 0.76308 0.67116 0.0
O342 O 0.6915 0.82111 0.66854 0.0
O343 O 0.71762 0.80287 0.69531 0.0
O344 O 0.76403 0.8545 0.64846 0.0
O345 O 0.72403 0.88042 0.64624 0.0
O346 O 0.6597 0.87346 0.63373 0.0
O347 O 0.62532 0.82175 0.61046 0.0
O348 O 0.69271 0.79278 0.61743 0.0
O349 O 0.70827 0.84099 0.59528 0.0
O350 O 0.62954 0.7766 0.64879 0.0
O351 O 0.66266 0.74301 0.65138 0.0
H352 H 0.82502 0.83864 0.63398 0.0
H353 H 0.89353 0.86316 0.63829 0.0
H354 H 0.87042 0.7643 0.68487 0.0
H355 H 0.80155 0.73888 0.67934 0.0
H356 H 0.59097 0.83666 0.6656 0.0
H357 H 0.53749 0.84705 0.67722 0.0
H358 H 0.53882 0.88766 0.59857 0.0
H359 H 0.59194 0.8775 0.58729 0.0
Tb360 Tb 0.19233 0.36884 0.93354 0.0
Tb361 Tb 0.10626 0.32518 0.9162 0.0
C362 C 0.26308 0.41187 0.94148 0.0
C363 C 0.29802 0.44618 0.93162 0.0
C364 C 0.32617 0.4415 0.91858 0.0
C365 C 0.36173 0.47321 0.91235 0.0
C366 C 0.37023 0.51047 0.91918 0.0
C367 C 0.34156 0.51528 0.93144 0.0
C368 C 0.30589 0.48349 0.93766 0.0
C369 C 0.13885 0.33596 0.97039 0.0
C370 C 0.15105 0.41506 0.91642 0.0
C371 C 0.03529 0.28228 0.92141 0.0
C372 C 1.00848 0.24201 0.91474 0.0
C373 C 0.9697 0.22564 0.92138 0.0
C374 C 0.94478 0.18632 0.918 0.0
C375 C 0.95832 0.16263 0.90808 0.0
C376 C 0.99716 0.17935 0.90099 0.0
C377 C 1.022 0.21876 0.9042 0.0
C378 C 0.15134 0.34369 0.87461 0.0
C379 C 0.15534 0.28285 0.91804 0.0
O380 O 0.24857 0.38104 0.92672 0.0
O381 O 0.23656 0.41654 0.95302 0.0
O382 O 0.1381 0.35343 0.95038 0.0
O383 O 0.17145 0.33694 0.97105 0.0
O384 O 0.18352 0.41409 0.91746 0.0
O385 O 0.11676 0.38376 0.91889 0.0
O386 O 0.06043 0.287 0.9395 0.0
O387 O 0.05069 0.30625 0.90174 0.0
O388 O 0.16079 0.3504 0.89838 0.0
O389 O 0.11415 0.32504 0.87344 0.0
O390 O 0.12087 0.2794 0.92028 0.0
O391 O 0.18743 0.31619 0.91942 0.0
H392 H 0.32116 0.41311 0.9139 0.0
H393 H 0.38283 0.46842 0.90254 0.0
H394 H 0.34719 0.5435 0.93725 0.0
H395 H 0.28504 0.48813 0.94796 0.0
H396 H 0.95891 0.24308 0.92986 0.0
H397 H 0.91513 0.17426 0.92395 0.0
H398 H 1.00834 0.16195 0.89307 0.0
H399 H 0.05194 0.23092 0.89903 0.0
Tb400 Tb 0.25492 0.93971 0.64997 0.0
Tb401 Tb 0.21885 0.85431 0.6328 0.0
C402 C 0.27878 1.00958 0.64324 0.0
C403 C 0.26313 0.0352 0.64796 0.0
C404 C 0.25966 0.05517 0.62659 0.0
C405 C 0.24167 0.07685 0.62958 0.0
C406 C 0.22709 0.07933 0.6541 0.0
C407 C 0.23126 0.06 0.67567 0.0
C408 C 0.24887 0.03782 0.67259 0.0
C409 C 0.22879 0.8951 0.69163 0.0
C410 C 0.16382 0.88516 0.64631 0.0
C411 C 0.19599 0.78459 0.62446 0.0
C412 C 0.19581 0.75022 0.63492 0.0
C413 C 0.16503 0.72388 0.65049 0.0
C414 C 0.16096 0.68828 0.65671 0.0
C415 C 0.18743 0.67802 0.64739 0.0
C416 C 0.2191 0.70498 0.63273 0.0
C417 C 0.22316 0.74062 0.62647 0.0
C418 C 0.23817 0.90705 0.59566 0.0
C419 C 0.30463 0.89995 0.6532 0.0
O420 O 0.26016 0.98328 0.62535 0.0
O421 O 0.28841 0.99631 0.66368 0.0
O422 O 0.22777 0.88524 0.66803 0.0
O423 O 0.24501 0.93222 0.69248 0.0
O424 O 0.19332 0.92084 0.64515 0.0
O425 O 0.16822 0.85491 0.64498 0.0
O426 O 0.17624 0.79705 0.6374 0.0
O427 O 0.22812 0.81258 0.61494 0.0
O428 O 0.25585 0.90913 0.61631 0.0
O429 O 0.20786 0.87345 0.59455 0.0
O430 O 0.27236 0.86643 0.65166 0.0
O431 O 0.30564 0.93315 0.64975 0.0
H432 H 0.27027 0.05339 0.60739 0.0
H433 H 0.23944 0.09195 0.61272 0.0
H434 H 0.2202 0.0614 0.69477 0.0
H435 H 0.25074 0.02231 0.68933 0.0
H436 H 0.14316 0.73012 0.65709 0.0
H437 H 0.13654 0.66843 0.66836 0.0
H438 H 0.23982 0.69788 0.62498 0.0
H439 H 0.24687 0.75996 0.6141 0.0
Tb440 Tb 0.67489 0.831 0.93391 0.0
Tb441 Tb 0.7212 0.79391 0.91242 0.0
C442 C 0.63032 0.85492 0.94703 0.0
C443 C 0.59547 0.85607 0.94013 0.0
C444 C 0.57711 0.84338 0.91573 0.0
C445 C 0.54575 0.84803 0.90936 0.0
C446 C 0.5327 0.86576 0.92722 0.0
C447 C 0.55087 0.87758 0.95178 0.0
C448 C 0.58187 0.87275 0.95814 0.0
C449 C 0.71055 0.80976 0.96815 0.0
C450 C 0.63134 0.74547 0.91276 0.0
C451 C 0.76678 0.7687 0.91537 0.0
C452 C 0.80737 0.78352 0.90884 0.0
C453 C 0.82327 0.75988 0.91209 0.0
C454 C 0.86275 0.77479 0.90918 0.0
C455 C 0.88713 0.81376 0.90312 0.0
C456 C 0.87089 0.83721 0.89931 0.0
C457 C 0.83132 0.82216 0.90206 0.0
C458 C 0.69933 0.8208 0.87293 0.0
C459 C 0.75951 0.88497 0.91703 0.0
O460 O 0.66006 0.87374 0.93167 0.0
O461 O 0.62633 0.82225 0.95508 0.0
O462 O 0.69296 0.79279 0.94776 0.0
O463 O 0.70818 0.84043 0.97071 0.0
O464 O 0.63096 0.77802 0.91571 0.0
O465 O 0.66347 0.74379 0.91414 0.0
O466 O 0.76112 0.78724 0.93439 0.0
O467 O 0.74276 0.76069 0.89572 0.0
O468 O 0.69311 0.8221 0.89705 0.0
O469 O 0.71915 0.80365 0.87024 0.0
O470 O 0.76508 0.85513 0.91713 0.0
O471 O 0.72539 0.88139 0.92034 0.0
H472 H 0.58741 0.83058 0.90153 0.0
H473 H 0.53237 0.83868 0.89027 0.0
H474 H 0.5411 0.8906 0.96618 0.0
H475 H 0.5957 0.88269 0.97707 0.0
H476 H 0.80531 0.73012 0.91766 0.0
H477 H 0.87434 0.75605 0.91259 0.0
H478 H 0.8888 0.8672 0.89437 0.0
H479 H 0.81957 0.84094 0.89956 0.0
H480 H 0.17456 0.27394 0.17504 0.0
H481 H 0.21944 0.10633 0.13903 0.0
H482 H 0.08802 0.16471 0.14403 0.0
H483 H 0.30227 0.21917 0.16723 0.0
H484 H 0.16886 0.12342 0.144 0.0
H485 H 0.21997 0.25088 0.17549 0.0
C486 C 0.16512 0.24504 0.1683 0.0
C487 C 0.12755 0.2214 0.15925 0.0
C488 C 0.19815 0.14423 0.1492 0.0
C489 C 0.17958 0.19447 0.15973 0.0
C490 C 0.22692 0.13445 0.14643 0.0
C491 C 0.26522 0.16155 0.1523 0.0
C492 C 0.20793 0.18116 0.1581 0.0
C493 C 0.27333 0.19752 0.16193 0.0
C494 C 0.19104 0.23174 0.16865 0.0
C495 C 0.11672 0.18386 0.15125 0.0
N496 N 0.24509 0.20622 0.1644 0.0
N497 N 0.14271 0.17162 0.15147 0.0
H498 H 0.11128 0.95577 0.44303 0.0
H499 H 0.94745 0.75692 0.38817 0.0
H500 H 0.12576 0.89982 0.3753 0.0
H501 H 0.92161 0.82807 0.43757 0.0
H502 H 1.01273 0.80993 0.38297 0.0
H503 H 0.04199 0.91072 0.44146 0.0
C504 C 0.09981 0.93416 0.42772 0.0
C505 C 0.12434 0.93127 0.4094 0.0
C506 C 0.99281 0.81428 0.39473 0.0
C507 C 0.04526 0.8797 0.40756 0.0
C508 C 0.95555 0.78395 0.39778 0.0
C509 C 0.92929 0.7881 0.41352 0.0
C510 C 1.00436 0.84895 0.40795 0.0
C511 C 0.9411 0.8238 0.42529 0.0
C512 C 0.06028 0.90866 0.42675 0.0
C513 C 0.10794 0.90314 0.38977 0.0
N514 N 0.9781 0.8528 0.42263 0.0
N515 N 0.06953 0.87816 0.38958 0.0
H516 H 0.94969 0.12963 0.13064 0.0
H517 H 0.81766 0.92273 0.19497 0.0
H518 H 0.85168 0.09998 0.17992 0.0
H519 H 0.88255 0.93907 0.12404 0.0
H520 H 0.84305 0.99199 0.19729 0.0
H521 H 0.93784 0.06367 0.13552 0.0
C522 C 0.92615 0.10944 0.14279 0.0
C523 C 0.90126 0.11988 0.15459 0.0
C524 C 0.85203 0.98043 0.18137 0.0
C525 C 0.88793 0.04529 0.16049 0.0
C526 C 0.83772 0.94098 0.18012 0.0
C527 C 0.84767 0.92516 0.15912 0.0
C528 C 0.87674 1.00429 0.1616 0.0
C529 C 0.87366 0.95012 0.14031 0.0
C530 C 0.91931 0.07193 0.14547 0.0
C531 C 0.87116 0.09282 0.17015 0.0
N532 N 0.88717 0.98849 0.1419 0.0
N533 N 0.86529 0.0568 0.1726 0.0
H534 H 0.2982 0.20906 0.39152 0.0
H535 H 0.08317 0.15673 0.42402 0.0
H536 H 0.21804 0.10361 0.42994 0.0
H537 H 0.16925 0.26288 0.3894 0.0
H538 H 0.1286 0.13293 0.42253 0.0
H539 H 0.24788 0.22482 0.38636 0.0
C540 C 0.26981 0.18907 0.39884 0.0
C541 C 0.26244 0.15524 0.41157 0.0
C542 C 0.13738 0.1613 0.41511 0.0
C543 C 0.20426 0.17339 0.40587 0.0
C544 C 0.11146 0.17485 0.41583 0.0
C545 C 0.12256 0.21201 0.407 0.0
C546 C 0.17457 0.18502 0.40534 0.0
C547 C 0.15963 0.23434 0.39681 0.0
C548 C 0.24098 0.19811 0.39585 0.0
C549 C 0.2249 0.13008 0.42012 0.0
N550 N 0.18422 0.22056 0.39636 0.0
N551 N 0.19718 0.1399 0.41741 0.0
H552 H 0.11201 0.96578 0.1412 0.0
H553 H 0.95175 0.74892 0.16961 0.0
H554 H 0.13235 0.8827 0.18022 0.0
H555 H 0.92369 0.83028 0.13643 0.0
H556 H 1.01751 0.79966 0.17529 0.0
H557 H 0.04296 0.91919 0.14112 0.0
C558 C 0.10195 0.93795 0.15004 0.0
C559 C 0.12808 0.92799 0.16052 0.0
C560 C 0.99717 0.80673 0.16683 0.0
C561 C 0.04929 0.87457 0.16025 0.0
C562 C 0.95946 0.77761 0.16344 0.0
C563 C 0.93222 0.78522 0.15212 0.0
C564 C 1.00828 0.84406 0.15865 0.0
C565 C 0.94387 0.82317 0.14509 0.0
C566 C 0.06256 0.91134 0.14986 0.0
C567 C 0.11343 0.89143 0.17149 0.0
N568 N 0.98126 0.85123 0.1482 0.0
N569 N 0.07517 0.8661 0.17093 0.0
H570 H 0.80733 0.91605 0.3761 0.0
H571 H 0.94485 0.12416 0.43815 0.0
H572 H 0.87642 0.93341 0.44507 0.0
H573 H 0.84601 0.09536 0.38984 0.0
H574 H 0.93118 0.05749 0.43381 0.0
H575 H 0.8328 0.98529 0.37377 0.0
C576 C 0.82825 0.9345 0.39054 0.0
C577 C 0.83946 0.91895 0.41097 0.0
C578 C 0.91282 0.06604 0.42398 0.0
C579 C 0.86868 0.99815 0.40847 0.0
C580 C 0.92071 0.10398 0.42634 0.0
C581 C 0.89617 0.11494 0.41465 0.0
C582 C 0.88068 0.03943 0.40941 0.0
C583 C 0.86526 0.08784 0.39953 0.0
C584 C 0.84263 0.97397 0.38929 0.0
C585 C 0.86655 0.94422 0.42926 0.0
N586 N 0.85836 0.05138 0.39741 0.0
N587 N 0.88014 0.9826 0.42766 0.0
H588 H 0.17295 0.08068 0.62228 0.0
H589 H 0.20546 0.27574 0.68132 0.0
H590 H 0.23926 0.13181 0.69246 0.0
H591 H 0.11038 0.20703 0.62966 0.0
H592 H 0.21672 0.22209 0.6863 0.0
H593 H 0.14807 0.12501 0.62483 0.0
C594 C 0.18201 0.10106 0.63834 0.0
C595 C 0.20852 0.10292 0.65704 0.0
C596 C 0.19305 0.21841 0.67412 0.0
C597 C 0.18032 0.15364 0.66002 0.0
C598 C 0.18672 0.24909 0.67119 0.0
C599 C 0.15725 0.2458 0.65481 0.0
C600 C 0.17029 0.18436 0.66012 0.0
C601 C 0.13347 0.21059 0.6424 0.0
C602 C 0.16761 0.12613 0.63988 0.0
C603 C 0.21888 0.12941 0.67765 0.0
N604 N 0.14095 0.18131 0.64492 0.0
N605 N 0.20518 0.1541 0.67838 0.0
H606 H 0.10645 0.82874 0.89146 0.0
H607 H 0.94478 0.88239 0.92275 0.0
H608 H 0.13278 0.93511 0.92925 0.0
H609 H 0.9258 0.78166 0.88017 0.0
H610 H 1.01389 0.90528 0.92303 0.0
H611 H 0.04095 0.81427 0.88484 0.0
C612 C 0.09839 0.84918 0.89837 0.0
C613 C 0.12498 0.88294 0.9113 0.0
C614 C 0.99459 0.87835 0.91345 0.0
C615 C 0.04931 0.86632 0.90384 0.0
C616 C 0.95516 0.86533 0.91316 0.0
C617 C 0.92936 0.82982 0.90162 0.0
C618 C 1.00827 0.85571 0.90209 0.0
C619 C 0.94443 0.80881 0.88973 0.0
C620 C 0.06087 0.84092 0.89449 0.0
C621 C 0.11306 0.90868 0.9193 0.0
N622 N 0.98273 0.82196 0.89041 0.0
N623 N 0.07583 0.8996 0.91574 0.0
H624 H 0.75324 0.94244 0.67142 0.0
H625 H 0.97112 0.10347 0.64529 0.0
H626 H 0.83604 0.91535 0.63936 0.0
H627 H 0.88395 0.12474 0.67658 0.0
H628 H 0.92499 0.03435 0.64619 0.0
H629 H 0.8034 1.00858 0.67683 0.0
C630 C 0.78214 0.95046 0.66549 0.0
C631 C 0.79033 0.92341 0.6545 0.0
C632 C 0.91611 0.05418 0.65301 0.0
C633 C 0.84842 0.99985 0.66061 0.0
C634 C 0.94243 0.0936 0.65263 0.0
C635 C 0.93126 0.11998 0.66068 0.0
C636 C 0.87843 0.04109 0.6616 0.0
C637 C 0.89367 0.10558 0.66977 0.0
C638 C 0.8109 0.98837 0.66867 0.0
C639 C 0.8285 0.93538 0.64777 0.0
N640 N 0.86868 0.06726 0.66987 0.0
N641 N 0.85618 0.97296 0.65065 0.0
H642 H 0.2085 0.27986 0.88741 0.0
H643 H 0.17457 0.08264 0.94357 0.0
H644 H 0.11164 0.20922 0.93692 0.0
H645 H 0.244 0.13697 0.87532 0.0
H646 H 0.1502 0.12746 0.9417 0.0
H647 H 0.22095 0.22697 0.88258 0.0
C648 C 0.18963 0.25297 0.89712 0.0
C649 C 0.15923 0.24894 0.91281 0.0
C650 C 0.17037 0.12922 0.92694 0.0
C651 C 0.17368 0.18826 0.90766 0.0
C652 C 0.18448 0.10385 0.92809 0.0
C653 C 0.21164 0.10634 0.9097 0.0
C654 C 0.18396 0.15765 0.90751 0.0
C655 C 0.22306 0.13396 0.88985 0.0
C656 C 0.19668 0.22271 0.89428 0.0
C657 C 0.13541 0.2134 0.92469 0.0
N658 N 0.20956 0.15884 0.88949 0.0
N659 N 0.14354 0.1845 0.92225 0.0
H660 H 0.10058 0.81612 0.65553 0.0
H661 H 0.94991 0.88942 0.66461 0.0
H662 H 0.13591 0.93591 0.64647 0.0
H663 H 0.92098 0.77102 0.65818 0.0
H664 H 1.01814 0.9088 0.66181 0.0
H665 H 0.03522 0.80132 0.66104 0.0
C666 C 0.0947 0.83953 0.65458 0.0
C667 C 0.12406 0.87742 0.65019 0.0
C668 C 0.99672 0.87863 0.66116 0.0
C669 C 0.04801 0.86022 0.65662 0.0
C670 C 0.95777 0.86748 0.66268 0.0
C671 C 0.92941 0.8284 0.66178 0.0
C672 C 1.00735 0.85049 0.65883 0.0
C673 C 0.94149 0.80137 0.65956 0.0
C674 C 0.05704 0.83091 0.65779 0.0
C675 C 0.11419 0.90628 0.64964 0.0
N676 N 0.97936 0.81294 0.65816 0.0
N677 N 0.07683 0.89706 0.65272 0.0
H678 H 0.97192 0.10436 0.92147 0.0
H679 H 0.75422 0.943 0.89499 0.0
H680 H 0.88473 0.12509 0.88959 0.0
H681 H 0.83734 0.91605 0.92655 0.0
H682 H 0.8043 1.00907 0.88957 0.0
H683 H 0.926 0.03518 0.92034 0.0
C684 C 0.94329 0.09435 0.91394 0.0
C685 C 0.93202 0.12058 0.90581 0.0
C686 C 0.8119 0.98892 0.89763 0.0
C687 C 0.87944 0.04166 0.90464 0.0
C688 C 0.78319 0.95104 0.90082 0.0
C689 C 0.7915 0.92408 0.9117 0.0
C690 C 0.8495 1.00044 0.90557 0.0
C691 C 0.82973 0.93605 0.91826 0.0
C692 C 0.91708 0.0549 0.91343 0.0
C693 C 0.8945 0.10603 0.89648 0.0
N694 N 0.85738 0.97361 0.91539 0.0
N695 N 0.86963 0.0677 0.89626 0.0
H696 H 0.31617 0.172 0.34942 0.0
H697 H 0.42473 0.18146 0.21707 0.0
H698 H 0.42061 0.16763 0.34546 0.0
H699 H 0.31122 0.1662 0.22139 0.0
H700 H 0.43409 0.19882 0.26383 0.0
H701 H 0.32469 0.19227 0.30338 0.0
C702 C 0.34182 0.17703 0.33912 0.0
C703 C 0.36802 0.1687 0.35118 0.0
C704 C 0.40762 0.19302 0.25437 0.0
C705 C 0.37719 0.19015 0.29828 0.0
C706 C 0.40253 0.18366 0.2276 0.0
C707 C 0.36735 0.1729 0.21544 0.0
C708 C 0.37707 0.19111 0.26901 0.0
C709 C 0.33894 0.17484 0.23009 0.0
C710 C 0.34648 0.18813 0.31275 0.0
C711 C 0.40013 0.17439 0.33685 0.0
N712 N 0.34417 0.18314 0.25618 0.0
N713 N 0.40353 0.18417 0.31101 0.0
H714 H 0.8933 0.73621 0.35046 0.0
H715 H 0.7973 0.62829 0.21685 0.0
H716 H 0.78676 0.62926 0.34561 0.0
H717 H 0.88965 0.745 0.22298 0.0
H718 H 0.80642 0.61862 0.26336 0.0
H719 H 0.90549 0.72964 0.30412 0.0
C720 C 0.87334 0.71049 0.33986 0.0
C721 C 0.83927 0.68298 0.35176 0.0
C722 C 0.82558 0.64596 0.25431 0.0
C723 C 0.85198 0.67599 0.29858 0.0
C724 C 0.82068 0.65128 0.22772 0.0
C725 C 0.84302 0.68737 0.21622 0.0
C726 C 0.85286 0.67709 0.26935 0.0
C727 C 0.87212 0.71667 0.23122 0.0
C728 C 0.88002 0.70692 0.31335 0.0
C729 C 0.81363 0.65076 0.33708 0.0
N730 N 0.8759 0.71107 0.2571 0.0
N731 N 0.82018 0.64841 0.31111 0.0
H732 H 0.88485 0.15465 0.21836 0.0
H733 H 0.86609 0.24804 0.3508 0.0
H734 H 0.87635 0.25679 0.22208 0.0
H735 H 0.89202 0.15682 0.3461 0.0
H736 H 0.84804 0.2383 0.30415 0.0
H737 H 0.86552 0.14182 0.26452 0.0
C738 C 0.8772 0.17342 0.22866 0.0
C739 C 0.88162 0.20648 0.21649 0.0
C740 C 0.85639 0.2195 0.31351 0.0
C741 C 0.86133 0.19319 0.26955 0.0
C742 C 0.86618 0.22475 0.3402 0.0
C743 C 0.88012 0.20289 0.35218 0.0
C744 C 0.86103 0.19247 0.2988 0.0
C745 C 0.88098 0.17392 0.33751 0.0
C746 C 0.86664 0.16641 0.25509 0.0
C747 C 0.87264 0.23066 0.2308 0.0
N748 N 0.87215 0.16989 0.3115 0.0
N749 N 0.86355 0.22392 0.25674 0.0
H750 H 0.1905 0.41075 0.71756 0.0
H751 H 0.17216 0.29809 0.84911 0.0
H752 H 0.16444 0.29348 0.72153 0.0
H753 H 0.18216 0.40942 0.8463 0.0
H754 H 0.19129 0.30465 0.80292 0.0
H755 H 0.20916 0.41903 0.76409 0.0
C756 C 0.19048 0.38732 0.72797 0.0
C757 C 0.17636 0.35152 0.71583 0.0
C758 C 0.19055 0.32825 0.81254 0.0
C759 C 0.19614 0.36016 0.76907 0.0
C760 C 0.18009 0.32466 0.83899 0.0
C761 C 0.17613 0.35348 0.85143 0.0
C762 C 0.19614 0.36054 0.79832 0.0
C763 C 0.1855 0.38686 0.83736 0.0
C764 C 0.20064 0.39186 0.75459 0.0
C765 C 0.17563 0.32164 0.73025 0.0
N766 N 0.19442 0.38923 0.81139 0.0
N767 N 0.18479 0.32643 0.7562 0.0
H768 H 0.16188 0.8675 0.8488 0.0
H769 H 0.26146 0.85866 0.71628 0.0
H770 H 0.26946 0.86923 0.84524 0.0
H771 H 0.16751 0.88058 0.7213 0.0
H772 H 0.25198 0.83978 0.76276 0.0
H773 H 0.15081 0.84899 0.80236 0.0
C774 C 0.1823 0.86219 0.83847 0.0
C775 C 0.21635 0.86934 0.85077 0.0
C776 C 0.23257 0.84745 0.75348 0.0
C777 C 0.20492 0.84999 0.79745 0.0
C778 C 0.2377 0.85774 0.7269 0.0
C779 C 0.21493 0.87074 0.71507 0.0
C780 C 0.20464 0.85051 0.7682 0.0
C781 C 0.18534 0.8703 0.72977 0.0
C782 C 0.17627 0.85213 0.81189 0.0
C783 C 0.24257 0.86335 0.83642 0.0
N784 N 0.18133 0.86087 0.75564 0.0
N785 N 0.23665 0.85465 0.81037 0.0
H786 H 0.62889 0.78344 0.71763 0.0
H787 H 0.73884 0.88861 0.84768 0.0
H788 H 0.74022 0.88518 0.72008 0.0
H789 H 0.63268 0.78105 0.8459 0.0
H790 H 0.72918 0.89911 0.80164 0.0
H791 H 0.61939 0.79347 0.76393 0.0
C792 C 0.6505 0.80897 0.72762 0.0
C793 C 0.68516 0.83381 0.71509 0.0
C794 C 0.70725 0.87378 0.81148 0.0
C795 C 0.67543 0.84461 0.76825 0.0
C796 C 0.71256 0.86809 0.83787 0.0
C797 C 0.68625 0.83419 0.85055 0.0
C798 C 0.67583 0.84488 0.79754 0.0
C799 C 0.65328 0.80784 0.83682 0.0
C800 C 0.64535 0.81443 0.75415 0.0
C801 C 0.71287 0.86571 0.72906 0.0
N802 N 0.64933 0.81335 0.8109 0.0
N803 N 0.70772 0.86986 0.755 0.0
H804 H 0.3094 0.95681 0.98274 0.0
H805 H 0.28624 0.11142 0.06327 0.0
H806 H 0.19522 0.93413 1.00024 0.0
H807 H 0.36747 0.07698 0.0864 0.0
H808 H 0.25612 0.05585 1.03298 0.0
H809 H 0.33545 1.01071 1.01365 0.0
C810 C 0.2898 0.96315 0.99321 0.0
C811 C 0.25008 0.94074 0.9892 0.0
C812 C 0.28052 0.06063 0.04477 0.0
C813 C 0.27986 1.00319 1.02398 0.0
C814 C 0.29785 0.09237 0.06181 0.0
C815 C 0.32944 0.09879 0.07724 0.0
C816 C 0.2957 0.03602 0.04267 0.0
C817 C 0.3432 0.07309 0.07483 0.0
C818 C 0.30469 0.99388 1.01079 0.0
C819 C 0.22599 0.95043 1.00309 0.0
N820 N 0.32659 0.04319 0.05769 0.0
N821 N 0.24128 0.98129 1.01971 0.0
H822 H 0.74802 0.67268 0.48489 0.0
H823 H 0.77304 0.8518 0.56496 0.0
H824 H 0.86235 0.76489 0.50155 0.0
H825 H 0.69013 0.73639 0.58751 0.0
H826 H 0.80284 0.82577 0.53502 0.0
H827 H 0.72236 0.70068 0.5159 0.0
C828 C 0.76775 0.69878 0.49523 0.0
C829 C 0.80739 0.71627 0.49093 0.0
C830 C 0.77816 0.80632 0.54661 0.0
C831 C 0.77804 0.74912 0.52583 0.0
C832 C 0.76101 0.82107 0.56347 0.0
C833 C 0.72904 0.79616 0.57863 0.0
C834 C 0.76242 0.76643 0.54442 0.0
C835 C 0.71472 0.75658 0.57616 0.0
C836 C 0.75308 0.71472 0.51287 0.0
C837 C 0.83164 0.75027 0.50465 0.0
N838 N 0.73118 0.74296 0.5592 0.0
N839 N 0.81655 0.76593 0.52131 0.0
H840 H 0.11758 0.27291 1.00209 0.0
H841 H 0.96641 0.29988 0.08485 0.0
H842 H 0.08784 0.35874 0.98247 0.0
H843 H 0.94225 0.18546 0.0665 0.0
H844 H 1.0203 0.32558 0.05408 0.0
H845 H 0.06233 0.24354 1.03253 0.0
C846 C 0.09968 0.28572 1.00439 0.0
C847 C 0.1073 0.31836 0.98987 0.0
C848 C 1.00317 0.29484 0.05672 0.0
C849 C 0.04485 0.28544 1.02461 0.0
C850 C 0.97243 0.28015 0.07423 0.0
C851 C 0.94962 0.24047 0.07799 0.0
C852 C 1.01203 0.26984 0.04329 0.0
C853 C 0.95888 0.21621 0.06387 0.0
C854 C 0.06809 0.26882 1.02151 0.0
C855 C 0.08301 0.33363 0.99332 0.0
N856 N 0.98971 0.23129 0.0473 0.0
N857 N 0.05322 0.31735 1.01049 0.0
H858 H 0.28065 0.10612 0.50023 0.0
H859 H 0.19403 0.92401 0.56311 0.0
H860 H 0.36828 0.07787 0.48277 0.0
H861 H 0.31123 0.96176 0.58445 0.0
H862 H 0.21715 0.97903 0.53287 0.0
H863 H 0.25068 0.05093 0.5305 0.0
C864 C 0.29366 0.08849 0.50293 0.0
C865 C 0.32694 0.09647 0.48905 0.0
C866 C 0.23767 0.97523 0.54429 0.0
C867 C 0.29318 0.03384 0.52345 0.0
C868 C 0.22456 0.94371 0.56127 0.0
C869 C 0.25081 0.93843 0.57623 0.0
C870 C 0.2773 1.00092 0.54188 0.0
C871 C 0.29007 0.96486 0.57328 0.0
C872 C 0.27639 0.05687 0.51993 0.0
C873 C 0.3426 0.07264 0.49309 0.0
N874 N 0.30212 0.99464 0.55624 0.0
N875 N 0.32588 0.04275 0.51012 0.0
H876 H 0.74344 0.67862 0.08854 0.0
H877 H 0.69102 0.73542 0.97421 0.0
H878 H 0.85788 0.75707 0.06135 0.0
H879 H 0.76839 0.8484 1.00461 0.0
H880 H 0.71782 0.70858 1.00518 0.0
H881 H 0.718 0.70607 0.05698 0.0
C882 C 0.76321 0.7016 0.07585 0.0
C883 C 0.80279 0.7153 0.0773 0.0
C884 C 0.72893 0.73924 1.00502 0.0
C885 C 0.77385 0.74737 0.04161 0.0
C886 C 0.71373 0.7546 0.9874 0.0
C887 C 0.72726 0.79416 0.98705 0.0
C888 C 0.75851 0.76361 1.02213 0.0
C889 C 0.75691 0.8177 1.0045 0.0
C890 C 0.74866 0.7172 0.05791 0.0
C891 C 0.82715 0.74538 0.06054 0.0
N892 N 0.77185 0.80209 1.02126 0.0
N893 N 0.81231 0.76076 0.04349 0.0
H894 H 0.11767 0.268 0.56679 0.0
H895 H 0.93689 0.17839 0.50196 0.0
H896 H 0.08789 0.35463 0.58388 0.0
H897 H 0.96911 0.29515 0.48398 0.0
H898 H 0.99202 0.20242 0.53234 0.0
H899 H 0.06239 0.23708 0.53651 0.0
C900 C 0.09963 0.28056 0.56405 0.0
C901 C 0.10724 0.31384 0.57783 0.0
C902 C 0.98704 0.22267 0.5216 0.0
C903 C 0.04436 0.27891 0.54343 0.0
C904 C 0.95543 0.209 0.50453 0.0
C905 C 0.94855 0.23486 0.49047 0.0
C906 C 1.01126 0.26244 0.52498 0.0
C907 C 0.97349 0.27426 0.4944 0.0
C908 C 0.06793 0.26273 0.54704 0.0
C909 C 0.08293 0.32893 0.57368 0.0
N910 N 1.00342 0.28681 0.51146 0.0
N911 N 0.05291 0.31163 0.55668 0.0
H912 H 0.61646 0.10147 0.13937 0.0
H913 H 0.49407 0.20455 0.16634 0.0
H914 H 0.66598 0.21962 0.16363 0.0
H915 H 0.44259 0.08483 0.14574 0.0
H916 H 0.55667 0.20922 0.16784 0.0
H917 H 0.55254 0.09362 0.1439 0.0
C918 C 0.61398 0.1257 0.14595 0.0
C919 C 0.64689 0.16134 0.1511 0.0
C920 C 0.53173 0.18182 0.16315 0.0
C921 C 0.57342 0.15257 0.15594 0.0
C922 C 0.49583 0.17909 0.16228 0.0
C923 C 0.46288 0.14425 0.15569 0.0
C924 C 0.53505 0.14959 0.15722 0.0
C925 C 0.46714 0.11225 0.15089 0.0
C926 C 0.57737 0.1212 0.14838 0.0
C927 C 0.64162 0.19178 0.15907 0.0
N928 N 0.5026 0.11577 0.15152 0.0
N929 N 0.60569 0.18671 0.16116 0.0
H930 H 0.74916 0.55423 0.40174 0.0
H931 H 0.52749 0.42841 0.43813 0.0
H932 H 0.67939 0.60317 0.42419 0.0
H933 H 0.59247 0.38061 0.40411 0.0
H934 H 0.58221 0.49271 0.43174 0.0
H935 H 0.69181 0.49087 0.40082 0.0
C936 C 0.72174 0.55175 0.4063 0.0
C937 C 0.7192 0.58417 0.41326 0.0
C938 C 0.58449 0.46824 0.42547 0.0
C939 C 0.65327 0.51135 0.4124 0.0
C940 C 0.55332 0.43149 0.42925 0.0
C941 C 0.55559 0.39907 0.42192 0.0
C942 C 0.61846 0.47277 0.41446 0.0
C943 C 0.58949 0.4048 0.41003 0.0
C944 C 0.68895 0.51547 0.40572 0.0
C945 C 0.68278 0.57906 0.41876 0.0
N946 N 0.61974 0.44093 0.40693 0.0
N947 N 0.65133 0.54331 0.41847 0.0
H948 H 0.96146 0.36805 0.15034 0.0
H949 H 0.81254 0.44484 0.15885 0.0
H950 H 0.83911 0.29486 0.1597 0.0
H951 H 0.93424 0.5186 0.14708 0.0
H952 H 0.82253 0.38999 0.16224 0.0
H953 H 0.95296 0.42406 0.15239 0.0
C954 C 0.93288 0.3637 0.15302 0.0
C955 C 0.90097 0.32658 0.15469 0.0
C956 C 0.8471 0.41821 0.15907 0.0
C957 C 0.89102 0.39061 0.15695 0.0
C958 C 0.84138 0.44954 0.15703 0.0
C959 C 0.87255 0.48646 0.1526 0.0
C960 C 0.88428 0.42367 0.15655 0.0
C961 C 0.90937 0.4908 0.1508 0.0
C962 C 0.92803 0.39572 0.15414 0.0
C963 C 0.86461 0.32282 0.15815 0.0
N964 N 0.91417 0.45981 0.15263 0.0
N965 N 0.86065 0.35435 0.15905 0.0
H966 H 0.44049 0.08072 0.42146 0.0
H967 H 0.66769 0.21911 0.40467 0.0
H968 H 0.49385 0.20137 0.40362 0.0
H969 H 0.61582 0.10402 0.4351 0.0
H970 H 0.60352 0.21046 0.39817 0.0
H971 H 0.50385 0.08617 0.42058 0.0
C972 C 0.46541 0.10824 0.41707 0.0
C973 C 0.46178 0.14068 0.41284 0.0
C974 C 0.6062 0.18704 0.40616 0.0
C975 C 0.53444 0.14715 0.41187 0.0
C976 C 0.64282 0.19191 0.40973 0.0
C977 C 0.64718 0.16242 0.42072 0.0
C978 C 0.57364 0.15233 0.41345 0.0
C979 C 0.61386 0.12781 0.42704 0.0
C980 C 0.50161 0.11138 0.41669 0.0
C981 C 0.4952 0.17563 0.40728 0.0
N982 N 0.57859 0.12378 0.42341 0.0
N983 N 0.53004 0.17795 0.40707 0.0
H984 H 0.59034 0.38373 0.17 0.0
H985 H 0.67828 0.60912 0.14571 0.0
H986 H 0.53023 0.43207 0.12974 0.0
H987 H 0.74474 0.55857 0.17234 0.0
H988 H 0.62052 0.54556 0.14686 0.0
H989 H 0.64391 0.44872 0.17799 0.0
C990 C 0.58823 0.40801 0.16311 0.0
C991 C 0.55599 0.40244 0.14889 0.0
C992 C 0.64772 0.54849 0.15269 0.0
C993 C 0.61715 0.47684 0.15786 0.0
C994 C 0.68067 0.58482 0.15218 0.0
C995 C 0.7165 0.58917 0.15867 0.0
C996 C 0.65059 0.51635 0.15989 0.0
C997 C 0.71783 0.55656 0.16685 0.0
C998 C 0.61888 0.44508 0.16755 0.0
C999 C 0.55487 0.435 0.14034 0.0
N1000 N 0.68545 0.52157 0.16707 0.0
N1001 N 0.58503 0.47072 0.14484 0.0
H1002 H 0.81968 0.44863 0.4086 0.0
H1003 H 0.9633 0.36567 0.42125 0.0
H1004 H 0.94035 0.51901 0.42607 0.0
H1005 H 0.84119 0.2954 0.40873 0.0
H1006 H 0.95664 0.42283 0.41969 0.0
H1007 H 0.82804 0.39273 0.4056 0.0
C1008 C 0.84794 0.45238 0.41181 0.0
C1009 C 0.8793 0.48871 0.41766 0.0
C1010 C 0.93136 0.39487 0.41717 0.0
C1011 C 0.8892 0.42465 0.41407 0.0
C1012 C 0.93517 0.36221 0.41798 0.0
C1013 C 0.90276 0.32555 0.41529 0.0
C1014 C 0.8949 0.39089 0.41358 0.0
C1015 C 0.86702 0.32296 0.41111 0.0
C1016 C 0.85275 0.42044 0.40997 0.0
C1017 C 0.91538 0.49176 0.42119 0.0
N1018 N 0.86407 0.35508 0.41048 0.0
N1019 N 0.91929 0.4602 0.41946 0.0
H1020 H 0.11936 0.6099 0.64445 0.0
H1021 H 0.21783 0.48141 0.66164 0.0
H1022 H 0.24018 0.65597 0.65917 0.0
H1023 H 0.09674 0.43374 0.64678 0.0
H1024 H 0.22531 0.54507 0.66384 0.0
H1025 H 0.10944 0.54516 0.64841 0.0
C1026 C 0.14376 0.60646 0.64887 0.0
C1027 C 0.18073 0.63856 0.65144 0.0
C1028 C 0.19704 0.52074 0.66022 0.0
C1029 C 0.16956 0.56429 0.6556 0.0
C1030 C 0.19268 0.48423 0.65893 0.0
C1031 C 0.15658 0.45203 0.65378 0.0
C1032 C 0.16514 0.52539 0.65623 0.0
C1033 C 0.12512 0.45768 0.65072 0.0
C1034 C 0.13808 0.56942 0.65094 0.0
C1035 C 0.21129 0.63217 0.65669 0.0
N1036 N 0.13017 0.4937 0.6518 0.0
N1037 N 0.20504 0.59583 0.6585 0.0
H1038 H 0.37752 0.95604 0.92164 0.0
H1039 H 0.46407 0.81624 0.90333 0.0
H1040 H 0.3093 0.83594 0.9019 0.0
H1041 H 0.52776 0.93019 0.93609 0.0
H1042 H 0.40943 0.82607 0.89621 0.0
H1043 H 0.43511 0.95005 0.92063 0.0
C1044 C 0.37466 0.92854 0.9168 0.0
C1045 C 0.33842 0.89639 0.9121 0.0
C1046 C 0.43546 0.849 0.90482 0.0
C1047 C 0.40422 0.8893 0.91097 0.0
C1048 C 0.46672 0.84347 0.90875 0.0
C1049 C 0.50039 0.87225 0.92061 0.0
C1050 C 0.43793 0.88366 0.91266 0.0
C1051 C 0.50211 0.90692 0.92734 0.0
C1052 C 0.40754 0.9251 0.91634 0.0
C1053 C 0.33654 0.86145 0.90595 0.0
N1054 N 0.47132 0.91159 0.92339 0.0
N1055 N 0.36888 0.85882 0.90569 0.0
H1056 H 0.61504 0.66972 0.64891 0.0
H1057 H 0.38703 0.57952 0.66077 0.0
H1058 H 0.56013 0.73676 0.66236 0.0
H1059 H 0.44095 0.51506 0.63667 0.0
H1060 H 0.45067 0.63593 0.66722 0.0
H1061 H 0.55197 0.61137 0.65006 0.0
C1062 C 0.58984 0.6722 0.6524 0.0
C1063 C 0.59297 0.7083 0.65532 0.0
C1064 C 0.44857 0.60937 0.66064 0.0
C1065 C 0.52061 0.64158 0.65656 0.0
C1066 C 0.41221 0.5771 0.6571 0.0
C1067 C 0.40857 0.54257 0.64788 0.0
C1068 C 0.48159 0.60712 0.65506 0.0
C1069 C 0.44232 0.54125 0.64331 0.0
C1070 C 0.55379 0.63886 0.65294 0.0
C1071 C 0.55919 0.70964 0.65974 0.0
N1072 N 0.47732 0.57302 0.64684 0.0
N1073 N 0.52451 0.67685 0.66011 0.0
H1074 H 0.11767 0.60865 0.9387 0.0
H1075 H 0.21413 0.48323 0.90277 0.0
H1076 H 0.23044 0.65669 0.90461 0.0
H1077 H 0.09491 0.43393 0.92411 0.0
H1078 H 0.22026 0.54661 0.90227 0.0
H1079 H 0.10849 0.54446 0.93269 0.0
C1080 C 0.14052 0.60567 0.92991 0.0
C1081 C 0.17507 0.63816 0.9224 0.0
C1082 C 0.19267 0.52192 0.90684 0.0
C1083 C 0.16467 0.5645 0.91537 0.0
C1084 C 0.18911 0.48563 0.90718 0.0
C1085 C 0.15395 0.45308 0.91366 0.0
C1086 C 0.16098 0.52594 0.9133 0.0
C1087 C 0.12256 0.45812 0.91902 0.0
C1088 C 0.13516 0.56896 0.92634 0.0
C1089 C 0.20336 0.63248 0.91065 0.0
N1090 N 0.12692 0.49388 0.91897 0.0
N1091 N 0.19769 0.59639 0.90774 0.0
H1092 H 0.31259 0.84137 0.67283 0.0
H1093 H 0.52994 0.93251 0.62675 0.0
H1094 H 0.37864 0.95622 0.64225 0.0
H1095 H 0.46808 0.82392 0.66662 0.0
H1096 H 0.47635 0.94345 0.63465 0.0
H1097 H 0.37046 0.83643 0.67356 0.0
C1098 C 0.33939 0.86577 0.66651 0.0
C1099 C 0.34066 0.89918 0.65722 0.0
C1100 C 0.47457 0.91738 0.64189 0.0
C1101 C 0.40719 0.89348 0.65776 0.0
C1102 C 0.50507 0.91099 0.63725 0.0
C1103 C 0.50329 0.877 0.64575 0.0
C1104 C 0.44177 0.88945 0.65497 0.0
C1105 C 0.4707 0.85051 0.65973 0.0
C1106 C 0.37248 0.8629 0.66696 0.0
C1107 C 0.3763 0.92993 0.64954 0.0
N1108 N 0.44107 0.85711 0.66364 0.0
N1109 N 0.40806 0.92615 0.64967 0.0
H1110 H 0.56284 0.73953 0.89963 0.0
H1111 H 0.43968 0.51396 0.92549 0.0
H1112 H 0.61392 0.67034 0.91789 0.0
H1113 H 0.39045 0.5834 0.90319 0.0
H1114 H 0.5037 0.56969 0.92028 0.0
H1115 H 0.49999 0.68182 0.89824 0.0
C1116 C 0.56093 0.71214 0.90318 0.0
C1117 C 0.59382 0.7099 0.9091 0.0
C1118 C 0.47891 0.57269 0.91636 0.0
C1119 C 0.52142 0.64336 0.90771 0.0
C1120 C 0.44225 0.54078 0.91918 0.0
C1121 C 0.40942 0.54387 0.91481 0.0
C1122 C 0.48297 0.60814 0.9092 0.0
C1123 C 0.41478 0.57967 0.90715 0.0
C1124 C 0.5249 0.67911 0.90238 0.0
C1125 C 0.5894 0.67348 0.91327 0.0
N1126 N 0.45077 0.61036 0.90469 0.0
N1127 N 0.55382 0.64167 0.91273 0.0
loop_
_geom_bond_atom_site_label_1
_geom_bond_atom_site_label_2
_geom_bond_distance
_geom_bond_site_symmetry_2
_ccdc_geom_bond_type
Tb0 C2 2.809 . S
Tb0 O20 2.484 . S
Tb0 O21 2.440 . S
Tb0 O22 2.658 . S
Tb0 O23 2.409 . S
Tb0 O24 2.378 . S
Tb0 O28 2.325 . S
Tb0 O31 2.341 . S
Tb1 C11 2.809 . S
Tb1 O22 2.325 . S
Tb1 O25 2.341 . S
Tb1 O26 2.484 . S
Tb1 O27 2.440 . S
Tb1 O28 2.658 . S
Tb1 O29 2.409 . S
Tb1 O30 2.378 . S
C2 Tb0 2.809 . S
C2 C3 1.514 . S
C2 O20 1.248 . S
C2 O21 1.266 . S
C3 C2 1.514 . S
C3 C4 1.359 . S
C3 C8 1.348 . S
C4 C3 1.359 . S
C4 C5 1.380 . S
C4 H32 0.929 . S
C5 C4 1.380 . S
C5 C6 1.347 . S
C5 H33 0.931 . S
C6 C5 1.347 . S
C6 C7 1.369 . S
C7 C6 1.369 . S
C7 C8 1.408 . S
C7 H34 0.930 . S
C8 C3 1.348 . S
C8 C7 1.408 . S
C8 H35 0.930 . S
C9 O22 1.281 . S
C9 O23 1.254 . S
C10 O24 1.236 . S
C10 O25 1.266 . S
C11 Tb1 2.809 . S
C11 C12 1.514 1_545 S
C11 O26 1.248 . S
C11 O27 1.266 . S
C12 C11 1.514 1_565 S
C12 C13 1.359 . S
C12 C17 1.348 . S
C13 C12 1.359 . S
C13 C14 1.380 . S
C13 H36 0.929 . S
C14 C13 1.380 . S
C14 C15 1.347 . S
C14 H37 0.931 . S
C15 C14 1.347 . S
C15 C16 1.369 . S
C16 C15 1.369 . S
C16 C17 1.408 . S
C16 H38 0.930 . S
C17 C12 1.348 . S
C17 C16 1.408 . S
C17 H39 0.930 . S
C18 O28 1.281 . S
C18 O29 1.254 . S
C19 O30 1.236 . S
C19 O31 1.266 . S
O20 Tb0 2.484 . S
O20 C2 1.248 . S
O21 Tb0 2.440 . S
O21 C2 1.266 . S
O22 Tb0 2.658 . S
O22 Tb1 2.325 . S
O22 C9 1.281 . S
O23 Tb0 2.409 . S
O23 C9 1.254 . S
O24 Tb0 2.378 . S
O24 C10 1.236 . S
O25 Tb1 2.341 . S
O25 C10 1.266 . S
O26 Tb1 2.484 . S
O26 C11 1.248 . S
O27 Tb1 2.440 . S
O27 C11 1.266 . S
O28 Tb0 2.325 . S
O28 Tb1 2.658 . S
O28 C18 1.281 . S
O29 Tb1 2.409 . S
O29 C18 1.254 . S
O30 Tb1 2.378 . S
O30 C19 1.236 . S
O31 Tb0 2.341 . S
O31 C19 1.266 . S
H32 C4 0.929 . S
H33 C5 0.931 . S
H34 C7 0.930 . S
H35 C8 0.930 . S
H36 C13 0.929 . S
H37 C14 0.931 . S
H38 C16 0.930 . S
H39 C17 0.930 . S
Tb40 C42 2.809 . S
Tb40 O60 2.484 . S
Tb40 O61 2.440 . S
Tb40 O62 2.658 . S
Tb40 O63 2.409 . S
Tb40 O64 2.378 . S
Tb40 O68 2.325 . S
Tb40 O71 2.341 . S
Tb41 C51 2.809 . S
Tb41 O62 2.325 . S
Tb41 O65 2.341 . S
Tb41 O66 2.484 . S
Tb41 O67 2.440 . S
Tb41 O68 2.658 . S
Tb41 O69 2.409 . S
Tb41 O70 2.378 . S
C42 Tb40 2.809 . S
C42 C43 1.514 . S
C42 O60 1.248 . S
C42 O61 1.266 . S
C43 C42 1.514 . S
C43 C44 1.359 . S
C43 C48 1.348 . S
C44 C43 1.359 . S
C44 C45 1.380 . S
C44 H72 0.929 . S
C45 C44 1.380 . S
C45 C46 1.347 . S
C45 H73 0.931 . S
C46 C45 1.347 . S
C46 C47 1.369 . S
C47 C46 1.369 . S
C47 C48 1.408 . S
C47 H74 0.930 . S
C48 C43 1.348 . S
C48 C47 1.408 . S
C48 H75 0.930 . S
C49 O62 1.281 . S
C49 O63 1.254 . S
C50 O64 1.236 . S
C50 O65 1.266 . S
C51 Tb41 2.809 . S
C51 C52 1.514 . S
C51 O66 1.248 . S
C51 O67 1.266 . S
C52 C51 1.514 . S
C52 C53 1.359 . S
C52 C57 1.348 . S
C53 C52 1.359 . S
C53 C54 1.380 . S
C53 H76 0.929 . S
C54 C53 1.380 . S
C54 C55 1.347 . S
C54 H77 0.931 . S
C55 C54 1.347 . S
C55 C56 1.369 . S
C56 C55 1.369 . S
C56 C57 1.408 . S
C56 H78 0.930 . S
C57 C52 1.348 . S
C57 C56 1.408 . S
C57 H79 0.930 . S
C58 O68 1.281 . S
C58 O69 1.254 . S
C59 O70 1.236 . S
C59 O71 1.266 . S
O60 Tb40 2.484 . S
O60 C42 1.248 . S
O61 Tb40 2.440 . S
O61 C42 1.266 . S
O62 Tb40 2.658 . S
O62 Tb41 2.325 . S
O62 C49 1.281 . S
O63 Tb40 2.409 . S
O63 C49 1.254 . S
O64 Tb40 2.378 . S
O64 C50 1.236 . S
O65 Tb41 2.341 . S
O65 C50 1.266 . S
O66 Tb41 2.484 . S
O66 C51 1.248 . S
O67 Tb41 2.440 . S
O67 C51 1.266 . S
O68 Tb40 2.325 . S
O68 Tb41 2.658 . S
O68 C58 1.281 . S
O69 Tb41 2.409 . S
O69 C58 1.254 . S
O70 Tb41 2.378 . S
O70 C59 1.236 . S
O71 Tb40 2.341 . S
O71 C59 1.266 . S
H72 C44 0.929 . S
H73 C45 0.931 . S
H74 C47 0.930 . S
H75 C48 0.930 . S
H76 C53 0.929 . S
H77 C54 0.931 . S
H78 C56 0.930 . S
H79 C57 0.930 . S
Tb80 C82 2.809 . S
Tb80 O100 2.484 . S
Tb80 O101 2.440 . S
Tb80 O102 2.658 . S
Tb80 O103 2.409 . S
Tb80 O104 2.378 . S
Tb80 O108 2.325 . S
Tb80 O111 2.341 . S
Tb81 C91 2.809 . S
Tb81 O102 2.325 . S
Tb81 O105 2.341 . S
Tb81 O106 2.484 . S
Tb81 O107 2.440 . S
Tb81 O108 2.658 . S
Tb81 O109 2.409 . S
Tb81 O110 2.378 . S
C82 Tb80 2.809 . S
C82 C83 1.514 . S
C82 O100 1.248 . S
C82 O101 1.266 . S
C83 C82 1.514 . S
C83 C84 1.359 . S
C83 C88 1.348 . S
C84 C83 1.359 . S
C84 C85 1.380 . S
C84 H112 0.929 . S
C85 C84 1.380 . S
C85 C86 1.347 . S
C85 H113 0.931 . S
C86 C85 1.347 . S
C86 C87 1.369 . S
C87 C86 1.369 . S
C87 C88 1.408 . S
C87 H114 0.930 . S
C88 C83 1.348 . S
C88 C87 1.408 . S
C88 H115 0.930 . S
C89 O102 1.281 . S
C89 O103 1.254 . S
C90 O104 1.236 . S
C90 O105 1.266 . S
C91 Tb81 2.809 . S
C91 C92 1.514 1_655 S
C91 O106 1.248 . S
C91 O107 1.266 . S
C92 C91 1.514 1_455 S
C92 C93 1.359 . S
C92 C97 1.348 . S
C93 C92 1.359 . S
C93 C94 1.380 . S
C93 H116 0.929 . S
C94 C93 1.380 . S
C94 C95 1.347 . S
C94 H117 0.931 . S
C95 C94 1.347 . S
C95 C96 1.369 . S
C96 C95 1.369 . S
C96 C97 1.408 . S
C96 H118 0.930 . S
C97 C92 1.348 . S
C97 C96 1.408 . S
C97 H119 0.930 . S
C98 O108 1.281 . S
C98 O109 1.254 . S
C99 O110 1.236 . S
C99 O111 1.266 . S
O100 Tb80 2.484 . S
O100 C82 1.248 . S
O101 Tb80 2.440 . S
O101 C82 1.266 . S
O102 Tb80 2.658 . S
O102 Tb81 2.325 . S
O102 C89 1.281 . S
O103 Tb80 2.409 . S
O103 C89 1.254 . S
O104 Tb80 2.378 . S
O104 C90 1.236 . S
O105 Tb81 2.341 . S
O105 C90 1.266 . S
O106 Tb81 2.484 . S
O106 C91 1.248 . S
O107 Tb81 2.440 . S
O107 C91 1.266 . S
O108 Tb80 2.325 . S
O108 Tb81 2.658 . S
O108 C98 1.281 . S
O109 Tb81 2.409 . S
O109 C98 1.254 . S
O110 Tb81 2.378 . S
O110 C99 1.236 . S
O111 Tb80 2.341 . S
O111 C99 1.266 . S
H112 C84 0.929 . S
H113 C85 0.931 . S
H114 C87 0.930 . S
H115 C88 0.930 . S
H116 C93 0.929 . S
H117 C94 0.931 . S
H118 C96 0.930 . S
H119 C97 0.930 . S
Tb120 C122 2.809 . S
Tb120 O140 2.484 . S
Tb120 O141 2.440 . S
Tb120 O142 2.658 . S
Tb120 O143 2.409 . S
Tb120 O144 2.378 . S
Tb120 O148 2.325 . S
Tb120 O151 2.341 . S
Tb121 C131 2.809 . S
Tb121 O142 2.325 . S
Tb121 O145 2.341 . S
Tb121 O146 2.484 . S
Tb121 O147 2.440 . S
Tb121 O148 2.658 . S
Tb121 O149 2.409 . S
Tb121 O150 2.378 . S
C122 Tb120 2.809 . S
C122 C123 1.514 1_545 S
C122 O140 1.248 . S
C122 O141 1.266 . S
C123 C122 1.514 1_565 S
C123 C124 1.359 . S
C123 C128 1.348 . S
C124 C123 1.359 . S
C124 C125 1.380 . S
C124 H152 0.929 . S
C125 C124 1.380 . S
C125 C126 1.347 . S
C125 H153 0.931 . S
C126 C125 1.347 . S
C126 C127 1.369 . S
C127 C126 1.369 . S
C127 C128 1.408 . S
C127 H154 0.930 . S
C128 C123 1.348 . S
C128 C127 1.408 . S
C128 H155 0.930 . S
C129 O142 1.281 . S
C129 O143 1.254 . S
C130 O144 1.236 . S
C130 O145 1.266 . S
C131 Tb121 2.809 . S
C131 C132 1.514 . S
C131 O146 1.248 . S
C131 O147 1.266 . S
C132 C131 1.514 . S
C132 C133 1.359 . S
C132 C137 1.348 . S
C133 C132 1.359 . S
C133 C134 1.380 . S
C133 H156 0.929 . S
C134 C133 1.380 . S
C134 C135 1.347 . S
C134 H157 0.931 . S
C135 C134 1.347 . S
C135 C136 1.369 . S
C136 C135 1.369 . S
C136 C137 1.408 . S
C136 H158 0.930 . S
C137 C132 1.348 . S
C137 C136 1.408 . S
C137 H159 0.930 . S
C138 O148 1.281 . S
C138 O149 1.254 . S
C139 O150 1.236 . S
C139 O151 1.266 . S
O140 Tb120 2.484 . S
O140 C122 1.248 . S
O141 Tb120 2.440 . S
O141 C122 1.266 . S
O142 Tb120 2.658 . S
O142 Tb121 2.325 . S
O142 C129 1.281 . S
O143 Tb120 2.409 . S
O143 C129 1.254 . S
O144 Tb120 2.378 . S
O144 C130 1.236 . S
O145 Tb121 2.341 . S
O145 C130 1.266 . S
O146 Tb121 2.484 . S
O146 C131 1.248 . S
O147 Tb121 2.440 . S
O147 C131 1.266 . S
O148 Tb120 2.325 . S
O148 Tb121 2.658 . S
O148 C138 1.281 . S
O149 Tb121 2.409 . S
O149 C138 1.254 . S
O150 Tb121 2.378 . S
O150 C139 1.236 . S
O151 Tb120 2.341 . S
O151 C139 1.266 . S
H152 C124 0.929 . S
H153 C125 0.931 . S
H154 C127 0.930 . S
H155 C128 0.930 . S
H156 C133 0.929 . S
H157 C134 0.931 . S
H158 C136 0.930 . S
H159 C137 0.930 . S
Tb160 C162 2.809 . S
Tb160 O180 2.484 . S
Tb160 O181 2.440 . S
Tb160 O182 2.658 . S
Tb160 O183 2.409 . S
Tb160 O184 2.378 . S
Tb160 O188 2.325 . S
Tb160 O191 2.341 . S
Tb161 C171 2.809 . S
Tb161 O182 2.325 . S
Tb161 O185 2.341 . S
Tb161 O186 2.484 . S
Tb161 O187 2.440 . S
Tb161 O188 2.658 . S
Tb161 O189 2.409 . S
Tb161 O190 2.378 . S
C162 Tb160 2.809 . S
C162 C163 1.514 . S
C162 O180 1.248 . S
C162 O181 1.266 . S
C163 C162 1.514 . S
C163 C164 1.359 . S
C163 C168 1.348 . S
C164 C163 1.359 . S
C164 C165 1.380 . S
C164 H192 0.929 . S
C165 C164 1.380 . S
C165 C166 1.347 . S
C165 H193 0.931 . S
C166 C165 1.347 . S
C166 C167 1.369 . S
C167 C166 1.369 . S
C167 C168 1.408 . S
C167 H194 0.930 . S
C168 C163 1.348 . S
C168 C167 1.408 . S
C168 H195 0.930 . S
C169 O182 1.281 . S
C169 O183 1.254 . S
C170 O184 1.236 . S
C170 O185 1.266 . S
C171 Tb161 2.809 . S
C171 C172 1.514 . S
C171 O186 1.248 . S
C171 O187 1.266 . S
C172 C171 1.514 . S
C172 C173 1.359 . S
C172 C177 1.348 . S
C173 C172 1.359 . S
C173 C174 1.380 . S
C173 H196 0.929 . S
C174 C173 1.380 . S
C174 C175 1.347 . S
C174 H197 0.931 . S
C175 C174 1.347 . S
C175 C176 1.369 . S
C176 C175 1.369 . S
C176 C177 1.408 . S
C176 H198 0.930 . S
C177 C172 1.348 . S
C177 C176 1.408 . S
C177 H199 0.930 . S
C178 O188 1.281 . S
C178 O189 1.254 . S
C179 O190 1.236 . S
C179 O191 1.266 . S
O180 Tb160 2.484 . S
O180 C162 1.248 . S
O181 Tb160 2.440 . S
O181 C162 1.266 . S
O182 Tb160 2.658 . S
O182 Tb161 2.325 . S
O182 C169 1.281 . S
O183 Tb160 2.409 . S
O183 C169 1.254 . S
O184 Tb160 2.378 . S
O184 C170 1.236 . S
O185 Tb161 2.341 . S
O185 C170 1.266 . S
O186 Tb161 2.484 . S
O186 C171 1.248 . S
O187 Tb161 2.440 . S
O187 C171 1.266 . S
O188 Tb160 2.325 . S
O188 Tb161 2.658 . S
O188 C178 1.281 . S
O189 Tb161 2.409 . S
O189 C178 1.254 . S
O190 Tb161 2.378 . S
O190 C179 1.236 . S
O191 Tb160 2.341 . S
O191 C179 1.266 . S
H192 C164 0.929 . S
H193 C165 0.931 . S
H194 C167 0.930 . S
H195 C168 0.930 . S
H196 C173 0.929 . S
H197 C174 0.931 . S
H198 C176 0.930 . S
H199 C177 0.930 . S
Tb200 C202 2.809 . S
Tb200 O220 2.484 . S
Tb200 O221 2.440 . S
Tb200 O222 2.658 . S
Tb200 O223 2.409 . S
Tb200 O224 2.378 . S
Tb200 O228 2.325 . S
Tb200 O231 2.341 . S
Tb201 C211 2.809 . S
Tb201 O222 2.325 . S
Tb201 O225 2.341 . S
Tb201 O226 2.484 . S
Tb201 O227 2.440 . S
Tb201 O228 2.658 . S
Tb201 O229 2.409 . S
Tb201 O230 2.378 . S
C202 Tb200 2.809 . S
C202 C203 1.514 1_655 S
C202 O220 1.248 . S
C202 O221 1.266 . S
C203 C202 1.514 1_455 S
C203 C204 1.359 . S
C203 C208 1.348 . S
C204 C203 1.359 . S
C204 C205 1.380 . S
C204 H232 0.929 . S
C205 C204 1.380 . S
C205 C206 1.347 . S
C205 H233 0.931 . S
C206 C205 1.347 . S
C206 C207 1.369 . S
C207 C206 1.369 . S
C207 C208 1.408 . S
C207 H234 0.930 . S
C208 C203 1.348 . S
C208 C207 1.408 . S
C208 H235 0.930 . S
C209 O222 1.281 . S
C209 O223 1.254 . S
C210 O224 1.236 . S
C210 O225 1.266 . S
C211 Tb201 2.809 . S
C211 C212 1.514 . S
C211 O226 1.248 . S
C211 O227 1.266 . S
C212 C211 1.514 . S
C212 C213 1.359 . S
C212 C217 1.348 . S
C213 C212 1.359 . S
C213 C214 1.380 . S
C213 H236 0.929 . S
C214 C213 1.380 . S
C214 C215 1.347 . S
C214 H237 0.931 . S
C215 C214 1.347 . S
C215 C216 1.369 . S
C216 C215 1.369 . S
C216 C217 1.408 . S
C216 H238 0.930 . S
C217 C212 1.348 . S
C217 C216 1.408 . S
C217 H239 0.930 . S
C218 O228 1.281 . S
C218 O229 1.254 . S
C219 O230 1.236 . S
C219 O231 1.266 . S
O220 Tb200 2.484 . S
O220 C202 1.248 . S
O221 Tb200 2.440 . S
O221 C202 1.266 . S
O222 Tb200 2.658 . S
O222 Tb201 2.325 . S
O222 C209 1.281 . S
O223 Tb200 2.409 . S
O223 C209 1.254 . S
O224 Tb200 2.378 . S
O224 C210 1.236 . S
O225 Tb201 2.341 . S
O225 C210 1.266 . S
O226 Tb201 2.484 . S
O226 C211 1.248 . S
O227 Tb201 2.440 . S
O227 C211 1.266 . S
O228 Tb200 2.325 . S
O228 Tb201 2.658 . S
O228 C218 1.281 . S
O229 Tb201 2.409 . S
O229 C218 1.254 . S
O230 Tb201 2.378 . S
O230 C219 1.236 . S
O231 Tb200 2.341 . S
O231 C219 1.266 . S
H232 C204 0.929 . S
H233 C205 0.931 . S
H234 C207 0.930 . S
H235 C208 0.930 . S
H236 C213 0.929 . S
H237 C214 0.931 . S
H238 C216 0.930 . S
H239 C217 0.930 . S
Tb240 C242 2.809 . S
Tb240 O260 2.484 . S
Tb240 O261 2.440 . S
Tb240 O262 2.658 . S
Tb240 O263 2.409 . S
Tb240 O264 2.378 . S
Tb240 O268 2.325 . S
Tb240 O271 2.341 . S
Tb241 C251 2.809 . S
Tb241 O262 2.325 . S
Tb241 O265 2.341 . S
Tb241 O266 2.484 . S
Tb241 O267 2.440 . S
Tb241 O268 2.658 . S
Tb241 O269 2.409 . S
Tb241 O270 2.378 . S
C242 Tb240 2.809 . S
C242 C243 1.514 1_455 S
C242 O260 1.248 . S
C242 O261 1.266 . S
C243 C242 1.514 1_655 S
C243 C244 1.359 . S
C243 C248 1.348 . S
C244 C243 1.359 . S
C244 C245 1.380 . S
C244 H272 0.929 . S
C245 C244 1.380 . S
C245 C246 1.347 . S
C245 H273 0.931 . S
C246 C245 1.347 . S
C246 C247 1.369 . S
C247 C246 1.369 . S
C247 C248 1.408 . S
C247 H274 0.930 . S
C248 C243 1.348 . S
C248 C247 1.408 . S
C248 H275 0.930 . S
C249 O262 1.281 . S
C249 O263 1.254 . S
C250 O264 1.236 . S
C250 O265 1.266 . S
C251 Tb241 2.809 . S
C251 C252 1.514 . S
C251 O266 1.248 . S
C251 O267 1.266 . S
C252 C251 1.514 . S
C252 C253 1.359 . S
C252 C257 1.348 . S
C253 C252 1.359 . S
C253 C254 1.380 . S
C253 H276 0.929 . S
C254 C253 1.380 . S
C254 C255 1.347 . S
C254 H277 0.931 . S
C255 C254 1.347 . S
C255 C256 1.369 . S
C256 C255 1.369 . S
C256 C257 1.408 . S
C256 H278 0.930 . S
C257 C252 1.348 . S
C257 C256 1.408 . S
C257 H279 0.930 . S
C258 O268 1.281 . S
C258 O269 1.254 . S
C259 O270 1.236 . S
C259 O271 1.266 . S
O260 Tb240 2.484 . S
O260 C242 1.248 . S
O261 Tb240 2.440 . S
O261 C242 1.266 . S
O262 Tb240 2.658 . S
O262 Tb241 2.325 . S
O262 C249 1.281 . S
O263 Tb240 2.409 . S
O263 C249 1.254 . S
O264 Tb240 2.378 . S
O264 C250 1.236 . S
O265 Tb241 2.341 . S
O265 C250 1.266 . S
O266 Tb241 2.484 . S
O266 C251 1.248 . S
O267 Tb241 2.440 . S
O267 C251 1.266 . S
O268 Tb240 2.325 . S
O268 Tb241 2.658 . S
O268 C258 1.281 . S
O269 Tb241 2.409 . S
O269 C258 1.254 . S
O270 Tb241 2.378 . S
O270 C259 1.236 . S
O271 Tb240 2.341 . S
O271 C259 1.266 . S
H272 C244 0.929 . S
H273 C245 0.931 . S
H274 C247 0.930 . S
H275 C248 0.930 . S
H276 C253 0.929 . S
H277 C254 0.931 . S
H278 C256 0.930 . S
H279 C257 0.930 . S
Tb280 C282 2.809 . S
Tb280 O300 2.484 . S
Tb280 O301 2.440 . S
Tb280 O302 2.658 . S
Tb280 O303 2.409 . S
Tb280 O304 2.378 . S
Tb280 O308 2.325 . S
Tb280 O311 2.341 . S
Tb281 C291 2.809 . S
Tb281 O302 2.325 . S
Tb281 O305 2.341 . S
Tb281 O306 2.484 . S
Tb281 O307 2.440 . S
Tb281 O308 2.658 . S
Tb281 O309 2.409 . S
Tb281 O310 2.378 . S
C282 Tb280 2.809 . S
C282 C283 1.514 . S
C282 O300 1.248 . S
C282 O301 1.266 . S
C283 C282 1.514 . S
C283 C284 1.359 . S
C283 C288 1.348 . S
C284 C283 1.359 . S
C284 C285 1.380 . S
C284 H312 0.929 . S
C285 C284 1.380 . S
C285 C286 1.347 . S
C285 H313 0.931 . S
C286 C285 1.347 . S
C286 C287 1.369 . S
C287 C286 1.369 . S
C287 C288 1.408 . S
C287 H314 0.930 . S
C288 C283 1.348 . S
C288 C287 1.408 . S
C288 H315 0.930 . S
C289 O302 1.281 . S
C289 O303 1.254 . S
C290 O304 1.236 . S
C290 O305 1.266 . S
C291 Tb281 2.809 . S
C291 C292 1.514 1_565 S
C291 O306 1.248 . S
C291 O307 1.266 . S
C292 C291 1.514 1_545 S
C292 C293 1.359 . S
C292 C297 1.348 . S
C293 C292 1.359 . S
C293 C294 1.380 . S
C293 H316 0.929 . S
C294 C293 1.380 . S
C294 C295 1.347 . S
C294 H317 0.931 . S
C295 C294 1.347 . S
C295 C296 1.369 . S
C296 C295 1.369 . S
C296 C297 1.408 . S
C296 H318 0.930 . S
C297 C292 1.348 . S
C297 C296 1.408 . S
C297 H319 0.930 . S
C298 O308 1.281 . S
C298 O309 1.254 . S
C299 O310 1.236 . S
C299 O311 1.266 . S
O300 Tb280 2.484 . S
O300 C282 1.248 . S
O301 Tb280 2.440 . S
O301 C282 1.266 . S
O302 Tb280 2.658 . S
O302 Tb281 2.325 . S
O302 C289 1.281 . S
O303 Tb280 2.409 . S
O303 C289 1.254 . S
O304 Tb280 2.378 . S
O304 C290 1.236 . S
O305 Tb281 2.341 . S
O305 C290 1.266 . S
O306 Tb281 2.484 . S
O306 C291 1.248 . S
O307 Tb281 2.440 . S
O307 C291 1.266 . S
O308 Tb280 2.325 . S
O308 Tb281 2.658 . S
O308 C298 1.281 . S
O309 Tb281 2.409 . S
O309 C298 1.254 . S
O310 Tb281 2.378 . S
O310 C299 1.236 . S
O311 Tb280 2.341 . S
O311 C299 1.266 . S
H312 C284 0.929 . S
H313 C285 0.931 . S
H314 C287 0.930 . S
H315 C288 0.930 . S
H316 C293 0.929 . S
H317 C294 0.931 . S
H318 C296 0.930 . S
H319 C297 0.930 . S
Tb320 C322 2.809 . S
Tb320 O340 2.484 . S
Tb320 O341 2.440 . S
Tb320 O342 2.658 . S
Tb320 O343 2.409 . S
Tb320 O344 2.378 . S
Tb320 O348 2.325 . S
Tb320 O351 2.341 . S
Tb321 C331 2.809 . S
Tb321 O342 2.325 . S
Tb321 O345 2.341 . S
Tb321 O346 2.484 . S
Tb321 O347 2.440 . S
Tb321 O348 2.658 . S
Tb321 O349 2.409 . S
Tb321 O350 2.378 . S
C322 Tb320 2.809 . S
C322 C323 1.514 . S
C322 O340 1.248 . S
C322 O341 1.266 . S
C323 C322 1.514 . S
C323 C324 1.359 . S
C323 C328 1.348 . S
C324 C323 1.359 . S
C324 C325 1.380 . S
C324 H352 0.929 . S
C325 C324 1.380 . S
C325 C326 1.347 . S
C325 H353 0.931 . S
C326 C325 1.347 . S
C326 C327 1.369 . S
C327 C326 1.369 . S
C327 C328 1.408 . S
C327 H354 0.930 . S
C328 C323 1.348 . S
C328 C327 1.408 . S
C328 H355 0.930 . S
C329 O342 1.281 . S
C329 O343 1.254 . S
C330 O344 1.236 . S
C330 O345 1.266 . S
C331 Tb321 2.809 . S
C331 C332 1.514 . S
C331 O346 1.248 . S
C331 O347 1.266 . S
C332 C331 1.514 . S
C332 C333 1.359 . S
C332 C337 1.348 . S
C333 C332 1.359 . S
C333 C334 1.380 . S
C333 H356 0.929 . S
C334 C333 1.380 . S
C334 C335 1.347 . S
C334 H357 0.931 . S
C335 C334 1.347 . S
C335 C336 1.369 . S
C336 C335 1.369 . S
C336 C337 1.408 . S
C336 H358 0.930 . S
C337 C332 1.348 . S
C337 C336 1.408 . S
C337 H359 0.930 . S
C338 O348 1.281 . S
C338 O349 1.254 . S
C339 O350 1.236 . S
C339 O351 1.266 . S
O340 Tb320 2.484 . S
O340 C322 1.248 . S
O341 Tb320 2.440 . S
O341 C322 1.266 . S
O342 Tb320 2.658 . S
O342 Tb321 2.325 . S
O342 C329 1.281 . S
O343 Tb320 2.409 . S
O343 C329 1.254 . S
O344 Tb320 2.378 . S
O344 C330 1.236 . S
O345 Tb321 2.341 . S
O345 C330 1.266 . S
O346 Tb321 2.484 . S
O346 C331 1.248 . S
O347 Tb321 2.440 . S
O347 C331 1.266 . S
O348 Tb320 2.325 . S
O348 Tb321 2.658 . S
O348 C338 1.281 . S
O349 Tb321 2.409 . S
O349 C338 1.254 . S
O350 Tb321 2.378 . S
O350 C339 1.236 . S
O351 Tb320 2.341 . S
O351 C339 1.266 . S
H352 C324 0.929 . S
H353 C325 0.931 . S
H354 C327 0.930 . S
H355 C328 0.930 . S
H356 C333 0.929 . S
H357 C334 0.931 . S
H358 C336 0.930 . S
H359 C337 0.930 . S
Tb360 C362 2.809 . S
Tb360 O380 2.484 . S
Tb360 O381 2.440 . S
Tb360 O382 2.658 . S
Tb360 O383 2.409 . S
Tb360 O384 2.378 . S
Tb360 O388 2.325 . S
Tb360 O391 2.341 . S
Tb361 C371 2.809 . S
Tb361 O382 2.325 . S
Tb361 O385 2.341 . S
Tb361 O386 2.484 . S
Tb361 O387 2.440 . S
Tb361 O388 2.658 . S
Tb361 O389 2.409 . S
Tb361 O390 2.378 . S
C362 Tb360 2.809 . S
C362 C363 1.514 . S
C362 O380 1.248 . S
C362 O381 1.266 . S
C363 C362 1.514 . S
C363 C364 1.359 . S
C363 C368 1.348 . S
C364 C363 1.359 . S
C364 C365 1.380 . S
C364 H392 0.929 . S
C365 C364 1.380 . S
C365 C366 1.347 . S
C365 H393 0.931 . S
C366 C365 1.347 . S
C366 C367 1.369 . S
C367 C366 1.369 . S
C367 C368 1.408 . S
C367 H394 0.930 . S
C368 C363 1.348 . S
C368 C367 1.408 . S
C368 H395 0.930 . S
C369 O382 1.281 . S
C369 O383 1.254 . S
C370 O384 1.236 . S
C370 O385 1.266 . S
C371 Tb361 2.809 . S
C371 C372 1.514 1_455 S
C371 O386 1.248 . S
C371 O387 1.266 . S
C372 C371 1.514 1_655 S
C372 C373 1.359 . S
C372 C377 1.348 . S
C373 C372 1.359 . S
C373 C374 1.380 . S
C373 H396 0.929 . S
C374 C373 1.380 . S
C374 C375 1.347 . S
C374 H397 0.931 . S
C375 C374 1.347 . S
C375 C376 1.369 . S
C376 C375 1.369 . S
C376 C377 1.408 . S
C376 H398 0.930 . S
C377 C372 1.348 . S
C377 C376 1.408 . S
C377 H399 0.930 . S
C378 O388 1.281 . S
C378 O389 1.254 . S
C379 O390 1.236 . S
C379 O391 1.266 . S
O380 Tb360 2.484 . S
O380 C362 1.248 . S
O381 Tb360 2.440 . S
O381 C362 1.266 . S
O382 Tb360 2.658 . S
O382 Tb361 2.325 . S
O382 C369 1.281 . S
O383 Tb360 2.409 . S
O383 C369 1.254 . S
O384 Tb360 2.378 . S
O384 C370 1.236 . S
O385 Tb361 2.341 . S
O385 C370 1.266 . S
O386 Tb361 2.484 . S
O386 C371 1.248 . S
O387 Tb361 2.440 . S
O387 C371 1.266 . S
O388 Tb360 2.325 . S
O388 Tb361 2.658 . S
O388 C378 1.281 . S
O389 Tb361 2.409 . S
O389 C378 1.254 . S
O390 Tb361 2.378 . S
O390 C379 1.236 . S
O391 Tb360 2.341 . S
O391 C379 1.266 . S
H392 C364 0.929 . S
H393 C365 0.931 . S
H394 C367 0.930 . S
H395 C368 0.930 . S
H396 C373 0.929 . S
H397 C374 0.931 . S
H398 C376 0.930 . S
H399 C377 0.930 . S
Tb400 C402 2.809 . S
Tb400 O420 2.484 . S
Tb400 O421 2.440 . S
Tb400 O422 2.658 . S
Tb400 O423 2.409 . S
Tb400 O424 2.378 . S
Tb400 O428 2.325 . S
Tb400 O431 2.341 . S
Tb401 C411 2.809 . S
Tb401 O422 2.325 . S
Tb401 O425 2.341 . S
Tb401 O426 2.484 . S
Tb401 O427 2.440 . S
Tb401 O428 2.658 . S
Tb401 O429 2.409 . S
Tb401 O430 2.378 . S
C402 Tb400 2.809 . S
C402 C403 1.514 1_565 S
C402 O420 1.248 . S
C402 O421 1.266 . S
C403 C402 1.514 1_545 S
C403 C404 1.359 . S
C403 C408 1.348 . S
C404 C403 1.359 . S
C404 C405 1.380 . S
C404 H432 0.929 . S
C405 C404 1.380 . S
C405 C406 1.347 . S
C405 H433 0.931 . S
C406 C405 1.347 . S
C406 C407 1.369 . S
C407 C406 1.369 . S
C407 C408 1.408 . S
C407 H434 0.930 . S
C408 C403 1.348 . S
C408 C407 1.408 . S
C408 H435 0.930 . S
C409 O422 1.281 . S
C409 O423 1.254 . S
C410 O424 1.236 . S
C410 O425 1.266 . S
C411 Tb401 2.809 . S
C411 C412 1.514 . S
C411 O426 1.248 . S
C411 O427 1.266 . S
C412 C411 1.514 . S
C412 C413 1.359 . S
C412 C417 1.348 . S
C413 C412 1.359 . S
C413 C414 1.380 . S
C413 H436 0.929 . S
C414 C413 1.380 . S
C414 C415 1.347 . S
C414 H437 0.931 . S
C415 C414 1.347 . S
C415 C416 1.369 . S
C416 C415 1.369 . S
C416 C417 1.408 . S
C416 H438 0.930 . S
C417 C412 1.348 . S
C417 C416 1.408 . S
C417 H439 0.930 . S
C418 O428 1.281 . S
C418 O429 1.254 . S
C419 O430 1.236 . S
C419 O431 1.266 . S
O420 Tb400 2.484 . S
O420 C402 1.248 . S
O421 Tb400 2.440 . S
O421 C402 1.266 . S
O422 Tb400 2.658 . S
O422 Tb401 2.325 . S
O422 C409 1.281 . S
O423 Tb400 2.409 . S
O423 C409 1.254 . S
O424 Tb400 2.378 . S
O424 C410 1.236 . S
O425 Tb401 2.341 . S
O425 C410 1.266 . S
O426 Tb401 2.484 . S
O426 C411 1.248 . S
O427 Tb401 2.440 . S
O427 C411 1.266 . S
O428 Tb400 2.325 . S
O428 Tb401 2.658 . S
O428 C418 1.281 . S
O429 Tb401 2.409 . S
O429 C418 1.254 . S
O430 Tb401 2.378 . S
O430 C419 1.236 . S
O431 Tb400 2.341 . S
O431 C419 1.266 . S
H432 C404 0.929 . S
H433 C405 0.931 . S
H434 C407 0.930 . S
H435 C408 0.930 . S
H436 C413 0.929 . S
H437 C414 0.931 . S
H438 C416 0.930 . S
H439 C417 0.930 . S
Tb440 C442 2.809 . S
Tb440 O460 2.484 . S
Tb440 O461 2.440 . S
Tb440 O462 2.658 . S
Tb440 O463 2.409 . S
Tb440 O464 2.378 . S
Tb440 O468 2.325 . S
Tb440 O471 2.341 . S
Tb441 C451 2.809 . S
Tb441 O462 2.325 . S
Tb441 O465 2.341 . S
Tb441 O466 2.484 . S
Tb441 O467 2.440 . S
Tb441 O468 2.658 . S
Tb441 O469 2.409 . S
Tb441 O470 2.378 . S
C442 Tb440 2.809 . S
C442 C443 1.514 . S
C442 O460 1.248 . S
C442 O461 1.266 . S
C443 C442 1.514 . S
C443 C444 1.359 . S
C443 C448 1.348 . S
C444 C443 1.359 . S
C444 C445 1.380 . S
C444 H472 0.929 . S
C445 C444 1.380 . S
C445 C446 1.347 . S
C445 H473 0.931 . S
C446 C445 1.347 . S
C446 C447 1.369 . S
C447 C446 1.369 . S
C447 C448 1.408 . S
C447 H474 0.930 . S
C448 C443 1.348 . S
C448 C447 1.408 . S
C448 H475 0.930 . S
C449 O462 1.281 . S
C449 O463 1.254 . S
C450 O464 1.236 . S
C450 O465 1.266 . S
C451 Tb441 2.809 . S
C451 C452 1.514 . S
C451 O466 1.248 . S
C451 O467 1.266 . S
C452 C451 1.514 . S
C452 C453 1.359 . S
C452 C457 1.348 . S
C453 C452 1.359 . S
C453 C454 1.380 . S
C453 H476 0.929 . S
C454 C453 1.380 . S
C454 C455 1.347 . S
C454 H477 0.931 . S
C455 C454 1.347 . S
C455 C456 1.369 . S
C456 C455 1.369 . S
C456 C457 1.408 . S
C456 H478 0.930 . S
C457 C452 1.348 . S
C457 C456 1.408 . S
C457 H479 0.930 . S
C458 O468 1.281 . S
C458 O469 1.254 . S
C459 O470 1.236 . S
C459 O471 1.266 . S
O460 Tb440 2.484 . S
O460 C442 1.248 . S
O461 Tb440 2.440 . S
O461 C442 1.266 . S
O462 Tb440 2.658 . S
O462 Tb441 2.325 . S
O462 C449 1.281 . S
O463 Tb440 2.409 . S
O463 C449 1.254 . S
O464 Tb440 2.378 . S
O464 C450 1.236 . S
O465 Tb441 2.341 . S
O465 C450 1.266 . S
O466 Tb441 2.484 . S
O466 C451 1.248 . S
O467 Tb441 2.440 . S
O467 C451 1.266 . S
O468 Tb440 2.325 . S
O468 Tb441 2.658 . S
O468 C458 1.281 . S
O469 Tb441 2.409 . S
O469 C458 1.254 . S
O470 Tb441 2.378 . S
O470 C459 1.236 . S
O471 Tb440 2.341 . S
O471 C459 1.266 . S
H472 C444 0.929 . S
H473 C445 0.931 . S
H474 C447 0.930 . S
H475 C448 0.930 . S
H476 C453 0.929 . S
H477 C454 0.931 . S
H478 C456 0.930 . S
H479 C457 0.930 . S
H480 C486 0.930 . S
H481 C490 0.930 . S
H482 C495 0.929 . S
H483 C493 0.929 . S
H484 C488 0.929 . S
H485 C494 0.929 . S
C486 H480 0.930 . S
C486 C487 1.367 . S
C486 C494 1.378 . S
C487 C486 1.367 . S
C487 C495 1.433 . S
C488 H484 0.929 . S
C488 C490 1.378 . S
C488 C492 1.350 . S
C489 C492 1.463 . S
C489 C494 1.350 . S
C489 N497 1.427 . S
C490 H481 0.930 . S
C490 C488 1.378 . S
C490 C491 1.367 . S
C491 C490 1.367 . S
C491 C493 1.433 . S
C492 C488 1.350 . S
C492 C489 1.463 . S
C492 N496 1.427 . S
C493 H483 0.929 . S
C493 C491 1.433 . S
C493 N496 1.384 . S
C494 H485 0.929 . S
C494 C486 1.378 . S
C494 C489 1.350 . S
C495 H482 0.929 . S
C495 C487 1.433 . S
C495 N497 1.384 . S
N496 C492 1.427 . S
N496 C493 1.384 . S
N497 C489 1.427 . S
N497 C495 1.384 . S
H498 C504 0.930 . S
H499 C508 0.930 . S
H500 C513 0.929 . S
H501 C511 0.929 . S
H502 C506 0.929 . S
H503 C512 0.951 . S
C504 H498 0.930 . S
C504 C505 1.367 . S
C504 C512 1.378 . S
C505 C504 1.367 . S
C505 C513 1.433 . S
C506 H502 0.929 . S
C506 C508 1.378 . S
C506 C510 1.350 . S
C507 C510 1.463 1_455 S
C507 C512 1.350 . S
C507 N515 1.427 . S
C508 H499 0.930 . S
C508 C506 1.378 . S
C508 C509 1.367 . S
C509 C508 1.367 . S
C509 C511 1.433 . S
C510 C506 1.350 . S
C510 C507 1.463 1_655 S
C510 N514 1.427 . S
C511 H501 0.929 . S
C511 C509 1.433 . S
C511 N514 1.384 . S
C512 H503 0.951 . S
C512 C504 1.378 . S
C512 C507 1.350 . S
C513 H500 0.929 . S
C513 C505 1.433 . S
C513 N515 1.384 . S
N514 C510 1.427 . S
N514 C511 1.384 . S
N515 C507 1.427 . S
N515 C513 1.384 . S
H516 C522 0.930 . S
H517 C526 0.930 . S
H518 C531 0.929 . S
H519 C529 0.929 . S
H520 C524 0.929 . S
H521 C530 0.929 . S
C522 H516 0.930 . S
C522 C523 1.367 . S
C522 C530 1.378 . S
C523 C522 1.367 . S
C523 C531 1.433 . S
C524 H520 0.929 . S
C524 C526 1.378 . S
C524 C528 1.350 . S
C525 C528 1.463 1_545 S
C525 C530 1.350 . S
C525 N533 1.427 . S
C526 H517 0.930 . S
C526 C524 1.378 . S
C526 C527 1.367 . S
C527 C526 1.367 . S
C527 C529 1.433 . S
C528 C524 1.350 . S
C528 C525 1.463 1_565 S
C528 N532 1.427 . S
C529 H519 0.929 . S
C529 C527 1.433 . S
C529 N532 1.384 . S
C530 H521 0.929 . S
C530 C522 1.378 . S
C530 C525 1.350 . S
C531 H518 0.929 . S
C531 C523 1.433 . S
C531 N533 1.384 . S
N532 C528 1.427 . S
N532 C529 1.384 . S
N533 C525 1.427 . S
N533 C531 1.384 . S
H534 C540 0.930 . S
H535 C544 0.930 . S
H536 C549 0.929 . S
H537 C547 0.929 . S
H538 C542 0.929 . S
H539 C548 0.929 . S
C540 H534 0.930 . S
C540 C541 1.367 . S
C540 C548 1.378 . S
C541 C540 1.367 . S
C541 C549 1.433 . S
C542 H538 0.929 . S
C542 C544 1.378 . S
C542 C546 1.350 . S
C543 C546 1.463 . S
C543 C548 1.350 . S
C543 N551 1.427 . S
C544 H535 0.930 . S
C544 C542 1.378 . S
C544 C545 1.367 . S
C545 C544 1.367 . S
C545 C547 1.433 . S
C546 C542 1.350 . S
C546 C543 1.463 . S
C546 N550 1.427 . S
C547 H537 0.929 . S
C547 C545 1.433 . S
C547 N550 1.384 . S
C548 H539 0.929 . S
C548 C540 1.378 . S
C548 C543 1.350 . S
C549 H536 0.929 . S
C549 C541 1.433 . S
C549 N551 1.384 . S
N550 C546 1.427 . S
N550 C547 1.384 . S
N551 C543 1.427 . S
N551 C549 1.384 . S
H552 C558 0.930 . S
H553 C562 0.930 . S
H554 C567 0.929 . S
H555 C565 0.929 . S
H556 C560 0.929 . S
H557 C566 0.929 . S
C558 H552 0.930 . S
C558 C559 1.367 . S
C558 C566 1.378 . S
C559 C558 1.367 . S
C559 C567 1.433 . S
C560 H556 0.929 . S
C560 C562 1.378 . S
C560 C564 1.350 . S
C561 C564 1.463 1_455 S
C561 C566 1.350 . S
C561 N569 1.427 . S
C562 H553 0.930 . S
C562 C560 1.378 . S
C562 C563 1.367 . S
C563 C562 1.367 . S
C563 C565 1.433 . S
C564 C560 1.350 . S
C564 C561 1.463 1_655 S
C564 N568 1.427 . S
C565 H555 0.929 . S
C565 C563 1.433 . S
C565 N568 1.384 . S
C566 H557 0.929 . S
C566 C558 1.378 . S
C566 C561 1.350 . S
C567 H554 0.929 . S
C567 C559 1.433 . S
C567 N569 1.384 . S
N568 C564 1.427 . S
N568 C565 1.384 . S
N569 C561 1.427 . S
N569 C567 1.384 . S
H570 C576 0.930 . S
H571 C580 0.930 . S
H572 C585 0.929 . S
H573 C583 0.929 . S
H574 C578 0.929 . S
H575 C584 0.929 . S
C576 H570 0.930 . S
C576 C577 1.367 . S
C576 C584 1.378 . S
C577 C576 1.367 . S
C577 C585 1.433 . S
C578 H574 0.929 . S
C578 C580 1.378 . S
C578 C582 1.350 . S
C579 C582 1.463 1_565 S
C579 C584 1.350 . S
C579 N587 1.427 . S
C580 H571 0.930 . S
C580 C578 1.378 . S
C580 C581 1.367 . S
C581 C580 1.367 . S
C581 C583 1.433 . S
C582 C578 1.350 . S
C582 C579 1.463 1_545 S
C582 N586 1.427 . S
C583 H573 0.929 . S
C583 C581 1.433 . S
C583 N586 1.384 . S
C584 H575 0.929 . S
C584 C576 1.378 . S
C584 C579 1.350 . S
C585 H572 0.929 . S
C585 C577 1.433 . S
C585 N587 1.384 . S
N586 C582 1.427 . S
N586 C583 1.384 . S
N587 C579 1.427 . S
N587 C585 1.384 . S
H588 C594 0.930 . S
H589 C598 0.930 . S
H590 C603 0.929 . S
H591 C601 0.929 . S
H592 C596 0.929 . S
H593 C602 0.929 . S
C594 H588 0.930 . S
C594 C595 1.367 . S
C594 C602 1.378 . S
C595 C594 1.367 . S
C595 C603 1.433 . S
C596 H592 0.929 . S
C596 C598 1.378 . S
C596 C600 1.350 . S
C597 C600 1.463 . S
C597 C602 1.350 . S
C597 N605 1.427 . S
C598 H589 0.930 . S
C598 C596 1.378 . S
C598 C599 1.367 . S
C599 C598 1.367 . S
C599 C601 1.433 . S
C600 C596 1.350 . S
C600 C597 1.463 . S
C600 N604 1.427 . S
C601 H591 0.929 . S
C601 C599 1.433 . S
C601 N604 1.384 . S
C602 H593 0.929 . S
C602 C594 1.378 . S
C602 C597 1.350 . S
C603 H590 0.929 . S
C603 C595 1.433 . S
C603 N605 1.384 . S
N604 C600 1.427 . S
N604 C601 1.384 . S
N605 C597 1.427 . S
N605 C603 1.384 . S
H606 C612 0.930 . S
H607 C616 0.930 . S
H608 C621 0.929 . S
H609 C619 0.929 . S
H610 C614 0.929 . S
H611 C620 0.929 . S
C612 H606 0.930 . S
C612 C613 1.367 . S
C612 C620 1.378 . S
C613 C612 1.367 . S
C613 C621 1.433 . S
C614 H610 0.929 . S
C614 C616 1.378 . S
C614 C618 1.350 . S
C615 C618 1.463 1_455 S
C615 C620 1.350 . S
C615 N623 1.427 . S
C616 H607 0.930 . S
C616 C614 1.378 . S
C616 C617 1.367 . S
C617 C616 1.367 . S
C617 C619 1.433 . S
C618 C614 1.350 . S
C618 C615 1.463 1_655 S
C618 N622 1.427 . S
C619 H609 0.929 . S
C619 C617 1.433 . S
C619 N622 1.384 . S
C620 H611 0.929 . S
C620 C612 1.378 . S
C620 C615 1.350 . S
C621 H608 0.929 . S
C621 C613 1.433 . S
C621 N623 1.384 . S
N622 C618 1.427 . S
N622 C619 1.384 . S
N623 C615 1.427 . S
N623 C621 1.384 . S
H624 C630 0.930 . S
H625 C634 0.930 . S
H626 C639 0.929 . S
H627 C637 0.929 . S
H628 C632 0.929 1_565 S
H629 C638 0.929 . S
C630 H624 0.930 . S
C630 C631 1.367 . S
C630 C638 1.378 . S
C631 C630 1.367 . S
C631 C639 1.433 . S
C632 H628 0.929 1_545 S
C632 C634 1.378 . S
C632 C636 1.350 . S
C633 C636 1.463 1_565 S
C633 C638 1.350 . S
C633 N641 1.427 . S
C634 H625 0.930 . S
C634 C632 1.378 . S
C634 C635 1.367 . S
C635 C634 1.367 . S
C635 C637 1.433 . S
C636 C632 1.350 . S
C636 C633 1.463 1_545 S
C636 N640 1.427 . S
C637 H627 0.929 . S
C637 C635 1.433 . S
C637 N640 1.384 . S
C638 H629 0.929 . S
C638 C630 1.378 . S
C638 C633 1.350 . S
C639 H626 0.929 . S
C639 C631 1.433 . S
C639 N641 1.384 . S
N640 C636 1.427 . S
N640 C637 1.384 . S
N641 C633 1.427 . S
N641 C639 1.384 . S
H642 C648 0.930 . S
H643 C652 0.930 . S
H644 C657 0.929 . S
H645 C655 0.929 . S
H646 C650 0.929 . S
H647 C656 0.929 . S
C648 H642 0.930 . S
C648 C649 1.367 . S
C648 C656 1.378 . S
C649 C648 1.367 . S
C649 C657 1.433 . S
C650 H646 0.929 . S
C650 C652 1.378 . S
C650 C654 1.350 . S
C651 C654 1.463 . S
C651 C656 1.350 . S
C651 N659 1.427 . S
C652 H643 0.930 . S
C652 C650 1.378 . S
C652 C653 1.367 . S
C653 C652 1.367 . S
C653 C655 1.433 . S
C654 C650 1.350 . S
C654 C651 1.463 . S
C654 N658 1.427 . S
C655 H645 0.929 . S
C655 C653 1.433 . S
C655 N658 1.384 . S
C656 H647 0.929 . S
C656 C648 1.378 . S
C656 C651 1.350 . S
C657 H644 0.929 . S
C657 C649 1.433 . S
C657 N659 1.384 . S
N658 C654 1.427 . S
N658 C655 1.384 . S
N659 C651 1.427 . S
N659 C657 1.384 . S
H660 C666 0.930 . S
H661 C670 0.930 . S
H662 C675 0.929 . S
H663 C673 0.929 . S
H664 C668 0.940 . S
H665 C674 0.929 . S
C666 H660 0.930 . S
C666 C667 1.367 . S
C666 C674 1.378 . S
C667 C666 1.367 . S
C667 C675 1.433 . S
C668 H664 0.940 . S
C668 C670 1.378 . S
C668 C672 1.350 . S
C669 C672 1.463 1_455 S
C669 C674 1.350 . S
C669 N677 1.427 . S
C670 H661 0.930 . S
C670 C668 1.378 . S
C670 C671 1.367 . S
C671 C670 1.367 . S
C671 C673 1.433 . S
C672 C668 1.350 . S
C672 C669 1.463 1_655 S
C672 N676 1.427 . S
C673 H663 0.929 . S
C673 C671 1.433 . S
C673 N676 1.384 . S
C674 H665 0.929 . S
C674 C666 1.378 . S
C674 C669 1.350 . S
C675 H662 0.929 . S
C675 C667 1.433 . S
C675 N677 1.384 . S
N676 C672 1.427 . S
N676 C673 1.384 . S
N677 C669 1.427 . S
N677 C675 1.384 . S
H678 C684 0.930 . S
H679 C688 0.930 . S
H680 C693 0.929 . S
H681 C691 0.929 . S
H682 C686 0.929 . S
H683 C692 0.929 . S
C684 H678 0.930 . S
C684 C685 1.367 . S
C684 C692 1.378 . S
C685 C684 1.367 . S
C685 C693 1.433 . S
C686 H682 0.929 . S
C686 C688 1.378 . S
C686 C690 1.350 . S
C687 C690 1.463 1_545 S
C687 C692 1.350 . S
C687 N695 1.427 . S
C688 H679 0.930 . S
C688 C686 1.378 . S
C688 C689 1.367 . S
C689 C688 1.367 . S
C689 C691 1.433 . S
C690 C686 1.350 . S
C690 C687 1.463 1_565 S
C690 N694 1.427 . S
C691 H681 0.929 . S
C691 C689 1.433 . S
C691 N694 1.384 . S
C692 H683 0.929 . S
C692 C684 1.378 . S
C692 C687 1.350 . S
C693 H680 0.929 . S
C693 C685 1.433 . S
C693 N695 1.384 . S
N694 C690 1.427 . S
N694 C691 1.384 . S
N695 C687 1.427 . S
N695 C693 1.384 . S
H696 C702 0.930 . S
H697 C706 0.930 . S
H698 C711 0.929 . S
H699 C709 0.929 . S
H700 C704 0.929 . S
H701 C710 0.929 . S
C702 H696 0.930 . S
C702 C703 1.367 . S
C702 C710 1.378 . S
C703 C702 1.367 . S
C703 C711 1.433 . S
C704 H700 0.929 . S
C704 C706 1.378 . S
C704 C708 1.350 . S
C705 C708 1.463 . S
C705 C710 1.350 . S
C705 N713 1.427 . S
C706 H697 0.930 . S
C706 C704 1.378 . S
C706 C707 1.367 . S
C707 C706 1.367 . S
C707 C709 1.433 . S
C708 C704 1.350 . S
C708 C705 1.463 . S
C708 N712 1.427 . S
C709 H699 0.929 . S
C709 C707 1.433 . S
C709 N712 1.384 . S
C710 H701 0.929 . S
C710 C702 1.378 . S
C710 C705 1.350 . S
C711 H698 0.929 . S
C711 C703 1.433 . S
C711 N713 1.384 . S
N712 C708 1.427 . S
N712 C709 1.384 . S
N713 C705 1.427 . S
N713 C711 1.384 . S
H714 C720 0.930 . S
H715 C724 0.930 . S
H716 C729 0.929 . S
H717 C727 0.929 . S
H718 C722 0.929 . S
H719 C728 0.929 . S
C720 H714 0.930 . S
C720 C721 1.367 . S
C720 C728 1.378 . S
C721 C720 1.367 . S
C721 C729 1.433 . S
C722 H718 0.929 . S
C722 C724 1.378 . S
C722 C726 1.350 . S
C723 C726 1.463 . S
C723 C728 1.350 . S
C723 N731 1.427 . S
C724 H715 0.930 . S
C724 C722 1.378 . S
C724 C725 1.367 . S
C725 C724 1.367 . S
C725 C727 1.433 . S
C726 C722 1.350 . S
C726 C723 1.463 . S
C726 N730 1.427 . S
C727 H717 0.929 . S
C727 C725 1.433 . S
C727 N730 1.384 . S
C728 H719 0.929 . S
C728 C720 1.378 . S
C728 C723 1.350 . S
C729 H716 0.929 . S
C729 C721 1.433 . S
C729 N731 1.384 . S
N730 C726 1.427 . S
N730 C727 1.384 . S
N731 C723 1.427 . S
N731 C729 1.384 . S
H732 C738 0.930 . S
H733 C742 0.930 . S
H734 C747 0.929 . S
H735 C745 0.929 . S
H736 C740 0.929 . S
H737 C746 0.929 . S
C738 H732 0.930 . S
C738 C739 1.367 . S
C738 C746 1.378 . S
C739 C738 1.367 . S
C739 C747 1.433 . S
C740 H736 0.929 . S
C740 C742 1.378 . S
C740 C744 1.350 . S
C741 C744 1.463 . S
C741 C746 1.350 . S
C741 N749 1.427 . S
C742 H733 0.930 . S
C742 C740 1.378 . S
C742 C743 1.367 . S
C743 C742 1.367 . S
C743 C745 1.433 . S
C744 C740 1.350 . S
C744 C741 1.463 . S
C744 N748 1.427 . S
C745 H735 0.929 . S
C745 C743 1.433 . S
C745 N748 1.384 . S
C746 H737 0.929 . S
C746 C738 1.378 . S
C746 C741 1.350 . S
C747 H734 0.929 . S
C747 C739 1.433 . S
C747 N749 1.384 . S
N748 C744 1.427 . S
N748 C745 1.384 . S
N749 C741 1.427 . S
N749 C747 1.384 . S
H750 C756 0.930 . S
H751 C760 0.930 . S
H752 C765 0.929 . S
H753 C763 0.929 . S
H754 C758 0.929 . S
H755 C764 0.929 . S
C756 H750 0.930 . S
C756 C757 1.367 . S
C756 C764 1.378 . S
C757 C756 1.367 . S
C757 C765 1.433 . S
C758 H754 0.929 . S
C758 C760 1.378 . S
C758 C762 1.350 . S
C759 C762 1.463 . S
C759 C764 1.350 . S
C759 N767 1.427 . S
C760 H751 0.930 . S
C760 C758 1.378 . S
C760 C761 1.367 . S
C761 C760 1.367 . S
C761 C763 1.433 . S
C762 C758 1.350 . S
C762 C759 1.463 . S
C762 N766 1.427 . S
C763 H753 0.929 . S
C763 C761 1.433 . S
C763 N766 1.384 . S
C764 H755 0.929 . S
C764 C756 1.378 . S
C764 C759 1.350 . S
C765 H752 0.929 . S
C765 C757 1.433 . S
C765 N767 1.384 . S
N766 C762 1.427 . S
N766 C763 1.384 . S
N767 C759 1.427 . S
N767 C765 1.384 . S
H768 C774 0.930 . S
H769 C778 0.930 . S
H770 C783 0.929 . S
H771 C781 0.929 . S
H772 C776 0.929 . S
H773 C782 0.929 . S
C774 H768 0.930 . S
C774 C775 1.367 . S
C774 C782 1.378 . S
C775 C774 1.367 . S
C775 C783 1.433 . S
C776 H772 0.929 . S
C776 C778 1.378 . S
C776 C780 1.350 . S
C777 C780 1.463 . S
C777 C782 1.350 . S
C777 N785 1.427 . S
C778 H769 0.930 . S
C778 C776 1.378 . S
C778 C779 1.367 . S
C779 C778 1.367 . S
C779 C781 1.433 . S
C780 C776 1.350 . S
C780 C777 1.463 . S
C780 N784 1.427 . S
C781 H771 0.929 . S
C781 C779 1.433 . S
C781 N784 1.384 . S
C782 H773 0.929 . S
C782 C774 1.378 . S
C782 C777 1.350 . S
C783 H770 0.929 . S
C783 C775 1.433 . S
C783 N785 1.384 . S
N784 C780 1.427 . S
N784 C781 1.384 . S
N785 C777 1.427 . S
N785 C783 1.384 . S
H786 C792 0.930 . S
H787 C796 0.930 . S
H788 C801 0.929 . S
H789 C799 0.929 . S
H790 C794 0.929 . S
H791 C800 0.929 . S
C792 H786 0.930 . S
C792 C793 1.367 . S
C792 C800 1.378 . S
C793 C792 1.367 . S
C793 C801 1.433 . S
C794 H790 0.929 . S
C794 C796 1.378 . S
C794 C798 1.350 . S
C795 C798 1.463 . S
C795 C800 1.350 . S
C795 N803 1.427 . S
C796 H787 0.930 . S
C796 C794 1.378 . S
C796 C797 1.367 . S
C797 C796 1.367 . S
C797 C799 1.433 . S
C798 C794 1.350 . S
C798 C795 1.463 . S
C798 N802 1.427 . S
C799 H789 0.929 . S
C799 C797 1.433 . S
C799 N802 1.384 . S
C800 H791 0.929 . S
C800 C792 1.378 . S
C800 C795 1.350 . S
C801 H788 0.929 . S
C801 C793 1.433 . S
C801 N803 1.384 . S
N802 C798 1.427 . S
N802 C799 1.384 . S
N803 C795 1.427 . S
N803 C801 1.384 . S
H804 C810 0.930 . S
H805 C814 0.930 . S
H806 C819 0.929 . S
H807 C817 0.929 . S
H808 C812 0.929 . S
H809 C818 0.929 . S
C810 H804 0.930 . S
C810 C811 1.367 . S
C810 C818 1.378 . S
C811 C810 1.367 . S
C811 C819 1.433 . S
C812 H808 0.929 . S
C812 C814 1.378 . S
C812 C816 1.350 . S
C813 C816 1.463 1_566 S
C813 C818 1.350 . S
C813 N821 1.427 . S
C814 H805 0.930 . S
C814 C812 1.378 . S
C814 C815 1.367 . S
C815 C814 1.367 . S
C815 C817 1.433 . S
C816 C812 1.350 . S
C816 C813 1.463 1_544 S
C816 N820 1.427 . S
C817 H807 0.929 . S
C817 C815 1.433 . S
C817 N820 1.384 . S
C818 H809 0.929 . S
C818 C810 1.378 . S
C818 C813 1.350 . S
C819 H806 0.929 . S
C819 C811 1.433 . S
C819 N821 1.384 . S
N820 C816 1.427 . S
N820 C817 1.384 . S
N821 C813 1.427 . S
N821 C819 1.384 . S
H822 C828 0.930 . S
H823 C832 0.930 . S
H824 C837 0.929 . S
H825 C835 0.929 . S
H826 C830 0.929 . S
H827 C836 0.929 . S
C828 H822 0.930 . S
C828 C829 1.367 . S
C828 C836 1.378 . S
C829 C828 1.367 . S
C829 C837 1.433 . S
C830 H826 0.929 . S
C830 C832 1.378 . S
C830 C834 1.350 . S
C831 C834 1.463 . S
C831 C836 1.350 . S
C831 N839 1.427 . S
C832 H823 0.930 . S
C832 C830 1.378 . S
C832 C833 1.367 . S
C833 C832 1.367 . S
C833 C835 1.433 . S
C834 C830 1.350 . S
C834 C831 1.463 . S
C834 N838 1.427 . S
C835 H825 0.929 . S
C835 C833 1.433 . S
C835 N838 1.384 . S
C836 H827 0.929 . S
C836 C828 1.378 . S
C836 C831 1.350 . S
C837 H824 0.929 . S
C837 C829 1.433 . S
C837 N839 1.384 . S
N838 C834 1.427 . S
N838 C835 1.384 . S
N839 C831 1.427 . S
N839 C837 1.384 . S
H840 C846 0.930 . S
H841 C850 0.930 . S
H842 C855 0.929 . S
H843 C853 0.929 . S
H844 C848 0.929 . S
H845 C854 0.929 . S
C846 H840 0.930 . S
C846 C847 1.367 . S
C846 C854 1.378 . S
C847 C846 1.367 . S
C847 C855 1.433 . S
C848 H844 0.929 . S
C848 C850 1.378 . S
C848 C852 1.350 . S
C849 C852 1.463 1_456 S
C849 C854 1.350 . S
C849 N857 1.427 . S
C850 H841 0.930 . S
C850 C848 1.378 . S
C850 C851 1.367 . S
C851 C850 1.367 . S
C851 C853 1.433 . S
C852 C848 1.350 . S
C852 C849 1.463 1_654 S
C852 N856 1.427 . S
C853 H843 0.929 . S
C853 C851 1.433 . S
C853 N856 1.384 . S
C854 H845 0.929 . S
C854 C846 1.378 . S
C854 C849 1.350 . S
C855 H842 0.929 . S
C855 C847 1.433 . S
C855 N857 1.384 . S
N856 C852 1.427 . S
N856 C853 1.384 . S
N857 C849 1.427 . S
N857 C855 1.384 . S
H858 C864 0.930 . S
H859 C868 0.930 . S
H860 C873 0.929 . S
H861 C871 0.929 . S
H862 C866 0.929 . S
H863 C872 0.929 . S
C864 H858 0.930 . S
C864 C865 1.367 . S
C864 C872 1.378 . S
C865 C864 1.367 . S
C865 C873 1.433 . S
C866 H862 0.929 . S
C866 C868 1.378 . S
C866 C870 1.350 . S
C867 C870 1.463 1_545 S
C867 C872 1.350 . S
C867 N875 1.427 . S
C868 H859 0.930 . S
C868 C866 1.378 . S
C868 C869 1.367 . S
C869 C868 1.367 . S
C869 C871 1.433 . S
C870 C866 1.350 . S
C870 C867 1.463 1_565 S
C870 N874 1.427 . S
C871 H861 0.929 . S
C871 C869 1.433 . S
C871 N874 1.384 . S
C872 H863 0.929 . S
C872 C864 1.378 . S
C872 C867 1.350 . S
C873 H860 0.929 . S
C873 C865 1.433 . S
C873 N875 1.384 . S
N874 C870 1.427 . S
N874 C871 1.384 . S
N875 C867 1.427 . S
N875 C873 1.384 . S
H876 C882 0.930 . S
H877 C886 0.930 . S
H878 C891 0.929 . S
H879 C889 0.929 . S
H880 C884 0.929 . S
H881 C890 0.929 . S
C882 H876 0.930 . S
C882 C883 1.367 . S
C882 C890 1.378 . S
C883 C882 1.367 . S
C883 C891 1.433 . S
C884 H880 0.929 . S
C884 C886 1.378 . S
C884 C888 1.350 . S
C885 C888 1.463 1_554 S
C885 C890 1.350 . S
C885 N893 1.427 1_554 S
C886 H877 0.930 . S
C886 C884 1.378 . S
C886 C887 1.367 . S
C887 C886 1.367 . S
C887 C889 1.433 . S
C888 C884 1.350 . S
C888 C885 1.463 1_556 S
C888 N892 1.427 1_556 S
C889 H879 0.929 . S
C889 C887 1.433 . S
C889 N892 1.384 1_556 S
C890 H881 0.929 . S
C890 C882 1.378 . S
C890 C885 1.350 . S
C891 H878 0.929 . S
C891 C883 1.433 . S
C891 N893 1.384 1_554 S
N892 C888 1.427 1_554 S
N892 C889 1.384 1_554 S
N893 C885 1.427 1_556 S
N893 C891 1.384 1_556 S
H894 C900 0.930 . S
H895 C904 0.930 . S
H896 C909 0.929 . S
H897 C907 0.929 . S
H898 C902 0.929 . S
H899 C908 0.929 . S
C900 H894 0.930 . S
C900 C901 1.367 . S
C900 C908 1.378 . S
C901 C900 1.367 . S
C901 C909 1.433 . S
C902 H898 0.929 . S
C902 C904 1.378 . S
C902 C906 1.350 . S
C903 C906 1.463 1_455 S
C903 C908 1.350 . S
C903 N911 1.427 . S
C904 H895 0.930 . S
C904 C902 1.378 . S
C904 C905 1.367 . S
C905 C904 1.367 . S
C905 C907 1.433 . S
C906 C902 1.350 . S
C906 C903 1.463 1_655 S
C906 N910 1.427 . S
C907 H897 0.929 . S
C907 C905 1.433 . S
C907 N910 1.384 . S
C908 H899 0.929 . S
C908 C900 1.378 . S
C908 C903 1.350 . S
C909 H896 0.929 . S
C909 C901 1.433 . S
C909 N911 1.384 . S
N910 C906 1.427 . S
N910 C907 1.384 . S
N911 C903 1.427 . S
N911 C909 1.384 . S
H912 C918 0.930 . S
H913 C922 0.930 . S
H914 C927 0.929 . S
H915 C925 0.929 . S
H916 C920 0.929 . S
H917 C926 0.929 . S
C918 H912 0.930 . S
C918 C919 1.367 . S
C918 C926 1.378 . S
C919 C918 1.367 . S
C919 C927 1.433 . S
C920 H916 0.929 . S
C920 C922 1.378 . S
C920 C924 1.350 . S
C921 C924 1.463 . S
C921 C926 1.350 . S
C921 N929 1.427 . S
C922 H913 0.930 . S
C922 C920 1.378 . S
C922 C923 1.367 . S
C923 C922 1.367 . S
C923 C925 1.433 . S
C924 C920 1.350 . S
C924 C921 1.463 . S
C924 N928 1.427 . S
C925 H915 0.929 . S
C925 C923 1.433 . S
C925 N928 1.384 . S
C926 H917 0.929 . S
C926 C918 1.378 . S
C926 C921 1.350 . S
C927 H914 0.929 . S
C927 C919 1.433 . S
C927 N929 1.384 . S
N928 C924 1.427 . S
N928 C925 1.384 . S
N929 C921 1.427 . S
N929 C927 1.384 . S
H930 C936 0.930 . S
H931 C940 0.930 . S
H932 C945 0.929 . S
H933 C943 0.929 . S
H934 C938 0.929 . S
H935 C944 0.929 . S
C936 H930 0.930 . S
C936 C937 1.367 . S
C936 C944 1.378 . S
C937 C936 1.367 . S
C937 C945 1.433 . S
C938 H934 0.929 . S
C938 C940 1.378 . S
C938 C942 1.350 . S
C939 C942 1.463 . S
C939 C944 1.350 . S
C939 N947 1.427 . S
C940 H931 0.930 . S
C940 C938 1.378 . S
C940 C941 1.367 . S
C941 C940 1.367 . S
C941 C943 1.433 . S
C942 C938 1.350 . S
C942 C939 1.463 . S
C942 N946 1.427 . S
C943 H933 0.929 . S
C943 C941 1.433 . S
C943 N946 1.384 . S
C944 H935 0.929 . S
C944 C936 1.378 . S
C944 C939 1.350 . S
C945 H932 0.929 . S
C945 C937 1.433 . S
C945 N947 1.384 . S
N946 C942 1.427 . S
N946 C943 1.384 . S
N947 C939 1.427 . S
N947 C945 1.384 . S
H948 C954 0.930 . S
H949 C958 0.930 . S
H950 C963 0.929 . S
H951 C961 0.929 . S
H952 C956 0.929 . S
H953 C962 0.929 . S
C954 H948 0.930 . S
C954 C955 1.367 . S
C954 C962 1.378 . S
C955 C954 1.367 . S
C955 C963 1.433 . S
C956 H952 0.929 . S
C956 C958 1.378 . S
C956 C960 1.350 . S
C957 C960 1.463 . S
C957 C962 1.350 . S
C957 N965 1.427 . S
C958 H949 0.930 . S
C958 C956 1.378 . S
C958 C959 1.367 . S
C959 C958 1.367 . S
C959 C961 1.433 . S
C960 C956 1.350 . S
C960 C957 1.463 . S
C960 N964 1.427 . S
C961 H951 0.929 . S
C961 C959 1.433 . S
C961 N964 1.384 . S
C962 H953 0.929 . S
C962 C954 1.378 . S
C962 C957 1.350 . S
C963 H950 0.929 . S
C963 C955 1.433 . S
C963 N965 1.384 . S
N964 C960 1.427 . S
N964 C961 1.384 . S
N965 C957 1.427 . S
N965 C963 1.384 . S
H966 C972 0.930 . S
H967 C976 0.930 . S
H968 C981 0.929 . S
H969 C979 0.929 . S
H970 C974 0.929 . S
H971 C980 0.929 . S
C972 H966 0.930 . S
C972 C973 1.367 . S
C972 C980 1.378 . S
C973 C972 1.367 . S
C973 C981 1.433 . S
C974 H970 0.929 . S
C974 C976 1.378 . S
C974 C978 1.350 . S
C975 C978 1.463 . S
C975 C980 1.350 . S
C975 N983 1.427 . S
C976 H967 0.930 . S
C976 C974 1.378 . S
C976 C977 1.367 . S
C977 C976 1.367 . S
C977 C979 1.433 . S
C978 C974 1.350 . S
C978 C975 1.463 . S
C978 N982 1.427 . S
C979 H969 0.929 . S
C979 C977 1.433 . S
C979 N982 1.384 . S
C980 H971 0.929 . S
C980 C972 1.378 . S
C980 C975 1.350 . S
C981 H968 0.929 . S
C981 C973 1.433 . S
C981 N983 1.384 . S
N982 C978 1.427 . S
N982 C979 1.384 . S
N983 C975 1.427 . S
N983 C981 1.384 . S
H984 C990 0.930 . S
H985 C994 0.930 . S
H986 C999 0.929 . S
H987 C997 0.929 . S
H988 C992 0.929 . S
H989 C998 0.929 . S
C990 H984 0.930 . S
C990 C991 1.367 . S
C990 C998 1.378 . S
C991 C990 1.367 . S
C991 C999 1.433 . S
C992 H988 0.929 . S
C992 C994 1.378 . S
C992 C996 1.350 . S
C993 C996 1.463 . S
C993 C998 1.350 . S
C993 N1001 1.427 . S
C994 H985 0.930 . S
C994 C992 1.378 . S
C994 C995 1.367 . S
C995 C994 1.367 . S
C995 C997 1.433 . S
C996 C992 1.350 . S
C996 C993 1.463 . S
C996 N1000 1.427 . S
C997 H987 0.929 . S
C997 C995 1.433 . S
C997 N1000 1.384 . S
C998 H989 0.929 . S
C998 C990 1.378 . S
C998 C993 1.350 . S
C999 H986 0.929 . S
C999 C991 1.433 . S
C999 N1001 1.384 . S
N1000 C996 1.427 . S
N1000 C997 1.384 . S
N1001 C993 1.427 . S
N1001 C999 1.384 . S
H1002 C1008 0.930 . S
H1003 C1012 0.930 . S
H1004 C1017 0.929 . S
H1005 C1015 0.929 . S
H1006 C1010 0.929 . S
H1007 C1016 0.929 . S
C1008 H1002 0.930 . S
C1008 C1009 1.367 . S
C1008 C1016 1.378 . S
C1009 C1008 1.367 . S
C1009 C1017 1.433 . S
C1010 H1006 0.929 . S
C1010 C1012 1.378 . S
C1010 C1014 1.350 . S
C1011 C1014 1.463 . S
C1011 C1016 1.350 . S
C1011 N1019 1.427 . S
C1012 H1003 0.930 . S
C1012 C1010 1.378 . S
C1012 C1013 1.367 . S
C1013 C1012 1.367 . S
C1013 C1015 1.433 . S
C1014 C1010 1.350 . S
C1014 C1011 1.463 . S
C1014 N1018 1.427 . S
C1015 H1005 0.929 . S
C1015 C1013 1.433 . S
C1015 N1018 1.384 . S
C1016 H1007 0.929 . S
C1016 C1008 1.378 . S
C1016 C1011 1.350 . S
C1017 H1004 0.929 . S
C1017 C1009 1.433 . S
C1017 N1019 1.384 . S
N1018 C1014 1.427 . S
N1018 C1015 1.384 . S
N1019 C1011 1.427 . S
N1019 C1017 1.384 . S
H1020 C1026 0.930 . S
H1021 C1030 0.930 . S
H1022 C1035 0.929 . S
H1023 C1033 0.929 . S
H1024 C1028 0.929 . S
H1025 C1034 0.929 . S
C1026 H1020 0.930 . S
C1026 C1027 1.367 . S
C1026 C1034 1.378 . S
C1027 C1026 1.367 . S
C1027 C1035 1.433 . S
C1028 H1024 0.929 . S
C1028 C1030 1.378 . S
C1028 C1032 1.350 . S
C1029 C1032 1.463 . S
C1029 C1034 1.350 . S
C1029 N1037 1.427 . S
C1030 H1021 0.930 . S
C1030 C1028 1.378 . S
C1030 C1031 1.367 . S
C1031 C1030 1.367 . S
C1031 C1033 1.433 . S
C1032 C1028 1.350 . S
C1032 C1029 1.463 . S
C1032 N1036 1.427 . S
C1033 H1023 0.929 . S
C1033 C1031 1.433 . S
C1033 N1036 1.384 . S
C1034 H1025 0.929 . S
C1034 C1026 1.378 . S
C1034 C1029 1.350 . S
C1035 H1022 0.929 . S
C1035 C1027 1.433 . S
C1035 N1037 1.384 . S
N1036 C1032 1.427 . S
N1036 C1033 1.384 . S
N1037 C1029 1.427 . S
N1037 C1035 1.384 . S
H1038 C1044 0.930 . S
H1039 C1048 0.930 . S
H1040 C1053 0.929 . S
H1041 C1051 0.929 . S
H1042 C1046 0.929 . S
H1043 C1052 0.929 . S
C1044 H1038 0.930 . S
C1044 C1045 1.367 . S
C1044 C1052 1.378 . S
C1045 C1044 1.367 . S
C1045 C1053 1.433 . S
C1046 H1042 0.929 . S
C1046 C1048 1.378 . S
C1046 C1050 1.350 . S
C1047 C1050 1.463 . S
C1047 C1052 1.350 . S
C1047 N1055 1.427 . S
C1048 H1039 0.930 . S
C1048 C1046 1.378 . S
C1048 C1049 1.367 . S
C1049 C1048 1.367 . S
C1049 C1051 1.433 . S
C1050 C1046 1.350 . S
C1050 C1047 1.463 . S
C1050 N1054 1.427 . S
C1051 H1041 0.929 . S
C1051 C1049 1.433 . S
C1051 N1054 1.384 . S
C1052 H1043 0.929 . S
C1052 C1044 1.378 . S
C1052 C1047 1.350 . S
C1053 H1040 0.929 . S
C1053 C1045 1.433 . S
C1053 N1055 1.384 . S
N1054 C1050 1.427 . S
N1054 C1051 1.384 . S
N1055 C1047 1.427 . S
N1055 C1053 1.384 . S
H1056 C1062 0.930 . S
H1057 C1066 0.930 . S
H1058 C1071 0.929 . S
H1059 C1069 0.929 . S
H1060 C1064 0.929 . S
H1061 C1070 0.929 . S
C1062 H1056 0.930 . S
C1062 C1063 1.367 . S
C1062 C1070 1.378 . S
C1063 C1062 1.367 . S
C1063 C1071 1.433 . S
C1064 H1060 0.929 . S
C1064 C1066 1.378 . S
C1064 C1068 1.350 . S
C1065 C1068 1.463 . S
C1065 C1070 1.350 . S
C1065 N1073 1.427 . S
C1066 H1057 0.930 . S
C1066 C1064 1.378 . S
C1066 C1067 1.367 . S
C1067 C1066 1.367 . S
C1067 C1069 1.433 . S
C1068 C1064 1.350 . S
C1068 C1065 1.463 . S
C1068 N1072 1.427 . S
C1069 H1059 0.929 . S
C1069 C1067 1.433 . S
C1069 N1072 1.384 . S
C1070 H1061 0.929 . S
C1070 C1062 1.378 . S
C1070 C1065 1.350 . S
C1071 H1058 0.929 . S
C1071 C1063 1.433 . S
C1071 N1073 1.384 . S
N1072 C1068 1.427 . S
N1072 C1069 1.384 . S
N1073 C1065 1.427 . S
N1073 C1071 1.384 . S
H1074 C1080 0.930 . S
H1075 C1084 0.930 . S
H1076 C1089 0.929 . S
H1077 C1087 0.929 . S
H1078 C1082 0.929 . S
H1079 C1088 0.929 . S
C1080 H1074 0.930 . S
C1080 C1081 1.367 . S
C1080 C1088 1.378 . S
C1081 C1080 1.367 . S
C1081 C1089 1.433 . S
C1082 H1078 0.929 . S
C1082 C1084 1.378 . S
C1082 C1086 1.350 . S
C1083 C1086 1.463 . S
C1083 C1088 1.350 . S
C1083 N1091 1.427 . S
C1084 H1075 0.930 . S
C1084 C1082 1.378 . S
C1084 C1085 1.367 . S
C1085 C1084 1.367 . S
C1085 C1087 1.433 . S
C1086 C1082 1.350 . S
C1086 C1083 1.463 . S
C1086 N1090 1.427 . S
C1087 H1077 0.929 . S
C1087 C1085 1.433 . S
C1087 N1090 1.384 . S
C1088 H1079 0.929 . S
C1088 C1080 1.378 . S
C1088 C1083 1.350 . S
C1089 H1076 0.929 . S
C1089 C1081 1.433 . S
C1089 N1091 1.384 . S
N1090 C1086 1.427 . S
N1090 C1087 1.384 . S
N1091 C1083 1.427 . S
N1091 C1089 1.384 . S
H1092 C1098 0.930 . S
H1093 C1102 0.930 . S
H1094 C1107 0.929 . S
H1095 C1105 0.929 . S
H1096 C1100 0.929 . S
H1097 C1106 0.929 . S
C1098 H1092 0.930 . S
C1098 C1099 1.367 . S
C1098 C1106 1.378 . S
C1099 C1098 1.367 . S
C1099 C1107 1.433 . S
C1100 H1096 0.929 . S
C1100 C1102 1.378 . S
C1100 C1104 1.350 . S
C1101 C1104 1.463 . S
C1101 C1106 1.350 . S
C1101 N1109 1.427 . S
C1102 H1093 0.930 . S
C1102 C1100 1.378 . S
C1102 C1103 1.367 . S
C1103 C1102 1.367 . S
C1103 C1105 1.433 . S
C1104 C1100 1.350 . S
C1104 C1101 1.463 . S
C1104 N1108 1.427 . S
C1105 H1095 0.929 . S
C1105 C1103 1.433 . S
C1105 N1108 1.384 . S
C1106 H1097 0.929 . S
C1106 C1098 1.378 . S
C1106 C1101 1.350 . S
C1107 H1094 0.929 . S
C1107 C1099 1.433 . S
C1107 N1109 1.384 . S
N1108 C1104 1.427 . S
N1108 C1105 1.384 . S
N1109 C1101 1.427 . S
N1109 C1107 1.384 . S
H1110 C1116 0.930 . S
H1111 C1120 0.930 . S
H1112 C1125 0.929 . S
H1113 C1123 0.929 . S
H1114 C1118 0.929 . S
H1115 C1124 0.929 . S
C1116 H1110 0.930 . S
C1116 C1117 1.367 . S
C1116 C1124 1.378 . S
C1117 C1116 1.367 . S
C1117 C1125 1.433 . S
C1118 H1114 0.929 . S
C1118 C1120 1.378 . S
C1118 C1122 1.350 . S
C1119 C1122 1.463 . S
C1119 C1124 1.350 . S
C1119 N1127 1.427 . S
C1120 H1111 0.930 . S
C1120 C1118 1.378 . S
C1120 C1121 1.367 . S
C1121 C1120 1.367 . S
C1121 C1123 1.433 . S
C1122 C1118 1.350 . S
C1122 C1119 1.463 . S
C1122 N1126 1.427 . S
C1123 H1113 0.929 . S
C1123 C1121 1.433 . S
C1123 N1126 1.384 . S
C1124 H1115 0.929 . S
C1124 C1116 1.378 . S
C1124 C1119 1.350 . S
C1125 H1112 0.929 . S
C1125 C1117 1.433 . S
C1125 N1127 1.384 . S
N1126 C1122 1.427 . S
N1126 C1123 1.384 . S
N1127 C1119 1.427 . S
N1127 C1125 1.384 . S
C487 C95 1.297 . S
C491 C19 1.263 . S
C505 C126 1.298 . S
C509 C50 1.261 . S
C523 C99 1.275 . S
C527 C175 1.302 . S
C541 C130 1.266 . S
C545 C206 1.300 . S
C559 C15 1.302 . S
C563 C179 1.273 . S
C577 C46 1.302 . S
C581 C210 1.275 . S
C595 C406 1.299 . S
C599 C250 1.263 . S
C613 C299 1.269 . S
C617 C455 1.301 . S
C631 C330 1.267 . S
C635 C246 1.300 . S
C649 C379 1.261 . S
C653 C295 1.296 . S
C667 C410 1.260 . S
C671 C326 1.298 . S
C685 C375 1.301 . S
C689 C459 1.270 . S
C703 C129 1.702 . S
C707 C18 1.715 . S
C721 C49 1.710 . S
C725 C178 1.708 . S
C739 C98 1.714 . S
C743 C209 1.704 . S
C757 C249 1.708 . S
C761 C378 1.710 . S
C775 C298 1.716 . S
C779 C409 1.702 . S
C793 C329 1.702 . S
C797 C458 1.716 . S
C811 C289 2.331 . S
C815 C9 2.329 . S
C829 C58 2.331 . S
C833 C338 2.330 . S
C847 C369 2.329 . S
C851 C89 2.330 . S
C865 C138 2.331 . S
C869 C418 2.331 . S
C883 C169 2.328 . S
C887 C449 2.328 . S
C901 C258 2.331 . S
C905 C218 2.331 . S
C919 C86 1.751 . S
C923 C10 1.768 . S
C937 C59 1.774 . S
C941 C135 1.753 . S
C955 C90 1.776 . S
C959 C166 1.757 . S
C973 C139 1.770 . S
C977 C215 1.756 . S
C991 C6 1.758 . S
C995 C170 1.771 . S
C1009 C55 1.757 . S
C1013 C219 1.776 . S
C1027 C415 1.749 . S
C1031 C259 1.768 . S
C1045 C290 1.769 . S
C1049 C446 1.754 . S
C1063 C339 1.771 . S
C1067 C255 1.757 . S
C1081 C286 1.753 . S
C1085 C370 1.774 . S
C1099 C419 1.771 . S
C1103 C335 1.750 . S
C1117 C450 1.768 . S
C1121 C366 1.750 . S
