# Generated by pormake.
# Topology wkj, (6)-cn, num edge types: 1
# Building blocks:
#     Node 0, Type 0, BuildingBlock: KUMBUR_clean_sbu_1, # of connection points: 6
#     Node 1, Type 0, BuildingBlock: KUMBUR_clean_sbu_1, # of connection points: 6
#     Node 2, Type 0, BuildingBlock: KUMBUR_clean_sbu_1, # of connection points: 6
#     Node 3, Type 0, BuildingBlock: KUMBUR_clean_sbu_1, # of connection points: 6
#     Node 4, Type 0, BuildingBlock: KUMBUR_clean_sbu_1, # of connection points: 6
#     Node 5, Type 0, BuildingBlock: KUMBUR_clean_sbu_1, # of connection points: 6
#     Node 6, Type 0, BuildingBlock: KUMBUR_clean_sbu_1, # of connection points: 6
#     Node 7, Type 0, BuildingBlock: KUMBUR_clean_sbu_1, # of connection points: 6
#     Node 8, Type 0, BuildingBlock: KUMBUR_clean_sbu_1, # of connection points: 6
#     Node 9, Type 0, BuildingBlock: KUMBUR_clean_sbu_1, # of connection points: 6
#     Node 10, Type 0, BuildingBlock: KUMBUR_clean_sbu_1, # of connection points: 6
#     Node 11, Type 0, BuildingBlock: KUMBUR_clean_sbu_1, # of connection points: 6
#     Edge 12, Type (0, 0), BuildingBlock: CIFDUS_clean_linker_0, # of connection points: 2
#     Edge 13, Type (0, 0), BuildingBlock: CIFDUS_clean_linker_0, # of connection points: 2
#     Edge 14, Type (0, 0), BuildingBlock: CIFDUS_clean_linker_0, # of connection points: 2
#     Edge 15, Type (0, 0), BuildingBlock: CIFDUS_clean_linker_0, # of connection points: 2
#     Edge 16, Type (0, 0), BuildingBlock: CIFDUS_clean_linker_0, # of connection points: 2
#     Edge 17, Type (0, 0), BuildingBlock: CIFDUS_clean_linker_0, # of connection points: 2
#     Edge 18, Type (0, 0), BuildingBlock: CIFDUS_clean_linker_0, # of connection points: 2
#     Edge 19, Type (0, 0), BuildingBlock: CIFDUS_clean_linker_0, # of connection points: 2
#     Edge 20, Type (0, 0), BuildingBlock: CIFDUS_clean_linker_0, # of connection points: 2
#     Edge 21, Type (0, 0), BuildingBlock: CIFDUS_clean_linker_0, # of connection points: 2
#     Edge 22, Type (0, 0), BuildingBlock: CIFDUS_clean_linker_0, # of connection points: 2
#     Edge 23, Type (0, 0), BuildingBlock: CIFDUS_clean_linker_0, # of connection points: 2
#     Edge 24, Type (0, 0), BuildingBlock: CIFDUS_clean_linker_0, # of connection points: 2
#     Edge 25, Type (0, 0), BuildingBlock: CIFDUS_clean_linker_0, # of connection points: 2
#     Edge 26, Type (0, 0), BuildingBlock: CIFDUS_clean_linker_0, # of connection points: 2
#     Edge 27, Type (0, 0), BuildingBlock: CIFDUS_clean_linker_0, # of connection points: 2
#     Edge 28, Type (0, 0), BuildingBlock: CIFDUS_clean_linker_0, # of connection points: 2
#     Edge 29, Type (0, 0), BuildingBlock: CIFDUS_clean_linker_0, # of connection points: 2
#     Edge 30, Type (0, 0), BuildingBlock: CIFDUS_clean_linker_0, # of connection points: 2
#     Edge 31, Type (0, 0), BuildingBlock: CIFDUS_clean_linker_0, # of connection points: 2
#     Edge 32, Type (0, 0), BuildingBlock: CIFDUS_clean_linker_0, # of connection points: 2
#     Edge 33, Type (0, 0), BuildingBlock: CIFDUS_clean_linker_0, # of connection points: 2
#     Edge 34, Type (0, 0), BuildingBlock: CIFDUS_clean_linker_0, # of connection points: 2
#     Edge 35, Type (0, 0), BuildingBlock: CIFDUS_clean_linker_0, # of connection points: 2
#     Edge 36, Type (0, 0), BuildingBlock: CIFDUS_clean_linker_0, # of connection points: 2
#     Edge 37, Type (0, 0), BuildingBlock: CIFDUS_clean_linker_0, # of connection points: 2
#     Edge 38, Type (0, 0), BuildingBlock: CIFDUS_clean_linker_0, # of connection points: 2
#     Edge 39, Type (0, 0), BuildingBlock: CIFDUS_clean_linker_0, # of connection points: 2
#     Edge 40, Type (0, 0), BuildingBlock: CIFDUS_clean_linker_0, # of connection points: 2
#     Edge 41, Type (0, 0), BuildingBlock: CIFDUS_clean_linker_0, # of connection points: 2
#     Edge 42, Type (0, 0), BuildingBlock: CIFDUS_clean_linker_0, # of connection points: 2
#     Edge 43, Type (0, 0), BuildingBlock: CIFDUS_clean_linker_0, # of connection points: 2
#     Edge 44, Type (0, 0), BuildingBlock: CIFDUS_clean_linker_0, # of connection points: 2
#     Edge 45, Type (0, 0), BuildingBlock: CIFDUS_clean_linker_0, # of connection points: 2
#     Edge 46, Type (0, 0), BuildingBlock: CIFDUS_clean_linker_0, # of connection points: 2
#     Edge 47, Type (0, 0), BuildingBlock: CIFDUS_clean_linker_0, # of connection points: 2
# Relax obj value: 0.753
# Max RMSD: 0.200
# Mean RMSD: 0.200
data_MOF--net-wkj--node1-KUMBUR_clean_sbu_1--edge1-CIFDUS_clean_linker_0
_symmetry_space_group_name_H-M    P1
_symmetry_Int_Tables_number       1
_symmetry_cell_setting            triclinic
loop_
_symmetry_equiv_pos_as_xyz
'x, y, z'
_cell_length_a     45.45512
_cell_length_b     45.679836
_cell_length_c     25.910987
_cell_angle_alpha  89.514539
_cell_angle_beta   89.957867
_cell_angle_gamma 120.15092
loop_
_atom_site_label
_atom_site_type_symbol
_atom_site_fract_x
_atom_site_fract_y
_atom_site_fract_z
_atom_type_partial_charge
Tb0 Tb 0.55494 0.12233 0.33571 0.0
C1 C 0.38981 0.0375 0.3254 0.0
N2 N 0.41349 0.0708 0.3266 0.0
C3 C 0.37346 0.08439 0.28897 0.0
C4 C 0.35657 0.0262 0.30725 0.0
C5 C 0.4062 0.09412 0.30648 0.0
C6 C 0.34828 0.05027 0.29029 0.0
C7 C 0.37836 0.98015 0.32849 0.0
C8 C 0.40027 0.01503 0.33796 0.0
C9 C 0.3444 0.96825 0.31441 0.0
C10 C 0.33338 0.99133 0.30424 0.0
Tb11 Tb 0.4645 0.08662 0.3662 0.0
N12 N 0.43358 0.028 0.3507 0.0
C13 C 0.39213 0.95898 0.32752 0.0
C14 C 0.44721 0.00733 0.34493 0.0
C15 C 0.42706 0.9732 0.33277 0.0
H16 H 0.42549 0.12032 0.30466 0.0
H17 H 0.43892 0.9582 0.32555 0.0
H18 H 0.56705 0.06551 0.27475 0.0
H19 H 0.64101 0.23095 0.44954 0.0
H20 H 0.47384 0.01666 0.34426 0.0
H21 H 0.37666 0.93241 0.31809 0.0
H22 H 0.58932 0.19557 0.39982 0.0
H23 H 0.36772 0.10321 0.27428 0.0
H24 H 0.32711 0.94151 0.30816 0.0
H25 H 0.30759 0.98207 0.29109 0.0
H26 H 0.61091 0.0492 0.27024 0.0
H27 H 0.32303 0.04269 0.27619 0.0
H28 H 0.68503 0.21459 0.45847 0.0
N29 N 0.594 0.1049 0.32901 0.0
C30 C 0.62294 0.12222 0.35685 0.0
C31 C 0.61461 0.06982 0.29468 0.0
C32 C 0.64869 0.11363 0.35549 0.0
C33 C 0.58961 0.07906 0.29776 0.0
C34 C 0.64416 0.08696 0.32401 0.0
N35 N 0.60258 0.15801 0.38226 0.0
C36 C 0.60797 0.18772 0.4034 0.0
C37 C 0.6576 0.16953 0.4123 0.0
C38 C 0.62728 0.14965 0.38478 0.0
C39 C 0.66213 0.19865 0.43685 0.0
C40 C 0.63738 0.208 0.4318 0.0
H41 H 0.66335 0.07957 0.32178 0.0
H42 H 0.69838 0.12611 0.38428 0.0
H43 H 0.7062 0.17516 0.43413 0.0
O44 O 0.54481 0.14106 0.26748 0.0
O45 O 0.55557 0.12566 0.42537 0.0
O46 O 0.49803 0.10232 0.44457 0.0
O47 O 0.59485 0.14829 0.28258 0.0
O48 O 0.53859 0.16068 0.35364 0.0
O49 O 0.48814 0.13226 0.31533 0.0
O50 O 0.42161 0.07659 0.4101 0.0
O51 O 0.468 0.07117 0.28228 0.0
O52 O 0.52019 0.07471 0.28395 0.0
O53 O 0.462 0.12783 0.39622 0.0
O54 O 0.48489 0.06223 0.4141 0.0
O55 O 0.52624 0.06949 0.3576 0.0
C56 C 0.53124 0.11623 0.46204 0.0
C57 C 0.5922 0.19447 0.24584 0.0
C58 C 0.58864 0.24062 0.20414 0.0
C59 C 0.61932 0.26417 0.22726 0.0
C60 C 0.62251 0.21839 0.26997 0.0
C61 C 0.6359 0.25303 0.26064 0.0
C62 C 0.57553 0.20586 0.21315 0.0
C63 C 0.51322 0.1618 0.33046 0.0
C64 C 0.57706 0.15773 0.255 0.0
C65 C 0.6784 0.13245 0.38449 0.0
C66 C 0.68283 0.16035 0.41292 0.0
C67 C 0.48925 0.06215 0.26067 0.0
C68 C 0.43201 0.11692 0.47354 0.0
C69 C 0.42352 0.09668 0.56167 0.0
C70 C 0.41628 0.12206 0.57607 0.0
C71 C 0.42449 0.14204 0.48729 0.0
C72 C 0.43465 0.09682 0.51149 0.0
C73 C 0.41779 0.14533 0.53903 0.0
C74 C 0.51134 0.05928 0.40277 0.0
C75 C 0.43331 0.10862 0.41972 0.0
H76 H 0.63018 0.29103 0.21985 0.0
H77 H 0.63595 0.21047 0.29585 0.0
H78 H 0.6593 0.27125 0.27913 0.0
H79 H 0.55235 0.18748 0.19411 0.0
H80 H 0.4076 0.12277 0.6147 0.0
H81 H 0.4229 0.15832 0.45811 0.0
H82 H 0.44191 0.07845 0.50054 0.0
H83 H 0.41165 0.16448 0.5498 0.0
Tb84 Tb 0.42091 0.5368 0.67652 0.0
C85 C 0.27476 0.41317 0.70341 0.0
N86 N 0.30183 0.43708 0.73026 0.0
C87 C 0.2637 0.44168 0.78959 0.0
C88 C 0.24106 0.40326 0.71805 0.0
C89 C 0.29659 0.45045 0.77402 0.0
C90 C 0.23581 0.41807 0.76145 0.0
C91 C 0.25343 0.37466 0.63124 0.0
C92 C 0.28094 0.39905 0.66052 0.0
C93 C 0.21993 0.36509 0.64533 0.0
C94 C 0.21376 0.37928 0.68869 0.0
Tb95 Tb 0.35398 0.44554 0.70574 0.0
N96 N 0.31368 0.40815 0.64888 0.0
C97 C 0.26025 0.3599 0.58934 0.0
C98 C 0.32007 0.3924 0.60903 0.0
C99 C 0.29368 0.36867 0.57845 0.0
H100 H 0.31748 0.46773 0.79765 0.0
H101 H 0.29912 0.35646 0.54725 0.0
H102 H 0.49811 0.58497 0.72561 0.0
H103 H 0.3126 0.53859 0.76554 0.0
H104 H 0.34503 0.39613 0.60169 0.0
H105 H 0.23982 0.34104 0.56605 0.0
H106 H 0.34659 0.51263 0.74132 0.0
H107 H 0.25986 0.45284 0.82377 0.0
H108 H 0.19858 0.3464 0.62327 0.0
H109 H 0.18775 0.37154 0.69921 0.0
H110 H 0.53386 0.64461 0.75212 0.0
H111 H 0.21035 0.4113 0.77373 0.0
H112 H 0.3388 0.60095 0.76175 0.0
N113 N 0.45404 0.58913 0.71296 0.0
C114 C 0.43948 0.60837 0.71981 0.0
C115 C 0.5074 0.63484 0.74258 0.0
C116 C 0.45857 0.64229 0.73574 0.0
C117 C 0.48705 0.60109 0.72763 0.0
C118 C 0.49331 0.65585 0.74526 0.0
N119 N 0.3883 0.55802 0.71212 0.0
C120 C 0.35713 0.5392 0.73522 0.0
C121 C 0.38753 0.6088 0.73559 0.0
C122 C 0.4047 0.59203 0.7186 0.0
C123 C 0.35302 0.58926 0.74833 0.0
C124 C 0.33818 0.55412 0.75056 0.0
H125 H 0.50894 0.68181 0.7576 0.0
H126 H 0.45605 0.68686 0.75667 0.0
H127 H 0.39341 0.65722 0.75726 0.0
O128 O 0.44776 0.57961 0.62866 0.0
O129 O 0.42 0.53267 0.76464 0.0
O130 O 0.37332 0.47924 0.78163 0.0
O131 O 0.46815 0.54614 0.64718 0.0
O132 O 0.37115 0.52406 0.636 0.0
O133 O 0.32967 0.47326 0.6726 0.0
O134 O 0.35429 0.42556 0.77894 0.0
O135 O 0.38465 0.44778 0.6305 0.0
O136 O 0.41597 0.50371 0.60425 0.0
O137 O 0.34007 0.39429 0.71136 0.0
O138 O 0.40582 0.46455 0.69002 0.0
O139 O 0.43977 0.512 0.72754 0.0
C140 C 0.39845 0.51001 0.79939 0.0
C141 C 0.50395 0.59596 0.59439 0.0
C142 C 0.53475 0.64588 0.53899 0.0
C143 C 0.56252 0.64033 0.53773 0.0
C144 C 0.53184 0.59081 0.5931 0.0
C145 C 0.56078 0.61267 0.56422 0.0
C146 C 0.506 0.62376 0.56865 0.0
C147 C 0.33822 0.50059 0.644 0.0
C148 C 0.47323 0.57403 0.62482 0.0
C149 C 0.44185 0.66053 0.74542 0.0
C150 C 0.40618 0.64371 0.74542 0.0
C151 C 0.40508 0.47073 0.59388 0.0
C152 C 0.3158 0.36736 0.79087 0.0
C153 C 0.30373 0.3261 0.85871 0.0
C154 C 0.26916 0.30907 0.84546 0.0
C155 C 0.28147 0.34979 0.77627 0.0
C156 C 0.32634 0.35616 0.83303 0.0
C157 C 0.25806 0.32118 0.80449 0.0
C158 C 0.42758 0.47972 0.72554 0.0
C159 C 0.34262 0.39524 0.76109 0.0
H160 H 0.58468 0.65618 0.51408 0.0
H161 H 0.53127 0.56993 0.61409 0.0
H162 H 0.58144 0.60752 0.56109 0.0
H163 H 0.48379 0.62667 0.56926 0.0
H164 H 0.25121 0.2858 0.86508 0.0
H165 H 0.27285 0.35741 0.74281 0.0
H166 H 0.35298 0.3699 0.84395 0.0
H167 H 0.23159 0.30761 0.79324 0.0
Tb168 Tb 0.85833 0.4173 1.00367 0.0
C169 C 0.9378 0.32591 1.00823 0.0
N170 N 0.90647 0.32252 1.00707 0.0
C171 C 0.88325 0.26607 0.97465 0.0
C172 C 0.94325 0.29939 0.99333 0.0
C173 C 0.87926 0.29323 0.98975 0.0
C174 C 0.91535 0.26903 0.97691 0.0
C175 C -0.00187 0.36291 1.01846 0.0
C176 C 0.96444 0.35673 1.02213 0.0
C177 C 0.00386 0.33623 1.00656 0.0
C178 C 0.97637 0.30439 0.99418 0.0
Tb179 Tb 0.9 0.3653 1.04046 0.0
N180 N 0.95752 0.38177 1.03249 0.0
C181 C 0.02494 0.39614 1.02256 0.0
C182 C 0.98383 0.41462 1.02874 0.0
C183 C 0.01754 0.42214 1.02534 0.0
H184 H 0.85416 0.29029 0.98955 0.0
H185 H 0.03756 0.44821 1.02363 0.0
H186 H 0.80938 0.41331 1.10313 0.0
H187 H 0.82375 0.35144 0.82341 0.0
H188 H 0.97973 0.43575 1.02617 0.0
H189 H 0.05117 0.40216 1.01937 0.0
H190 H 0.8629 0.38914 0.88617 0.0
H191 H 0.86151 0.24275 0.96179 0.0
H192 H 0.0295 0.34038 1.00445 0.0
H193 H 0.98111 0.28425 0.98344 0.0
H194 H 0.74929 0.39333 1.1196 0.0
H195 H 0.91841 0.24799 0.9652 0.0
H196 H 0.76183 0.33084 0.83138 0.0
N197 N 0.80224 0.39707 1.02469 0.0
C198 C 0.7795 0.38342 0.98568 0.0
C199 C 0.75738 0.39005 1.08184 0.0
C200 C 0.74448 0.37088 0.99399 0.0
C201 C 0.79166 0.40098 1.0723 0.0
C202 C 0.73364 0.37487 1.04257 0.0
N203 N 0.82503 0.39011 0.93357 0.0
C204 C 0.83672 0.38178 0.89085 0.0
C205 C 0.76762 0.3586 0.90102 0.0
C206 C 0.79115 0.37886 0.93888 0.0
C207 C 0.77948 0.34863 0.85893 0.0
C208 C 0.81418 0.36027 0.85398 0.0
H209 H 0.70699 0.36581 1.05039 0.0
H210 H 0.69429 0.34359 0.96003 0.0
H211 H 0.71443 0.33139 0.87935 0.0
O212 O 0.86567 0.45789 0.95637 0.0
O213 O 0.86333 0.4201 1.09349 0.0
O214 O 0.88894 0.38829 1.11642 0.0
O215 O 0.8598 0.45977 1.03823 0.0
O216 O 0.82272 0.36185 1.01573 0.0
O217 O 0.85909 0.34813 0.98013 0.0
O218 O 0.89705 0.3262 1.08692 0.0
O219 O 0.92077 0.38806 0.95697 0.0
O220 O 0.90297 0.42776 0.94257 0.0
O221 O 0.85323 0.33242 1.07685 0.0
O222 O 0.93146 0.41365 1.07899 0.0
O223 O 0.90248 0.41644 1.01895 0.0
C224 C 0.87497 0.40771 0.13115 0.0
C225 C 0.83146 0.48005 0.98423 0.0
C226 C 0.79417 0.48367 0.91989 0.0
C227 C 0.77081 0.47931 0.95872 0.0
C228 C 0.8085 0.47704 1.02322 0.0
C229 C 0.77848 0.47695 1.01041 0.0
C230 C 0.8248 0.48513 0.93336 0.0
C231 C 0.82707 0.33913 0.99133 0.0
C232 C 0.85947 0.47298 0.99373 0.0
C233 C 0.72129 0.35343 0.95443 0.0
C234 C 0.73278 0.34666 0.9084 0.0
C235 C 0.92268 0.41389 0.92724 0.0
C236 C 0.85774 0.30897 0.1549 0.0
C237 C 0.88175 0.3217 0.24061 0.0
C238 C 0.85281 0.2927 0.26012 0.0
C239 C 0.82898 0.2798 0.17376 0.0
C240 C 0.88213 0.33088 0.18904 0.0
C241 C 0.82607 0.2723 0.22676 0.0
C242 C 0.92574 0.43395 1.05185 0.0
C243 C 0.86524 0.31516 1.09976 0.0
H244 H 0.74655 0.47694 0.94897 0.0
H245 H 0.81298 0.47338 1.06317 0.0
H246 H 0.76042 0.47353 1.04043 0.0
H247 H 0.84217 0.48692 0.90312 0.0
H248 H 0.85155 0.28486 0.29998 0.0
H249 H 0.80946 0.26257 0.14762 0.0
H250 H 0.90372 0.35364 0.17372 0.0
H251 H 0.80402 0.24965 0.24147 0.0
Tb252 Tb 0.44177 0.87216 0.34638 0.0
C253 C 0.60832 0.9483 0.33502 0.0
N254 N 0.58198 0.9183 0.31944 0.0
C255 C 0.61205 0.92199 0.24119 0.0
C256 C 0.63701 0.96727 0.30307 0.0
C257 C 0.58425 0.90403 0.27445 0.0
C258 C 0.6383 0.95402 0.25516 0.0
C259 C 0.6346 0.98953 0.40276 0.0
C260 C 0.6071 0.95917 0.38415 0.0
C261 C 0.66258 0.0094 0.3703 0.0
C262 C 0.66378 -0.0017 0.32051 0.0
Tb263 Tb 0.53673 0.89252 0.37501 0.0
N264 N 0.57929 0.93956 0.41409 0.0
C265 C 0.63332 -0.00121 0.4536 0.0
C266 C 0.57847 0.94795 0.46428 0.0
C267 C 0.60535 0.97772 0.48461 0.0
H268 H 0.56404 0.87936 0.26319 0.0
H269 H 0.60446 0.98475 0.52396 0.0
H270 H 0.41455 0.92231 0.39136 0.0
H271 H 0.43426 0.76355 0.45132 0.0
H272 H 0.55687 0.93237 0.48842 0.0
H273 H 0.6539 0.02191 0.46942 0.0
H274 H 0.46311 0.8155 0.40043 0.0
H275 H 0.61322 0.91113 0.20482 0.0
H276 H 0.6837 0.03306 0.38369 0.0
H277 H 0.68585 0.01348 0.29628 0.0
H278 H 0.36626 0.91619 0.44328 0.0
H279 H 0.65984 0.96785 0.2294 0.0
H280 H 0.37803 0.74574 0.49014 0.0
N281 N 0.40291 0.87188 0.4028 0.0
C282 C 0.3829 0.84207 0.42806 0.0
C283 C 0.3704 0.89499 0.4389 0.0
C284 C 0.35531 0.83736 0.45902 0.0
C285 C 0.39763 0.89846 0.40902 0.0
C286 C 0.34872 0.86407 0.46325 0.0
N287 N 0.42267 0.82599 0.40261 0.0
C288 C 0.43812 0.80759 0.41363 0.0
C289 C 0.37605 0.78898 0.45971 0.0
C290 C 0.39313 0.8181 0.42795 0.0
C291 C 0.39023 0.76824 0.46591 0.0
C292 C 0.42192 0.77819 0.44403 0.0
H293 H 0.32785 0.86154 0.48683 0.0
H294 H 0.31475 0.80259 0.51013 0.0
H295 H 0.333 0.76022 0.51094 0.0
O296 O 0.39481 0.83637 0.31825 0.0
O297 O 0.45125 0.88007 0.43494 0.0
O298 O 0.50545 0.88715 0.45298 0.0
O299 O 0.41383 0.88825 0.29917 0.0
O300 O 0.4547 0.83328 0.31549 0.0
O301 O 0.5129 0.85106 0.3185 0.0
O302 O 0.57257 0.8816 0.40726 0.0
O303 O 0.5368 0.92017 0.29786 0.0
O304 O 0.48015 0.90458 0.27658 0.0
O305 O 0.52182 0.84176 0.39122 0.0
O306 O 0.49761 0.90115 0.37025 0.0
O307 O 0.46913 0.92555 0.36553 0.0
C308 C 0.4744 0.88262 0.46992 0.0
C309 C 0.36965 0.84532 0.24649 0.0
C310 C 0.33542 0.79527 0.19438 0.0
C311 C 0.33997 0.81698 0.15199 0.0
C312 C 0.37463 0.86651 0.20407 0.0
C313 C 0.35853 0.85227 0.15746 0.0
C314 C 0.34666 0.81046 0.24262 0.0
C315 C 0.48098 0.828 0.30768 0.0
C316 C 0.38826 0.85764 0.29525 0.0
C317 C 0.33639 0.80694 0.48679 0.0
C318 C 0.34675 0.78278 0.48714 0.0
C319 C 0.51455 0.92246 0.26461 0.0
C320 C 0.54659 0.83617 0.46695 0.0
C321 C 0.55042 0.84709 0.55915 0.0
C322 C 0.53299 0.8122 0.56953 0.0
C323 C 0.52872 0.80122 0.4773 0.0
C324 C 0.55816 0.85865 0.50809 0.0
C325 C 0.52239 0.78933 0.52851 0.0
C326 C 0.49824 0.92947 0.37566 0.0
C327 C 0.55017 0.84959 0.41406 0.0
H328 H 0.33141 0.8073 1.11369 0.0
H329 H 0.3911 0.89368 0.20667 0.0
H330 H 0.36236 0.86853 1.12446 0.0
H331 H 0.34069 0.79488 0.27701 0.0
H332 H 0.52678 0.80277 0.60884 0.0
H333 H 0.51917 0.78328 0.44596 0.0
H334 H 0.57222 0.88566 0.5005 0.0
H335 H 0.50843 0.76236 0.53634 0.0
Tb336 Tb 0.56181 0.44214 0.67189 0.0
C337 C 0.64532 0.59023 0.62233 0.0
N338 N 0.64509 0.56033 0.62884 0.0
C339 C 0.67942 0.57215 0.55271 0.0
C340 C 0.66245 0.61199 0.58029 0.0
C341 C 0.6623 0.55139 0.59523 0.0
C342 C 0.67965 0.6026 0.54533 0.0
C343 C 0.62415 0.62728 0.64883 0.0
C344 C 0.62603 0.59762 0.65601 0.0
C345 C 0.6427 0.64988 0.60853 0.0
C346 C 0.66155 0.64213 0.57412 0.0
Tb347 Tb 0.6219 0.53331 0.70547 0.0
N348 N 0.6086 0.57532 0.69509 0.0
C349 C 0.60307 0.63299 0.68156 0.0
C350 C 0.58749 0.5806 0.72652 0.0
C351 C 0.58435 0.60932 0.72007 0.0
H352 H 0.6629 0.52838 0.60081 0.0
H353 H 0.56794 0.61349 0.74552 0.0
H354 H 0.48258 0.4251 0.65168 0.0
H355 H 0.61351 0.37641 0.77883 0.0
H356 H 0.57409 0.56377 0.75809 0.0
H357 H 0.60071 0.65532 0.67697 0.0
H358 H 0.61622 0.42208 0.72353 0.0
H359 H 0.69275 0.5648 0.52586 0.0
H360 H 0.64174 0.67291 0.60266 0.0
H361 H 0.6749 0.65936 0.54236 0.0
H362 H 0.42446 0.37866 0.67309 0.0
H363 H 0.69303 0.61859 0.51239 0.0
H364 H 0.55787 0.33053 0.81099 0.0
N365 N 0.50702 0.40314 0.6938 0.0
C366 C 0.50311 0.37745 0.72531 0.0
C367 C 0.44638 0.37808 0.68809 0.0
C368 C 0.47052 0.35086 0.73934 0.0
C369 C 0.47922 0.40438 0.67628 0.0
C370 C 0.442 0.35119 0.71969 0.0
N371 N 0.5629 0.40318 0.72674 0.0
C372 C 0.59192 0.40238 0.73781 0.0
C373 C 0.52913 0.35044 0.77286 0.0
C374 C 0.53195 0.37713 0.74168 0.0
C375 C 0.55893 0.35059 0.78703 0.0
C376 C 0.59041 0.3765 0.769 0.0
H377 H 0.41651 0.331 0.72903 0.0
H378 H 0.44267 0.30384 0.78264 0.0
H379 H 0.49401 0.30354 0.81217 0.0
O380 O 0.58103 0.42043 0.61984 0.0
O381 O 0.56761 0.4434 0.76171 0.0
O382 O 0.60427 0.49972 0.78262 0.0
O383 O 0.52834 0.4068 0.61827 0.0
O384 O 0.61686 0.46201 0.64643 0.0
O385 O 0.64914 0.50491 0.70068 0.0
O386 O 0.6457 0.57799 0.74752 0.0
O387 O 0.59368 0.52808 0.62643 0.0
O388 O 0.55082 0.47369 0.61162 0.0
O389 O 0.67384 0.55417 0.7246 0.0
O390 O 0.57771 0.51399 0.75137 0.0
O391 O 0.54017 0.47362 0.69666 0.0
C392 C 0.58401 0.46665 0.79871 0.0
C393 C 0.54044 0.36249 0.60555 0.0
C394 C 0.55279 0.31752 0.58538 0.0
C395 C 0.52244 0.29382 0.61002 0.0
C396 C 0.50882 0.33778 0.62604 0.0
C397 C 0.5006 0.30401 0.63025 0.0
C398 C 0.56224 0.35206 0.58533 0.0
C399 C 0.64659 0.48158 0.66909 0.0
C400 C 0.55062 0.39886 0.60312 0.0
C401 C 0.4675 0.32445 0.77126 0.0
C402 C 0.49674 0.32426 0.78805 0.0
C403 C 0.56688 0.50662 0.59699 0.0
C404 C 0.68539 0.58118 0.80635 0.0
C405 C 0.68349 0.60368 0.89005 0.0
C406 C 0.69001 0.5799 0.91418 0.0
C407 C 0.69251 0.55776 0.83045 0.0
C408 C 0.68303 0.60525 0.83629 0.0
C409 C 0.69553 0.5577 0.88423 0.0
C410 C 0.54706 0.49065 0.74028 0.0
C411 C 0.67387 0.57771 0.7526 0.0
H412 H 0.51462 0.26717 0.61057 0.0
H413 H 0.49009 0.34424 0.638 0.0
H414 H 0.47648 0.28542 0.64712 0.0
H415 H 0.58538 0.37069 0.56594 0.0
H416 H 0.68982 0.57789 0.95588 0.0
H417 H 0.69424 0.5387 0.80823 0.0
H418 H 0.67669 0.62279 0.81784 0.0
H419 H 0.70029 0.53919 0.90287 0.0
Tb420 Tb 0.09636 0.56414 1.01102 0.0
C421 C 0.04236 0.66965 1.002 0.0
N422 N 0.07147 0.67158 0.98536 0.0
C423 C 0.07067 0.70146 0.9092 0.0
C424 C 0.02521 0.68222 0.97205 0.0
C425 C 0.08665 0.68852 0.94059 0.0
C426 C 0.03946 0.69774 0.92456 0.0
C427 C 0.00209 0.65602 1.07161 0.0
C428 C 0.0313 0.65714 1.05077 0.0
C429 C 0.98352 0.66662 1.04108 0.0
C430 C -0.00486 0.67981 0.99132 0.0
Tb431 Tb 0.09385 0.64607 1.03526 0.0
N432 N 0.05041 0.64778 1.07875 0.0
C433 C -0.00702 0.64503 1.1227 0.0
C434 C 0.04273 0.63901 0.12969 0.0
C435 C 0.01364 0.63683 0.15199 0.0
H436 H 0.11055 0.69102 0.92838 0.0
H437 H 0.00697 0.62836 0.19161 0.0
H438 H 0.01714 0.50944 1.05807 0.0
H439 H 0.21931 0.57951 1.05809 0.0
H440 H 0.05819 0.63248 0.15317 0.0
H441 H 0.97056 0.64348 0.14016 0.0
H442 H 0.18037 0.59364 1.01453 0.0
H443 H 0.08232 0.71407 0.8731 0.0
H444 H 0.96076 0.66559 1.05607 0.0
H445 H 0.98123 0.68887 0.96869 0.0
H446 H -0.0077 0.46255 1.12056 0.0
H447 H 0.02713 0.70776 0.90026 0.0
H448 H 0.19693 0.5303 1.11752 0.0
N449 N 0.06803 0.5191 1.06754 0.0
C450 C 0.08796 0.50848 1.09124 0.0
C451 C 0.01922 0.47553 1.11271 0.0
C452 C 0.07397 0.48048 0.12548 0.0
C453 C 0.03379 0.50258 1.07739 0.0
C454 C 0.0392 0.46417 0.13634 0.0
N455 N 0.13588 0.55567 1.05339 0.0
C456 C 0.17005 0.57373 1.04311 0.0
C457 C 0.14453 0.51772 1.10849 0.0
C458 C 0.12299 0.5274 1.0839 0.0
C459 C 0.17958 0.53708 1.09969 0.0
C460 C 0.19234 0.56506 1.0666 0.0
H461 H 0.02753 0.44286 0.16294 0.0
H462 H 0.08489 0.4489 0.17543 0.0
H463 H 0.14658 0.48108 0.15978 0.0
O464 O 0.12434 0.56107 0.94854 0.0
O465 O 0.10152 0.57237 1.09827 0.0
O466 O 0.09916 0.62104 1.11424 0.0
O467 O 0.08031 0.51638 0.97858 0.0
O468 O 0.14439 0.61587 1.0069 0.0
O469 O 0.12467 0.64656 0.96996 0.0
O470 O 0.11553 0.69766 1.05299 0.0
O471 O 0.06793 0.6221 0.95388 0.0
O472 O 0.06519 0.57001 0.94369 0.0
O473 O 0.14439 0.67255 1.06194 0.0
O474 O 0.06242 0.59981 1.0712 0.0
O475 O 0.04622 0.56038 1.01172 0.0
C476 C 0.10226 0.59424 0.13271 0.0
C477 C 0.12871 0.51139 0.95893 0.0
C478 C 0.18364 0.5137 0.95199 0.0
C479 C 0.17051 0.48311 0.97927 0.0
C480 C 0.11598 0.4805 0.986 0.0
C481 C 0.13681 0.46676 0.99665 0.0
C482 C 0.1626 0.52768 0.94227 0.0
C483 C 0.1509 0.64303 0.97911 0.0
C484 C 0.10788 0.52794 0.95082 0.0
C485 C 0.09529 0.47051 0.14943 0.0
C486 C 0.13044 0.48897 0.14077 0.0
C487 C 0.05733 0.59321 0.92518 0.0
C488 C 0.1538 0.71382 1.12253 0.0
C489 C 0.13731 0.71558 0.21152 0.0
C490 C 0.17169 0.73237 0.22586 0.0
C491 C 0.18812 0.73094 0.13699 0.0
C492 C 0.12882 0.70683 0.15975 0.0
C493 C 0.197 0.7404 0.18847 0.0
C494 C 0.03907 0.57848 1.0425 0.0
C495 C 0.14359 0.70012 1.07026 0.0
H496 H 0.18592 0.47148 0.98565 0.0
H497 H 0.09018 0.4672 0.99985 0.0
H498 H 0.12657 0.44307 1.01778 0.0
H499 H 0.1724 0.55101 0.92021 0.0
H500 H 0.1789 0.73911 0.26571 0.0
H501 H 0.20787 0.73631 1.10882 0.0
H502 H 0.10243 0.69319 0.1487 0.0
H503 H 0.22349 0.75335 0.19961 0.0
Tb504 Tb 0.87523 0.45033 0.5677 0.0
C505 C 0.85436 0.57139 0.61294 0.0
N506 N 0.84773 0.55414 0.56802 0.0
C507 C 0.79458 0.55348 0.56129 0.0
C508 C 0.83012 0.578 0.63585 0.0
C509 C 0.81967 0.54805 0.53985 0.0
C510 C 0.79936 0.56756 0.6103 0.0
C511 C 0.89699 0.61022 0.67239 0.0
C512 C 0.8874 0.5874 0.63095 0.0
C513 C 0.872 0.61358 0.69915 0.0
C514 C 0.83853 0.59748 0.68084 0.0
Tb515 Tb 0.89052 0.54531 0.53851 0.0
N516 N 0.9111 0.58493 0.60251 0.0
C517 C 0.93167 0.63125 0.68253 0.0
C518 C 0.94481 0.60888 0.60747 0.0
C519 C 0.95568 0.63144 0.6487 0.0
H520 H 0.81609 0.53786 0.50132 0.0
H521 H 0.98251 0.64914 0.65405 0.0
H522 H 0.91593 0.42485 0.49055 0.0
H523 H 0.7404 0.37989 0.62224 0.0
H524 H 0.96339 0.60983 0.58064 0.0
H525 H 0.9401 0.64916 0.7139 0.0
H526 H 0.80094 0.41752 0.63845 0.0
H527 H 0.77171 0.54702 0.53987 0.0
H528 H 0.87876 0.6305 0.73167 0.0
H529 H 0.82003 0.60224 0.69955 0.0
H530 H 0.90155 0.38495 0.41805 0.0
H531 H 0.78012 0.57222 0.62651 0.0
H532 H 0.72126 0.35115 0.5384 0.0
N533 N 0.8652 0.41477 0.50018 0.0
C534 C 0.83197 0.39498 0.48679 0.0
C535 C 0.88183 0.38778 0.43672 0.0
C536 C 0.82278 0.37257 0.44494 0.0
C537 C 0.88991 0.41023 0.47774 0.0
C538 C 0.84832 0.3697 0.41916 0.0
N539 N 0.81702 0.41367 0.56246 0.0
C540 C 0.7935 0.40594 0.60115 0.0
C541 C 0.77244 0.37222 0.50814 0.0
C542 C 0.80714 0.39495 0.51837 0.0
C543 C 0.74814 0.36825 0.54488 0.0
C544 C 0.75883 0.38431 0.59227 0.0
H545 H 0.84224 0.35259 0.38704 0.0
H546 H 0.78077 0.33546 0.39949 0.0
H547 H 0.73666 0.33522 0.45469 0.0
O548 O 0.90347 0.44074 0.62369 0.0
O549 O 0.87872 0.46207 0.47951 0.0
O550 O 0.8807 0.51363 0.46122 0.0
O551 O 0.86344 0.40047 0.58337 0.0
O552 O 0.84101 0.46961 0.60104 0.0
O553 O 0.83807 0.50235 0.53646 0.0
O554 O 0.93352 0.5789 0.49427 0.0
O555 O 0.91885 0.54349 0.61641 0.0
O556 O 0.90511 0.48732 0.6361 0.0
O557 O 0.88779 0.58105 0.49037 0.0
O558 O 0.90404 0.50982 0.54856 0.0
O559 O 0.92562 0.47977 0.5329 0.0
C560 C 0.87883 0.48412 0.44443 0.0
C561 C 0.86458 0.39155 0.66873 0.0
C562 C 0.81747 0.38631 0.72116 0.0
C563 C 0.80665 0.35163 0.72828 0.0
C564 C 0.85485 0.35781 0.67901 0.0
C565 C 0.82594 0.33794 0.70909 0.0
C566 C 0.84681 0.40571 0.69131 0.0
C567 C 0.82356 0.48197 0.5762 0.0
C568 C 0.88348 0.40821 0.62204 0.0
C569 C 0.78833 0.35237 0.43212 0.0
C570 C 0.7632 0.35229 0.46354 0.0
C571 C 0.92186 0.52092 0.64897 0.0
C572 C 0.92011 0.59344 0.41413 0.0
C573 C 0.95449 0.61879 0.33711 0.0
C574 C 0.92591 0.59886 0.30637 0.0
C575 C 0.89168 0.5736 0.38306 0.0
C576 C 0.95138 0.61579 0.39099 0.0
C577 C 0.89469 0.57629 0.32937 0.0
C578 C 0.93035 0.50974 0.53118 0.0
C579 C 0.91773 0.5919 0.47062 0.0
H580 H 0.78388 0.33488 0.74965 0.0
H581 H 0.86782 0.34623 0.66049 0.0
H582 H 0.81763 0.31148 0.71583 0.0
H583 H 0.85393 0.43114 0.67965 0.0
H584 H 0.9278 0.60051 0.26465 0.0
H585 H 0.86719 0.55616 0.40016 0.0
H586 H 0.97317 0.63134 0.41508 0.0
H587 H 0.87277 0.56092 0.30557 0.0
Tb588 Tb 0.41095 0.86186 0.90784 0.0
C589 C 0.34052 0.94624 0.9596 0.0
N590 N 0.33184 0.91381 0.94853 0.0
C591 C 0.28533 0.89377 1.00947 0.0
C592 C 0.32326 0.95357 0.9983 0.0
C593 C 0.30357 0.88771 0.97178 0.0
C594 C 0.29548 0.92682 1.02336 0.0
C595 C 0.37745 0.00623 0.94397 0.0
C596 C 0.36665 0.97221 0.93169 0.0
C597 C 0.36118 0.0136 0.98357 0.0
C598 C 0.33384 0.98732 1.01024 0.0
Tb599 Tb 0.36154 0.90693 0.88153 0.0
N600 N 0.38161 0.96417 0.8929 0.0
C601 C 0.4044 0.03195 0.91629 0.0
C602 C 0.40684 0.98966 0.86388 0.0
C603 C 0.4189 0.02359 0.87604 0.0
H604 H 0.29358 0.86189 0.96111 0.0
H605 H 0.43906 0.04352 0.85401 0.0
H606 H 0.49109 0.88143 0.86869 0.0
H607 H 0.29621 0.78781 0.79023 0.0
H608 H 0.41783 0.98456 0.83076 0.0
H609 H 0.41375 0.05832 0.92505 0.0
H610 H 0.33707 0.83855 0.83525 0.0
H611 H 0.26309 0.87282 1.02735 0.0
H612 H 0.36926 0.03958 0.99338 0.0
H613 H 0.32101 -0.00666 1.03999 0.0
H614 H 0.51563 0.85352 0.82003 0.0
H615 H 0.28125 0.93141 1.05261 0.0
H616 H 0.31202 0.74533 0.76606 0.0
N617 N 0.43934 0.84433 0.85329 0.0
C618 C 0.41856 0.8139 0.83053 0.0
C619 C 0.48827 0.84219 0.82243 0.0
C620 C 0.43198 0.79644 0.80353 0.0
C621 C 0.47397 0.85854 0.84913 0.0
C622 C 0.46724 0.81081 0.80022 0.0
N623 N 0.37257 0.82231 0.84977 0.0
C624 C 0.34296 0.81905 0.8309 0.0
C625 C 0.36226 0.77363 0.79939 0.0
C626 C 0.38384 0.80226 0.82929 0.0
C627 C 0.32932 0.76692 0.78897 0.0
C628 C 0.32023 0.79068 0.80275 0.0
H629 H 0.47849 0.79822 0.77969 0.0
H630 H 0.41979 0.75186 0.75884 0.0
H631 H 0.35868 0.73208 0.75475 0.0
O632 O 0.41083 0.82171 0.94582 0.0
O633 O 0.41864 0.8735 0.82022 0.0
O634 O 0.38272 0.89524 0.80302 0.0
O635 O 0.45628 0.87057 0.94564 0.0
O636 O 0.35973 0.82742 0.9422 0.0
O637 O 0.33186 0.85481 0.91533 0.0
O638 O 0.33607 0.92722 0.84069 0.0
O639 O 0.38835 0.92632 0.95962 0.0
O640 O 0.41845 0.89908 0.97873 0.0
O641 O 0.31369 0.8733 0.85016 0.0
O642 O 0.40992 0.93111 0.84321 0.0
O643 O 0.43374 0.91627 0.90555 0.0
C644 C 0.40355 0.88335 0.78482 0.0
C645 C 0.45163 0.82764 1.00591 0.0
C646 C 0.4347 0.77852 1.06183 0.0
C647 C 0.45513 0.80082 1.10126 0.0
C648 C 0.47069 0.84955 1.04554 0.0
C649 C 0.47369 0.83593 1.09245 0.0
C650 C 0.43773 0.79269 1.01251 0.0
C651 C 0.33117 0.828 0.93672 0.0
C652 C 0.44279 0.83872 0.95808 0.0
C653 C 0.40994 0.76592 0.77881 0.0
C654 C 0.37509 0.75451 0.77677 0.0
C655 C 0.40903 0.9224 0.9925 0.0
C656 C 0.30402 0.89281 0.77227 0.0
C657 C 0.32225 0.91486 0.6858 0.0
C658 C 0.28915 0.89289 0.66773 0.0
C659 C 0.27097 0.87113 0.75462 0.0
C660 C 0.32987 0.9123 0.73716 0.0
C661 C 0.26383 0.8705 0.702 0.0
C662 C 0.43703 0.93343 0.86365 0.0
C663 C 0.31147 0.89747 0.82731 0.0
H664 H 0.45517 0.79188 0.13999 0.0
H665 H 0.48257 0.87674 1.04069 0.0
H666 H 0.4884 0.8527 1.12337 0.0
H667 H 0.42529 0.77657 0.97988 0.0
H668 H 0.28229 0.89431 0.62817 0.0
H669 H 0.25073 0.85541 0.78147 0.0
H670 H 0.3556 0.92819 0.751 0.0
H671 H 0.23824 0.85406 0.68827 0.0
Tb672 Tb 0.55047 0.4214 0.24232 0.0
C673 C 0.38476 0.32987 0.2635 0.0
N674 N 0.41005 0.32244 0.26534 0.0
C675 C 0.37217 0.26924 0.30665 0.0
C676 C 0.35177 0.30697 0.28197 0.0
C677 C 0.40453 0.29302 0.28806 0.0
C678 C 0.34549 0.27601 0.30284 0.0
C679 C 0.36899 0.37244 0.25066 0.0
C680 C 0.39314 0.36167 0.24696 0.0
C681 C 0.33531 0.34913 0.26521 0.0
C682 C 0.32667 0.31631 0.28078 0.0
Tb683 Tb 0.46021 0.3583 0.22385 0.0
N684 N 0.42634 0.38338 0.23512 0.0
C685 C 0.38007 0.4068 0.24439 0.0
C686 C 0.43755 0.41748 0.23696 0.0
C687 C 0.41477 0.42955 0.24002 0.0
H688 H 0.42486 0.2874 0.29039 0.0
H689 H 0.42423 0.45649 0.24139 0.0
H690 H 0.55631 0.4909 0.28891 0.0
H691 H 0.63599 0.40083 1.12174 0.0
H692 H 0.46389 0.43604 0.24027 0.0
H693 H 0.36255 0.41626 0.24776 0.0
H694 H 0.58748 0.38372 0.18065 0.0
H695 H 0.36779 0.24564 0.32363 0.0
H696 H 0.31631 0.35678 0.26737 0.0
H697 H 0.30101 0.29894 0.29409 0.0
H698 H 0.59695 0.55248 0.28334 0.0
H699 H 0.32049 0.25766 0.31744 0.0
H700 H 0.67287 0.4611 1.0977 0.0
N701 N 0.58257 0.47854 0.23307 0.0
C702 C 0.60948 0.4902 0.20002 0.0
C703 C 0.60039 0.53518 0.25919 0.0
C704 C 0.63292 0.525 0.19517 0.0
C705 C 0.57742 0.5004 0.26213 0.0
C706 C 0.62849 0.54732 0.22616 0.0
N707 N 0.59472 0.43353 0.18681 0.0
C708 C 0.60276 0.41002 0.16972 0.0
C709 C 0.64439 0.4779 0.14356 0.0
C710 C 0.61555 0.4669 0.17558 0.0
C711 C 0.65107 0.45367 1.1227 0.0
C712 C 0.63038 0.41963 0.13632 0.0
H713 H 0.64748 0.57373 0.22608 0.0
H714 H 0.67923 0.56304 0.15741 0.0
H715 H 0.68883 0.52171 1.11111 0.0
O716 O 0.55697 0.39796 0.30881 0.0
O717 O 0.54779 0.41433 0.1541 0.0
O718 O 0.49083 0.37448 0.14191 0.0
O719 O 0.59509 0.44829 0.2858 0.0
O720 O 0.53647 0.36728 0.22988 0.0
O721 O 0.48896 0.34342 0.27681 0.0
O722 O 0.41961 0.3233 0.1787 0.0
O723 O 0.46162 0.38145 0.30307 0.0
O724 O 0.51612 0.42794 0.30488 0.0
O725 O 0.45856 0.3129 0.2053 0.0
O726 O 0.47641 0.39956 0.17214 0.0
O727 O 0.51974 0.44286 0.21647 0.0
C728 C 0.5229 0.39563 1.12075 0.0
C729 C 0.61488 0.41176 0.31301 0.0
C730 C 0.637 0.37675 0.34757 0.0
C731 C 0.66455 0.392 0.31316 0.0
C732 C 0.64325 0.42743 0.27954 0.0
C733 C 0.66741 0.41705 0.27889 0.0
C734 C 0.61193 0.38628 0.34665 0.0
C735 C 0.51533 0.34179 0.25988 0.0
C736 C 0.58859 0.42193 0.31354 0.0
C737 C 0.66109 0.53626 0.16195 0.0
C738 C 0.66657 0.51273 0.13565 0.0
C739 C 0.48409 0.41057 0.32588 0.0
C740 C 0.43496 0.29135 1.12442 0.0
C741 C 0.41986 0.28432 1.03369 0.0
C742 C 0.4368 0.26608 1.02682 0.0
C743 C 0.45128 0.27243 1.11762 0.0
C744 C 0.42005 0.29776 1.08207 0.0
C745 C 0.45251 0.26027 1.06882 0.0
C746 C 0.49963 0.43135 0.17632 0.0
C747 C 0.43219 0.30313 0.17581 0.0
H748 H 0.68418 0.38517 0.31382 0.0
H749 H 0.64708 0.4479 0.25402 0.0
H750 H 0.6889 0.42912 0.25267 0.0
H751 H 0.59084 0.37488 0.37382 0.0
H752 H 0.43697 0.25549 0.98965 0.0
H753 H 0.46285 0.26687 0.14997 0.0
H754 H 0.40781 0.31272 1.08682 0.0
H755 H 0.46495 0.24564 1.06382 0.0
Tb756 Tb 0.1217 0.54802 0.56882 0.0
C757 C 0.04171 0.39099 0.61461 0.0
N758 N 0.07397 0.41314 0.59891 0.0
C759 C 0.09422 0.38154 0.64689 0.0
C760 C 0.03483 0.36487 0.65052 0.0
C761 C 0.09968 0.40716 0.61166 0.0
C762 C 0.06177 0.36081 0.66749 0.0
C763 C 0.98142 0.37031 0.60665 0.0
C764 C 0.01541 0.39316 0.5918 0.0
C765 C 0.97456 0.34578 0.64507 0.0
C766 C 0.0012 0.34282 0.66657 0.0
Tb767 Tb 0.08115 0.45467 0.54122 0.0
N768 N 0.0232 0.41695 0.5539 0.0
C769 C 0.95527 0.37226 0.5817 0.0
C770 C -0.00283 0.41672 0.52667 0.0
C771 C 0.96318 0.39509 0.54094 0.0
H772 H 0.12434 0.42134 0.59351 0.0
H773 H 0.94298 0.3956 0.51978 0.0
H774 H 0.10019 0.60739 0.54005 0.0
H775 H 0.20357 0.51605 0.45499 0.0
H776 H 0.00166 0.43251 0.49315 0.0
H777 H 0.92887 0.35544 0.5923 0.0
H778 H 0.15331 0.50273 0.50601 0.0
H779 H 0.11493 0.37743 0.65738 0.0
H780 H 0.94865 0.32824 0.65717 0.0
H781 H -0.00454 0.32289 0.6946 0.0
H782 H 0.12415 0.65966 0.48927 0.0
H783 H 0.05751 0.3408 0.69451 0.0
H784 H 0.2402 0.57425 0.42177 0.0
N785 N 0.13708 0.59437 0.51601 0.0
C786 C 0.16698 0.60532 0.48972 0.0
C787 C 0.13624 0.64441 0.4886 0.0
C788 C 0.18224 0.63607 0.46147 0.0
C789 C 0.12208 0.61393 0.51639 0.0
C790 C 0.16651 0.65563 0.46128 0.0
N791 N 0.16339 0.55305 0.51131 0.0
C792 C 0.16992 0.52832 0.49584 0.0
C793 C 0.20911 0.5928 0.45539 0.0
C794 C 0.18068 0.58406 0.48762 0.0
C795 C 0.21864 0.5686 0.44633 0.0
C796 C 0.19814 0.53581 0.46511 0.0
H797 H 0.17743 0.67935 0.43998 0.0
H798 H 0.22452 0.66975 0.41198 0.0
H799 H 0.2478 0.63166 0.40615 0.0
O800 O 0.15982 0.59289 0.60055 0.0
O801 O 0.10959 0.54516 0.48219 0.0
O802 O 0.09478 0.48947 0.46383 0.0
O803 O 0.10776 0.57768 0.61405 0.0
O804 O 0.1584 0.53356 0.60007 0.0
O805 O 0.13012 0.47604 0.58615 0.0
O806 O 0.06291 0.40971 0.50015 0.0
O807 O 0.05911 0.45919 0.61926 0.0
O808 O 0.08586 0.51588 0.64063 0.0
O809 O 0.11679 0.44529 0.50427 0.0
O810 O 0.05559 0.47664 0.50231 0.0
O811 O 0.06715 0.5138 0.56507 0.0
C812 C 0.10363 0.52174 0.44632 0.0
C813 C 0.14701 0.60493 0.68089 0.0
C814 C 0.1733 0.59522 0.75561 0.0
C815 C 0.16736 0.61795 0.78396 0.0
C816 C 0.1412 0.62761 0.70896 0.0
C817 C 0.15133 0.63401 0.76059 0.0
C818 C 0.1628 0.58891 0.7045 0.0
C819 C 0.15724 0.50409 0.60284 0.0
C820 C 0.13906 0.59901 0.62609 0.0
C821 C 0.21221 0.64598 0.43323 0.0
C822 C 0.2256 0.62439 0.43018 0.0
C823 C 0.0625 0.48274 0.65334 0.0
C824 C 0.09644 0.41359 0.42897 0.0
C825 C 0.06987 0.40403 0.34528 0.0
C826 C 0.09173 0.39284 0.32691 0.0
C827 C 0.11796 0.40222 0.41094 0.0
C828 C 0.07472 0.41717 0.39499 0.0
C829 C 0.11629 0.39287 0.35938 0.0
C830 C 0.05074 0.49955 0.52311 0.0
C831 C 0.09319 0.41742 0.48407 0.0
H832 H 0.17453 0.62291 0.82416 0.0
H833 H 0.12927 0.64048 0.69093 0.0
H834 H 0.14683 0.65148 0.7825 0.0
H835 H 0.16786 0.57198 0.68219 0.0
H836 H 0.0887 0.38225 0.28877 0.0
H837 H 0.13515 0.39959 0.43697 0.0
H838 H 0.05916 0.42727 0.40906 0.0
H839 H 0.13257 0.38363 0.34546 0.0
Tb840 Tb 0.56568 0.10975 0.90677 0.0
C841 C 0.70381 0.12032 0.95875 0.0
N842 N 0.69648 0.12967 0.9128 0.0
C843 C 0.75313 0.17784 0.9091 0.0
C844 C 0.73481 0.14135 0.98418 0.0
C845 C 0.72195 0.15618 0.88568 0.0
C846 C 0.75895 0.17127 0.95959 0.0
C847 C 0.69306 0.07445 1.01769 0.0
C848 C 0.68351 0.08709 0.97486 0.0
C849 C 0.72129 0.09669 1.04726 0.0
C850 C 0.7423 0.13014 1.03033 0.0
Tb851 Tb 0.64428 0.09201 0.87876 0.0
N852 N 0.65788 0.06595 0.94333 0.0
C853 C 0.67612 0.03944 1.02639 0.0
C854 C 0.64571 0.03172 0.94672 0.0
C855 C 0.65322 0.01792 0.98963 0.0
H856 H 0.71784 0.16114 0.84622 0.0
H857 H 0.64191 0.99076 0.9937 0.0
H858 H 0.50174 0.05109 0.83275 0.0
H859 H 0.62771 0.24691 0.90632 0.0
H860 H 0.6294 0.01492 0.91739 0.0
H861 H 0.68263 0.02872 1.05887 0.0
H862 H 0.61592 0.19181 0.93841 0.0
H863 H 0.77267 0.19946 0.88807 0.0
H864 H 0.72866 0.08758 1.08078 0.0
H865 H 0.76562 0.14623 1.05095 0.0
H866 H 0.46383 0.051 0.76605 0.0
H867 H 0.78326 0.1879 0.97741 0.0
H868 H 0.59317 0.25056 0.83586 0.0
N869 N 0.5303 0.10514 0.83975 0.0
C870 C 0.53349 0.13498 0.82298 0.0
C871 C 0.4832 0.07478 0.78198 0.0
C872 C 0.51102 0.13563 0.78595 0.0
C873 C 0.50536 0.07512 0.81974 0.0
C874 C 0.48544 0.10502 0.76603 0.0
N875 N 0.58071 0.16352 0.87903 0.0
C876 C 0.60345 0.19255 0.90371 0.0
C877 C 0.56374 0.1963 0.82579 0.0
C878 C 0.55988 0.165 0.8424 0.0
C879 C 0.58939 0.22608 0.84759 0.0
C880 C 0.60913 0.22414 0.88703 0.0
H881 H 0.46783 0.10453 0.73748 0.0
H882 H 0.4979 0.16765 0.74118 0.0
H883 H 0.54386 0.22077 0.77635 0.0
O884 O 0.55701 0.13369 0.96904 0.0
O885 O 0.5779 0.11319 0.81803 0.0
O886 O 0.6219 0.1015 0.80046 0.0
O887 O 0.51512 0.09292 0.9304 0.0
O888 O 0.62001 0.14272 0.93824 0.0
O889 O 0.65908 0.14587 0.87861 0.0
O890 O 0.63528 0.04889 0.83776 0.0
O891 O 0.61291 0.06452 0.95665 0.0
O892 O 0.56669 0.07355 0.97137 0.0
O893 O 0.68185 0.09581 0.82757 0.0
O894 O 0.59655 0.08345 0.88227 0.0
O895 O 0.5435 0.0564 0.88901 0.0
C896 C 0.59728 0.10854 0.78286 0.0
C897 C 0.51032 0.14106 0.95017 0.0
C898 C 0.51553 0.19669 0.95878 0.0
C899 C 0.48794 0.187 0.92565 0.0
C900 C 0.4827 0.13165 0.91664 0.0
C901 C 0.47177 0.15459 0.90432 0.0
C902 C 0.52638 0.17363 0.97106 0.0
C903 C 0.65068 0.16035 0.91496 0.0
C904 C 0.52447 0.11855 0.96065 0.0
C905 C 0.515 0.16672 0.7694 0.0
C906 C 0.5413 0.19696 0.78921 0.0
C907 C 0.58517 0.05887 0.98646 0.0
C908 C 0.65917 0.06155 0.7545 0.0
C909 C 0.63042 0.02546 0.68187 0.0
C910 C 0.64932 0.05267 0.64777 0.0
C911 C 0.67869 0.08861 0.72023 0.0
C912 C 0.6354 0.03008 0.73492 0.0
C913 C 0.67364 0.08409 0.66703 0.0
C914 C 0.56945 0.05542 0.87319 0.0
C915 C 0.66294 0.06533 0.81064 0.0
H916 H 0.47869 0.20421 0.91703 0.0
H917 H 0.46999 0.1069 0.89912 0.0
H918 H 0.45058 0.14713 0.87839 0.0
H919 H 0.54727 0.18108 0.99781 0.0
H920 H 0.64591 0.04937 0.60642 0.0
H921 H 0.69752 0.11324 0.73437 0.0
H922 H 0.62058 0.00898 0.76108 0.0
H923 H 0.6885 0.10499 0.64075 0.0
Tb924 Tb 0.43098 0.56611 0.23584 0.0
C925 C 0.59443 0.63713 0.26739 0.0
N926 N 0.56772 0.64219 0.27467 0.0
C927 C 0.595 0.6744 0.35084 0.0
C928 C 0.62189 0.64964 0.30236 0.0
C929 C 0.56861 0.66191 0.31492 0.0
C930 C 0.62128 0.66744 0.34542 0.0
C931 C 0.62523 0.62108 0.20899 0.0
C932 C 0.59584 0.62254 0.22196 0.0
C933 C 0.6523 0.63286 0.24409 0.0
C934 C 0.6503 0.64641 0.29121 0.0
Tb935 Tb 0.52565 0.62069 0.21229 0.0
N936 N 0.57022 0.61369 0.18774 0.0
C937 C 0.62725 0.60947 0.16009 0.0
C938 C 0.57313 0.6043 0.13915 0.0
C939 C 0.60106 0.60107 0.12498 0.0
H940 H 0.54977 0.66912 0.31971 0.0
H941 H 0.60303 0.59333 1.08643 0.0
H942 H 0.38325 0.48314 0.22494 0.0
H943 H 0.4386 0.66845 1.11271 0.0
H944 H 0.55499 0.60167 1.11041 0.0
H945 H 0.64941 0.60807 0.14845 0.0
H946 H 0.46122 0.64386 0.17273 0.0
H947 H 0.59559 0.6903 0.38199 0.0
H948 H 0.67533 0.63249 0.23459 0.0
H949 H 0.67164 0.65601 0.31745 0.0
H950 H 0.33167 0.44284 0.17741 0.0
H951 H 0.64194 0.67765 0.37293 0.0
H952 H 0.38225 0.63286 1.07348 0.0
N953 N 0.38633 0.52664 0.18925 0.0
C954 C 0.37129 0.53896 0.157 0.0
C955 C 0.34266 0.4698 0.17116 0.0
C956 C 0.34148 0.51689 0.12992 0.0
C957 C 0.37208 0.49265 0.19751 0.0
C958 C 0.32725 0.48196 0.1373 0.0
N959 N 0.41745 0.59432 0.17316 0.0
C960 C 0.43634 0.62766 0.15815 0.0
C961 C 0.37358 0.58715 1.11271 0.0
C962 C 0.3871 0.57392 0.14907 0.0
C963 C 0.39182 0.62174 1.10105 0.0
C964 C 0.42362 0.64188 1.12308 0.0
H965 H 0.30441 0.46417 1.11703 0.0
H966 H 0.30402 0.51372 1.07509 0.0
H967 H 0.33219 0.57513 1.05985 0.0
O968 O 0.3847 0.56066 0.26107 0.0
O969 O 0.43848 0.56145 0.14905 0.0
O970 O 0.4955 0.60044 0.13309 0.0
O971 O 0.40177 0.52892 0.29273 0.0
O972 O 0.44675 0.61903 0.25734 0.0
O973 O 0.50273 0.63925 0.27027 0.0
O974 O 0.56826 0.66417 0.18227 0.0
O975 O 0.52145 0.59078 0.28655 0.0
O976 O 0.46398 0.56466 0.30692 0.0
O977 O 0.51837 0.6585 0.17818 0.0
O978 O 0.5051 0.57127 0.17974 0.0
O979 O 0.45431 0.53523 0.22113 0.0
C980 C 0.4635 0.57853 1.11452 0.0
C981 C 0.36968 0.5439 0.3464 0.0
C982 C 0.38567 0.58492 0.41474 0.0
C983 C 0.36637 0.55851 0.45014 0.0
C984 C 0.35085 0.51748 0.38158 0.0
C985 C 0.3481 0.52495 0.43308 0.0
C986 C 0.38359 0.57736 0.36232 0.0
C987 C 0.47691 0.64478 0.26768 0.0
C988 C 0.37853 0.53743 0.29499 0.0
C989 C 0.32711 0.53028 1.09589 0.0
C990 C 0.34309 0.56529 1.08737 0.0
C991 C 0.49629 0.57176 0.32002 0.0
C992 C 0.554 0.68174 1.10487 0.0
C993 C 0.57164 0.67048 1.02197 0.0
C994 C 0.55536 0.68545 0.99623 0.0
C995 C 0.53757 0.69655 1.07885 0.0
C996 C 0.57223 0.67027 1.07585 0.0
C997 C 0.5388 0.69892 1.02479 0.0
C998 C 0.47847 0.5412 0.18763 0.0
C999 C 0.54968 0.67534 0.16126 0.0
H1000 H 0.36746 0.56335 0.49114 0.0
H1001 H 0.33928 0.49133 0.36968 0.0
H1002 H 0.33394 0.50458 0.46051 0.0
H1003 H 0.39758 0.59784 0.33486 0.0
H1004 H 0.55492 0.68612 0.95446 0.0
H1005 H 0.52343 0.70578 1.10023 0.0
H1006 H 0.58663 0.66051 1.09487 0.0
H1007 H 0.52606 0.71034 1.00497 0.0
H1008 H 0.56352 0.23131 0.30799 0.0
H1009 H 0.4565 0.16873 0.33974 0.0
H1010 H 0.44771 0.21577 0.32257 0.0
H1011 H 0.46896 0.27567 0.29578 0.0
H1012 H 0.57451 0.33828 0.25432 0.0
H1013 H 0.5846 0.29187 0.2766 0.0
C1014 C 0.53815 0.22763 0.31062 0.0
C1015 C 0.51055 0.1945 0.32365 0.0
C1016 C 0.53275 0.25573 0.29865 0.0
C1017 C 0.47836 0.19212 0.32786 0.0
C1018 C 0.4732 0.21976 0.31841 0.0
C1019 C 0.49431 0.27948 0.29147 0.0
C1020 C 0.52086 0.31164 0.27334 0.0
C1021 C 0.49996 0.25174 0.30298 0.0
C1022 C 0.55321 0.31459 0.26787 0.0
C1023 C 0.55906 0.28756 0.28062 0.0
H1024 H 0.26829 0.461 0.66302 0.0
H1025 H 0.33922 0.5567 0.594 0.0
H1026 H 0.292 0.56747 0.57747 0.0
H1027 H 0.22843 0.54903 0.58196 0.0
H1028 H 0.16065 0.45427 0.65815 0.0
H1029 H 0.20775 0.44411 0.67203 0.0
C1030 C 0.27403 0.48424 0.64437 0.0
C1031 C 0.30857 0.50742 0.62979 0.0
C1032 C 0.24641 0.49057 0.63599 0.0
C1033 C 0.31375 0.5376 0.60555 0.0
C1034 C 0.28631 0.54393 0.59629 0.0
C1035 C 0.22384 0.52628 0.60228 0.0
C1036 C 0.18946 0.50201 0.61771 0.0
C1037 C 0.2522 0.52062 0.61139 0.0
C1038 C 0.18546 0.47297 0.64378 0.0
C1039 C 0.21293 0.46724 0.65234 0.0
H1040 H 0.76147 0.2973 1.03464 0.0
H1041 H 0.82187 0.30499 0.9015 0.0
H1042 H 0.77298 0.25533 0.86427 0.0
H1043 H 0.71221 0.20885 0.86811 0.0
H1044 H 0.65533 0.19277 1.00874 0.0
H1045 H 0.70199 0.24603 1.04264 0.0
C1046 C 0.76416 0.28808 0.99757 0.0
C1047 C 0.79618 0.30621 0.97094 0.0
C1048 C 0.73588 0.25749 0.97721 0.0
C1049 C 0.79828 0.29264 0.92328 0.0
C1050 C 0.76996 0.26387 0.90173 0.0
C1051 C 0.71009 0.21598 0.90703 0.0
C1052 C 0.67948 0.19498 0.93569 0.0
C1053 C 0.73852 0.24582 0.92822 0.0
C1054 C 0.67778 0.20719 0.98496 0.0
C1055 C 0.70496 0.23795 1.00477 0.0
H1056 H 0.42884 0.66741 0.27592 0.0
H1057 H 0.5369 0.70549 0.27965 0.0
H1058 H 0.54737 0.76277 0.29069 0.0
H1059 H 0.52707 0.80419 0.29779 0.0
H1060 H 0.41937 0.76764 0.29486 0.0
H1061 H 0.40828 0.70946 0.28504 0.0
C1062 C 0.45478 0.68806 0.27957 0.0
C1063 C 0.48192 0.68059 0.27796 0.0
C1064 C 0.461 0.72226 0.28516 0.0
C1065 C 0.51509 0.70888 0.28219 0.0
C1066 C 0.52125 0.74233 0.28786 0.0
C1067 C 0.501 0.7838 0.29412 0.0
C1068 C 0.47424 0.79174 0.29575 0.0
C1069 C 0.49458 0.74966 0.28901 0.0
C1070 C 0.44087 0.76365 0.2923 0.0
C1071 C 0.43443 0.72988 0.28701 0.0
H1072 H 0.66773 0.45393 0.58542 0.0
H1073 H 0.70348 0.50653 0.72953 0.0
H1074 H 0.75767 0.50869 0.71805 0.0
H1075 H 0.79829 0.4983 0.66601 0.0
H1076 H 0.76514 0.44982 0.51893 0.0
H1077 H 0.70875 0.4432 0.5331 0.0
C1078 C 0.68706 0.46562 0.6148 0.0
C1079 C 0.67984 0.47987 0.659 0.0
C1080 C 0.71979 0.46751 0.60753 0.0
C1081 C 0.70677 0.49515 0.69515 0.0
C1082 C 0.73843 0.49642 0.68866 0.0
C1083 C 0.77863 0.48554 0.63737 0.0
C1084 C 0.78692 0.47385 0.59149 0.0
C1085 C 0.7457 0.4829 0.64497 0.0
C1086 C 0.7604 0.4587 0.5549 0.0
C1087 C 0.72771 0.45509 0.56293 0.0
H1088 H 0.31107 0.76276 0.98212 0.0
H1089 H 0.26875 0.81694 0.90428 0.0
H1090 H 0.21242 0.76759 0.91009 0.0
H1091 H 0.17277 0.70759 0.93584 0.0
H1092 H 0.21325 0.65169 1.01286 0.0
H1093 H 0.27026 0.70115 1.00798 0.0
C1094 C 0.2896 0.76408 0.96691 0.0
C1095 C 0.2956 0.79539 0.94418 0.0
C1096 C 0.25584 0.73431 0.9696 0.0
C1097 C 0.26637 0.79486 0.92386 0.0
C1098 C 0.23346 0.76595 0.92657 0.0
C1099 C 0.19393 0.70588 0.95159 0.0
C1100 C 0.18738 0.6745 0.97432 0.0
C1101 C 0.22755 0.73534 0.94926 0.0
C1102 C 0.21623 0.67431 0.99443 0.0
C1103 C 0.24946 0.70327 0.99196 0.0
H1104 H 0.48649 0.2092 1.0376 0.0
H1105 H 0.57859 0.25271 0.94789 0.0
H1106 H 0.6119 0.2827 1.02338 0.0
H1107 H 0.6151 0.27758 1.1174 0.0
H1108 H 0.52223 0.22416 0.20571 0.0
H1109 H 0.48895 0.21901 0.13 0.0
C1110 C 0.51354 0.2272 1.03403 0.0
C1111 C 0.53036 0.22825 0.98824 0.0
C1112 C 0.5325 0.24206 1.07847 0.0
C1113 C 0.56538 0.25122 0.98339 0.0
C1114 C 0.58442 0.26796 1.02679 0.0
C1115 C 0.58771 0.26647 1.1203 0.0
C1116 C 0.57109 0.25095 0.16672 0.0
C1117 C 0.56849 0.26076 1.07532 0.0
C1118 C 0.53561 0.23653 0.1705 0.0
C1119 C 0.51646 0.23302 0.12678 0.0
H1120 H 0.44813 0.61364 0.3735 0.0
H1121 H 0.39134 0.62673 0.49586 0.0
H1122 H 0.44498 0.66869 0.53575 0.0
H1123 H 0.50503 0.68552 0.5482 0.0
H1124 H 0.55288 0.65261 0.43829 0.0
H1125 H 0.50763 0.63855 0.37813 0.0
C1126 C 0.44698 0.62686 0.40732 0.0
C1127 C 0.41563 0.61691 0.4318 0.0
C1128 C 0.4774 0.64858 0.43154 0.0
C1129 C 0.41517 0.63369 0.47667 0.0
C1130 C 0.44585 0.65772 0.49927 0.0
C1131 C 0.50633 0.67718 0.5096 0.0
C1132 C 0.53051 0.66716 0.49935 0.0
C1133 C 0.47701 0.66334 0.47893 0.0
C1134 C 0.53406 0.65948 0.44824 0.0
C1135 C 0.50736 0.6503 0.41405 0.0
H1136 H 0.74191 0.42891 0.87496 0.0
H1137 H 0.82762 0.52742 0.84047 0.0
H1138 H 0.84173 0.50485 0.76579 0.0
H1139 H 0.84113 0.4548 0.73593 0.0
H1140 H 0.75032 0.35653 0.75605 0.0
H1141 H 0.72722 0.38189 0.81358 0.0
C1142 C 0.76218 0.44595 0.84899 0.0
C1143 C 0.78517 0.47918 0.86471 0.0
C1144 C 0.77059 0.43253 0.80668 0.0
C1145 C 0.81033 0.5014 0.82977 0.0
C1146 C 0.81896 0.48828 0.78786 0.0
C1147 C 0.81557 0.4383 0.74993 0.0
C1148 C 0.79899 0.40272 0.74419 0.0
C1149 C 0.80115 0.45325 0.77963 0.0
C1150 C 0.76544 0.38337 0.76317 0.0
C1151 C 0.75169 0.39798 0.7953 0.0
H1152 H 0.41653 0.7374 0.15158 0.0
H1153 H 0.37664 0.73555 1.00064 0.0
H1154 H 0.32533 0.72936 1.03774 0.0
H1155 H 0.30681 0.75135 1.11067 0.0
H1156 H 0.34791 0.7534 0.26165 0.0
H1157 H 0.3802 0.72962 0.22755 0.0
C1158 C 0.39627 0.73473 0.12649 0.0
C1159 C 0.40334 0.74494 1.07441 0.0
C1160 C 0.36663 0.73171 0.14852 0.0
C1161 C 0.37458 0.73425 1.04221 0.0
C1162 C 0.34452 0.73026 1.06328 0.0
C1163 C 0.32233 0.74614 0.13665 0.0
C1164 C 0.32959 0.76007 0.18647 0.0
C1165 C 0.34267 0.73386 1.11641 0.0
C1166 C 0.34505 0.74761 0.22105 0.0
C1167 C 0.36397 0.73376 0.20176 0.0
H1168 H 0.58786 0.31289 0.36932 0.0
H1169 H 0.684 0.39321 0.42275 0.0
H1170 H 0.66931 0.37135 0.51097 0.0
H1171 H 0.62102 0.3434 0.57155 0.0
H1172 H 0.52312 0.26687 0.51554 0.0
H1173 H 0.54698 0.27125 0.43018 0.0
C1174 C 0.60637 0.32416 0.39965 0.0
C1175 C 0.63633 0.35493 0.39021 0.0
C1176 C 0.59699 0.31232 0.45027 0.0
C1177 C 0.66046 0.36965 0.42961 0.0
C1178 C 0.65186 0.35737 0.48016 0.0
C1179 C 0.60545 0.32647 0.54122 0.0
C1180 C 0.57012 0.30628 0.54888 0.0
C1181 C 0.61888 0.33078 0.49123 0.0
C1182 C 0.55027 0.28339 0.51028 0.0
C1183 C 0.5638 0.28624 0.46102 0.0
H1184 H 0.19584 0.48883 0.86656 0.0
H1185 H 0.24617 0.57241 0.96897 0.0
H1186 H 0.25575 0.61217 0.89863 0.0
H1187 H 0.22529 0.61871 0.82462 0.0
H1188 H 0.15704 0.52978 0.73762 0.0
H1189 H 0.17674 0.49679 0.78349 0.0
C1190 C 0.21056 0.516 0.87243 0.0
C1191 C 0.216 0.52791 0.92311 0.0
C1192 C 0.20982 0.53748 0.83429 0.0
C1193 C 0.23871 0.56263 0.93034 0.0
C1194 C 0.24314 0.58535 0.89041 0.0
C1195 C 0.21516 0.59227 0.8153 0.0
C1196 C 0.18918 0.57676 0.77868 0.0
C1197 C 0.22459 0.5725 0.84474 0.0
C1198 C 0.17706 0.54264 0.76567 0.0
C1199 C 0.18831 0.52352 0.79198 0.0
H1200 H 0.43504 0.92428 1.10467 0.0
H1201 H 0.42133 0.98848 0.99671 0.0
H1202 H 0.44076 0.03269 1.0611 0.0
H1203 H 0.46282 0.05736 0.1519 0.0
H1204 H 0.48349 -0.00307 0.2576 0.0
H1205 H 0.45947 0.95038 0.19591 0.0
C1206 C 0.43618 0.94777 1.09387 0.0
C1207 C 0.42487 0.95017 1.04109 0.0
C1208 C 0.44917 0.97568 0.13345 0.0
C1209 C 0.42797 0.98278 1.03392 0.0
C1210 C 0.4399 0.00935 1.07213 0.0
C1211 C 0.46299 0.03445 0.1623 0.0
C1212 C 0.47589 0.03314 0.21406 0.0
C1213 C 0.4508 0.00684 1.12281 0.0
C1214 C 0.4745 0.00131 0.22134 0.0
C1215 C 0.46085 0.9738 0.18415 0.0
H1216 H 0.42211 0.41402 0.35944 0.0
H1217 H 0.51991 0.43793 0.41935 0.0
H1218 H 0.50563 0.45458 0.50111 0.0
H1219 H 0.46514 0.46387 0.5618 0.0
H1220 H 0.37047 0.44665 0.4985 0.0
H1221 H 0.38353 0.42743 0.41786 0.0
C1222 C 0.44103 0.42315 0.38963 0.0
C1223 C 0.47318 0.42353 0.37876 0.0
C1224 C 0.43296 0.43498 0.43885 0.0
C1225 C 0.49541 0.43638 0.42215 0.0
C1226 C 0.48698 0.44641 0.47063 0.0
C1227 C 0.44736 0.45708 0.53034 0.0
C1228 C 0.4162 0.45865 0.54028 0.0
C1229 C 0.45589 0.4463 0.48052 0.0
C1230 C 0.39448 0.44712 0.49616 0.0
C1231 C 0.40225 0.43574 0.44832 0.0
H1232 H 0.06231 0.49973 0.76957 0.0
H1233 H -0.00631 0.43294 0.6546 0.0
H1234 H 0.94835 0.4075 0.71912 0.0
H1235 H 0.92392 0.40099 0.81208 0.0
H1236 H -0.00804 0.46654 0.92855 0.0
H1237 H 0.03773 0.49262 0.86381 0.0
C1238 C 0.03763 0.47971 0.75728 0.0
C1239 C 0.03419 0.46959 0.70231 0.0
C1240 C 0.00956 0.46356 0.79749 0.0
C1241 C 8e-05 0.44265 0.69335 0.0
C1242 C 0.97296 0.42752 0.73175 0.0
C1243 C 0.94849 0.42114 0.82455 0.0
C1244 C 0.95168 0.43072 0.87956 0.0
C1245 C 0.97663 0.43715 0.78477 0.0
C1246 C 0.98583 0.45726 0.88945 0.0
C1247 C 0.01312 0.47273 0.85095 0.0
H1248 H 0.49142 0.92807 0.15454 0.0
H1249 H 0.57883 0.98162 0.25215 0.0
H1250 H 0.60712 0.02432 0.1842 0.0
H1251 H 0.60987 0.051 1.0934 0.0
H1252 H 0.52255 -0.00235 0.99563 0.0
H1253 H 0.49535 0.95348 1.06198 0.0
C1254 C 0.51651 0.94911 0.16262 0.0
C1255 C 0.53099 0.94943 0.21405 0.0
C1256 C 0.53414 0.97552 1.12059 0.0
C1257 C 0.56473 0.97825 0.21695 0.0
C1258 C 0.58166 0.00379 0.17651 0.0
C1259 C 0.58463 0.03012 1.08557 0.0
C1260 C 0.56971 0.03026 1.0348 0.0
C1261 C 0.56711 0.00356 0.12739 0.0
C1262 C 0.53643 0.00098 1.0311 0.0
C1263 C 0.51996 0.9749 1.07092 0.0
H1264 H 0.50929 0.51827 0.56244 0.0
H1265 H 0.60158 0.52802 0.50061 0.0
H1266 H 0.59029 0.54704 0.4179 0.0
H1267 H 0.5543 0.5624 0.3567 0.0
H1268 H 0.46057 0.55038 0.4171 0.0
H1269 H 0.47232 0.53232 0.5004 0.0
C1270 C 0.52713 0.52377 0.53122 0.0
C1271 C 0.55695 0.51983 0.54247 0.0
C1272 C 0.52003 0.5353 0.4803 0.0
C1273 C 0.57858 0.52947 0.49783 0.0
C1274 C 0.57186 0.54077 0.44864 0.0
C1275 C 0.53575 0.55581 0.38736 0.0
C1276 C 0.50543 0.55878 0.37549 0.0
C1277 C 0.54263 0.54405 0.43814 0.0
C1278 C 0.48368 0.54916 0.42006 0.0
C1279 C 0.49069 0.53843 0.46963 0.0
H1280 H 0.00715 0.52953 0.87041 0.0
H1281 H 0.04879 0.6368 0.85326 0.0
H1282 H 0.01512 0.62704 0.77445 0.0
H1283 H 0.97208 0.58781 0.70366 0.0
H1284 H 0.92941 0.4803 0.72442 0.0
H1285 H 0.96259 0.49071 0.80291 0.0
C1286 C 0.00975 0.55137 0.84984 0.0
C1287 C 0.03328 0.58485 0.87212 0.0
C1288 C 0.98875 0.5453 0.80195 0.0
C1289 C 0.03281 0.61085 0.84131 0.0
C1290 C 0.0128 0.60504 0.79435 0.0
C1291 C 0.96946 0.56601 0.7244 0.0
C1292 C 0.94582 0.53217 0.70266 0.0
C1293 C 0.99026 0.57231 0.77295 0.0
C1294 C 0.94569 0.50648 0.73515 0.0
C1295 C 0.96566 0.51257 0.78183 0.0
H1296 H 0.57536 0.07014 0.4092 0.0
H1297 H 0.48402 0.03057 0.49824 0.0
H1298 H 0.49241 0.98525 0.53036 0.0
H1299 H 0.49152 0.94463 0.47096 0.0
H1300 H 0.56056 0.97832 0.34165 0.0
H1301 H 0.59509 0.0327 0.38268 0.0
C1302 C 0.55779 0.05158 0.43604 0.0
C1303 C 0.5266 0.04954 0.44445 0.0
C1304 C 0.55827 0.02173 0.44325 0.0
C1305 C 0.50651 0.02991 0.48622 0.0
C1306 C 0.51139 0.0039 0.50431 0.0
C1307 C 0.51539 0.96319 0.45363 0.0
C1308 C 0.52379 0.95782 0.40403 0.0
C1309 C 0.53142 -0.00427 0.47301 0.0
C1310 C 0.55351 0.98235 0.37963 0.0
C1311 C 0.57321 0.01333 0.40324 0.0
H1312 H 0.4531 0.50486 0.81926 0.0
H1313 H 0.40654 0.41185 0.73383 0.0
H1314 H 0.43478 0.39059 0.78949 0.0
H1315 H 0.49771 0.42662 0.77097 0.0
H1316 H 0.55036 0.52811 0.82531 0.0
H1317 H 0.50124 0.51699 0.87688 0.0
C1318 C 0.44765 0.47911 0.81432 0.0
C1319 C 0.42981 0.46112 0.7704 0.0
C1320 C 0.46883 0.46946 0.8389 0.0
C1321 C 0.42156 0.42722 0.7657 0.0
C1322 C 0.43823 0.41532 0.7971 0.0
C1323 C 0.49786 0.44636 0.79276 0.0
C1324 C 0.52378 0.47984 0.78504 0.0
C1325 C 0.46838 0.44038 0.81893 0.0
C1326 C 0.52777 0.50342 0.82317 0.0
C1327 C 0.50007 0.49649 0.85446 0.0
H1328 H 0.92432 0.47984 0.99349 0.0
H1329 H 0.94173 0.46016 0.14966 0.0
H1330 H 0.9631 0.51896 0.17125 0.0
H1331 H 0.0048 0.56964 0.12846 0.0
H1332 H -0.00172 0.58263 0.96564 0.0
H1333 H 0.93994 0.53634 0.96544 0.0
C1334 C 0.93024 0.48794 1.03308 0.0
C1335 C 0.93195 0.46645 1.06959 0.0
C1336 C 0.94317 0.52168 1.04414 0.0
C1337 C 0.94096 0.47692 1.12065 0.0
C1338 C 0.95245 0.51036 0.13321 0.0
C1339 C 0.9895 0.56349 1.09374 0.0
C1340 C 0.00585 0.57538 1.04621 0.0
C1341 C 0.95875 0.53338 1.09291 0.0
C1342 C 0.98657 0.57045 1.00179 0.0
C1343 C 0.95319 0.54406 1.00198 0.0
H1344 H 0.05579 0.55813 0.54329 0.0
H1345 H 0.02334 0.48278 0.42549 0.0
H1346 H 0.99022 0.5051 0.38539 0.0
H1347 H 0.94727 0.51186 0.43163 0.0
H1348 H 0.97658 0.56949 0.57138 0.0
H1349 H 0.03519 0.59716 0.54568 0.0
C1350 C 0.04383 0.54858 0.5064 0.0
C1351 C 0.03953 0.51783 0.48964 0.0
C1352 C 0.02439 0.56108 0.48497 0.0
C1353 C 0.02428 0.50502 0.44169 0.0
C1354 C 0.00629 0.51854 0.41782 0.0
C1355 C 0.96678 0.53178 0.45482 0.0
C1356 C 0.95824 0.53758 0.50403 0.0
C1357 C 0.00065 0.54117 0.44637 0.0
C1358 C 0.98253 0.56451 0.53331 0.0
C1359 C 0.01639 0.57976 0.51874 0.0
H1360 H 0.48937 0.92647 0.88623 0.0
H1361 H 0.44993 0.962 0.76585 0.0
H1362 H 0.50673 -0.00421 0.7293 0.0
H1363 H 0.55685 0.03747 0.77545 0.0
H1364 H 0.57708 0.007 0.9224 0.0
H1365 H 0.54852 0.94925 0.89651 0.0
C1366 C 0.49294 0.93943 0.84957 0.0
C1367 C 0.46683 0.94394 0.83086 0.0
C1368 C 0.52576 0.9602 0.83154 0.0
C1369 C 0.47077 0.96046 0.78324 0.0
C1370 C 0.50318 0.97911 0.76168 0.0
C1371 C 0.55572 0.01778 0.80055 0.0
C1372 C 0.56836 0.02616 0.85072 0.0
C1373 C 0.53074 0.98426 0.79229 0.0
C1374 C 0.56853 0.0016 0.88309 0.0
C1375 C 0.55098 0.9681 0.86836 0.0
H1376 H 0.51699 0.55146 1.10257 0.0
H1377 H 0.41848 0.48153 0.1628 0.0
H1378 H 0.41451 0.43961 1.10257 0.0
H1379 H 0.45177 0.41676 1.10612 0.0
H1380 H 0.55722 0.48785 0.13499 0.0
H1381 H 0.55303 0.52921 1.07978 0.0
C1382 C 0.49521 0.52671 1.10446 0.0
C1383 C 0.4708 0.51801 0.14377 0.0
C1384 C 0.49778 0.50078 1.08208 0.0
C1385 C 0.43973 0.48795 0.13791 0.0
C1386 C 0.4376 0.46417 1.10248 0.0
C1387 C 0.47392 0.44179 1.10078 0.0
C1388 C 0.50322 0.45152 0.13051 0.0
C1389 C 0.46862 0.46782 1.0855 0.0
C1390 C 0.53313 0.48139 1.11751 0.0
C1391 C 0.53044 0.50464 1.0856 0.0
H1392 H 0.36332 0.97813 0.72192 0.0
H1393 H 0.33575 0.91942 0.5818 0.0
H1394 H 0.36806 0.97158 0.53136 0.0
H1395 H 0.39535 0.03237 0.52772 0.0
H1396 H 0.42637 0.09153 0.66732 0.0
H1397 H 0.40079 0.03909 0.71861 0.0
C1398 C 0.3653 0.97625 0.68052 0.0
C1399 C 0.34676 0.9448 0.65549 0.0
C1400 C 0.38384 0.00606 0.65215 0.0
C1401 C 0.34915 0.94334 0.60175 0.0
C1402 C 0.36765 0.97306 0.57307 0.0
C1403 C 0.39815 0.03432 0.56929 0.0
C1404 C 0.41304 0.06607 0.59373 0.0
C1405 C 0.38388 0.00447 0.59795 0.0
C1406 C 0.41476 0.06747 0.64772 0.0
C1407 C 0.40027 0.03757 0.67686 0.0
H1408 H 0.35687 0.27525 1.04172 0.0
H1409 H 0.4389 0.3025 0.933 0.0
H1410 H 0.40758 0.31441 0.86713 0.0
H1411 H 0.35894 0.32034 0.84325 0.0
H1412 H 0.28034 0.29987 0.95524 0.0
H1413 H 0.30843 0.28164 1.01799 0.0
C1414 C 0.36792 0.28387 1.00358 0.0
C1415 C 0.40015 0.28829 0.99204 0.0
C1416 C 0.35048 0.29177 0.96704 0.0
C1417 C 0.41397 0.2987 0.94238 0.0
C1418 C 0.39623 0.30571 0.90504 0.0
C1419 C 0.34797 0.31192 0.88149 0.0
C1420 C 0.31788 0.31166 0.89515 0.0
C1421 C 0.36479 0.30282 0.91739 0.0
C1422 C 0.3034 0.30002 0.94411 0.0
C1423 C 0.31954 0.28989 0.97986 0.0
H1424 H 0.94495 0.3463 0.20118 0.0
H1425 H 0.8918 0.3362 0.34475 0.0
H1426 H 0.94655 0.36365 0.38985 0.0
H1427 H 0.00783 0.38575 0.3875 0.0
H1428 H 0.06022 0.40347 0.24084 0.0
H1429 H 0.00585 0.37889 0.19647 0.0
C1430 C 0.94487 0.35138 0.24195 0.0
C1431 C 0.91408 0.33964 0.26938 0.0
C1432 C 0.97598 0.36856 0.2666 0.0
C1433 C 0.91503 0.34471 0.32281 0.0
C1434 C 0.94627 0.36067 0.34836 0.0
C1435 C 0.00793 0.38571 0.3457 0.0
C1436 C 0.03834 0.39615 0.31752 0.0
C1437 C 0.97678 0.37223 0.32049 0.0
C1438 C 0.03727 0.39492 0.26347 0.0
C1439 C 0.00624 0.38092 0.23816 0.0
H1440 H 0.62967 0.96786 0.70738 0.0
H1441 H 0.57839 0.00743 0.61473 0.0
H1442 H 0.54286 0.95161 0.57671 0.0
H1443 H 0.536 0.89673 0.55801 0.0
H1444 H 0.58678 0.85596 0.64804 0.0
H1445 H 0.61394 0.90792 0.69947 0.0
C1446 C 0.61031 0.96398 0.67942 0.0
C1447 C 0.60691 0.9915 0.66265 0.0
C1448 C 0.5907 0.93221 0.65713 0.0
C1449 C 0.58174 0.98655 0.62698 0.0
C1450 C 0.56143 0.95475 0.60566 0.0
C1451 C 0.55142 0.89833 0.59065 0.0
C1452 C 0.5592 0.87264 0.59955 0.0
C1453 C 0.56698 0.92805 0.61872 0.0
C1454 C 0.58036 0.87547 0.64078 0.0
C1455 C 0.59607 0.90523 0.66964 0.0
H1456 H 0.62981 0.69891 0.96554 0.0
H1457 H 0.5475 0.603 1.01924 0.0
H1458 H 0.57674 0.57413 0.98793 0.0
H1459 H 0.62663 0.57641 0.94742 0.0
H1460 H 0.70858 0.67169 0.89109 0.0
H1461 H 0.67928 0.70087 0.92236 0.0
C1462 C 0.61821 0.67166 0.96943 0.0
C1463 C 0.58661 0.65301 0.99425 0.0
C1464 C 0.63562 0.65535 0.95238 0.0
C1465 C 0.57172 0.61775 0.99976 0.0
C1466 C 0.58858 0.60129 0.98235 0.0
C1467 C 0.63843 0.60371 0.94349 0.0
C1468 C 0.6701 0.62219 0.91872 0.0
C1469 C 0.62088 0.61994 0.95969 0.0
C1470 C 0.68464 0.6573 0.9116 0.0
C1471 C 0.66768 0.67382 0.92871 0.0
H1472 H 0.08111 0.72134 0.20487 0.0
H1473 H 0.13055 0.6825 0.3029 0.0
H1474 H 0.07804 0.65016 0.35318 0.0
H1475 H 0.01629 0.6272 0.36116 0.0
H1476 H 0.96667 0.66451 0.26027 0.0
H1477 H 0.02107 0.70299 0.21852 0.0
C1478 C 0.08053 0.70628 0.2379 0.0
C1479 C 0.10937 0.70382 0.2498 0.0
C1480 C 0.0501 0.687 0.26525 0.0
C1481 C 0.10861 0.68476 0.2931 0.0
C1482 C 0.0785 0.66594 0.32135 0.0
C1483 C 0.01754 0.6441 0.33046 0.0
C1484 C 0.9876 0.64286 0.31329 0.0
C1485 C 0.04879 0.66588 0.30643 0.0
C1486 C 0.98938 0.6647 0.27343 0.0
C1487 C 0.02047 0.68689 0.24996 0.0
H1488 H 0.59106 0.11991 0.51973 0.0
H1489 H 0.49345 0.10894 0.55401 0.0
H1490 H 0.50332 0.10582 0.6461 0.0
H1491 H 0.53995 0.10662 0.72323 0.0
H1492 H 0.63659 0.11577 0.69135 0.0
H1493 H 0.62706 0.11881 0.59843 0.0
C1494 C 0.5715 0.11704 0.54656 0.0
C1495 C 0.54054 0.11515 0.5243 0.0
C1496 C 0.57754 0.11477 0.60328 0.0
C1497 C 0.51717 0.11074 0.56471 0.0
C1498 C 0.52313 0.10897 0.61952 0.0
C1499 C 0.55937 0.10927 0.69704 0.0
C1500 C 0.58971 0.1106 0.72006 0.0
C1501 C 0.55325 0.11099 0.64049 0.0
C1502 C 0.61293 0.114 0.67994 0.0
C1503 C 0.60732 0.11606 0.62479 0.0
H1504 H 0.45498 0.56594 0.85549 0.0
H1505 H 0.3604 0.47476 0.88922 0.0
H1506 H 0.37057 0.4864 0.98197 0.0
H1507 H 0.40626 0.52258 1.05885 0.0
H1508 H 0.50114 0.61314 1.02498 0.0
H1509 H 0.49116 0.60151 0.9323 0.0
C1510 C 0.43607 0.54823 0.88246 0.0
C1511 C 0.40598 0.51881 0.86091 0.0
C1512 C 0.44252 0.5551 0.93856 0.0
C1513 C 0.38346 0.49742 0.90052 0.0
C1514 C 0.38951 0.50428 0.95519 0.0
C1515 C 0.42521 0.54018 1.03183 0.0
C1516 C 0.45553 0.5694 1.05326 0.0
C1517 C 0.41893 0.53307 0.97571 0.0
C1518 C 0.47822 0.59044 1.01364 0.0
C1519 C 0.47213 0.58369 0.95903 0.0
H1520 H 0.85127 0.44962 0.18841 0.0
H1521 H 0.90707 0.39822 0.21855 0.0
H1522 H 0.91284 0.41494 0.30875 0.0
H1523 H 0.90444 0.44625 0.38456 0.0
H1524 H 0.84946 0.49852 0.35658 0.0
H1525 H 0.84321 0.48161 0.26553 0.0
C1526 C 0.86454 0.44138 0.21407 0.0
C1527 C 0.87737 0.42023 0.19185 0.0
C1528 C 0.86875 0.45238 0.2693 0.0
C1529 C 0.89505 0.41232 0.23012 0.0
C1530 C 0.89896 0.42273 0.28355 0.0
C1531 C 0.89002 0.45344 0.35981 0.0
C1532 C 0.87691 0.47401 0.38278 0.0
C1533 C 0.88595 0.44277 0.30475 0.0
C1534 C 0.8604 0.48339 0.34459 0.0
C1535 C 0.85647 0.47313 0.29077 0.0
H1536 H 0.43709 0.90952 0.52889 0.0
H1537 H 0.48274 0.84805 0.55532 0.0
H1538 H 0.46836 0.8443 0.64741 0.0
H1539 H 0.44144 0.85713 0.72584 0.0
H1540 H 0.39219 0.91527 0.69821 0.0
H1541 H 0.4083 0.92064 0.60679 0.0
C1542 C 0.44461 0.89548 0.55423 0.0
C1543 C 0.46402 0.88101 0.53122 0.0
C1544 C 0.4347 0.89224 0.60981 0.0
C1545 C 0.47055 0.86182 0.56842 0.0
C1546 C 0.46147 0.85909 0.62261 0.0
C1547 C 0.43382 0.87109 0.70054 0.0
C1548 C 0.41439 0.88551 0.72361 0.0
C1549 C 0.4435 0.87415 0.64489 0.0
C1550 C 0.40616 0.90317 0.68584 0.0
C1551 C 0.41585 0.90648 0.63182 0.0
H1552 H 0.52908 0.40693 0.85816 0.0
H1553 H 0.61914 0.50255 0.88821 0.0
H1554 H 0.61034 0.49057 0.98112 0.0
H1555 H 0.5776 0.45296 1.06011 0.0
H1556 H 0.48499 0.3594 1.03143 0.0
H1557 H 0.49431 0.37053 0.93805 0.0
C1558 C 0.54736 0.42557 0.88424 0.0
C1559 C 0.57602 0.45637 0.8609 0.0
C1560 C 0.5415 0.41856 0.9412 0.0
C1561 C 0.59736 0.47874 0.90019 0.0
C1562 C 0.5921 0.47167 0.95527 0.0
C1563 C 0.55905 0.43437 1.03424 0.0
C1564 C 0.53012 0.40409 1.05799 0.0
C1565 C 0.56437 0.4416 0.97744 0.0
C1566 C 0.50755 0.38243 1.01907 0.0
C1567 C 0.51308 0.38908 0.96374 0.0
H1568 H 0.10884 0.58177 0.39242 0.0
H1569 H 0.09557 0.48418 0.35516 0.0
H1570 H 0.09421 0.49655 0.26314 0.0
H1571 H 0.09766 0.53543 0.18825 0.0
H1572 H 0.10832 0.63198 0.22403 0.0
H1573 H 0.11009 0.61987 0.31657 0.0
C1574 C 0.10569 0.56276 0.36481 0.0
C1575 C 0.10258 0.53118 0.38526 0.0
C1576 C 0.1046 0.57024 0.30894 0.0
C1577 C 0.09823 0.50838 0.34485 0.0
C1578 C 0.09748 0.51573 0.29053 0.0
C1579 C 0.10026 0.55428 0.21534 0.0
C1580 C 0.10297 0.58552 0.19433 0.0
C1581 C 0.10076 0.54665 0.27112 0.0
C1582 C 0.10622 0.60803 0.23466 0.0
C1583 C 0.10721 0.60086 0.2892 0.0
loop_
_geom_bond_atom_site_label_1
_geom_bond_atom_site_label_2
_geom_bond_distance
_geom_bond_site_symmetry_2
_ccdc_geom_bond_type
Tb0 N29 2.617 . S
Tb0 N35 2.572 . S
Tb0 O44 2.465 . S
Tb0 O45 2.387 . S
Tb0 O47 2.428 . S
Tb0 O48 2.308 . S
Tb0 O52 2.349 . S
Tb0 O55 2.393 . S
Tb0 C64 2.802 . S
C1 N2 1.379 . S
C1 C4 1.416 . S
C1 C8 1.424 . S
N2 C1 1.379 . S
N2 C5 1.334 . S
N2 Tb11 2.617 . S
C3 C5 1.390 . S
C3 C6 1.339 . S
C3 H23 0.930 . S
C4 C1 1.416 . S
C4 C6 1.416 . S
C4 C10 1.448 . S
C5 N2 1.334 . S
C5 C3 1.390 . S
C5 H16 0.930 . S
C6 C3 1.339 . S
C6 C4 1.416 . S
C6 H27 0.930 . S
C7 C8 1.413 . S
C7 C9 1.427 . S
C7 C13 1.416 1_545 S
C8 C1 1.424 . S
C8 C7 1.413 . S
C8 N12 1.361 . S
C9 C7 1.427 . S
C9 C10 1.328 . S
C9 H24 0.929 . S
C10 C4 1.448 . S
C10 C9 1.328 . S
C10 H25 0.930 . S
Tb11 N2 2.617 . S
Tb11 N12 2.572 . S
Tb11 O46 2.349 . S
Tb11 O49 2.393 . S
Tb11 O50 2.465 . S
Tb11 O51 2.387 . S
Tb11 O53 2.428 . S
Tb11 O54 2.308 . S
Tb11 C75 2.802 . S
N12 C8 1.361 . S
N12 Tb11 2.572 . S
N12 C14 1.340 . S
C13 C7 1.416 1_565 S
C13 C15 1.332 . S
C13 H21 0.931 . S
C14 N12 1.340 . S
C14 C15 1.407 1_545 S
C14 H20 0.930 . S
C15 C13 1.332 . S
C15 C14 1.407 1_565 S
C15 H17 0.929 . S
H16 C5 0.930 . S
H17 C15 0.929 . S
H18 C33 0.930 . S
H19 C40 0.929 . S
H20 C14 0.930 . S
H21 C13 0.931 . S
H22 C36 0.930 . S
H23 C3 0.930 . S
H24 C9 0.929 . S
H25 C10 0.930 . S
H26 C31 0.930 . S
H27 C6 0.930 . S
H28 C39 0.931 . S
N29 Tb0 2.617 . S
N29 C30 1.379 . S
N29 C33 1.334 . S
C30 N29 1.379 . S
C30 C32 1.416 . S
C30 C38 1.424 . S
C31 H26 0.930 . S
C31 C33 1.390 . S
C31 C34 1.339 . S
C32 C30 1.416 . S
C32 C34 1.416 . S
C32 C65 1.448 . S
C33 H18 0.930 . S
C33 N29 1.334 . S
C33 C31 1.390 . S
C34 C31 1.339 . S
C34 C32 1.416 . S
C34 H41 0.930 . S
N35 Tb0 2.572 . S
N35 C36 1.340 . S
N35 C38 1.361 . S
C36 H22 0.930 . S
C36 N35 1.340 . S
C36 C40 1.407 . S
C37 C38 1.413 . S
C37 C39 1.416 . S
C37 C66 1.427 . S
C38 C30 1.424 . S
C38 N35 1.361 . S
C38 C37 1.413 . S
C39 H28 0.931 . S
C39 C37 1.416 . S
C39 C40 1.332 . S
C40 H19 0.929 . S
C40 C36 1.407 . S
C40 C39 1.332 . S
H41 C34 0.930 . S
H42 C65 0.930 . S
H43 C66 0.929 . S
O44 Tb0 2.465 . S
O44 C64 1.264 . S
O45 Tb0 2.387 . S
O45 C56 1.264 . S
O46 Tb11 2.349 . S
O46 C56 1.243 . S
O47 Tb0 2.428 . S
O47 C64 1.256 . S
O48 Tb0 2.308 . S
O48 C63 1.266 . S
O49 Tb11 2.393 . S
O49 C63 1.248 . S
O50 Tb11 2.465 . S
O50 C75 1.264 . S
O51 Tb11 2.387 . S
O51 C67 1.264 . S
O52 Tb0 2.349 . S
O52 C67 1.243 . S
O53 Tb11 2.428 . S
O53 C75 1.256 . S
O54 Tb11 2.308 . S
O54 C74 1.266 . S
O55 Tb0 2.393 . S
O55 C74 1.248 . S
C56 O45 1.264 . S
C56 O46 1.243 . S
C57 C60 1.399 . S
C57 C62 1.383 . S
C57 C64 1.496 . S
C58 C59 1.399 . S
C58 C62 1.389 . S
C59 C58 1.399 . S
C59 C61 1.380 . S
C59 H76 0.929 1_554 S
C60 C57 1.399 . S
C60 C61 1.392 . S
C60 H77 0.929 . S
C61 C59 1.380 . S
C61 C60 1.392 . S
C61 H78 0.929 . S
C62 C57 1.383 . S
C62 C58 1.389 . S
C62 H79 0.931 . S
C63 O48 1.266 . S
C63 O49 1.248 . S
C64 Tb0 2.802 . S
C64 O44 1.264 . S
C64 O47 1.256 . S
C64 C57 1.496 . S
C65 C32 1.448 . S
C65 H42 0.930 . S
C65 C66 1.328 . S
C66 C37 1.427 . S
C66 H43 0.929 . S
C66 C65 1.328 . S
C67 O51 1.264 . S
C67 O52 1.243 . S
C68 C71 1.399 . S
C68 C72 1.383 . S
C68 C75 1.496 . S
C69 C70 1.399 . S
C69 C72 1.389 . S
C70 C69 1.399 . S
C70 C73 1.380 . S
C70 H80 0.929 . S
C71 C68 1.399 . S
C71 C73 1.392 . S
C71 H81 0.929 . S
C72 C68 1.383 . S
C72 C69 1.389 . S
C72 H82 0.931 . S
C73 C70 1.380 . S
C73 C71 1.392 . S
C73 H83 0.929 . S
C74 O54 1.266 . S
C74 O55 1.248 . S
C75 Tb11 2.802 . S
C75 O50 1.264 . S
C75 O53 1.256 . S
C75 C68 1.496 . S
H76 C59 0.929 1_556 S
H77 C60 0.929 . S
H78 C61 0.929 . S
H79 C62 0.931 . S
H80 C70 0.929 . S
H81 C71 0.929 . S
H82 C72 0.931 . S
H83 C73 0.929 . S
Tb84 N113 2.617 . S
Tb84 N119 2.572 . S
Tb84 O128 2.465 . S
Tb84 O129 2.387 . S
Tb84 O131 2.428 . S
Tb84 O132 2.308 . S
Tb84 O136 2.349 . S
Tb84 O139 2.393 . S
Tb84 C148 2.802 . S
C85 N86 1.379 . S
C85 C88 1.416 . S
C85 C92 1.424 . S
N86 C85 1.379 . S
N86 C89 1.334 . S
N86 Tb95 2.617 . S
C87 C89 1.390 . S
C87 C90 1.339 . S
C87 H107 0.930 . S
C88 C85 1.416 . S
C88 C90 1.416 . S
C88 C94 1.448 . S
C89 N86 1.334 . S
C89 C87 1.390 . S
C89 H100 0.930 . S
C90 C87 1.339 . S
C90 C88 1.416 . S
C90 H111 0.930 . S
C91 C92 1.413 . S
C91 C93 1.427 . S
C91 C97 1.416 . S
C92 C85 1.424 . S
C92 C91 1.413 . S
C92 N96 1.361 . S
C93 C91 1.427 . S
C93 C94 1.328 . S
C93 H108 0.929 . S
C94 C88 1.448 . S
C94 C93 1.328 . S
C94 H109 0.930 . S
Tb95 N86 2.617 . S
Tb95 N96 2.572 . S
Tb95 O130 2.349 . S
Tb95 O133 2.393 . S
Tb95 O134 2.465 . S
Tb95 O135 2.387 . S
Tb95 O137 2.428 . S
Tb95 O138 2.308 . S
Tb95 C159 2.802 . S
N96 C92 1.361 . S
N96 Tb95 2.572 . S
N96 C98 1.340 . S
C97 C91 1.416 . S
C97 C99 1.332 . S
C97 H105 0.931 . S
C98 N96 1.340 . S
C98 C99 1.407 . S
C98 H104 0.930 . S
C99 C97 1.332 . S
C99 C98 1.407 . S
C99 H101 0.929 . S
H100 C89 0.930 . S
H101 C99 0.929 . S
H102 C117 0.930 . S
H103 C124 0.929 . S
H104 C98 0.930 . S
H105 C97 0.931 . S
H106 C120 0.930 . S
H107 C87 0.930 . S
H108 C93 0.929 . S
H109 C94 0.930 . S
H110 C115 0.930 . S
H111 C90 0.930 . S
H112 C123 0.931 . S
N113 Tb84 2.617 . S
N113 C114 1.379 . S
N113 C117 1.334 . S
C114 N113 1.379 . S
C114 C116 1.416 . S
C114 C122 1.424 . S
C115 H110 0.930 . S
C115 C117 1.390 . S
C115 C118 1.339 . S
C116 C114 1.416 . S
C116 C118 1.416 . S
C116 C149 1.448 . S
C117 H102 0.930 . S
C117 N113 1.334 . S
C117 C115 1.390 . S
C118 C115 1.339 . S
C118 C116 1.416 . S
C118 H125 0.930 . S
N119 Tb84 2.572 . S
N119 C120 1.340 . S
N119 C122 1.361 . S
C120 H106 0.930 . S
C120 N119 1.340 . S
C120 C124 1.407 . S
C121 C122 1.413 . S
C121 C123 1.416 . S
C121 C150 1.427 . S
C122 C114 1.424 . S
C122 N119 1.361 . S
C122 C121 1.413 . S
C123 H112 0.931 . S
C123 C121 1.416 . S
C123 C124 1.332 . S
C124 H103 0.929 . S
C124 C120 1.407 . S
C124 C123 1.332 . S
H125 C118 0.930 . S
H126 C149 0.930 . S
H127 C150 0.929 . S
O128 Tb84 2.465 . S
O128 C148 1.264 . S
O129 Tb84 2.387 . S
O129 C140 1.264 . S
O130 Tb95 2.349 . S
O130 C140 1.243 . S
O131 Tb84 2.428 . S
O131 C148 1.256 . S
O132 Tb84 2.308 . S
O132 C147 1.266 . S
O133 Tb95 2.393 . S
O133 C147 1.248 . S
O134 Tb95 2.465 . S
O134 C159 1.264 . S
O135 Tb95 2.387 . S
O135 C151 1.264 . S
O136 Tb84 2.349 . S
O136 C151 1.243 . S
O137 Tb95 2.428 . S
O137 C159 1.256 . S
O138 Tb95 2.308 . S
O138 C158 1.266 . S
O139 Tb84 2.393 . S
O139 C158 1.248 . S
C140 O129 1.264 . S
C140 O130 1.243 . S
C141 C144 1.399 . S
C141 C146 1.383 . S
C141 C148 1.496 . S
C142 C143 1.399 . S
C142 C146 1.389 . S
C143 C142 1.399 . S
C143 C145 1.380 . S
C143 H160 0.929 . S
C144 C141 1.399 . S
C144 C145 1.392 . S
C144 H161 0.929 . S
C145 C143 1.380 . S
C145 C144 1.392 . S
C145 H162 0.929 . S
C146 C141 1.383 . S
C146 C142 1.389 . S
C146 H163 0.931 . S
C147 O132 1.266 . S
C147 O133 1.248 . S
C148 Tb84 2.802 . S
C148 O128 1.264 . S
C148 O131 1.256 . S
C148 C141 1.496 . S
C149 C116 1.448 . S
C149 H126 0.930 . S
C149 C150 1.328 . S
C150 C121 1.427 . S
C150 H127 0.929 . S
C150 C149 1.328 . S
C151 O135 1.264 . S
C151 O136 1.243 . S
C152 C155 1.399 . S
C152 C156 1.383 . S
C152 C159 1.496 . S
C153 C154 1.399 . S
C153 C156 1.389 . S
C154 C153 1.399 . S
C154 C157 1.380 . S
C154 H164 0.929 . S
C155 C152 1.399 . S
C155 C157 1.392 . S
C155 H165 0.929 . S
C156 C152 1.383 . S
C156 C153 1.389 . S
C156 H166 0.931 . S
C157 C154 1.380 . S
C157 C155 1.392 . S
C157 H167 0.929 . S
C158 O138 1.266 . S
C158 O139 1.248 . S
C159 Tb95 2.802 . S
C159 O134 1.264 . S
C159 O137 1.256 . S
C159 C152 1.496 . S
H160 C143 0.929 . S
H161 C144 0.929 . S
H162 C145 0.929 . S
H163 C146 0.931 . S
H164 C154 0.929 . S
H165 C155 0.929 . S
H166 C156 0.931 . S
H167 C157 0.929 . S
Tb168 N197 2.617 . S
Tb168 N203 2.572 . S
Tb168 O212 2.465 . S
Tb168 O213 2.387 . S
Tb168 O215 2.428 . S
Tb168 O216 2.308 . S
Tb168 O220 2.349 . S
Tb168 O223 2.393 . S
Tb168 C232 2.802 . S
C169 N170 1.379 . S
C169 C172 1.416 . S
C169 C176 1.424 . S
N170 C169 1.379 . S
N170 C173 1.334 . S
N170 Tb179 2.617 . S
C171 C173 1.390 . S
C171 C174 1.339 . S
C171 H191 0.930 . S
C172 C169 1.416 . S
C172 C174 1.416 . S
C172 C178 1.448 . S
C173 N170 1.334 . S
C173 C171 1.390 . S
C173 H184 0.930 . S
C174 C171 1.339 . S
C174 C172 1.416 . S
C174 H195 0.930 . S
C175 C176 1.413 . S
C175 C177 1.427 . S
C175 C181 1.416 1_655 S
C176 C169 1.424 . S
C176 C175 1.413 . S
C176 N180 1.361 . S
C177 C175 1.427 . S
C177 C178 1.328 . S
C177 H192 0.929 . S
C178 C172 1.448 . S
C178 C177 1.328 . S
C178 H193 0.930 . S
Tb179 N170 2.617 . S
Tb179 N180 2.572 . S
Tb179 O214 2.349 . S
Tb179 O217 2.393 . S
Tb179 O218 2.465 1_556 S
Tb179 O219 2.387 . S
Tb179 O221 2.428 1_556 S
Tb179 O222 2.308 . S
Tb179 C243 2.802 1_556 S
N180 C176 1.361 . S
N180 Tb179 2.572 . S
N180 C182 1.340 . S
C181 C175 1.416 1_455 S
C181 C183 1.332 . S
C181 H189 0.931 . S
C182 N180 1.340 . S
C182 C183 1.407 1_655 S
C182 H188 0.930 . S
C183 C181 1.332 . S
C183 C182 1.407 1_455 S
C183 H185 0.929 . S
H184 C173 0.930 . S
H185 C183 0.929 . S
H186 C201 0.930 . S
H187 C208 0.929 . S
H188 C182 0.930 . S
H189 C181 0.931 . S
H190 C204 0.930 . S
H191 C171 0.930 . S
H192 C177 0.929 . S
H193 C178 0.930 . S
H194 C199 0.930 . S
H195 C174 0.930 . S
H196 C207 0.931 . S
N197 Tb168 2.617 . S
N197 C198 1.379 . S
N197 C201 1.334 . S
C198 N197 1.379 . S
C198 C200 1.416 . S
C198 C206 1.424 . S
C199 H194 0.930 . S
C199 C201 1.390 . S
C199 C202 1.339 . S
C200 C198 1.416 . S
C200 C202 1.416 . S
C200 C233 1.448 . S
C201 H186 0.930 . S
C201 N197 1.334 . S
C201 C199 1.390 . S
C202 C199 1.339 . S
C202 C200 1.416 . S
C202 H209 0.930 . S
N203 Tb168 2.572 . S
N203 C204 1.340 . S
N203 C206 1.361 . S
C204 H190 0.930 . S
C204 N203 1.340 . S
C204 C208 1.407 . S
C205 C206 1.413 . S
C205 C207 1.416 . S
C205 C234 1.427 . S
C206 C198 1.424 . S
C206 N203 1.361 . S
C206 C205 1.413 . S
C207 H196 0.931 . S
C207 C205 1.416 . S
C207 C208 1.332 . S
C208 H187 0.929 . S
C208 C204 1.407 . S
C208 C207 1.332 . S
H209 C202 0.930 . S
H210 C233 0.930 . S
H211 C234 0.929 . S
O212 Tb168 2.465 . S
O212 C232 1.264 . S
O213 Tb168 2.387 . S
O213 C224 1.264 . S
O214 Tb179 2.349 . S
O214 C224 1.243 . S
O215 Tb168 2.428 . S
O215 C232 1.256 . S
O216 Tb168 2.308 . S
O216 C231 1.266 . S
O217 Tb179 2.393 . S
O217 C231 1.248 . S
O218 Tb179 2.465 1_554 S
O218 C243 1.264 . S
O219 Tb179 2.387 . S
O219 C235 1.264 . S
O220 Tb168 2.349 . S
O220 C235 1.243 . S
O221 Tb179 2.428 1_554 S
O221 C243 1.256 . S
O222 Tb179 2.308 . S
O222 C242 1.266 . S
O223 Tb168 2.393 . S
O223 C242 1.248 . S
C224 O213 1.264 . S
C224 O214 1.243 . S
C225 C228 1.399 . S
C225 C230 1.383 . S
C225 C232 1.496 . S
C226 C227 1.399 . S
C226 C230 1.389 . S
C227 C226 1.399 . S
C227 C229 1.380 . S
C227 H244 0.929 . S
C228 C225 1.399 . S
C228 C229 1.392 . S
C228 H245 0.929 . S
C229 C227 1.380 . S
C229 C228 1.392 . S
C229 H246 0.929 . S
C230 C225 1.383 . S
C230 C226 1.389 . S
C230 H247 0.931 . S
C231 O216 1.266 . S
C231 O217 1.248 . S
C232 Tb168 2.802 . S
C232 O212 1.264 . S
C232 O215 1.256 . S
C232 C225 1.496 . S
C233 C200 1.448 . S
C233 H210 0.930 . S
C233 C234 1.328 . S
C234 C205 1.427 . S
C234 H211 0.929 . S
C234 C233 1.328 . S
C235 O219 1.264 . S
C235 O220 1.243 . S
C236 C239 1.399 . S
C236 C240 1.383 . S
C236 C243 1.496 . S
C237 C238 1.399 . S
C237 C240 1.389 . S
C238 C237 1.399 . S
C238 C241 1.380 . S
C238 H248 0.929 . S
C239 C236 1.399 . S
C239 C241 1.392 . S
C239 H249 0.929 . S
C240 C236 1.383 . S
C240 C237 1.389 . S
C240 H250 0.931 . S
C241 C238 1.380 . S
C241 C239 1.392 . S
C241 H251 0.929 . S
C242 O222 1.266 . S
C242 O223 1.248 . S
C243 Tb179 2.802 1_554 S
C243 O218 1.264 . S
C243 O221 1.256 . S
C243 C236 1.496 . S
H244 C227 0.929 . S
H245 C228 0.929 . S
H246 C229 0.929 . S
H247 C230 0.931 . S
H248 C238 0.929 . S
H249 C239 0.929 . S
H250 C240 0.931 . S
H251 C241 0.929 . S
Tb252 N281 2.617 . S
Tb252 N287 2.572 . S
Tb252 O296 2.465 . S
Tb252 O297 2.387 . S
Tb252 O299 2.428 . S
Tb252 O300 2.308 . S
Tb252 O304 2.349 . S
Tb252 O307 2.393 . S
Tb252 C316 2.802 . S
C253 N254 1.379 . S
C253 C256 1.416 . S
C253 C260 1.424 . S
N254 C253 1.379 . S
N254 C257 1.334 . S
N254 Tb263 2.617 . S
C255 C257 1.390 . S
C255 C258 1.339 . S
C255 H275 0.930 . S
C256 C253 1.416 . S
C256 C258 1.416 . S
C256 C262 1.448 . S
C257 N254 1.334 . S
C257 C255 1.390 . S
C257 H268 0.930 . S
C258 C255 1.339 . S
C258 C256 1.416 . S
C258 H279 0.930 . S
C259 C260 1.413 . S
C259 C261 1.427 . S
C259 C265 1.416 1_565 S
C260 C253 1.424 . S
C260 C259 1.413 . S
C260 N264 1.361 . S
C261 C259 1.427 . S
C261 C262 1.328 . S
C261 H276 0.929 . S
C262 C256 1.448 . S
C262 C261 1.328 . S
C262 H277 0.930 . S
Tb263 N254 2.617 . S
Tb263 N264 2.572 . S
Tb263 O298 2.349 . S
Tb263 O301 2.393 . S
Tb263 O302 2.465 . S
Tb263 O303 2.387 . S
Tb263 O305 2.428 . S
Tb263 O306 2.308 . S
Tb263 C327 2.802 . S
N264 C260 1.361 . S
N264 Tb263 2.572 . S
N264 C266 1.340 . S
C265 C259 1.416 1_545 S
C265 C267 1.332 . S
C265 H273 0.931 . S
C266 N264 1.340 . S
C266 C267 1.407 1_565 S
C266 H272 0.930 . S
C267 C265 1.332 . S
C267 C266 1.407 1_545 S
C267 H269 0.929 . S
H268 C257 0.930 . S
H269 C267 0.929 . S
H270 C285 0.930 . S
H271 C292 0.929 . S
H272 C266 0.930 . S
H273 C265 0.931 . S
H274 C288 0.930 . S
H275 C255 0.930 . S
H276 C261 0.929 . S
H277 C262 0.930 . S
H278 C283 0.930 . S
H279 C258 0.930 . S
H280 C291 0.931 . S
N281 Tb252 2.617 . S
N281 C282 1.379 . S
N281 C285 1.334 . S
C282 N281 1.379 . S
C282 C284 1.416 . S
C282 C290 1.424 . S
C283 H278 0.930 . S
C283 C285 1.390 . S
C283 C286 1.339 . S
C284 C282 1.416 . S
C284 C286 1.416 . S
C284 C317 1.448 . S
C285 H270 0.930 . S
C285 N281 1.334 . S
C285 C283 1.390 . S
C286 C283 1.339 . S
C286 C284 1.416 . S
C286 H293 0.930 . S
N287 Tb252 2.572 . S
N287 C288 1.340 . S
N287 C290 1.361 . S
C288 H274 0.930 . S
C288 N287 1.340 . S
C288 C292 1.407 . S
C289 C290 1.413 . S
C289 C291 1.416 . S
C289 C318 1.427 . S
C290 C282 1.424 . S
C290 N287 1.361 . S
C290 C289 1.413 . S
C291 H280 0.931 . S
C291 C289 1.416 . S
C291 C292 1.332 . S
C292 H271 0.929 . S
C292 C288 1.407 . S
C292 C291 1.332 . S
H293 C286 0.930 . S
H294 C317 0.930 . S
H295 C318 0.929 . S
O296 Tb252 2.465 . S
O296 C316 1.264 . S
O297 Tb252 2.387 . S
O297 C308 1.264 . S
O298 Tb263 2.349 . S
O298 C308 1.243 . S
O299 Tb252 2.428 . S
O299 C316 1.256 . S
O300 Tb252 2.308 . S
O300 C315 1.266 . S
O301 Tb263 2.393 . S
O301 C315 1.248 . S
O302 Tb263 2.465 . S
O302 C327 1.264 . S
O303 Tb263 2.387 . S
O303 C319 1.264 . S
O304 Tb252 2.349 . S
O304 C319 1.243 . S
O305 Tb263 2.428 . S
O305 C327 1.256 . S
O306 Tb263 2.308 . S
O306 C326 1.266 . S
O307 Tb252 2.393 . S
O307 C326 1.248 . S
C308 O297 1.264 . S
C308 O298 1.243 . S
C309 C312 1.399 . S
C309 C314 1.383 . S
C309 C316 1.496 . S
C310 C311 1.399 . S
C310 C314 1.389 . S
C311 C310 1.399 . S
C311 C313 1.380 . S
C311 H328 0.929 1_554 S
C312 C309 1.399 . S
C312 C313 1.392 . S
C312 H329 0.929 . S
C313 C311 1.380 . S
C313 C312 1.392 . S
C313 H330 0.929 . S
C314 C309 1.383 . S
C314 C310 1.389 . S
C314 H331 0.931 . S
C315 O300 1.266 . S
C315 O301 1.248 . S
C316 Tb252 2.802 . S
C316 O296 1.264 . S
C316 O299 1.256 . S
C316 C309 1.496 . S
C317 C284 1.448 . S
C317 H294 0.930 . S
C317 C318 1.328 . S
C318 C289 1.427 . S
C318 H295 0.929 . S
C318 C317 1.328 . S
C319 O303 1.264 . S
C319 O304 1.243 . S
C320 C323 1.399 . S
C320 C324 1.383 . S
C320 C327 1.496 . S
C321 C322 1.399 . S
C321 C324 1.389 . S
C322 C321 1.399 . S
C322 C325 1.380 . S
C322 H332 0.929 . S
C323 C320 1.399 . S
C323 C325 1.392 . S
C323 H333 0.929 . S
C324 C320 1.383 . S
C324 C321 1.389 . S
C324 H334 0.931 . S
C325 C322 1.380 . S
C325 C323 1.392 . S
C325 H335 0.929 . S
C326 O306 1.266 . S
C326 O307 1.248 . S
C327 Tb263 2.802 . S
C327 O302 1.264 . S
C327 O305 1.256 . S
C327 C320 1.496 . S
H328 C311 0.929 1_556 S
H329 C312 0.929 . S
H330 C313 0.929 . S
H331 C314 0.931 . S
H332 C322 0.929 . S
H333 C323 0.929 . S
H334 C324 0.931 . S
H335 C325 0.929 . S
Tb336 N365 2.617 . S
Tb336 N371 2.572 . S
Tb336 O380 2.465 . S
Tb336 O381 2.387 . S
Tb336 O383 2.428 . S
Tb336 O384 2.308 . S
Tb336 O388 2.349 . S
Tb336 O391 2.393 . S
Tb336 C400 2.802 . S
C337 N338 1.379 . S
C337 C340 1.416 . S
C337 C344 1.424 . S
N338 C337 1.379 . S
N338 C341 1.334 . S
N338 Tb347 2.617 . S
C339 C341 1.390 . S
C339 C342 1.339 . S
C339 H359 0.930 . S
C340 C337 1.416 . S
C340 C342 1.416 . S
C340 C346 1.448 . S
C341 N338 1.334 . S
C341 C339 1.390 . S
C341 H352 0.930 . S
C342 C339 1.339 . S
C342 C340 1.416 . S
C342 H363 0.930 . S
C343 C344 1.413 . S
C343 C345 1.427 . S
C343 C349 1.416 . S
C344 C337 1.424 . S
C344 C343 1.413 . S
C344 N348 1.361 . S
C345 C343 1.427 . S
C345 C346 1.328 . S
C345 H360 0.929 . S
C346 C340 1.448 . S
C346 C345 1.328 . S
C346 H361 0.930 . S
Tb347 N338 2.617 . S
Tb347 N348 2.572 . S
Tb347 O382 2.349 . S
Tb347 O385 2.393 . S
Tb347 O386 2.465 . S
Tb347 O387 2.387 . S
Tb347 O389 2.428 . S
Tb347 O390 2.308 . S
Tb347 C411 2.802 . S
N348 C344 1.361 . S
N348 Tb347 2.572 . S
N348 C350 1.340 . S
C349 C343 1.416 . S
C349 C351 1.332 . S
C349 H357 0.931 . S
C350 N348 1.340 . S
C350 C351 1.407 . S
C350 H356 0.930 . S
C351 C349 1.332 . S
C351 C350 1.407 . S
C351 H353 0.929 . S
H352 C341 0.930 . S
H353 C351 0.929 . S
H354 C369 0.930 . S
H355 C376 0.929 . S
H356 C350 0.930 . S
H357 C349 0.931 . S
H358 C372 0.930 . S
H359 C339 0.930 . S
H360 C345 0.929 . S
H361 C346 0.930 . S
H362 C367 0.930 . S
H363 C342 0.930 . S
H364 C375 0.931 . S
N365 Tb336 2.617 . S
N365 C366 1.379 . S
N365 C369 1.334 . S
C366 N365 1.379 . S
C366 C368 1.416 . S
C366 C374 1.424 . S
C367 H362 0.930 . S
C367 C369 1.390 . S
C367 C370 1.339 . S
C368 C366 1.416 . S
C368 C370 1.416 . S
C368 C401 1.448 . S
C369 H354 0.930 . S
C369 N365 1.334 . S
C369 C367 1.390 . S
C370 C367 1.339 . S
C370 C368 1.416 . S
C370 H377 0.930 . S
N371 Tb336 2.572 . S
N371 C372 1.340 . S
N371 C374 1.361 . S
C372 H358 0.930 . S
C372 N371 1.340 . S
C372 C376 1.407 . S
C373 C374 1.413 . S
C373 C375 1.416 . S
C373 C402 1.427 . S
C374 C366 1.424 . S
C374 N371 1.361 . S
C374 C373 1.413 . S
C375 H364 0.931 . S
C375 C373 1.416 . S
C375 C376 1.332 . S
C376 H355 0.929 . S
C376 C372 1.407 . S
C376 C375 1.332 . S
H377 C370 0.930 . S
H378 C401 0.930 . S
H379 C402 0.929 . S
O380 Tb336 2.465 . S
O380 C400 1.264 . S
O381 Tb336 2.387 . S
O381 C392 1.264 . S
O382 Tb347 2.349 . S
O382 C392 1.243 . S
O383 Tb336 2.428 . S
O383 C400 1.256 . S
O384 Tb336 2.308 . S
O384 C399 1.266 . S
O385 Tb347 2.393 . S
O385 C399 1.248 . S
O386 Tb347 2.465 . S
O386 C411 1.264 . S
O387 Tb347 2.387 . S
O387 C403 1.264 . S
O388 Tb336 2.349 . S
O388 C403 1.243 . S
O389 Tb347 2.428 . S
O389 C411 1.256 . S
O390 Tb347 2.308 . S
O390 C410 1.266 . S
O391 Tb336 2.393 . S
O391 C410 1.248 . S
C392 O381 1.264 . S
C392 O382 1.243 . S
C393 C396 1.399 . S
C393 C398 1.383 . S
C393 C400 1.496 . S
C394 C395 1.399 . S
C394 C398 1.389 . S
C395 C394 1.399 . S
C395 C397 1.380 . S
C395 H412 0.929 . S
C396 C393 1.399 . S
C396 C397 1.392 . S
C396 H413 0.929 . S
C397 C395 1.380 . S
C397 C396 1.392 . S
C397 H414 0.929 . S
C398 C393 1.383 . S
C398 C394 1.389 . S
C398 H415 0.931 . S
C399 O384 1.266 . S
C399 O385 1.248 . S
C400 Tb336 2.802 . S
C400 O380 1.264 . S
C400 O383 1.256 . S
C400 C393 1.496 . S
C401 C368 1.448 . S
C401 H378 0.930 . S
C401 C402 1.328 . S
C402 C373 1.427 . S
C402 H379 0.929 . S
C402 C401 1.328 . S
C403 O387 1.264 . S
C403 O388 1.243 . S
C404 C407 1.399 . S
C404 C408 1.383 . S
C404 C411 1.496 . S
C405 C406 1.399 . S
C405 C408 1.389 . S
C406 C405 1.399 . S
C406 C409 1.380 . S
C406 H416 0.929 . S
C407 C404 1.399 . S
C407 C409 1.392 . S
C407 H417 0.929 . S
C408 C404 1.383 . S
C408 C405 1.389 . S
C408 H418 0.931 . S
C409 C406 1.380 . S
C409 C407 1.392 . S
C409 H419 0.929 . S
C410 O390 1.266 . S
C410 O391 1.248 . S
C411 Tb347 2.802 . S
C411 O386 1.264 . S
C411 O389 1.256 . S
C411 C404 1.496 . S
H412 C395 0.929 . S
H413 C396 0.929 . S
H414 C397 0.929 . S
H415 C398 0.931 . S
H416 C406 0.929 . S
H417 C407 0.929 . S
H418 C408 0.931 . S
H419 C409 0.929 . S
Tb420 N449 2.617 . S
Tb420 N455 2.572 . S
Tb420 O464 2.465 . S
Tb420 O465 2.387 . S
Tb420 O467 2.428 . S
Tb420 O468 2.308 . S
Tb420 O472 2.349 . S
Tb420 O475 2.393 . S
Tb420 C484 2.802 . S
C421 N422 1.379 . S
C421 C424 1.416 . S
C421 C428 1.424 . S
N422 C421 1.379 . S
N422 C425 1.334 . S
N422 Tb431 2.617 . S
C423 C425 1.390 . S
C423 C426 1.339 . S
C423 H443 0.930 . S
C424 C421 1.416 . S
C424 C426 1.416 . S
C424 C430 1.448 . S
C425 N422 1.334 . S
C425 C423 1.390 . S
C425 H436 0.930 . S
C426 C423 1.339 . S
C426 C424 1.416 . S
C426 H447 0.930 . S
C427 C428 1.413 . S
C427 C429 1.427 . S
C427 C433 1.416 1_455 S
C428 C421 1.424 . S
C428 C427 1.413 . S
C428 N432 1.361 . S
C429 C427 1.427 . S
C429 C430 1.328 . S
C429 H444 0.929 . S
C430 C424 1.448 . S
C430 C429 1.328 . S
C430 H445 0.930 . S
Tb431 N422 2.617 . S
Tb431 N432 2.572 . S
Tb431 O466 2.349 . S
Tb431 O469 2.393 . S
Tb431 O470 2.465 1_556 S
Tb431 O471 2.387 . S
Tb431 O473 2.428 1_556 S
Tb431 O474 2.308 . S
Tb431 C495 2.802 1_556 S
N432 C428 1.361 . S
N432 Tb431 2.572 . S
N432 C434 1.340 . S
C433 C427 1.416 1_655 S
C433 C435 1.332 . S
C433 H441 0.931 . S
C434 N432 1.340 . S
C434 C435 1.407 1_455 S
C434 H440 0.930 . S
C435 C433 1.332 . S
C435 C434 1.407 1_655 S
C435 H437 0.929 . S
H436 C425 0.930 . S
H437 C435 0.929 . S
H438 C453 0.930 . S
H439 C460 0.929 . S
H440 C434 0.930 . S
H441 C433 0.931 . S
H442 C456 0.930 . S
H443 C423 0.930 . S
H444 C429 0.929 . S
H445 C430 0.930 . S
H446 C451 0.930 . S
H447 C426 0.930 . S
H448 C459 0.931 . S
N449 Tb420 2.617 . S
N449 C450 1.379 . S
N449 C453 1.334 . S
C450 N449 1.379 . S
C450 C452 1.416 . S
C450 C458 1.424 . S
C451 H446 0.930 . S
C451 C453 1.390 . S
C451 C454 1.339 . S
C452 C450 1.416 . S
C452 C454 1.416 . S
C452 C485 1.448 . S
C453 H438 0.930 . S
C453 N449 1.334 . S
C453 C451 1.390 . S
C454 C451 1.339 . S
C454 C452 1.416 . S
C454 H461 0.930 . S
N455 Tb420 2.572 . S
N455 C456 1.340 . S
N455 C458 1.361 . S
C456 H442 0.930 . S
C456 N455 1.340 . S
C456 C460 1.407 . S
C457 C458 1.413 . S
C457 C459 1.416 . S
C457 C486 1.427 . S
C458 C450 1.424 . S
C458 N455 1.361 . S
C458 C457 1.413 . S
C459 H448 0.931 . S
C459 C457 1.416 . S
C459 C460 1.332 . S
C460 H439 0.929 . S
C460 C456 1.407 . S
C460 C459 1.332 . S
H461 C454 0.930 . S
H462 C485 0.930 . S
H463 C486 0.929 . S
O464 Tb420 2.465 . S
O464 C484 1.264 . S
O465 Tb420 2.387 . S
O465 C476 1.264 . S
O466 Tb431 2.349 . S
O466 C476 1.243 . S
O467 Tb420 2.428 . S
O467 C484 1.256 . S
O468 Tb420 2.308 . S
O468 C483 1.266 . S
O469 Tb431 2.393 . S
O469 C483 1.248 . S
O470 Tb431 2.465 1_554 S
O470 C495 1.264 . S
O471 Tb431 2.387 . S
O471 C487 1.264 . S
O472 Tb420 2.349 . S
O472 C487 1.243 . S
O473 Tb431 2.428 1_554 S
O473 C495 1.256 . S
O474 Tb431 2.308 . S
O474 C494 1.266 . S
O475 Tb420 2.393 . S
O475 C494 1.248 . S
C476 O465 1.264 . S
C476 O466 1.243 . S
C477 C480 1.399 . S
C477 C482 1.383 . S
C477 C484 1.496 . S
C478 C479 1.399 . S
C478 C482 1.389 . S
C479 C478 1.399 . S
C479 C481 1.380 . S
C479 H496 0.929 . S
C480 C477 1.399 . S
C480 C481 1.392 . S
C480 H497 0.929 . S
C481 C479 1.380 . S
C481 C480 1.392 . S
C481 H498 0.929 . S
C482 C477 1.383 . S
C482 C478 1.389 . S
C482 H499 0.931 . S
C483 O468 1.266 . S
C483 O469 1.248 . S
C484 Tb420 2.802 . S
C484 O464 1.264 . S
C484 O467 1.256 . S
C484 C477 1.496 . S
C485 C452 1.448 . S
C485 H462 0.930 . S
C485 C486 1.328 . S
C486 C457 1.427 . S
C486 H463 0.929 . S
C486 C485 1.328 . S
C487 O471 1.264 . S
C487 O472 1.243 . S
C488 C491 1.399 . S
C488 C492 1.383 . S
C488 C495 1.496 . S
C489 C490 1.399 . S
C489 C492 1.389 . S
C490 C489 1.399 . S
C490 C493 1.380 . S
C490 H500 0.929 . S
C491 C488 1.399 . S
C491 C493 1.392 . S
C491 H501 0.929 . S
C492 C488 1.383 . S
C492 C489 1.389 . S
C492 H502 0.931 . S
C493 C490 1.380 . S
C493 C491 1.392 . S
C493 H503 0.929 . S
C494 O474 1.266 . S
C494 O475 1.248 . S
C495 Tb431 2.802 1_554 S
C495 O470 1.264 . S
C495 O473 1.256 . S
C495 C488 1.496 . S
H496 C479 0.929 . S
H497 C480 0.929 . S
H498 C481 0.929 . S
H499 C482 0.931 . S
H500 C490 0.929 . S
H501 C491 0.929 . S
H502 C492 0.931 . S
H503 C493 0.929 . S
Tb504 N533 2.617 . S
Tb504 N539 2.572 . S
Tb504 O548 2.465 . S
Tb504 O549 2.387 . S
Tb504 O551 2.428 . S
Tb504 O552 2.308 . S
Tb504 O556 2.349 . S
Tb504 O559 2.393 . S
Tb504 C568 2.802 . S
C505 N506 1.379 . S
C505 C508 1.416 . S
C505 C512 1.424 . S
N506 C505 1.379 . S
N506 C509 1.334 . S
N506 Tb515 2.617 . S
C507 C509 1.390 . S
C507 C510 1.339 . S
C507 H527 0.930 . S
C508 C505 1.416 . S
C508 C510 1.416 . S
C508 C514 1.448 . S
C509 N506 1.334 . S
C509 C507 1.390 . S
C509 H520 0.930 . S
C510 C507 1.339 . S
C510 C508 1.416 . S
C510 H531 0.930 . S
C511 C512 1.413 . S
C511 C513 1.427 . S
C511 C517 1.416 1_655 S
C512 C505 1.424 . S
C512 C511 1.413 . S
C512 N516 1.361 . S
C513 C511 1.427 . S
C513 C514 1.328 . S
C513 H528 0.929 . S
C514 C508 1.448 . S
C514 C513 1.328 . S
C514 H529 0.930 . S
Tb515 N506 2.617 . S
Tb515 N516 2.572 . S
Tb515 O550 2.349 . S
Tb515 O553 2.393 . S
Tb515 O554 2.465 . S
Tb515 O555 2.387 . S
Tb515 O557 2.428 . S
Tb515 O558 2.308 . S
Tb515 C579 2.802 . S
N516 C512 1.361 . S
N516 Tb515 2.572 . S
N516 C518 1.340 . S
C517 C511 1.416 1_455 S
C517 C519 1.332 . S
C517 H525 0.931 . S
C518 N516 1.340 . S
C518 C519 1.407 1_655 S
C518 H524 0.930 . S
C519 C517 1.332 . S
C519 C518 1.407 1_455 S
C519 H521 0.929 . S
H520 C509 0.930 . S
H521 C519 0.929 . S
H522 C537 0.930 . S
H523 C544 0.929 . S
H524 C518 0.930 . S
H525 C517 0.931 . S
H526 C540 0.930 . S
H527 C507 0.930 . S
H528 C513 0.929 . S
H529 C514 0.930 . S
H530 C535 0.930 . S
H531 C510 0.930 . S
H532 C543 0.931 . S
N533 Tb504 2.617 . S
N533 C534 1.379 . S
N533 C537 1.334 . S
C534 N533 1.379 . S
C534 C536 1.416 . S
C534 C542 1.424 . S
C535 H530 0.930 . S
C535 C537 1.390 . S
C535 C538 1.339 . S
C536 C534 1.416 . S
C536 C538 1.416 . S
C536 C569 1.448 . S
C537 H522 0.930 . S
C537 N533 1.334 . S
C537 C535 1.390 . S
C538 C535 1.339 . S
C538 C536 1.416 . S
C538 H545 0.930 . S
N539 Tb504 2.572 . S
N539 C540 1.340 . S
N539 C542 1.361 . S
C540 H526 0.930 . S
C540 N539 1.340 . S
C540 C544 1.407 . S
C541 C542 1.413 . S
C541 C543 1.416 . S
C541 C570 1.427 . S
C542 C534 1.424 . S
C542 N539 1.361 . S
C542 C541 1.413 . S
C543 H532 0.931 . S
C543 C541 1.416 . S
C543 C544 1.332 . S
C544 H523 0.929 . S
C544 C540 1.407 . S
C544 C543 1.332 . S
H545 C538 0.930 . S
H546 C569 0.930 . S
H547 C570 0.929 . S
O548 Tb504 2.465 . S
O548 C568 1.264 . S
O549 Tb504 2.387 . S
O549 C560 1.264 . S
O550 Tb515 2.349 . S
O550 C560 1.243 . S
O551 Tb504 2.428 . S
O551 C568 1.256 . S
O552 Tb504 2.308 . S
O552 C567 1.266 . S
O553 Tb515 2.393 . S
O553 C567 1.248 . S
O554 Tb515 2.465 . S
O554 C579 1.264 . S
O555 Tb515 2.387 . S
O555 C571 1.264 . S
O556 Tb504 2.349 . S
O556 C571 1.243 . S
O557 Tb515 2.428 . S
O557 C579 1.256 . S
O558 Tb515 2.308 . S
O558 C578 1.266 . S
O559 Tb504 2.393 . S
O559 C578 1.248 . S
C560 O549 1.264 . S
C560 O550 1.243 . S
C561 C564 1.399 . S
C561 C566 1.383 . S
C561 C568 1.496 . S
C562 C563 1.399 . S
C562 C566 1.389 . S
C563 C562 1.399 . S
C563 C565 1.380 . S
C563 H580 0.929 . S
C564 C561 1.399 . S
C564 C565 1.392 . S
C564 H581 0.929 . S
C565 C563 1.380 . S
C565 C564 1.392 . S
C565 H582 0.929 . S
C566 C561 1.383 . S
C566 C562 1.389 . S
C566 H583 0.931 . S
C567 O552 1.266 . S
C567 O553 1.248 . S
C568 Tb504 2.802 . S
C568 O548 1.264 . S
C568 O551 1.256 . S
C568 C561 1.496 . S
C569 C536 1.448 . S
C569 H546 0.930 . S
C569 C570 1.328 . S
C570 C541 1.427 . S
C570 H547 0.929 . S
C570 C569 1.328 . S
C571 O555 1.264 . S
C571 O556 1.243 . S
C572 C575 1.399 . S
C572 C576 1.383 . S
C572 C579 1.496 . S
C573 C574 1.399 . S
C573 C576 1.389 . S
C574 C573 1.399 . S
C574 C577 1.380 . S
C574 H584 0.929 . S
C575 C572 1.399 . S
C575 C577 1.392 . S
C575 H585 0.929 . S
C576 C572 1.383 . S
C576 C573 1.389 . S
C576 H586 0.931 . S
C577 C574 1.380 . S
C577 C575 1.392 . S
C577 H587 0.929 . S
C578 O558 1.266 . S
C578 O559 1.248 . S
C579 Tb515 2.802 . S
C579 O554 1.264 . S
C579 O557 1.256 . S
C579 C572 1.496 . S
H580 C563 0.929 . S
H581 C564 0.929 . S
H582 C565 0.929 . S
H583 C566 0.931 . S
H584 C574 0.929 . S
H585 C575 0.929 . S
H586 C576 0.931 . S
H587 C577 0.929 . S
Tb588 N617 2.617 . S
Tb588 N623 2.572 . S
Tb588 O632 2.465 . S
Tb588 O633 2.387 . S
Tb588 O635 2.428 . S
Tb588 O636 2.308 . S
Tb588 O640 2.349 . S
Tb588 O643 2.393 . S
Tb588 C652 2.802 . S
C589 N590 1.379 . S
C589 C592 1.416 . S
C589 C596 1.424 . S
N590 C589 1.379 . S
N590 C593 1.334 . S
N590 Tb599 2.617 . S
C591 C593 1.390 . S
C591 C594 1.339 . S
C591 H611 0.930 . S
C592 C589 1.416 . S
C592 C594 1.416 . S
C592 C598 1.448 . S
C593 N590 1.334 . S
C593 C591 1.390 . S
C593 H604 0.930 . S
C594 C591 1.339 . S
C594 C592 1.416 . S
C594 H615 0.930 . S
C595 C596 1.413 . S
C595 C597 1.427 . S
C595 C601 1.416 1_565 S
C596 C589 1.424 . S
C596 C595 1.413 . S
C596 N600 1.361 . S
C597 C595 1.427 . S
C597 C598 1.328 . S
C597 H612 0.929 . S
C598 C592 1.448 . S
C598 C597 1.328 . S
C598 H613 0.930 . S
Tb599 N590 2.617 . S
Tb599 N600 2.572 . S
Tb599 O634 2.349 . S
Tb599 O637 2.393 . S
Tb599 O638 2.465 . S
Tb599 O639 2.387 . S
Tb599 O641 2.428 . S
Tb599 O642 2.308 . S
Tb599 C663 2.802 . S
N600 C596 1.361 . S
N600 Tb599 2.572 . S
N600 C602 1.340 . S
C601 C595 1.416 1_545 S
C601 C603 1.332 . S
C601 H609 0.931 . S
C602 N600 1.340 . S
C602 C603 1.407 1_565 S
C602 H608 0.930 . S
C603 C601 1.332 . S
C603 C602 1.407 1_545 S
C603 H605 0.929 . S
H604 C593 0.930 . S
H605 C603 0.929 . S
H606 C621 0.930 . S
H607 C628 0.929 . S
H608 C602 0.930 . S
H609 C601 0.931 . S
H610 C624 0.930 . S
H611 C591 0.930 . S
H612 C597 0.929 . S
H613 C598 0.930 . S
H614 C619 0.930 . S
H615 C594 0.930 . S
H616 C627 0.931 . S
N617 Tb588 2.617 . S
N617 C618 1.379 . S
N617 C621 1.334 . S
C618 N617 1.379 . S
C618 C620 1.416 . S
C618 C626 1.424 . S
C619 H614 0.930 . S
C619 C621 1.390 . S
C619 C622 1.339 . S
C620 C618 1.416 . S
C620 C622 1.416 . S
C620 C653 1.448 . S
C621 H606 0.930 . S
C621 N617 1.334 . S
C621 C619 1.390 . S
C622 C619 1.339 . S
C622 C620 1.416 . S
C622 H629 0.930 . S
N623 Tb588 2.572 . S
N623 C624 1.340 . S
N623 C626 1.361 . S
C624 H610 0.930 . S
C624 N623 1.340 . S
C624 C628 1.407 . S
C625 C626 1.413 . S
C625 C627 1.416 . S
C625 C654 1.427 . S
C626 C618 1.424 . S
C626 N623 1.361 . S
C626 C625 1.413 . S
C627 H616 0.931 . S
C627 C625 1.416 . S
C627 C628 1.332 . S
C628 H607 0.929 . S
C628 C624 1.407 . S
C628 C627 1.332 . S
H629 C622 0.930 . S
H630 C653 0.930 . S
H631 C654 0.929 . S
O632 Tb588 2.465 . S
O632 C652 1.264 . S
O633 Tb588 2.387 . S
O633 C644 1.264 . S
O634 Tb599 2.349 . S
O634 C644 1.243 . S
O635 Tb588 2.428 . S
O635 C652 1.256 . S
O636 Tb588 2.308 . S
O636 C651 1.266 . S
O637 Tb599 2.393 . S
O637 C651 1.248 . S
O638 Tb599 2.465 . S
O638 C663 1.264 . S
O639 Tb599 2.387 . S
O639 C655 1.264 . S
O640 Tb588 2.349 . S
O640 C655 1.243 . S
O641 Tb599 2.428 . S
O641 C663 1.256 . S
O642 Tb599 2.308 . S
O642 C662 1.266 . S
O643 Tb588 2.393 . S
O643 C662 1.248 . S
C644 O633 1.264 . S
C644 O634 1.243 . S
C645 C648 1.399 . S
C645 C650 1.383 . S
C645 C652 1.496 . S
C646 C647 1.399 . S
C646 C650 1.389 . S
C647 C646 1.399 . S
C647 C649 1.380 . S
C647 H664 0.929 1_556 S
C648 C645 1.399 . S
C648 C649 1.392 . S
C648 H665 0.929 . S
C649 C647 1.380 . S
C649 C648 1.392 . S
C649 H666 0.929 . S
C650 C645 1.383 . S
C650 C646 1.389 . S
C650 H667 0.931 . S
C651 O636 1.266 . S
C651 O637 1.248 . S
C652 Tb588 2.802 . S
C652 O632 1.264 . S
C652 O635 1.256 . S
C652 C645 1.496 . S
C653 C620 1.448 . S
C653 H630 0.930 . S
C653 C654 1.328 . S
C654 C625 1.427 . S
C654 H631 0.929 . S
C654 C653 1.328 . S
C655 O639 1.264 . S
C655 O640 1.243 . S
C656 C659 1.399 . S
C656 C660 1.383 . S
C656 C663 1.496 . S
C657 C658 1.399 . S
C657 C660 1.389 . S
C658 C657 1.399 . S
C658 C661 1.380 . S
C658 H668 0.929 . S
C659 C656 1.399 . S
C659 C661 1.392 . S
C659 H669 0.929 . S
C660 C656 1.383 . S
C660 C657 1.389 . S
C660 H670 0.931 . S
C661 C658 1.380 . S
C661 C659 1.392 . S
C661 H671 0.929 . S
C662 O642 1.266 . S
C662 O643 1.248 . S
C663 Tb599 2.802 . S
C663 O638 1.264 . S
C663 O641 1.256 . S
C663 C656 1.496 . S
H664 C647 0.929 1_554 S
H665 C648 0.929 . S
H666 C649 0.929 . S
H667 C650 0.931 . S
H668 C658 0.929 . S
H669 C659 0.929 . S
H670 C660 0.931 . S
H671 C661 0.929 . S
Tb672 N701 2.617 . S
Tb672 N707 2.572 . S
Tb672 O716 2.465 . S
Tb672 O717 2.387 . S
Tb672 O719 2.428 . S
Tb672 O720 2.308 . S
Tb672 O724 2.349 . S
Tb672 O727 2.393 . S
Tb672 C736 2.802 . S
C673 N674 1.379 . S
C673 C676 1.416 . S
C673 C680 1.424 . S
N674 C673 1.379 . S
N674 C677 1.334 . S
N674 Tb683 2.617 . S
C675 C677 1.390 . S
C675 C678 1.339 . S
C675 H695 0.930 . S
C676 C673 1.416 . S
C676 C678 1.416 . S
C676 C682 1.448 . S
C677 N674 1.334 . S
C677 C675 1.390 . S
C677 H688 0.930 . S
C678 C675 1.339 . S
C678 C676 1.416 . S
C678 H699 0.930 . S
C679 C680 1.413 . S
C679 C681 1.427 . S
C679 C685 1.416 . S
C680 C673 1.424 . S
C680 C679 1.413 . S
C680 N684 1.361 . S
C681 C679 1.427 . S
C681 C682 1.328 . S
C681 H696 0.929 . S
C682 C676 1.448 . S
C682 C681 1.328 . S
C682 H697 0.930 . S
Tb683 N674 2.617 . S
Tb683 N684 2.572 . S
Tb683 O718 2.349 . S
Tb683 O721 2.393 . S
Tb683 O722 2.465 1_554 S
Tb683 O723 2.387 . S
Tb683 O725 2.428 1_554 S
Tb683 O726 2.308 . S
Tb683 C747 2.802 1_554 S
N684 C680 1.361 . S
N684 Tb683 2.572 . S
N684 C686 1.340 . S
C685 C679 1.416 . S
C685 C687 1.332 . S
C685 H693 0.931 . S
C686 N684 1.340 . S
C686 C687 1.407 . S
C686 H692 0.930 . S
C687 C685 1.332 . S
C687 C686 1.407 . S
C687 H689 0.929 . S
H688 C677 0.930 . S
H689 C687 0.929 . S
H690 C705 0.930 . S
H691 C712 0.929 . S
H692 C686 0.930 . S
H693 C685 0.931 . S
H694 C708 0.930 . S
H695 C675 0.930 . S
H696 C681 0.929 . S
H697 C682 0.930 . S
H698 C703 0.930 . S
H699 C678 0.930 . S
H700 C711 0.931 . S
N701 Tb672 2.617 . S
N701 C702 1.379 . S
N701 C705 1.334 . S
C702 N701 1.379 . S
C702 C704 1.416 . S
C702 C710 1.424 . S
C703 H698 0.930 . S
C703 C705 1.390 . S
C703 C706 1.339 . S
C704 C702 1.416 . S
C704 C706 1.416 . S
C704 C737 1.448 . S
C705 H690 0.930 . S
C705 N701 1.334 . S
C705 C703 1.390 . S
C706 C703 1.339 . S
C706 C704 1.416 . S
C706 H713 0.930 . S
N707 Tb672 2.572 . S
N707 C708 1.340 . S
N707 C710 1.361 . S
C708 H694 0.930 . S
C708 N707 1.340 . S
C708 C712 1.407 . S
C709 C710 1.413 . S
C709 C711 1.416 . S
C709 C738 1.427 . S
C710 C702 1.424 . S
C710 N707 1.361 . S
C710 C709 1.413 . S
C711 H700 0.931 . S
C711 C709 1.416 . S
C711 C712 1.332 . S
C712 H691 0.929 . S
C712 C708 1.407 . S
C712 C711 1.332 . S
H713 C706 0.930 . S
H714 C737 0.930 . S
H715 C738 0.929 . S
O716 Tb672 2.465 . S
O716 C736 1.264 . S
O717 Tb672 2.387 . S
O717 C728 1.264 . S
O718 Tb683 2.349 . S
O718 C728 1.243 . S
O719 Tb672 2.428 . S
O719 C736 1.256 . S
O720 Tb672 2.308 . S
O720 C735 1.266 . S
O721 Tb683 2.393 . S
O721 C735 1.248 . S
O722 Tb683 2.465 1_556 S
O722 C747 1.264 . S
O723 Tb683 2.387 . S
O723 C739 1.264 . S
O724 Tb672 2.349 . S
O724 C739 1.243 . S
O725 Tb683 2.428 1_556 S
O725 C747 1.256 . S
O726 Tb683 2.308 . S
O726 C746 1.266 . S
O727 Tb672 2.393 . S
O727 C746 1.248 . S
C728 O717 1.264 . S
C728 O718 1.243 . S
C729 C732 1.399 . S
C729 C734 1.383 . S
C729 C736 1.496 . S
C730 C731 1.399 . S
C730 C734 1.389 . S
C731 C730 1.399 . S
C731 C733 1.380 . S
C731 H748 0.929 . S
C732 C729 1.399 . S
C732 C733 1.392 . S
C732 H749 0.929 . S
C733 C731 1.380 . S
C733 C732 1.392 . S
C733 H750 0.929 . S
C734 C729 1.383 . S
C734 C730 1.389 . S
C734 H751 0.931 . S
C735 O720 1.266 . S
C735 O721 1.248 . S
C736 Tb672 2.802 . S
C736 O716 1.264 . S
C736 O719 1.256 . S
C736 C729 1.496 . S
C737 C704 1.448 . S
C737 H714 0.930 . S
C737 C738 1.328 . S
C738 C709 1.427 . S
C738 H715 0.929 . S
C738 C737 1.328 . S
C739 O723 1.264 . S
C739 O724 1.243 . S
C740 C743 1.399 . S
C740 C744 1.383 . S
C740 C747 1.496 . S
C741 C742 1.399 . S
C741 C744 1.389 . S
C742 C741 1.399 . S
C742 C745 1.380 . S
C742 H752 0.929 . S
C743 C740 1.399 . S
C743 C745 1.392 . S
C743 H753 0.929 . S
C744 C740 1.383 . S
C744 C741 1.389 . S
C744 H754 0.931 . S
C745 C742 1.380 . S
C745 C743 1.392 . S
C745 H755 0.929 . S
C746 O726 1.266 . S
C746 O727 1.248 . S
C747 Tb683 2.802 1_556 S
C747 O722 1.264 . S
C747 O725 1.256 . S
C747 C740 1.496 . S
H748 C731 0.929 . S
H749 C732 0.929 . S
H750 C733 0.929 . S
H751 C734 0.931 . S
H752 C742 0.929 . S
H753 C743 0.929 . S
H754 C744 0.931 . S
H755 C745 0.929 . S
Tb756 N785 2.617 . S
Tb756 N791 2.572 . S
Tb756 O800 2.465 . S
Tb756 O801 2.387 . S
Tb756 O803 2.428 . S
Tb756 O804 2.308 . S
Tb756 O808 2.349 . S
Tb756 O811 2.393 . S
Tb756 C820 2.802 . S
C757 N758 1.379 . S
C757 C760 1.416 . S
C757 C764 1.424 . S
N758 C757 1.379 . S
N758 C761 1.334 . S
N758 Tb767 2.617 . S
C759 C761 1.390 . S
C759 C762 1.339 . S
C759 H779 0.930 . S
C760 C757 1.416 . S
C760 C762 1.416 . S
C760 C766 1.448 . S
C761 N758 1.334 . S
C761 C759 1.390 . S
C761 H772 0.930 . S
C762 C759 1.339 . S
C762 C760 1.416 . S
C762 H783 0.930 . S
C763 C764 1.413 . S
C763 C765 1.427 . S
C763 C769 1.416 1_455 S
C764 C757 1.424 . S
C764 C763 1.413 . S
C764 N768 1.361 . S
C765 C763 1.427 . S
C765 C766 1.328 . S
C765 H780 0.929 . S
C766 C760 1.448 . S
C766 C765 1.328 . S
C766 H781 0.930 . S
Tb767 N758 2.617 . S
Tb767 N768 2.572 . S
Tb767 O802 2.349 . S
Tb767 O805 2.393 . S
Tb767 O806 2.465 . S
Tb767 O807 2.387 . S
Tb767 O809 2.428 . S
Tb767 O810 2.308 . S
Tb767 C831 2.802 . S
N768 C764 1.361 . S
N768 Tb767 2.572 . S
N768 C770 1.340 . S
C769 C763 1.416 1_655 S
C769 C771 1.332 . S
C769 H777 0.931 . S
C770 N768 1.340 . S
C770 C771 1.407 1_455 S
C770 H776 0.930 . S
C771 C769 1.332 . S
C771 C770 1.407 1_655 S
C771 H773 0.929 . S
H772 C761 0.930 . S
H773 C771 0.929 . S
H774 C789 0.930 . S
H775 C796 0.929 . S
H776 C770 0.930 . S
H777 C769 0.931 . S
H778 C792 0.930 . S
H779 C759 0.930 . S
H780 C765 0.929 . S
H781 C766 0.930 . S
H782 C787 0.930 . S
H783 C762 0.930 . S
H784 C795 0.931 . S
N785 Tb756 2.617 . S
N785 C786 1.379 . S
N785 C789 1.334 . S
C786 N785 1.379 . S
C786 C788 1.416 . S
C786 C794 1.424 . S
C787 H782 0.930 . S
C787 C789 1.390 . S
C787 C790 1.339 . S
C788 C786 1.416 . S
C788 C790 1.416 . S
C788 C821 1.448 . S
C789 H774 0.930 . S
C789 N785 1.334 . S
C789 C787 1.390 . S
C790 C787 1.339 . S
C790 C788 1.416 . S
C790 H797 0.930 . S
N791 Tb756 2.572 . S
N791 C792 1.340 . S
N791 C794 1.361 . S
C792 H778 0.930 . S
C792 N791 1.340 . S
C792 C796 1.407 . S
C793 C794 1.413 . S
C793 C795 1.416 . S
C793 C822 1.427 . S
C794 C786 1.424 . S
C794 N791 1.361 . S
C794 C793 1.413 . S
C795 H784 0.931 . S
C795 C793 1.416 . S
C795 C796 1.332 . S
C796 H775 0.929 . S
C796 C792 1.407 . S
C796 C795 1.332 . S
H797 C790 0.930 . S
H798 C821 0.930 . S
H799 C822 0.929 . S
O800 Tb756 2.465 . S
O800 C820 1.264 . S
O801 Tb756 2.387 . S
O801 C812 1.264 . S
O802 Tb767 2.349 . S
O802 C812 1.243 . S
O803 Tb756 2.428 . S
O803 C820 1.256 . S
O804 Tb756 2.308 . S
O804 C819 1.266 . S
O805 Tb767 2.393 . S
O805 C819 1.248 . S
O806 Tb767 2.465 . S
O806 C831 1.264 . S
O807 Tb767 2.387 . S
O807 C823 1.264 . S
O808 Tb756 2.349 . S
O808 C823 1.243 . S
O809 Tb767 2.428 . S
O809 C831 1.256 . S
O810 Tb767 2.308 . S
O810 C830 1.266 . S
O811 Tb756 2.393 . S
O811 C830 1.248 . S
C812 O801 1.264 . S
C812 O802 1.243 . S
C813 C816 1.399 . S
C813 C818 1.383 . S
C813 C820 1.496 . S
C814 C815 1.399 . S
C814 C818 1.389 . S
C815 C814 1.399 . S
C815 C817 1.380 . S
C815 H832 0.929 . S
C816 C813 1.399 . S
C816 C817 1.392 . S
C816 H833 0.929 . S
C817 C815 1.380 . S
C817 C816 1.392 . S
C817 H834 0.929 . S
C818 C813 1.383 . S
C818 C814 1.389 . S
C818 H835 0.931 . S
C819 O804 1.266 . S
C819 O805 1.248 . S
C820 Tb756 2.802 . S
C820 O800 1.264 . S
C820 O803 1.256 . S
C820 C813 1.496 . S
C821 C788 1.448 . S
C821 H798 0.930 . S
C821 C822 1.328 . S
C822 C793 1.427 . S
C822 H799 0.929 . S
C822 C821 1.328 . S
C823 O807 1.264 . S
C823 O808 1.243 . S
C824 C827 1.399 . S
C824 C828 1.383 . S
C824 C831 1.496 . S
C825 C826 1.399 . S
C825 C828 1.389 . S
C826 C825 1.399 . S
C826 C829 1.380 . S
C826 H836 0.929 . S
C827 C824 1.399 . S
C827 C829 1.392 . S
C827 H837 0.929 . S
C828 C824 1.383 . S
C828 C825 1.389 . S
C828 H838 0.931 . S
C829 C826 1.380 . S
C829 C827 1.392 . S
C829 H839 0.929 . S
C830 O810 1.266 . S
C830 O811 1.248 . S
C831 Tb767 2.802 . S
C831 O806 1.264 . S
C831 O809 1.256 . S
C831 C824 1.496 . S
H832 C815 0.929 . S
H833 C816 0.929 . S
H834 C817 0.929 . S
H835 C818 0.931 . S
H836 C826 0.929 . S
H837 C827 0.929 . S
H838 C828 0.931 . S
H839 C829 0.929 . S
Tb840 N869 2.617 . S
Tb840 N875 2.572 . S
Tb840 O884 2.465 . S
Tb840 O885 2.387 . S
Tb840 O887 2.428 . S
Tb840 O888 2.308 . S
Tb840 O892 2.349 . S
Tb840 O895 2.393 . S
Tb840 C904 2.802 . S
C841 N842 1.379 . S
C841 C844 1.416 . S
C841 C848 1.424 . S
N842 C841 1.379 . S
N842 C845 1.334 . S
N842 Tb851 2.617 . S
C843 C845 1.390 . S
C843 C846 1.339 . S
C843 H863 0.930 . S
C844 C841 1.416 . S
C844 C846 1.416 . S
C844 C850 1.448 . S
C845 N842 1.334 . S
C845 C843 1.390 . S
C845 H856 0.930 . S
C846 C843 1.339 . S
C846 C844 1.416 . S
C846 H867 0.930 . S
C847 C848 1.413 . S
C847 C849 1.427 . S
C847 C853 1.416 1_545 S
C848 C841 1.424 . S
C848 C847 1.413 . S
C848 N852 1.361 . S
C849 C847 1.427 . S
C849 C850 1.328 . S
C849 H864 0.929 . S
C850 C844 1.448 . S
C850 C849 1.328 . S
C850 H865 0.930 . S
Tb851 N842 2.617 . S
Tb851 N852 2.572 . S
Tb851 O886 2.349 . S
Tb851 O889 2.393 . S
Tb851 O890 2.465 . S
Tb851 O891 2.387 . S
Tb851 O893 2.428 . S
Tb851 O894 2.308 . S
Tb851 C915 2.802 . S
N852 C848 1.361 . S
N852 Tb851 2.572 . S
N852 C854 1.340 . S
C853 C847 1.416 1_565 S
C853 C855 1.332 . S
C853 H861 0.931 . S
C854 N852 1.340 . S
C854 C855 1.407 1_545 S
C854 H860 0.930 . S
C855 C853 1.332 . S
C855 C854 1.407 1_565 S
C855 H857 0.929 . S
H856 C845 0.930 . S
H857 C855 0.929 . S
H858 C873 0.930 . S
H859 C880 0.929 . S
H860 C854 0.930 . S
H861 C853 0.931 . S
H862 C876 0.930 . S
H863 C843 0.930 . S
H864 C849 0.929 . S
H865 C850 0.930 . S
H866 C871 0.930 . S
H867 C846 0.930 . S
H868 C879 0.931 . S
N869 Tb840 2.617 . S
N869 C870 1.379 . S
N869 C873 1.334 . S
C870 N869 1.379 . S
C870 C872 1.416 . S
C870 C878 1.424 . S
C871 H866 0.930 . S
C871 C873 1.390 . S
C871 C874 1.339 . S
C872 C870 1.416 . S
C872 C874 1.416 . S
C872 C905 1.448 . S
C873 H858 0.930 . S
C873 N869 1.334 . S
C873 C871 1.390 . S
C874 C871 1.339 . S
C874 C872 1.416 . S
C874 H881 0.930 . S
N875 Tb840 2.572 . S
N875 C876 1.340 . S
N875 C878 1.361 . S
C876 H862 0.930 . S
C876 N875 1.340 . S
C876 C880 1.407 . S
C877 C878 1.413 . S
C877 C879 1.416 . S
C877 C906 1.427 . S
C878 C870 1.424 . S
C878 N875 1.361 . S
C878 C877 1.413 . S
C879 H868 0.931 . S
C879 C877 1.416 . S
C879 C880 1.332 . S
C880 H859 0.929 . S
C880 C876 1.407 . S
C880 C879 1.332 . S
H881 C874 0.930 . S
H882 C905 0.930 . S
H883 C906 0.929 . S
O884 Tb840 2.465 . S
O884 C904 1.264 . S
O885 Tb840 2.387 . S
O885 C896 1.264 . S
O886 Tb851 2.349 . S
O886 C896 1.243 . S
O887 Tb840 2.428 . S
O887 C904 1.256 . S
O888 Tb840 2.308 . S
O888 C903 1.266 . S
O889 Tb851 2.393 . S
O889 C903 1.248 . S
O890 Tb851 2.465 . S
O890 C915 1.264 . S
O891 Tb851 2.387 . S
O891 C907 1.264 . S
O892 Tb840 2.349 . S
O892 C907 1.243 . S
O893 Tb851 2.428 . S
O893 C915 1.256 . S
O894 Tb851 2.308 . S
O894 C914 1.266 . S
O895 Tb840 2.393 . S
O895 C914 1.248 . S
C896 O885 1.264 . S
C896 O886 1.243 . S
C897 C900 1.399 . S
C897 C902 1.383 . S
C897 C904 1.496 . S
C898 C899 1.399 . S
C898 C902 1.389 . S
C899 C898 1.399 . S
C899 C901 1.380 . S
C899 H916 0.929 1_556 S
C900 C897 1.399 . S
C900 C901 1.392 . S
C900 H917 0.929 . S
C901 C899 1.380 . S
C901 C900 1.392 . S
C901 H918 0.929 . S
C902 C897 1.383 . S
C902 C898 1.389 . S
C902 H919 0.931 . S
C903 O888 1.266 . S
C903 O889 1.248 . S
C904 Tb840 2.802 . S
C904 O884 1.264 . S
C904 O887 1.256 . S
C904 C897 1.496 . S
C905 C872 1.448 . S
C905 H882 0.930 . S
C905 C906 1.328 . S
C906 C877 1.427 . S
C906 H883 0.929 . S
C906 C905 1.328 . S
C907 O891 1.264 . S
C907 O892 1.243 . S
C908 C911 1.399 . S
C908 C912 1.383 . S
C908 C915 1.496 . S
C909 C910 1.399 . S
C909 C912 1.389 . S
C910 C909 1.399 . S
C910 C913 1.380 . S
C910 H920 0.929 . S
C911 C908 1.399 . S
C911 C913 1.392 . S
C911 H921 0.929 . S
C912 C908 1.383 . S
C912 C909 1.389 . S
C912 H922 0.931 . S
C913 C910 1.380 . S
C913 C911 1.392 . S
C913 H923 0.929 . S
C914 O894 1.266 . S
C914 O895 1.248 . S
C915 Tb851 2.802 . S
C915 O890 1.264 . S
C915 O893 1.256 . S
C915 C908 1.496 . S
H916 C899 0.929 1_554 S
H917 C900 0.929 . S
H918 C901 0.929 . S
H919 C902 0.931 . S
H920 C910 0.929 . S
H921 C911 0.929 . S
H922 C912 0.931 . S
H923 C913 0.929 . S
Tb924 N953 2.617 . S
Tb924 N959 2.572 . S
Tb924 O968 2.465 . S
Tb924 O969 2.387 . S
Tb924 O971 2.428 . S
Tb924 O972 2.308 . S
Tb924 O976 2.349 . S
Tb924 O979 2.393 . S
Tb924 C988 2.802 . S
C925 N926 1.379 . S
C925 C928 1.416 . S
C925 C932 1.424 . S
N926 C925 1.379 . S
N926 C929 1.334 . S
N926 Tb935 2.617 . S
C927 C929 1.390 . S
C927 C930 1.339 . S
C927 H947 0.930 . S
C928 C925 1.416 . S
C928 C930 1.416 . S
C928 C934 1.448 . S
C929 N926 1.334 . S
C929 C927 1.390 . S
C929 H940 0.930 . S
C930 C927 1.339 . S
C930 C928 1.416 . S
C930 H951 0.930 . S
C931 C932 1.413 . S
C931 C933 1.427 . S
C931 C937 1.416 . S
C932 C925 1.424 . S
C932 C931 1.413 . S
C932 N936 1.361 . S
C933 C931 1.427 . S
C933 C934 1.328 . S
C933 H948 0.929 . S
C934 C928 1.448 . S
C934 C933 1.328 . S
C934 H949 0.930 . S
Tb935 N926 2.617 . S
Tb935 N936 2.572 . S
Tb935 O970 2.349 . S
Tb935 O973 2.393 . S
Tb935 O974 2.465 1_554 S
Tb935 O975 2.387 . S
Tb935 O977 2.428 1_554 S
Tb935 O978 2.308 . S
Tb935 C999 2.802 1_554 S
N936 C932 1.361 . S
N936 Tb935 2.572 . S
N936 C938 1.340 . S
C937 C931 1.416 . S
C937 C939 1.332 . S
C937 H945 0.931 . S
C938 N936 1.340 . S
C938 C939 1.407 . S
C938 H944 0.930 . S
C939 C937 1.332 . S
C939 C938 1.407 . S
C939 H941 0.929 . S
H940 C929 0.930 . S
H941 C939 0.929 . S
H942 C957 0.930 . S
H943 C964 0.929 . S
H944 C938 0.930 . S
H945 C937 0.931 . S
H946 C960 0.930 . S
H947 C927 0.930 . S
H948 C933 0.929 . S
H949 C934 0.930 . S
H950 C955 0.930 . S
H951 C930 0.930 . S
H952 C963 0.931 . S
N953 Tb924 2.617 . S
N953 C954 1.379 . S
N953 C957 1.334 . S
C954 N953 1.379 . S
C954 C956 1.416 . S
C954 C962 1.424 . S
C955 H950 0.930 . S
C955 C957 1.390 . S
C955 C958 1.339 . S
C956 C954 1.416 . S
C956 C958 1.416 . S
C956 C989 1.448 . S
C957 H942 0.930 . S
C957 N953 1.334 . S
C957 C955 1.390 . S
C958 C955 1.339 . S
C958 C956 1.416 . S
C958 H965 0.930 . S
N959 Tb924 2.572 . S
N959 C960 1.340 . S
N959 C962 1.361 . S
C960 H946 0.930 . S
C960 N959 1.340 . S
C960 C964 1.407 . S
C961 C962 1.413 . S
C961 C963 1.416 . S
C961 C990 1.427 . S
C962 C954 1.424 . S
C962 N959 1.361 . S
C962 C961 1.413 . S
C963 H952 0.931 . S
C963 C961 1.416 . S
C963 C964 1.332 . S
C964 H943 0.929 . S
C964 C960 1.407 . S
C964 C963 1.332 . S
H965 C958 0.930 . S
H966 C989 0.930 . S
H967 C990 0.929 . S
O968 Tb924 2.465 . S
O968 C988 1.264 . S
O969 Tb924 2.387 . S
O969 C980 1.264 . S
O970 Tb935 2.349 . S
O970 C980 1.243 . S
O971 Tb924 2.428 . S
O971 C988 1.256 . S
O972 Tb924 2.308 . S
O972 C987 1.266 . S
O973 Tb935 2.393 . S
O973 C987 1.248 . S
O974 Tb935 2.465 1_556 S
O974 C999 1.264 . S
O975 Tb935 2.387 . S
O975 C991 1.264 . S
O976 Tb924 2.349 . S
O976 C991 1.243 . S
O977 Tb935 2.428 1_556 S
O977 C999 1.256 . S
O978 Tb935 2.308 . S
O978 C998 1.266 . S
O979 Tb924 2.393 . S
O979 C998 1.248 . S
C980 O969 1.264 . S
C980 O970 1.243 . S
C981 C984 1.399 . S
C981 C986 1.383 . S
C981 C988 1.496 . S
C982 C983 1.399 . S
C982 C986 1.389 . S
C983 C982 1.399 . S
C983 C985 1.380 . S
C983 H1000 0.929 . S
C984 C981 1.399 . S
C984 C985 1.392 . S
C984 H1001 0.929 . S
C985 C983 1.380 . S
C985 C984 1.392 . S
C985 H1002 0.929 . S
C986 C981 1.383 . S
C986 C982 1.389 . S
C986 H1003 0.931 . S
C987 O972 1.266 . S
C987 O973 1.248 . S
C988 Tb924 2.802 . S
C988 O968 1.264 . S
C988 O971 1.256 . S
C988 C981 1.496 . S
C989 C956 1.448 . S
C989 H966 0.930 . S
C989 C990 1.328 . S
C990 C961 1.427 . S
C990 H967 0.929 . S
C990 C989 1.328 . S
C991 O975 1.264 . S
C991 O976 1.243 . S
C992 C995 1.399 . S
C992 C996 1.383 . S
C992 C999 1.496 . S
C993 C994 1.399 . S
C993 C996 1.389 . S
C994 C993 1.399 . S
C994 C997 1.380 . S
C994 H1004 0.929 . S
C995 C992 1.399 . S
C995 C997 1.392 . S
C995 H1005 0.929 . S
C996 C992 1.383 . S
C996 C993 1.389 . S
C996 H1006 0.931 . S
C997 C994 1.380 . S
C997 C995 1.392 . S
C997 H1007 0.929 . S
C998 O978 1.266 . S
C998 O979 1.248 . S
C999 Tb935 2.802 1_556 S
C999 O974 1.264 . S
C999 O977 1.256 . S
C999 C992 1.496 . S
H1000 C983 0.929 . S
H1001 C984 0.929 . S
H1002 C985 0.929 . S
H1003 C986 0.931 . S
H1004 C994 0.929 . S
H1005 C995 0.929 . S
H1006 C996 0.931 . S
H1007 C997 0.929 . S
H1008 C1014 0.930 . S
H1009 C1017 0.930 . S
H1010 C1018 0.930 . S
H1011 C1019 0.930 . S
H1012 C1022 0.930 . S
H1013 C1023 0.930 . S
C1014 H1008 0.930 . S
C1014 C1015 1.355 . S
C1014 C1016 1.415 . S
C1015 C1014 1.355 . S
C1015 C1017 1.419 . S
C1016 C1014 1.415 . S
C1016 C1021 1.425 . S
C1016 C1023 1.409 . S
C1017 H1009 0.930 . S
C1017 C1015 1.419 . S
C1017 C1018 1.362 . S
C1018 H1010 0.930 . S
C1018 C1017 1.362 . S
C1018 C1021 1.409 . S
C1019 H1011 0.930 . S
C1019 C1020 1.355 . S
C1019 C1021 1.415 . S
C1020 C1019 1.355 . S
C1020 C1022 1.419 . S
C1021 C1016 1.425 . S
C1021 C1018 1.409 . S
C1021 C1019 1.415 . S
C1022 H1012 0.930 . S
C1022 C1020 1.419 . S
C1022 C1023 1.362 . S
C1023 H1013 0.930 . S
C1023 C1016 1.409 . S
C1023 C1022 1.362 . S
H1024 C1030 0.930 . S
H1025 C1033 0.930 . S
H1026 C1034 0.930 . S
H1027 C1035 0.930 . S
H1028 C1038 0.930 . S
H1029 C1039 0.930 . S
C1030 H1024 0.930 . S
C1030 C1031 1.355 . S
C1030 C1032 1.415 . S
C1031 C1030 1.355 . S
C1031 C1033 1.419 . S
C1032 C1030 1.415 . S
C1032 C1037 1.425 . S
C1032 C1039 1.409 . S
C1033 H1025 0.930 . S
C1033 C1031 1.419 . S
C1033 C1034 1.362 . S
C1034 H1026 0.930 . S
C1034 C1033 1.362 . S
C1034 C1037 1.409 . S
C1035 H1027 0.930 . S
C1035 C1036 1.355 . S
C1035 C1037 1.415 . S
C1036 C1035 1.355 . S
C1036 C1038 1.419 . S
C1037 C1032 1.425 . S
C1037 C1034 1.409 . S
C1037 C1035 1.415 . S
C1038 H1028 0.930 . S
C1038 C1036 1.419 . S
C1038 C1039 1.362 . S
C1039 H1029 0.930 . S
C1039 C1032 1.409 . S
C1039 C1038 1.362 . S
H1040 C1046 0.930 . S
H1041 C1049 0.930 . S
H1042 C1050 0.930 . S
H1043 C1051 0.930 . S
H1044 C1054 0.930 . S
H1045 C1055 0.930 . S
C1046 H1040 0.930 . S
C1046 C1047 1.355 . S
C1046 C1048 1.415 . S
C1047 C1046 1.355 . S
C1047 C1049 1.419 . S
C1048 C1046 1.415 . S
C1048 C1053 1.425 . S
C1048 C1055 1.409 . S
C1049 H1041 0.930 . S
C1049 C1047 1.419 . S
C1049 C1050 1.362 . S
C1050 H1042 0.930 . S
C1050 C1049 1.362 . S
C1050 C1053 1.409 . S
C1051 H1043 0.930 . S
C1051 C1052 1.355 . S
C1051 C1053 1.415 . S
C1052 C1051 1.355 . S
C1052 C1054 1.419 . S
C1053 C1048 1.425 . S
C1053 C1050 1.409 . S
C1053 C1051 1.415 . S
C1054 H1044 0.930 . S
C1054 C1052 1.419 . S
C1054 C1055 1.362 . S
C1055 H1045 0.930 . S
C1055 C1048 1.409 . S
C1055 C1054 1.362 . S
H1056 C1062 0.930 . S
H1057 C1065 0.930 . S
H1058 C1066 0.930 . S
H1059 C1067 0.930 . S
H1060 C1070 0.930 . S
H1061 C1071 0.930 . S
C1062 H1056 0.930 . S
C1062 C1063 1.355 . S
C1062 C1064 1.415 . S
C1063 C1062 1.355 . S
C1063 C1065 1.419 . S
C1064 C1062 1.415 . S
C1064 C1069 1.425 . S
C1064 C1071 1.409 . S
C1065 H1057 0.930 . S
C1065 C1063 1.419 . S
C1065 C1066 1.362 . S
C1066 H1058 0.930 . S
C1066 C1065 1.362 . S
C1066 C1069 1.409 . S
C1067 H1059 0.930 . S
C1067 C1068 1.355 . S
C1067 C1069 1.415 . S
C1068 C1067 1.355 . S
C1068 C1070 1.419 . S
C1069 C1064 1.425 . S
C1069 C1066 1.409 . S
C1069 C1067 1.415 . S
C1070 H1060 0.930 . S
C1070 C1068 1.419 . S
C1070 C1071 1.362 . S
C1071 H1061 0.930 . S
C1071 C1064 1.409 . S
C1071 C1070 1.362 . S
H1072 C1078 0.930 . S
H1073 C1081 0.930 . S
H1074 C1082 0.930 . S
H1075 C1083 0.930 . S
H1076 C1086 0.930 . S
H1077 C1087 0.930 . S
C1078 H1072 0.930 . S
C1078 C1079 1.355 . S
C1078 C1080 1.415 . S
C1079 C1078 1.355 . S
C1079 C1081 1.419 . S
C1080 C1078 1.415 . S
C1080 C1085 1.425 . S
C1080 C1087 1.409 . S
C1081 H1073 0.930 . S
C1081 C1079 1.419 . S
C1081 C1082 1.362 . S
C1082 H1074 0.930 . S
C1082 C1081 1.362 . S
C1082 C1085 1.409 . S
C1083 H1075 0.930 . S
C1083 C1084 1.355 . S
C1083 C1085 1.415 . S
C1084 C1083 1.355 . S
C1084 C1086 1.419 . S
C1085 C1080 1.425 . S
C1085 C1082 1.409 . S
C1085 C1083 1.415 . S
C1086 H1076 0.930 . S
C1086 C1084 1.419 . S
C1086 C1087 1.362 . S
C1087 H1077 0.930 . S
C1087 C1080 1.409 . S
C1087 C1086 1.362 . S
H1088 C1094 0.930 . S
H1089 C1097 0.930 . S
H1090 C1098 0.930 . S
H1091 C1099 0.930 . S
H1092 C1102 0.930 . S
H1093 C1103 0.930 . S
C1094 H1088 0.930 . S
C1094 C1095 1.355 . S
C1094 C1096 1.415 . S
C1095 C1094 1.355 . S
C1095 C1097 1.419 . S
C1096 C1094 1.415 . S
C1096 C1101 1.425 . S
C1096 C1103 1.409 . S
C1097 H1089 0.930 . S
C1097 C1095 1.419 . S
C1097 C1098 1.362 . S
C1098 H1090 0.930 . S
C1098 C1097 1.362 . S
C1098 C1101 1.409 . S
C1099 H1091 0.930 . S
C1099 C1100 1.355 . S
C1099 C1101 1.415 . S
C1100 C1099 1.355 . S
C1100 C1102 1.419 . S
C1101 C1096 1.425 . S
C1101 C1098 1.409 . S
C1101 C1099 1.415 . S
C1102 H1092 0.930 . S
C1102 C1100 1.419 . S
C1102 C1103 1.362 . S
C1103 H1093 0.930 . S
C1103 C1096 1.409 . S
C1103 C1102 1.362 . S
H1104 C1110 0.930 . S
H1105 C1113 0.930 . S
H1106 C1114 0.930 1_554 S
H1107 C1115 0.930 . S
H1108 C1118 0.930 . S
H1109 C1119 0.930 1_556 S
C1110 H1104 0.930 . S
C1110 C1111 1.355 . S
C1110 C1112 1.415 . S
C1111 C1110 1.355 . S
C1111 C1113 1.419 . S
C1112 C1110 1.415 . S
C1112 C1117 1.425 1_556 S
C1112 C1119 1.409 1_556 S
C1113 H1105 0.930 . S
C1113 C1111 1.419 . S
C1113 C1114 1.362 . S
C1114 H1106 0.930 1_556 S
C1114 C1113 1.362 . S
C1114 C1117 1.409 1_556 S
C1115 H1107 0.930 . S
C1115 C1116 1.355 . S
C1115 C1117 1.415 . S
C1116 C1115 1.355 . S
C1116 C1118 1.419 . S
C1117 C1112 1.425 1_554 S
C1117 C1114 1.409 1_554 S
C1117 C1115 1.415 . S
C1118 H1108 0.930 . S
C1118 C1116 1.419 . S
C1118 C1119 1.362 . S
C1119 H1109 0.930 1_554 S
C1119 C1112 1.409 1_554 S
C1119 C1118 1.362 . S
H1120 C1126 0.930 . S
H1121 C1129 0.930 . S
H1122 C1130 0.930 . S
H1123 C1131 0.930 . S
H1124 C1134 0.930 . S
H1125 C1135 0.930 . S
C1126 H1120 0.930 . S
C1126 C1127 1.355 . S
C1126 C1128 1.415 . S
C1127 C1126 1.355 . S
C1127 C1129 1.419 . S
C1128 C1126 1.415 . S
C1128 C1133 1.425 . S
C1128 C1135 1.409 . S
C1129 H1121 0.930 . S
C1129 C1127 1.419 . S
C1129 C1130 1.362 . S
C1130 H1122 0.930 . S
C1130 C1129 1.362 . S
C1130 C1133 1.409 . S
C1131 H1123 0.930 . S
C1131 C1132 1.355 . S
C1131 C1133 1.415 . S
C1132 C1131 1.355 . S
C1132 C1134 1.419 . S
C1133 C1128 1.425 . S
C1133 C1130 1.409 . S
C1133 C1131 1.415 . S
C1134 H1124 0.930 . S
C1134 C1132 1.419 . S
C1134 C1135 1.362 . S
C1135 H1125 0.930 . S
C1135 C1128 1.409 . S
C1135 C1134 1.362 . S
H1136 C1142 0.930 . S
H1137 C1145 0.930 . S
H1138 C1146 0.930 . S
H1139 C1147 0.930 . S
H1140 C1150 0.930 . S
H1141 C1151 0.930 . S
C1142 H1136 0.930 . S
C1142 C1143 1.355 . S
C1142 C1144 1.415 . S
C1143 C1142 1.355 . S
C1143 C1145 1.419 . S
C1144 C1142 1.415 . S
C1144 C1149 1.425 . S
C1144 C1151 1.409 . S
C1145 H1137 0.930 . S
C1145 C1143 1.419 . S
C1145 C1146 1.362 . S
C1146 H1138 0.930 . S
C1146 C1145 1.362 . S
C1146 C1149 1.409 . S
C1147 H1139 0.930 . S
C1147 C1148 1.355 . S
C1147 C1149 1.415 . S
C1148 C1147 1.355 . S
C1148 C1150 1.419 . S
C1149 C1144 1.425 . S
C1149 C1146 1.409 . S
C1149 C1147 1.415 . S
C1150 H1140 0.930 . S
C1150 C1148 1.419 . S
C1150 C1151 1.362 . S
C1151 H1141 0.930 . S
C1151 C1144 1.409 . S
C1151 C1150 1.362 . S
H1152 C1158 0.930 . S
H1153 C1161 0.930 . S
H1154 C1162 0.930 . S
H1155 C1163 0.930 . S
H1156 C1166 0.930 . S
H1157 C1167 0.930 . S
C1158 H1152 0.930 . S
C1158 C1159 1.355 . S
C1158 C1160 1.415 . S
C1159 C1158 1.355 . S
C1159 C1161 1.419 . S
C1160 C1158 1.415 . S
C1160 C1165 1.425 1_556 S
C1160 C1167 1.409 . S
C1161 H1153 0.930 . S
C1161 C1159 1.419 . S
C1161 C1162 1.362 1_556 S
C1162 H1154 0.930 . S
C1162 C1161 1.362 1_554 S
C1162 C1165 1.409 . S
C1163 H1155 0.930 . S
C1163 C1164 1.355 . S
C1163 C1165 1.415 . S
C1164 C1163 1.355 . S
C1164 C1166 1.419 . S
C1165 C1160 1.425 1_554 S
C1165 C1162 1.409 . S
C1165 C1163 1.415 . S
C1166 H1156 0.930 . S
C1166 C1164 1.419 . S
C1166 C1167 1.362 1_554 S
C1167 H1157 0.930 . S
C1167 C1160 1.409 . S
C1167 C1166 1.362 1_556 S
H1168 C1174 0.930 . S
H1169 C1177 0.930 . S
H1170 C1178 0.930 . S
H1171 C1179 0.930 . S
H1172 C1182 0.930 . S
H1173 C1183 0.930 . S
C1174 H1168 0.930 . S
C1174 C1175 1.355 . S
C1174 C1176 1.415 . S
C1175 C1174 1.355 . S
C1175 C1177 1.419 . S
C1176 C1174 1.415 . S
C1176 C1181 1.425 . S
C1176 C1183 1.409 . S
C1177 H1169 0.930 . S
C1177 C1175 1.419 . S
C1177 C1178 1.362 . S
C1178 H1170 0.930 . S
C1178 C1177 1.362 . S
C1178 C1181 1.409 . S
C1179 H1171 0.930 . S
C1179 C1180 1.355 . S
C1179 C1181 1.415 . S
C1180 C1179 1.355 . S
C1180 C1182 1.419 . S
C1181 C1176 1.425 . S
C1181 C1178 1.409 . S
C1181 C1179 1.415 . S
C1182 H1172 0.930 . S
C1182 C1180 1.419 . S
C1182 C1183 1.362 . S
C1183 H1173 0.930 . S
C1183 C1176 1.409 . S
C1183 C1182 1.362 . S
H1184 C1190 0.930 . S
H1185 C1193 0.930 . S
H1186 C1194 0.930 . S
H1187 C1195 0.930 . S
H1188 C1198 0.930 . S
H1189 C1199 0.930 . S
C1190 H1184 0.930 . S
C1190 C1191 1.355 . S
C1190 C1192 1.415 . S
C1191 C1190 1.355 . S
C1191 C1193 1.419 . S
C1192 C1190 1.415 . S
C1192 C1197 1.425 . S
C1192 C1199 1.409 . S
C1193 H1185 0.930 . S
C1193 C1191 1.419 . S
C1193 C1194 1.362 . S
C1194 H1186 0.930 . S
C1194 C1193 1.362 . S
C1194 C1197 1.409 . S
C1195 H1187 0.930 . S
C1195 C1196 1.355 . S
C1195 C1197 1.415 . S
C1196 C1195 1.355 . S
C1196 C1198 1.419 . S
C1197 C1192 1.425 . S
C1197 C1194 1.409 . S
C1197 C1195 1.415 . S
C1198 H1188 0.930 . S
C1198 C1196 1.419 . S
C1198 C1199 1.362 . S
C1199 H1189 0.930 . S
C1199 C1192 1.409 . S
C1199 C1198 1.362 . S
H1200 C1206 0.930 . S
H1201 C1209 0.930 . S
H1202 C1210 0.936 . S
H1203 C1211 0.930 . S
H1204 C1214 0.930 . S
H1205 C1215 0.935 . S
C1206 H1200 0.930 . S
C1206 C1207 1.355 . S
C1206 C1208 1.415 . S
C1207 C1206 1.355 . S
C1207 C1209 1.419 . S
C1208 C1206 1.415 . S
C1208 C1213 1.425 1_566 S
C1208 C1215 1.408 1_556 S
C1209 H1201 0.930 . S
C1209 C1207 1.419 . S
C1209 C1210 1.358 1_565 S
C1210 H1202 0.936 . S
C1210 C1209 1.358 1_545 S
C1210 C1213 1.408 1_556 S
C1211 H1203 0.930 . S
C1211 C1212 1.355 . S
C1211 C1213 1.415 . S
C1212 C1211 1.355 . S
C1212 C1214 1.419 . S
C1213 C1208 1.425 1_544 S
C1213 C1210 1.408 1_554 S
C1213 C1211 1.415 . S
C1214 H1204 0.930 . S
C1214 C1212 1.419 . S
C1214 C1215 1.358 1_545 S
C1215 H1205 0.935 . S
C1215 C1208 1.408 1_554 S
C1215 C1214 1.358 1_565 S
H1216 C1222 0.930 . S
H1217 C1225 0.930 . S
H1218 C1226 0.930 . S
H1219 C1227 0.930 . S
H1220 C1230 0.930 . S
H1221 C1231 0.930 . S
C1222 H1216 0.930 . S
C1222 C1223 1.355 . S
C1222 C1224 1.415 . S
C1223 C1222 1.355 . S
C1223 C1225 1.419 . S
C1224 C1222 1.415 . S
C1224 C1229 1.425 . S
C1224 C1231 1.409 . S
C1225 H1217 0.930 . S
C1225 C1223 1.419 . S
C1225 C1226 1.362 . S
C1226 H1218 0.930 . S
C1226 C1225 1.362 . S
C1226 C1229 1.409 . S
C1227 H1219 0.930 . S
C1227 C1228 1.355 . S
C1227 C1229 1.415 . S
C1228 C1227 1.355 . S
C1228 C1230 1.419 . S
C1229 C1224 1.425 . S
C1229 C1226 1.409 . S
C1229 C1227 1.415 . S
C1230 H1220 0.930 . S
C1230 C1228 1.419 . S
C1230 C1231 1.362 . S
C1231 H1221 0.930 . S
C1231 C1224 1.409 . S
C1231 C1230 1.362 . S
H1232 C1238 0.930 . S
H1233 C1241 0.935 . S
H1234 C1242 0.930 . S
H1235 C1243 0.930 . S
H1236 C1246 0.934 . S
H1237 C1247 0.930 . S
C1238 H1232 0.930 . S
C1238 C1239 1.355 . S
C1238 C1240 1.415 . S
C1239 C1238 1.355 . S
C1239 C1241 1.419 . S
C1240 C1238 1.415 . S
C1240 C1245 1.425 1_455 S
C1240 C1247 1.409 . S
C1241 H1233 0.935 . S
C1241 C1239 1.419 . S
C1241 C1242 1.362 1_455 S
C1242 H1234 0.930 . S
C1242 C1241 1.362 1_655 S
C1242 C1245 1.409 . S
C1243 H1235 0.930 . S
C1243 C1244 1.355 . S
C1243 C1245 1.415 . S
C1244 C1243 1.355 . S
C1244 C1246 1.419 . S
C1245 C1240 1.425 1_655 S
C1245 C1242 1.409 . S
C1245 C1243 1.415 . S
C1246 H1236 0.934 . S
C1246 C1244 1.419 . S
C1246 C1247 1.362 1_655 S
C1247 H1237 0.930 . S
C1247 C1240 1.409 . S
C1247 C1246 1.362 1_455 S
H1248 C1254 0.930 . S
H1249 C1257 0.930 . S
H1250 C1258 0.930 . S
H1251 C1259 0.930 . S
H1252 C1262 0.930 . S
H1253 C1263 0.930 . S
C1254 H1248 0.930 . S
C1254 C1255 1.355 . S
C1254 C1256 1.415 1_554 S
C1255 C1254 1.355 . S
C1255 C1257 1.419 . S
C1256 C1254 1.415 1_556 S
C1256 C1261 1.425 1_566 S
C1256 C1263 1.409 . S
C1257 H1249 0.930 . S
C1257 C1255 1.419 . S
C1257 C1258 1.362 1_565 S
C1258 H1250 0.930 . S
C1258 C1257 1.362 1_545 S
C1258 C1261 1.409 . S
C1259 H1251 0.930 . S
C1259 C1260 1.355 . S
C1259 C1261 1.415 1_556 S
C1260 C1259 1.355 . S
C1260 C1262 1.419 . S
C1261 C1256 1.425 1_544 S
C1261 C1258 1.409 . S
C1261 C1259 1.415 1_554 S
C1262 H1252 0.930 . S
C1262 C1260 1.419 . S
C1262 C1263 1.362 1_545 S
C1263 H1253 0.930 . S
C1263 C1256 1.409 . S
C1263 C1262 1.362 1_565 S
H1264 C1270 0.930 . S
H1265 C1273 0.930 . S
H1266 C1274 0.930 . S
H1267 C1275 0.930 . S
H1268 C1278 0.930 . S
H1269 C1279 0.930 . S
C1270 H1264 0.930 . S
C1270 C1271 1.355 . S
C1270 C1272 1.415 . S
C1271 C1270 1.355 . S
C1271 C1273 1.419 . S
C1272 C1270 1.415 . S
C1272 C1277 1.425 . S
C1272 C1279 1.409 . S
C1273 H1265 0.930 . S
C1273 C1271 1.419 . S
C1273 C1274 1.362 . S
C1274 H1266 0.930 . S
C1274 C1273 1.362 . S
C1274 C1277 1.409 . S
C1275 H1267 0.930 . S
C1275 C1276 1.355 . S
C1275 C1277 1.415 . S
C1276 C1275 1.355 . S
C1276 C1278 1.419 . S
C1277 C1272 1.425 . S
C1277 C1274 1.409 . S
C1277 C1275 1.415 . S
C1278 H1268 0.930 . S
C1278 C1276 1.419 . S
C1278 C1279 1.362 . S
C1279 H1269 0.930 . S
C1279 C1272 1.409 . S
C1279 C1278 1.362 . S
H1280 C1286 0.930 1_655 S
H1281 C1289 0.930 . S
H1282 C1290 0.930 . S
H1283 C1291 0.930 1_455 S
H1284 C1294 0.930 . S
H1285 C1295 0.930 . S
C1286 H1280 0.930 1_455 S
C1286 C1287 1.355 . S
C1286 C1288 1.415 1_455 S
C1287 C1286 1.355 . S
C1287 C1289 1.419 . S
C1288 C1286 1.415 1_655 S
C1288 C1293 1.425 1_655 S
C1288 C1295 1.409 . S
C1289 H1281 0.930 . S
C1289 C1287 1.419 . S
C1289 C1290 1.362 . S
C1290 H1282 0.930 . S
C1290 C1289 1.362 . S
C1290 C1293 1.409 . S
C1291 H1283 0.930 1_655 S
C1291 C1292 1.355 . S
C1291 C1293 1.415 1_655 S
C1292 C1291 1.355 . S
C1292 C1294 1.419 . S
C1293 C1288 1.425 1_455 S
C1293 C1290 1.409 . S
C1293 C1291 1.415 1_455 S
C1294 H1284 0.930 . S
C1294 C1292 1.419 . S
C1294 C1295 1.362 . S
C1295 H1285 0.930 . S
C1295 C1288 1.409 . S
C1295 C1294 1.362 . S
H1296 C1302 0.930 . S
H1297 C1305 0.930 . S
H1298 C1306 0.930 . S
H1299 C1307 0.930 . S
H1300 C1310 0.930 . S
H1301 C1311 0.930 . S
C1302 H1296 0.930 . S
C1302 C1303 1.355 . S
C1302 C1304 1.415 . S
C1303 C1302 1.355 . S
C1303 C1305 1.419 . S
C1304 C1302 1.415 . S
C1304 C1309 1.425 1_545 S
C1304 C1311 1.409 . S
C1305 H1297 0.930 . S
C1305 C1303 1.419 . S
C1305 C1306 1.362 1_545 S
C1306 H1298 0.930 . S
C1306 C1305 1.362 1_565 S
C1306 C1309 1.409 . S
C1307 H1299 0.930 . S
C1307 C1308 1.355 . S
C1307 C1309 1.415 . S
C1308 C1307 1.355 . S
C1308 C1310 1.419 . S
C1309 C1304 1.425 1_565 S
C1309 C1306 1.409 . S
C1309 C1307 1.415 . S
C1310 H1300 0.930 . S
C1310 C1308 1.419 . S
C1310 C1311 1.362 1_565 S
C1311 H1301 0.930 . S
C1311 C1304 1.409 . S
C1311 C1310 1.362 1_545 S
H1312 C1318 0.930 . S
H1313 C1321 0.930 . S
H1314 C1322 0.930 . S
H1315 C1323 0.930 . S
H1316 C1326 0.930 . S
H1317 C1327 0.930 . S
C1318 H1312 0.930 . S
C1318 C1319 1.355 . S
C1318 C1320 1.415 . S
C1319 C1318 1.355 . S
C1319 C1321 1.419 . S
C1320 C1318 1.415 . S
C1320 C1325 1.425 . S
C1320 C1327 1.409 . S
C1321 H1313 0.930 . S
C1321 C1319 1.419 . S
C1321 C1322 1.362 . S
C1322 H1314 0.930 . S
C1322 C1321 1.362 . S
C1322 C1325 1.409 . S
C1323 H1315 0.930 . S
C1323 C1324 1.355 . S
C1323 C1325 1.415 . S
C1324 C1323 1.355 . S
C1324 C1326 1.419 . S
C1325 C1320 1.425 . S
C1325 C1322 1.409 . S
C1325 C1323 1.415 . S
C1326 H1316 0.930 . S
C1326 C1324 1.419 . S
C1326 C1327 1.362 . S
C1327 H1317 0.930 . S
C1327 C1320 1.409 . S
C1327 C1326 1.362 . S
H1328 C1334 0.930 . S
H1329 C1337 0.930 1_554 S
H1330 C1338 0.930 1_454 S
H1331 C1339 0.930 . S
H1332 C1342 0.930 . S
H1333 C1343 0.930 1_655 S
C1334 H1328 0.930 . S
C1334 C1335 1.355 . S
C1334 C1336 1.415 . S
C1335 C1334 1.355 . S
C1335 C1337 1.419 . S
C1336 C1334 1.415 . S
C1336 C1341 1.425 1_655 S
C1336 C1343 1.409 1_655 S
C1337 H1329 0.930 1_556 S
C1337 C1335 1.419 . S
C1337 C1338 1.362 . S
C1338 H1330 0.930 1_656 S
C1338 C1337 1.362 . S
C1338 C1341 1.409 1_655 S
C1339 H1331 0.930 . S
C1339 C1340 1.355 . S
C1339 C1341 1.415 . S
C1340 C1339 1.355 . S
C1340 C1342 1.419 . S
C1341 C1336 1.425 1_455 S
C1341 C1338 1.409 1_455 S
C1341 C1339 1.415 . S
C1342 H1332 0.930 . S
C1342 C1340 1.419 . S
C1342 C1343 1.362 . S
C1343 H1333 0.930 1_455 S
C1343 C1336 1.409 1_455 S
C1343 C1342 1.362 . S
H1344 C1350 0.930 . S
H1345 C1353 0.930 . S
H1346 C1354 0.930 1_655 S
H1347 C1355 0.930 . S
H1348 C1358 0.930 . S
H1349 C1359 0.930 1_455 S
C1350 H1344 0.930 . S
C1350 C1351 1.355 . S
C1350 C1352 1.415 . S
C1351 C1350 1.355 . S
C1351 C1353 1.419 . S
C1352 C1350 1.415 . S
C1352 C1357 1.425 1_455 S
C1352 C1359 1.409 1_455 S
C1353 H1345 0.930 . S
C1353 C1351 1.419 . S
C1353 C1354 1.362 . S
C1354 H1346 0.930 1_455 S
C1354 C1353 1.362 . S
C1354 C1357 1.409 1_455 S
C1355 H1347 0.930 . S
C1355 C1356 1.355 . S
C1355 C1357 1.415 . S
C1356 C1355 1.355 . S
C1356 C1358 1.419 . S
C1357 C1352 1.425 1_655 S
C1357 C1354 1.409 1_655 S
C1357 C1355 1.415 . S
C1358 H1348 0.930 . S
C1358 C1356 1.419 . S
C1358 C1359 1.362 . S
C1359 H1349 0.930 1_655 S
C1359 C1352 1.409 1_655 S
C1359 C1358 1.362 . S
H1360 C1366 0.930 . S
H1361 C1369 0.930 . S
H1362 C1370 0.930 . S
H1363 C1371 0.930 . S
H1364 C1374 0.930 . S
H1365 C1375 0.930 . S
C1366 H1360 0.930 . S
C1366 C1367 1.355 . S
C1366 C1368 1.415 . S
C1367 C1366 1.355 . S
C1367 C1369 1.419 . S
C1368 C1366 1.415 . S
C1368 C1373 1.425 1_565 S
C1368 C1375 1.409 1_565 S
C1369 H1361 0.930 . S
C1369 C1367 1.419 . S
C1369 C1370 1.362 . S
C1370 H1362 0.930 . S
C1370 C1369 1.362 . S
C1370 C1373 1.409 1_565 S
C1371 H1363 0.930 . S
C1371 C1372 1.355 . S
C1371 C1373 1.415 . S
C1372 C1371 1.355 . S
C1372 C1374 1.419 . S
C1373 C1368 1.425 1_545 S
C1373 C1370 1.409 1_545 S
C1373 C1371 1.415 . S
C1374 H1364 0.930 . S
C1374 C1372 1.419 . S
C1374 C1375 1.362 . S
C1375 H1365 0.930 . S
C1375 C1368 1.409 1_545 S
C1375 C1374 1.362 . S
H1376 C1382 0.930 . S
H1377 C1385 0.930 . S
H1378 C1386 0.930 . S
H1379 C1387 0.930 . S
H1380 C1390 0.930 . S
H1381 C1391 0.930 . S
C1382 H1376 0.930 . S
C1382 C1383 1.355 . S
C1382 C1384 1.415 . S
C1383 C1382 1.355 . S
C1383 C1385 1.419 . S
C1384 C1382 1.415 . S
C1384 C1389 1.425 . S
C1384 C1391 1.409 . S
C1385 H1377 0.930 . S
C1385 C1383 1.419 . S
C1385 C1386 1.362 . S
C1386 H1378 0.930 . S
C1386 C1385 1.362 . S
C1386 C1389 1.409 . S
C1387 H1379 0.930 . S
C1387 C1388 1.355 . S
C1387 C1389 1.415 . S
C1388 C1387 1.355 . S
C1388 C1390 1.419 . S
C1389 C1384 1.425 . S
C1389 C1386 1.409 . S
C1389 C1387 1.415 . S
C1390 H1380 0.930 . S
C1390 C1388 1.419 . S
C1390 C1391 1.362 . S
C1391 H1381 0.930 . S
C1391 C1384 1.409 . S
C1391 C1390 1.362 . S
H1392 C1398 0.930 . S
H1393 C1401 0.930 . S
H1394 C1402 0.930 . S
H1395 C1403 0.930 . S
H1396 C1406 0.930 . S
H1397 C1407 0.930 . S
C1398 H1392 0.930 . S
C1398 C1399 1.355 . S
C1398 C1400 1.415 1_565 S
C1399 C1398 1.355 . S
C1399 C1401 1.419 . S
C1400 C1398 1.415 1_545 S
C1400 C1405 1.425 1_545 S
C1400 C1407 1.409 . S
C1401 H1393 0.930 . S
C1401 C1399 1.419 . S
C1401 C1402 1.362 . S
C1402 H1394 0.930 . S
C1402 C1401 1.362 . S
C1402 C1405 1.409 . S
C1403 H1395 0.930 . S
C1403 C1404 1.355 . S
C1403 C1405 1.415 1_545 S
C1404 C1403 1.355 . S
C1404 C1406 1.419 . S
C1405 C1400 1.425 1_565 S
C1405 C1402 1.409 . S
C1405 C1403 1.415 1_565 S
C1406 H1396 0.930 . S
C1406 C1404 1.419 . S
C1406 C1407 1.362 . S
C1407 H1397 0.930 . S
C1407 C1400 1.409 . S
C1407 C1406 1.362 . S
H1408 C1414 0.930 . S
H1409 C1417 0.930 . S
H1410 C1418 0.930 . S
H1411 C1419 0.930 . S
H1412 C1422 0.930 . S
H1413 C1423 0.930 . S
C1414 H1408 0.930 . S
C1414 C1415 1.355 . S
C1414 C1416 1.415 . S
C1415 C1414 1.355 . S
C1415 C1417 1.419 . S
C1416 C1414 1.415 . S
C1416 C1421 1.425 . S
C1416 C1423 1.409 . S
C1417 H1409 0.930 . S
C1417 C1415 1.419 . S
C1417 C1418 1.362 . S
C1418 H1410 0.930 . S
C1418 C1417 1.362 . S
C1418 C1421 1.409 . S
C1419 H1411 0.930 . S
C1419 C1420 1.355 . S
C1419 C1421 1.415 . S
C1420 C1419 1.355 . S
C1420 C1422 1.419 . S
C1421 C1416 1.425 . S
C1421 C1418 1.409 . S
C1421 C1419 1.415 . S
C1422 H1412 0.930 . S
C1422 C1420 1.419 . S
C1422 C1423 1.362 . S
C1423 H1413 0.930 . S
C1423 C1416 1.409 . S
C1423 C1422 1.362 . S
H1424 C1430 0.930 . S
H1425 C1433 0.930 . S
H1426 C1434 0.930 . S
H1427 C1435 0.930 . S
H1428 C1438 0.930 . S
H1429 C1439 0.930 . S
C1430 H1424 0.930 . S
C1430 C1431 1.355 . S
C1430 C1432 1.415 1_655 S
C1431 C1430 1.355 . S
C1431 C1433 1.419 . S
C1432 C1430 1.415 1_455 S
C1432 C1437 1.425 1_455 S
C1432 C1439 1.409 . S
C1433 H1425 0.930 . S
C1433 C1431 1.419 . S
C1433 C1434 1.362 . S
C1434 H1426 0.930 . S
C1434 C1433 1.362 . S
C1434 C1437 1.409 . S
C1435 H1427 0.930 . S
C1435 C1436 1.355 . S
C1435 C1437 1.415 1_455 S
C1436 C1435 1.355 . S
C1436 C1438 1.419 . S
C1437 C1432 1.425 1_655 S
C1437 C1434 1.409 . S
C1437 C1435 1.415 1_655 S
C1438 H1428 0.930 . S
C1438 C1436 1.419 . S
C1438 C1439 1.362 . S
C1439 H1429 0.930 . S
C1439 C1432 1.409 . S
C1439 C1438 1.362 . S
H1440 C1446 0.930 . S
H1441 C1449 0.930 . S
H1442 C1450 0.930 . S
H1443 C1451 0.930 . S
H1444 C1454 0.930 . S
H1445 C1455 0.930 . S
C1446 H1440 0.930 . S
C1446 C1447 1.355 . S
C1446 C1448 1.415 1_545 S
C1447 C1446 1.355 . S
C1447 C1449 1.419 . S
C1448 C1446 1.415 1_565 S
C1448 C1453 1.425 1_565 S
C1448 C1455 1.409 . S
C1449 H1441 0.930 . S
C1449 C1447 1.419 . S
C1449 C1450 1.362 . S
C1450 H1442 0.930 . S
C1450 C1449 1.362 . S
C1450 C1453 1.409 . S
C1451 H1443 0.930 . S
C1451 C1452 1.355 . S
C1451 C1453 1.415 1_565 S
C1452 C1451 1.355 . S
C1452 C1454 1.419 . S
C1453 C1448 1.425 1_545 S
C1453 C1450 1.409 . S
C1453 C1451 1.415 1_545 S
C1454 H1444 0.930 . S
C1454 C1452 1.419 . S
C1454 C1455 1.362 . S
C1455 H1445 0.930 . S
C1455 C1448 1.409 . S
C1455 C1454 1.362 . S
H1456 C1462 0.930 . S
H1457 C1465 0.930 . S
H1458 C1466 0.930 . S
H1459 C1467 0.930 . S
H1460 C1470 0.930 . S
H1461 C1471 0.930 . S
C1462 H1456 0.930 . S
C1462 C1463 1.355 . S
C1462 C1464 1.415 . S
C1463 C1462 1.355 . S
C1463 C1465 1.419 . S
C1464 C1462 1.415 . S
C1464 C1469 1.425 . S
C1464 C1471 1.409 . S
C1465 H1457 0.930 . S
C1465 C1463 1.419 . S
C1465 C1466 1.362 . S
C1466 H1458 0.930 . S
C1466 C1465 1.362 . S
C1466 C1469 1.409 . S
C1467 H1459 0.930 . S
C1467 C1468 1.355 . S
C1467 C1469 1.415 . S
C1468 C1467 1.355 . S
C1468 C1470 1.419 . S
C1469 C1464 1.425 . S
C1469 C1466 1.409 . S
C1469 C1467 1.415 . S
C1470 H1460 0.930 . S
C1470 C1468 1.419 . S
C1470 C1471 1.362 . S
C1471 H1461 0.930 . S
C1471 C1464 1.409 . S
C1471 C1470 1.362 . S
H1472 C1478 0.930 . S
H1473 C1481 0.930 . S
H1474 C1482 0.930 . S
H1475 C1483 0.930 . S
H1476 C1486 0.930 . S
H1477 C1487 0.930 . S
C1478 H1472 0.930 . S
C1478 C1479 1.355 . S
C1478 C1480 1.439 . S
C1479 C1478 1.355 . S
C1479 C1481 1.419 . S
C1480 C1478 1.439 . S
C1480 C1485 1.441 1_455 S
C1480 C1487 1.371 1_455 S
C1481 H1473 0.930 . S
C1481 C1479 1.419 . S
C1481 C1482 1.362 . S
C1482 H1474 0.930 . S
C1482 C1481 1.362 . S
C1482 C1485 1.409 1_455 S
C1483 H1475 0.930 . S
C1483 C1484 1.355 . S
C1483 C1485 1.415 . S
C1484 C1483 1.355 . S
C1484 C1486 1.419 . S
C1485 C1480 1.441 1_655 S
C1485 C1482 1.409 1_655 S
C1485 C1483 1.415 . S
C1486 H1476 0.930 . S
C1486 C1484 1.419 . S
C1486 C1487 1.362 . S
C1487 H1477 0.930 . S
C1487 C1480 1.371 1_655 S
C1487 C1486 1.362 . S
H1488 C1494 0.930 . S
H1489 C1497 0.930 . S
H1490 C1498 0.930 . S
H1491 C1499 0.930 . S
H1492 C1502 0.930 . S
H1493 C1503 0.930 . S
C1494 H1488 0.930 . S
C1494 C1495 1.355 . S
C1494 C1496 1.415 . S
C1495 C1494 1.355 . S
C1495 C1497 1.419 . S
C1496 C1494 1.415 . S
C1496 C1501 1.425 . S
C1496 C1503 1.409 . S
C1497 H1489 0.930 . S
C1497 C1495 1.419 . S
C1497 C1498 1.362 . S
C1498 H1490 0.930 . S
C1498 C1497 1.362 . S
C1498 C1501 1.409 . S
C1499 H1491 0.930 . S
C1499 C1500 1.355 . S
C1499 C1501 1.415 . S
C1500 C1499 1.355 . S
C1500 C1502 1.419 . S
C1501 C1496 1.425 . S
C1501 C1498 1.409 . S
C1501 C1499 1.415 . S
C1502 H1492 0.930 . S
C1502 C1500 1.419 . S
C1502 C1503 1.362 . S
C1503 H1493 0.930 . S
C1503 C1496 1.409 . S
C1503 C1502 1.362 . S
H1504 C1510 0.930 . S
H1505 C1513 0.930 . S
H1506 C1514 0.930 . S
H1507 C1515 0.930 . S
H1508 C1518 0.930 . S
H1509 C1519 0.930 . S
C1510 H1504 0.930 . S
C1510 C1511 1.355 . S
C1510 C1512 1.415 . S
C1511 C1510 1.355 . S
C1511 C1513 1.419 . S
C1512 C1510 1.415 . S
C1512 C1517 1.425 . S
C1512 C1519 1.409 . S
C1513 H1505 0.930 . S
C1513 C1511 1.419 . S
C1513 C1514 1.362 . S
C1514 H1506 0.930 . S
C1514 C1513 1.362 . S
C1514 C1517 1.409 . S
C1515 H1507 0.930 . S
C1515 C1516 1.355 . S
C1515 C1517 1.415 . S
C1516 C1515 1.355 . S
C1516 C1518 1.419 . S
C1517 C1512 1.425 . S
C1517 C1514 1.409 . S
C1517 C1515 1.415 . S
C1518 H1508 0.930 . S
C1518 C1516 1.419 . S
C1518 C1519 1.362 . S
C1519 H1509 0.930 . S
C1519 C1512 1.409 . S
C1519 C1518 1.362 . S
H1520 C1526 0.930 . S
H1521 C1529 0.930 . S
H1522 C1530 0.930 . S
H1523 C1531 0.930 . S
H1524 C1534 0.930 . S
H1525 C1535 0.930 . S
C1526 H1520 0.930 . S
C1526 C1527 1.355 . S
C1526 C1528 1.415 . S
C1527 C1526 1.355 . S
C1527 C1529 1.419 . S
C1528 C1526 1.415 . S
C1528 C1533 1.425 . S
C1528 C1535 1.409 . S
C1529 H1521 0.930 . S
C1529 C1527 1.419 . S
C1529 C1530 1.362 . S
C1530 H1522 0.930 . S
C1530 C1529 1.362 . S
C1530 C1533 1.409 . S
C1531 H1523 0.930 . S
C1531 C1532 1.355 . S
C1531 C1533 1.415 . S
C1532 C1531 1.355 . S
C1532 C1534 1.419 . S
C1533 C1528 1.425 . S
C1533 C1530 1.409 . S
C1533 C1531 1.415 . S
C1534 H1524 0.930 . S
C1534 C1532 1.419 . S
C1534 C1535 1.362 . S
C1535 H1525 0.930 . S
C1535 C1528 1.409 . S
C1535 C1534 1.362 . S
H1536 C1542 0.930 . S
H1537 C1545 0.930 . S
H1538 C1546 0.930 . S
H1539 C1547 0.930 . S
H1540 C1550 0.930 . S
H1541 C1551 0.930 . S
C1542 H1536 0.930 . S
C1542 C1543 1.355 . S
C1542 C1544 1.415 . S
C1543 C1542 1.355 . S
C1543 C1545 1.419 . S
C1544 C1542 1.415 . S
C1544 C1549 1.425 . S
C1544 C1551 1.409 . S
C1545 H1537 0.930 . S
C1545 C1543 1.419 . S
C1545 C1546 1.362 . S
C1546 H1538 0.930 . S
C1546 C1545 1.362 . S
C1546 C1549 1.409 . S
C1547 H1539 0.930 . S
C1547 C1548 1.355 . S
C1547 C1549 1.415 . S
C1548 C1547 1.355 . S
C1548 C1550 1.419 . S
C1549 C1544 1.425 . S
C1549 C1546 1.409 . S
C1549 C1547 1.415 . S
C1550 H1540 0.930 . S
C1550 C1548 1.419 . S
C1550 C1551 1.362 . S
C1551 H1541 0.930 . S
C1551 C1544 1.409 . S
C1551 C1550 1.362 . S
H1552 C1558 0.930 . S
H1553 C1561 0.930 . S
H1554 C1562 0.930 . S
H1555 C1563 0.930 . S
H1556 C1566 0.930 . S
H1557 C1567 0.930 . S
C1558 H1552 0.930 . S
C1558 C1559 1.355 . S
C1558 C1560 1.415 . S
C1559 C1558 1.355 . S
C1559 C1561 1.419 . S
C1560 C1558 1.415 . S
C1560 C1565 1.425 . S
C1560 C1567 1.409 . S
C1561 H1553 0.930 . S
C1561 C1559 1.419 . S
C1561 C1562 1.362 . S
C1562 H1554 0.930 . S
C1562 C1561 1.362 . S
C1562 C1565 1.409 . S
C1563 H1555 0.930 . S
C1563 C1564 1.355 . S
C1563 C1565 1.415 . S
C1564 C1563 1.355 . S
C1564 C1566 1.419 . S
C1565 C1560 1.425 . S
C1565 C1562 1.409 . S
C1565 C1563 1.415 . S
C1566 H1556 0.930 . S
C1566 C1564 1.419 . S
C1566 C1567 1.362 . S
C1567 H1557 0.930 . S
C1567 C1560 1.409 . S
C1567 C1566 1.362 . S
H1568 C1574 0.930 . S
H1569 C1577 0.930 . S
H1570 C1578 0.930 . S
H1571 C1579 0.930 . S
H1572 C1582 0.930 . S
H1573 C1583 0.930 . S
C1574 H1568 0.930 . S
C1574 C1575 1.355 . S
C1574 C1576 1.415 . S
C1575 C1574 1.355 . S
C1575 C1577 1.419 . S
C1576 C1574 1.415 . S
C1576 C1581 1.425 . S
C1576 C1583 1.409 . S
C1577 H1569 0.930 . S
C1577 C1575 1.419 . S
C1577 C1578 1.362 . S
C1578 H1570 0.930 . S
C1578 C1577 1.362 . S
C1578 C1581 1.409 . S
C1579 H1571 0.930 . S
C1579 C1580 1.355 . S
C1579 C1581 1.415 . S
C1580 C1579 1.355 . S
C1580 C1582 1.419 . S
C1581 C1576 1.425 . S
C1581 C1578 1.409 . S
C1581 C1579 1.415 . S
C1582 H1572 0.930 . S
C1582 C1580 1.419 . S
C1582 C1583 1.362 . S
C1583 H1573 0.930 . S
C1583 C1576 1.409 . S
C1583 C1582 1.362 . S
C1015 C63 1.163 . S
C1020 C735 1.173 . S
C1031 C147 1.177 . S
C1036 C819 1.170 . S
C1047 C231 1.151 . S
C1052 C903 1.148 . S
C1063 C987 1.175 . S
C1068 C315 1.177 . S
C1079 C399 1.177 . S
C1084 C567 1.174 . S
C1095 C651 1.164 . S
C1100 C483 1.173 . S
C1111 C898 1.609 . S
C1116 C58 1.513 . S
C1127 C982 1.532 . S
C1132 C142 1.499 . S
C1143 C226 1.500 . S
C1148 C562 1.597 . S
C1159 C646 1.617 . S
C1164 C310 1.547 . S
C1175 C730 1.515 . S
C1180 C394 1.610 . S
C1191 C478 1.613 . S
C1196 C814 1.567 . S
C1207 C655 4.517 . S
C1212 C67 4.507 . S
C1223 C739 4.507 . S
C1228 C151 4.518 . S
C1239 C823 4.511 . S
C1244 C235 4.514 . S
C1255 C319 4.517 . S
C1260 C907 4.508 . S
C1271 C403 4.517 . S
C1276 C991 4.507 . S
C1287 C487 4.513 . S
C1292 C571 4.512 . S
C1303 C74 0.845 . S
C1308 C326 0.829 . S
C1319 C158 0.805 . S
C1324 C410 0.865 . S
C1335 C242 0.881 . S
C1340 C494 0.784 . S
C1351 C830 0.873 . S
C1356 C578 0.796 . S
C1367 C662 0.891 . S
C1372 C914 0.761 . S
C1383 C998 0.866 . S
C1388 C746 0.777 . S
C1399 C657 0.503 . S
C1404 C69 0.597 . S
C1415 C741 0.582 . S
C1420 C153 0.520 . S
C1431 C237 0.481 . S
C1436 C825 0.616 . S
C1447 C909 0.534 . S
C1452 C321 0.570 . S
C1463 C993 0.625 . S
C1468 C405 0.470 . S
C1479 C489 0.606 . S
C1484 C573 0.492 . S
C1495 C56 3.639 . S
C1500 C896 3.669 . S
C1511 C140 3.654 . S
C1516 C980 3.657 1_556 S
C1527 C224 3.667 1_554 S
C1532 C560 3.643 . S
C1543 C308 3.655 . S
C1548 C644 3.656 . S
C1559 C392 3.666 . S
C1564 C728 3.644 1_556 S
C1575 C812 3.638 . S
C1580 C476 3.669 1_554 S
