# Generated by pormake.
# Topology umf, (4)-cn, num edge types: 1
# Building blocks:
#     Node 0, Type 0, BuildingBlock: QUQFOY_clean_sbu_1, # of connection points: 4
#     Node 1, Type 0, BuildingBlock: QUQFOY_clean_sbu_1, # of connection points: 4
#     Node 2, Type 0, BuildingBlock: QUQFOY_clean_sbu_1, # of connection points: 4
#     Node 3, Type 0, BuildingBlock: QUQFOY_clean_sbu_1, # of connection points: 4
#     Node 4, Type 0, BuildingBlock: QUQFOY_clean_sbu_1, # of connection points: 4
#     Node 5, Type 0, BuildingBlock: QUQFOY_clean_sbu_1, # of connection points: 4
#     Node 6, Type 0, BuildingBlock: QUQFOY_clean_sbu_1, # of connection points: 4
#     Node 7, Type 0, BuildingBlock: QUQFOY_clean_sbu_1, # of connection points: 4
#     Edge 8, Type (0, 0), BuildingBlock: MIFKUJ_clean_linker_0, # of connection points: 2
#     Edge 9, Type (0, 0), BuildingBlock: MIFKUJ_clean_linker_0, # of connection points: 2
#     Edge 10, Type (0, 0), BuildingBlock: MIFKUJ_clean_linker_0, # of connection points: 2
#     Edge 11, Type (0, 0), BuildingBlock: MIFKUJ_clean_linker_0, # of connection points: 2
#     Edge 12, Type (0, 0), BuildingBlock: MIFKUJ_clean_linker_0, # of connection points: 2
#     Edge 13, Type (0, 0), BuildingBlock: MIFKUJ_clean_linker_0, # of connection points: 2
#     Edge 14, Type (0, 0), BuildingBlock: MIFKUJ_clean_linker_0, # of connection points: 2
#     Edge 15, Type (0, 0), BuildingBlock: MIFKUJ_clean_linker_0, # of connection points: 2
#     Edge 16, Type (0, 0), BuildingBlock: MIFKUJ_clean_linker_0, # of connection points: 2
#     Edge 17, Type (0, 0), BuildingBlock: MIFKUJ_clean_linker_0, # of connection points: 2
#     Edge 18, Type (0, 0), BuildingBlock: MIFKUJ_clean_linker_0, # of connection points: 2
#     Edge 19, Type (0, 0), BuildingBlock: MIFKUJ_clean_linker_0, # of connection points: 2
#     Edge 20, Type (0, 0), BuildingBlock: MIFKUJ_clean_linker_0, # of connection points: 2
#     Edge 21, Type (0, 0), BuildingBlock: MIFKUJ_clean_linker_0, # of connection points: 2
#     Edge 22, Type (0, 0), BuildingBlock: MIFKUJ_clean_linker_0, # of connection points: 2
#     Edge 23, Type (0, 0), BuildingBlock: MIFKUJ_clean_linker_0, # of connection points: 2
# Relax obj value: 0.062
# Max RMSD: 0.219
# Mean RMSD: 0.219
data_MOF--net-umf--node1-QUQFOY_clean_sbu_1--edge1-MIFKUJ_clean_linker_0
_symmetry_space_group_name_H-M    P1
_symmetry_Int_Tables_number       1
_symmetry_cell_setting            triclinic
loop_
_symmetry_equiv_pos_as_xyz
'x, y, z'
_cell_length_a     37.824449
_cell_length_b     37.827633
_cell_length_c     69.232853
_cell_angle_alpha  90.019335
_cell_angle_beta   89.923279
_cell_angle_gamma 89.841995
loop_
_atom_site_label
_atom_site_type_symbol
_atom_site_fract_x
_atom_site_fract_y
_atom_site_fract_z
_atom_type_partial_charge
O0 O 0.01006 0.25443 0.13541 0.0
Cd1 Cd 0.00729 0.25642 0.16506 0.0
Cd2 Cd 0.07294 0.2297 0.16097 0.0
O3 O 0.06706 0.24378 0.13175 0.0
O4 O 0.97357 0.29578 0.17121 0.0
O5 O 0.03053 0.29701 0.17856 0.0
C6 C 0.00028 0.31283 0.1781 0.0
C7 C 0.11855 0.24102 0.18286 0.0
C8 C 0.0368 0.25063 0.12445 0.0
C9 C 0.01606 0.18299 0.1781 0.0
O10 O 0.04622 0.18563 0.17015 0.0
O11 O 0.99529 0.20947 0.17901 0.0
O12 O 0.12289 0.21887 0.16883 0.0
O13 O 0.09008 0.25993 0.18287 0.0
O14 O 0.80862 0.05754 0.6659 0.0
Cd15 Cd 0.76396 0.08374 0.65739 0.0
Cd16 Cd 0.73644 0.01978 0.66453 0.0
O17 O 0.78259 0.01269 0.68045 0.0
O18 O 0.77348 0.13437 0.66484 0.0
O19 O 0.73544 0.09985 0.68002 0.0
C20 C 0.75301 0.12902 0.67953 0.0
C21 C 0.67877 0.01663 0.67668 0.0
C22 C 0.81019 0.03086 0.677 0.0
C23 C 0.74248 0.04242 0.62294 0.0
O24 O 0.74092 0.01692 0.6349 0.0
O25 O 0.74687 0.07401 0.62904 0.0
O26 O 0.69659 0.98816 0.67312 0.0
O27 O 0.69439 0.04652 0.67417 0.0
O28 O 0.97463 0.73963 0.1347 0.0
Cd29 Cd 0.97472 0.74226 0.16451 0.0
Cd30 Cd 0.90795 0.76212 0.15659 0.0
O31 O 0.91731 0.74198 0.12893 0.0
O32 O 0.01368 0.70916 0.17264 0.0
O33 O 0.95709 0.70001 0.17899 0.0
C34 C 0.98931 0.68893 0.17956 0.0
C35 C 0.8663 0.74787 0.18024 0.0
C36 C 0.94894 0.73772 0.12291 0.0
C37 C 0.95695 0.81707 0.17235 0.0
O38 O 0.92979 0.81047 0.16221 0.0
O39 O 0.97806 0.79221 0.17709 0.0
O40 O 0.85728 0.76641 0.16533 0.0
O41 O 0.89762 0.73428 0.1804 0.0
O42 O 0.17899 0.94127 0.66978 0.0
Cd43 Cd 0.22694 0.92086 0.66149 0.0
Cd44 Cd 0.24504 0.98855 0.66786 0.0
O45 O 0.19756 0.99097 0.68301 0.0
O46 O 0.22256 0.86921 0.6682 0.0
O47 O 0.25645 0.90656 0.6842 0.0
C48 C 0.24209 0.87575 0.68309 0.0
C49 C 0.30179 0.99644 0.68037 0.0
C50 C 0.17311 0.96855 0.68001 0.0
C51 C 0.24474 0.96375 0.62667 0.0
O52 O 0.24205 0.98979 0.63822 0.0
O53 O 0.24393 0.93213 0.63319 0.0
O54 O 0.28195 0.02342 0.67652 0.0
O55 O 0.28846 0.9654 0.67812 0.0
O56 O 0.01698 0.73909 0.90848 0.0
Cd57 Cd 0.01912 0.73678 0.87878 0.0
Cd58 Cd 0.08457 0.76111 0.88622 0.0
O59 O 0.0743 0.74263 0.91427 0.0
O60 O 0.98572 0.69876 0.86976 0.0
O61 O 0.04393 0.69462 0.86798 0.0
C62 C 0.01343 0.68022 0.86554 0.0
C63 C 0.12925 0.74883 0.86383 0.0
C64 C 0.04261 0.73885 0.92037 0.0
C65 C 0.03323 0.81082 0.86773 0.0
O66 O 0.06015 0.80734 0.87852 0.0
O67 O 0.01377 0.78428 0.86392 0.0
O68 O 0.13558 0.76859 0.87867 0.0
O69 O 0.09923 0.7328 0.86321 0.0
O70 O 0.18757 0.06544 0.38135 0.0
Cd71 Cd 0.23302 0.09086 0.38891 0.0
Cd72 Cd 0.26019 0.02638 0.38183 0.0
O73 O 0.21236 0.01903 0.36747 0.0
O74 O 0.22481 0.14127 0.38068 0.0
O75 O 0.26128 0.10445 0.36577 0.0
C76 C 0.24463 0.13428 0.36591 0.0
C77 C 0.31629 0.01885 0.36807 0.0
C78 C 0.18514 0.03792 0.37094 0.0
C79 C 0.25731 0.05088 0.42339 0.0
O80 O 0.25921 0.02508 0.41162 0.0
O81 O 0.25093 0.08204 0.41714 0.0
O82 O 0.29737 0.99187 0.37289 0.0
O83 O 0.30251 0.04983 0.37017 0.0
O84 O 0.98898 0.24408 0.90781 0.0
Cd85 Cd 0.98857 0.24716 0.87814 0.0
Cd86 Cd 0.92137 0.22597 0.88387 0.0
O87 O 0.93122 0.2418 0.91253 0.0
O88 O 0.02225 0.28523 0.86959 0.0
O89 O 0.96407 0.28962 0.86759 0.0
C90 C 0.99467 0.30399 0.86542 0.0
C91 C 0.87611 0.23967 0.86208 0.0
C92 C 0.9626 0.24446 0.91924 0.0
C93 C 0.97197 0.17473 0.8654 0.0
O94 O 0.94394 0.17934 0.87521 0.0
O95 O 0.99371 0.19999 0.86296 0.0
O96 O 0.8702 0.21924 0.87669 0.0
O97 O 0.90609 0.25578 0.86143 0.0
O98 O 0.8161 0.93629 0.37728 0.0
Cd99 Cd 0.76922 0.91324 0.38495 0.0
Cd100 Cd 0.74712 0.98045 0.37876 0.0
O101 O 0.79591 0.98644 0.36518 0.0
O102 O 0.77629 0.86204 0.37777 0.0
O103 O 0.74051 0.89821 0.36208 0.0
C104 C 0.75635 0.86802 0.36296 0.0
C105 C 0.69148 0.9876 0.36465 0.0
C106 C 0.82125 0.96481 0.36802 0.0
C107 C 0.74674 0.95388 0.4199 0.0
O108 O 0.74678 0.98025 0.40849 0.0
O109 O 0.75164 0.92268 0.41329 0.0
O110 O 0.70984 0.0148 0.36976 0.0
O111 O 0.70579 0.95681 0.3665 0.0
H112 H 0.95568 0.36145 0.16269 0.0
H113 H 0.95644 0.42527 0.16744 0.0
H114 H 0.03749 0.41327 0.21088 0.0
H115 H 0.0387 0.34945 0.20489 0.0
H116 H 0.94274 0.4694 0.19198 0.0
H117 H 0.08983 0.48434 0.21385 0.0
H118 H 0.14702 0.45411 0.20877 0.0
H119 H 0.1089 0.4104 0.1555 0.0
H120 H 0.05167 0.44069 0.16016 0.0
H121 H 0.95787 0.65099 0.20833 0.0
H122 H 0.96354 0.5874 0.21419 0.0
H123 H 0.04064 0.58017 0.16826 0.0
H124 H 0.03717 0.64403 0.16364 0.0
H125 H 0.05685 0.53361 0.19141 0.0
H126 H 0.94574 0.5642 0.16275 0.0
H127 H 0.88837 0.59499 0.16011 0.0
H128 H 0.85415 0.5478 0.21333 0.0
H129 H 0.91152 0.51706 0.21639 0.0
C130 C 0.97344 0.37243 0.17337 0.0
C131 C 0.99726 0.35058 0.18334 0.0
C132 C 0.97387 0.40901 0.17613 0.0
C133 C 0.99754 0.42454 0.18927 0.0
C134 C 0.01978 0.40233 0.20018 0.0
C135 C 0.0202 0.36578 0.19693 0.0
C136 C -0.00054 0.4639 0.19093 0.0
C137 C 0.96778 0.48332 0.19189 0.0
C138 C 0.03197 0.48252 0.19049 0.0
C139 C 0.06636 0.46441 0.1875 0.0
C140 C 0.09371 0.46833 0.20104 0.0
C141 C 0.12611 0.45119 0.19824 0.0
C142 C 0.13153 0.43024 0.18186 0.0
C143 C 0.10462 0.42652 0.16821 0.0
C144 C 0.07219 0.44364 0.17094 0.0
C145 C 0.97672 0.63584 0.19991 0.0
C146 C 0.99703 0.65229 0.18552 0.0
C147 C 0.97968 0.59942 0.20308 0.0
C148 C 0.00161 0.5785 0.19123 0.0
C149 C 0.02339 0.59542 0.1776 0.0
C150 C 0.02142 0.63202 0.17494 0.0
C151 C 0.00012 0.53904 0.19194 0.0
C152 C 0.03186 0.51963 0.19159 0.0
C153 C 0.96761 0.52042 0.19174 0.0
C154 C 0.93303 0.53868 0.18991 0.0
C155 C 0.92603 0.56056 0.17394 0.0
C156 C 0.89353 0.57799 0.17236 0.0
C157 C 0.86767 0.57344 0.18658 0.0
C158 C 0.87423 0.55136 0.20236 0.0
C159 C 0.90673 0.53392 0.20402 0.0
H160 H 0.84252 0.58697 0.18534 0.0
H161 H 0.15662 0.41696 0.17973 0.0
H162 H 0.34008 0.05773 0.68319 0.0
H163 H 0.40417 0.0632 0.68701 0.0
H164 H 0.41336 0.94988 0.69198 0.0
H165 H 0.34942 0.94425 0.68857 0.0
H166 H 0.45863 0.98112 0.71592 0.0
H167 H 0.42777 0.99137 0.64899 0.0
H168 H 0.39669 0.0157 0.62064 0.0
H169 H 0.44209 0.11771 0.63145 0.0
H170 H 0.47305 0.09409 0.66005 0.0
H171 H 0.63738 0.95823 0.68293 0.0
H172 H 0.57329 0.95687 0.68807 0.0
H173 H 0.5701 0.07082 0.68712 0.0
H174 H 0.63396 0.07245 0.68201 0.0
H175 H 0.52198 0.04137 0.66253 0.0
H176 H 0.55684 0.02748 0.72878 0.0
H177 H 0.58896 0.00011 0.75591 0.0
H178 H 0.53719 0.90125 0.74495 0.0
H179 H 0.5051 0.92791 0.71756 0.0
C180 C 0.35567 0.03403 0.68544 0.0
C181 C 0.33964 0.00054 0.68541 0.0
C182 C 0.39234 0.03717 0.68751 0.0
C183 C 0.41369 0.00689 0.68942 0.0
C184 C 0.3975 0.97361 0.69046 0.0
C185 C 0.36089 0.97045 0.68845 0.0
C186 C 0.45293 0.00955 0.68914 0.0
C187 C 0.47249 0.99408 0.70418 0.0
C188 C 0.4711 0.02674 0.67392 0.0
C189 C 0.45239 0.04106 0.65679 0.0
C190 C 0.43087 0.01907 0.64543 0.0
C191 C 0.41332 0.03271 0.6293 0.0
C192 C 0.41735 0.06825 0.62429 0.0
C193 C 0.43895 0.09021 0.63538 0.0
C194 C 0.45651 0.07671 0.65155 0.0
C195 C 0.62311 0.983 0.68411 0.0
C196 C 0.6408 0.01543 0.68201 0.0
C197 C 0.58649 0.98219 0.68709 0.0
C198 C 0.5669 0.01377 0.68801 0.0
C199 C 0.58466 0.04615 0.68643 0.0
C200 C 0.62122 0.047 0.68357 0.0
C201 C 0.52769 0.0131 0.68934 0.0
C202 C 0.50812 0.02876 0.6744 0.0
C203 C 0.50964 0.99569 0.7045 0.0
C204 C 0.52881 0.97963 0.721 0.0
C205 C 0.55252 -0.00017 0.73205 0.0
C206 C 0.57068 0.98445 0.7475 0.0
C207 C 0.56519 0.94894 0.75213 0.0
C208 C 0.54145 0.92875 0.74134 0.0
C209 C 0.52324 0.94399 0.72586 0.0
H210 H 0.57927 0.93709 0.76409 0.0
H211 H 0.40383 0.07874 0.61178 0.0
H212 H 0.94093 0.3509 0.85934 0.0
H213 H 0.94531 0.41454 0.85456 0.0
H214 H 0.05913 0.4066 0.85424 0.0
H215 H 0.05492 0.34277 0.85961 0.0
H216 H 0.03907 0.45697 0.87768 0.0
H217 H 0.00977 0.42647 0.81256 0.0
H218 H 0.97541 0.39795 0.78666 0.0
H219 H 0.88321 0.45699 0.80339 0.0
H220 H 0.91689 0.48554 0.82956 0.0
H221 H 0.06735 0.63574 0.85563 0.0
H222 H 0.06449 0.57191 0.85078 0.0
H223 H 0.95127 0.57512 0.85795 0.0
H224 H 0.95383 0.63929 0.86273 0.0
H225 H 0.97273 0.52751 0.8293 0.0
H226 H 0.00056 0.55438 0.89546 0.0
H227 H 0.03416 0.58273 0.92171 0.0
H228 H 0.12872 0.52967 0.90303 0.0
H229 H 0.09576 0.5014 0.87647 0.0
C230 C 0.96694 0.36255 0.85796 0.0
C231 C 0.99761 0.34173 0.85991 0.0
C232 C 0.96939 0.39902 0.85511 0.0
C233 C 0.00255 0.41547 0.85385 0.0
C234 C 0.03324 0.39455 0.85516 0.0
C235 C 0.03081 0.35803 0.85815 0.0
C236 C 0.00513 0.45468 0.85273 0.0
C237 C 0.02514 0.47226 0.86682 0.0
C238 C 0.98609 0.47486 0.83895 0.0
C239 C 0.96581 0.45794 0.82313 0.0
C240 C 0.98211 0.4332 0.8108 0.0
C241 C 0.96276 0.41706 0.79606 0.0
C242 C 0.92713 0.4256 0.79341 0.0
C243 C 0.9108 0.45038 0.80547 0.0
C244 C 0.93003 0.46659 0.82024 0.0
C245 C 0.04172 0.62304 0.85588 0.0
C246 C 0.01082 0.64258 0.85976 0.0
C247 C 0.04018 0.5865 0.85314 0.0
C248 C 0.00775 0.5687 0.85431 0.0
C249 C 0.97658 0.58835 0.85704 0.0
C250 C 0.9781 0.625 0.8598 0.0
C251 C 0.0068 0.52945 0.85414 0.0
C252 C 0.98697 0.512 0.83995 0.0
C253 C 0.02595 0.50928 0.86783 0.0
C254 C 0.04578 0.52609 0.88385 0.0
C255 C 0.02858 0.54898 0.89686 0.0
C256 C 0.0475 0.565 0.91181 0.0
C257 C 0.08357 0.55809 0.91401 0.0
C258 C 0.10078 0.53506 0.90129 0.0
C259 C 0.082 0.51901 0.88629 0.0
H260 H 0.09817 0.57051 0.92559 0.0
H261 H 0.91219 0.41305 0.782 0.0
H262 H 0.35256 0.95749 0.36058 0.0
H263 H 0.41601 0.95091 0.35458 0.0
H264 H 0.42827 0.06421 0.35667 0.0
H265 H 0.36483 0.07102 0.36205 0.0
H266 H 0.47103 0.03807 0.33025 0.0
H267 H 0.44463 0.01106 0.39651 0.0
H268 H 0.41458 0.98021 0.42324 0.0
H269 H 0.45577 0.88087 0.40315 0.0
H270 H 0.4857 0.91111 0.37613 0.0
H271 H 0.65155 0.04803 0.36173 0.0
H272 H 0.58756 0.05206 0.35688 0.0
H273 H 0.58233 0.93891 0.3499 0.0
H274 H 0.64611 0.93462 0.35477 0.0
H275 H 0.5361 0.96268 0.37689 0.0
H276 H 0.56751 0.99309 0.31184 0.0
H277 H 0.59864 0.02654 0.28646 0.0
H278 H 0.5495 0.12263 0.30592 0.0
H279 H 0.51843 0.08983 0.3316 0.0
C280 C 0.36868 0.98103 0.35946 0.0
C281 C 0.35367 0.01476 0.36198 0.0
C282 C 0.405 0.97723 0.35613 0.0
C283 C 0.42712 0.00704 0.35559 0.0
C284 C 0.41186 0.0408 0.35709 0.0
C285 C 0.37552 0.04463 0.36022 0.0
C286 C 0.46627 0.0031 0.35467 0.0
C287 C 0.48528 0.02177 0.34053 0.0
C288 C 0.48496 0.98152 0.36793 0.0
C289 C 0.46706 0.96329 0.38418 0.0
C290 C 0.44706 0.9826 0.39771 0.0
C291 C 0.43008 0.96523 0.41293 0.0
C292 C 0.43317 0.92859 0.41486 0.0
C293 C 0.45334 0.90925 0.40161 0.0
C294 C 0.47033 0.92648 0.38635 0.0
C295 C 0.6369 0.02408 0.35877 0.0
C296 C 0.65395 0.99099 0.35873 0.0
C297 C 0.6003 0.02643 0.35597 0.0
C298 C 0.58013 0.99577 0.35302 0.0
C299 C 0.59734 0.9629 0.35219 0.0
C300 C 0.63386 0.96053 0.35492 0.0
C301 C 0.54087 0.99756 0.35246 0.0
C302 C 0.52185 0.97863 0.36644 0.0
C303 C 0.52233 0.01926 0.33923 0.0
C304 C 0.54087 0.03903 0.32375 0.0
C305 C 0.56355 0.02139 0.31081 0.0
C306 C 0.58115 0.04023 0.29635 0.0
C307 C 0.57611 0.0767 0.29461 0.0
C308 C 0.5534 0.09439 0.3073 0.0
C309 C 0.53575 0.07568 0.32179 0.0
H310 H 0.58976 0.09123 0.2834 0.0
H311 H 0.42002 0.91519 0.42665 0.0
H312 H 0.91454 0.25017 0.94929 0.0
H313 H 0.92751 0.25283 0.98405 0.0
H314 H 0.03913 0.24663 0.97176 0.0
H315 H 0.0266 0.24395 0.93734 0.0
H316 H 0.02116 0.20207 1.0007 0.0
H317 H 0.00139 0.32442 0.98453 0.0
H318 H 0.9676 0.3749 0.97153 0.0
H319 H 0.88423 0.35525 1.01226 0.0
H320 H 0.91735 0.30433 0.02534 0.0
H321 H 0.08592 0.24372 0.09495 0.0
H322 H 0.07456 0.24466 0.06002 0.0
H323 H 0.96355 0.26191 0.07097 0.0
H324 H 0.9747 0.26205 0.10549 0.0
H325 H 0.98183 0.30132 0.04238 0.0
H326 H -0.00082 0.17883 0.05818 0.0
H327 H 0.03104 0.12709 0.07118 0.0
H328 H 0.11626 0.14508 0.03137 0.0
H329 H 0.08508 0.19722 1.0183 0.0
C330 C 0.94182 0.24949 0.954 0.0
C331 C 0.96945 0.24693 0.94042 0.0
C332 C 0.94923 0.25109 0.97388 0.0
C333 C 0.98438 0.25007 0.98056 0.0
C334 C 0.01184 0.24738 0.96703 0.0
C335 C 0.00453 0.24601 0.94726 0.0
C336 C 0.9929 0.25153 1.0016 0.0
C337 C 0.01289 0.22398 1.00977 0.0
C338 C 0.98156 0.2797 1.01358 0.0
C339 C 0.96168 0.31035 1.00577 0.0
C340 C 0.97572 0.33069 0.99061 0.0
C341 C 0.95672 0.35942 0.98324 0.0
C342 C 0.92375 0.36822 0.99103 0.0
C343 C 0.90975 0.34837 1.00623 0.0
C344 C 0.92864 0.31959 1.01363 0.0
C345 C 0.05916 0.24796 0.08989 0.0
C346 C 0.0313 0.2527 0.10314 0.0
C347 C 0.05262 0.24826 0.0699 0.0
C348 C 0.01803 0.25289 0.06275 0.0
C349 C 0.99045 0.25832 0.07599 0.0
C350 C 0.99695 0.25827 0.09584 0.0
C351 C 0.01005 0.25174 0.04159 0.0
C352 C 0.99016 0.27937 0.03336 0.0
C353 C 0.02119 0.22345 0.02958 0.0
C354 C 0.03999 0.19215 0.03742 0.0
C355 C 0.02484 0.17191 0.05231 0.0
C356 C 0.04275 0.14249 0.05967 0.0
C357 C 0.0757 0.13287 0.05215 0.0
C358 C 0.09077 0.1526 0.03721 0.0
C359 C 0.07298 0.18208 0.02981 0.0
H360 H 0.08952 0.11008 0.05786 0.0
H361 H 0.90907 0.39047 0.98531 0.0
H362 H 0.74658 0.97755 0.60595 0.0
H363 H 0.74561 0.96298 0.57171 0.0
H364 H 0.73336 0.07329 0.55757 0.0
H365 H 0.73467 0.08839 0.59215 0.0
H366 H 0.68711 0.02662 0.53669 0.0
H367 H 0.81055 0.03854 0.551 0.0
H368 H 0.86549 0.02744 0.56916 0.0
H369 H 0.85851 0.91668 0.55617 0.0
H370 H 0.80319 0.92704 0.53817 0.0
H371 H 0.72851 0.01602 0.43727 0.0
H372 H 0.72528 0.02938 0.47158 0.0
H373 H 0.75164 0.92121 0.48508 0.0
H374 H 0.75545 0.90756 0.45042 0.0
H375 H 0.78999 0.9662 0.5066 0.0
H376 H 0.66768 0.95317 0.4921 0.0
H377 H 0.61203 0.96285 0.47435 0.0
H378 H 0.61562 0.07349 0.48804 0.0
H379 H 0.67159 0.06458 0.50565 0.0
C380 C 0.74356 -0.00111 0.59566 0.0
C381 C 0.74074 0.03425 0.6019 0.0
C382 C 0.74315 0.99042 0.57602 0.0
C383 C 0.73968 0.01701 0.56204 0.0
C384 C 0.73612 0.05233 0.56813 0.0
C385 C 0.73697 0.06094 0.58788 0.0
C386 C 0.74009 0.00754 0.54115 0.0
C387 C 0.70979 0.01393 0.53 0.0
C388 C 0.76924 0.98985 0.5326 0.0
C389 C 0.80252 0.98353 0.5434 0.0
C390 C 0.82054 0.01176 0.55217 0.0
C391 C 0.8518 0.00562 0.5624 0.0
C392 C 0.86543 0.97136 0.56386 0.0
C393 C 0.84789 0.94319 0.55505 0.0
C394 C 0.8166 0.94919 0.54481 0.0
C395 C 0.7334 0.99484 0.44745 0.0
C396 C 0.74226 0.96061 0.44098 0.0
C397 C 0.73134 0.00257 0.46716 0.0
C398 C 0.73785 0.9763 0.48101 0.0
C399 C 0.74641 0.94195 0.47468 0.0
C400 C 0.74841 0.93412 0.45485 0.0
C401 C 0.73699 0.98535 0.50201 0.0
C402 C 0.76724 0.97886 0.51322 0.0
C403 C 0.70768 0.00273 0.51064 0.0
C404 C 0.67403 0.00825 0.50004 0.0
C405 C 0.65677 0.97962 0.49119 0.0
C406 C 0.62513 0.98496 0.48118 0.0
C407 C 0.61034 0.01878 0.48002 0.0
C408 C 0.62713 0.04732 0.48892 0.0
C409 C 0.65879 0.04213 0.49894 0.0
H410 H 0.58584 0.02286 0.47227 0.0
H411 H 0.88964 0.96665 0.57179 0.0
H412 H 0.90417 0.74359 0.09154 0.0
H413 H 0.92024 0.74031 0.05721 0.0
H414 H 0.02818 0.71702 0.07279 0.0
H415 H 0.01257 0.72061 0.10684 0.0
H416 H 0.02652 0.76725 0.04615 0.0
H417 H 0.97243 0.65316 0.05422 0.0
H418 H 0.92478 0.61194 0.06322 0.0
H419 H 0.85553 0.66099 1.02201 0.0
H420 H 0.90265 0.70282 1.01294 0.0
H421 H 0.08854 0.72821 0.95091 0.0
H422 H 0.07351 0.72397 0.98534 0.0
H423 H 0.96329 0.73932 0.97164 0.0
H424 H 0.97783 0.74228 0.9375 0.0
H425 H 0.96721 0.69143 0.99767 0.0
H426 H 0.01896 0.80695 0.99049 0.0
H427 H 0.06533 0.84971 0.98159 0.0
H428 H 0.13733 0.79999 1.02112 0.0
H429 H 0.09148 0.75667 0.03009 0.0
C430 C 0.93121 0.73735 0.08764 0.0
C431 C 0.95703 0.73248 0.10202 0.0
C432 C 0.9404 0.73544 0.06799 0.0
C433 C 0.9755 0.72835 0.06234 0.0
C434 C 0.00101 0.72273 0.0767 0.0
C435 C 0.99192 0.72469 0.09624 0.0
C436 C 0.98622 0.72801 0.04157 0.0
C437 C 0.01384 0.75029 0.0356 0.0
C438 C 0.96926 0.70655 0.02765 0.0
C439 C 0.94096 0.68133 0.03304 0.0
C440 C 0.94696 0.65533 0.04718 0.0
C441 C 0.92006 0.63182 0.05228 0.0
C442 C 0.88711 0.6339 0.04323 0.0
C443 C 0.88104 0.65944 0.02903 0.0
C444 C 0.90784 0.68303 0.02389 0.0
C445 C 0.06112 0.73055 0.95526 0.0
C446 C 0.03448 0.73562 0.94136 0.0
C447 C 0.05253 0.72831 0.97498 0.0
C448 C 0.0172 0.73177 0.98124 0.0
C449 C 0.99069 0.73645 0.96731 0.0
C450 C -0.00085 0.73825 0.9477 0.0
C451 C 0.00745 0.73083 1.00218 0.0
C452 C 0.98 0.70832 1.0082 0.0
C453 C 0.02437 0.75231 1.01614 0.0
C454 C 0.05193 0.77835 1.01079 0.0
C455 C 0.04476 0.80499 0.99718 0.0
C456 C 0.07093 0.82935 0.99214 0.0
C457 C 0.10428 0.8275 1.00074 0.0
C458 C 0.1115 0.80135 1.01445 0.0
C459 C 0.08543 0.77691 1.01952 0.0
H460 H 0.12451 0.84638 0.99683 0.0
H461 H 0.86632 0.61568 0.04719 0.0
H462 H 0.27725 0.9889 0.44043 0.0
H463 H 0.27792 0.97422 0.47466 0.0
H464 H 0.24509 0.08042 0.48869 0.0
H465 H 0.24472 0.09561 0.4542 0.0
H466 H 0.29522 0.05661 0.51368 0.0
H467 H 0.18567 0.01256 0.48851 0.0
H468 H 0.14787 0.97878 0.46618 0.0
H469 H 0.2 0.88253 0.4828 0.0
H470 H 0.23847 0.91583 0.50504 0.0
H471 H 0.23565 0.02707 0.6086 0.0
H472 H 0.24069 0.04068 0.57443 0.0
H473 H 0.26703 0.93187 0.56238 0.0
H474 H 0.26094 0.91766 0.59687 0.0
H475 H 0.22231 0.95579 0.53617 0.0
H476 H 0.33063 5e-05 0.5625 0.0
H477 H 0.36799 0.03437 0.58482 0.0
H478 H 0.31819 0.13053 0.56608 0.0
H479 H 0.28017 0.09677 0.54386 0.0
C480 C 0.27034 0.00935 0.45073 0.0
C481 C 0.26064 0.04346 0.44446 0.0
C482 C 0.2706 0.00078 0.47037 0.0
C483 C 0.26088 0.02595 0.4843 0.0
C484 C 0.25249 0.06045 0.47821 0.0
C485 C 0.2523 0.06912 0.45847 0.0
C486 C 0.25888 0.01589 0.50513 0.0
C487 C 0.27894 0.03485 0.51864 0.0
C488 C 0.23839 0.98685 0.51159 0.0
C489 C 0.21518 0.96674 0.4983 0.0
C490 C 0.18925 0.98423 0.48729 0.0
C491 C 0.16768 0.96516 0.47467 0.0
C492 C 0.1716 0.92854 0.47304 0.0
C493 C 0.19703 0.9109 0.48406 0.0
C494 C 0.21871 0.92985 0.49669 0.0
C495 C 0.24267 0.00588 0.59878 0.0
C496 C 0.24814 0.97122 0.6056 0.0
C497 C 0.24575 0.01384 0.57915 0.0
C498 C 0.25505 0.98756 0.56575 0.0
C499 C 0.26008 0.95273 0.57242 0.0
C500 C 0.25664 0.94462 0.59215 0.0
C501 C 0.25859 0.99658 0.54481 0.0
C502 C 0.23879 0.97743 0.53125 0.0
C503 C 0.27933 0.02546 0.53831 0.0
C504 C 0.30235 0.04582 0.55161 0.0
C505 C 0.32747 0.02848 0.56324 0.0
C506 C 0.3488 0.04785 0.57586 0.0
C507 C 0.34541 0.0846 0.57689 0.0
C508 C 0.32076 0.10206 0.56528 0.0
C509 C 0.29935 0.08283 0.55265 0.0
H510 H 0.36192 0.09958 0.58664 0.0
H511 H 0.15487 0.91383 0.46326 0.0
H512 H 0.11528 0.28276 0.21522 0.0
H513 H 0.14473 0.27226 0.24613 0.0
H514 H 0.20303 0.18564 0.22093 0.0
H515 H 0.1737 0.19592 0.18999 0.0
H516 H 0.16811 0.16587 0.2536 0.0
H517 H 0.24488 0.26089 0.23464 0.0
H518 H 0.25899 0.32103 0.22334 0.0
H519 H 0.20777 0.36519 0.27324 0.0
H520 H 0.19291 0.30529 0.28471 0.0
H521 H 0.27651 0.12106 0.33125 0.0
H522 H 0.26191 0.14755 0.30014 0.0
H523 H 0.1936 0.22277 0.32848 0.0
H524 H 0.20766 0.19603 0.35984 0.0
H525 H 0.23402 0.25036 0.29485 0.0
H526 H 0.15294 0.15875 0.31265 0.0
H527 H 0.13662 0.09979 0.32491 0.0
H528 H 0.19257 0.05092 0.27793 0.0
H529 H 0.20951 0.10967 0.26548 0.0
C530 C 0.13508 0.26208 0.21608 0.0
C531 C 0.14203 0.24015 0.20008 0.0
C532 C 0.1519 0.25608 0.23382 0.0
C533 C 0.17603 0.22804 0.23593 0.0
C534 C 0.18441 0.20734 0.2197 0.0
C535 C 0.16778 0.21344 0.20194 0.0
C536 C 0.19011 0.21829 0.25534 0.0
C537 C 0.18303 0.18423 0.26243 0.0
C538 C 0.20844 0.24258 0.26726 0.0
C539 C 0.21749 0.2786 0.26044 0.0
C540 C 0.23637 0.28343 0.24313 0.0
C541 C 0.24456 0.31747 0.2367 0.0
C542 C 0.2342 0.34691 0.24754 0.0
C543 C 0.21573 0.34236 0.26485 0.0
C544 C 0.20746 0.30836 0.27133 0.0
C545 C 0.25914 0.14386 0.33102 0.0
C546 C 0.24304 0.1562 0.3481 0.0
C547 C 0.25074 0.15891 0.31316 0.0
C548 C 0.22634 0.18683 0.31197 0.0
C549 C 0.21249 0.20123 0.32908 0.0
C550 C 0.22061 0.18591 0.34701 0.0
C551 C 0.21245 0.19792 0.2928 0.0
C552 C 0.2193 0.23209 0.28588 0.0
C553 C 0.19344 0.17397 0.28107 0.0
C554 C 0.18288 0.13858 0.28828 0.0
C555 C 0.16202 0.13542 0.30502 0.0
C556 C 0.15262 0.10205 0.312 0.0
C557 C 0.1638 0.07163 0.3023 0.0
C558 C 0.18408 0.07452 0.28548 0.0
C559 C 0.19354 0.10785 0.27843 0.0
H560 H 0.15659 0.04582 0.30776 0.0
H561 H 0.24056 0.37325 0.24254 0.0
H562 H 0.88205 0.27937 0.82918 0.0
H563 H 0.85297 0.26869 0.79824 0.0
H564 H 0.78912 0.18754 0.8245 0.0
H565 H 0.8183 0.19789 0.85549 0.0
H566 H 0.8236 0.16329 0.79287 0.0
H567 H 0.75241 0.26534 0.80815 0.0
H568 H 0.74212 0.32732 0.81771 0.0
H569 H 0.79939 0.36304 0.76784 0.0
H570 H 0.81041 0.30125 0.7581 0.0
H571 H 0.71851 0.11971 0.71379 0.0
H572 H 0.73263 0.14721 0.74469 0.0
H573 H 0.80634 0.21675 0.71637 0.0
H574 H 0.79275 0.18896 0.68523 0.0
H575 H 0.76616 0.24886 0.74846 0.0
H576 H 0.84235 0.15109 0.73435 0.0
H577 H 0.8566 0.09043 0.72381 0.0
H578 H 0.79506 0.0484 0.77058 0.0
H579 H 0.78018 0.10891 0.78131 0.0
C580 C 0.86112 0.25993 0.82854 0.0
C581 C 0.85261 0.23943 0.84487 0.0
C582 C 0.84448 0.25384 0.81078 0.0
C583 C 0.81888 0.22721 0.80896 0.0
C584 C 0.80887 0.20815 0.8255 0.0
C585 C 0.8254 0.21431 0.84329 0.0
C586 C 0.80514 0.21691 0.78957 0.0
C587 C 0.81043 0.18192 0.78336 0.0
C588 C 0.78932 0.24148 0.77672 0.0
C589 C 0.78248 0.27865 0.78248 0.0
C590 C 0.76303 0.28641 0.79929 0.0
C591 C 0.75702 0.32151 0.80473 0.0
C592 C 0.77016 0.3491 0.79342 0.0
C593 C 0.78925 0.34165 0.7766 0.0
C594 C 0.79534 0.30659 0.7711 0.0
C595 C 0.73703 0.1415 0.71395 0.0
C596 C 0.75471 0.15189 0.69698 0.0
C597 C 0.74515 0.15712 0.7317 0.0
C598 C 0.77087 0.18369 0.73287 0.0
C599 C 0.78643 0.19626 0.71578 0.0
C600 C 0.77856 0.18036 0.69798 0.0
C601 C 0.78408 0.19524 0.75209 0.0
C602 C 0.77901 0.23032 0.75814 0.0
C603 C 0.80071 0.17098 0.76474 0.0
C604 C 0.80976 0.13452 0.75848 0.0
C605 C 0.83158 0.12891 0.74228 0.0
C606 C 0.83981 0.09457 0.73628 0.0
C607 C 0.82651 0.06558 0.74642 0.0
C608 C 0.8052 0.07089 0.76269 0.0
C609 C 0.79691 0.10521 0.76875 0.0
H610 H 0.8329 0.03901 0.74174 0.0
H611 H 0.76549 0.37626 0.79766 0.0
H612 H 0.71974 0.87554 0.32915 0.0
H613 H 0.73054 0.84455 0.29879 0.0
H614 H 0.80509 0.77583 0.32737 0.0
H615 H 0.79482 0.80717 0.3578 0.0
H616 H 0.83416 0.80516 0.29645 0.0
H617 H 0.72522 0.74485 0.3088 0.0
H618 H 0.66191 0.7399 0.31686 0.0
H619 H 0.63499 0.80006 0.26637 0.0
H620 H 0.69819 0.80579 0.25814 0.0
H621 H 0.87794 0.71021 0.21333 0.0
H622 H 0.85078 0.72031 0.24488 0.0
H623 H 0.77884 0.79567 0.21951 0.0
H624 H 0.80564 0.78541 0.18778 0.0
H625 H 0.74725 0.75859 0.2493 0.0
H626 H 0.85372 0.82439 0.23861 0.0
H627 H 0.91649 0.8321 0.22992 0.0
H628 H 0.94722 0.76513 0.27711 0.0
H629 H 0.88455 0.75656 0.28588 0.0
C630 C 0.73773 0.85321 0.32914 0.0
C631 C 0.7565 0.84397 0.34596 0.0
C632 C 0.74386 0.83542 0.31171 0.0
C633 C 0.76867 0.80776 0.3107 0.0
C634 C 0.78588 0.79712 0.32773 0.0
C635 C 0.77979 0.81494 0.34518 0.0
C636 C 0.77934 0.7926 0.29163 0.0
C637 C 0.81518 0.79423 0.28636 0.0
C638 C 0.75452 0.77952 0.27808 0.0
C639 C 0.71648 0.77597 0.28294 0.0
C640 C 0.70582 0.75725 0.29949 0.0
C641 C 0.66995 0.75426 0.30407 0.0
C642 C 0.64445 0.76972 0.29215 0.0
C643 C 0.65477 0.78812 0.27559 0.0
C644 C 0.69062 0.7912 0.27095 0.0
C645 C 0.85569 0.72822 0.21431 0.0
C646 C 0.84424 0.74729 0.19802 0.0
C647 C 0.84028 0.73409 0.23242 0.0
C648 C 0.81327 0.75934 0.23467 0.0
C649 C 0.79975 0.77619 0.21817 0.0
C650 C 0.8151 0.77025 0.2 0.0
C651 C 0.80198 0.77087 0.25434 0.0
C652 C 0.76617 0.76895 0.2596 0.0
C653 C 0.82671 0.7841 0.26787 0.0
C654 C 0.86444 0.78951 0.26277 0.0
C655 C 0.87385 0.81109 0.24704 0.0
C656 C 0.90941 0.81565 0.24211 0.0
C657 C 0.93582 0.79903 0.25293 0.0
C658 C 0.92673 0.77793 0.26873 0.0
C659 C 0.8912 0.77321 0.27369 0.0
H660 H 0.96333 0.80259 0.24909 0.0
H661 H 0.61669 0.76738 0.29573 0.0
H662 H 0.20544 0.81399 0.6881 0.0
H663 H 0.19497 0.78319 0.71861 0.0
H664 H 0.26756 0.85327 0.7474 0.0
H665 H 0.27855 0.8839 0.71692 0.0
H666 H 0.2711 0.78783 0.76309 0.0
H667 H 0.18084 0.87212 0.74838 0.0
H668 H 0.13494 0.90144 0.7288 0.0
H669 H 0.07592 0.80473 0.72645 0.0
H670 H 0.12166 0.77475 0.74594 0.0
H671 H 0.1891 0.78834 0.85767 0.0
H672 H 0.21738 0.80026 0.8265 0.0
H673 H 0.1487 0.7246 0.79911 0.0
H674 H 0.12044 0.71247 0.83011 0.0
H675 H 0.14483 0.79037 0.78253 0.0
H676 H 0.23638 0.7091 0.80181 0.0
H677 H 0.28244 0.68549 0.82346 0.0
H678 H 0.33949 0.78319 0.81946 0.0
H679 H 0.29351 0.80758 0.79799 0.0
C680 C 0.22 0.82222 0.70078 0.0
C681 C 0.24259 0.85167 0.70005 0.0
C682 C 0.21377 0.80474 0.71828 0.0
C683 C 0.22985 0.81641 0.73543 0.0
C684 C 0.25467 0.84387 0.73442 0.0
C685 C 0.26093 0.86138 0.71693 0.0
C686 C 0.21831 0.80238 0.75455 0.0
C687 C 0.24353 0.78851 0.76739 0.0
C688 C 0.18233 0.80329 0.76024 0.0
C689 C 0.15487 0.82109 0.74841 0.0
C690 C 0.15822 0.85703 0.74354 0.0
C691 C 0.13221 0.87379 0.73249 0.0
C692 C 0.10261 0.85491 0.7263 0.0
C693 C 0.09891 0.81928 0.73121 0.0
C694 C 0.12484 0.80241 0.74229 0.0
C695 C 0.18076 0.7734 0.84514 0.0
C696 C 0.15232 0.74959 0.84642 0.0
C697 C 0.19694 0.78031 0.82729 0.0
C698 C 0.18502 0.76349 0.81041 0.0
C699 C 0.15824 0.73802 0.81191 0.0
C700 C 0.14221 0.73099 0.82971 0.0
C701 C 0.19749 0.77515 0.79101 0.0
C702 C 0.17236 0.78906 0.77815 0.0
C703 C 0.23359 0.77495 0.78557 0.0
C704 C 0.26133 0.76027 0.79842 0.0
C705 C 0.2586 0.72566 0.80567 0.0
C706 C 0.28472 0.71211 0.81789 0.0
C707 C 0.31383 0.73285 0.82287 0.0
C708 C 0.31691 0.76716 0.8156 0.0
C709 C 0.29085 0.78085 0.80339 0.0
H710 H 0.33403 0.72232 0.83233 0.0
H711 H 0.0825 0.86791 0.71774 0.0
H712 H 0.95379 0.14793 0.17292 0.0
H713 H 0.94288 0.08538 0.17979 0.0
H714 H 0.04455 0.07775 0.20786 0.0
H715 H 0.05618 0.13955 0.19991 0.0
H716 H 0.041 0.02876 0.18372 0.0
H717 H 0.96099 0.06752 0.2325 0.0
H718 H 0.91195 0.10182 0.24675 0.0
H719 H 0.83929 0.05473 0.20676 0.0
H720 H 0.88795 0.02048 0.19209 0.0
H721 H 0.00989 0.84331 0.19569 0.0
H722 H 0.01952 0.90534 0.20475 0.0
H723 H 0.92783 0.93609 0.17172 0.0
H724 H 0.91771 0.87486 0.16298 0.0
H725 H 0.92981 0.97167 0.20503 0.0
H726 H 0.01317 0.94202 0.15333 0.0
H727 H 0.0627 0.90818 0.13918 0.0
H728 H 0.12958 0.93902 0.18631 0.0
H729 H 0.08029 0.97274 0.20083 0.0
C730 C 0.97328 0.13302 0.181 0.0
C731 C 0.00581 0.14829 0.18585 0.0
C732 C 0.96704 0.09728 0.18502 0.0
C733 C 0.99285 0.07666 0.19445 0.0
C734 C 0.02432 0.09288 0.20047 0.0
C735 C 0.0309 0.12821 0.19601 0.0
C736 C 0.9891 0.03756 0.19586 0.0
C737 C 0.01694 0.01638 0.18888 0.0
C738 C 0.95762 0.02111 0.20228 0.0
C739 C 0.92821 0.04157 0.21112 0.0
C740 C 0.9346 0.06464 0.22666 0.0
C741 C 0.90685 0.08406 0.23483 0.0
C742 C 0.87254 0.0805 0.22765 0.0
C743 C 0.86588 0.05746 0.21231 0.0
C744 C 0.89353 0.03799 0.20408 0.0
C745 C 0.99174 0.86333 0.19044 0.0
C746 C 0.96323 0.8541 0.17846 0.0
C747 C 0.99726 0.89872 0.19564 0.0
C748 C 0.9745 0.9254 0.1888 0.0
C749 C 0.94564 0.91601 0.17725 0.0
C750 C 0.94005 0.88088 0.17214 0.0
C751 C 0.98134 0.96342 0.19254 0.0
C752 C 0.9541 0.98428 0.2004 0.0
C753 C 0.01342 0.97967 0.18705 0.0
C754 C 0.04298 0.95951 0.17827 0.0
C755 C 0.03838 0.94136 0.16073 0.0
C756 C 0.06641 0.92225 0.15264 0.0
C757 C 0.09923 0.92135 0.16187 0.0
C758 C 0.10413 0.93967 0.17919 0.0
C759 C 0.07617 0.95879 0.18736 0.0
H760 H 0.1209 0.90654 0.15558 0.0
H761 H 0.8511 0.09557 0.23399 0.0
H762 H 0.12719 0.91739 0.69073 0.0
H763 H 0.06492 0.92419 0.69916 0.0
H764 H 0.07485 0.0375 0.69488 0.0
H765 H 0.13795 0.03083 0.68715 0.0
H766 H 0.02728 0.0195 0.72279 0.0
H767 H 0.04848 0.98849 0.65602 0.0
H768 H 0.07306 0.95218 0.62959 0.0
H769 H 0.01581 0.86194 0.65033 0.0
H770 H 0.99124 0.89764 0.67705 0.0
H771 H 0.86515 0.07495 0.68352 0.0
H772 H 0.92502 0.05942 0.69314 0.0
H773 H 0.89412 0.95027 0.69915 0.0
H774 H 0.83349 0.96583 0.68947 0.0
H775 H 0.9505 0.9591 0.67504 0.0
H776 H 0.92103 0.99485 0.73884 0.0
H777 H 0.8951 0.03348 0.76383 0.0
H778 H 0.96556 0.11709 0.74748 0.0
H779 H 0.99188 0.07901 0.72233 0.0
C780 C 0.11628 0.94381 0.69194 0.0
C781 C 0.1372 0.9736 0.68797 0.0
C782 C 0.08069 0.94764 0.69677 0.0
C783 C 0.065 0.98128 0.69718 0.0
C784 C 0.08638 0.01127 0.69456 0.0
C785 C 0.12236 0.00746 0.69008 0.0
C786 C 0.0259 0.98478 0.69814 0.0
C787 C 0.01046 0.00642 0.71234 0.0
C788 C 0.00383 0.96703 0.68476 0.0
C789 C 0.01835 0.94561 0.66863 0.0
C790 C 0.04132 0.96084 0.65501 0.0
C791 C 0.05523 0.94039 0.63998 0.0
C792 C 0.04608 0.90475 0.63832 0.0
C793 C 0.02292 0.88952 0.65166 0.0
C794 C 0.00899 0.90985 0.66674 0.0
C795 C 0.87088 0.04768 0.68717 0.0
C796 C 0.84477 0.02148 0.6855 0.0
C797 C 0.90509 0.03891 0.69288 0.0
C798 C 0.91404 0.00373 0.69698 0.0
C799 C 0.88767 0.97763 0.69614 0.0
C800 C 0.85311 0.98652 0.69064 0.0
C801 C 0.95178 0.99412 0.69954 0.0
C802 C 0.96712 0.97149 0.68585 0.0
C803 C 0.97358 0.01121 0.71326 0.0
C804 C 0.95834 0.03408 0.72862 0.0
C805 C 0.93093 0.02152 0.74051 0.0
C806 C 0.91619 0.0433 0.75473 0.0
C807 C 0.92859 0.07775 0.7572 0.0
C808 C 0.95597 0.09039 0.74555 0.0
C809 C 0.97092 0.06867 0.73136 0.0
H810 H 0.91699 0.09463 0.76815 0.0
H811 H 0.05688 0.88895 0.62667 0.0
H812 H 0.92303 0.1292 0.85182 0.0
H813 H 0.93138 0.06708 0.84347 0.0
H814 H 0.04359 0.07739 0.85298 0.0
H815 H 0.03542 0.14036 0.8607 0.0
H816 H 0.02913 0.02983 0.82389 0.0
H817 H 0.99004 0.05122 0.8894 0.0
H818 H 0.95043 0.07596 0.91433 0.0
H819 H 0.86315 0.01825 0.89048 0.0
H820 H 0.90219 0.99355 0.86524 0.0
H821 H 0.07858 0.86578 0.8638 0.0
H822 H 0.06495 0.92631 0.85452 0.0
H823 H 0.95617 0.89741 0.84477 0.0
H824 H 0.96975 0.83618 0.85412 0.0
H825 H 0.96309 0.95298 0.86939 0.0
H826 H 0.00606 0.92337 0.80707 0.0
H827 H 0.04693 0.89819 0.78292 0.0
H828 H 0.12822 0.96969 0.80123 0.0
H829 H 0.08802 0.995 0.8257 0.0
C830 C 0.9496 0.11841 0.85174 0.0
C831 C 0.97855 0.13932 0.85721 0.0
C832 C 0.95432 0.08293 0.84696 0.0
C833 C 0.98796 0.0674 0.84808 0.0
C834 C 0.01736 0.08884 0.85212 0.0
C835 C 0.0127 0.12472 0.85657 0.0
C836 C 0.99168 0.02835 0.84731 0.0
C837 C 0.01489 0.01296 0.83388 0.0
C838 C 0.97235 0.00631 0.86003 0.0
C839 C 0.94893 0.02085 0.87532 0.0
C840 C 0.96235 0.044 0.8894 0.0
C841 C 0.94001 0.05799 0.90359 0.0
C842 C 0.90427 0.04876 0.90395 0.0
C843 C 0.89082 0.02543 0.89016 0.0
C844 C 0.91304 0.01141 0.87592 0.0
C845 C 0.0518 0.8721 0.85944 0.0
C846 C 0.02511 0.8463 0.85991 0.0
C847 C 0.04415 0.9067 0.85393 0.0
C848 C 0.00963 0.91634 0.84879 0.0
C849 C 0.98307 0.89041 0.84857 0.0
C850 C 0.99082 0.85551 0.85391 0.0
C851 C 0.00089 0.95425 0.84612 0.0
C852 C 0.97683 0.96961 0.85907 0.0
C853 C 0.01965 0.97608 0.83304 0.0
C854 C 0.04402 0.96095 0.81834 0.0
C855 C 0.03273 0.93356 0.80607 0.0
C856 C 0.05577 0.91929 0.79229 0.0
C857 C 0.09017 0.93229 0.79056 0.0
C858 C 0.10157 0.95964 0.80259 0.0
C859 C 0.07863 0.974 0.8164 0.0
H860 H 0.10796 0.9212 0.77989 0.0
H861 H 0.88701 0.05963 0.91495 0.0
H862 H 0.8717 0.91672 0.35888 0.0
H863 H 0.93394 0.92744 0.35204 0.0
H864 H 0.91569 0.03992 0.35508 0.0
H865 H 0.85262 0.02928 0.36148 0.0
H866 H 0.96623 0.02256 0.32747 0.0
H867 H 0.94345 0.99719 0.39436 0.0
H868 H 0.91957 0.96303 0.42173 0.0
H869 H 0.98284 0.87354 0.40521 0.0
H870 H 0.00672 0.90704 0.37755 0.0
H871 H 0.13006 0.08217 0.36428 0.0
H872 H 0.06955 0.06658 0.35597 0.0
H873 H 0.09956 0.95668 0.35221 0.0
H874 H 0.16075 0.97228 0.36051 0.0
H875 H 0.04422 0.9688 0.37711 0.0
H876 H 0.07217 -0.00184 0.31188 0.0
H877 H 0.09703 0.03464 0.28571 0.0
H878 H 0.02615 0.11931 0.30044 0.0
H879 H 0.00085 0.08334 0.32674 0.0
C880 C 0.88076 0.9438 0.3578 0.0
C881 C 0.85744 0.9722 0.36105 0.0
C882 C 0.91636 0.94986 0.35387 0.0
C883 C 0.92961 0.98443 0.35348 0.0
C884 C 0.906 0.01301 0.3554 0.0
C885 C 0.87005 0.00693 0.3591 0.0
C886 C 0.96839 0.99026 0.35306 0.0
C887 C 0.9833 0.01103 0.33837 0.0
C888 C 0.99075 0.97463 0.36709 0.0
C889 C 0.97656 0.95448 0.38376 0.0
C890 C 0.95206 0.97013 0.39647 0.0
C891 C 0.93856 0.95091 0.41205 0.0
C892 C 0.9496 0.91611 0.41518 0.0
C893 C 0.97426 0.90048 0.40275 0.0
C894 C 0.98779 0.91958 0.38713 0.0
C895 C 0.12396 0.0547 0.3614 0.0
C896 C 0.15001 0.02834 0.36328 0.0
C897 C 0.08939 0.04589 0.35646 0.0
C898 C 0.08006 0.01051 0.35339 0.0
C899 C 0.10632 0.98419 0.35445 0.0
C900 C 0.14119 0.99309 0.35917 0.0
C901 C 0.04222 0.00104 0.35151 0.0
C902 C 0.02734 0.97979 0.36594 0.0
C903 C 0.02004 0.01652 0.33737 0.0
C904 C 0.03475 0.0381 0.32137 0.0
C905 C 0.06197 0.02461 0.3096 0.0
C906 C 0.0761 0.04517 0.29471 0.0
C907 C 0.06328 0.07932 0.29146 0.0
C908 C 0.03608 0.09286 0.30299 0.0
C909 C 0.02173 0.07234 0.31784 0.0
H910 H 0.07441 0.09527 0.28 0.0
H911 H 0.93913 0.90127 0.42725 0.0
loop_
_geom_bond_atom_site_label_1
_geom_bond_atom_site_label_2
_geom_bond_distance
_geom_bond_site_symmetry_2
_ccdc_geom_bond_type
O0 Cd1 2.223 . S
O0 C8 1.315 . S
Cd1 O0 2.223 . S
Cd1 O4 2.297 . S
Cd1 O5 2.439 . S
Cd1 O11 2.240 . S
Cd2 O3 2.240 . S
Cd2 O10 2.223 . S
Cd2 O12 2.297 . S
Cd2 O13 2.439 . S
O3 Cd2 2.240 . S
O3 C8 1.279 . S
O4 Cd1 2.297 . S
O4 C6 1.247 . S
O5 Cd1 2.439 . S
O5 C6 1.208 . S
C6 O4 1.247 . S
C6 O5 1.208 . S
C7 O12 1.247 . S
C7 O13 1.208 . S
C8 O0 1.315 . S
C8 O3 1.279 . S
C9 O10 1.315 . S
C9 O11 1.279 . S
O10 Cd2 2.223 . S
O10 C9 1.315 . S
O11 Cd1 2.240 . S
O11 C9 1.279 . S
O12 Cd2 2.297 . S
O12 C7 1.247 . S
O13 Cd2 2.439 . S
O13 C7 1.208 . S
O14 Cd15 2.223 . S
O14 C22 1.315 . S
Cd15 O14 2.223 . S
Cd15 O18 2.297 . S
Cd15 O19 2.439 . S
Cd15 O25 2.240 . S
Cd16 O17 2.240 . S
Cd16 O24 2.223 . S
Cd16 O26 2.297 . S
Cd16 O27 2.439 . S
O17 Cd16 2.240 . S
O17 C22 1.279 . S
O18 Cd15 2.297 . S
O18 C20 1.247 . S
O19 Cd15 2.439 . S
O19 C20 1.208 . S
C20 O18 1.247 . S
C20 O19 1.208 . S
C21 O26 1.247 . S
C21 O27 1.208 . S
C22 O14 1.315 . S
C22 O17 1.279 . S
C23 O24 1.315 . S
C23 O25 1.279 . S
O24 Cd16 2.223 . S
O24 C23 1.315 . S
O25 Cd15 2.240 . S
O25 C23 1.279 . S
O26 Cd16 2.297 . S
O26 C21 1.247 . S
O27 Cd16 2.439 . S
O27 C21 1.208 . S
O28 Cd29 2.223 . S
O28 C36 1.315 . S
Cd29 O28 2.223 . S
Cd29 O32 2.297 . S
Cd29 O33 2.439 . S
Cd29 O39 2.240 . S
Cd30 O31 2.240 . S
Cd30 O38 2.223 . S
Cd30 O40 2.297 . S
Cd30 O41 2.439 . S
O31 Cd30 2.240 . S
O31 C36 1.279 . S
O32 Cd29 2.297 . S
O32 C34 1.247 . S
O33 Cd29 2.439 . S
O33 C34 1.208 . S
C34 O32 1.247 . S
C34 O33 1.208 . S
C35 O40 1.247 . S
C35 O41 1.208 . S
C36 O28 1.315 . S
C36 O31 1.279 . S
C37 O38 1.315 . S
C37 O39 1.279 . S
O38 Cd30 2.223 . S
O38 C37 1.315 . S
O39 Cd29 2.240 . S
O39 C37 1.279 . S
O40 Cd30 2.297 . S
O40 C35 1.247 . S
O41 Cd30 2.439 . S
O41 C35 1.208 . S
O42 Cd43 2.223 . S
O42 C50 1.315 . S
Cd43 O42 2.223 . S
Cd43 O46 2.297 . S
Cd43 O47 2.439 . S
Cd43 O53 2.240 . S
Cd44 O45 2.240 . S
Cd44 O52 2.223 . S
Cd44 O54 2.297 . S
Cd44 O55 2.439 . S
O45 Cd44 2.240 . S
O45 C50 1.279 . S
O46 Cd43 2.297 . S
O46 C48 1.247 . S
O47 Cd43 2.439 . S
O47 C48 1.208 . S
C48 O46 1.247 . S
C48 O47 1.208 . S
C49 O54 1.247 . S
C49 O55 1.208 . S
C50 O42 1.315 . S
C50 O45 1.279 . S
C51 O52 1.315 . S
C51 O53 1.279 . S
O52 Cd44 2.223 . S
O52 C51 1.315 . S
O53 Cd43 2.240 . S
O53 C51 1.279 . S
O54 Cd44 2.297 . S
O54 C49 1.247 . S
O55 Cd44 2.439 . S
O55 C49 1.208 . S
O56 Cd57 2.223 . S
O56 C64 1.315 . S
Cd57 O56 2.223 . S
Cd57 O60 2.297 . S
Cd57 O61 2.439 . S
Cd57 O67 2.240 . S
Cd58 O59 2.240 . S
Cd58 O66 2.223 . S
Cd58 O68 2.297 . S
Cd58 O69 2.439 . S
O59 Cd58 2.240 . S
O59 C64 1.279 . S
O60 Cd57 2.297 . S
O60 C62 1.247 . S
O61 Cd57 2.439 . S
O61 C62 1.208 . S
C62 O60 1.247 . S
C62 O61 1.208 . S
C63 O68 1.247 . S
C63 O69 1.208 . S
C64 O56 1.315 . S
C64 O59 1.279 . S
C65 O66 1.315 . S
C65 O67 1.279 . S
O66 Cd58 2.223 . S
O66 C65 1.315 . S
O67 Cd57 2.240 . S
O67 C65 1.279 . S
O68 Cd58 2.297 . S
O68 C63 1.247 . S
O69 Cd58 2.439 . S
O69 C63 1.208 . S
O70 Cd71 2.223 . S
O70 C78 1.315 . S
Cd71 O70 2.223 . S
Cd71 O74 2.297 . S
Cd71 O75 2.439 . S
Cd71 O81 2.240 . S
Cd72 O73 2.240 . S
Cd72 O80 2.223 . S
Cd72 O82 2.297 . S
Cd72 O83 2.439 . S
O73 Cd72 2.240 . S
O73 C78 1.279 . S
O74 Cd71 2.297 . S
O74 C76 1.247 . S
O75 Cd71 2.439 . S
O75 C76 1.208 . S
C76 O74 1.247 . S
C76 O75 1.208 . S
C77 O82 1.247 . S
C77 O83 1.208 . S
C78 O70 1.315 . S
C78 O73 1.279 . S
C79 O80 1.315 . S
C79 O81 1.279 . S
O80 Cd72 2.223 . S
O80 C79 1.315 . S
O81 Cd71 2.240 . S
O81 C79 1.279 . S
O82 Cd72 2.297 . S
O82 C77 1.247 . S
O83 Cd72 2.439 . S
O83 C77 1.208 . S
O84 Cd85 2.223 . S
O84 C92 1.315 . S
Cd85 O84 2.223 . S
Cd85 O88 2.297 . S
Cd85 O89 2.439 . S
Cd85 O95 2.240 . S
Cd86 O87 2.240 . S
Cd86 O94 2.223 . S
Cd86 O96 2.297 . S
Cd86 O97 2.439 . S
O87 Cd86 2.240 . S
O87 C92 1.279 . S
O88 Cd85 2.297 . S
O88 C90 1.247 . S
O89 Cd85 2.439 . S
O89 C90 1.208 . S
C90 O88 1.247 . S
C90 O89 1.208 . S
C91 O96 1.247 . S
C91 O97 1.208 . S
C92 O84 1.315 . S
C92 O87 1.279 . S
C93 O94 1.315 . S
C93 O95 1.279 . S
O94 Cd86 2.223 . S
O94 C93 1.315 . S
O95 Cd85 2.240 . S
O95 C93 1.279 . S
O96 Cd86 2.297 . S
O96 C91 1.247 . S
O97 Cd86 2.439 . S
O97 C91 1.208 . S
O98 Cd99 2.223 . S
O98 C106 1.315 . S
Cd99 O98 2.223 . S
Cd99 O102 2.297 . S
Cd99 O103 2.439 . S
Cd99 O109 2.240 . S
Cd100 O101 2.240 . S
Cd100 O108 2.223 . S
Cd100 O110 2.297 . S
Cd100 O111 2.439 . S
O101 Cd100 2.240 . S
O101 C106 1.279 . S
O102 Cd99 2.297 . S
O102 C104 1.247 . S
O103 Cd99 2.439 . S
O103 C104 1.208 . S
C104 O102 1.247 . S
C104 O103 1.208 . S
C105 O110 1.247 . S
C105 O111 1.208 . S
C106 O98 1.315 . S
C106 O101 1.279 . S
C107 O108 1.315 . S
C107 O109 1.279 . S
O108 Cd100 2.223 . S
O108 C107 1.315 . S
O109 Cd99 2.240 . S
O109 C107 1.279 . S
O110 Cd100 2.297 . S
O110 C105 1.247 . S
O111 Cd100 2.439 . S
O111 C105 1.208 . S
H112 C130 0.951 . S
H113 C132 0.951 . S
H114 C134 0.950 . S
H115 C135 0.950 . S
H116 C137 0.950 . S
H117 C140 0.950 . S
H118 C141 0.950 . S
H119 C143 0.950 . S
H120 C144 0.950 . S
H121 C145 0.951 . S
H122 C147 0.951 . S
H123 C149 0.950 . S
H124 C150 0.950 . S
H125 C152 0.950 . S
H126 C155 0.950 . S
H127 C156 0.950 . S
H128 C158 0.950 . S
H129 C159 0.950 . S
C130 H112 0.951 . S
C130 C131 1.366 . S
C130 C132 1.388 . S
C131 C130 1.366 . S
C131 C135 1.385 . S
C132 H113 0.951 . S
C132 C130 1.388 . S
C132 C133 1.366 . S
C133 C132 1.366 . S
C133 C134 1.414 . S
C133 C136 1.499 . S
C134 H114 0.950 . S
C134 C133 1.414 . S
C134 C135 1.374 . S
C135 H115 0.950 . S
C135 C131 1.385 . S
C135 C134 1.374 . S
C136 C133 1.499 . S
C136 C137 1.373 1_455 S
C136 C138 1.389 . S
C137 H116 0.950 . S
C137 C136 1.373 1_655 S
C137 C153 1.377 . S
C138 C136 1.389 . S
C138 C139 1.524 . S
C138 C152 1.377 . S
C139 C138 1.524 . S
C139 C140 1.397 . S
C139 C144 1.363 . S
C140 H117 0.950 . S
C140 C139 1.397 . S
C140 C141 1.334 . S
C141 H118 0.950 . S
C141 C140 1.334 . S
C141 C142 1.287 . S
C142 C141 1.287 . S
C142 C143 1.524 . S
C142 H161 0.913 . S
C143 H119 0.950 . S
C143 C142 1.524 . S
C143 C144 1.415 . S
C144 H120 0.950 . S
C144 C139 1.363 . S
C144 C143 1.415 . S
C145 H121 0.951 . S
C145 C146 1.366 . S
C145 C147 1.388 . S
C146 C145 1.366 . S
C146 C150 1.385 . S
C147 H122 0.951 . S
C147 C145 1.388 . S
C147 C148 1.366 . S
C148 C147 1.366 . S
C148 C149 1.414 . S
C148 C151 1.499 . S
C149 H123 0.950 . S
C149 C148 1.414 . S
C149 C150 1.374 . S
C150 H124 0.950 . S
C150 C146 1.385 . S
C150 C149 1.374 . S
C151 C148 1.499 . S
C151 C152 1.373 1_655 S
C151 C153 1.389 . S
C152 H125 0.950 . S
C152 C138 1.377 . S
C152 C151 1.373 1_455 S
C153 C137 1.377 . S
C153 C151 1.389 . S
C153 C154 1.524 . S
C154 C153 1.524 . S
C154 C155 1.397 . S
C154 C159 1.363 . S
C155 H126 0.950 . S
C155 C154 1.397 . S
C155 C156 1.334 . S
C156 H127 0.950 . S
C156 C155 1.334 . S
C156 C157 1.287 . S
C157 C156 1.287 . S
C157 C158 1.524 . S
C157 H160 0.999 . S
C158 H128 0.950 . S
C158 C157 1.524 . S
C158 C159 1.415 . S
C159 H129 0.950 . S
C159 C154 1.363 . S
C159 C158 1.415 . S
H160 C157 0.999 . S
H161 C142 0.913 . S
H162 C180 0.951 1_545 S
H163 C182 0.966 . S
H164 C184 0.950 . S
H165 C185 0.950 . S
H166 C187 0.950 . S
H167 C190 0.950 . S
H168 C191 0.950 . S
H169 C193 0.950 . S
H170 C194 0.950 . S
H171 C195 0.951 1_565 S
H172 C197 0.966 . S
H173 C199 0.950 . S
H174 C200 0.950 . S
H175 C202 0.950 . S
H176 C205 0.950 . S
H177 C206 0.950 . S
H178 C208 0.950 . S
H179 C209 0.950 . S
C180 H162 0.951 1_565 S
C180 C181 1.366 . S
C180 C182 1.383 1_565 S
C181 C180 1.366 . S
C181 C185 1.385 . S
C182 H163 0.966 . S
C182 C180 1.383 1_545 S
C182 C183 1.355 1_545 S
C183 C182 1.355 1_565 S
C183 C184 1.414 . S
C183 C186 1.499 . S
C184 H164 0.950 . S
C184 C183 1.414 . S
C184 C185 1.374 . S
C185 H165 0.950 . S
C185 C181 1.385 . S
C185 C184 1.374 . S
C186 C183 1.499 . S
C186 C187 1.373 . S
C186 C188 1.389 1_565 S
C187 H166 0.950 . S
C187 C186 1.373 . S
C187 C203 1.377 . S
C188 C186 1.389 1_545 S
C188 C189 1.524 . S
C188 C202 1.377 . S
C189 C188 1.524 . S
C189 C190 1.397 1_545 S
C189 C194 1.363 . S
C190 H167 0.950 . S
C190 C189 1.397 1_565 S
C190 C191 1.334 . S
C191 H168 0.950 . S
C191 C190 1.334 . S
C191 C192 1.287 1_565 S
C192 C191 1.287 1_545 S
C192 C193 1.524 . S
C192 H211 0.913 . S
C193 H169 0.950 . S
C193 C192 1.524 . S
C193 C194 1.415 . S
C194 H170 0.950 . S
C194 C189 1.363 . S
C194 C193 1.415 . S
C195 H171 0.951 1_545 S
C195 C196 1.366 . S
C195 C197 1.383 1_545 S
C196 C195 1.366 . S
C196 C200 1.385 . S
C197 H172 0.966 . S
C197 C195 1.383 1_565 S
C197 C198 1.355 1_565 S
C198 C197 1.355 1_545 S
C198 C199 1.414 . S
C198 C201 1.499 . S
C199 H173 0.950 . S
C199 C198 1.414 . S
C199 C200 1.374 . S
C200 H174 0.950 . S
C200 C196 1.385 . S
C200 C199 1.374 . S
C201 C198 1.499 . S
C201 C202 1.373 . S
C201 C203 1.389 1_545 S
C202 H175 0.950 . S
C202 C188 1.377 . S
C202 C201 1.373 . S
C203 C187 1.377 . S
C203 C201 1.389 1_565 S
C203 C204 1.524 . S
C204 C203 1.524 . S
C204 C205 1.397 1_565 S
C204 C209 1.363 . S
C205 H176 0.950 . S
C205 C204 1.397 1_545 S
C205 C206 1.334 . S
C206 H177 0.950 . S
C206 C205 1.334 . S
C206 C207 1.287 1_545 S
C207 C206 1.287 1_565 S
C207 C208 1.524 . S
C207 H210 0.999 . S
C208 H178 0.950 . S
C208 C207 1.524 . S
C208 C209 1.415 . S
C209 H179 0.950 . S
C209 C204 1.363 . S
C209 C208 1.415 . S
H210 C207 0.999 . S
H211 C192 0.913 . S
H212 C230 0.951 . S
H213 C232 0.951 . S
H214 C234 0.950 . S
H215 C235 0.950 1_455 S
H216 C237 0.950 . S
H217 C240 0.950 1_455 S
H218 C241 0.950 . S
H219 C243 0.950 . S
H220 C244 0.950 . S
H221 C245 0.951 . S
H222 C247 0.951 . S
H223 C249 0.950 . S
H224 C250 0.950 1_655 S
H225 C252 0.950 . S
H226 C255 0.950 1_655 S
H227 C256 0.950 . S
H228 C258 0.950 . S
H229 C259 0.950 . S
C230 H212 0.951 . S
C230 C231 1.366 . S
C230 C232 1.388 . S
C231 C230 1.366 . S
C231 C235 1.385 . S
C232 H213 0.951 . S
C232 C230 1.388 . S
C232 C233 1.366 . S
C233 C232 1.366 . S
C233 C234 1.414 1_655 S
C233 C236 1.499 . S
C234 H214 0.950 . S
C234 C233 1.414 1_455 S
C234 C235 1.374 1_455 S
C235 H215 0.950 1_655 S
C235 C231 1.385 . S
C235 C234 1.374 1_655 S
C236 C233 1.499 . S
C236 C237 1.373 1_655 S
C236 C238 1.389 . S
C237 H216 0.950 . S
C237 C236 1.373 1_455 S
C237 C253 1.377 . S
C238 C236 1.389 . S
C238 C239 1.524 . S
C238 C252 1.377 . S
C239 C238 1.524 . S
C239 C240 1.397 . S
C239 C244 1.363 . S
C240 H217 0.950 1_655 S
C240 C239 1.397 . S
C240 C241 1.334 . S
C241 H218 0.950 . S
C241 C240 1.334 . S
C241 C242 1.287 . S
C242 C241 1.287 . S
C242 C243 1.524 . S
C242 H261 0.913 . S
C243 H219 0.950 . S
C243 C242 1.524 . S
C243 C244 1.415 . S
C244 H220 0.950 . S
C244 C239 1.363 . S
C244 C243 1.415 . S
C245 H221 0.951 . S
C245 C246 1.366 . S
C245 C247 1.388 . S
C246 C245 1.366 . S
C246 C250 1.385 . S
C247 H222 0.951 . S
C247 C245 1.388 . S
C247 C248 1.366 . S
C248 C247 1.366 . S
C248 C249 1.414 1_455 S
C248 C251 1.499 . S
C249 H223 0.950 . S
C249 C248 1.414 1_655 S
C249 C250 1.374 1_655 S
C250 H224 0.950 1_455 S
C250 C246 1.385 . S
C250 C249 1.374 1_455 S
C251 C248 1.499 . S
C251 C252 1.373 1_455 S
C251 C253 1.389 . S
C252 H225 0.950 . S
C252 C238 1.377 . S
C252 C251 1.373 1_655 S
C253 C237 1.377 . S
C253 C251 1.389 . S
C253 C254 1.524 . S
C254 C253 1.524 . S
C254 C255 1.397 . S
C254 C259 1.363 . S
C255 H226 0.950 1_455 S
C255 C254 1.397 . S
C255 C256 1.334 . S
C256 H227 0.950 . S
C256 C255 1.334 . S
C256 C257 1.287 . S
C257 C256 1.287 . S
C257 C258 1.524 . S
C257 H260 0.999 . S
C258 H228 0.950 . S
C258 C257 1.524 . S
C258 C259 1.415 . S
C259 H229 0.950 . S
C259 C254 1.363 . S
C259 C258 1.415 . S
H260 C257 0.999 . S
H261 C242 0.913 . S
H262 C280 0.951 1_565 S
H263 C282 0.951 1_565 S
H264 C284 0.950 . S
H265 C285 0.950 . S
H266 C287 0.950 . S
H267 C290 0.950 . S
H268 C291 0.950 . S
H269 C293 0.950 . S
H270 C294 0.950 . S
H271 C295 0.951 1_545 S
H272 C297 0.951 1_545 S
H273 C299 0.950 . S
H274 C300 0.950 . S
H275 C302 0.950 . S
H276 C305 0.950 . S
H277 C306 0.950 . S
H278 C308 0.950 . S
H279 C309 0.950 . S
C280 H262 0.951 1_545 S
C280 C281 1.366 . S
C280 C282 1.388 . S
C281 C280 1.366 . S
C281 C285 1.385 . S
C282 H263 0.951 1_545 S
C282 C280 1.388 . S
C282 C283 1.366 . S
C283 C282 1.366 . S
C283 C284 1.414 . S
C283 C286 1.499 . S
C284 H264 0.950 . S
C284 C283 1.414 . S
C284 C285 1.374 . S
C285 H265 0.950 . S
C285 C281 1.385 . S
C285 C284 1.374 . S
C286 C283 1.499 . S
C286 C287 1.373 . S
C286 C288 1.389 1_545 S
C287 H266 0.950 . S
C287 C286 1.373 . S
C287 C303 1.377 . S
C288 C286 1.389 1_565 S
C288 C289 1.524 . S
C288 C302 1.377 . S
C289 C288 1.524 . S
C289 C290 1.397 . S
C289 C294 1.363 . S
C290 H267 0.950 . S
C290 C289 1.397 . S
C290 C291 1.334 . S
C291 H268 0.950 . S
C291 C290 1.334 . S
C291 C292 1.287 . S
C292 C291 1.287 . S
C292 C293 1.524 . S
C292 H311 0.913 . S
C293 H269 0.950 . S
C293 C292 1.524 . S
C293 C294 1.415 . S
C294 H270 0.950 . S
C294 C289 1.363 . S
C294 C293 1.415 . S
C295 H271 0.951 1_565 S
C295 C296 1.366 . S
C295 C297 1.388 . S
C296 C295 1.366 . S
C296 C300 1.385 . S
C297 H272 0.951 1_565 S
C297 C295 1.388 . S
C297 C298 1.366 . S
C298 C297 1.366 . S
C298 C299 1.414 . S
C298 C301 1.499 . S
C299 H273 0.950 . S
C299 C298 1.414 . S
C299 C300 1.374 . S
C300 H274 0.950 . S
C300 C296 1.385 . S
C300 C299 1.374 . S
C301 C298 1.499 . S
C301 C302 1.373 . S
C301 C303 1.389 1_565 S
C302 H275 0.950 . S
C302 C288 1.377 . S
C302 C301 1.373 . S
C303 C287 1.377 . S
C303 C301 1.389 1_545 S
C303 C304 1.524 . S
C304 C303 1.524 . S
C304 C305 1.397 . S
C304 C309 1.363 . S
C305 H276 0.950 . S
C305 C304 1.397 . S
C305 C306 1.334 . S
C306 H277 0.950 . S
C306 C305 1.334 . S
C306 C307 1.287 . S
C307 C306 1.287 . S
C307 C308 1.524 . S
C307 H310 0.999 . S
C308 H278 0.950 . S
C308 C307 1.524 . S
C308 C309 1.415 . S
C309 H279 0.950 . S
C309 C304 1.363 . S
C309 C308 1.415 . S
H310 C307 0.999 . S
H311 C292 0.913 . S
H312 C330 0.951 . S
H313 C332 0.951 . S
H314 C334 0.936 1_455 S
H315 C335 0.950 . S
H316 C337 0.950 . S
H317 C340 0.950 . S
H318 C341 0.950 . S
H319 C343 0.950 . S
H320 C344 0.950 . S
H321 C345 0.951 . S
H322 C347 0.951 . S
H323 C349 0.936 1_655 S
H324 C350 0.950 . S
H325 C352 0.950 . S
H326 C355 0.950 . S
H327 C356 0.950 . S
H328 C358 0.950 . S
H329 C359 0.950 . S
C330 H312 0.951 . S
C330 C331 1.366 . S
C330 C332 1.388 . S
C331 C330 1.366 . S
C331 C335 1.385 . S
C332 H313 0.951 . S
C332 C330 1.388 . S
C332 C333 1.366 . S
C333 C332 1.366 . S
C333 C334 1.414 . S
C333 C336 1.499 . S
C334 H314 0.936 1_655 S
C334 C333 1.414 . S
C334 C335 1.374 . S
C335 H315 0.950 . S
C335 C331 1.385 . S
C335 C334 1.374 . S
C336 C333 1.499 . S
C336 C337 1.373 1_655 S
C336 C338 1.389 . S
C337 H316 0.950 . S
C337 C336 1.373 1_455 S
C337 C353 1.377 1_556 S
C338 C336 1.389 . S
C338 C339 1.524 . S
C338 C352 1.377 1_556 S
C339 C338 1.524 . S
C339 C340 1.397 . S
C339 C344 1.363 1_556 S
C340 H317 0.950 . S
C340 C339 1.397 . S
C340 C341 1.334 . S
C341 H318 0.950 . S
C341 C340 1.334 . S
C341 C342 1.287 . S
C342 C341 1.287 . S
C342 C343 1.524 1_556 S
C342 H361 0.913 . S
C343 H319 0.950 . S
C343 C342 1.524 1_554 S
C343 C344 1.415 . S
C344 H320 0.950 . S
C344 C339 1.363 1_554 S
C344 C343 1.415 . S
C345 H321 0.951 . S
C345 C346 1.366 . S
C345 C347 1.388 . S
C346 C345 1.366 . S
C346 C350 1.385 . S
C347 H322 0.951 . S
C347 C345 1.388 . S
C347 C348 1.366 . S
C348 C347 1.366 . S
C348 C349 1.414 . S
C348 C351 1.499 . S
C349 H323 0.936 1_455 S
C349 C348 1.414 . S
C349 C350 1.374 . S
C350 H324 0.950 . S
C350 C346 1.385 . S
C350 C349 1.374 . S
C351 C348 1.499 . S
C351 C352 1.373 1_455 S
C351 C353 1.389 . S
C352 H325 0.950 . S
C352 C338 1.377 1_554 S
C352 C351 1.373 1_655 S
C353 C337 1.377 1_554 S
C353 C351 1.389 . S
C353 C354 1.524 . S
C354 C353 1.524 . S
C354 C355 1.397 . S
C354 C359 1.363 1_554 S
C355 H326 0.950 . S
C355 C354 1.397 . S
C355 C356 1.334 . S
C356 H327 0.950 . S
C356 C355 1.334 . S
C356 C357 1.287 . S
C357 C356 1.287 . S
C357 C358 1.524 1_554 S
C357 H360 0.999 . S
C358 H328 0.950 . S
C358 C357 1.524 1_556 S
C358 C359 1.415 . S
C359 H329 0.950 . S
C359 C354 1.363 1_556 S
C359 C358 1.415 . S
H360 C357 0.999 . S
H361 C342 0.913 . S
H362 C380 0.951 . S
H363 C382 0.951 . S
H364 C384 0.950 . S
H365 C385 0.950 . S
H366 C387 0.950 . S
H367 C390 0.950 . S
H368 C391 0.950 . S
H369 C393 0.950 . S
H370 C394 0.950 1_565 S
H371 C395 0.951 . S
H372 C397 0.951 . S
H373 C399 0.950 . S
H374 C400 0.950 . S
H375 C402 0.950 . S
H376 C405 0.950 . S
H377 C406 0.950 . S
H378 C408 0.950 . S
H379 C409 0.950 1_545 S
C380 H362 0.951 . S
C380 C381 1.366 . S
C380 C382 1.388 . S
C381 C380 1.366 . S
C381 C385 1.385 . S
C382 H363 0.951 . S
C382 C380 1.388 . S
C382 C383 1.366 . S
C383 C382 1.366 . S
C383 C384 1.414 . S
C383 C386 1.499 . S
C384 H364 0.950 . S
C384 C383 1.414 . S
C384 C385 1.374 . S
C385 H365 0.950 . S
C385 C381 1.385 . S
C385 C384 1.374 . S
C386 C383 1.499 . S
C386 C387 1.373 . S
C386 C388 1.389 . S
C387 H366 0.950 . S
C387 C386 1.373 . S
C387 C403 1.377 1_545 S
C388 C386 1.389 . S
C388 C389 1.524 . S
C388 C402 1.377 1_545 S
C389 C388 1.524 . S
C389 C390 1.397 . S
C389 C394 1.363 . S
C390 H367 0.950 . S
C390 C389 1.397 . S
C390 C391 1.334 . S
C391 H368 0.950 . S
C391 C390 1.334 . S
C391 C392 1.287 . S
C392 C391 1.287 . S
C392 C393 1.524 . S
C392 H411 0.913 . S
C393 H369 0.950 . S
C393 C392 1.524 . S
C393 C394 1.415 . S
C394 H370 0.950 1_545 S
C394 C389 1.363 . S
C394 C393 1.415 . S
C395 H371 0.951 . S
C395 C396 1.366 . S
C395 C397 1.388 . S
C396 C395 1.366 . S
C396 C400 1.385 . S
C397 H372 0.951 . S
C397 C395 1.388 . S
C397 C398 1.366 . S
C398 C397 1.366 . S
C398 C399 1.414 . S
C398 C401 1.499 . S
C399 H373 0.950 . S
C399 C398 1.414 . S
C399 C400 1.374 . S
C400 H374 0.950 . S
C400 C396 1.385 . S
C400 C399 1.374 . S
C401 C398 1.499 . S
C401 C402 1.373 . S
C401 C403 1.389 . S
C402 H375 0.950 . S
C402 C388 1.377 1_565 S
C402 C401 1.373 . S
C403 C387 1.377 1_565 S
C403 C401 1.389 . S
C403 C404 1.524 . S
C404 C403 1.524 . S
C404 C405 1.397 . S
C404 C409 1.363 . S
C405 H376 0.950 . S
C405 C404 1.397 . S
C405 C406 1.334 . S
C406 H377 0.950 . S
C406 C405 1.334 . S
C406 C407 1.287 . S
C407 C406 1.287 . S
C407 C408 1.524 . S
C407 H410 0.999 . S
C408 H378 0.950 . S
C408 C407 1.524 . S
C408 C409 1.415 . S
C409 H379 0.950 1_565 S
C409 C404 1.363 . S
C409 C408 1.415 . S
H410 C407 0.999 . S
H411 C392 0.913 . S
H412 C430 0.951 . S
H413 C432 0.951 . S
H414 C434 0.950 . S
H415 C435 0.950 . S
H416 C437 0.950 . S
H417 C440 0.950 . S
H418 C441 0.950 . S
H419 C443 0.950 . S
H420 C444 0.950 . S
H421 C445 0.951 . S
H422 C447 0.951 . S
H423 C449 0.950 . S
H424 C450 0.950 . S
H425 C452 0.950 . S
H426 C455 0.950 . S
H427 C456 0.950 . S
H428 C458 0.950 . S
H429 C459 0.950 . S
C430 H412 0.951 . S
C430 C431 1.366 . S
C430 C432 1.388 . S
C431 C430 1.366 . S
C431 C435 1.385 . S
C432 H413 0.951 . S
C432 C430 1.388 . S
C432 C433 1.366 . S
C433 C432 1.366 . S
C433 C434 1.414 . S
C433 C436 1.499 . S
C434 H414 0.950 . S
C434 C433 1.414 . S
C434 C435 1.374 . S
C435 H415 0.950 . S
C435 C431 1.385 . S
C435 C434 1.374 . S
C436 C433 1.499 . S
C436 C437 1.373 1_655 S
C436 C438 1.389 1_554 S
C437 H416 0.950 . S
C437 C436 1.373 1_455 S
C437 C453 1.377 . S
C438 C436 1.389 1_556 S
C438 C439 1.524 . S
C438 C452 1.377 . S
C439 C438 1.524 . S
C439 C440 1.397 1_556 S
C439 C444 1.363 . S
C440 H417 0.950 . S
C440 C439 1.397 1_554 S
C440 C441 1.334 . S
C441 H418 0.950 . S
C441 C440 1.334 . S
C441 C442 1.287 1_554 S
C442 C441 1.287 1_556 S
C442 C443 1.524 . S
C442 H461 0.913 . S
C443 H419 0.950 . S
C443 C442 1.524 . S
C443 C444 1.415 . S
C444 H420 0.950 . S
C444 C439 1.363 . S
C444 C443 1.415 . S
C445 H421 0.951 . S
C445 C446 1.366 . S
C445 C447 1.388 . S
C446 C445 1.366 . S
C446 C450 1.385 . S
C447 H422 0.951 . S
C447 C445 1.388 . S
C447 C448 1.366 . S
C448 C447 1.366 . S
C448 C449 1.414 . S
C448 C451 1.499 . S
C449 H423 0.950 . S
C449 C448 1.414 . S
C449 C450 1.374 . S
C450 H424 0.950 . S
C450 C446 1.385 . S
C450 C449 1.374 . S
C451 C448 1.499 . S
C451 C452 1.373 1_455 S
C451 C453 1.389 1_556 S
C452 H425 0.950 . S
C452 C438 1.377 . S
C452 C451 1.373 1_655 S
C453 C437 1.377 . S
C453 C451 1.389 1_554 S
C453 C454 1.524 . S
C454 C453 1.524 . S
C454 C455 1.397 1_554 S
C454 C459 1.363 . S
C455 H426 0.950 . S
C455 C454 1.397 1_556 S
C455 C456 1.334 . S
C456 H427 0.950 . S
C456 C455 1.334 . S
C456 C457 1.287 1_556 S
C457 C456 1.287 1_554 S
C457 C458 1.524 . S
C457 H460 0.999 . S
C458 H428 0.950 . S
C458 C457 1.524 . S
C458 C459 1.415 . S
C459 H429 0.950 . S
C459 C454 1.363 . S
C459 C458 1.415 . S
H460 C457 0.999 . S
H461 C442 0.913 . S
H462 C480 0.951 . S
H463 C482 0.951 . S
H464 C484 0.950 . S
H465 C485 0.950 . S
H466 C487 0.950 . S
H467 C490 0.950 . S
H468 C491 0.950 . S
H469 C493 0.950 . S
H470 C494 0.950 . S
H471 C495 0.951 . S
H472 C497 0.951 . S
H473 C499 0.950 . S
H474 C500 0.950 . S
H475 C502 0.950 . S
H476 C505 0.950 . S
H477 C506 0.950 . S
H478 C508 0.950 . S
H479 C509 0.950 . S
C480 H462 0.951 . S
C480 C481 1.366 . S
C480 C482 1.388 . S
C481 C480 1.366 . S
C481 C485 1.385 . S
C482 H463 0.951 . S
C482 C480 1.388 . S
C482 C483 1.366 . S
C483 C482 1.366 . S
C483 C484 1.414 . S
C483 C486 1.499 . S
C484 H464 0.950 . S
C484 C483 1.414 . S
C484 C485 1.374 . S
C485 H465 0.950 . S
C485 C481 1.385 . S
C485 C484 1.374 . S
C486 C483 1.499 . S
C486 C487 1.373 . S
C486 C488 1.389 1_545 S
C487 H466 0.950 . S
C487 C486 1.373 . S
C487 C503 1.377 . S
C488 C486 1.389 1_565 S
C488 C489 1.524 . S
C488 C502 1.377 . S
C489 C488 1.524 . S
C489 C490 1.397 . S
C489 C494 1.363 . S
C490 H467 0.950 . S
C490 C489 1.397 . S
C490 C491 1.334 . S
C491 H468 0.950 . S
C491 C490 1.334 . S
C491 C492 1.287 . S
C492 C491 1.287 . S
C492 C493 1.524 . S
C492 H511 0.913 . S
C493 H469 0.950 . S
C493 C492 1.524 . S
C493 C494 1.415 . S
C494 H470 0.950 . S
C494 C489 1.363 . S
C494 C493 1.415 . S
C495 H471 0.951 . S
C495 C496 1.366 . S
C495 C497 1.388 . S
C496 C495 1.366 . S
C496 C500 1.385 . S
C497 H472 0.951 . S
C497 C495 1.388 . S
C497 C498 1.366 . S
C498 C497 1.366 . S
C498 C499 1.414 . S
C498 C501 1.499 . S
C499 H473 0.950 . S
C499 C498 1.414 . S
C499 C500 1.374 . S
C500 H474 0.950 . S
C500 C496 1.385 . S
C500 C499 1.374 . S
C501 C498 1.499 . S
C501 C502 1.373 . S
C501 C503 1.389 1_565 S
C502 H475 0.950 . S
C502 C488 1.377 . S
C502 C501 1.373 . S
C503 C487 1.377 . S
C503 C501 1.389 1_545 S
C503 C504 1.524 . S
C504 C503 1.524 . S
C504 C505 1.397 . S
C504 C509 1.363 . S
C505 H476 0.950 . S
C505 C504 1.397 . S
C505 C506 1.334 . S
C506 H477 0.950 . S
C506 C505 1.334 . S
C506 C507 1.287 . S
C507 C506 1.287 . S
C507 C508 1.524 . S
C507 H510 0.999 . S
C508 H478 0.950 . S
C508 C507 1.524 . S
C508 C509 1.415 . S
C509 H479 0.950 . S
C509 C504 1.363 . S
C509 C508 1.415 . S
H510 C507 0.999 . S
H511 C492 0.913 . S
H512 C530 0.951 . S
H513 C532 0.951 . S
H514 C534 0.950 . S
H515 C535 0.950 . S
H516 C537 0.950 . S
H517 C540 0.950 . S
H518 C541 0.950 . S
H519 C543 0.950 . S
H520 C544 0.950 . S
H521 C545 0.951 . S
H522 C547 0.951 . S
H523 C549 0.950 . S
H524 C550 0.950 . S
H525 C552 0.950 . S
H526 C555 0.950 . S
H527 C556 0.950 . S
H528 C558 0.950 . S
H529 C559 0.950 . S
C530 H512 0.951 . S
C530 C531 1.366 . S
C530 C532 1.388 . S
C531 C530 1.366 . S
C531 C535 1.385 . S
C532 H513 0.951 . S
C532 C530 1.388 . S
C532 C533 1.366 . S
C533 C532 1.366 . S
C533 C534 1.414 . S
C533 C536 1.499 . S
C534 H514 0.950 . S
C534 C533 1.414 . S
C534 C535 1.374 . S
C535 H515 0.950 . S
C535 C531 1.385 . S
C535 C534 1.374 . S
C536 C533 1.499 . S
C536 C537 1.373 . S
C536 C538 1.389 . S
C537 H516 0.950 . S
C537 C536 1.373 . S
C537 C553 1.377 . S
C538 C536 1.389 . S
C538 C539 1.524 . S
C538 C552 1.377 . S
C539 C538 1.524 . S
C539 C540 1.397 . S
C539 C544 1.363 . S
C540 H517 0.950 . S
C540 C539 1.397 . S
C540 C541 1.334 . S
C541 H518 0.950 . S
C541 C540 1.334 . S
C541 C542 1.287 . S
C542 C541 1.287 . S
C542 C543 1.524 . S
C542 H561 0.913 . S
C543 H519 0.950 . S
C543 C542 1.524 . S
C543 C544 1.415 . S
C544 H520 0.950 . S
C544 C539 1.363 . S
C544 C543 1.415 . S
C545 H521 0.951 . S
C545 C546 1.366 . S
C545 C547 1.388 . S
C546 C545 1.366 . S
C546 C550 1.385 . S
C547 H522 0.951 . S
C547 C545 1.388 . S
C547 C548 1.366 . S
C548 C547 1.366 . S
C548 C549 1.414 . S
C548 C551 1.499 . S
C549 H523 0.950 . S
C549 C548 1.414 . S
C549 C550 1.374 . S
C550 H524 0.950 . S
C550 C546 1.385 . S
C550 C549 1.374 . S
C551 C548 1.499 . S
C551 C552 1.373 . S
C551 C553 1.389 . S
C552 H525 0.950 . S
C552 C538 1.377 . S
C552 C551 1.373 . S
C553 C537 1.377 . S
C553 C551 1.389 . S
C553 C554 1.524 . S
C554 C553 1.524 . S
C554 C555 1.397 . S
C554 C559 1.363 . S
C555 H526 0.950 . S
C555 C554 1.397 . S
C555 C556 1.334 . S
C556 H527 0.950 . S
C556 C555 1.334 . S
C556 C557 1.287 . S
C557 C556 1.287 . S
C557 C558 1.524 . S
C557 H560 0.999 . S
C558 H528 0.950 . S
C558 C557 1.524 . S
C558 C559 1.415 . S
C559 H529 0.950 . S
C559 C554 1.363 . S
C559 C558 1.415 . S
H560 C557 0.999 . S
H561 C542 0.913 . S
H562 C580 0.951 . S
H563 C582 0.951 . S
H564 C584 0.950 . S
H565 C585 0.950 . S
H566 C587 0.950 . S
H567 C590 0.950 . S
H568 C591 0.950 . S
H569 C593 0.950 . S
H570 C594 0.950 . S
H571 C595 0.951 . S
H572 C597 0.951 . S
H573 C599 0.950 . S
H574 C600 0.950 . S
H575 C602 0.950 . S
H576 C605 0.950 . S
H577 C606 0.950 . S
H578 C608 0.950 . S
H579 C609 0.950 . S
C580 H562 0.951 . S
C580 C581 1.366 . S
C580 C582 1.388 . S
C581 C580 1.366 . S
C581 C585 1.385 . S
C582 H563 0.951 . S
C582 C580 1.388 . S
C582 C583 1.366 . S
C583 C582 1.366 . S
C583 C584 1.414 . S
C583 C586 1.499 . S
C584 H564 0.950 . S
C584 C583 1.414 . S
C584 C585 1.374 . S
C585 H565 0.950 . S
C585 C581 1.385 . S
C585 C584 1.374 . S
C586 C583 1.499 . S
C586 C587 1.373 . S
C586 C588 1.389 . S
C587 H566 0.950 . S
C587 C586 1.373 . S
C587 C603 1.377 . S
C588 C586 1.389 . S
C588 C589 1.524 . S
C588 C602 1.377 . S
C589 C588 1.524 . S
C589 C590 1.397 . S
C589 C594 1.363 . S
C590 H567 0.950 . S
C590 C589 1.397 . S
C590 C591 1.334 . S
C591 H568 0.950 . S
C591 C590 1.334 . S
C591 C592 1.287 . S
C592 C591 1.287 . S
C592 C593 1.524 . S
C592 H611 0.913 . S
C593 H569 0.950 . S
C593 C592 1.524 . S
C593 C594 1.415 . S
C594 H570 0.950 . S
C594 C589 1.363 . S
C594 C593 1.415 . S
C595 H571 0.951 . S
C595 C596 1.366 . S
C595 C597 1.388 . S
C596 C595 1.366 . S
C596 C600 1.385 . S
C597 H572 0.951 . S
C597 C595 1.388 . S
C597 C598 1.366 . S
C598 C597 1.366 . S
C598 C599 1.414 . S
C598 C601 1.499 . S
C599 H573 0.950 . S
C599 C598 1.414 . S
C599 C600 1.374 . S
C600 H574 0.950 . S
C600 C596 1.385 . S
C600 C599 1.374 . S
C601 C598 1.499 . S
C601 C602 1.373 . S
C601 C603 1.389 . S
C602 H575 0.950 . S
C602 C588 1.377 . S
C602 C601 1.373 . S
C603 C587 1.377 . S
C603 C601 1.389 . S
C603 C604 1.524 . S
C604 C603 1.524 . S
C604 C605 1.397 . S
C604 C609 1.363 . S
C605 H576 0.950 . S
C605 C604 1.397 . S
C605 C606 1.334 . S
C606 H577 0.950 . S
C606 C605 1.334 . S
C606 C607 1.287 . S
C607 C606 1.287 . S
C607 C608 1.524 . S
C607 H610 0.999 . S
C608 H578 0.950 . S
C608 C607 1.524 . S
C608 C609 1.415 . S
C609 H579 0.950 . S
C609 C604 1.363 . S
C609 C608 1.415 . S
H610 C607 0.999 . S
H611 C592 0.913 . S
H612 C630 0.951 . S
H613 C632 0.951 . S
H614 C634 0.950 . S
H615 C635 0.950 . S
H616 C637 0.950 . S
H617 C640 0.950 . S
H618 C641 0.950 . S
H619 C643 0.950 . S
H620 C644 0.950 . S
H621 C645 0.951 . S
H622 C647 0.951 . S
H623 C649 0.950 . S
H624 C650 0.950 . S
H625 C652 0.950 . S
H626 C655 0.950 . S
H627 C656 0.950 . S
H628 C658 0.950 . S
H629 C659 0.950 . S
C630 H612 0.951 . S
C630 C631 1.366 . S
C630 C632 1.388 . S
C631 C630 1.366 . S
C631 C635 1.385 . S
C632 H613 0.951 . S
C632 C630 1.388 . S
C632 C633 1.366 . S
C633 C632 1.366 . S
C633 C634 1.414 . S
C633 C636 1.499 . S
C634 H614 0.950 . S
C634 C633 1.414 . S
C634 C635 1.374 . S
C635 H615 0.950 . S
C635 C631 1.385 . S
C635 C634 1.374 . S
C636 C633 1.499 . S
C636 C637 1.373 . S
C636 C638 1.389 . S
C637 H616 0.950 . S
C637 C636 1.373 . S
C637 C653 1.377 . S
C638 C636 1.389 . S
C638 C639 1.524 . S
C638 C652 1.377 . S
C639 C638 1.524 . S
C639 C640 1.397 . S
C639 C644 1.363 . S
C640 H617 0.950 . S
C640 C639 1.397 . S
C640 C641 1.334 . S
C641 H618 0.950 . S
C641 C640 1.334 . S
C641 C642 1.287 . S
C642 C641 1.287 . S
C642 C643 1.524 . S
C642 H661 0.913 . S
C643 H619 0.950 . S
C643 C642 1.524 . S
C643 C644 1.415 . S
C644 H620 0.950 . S
C644 C639 1.363 . S
C644 C643 1.415 . S
C645 H621 0.951 . S
C645 C646 1.366 . S
C645 C647 1.388 . S
C646 C645 1.366 . S
C646 C650 1.385 . S
C647 H622 0.951 . S
C647 C645 1.388 . S
C647 C648 1.366 . S
C648 C647 1.366 . S
C648 C649 1.414 . S
C648 C651 1.499 . S
C649 H623 0.950 . S
C649 C648 1.414 . S
C649 C650 1.374 . S
C650 H624 0.950 . S
C650 C646 1.385 . S
C650 C649 1.374 . S
C651 C648 1.499 . S
C651 C652 1.373 . S
C651 C653 1.389 . S
C652 H625 0.950 . S
C652 C638 1.377 . S
C652 C651 1.373 . S
C653 C637 1.377 . S
C653 C651 1.389 . S
C653 C654 1.524 . S
C654 C653 1.524 . S
C654 C655 1.397 . S
C654 C659 1.363 . S
C655 H626 0.950 . S
C655 C654 1.397 . S
C655 C656 1.334 . S
C656 H627 0.950 . S
C656 C655 1.334 . S
C656 C657 1.287 . S
C657 C656 1.287 . S
C657 C658 1.524 . S
C657 H660 0.999 . S
C658 H628 0.950 . S
C658 C657 1.524 . S
C658 C659 1.415 . S
C659 H629 0.950 . S
C659 C654 1.363 . S
C659 C658 1.415 . S
H660 C657 0.999 . S
H661 C642 0.913 . S
H662 C680 0.951 . S
H663 C682 0.951 . S
H664 C684 0.950 . S
H665 C685 0.950 . S
H666 C687 0.950 . S
H667 C690 0.950 . S
H668 C691 0.950 . S
H669 C693 0.950 . S
H670 C694 0.950 . S
H671 C695 0.951 . S
H672 C697 0.951 . S
H673 C699 0.950 . S
H674 C700 0.950 . S
H675 C702 0.950 . S
H676 C705 0.950 . S
H677 C706 0.950 . S
H678 C708 0.950 . S
H679 C709 0.950 . S
C680 H662 0.951 . S
C680 C681 1.366 . S
C680 C682 1.388 . S
C681 C680 1.366 . S
C681 C685 1.385 . S
C682 H663 0.951 . S
C682 C680 1.388 . S
C682 C683 1.366 . S
C683 C682 1.366 . S
C683 C684 1.414 . S
C683 C686 1.499 . S
C684 H664 0.950 . S
C684 C683 1.414 . S
C684 C685 1.374 . S
C685 H665 0.950 . S
C685 C681 1.385 . S
C685 C684 1.374 . S
C686 C683 1.499 . S
C686 C687 1.373 . S
C686 C688 1.389 . S
C687 H666 0.950 . S
C687 C686 1.373 . S
C687 C703 1.377 . S
C688 C686 1.389 . S
C688 C689 1.524 . S
C688 C702 1.377 . S
C689 C688 1.524 . S
C689 C690 1.397 . S
C689 C694 1.363 . S
C690 H667 0.950 . S
C690 C689 1.397 . S
C690 C691 1.334 . S
C691 H668 0.950 . S
C691 C690 1.334 . S
C691 C692 1.287 . S
C692 C691 1.287 . S
C692 C693 1.524 . S
C692 H711 0.913 . S
C693 H669 0.950 . S
C693 C692 1.524 . S
C693 C694 1.415 . S
C694 H670 0.950 . S
C694 C689 1.363 . S
C694 C693 1.415 . S
C695 H671 0.951 . S
C695 C696 1.366 . S
C695 C697 1.388 . S
C696 C695 1.366 . S
C696 C700 1.385 . S
C697 H672 0.951 . S
C697 C695 1.388 . S
C697 C698 1.366 . S
C698 C697 1.366 . S
C698 C699 1.414 . S
C698 C701 1.499 . S
C699 H673 0.950 . S
C699 C698 1.414 . S
C699 C700 1.374 . S
C700 H674 0.950 . S
C700 C696 1.385 . S
C700 C699 1.374 . S
C701 C698 1.499 . S
C701 C702 1.373 . S
C701 C703 1.389 . S
C702 H675 0.950 . S
C702 C688 1.377 . S
C702 C701 1.373 . S
C703 C687 1.377 . S
C703 C701 1.389 . S
C703 C704 1.524 . S
C704 C703 1.524 . S
C704 C705 1.397 . S
C704 C709 1.363 . S
C705 H676 0.950 . S
C705 C704 1.397 . S
C705 C706 1.334 . S
C706 H677 0.950 . S
C706 C705 1.334 . S
C706 C707 1.287 . S
C707 C706 1.287 . S
C707 C708 1.524 . S
C707 H710 0.999 . S
C708 H678 0.950 . S
C708 C707 1.524 . S
C708 C709 1.415 . S
C709 H679 0.950 . S
C709 C704 1.363 . S
C709 C708 1.415 . S
H710 C707 0.999 . S
H711 C692 0.913 . S
H712 C730 0.951 . S
H713 C732 0.951 . S
H714 C734 0.950 . S
H715 C735 0.950 . S
H716 C737 0.950 . S
H717 C740 0.950 . S
H718 C741 0.950 . S
H719 C743 0.950 . S
H720 C744 0.950 . S
H721 C745 0.951 . S
H722 C747 0.951 . S
H723 C749 0.950 . S
H724 C750 0.950 . S
H725 C752 0.950 . S
H726 C755 0.950 . S
H727 C756 0.950 . S
H728 C758 0.950 . S
H729 C759 0.950 . S
C730 H712 0.951 . S
C730 C731 1.366 . S
C730 C732 1.388 . S
C731 C730 1.366 . S
C731 C735 1.385 . S
C732 H713 0.951 . S
C732 C730 1.388 . S
C732 C733 1.366 . S
C733 C732 1.366 . S
C733 C734 1.414 . S
C733 C736 1.499 . S
C734 H714 0.950 . S
C734 C733 1.414 . S
C734 C735 1.374 . S
C735 H715 0.950 . S
C735 C731 1.385 . S
C735 C734 1.374 . S
C736 C733 1.499 . S
C736 C737 1.373 . S
C736 C738 1.389 1_455 S
C737 H716 0.950 . S
C737 C736 1.373 . S
C737 C753 1.377 1_545 S
C738 C736 1.389 1_655 S
C738 C739 1.524 . S
C738 C752 1.377 1_545 S
C739 C738 1.524 . S
C739 C740 1.397 . S
C739 C744 1.363 . S
C740 H717 0.950 . S
C740 C739 1.397 . S
C740 C741 1.334 . S
C741 H718 0.950 . S
C741 C740 1.334 . S
C741 C742 1.287 . S
C742 C741 1.287 . S
C742 C743 1.524 . S
C742 H761 0.913 . S
C743 H719 0.950 . S
C743 C742 1.524 . S
C743 C744 1.415 . S
C744 H720 0.950 . S
C744 C739 1.363 . S
C744 C743 1.415 . S
C745 H721 0.951 . S
C745 C746 1.366 . S
C745 C747 1.388 . S
C746 C745 1.366 . S
C746 C750 1.385 . S
C747 H722 0.951 . S
C747 C745 1.388 . S
C747 C748 1.366 . S
C748 C747 1.366 . S
C748 C749 1.414 . S
C748 C751 1.499 . S
C749 H723 0.950 . S
C749 C748 1.414 . S
C749 C750 1.374 . S
C750 H724 0.950 . S
C750 C746 1.385 . S
C750 C749 1.374 . S
C751 C748 1.499 . S
C751 C752 1.373 . S
C751 C753 1.389 1_655 S
C752 H725 0.950 . S
C752 C738 1.377 1_565 S
C752 C751 1.373 . S
C753 C737 1.377 1_565 S
C753 C751 1.389 1_455 S
C753 C754 1.524 . S
C754 C753 1.524 . S
C754 C755 1.397 . S
C754 C759 1.363 . S
C755 H726 0.950 . S
C755 C754 1.397 . S
C755 C756 1.334 . S
C756 H727 0.950 . S
C756 C755 1.334 . S
C756 C757 1.287 . S
C757 C756 1.287 . S
C757 C758 1.524 . S
C757 H760 0.999 . S
C758 H728 0.950 . S
C758 C757 1.524 . S
C758 C759 1.415 . S
C759 H729 0.950 . S
C759 C754 1.363 . S
C759 C758 1.415 . S
H760 C757 0.999 . S
H761 C742 0.913 . S
H762 C780 0.951 . S
H763 C782 0.951 . S
H764 C784 0.922 1_545 S
H765 C785 0.950 1_545 S
H766 C787 0.950 . S
H767 C790 0.950 . S
H768 C791 0.950 . S
H769 C793 0.950 . S
H770 C794 0.950 1_655 S
H771 C795 0.951 . S
H772 C797 0.951 . S
H773 C799 0.922 1_565 S
H774 C800 0.950 1_565 S
H775 C802 0.950 . S
H776 C805 0.950 . S
H777 C806 0.950 . S
H778 C808 0.950 . S
H779 C809 0.950 1_455 S
C780 H762 0.951 . S
C780 C781 1.366 . S
C780 C782 1.388 . S
C781 C780 1.366 . S
C781 C785 1.385 . S
C782 H763 0.951 . S
C782 C780 1.388 . S
C782 C783 1.366 . S
C783 C782 1.366 . S
C783 C784 1.433 . S
C783 C786 1.499 . S
C784 H764 0.922 1_565 S
C784 C783 1.433 . S
C784 C785 1.384 . S
C785 H765 0.950 1_565 S
C785 C781 1.385 . S
C785 C784 1.384 . S
C786 C783 1.499 . S
C786 C787 1.373 1_565 S
C786 C788 1.389 . S
C787 H766 0.950 . S
C787 C786 1.373 1_545 S
C787 C803 1.377 1_455 S
C788 C786 1.389 . S
C788 C789 1.524 . S
C788 C802 1.377 1_455 S
C789 C788 1.524 . S
C789 C790 1.397 . S
C789 C794 1.363 . S
C790 H767 0.950 . S
C790 C789 1.397 . S
C790 C791 1.334 . S
C791 H768 0.950 . S
C791 C790 1.334 . S
C791 C792 1.287 . S
C792 C791 1.287 . S
C792 C793 1.524 . S
C792 H811 0.913 . S
C793 H769 0.950 . S
C793 C792 1.524 . S
C793 C794 1.415 . S
C794 H770 0.950 1_455 S
C794 C789 1.363 . S
C794 C793 1.415 . S
C795 H771 0.951 . S
C795 C796 1.366 . S
C795 C797 1.388 . S
C796 C795 1.366 . S
C796 C800 1.385 . S
C797 H772 0.951 . S
C797 C795 1.388 . S
C797 C798 1.366 . S
C798 C797 1.366 . S
C798 C799 1.433 . S
C798 C801 1.499 . S
C799 H773 0.922 1_545 S
C799 C798 1.433 . S
C799 C800 1.384 . S
C800 H774 0.950 1_545 S
C800 C796 1.385 . S
C800 C799 1.384 . S
C801 C798 1.499 . S
C801 C802 1.373 1_545 S
C801 C803 1.389 . S
C802 H775 0.950 . S
C802 C788 1.377 1_655 S
C802 C801 1.373 1_565 S
C803 C787 1.377 1_655 S
C803 C801 1.389 . S
C803 C804 1.524 . S
C804 C803 1.524 . S
C804 C805 1.397 . S
C804 C809 1.363 . S
C805 H776 0.950 . S
C805 C804 1.397 . S
C805 C806 1.334 . S
C806 H777 0.950 . S
C806 C805 1.334 . S
C806 C807 1.287 . S
C807 C806 1.287 . S
C807 C808 1.524 . S
C807 H810 0.999 . S
C808 H778 0.950 . S
C808 C807 1.524 . S
C808 C809 1.415 . S
C809 H779 0.950 1_655 S
C809 C804 1.363 . S
C809 C808 1.415 . S
H810 C807 0.999 . S
H811 C792 0.913 . S
H812 C830 0.951 . S
H813 C832 0.951 . S
H814 C834 0.950 1_455 S
H815 C835 0.950 1_455 S
H816 C837 0.950 . S
H817 C840 0.950 . S
H818 C841 0.950 . S
H819 C843 0.951 . S
H820 C844 0.950 . S
H821 C845 0.951 . S
H822 C847 0.951 . S
H823 C849 0.950 1_655 S
H824 C850 0.950 1_655 S
H825 C852 0.950 . S
H826 C855 0.950 . S
H827 C856 0.950 . S
H828 C858 0.951 . S
H829 C859 0.950 . S
C830 H812 0.951 . S
C830 C831 1.366 . S
C830 C832 1.388 . S
C831 C830 1.366 . S
C831 C835 1.385 . S
C832 H813 0.951 . S
C832 C830 1.388 . S
C832 C833 1.366 . S
C833 C832 1.366 . S
C833 C834 1.414 . S
C833 C836 1.499 . S
C834 H814 0.950 1_655 S
C834 C833 1.414 . S
C834 C835 1.374 . S
C835 H815 0.950 1_655 S
C835 C831 1.385 . S
C835 C834 1.374 . S
C836 C833 1.499 . S
C836 C837 1.373 1_655 S
C836 C838 1.389 . S
C837 H816 0.950 . S
C837 C836 1.373 1_455 S
C837 C853 1.377 1_545 S
C838 C836 1.389 . S
C838 C839 1.524 . S
C838 C852 1.377 1_545 S
C839 C838 1.524 . S
C839 C840 1.397 . S
C839 C844 1.363 1_545 S
C840 H817 0.950 . S
C840 C839 1.397 . S
C840 C841 1.334 . S
C841 H818 0.950 . S
C841 C840 1.334 . S
C841 C842 1.287 . S
C842 C841 1.287 . S
C842 C843 1.523 1_545 S
C842 H861 0.913 . S
C843 H819 0.951 . S
C843 C842 1.523 1_565 S
C843 C844 1.415 . S
C844 H820 0.950 . S
C844 C839 1.363 1_565 S
C844 C843 1.415 . S
C845 H821 0.951 . S
C845 C846 1.366 . S
C845 C847 1.388 . S
C846 C845 1.366 . S
C846 C850 1.385 . S
C847 H822 0.951 . S
C847 C845 1.388 . S
C847 C848 1.366 . S
C848 C847 1.366 . S
C848 C849 1.414 . S
C848 C851 1.499 . S
C849 H823 0.950 1_455 S
C849 C848 1.414 . S
C849 C850 1.374 . S
C850 H824 0.950 1_455 S
C850 C846 1.385 . S
C850 C849 1.374 . S
C851 C848 1.499 . S
C851 C852 1.373 1_455 S
C851 C853 1.389 . S
C852 H825 0.950 . S
C852 C838 1.377 1_565 S
C852 C851 1.373 1_655 S
C853 C837 1.377 1_565 S
C853 C851 1.389 . S
C853 C854 1.524 . S
C854 C853 1.524 . S
C854 C855 1.397 . S
C854 C859 1.363 1_565 S
C855 H826 0.950 . S
C855 C854 1.397 . S
C855 C856 1.334 . S
C856 H827 0.950 . S
C856 C855 1.334 . S
C856 C857 1.287 . S
C857 C856 1.287 . S
C857 C858 1.523 1_565 S
C857 H860 0.999 . S
C858 H828 0.951 . S
C858 C857 1.523 1_545 S
C858 C859 1.415 . S
C859 H829 0.950 . S
C859 C854 1.363 1_545 S
C859 C858 1.415 . S
H860 C857 0.999 . S
H861 C842 0.913 . S
H862 C880 0.951 . S
H863 C882 0.951 . S
H864 C884 0.950 1_545 S
H865 C885 0.950 . S
H866 C887 0.950 . S
H867 C890 0.950 . S
H868 C891 0.950 . S
H869 C893 0.950 . S
H870 C894 0.950 1_455 S
H871 C895 0.951 . S
H872 C897 0.951 . S
H873 C899 0.950 1_565 S
H874 C900 0.950 . S
H875 C902 0.950 . S
H876 C905 0.950 . S
H877 C906 0.950 . S
H878 C908 0.950 . S
H879 C909 0.950 1_655 S
C880 H862 0.951 . S
C880 C881 1.366 . S
C880 C882 1.388 . S
C881 C880 1.366 . S
C881 C885 1.385 . S
C882 H863 0.951 . S
C882 C880 1.388 . S
C882 C883 1.366 . S
C883 C882 1.366 . S
C883 C884 1.414 . S
C883 C886 1.499 . S
C884 H864 0.950 1_565 S
C884 C883 1.414 . S
C884 C885 1.374 . S
C885 H865 0.950 . S
C885 C881 1.385 . S
C885 C884 1.374 . S
C886 C883 1.499 . S
C886 C887 1.373 . S
C886 C888 1.389 . S
C887 H866 0.950 . S
C887 C886 1.373 . S
C887 C903 1.377 1_665 S
C888 C886 1.389 . S
C888 C889 1.524 . S
C888 C902 1.377 1_665 S
C889 C888 1.524 . S
C889 C890 1.397 1_565 S
C889 C894 1.363 . S
C890 H867 0.950 . S
C890 C889 1.397 1_545 S
C890 C891 1.334 . S
C891 H868 0.950 . S
C891 C890 1.334 . S
C891 C892 1.287 . S
C892 C891 1.287 . S
C892 C893 1.524 1_545 S
C892 H911 0.913 . S
C893 H869 0.950 . S
C893 C892 1.524 1_565 S
C893 C894 1.415 . S
C894 H870 0.950 1_655 S
C894 C889 1.363 . S
C894 C893 1.415 . S
C895 H871 0.951 . S
C895 C896 1.366 . S
C895 C897 1.388 . S
C896 C895 1.366 . S
C896 C900 1.385 . S
C897 H872 0.951 . S
C897 C895 1.388 . S
C897 C898 1.366 . S
C898 C897 1.366 . S
C898 C899 1.414 . S
C898 C901 1.499 . S
C899 H873 0.950 1_545 S
C899 C898 1.414 . S
C899 C900 1.374 . S
C900 H874 0.950 . S
C900 C896 1.385 . S
C900 C899 1.374 . S
C901 C898 1.499 . S
C901 C902 1.373 . S
C901 C903 1.389 . S
C902 H875 0.950 . S
C902 C888 1.377 1_445 S
C902 C901 1.373 . S
C903 C887 1.377 1_445 S
C903 C901 1.389 . S
C903 C904 1.524 . S
C904 C903 1.524 . S
C904 C905 1.397 1_545 S
C904 C909 1.363 . S
C905 H876 0.950 . S
C905 C904 1.397 1_565 S
C905 C906 1.334 . S
C906 H877 0.950 . S
C906 C905 1.334 . S
C906 C907 1.287 . S
C907 C906 1.287 . S
C907 C908 1.524 1_565 S
C907 H910 0.999 . S
C908 H878 0.950 . S
C908 C907 1.524 1_545 S
C908 C909 1.415 . S
C909 H879 0.950 1_455 S
C909 C904 1.363 . S
C909 C908 1.415 . S
H910 C907 0.999 . S
H911 C892 0.913 . S
C131 C6 1.465 . S
C146 C34 1.465 . S
C181 C49 1.465 . S
C196 C21 1.465 . S
C231 C90 1.465 . S
C246 C62 1.465 . S
C281 C77 1.465 . S
C296 C105 1.465 . S
C331 C92 1.273 . S
C346 C8 1.272 . S
C381 C23 1.272 . S
C396 C107 1.272 . S
C431 C36 1.272 . S
C446 C64 1.272 . S
C481 C79 1.274 . S
C496 C51 1.274 . S
C531 C7 1.525 . S
C546 C76 1.525 . S
C581 C91 1.525 . S
C596 C20 1.525 . S
C631 C104 1.525 . S
C646 C35 1.525 . S
C681 C48 1.525 . S
C696 C63 1.525 . S
C731 C9 1.190 . S
C746 C37 1.190 . S
C781 C50 1.190 . S
C796 C22 1.191 . S
C831 C93 1.191 . S
C846 C65 1.191 . S
C881 C106 1.190 . S
C896 C78 1.190 . S
