# Generated by pormake.
# Topology tfs, (6)-cn, num edge types: 1
# Building blocks:
#     Node 0, Type 0, BuildingBlock: BETFEN_clean_sbu_0, # of connection points: 6
#     Node 1, Type 0, BuildingBlock: BETFEN_clean_sbu_0, # of connection points: 6
#     Node 2, Type 0, BuildingBlock: BETFEN_clean_sbu_0, # of connection points: 6
#     Node 3, Type 0, BuildingBlock: BETFEN_clean_sbu_0, # of connection points: 6
#     Node 4, Type 0, BuildingBlock: BETFEN_clean_sbu_0, # of connection points: 6
#     Node 5, Type 0, BuildingBlock: BETFEN_clean_sbu_0, # of connection points: 6
#     Edge 6, Type (0, 0), BuildingBlock: ZUJKAS_clean_linker_0, # of connection points: 2
#     Edge 7, Type (0, 0), BuildingBlock: ZUJKAS_clean_linker_0, # of connection points: 2
#     Edge 8, Type (0, 0), BuildingBlock: ZUJKAS_clean_linker_0, # of connection points: 2
#     Edge 9, Type (0, 0), BuildingBlock: ZUJKAS_clean_linker_0, # of connection points: 2
#     Edge 10, Type (0, 0), BuildingBlock: ZUJKAS_clean_linker_0, # of connection points: 2
#     Edge 11, Type (0, 0), BuildingBlock: ZUJKAS_clean_linker_0, # of connection points: 2
#     Edge 12, Type (0, 0), BuildingBlock: ZUJKAS_clean_linker_0, # of connection points: 2
#     Edge 13, Type (0, 0), BuildingBlock: ZUJKAS_clean_linker_0, # of connection points: 2
#     Edge 14, Type (0, 0), BuildingBlock: ZUJKAS_clean_linker_0, # of connection points: 2
#     Edge 15, Type (0, 0), BuildingBlock: ZUJKAS_clean_linker_0, # of connection points: 2
#     Edge 16, Type (0, 0), BuildingBlock: ZUJKAS_clean_linker_0, # of connection points: 2
#     Edge 17, Type (0, 0), BuildingBlock: ZUJKAS_clean_linker_0, # of connection points: 2
#     Edge 18, Type (0, 0), BuildingBlock: ZUJKAS_clean_linker_0, # of connection points: 2
#     Edge 19, Type (0, 0), BuildingBlock: ZUJKAS_clean_linker_0, # of connection points: 2
#     Edge 20, Type (0, 0), BuildingBlock: ZUJKAS_clean_linker_0, # of connection points: 2
#     Edge 21, Type (0, 0), BuildingBlock: ZUJKAS_clean_linker_0, # of connection points: 2
#     Edge 22, Type (0, 0), BuildingBlock: ZUJKAS_clean_linker_0, # of connection points: 2
#     Edge 23, Type (0, 0), BuildingBlock: ZUJKAS_clean_linker_0, # of connection points: 2
# Relax obj value: 0.538
# Max RMSD: 0.425
# Mean RMSD: 0.340
data_MOF--net-tfs--node1-BETFEN_clean_sbu_0--edge1-ZUJKAS_clean_linker_0
_symmetry_space_group_name_H-M    P1
_symmetry_Int_Tables_number       1
_symmetry_cell_setting            triclinic
loop_
_symmetry_equiv_pos_as_xyz
'x, y, z'
_cell_length_a     62.680381
_cell_length_b     58.685468
_cell_length_c     16.827219
_cell_angle_alpha  99.838872
_cell_angle_beta   82.50477
_cell_angle_gamma 114.34657
loop_
_atom_site_label
_atom_site_type_symbol
_atom_site_fract_x
_atom_site_fract_y
_atom_site_fract_z
_atom_type_partial_charge
Pr0 Pr 0.24036 0.35674 0.09777 0.0
Pr1 Pr 0.22812 0.39511 0.04753 0.0
C2 C 0.25574 0.32612 0.15102 0.0
C3 C 0.24604 0.29948 0.16473 0.0
C4 C 0.25123 0.28164 0.10792 0.0
C5 C 0.24449 0.25705 0.12485 0.0
C6 C 0.23277 0.24998 0.19958 0.0
C7 C 0.22613 0.26744 0.25361 0.0
C8 C 0.23265 0.29188 0.23632 0.0
C9 C 0.22371 0.34294 0.94444 0.0
C10 C 0.18469 0.34934 0.14132 0.0
C11 C 0.21167 0.41942 0.96816 0.0
C12 C 0.22049 0.44557 0.95344 0.0
C13 C 0.22569 0.46504 0.01851 0.0
C14 C 0.2346 0.4899 0.0042 0.0
C15 C 0.23885 0.49564 0.92467 0.0
C16 C 0.23423 0.47627 0.85948 0.0
C17 C 0.22499 0.45128 0.87386 0.0
C18 C 0.24196 0.40654 0.2043 0.0
C19 C 0.28459 0.41276 0.04879 0.0
O20 O 0.24786 0.34126 0.19982 0.0
O21 O 0.25903 0.33043 0.0758 0.0
O22 O 0.23852 0.36437 0.97077 0.0
O23 O 0.21631 0.32779 -0.00097 0.0
O24 O 0.19023 0.36719 0.09426 0.0
O25 O 0.20105 0.34216 0.15694 0.0
O26 O 0.22396 0.40682 0.93146 0.0
O27 O 0.20473 0.4152 0.04298 0.0
O28 O 0.22863 0.3856 0.17129 0.0
O29 O 0.24715 0.42429 0.15899 0.0
O30 O 0.2785 0.39146 0.08095 0.0
O31 O 0.26835 0.41865 0.02633 0.0
H32 H 0.26132 0.28693 0.0517 0.0
H33 H 0.24955 0.24402 0.08117 0.0
H34 H 0.21742 0.263 0.31231 0.0
H35 H 0.22815 0.30511 0.28107 0.0
H36 H 0.22278 0.46116 0.08058 0.0
H37 H 0.23762 0.50456 0.05546 0.0
H38 H 0.23763 0.48045 0.79766 0.0
H39 H 0.22146 0.43644 0.82304 0.0
Pr40 Pr 0.82754 0.25949 0.65405 0.0
Pr41 Pr 0.77438 0.2448 0.7312 0.0
C42 C 0.87504 0.27534 0.61979 0.0
C43 C 0.89806 0.27344 0.58617 0.0
C44 C 0.90438 0.27176 0.50232 0.0
C45 C 0.92713 0.27369 0.47191 0.0
C46 C 0.94465 0.27783 0.524 0.0
C47 C 0.93824 0.27902 0.60777 0.0
C48 C 0.91535 0.27669 0.63817 0.0
C49 C 0.79257 0.24801 0.55277 0.0
C50 C 0.79182 0.19752 0.63859 0.0
C51 C 0.72718 0.22701 0.7612 0.0
C52 C 0.70467 0.23036 0.78148 0.0
C53 C 0.69289 0.22606 0.85799 0.0
C54 C 0.67005 0.22512 0.87417 0.0
C55 C 0.65807 0.22804 0.81383 0.0
C56 C 0.6702 0.23306 0.73782 0.0
C57 C 0.69316 0.23429 0.72201 0.0
C58 C 0.80874 0.25449 0.83591 0.0
C59 C 0.80618 0.30611 0.72674 0.0
O60 O 0.86463 0.26748 0.68888 0.0
O61 O 0.86037 0.27511 0.57051 0.0
O62 O 0.79428 0.26143 0.61972 0.0
O63 O 0.81029 0.24153 0.53276 0.0
O64 O 0.77457 0.2045 0.67212 0.0
O65 O 0.81382 0.21451 0.62993 0.0
O66 O 0.7377 0.23056 0.68899 0.0
O67 O 0.7417 0.23238 0.81769 0.0
O68 O 0.80741 0.24197 0.76685 0.0
O69 O 0.79116 0.26125 0.8543 0.0
O70 O 0.82474 0.30015 0.70102 0.0
O71 O 0.78486 0.28839 0.73781 0.0
H72 H 0.89193 0.26968 0.45983 0.0
H73 H 0.9313 0.2729 0.40725 0.0
H74 H 0.95104 0.282 0.6501 0.0
H75 H 0.91143 0.2783 0.70299 0.0
H76 H 0.70109 0.22264 0.90495 0.0
H77 H 0.66175 0.22179 0.93406 0.0
H78 H 0.66172 0.23505 0.68895 0.0
H79 H 0.70151 0.23735 0.662 0.0
Pr80 Pr 0.65638 0.79289 0.16275 0.0
Pr81 Pr 0.62097 0.73131 0.1096 0.0
C82 C 0.67801 0.84327 0.21887 0.0
C83 C 0.69009 0.87139 0.25015 0.0
C84 C 0.69693 0.89034 0.19897 0.0
C85 C 0.70801 0.91643 0.22849 0.0
C86 C 0.71307 0.92504 0.31087 0.0
C87 C 0.70666 0.90578 0.36116 0.0
C88 C 0.69537 0.87977 0.33176 0.0
C89 C 0.67194 0.76793 0.02398 0.0
C90 C 0.66944 0.7465 0.20966 0.0
C91 C 0.59058 0.68439 0.04342 0.0
C92 C 0.56565 0.66397 0.03943 0.0
C93 C 0.5519 0.65411 0.1087 0.0
C94 C 0.52974 0.63342 0.10274 0.0
C95 C 0.52021 0.62147 0.0272 0.0
C96 C 0.53396 0.63162 0.95798 0.0
C97 C 0.55609 0.65235 0.96405 0.0
C98 C 0.61274 0.75306 0.26597 0.0
C99 C 0.60723 0.77573 0.06291 0.0
O100 O 0.66969 0.82545 0.26633 0.0
O101 O 0.67454 0.83466 0.14221 0.0
O102 O 0.65069 0.76386 0.04574 0.0
O103 O 0.68551 0.78604 0.07368 0.0
O104 O 0.65495 0.72985 0.15516 0.0
O105 O 0.67062 0.77001 0.22993 0.0
O106 O 0.59636 0.70505 0.01091 0.0
O107 O 0.60227 0.68847 0.10707 0.0
O108 O 0.62099 0.76433 0.20498 0.0
O109 O 0.60198 0.72937 0.2397 0.0
O110 O 0.62334 0.79391 0.10849 0.0
O111 O 0.60579 0.75244 0.0466 0.0
H112 H 0.69351 0.88503 0.13555 0.0
H113 H 0.71215 0.92978 0.18598 0.0
H114 H 0.71046 0.9105 0.42409 0.0
H115 H 0.69087 0.8661 0.37358 0.0
H116 H 0.55844 0.66211 0.16798 0.0
H117 H 0.52036 0.62641 0.15807 0.0
H118 H 0.52765 0.62366 0.8984 0.0
H119 H 0.56601 0.65906 0.90897 0.0
Pr120 Pr 0.81653 0.61535 0.70864 0.0
Pr121 Pr 0.76939 0.59506 0.79323 0.0
C122 C 0.85712 0.6376 0.62294 0.0
C123 C 0.87602 0.66293 0.62005 0.0
C124 C 0.89317 0.6731 0.67707 0.0
C125 C 0.91293 0.69517 0.66625 0.0
C126 C 0.91592 0.70736 0.59814 0.0
C127 C 0.89786 0.69834 0.54493 0.0
C128 C 0.87809 0.67628 0.55576 0.0
C129 C 0.81379 0.63437 0.87344 0.0
C130 C 0.77911 0.64162 0.68687 0.0
C131 C 0.73609 0.58483 0.91416 0.0
C132 C 0.71353 0.56462 0.92746 0.0
C133 C 0.69995 0.55114 0.86175 0.0
C134 C 0.67798 0.53239 0.87484 0.0
C135 C 0.66955 0.5269 0.9536 0.0
C136 C 0.68331 0.54011 0.01911 0.0
C137 C 0.70533 0.55899 0.00595 0.0
C138 C 0.76634 0.57828 0.63016 0.0
C139 C 0.7999 0.55814 0.76409 0.0
O140 O 0.83676 0.63402 0.59956 0.0
O141 O 0.8555 0.62611 0.68494 0.0
O142 O 0.80034 0.63212 0.82139 0.0
O143 O 0.82916 0.62539 0.84218 0.0
O144 O 0.76529 0.6283 0.74352 0.0
O145 O 0.79921 0.63951 0.66128 0.0
O146 O 0.75437 0.57927 0.91143 0.0
O147 O 0.73707 0.59818 0.85818 0.0
O148 O 0.78345 0.58146 0.66969 0.0
O149 O 0.74801 0.57604 0.6798 0.0
O150 O 0.81324 0.57329 0.71045 0.0
O151 O 0.78381 0.56423 0.81122 0.0
H152 H 0.89193 0.66347 0.72803 0.0
H153 H 0.92645 0.70196 0.70888 0.0
H154 H 0.89975 0.70724 0.49161 0.0
H155 H 0.86502 0.66897 0.51135 0.0
H156 H 0.70628 0.55518 0.80051 0.0
H157 H 0.66776 0.52196 0.82337 0.0
H158 H 0.67696 0.53597 0.08022 0.0
H159 H 0.71586 0.56927 0.05679 0.0
Pr160 Pr 0.23558 0.78149 0.03096 0.0
Pr161 Pr 0.29198 0.80346 0.03203 0.0
C162 C 0.18948 0.76736 0.06906 0.0
C163 C 0.17196 0.77614 0.11382 0.0
C164 C 0.15361 0.77529 0.07223 0.0
C165 C 0.13477 0.7798 0.11445 0.0
C166 C 0.13401 0.785 0.19896 0.0
C167 C 0.15299 0.78726 0.24033 0.0
C168 C 0.17193 0.78297 0.19806 0.0
C169 C 0.26151 0.80084 0.89441 0.0
C170 C 0.26596 0.83877 0.12181 0.0
C171 C 0.33766 0.81593 0.98777 0.0
C172 C 0.35545 0.80502 0.97432 0.0
C173 C 0.36371 0.79958 0.03951 0.0
C174 C 0.3827 0.79253 0.02727 0.0
C175 C 0.39377 0.79076 0.94972 0.0
C176 C 0.38482 0.79499 0.88397 0.0
C177 C 0.36579 0.80202 0.89619 0.0
C178 C 0.26644 0.7828 0.16661 0.0
C179 C 0.26023 0.74288 0.96154 0.0
O180 O 0.20334 0.7631 0.1111 0.0
O181 O 0.19972 0.7771 0.00267 0.0
O182 O 0.26671 0.81044 0.96543 0.0
O183 O 0.24098 0.78217 0.89262 0.0
O184 O 0.28571 0.83981 0.08056 0.0
O185 O 0.2464 0.8183 0.11873 0.0
O186 O 0.32159 0.80798 0.93516 0.0
O187 O 0.32975 0.82008 0.0625 0.0
O188 O 0.26129 0.77434 0.09528 0.0
O189 O 0.28713 0.80121 0.1707 0.0
O190 O 0.24008 0.74449 0.98723 0.0
O191 O 0.2808 0.7622 0.96739 0.0
H192 H 0.15334 0.77004 0.00731 0.0
H193 H 0.12023 0.77782 0.08154 0.0
H194 H 0.15276 0.79151 0.30562 0.0
H195 H 0.186 0.78403 0.23165 0.0
H196 H 0.3561 0.80164 0.10051 0.0
H197 H 0.38944 0.78967 0.07917 0.0
H198 H 0.39294 0.7935 0.82348 0.0
H199 H 0.35968 0.80599 0.84489 0.0
Pr200 Pr 0.36253 0.15725 0.8139 0.0
Pr201 Pr 0.37427 0.21299 0.85418 0.0
C202 C 0.34258 0.10772 0.82045 0.0
C203 C 0.32315 0.08886 0.77522 0.0
C204 C 0.31827 0.09418 0.70305 0.0
C205 C 0.30193 0.07538 0.65391 0.0
C206 C 0.29032 0.05106 0.6763 0.0
C207 C 0.29342 0.0465 0.75245 0.0
C208 C 0.30983 0.06544 0.8019 0.0
C209 C 0.3865 0.18258 0.68447 0.0
C210 C 0.33018 0.17984 0.73881 0.0
C211 C 0.38614 0.26273 0.87806 0.0
C212 C 0.40851 0.28417 0.89072 0.0
C213 C 0.41332 0.29679 0.96924 0.0
C214 C 0.43522 0.31569 0.98413 0.0
C215 C 0.45233 0.32231 0.92042 0.0
C216 C 0.44767 0.30994 0.84185 0.0
C217 C 0.42584 0.29085 0.82698 0.0
C218 C 0.34796 0.18433 0.97388 0.0
C219 C 0.41452 0.19291 0.88116 0.0
O220 O 0.33702 0.12375 0.87371 0.0
O221 O 0.3621 0.11832 0.77674 0.0
O222 O 0.39063 0.19146 0.75752 0.0
O223 O 0.3714 0.15922 0.67682 0.0
O224 O 0.3428 0.20215 0.77595 0.0
O225 O 0.33361 0.15945 0.74401 0.0
O226 O 0.38339 0.24975 0.80602 0.0
O227 O 0.3784 0.24868 0.93648 0.0
O228 O 0.34407 0.17872 0.90039 0.0
O229 O 0.36621 0.2051 0.98816 0.0
O230 O 0.39739 0.17018 0.8807 0.0
O231 O 0.41072 0.21201 0.86405 0.0
H232 H 0.32803 0.11242 0.68243 0.0
H233 H 0.29956 0.07934 0.59583 0.0
H234 H 0.2846 0.02784 0.77088 0.0
H235 H 0.313 0.0614 0.85865 0.0
H236 H 0.40026 0.29177 0.01934 0.0
H237 H 0.43871 0.32534 0.04498 0.0
H238 H 0.46098 0.31492 0.79236 0.0
H239 H 0.42272 0.2812 0.76605 0.0
H240 H 0.32388 0.15719 0.58422 0.0
H241 H 0.2983 0.15995 0.49098 0.0
H242 H 0.27065 0.20081 0.68432 0.0
H243 H 0.29759 0.19982 0.77542 0.0
H244 H 0.25484 0.14559 0.47269 0.0
H245 H 0.29118 0.25024 0.53292 0.0
H246 H 0.30314 0.23209 0.57438 0.0
H247 H 0.27692 0.23567 0.62127 0.0
C248 C 0.31215 0.16656 0.60652 0.0
C249 C 0.31257 0.17832 0.68644 0.0
C250 C 0.29761 0.16819 0.55338 0.0
C251 C 0.28301 0.18124 0.57968 0.0
C252 C 0.28238 0.19153 0.66137 0.0
H253 H 0.19838 0.21932 0.29938 0.0
H254 H 0.20513 0.19438 0.38813 0.0
C255 C 0.29752 0.19068 0.71372 0.0
C256 C 0.26955 0.18511 0.52035 0.0
H257 H 0.26106 0.23082 0.44395 0.0
C258 C 0.25615 0.16424 0.46681 0.0
C259 C 0.27128 0.20949 0.512 0.0
C260 C 0.28658 0.23314 0.56263 0.0
C261 C 0.245 0.16724 0.40443 0.0
C262 C 0.24699 0.19152 0.3965 0.0
C263 C 0.25953 0.21217 0.45128 0.0
C264 C 0.23847 0.19696 0.32747 0.0
C265 C 0.23168 0.14478 0.34589 0.0
C266 C 0.25432 0.20521 0.26132 0.0
C267 C 0.25094 0.22011 0.2121 0.0
C268 C 0.23156 0.22689 0.22853 0.0
C269 C 0.21391 0.2152 0.28702 0.0
C270 C 0.21755 0.20067 0.33722 0.0
H271 H 0.22991 0.12675 0.36424 0.0
H272 H 0.21392 0.14412 0.34105 0.0
H273 H 0.24098 0.14677 0.28497 0.0
H274 H 0.27062 0.20259 0.25339 0.0
H275 H 0.26494 0.22859 0.1677 0.0
H276 H 0.15718 0.37521 0.20334 0.0
H277 H 0.11833 0.36017 0.27318 0.0
H278 H 0.11619 0.28461 0.23462 0.0
H279 H 0.1564 0.3006 0.17385 0.0
H280 H 0.07949 0.33674 0.2447 0.0
H281 H 0.08599 0.27323 0.44065 0.0
H282 H 0.11158 0.29351 0.38649 0.0
H283 H 0.09167 0.26393 0.3361 0.0
C284 C 0.14857 0.3554 0.21085 0.0
C285 C 0.16024 0.33924 0.18274 0.0
C286 C 0.12596 0.34658 0.25091 0.0
C287 C 0.11342 0.32092 0.2624 0.0
C288 C 0.12503 0.30463 0.23196 0.0
H289 H 0.95981 0.24869 0.4019 0.0
H290 H 0.99998 0.25711 0.34231 0.0
C291 C 0.14819 0.31375 0.19513 0.0
C292 C 0.08822 0.31181 0.30234 0.0
H293 H 0.04836 0.27244 0.4332 0.0
C294 C 0.07325 0.32298 0.2869 0.0
C295 C 0.07869 0.29319 0.35687 0.0
C296 C 0.09288 0.28045 0.38159 0.0
C297 C 0.05026 0.31687 0.3241 0.0
C298 C 0.04098 0.29855 0.37814 0.0
C299 C 0.05531 0.28663 0.39229 0.0
C300 C 1.01657 0.29198 0.42021 0.0
C301 C 0.03581 0.33016 0.30519 0.0
C302 C 1.01208 0.30831 0.48563 0.0
C303 C 0.98907 0.30328 0.52087 0.0
C304 C 0.96959 0.28197 0.49091 0.0
C305 C 0.97418 0.26539 0.4264 0.0
C306 C 0.99727 0.27017 0.39228 0.0
H307 H 0.04412 0.34161 0.25475 0.0
H308 H 0.01805 0.31623 0.28919 0.0
H309 H 0.03363 0.34286 0.3597 0.0
H310 H 0.02641 0.32531 0.50877 0.0
H311 H 0.98641 0.3166 0.56997 0.0
H312 H 0.75404 0.15482 0.68322 0.0
H313 H 0.74459 0.11041 0.6322 0.0
H314 H 0.8051 0.13233 0.46241 0.0
H315 H 0.8157 0.17638 0.51945 0.0
H316 H 0.73019 0.08034 0.5206 0.0
H317 H 0.81756 0.07761 0.50006 0.0
H318 H 0.81276 0.10502 0.5486 0.0
H319 H 0.81827 0.10027 0.43999 0.0
C320 C 0.76567 0.15019 0.6361 0.0
C321 C 0.78598 0.1697 0.60709 0.0
C322 C 0.76012 0.1244 0.60588 0.0
C323 C 0.77422 0.11669 0.54337 0.0
C324 C 0.79418 0.13647 0.51293 0.0
H325 H 0.73905 0.96779 0.22951 0.0
H326 H 0.75452 0.01258 0.28354 0.0
C327 C 0.80017 0.1622 0.54517 0.0
C328 C 0.76722 0.0885 0.50847 0.0
H329 H 0.78821 0.04266 0.42767 0.0
C330 C 0.74319 0.07245 0.50179 0.0
C331 C 0.7835 0.07683 0.48243 0.0
C332 C 0.8094 0.09077 0.49398 0.0
C333 C 0.73527 0.04637 0.47062 0.0
C334 C 0.75148 0.03516 0.44195 0.0
C335 C 0.7755 0.05091 0.4479 0.0
C336 C 0.74342 1.00708 0.40839 0.0
C337 C 0.70927 0.03078 0.46797 0.0
C338 C 0.732 0.98815 0.4592 0.0
C339 C 0.72266 0.96215 0.42826 0.0
C340 C 0.72432 0.9535 0.34443 0.0
C341 C 0.73652 0.9727 0.2939 0.0
C342 C 0.74582 0.99879 0.32514 0.0
H343 H 0.69886 0.04253 0.48251 0.0
H344 H 0.70517 0.01978 0.40724 0.0
H345 H 0.70372 0.01715 0.51259 0.0
H346 H 0.72987 0.99352 0.52364 0.0
H347 H 0.71352 0.94898 0.47121 0.0
H348 H 0.80382 0.67683 0.58094 0.0
H349 H 0.78883 0.69888 0.50586 0.0
H350 H 0.71934 0.66064 0.61414 0.0
H351 H 0.7346 0.64041 0.69332 0.0
H352 H 0.76382 0.69018 0.39579 0.0
H353 H 0.71423 0.72433 0.64477 0.0
H354 H 0.73342 0.71024 0.6635 0.0
H355 H 0.70328 0.69085 0.64087 0.0
C356 C 0.78545 0.67371 0.59065 0.0
C357 C 0.77065 0.65708 0.64529 0.0
C358 C 0.77671 0.68624 0.54664 0.0
C359 C 0.75274 0.68242 0.55462 0.0
C360 C 0.73802 0.66541 0.60842 0.0
H361 H 0.66355 0.69808 0.22673 0.0
H362 H 0.68536 0.68495 0.30792 0.0
C363 C 0.74683 0.65347 0.65387 0.0
C364 C 0.74291 0.69506 0.50476 0.0
H365 H 0.70175 0.72039 0.51117 0.0
C366 C 0.75041 0.69689 0.42209 0.0
C367 C 0.72584 0.70507 0.53722 0.0
C368 C 0.71901 0.70782 0.62661 0.0
C369 C 0.74061 0.7068 0.37186 0.0
C370 C 0.72207 0.71438 0.40292 0.0
C371 C 0.71532 0.71377 0.48586 0.0
C372 C 0.70939 0.7227 0.35017 0.0
C373 C 0.7503 0.70949 0.28557 0.0
C374 C 0.71538 0.7484 0.3457 0.0
C375 C 0.70285 0.75601 0.29901 0.0
C376 C 0.6839 0.73819 0.25472 0.0
C377 C 0.67815 0.71246 0.25852 0.0
C378 C 0.69062 0.70488 0.30555 0.0
H379 H 0.76543 0.70393 0.27058 0.0
H380 H 0.73632 0.6977 0.24391 0.0
H381 H 0.75603 0.72941 0.27493 0.0
H382 H 0.72971 0.76269 0.37895 0.0
H383 H 0.70796 0.77599 0.29814 0.0
H384 H 0.10955 0.81275 0.17951 0.0
H385 H 0.07365 0.81306 0.25786 0.0
H386 H 0.07355 0.75678 0.39319 0.0
H387 H 0.10961 0.75723 0.31792 0.0
H388 H 0.03149 0.77755 0.27235 0.0
H389 H 0.06567 0.8062 0.57495 0.0
H390 H 0.08485 0.80903 0.48391 0.0
H391 H 0.07156 0.77962 0.52628 0.0
C392 C 0.10192 0.80079 0.22693 0.0
C393 C 0.11252 0.78549 0.24464 0.0
C394 C 0.08154 0.80098 0.2715 0.0
C395 C 0.07155 0.78574 0.33359 0.0
C396 C 0.08164 0.76966 0.34846 0.0
H397 H 0.95826 0.70598 0.60547 0.0
H398 H 0.99573 0.73267 0.54594 0.0
C399 C 0.10211 0.76978 0.30514 0.0
C400 C 0.04969 0.78505 0.38004 0.0
H401 H 0.02374 0.78044 0.57057 0.0
C402 C 0.02976 0.77876 0.33775 0.0
C403 C 0.0477 0.78738 0.4654 0.0
C404 C 0.06871 0.79623 0.51506 0.0
C405 C 1.00738 0.77178 0.37796 0.0
C406 C 1.00518 0.77128 0.46263 0.0
C407 C 0.02543 0.78031 0.50549 0.0
C408 C 0.98257 0.75737 0.50576 0.0
C409 C 0.98638 0.7634 0.32851 0.0
C410 C 0.96284 0.76291 0.50578 0.0
C411 C 0.94115 0.74739 0.53951 0.0
C412 C 0.93911 0.72651 0.57512 0.0
C413 C 0.95927 0.7221 0.57957 0.0
C414 C 0.98072 0.7373 0.54499 0.0
H415 H 0.99113 0.76132 0.26248 0.0
H416 H 0.97273 0.74514 0.34415 0.0
H417 H 0.9787 0.77774 0.34151 0.0
H418 H 0.96404 0.77878 0.47814 0.0
H419 H 0.92588 0.75131 0.53601 0.0
H420 H 0.23142 0.83809 0.23643 0.0
H421 H 0.22793 0.87332 0.32604 0.0
H422 H 0.29456 0.92345 0.22628 0.0
H423 H 0.29808 0.88788 0.13308 0.0
H424 H 0.25673 0.90356 0.44045 0.0
H425 H 0.25032 0.95772 0.21162 0.0
H426 H 0.24688 0.92523 0.18864 0.0
H427 H 0.27569 0.95019 0.19396 0.0
C428 C 0.24533 0.85661 0.23238 0.0
C429 C 0.26494 0.86042 0.17681 0.0
C430 C 0.24326 0.87665 0.28405 0.0
C431 C 0.26073 0.90082 0.28129 0.0
C432 C 0.28067 0.9048 0.22742 0.0
H433 H 0.3088 0.04269 0.52643 0.0
H434 H 0.29467 1.00472 0.43085 0.0
C435 C 0.28277 0.8846 0.17501 0.0
C436 C 0.25827 0.92161 0.33747 0.0
H437 H 0.25748 0.97945 0.34607 0.0
C438 C 0.25663 0.92013 0.42036 0.0
C439 C 0.2574 0.94253 0.30995 0.0
C440 C 0.25741 0.94396 0.22118 0.0
C441 C 0.25613 0.94021 0.47737 0.0
C442 C 0.25703 0.96209 0.44981 0.0
C443 C 0.25688 0.96266 0.36675 0.0
C444 C 0.26285 0.98604 0.50363 0.0
C445 C 0.25619 0.93834 0.56579 0.0
C446 C 0.24928 0.98838 0.57533 0.0
C447 C 0.25764 1.01006 0.63131 0.0
C448 C 0.27921 0.02977 0.61448 0.0
C449 C 0.2919 0.02794 0.54028 0.0
C450 C 0.28385 1.00623 0.48559 0.0
H451 H 0.25923 0.92163 0.57493 0.0
H452 H 0.26995 0.95548 0.59554 0.0
H453 H 0.2389 0.93656 0.59651 0.0
H454 H 0.23276 0.97316 0.5893 0.0
H455 H 0.24763 1.01119 0.68828 0.0
H456 H 0.22506 0.70062 0.89789 0.0
H457 H 0.22379 0.6577 0.87986 0.0
H458 H 0.29359 0.68683 0.96283 0.0
H459 H 0.29523 0.7295 0.98045 0.0
H460 H 0.26874 0.64367 0.78964 0.0
H461 H 0.23817 0.63119 0.11254 0.0
H462 H 0.23136 0.65157 0.06027 0.0
H463 H 0.26063 0.66091 0.08886 0.0
C464 C 0.24023 0.69778 0.91068 0.0
C465 C 0.26032 0.71807 0.93941 0.0
C466 C 0.23944 0.67352 0.90068 0.0
C467 C 0.2586 0.66977 0.92053 0.0
C468 C 0.27884 0.68993 0.94719 0.0
H469 H 0.27219 0.53703 0.00128 0.0
H470 H 0.28007 0.58091 -0.00713 0.0
C471 C 0.27976 0.71411 0.9564 0.0
C472 C 0.25738 0.64461 0.91604 0.0
H473 H 0.24624 0.59848 0.03124 0.0
C474 C 0.2638 0.63356 0.84193 0.0
C475 C 0.25131 0.63238 0.98561 0.0
C476 C 0.24488 0.64448 0.06655 0.0
C477 C 0.26432 0.60987 0.8353 0.0
C478 C 0.25771 0.59724 0.90438 0.0
C479 C 0.2514 0.60852 0.97877 0.0
C480 C 0.25575 0.57162 0.90034 0.0
C481 C 0.27215 0.59879 0.75508 0.0
C482 C 0.23964 0.55239 0.85051 0.0
C483 C 0.23508 0.52749 0.8553 0.0
C484 C 0.24643 0.52175 0.91066 0.0
C485 C 0.26321 0.54114 0.95838 0.0
C486 C 0.2678 0.56604 0.95341 0.0
H487 H 0.28367 0.61376 0.71779 0.0
H488 H 0.28172 0.58719 0.76331 0.0
H489 H 0.25651 0.58656 0.72099 0.0
H490 H 0.22974 0.55658 0.81111 0.0
H491 H 0.22171 0.51278 0.81919 0.0
H492 H 0.43193 0.16556 0.9527 0.0
H493 H 0.47331 0.17205 0.95273 0.0
H494 H 0.49348 0.23237 0.80689 0.0
H495 H 0.45297 0.22725 0.81175 0.0
H496 H 0.50403 0.16777 0.84304 0.0
H497 H 0.53944 0.26856 0.96768 0.0
H498 H 0.50834 0.24988 0.96604 0.0
H499 H 0.5249 0.26387 0.87794 0.0
C500 C 0.44533 0.18055 0.92234 0.0
C501 C 0.43923 0.1964 0.88448 0.0
C502 C 0.46896 0.18419 0.92196 0.0
C503 C 0.48681 0.2034 0.88237 0.0
C504 C 0.48042 0.21836 0.84159 0.0
H505 H 0.63524 0.25125 0.74809 0.0
H506 H 0.59388 0.24417 0.76684 0.0
C507 C 0.45708 0.21524 0.84398 0.0
C508 C 0.51195 0.20723 0.88021 0.0
H509 H 0.56758 0.25264 0.89991 0.0
C510 C 0.51786 0.1863 0.85664 0.0
C511 C 0.53019 0.23141 0.89787 0.0
C512 C 0.52534 0.25461 0.9296 0.0
C513 C 0.54136 0.18893 0.8476 0.0
C514 C 0.55957 0.2132 0.86286 0.0
C515 C 0.55367 0.23408 0.88751 0.0
C516 C 0.58485 0.21745 0.85237 0.0
C517 C 0.54643 0.16573 0.81937 0.0
C518 C 0.59376 0.2051 0.89506 0.0
C519 C 0.61736 0.20854 0.88281 0.0
C520 C 0.63291 0.22497 0.82897 0.0
C521 C 0.62397 0.23798 0.7885 0.0
C522 C 0.60026 0.23417 0.79983 0.0
H523 H 0.5314 0.15015 0.78937 0.0
H524 H 0.56223 0.16992 0.77662 0.0
H525 H 0.54966 0.15896 0.87244 0.0
H526 H 0.58241 0.19263 0.93767 0.0
H527 H 0.62319 0.19785 0.91468 0.0
H528 H 0.48087 0.60964 0.13653 0.0
H529 H 0.44319 0.57345 0.12864 0.0
H530 H 0.46588 0.54505 0.8951 0.0
H531 H 0.50407 0.58088 0.90328 0.0
H532 H 0.40885 0.55782 0.01717 0.0
H533 H 0.4399 0.48113 0.00266 0.0
H534 H 0.45882 0.51384 0.03007 0.0
H535 H 0.45219 0.50194 0.9266 0.0
C536 C 0.47828 0.59566 0.08366 0.0
C537 C 0.49632 0.59876 0.02111 0.0
C538 C 0.45633 0.57479 0.07897 0.0
C539 C 0.45128 0.55578 0.01195 0.0
C540 C 0.46905 0.55881 0.94874 0.0
H541 H 0.32378 0.40946 0.95625 0.0
H542 H 0.36312 0.44324 0.93933 0.0
C543 C 0.49106 0.5798 0.95318 0.0
C544 C 0.42725 0.53361 0.00835 0.0
H545 H 0.39919 0.46914 0.00373 0.0
C546 C 0.40685 0.53845 0.01435 0.0
C547 C 0.42406 0.5079 0.00125 0.0
C548 C 0.44484 0.50072 0.99017 0.0
C549 C 0.38391 0.51894 0.01412 0.0
C550 C 0.3805 0.49334 0.01468 0.0
C551 C 0.40104 0.48841 0.00579 0.0
C552 C 0.35611 0.47184 0.02534 0.0
C553 C 0.36379 0.52627 0.00866 0.0
C554 C 0.33839 0.47543 0.0807 0.0
C555 C 0.31563 0.45625 0.08827 0.0
C556 C 0.30975 0.43204 0.04433 0.0
C557 C 0.32758 0.42773 -0.00811 0.0
C558 C 0.35027 0.44729 0.98217 0.0
H559 H 0.36954 0.54274 0.97486 0.0
H560 H 0.34904 0.51059 0.97778 0.0
H561 H 0.35748 0.53199 0.07037 0.0
H562 H 0.34202 0.49321 0.11889 0.0
H563 H 0.30249 0.46038 0.12936 0.0
H564 H 0.78239 0.52617 0.88367 0.0
H565 H 0.78518 0.48588 0.88779 0.0
H566 H 0.82263 0.49149 0.65336 0.0
H567 H 0.82137 0.53242 0.65219 0.0
H568 H 0.77037 0.44223 0.82186 0.0
H569 H 0.86462 0.471 0.73927 0.0
H570 H 0.8515 0.49366 0.76076 0.0
H571 H 0.85122 0.47633 0.66078 0.0
C572 C 0.79162 0.51908 0.83343 0.0
C573 C 0.80192 0.53323 0.768 0.0
C574 C 0.79314 0.49567 0.83559 0.0
C575 C 0.8048 0.48508 0.77199 0.0
C576 C 0.81451 0.49903 0.70576 0.0
H577 H 0.82903 0.34454 0.63054 0.0
H578 H 0.82745 0.38616 0.64612 0.0
C579 C 0.8135 0.52267 0.70452 0.0
C580 C 0.80602 0.45939 0.77341 0.0
H581 H 0.84183 0.42685 0.72412 0.0
C582 C 0.78613 0.43906 0.80063 0.0
C583 C 0.82649 0.45444 0.7478 0.0
C584 C 0.8497 0.47511 0.7265 0.0
C585 C 0.78565 0.41443 0.79898 0.0
C586 C 0.80585 0.40917 0.76922 0.0
C587 C 0.82593 0.42979 0.7447 0.0
C588 C 0.80683 0.38292 0.76104 0.0
C589 C 0.76293 0.39436 0.82742 0.0
C590 C 0.79643 0.36625 0.82013 0.0
C591 C 0.7966 0.34183 0.80926 0.0
C592 C 0.8084 0.33331 0.74123 0.0
C593 C 0.81998 0.35028 0.68428 0.0
C594 C 0.81898 0.37437 0.69349 0.0
H595 H 0.74771 0.39921 0.8246 0.0
H596 H 0.75955 0.37577 0.79077 0.0
H597 H 0.7638 0.39283 0.89167 0.0
H598 H 0.78811 0.37194 0.87562 0.0
H599 H 0.78751 0.32952 0.85496 0.0
H600 H 0.40308 0.7561 0.01222 0.0
H601 H 0.4413 0.75368 0.00988 0.0
H602 H 0.47228 0.81435 0.86323 0.0
H603 H 0.43425 0.81705 0.86563 0.0
H604 H 0.47688 0.75135 0.85833 0.0
H605 H 0.50473 0.83528 0.09391 0.0
H606 H 0.47421 0.81567 0.07865 0.0
H607 H 0.49144 0.83688 0.00747 0.0
C608 C 0.41799 0.76867 0.97864 0.0
C609 C 0.41578 0.78679 0.93928 0.0
C610 C 0.43969 0.7672 0.97707 0.0
C611 C 0.4594 0.78394 0.9367 0.0
C612 C 0.45711 0.80131 0.89452 0.0
H613 H 0.60575 0.81801 0.01414 0.0
H614 H 0.57113 0.82062 0.96756 0.0
C615 C 0.43541 0.80271 0.89564 0.0
C616 C 0.48272 0.78462 0.94426 0.0
H617 H 0.53169 0.81687 0.04895 0.0
C618 C 0.48906 0.76575 0.89928 0.0
C619 C 0.49835 0.80355 -0.00243 0.0
C620 C 0.49194 0.824 0.04771 0.0
C621 C 0.51086 0.76522 0.90665 0.0
C622 C 0.52632 0.78374 0.96227 0.0
C623 C 0.52001 0.80289 0.00581 0.0
C624 C 0.5478 0.78209 0.98334 0.0
C625 C 0.51696 0.74483 0.85458 0.0
C626 C 0.54595 0.75992 0.00927 0.0
C627 C 0.56542 0.75841 0.03478 0.0
C628 C 0.58726 0.77921 0.03699 0.0
C629 C 0.58916 0.80175 0.01304 0.0
C630 C 0.56949 0.80314 0.98598 0.0
H631 H 0.50834 0.73909 0.7965 0.0
H632 H 0.53619 0.75103 0.84122 0.0
H633 H 0.5104 0.72789 0.8864 0.0
H634 H 0.52927 0.74386 0.01172 0.0
H635 H 0.56316 0.74085 0.05443 0.0
H636 H 0.65898 0.48972 0.046 0.0
H637 H 0.6218 0.45302 0.05462 0.0
H638 H 0.59238 0.48164 0.89673 0.0
H639 H 0.62929 0.51866 0.88883 0.0
H640 H 0.57405 0.45166 0.0981 0.0
H641 H 0.58973 0.411 0.783 0.0
H642 H 0.61297 0.4352 0.84046 0.0
H643 H 0.59299 0.44326 0.79535 0.0
C644 C 0.64439 0.4884 0.01471 0.0
C645 C 0.64677 0.50665 0.96634 0.0
C646 C 0.62342 0.46753 0.01931 0.0
C647 C 0.60503 0.46494 0.97515 0.0
C648 C 0.60687 0.48361 0.92998 0.0
H649 H 0.473 0.3628 0.84121 0.0
H650 H 0.51109 0.39729 0.86453 0.0
C651 C 0.62778 0.50451 0.92551 0.0
C652 C 0.58402 0.44216 0.97363 0.0
H653 H 0.55179 0.39172 0.84651 0.0
C654 C 0.56907 0.43827 0.04375 0.0
C655 C 0.5783 0.42515 0.90212 0.0
C656 C 0.59442 0.42868 0.82604 0.0
C657 C 0.54731 0.41808 0.04287 0.0
C658 C 0.5412 0.40152 0.97038 0.0
C659 C 0.55679 0.40478 0.90156 0.0
C660 C 0.51801 0.38178 0.96161 0.0
C661 C 0.53077 0.41539 0.11776 0.0
C662 C 0.50976 0.3621 0.00901 0.0
C663 C 0.48799 0.34267 -0.00352 0.0
C664 C 0.47485 0.34277 0.93536 0.0
C665 C 0.48317 0.36251 0.88812 0.0
C666 C 0.50468 0.38207 0.90155 0.0
H667 H 0.53616 0.433 0.16121 0.0
H668 H 0.51257 0.41034 0.10208 0.0
H669 H 0.53078 0.40014 0.14864 0.0
H670 H 0.5203 0.36156 0.05426 0.0
H671 H 0.48164 0.32734 0.03292 0.0
H672 H 0.18422 0.31795 0.86135 0.0
H673 H 0.18274 0.31352 0.71409 0.0
H674 H 0.25828 0.34188 0.68683 0.0
H675 H 0.25978 0.34714 0.8332 0.0
H676 H 0.20981 0.36612 0.69105 0.0
H677 H 0.236 0.3023 0.45528 0.0
H678 H 0.22177 0.29304 0.55228 0.0
H679 H 0.25258 0.31271 0.54367 0.0
C680 C 0.20038 0.32228 0.82334 0.0
C681 C 0.22215 0.33376 0.85773 0.0
C682 C 0.19952 0.31929 0.73928 0.0
C683 C 0.22044 0.32761 0.68957 0.0
C684 C 0.24194 0.33524 0.72378 0.0
H685 H 0.27843 0.40739 0.27631 0.0
H686 H 0.27287 0.38861 0.40101 0.0
C687 C 0.24283 0.33879 0.80753 0.0
C688 C 0.22092 0.33878 0.61681 0.0
H689 H 0.2425 0.34278 0.42049 0.0
C690 C 0.21647 0.3607 0.63127 0.0
C691 C 0.23032 0.33206 0.53994 0.0
C692 C 0.2353 0.30861 0.52139 0.0
C693 C 0.22255 0.37708 0.57321 0.0
C694 C 0.23204 0.37062 0.49608 0.0
C695 C 0.23551 0.34796 0.47995 0.0
C696 C 0.2375 0.3866 0.43061 0.0
C697 C 0.21999 0.40186 0.59769 0.0
C698 C 0.22016 0.39324 0.40883 0.0
C699 C 0.22386 0.40517 0.3405 0.0
C700 C 0.24454 0.40967 0.29069 0.0
C701 C 0.26267 0.4049 0.31545 0.0
C702 C 0.25921 0.39351 0.38532 0.0
H703 H 0.22123 0.4078 0.66388 0.0
H704 H 0.23363 0.41713 0.56599 0.0
H705 H 0.20242 0.3996 0.58303 0.0
H706 H 0.20302 0.3875 0.44095 0.0
H707 H 0.2093 0.40773 0.32074 0.0
H708 H 0.76814 0.19883 0.50139 0.0
H709 H 0.75863 0.1879 0.36147 0.0
H710 H 0.76106 0.26225 0.35972 0.0
H711 H 0.77018 0.2731 0.50116 0.0
H712 H 0.74521 0.20305 0.20456 0.0
H713 H 0.83243 0.26162 0.33123 0.0
H714 H 0.81029 0.23792 0.38533 0.0
H715 H 0.80709 0.26664 0.37695 0.0
C716 C 0.76466 0.21211 0.47323 0.0
C717 C 0.77156 0.23729 0.50812 0.0
C718 C 0.75909 0.2058 0.39302 0.0
C719 C 0.76109 0.225 0.34975 0.0
C720 C 0.7604 0.24752 0.39223 0.0
H721 H 0.82661 0.28798 0.96483 0.0
H722 H 0.8231 0.27505 0.09677 0.0
C723 C 0.76571 0.25378 0.47322 0.0
C724 C 0.77513 0.2263 0.27246 0.0
H725 H 0.83199 0.24878 0.19469 0.0
C726 C 0.76414 0.21312 0.20184 0.0
C727 C 0.8 0.23872 0.27049 0.0
C728 C 0.81321 0.25208 0.34502 0.0
C729 C 0.77729 0.21359 0.12762 0.0
C730 C 0.80205 0.22708 0.12547 0.0
C731 C 0.81307 0.23848 0.19714 0.0
C732 C 0.8155 0.23584 0.05052 0.0
C733 C 0.76443 0.20097 0.05183 0.0
C734 C 0.81583 0.21886 0.98136 0.0
C735 C 0.81805 0.22641 0.90542 0.0
C736 C 0.81992 0.25081 0.90019 0.0
C737 C 0.82473 0.26896 0.96837 0.0
C738 C 0.82265 0.26149 0.04375 0.0
H739 H 0.74507 0.1929 0.06425 0.0
H740 H 0.76899 0.21469 0.00797 0.0
H741 H 0.76968 0.18541 0.02319 0.0
H742 H 0.81121 0.19918 0.986 0.0
H743 H 0.81466 0.21223 0.85277 0.0
H744 H 0.66343 0.7261 0.91122 0.0
H745 H 0.66902 0.72581 0.76388 0.0
H746 H 0.70136 0.80716 0.79624 0.0
H747 H 0.69722 0.80738 0.94196 0.0
H748 H 0.64288 0.74559 0.71936 0.0
H749 H 0.73185 0.79366 0.57809 0.0
H750 H 0.72707 0.78258 0.67541 0.0
H751 H 0.72622 0.81242 0.66742 0.0
C752 C 0.67266 0.74377 0.88645 0.0
C753 C 0.67971 0.76671 0.93748 0.0
C754 C 0.67604 0.74365 0.80248 0.0
C755 C 0.68555 0.76651 0.76874 0.0
C756 C 0.6945 0.78929 0.82009 0.0
H757 H 0.63157 0.79852 0.36386 0.0
H758 H 0.65523 0.80683 0.48074 0.0
C759 C 0.69178 0.78937 0.90374 0.0
C760 C 0.67942 0.76689 0.68692 0.0
H761 H 0.69954 0.79189 0.50859 0.0
C762 C 0.65545 0.75555 0.67339 0.0
C763 C 0.69565 0.78044 0.62727 0.0
C764 C 0.72166 0.79277 0.63757 0.0
C765 C 0.64714 0.7575 0.60321 0.0
C766 C 0.66323 0.77079 0.54348 0.0
C767 C 0.68729 0.78216 0.55567 0.0
C768 C 0.65483 0.76922 0.46447 0.0
C769 C 0.62105 0.7448 0.59281 0.0
C770 C 0.64704 0.7456 0.41794 0.0
C771 C 0.63245 0.74044 0.35657 0.0
C772 C 0.62657 0.75931 0.33643 0.0
C773 C 0.63571 0.78368 0.37914 0.0
C774 C 0.64956 0.78854 0.44426 0.0
H775 H 0.61073 0.74105 0.65154 0.0
H776 H 0.61511 0.75647 0.56314 0.0
H777 H 0.6171 0.72642 0.55398 0.0
H778 H 0.65094 0.73053 0.43284 0.0
H779 H 0.62628 0.72161 0.32352 0.0
H780 H 0.73603 0.59468 0.58362 0.0
H781 H 0.74273 0.62178 0.48202 0.0
H782 H 0.80938 0.61696 0.40671 0.0
H783 H 0.80383 0.59166 0.51612 0.0
H784 H 0.8129 0.66261 0.39464 0.0
H785 H 0.7292 0.5956 0.26034 0.0
H786 H 0.72607 0.61011 0.36106 0.0
H787 H 0.74021 0.58823 0.34152 0.0
C788 C 0.75206 0.599 0.54501 0.0
C789 C 0.76932 0.59069 0.55753 0.0
C790 C 0.75582 0.61458 0.48643 0.0
C791 C 0.77616 0.62086 0.43454 0.0
C792 C 0.79344 0.61237 0.44594 0.0
H793 H 0.81537 0.61 -0.00636 0.0
H794 H 0.80539 0.61837 0.1379 0.0
C795 C 0.79013 0.59754 0.50738 0.0
C796 C 0.77867 0.63451 0.3647 0.0
H797 H 0.75443 0.62696 0.18664 0.0
C798 C 0.79996 0.65495 0.34961 0.0
C799 C 0.76132 0.62554 0.30731 0.0
C800 C 0.738 0.60362 0.31794 0.0
C801 C 0.80557 0.664 0.27417 0.0
C802 C 0.78946 0.65247 0.21351 0.0
C803 C 0.76683 0.6353 0.23339 0.0
C804 C 0.79774 0.65042 0.12731 0.0
C805 C 0.82935 0.68429 0.25676 0.0
C806 C 0.79606 0.66529 0.07343 0.0
C807 C 0.80144 0.66021 0.9903 0.0
C808 C 0.80888 0.64052 0.96082 0.0
C809 C 0.81048 0.62578 0.01513 0.0
C810 C 0.80482 0.6306 0.0974 0.0
H811 H 0.83865 0.6938 0.31277 0.0
H812 H 0.84023 0.67584 0.21541 0.0
H813 H 0.82746 0.69856 0.22581 0.0
H814 H 0.79017 0.68035 0.09529 0.0
H815 H 0.79982 0.67162 0.94906 0.0
H816 H 0.25983 0.81811 0.27876 0.0
H817 H 0.24413 0.81102 0.41514 0.0
H818 H 0.21876 0.73061 0.3444 0.0
H819 H 0.23332 0.73777 0.20443 0.0
H820 H 0.21838 0.78277 0.53997 0.0
H821 H 0.28881 0.75206 0.3884 0.0
H822 H 0.27651 0.76655 0.33232 0.0
H823 H 0.25918 0.73541 0.35975 0.0
C824 C 0.24961 0.79892 0.29118 0.0
C825 C 0.24899 0.77841 0.23406 0.0
C826 C 0.24025 0.79478 0.36902 0.0
C827 C 0.23232 0.77037 0.39004 0.0
C828 C 0.22602 0.74967 0.32904 0.0
H829 H 0.27198 0.76218 0.81874 0.0
H830 H 0.27816 0.75649 0.67415 0.0
C831 C 0.23468 0.75376 0.24965 0.0
C832 C 0.24196 0.76919 0.46335 0.0
H833 H 0.29413 0.77312 0.51845 0.0
C834 C 0.23459 0.78 0.53622 0.0
C835 C 0.26339 0.76586 0.45723 0.0
C836 C 0.27251 0.75432 0.3804 0.0
C837 C 0.24881 0.78939 0.6014 0.0
C838 C 0.27104 0.7878 0.59303 0.0
C839 C 0.2776 0.77522 0.52261 0.0
C840 C 0.28539 0.79515 0.66257 0.0
C841 C 0.23985 0.80104 0.67831 0.0
C842 C 0.29227 0.81983 0.70316 0.0
C843 C 0.28871 0.82321 0.78726 0.0
C844 C 0.279 0.80187 0.82773 0.0
C845 C 0.279 0.7788 0.78826 0.0
C846 C 0.28262 0.77552 0.70496 0.0
H847 H 0.2213 0.79833 0.67645 0.0
H848 H 0.24103 0.79258 0.73072 0.0
H849 H 0.25059 0.82164 0.68809 0.0
H850 H 0.29546 0.83538 0.67025 0.0
H851 H 0.28938 0.84131 0.81754 0.0
H852 H 0.40721 0.17402 0.53881 0.0
H853 H 0.39325 0.17821 0.41576 0.0
H854 H 0.36023 0.22512 0.55526 0.0
H855 H 0.37577 0.22244 0.67656 0.0
H856 H 0.3435 0.15492 0.4413 0.0
H857 H 0.37207 0.24759 0.32807 0.0
H858 H 0.39043 0.24104 0.38738 0.0
H859 H 0.36555 0.24692 0.43521 0.0
C860 C 0.39859 0.18685 0.54214 0.0
C861 C 0.39187 0.19732 0.61723 0.0
C862 C 0.39035 0.18899 0.472 0.0
C863 C 0.37507 0.20126 0.47715 0.0
C864 C 0.37195 0.21551 0.54995 0.0
H865 H 0.3113 0.1923 0.05804 0.0
H866 H 0.30146 0.18674 0.20087 0.0
C867 C 0.38087 0.21397 0.61968 0.0
C868 C 0.35806 0.19335 0.41485 0.0
H869 H 0.34228 0.21311 0.26262 0.0
C870 C 0.34307 0.16767 0.40242 0.0
C871 C 0.35672 0.21018 0.36724 0.0
C872 C 0.37209 0.23798 0.37951 0.0
C873 C 0.32821 0.15796 0.33879 0.0
C874 C 0.32874 0.1743 0.28543 0.0
C875 C 0.34187 0.20044 0.30332 0.0
C876 C 0.32202 0.16488 0.20129 0.0
C877 C 0.31297 0.13014 0.32727 0.0
C878 C 0.33437 0.15175 0.15243 0.0
C879 C 0.33989 0.15484 0.07106 0.0
C880 C 0.33282 0.17073 0.03829 0.0
C881 C 0.31686 0.17991 0.08286 0.0
C882 C 0.31119 0.17669 0.16435 0.0
H883 H 0.30618 0.12317 0.38676 0.0
H884 H 0.29793 0.12582 0.29072 0.0
H885 H 0.32368 0.11974 0.29635 0.0
H886 H 0.34306 0.14262 0.17914 0.0
H887 H 0.35234 0.14777 0.03726 0.0
loop_
_geom_bond_atom_site_label_1
_geom_bond_atom_site_label_2
_geom_bond_distance
_geom_bond_site_symmetry_2
_ccdc_geom_bond_type
Pr0 C2 2.880 . S
Pr0 O20 2.562 . S
Pr0 O21 2.490 1_554 S
Pr0 O22 2.695 1_554 S
Pr0 O23 2.512 1_554 S
Pr0 O25 2.437 . S
Pr0 O28 2.436 . S
Pr0 O30 2.438 1_554 S
Pr1 C11 2.880 1_554 S
Pr1 O22 2.436 1_554 S
Pr1 O24 2.438 . S
Pr1 O26 2.562 1_554 S
Pr1 O27 2.490 . S
Pr1 O28 2.695 . S
Pr1 O29 2.512 . S
Pr1 O31 2.437 . S
C2 Pr0 2.880 . S
C2 C3 1.491 . S
C2 O20 1.254 . S
C2 O21 1.225 1_554 S
C3 C2 1.491 . S
C3 C4 1.392 1_554 S
C3 C8 1.356 . S
C4 C3 1.392 1_556 S
C4 C5 1.368 1_556 S
C4 H32 0.929 . S
C5 C4 1.368 1_554 S
C5 C6 1.386 . S
C5 H33 0.929 1_554 S
C6 C5 1.386 . S
C6 C7 1.373 . S
C7 C6 1.373 . S
C7 C8 1.409 . S
C7 H34 0.931 . S
C8 C3 1.356 . S
C8 C7 1.409 . S
C8 H35 0.930 . S
C9 O22 1.270 . S
C9 O23 1.248 . S
C10 O24 1.267 . S
C10 O25 1.278 . S
C11 Pr1 2.880 1_556 S
C11 C12 1.491 . S
C11 O26 1.254 . S
C11 O27 1.225 1_556 S
C12 C11 1.491 . S
C12 C13 1.392 1_556 S
C12 C17 1.356 . S
C13 C12 1.392 1_554 S
C13 C14 1.368 . S
C13 H36 0.929 . S
C14 C13 1.368 . S
C14 C15 1.386 1_554 S
C14 H37 0.929 . S
C15 C14 1.386 1_556 S
C15 C16 1.373 . S
C16 C15 1.373 . S
C16 C17 1.409 . S
C16 H38 0.931 . S
C17 C12 1.356 . S
C17 C16 1.409 . S
C17 H39 0.930 . S
C18 O28 1.270 . S
C18 O29 1.248 . S
C19 O30 1.267 . S
C19 O31 1.278 1_556 S
O20 Pr0 2.562 . S
O20 C2 1.254 . S
O21 Pr0 2.490 1_556 S
O21 C2 1.225 1_556 S
O22 Pr0 2.695 1_556 S
O22 Pr1 2.436 1_556 S
O22 C9 1.270 . S
O23 Pr0 2.512 1_556 S
O23 C9 1.248 . S
O24 Pr1 2.438 . S
O24 C10 1.267 . S
O25 Pr0 2.437 . S
O25 C10 1.278 . S
O26 Pr1 2.562 1_556 S
O26 C11 1.254 . S
O27 Pr1 2.490 . S
O27 C11 1.225 1_554 S
O28 Pr0 2.436 . S
O28 Pr1 2.695 . S
O28 C18 1.270 . S
O29 Pr1 2.512 . S
O29 C18 1.248 . S
O30 Pr0 2.438 1_556 S
O30 C19 1.267 . S
O31 Pr1 2.437 . S
O31 C19 1.278 1_554 S
H32 C4 0.929 . S
H33 C5 0.929 1_556 S
H34 C7 0.931 . S
H35 C8 0.930 . S
H36 C13 0.929 . S
H37 C14 0.929 . S
H38 C16 0.931 . S
H39 C17 0.930 . S
Pr40 C42 2.880 . S
Pr40 O60 2.562 . S
Pr40 O61 2.490 . S
Pr40 O62 2.695 . S
Pr40 O63 2.512 . S
Pr40 O65 2.437 . S
Pr40 O68 2.436 . S
Pr40 O70 2.438 . S
Pr41 C51 2.880 . S
Pr41 O62 2.436 . S
Pr41 O64 2.438 . S
Pr41 O66 2.562 . S
Pr41 O67 2.490 . S
Pr41 O68 2.695 . S
Pr41 O69 2.512 . S
Pr41 O71 2.437 . S
C42 Pr40 2.880 . S
C42 C43 1.491 . S
C42 O60 1.254 . S
C42 O61 1.225 . S
C43 C42 1.491 . S
C43 C44 1.392 . S
C43 C48 1.356 . S
C44 C43 1.392 . S
C44 C45 1.368 . S
C44 H72 0.929 . S
C45 C44 1.368 . S
C45 C46 1.386 . S
C45 H73 0.929 . S
C46 C45 1.386 . S
C46 C47 1.373 . S
C47 C46 1.373 . S
C47 C48 1.409 . S
C47 H74 0.931 . S
C48 C43 1.356 . S
C48 C47 1.409 . S
C48 H75 0.930 . S
C49 O62 1.270 . S
C49 O63 1.248 . S
C50 O64 1.267 . S
C50 O65 1.278 . S
C51 Pr41 2.880 . S
C51 C52 1.491 . S
C51 O66 1.254 . S
C51 O67 1.225 . S
C52 C51 1.491 . S
C52 C53 1.392 . S
C52 C57 1.356 . S
C53 C52 1.392 . S
C53 C54 1.368 . S
C53 H76 0.929 . S
C54 C53 1.368 . S
C54 C55 1.386 . S
C54 H77 0.929 . S
C55 C54 1.386 . S
C55 C56 1.373 . S
C56 C55 1.373 . S
C56 C57 1.409 . S
C56 H78 0.931 . S
C57 C52 1.356 . S
C57 C56 1.409 . S
C57 H79 0.930 . S
C58 O68 1.270 . S
C58 O69 1.248 . S
C59 O70 1.267 . S
C59 O71 1.278 . S
O60 Pr40 2.562 . S
O60 C42 1.254 . S
O61 Pr40 2.490 . S
O61 C42 1.225 . S
O62 Pr40 2.695 . S
O62 Pr41 2.436 . S
O62 C49 1.270 . S
O63 Pr40 2.512 . S
O63 C49 1.248 . S
O64 Pr41 2.438 . S
O64 C50 1.267 . S
O65 Pr40 2.437 . S
O65 C50 1.278 . S
O66 Pr41 2.562 . S
O66 C51 1.254 . S
O67 Pr41 2.490 . S
O67 C51 1.225 . S
O68 Pr40 2.436 . S
O68 Pr41 2.695 . S
O68 C58 1.270 . S
O69 Pr41 2.512 . S
O69 C58 1.248 . S
O70 Pr40 2.438 . S
O70 C59 1.267 . S
O71 Pr41 2.437 . S
O71 C59 1.278 . S
H72 C44 0.929 . S
H73 C45 0.929 . S
H74 C47 0.931 . S
H75 C48 0.930 . S
H76 C53 0.929 . S
H77 C54 0.929 . S
H78 C56 0.931 . S
H79 C57 0.930 . S
Pr80 C82 2.880 . S
Pr80 O100 2.562 . S
Pr80 O101 2.490 . S
Pr80 O102 2.695 1_554 S
Pr80 O103 2.512 1_554 S
Pr80 O105 2.437 . S
Pr80 O108 2.436 . S
Pr80 O110 2.438 . S
Pr81 C91 2.880 1_554 S
Pr81 O102 2.436 1_554 S
Pr81 O104 2.438 . S
Pr81 O106 2.562 1_554 S
Pr81 O107 2.490 . S
Pr81 O108 2.695 . S
Pr81 O109 2.512 . S
Pr81 O111 2.437 . S
C82 Pr80 2.880 . S
C82 C83 1.491 . S
C82 O100 1.254 . S
C82 O101 1.225 . S
C83 C82 1.491 . S
C83 C84 1.392 . S
C83 C88 1.356 . S
C84 C83 1.392 . S
C84 C85 1.368 . S
C84 H112 0.929 . S
C85 C84 1.368 . S
C85 C86 1.386 . S
C85 H113 0.929 . S
C86 C85 1.386 . S
C86 C87 1.373 . S
C87 C86 1.373 . S
C87 C88 1.409 . S
C87 H114 0.931 . S
C88 C83 1.356 . S
C88 C87 1.409 . S
C88 H115 0.930 . S
C89 O102 1.270 . S
C89 O103 1.248 . S
C90 O104 1.267 . S
C90 O105 1.278 . S
C91 Pr81 2.880 1_556 S
C91 C92 1.491 . S
C91 O106 1.254 . S
C91 O107 1.225 1_556 S
C92 C91 1.491 . S
C92 C93 1.392 1_556 S
C92 C97 1.356 . S
C93 C92 1.392 1_554 S
C93 C94 1.368 1_554 S
C93 H116 0.929 . S
C94 C93 1.368 1_556 S
C94 C95 1.386 . S
C94 H117 0.929 1_556 S
C95 C94 1.386 . S
C95 C96 1.373 . S
C96 C95 1.373 . S
C96 C97 1.409 . S
C96 H118 0.931 . S
C97 C92 1.356 . S
C97 C96 1.409 . S
C97 H119 0.930 . S
C98 O108 1.270 . S
C98 O109 1.248 . S
C99 O110 1.267 . S
C99 O111 1.278 . S
O100 Pr80 2.562 . S
O100 C82 1.254 . S
O101 Pr80 2.490 . S
O101 C82 1.225 . S
O102 Pr80 2.695 1_556 S
O102 Pr81 2.436 1_556 S
O102 C89 1.270 . S
O103 Pr80 2.512 1_556 S
O103 C89 1.248 . S
O104 Pr81 2.438 . S
O104 C90 1.267 . S
O105 Pr80 2.437 . S
O105 C90 1.278 . S
O106 Pr81 2.562 1_556 S
O106 C91 1.254 . S
O107 Pr81 2.490 . S
O107 C91 1.225 1_554 S
O108 Pr80 2.436 . S
O108 Pr81 2.695 . S
O108 C98 1.270 . S
O109 Pr81 2.512 . S
O109 C98 1.248 . S
O110 Pr80 2.438 . S
O110 C99 1.267 . S
O111 Pr81 2.437 . S
O111 C99 1.278 . S
H112 C84 0.929 . S
H113 C85 0.929 . S
H114 C87 0.931 . S
H115 C88 0.930 . S
H116 C93 0.929 . S
H117 C94 0.929 1_554 S
H118 C96 0.931 . S
H119 C97 0.930 . S
Pr120 C122 2.880 . S
Pr120 O140 2.562 . S
Pr120 O141 2.490 . S
Pr120 O142 2.695 . S
Pr120 O143 2.512 . S
Pr120 O145 2.437 . S
Pr120 O148 2.436 . S
Pr120 O150 2.438 . S
Pr121 C131 2.880 . S
Pr121 O142 2.436 . S
Pr121 O144 2.438 . S
Pr121 O146 2.562 . S
Pr121 O147 2.490 . S
Pr121 O148 2.695 . S
Pr121 O149 2.512 . S
Pr121 O151 2.437 . S
C122 Pr120 2.880 . S
C122 C123 1.491 . S
C122 O140 1.254 . S
C122 O141 1.225 . S
C123 C122 1.491 . S
C123 C124 1.392 . S
C123 C128 1.356 . S
C124 C123 1.392 . S
C124 C125 1.368 . S
C124 H152 0.929 . S
C125 C124 1.368 . S
C125 C126 1.386 . S
C125 H153 0.929 . S
C126 C125 1.386 . S
C126 C127 1.373 . S
C127 C126 1.373 . S
C127 C128 1.409 . S
C127 H154 0.931 . S
C128 C123 1.356 . S
C128 C127 1.409 . S
C128 H155 0.930 . S
C129 O142 1.270 1_554 S
C129 O143 1.248 1_554 S
C130 O144 1.267 . S
C130 O145 1.278 . S
C131 Pr121 2.880 . S
C131 C132 1.491 . S
C131 O146 1.254 . S
C131 O147 1.225 . S
C132 C131 1.491 . S
C132 C133 1.392 . S
C132 C137 1.356 . S
C133 C132 1.392 . S
C133 C134 1.368 . S
C133 H156 0.929 . S
C134 C133 1.368 . S
C134 C135 1.386 . S
C134 H157 0.929 . S
C135 C134 1.386 . S
C135 C136 1.373 1_556 S
C136 C135 1.373 1_554 S
C136 C137 1.409 1_554 S
C136 H158 0.931 . S
C137 C132 1.356 . S
C137 C136 1.409 1_556 S
C137 H159 0.930 1_556 S
C138 O148 1.270 . S
C138 O149 1.248 . S
C139 O150 1.267 . S
C139 O151 1.278 . S
O140 Pr120 2.562 . S
O140 C122 1.254 . S
O141 Pr120 2.490 . S
O141 C122 1.225 . S
O142 Pr120 2.695 . S
O142 Pr121 2.436 . S
O142 C129 1.270 1_556 S
O143 Pr120 2.512 . S
O143 C129 1.248 1_556 S
O144 Pr121 2.438 . S
O144 C130 1.267 . S
O145 Pr120 2.437 . S
O145 C130 1.278 . S
O146 Pr121 2.562 . S
O146 C131 1.254 . S
O147 Pr121 2.490 . S
O147 C131 1.225 . S
O148 Pr120 2.436 . S
O148 Pr121 2.695 . S
O148 C138 1.270 . S
O149 Pr121 2.512 . S
O149 C138 1.248 . S
O150 Pr120 2.438 . S
O150 C139 1.267 . S
O151 Pr121 2.437 . S
O151 C139 1.278 . S
H152 C124 0.929 . S
H153 C125 0.929 . S
H154 C127 0.931 . S
H155 C128 0.930 . S
H156 C133 0.929 . S
H157 C134 0.929 . S
H158 C136 0.931 . S
H159 C137 0.930 1_554 S
Pr160 C162 2.880 . S
Pr160 O180 2.563 . S
Pr160 O181 2.490 1_554 S
Pr160 O182 2.695 1_554 S
Pr160 O183 2.512 1_554 S
Pr160 O185 2.437 . S
Pr160 O188 2.436 . S
Pr160 O190 2.438 1_554 S
Pr161 C171 2.880 1_554 S
Pr161 O182 2.435 1_554 S
Pr161 O184 2.438 . S
Pr161 O186 2.562 1_554 S
Pr161 O187 2.490 . S
Pr161 O188 2.696 . S
Pr161 O189 2.514 . S
Pr161 O191 2.437 1_554 S
C162 Pr160 2.880 . S
C162 C163 1.491 . S
C162 O180 1.254 . S
C162 O181 1.225 1_554 S
C163 C162 1.491 . S
C163 C164 1.392 . S
C163 C168 1.356 . S
C164 C163 1.392 . S
C164 C165 1.368 . S
C164 H192 0.929 1_554 S
C165 C164 1.368 . S
C165 C166 1.386 . S
C165 H193 0.929 . S
C166 C165 1.386 . S
C166 C167 1.373 . S
C167 C166 1.373 . S
C167 C168 1.409 . S
C167 H194 0.931 . S
C168 C163 1.356 . S
C168 C167 1.409 . S
C168 H195 0.930 . S
C169 O182 1.270 . S
C169 O183 1.248 . S
C170 O184 1.267 . S
C170 O185 1.278 . S
C171 Pr161 2.880 1_556 S
C171 C172 1.491 . S
C171 O186 1.254 . S
C171 O187 1.225 1_556 S
C172 C171 1.491 . S
C172 C173 1.392 . S
C172 C177 1.356 . S
C173 C172 1.392 . S
C173 C174 1.368 . S
C173 H196 0.929 1_556 S
C174 C173 1.368 . S
C174 C175 1.386 . S
C174 H197 0.929 . S
C175 C174 1.386 . S
C175 C176 1.373 . S
C176 C175 1.373 . S
C176 C177 1.409 . S
C176 H198 0.931 . S
C177 C172 1.356 . S
C177 C176 1.409 . S
C177 H199 0.930 . S
C178 O188 1.270 . S
C178 O189 1.248 . S
C179 O190 1.267 . S
C179 O191 1.278 . S
O180 Pr160 2.563 . S
O180 C162 1.254 . S
O181 Pr160 2.490 1_556 S
O181 C162 1.225 1_556 S
O182 Pr160 2.695 1_556 S
O182 Pr161 2.435 1_556 S
O182 C169 1.270 . S
O183 Pr160 2.512 1_556 S
O183 C169 1.248 . S
O184 Pr161 2.438 . S
O184 C170 1.267 . S
O185 Pr160 2.437 . S
O185 C170 1.278 . S
O186 Pr161 2.562 1_556 S
O186 C171 1.254 . S
O187 Pr161 2.490 . S
O187 C171 1.225 1_554 S
O188 Pr160 2.436 . S
O188 Pr161 2.696 . S
O188 C178 1.270 . S
O189 Pr161 2.514 . S
O189 C178 1.248 . S
O190 Pr160 2.438 1_556 S
O190 C179 1.267 . S
O191 Pr161 2.437 1_556 S
O191 C179 1.278 . S
H192 C164 0.929 1_556 S
H193 C165 0.929 . S
H194 C167 0.931 . S
H195 C168 0.930 . S
H196 C173 0.929 1_554 S
H197 C174 0.929 . S
H198 C176 0.931 . S
H199 C177 0.930 . S
Pr200 C202 2.880 . S
Pr200 O220 2.562 . S
Pr200 O221 2.490 . S
Pr200 O222 2.695 . S
Pr200 O223 2.512 . S
Pr200 O225 2.437 . S
Pr200 O228 2.436 . S
Pr200 O230 2.438 . S
Pr201 C211 2.880 . S
Pr201 O222 2.436 . S
Pr201 O224 2.438 . S
Pr201 O226 2.562 . S
Pr201 O227 2.490 . S
Pr201 O228 2.695 . S
Pr201 O229 2.512 1_556 S
Pr201 O231 2.437 . S
C202 Pr200 2.880 . S
C202 C203 1.491 . S
C202 O220 1.254 . S
C202 O221 1.225 . S
C203 C202 1.491 . S
C203 C204 1.392 . S
C203 C208 1.356 . S
C204 C203 1.392 . S
C204 C205 1.368 . S
C204 H232 0.929 . S
C205 C204 1.368 . S
C205 C206 1.386 . S
C205 H233 0.929 . S
C206 C205 1.386 . S
C206 C207 1.373 . S
C207 C206 1.373 . S
C207 C208 1.409 . S
C207 H234 0.931 . S
C208 C203 1.356 . S
C208 C207 1.409 . S
C208 H235 0.930 . S
C209 O222 1.270 . S
C209 O223 1.248 . S
C210 O224 1.267 . S
C210 O225 1.278 . S
C211 Pr201 2.880 . S
C211 C212 1.491 . S
C211 O226 1.254 . S
C211 O227 1.225 . S
C212 C211 1.491 . S
C212 C213 1.392 1_556 S
C212 C217 1.356 . S
C213 C212 1.392 1_554 S
C213 C214 1.368 . S
C213 H236 0.929 . S
C214 C213 1.368 . S
C214 C215 1.386 1_554 S
C214 H237 0.929 . S
C215 C214 1.386 1_556 S
C215 C216 1.373 . S
C216 C215 1.373 . S
C216 C217 1.409 . S
C216 H238 0.931 . S
C217 C212 1.356 . S
C217 C216 1.409 . S
C217 H239 0.930 . S
C218 O228 1.270 1_554 S
C218 O229 1.248 . S
C219 O230 1.267 . S
C219 O231 1.278 . S
O220 Pr200 2.562 . S
O220 C202 1.254 . S
O221 Pr200 2.490 . S
O221 C202 1.225 . S
O222 Pr200 2.695 . S
O222 Pr201 2.436 . S
O222 C209 1.270 . S
O223 Pr200 2.512 . S
O223 C209 1.248 . S
O224 Pr201 2.438 . S
O224 C210 1.267 . S
O225 Pr200 2.437 . S
O225 C210 1.278 . S
O226 Pr201 2.562 . S
O226 C211 1.254 . S
O227 Pr201 2.490 . S
O227 C211 1.225 . S
O228 Pr200 2.436 . S
O228 Pr201 2.695 . S
O228 C218 1.270 1_556 S
O229 Pr201 2.512 1_554 S
O229 C218 1.248 . S
O230 Pr200 2.438 . S
O230 C219 1.267 . S
O231 Pr201 2.437 . S
O231 C219 1.278 . S
H232 C204 0.929 . S
H233 C205 0.929 . S
H234 C207 0.931 . S
H235 C208 0.930 . S
H236 C213 0.929 . S
H237 C214 0.929 . S
H238 C216 0.931 . S
H239 C217 0.930 . S
H240 C248 0.929 . S
H241 C250 0.930 . S
H242 C252 0.930 . S
H243 C255 0.929 . S
H244 C258 0.930 . S
H245 C260 0.960 . S
H246 C260 0.960 . S
H247 C260 0.960 . S
C248 H240 0.929 . S
C248 C249 1.377 . S
C248 C250 1.384 . S
C249 C248 1.377 . S
C249 C255 1.390 . S
C250 H241 0.930 . S
C250 C248 1.384 . S
C250 C251 1.372 . S
C251 C250 1.372 . S
C251 C252 1.400 . S
C251 C256 1.490 . S
C252 H242 0.930 . S
C252 C251 1.400 . S
C252 C255 1.386 . S
H253 C269 0.930 . S
H254 C270 0.931 . S
C255 H243 0.929 . S
C255 C249 1.390 . S
C255 C252 1.386 . S
C256 C251 1.490 . S
C256 C258 1.395 . S
C256 C259 1.403 . S
H257 C263 0.930 . S
C258 H244 0.930 . S
C258 C256 1.395 . S
C258 C261 1.403 . S
C259 C256 1.403 . S
C259 C260 1.524 . S
C259 C263 1.400 . S
C260 H245 0.960 . S
C260 H246 0.960 . S
C260 H247 0.960 . S
C260 C259 1.524 . S
C261 C258 1.403 . S
C261 C262 1.392 . S
C261 C265 1.495 . S
C262 C261 1.392 . S
C262 C263 1.385 . S
C262 C264 1.478 . S
C263 H257 0.930 . S
C263 C259 1.400 . S
C263 C262 1.385 . S
C264 C262 1.478 . S
C264 C266 1.381 . S
C264 C270 1.383 . S
C265 C261 1.495 . S
C265 H271 0.959 . S
C265 H272 0.961 . S
C265 H273 0.960 . S
C266 C264 1.381 . S
C266 C267 1.394 . S
C266 H274 0.930 . S
C267 C266 1.394 . S
C267 C268 1.383 . S
C267 H275 0.929 . S
C268 C267 1.383 . S
C268 C269 1.377 . S
C269 H253 0.930 . S
C269 C268 1.377 . S
C269 C270 1.379 . S
C270 H254 0.931 . S
C270 C264 1.383 . S
C270 C269 1.379 . S
H271 C265 0.959 . S
H272 C265 0.961 . S
H273 C265 0.960 . S
H274 C266 0.930 . S
H275 C267 0.929 . S
H276 C284 0.929 . S
H277 C286 0.930 . S
H278 C288 0.930 . S
H279 C291 0.929 . S
H280 C294 0.930 . S
H281 C296 0.960 . S
H282 C296 0.960 . S
H283 C296 0.960 . S
C284 H276 0.929 . S
C284 C285 1.377 . S
C284 C286 1.384 . S
C285 C284 1.377 . S
C285 C291 1.390 . S
C286 H277 0.930 . S
C286 C284 1.384 . S
C286 C287 1.372 . S
C287 C286 1.372 . S
C287 C288 1.400 . S
C287 C292 1.490 . S
C288 H278 0.930 . S
C288 C287 1.400 . S
C288 C291 1.386 . S
H289 C305 0.930 . S
H290 C306 0.931 . S
C291 H279 0.929 . S
C291 C285 1.390 . S
C291 C288 1.386 . S
C292 C287 1.490 . S
C292 C294 1.395 . S
C292 C295 1.403 . S
H293 C299 0.930 . S
C294 H280 0.930 . S
C294 C292 1.395 . S
C294 C297 1.403 . S
C295 C292 1.403 . S
C295 C296 1.524 . S
C295 C299 1.400 . S
C296 H281 0.960 . S
C296 H282 0.960 . S
C296 H283 0.960 . S
C296 C295 1.524 . S
C297 C294 1.403 . S
C297 C298 1.392 . S
C297 C301 1.495 . S
C298 C297 1.392 . S
C298 C299 1.385 . S
C298 C300 1.478 1_455 S
C299 H293 0.930 . S
C299 C295 1.400 . S
C299 C298 1.385 . S
C300 C298 1.478 1_655 S
C300 C302 1.381 . S
C300 C306 1.383 . S
C301 C297 1.495 . S
C301 H307 0.959 . S
C301 H308 0.961 1_455 S
C301 H309 0.960 . S
C302 C300 1.381 . S
C302 C303 1.394 . S
C302 H310 0.930 1_655 S
C303 C302 1.394 . S
C303 C304 1.383 . S
C303 H311 0.929 . S
C304 C303 1.383 . S
C304 C305 1.377 . S
C305 H289 0.930 . S
C305 C304 1.377 . S
C305 C306 1.379 . S
C306 H290 0.931 . S
C306 C300 1.383 . S
C306 C305 1.379 . S
H307 C301 0.959 . S
H308 C301 0.961 1_655 S
H309 C301 0.960 . S
H310 C302 0.930 1_455 S
H311 C303 0.929 . S
H312 C320 0.929 . S
H313 C322 0.930 . S
H314 C324 0.930 . S
H315 C327 0.929 . S
H316 C330 0.930 . S
H317 C332 0.960 . S
H318 C332 0.960 . S
H319 C332 0.960 . S
C320 H312 0.929 . S
C320 C321 1.377 . S
C320 C322 1.384 . S
C321 C320 1.377 . S
C321 C327 1.390 . S
C322 H313 0.930 . S
C322 C320 1.384 . S
C322 C323 1.372 . S
C323 C322 1.372 . S
C323 C324 1.400 . S
C323 C328 1.490 . S
C324 H314 0.930 . S
C324 C323 1.400 . S
C324 C327 1.386 . S
H325 C341 0.930 . S
H326 C342 0.931 1_545 S
C327 H315 0.929 . S
C327 C321 1.390 . S
C327 C324 1.386 . S
C328 C323 1.490 . S
C328 C330 1.395 . S
C328 C331 1.403 . S
H329 C335 0.930 . S
C330 H316 0.930 . S
C330 C328 1.395 . S
C330 C333 1.403 . S
C331 C328 1.403 . S
C331 C332 1.524 . S
C331 C335 1.400 . S
C332 H317 0.960 . S
C332 H318 0.960 . S
C332 H319 0.960 . S
C332 C331 1.524 . S
C333 C330 1.403 . S
C333 C334 1.392 . S
C333 C337 1.495 1_545 S
C334 C333 1.392 . S
C334 C335 1.385 . S
C334 C336 1.478 1_545 S
C335 H329 0.930 . S
C335 C331 1.400 . S
C335 C334 1.385 . S
C336 C334 1.478 1_565 S
C336 C338 1.381 . S
C336 C342 1.383 . S
C337 C333 1.495 1_565 S
C337 H343 0.959 1_565 S
C337 H344 0.961 . S
C337 H345 0.960 . S
C338 C336 1.381 . S
C338 C339 1.394 . S
C338 H346 0.930 . S
C339 C338 1.394 . S
C339 C340 1.383 . S
C339 H347 0.929 . S
C340 C339 1.383 . S
C340 C341 1.377 . S
C341 H325 0.930 . S
C341 C340 1.377 . S
C341 C342 1.379 . S
C342 H326 0.931 1_565 S
C342 C336 1.383 . S
C342 C341 1.379 . S
H343 C337 0.959 1_545 S
H344 C337 0.961 . S
H345 C337 0.960 . S
H346 C338 0.930 . S
H347 C339 0.929 . S
H348 C356 0.929 . S
H349 C358 0.930 . S
H350 C360 0.930 . S
H351 C363 0.929 . S
H352 C366 0.930 . S
H353 C368 0.960 . S
H354 C368 0.960 . S
H355 C368 0.960 . S
C356 H348 0.929 . S
C356 C357 1.377 . S
C356 C358 1.384 . S
C357 C356 1.377 . S
C357 C363 1.390 . S
C358 H349 0.930 . S
C358 C356 1.384 . S
C358 C359 1.372 . S
C359 C358 1.372 . S
C359 C360 1.400 . S
C359 C364 1.490 . S
C360 H350 0.930 . S
C360 C359 1.400 . S
C360 C363 1.386 . S
H361 C377 0.930 . S
H362 C378 0.931 . S
C363 H351 0.929 . S
C363 C357 1.390 . S
C363 C360 1.386 . S
C364 C359 1.490 . S
C364 C366 1.395 . S
C364 C367 1.403 . S
H365 C371 0.930 . S
C366 H352 0.930 . S
C366 C364 1.395 . S
C366 C369 1.403 . S
C367 C364 1.403 . S
C367 C368 1.524 . S
C367 C371 1.400 . S
C368 H353 0.960 . S
C368 H354 0.960 . S
C368 H355 0.960 . S
C368 C367 1.524 . S
C369 C366 1.403 . S
C369 C370 1.392 . S
C369 C373 1.495 . S
C370 C369 1.392 . S
C370 C371 1.385 . S
C370 C372 1.478 . S
C371 H365 0.930 . S
C371 C367 1.400 . S
C371 C370 1.385 . S
C372 C370 1.478 . S
C372 C374 1.381 . S
C372 C378 1.383 . S
C373 C369 1.495 . S
C373 H379 0.959 . S
C373 H380 0.961 . S
C373 H381 0.960 . S
C374 C372 1.381 . S
C374 C375 1.394 . S
C374 H382 0.930 . S
C375 C374 1.394 . S
C375 C376 1.383 . S
C375 H383 0.929 . S
C376 C375 1.383 . S
C376 C377 1.377 . S
C377 H361 0.930 . S
C377 C376 1.377 . S
C377 C378 1.379 . S
C378 H362 0.931 . S
C378 C372 1.383 . S
C378 C377 1.379 . S
H379 C373 0.959 . S
H380 C373 0.961 . S
H381 C373 0.960 . S
H382 C374 0.930 . S
H383 C375 0.929 . S
H384 C392 0.929 . S
H385 C394 0.930 . S
H386 C396 0.930 . S
H387 C399 0.929 . S
H388 C402 0.930 . S
H389 C404 0.960 . S
H390 C404 0.960 . S
H391 C404 0.960 . S
C392 H384 0.929 . S
C392 C393 1.377 . S
C392 C394 1.384 . S
C393 C392 1.377 . S
C393 C399 1.390 . S
C394 H385 0.930 . S
C394 C392 1.384 . S
C394 C395 1.372 . S
C395 C394 1.372 . S
C395 C396 1.400 . S
C395 C400 1.490 . S
C396 H386 0.930 . S
C396 C395 1.400 . S
C396 C399 1.386 . S
H397 C413 0.930 . S
H398 C414 0.931 . S
C399 H387 0.929 . S
C399 C393 1.390 . S
C399 C396 1.386 . S
C400 C395 1.490 . S
C400 C402 1.395 . S
C400 C403 1.403 . S
H401 C407 0.930 . S
C402 H388 0.930 . S
C402 C400 1.395 . S
C402 C405 1.403 1_455 S
C403 C400 1.403 . S
C403 C404 1.524 . S
C403 C407 1.400 . S
C404 H389 0.960 . S
C404 H390 0.960 . S
C404 H391 0.960 . S
C404 C403 1.524 . S
C405 C402 1.403 1_655 S
C405 C406 1.392 . S
C405 C409 1.495 . S
C406 C405 1.392 . S
C406 C407 1.385 1_655 S
C406 C408 1.478 . S
C407 H401 0.930 . S
C407 C403 1.400 . S
C407 C406 1.385 1_455 S
C408 C406 1.478 . S
C408 C410 1.381 . S
C408 C414 1.383 . S
C409 C405 1.495 . S
C409 H415 0.959 . S
C409 H416 0.961 . S
C409 H417 0.960 . S
C410 C408 1.381 . S
C410 C411 1.394 . S
C410 H418 0.930 . S
C411 C410 1.394 . S
C411 C412 1.383 . S
C411 H419 0.929 . S
C412 C411 1.383 . S
C412 C413 1.377 . S
C413 H397 0.930 . S
C413 C412 1.377 . S
C413 C414 1.379 . S
C414 H398 0.931 . S
C414 C408 1.383 . S
C414 C413 1.379 . S
H415 C409 0.959 . S
H416 C409 0.961 . S
H417 C409 0.960 . S
H418 C410 0.930 . S
H419 C411 0.929 . S
H420 C428 0.929 . S
H421 C430 0.930 . S
H422 C432 0.930 . S
H423 C435 0.929 . S
H424 C438 0.930 . S
H425 C440 0.960 . S
H426 C440 0.960 . S
H427 C440 0.960 . S
C428 H420 0.929 . S
C428 C429 1.377 . S
C428 C430 1.384 . S
C429 C428 1.377 . S
C429 C435 1.390 . S
C430 H421 0.930 . S
C430 C428 1.384 . S
C430 C431 1.372 . S
C431 C430 1.372 . S
C431 C432 1.400 . S
C431 C436 1.490 . S
C432 H422 0.930 . S
C432 C431 1.400 . S
C432 C435 1.386 . S
H433 C449 0.930 . S
H434 C450 0.931 . S
C435 H423 0.929 . S
C435 C429 1.390 . S
C435 C432 1.386 . S
C436 C431 1.490 . S
C436 C438 1.395 . S
C436 C439 1.403 . S
H437 C443 0.930 . S
C438 H424 0.930 . S
C438 C436 1.395 . S
C438 C441 1.403 . S
C439 C436 1.403 . S
C439 C440 1.524 . S
C439 C443 1.400 . S
C440 H425 0.960 . S
C440 H426 0.960 . S
C440 H427 0.960 . S
C440 C439 1.524 . S
C441 C438 1.403 . S
C441 C442 1.392 . S
C441 C445 1.495 . S
C442 C441 1.392 . S
C442 C443 1.385 . S
C442 C444 1.478 . S
C443 H437 0.930 . S
C443 C439 1.400 . S
C443 C442 1.385 . S
C444 C442 1.478 . S
C444 C446 1.381 . S
C444 C450 1.383 . S
C445 C441 1.495 . S
C445 H451 0.959 . S
C445 H452 0.961 . S
C445 H453 0.960 . S
C446 C444 1.381 . S
C446 C447 1.394 . S
C446 H454 0.930 . S
C447 C446 1.394 . S
C447 C448 1.383 . S
C447 H455 0.929 . S
C448 C447 1.383 . S
C448 C449 1.377 1_565 S
C449 H433 0.930 . S
C449 C448 1.377 1_545 S
C449 C450 1.379 1_545 S
C450 H434 0.931 . S
C450 C444 1.383 . S
C450 C449 1.379 1_565 S
H451 C445 0.959 . S
H452 C445 0.961 . S
H453 C445 0.960 . S
H454 C446 0.930 . S
H455 C447 0.929 . S
H456 C464 0.929 . S
H457 C466 0.930 . S
H458 C468 0.930 1_554 S
H459 C471 0.929 1_554 S
H460 C474 0.930 . S
H461 C476 0.960 . S
H462 C476 0.960 . S
H463 C476 0.960 . S
C464 H456 0.929 . S
C464 C465 1.377 . S
C464 C466 1.384 . S
C465 C464 1.377 . S
C465 C471 1.390 . S
C466 H457 0.930 . S
C466 C464 1.384 . S
C466 C467 1.372 . S
C467 C466 1.372 . S
C467 C468 1.400 . S
C467 C472 1.490 . S
C468 H458 0.930 1_556 S
C468 C467 1.400 . S
C468 C471 1.386 . S
H469 C485 0.930 1_554 S
H470 C486 0.931 . S
C471 H459 0.929 1_556 S
C471 C465 1.390 . S
C471 C468 1.386 . S
C472 C467 1.490 . S
C472 C474 1.395 . S
C472 C475 1.403 1_556 S
H473 C479 0.930 1_554 S
C474 H460 0.930 . S
C474 C472 1.395 . S
C474 C477 1.403 . S
C475 C472 1.403 1_554 S
C475 C476 1.524 . S
C475 C479 1.400 1_554 S
C476 H461 0.960 . S
C476 H462 0.960 . S
C476 H463 0.960 . S
C476 C475 1.524 . S
C477 C474 1.403 . S
C477 C478 1.392 . S
C477 C481 1.495 . S
C478 C477 1.392 . S
C478 C479 1.385 . S
C478 C480 1.478 . S
C479 H473 0.930 1_556 S
C479 C475 1.400 1_556 S
C479 C478 1.385 . S
C480 C478 1.478 . S
C480 C482 1.381 . S
C480 C486 1.383 . S
C481 C477 1.495 . S
C481 H487 0.959 . S
C481 H488 0.961 . S
C481 H489 0.960 . S
C482 C480 1.381 . S
C482 C483 1.394 . S
C482 H490 0.930 . S
C483 C482 1.394 . S
C483 C484 1.383 . S
C483 H491 0.929 . S
C484 C483 1.383 . S
C484 C485 1.377 . S
C485 H469 0.930 1_556 S
C485 C484 1.377 . S
C485 C486 1.379 . S
C486 H470 0.931 . S
C486 C480 1.383 . S
C486 C485 1.379 . S
H487 C481 0.959 . S
H488 C481 0.961 . S
H489 C481 0.960 . S
H490 C482 0.930 . S
H491 C483 0.929 . S
H492 C500 0.929 . S
H493 C502 0.930 . S
H494 C504 0.930 . S
H495 C507 0.929 . S
H496 C510 0.930 . S
H497 C512 0.960 . S
H498 C512 0.960 . S
H499 C512 0.960 . S
C500 H492 0.929 . S
C500 C501 1.377 . S
C500 C502 1.384 . S
C501 C500 1.377 . S
C501 C507 1.390 . S
C502 H493 0.930 . S
C502 C500 1.384 . S
C502 C503 1.372 . S
C503 C502 1.372 . S
C503 C504 1.400 . S
C503 C508 1.490 . S
C504 H494 0.930 . S
C504 C503 1.400 . S
C504 C507 1.386 . S
H505 C521 0.930 . S
H506 C522 0.931 . S
C507 H495 0.929 . S
C507 C501 1.390 . S
C507 C504 1.386 . S
C508 C503 1.490 . S
C508 C510 1.395 . S
C508 C511 1.403 . S
H509 C515 0.930 . S
C510 H496 0.930 . S
C510 C508 1.395 . S
C510 C513 1.403 . S
C511 C508 1.403 . S
C511 C512 1.524 . S
C511 C515 1.400 . S
C512 H497 0.960 . S
C512 H498 0.960 . S
C512 H499 0.960 . S
C512 C511 1.524 . S
C513 C510 1.403 . S
C513 C514 1.392 . S
C513 C517 1.495 . S
C514 C513 1.392 . S
C514 C515 1.385 . S
C514 C516 1.478 . S
C515 H509 0.930 . S
C515 C511 1.400 . S
C515 C514 1.385 . S
C516 C514 1.478 . S
C516 C518 1.381 . S
C516 C522 1.383 . S
C517 C513 1.495 . S
C517 H523 0.959 . S
C517 H524 0.961 . S
C517 H525 0.960 . S
C518 C516 1.381 . S
C518 C519 1.394 . S
C518 H526 0.930 . S
C519 C518 1.394 . S
C519 C520 1.383 . S
C519 H527 0.929 . S
C520 C519 1.383 . S
C520 C521 1.377 . S
C521 H505 0.930 . S
C521 C520 1.377 . S
C521 C522 1.379 . S
C522 H506 0.931 . S
C522 C516 1.383 . S
C522 C521 1.379 . S
H523 C517 0.959 . S
H524 C517 0.961 . S
H525 C517 0.960 . S
H526 C518 0.930 . S
H527 C519 0.929 . S
H528 C536 0.929 1_554 S
H529 C538 0.930 1_554 S
H530 C540 0.930 . S
H531 C543 0.929 . S
H532 C546 0.930 . S
H533 C548 0.960 . S
H534 C548 0.955 1_554 S
H535 C548 0.960 . S
C536 H528 0.929 1_556 S
C536 C537 1.377 . S
C536 C538 1.384 . S
C537 C536 1.377 . S
C537 C543 1.390 . S
C538 H529 0.930 1_556 S
C538 C536 1.384 . S
C538 C539 1.372 . S
C539 C538 1.372 . S
C539 C540 1.400 . S
C539 C544 1.490 . S
C540 H530 0.930 . S
C540 C539 1.400 . S
C540 C543 1.386 . S
H541 C557 0.930 . S
H542 C558 0.931 . S
C543 H531 0.929 . S
C543 C537 1.390 . S
C543 C540 1.386 . S
C544 C539 1.490 . S
C544 C546 1.395 . S
C544 C547 1.403 . S
H545 C551 0.930 . S
C546 H532 0.930 . S
C546 C544 1.395 . S
C546 C549 1.403 . S
C547 C544 1.403 . S
C547 C548 1.524 . S
C547 C551 1.400 . S
C548 H533 0.960 . S
C548 H534 0.955 1_556 S
C548 H535 0.960 . S
C548 C547 1.524 . S
C549 C546 1.403 . S
C549 C550 1.392 . S
C549 C553 1.495 . S
C550 C549 1.392 . S
C550 C551 1.385 . S
C550 C552 1.478 . S
C551 H545 0.930 . S
C551 C547 1.400 . S
C551 C550 1.385 . S
C552 C550 1.478 . S
C552 C554 1.381 1_556 S
C552 C558 1.383 . S
C553 C549 1.495 . S
C553 H559 0.959 . S
C553 H560 0.961 . S
C553 H561 0.960 . S
C554 C552 1.381 1_554 S
C554 C555 1.394 . S
C554 H562 0.930 . S
C555 C554 1.394 . S
C555 C556 1.383 1_554 S
C555 H563 0.929 . S
C556 C555 1.383 1_556 S
C556 C557 1.377 . S
C557 H541 0.930 . S
C557 C556 1.377 . S
C557 C558 1.379 . S
C558 H542 0.931 . S
C558 C552 1.383 . S
C558 C557 1.379 . S
H559 C553 0.959 . S
H560 C553 0.961 . S
H561 C553 0.960 . S
H562 C554 0.930 . S
H563 C555 0.929 . S
H564 C572 0.929 . S
H565 C574 0.930 . S
H566 C576 0.930 . S
H567 C579 0.929 . S
H568 C582 0.930 . S
H569 C584 0.960 . S
H570 C584 0.960 . S
H571 C584 0.960 . S
C572 H564 0.929 . S
C572 C573 1.377 . S
C572 C574 1.384 . S
C573 C572 1.377 . S
C573 C579 1.390 . S
C574 H565 0.930 . S
C574 C572 1.384 . S
C574 C575 1.372 . S
C575 C574 1.372 . S
C575 C576 1.400 . S
C575 C580 1.490 . S
C576 H566 0.930 . S
C576 C575 1.400 . S
C576 C579 1.386 . S
H577 C593 0.930 . S
H578 C594 0.931 . S
C579 H567 0.929 . S
C579 C573 1.390 . S
C579 C576 1.386 . S
C580 C575 1.490 . S
C580 C582 1.395 . S
C580 C583 1.403 . S
H581 C587 0.930 . S
C582 H568 0.930 . S
C582 C580 1.395 . S
C582 C585 1.403 . S
C583 C580 1.403 . S
C583 C584 1.524 . S
C583 C587 1.400 . S
C584 H569 0.960 . S
C584 H570 0.960 . S
C584 H571 0.960 . S
C584 C583 1.524 . S
C585 C582 1.403 . S
C585 C586 1.392 . S
C585 C589 1.495 . S
C586 C585 1.392 . S
C586 C587 1.385 . S
C586 C588 1.478 . S
C587 H581 0.930 . S
C587 C583 1.400 . S
C587 C586 1.385 . S
C588 C586 1.478 . S
C588 C590 1.381 . S
C588 C594 1.383 . S
C589 C585 1.495 . S
C589 H595 0.959 . S
C589 H596 0.961 . S
C589 H597 0.960 . S
C590 C588 1.381 . S
C590 C591 1.394 . S
C590 H598 0.930 . S
C591 C590 1.394 . S
C591 C592 1.383 . S
C591 H599 0.929 . S
C592 C591 1.383 . S
C592 C593 1.377 . S
C593 H577 0.930 . S
C593 C592 1.377 . S
C593 C594 1.379 . S
C594 H578 0.931 . S
C594 C588 1.383 . S
C594 C593 1.379 . S
H595 C589 0.959 . S
H596 C589 0.961 . S
H597 C589 0.960 . S
H598 C590 0.930 . S
H599 C591 0.929 . S
H600 C608 0.929 . S
H601 C610 0.930 . S
H602 C612 0.930 . S
H603 C615 0.929 . S
H604 C618 0.930 . S
H605 C620 0.960 . S
H606 C620 0.960 . S
H607 C620 0.960 1_556 S
C608 H600 0.929 . S
C608 C609 1.377 . S
C608 C610 1.384 . S
C609 C608 1.377 . S
C609 C615 1.390 . S
C610 H601 0.930 . S
C610 C608 1.384 . S
C610 C611 1.372 . S
C611 C610 1.372 . S
C611 C612 1.400 . S
C611 C616 1.490 . S
C612 H602 0.930 . S
C612 C611 1.400 . S
C612 C615 1.386 . S
H613 C629 0.930 . S
H614 C630 0.931 . S
C615 H603 0.929 . S
C615 C609 1.390 . S
C615 C612 1.386 . S
C616 C611 1.490 . S
C616 C618 1.395 . S
C616 C619 1.403 . S
H617 C623 0.930 1_554 S
C618 H604 0.930 . S
C618 C616 1.395 . S
C618 C621 1.403 . S
C619 C616 1.403 . S
C619 C620 1.524 1_556 S
C619 C623 1.400 . S
C620 H605 0.960 . S
C620 H606 0.960 . S
C620 H607 0.960 1_554 S
C620 C619 1.524 1_554 S
C621 C618 1.403 . S
C621 C622 1.392 . S
C621 C625 1.495 . S
C622 C621 1.392 . S
C622 C623 1.385 . S
C622 C624 1.478 . S
C623 H617 0.930 1_556 S
C623 C619 1.400 . S
C623 C622 1.385 . S
C624 C622 1.478 . S
C624 C626 1.375 1_556 S
C624 C630 1.383 . S
C625 C621 1.495 . S
C625 H631 0.959 . S
C625 H632 0.961 . S
C625 H633 0.960 . S
C626 C624 1.375 1_554 S
C626 C627 1.398 . S
C626 H634 0.933 . S
C627 C626 1.398 . S
C627 C628 1.383 . S
C627 H635 0.929 . S
C628 C627 1.383 . S
C628 C629 1.377 1_554 S
C629 H613 0.930 . S
C629 C628 1.377 1_556 S
C629 C630 1.379 . S
C630 H614 0.931 . S
C630 C624 1.383 . S
C630 C629 1.379 . S
H631 C625 0.959 . S
H632 C625 0.961 . S
H633 C625 0.960 . S
H634 C626 0.933 . S
H635 C627 0.929 . S
H636 C644 0.929 . S
H637 C646 0.930 . S
H638 C648 0.930 . S
H639 C651 0.929 . S
H640 C654 0.930 . S
H641 C656 0.960 . S
H642 C656 0.960 . S
H643 C656 0.960 . S
C644 H636 0.929 . S
C644 C645 1.377 1_554 S
C644 C646 1.384 . S
C645 C644 1.377 1_556 S
C645 C651 1.390 . S
C646 H637 0.930 . S
C646 C644 1.384 . S
C646 C647 1.372 1_554 S
C647 C646 1.372 1_556 S
C647 C648 1.400 . S
C647 C652 1.490 . S
C648 H638 0.930 . S
C648 C647 1.400 . S
C648 C651 1.386 . S
H649 C665 0.930 . S
H650 C666 0.931 . S
C651 H639 0.929 . S
C651 C645 1.390 . S
C651 C648 1.386 . S
C652 C647 1.490 . S
C652 C654 1.395 1_556 S
C652 C655 1.403 . S
H653 C659 0.930 . S
C654 H640 0.930 . S
C654 C652 1.395 1_554 S
C654 C657 1.403 . S
C655 C652 1.403 . S
C655 C656 1.524 . S
C655 C659 1.400 . S
C656 H641 0.960 . S
C656 H642 0.960 . S
C656 H643 0.960 . S
C656 C655 1.524 . S
C657 C654 1.403 . S
C657 C658 1.392 1_554 S
C657 C661 1.495 . S
C658 C657 1.392 1_556 S
C658 C659 1.385 . S
C658 C660 1.478 . S
C659 H653 0.930 . S
C659 C655 1.400 . S
C659 C658 1.385 . S
C660 C658 1.478 . S
C660 C662 1.381 1_556 S
C660 C666 1.383 . S
C661 C657 1.495 . S
C661 H667 0.959 . S
C661 H668 0.961 . S
C661 H669 0.960 . S
C662 C660 1.381 1_554 S
C662 C663 1.394 . S
C662 H670 0.930 . S
C663 C662 1.394 . S
C663 C664 1.383 1_554 S
C663 H671 0.929 . S
C664 C663 1.383 1_556 S
C664 C665 1.377 . S
C665 H649 0.930 . S
C665 C664 1.377 . S
C665 C666 1.379 . S
C666 H650 0.931 . S
C666 C660 1.383 . S
C666 C665 1.379 . S
H667 C661 0.959 . S
H668 C661 0.961 . S
H669 C661 0.960 . S
H670 C662 0.930 . S
H671 C663 0.929 . S
H672 C680 0.929 . S
H673 C682 0.930 . S
H674 C684 0.930 . S
H675 C687 0.929 . S
H676 C690 0.930 . S
H677 C692 0.960 . S
H678 C692 0.960 . S
H679 C692 0.960 . S
C680 H672 0.929 . S
C680 C681 1.377 . S
C680 C682 1.384 . S
C681 C680 1.377 . S
C681 C687 1.390 . S
C682 H673 0.930 . S
C682 C680 1.384 . S
C682 C683 1.372 . S
C683 C682 1.372 . S
C683 C684 1.400 . S
C683 C688 1.490 . S
C684 H674 0.930 . S
C684 C683 1.400 . S
C684 C687 1.386 . S
H685 C701 0.930 . S
H686 C702 0.931 . S
C687 H675 0.929 . S
C687 C681 1.390 . S
C687 C684 1.386 . S
C688 C683 1.490 . S
C688 C690 1.395 . S
C688 C691 1.403 . S
H689 C695 0.930 . S
C690 H676 0.930 . S
C690 C688 1.395 . S
C690 C693 1.403 . S
C691 C688 1.403 . S
C691 C692 1.524 . S
C691 C695 1.400 . S
C692 H677 0.960 . S
C692 H678 0.960 . S
C692 H679 0.960 . S
C692 C691 1.524 . S
C693 C690 1.403 . S
C693 C694 1.392 . S
C693 C697 1.495 . S
C694 C693 1.392 . S
C694 C695 1.385 . S
C694 C696 1.478 . S
C695 H689 0.930 . S
C695 C691 1.400 . S
C695 C694 1.385 . S
C696 C694 1.478 . S
C696 C698 1.381 . S
C696 C702 1.383 . S
C697 C693 1.495 . S
C697 H703 0.959 . S
C697 H704 0.961 . S
C697 H705 0.960 . S
C698 C696 1.381 . S
C698 C699 1.394 . S
C698 H706 0.930 . S
C699 C698 1.394 . S
C699 C700 1.383 . S
C699 H707 0.929 . S
C700 C699 1.383 . S
C700 C701 1.377 . S
C701 H685 0.930 . S
C701 C700 1.377 . S
C701 C702 1.379 . S
C702 H686 0.931 . S
C702 C696 1.383 . S
C702 C701 1.379 . S
H703 C697 0.959 . S
H704 C697 0.961 . S
H705 C697 0.960 . S
H706 C698 0.930 . S
H707 C699 0.929 . S
H708 C716 0.929 . S
H709 C718 0.930 . S
H710 C720 0.930 . S
H711 C723 0.929 . S
H712 C726 0.930 . S
H713 C728 0.960 . S
H714 C728 0.960 . S
H715 C728 0.960 . S
C716 H708 0.929 . S
C716 C717 1.377 . S
C716 C718 1.384 . S
C717 C716 1.377 . S
C717 C723 1.390 . S
C718 H709 0.930 . S
C718 C716 1.384 . S
C718 C719 1.372 . S
C719 C718 1.372 . S
C719 C720 1.400 . S
C719 C724 1.490 . S
C720 H710 0.930 . S
C720 C719 1.400 . S
C720 C723 1.386 . S
H721 C737 0.924 1_556 S
H722 C738 0.931 . S
C723 H711 0.929 . S
C723 C717 1.390 . S
C723 C720 1.386 . S
C724 C719 1.490 . S
C724 C726 1.395 . S
C724 C727 1.403 . S
H725 C731 0.930 . S
C726 H712 0.930 . S
C726 C724 1.395 . S
C726 C729 1.403 . S
C727 C724 1.403 . S
C727 C728 1.524 . S
C727 C731 1.400 . S
C728 H713 0.960 . S
C728 H714 0.960 . S
C728 H715 0.960 . S
C728 C727 1.524 . S
C729 C726 1.403 . S
C729 C730 1.392 . S
C729 C733 1.495 . S
C730 C729 1.392 . S
C730 C731 1.385 . S
C730 C732 1.478 . S
C731 H725 0.930 . S
C731 C727 1.400 . S
C731 C730 1.385 . S
C732 C730 1.478 . S
C732 C734 1.381 . S
C732 C738 1.383 . S
C733 C729 1.495 . S
C733 H739 0.959 . S
C733 H740 0.961 . S
C733 H741 0.960 . S
C734 C732 1.381 . S
C734 C735 1.394 1_554 S
C734 H742 0.930 . S
C735 C734 1.394 1_556 S
C735 C736 1.383 . S
C735 H743 0.929 . S
C736 C735 1.383 . S
C736 C737 1.371 1_556 S
C737 H721 0.924 1_554 S
C737 C736 1.371 1_554 S
C737 C738 1.391 . S
C738 H722 0.931 . S
C738 C732 1.383 . S
C738 C737 1.391 . S
H739 C733 0.959 . S
H740 C733 0.961 . S
H741 C733 0.960 . S
H742 C734 0.930 . S
H743 C735 0.929 . S
H744 C752 0.929 . S
H745 C754 0.930 . S
H746 C756 0.930 . S
H747 C759 0.929 . S
H748 C762 0.930 . S
H749 C764 0.960 . S
H750 C764 0.960 . S
H751 C764 0.960 . S
C752 H744 0.929 . S
C752 C753 1.377 . S
C752 C754 1.384 . S
C753 C752 1.377 . S
C753 C759 1.390 . S
C754 H745 0.930 . S
C754 C752 1.384 . S
C754 C755 1.372 . S
C755 C754 1.372 . S
C755 C756 1.400 . S
C755 C760 1.490 . S
C756 H746 0.930 . S
C756 C755 1.400 . S
C756 C759 1.386 . S
H757 C773 0.930 . S
H758 C774 0.931 . S
C759 H747 0.929 . S
C759 C753 1.390 . S
C759 C756 1.386 . S
C760 C755 1.490 . S
C760 C762 1.395 . S
C760 C763 1.403 . S
H761 C767 0.930 . S
C762 H748 0.930 . S
C762 C760 1.395 . S
C762 C765 1.403 . S
C763 C760 1.403 . S
C763 C764 1.524 . S
C763 C767 1.400 . S
C764 H749 0.960 . S
C764 H750 0.960 . S
C764 H751 0.960 . S
C764 C763 1.524 . S
C765 C762 1.403 . S
C765 C766 1.392 . S
C765 C769 1.495 . S
C766 C765 1.392 . S
C766 C767 1.385 . S
C766 C768 1.478 . S
C767 H761 0.930 . S
C767 C763 1.400 . S
C767 C766 1.385 . S
C768 C766 1.478 . S
C768 C770 1.381 . S
C768 C774 1.383 . S
C769 C765 1.495 . S
C769 H775 0.959 . S
C769 H776 0.961 . S
C769 H777 0.960 . S
C770 C768 1.381 . S
C770 C771 1.394 . S
C770 H778 0.930 . S
C771 C770 1.394 . S
C771 C772 1.383 . S
C771 H779 0.929 . S
C772 C771 1.383 . S
C772 C773 1.377 . S
C773 H757 0.930 . S
C773 C772 1.377 . S
C773 C774 1.379 . S
C774 H758 0.931 . S
C774 C768 1.383 . S
C774 C773 1.379 . S
H775 C769 0.959 . S
H776 C769 0.961 . S
H777 C769 0.960 . S
H778 C770 0.930 . S
H779 C771 0.929 . S
H780 C788 0.929 . S
H781 C790 0.930 . S
H782 C792 0.930 . S
H783 C795 0.929 . S
H784 C798 0.930 . S
H785 C800 0.960 . S
H786 C800 0.960 . S
H787 C800 0.960 . S
C788 H780 0.929 . S
C788 C789 1.377 . S
C788 C790 1.384 . S
C789 C788 1.377 . S
C789 C795 1.390 . S
C790 H781 0.930 . S
C790 C788 1.384 . S
C790 C791 1.372 . S
C791 C790 1.372 . S
C791 C792 1.400 . S
C791 C796 1.490 . S
C792 H782 0.930 . S
C792 C791 1.400 . S
C792 C795 1.386 . S
H793 C809 0.930 1_556 S
H794 C810 0.931 . S
C795 H783 0.929 . S
C795 C789 1.390 . S
C795 C792 1.386 . S
C796 C791 1.490 . S
C796 C798 1.395 . S
C796 C799 1.403 . S
H797 C803 0.930 . S
C798 H784 0.930 . S
C798 C796 1.395 . S
C798 C801 1.403 . S
C799 C796 1.403 . S
C799 C800 1.524 . S
C799 C803 1.400 . S
C800 H785 0.960 . S
C800 H786 0.960 . S
C800 H787 0.960 . S
C800 C799 1.524 . S
C801 C798 1.403 . S
C801 C802 1.392 . S
C801 C805 1.495 . S
C802 C801 1.392 . S
C802 C803 1.385 . S
C802 C804 1.478 . S
C803 H797 0.930 . S
C803 C799 1.400 . S
C803 C802 1.385 . S
C804 C802 1.478 . S
C804 C806 1.381 . S
C804 C810 1.383 . S
C805 C801 1.495 . S
C805 H811 0.959 . S
C805 H812 0.961 . S
C805 H813 0.960 . S
C806 C804 1.381 . S
C806 C807 1.394 . S
C806 H814 0.930 . S
C807 C806 1.394 . S
C807 C808 1.383 . S
C807 H815 0.929 . S
C808 C807 1.383 . S
C808 C809 1.377 . S
C809 H793 0.930 1_554 S
C809 C808 1.377 . S
C809 C810 1.379 . S
C810 H794 0.931 . S
C810 C804 1.383 . S
C810 C809 1.379 . S
H811 C805 0.959 . S
H812 C805 0.961 . S
H813 C805 0.960 . S
H814 C806 0.930 . S
H815 C807 0.929 . S
H816 C824 0.929 . S
H817 C826 0.930 . S
H818 C828 0.930 . S
H819 C831 0.929 . S
H820 C834 0.930 . S
H821 C836 0.960 . S
H822 C836 0.960 . S
H823 C836 0.960 . S
C824 H816 0.929 . S
C824 C825 1.377 . S
C824 C826 1.384 . S
C825 C824 1.377 . S
C825 C831 1.390 . S
C826 H817 0.930 . S
C826 C824 1.384 . S
C826 C827 1.372 . S
C827 C826 1.372 . S
C827 C828 1.400 . S
C827 C832 1.490 . S
C828 H818 0.930 . S
C828 C827 1.400 . S
C828 C831 1.386 . S
H829 C845 0.930 . S
H830 C846 0.931 . S
C831 H819 0.929 . S
C831 C825 1.390 . S
C831 C828 1.386 . S
C832 C827 1.490 . S
C832 C834 1.395 . S
C832 C835 1.403 . S
H833 C839 0.930 . S
C834 H820 0.930 . S
C834 C832 1.395 . S
C834 C837 1.403 . S
C835 C832 1.403 . S
C835 C836 1.524 . S
C835 C839 1.400 . S
C836 H821 0.960 . S
C836 H822 0.960 . S
C836 H823 0.960 . S
C836 C835 1.524 . S
C837 C834 1.403 . S
C837 C838 1.392 . S
C837 C841 1.495 . S
C838 C837 1.392 . S
C838 C839 1.385 . S
C838 C840 1.478 . S
C839 H833 0.930 . S
C839 C835 1.400 . S
C839 C838 1.385 . S
C840 C838 1.478 . S
C840 C842 1.381 . S
C840 C846 1.383 . S
C841 C837 1.495 . S
C841 H847 0.959 . S
C841 H848 0.961 . S
C841 H849 0.960 . S
C842 C840 1.381 . S
C842 C843 1.394 . S
C842 H850 0.930 . S
C843 C842 1.394 . S
C843 C844 1.383 . S
C843 H851 0.929 . S
C844 C843 1.383 . S
C844 C845 1.377 . S
C845 H829 0.930 . S
C845 C844 1.377 . S
C845 C846 1.379 . S
C846 H830 0.931 . S
C846 C840 1.383 . S
C846 C845 1.379 . S
H847 C841 0.959 . S
H848 C841 0.961 . S
H849 C841 0.960 . S
H850 C842 0.930 . S
H851 C843 0.929 . S
H852 C860 0.929 . S
H853 C862 0.930 . S
H854 C864 0.930 . S
H855 C867 0.929 . S
H856 C870 0.930 . S
H857 C872 0.960 . S
H858 C872 0.960 . S
H859 C872 0.960 . S
C860 H852 0.929 . S
C860 C861 1.377 . S
C860 C862 1.384 . S
C861 C860 1.377 . S
C861 C867 1.390 . S
C862 H853 0.930 . S
C862 C860 1.384 . S
C862 C863 1.372 . S
C863 C862 1.372 . S
C863 C864 1.400 . S
C863 C868 1.490 . S
C864 H854 0.930 . S
C864 C863 1.400 . S
C864 C867 1.386 . S
H865 C881 0.930 . S
H866 C882 0.931 . S
C867 H855 0.929 . S
C867 C861 1.390 . S
C867 C864 1.386 . S
C868 C863 1.490 . S
C868 C870 1.395 . S
C868 C871 1.403 . S
H869 C875 0.930 . S
C870 H856 0.930 . S
C870 C868 1.395 . S
C870 C873 1.403 . S
C871 C868 1.403 . S
C871 C872 1.524 . S
C871 C875 1.400 . S
C872 H857 0.960 . S
C872 H858 0.960 . S
C872 H859 0.960 . S
C872 C871 1.524 . S
C873 C870 1.403 . S
C873 C874 1.392 . S
C873 C877 1.495 . S
C874 C873 1.392 . S
C874 C875 1.385 . S
C874 C876 1.478 . S
C875 H869 0.930 . S
C875 C871 1.400 . S
C875 C874 1.385 . S
C876 C874 1.478 . S
C876 C878 1.381 . S
C876 C882 1.383 . S
C877 C873 1.495 . S
C877 H883 0.959 . S
C877 H884 0.961 . S
C877 H885 0.960 . S
C878 C876 1.381 . S
C878 C879 1.394 . S
C878 H886 0.930 . S
C879 C878 1.394 . S
C879 C880 1.383 . S
C879 H887 0.929 . S
C880 C879 1.383 . S
C880 C881 1.377 . S
C881 H865 0.930 . S
C881 C880 1.377 . S
C881 C882 1.379 . S
C882 H866 0.931 . S
C882 C876 1.383 . S
C882 C881 1.379 . S
H883 C877 0.959 . S
H884 C877 0.961 . S
H885 C877 0.960 . S
H886 C878 0.930 . S
H887 C879 0.929 . S
C249 C210 1.914 . S
C268 C6 1.960 . S
C285 C10 3.557 . S
C304 C46 3.477 . S
C321 C50 3.453 . S
C340 C86 3.278 . S
C357 C130 2.590 . S
C376 C90 2.607 . S
C393 C166 2.305 . S
C412 C126 2.194 . S
C429 C170 3.013 . S
C448 C206 2.680 1_565 S
C465 C179 1.273 . S
C484 C15 1.321 . S
C501 C219 2.414 . S
C520 C55 2.359 . S
C537 C95 3.228 . S
C556 C19 3.227 . S
C573 C139 3.739 . S
C592 C59 3.768 . S
C609 C175 2.029 . S
C628 C99 2.089 . S
C645 C135 0.882 . S
C664 C215 0.894 . S
C681 C9 0.299 . S
C700 C18 0.239 . S
C717 C49 0.454 . S
C736 C58 0.389 . S
C753 C89 0.437 . S
C772 C98 0.417 . S
C789 C138 0.385 . S
C808 C129 0.369 . S
C825 C178 0.330 . S
C844 C169 0.317 . S
C861 C209 0.528 . S
C880 C218 0.610 . S
