# Generated by pormake.
# Topology unr, (4)-cn, num edge types: 1
# Building blocks:
#     Node 0, Type 0, BuildingBlock: ICAMEG_clean_sbu_1, # of connection points: 4
#     Node 1, Type 0, BuildingBlock: ICAMEG_clean_sbu_1, # of connection points: 4
#     Node 2, Type 0, BuildingBlock: ICAMEG_clean_sbu_1, # of connection points: 4
#     Node 3, Type 0, BuildingBlock: ICAMEG_clean_sbu_1, # of connection points: 4
#     Node 4, Type 0, BuildingBlock: ICAMEG_clean_sbu_1, # of connection points: 4
#     Node 5, Type 0, BuildingBlock: ICAMEG_clean_sbu_1, # of connection points: 4
#     Node 6, Type 0, BuildingBlock: ICAMEG_clean_sbu_1, # of connection points: 4
#     Node 7, Type 0, BuildingBlock: ICAMEG_clean_sbu_1, # of connection points: 4
#     Node 8, Type 0, BuildingBlock: ICAMEG_clean_sbu_1, # of connection points: 4
#     Node 9, Type 0, BuildingBlock: ICAMEG_clean_sbu_1, # of connection points: 4
#     Node 10, Type 0, BuildingBlock: ICAMEG_clean_sbu_1, # of connection points: 4
#     Node 11, Type 0, BuildingBlock: ICAMEG_clean_sbu_1, # of connection points: 4
#     Node 12, Type 0, BuildingBlock: ICAMEG_clean_sbu_1, # of connection points: 4
#     Node 13, Type 0, BuildingBlock: ICAMEG_clean_sbu_1, # of connection points: 4
#     Node 14, Type 0, BuildingBlock: ICAMEG_clean_sbu_1, # of connection points: 4
#     Node 15, Type 0, BuildingBlock: ICAMEG_clean_sbu_1, # of connection points: 4
#     Node 16, Type 0, BuildingBlock: ICAMEG_clean_sbu_1, # of connection points: 4
#     Node 17, Type 0, BuildingBlock: ICAMEG_clean_sbu_1, # of connection points: 4
#     Node 18, Type 0, BuildingBlock: ICAMEG_clean_sbu_1, # of connection points: 4
#     Node 19, Type 0, BuildingBlock: ICAMEG_clean_sbu_1, # of connection points: 4
#     Node 20, Type 0, BuildingBlock: ICAMEG_clean_sbu_1, # of connection points: 4
#     Node 21, Type 0, BuildingBlock: ICAMEG_clean_sbu_1, # of connection points: 4
#     Node 22, Type 0, BuildingBlock: ICAMEG_clean_sbu_1, # of connection points: 4
#     Node 23, Type 0, BuildingBlock: ICAMEG_clean_sbu_1, # of connection points: 4
#     Node 24, Type 0, BuildingBlock: ICAMEG_clean_sbu_1, # of connection points: 4
#     Node 25, Type 0, BuildingBlock: ICAMEG_clean_sbu_1, # of connection points: 4
#     Node 26, Type 0, BuildingBlock: ICAMEG_clean_sbu_1, # of connection points: 4
#     Node 27, Type 0, BuildingBlock: ICAMEG_clean_sbu_1, # of connection points: 4
#     Node 28, Type 0, BuildingBlock: ICAMEG_clean_sbu_1, # of connection points: 4
#     Node 29, Type 0, BuildingBlock: ICAMEG_clean_sbu_1, # of connection points: 4
#     Node 30, Type 0, BuildingBlock: ICAMEG_clean_sbu_1, # of connection points: 4
#     Node 31, Type 0, BuildingBlock: ICAMEG_clean_sbu_1, # of connection points: 4
#     Node 32, Type 0, BuildingBlock: ICAMEG_clean_sbu_1, # of connection points: 4
#     Node 33, Type 0, BuildingBlock: ICAMEG_clean_sbu_1, # of connection points: 4
#     Node 34, Type 0, BuildingBlock: ICAMEG_clean_sbu_1, # of connection points: 4
#     Node 35, Type 0, BuildingBlock: ICAMEG_clean_sbu_1, # of connection points: 4
#     Edge 36, Type (0, 0), BuildingBlock: OJICUG_clean_linker_0, # of connection points: 2
#     Edge 37, Type (0, 0), BuildingBlock: OJICUG_clean_linker_0, # of connection points: 2
#     Edge 38, Type (0, 0), BuildingBlock: OJICUG_clean_linker_0, # of connection points: 2
#     Edge 39, Type (0, 0), BuildingBlock: OJICUG_clean_linker_0, # of connection points: 2
#     Edge 40, Type (0, 0), BuildingBlock: OJICUG_clean_linker_0, # of connection points: 2
#     Edge 41, Type (0, 0), BuildingBlock: OJICUG_clean_linker_0, # of connection points: 2
#     Edge 42, Type (0, 0), BuildingBlock: OJICUG_clean_linker_0, # of connection points: 2
#     Edge 43, Type (0, 0), BuildingBlock: OJICUG_clean_linker_0, # of connection points: 2
#     Edge 44, Type (0, 0), BuildingBlock: OJICUG_clean_linker_0, # of connection points: 2
#     Edge 45, Type (0, 0), BuildingBlock: OJICUG_clean_linker_0, # of connection points: 2
#     Edge 46, Type (0, 0), BuildingBlock: OJICUG_clean_linker_0, # of connection points: 2
#     Edge 47, Type (0, 0), BuildingBlock: OJICUG_clean_linker_0, # of connection points: 2
#     Edge 48, Type (0, 0), BuildingBlock: OJICUG_clean_linker_0, # of connection points: 2
#     Edge 49, Type (0, 0), BuildingBlock: OJICUG_clean_linker_0, # of connection points: 2
#     Edge 50, Type (0, 0), BuildingBlock: OJICUG_clean_linker_0, # of connection points: 2
#     Edge 51, Type (0, 0), BuildingBlock: OJICUG_clean_linker_0, # of connection points: 2
#     Edge 52, Type (0, 0), BuildingBlock: OJICUG_clean_linker_0, # of connection points: 2
#     Edge 53, Type (0, 0), BuildingBlock: OJICUG_clean_linker_0, # of connection points: 2
#     Edge 54, Type (0, 0), BuildingBlock: OJICUG_clean_linker_0, # of connection points: 2
#     Edge 55, Type (0, 0), BuildingBlock: OJICUG_clean_linker_0, # of connection points: 2
#     Edge 56, Type (0, 0), BuildingBlock: OJICUG_clean_linker_0, # of connection points: 2
#     Edge 57, Type (0, 0), BuildingBlock: OJICUG_clean_linker_0, # of connection points: 2
#     Edge 58, Type (0, 0), BuildingBlock: OJICUG_clean_linker_0, # of connection points: 2
#     Edge 59, Type (0, 0), BuildingBlock: OJICUG_clean_linker_0, # of connection points: 2
#     Edge 60, Type (0, 0), BuildingBlock: OJICUG_clean_linker_0, # of connection points: 2
#     Edge 61, Type (0, 0), BuildingBlock: OJICUG_clean_linker_0, # of connection points: 2
#     Edge 62, Type (0, 0), BuildingBlock: OJICUG_clean_linker_0, # of connection points: 2
#     Edge 63, Type (0, 0), BuildingBlock: OJICUG_clean_linker_0, # of connection points: 2
#     Edge 64, Type (0, 0), BuildingBlock: OJICUG_clean_linker_0, # of connection points: 2
#     Edge 65, Type (0, 0), BuildingBlock: OJICUG_clean_linker_0, # of connection points: 2
#     Edge 66, Type (0, 0), BuildingBlock: OJICUG_clean_linker_0, # of connection points: 2
#     Edge 67, Type (0, 0), BuildingBlock: OJICUG_clean_linker_0, # of connection points: 2
#     Edge 68, Type (0, 0), BuildingBlock: OJICUG_clean_linker_0, # of connection points: 2
#     Edge 69, Type (0, 0), BuildingBlock: OJICUG_clean_linker_0, # of connection points: 2
#     Edge 70, Type (0, 0), BuildingBlock: OJICUG_clean_linker_0, # of connection points: 2
#     Edge 71, Type (0, 0), BuildingBlock: OJICUG_clean_linker_0, # of connection points: 2
#     Edge 72, Type (0, 0), BuildingBlock: OJICUG_clean_linker_0, # of connection points: 2
#     Edge 73, Type (0, 0), BuildingBlock: OJICUG_clean_linker_0, # of connection points: 2
#     Edge 74, Type (0, 0), BuildingBlock: OJICUG_clean_linker_0, # of connection points: 2
#     Edge 75, Type (0, 0), BuildingBlock: OJICUG_clean_linker_0, # of connection points: 2
#     Edge 76, Type (0, 0), BuildingBlock: OJICUG_clean_linker_0, # of connection points: 2
#     Edge 77, Type (0, 0), BuildingBlock: OJICUG_clean_linker_0, # of connection points: 2
#     Edge 78, Type (0, 0), BuildingBlock: OJICUG_clean_linker_0, # of connection points: 2
#     Edge 79, Type (0, 0), BuildingBlock: OJICUG_clean_linker_0, # of connection points: 2
#     Edge 80, Type (0, 0), BuildingBlock: OJICUG_clean_linker_0, # of connection points: 2
#     Edge 81, Type (0, 0), BuildingBlock: OJICUG_clean_linker_0, # of connection points: 2
#     Edge 82, Type (0, 0), BuildingBlock: OJICUG_clean_linker_0, # of connection points: 2
#     Edge 83, Type (0, 0), BuildingBlock: OJICUG_clean_linker_0, # of connection points: 2
#     Edge 84, Type (0, 0), BuildingBlock: OJICUG_clean_linker_0, # of connection points: 2
#     Edge 85, Type (0, 0), BuildingBlock: OJICUG_clean_linker_0, # of connection points: 2
#     Edge 86, Type (0, 0), BuildingBlock: OJICUG_clean_linker_0, # of connection points: 2
#     Edge 87, Type (0, 0), BuildingBlock: OJICUG_clean_linker_0, # of connection points: 2
#     Edge 88, Type (0, 0), BuildingBlock: OJICUG_clean_linker_0, # of connection points: 2
#     Edge 89, Type (0, 0), BuildingBlock: OJICUG_clean_linker_0, # of connection points: 2
#     Edge 90, Type (0, 0), BuildingBlock: OJICUG_clean_linker_0, # of connection points: 2
#     Edge 91, Type (0, 0), BuildingBlock: OJICUG_clean_linker_0, # of connection points: 2
#     Edge 92, Type (0, 0), BuildingBlock: OJICUG_clean_linker_0, # of connection points: 2
#     Edge 93, Type (0, 0), BuildingBlock: OJICUG_clean_linker_0, # of connection points: 2
#     Edge 94, Type (0, 0), BuildingBlock: OJICUG_clean_linker_0, # of connection points: 2
#     Edge 95, Type (0, 0), BuildingBlock: OJICUG_clean_linker_0, # of connection points: 2
#     Edge 96, Type (0, 0), BuildingBlock: OJICUG_clean_linker_0, # of connection points: 2
#     Edge 97, Type (0, 0), BuildingBlock: OJICUG_clean_linker_0, # of connection points: 2
#     Edge 98, Type (0, 0), BuildingBlock: OJICUG_clean_linker_0, # of connection points: 2
#     Edge 99, Type (0, 0), BuildingBlock: OJICUG_clean_linker_0, # of connection points: 2
#     Edge 100, Type (0, 0), BuildingBlock: OJICUG_clean_linker_0, # of connection points: 2
#     Edge 101, Type (0, 0), BuildingBlock: OJICUG_clean_linker_0, # of connection points: 2
#     Edge 102, Type (0, 0), BuildingBlock: OJICUG_clean_linker_0, # of connection points: 2
#     Edge 103, Type (0, 0), BuildingBlock: OJICUG_clean_linker_0, # of connection points: 2
#     Edge 104, Type (0, 0), BuildingBlock: OJICUG_clean_linker_0, # of connection points: 2
#     Edge 105, Type (0, 0), BuildingBlock: OJICUG_clean_linker_0, # of connection points: 2
#     Edge 106, Type (0, 0), BuildingBlock: OJICUG_clean_linker_0, # of connection points: 2
#     Edge 107, Type (0, 0), BuildingBlock: OJICUG_clean_linker_0, # of connection points: 2
# Relax obj value: 0.322
# Max RMSD: 0.110
# Mean RMSD: 0.109
data_MOF--net-unr--node1-ICAMEG_clean_sbu_1--edge1-OJICUG_clean_linker_0
_symmetry_space_group_name_H-M    P1
_symmetry_Int_Tables_number       1
_symmetry_cell_setting            triclinic
loop_
_symmetry_equiv_pos_as_xyz
'x, y, z'
_cell_length_a     38.639668
_cell_length_b     38.650201
_cell_length_c     88.904545
_cell_angle_alpha  89.980895
_cell_angle_beta   89.991756
_cell_angle_gamma 119.97676
loop_
_atom_site_label
_atom_site_type_symbol
_atom_site_fract_x
_atom_site_fract_y
_atom_site_fract_z
_atom_type_partial_charge
Co0 Co 0.17746 0.14438 0.16371 0.0
Co1 Co 0.14276 0.12271 0.19944 0.0
O2 O 0.18708 0.15003 0.18555 0.0
C3 C 0.24764 0.13596 0.16877 0.0
O4 O 0.22596 0.10872 0.1788 0.0
C5 C 0.15997 0.1895 0.22094 0.0
O6 O 0.1261 0.18772 0.21741 0.0
O7 O 0.1166 0.14935 0.18944 0.0
O8 O 0.12122 0.1346 0.16568 0.0
H9 H 0.99637 0.04671 0.20934 0.0
H10 H 0.24833 0.21614 0.17596 0.0
O11 O 0.23262 0.15327 0.16123 0.0
H12 H 0.175 0.26746 0.14675 0.0
H13 H 0.21906 0.17895 0.10964 0.0
H14 H 0.11107 0.08849 0.14388 0.0
H15 H 0.14987 0.19503 0.14841 0.0
H16 H 0.22802 0.18664 0.13715 0.0
O17 O 0.17141 0.16861 0.2137 0.0
H18 H 0.05664 0.07368 0.19418 0.0
H19 H 0.12891 0.11496 0.23336 0.0
H20 H 0.10071 0.07994 0.11646 0.0
H21 H 0.27471 0.28882 0.17449 0.0
H22 H 0.15495 0.12541 0.09913 0.0
H23 H 0.23793 0.3149 0.15981 0.0
O24 O 0.15606 0.08609 0.16559 0.0
H25 H 0.26013 0.11921 0.22213 0.0
H26 H 0.11621 0.04095 0.2111 0.0
H27 H 0.14857 0.00889 0.22452 0.0
H28 H 0.22125 0.04817 0.23009 0.0
H29 H 0.2261 0.15005 0.20897 0.0
H30 H 0.06795 0.09135 0.24898 0.0
H31 H 0.00125 0.05522 0.23702 0.0
O32 O 0.11619 0.07489 0.18562 0.0
C33 C 0.10307 0.14182 0.17611 0.0
C34 C 0.02512 0.06175 0.2148 0.0
C35 C 0.06562 0.08638 0.237 0.0
N36 N 0.09668 0.09663 0.21277 0.0
C37 C 0.05976 0.07718 0.20621 0.0
C38 C 0.0999 0.10032 0.22806 0.0
C39 C 0.02805 0.06659 0.23029 0.0
C40 C 0.23228 0.22728 0.16948 0.0
N41 N 0.19774 0.2014 0.16221 0.0
C42 C 0.24731 0.26846 0.16872 0.0
C43 C 0.22664 0.28307 0.16049 0.0
C44 C 0.19132 0.25646 0.15317 0.0
C45 C 0.17719 0.21548 0.15418 0.0
C46 C 0.19515 0.15905 0.11707 0.0
C47 C 0.13468 0.1086 0.13642 0.0
C48 C 0.20006 0.16323 0.13265 0.0
N49 N 0.16989 0.13838 0.14211 0.0
C50 C 0.1287 0.10352 0.1209 0.0
C51 C 0.15917 0.129 0.11119 0.0
C52 C 0.12855 0.06274 0.17456 0.0
C53 C 0.22844 0.1018 0.21981 0.0
C54 C 0.14757 0.0582 0.21362 0.0
C55 C 0.16587 0.03991 0.22117 0.0
C56 C 0.20662 0.06195 0.22428 0.0
N57 N 0.16902 0.09733 0.20939 0.0
C58 C 0.20902 0.11909 0.21235 0.0
Co59 Co 0.87294 0.01535 0.20175 0.0
Co60 Co 0.85157 0.02872 0.16584 0.0
O61 O 0.84599 0.03288 0.18782 0.0
C62 C 0.79851 0.00101 0.2183 0.0
O63 O 0.79065 0.02118 0.20836 0.0
C64 C 0.85893 0.10713 0.17038 0.0
O65 O 0.88765 0.11429 0.17993 0.0
O66 O 0.90964 0.06627 0.16757 0.0
O67 O 0.92169 0.04019 0.18827 0.0
H68 H 0.91625 0.01783 0.11836 0.0
H69 H 0.85339 0.0812 0.207 0.0
O70 O 0.8262 0.99276 0.21605 0.0
H71 H 0.98099 0.12522 0.23303 0.0
H72 H 0.89456 0.95775 0.24958 0.0
H73 H 0.92792 0.98487 0.19594 0.0
H74 H 0.9496 0.06295 0.21871 0.0
H75 H 0.87141 0.99674 0.23512 0.0
O76 O 0.84125 0.07408 0.16334 0.0
H77 H 0.90797 0.0194 0.14579 0.0
H78 H 0.80809 0.03567 0.1394 0.0
H79 H 0.95432 0.94972 0.2103 0.0
H80 H 0.88405 0.14386 0.22103 0.0
H81 H 0.93758 0.93526 0.23728 0.0
H82 H 0.94825 0.16644 0.23437 0.0
O83 O 0.84747 0.96351 0.19121 0.0
H84 H 0.70653 0.979 0.1766 0.0
H85 H 0.80214 0.94981 0.15087 0.0
H86 H 0.73 0.90124 0.1494 0.0
H87 H 0.68163 0.91575 0.1623 0.0
H88 H 0.77894 0.02662 0.17785 0.0
H89 H 0.81545 0.03453 0.11187 0.0
H90 H 0.86975 0.02539 0.10118 0.0
O91 O 0.86305 0.98339 0.16764 0.0
C92 C 0.93335 0.06376 0.17689 0.0
C93 C 0.89236 0.02165 0.12287 0.0
C94 C 0.83582 0.03108 0.11924 0.0
N95 N 0.85731 0.02716 0.1442 0.0
C96 C 0.88746 0.02245 0.13841 0.0
C97 C 0.83184 0.03175 0.13483 0.0
C98 C 0.86629 0.02595 0.11325 0.0
C99 C 0.8806 0.08962 0.21297 0.0
N100 N 0.89796 0.06626 0.21263 0.0
C101 C 0.89822 0.12578 0.22081 0.0
C102 C 0.93427 0.1385 0.22826 0.0
C103 C 0.95255 0.11536 0.22754 0.0
C104 C 0.93414 0.07952 0.21952 0.0
C105 C 0.90285 0.96475 0.2379 0.0
C106 C 0.92154 0.98059 0.20782 0.0
C107 C 0.88934 0.98634 0.22954 0.0
N108 N 0.89838 0.99368 0.21459 0.0
C109 C 0.9364 0.96006 0.21591 0.0
C110 C 0.92683 0.95192 0.23103 0.0
C111 C 0.85607 0.95808 0.17803 0.0
C112 C 0.7273 0.97234 0.17093 0.0
C113 C 0.7813 0.95624 0.15659 0.0
C114 C 0.74048 0.92868 0.15567 0.0
C115 C 0.71336 0.93685 0.16291 0.0
N116 N 0.79473 0.99101 0.16446 0.0
C117 C 0.76833 -0.00079 0.17158 0.0
Co118 Co 0.98493 0.85535 0.2022 0.0
Co119 Co 0.96488 0.81596 0.16691 0.0
O120 O 0.96539 0.80929 0.18893 0.0
C121 C 0.00219 0.79746 0.21886 0.0
O122 O 0.98109 0.76837 0.20942 0.0
C123 C 0.88763 0.74459 0.17343 0.0
O124 O 0.88127 0.7664 0.18314 0.0
O125 O 0.92729 0.83624 0.16954 0.0
O126 O 0.95744 0.87743 0.18921 0.0
H127 H 0.96526 0.88487 0.11885 0.0
H128 H 0.92088 0.77013 0.20948 0.0
O129 O 0.01058 0.83319 0.21601 0.0
H130 H 0.87897 0.8557 0.23523 0.0
H131 H 0.04712 0.93802 0.24901 0.0
H132 H 0.01357 0.94032 0.1958 0.0
H133 H 0.93879 0.88527 0.2194 0.0
H134 H 0.00805 0.87498 0.23513 0.0
O135 O 0.91975 0.75989 0.16579 0.0
H136 H 0.96927 0.87864 0.14629 0.0
H137 H 0.95357 0.76248 0.14099 0.0
H138 H 0.04758 0.00254 0.20977 0.0
H139 H 0.86089 0.73938 0.22508 0.0
H140 H 0.06575 0.00249 0.23656 0.0
H141 H 0.83944 0.78208 0.23832 0.0
O142 O 0.03482 0.88164 0.19024 0.0
H143 H 0.01848 0.72346 0.17684 0.0
H144 H 0.04083 0.84439 0.14983 0.0
H145 H 0.08976 0.82149 0.14723 0.0
H146 H 0.07867 0.76056 0.16077 0.0
H147 H 0.97044 0.74756 0.17918 0.0
H148 H 0.94913 0.76731 0.11347 0.0
H149 H 0.95515 0.82892 0.10222 0.0
O150 O 0.00966 0.87292 0.16727 0.0
C151 C 0.9319 0.86409 0.17845 0.0
C152 C 0.96275 0.85793 0.12361 0.0
C153 C 0.95364 0.79194 0.12059 0.0
N154 N 0.96205 0.82042 0.14525 0.0
C155 C 0.9651 0.85428 0.13915 0.0
C156 C 0.95612 0.78935 0.13619 0.0
C157 C 0.95703 0.82651 0.11429 0.0
C158 C 0.91318 0.78942 0.21546 0.0
N159 N 0.93591 0.83006 0.21427 0.0
C160 C 0.87843 0.77158 0.22417 0.0
C161 C 0.86631 0.7955 0.23154 0.0
C162 C 0.88853 0.83675 0.22986 0.0
C163 C 0.923 0.85345 0.22101 0.0
C164 C 0.03881 0.93849 0.23743 0.0
C165 C 0.01939 0.93909 0.20759 0.0
C166 C 0.01721 0.90285 0.22938 0.0
N167 N 0.00804 0.90345 0.21454 0.0
C168 C 0.03939 0.97491 0.21546 0.0
C169 C 0.04946 0.97469 0.23045 0.0
C170 C 0.03688 0.89332 0.17678 0.0
C171 C 0.02363 0.75004 0.17087 0.0
C172 C 0.03591 0.81798 0.15582 0.0
C173 C 0.06366 0.80509 0.15427 0.0
C174 C 0.05741 0.77088 0.16187 0.0
N175 N 0.00282 0.79733 0.16466 0.0
C176 C 0.99651 0.7638 0.17214 0.0
Co177 Co 0.12784 0.14504 0.30114 0.0
Co178 Co 0.14452 0.17789 0.33737 0.0
O179 O 0.15205 0.18868 0.31552 0.0
C180 C 0.19472 0.20849 0.28339 0.0
O181 O 0.19789 0.23699 0.29228 0.0
C182 C 0.13332 0.24746 0.33381 0.0
O183 O 0.10187 0.2248 0.32554 0.0
O184 O 0.08646 0.15568 0.33469 0.0
O185 O 0.07771 0.11904 0.31377 0.0
H186 H 0.07616 0.09954 0.38395 0.0
H187 H 0.13478 0.22719 0.30041 0.0
O188 O 0.17672 0.17226 0.2879 0.0
H189 H 0.02743 0.14634 0.26466 0.0
H190 H 0.12136 0.06867 0.25395 0.0
H191 H 0.0708 0.05856 0.30542 0.0
H192 H 0.05927 0.11617 0.27878 0.0
H193 H 0.13868 0.12946 0.26824 0.0
O194 O 0.15331 0.23311 0.33986 0.0
H195 H 0.08711 0.11069 0.35664 0.0
H196 H 0.1843 0.22761 0.36436 0.0
H197 H 0.04836 0.99832 0.29063 0.0
H198 H 0.10228 0.25763 0.28685 0.0
H199 H 0.07372 0.00254 0.26463 0.0
H200 H 0.04853 0.21772 0.26851 0.0
O201 O 0.15339 0.11933 0.31217 0.0
H202 H 0.28975 0.27594 0.3283 0.0
H203 H 0.19403 0.15006 0.35335 0.0
H204 H 0.26634 0.17538 0.35593 0.0
H205 H 0.31475 0.23884 0.34338 0.0
H206 H 0.21719 0.24939 0.32594 0.0
H207 H 0.17422 0.21783 0.39177 0.0
H208 H 0.11993 0.15334 0.40173 0.0
O209 O 0.13476 0.12181 0.33547 0.0
C210 C 0.06433 0.12984 0.32496 0.0
C211 C 0.10004 0.1277 0.37975 0.0
C212 C 0.15504 0.19411 0.38414 0.0
N213 N 0.13664 0.16957 0.35891 0.0
C214 C 0.10648 0.13414 0.36429 0.0
C215 C 0.16057 0.19949 0.36861 0.0
C216 C 0.12458 0.15791 0.38972 0.0
C217 C 0.11219 0.20897 0.29241 0.0
N218 N 0.10189 0.17 0.28987 0.0
C219 C 0.09344 0.22671 0.28477 0.0
C220 C 0.06328 0.20435 0.27452 0.0
C221 C 0.05163 0.16442 0.2723 0.0
C222 C 0.0708 0.1476 0.28025 0.0
C223 C 0.10931 0.06654 0.26511 0.0
C224 C 0.08067 0.06172 0.29391 0.0
C225 C 0.1197 0.10101 0.27346 0.0
N226 N 0.10589 0.09847 0.28785 0.0
C227 C 0.06819 0.02692 0.28561 0.0
C228 C 0.08272 0.02936 0.27112 0.0
C229 C 0.14308 0.10427 0.32518 0.0
C230 C 0.26896 0.24831 0.33385 0.0
C231 C 0.21491 0.17761 0.34782 0.0
C232 C 0.25582 0.19185 0.34934 0.0
C233 C 0.28297 0.22746 0.3423 0.0
N234 N 0.20142 0.19835 0.33957 0.0
C235 C 0.22784 0.23318 0.33258 0.0
Co236 Co 0.85674 0.98443 0.29815 0.0
Co237 Co 0.81918 0.96727 0.33369 0.0
O238 O 0.8111 0.96506 0.31165 0.0
C239 C 0.79699 -0.00069 0.28156 0.0
O240 O 0.76863 0.97871 0.29134 0.0
C241 C 0.74841 0.88891 0.32823 0.0
O242 O 0.77005 0.88241 0.31848 0.0
O243 O 0.84037 0.93031 0.33158 0.0
O244 O 0.88053 0.95933 0.31156 0.0
H245 H 0.89184 0.97444 0.38155 0.0
H246 H 0.77212 0.91906 0.29125 0.0
O247 O 0.83287 0.00755 0.28395 0.0
H248 H 0.85928 0.87721 0.26667 0.0
H249 H 0.93724 0.04522 0.25081 0.0
H250 H 0.94254 0.01566 0.30427 0.0
H251 H 0.88802 0.93824 0.28182 0.0
H252 H 0.87493 0.00487 0.265 0.0
O253 O 0.76363 0.92151 0.33555 0.0
H254 H 0.8837 0.97515 0.35408 0.0
H255 H 0.76695 0.95776 0.35985 0.0
H256 H 0.00461 0.0527 0.29013 0.0
H257 H 0.74215 0.85777 0.27635 0.0
H258 H 0.00255 0.06828 0.26322 0.0
H259 H 0.78567 0.83635 0.26372 0.0
O260 O 0.8818 0.03533 0.30933 0.0
H261 H 0.72352 0.01668 0.32308 0.0
H262 H 0.84695 0.04473 0.3496 0.0
H263 H 0.82263 0.09265 0.35149 0.0
H264 H 0.76044 0.0787 0.33819 0.0
H265 H 0.74905 0.96969 0.32144 0.0
H266 H 0.77371 0.95659 0.38741 0.0
H267 H 0.83658 0.96514 0.39843 0.0
O268 O 0.87573 0.01298 0.33261 0.0
C269 C 0.86788 0.93453 0.32256 0.0
C270 C 0.86436 0.97085 0.37689 0.0
C271 C 0.79804 0.96079 0.38017 0.0
N272 N 0.82508 0.96696 0.35536 0.0
C273 C 0.85962 0.97135 0.36133 0.0
C274 C 0.79437 0.96143 0.36456 0.0
C275 C 0.83333 0.96559 0.38635 0.0
C276 C 0.79169 0.91117 0.28557 0.0
N277 N 0.83228 0.93444 0.28672 0.0
C278 C 0.77433 0.87578 0.27724 0.0
C279 C 0.79871 0.8637 0.2702 0.0
C280 C 0.83995 0.88665 0.27181 0.0
C281 C 0.85617 0.92174 0.28028 0.0
C282 C 0.93838 0.03789 0.26246 0.0
C283 C 0.94073 0.0207 0.29245 0.0
C284 C 0.90317 0.0155 0.27068 0.0
N285 N 0.90458 0.0076 0.2856 0.0
C286 C 0.97634 0.04219 0.28449 0.0
C287 C 0.97511 0.05099 0.26942 0.0
C288 C 0.89473 0.03943 0.32266 0.0
C289 C 0.75065 0.02309 0.32893 0.0
C290 C 0.82 0.03856 0.34371 0.0
C291 C 0.8063 0.06575 0.34486 0.0
C292 C 0.77139 0.05789 0.3374 0.0
N293 N 0.79946 0.00446 0.33539 0.0
C294 C 0.76523 0.99657 0.32805 0.0
Co295 Co 0.03128 0.85245 0.3351 0.0
Co296 Co 0.018 0.87403 0.29918 0.0
O297 O 0.03516 0.84677 0.31312 0.0
C298 C 0.10986 0.86015 0.3305 0.0
O299 O 0.11701 0.88911 0.32107 0.0
C300 C 0.00368 0.79994 0.28236 0.0
O301 O 0.02359 0.79169 0.29229 0.0
O302 O 0.96608 0.84897 0.30971 0.0
O303 O 0.98594 0.86391 0.33334 0.0
H304 H 0.95393 0.95689 0.29054 0.0
H305 H 0.02916 0.77988 0.32303 0.0
O306 O 0.07673 0.8422 0.33751 0.0
H307 H 0.90389 0.73085 0.35163 0.0
H308 H 0.03747 0.81622 0.38902 0.0
H309 H 0.0219 0.90868 0.35521 0.0
H310 H 0.95244 0.80299 0.35013 0.0
H311 H 0.03851 0.809 0.36148 0.0
O312 O 0.99526 0.82744 0.28479 0.0
H313 H 0.98778 0.92922 0.30499 0.0
H314 H 3e-05 0.87317 0.26576 0.0
H315 H 0.02042 0.91683 0.38266 0.0
H316 H 0.98156 0.70748 0.32431 0.0
H317 H 0.02821 0.87035 0.39978 0.0
H318 H 0.91837 0.68254 0.33869 0.0
O319 O 0.06877 0.91061 0.33338 0.0
H320 H 0.14684 0.88456 0.28049 0.0
H321 H 0.06633 0.95057 0.28237 0.0
H322 H 0.12917 0.98191 0.26826 0.0
H323 H 0.17011 0.94891 0.26716 0.0
H324 H 0.08371 0.854 0.29421 0.0
H325 H 0.96188 0.89718 0.25125 0.0
H326 H 0.9402 0.94098 0.26349 0.0
O327 O 0.04287 0.92265 0.31265 0.0
C328 C 0.96076 0.85743 0.32295 0.0
C329 C 0.96395 0.93868 0.28496 0.0
C330 C 0.96869 0.90527 0.26294 0.0
N331 N 0.99678 0.89989 0.28632 0.0
C332 C 0.9838 0.92313 0.29309 0.0
C333 C 0.98977 0.89122 0.27133 0.0
C334 C 0.95623 0.92957 0.26979 0.0
C335 C 0.00179 0.76926 0.32934 0.0
N336 N 0.9936 0.79563 0.33649 0.0
C337 C 0.97492 0.72823 0.33001 0.0
C338 C 0.93946 0.71426 0.33807 0.0
C339 C 0.9313 0.74135 0.34533 0.0
C340 C 0.95885 0.78217 0.3444 0.0
C341 C 0.03393 0.83659 0.38168 0.0
C342 C 0.02506 0.88819 0.36257 0.0
C343 C 0.03455 0.83268 0.36608 0.0
N344 N 0.02984 0.85814 0.35674 0.0
C345 C 0.02431 0.89302 0.37811 0.0
C346 C 0.02872 0.86696 0.38771 0.0
C347 C 0.0662 0.93431 0.32408 0.0
C348 C 0.12883 0.89883 0.28057 0.0
C349 C 0.08276 0.93498 0.28156 0.0
C350 C 0.11891 0.95336 0.2737 0.0
C351 C 0.14193 0.93494 0.27313 0.0
N352 N 0.0691 0.89871 0.2884 0.0
C353 C 0.09238 0.88125 0.28823 0.0
Co354 Co 0.85643 0.87044 0.79895 0.0
Co355 Co 0.8205 0.84875 0.83471 0.0
O356 O 0.81157 0.84315 0.8127 0.0
C357 C 0.79711 0.79654 0.78194 0.0
O358 O 0.76865 0.78817 0.79175 0.0
C359 C 0.74952 0.85607 0.82975 0.0
O360 O 0.77136 0.88487 0.82027 0.0
O361 O 0.84098 0.90686 0.83294 0.0
O362 O 0.87988 0.91899 0.81248 0.0
H363 H 0.89427 0.91335 0.88248 0.0
H364 H 0.7709 0.85041 0.79331 0.0
O365 O 0.83298 0.82391 0.78453 0.0
H366 H 0.85473 0.97911 0.76804 0.0
H367 H 0.93628 0.89415 0.75117 0.0
H368 H 0.94173 0.92534 0.80499 0.0
H369 H 0.88538 0.94751 0.78248 0.0
H370 H 0.87401 0.86997 0.7656 0.0
O371 O 0.76469 0.83831 0.83689 0.0
H372 H 0.88534 0.90527 0.855 0.0
H373 H 0.76929 0.80502 0.86094 0.0
H374 H 0.00343 0.95287 0.79069 0.0
H375 H 0.73906 0.88111 0.77917 0.0
H376 H 0.00163 0.93748 0.76359 0.0
H377 H 0.78085 0.94588 0.7662 0.0
O378 O 0.88296 0.84529 0.80968 0.0
H379 H 0.726 0.70374 0.82372 0.0
H380 H 0.84969 0.79942 0.84999 0.0
H381 H 0.82634 0.72732 0.8515 0.0
H382 H 0.76401 0.67893 0.83833 0.0
H383 H 0.75058 0.77611 0.82244 0.0
H384 H 0.77683 0.81217 0.8885 0.0
H385 H 0.83976 0.86655 0.89944 0.0
O386 O 0.87739 0.86039 0.83321 0.0
C387 C 0.8677 0.9306 0.82377 0.0
C388 C 0.86677 0.88942 0.87785 0.0
C389 C 0.80085 0.83267 0.88123 0.0
N390 N 0.82704 0.85442 0.85637 0.0
C391 C 0.8616 0.88462 0.86229 0.0
C392 C 0.79673 0.8288 0.86562 0.0
C393 C 0.83617 0.86318 0.88736 0.0
C394 C 0.78976 0.87778 0.78745 0.0
N395 N 0.83048 0.89535 0.788 0.0
C396 C 0.77132 0.89547 0.77957 0.0
C397 C 0.79473 0.93183 0.77234 0.0
C398 C 0.83612 0.95038 0.77332 0.0
C399 C 0.85343 0.93187 0.78138 0.0
C400 C 0.93745 0.90198 0.7629 0.0
C401 C 0.93983 0.91934 0.7931 0.0
C402 C 0.90225 0.88783 0.77124 0.0
N403 N 0.90373 0.89626 0.78624 0.0
C404 C 0.97531 0.93488 0.78503 0.0
C405 C 0.97413 0.92604 0.76984 0.0
C406 C 0.89641 0.85388 0.82296 0.0
C407 C 0.75318 0.72453 0.82952 0.0
C408 C 0.82267 0.77856 0.84416 0.0
C409 C 0.80952 0.73777 0.84509 0.0
C410 C 0.77454 0.71063 0.83771 0.0
N411 N 0.80151 0.79195 0.83613 0.0
C412 C 0.76722 0.76554 0.82885 0.0
Co413 Co 0.12739 0.98294 0.7988 0.0
Co414 Co 0.14791 0.9673 0.83454 0.0
O415 O 0.15424 0.96479 0.81253 0.0
C416 C 0.20174 0.99804 0.78198 0.0
O417 O 0.20963 0.97731 0.79165 0.0
C418 C 0.14107 0.88927 0.82935 0.0
O419 O 0.11254 0.88242 0.81975 0.0
O420 O 0.0899 0.92964 0.83246 0.0
O421 O 0.07836 0.95721 0.8121 0.0
H422 H 0.08143 0.97438 0.88216 0.0
H423 H 0.14733 0.91742 0.79301 0.0
O424 O 0.17446 0.00666 0.78462 0.0
H425 H 0.02007 0.87439 0.7669 0.0
H426 H 0.10593 0.0419 0.75133 0.0
H427 H 0.07203 0.01285 0.80486 0.0
H428 H 0.05104 0.93583 0.78176 0.0
H429 H 0.12926 0.00278 0.76556 0.0
O430 O 0.15849 0.92202 0.83659 0.0
H431 H 0.09057 0.9747 0.85471 0.0
H432 H 0.19081 0.95893 0.86087 0.0
H433 H 0.04533 0.04804 0.7907 0.0
H434 H 0.11721 0.85566 0.77844 0.0
H435 H 0.06227 0.06344 0.76378 0.0
H436 H 0.05318 0.83361 0.76503 0.0
O437 O 0.1522 0.03413 0.80982 0.0
H438 H 0.29339 0.0186 0.82411 0.0
H439 H 0.19654 0.04517 0.8503 0.0
H440 H 0.26855 0.09393 0.85221 0.0
H441 H 0.31754 0.08073 0.83908 0.0
H442 H 0.22109 0.97077 0.82243 0.0
H443 H 0.18261 0.95816 0.88841 0.0
H444 H 0.1277 0.96609 0.89922 0.0
O445 O 0.13616 0.01249 0.8332 0.0
C446 C 0.06642 0.9329 0.82325 0.0
C447 C 0.10559 0.97107 0.87759 0.0
C448 C 0.16234 0.96192 0.88109 0.0
N449 N 0.14146 0.96731 0.85619 0.0
C450 C 0.11098 0.97135 0.86204 0.0
C451 C 0.1668 0.96233 0.86549 0.0
C452 C 0.13152 0.96637 0.88715 0.0
C453 C 0.1203 0.90935 0.78697 0.0
N454 N 0.10285 0.93261 0.78753 0.0
C455 C 0.10293 0.87364 0.77884 0.0
C456 C 0.06698 0.86121 0.77137 0.0
C457 C 0.0485 0.88412 0.77237 0.0
C458 C 0.06668 0.91951 0.78067 0.0
C459 C 0.09753 0.03453 0.76298 0.0
C460 C 0.07861 0.01765 0.79301 0.0
C461 C 0.11118 0.01288 0.77121 0.0
N462 N 0.10203 0.00503 0.78614 0.0
C463 C 0.06355 0.03819 0.78503 0.0
C464 C 0.07323 0.04684 0.76994 0.0
C465 C 0.14311 0.03845 0.82309 0.0
C466 C 0.27235 0.02468 0.82989 0.0
C467 C 0.21765 0.03931 0.84448 0.0
C468 C 0.2584 0.06698 0.84564 0.0
C469 C 0.28587 0.05954 0.83828 0.0
N470 N 0.20464 0.00515 0.83626 0.0
C471 C 0.23138 0.99768 0.829 0.0
Co472 Co 0.01418 0.14117 0.79957 0.0
Co473 Co 0.02984 0.17638 0.83545 0.0
O474 O 0.03216 0.18572 0.81348 0.0
C475 C -0.00107 0.20067 0.78305 0.0
O476 O 0.0197 0.22911 0.79277 0.0
C477 C 0.10785 0.24759 0.8303 0.0
O478 O 0.11462 0.22598 0.82064 0.0
O479 O 0.06752 0.15611 0.83316 0.0
O480 O 0.04016 0.11771 0.81263 0.0
H481 H 0.02321 0.10189 0.88276 0.0
H482 H 0.07962 0.22688 0.79414 0.0
O483 O 0.99017 0.16471 0.78561 0.0
H484 H 0.1229 0.14393 0.76722 0.0
H485 H 0.9555 0.06209 0.75182 0.0
H486 H 0.98476 0.05586 0.80522 0.0
H487 H 0.06149 0.11278 0.78213 0.0
H488 H 0.99416 0.12413 0.76629 0.0
O489 O 0.07515 0.23222 0.83759 0.0
H490 H 0.02259 0.11123 0.85536 0.0
H491 H 0.03843 0.22708 0.86199 0.0
H492 H 0.95036 0.99448 0.79079 0.0
H493 H 0.14132 0.25918 0.77953 0.0
H494 H 0.93489 0.99665 0.7639 0.0
H495 H 0.1635 0.21785 0.76571 0.0
O496 O 0.96302 0.11422 0.81063 0.0
H497 H 0.97828 0.27065 0.8257 0.0
H498 H 0.95206 0.14671 0.85135 0.0
H499 H 0.90324 0.16984 0.85358 0.0
H500 H 0.91627 0.2323 0.84073 0.0
H501 H 0.02617 0.24629 0.8237 0.0
H502 H 0.0395 0.21912 0.88948 0.0
H503 H 0.03168 0.15608 0.90004 0.0
O504 O 0.9847 0.11946 0.834 0.0
C505 C 0.06435 0.12968 0.82381 0.0
C506 C 0.02646 0.12943 0.8783 0.0
C507 C 0.03566 0.19524 0.88208 0.0
N508 N 0.03 0.16947 0.85707 0.0
C509 C 0.02601 0.13484 0.86279 0.0
C510 C 0.03508 0.19959 0.8665 0.0
C511 C 0.03127 0.15986 0.88799 0.0
C512 C 0.0877 0.20821 0.78791 0.0
N513 N 0.0645 0.16749 0.78826 0.0
C514 C 0.1234 0.22692 0.77976 0.0
C515 C 0.1359 0.20377 0.77206 0.0
C516 C 0.11309 0.16236 0.77286 0.0
C517 C 0.07771 0.14477 0.78119 0.0
C518 C 0.96295 0.06077 0.76344 0.0
C519 C 0.97997 0.05796 0.7934 0.0
C520 C 0.98432 0.09583 0.77182 0.0
N521 N 0.99226 0.09414 0.78671 0.0
C522 C 0.95985 0.02264 0.78526 0.0
C523 C 0.95115 0.02404 0.7702 0.0
C524 C 0.95881 0.10055 0.82386 0.0
C525 C 0.97228 0.24342 0.83137 0.0
C526 C 0.95784 0.17379 0.84566 0.0
C527 C 0.93014 0.18681 0.847 0.0
C528 C 0.93748 0.22187 0.83979 0.0
N529 N 0.99194 0.19515 0.83741 0.0
C530 C -0.00069 0.22951 0.83029 0.0
Co531 Co 0.87107 0.85635 0.70173 0.0
Co532 Co 0.8511 0.82143 0.66582 0.0
O533 O 0.8444 0.8119 0.68779 0.0
C534 C 0.79684 0.79659 0.71842 0.0
O535 O 0.78925 0.76816 0.7087 0.0
C536 C 0.85802 0.75012 0.67066 0.0
O537 O 0.88661 0.77159 0.68026 0.0
O538 O 0.90909 0.8417 0.66798 0.0
O539 O 0.92034 0.87996 0.68857 0.0
H540 H 0.91833 0.89637 0.61851 0.0
H541 H 0.85142 0.77067 0.70682 0.0
O542 O 0.8237 0.83264 0.71578 0.0
H543 H 0.97733 0.85359 0.7339 0.0
H544 H 0.89138 0.93516 0.74955 0.0
H545 H 0.9269 0.94174 0.69613 0.0
H546 H 0.94681 0.88477 0.71918 0.0
H547 H 0.86831 0.87321 0.73505 0.0
O548 O 0.84054 0.76561 0.66353 0.0
H549 H 0.90871 0.88677 0.64592 0.0
H550 H 0.80866 0.77099 0.63927 0.0
H551 H 0.95361 0.00307 0.7106 0.0
H552 H 0.88115 0.73838 0.72123 0.0
H553 H 0.93586 0.00068 0.73749 0.0
H554 H 0.94447 0.77967 0.73513 0.0
O555 O 0.84664 0.88332 0.69082 0.0
H556 H 0.70545 0.72712 0.67583 0.0
H557 H 0.80276 0.8512 0.65015 0.0
H558 H 0.73078 0.82807 0.64811 0.0
H559 H 0.68157 0.76555 0.66098 0.0
H560 H 0.77772 0.75146 0.67764 0.0
H561 H 0.81735 0.77922 0.61177 0.0
H562 H 0.87242 0.84235 0.60122 0.0
O563 O 0.86286 0.87833 0.6674 0.0
C564 C 0.93243 0.86806 0.67733 0.0
C565 C 0.89412 0.86879 0.62296 0.0
C566 C 0.83748 0.80303 0.61918 0.0
N567 N 0.85789 0.82855 0.6442 0.0
C568 C 0.88845 0.86323 0.63848 0.0
C569 C 0.83274 0.79852 0.63476 0.0
C570 C 0.86837 0.83846 0.61327 0.0
C571 C 0.87809 0.78933 0.71309 0.0
N572 N 0.89533 0.83004 0.71289 0.0
C573 C 0.89526 0.77062 0.72112 0.0
C574 C 0.93083 0.79376 0.72887 0.0
C575 C 0.94916 0.83517 0.72823 0.0
C576 C 0.93119 0.85276 0.72001 0.0
C577 C 0.90015 0.93655 0.73793 0.0
C578 C 0.92003 0.93956 0.70796 0.0
C579 C 0.88663 0.90154 0.72953 0.0
N580 N 0.89625 0.90333 0.71463 0.0
C581 C 0.93506 0.97484 0.71612 0.0
C582 C 0.92491 0.97334 0.73118 0.0
C583 C 0.85593 0.89711 0.67761 0.0
C584 C 0.7266 0.75438 0.67016 0.0
C585 C 0.78154 0.82408 0.65585 0.0
C586 C 0.74082 0.81107 0.65462 0.0
C587 C 0.71322 0.77598 0.66183 0.0
N588 N 0.79441 0.80267 0.66401 0.0
C589 C 0.76755 0.76828 0.67113 0.0
Co590 Co 0.14259 0.01493 0.70193 0.0
Co591 Co 0.17804 0.03066 0.66608 0.0
O592 O 0.18732 0.03319 0.68807 0.0
C593 C 0.20232 0.00012 0.71851 0.0
O594 O 0.23077 0.02104 0.7088 0.0
C595 C 0.24923 0.10877 0.67113 0.0
O596 O 0.2277 0.11564 0.6808 0.0
O597 O 0.15762 0.06824 0.66832 0.0
O598 O 0.11895 0.04062 0.68878 0.0
H599 H 0.10351 0.02346 0.61874 0.0
H600 H 0.22805 0.08076 0.70744 0.0
O601 O 0.16632 0.99127 0.71596 0.0
H602 H 0.14408 0.12313 0.73417 0.0
H603 H 0.06311 0.95523 0.74952 0.0
H604 H 0.05718 0.98509 0.69616 0.0
H605 H 0.11346 0.06175 0.71927 0.0
H606 H 0.12525 0.99475 0.73518 0.0
O607 O 0.23382 0.076 0.6639 0.0
H608 H 0.11286 0.02315 0.64615 0.0
H609 H 0.22883 0.03912 0.63957 0.0
H610 H 0.99556 0.94958 0.71047 0.0
H611 H 0.25981 0.14248 0.72203 0.0
H612 H 0.99767 0.93369 0.7373 0.0
H613 H 0.21797 0.16419 0.73575 0.0
O614 O 0.11609 0.96376 0.6909 0.0
H615 H 0.27259 0.97955 0.67607 0.0
H616 H 0.14865 0.95282 0.65028 0.0
H617 H 0.17199 0.90414 0.6482 0.0
H618 H 0.23444 0.91743 0.66112 0.0
H619 H 0.24804 0.0273 0.67793 0.0
H620 H 0.22085 0.03988 0.61207 0.0
H621 H 0.15775 0.03184 0.60148 0.0
O622 O 0.12118 0.98542 0.66755 0.0
C623 C 0.13106 0.06494 0.67764 0.0
C624 C 0.13108 0.02681 0.62321 0.0
C625 C 0.19695 0.03608 0.61947 0.0
N626 N 0.17115 0.03064 0.64446 0.0
C627 C 0.13649 0.02654 0.63873 0.0
C628 C 0.20131 0.03567 0.63505 0.0
C629 C 0.16153 0.03156 0.61353 0.0
C630 C 0.20917 0.08867 0.71361 0.0
N631 N 0.16847 0.06524 0.71322 0.0
C632 C 0.22757 0.12436 0.72175 0.0
C633 C 0.20412 0.13661 0.7294 0.0
C634 C 0.16273 0.11354 0.72856 0.0
C635 C 0.14545 0.07817 0.72025 0.0
C636 C 0.06184 0.96278 0.73791 0.0
C637 C 0.0592 0.98015 0.70798 0.0
C638 C 0.09697 0.98465 0.72961 0.0
N639 N 0.09537 0.9927 0.71472 0.0
C640 C 0.02377 0.95941 0.71604 0.0
C641 C 0.0251 0.95049 0.73108 0.0
C642 C 0.10241 0.95944 0.67768 0.0
C643 C 0.24536 0.97344 0.67037 0.0
C644 C 0.17574 0.95871 0.65601 0.0
C645 C 0.18887 0.93109 0.65475 0.0
C646 C 0.22392 0.93858 0.662 0.0
N647 N 0.19699 0.99288 0.66422 0.0
C648 C 0.23134 0.0004 0.67137 0.0
Co649 Co 0.98362 0.1273 0.70244 0.0
Co650 Co 0.96895 0.14885 0.66672 0.0
O651 O 0.9658 0.15451 0.68874 0.0
C652 C 0.99804 0.20101 0.71953 0.0
O653 O 0.97752 0.20913 0.70983 0.0
C654 C 0.89065 0.14176 0.67164 0.0
O655 O 0.88348 0.11296 0.68115 0.0
O656 O 0.93125 0.09076 0.66855 0.0
O657 O 0.95837 0.07871 0.68893 0.0
H658 H 0.97751 0.08391 0.61894 0.0
H659 H 0.91773 0.14683 0.70805 0.0
O660 O 0.00683 0.17389 0.71683 0.0
H661 H 0.87413 0.01892 0.73375 0.0
H662 H 0.04135 0.10448 0.74997 0.0
H663 H 0.01376 0.07215 0.69629 0.0
H664 H 0.93612 0.05048 0.71918 0.0
H665 H 0.00261 0.12821 0.73573 0.0
O666 O 0.92368 0.15944 0.66457 0.0
H667 H 0.97693 0.09213 0.64641 0.0
H668 H 0.96141 0.19258 0.64049 0.0
H669 H 0.0485 0.04498 0.71045 0.0
H670 H 0.85542 0.11611 0.72231 0.0
H671 H 0.06309 0.06103 0.73746 0.0
H672 H 0.83308 0.05175 0.73551 0.0
O673 O 0.03516 0.15248 0.69161 0.0
H674 H 0.01985 0.29392 0.67772 0.0
H675 H 0.04731 0.19801 0.65131 0.0
H676 H 0.09613 0.27006 0.64976 0.0
H677 H 0.08248 0.31858 0.663 0.0
H678 H 0.97197 0.22159 0.67904 0.0
H679 H 0.96154 0.18529 0.61293 0.0
H680 H 0.96982 0.13074 0.60199 0.0
O681 O 0.01412 0.13709 0.66814 0.0
C682 C 0.93436 0.06706 0.6777 0.0
C683 C 0.97406 0.10791 0.62357 0.0
C684 C 0.96505 0.16477 0.6202 0.0
N685 N 0.96962 0.14308 0.64506 0.0
C686 C 0.97383 0.11278 0.63913 0.0
C687 C 0.96495 0.16872 0.63581 0.0
C688 C 0.9697 0.13416 0.61407 0.0
C689 C 0.90952 0.11965 0.714 0.0
N690 N 0.93292 0.10234 0.7135 0.0
C691 C 0.87351 0.10195 0.72195 0.0
C692 C 0.86092 0.06581 0.72931 0.0
C693 C 0.88398 0.04749 0.72837 0.0
C694 C 0.91968 0.06601 0.72024 0.0
C695 C 0.03428 0.0964 0.73828 0.0
C696 C 0.01822 0.07837 0.70817 0.0
C697 C 0.01285 0.1103 0.73004 0.0
N698 N 0.00541 0.10158 0.71507 0.0
C699 C 0.03851 0.06305 0.71615 0.0
C700 C 0.04672 0.07225 0.73129 0.0
C701 C 0.03982 0.14375 0.67833 0.0
C702 C 0.02612 0.27308 0.67189 0.0
C703 C 0.04126 0.21891 0.65717 0.0
C704 C 0.06896 0.25969 0.65621 0.0
C705 C 0.06127 0.28689 0.66364 0.0
N706 N 0.00682 0.20562 0.66526 0.0
C707 C -0.0009 0.2321 0.67258 0.0
Co708 Co 0.84415 0.48067 0.49862 0.0
Co709 Co 0.80834 0.46017 0.53441 0.0
O710 O 0.85313 0.48707 0.52062 0.0
C711 C 0.91529 0.47378 0.50384 0.0
O712 O 0.89349 0.44519 0.5134 0.0
C713 C 0.86759 0.53464 0.55112 0.0
O714 O 0.89606 0.54266 0.54136 0.0
O715 O 0.78166 0.4848 0.52344 0.0
O716 O 0.7872 0.46889 0.50002 0.0
H717 H 0.66139 0.37751 0.54279 0.0
H718 H 0.91394 0.55387 0.51062 0.0
O719 O 0.90003 0.49122 0.49655 0.0
H720 H 0.83786 0.60121 0.48097 0.0
H721 H 0.88772 0.5153 0.44472 0.0
H722 H 0.77934 0.42333 0.4785 0.0
H723 H 0.81471 0.52923 0.48291 0.0
H724 H 0.89528 0.52351 0.47225 0.0
O725 O 0.83171 0.50725 0.54857 0.0
H726 H 0.72307 0.40474 0.52849 0.0
H727 H 0.79076 0.46195 0.5677 0.0
H728 H 0.7704 0.4142 0.45106 0.0
H729 H 0.93832 0.62614 0.50891 0.0
H730 H 0.82484 0.46043 0.43395 0.0
H731 H 0.90014 0.65023 0.49401 0.0
O732 O 0.82385 0.42267 0.50071 0.0
H733 H 0.92596 0.45048 0.55454 0.0
H734 H 0.77959 0.38384 0.55141 0.0
H735 H 0.81043 0.35298 0.56616 0.0
H736 H 0.88434 0.38633 0.56793 0.0
H737 H 0.89394 0.48047 0.54009 0.0
H738 H 0.72848 0.43814 0.58208 0.0
H739 H 0.66318 0.39406 0.56978 0.0
O740 O 0.785 0.41113 0.52114 0.0
C741 C 0.76817 0.47569 0.51018 0.0
C742 C 0.6895 0.39586 0.54841 0.0
C743 C 0.72733 0.42983 0.57042 0.0
N744 N 0.76106 0.43472 0.54715 0.0
C745 C 0.72498 0.41122 0.54035 0.0
C746 C 0.76253 0.44377 0.5621 0.0
C747 C 0.69067 0.40534 0.56353 0.0
C748 C 0.89723 0.56413 0.50409 0.0
N749 N 0.86297 0.53737 0.49688 0.0
C750 C 0.91115 0.60508 0.50317 0.0
C751 C 0.88971 0.61857 0.49481 0.0
C752 C 0.85475 0.59109 0.4875 0.0
C753 C 0.84172 0.55035 0.48868 0.0
C754 C 0.86373 0.49505 0.45205 0.0
C755 C 0.80305 0.44373 0.47115 0.0
C756 C 0.86786 0.49951 0.46765 0.0
N757 N 0.83759 0.4742 0.47698 0.0
C758 C 0.79787 0.43834 0.45561 0.0
C759 C 0.82844 0.46425 0.44602 0.0
C760 C 0.79722 0.3992 0.50995 0.0
C761 C 0.89369 0.4361 0.55419 0.0
C762 C 0.81156 0.39957 0.55247 0.0
C763 C 0.82898 0.38146 0.5607 0.0
C764 C 0.87038 0.40008 0.56165 0.0
N765 N 0.83442 0.43579 0.54562 0.0
C766 C 0.87515 0.45339 0.54612 0.0
Co767 Co 0.53727 0.347 0.5345 0.0
Co768 Co 0.51659 0.36194 0.49868 0.0
O769 O 0.51033 0.36479 0.52068 0.0
C770 C 0.46285 0.332 0.55125 0.0
O771 O 0.45478 0.35236 0.54146 0.0
C772 C 0.5237 0.44006 0.50378 0.0
O773 O 0.55225 0.44681 0.51335 0.0
O774 O 0.57464 0.39954 0.50069 0.0
O775 O 0.58627 0.37251 0.52119 0.0
H776 H 0.58272 0.35393 0.45112 0.0
H777 H 0.51699 0.41234 0.54012 0.0
O778 O 0.49024 0.32349 0.54871 0.0
H779 H 0.6447 0.45649 0.56605 0.0
H780 H 0.55933 0.28956 0.58227 0.0
H781 H 0.59266 0.31703 0.52864 0.0
H782 H 0.61375 0.39471 0.55137 0.0
H783 H 0.5356 0.328 0.56782 0.0
O784 O 0.50615 0.40731 0.49653 0.0
H785 H 0.57375 0.35408 0.47856 0.0
H786 H 0.47364 0.37003 0.47232 0.0
H787 H 0.61982 0.28261 0.543 0.0
H788 H 0.54706 0.47441 0.5545 0.0
H789 H 0.60325 0.26806 0.57 0.0
H790 H 0.61131 0.49703 0.56781 0.0
O791 O 0.51255 0.29559 0.52362 0.0
H792 H 0.37119 0.3111 0.5091 0.0
H793 H 0.46781 0.28381 0.48313 0.0
H794 H 0.39576 0.23511 0.48129 0.0
H795 H 0.34689 0.24868 0.49431 0.0
H796 H 0.44351 0.35886 0.51071 0.0
H797 H 0.48168 0.37034 0.44478 0.0
H798 H 0.53644 0.36207 0.43401 0.0
O799 O 0.52828 0.31671 0.50016 0.0
C800 C 0.59815 0.39647 0.50994 0.0
C801 C 0.55863 0.35738 0.45567 0.0
C802 C 0.50196 0.36663 0.45211 0.0
N803 N 0.52293 0.36157 0.47704 0.0
C804 C 0.55333 0.35736 0.47121 0.0
C805 C 0.49759 0.36648 0.46771 0.0
C806 C 0.53268 0.36199 0.44608 0.0
C807 C 0.54412 0.42066 0.54613 0.0
N808 N 0.56174 0.39755 0.54562 0.0
C809 C 0.56145 0.45654 0.55415 0.0
C810 C 0.59754 0.46929 0.56157 0.0
C811 C 0.61617 0.44652 0.56062 0.0
C812 C 0.59802 0.41095 0.55243 0.0
C813 C 0.56762 0.2966 0.57059 0.0
C814 C 0.58621 0.31259 0.54051 0.0
C815 C 0.55373 0.31785 0.56224 0.0
N816 N 0.56275 0.32528 0.54728 0.0
C817 C 0.60152 0.29247 0.5486 0.0
C818 C 0.59204 0.28429 0.56373 0.0
C819 C 0.52155 0.29102 0.51037 0.0
C820 C 0.39218 0.30486 0.50337 0.0
C821 C 0.44674 0.28982 0.4889 0.0
C822 C 0.40598 0.26219 0.48777 0.0
C823 C 0.37857 0.26983 0.49507 0.0
N824 N 0.45984 0.32415 0.49702 0.0
C825 C 0.43317 0.33182 0.50422 0.0
Co826 Co 0.65066 0.18927 0.53475 0.0
Co827 Co 0.63541 0.15325 0.49899 0.0
O828 O 0.63282 0.1444 0.521 0.0
C829 C 0.66585 0.13017 0.55162 0.0
O830 O 0.64528 0.10155 0.54194 0.0
C831 C 0.55739 0.08219 0.50422 0.0
O832 O 0.55055 0.10401 0.51376 0.0
O833 O 0.5977 0.17358 0.50101 0.0
O834 O 0.62488 0.21248 0.52144 0.0
H835 H 0.64262 0.22667 0.45132 0.0
H836 H 0.5853 0.1037 0.54044 0.0
O837 O 0.67446 0.16604 0.54895 0.0
H838 H 0.54146 0.1873 0.56653 0.0
H839 H 0.70867 0.26943 0.58232 0.0
H840 H 0.68036 0.27446 0.52872 0.0
H841 H 0.6031 0.21808 0.55175 0.0
H842 H 0.6701 0.20706 0.56802 0.0
O843 O 0.59013 0.0974 0.49696 0.0
H844 H 0.64287 0.21793 0.47878 0.0
H845 H 0.62716 0.10196 0.4727 0.0
H846 H 0.71484 0.33621 0.54295 0.0
H847 H 0.52336 0.07176 0.55492 0.0
H848 H 0.7298 0.33463 0.56993 0.0
H849 H 0.50091 0.11342 0.56832 0.0
O850 O 0.70196 0.21592 0.52377 0.0
H851 H 0.68676 0.05913 0.50948 0.0
H852 H 0.71339 0.18253 0.48328 0.0
H853 H 0.76221 0.15931 0.4814 0.0
H854 H 0.74897 0.09712 0.49453 0.0
H855 H 0.63888 0.08356 0.51113 0.0
H856 H 0.62646 0.10932 0.44515 0.0
H857 H 0.6344 0.17211 0.4343 0.0
O858 O 0.68055 0.21017 0.50034 0.0
C859 C 0.60079 0.20023 0.51023 0.0
C860 C 0.63931 0.19924 0.45591 0.0
C861 C 0.63019 0.13336 0.45245 0.0
N862 N 0.63551 0.15968 0.47734 0.0
C863 C 0.63956 0.19417 0.47146 0.0
C864 C 0.63056 0.12935 0.46806 0.0
C865 C 0.63465 0.1686 0.44637 0.0
C866 C 0.57707 0.12252 0.54648 0.0
N867 N 0.60021 0.16323 0.54597 0.0
C868 C 0.54126 0.10401 0.55456 0.0
C869 C 0.52859 0.12735 0.56203 0.0
C870 C 0.55138 0.16874 0.56107 0.0
C871 C 0.58688 0.18612 0.55282 0.0
C872 C 0.70143 0.2705 0.57065 0.0
C873 C 0.68497 0.27263 0.54059 0.0
C874 C 0.68011 0.23524 0.56238 0.0
N875 N 0.67245 0.23661 0.54743 0.0
C876 C 0.70512 0.30815 0.5486 0.0
C877 C 0.71353 0.30709 0.56372 0.0
C878 C 0.70635 0.22928 0.51048 0.0
C879 C 0.69285 0.08624 0.5037 0.0
C880 C 0.70752 0.15556 0.4891 0.0
C881 C 0.73522 0.1425 0.48795 0.0
C882 C 0.72776 0.10759 0.49532 0.0
N883 N 0.67331 0.1344 0.49731 0.0
C884 C 0.66582 0.1002 0.50457 0.0
Co885 Co 0.79349 0.47644 0.63145 0.0
Co886 Co 0.81376 0.51226 0.66723 0.0
O887 O 0.82022 0.52128 0.64523 0.0
C888 C 0.86762 0.53589 0.61463 0.0
O889 O 0.87528 0.56448 0.62427 0.0
C890 C 0.8069 0.58355 0.66216 0.0
O891 O 0.77829 0.56199 0.65258 0.0
O892 O 0.75576 0.49195 0.66511 0.0
O893 O 0.74437 0.45306 0.6447 0.0
H894 H 0.74701 0.43837 0.71477 0.0
H895 H 0.81298 0.5619 0.62596 0.0
O896 O 0.84068 0.49991 0.61732 0.0
H897 H 0.68659 0.47798 0.59931 0.0
H898 H 0.77282 0.39641 0.58395 0.0
H899 H 0.73791 0.39115 0.63738 0.0
H900 H 0.71746 0.44735 0.61416 0.0
H901 H 0.79587 0.45872 0.59821 0.0
O902 O 0.82434 0.56811 0.66934 0.0
H903 H 0.75632 0.44738 0.68733 0.0
H904 H 0.85649 0.56328 0.69362 0.0
H905 H 0.71132 0.32943 0.62316 0.0
H906 H 0.78291 0.59366 0.61142 0.0
H907 H 0.72877 0.33116 0.59628 0.0
H908 H 0.71934 0.55185 0.59773 0.0
O909 O 0.81821 0.44991 0.64247 0.0
H910 H 0.95929 0.60632 0.65691 0.0
H911 H 0.86228 0.48286 0.68301 0.0
H912 H 0.93428 0.50601 0.68497 0.0
H913 H 0.98335 0.56822 0.67188 0.0
H914 H 0.88701 0.58195 0.65519 0.0
H915 H 0.8481 0.55564 0.72115 0.0
H916 H 0.79313 0.49275 0.73189 0.0
O917 O 0.802 0.45534 0.66585 0.0
C918 C 0.73235 0.4653 0.65586 0.0
C919 C 0.77118 0.46585 0.71023 0.0
C920 C 0.82788 0.53168 0.71381 0.0
N921 N 0.80718 0.50562 0.68887 0.0
C922 C 0.77668 0.47107 0.69469 0.0
C923 C 0.83245 0.53585 0.69821 0.0
C924 C 0.79704 0.49639 0.71983 0.0
C925 C 0.78618 0.54302 0.6198 0.0
N926 N 0.76897 0.50233 0.62019 0.0
C927 C 0.76882 0.56142 0.61168 0.0
C928 C 0.73312 0.538 0.60406 0.0
C929 C 0.71485 0.49662 0.60489 0.0
C930 C 0.733 0.47933 0.61318 0.0
C931 C 0.76419 0.3953 0.59558 0.0
C932 C 0.74467 0.39304 0.62555 0.0
C933 C 0.77769 0.43052 0.60383 0.0
N934 N 0.76826 0.42911 0.61874 0.0
C935 C 0.72969 0.35753 0.61754 0.0
C936 C 0.73967 0.35866 0.60248 0.0
C937 C 0.809 0.43639 0.65572 0.0
C938 C 0.93822 0.57919 0.66268 0.0
C939 C 0.88343 0.50984 0.67722 0.0
C940 C 0.92417 0.52286 0.6784 0.0
C941 C 0.95169 0.55778 0.67107 0.0
N942 N 0.87047 0.53106 0.66899 0.0
C943 C 0.89725 0.56528 0.66175 0.0
Co944 Co 0.52217 0.31753 0.63155 0.0
Co945 Co 0.48679 0.30276 0.6674 0.0
O946 O 0.47748 0.29964 0.64541 0.0
C947 C 0.46236 0.33174 0.61474 0.0
O948 O 0.43392 0.31104 0.62448 0.0
C949 C 0.41571 0.22445 0.66258 0.0
O950 O 0.4373 0.2174 0.653 0.0
O951 O 0.5073 0.26519 0.6654 0.0
O952 O 0.54587 0.29224 0.64488 0.0
H953 H 0.56142 0.31134 0.71489 0.0
H954 H 0.43671 0.25143 0.62625 0.0
O955 O 0.49839 0.34078 0.61735 0.0
H956 H 0.52061 0.20847 0.59984 0.0
H957 H 0.60155 0.37591 0.58383 0.0
H958 H 0.6076 0.3476 0.63736 0.0
H959 H 0.55127 0.2703 0.61446 0.0
H960 H 0.53944 0.33681 0.59824 0.0
O961 O 0.43105 0.25741 0.66968 0.0
H962 H 0.55204 0.3109 0.68745 0.0
H963 H 0.43601 0.29494 0.69384 0.0
H964 H 0.66917 0.38264 0.623 0.0
H965 H 0.40491 0.18927 0.61194 0.0
H966 H 0.66702 0.39772 0.59608 0.0
H967 H 0.44672 0.16725 0.59838 0.0
O968 O 0.5487 0.36901 0.64238 0.0
H969 H 0.39207 0.3534 0.65694 0.0
H970 H 0.5161 0.381 0.68288 0.0
H971 H 0.49267 0.42966 0.68467 0.0
H972 H 0.43018 0.41594 0.67167 0.0
H973 H 0.41672 0.30568 0.65538 0.0
H974 H 0.44403 0.29493 0.72136 0.0
H975 H 0.50717 0.30334 0.73205 0.0
O976 O 0.54362 0.34801 0.66584 0.0
C977 C 0.53385 0.26827 0.65613 0.0
C978 C 0.53384 0.30782 0.71037 0.0
C979 C 0.46794 0.29856 0.714 0.0
N980 N 0.49371 0.30337 0.68904 0.0
C981 C 0.5284 0.30767 0.69483 0.0
C982 C 0.46355 0.29854 0.6984 0.0
C983 C 0.50337 0.30329 0.71999 0.0
C984 C 0.45558 0.24338 0.62014 0.0
N985 N 0.49627 0.26689 0.62047 0.0
C986 C 0.43716 0.20744 0.61216 0.0
C987 C 0.46058 0.19502 0.6046 0.0
C988 C 0.50197 0.21819 0.60537 0.0
C989 C 0.51927 0.2538 0.61353 0.0
C990 C 0.60284 0.36869 0.59548 0.0
C991 C 0.60555 0.35218 0.62551 0.0
C992 C 0.56773 0.34705 0.60382 0.0
N993 N 0.56937 0.33942 0.61875 0.0
C994 C 0.64096 0.37266 0.61742 0.0
C995 C 0.6396 0.38113 0.60233 0.0
C996 C 0.56239 0.3737 0.65562 0.0
C997 C 0.41932 0.3597 0.66267 0.0
C998 C 0.48899 0.37492 0.67713 0.0
C999 C 0.47581 0.40253 0.67822 0.0
C1000 C 0.44073 0.3948 0.67093 0.0
N1001 N 0.46777 0.34052 0.66904 0.0
C1002 C 0.4334 0.33276 0.66184 0.0
Co1003 Co 0.69635 0.18506 0.6677 0.0
Co1004 Co 0.68123 0.20527 0.63185 0.0
O1005 O 0.69925 0.17862 0.64572 0.0
C1006 C 0.77467 0.19216 0.66283 0.0
O1007 O 0.78169 0.2207 0.65321 0.0
C1008 C 0.66683 0.13108 0.61514 0.0
O1009 O 0.68761 0.12342 0.62487 0.0
O1010 O 0.62983 0.18047 0.64276 0.0
O1011 O 0.6511 0.19668 0.66617 0.0
H1012 H 0.61622 0.28725 0.62323 0.0
H1013 H 0.69328 0.11193 0.65579 0.0
O1014 O 0.74171 0.17463 0.66996 0.0
H1015 H 0.56952 0.06436 0.68524 0.0
H1016 H 0.70459 0.15067 0.7217 0.0
H1017 H 0.68846 0.24241 0.68769 0.0
H1018 H 0.61821 0.13638 0.68332 0.0
H1019 H 0.70435 0.14236 0.69419 0.0
O1020 O 0.65784 0.15812 0.61772 0.0
H1021 H 0.6512 0.2607 0.63761 0.0
H1022 H 0.66169 0.20295 0.59855 0.0
H1023 H 0.68824 0.25164 0.71511 0.0
H1024 H 0.64552 0.03963 0.65748 0.0
H1025 H 0.69631 0.20553 0.73233 0.0
H1026 H 0.58309 0.01543 0.67229 0.0
O1027 O 0.73393 0.24308 0.66559 0.0
H1028 H 0.80933 0.21596 0.6121 0.0
H1029 H 0.72837 0.2814 0.61464 0.0
H1030 H 0.79011 0.31239 0.59993 0.0
H1031 H 0.83129 0.27965 0.59845 0.0
H1032 H 0.74727 0.18578 0.6265 0.0
H1033 H 0.62262 0.22597 0.58413 0.0
H1034 H 0.60106 0.26991 0.59633 0.0
O1035 O 0.70663 0.25437 0.64509 0.0
C1036 C 0.6253 0.18967 0.65599 0.0
C1037 C 0.62611 0.26892 0.61767 0.0
C1038 C 0.6299 0.23457 0.59577 0.0
N1039 N 0.65923 0.23045 0.61903 0.0
C1040 C 0.64655 0.25397 0.62577 0.0
C1041 C 0.65152 0.22108 0.60411 0.0
C1042 C 0.61758 0.25901 0.60259 0.0
C1043 C 0.66624 0.10163 0.66228 0.0
N1044 N 0.65857 0.12833 0.66945 0.0
C1045 C 0.63928 0.06065 0.66319 0.0
C1046 C 0.60425 0.0471 0.67149 0.0
C1047 C 0.5966 0.07453 0.67875 0.0
C1048 C 0.62423 0.11528 0.67758 0.0
C1049 C 0.70092 0.17087 0.71432 0.0
C1050 C 0.69172 0.22206 0.69509 0.0
C1051 C 0.70081 0.16635 0.69873 0.0
N1052 N 0.69594 0.19161 0.68933 0.0
C1053 C 0.6917 0.22751 0.71062 0.0
C1054 C 0.69627 0.20166 0.72027 0.0
C1055 C 0.73073 0.26644 0.65629 0.0
C1056 C 0.79117 0.23005 0.61232 0.0
C1057 C 0.74484 0.26587 0.61371 0.0
C1058 C 0.78041 0.28409 0.60549 0.0
C1059 C 0.80355 0.26582 0.60471 0.0
N1060 N 0.73179 0.22986 0.62069 0.0
C1061 C 0.75528 0.21264 0.62035 0.0
Co1062 Co 0.52252 0.20249 0.1313 0.0
Co1063 Co 0.48513 0.1785 0.16679 0.0
O1064 O 0.47714 0.17416 0.14473 0.0
C1065 C 0.46424 0.1289 0.11383 0.0
O1066 O 0.43572 0.11936 0.12372 0.0
C1067 C 0.41427 0.18573 0.16155 0.0
O1068 O 0.43652 0.21482 0.15224 0.0
O1069 O 0.50543 0.23668 0.1655 0.0
O1070 O 0.54531 0.25012 0.14527 0.0
H1071 H 0.55677 0.24034 0.2152 0.0
H1072 H 0.43713 0.18151 0.12491 0.0
O1073 O 0.4998 0.15697 0.11642 0.0
H1074 H 0.52116 0.31336 0.10184 0.0
H1075 H 0.6042 0.23091 0.08375 0.0
H1076 H 0.60754 0.25704 0.13796 0.0
H1077 H 0.55157 0.28094 0.11596 0.0
H1078 H 0.5414 0.20474 0.09798 0.0
O1079 O 0.42916 0.16779 0.16875 0.0
H1080 H 0.54897 0.234 0.18765 0.0
H1081 H 0.43292 0.13306 0.19257 0.0
H1082 H 0.66978 0.28634 0.12393 0.0
H1083 H 0.40547 0.21296 0.1111 0.0
H1084 H 0.66906 0.27379 0.09662 0.0
H1085 H 0.44739 0.27934 0.09923 0.0
O1086 O 0.54882 0.17686 0.14186 0.0
H1087 H 0.39143 0.03407 0.1546 0.0
H1088 H 0.5141 0.12853 0.18171 0.0
H1089 H 0.49102 0.05643 0.1826 0.0
H1090 H 0.42921 0.00865 0.169 0.0
H1091 H 0.41572 0.10643 0.15394 0.0
H1092 H 0.43934 0.13847 0.22019 0.0
H1093 H 0.5017 0.19231 0.23168 0.0
O1094 O 0.54217 0.19046 0.16549 0.0
C1095 C 0.53255 0.26101 0.15659 0.0
C1096 C 0.52952 0.21664 0.21033 0.0
C1097 C 0.4636 0.1595 0.21313 0.0
N1098 N 0.49074 0.1829 0.1885 0.0
C1099 C 0.52499 0.21282 0.19473 0.0
C1100 C 0.46012 0.15661 0.19749 0.0
C1101 C 0.4986 0.18971 0.21957 0.0
C1102 C 0.45606 0.20969 0.11955 0.0
N1103 N 0.49675 0.22782 0.12055 0.0
C1104 C 0.43771 0.22774 0.11184 0.0
C1105 C 0.46119 0.26499 0.10523 0.0
C1106 C 0.50253 0.284 0.10664 0.0
C1107 C 0.51973 0.26509 0.11451 0.0
C1108 C 0.60493 0.23763 0.09557 0.0
C1109 C 0.60611 0.25206 0.12599 0.0
C1110 C 0.56941 0.22235 0.10379 0.0
N1111 N 0.5703 0.22942 0.11889 0.0
C1112 C 0.6419 0.26864 0.11808 0.0
C1113 C 0.64131 0.26136 0.10277 0.0
C1114 C 0.56172 0.18472 0.15523 0.0
C1115 C 0.41839 0.05459 0.16058 0.0
C1116 C 0.4873 0.10795 0.17569 0.0
C1117 C 0.47431 0.06714 0.17628 0.0
C1118 C 0.43962 0.04035 0.16865 0.0
N1119 N 0.46629 0.12167 0.16776 0.0
C1120 C 0.43226 0.09559 0.16025 0.0
Co1121 Co 0.79352 0.31587 0.13203 0.0
Co1122 Co 0.81295 0.29955 0.16781 0.0
O1123 O 0.81993 0.29744 0.14583 0.0
C1124 C 0.86864 0.33155 0.11563 0.0
O1125 O 0.87629 0.31075 0.12535 0.0
C1126 C 0.80661 0.22182 0.16245 0.0
O1127 O 0.77836 0.2151 0.15273 0.0
O1128 O 0.75504 0.26185 0.16546 0.0
O1129 O 0.74403 0.28987 0.1451 0.0
H1130 H 0.74492 0.30559 0.21516 0.0
H1131 H 0.8139 0.25077 0.12606 0.0
O1132 O 0.84107 0.33987 0.11808 0.0
H1133 H 0.68697 0.20792 0.09972 0.0
H1134 H 0.77471 0.37646 0.08455 0.0
H1135 H 0.73787 0.34568 0.1378 0.0
H1136 H 0.71749 0.26898 0.11481 0.0
H1137 H 0.79648 0.33611 0.09883 0.0
O1138 O 0.82357 0.25432 0.16986 0.0
H1139 H 0.7549 0.30643 0.18775 0.0
H1140 H 0.85508 0.29075 0.19431 0.0
H1141 H 0.71292 0.38247 0.12358 0.0
H1142 H 0.78425 0.18938 0.11125 0.0
H1143 H 0.73188 0.39913 0.09687 0.0
H1144 H 0.72039 0.16744 0.09773 0.0
O1145 O 0.81798 0.36684 0.14318 0.0
H1146 H 0.95879 0.35129 0.15801 0.0
H1147 H 0.86098 0.37713 0.18382 0.0
H1148 H 0.93289 0.42596 0.18605 0.0
H1149 H 0.98236 0.41313 0.17311 0.0
H1150 H 0.88658 0.30339 0.15602 0.0
H1151 H 0.84603 0.28946 0.22181 0.0
H1152 H 0.79072 0.29709 0.2324 0.0
O1153 O 0.80116 0.3447 0.16647 0.0
C1154 C 0.7318 0.26525 0.15616 0.0
C1155 C 0.76924 0.30241 0.21069 0.0
C1156 C 0.82595 0.29331 0.21442 0.0
N1157 N 0.80582 0.29912 0.18943 0.0
C1158 C 0.77511 0.30299 0.19517 0.0
C1159 C 0.8309 0.29402 0.19884 0.0
C1160 C 0.79492 0.2976 0.22035 0.0
C1161 C 0.78695 0.24272 0.11998 0.0
N1162 N 0.76932 0.26581 0.12061 0.0
C1163 C 0.76984 0.20724 0.11171 0.0
C1164 C 0.73398 0.19486 0.10417 0.0
C1165 C 0.71533 0.2176 0.10524 0.0
C1166 C 0.73325 0.25277 0.11368 0.0
C1167 C 0.76574 0.3688 0.09614 0.0
C1168 C 0.7451 0.35091 0.126 0.0
C1169 C 0.77845 0.34641 0.10439 0.0
N1170 N 0.76861 0.33823 0.11926 0.0
C1171 C 0.73105 0.37233 0.118 0.0
C1172 C 0.74176 0.38162 0.10302 0.0
C1173 C 0.80847 0.3709 0.15641 0.0
C1174 C 0.93753 0.35721 0.16371 0.0
C1175 C 0.8823 0.37144 0.17809 0.0
C1176 C 0.92299 0.39914 0.17943 0.0
C1177 C 0.95073 0.39191 0.17218 0.0
N1178 N 0.8696 0.33744 0.16979 0.0
C1179 C 0.89661 0.33017 0.16264 0.0
Co1180 Co 0.6783 0.47306 0.1333 0.0
Co1181 Co 0.69339 0.50676 0.16946 0.0
O1182 O 0.69574 0.51692 0.14753 0.0
C1183 C 0.66368 0.53282 0.11682 0.0
O1184 O 0.68533 0.56145 0.12635 0.0
C1185 C 0.77149 0.57828 0.16481 0.0
O1186 O 0.77867 0.55696 0.15516 0.0
O1187 O 0.73131 0.48686 0.16695 0.0
O1188 O 0.70491 0.4497 0.14606 0.0
H1189 H 0.68718 0.43077 0.21628 0.0
H1190 H 0.74471 0.55919 0.12919 0.0
O1191 O 0.65366 0.49665 0.11969 0.0
H1192 H 0.78663 0.47887 0.09975 0.0
H1193 H 0.61831 0.39522 0.08537 0.0
H1194 H 0.65062 0.38779 0.13832 0.0
H1195 H 0.72533 0.4463 0.11461 0.0
H1196 H 0.65708 0.45692 0.10002 0.0
O1197 O 0.73844 0.56269 0.17188 0.0
H1198 H 0.68649 0.44105 0.18895 0.0
H1199 H 0.70149 0.55632 0.19631 0.0
H1200 H 0.61688 0.32699 0.12357 0.0
H1201 H 0.80632 0.59276 0.11464 0.0
H1202 H 0.59969 0.3297 0.09691 0.0
H1203 H 0.82784 0.55283 0.09954 0.0
O1204 O 0.62716 0.445 0.14434 0.0
H1205 H 0.64081 0.60048 0.16041 0.0
H1206 H 0.61554 0.47605 0.1854 0.0
H1207 H 0.56636 0.49865 0.18794 0.0
H1208 H 0.57892 0.56135 0.17542 0.0
H1209 H 0.68907 0.57664 0.15809 0.0
H1210 H 0.70262 0.54741 0.22375 0.0
H1211 H 0.69528 0.4842 0.2339 0.0
O1212 O 0.6486 0.44978 0.16774 0.0
C1213 C 0.72871 0.46117 0.15735 0.0
C1214 C 0.69024 0.45838 0.212 0.0
C1215 C 0.69895 0.52386 0.21619 0.0
N1216 N 0.69349 0.49905 0.19103 0.0
C1217 C 0.68974 0.46432 0.19653 0.0
C1218 C 0.69834 0.52875 0.20064 0.0
C1219 C 0.69482 0.48838 0.22188 0.0
C1220 C 0.75235 0.54109 0.12239 0.0
N1221 N 0.72869 0.5004 0.12199 0.0
C1222 C 0.78807 0.56054 0.11428 0.0
C1223 C 0.80022 0.53816 0.10586 0.0
C1224 C 0.77706 0.49674 0.10593 0.0
C1225 C 0.74165 0.47837 0.11424 0.0
C1226 C 0.62652 0.39371 0.09687 0.0
C1227 C 0.64539 0.39026 0.12656 0.0
C1228 C 0.64792 0.42856 0.10537 0.0
N1229 N 0.65674 0.42655 0.12014 0.0
C1230 C 0.62552 0.35521 0.11825 0.0
C1231 C 0.61585 0.3569 0.10333 0.0
C1232 C 0.62299 0.43094 0.15751 0.0
C1233 C 0.63503 0.57314 0.16593 0.0
C1234 C 0.62112 0.50326 0.17985 0.0
C1235 C 0.59321 0.51596 0.18137 0.0
C1236 C 0.60029 0.55116 0.17435 0.0
N1237 N 0.65518 0.52507 0.17163 0.0
C1238 C 0.66228 0.55953 0.16468 0.0
Co1239 Co 0.53863 0.18917 0.0341 0.0
Co1240 Co 0.52084 0.15486 0.99805 0.0
O1241 O 0.51275 0.14507 0.01997 0.0
C1242 C 0.46381 0.12914 0.05029 0.0
O1243 O 0.45696 0.10075 0.04066 0.0
C1244 C 0.52762 0.08359 0.00322 0.0
O1245 O 0.55599 0.10518 0.01288 0.0
O1246 O 0.57866 0.17513 0.00074 0.0
O1247 O 0.58879 0.21276 0.02144 0.0
H1248 H 0.59091 0.23022 0.95116 0.0
H1249 H 0.519 0.10328 0.03879 0.0
O1250 O 0.49022 0.16534 0.04763 0.0
H1251 H 0.64175 0.18501 0.06778 0.0
H1252 H 0.55553 0.26727 0.08188 0.0
H1253 H 0.59553 0.27452 0.02897 0.0
H1254 H 0.61264 0.21685 0.05268 0.0
H1255 H 0.53305 0.2055 0.06731 0.0
O1256 O 0.51037 0.09901 0.99591 0.0
H1257 H 0.57954 0.22045 0.9785 0.0
H1258 H 0.48012 0.1046 0.97127 0.0
H1259 H 0.62209 0.33542 0.04362 0.0
H1260 H 0.54741 0.0704 0.05359 0.0
H1261 H 0.6021 0.33282 0.07028 0.0
H1262 H 0.60911 0.11107 0.06846 0.0
O1263 O 0.51531 0.2167 0.02285 0.0
H1264 H 0.37456 0.06052 0.00683 0.0
H1265 H 0.47358 0.18487 0.98176 0.0
H1266 H 0.40177 0.1618 0.97899 0.0
H1267 H 0.3517 0.09914 0.99155 0.0
H1268 H 0.44668 0.08482 0.00937 0.0
H1269 H 0.49055 0.11299 0.94384 0.0
H1270 H 0.5462 0.17624 0.93362 0.0
O1271 O 0.5326 0.21178 0.99956 0.0
C1272 C 0.60146 0.20117 0.01028 0.0
C1273 C 0.56646 0.20259 0.95547 0.0
C1274 C 0.51017 0.13678 0.95137 0.0
N1275 N 0.52895 0.16218 0.97648 0.0
C1276 C 0.5598 0.19693 0.97095 0.0
C1277 C 0.50444 0.13218 0.96691 0.0
C1278 C 0.54139 0.17227 0.94564 0.0
C1279 C 0.5449 0.12168 0.04548 0.0
N1280 N 0.5619 0.16237 0.0456 0.0
C1281 C 0.56136 0.10264 0.05374 0.0
C1282 C 0.59602 0.12542 0.06203 0.0
C1283 C 0.61422 0.16684 0.06169 0.0
C1284 C 0.59699 0.18479 0.05324 0.0
C1285 C 0.56531 0.26876 0.07039 0.0
C1286 C 0.58776 0.27212 0.04072 0.0
C1287 C 0.55212 0.23387 0.06194 0.0
N1288 N 0.56304 0.23584 0.04718 0.0
C1289 C 0.60266 0.30721 0.04898 0.0
C1290 C 0.59125 0.30557 0.06389 0.0
C1291 C 0.52536 0.23059 0.00967 0.0
C1292 C 0.39609 0.08784 0.00129 0.0
C1293 C 0.45198 0.15769 0.98733 0.0
C1294 C 0.41136 0.14471 0.98568 0.0
C1295 C 0.38328 0.10954 0.99272 0.0
N1296 N 0.46429 0.13617 0.99571 0.0
C1297 C 0.43696 0.10172 0.00267 0.0
Co1298 Co 0.8108 0.3488 0.03557 0.0
Co1299 Co 0.84664 0.36489 0.99979 0.0
O1300 O 0.85575 0.3675 0.02179 0.0
C1301 C 0.87083 0.33458 0.05223 0.0
O1302 O 0.89931 0.35576 0.04257 0.0
C1303 C 0.91755 0.44317 0.00489 0.0
O1304 O 0.89592 0.44994 0.01455 0.0
O1305 O 0.82589 0.4022 0.002 0.0
O1306 O 0.7869 0.37414 0.02235 0.0
H1307 H 0.77216 0.35721 0.95237 0.0
H1308 H 0.89588 0.41515 0.04126 0.0
O1309 O 0.83479 0.32551 0.04965 0.0
H1310 H 0.81054 0.4562 0.06776 0.0
H1311 H 0.73113 0.28786 0.08298 0.0
H1312 H 0.72528 0.3181 0.02966 0.0
H1313 H 0.78068 0.39492 0.05282 0.0
H1314 H 0.7933 0.32862 0.06879 0.0
O1315 O 0.90227 0.41043 0.99766 0.0
H1316 H 0.78141 0.35699 0.9798 0.0
H1317 H 0.89769 0.37368 0.97332 0.0
H1318 H 0.66349 0.28096 0.0438 0.0
H1319 H 0.9269 0.47682 0.05589 0.0
H1320 H 0.66567 0.26458 0.07055 0.0
H1321 H 0.88436 0.49787 0.06949 0.0
O1322 O 0.78493 0.29765 0.02452 0.0
H1323 H 0.94181 0.31464 0.00994 0.0
H1324 H 0.81788 0.28717 0.98396 0.0
H1325 H 0.84168 0.23886 0.98193 0.0
H1326 H 0.90413 0.25251 0.99495 0.0
H1327 H 0.91679 0.36202 0.01175 0.0
H1328 H 0.88981 0.37437 0.94581 0.0
H1329 H 0.82661 0.36591 0.93517 0.0
O1330 O 0.78994 0.31939 0.0012 0.0
C1331 C 0.79915 0.39867 0.01127 0.0
C1332 C 0.79978 0.36074 0.95687 0.0
C1333 C 0.86582 0.37042 0.95319 0.0
N1334 N 0.83986 0.36484 0.97816 0.0
C1335 C 0.80514 0.36052 0.9724 0.0
C1336 C 0.87013 0.37006 0.96878 0.0
C1337 C 0.83035 0.36567 0.94722 0.0
C1338 C 0.87672 0.4228 0.04737 0.0
N1339 N 0.83606 0.39906 0.04689 0.0
C1340 C 0.89469 0.45845 0.05554 0.0
C1341 C 0.87085 0.47032 0.06313 0.0
C1342 C 0.8295 0.44692 0.0622 0.0
C1343 C 0.81265 0.41161 0.05386 0.0
C1344 C 0.72986 0.29542 0.07138 0.0
C1345 C 0.72723 0.31301 0.04147 0.0
C1346 C 0.765 0.31804 0.06317 0.0
N1347 N 0.76342 0.32609 0.04828 0.0
C1348 C 0.69174 0.29139 0.04943 0.0
C1349 C 0.69309 0.28225 0.06443 0.0
C1350 C 0.77132 0.29323 0.01129 0.0
C1351 C 0.91458 0.30837 0.00421 0.0
C1352 C 0.84496 0.29323 0.98973 0.0
C1353 C 0.85836 0.26581 0.9885 0.0
C1354 C 0.89341 0.2735 0.9958 0.0
N1355 N 0.86594 0.32739 0.99797 0.0
C1356 C 0.90029 0.33511 0.00517 0.0
Co1357 Co 0.65042 0.45912 0.03569 0.0
Co1358 Co 0.63737 0.48289 1.00013 0.0
O1359 O 0.6332 0.48716 0.02217 0.0
C1360 C 0.66463 0.53233 0.05321 0.0
O1361 O 0.64552 0.54167 0.0433 0.0
C1362 C 0.55878 0.47505 0.00491 0.0
O1363 O 0.55171 0.44602 0.0143 0.0
O1364 O 0.59983 0.42461 0.0014 0.0
O1365 O 0.62637 0.41155 0.02168 0.0
H1366 H 0.6488 0.42135 0.9519 0.0
H1367 H 0.58528 0.47922 0.04186 0.0
O1368 O 0.6725 0.50452 0.05062 0.0
H1369 H 0.53816 0.34732 0.06478 0.0
H1370 H 0.70287 0.43104 0.0835 0.0
H1371 H 0.68223 0.40558 0.02919 0.0
H1372 H 0.60127 0.3804 0.05084 0.0
H1373 H 0.666 0.4566 0.06908 0.0
O1374 O 0.59192 0.49318 0.99793 0.0
H1375 H 0.64666 0.42766 0.97942 0.0
H1376 H 0.63081 0.52811 0.97422 0.0
H1377 H 0.71567 0.37705 0.04339 0.0
H1378 H 0.52192 0.44717 0.0555 0.0
H1379 H 0.72633 0.38919 0.07076 0.0
H1380 H 0.49781 0.38075 0.06729 0.0
O1381 O 0.7026 0.48527 0.02528 0.0
H1382 H 0.68672 0.62707 0.0123 0.0
H1383 H 0.71649 0.5334 0.98539 0.0
H1384 H 0.76505 0.60562 0.98456 0.0
H1385 H 0.75024 0.65301 0.99806 0.0
H1386 H 0.63913 0.55461 0.0129 0.0
H1387 H 0.63249 0.52272 0.94661 0.0
H1388 H 0.64174 0.46914 0.93528 0.0
O1389 O 0.68275 0.47144 0.00162 0.0
C1390 C 0.60284 0.40045 0.01032 0.0
C1391 C 0.64495 0.44494 0.9567 0.0
C1392 C 0.63574 0.5018 0.95373 0.0
N1393 N 0.63912 0.47852 0.97843 0.0
C1394 C 0.64384 0.44874 0.97229 0.0
C1395 C 0.63477 0.50467 0.96937 0.0
C1396 C 0.64093 0.47173 0.94738 0.0
C1397 C 0.57619 0.45107 0.0472 0.0
N1398 N 0.59909 0.43328 0.04628 0.0
C1399 C 0.53965 0.43266 0.05481 0.0
C1400 C 0.52607 0.39538 0.06137 0.0
C1401 C 0.54874 0.37671 0.06002 0.0
C1402 C 0.58499 0.39598 0.05226 0.0
C1403 C 0.69738 0.42447 0.07165 0.0
C1404 C 0.68537 0.41044 0.04117 0.0
C1405 C 0.677 0.4394 0.06334 0.0
N1406 N 0.67144 0.43254 0.0482 0.0
C1407 C 0.70483 0.39428 0.04919 0.0
C1408 C 0.71087 0.40133 0.06453 0.0
C1409 C 0.70799 0.47754 0.01193 0.0
C1410 C 0.69351 0.60673 0.00636 0.0
C1411 C 0.70993 0.55381 0.99136 0.0
C1412 C 0.73749 0.59468 0.99081 0.0
C1413 C 0.72915 0.62126 0.99838 0.0
N1414 N 0.67501 0.5398 0.9992 0.0
C1415 C 0.66664 0.56567 0.00665 0.0
Co1416 Co 0.51184 0.81254 0.8325 0.0
Co1417 Co 0.47627 0.7923 0.86832 0.0
O1418 O 0.521 0.81892 0.85448 0.0
C1419 C 0.58277 0.80517 0.83758 0.0
O1420 O 0.561 0.77663 0.84716 0.0
C1421 C 0.53601 0.86664 0.88498 0.0
O1422 O 0.56437 0.87441 0.8752 0.0
O1423 O 0.4498 0.81721 0.85739 0.0
O1424 O 0.45501 0.80112 0.83397 0.0
H1425 H 0.32928 0.71052 0.87685 0.0
H1426 H 0.58198 0.88552 0.84445 0.0
O1427 O 0.56757 0.82276 0.83034 0.0
H1428 H 0.50625 0.93354 0.81495 0.0
H1429 H 0.55504 0.84701 0.77856 0.0
H1430 H 0.44671 0.75541 0.81244 0.0
H1431 H 0.48271 0.86147 0.81686 0.0
H1432 H 0.56286 0.85519 0.80608 0.0
O1433 O 0.50003 0.83942 0.88247 0.0
H1434 H 0.39085 0.73715 0.8625 0.0
H1435 H 0.45897 0.79445 0.90161 0.0
H1436 H 0.43752 0.74631 0.785 0.0
H1437 H 0.60674 0.95787 0.84277 0.0
H1438 H 0.49193 0.79235 0.76785 0.0
H1439 H 0.56874 0.9823 0.82794 0.0
O1440 O 0.49122 0.75448 0.83459 0.0
H1441 H 0.59347 0.78163 0.88829 0.0
H1442 H 0.44714 0.71597 0.88536 0.0
H1443 H 0.47772 0.68478 0.90008 0.0
H1444 H 0.5516 0.71764 0.90174 0.0
H1445 H 0.56173 0.81197 0.87389 0.0
H1446 H 0.39684 0.7713 0.91603 0.0
H1447 H 0.33137 0.72751 0.90379 0.0
O1448 O 0.45256 0.74323 0.85507 0.0
C1449 C 0.43617 0.80811 0.84415 0.0
C1450 C 0.35747 0.72876 0.88243 0.0
C1451 C 0.39555 0.76282 0.90438 0.0
N1452 N 0.42905 0.76715 0.88111 0.0
C1453 C 0.39288 0.74377 0.87435 0.0
C1454 C 0.43068 0.77639 0.89604 0.0
C1455 C 0.35881 0.73848 0.89753 0.0
C1456 C 0.56535 0.89593 0.83795 0.0
N1457 N 0.53096 0.86931 0.83076 0.0
C1458 C 0.57948 0.93692 0.83705 0.0
C1459 C 0.55813 0.95061 0.82873 0.0
C1460 C 0.52306 0.92327 0.82145 0.0
C1461 C 0.50981 0.88249 0.82261 0.0
C1462 C 0.53106 0.82684 0.78591 0.0
C1463 C 0.47041 0.77573 0.80506 0.0
C1464 C 0.53533 0.83129 0.80151 0.0
N1465 N 0.50508 0.80608 0.81086 0.0
C1466 C 0.46509 0.77036 0.78953 0.0
C1467 C 0.49565 0.79617 0.77991 0.0
C1468 C 0.46457 0.73114 0.84386 0.0
C1469 C 0.56122 0.76747 0.88798 0.0
C1470 C 0.47911 0.7315 0.88637 0.0
C1471 C 0.49638 0.7132 0.89459 0.0
C1472 C 0.53777 0.73154 0.89548 0.0
N1473 N 0.50213 0.76764 0.87949 0.0
C1474 C 0.54283 0.78496 0.87994 0.0
Co1475 Co 0.20522 0.68041 0.86857 0.0
Co1476 Co 0.18465 0.69521 0.83272 0.0
O1477 O 0.17844 0.69832 0.85471 0.0
C1478 C 0.13114 0.66613 0.88538 0.0
O1479 O 0.12335 0.68678 0.87563 0.0
C1480 C 0.19196 0.77354 0.83759 0.0
O1481 O 0.22057 0.78049 0.84717 0.0
O1482 O 0.24272 0.73271 0.83472 0.0
O1483 O 0.25422 0.70567 0.85525 0.0
H1484 H 0.25069 0.68657 0.78524 0.0
H1485 H 0.18572 0.74641 0.87394 0.0
O1486 O 0.15819 0.65717 0.88278 0.0
H1487 H 0.31275 0.78953 0.90023 0.0
H1488 H 0.22642 0.6223 0.91633 0.0
H1489 H 0.26044 0.65018 0.86276 0.0
H1490 H 0.28158 0.7277 0.8856 0.0
H1491 H 0.20329 0.66128 0.9019 0.0
O1492 O 0.17433 0.74062 0.83046 0.0
H1493 H 0.24171 0.68698 0.81267 0.0
H1494 H 0.14178 0.70316 0.80629 0.0
H1495 H 0.28703 0.61522 0.87713 0.0
H1496 H 0.21606 0.80856 0.88826 0.0
H1497 H 0.27002 0.60039 0.90407 0.0
H1498 H 0.27997 0.83066 0.90176 0.0
O1499 O 0.18026 0.62893 0.85775 0.0
H1500 H 0.03933 0.64477 0.84316 0.0
H1501 H 0.13569 0.617 0.81723 0.0
H1502 H 0.0636 0.56843 0.81543 0.0
H1503 H 0.01487 0.58224 0.82843 0.0
H1504 H 0.1117 0.6924 0.84474 0.0
H1505 H 0.14984 0.70321 0.77877 0.0
H1506 H 0.20452 0.6947 0.76807 0.0
O1507 O 0.19617 0.64989 0.83428 0.0
C1508 C 0.26618 0.72961 0.84399 0.0
C1509 C 0.22664 0.69013 0.78976 0.0
C1510 C 0.17007 0.69952 0.78613 0.0
N1511 N 0.19098 0.69461 0.81109 0.0
C1512 C 0.22133 0.69026 0.80529 0.0
C1513 C 0.16569 0.69951 0.80172 0.0
C1514 C 0.20075 0.69474 0.78013 0.0
C1515 C 0.21268 0.7545 0.88002 0.0
N1516 N 0.22993 0.73104 0.87966 0.0
C1517 C 0.23018 0.79043 0.88801 0.0
C1518 C 0.26606 0.80289 0.89554 0.0
C1519 C 0.28436 0.77978 0.89473 0.0
C1520 C 0.26606 0.74417 0.88656 0.0
C1521 C 0.23486 0.62942 0.90467 0.0
C1522 C 0.25387 0.64568 0.87462 0.0
C1523 C 0.22132 0.65099 0.89632 0.0
N1524 N 0.2305 0.65851 0.88138 0.0
C1525 C 0.26885 0.62525 0.88271 0.0
C1526 C 0.25912 0.61691 0.89781 0.0
C1527 C 0.18924 0.62421 0.84451 0.0
C1528 C 0.06027 0.63843 0.83743 0.0
C1529 C 0.11468 0.62312 0.82299 0.0
C1530 C 0.07389 0.59556 0.82189 0.0
C1531 C 0.04656 0.60334 0.82918 0.0
N1532 N 0.12787 0.65751 0.83108 0.0
C1533 C 0.10127 0.66532 0.83827 0.0
Co1534 Co 0.3175 0.52138 0.86877 0.0
Co1535 Co 0.30177 0.48529 0.83303 0.0
O1536 O 0.29934 0.47645 0.85504 0.0
C1537 C 0.33242 0.46208 0.88562 0.0
O1538 O 0.31154 0.43342 0.876 0.0
C1539 C 0.22365 0.41423 0.83826 0.0
O1540 O 0.21683 0.43598 0.84784 0.0
O1541 O 0.26418 0.50574 0.83513 0.0
O1542 O 0.29172 0.5447 0.85552 0.0
H1543 H 0.30879 0.55883 0.78541 0.0
H1544 H 0.25177 0.43594 0.87446 0.0
O1545 O 0.34129 0.49801 0.88292 0.0
H1546 H 0.20903 0.52004 0.90084 0.0
H1547 H 0.37668 0.60166 0.91624 0.0
H1548 H 0.34724 0.60662 0.86277 0.0
H1549 H 0.27047 0.55056 0.88595 0.0
H1550 H 0.3376 0.53927 0.90201 0.0
O1551 O 0.2564 0.42947 0.83101 0.0
H1552 H 0.30925 0.55006 0.81285 0.0
H1553 H 0.29318 0.43397 0.8067 0.0
H1554 H 0.38211 0.6684 0.87696 0.0
H1555 H 0.19002 0.40428 0.88905 0.0
H1556 H 0.39769 0.66683 0.90387 0.0
H1557 H 0.16812 0.44618 0.90259 0.0
O1558 O 0.36868 0.54782 0.85772 0.0
H1559 H 0.35298 0.39099 0.84338 0.0
H1560 H 0.37958 0.51441 0.8172 0.0
H1561 H 0.42827 0.49106 0.81523 0.0
H1562 H 0.41505 0.42887 0.82835 0.0
H1563 H 0.30521 0.41556 0.84512 0.0
H1564 H 0.29228 0.44136 0.77916 0.0
H1565 H 0.30029 0.50423 0.76835 0.0
O1566 O 0.34701 0.54219 0.83434 0.0
C1567 C 0.26748 0.53246 0.84435 0.0
C1568 C 0.30545 0.53136 0.78998 0.0
C1569 C 0.29613 0.46542 0.78648 0.0
N1570 N 0.30171 0.49174 0.81138 0.0
C1571 C 0.30581 0.52627 0.80552 0.0
C1572 C 0.29662 0.46139 0.80208 0.0
C1573 C 0.30063 0.5007 0.78041 0.0
C1574 C 0.2438 0.45487 0.88056 0.0
N1575 N 0.26716 0.49556 0.88007 0.0
C1576 C 0.20808 0.43652 0.8887 0.0
C1577 C 0.19572 0.46 0.89625 0.0
C1578 C 0.21871 0.50137 0.89532 0.0
C1579 C 0.25411 0.5186 0.887 0.0
C1580 C 0.36919 0.60271 0.9046 0.0
C1581 C 0.35207 0.6048 0.87461 0.0
C1582 C 0.34758 0.56744 0.89636 0.0
N1583 N 0.33961 0.56878 0.88145 0.0
C1584 C 0.37246 0.64034 0.8826 0.0
C1585 C 0.38122 0.6393 0.89768 0.0
C1586 C 0.37296 0.56122 0.84445 0.0
C1587 C 0.35906 0.41811 0.8376 0.0
C1588 C 0.37372 0.48744 0.82301 0.0
C1589 C 0.40134 0.4743 0.82181 0.0
C1590 C 0.3939 0.43939 0.82917 0.0
N1591 N 0.33957 0.46634 0.83127 0.0
C1592 C 0.33209 0.43214 0.83853 0.0
Co1593 Co 0.46196 0.80908 0.96533 0.0
Co1594 Co 0.48255 0.84535 0.00104 0.0
O1595 O 0.48892 0.85405 0.97903 0.0
C1596 C 0.53629 0.86808 0.94847 0.0
O1597 O 0.54428 0.89674 0.95813 0.0
C1598 C 0.47583 0.91657 0.9957 0.0
O1599 O 0.4472 0.89479 0.98616 0.0
O1600 O 0.42457 0.82513 0.99896 0.0
O1601 O 0.41293 0.78599 0.97862 0.0
H1602 H 0.41605 0.77223 0.04873 0.0
H1603 H 0.48213 0.8946 0.95952 0.0
O1604 O 0.50905 0.83222 0.95115 0.0
H1605 H 0.35486 0.8108 0.93339 0.0
H1606 H 0.44017 0.72857 0.91787 0.0
H1607 H 0.40627 0.72391 0.97139 0.0
H1608 H 0.38566 0.78013 0.94827 0.0
H1609 H 0.46389 0.79103 0.9321 0.0
O1610 O 0.49323 0.90128 0.003 0.0
H1611 H 0.4252 0.78081 0.02128 0.0
H1612 H 0.52547 0.89676 0.02732 0.0
H1613 H 0.37899 0.66208 0.95721 0.0
H1614 H 0.45218 0.92643 0.94494 0.0
H1615 H 0.39586 0.66349 0.93027 0.0
H1616 H 0.38815 0.88466 0.93152 0.0
O1617 O 0.48655 0.78249 0.97638 0.0
H1618 H 0.6281 0.93913 0.99062 0.0
H1619 H 0.53103 0.81599 0.01687 0.0
H1620 H 0.60301 0.83905 0.01882 0.0
H1621 H 0.6521 0.90109 0.00566 0.0
H1622 H 0.55583 0.91485 0.98891 0.0
H1623 H 0.51726 0.88955 0.05487 0.0
H1624 H 0.46232 0.82685 0.06574 0.0
O1625 O 0.47066 0.78834 0.99977 0.0
C1626 C 0.40105 0.79838 0.98977 0.0
C1627 C 0.44021 0.79962 0.04413 0.0
C1628 C 0.49698 0.86549 0.04758 0.0
N1629 N 0.4761 0.83905 0.0227 0.0
C1630 C 0.44561 0.8046 0.02859 0.0
C1631 C 0.50145 0.86941 0.03197 0.0
C1632 C 0.46615 0.8303 0.05367 0.0
C1633 C 0.45512 0.87573 0.95347 0.0
N1634 N 0.43758 0.83503 0.95403 0.0
C1635 C 0.43784 0.89418 0.94534 0.0
C1636 C 0.40188 0.87078 0.93786 0.0
C1637 C 0.3833 0.8294 0.93886 0.0
C1638 C 0.40139 0.81208 0.94717 0.0
C1639 C 0.43175 0.72759 0.92952 0.0
C1640 C 0.41283 0.72567 0.95954 0.0
C1641 C 0.44564 0.7629 0.93775 0.0
N1642 N 0.43647 0.76164 0.95268 0.0
C1643 C 0.39746 0.6901 0.95155 0.0
C1644 C 0.40711 0.69105 0.93646 0.0
C1645 C 0.47741 0.76916 0.98967 0.0
C1646 C 0.60701 0.91207 0.99642 0.0
C1647 C 0.55219 0.84289 0.01105 0.0
C1648 C 0.59292 0.85587 0.01223 0.0
C1649 C 0.62045 0.8907 0.00485 0.0
N1650 N 0.53925 0.86407 0.00278 0.0
C1651 C 0.56605 0.8982 0.9955 0.0
Co1652 Co 0.19065 0.65113 0.96565 0.0
Co1653 Co 0.1554 0.63656 0.00151 0.0
O1654 O 0.14604 0.63349 0.97953 0.0
C1655 C 0.1311 0.66587 0.94888 0.0
O1656 O 0.10266 0.64537 0.95864 0.0
C1657 C 0.08419 0.55848 0.99664 0.0
O1658 O 0.10576 0.55144 0.98705 0.0
O1659 O 0.17569 0.59882 0.99951 0.0
O1660 O 0.21418 0.62565 0.97895 0.0
H1661 H 0.22997 0.64475 0.04897 0.0
H1662 H 0.10501 0.58551 0.96029 0.0
O1663 O 0.16705 0.67459 0.95145 0.0
H1664 H 0.18831 0.54161 0.93399 0.0
H1665 H 0.26995 0.70874 0.91785 0.0
H1666 H 0.276 0.68097 0.97143 0.0
H1667 H 0.21928 0.60346 0.94862 0.0
H1668 H 0.20783 0.67012 0.93231 0.0
O1669 O 0.0996 0.59137 0.00379 0.0
H1670 H 0.22058 0.64444 0.02154 0.0
H1671 H 0.10473 0.6289 0.02796 0.0
H1672 H 0.33753 0.71555 0.95704 0.0
H1673 H 0.07288 0.52336 0.94597 0.0
H1674 H 0.3354 0.73031 0.93009 0.0
H1675 H 0.11438 0.50087 0.93247 0.0
O1676 O 0.21741 0.70262 0.97646 0.0
H1677 H 0.06105 0.68771 0.99113 0.0
H1678 H 0.18502 0.71484 0.017 0.0
H1679 H 0.16184 0.76369 0.01883 0.0
H1680 H 0.09938 0.7502 0.00586 0.0
H1681 H 0.08545 0.63979 0.98953 0.0
H1682 H 0.11275 0.62877 0.05549 0.0
H1683 H 0.17581 0.6369 0.06616 0.0
O1684 O 0.21229 0.68166 0.99993 0.0
C1685 C 0.20214 0.60173 0.99022 0.0
C1686 C 0.20242 0.64136 0.04446 0.0
C1687 C 0.13662 0.63234 0.04812 0.0
N1688 N 0.16235 0.63713 0.02315 0.0
C1689 C 0.19699 0.64129 0.02893 0.0
C1690 C 0.13224 0.63239 0.03252 0.0
C1691 C 0.17201 0.63691 0.0541 0.0
C1692 C 0.12375 0.57726 0.95421 0.0
N1693 N 0.16447 0.6005 0.95457 0.0
C1694 C 0.10514 0.54132 0.94622 0.0
C1695 C 0.12839 0.52864 0.93869 0.0
C1696 C 0.1698 0.55153 0.9395 0.0
C1697 C 0.18729 0.58715 0.94766 0.0
C1698 C 0.27124 0.70163 0.92952 0.0
C1699 C 0.27395 0.68545 0.95957 0.0
C1700 C 0.23613 0.68027 0.93788 0.0
N1701 N 0.23777 0.67278 0.95282 0.0
C1702 C 0.30934 0.70566 0.95147 0.0
C1703 C 0.30798 0.71395 0.93636 0.0
C1704 C 0.23111 0.7073 0.9897 0.0
C1705 C 0.08829 0.69391 0.99684 0.0
C1706 C 0.15793 0.70886 0.01126 0.0
C1707 C 0.14489 0.73657 0.01237 0.0
C1708 C 0.10983 0.72898 0.0051 0.0
N1709 N 0.13659 0.67449 0.00317 0.0
C1710 C 0.10223 0.66686 0.99599 0.0
Co1711 Co 0.36402 0.51772 0.00164 0.0
Co1712 Co 0.34881 0.53812 0.96582 0.0
O1713 O 0.36679 0.51134 0.97964 0.0
C1714 C 0.44227 0.52491 0.99658 0.0
O1715 O 0.44905 0.55341 0.98697 0.0
C1716 C 0.33389 0.46368 0.94913 0.0
O1717 O 0.35443 0.45579 0.95889 0.0
O1718 O 0.29745 0.51339 0.97675 0.0
O1719 O 0.31875 0.52933 1.00018 0.0
H1720 H 0.28407 0.62036 0.95733 0.0
H1721 H 0.36099 0.44465 0.98967 0.0
O1722 O 0.40944 0.50733 0.00379 0.0
H1723 H 0.23726 0.39691 0.01916 0.0
H1724 H 0.37254 0.48303 0.05556 0.0
H1725 H 0.35625 0.57498 0.02171 0.0
H1726 H 0.28593 0.46894 0.01726 0.0
H1727 H 0.37219 0.4749 0.02804 0.0
O1728 O 0.32529 0.49101 0.95166 0.0
H1729 H 0.31882 0.59349 0.97166 0.0
H1730 H 0.32943 0.53612 0.93252 0.0
H1731 H 0.35614 0.58403 0.04915 0.0
H1732 H 0.31327 0.37234 0.99133 0.0
H1733 H 0.36429 0.53782 0.06629 0.0
H1734 H 0.25085 0.34805 0.00616 0.0
O1735 O 0.40158 0.57576 0.99956 0.0
H1736 H 0.4764 0.54817 0.9458 0.0
H1737 H 0.39625 0.61442 0.94879 0.0
H1738 H 0.45799 0.64538 0.93406 0.0
H1739 H 0.49875 0.61222 0.93237 0.0
H1740 H 0.41435 0.51807 0.96023 0.0
H1741 H 0.29066 0.55953 0.91812 0.0
H1742 H 0.26919 0.60348 0.93038 0.0
O1743 O 0.37433 0.58718 0.97907 0.0
C1744 C 0.29297 0.52249 0.99 0.0
C1745 C 0.29394 0.60206 0.95173 0.0
C1746 C 0.29785 0.56797 0.92977 0.0
N1747 N 0.32691 0.56344 0.95304 0.0
C1748 C 0.31423 0.58692 0.95981 0.0
C1749 C 0.3193 0.55426 0.93811 0.0
C1750 C 0.28556 0.5924 0.93663 0.0
C1751 C 0.33396 0.4343 0.99617 0.0
N1752 N 0.32627 0.46098 0.00336 0.0
C1753 C 0.30702 0.39333 0.99706 0.0
C1754 C 0.272 0.37972 0.00537 0.0
C1755 C 0.26434 0.40712 0.01266 0.0
C1756 C 0.29195 0.44788 0.01151 0.0
C1757 C 0.36883 0.50328 0.04822 0.0
C1758 C 0.35954 0.55458 0.02908 0.0
C1759 C 0.36866 0.49886 0.03262 0.0
N1760 N 0.36373 0.52416 0.02327 0.0
C1761 C 0.35958 0.55993 0.04462 0.0
C1762 C 0.3642 0.53402 0.05423 0.0
C1763 C 0.39839 0.59918 0.99029 0.0
C1764 C 0.45842 0.56246 0.94613 0.0
C1765 C 0.41258 0.59877 0.94776 0.0
C1766 C 0.44813 0.61694 0.93954 0.0
C1767 C 0.47103 0.59843 0.93864 0.0
N1768 N 0.39932 0.56259 0.95464 0.0
C1769 C 0.42256 0.5451 0.95418 0.0
Co1770 Co 0.18872 0.53823 0.46564 0.0
Co1771 Co 0.15314 0.51783 0.50146 0.0
O1772 O 0.14397 0.51164 0.47947 0.0
C1773 C 0.12876 0.4642 0.44893 0.0
O1774 O 0.10042 0.45658 0.4587 0.0
C1775 C 0.08231 0.52541 0.49643 0.0
O1776 O 0.10417 0.5541 0.48691 0.0
O1777 O 0.17387 0.57591 0.49942 0.0
O1778 O 0.2125 0.58723 0.47893 0.0
H1779 H 0.22751 0.58365 0.549 0.0
H1780 H 0.10335 0.51913 0.46024 0.0
O1781 O 0.16481 0.49116 0.45148 0.0
H1782 H 0.18763 0.64584 0.4338 0.0
H1783 H 0.26828 0.5589 0.41797 0.0
H1784 H 0.27416 0.59334 0.47147 0.0
H1785 H 0.21808 0.61448 0.44848 0.0
H1786 H 0.2061 0.53597 0.43234 0.0
O1787 O 0.09744 0.5077 0.50363 0.0
H1788 H 0.21833 0.57472 0.52155 0.0
H1789 H 0.10205 0.4751 0.52785 0.0
H1790 H 0.33575 0.61979 0.45714 0.0
H1791 H 0.07176 0.5497 0.44589 0.0
H1792 H 0.3337 0.60257 0.43023 0.0
H1793 H 0.11376 0.61344 0.43232 0.0
O1794 O 0.21504 0.51313 0.47653 0.0
H1795 H 0.05803 0.37262 0.49107 0.0
H1796 H 0.1821 0.46868 0.51703 0.0
H1797 H 0.15842 0.39657 0.51888 0.0
H1798 H 0.09591 0.34798 0.50586 0.0
H1799 H 0.08293 0.445 0.48945 0.0
H1800 H 0.10985 0.48311 0.55538 0.0
H1801 H 0.17302 0.53761 0.56612 0.0
O1802 O 0.20992 0.52915 0.49997 0.0
C1803 C 0.20049 0.59928 0.49015 0.0
C1804 C 0.19991 0.55968 0.54446 0.0
C1805 C 0.13386 0.50329 0.54804 0.0
N1806 N 0.15989 0.52414 0.5231 0.0
C1807 C 0.19459 0.5544 0.52892 0.0
C1808 C 0.1296 0.49893 0.53244 0.0
C1809 C 0.16931 0.53387 0.55406 0.0
C1810 C 0.1223 0.54603 0.45414 0.0
N1811 N 0.16299 0.56308 0.45449 0.0
C1812 C 0.104 0.56366 0.44613 0.0
C1813 C 0.12753 0.59945 0.43856 0.0
C1814 C 0.16891 0.61753 0.43935 0.0
C1815 C 0.18609 0.59911 0.44754 0.0
C1816 C 0.26952 0.56743 0.42961 0.0
C1817 C 0.27214 0.58669 0.45962 0.0
C1818 C 0.23438 0.554 0.43793 0.0
N1819 N 0.23597 0.56331 0.45286 0.0
C1820 C 0.30757 0.60158 0.45155 0.0
C1821 C 0.30626 0.59173 0.43647 0.0
C1822 C 0.22869 0.52213 0.48977 0.0
C1823 C 0.0853 0.39349 0.4968 0.0
C1824 C 0.15499 0.44774 0.51127 0.0
C1825 C 0.14166 0.40694 0.51239 0.0
C1826 C 0.10657 0.37969 0.50509 0.0
N1827 N 0.13391 0.46103 0.50314 0.0
C1828 C 0.09951 0.43451 0.49594 0.0
Co1829 Co 0.45989 0.64982 0.46556 0.0
Co1830 Co 0.48005 0.6341 0.50135 0.0
O1831 O 0.48652 0.6316 0.47935 0.0
C1832 C 0.53417 0.66455 0.4488 0.0
O1833 O 0.54191 0.64374 0.45849 0.0
C1834 C 0.47274 0.5559 0.49613 0.0
O1835 O 0.44422 0.54925 0.48656 0.0
O1836 O 0.422 0.5967 0.49924 0.0
O1837 O 0.41074 0.62422 0.4788 0.0
H1838 H 0.41357 0.64153 0.54891 0.0
H1839 H 0.47959 0.58406 0.45991 0.0
O1840 O 0.50709 0.67345 0.45144 0.0
H1841 H 0.3527 0.54137 0.43358 0.0
H1842 H 0.4391 0.70882 0.41798 0.0
H1843 H 0.40459 0.6799 0.47147 0.0
H1844 H 0.38366 0.60284 0.44844 0.0
H1845 H 0.46219 0.66968 0.43231 0.0
O1846 O 0.4903 0.5886 0.50341 0.0
H1847 H 0.42285 0.6419 0.52147 0.0
H1848 H 0.52258 0.62533 0.52772 0.0
H1849 H 0.37794 0.71493 0.45719 0.0
H1850 H 0.44948 0.5223 0.44535 0.0
H1851 H 0.39514 0.73025 0.43028 0.0
H1852 H 0.38564 0.50043 0.43183 0.0
O1853 O 0.48466 0.70103 0.47658 0.0
H1854 H 0.62548 0.68471 0.49108 0.0
H1855 H 0.52887 0.71188 0.51713 0.0
H1856 H 0.60095 0.76036 0.51911 0.0
H1857 H 0.64981 0.74685 0.50605 0.0
H1858 H 0.55313 0.63717 0.48933 0.0
H1859 H 0.51423 0.62451 0.55525 0.0
H1860 H 0.45949 0.63282 0.56601 0.0
O1861 O 0.46858 0.67948 0.49998 0.0
C1862 C 0.39865 0.60006 0.48999 0.0
C1863 C 0.43764 0.63806 0.54436 0.0
C1864 C 0.4941 0.62846 0.54792 0.0
N1865 N 0.4735 0.63411 0.52299 0.0
C1866 C 0.44312 0.63837 0.52883 0.0
C1867 C 0.49865 0.6289 0.53232 0.0
C1868 C 0.46339 0.63312 0.55395 0.0
C1869 C 0.45268 0.57609 0.45382 0.0
N1870 N 0.43534 0.59947 0.45431 0.0
C1871 C 0.4353 0.54038 0.44569 0.0
C1872 C 0.39945 0.52804 0.43816 0.0
C1873 C 0.38106 0.55104 0.43909 0.0
C1874 C 0.39925 0.58644 0.44739 0.0
C1875 C 0.43054 0.70146 0.42962 0.0
C1876 C 0.41126 0.68463 0.45963 0.0
C1877 C 0.44407 0.67981 0.43791 0.0
N1878 N 0.43474 0.67199 0.45283 0.0
C1879 C 0.39626 0.7051 0.45158 0.0
C1880 C 0.40609 0.71372 0.4365 0.0
C1881 C 0.47556 0.7054 0.48984 0.0
C1882 C 0.60449 0.69092 0.49683 0.0
C1883 C 0.54994 0.7059 0.51135 0.0
C1884 C 0.59072 0.7334 0.51255 0.0
C1885 C 0.61812 0.72579 0.50522 0.0
N1886 N 0.53682 0.67172 0.50312 0.0
C1887 C 0.56349 0.66408 0.49589 0.0
Co1888 Co 0.34826 0.8092 0.46575 0.0
Co1889 Co 0.36337 0.84468 0.50158 0.0
O1890 O 0.36632 0.8539 0.47958 0.0
C1891 C 0.33417 0.86907 0.44891 0.0
O1892 O 0.35497 0.89752 0.45862 0.0
C1893 C 0.44177 0.91545 0.49658 0.0
O1894 O 0.4486 0.89362 0.48705 0.0
O1895 O 0.40074 0.82393 0.49954 0.0
O1896 O 0.37349 0.78539 0.47904 0.0
H1897 H 0.35483 0.77018 0.5491 0.0
H1898 H 0.41449 0.89458 0.46037 0.0
O1899 O 0.32503 0.83304 0.45156 0.0
H1900 H 0.45715 0.81043 0.43398 0.0
H1901 H 0.28986 0.72992 0.41805 0.0
H1902 H 0.31788 0.72377 0.47159 0.0
H1903 H 0.39533 0.77994 0.44864 0.0
H1904 H 0.329 0.79199 0.43244 0.0
O1905 O 0.4089 0.90034 0.50375 0.0
H1906 H 0.35513 0.77945 0.52166 0.0
H1907 H 0.37165 0.89567 0.52797 0.0
H1908 H 0.28282 0.66224 0.45725 0.0
H1909 H 0.47664 0.92622 0.44603 0.0
H1910 H 0.26794 0.66444 0.43031 0.0
H1911 H 0.49851 0.88429 0.43247 0.0
O1912 O 0.29682 0.7828 0.47664 0.0
H1913 H 0.31317 0.93978 0.49116 0.0
H1914 H 0.28528 0.81574 0.51716 0.0
H1915 H 0.23683 0.83943 0.51902 0.0
H1916 H 0.25071 0.90194 0.50598 0.0
H1917 H 0.36068 0.91487 0.48954 0.0
H1918 H 0.37182 0.88778 0.5555 0.0
H1919 H 0.36319 0.82459 0.56624 0.0
O1920 O 0.31794 0.78794 0.50009 0.0
C1921 C 0.39749 0.79731 0.49028 0.0
C1922 C 0.35844 0.79779 0.54457 0.0
C1923 C 0.36802 0.8638 0.54816 0.0
N1924 N 0.36292 0.83787 0.52321 0.0
C1925 C 0.3585 0.80316 0.52903 0.0
C1926 C 0.36795 0.86812 0.53256 0.0
C1927 C 0.36317 0.82834 0.55417 0.0
C1928 C 0.42246 0.87566 0.45426 0.0
N1929 N 0.39887 0.83498 0.45462 0.0
C1930 C 0.4584 0.89399 0.44626 0.0
C1931 C 0.47073 0.8705 0.43871 0.0
C1932 C 0.44749 0.82912 0.43951 0.0
C1933 C 0.41188 0.81191 0.44769 0.0
C1934 C 0.29702 0.7286 0.4297 0.0
C1935 C 0.31334 0.72583 0.45974 0.0
C1936 C 0.31867 0.76369 0.43803 0.0
N1937 N 0.32622 0.76202 0.45297 0.0
C1938 C 0.29286 0.69045 0.45166 0.0
C1939 C 0.28449 0.69184 0.43656 0.0
C1940 C 0.29219 0.76917 0.48989 0.0
C1941 C 0.30681 0.91253 0.49691 0.0
C1942 C 0.29143 0.84285 0.51139 0.0
C1943 C 0.26394 0.85618 0.51252 0.0
C1944 C 0.27175 0.89126 0.50521 0.0
N1945 N 0.32579 0.86392 0.50325 0.0
C1946 C 0.33362 0.8983 0.49604 0.0
Co1947 Co 0.20402 0.5234 0.36881 0.0
Co1948 Co 0.18325 0.48715 0.33311 0.0
O1949 O 0.17694 0.47854 0.35511 0.0
C1950 C 0.12926 0.46451 0.38548 0.0
O1951 O 0.12099 0.43609 0.37568 0.0
C1952 C 0.18963 0.41594 0.33874 0.0
O1953 O 0.21871 0.43807 0.34807 0.0
O1954 O 0.24123 0.50727 0.33515 0.0
O1955 O 0.25303 0.5464 0.35551 0.0
H1956 H 0.24952 0.55984 0.28533 0.0
H1957 H 0.18308 0.43778 0.37481 0.0
O1958 O 0.15695 0.5003 0.38299 0.0
H1959 H 0.31124 0.52112 0.40046 0.0
H1960 H 0.22657 0.60364 0.41636 0.0
H1961 H 0.25982 0.60853 0.36277 0.0
H1962 H 0.28055 0.55201 0.38563 0.0
H1963 H 0.20233 0.54127 0.40204 0.0
O1964 O 0.17237 0.43115 0.33129 0.0
H1965 H 0.24055 0.5515 0.3128 0.0
H1966 H 0.14018 0.43553 0.30691 0.0
H1967 H 0.28754 0.67028 0.37701 0.0
H1968 H 0.21288 0.40571 0.38935 0.0
H1969 H 0.27105 0.66877 0.40399 0.0
H1970 H 0.27736 0.44725 0.40253 0.0
O1971 O 0.17957 0.55014 0.35777 0.0
H1972 H 0.03763 0.39363 0.34355 0.0
H1973 H 0.13491 0.51669 0.31731 0.0
H1974 H 0.06298 0.49384 0.31537 0.0
H1975 H 0.01377 0.43183 0.32853 0.0
H1976 H 0.10984 0.4177 0.34525 0.0
H1977 H 0.14822 0.4425 0.27936 0.0
H1978 H 0.20311 0.50509 0.2684 0.0
O1979 O 0.19531 0.54423 0.33436 0.0
C1980 C 0.26482 0.53397 0.34434 0.0
C1981 C 0.22537 0.5325 0.28997 0.0
C1982 C 0.16855 0.46662 0.28661 0.0
N1983 N 0.1896 0.49327 0.31146 0.0
C1984 C 0.22007 0.52765 0.30552 0.0
C1985 C 0.16418 0.46283 0.30222 0.0
C1986 C 0.19935 0.50175 0.28047 0.0
C1987 C 0.21033 0.45654 0.38074 0.0
N1988 N 0.22824 0.49726 0.38007 0.0
C1989 C 0.22751 0.43796 0.38886 0.0
C1990 C 0.26371 0.46124 0.3962 0.0
C1991 C 0.28262 0.50262 0.39509 0.0
C1992 C 0.26463 0.52007 0.38681 0.0
C1993 C 0.23484 0.60468 0.4047 0.0
C1994 C 0.25338 0.60673 0.37463 0.0
C1995 C 0.22066 0.56943 0.39641 0.0
N1996 N 0.22969 0.57075 0.38147 0.0
C1997 C 0.26901 0.64225 0.38266 0.0
C1998 C 0.25957 0.64123 0.39778 0.0
C1999 C 0.18868 0.56347 0.34448 0.0
C2000 C 0.05877 0.42068 0.33776 0.0
C2001 C 0.11371 0.48981 0.32314 0.0
C2002 C 0.073 0.47695 0.32196 0.0
C2003 C 0.04541 0.44214 0.32934 0.0
N2004 N 0.12657 0.46856 0.3314 0.0
C2005 C 0.0997 0.43444 0.33867 0.0
Co2006 Co 0.47549 0.68042 0.3684 0.0
Co2007 Co 0.51072 0.69483 0.33252 0.0
O2008 O 0.52011 0.69791 0.35452 0.0
C2009 C 0.53484 0.66562 0.38527 0.0
O2010 O 0.5634 0.68626 0.37556 0.0
C2011 C 0.58221 0.77285 0.33724 0.0
O2012 O 0.56081 0.7801 0.34684 0.0
O2013 O 0.49069 0.73281 0.33453 0.0
O2014 O 0.45215 0.70607 0.35509 0.0
H2015 H 0.43617 0.68691 0.28509 0.0
H2016 H 0.56122 0.74613 0.37356 0.0
O2017 O 0.4989 0.65681 0.38261 0.0
H2018 H 0.47836 0.79002 0.4002 0.0
H2019 H 0.39585 0.62285 0.41616 0.0
H2020 H 0.39022 0.651 0.36259 0.0
H2021 H 0.44714 0.72814 0.38562 0.0
H2022 H 0.45809 0.66127 0.40174 0.0
O2023 O 0.56665 0.73982 0.33018 0.0
H2024 H 0.44566 0.68734 0.31252 0.0
H2025 H 0.56115 0.70202 0.30605 0.0
H2026 H 0.32863 0.61671 0.37695 0.0
H2027 H 0.59357 0.80836 0.38782 0.0
H2028 H 0.33053 0.60182 0.40391 0.0
H2029 H 0.55231 0.83085 0.4015 0.0
O2030 O 0.44855 0.62893 0.35759 0.0
H2031 H 0.60443 0.64295 0.34296 0.0
H2032 H 0.4807 0.61645 0.31706 0.0
H2033 H 0.50349 0.56729 0.31527 0.0
H2034 H 0.56583 0.58046 0.32825 0.0
H2035 H 0.58041 0.69118 0.34452 0.0
H2036 H 0.55303 0.70203 0.27853 0.0
H2037 H 0.4901 0.69426 0.26789 0.0
O2038 O 0.45373 0.64995 0.33413 0.0
C2039 C 0.4643 0.73001 0.34383 0.0
C2040 C 0.46366 0.69014 0.28959 0.0
C2041 C 0.52926 0.69867 0.28591 0.0
N2042 N 0.50371 0.69422 0.31089 0.0
C2043 C 0.46915 0.69028 0.30512 0.0
C2044 C 0.5337 0.69869 0.3015 0.0
C2045 C 0.49394 0.69431 0.27995 0.0
C2046 C 0.54256 0.75438 0.37972 0.0
N2047 N 0.50184 0.73108 0.37947 0.0
C2048 C 0.56131 0.79035 0.38767 0.0
C2049 C 0.53819 0.80304 0.3953 0.0
C2050 C 0.49677 0.7801 0.39461 0.0
C2051 C 0.47914 0.74444 0.38648 0.0
C2052 C 0.39467 0.63007 0.4045 0.0
C2053 C 0.3922 0.64645 0.37445 0.0
C2054 C 0.42985 0.6513 0.39616 0.0
N2055 N 0.42832 0.65892 0.38121 0.0
C2056 C 0.35676 0.6264 0.38254 0.0
C2057 C 0.35799 0.61802 0.39765 0.0
C2058 C 0.43484 0.62434 0.34436 0.0
C2059 C 0.57724 0.63689 0.33724 0.0
C2060 C 0.50774 0.6223 0.32281 0.0
C2061 C 0.52056 0.59441 0.32171 0.0
C2062 C 0.55556 0.60182 0.32899 0.0
N2063 N 0.52924 0.65667 0.33088 0.0
C2064 C 0.56353 0.66411 0.33807 0.0
Co2065 Co 0.31825 0.79427 0.36858 0.0
Co2066 Co 0.30301 0.815 0.33281 0.0
O2067 O 0.30048 0.82133 0.35481 0.0
C2068 C 0.33359 0.86869 0.38538 0.0
O2069 O 0.31317 0.87685 0.37566 0.0
C2070 C 0.22506 0.80829 0.33806 0.0
O2071 O 0.21817 0.77962 0.3476 0.0
O2072 O 0.26524 0.75701 0.33487 0.0
O2073 O 0.29246 0.74527 0.35529 0.0
H2074 H 0.31007 0.74859 0.28519 0.0
H2075 H 0.2531 0.81483 0.37429 0.0
O2076 O 0.34207 0.84131 0.38276 0.0
H2077 H 0.20874 0.68715 0.40027 0.0
H2078 H 0.37587 0.7721 0.41625 0.0
H2079 H 0.34801 0.73877 0.36265 0.0
H2080 H 0.27044 0.7179 0.38551 0.0
H2081 H 0.3373 0.79579 0.40187 0.0
O2082 O 0.25778 0.8257 0.33078 0.0
H2083 H 0.31032 0.75763 0.31264 0.0
H2084 H 0.2948 0.85802 0.30649 0.0
H2085 H 0.38264 0.7117 0.37694 0.0
H2086 H 0.19113 0.78499 0.38876 0.0
H2087 H 0.39738 0.72826 0.40392 0.0
H2088 H 0.16841 0.72074 0.4021 0.0
O2089 O 0.36956 0.81875 0.3576 0.0
H2090 H 0.3546 0.96049 0.3432 0.0
H2091 H 0.381 0.86348 0.31709 0.0
H2092 H 0.42992 0.93543 0.31518 0.0
H2093 H 0.41681 0.9845 0.32827 0.0
H2094 H 0.30661 0.88825 0.34489 0.0
H2095 H 0.2941 0.84991 0.27895 0.0
H2096 H 0.30194 0.79497 0.26813 0.0
O2097 O 0.34811 0.80308 0.33418 0.0
C2098 C 0.26836 0.73345 0.34409 0.0
C2099 C 0.3068 0.77276 0.28976 0.0
C2100 C 0.29779 0.82959 0.28626 0.0
N2101 N 0.30307 0.8086 0.31117 0.0
C2102 C 0.30705 0.7781 0.3053 0.0
C2103 C 0.29817 0.834 0.30187 0.0
C2104 C 0.3022 0.79876 0.2802 0.0
C2105 C 0.24475 0.78772 0.38031 0.0
N2106 N 0.26777 0.77 0.37978 0.0
C2107 C 0.20892 0.77051 0.38838 0.0
C2108 C 0.19611 0.73443 0.39581 0.0
C2109 C 0.21877 0.71568 0.39483 0.0
C2110 C 0.25429 0.73372 0.38659 0.0
C2111 C 0.36876 0.76381 0.40458 0.0
C2112 C 0.35256 0.74523 0.37451 0.0
C2113 C 0.34743 0.77768 0.39626 0.0
N2114 N 0.33992 0.76868 0.38131 0.0
C2115 C 0.37277 0.72996 0.38256 0.0
C2116 C 0.38106 0.73944 0.39768 0.0
C2117 C 0.37391 0.80971 0.34432 0.0
C2118 C 0.36064 0.93941 0.33744 0.0
C2119 C 0.37519 0.88463 0.32289 0.0
C2120 C 0.40294 0.92534 0.32172 0.0
C2121 C 0.39555 0.95286 0.32907 0.0
N2122 N 0.34098 0.87168 0.33109 0.0
C2123 C 0.33355 0.89847 0.33834 0.0
C2124 C 0.03821 0.10523 0.16204 0.0
C2125 C 0.06066 0.13057 0.17396 0.0
H2126 H 0.97962 0.06379 0.15366 0.0
C2127 C 0.04042 0.13814 0.1855 0.0
H2128 H 0.05276 0.09869 0.15297 0.0
C2129 C -0.00121 0.11756 0.18599 0.0
C2130 C 0.97657 0.08974 0.17481 0.0
H2131 H 0.05669 0.1577 0.19479 0.0
H2132 H 0.98397 0.12234 0.19542 0.0
C2133 C 0.99636 0.08499 0.16246 0.0
C2134 C 0.89212 0.92919 0.16393 0.0
C2135 C 0.86742 0.92698 0.17598 0.0
H2136 H 0.93228 0.91067 0.15531 0.0
C2137 C 0.85987 0.89936 0.1876 0.0
H2138 H 0.89868 0.95019 0.15482 0.0
C2139 C 0.8796 0.87746 0.18795 0.0
C2140 C 0.90652 0.88202 0.17654 0.0
H2141 H 0.84085 0.89665 0.19701 0.0
H2142 H 0.87495 0.85805 0.19744 0.0
C2143 C 0.91153 0.90676 0.16422 0.0
C2144 C 0.07734 -0.00115 0.163 0.0
C2145 C 0.1103 0.01951 0.17252 0.0
H2146 H 0.02862 0.94191 0.15656 0.0
C2147 C 0.12268 0.99814 0.18164 0.0
H2148 H 0.06729 0.01499 0.15596 0.0
C2149 C 0.10046 0.9565 0.18218 0.0
C2150 C 0.06582 0.9356 0.1734 0.0
H2151 H 0.14848 0.01371 0.18887 0.0
H2152 H 0.10917 0.9408 0.19004 0.0
C2153 C 0.05543 0.95708 0.16333 0.0
C2154 C 0.1391 0.04177 0.31544 0.0
C2155 C 0.13129 0.06163 0.32706 0.0
H2156 H 0.12422 0.98563 0.3055 0.0
C2157 C 0.10613 0.03887 0.33898 0.0
H2158 H 0.15853 0.05825 0.30615 0.0
C2159 C 0.08653 0.99705 0.33856 0.0
C2160 C 0.09173 0.97757 0.3262 0.0
H2161 H 0.09946 0.05314 0.34811 0.0
H2162 H 0.06551 0.98004 0.34738 0.0
C2163 C 0.11919 0.00016 0.31496 0.0
C2164 C 0.95769 0.06699 0.33791 0.0
C2165 C 0.93704 0.06989 0.32535 0.0
H2166 H 0.01499 0.08412 0.34764 0.0
C2167 C 0.95891 0.09737 0.31391 0.0
H2168 H 0.9418 0.04626 0.34695 0.0
C2169 C 0.0005 0.11797 0.31417 0.0
C2170 C 0.02098 0.11247 0.32607 0.0
H2171 H 0.94405 0.10075 0.30415 0.0
H2172 H 0.01671 0.13716 0.30479 0.0
C2173 C -0.00049 0.08836 0.33829 0.0
C2174 C 0.91123 0.91472 0.33666 0.0
C2175 C 0.88582 0.90914 0.32452 0.0
H2176 H 0.95481 0.90186 0.3459 0.0
C2177 C 0.8802 0.8813 0.31335 0.0
H2178 H 0.91585 0.93609 0.34542 0.0
C2179 C 0.90184 0.86132 0.31368 0.0
C2180 C 0.93007 0.86931 0.3251 0.0
H2181 H 0.86006 0.87602 0.30406 0.0
H2182 H 0.89835 0.8416 0.30442 0.0
C2183 C 0.93329 0.89492 0.33696 0.0
C2184 C 0.96083 0.89154 0.83728 0.0
C2185 C 0.939 0.86608 0.8253 0.0
H2186 H 0.019 0.93307 0.84601 0.0
C2187 C 0.95985 0.85863 0.81396 0.0
H2188 H 0.94578 0.89804 0.84618 0.0
C2189 C 0.0015 0.87911 0.8138 0.0
C2190 C 0.02314 0.90685 0.82508 0.0
H2191 H 0.94408 0.83903 0.80462 0.0
H2192 H 0.01681 0.87432 0.80455 0.0
C2193 C 0.0027 0.91179 0.83717 0.0
C2194 C 0.08544 0.08686 0.83757 0.0
C2195 C 0.09034 0.11236 0.82553 0.0
H2196 H 0.09913 0.04351 0.84643 0.0
C2197 C 0.11798 0.11849 0.81419 0.0
H2198 H 0.06425 0.08185 0.84645 0.0
C2199 C 0.13841 0.09728 0.81425 0.0
C2200 C 0.13096 0.06884 0.82553 0.0
H2201 H 0.1227 0.13866 0.80496 0.0
H2202 H 0.15795 0.10118 0.80487 0.0
C2203 C 0.1056 0.06514 0.83757 0.0
C2204 C 0.8783 0.99572 0.81481 0.0
C2205 C 0.88502 0.97381 0.82581 0.0
H2206 H 0.89525 0.05333 0.8059 0.0
C2207 C 0.9112 0.99396 0.83772 0.0
H2208 H 0.85763 0.98063 0.80569 0.0
C2209 C 0.93291 0.03582 0.83792 0.0
C2210 C 0.92858 0.05792 0.82619 0.0
H2211 H 0.91671 0.97745 0.84632 0.0
H2212 H 0.95502 0.05065 0.84665 0.0
C2213 C 0.8996 0.03735 0.81505 0.0
C2214 C 0.91412 0.0037 0.66368 0.0
C2215 C 0.90847 0.02383 0.6757 0.0
H2216 H 0.90108 0.94704 0.65465 0.0
C2217 C 0.88031 0.00188 0.68684 0.0
H2218 H 0.93577 0.02023 0.65497 0.0
C2219 C 0.86008 0.96026 0.6866 0.0
C2220 C 0.86816 0.93973 0.67533 0.0
H2221 H 0.87503 0.01696 0.69605 0.0
H2222 H 0.84012 0.94426 0.69584 0.0
C2223 C 0.89409 0.96184 0.66349 0.0
C2224 C 0.03905 0.90069 0.68667 0.0
C2225 C 0.05984 0.92902 0.67534 0.0
H2226 H 0.98213 0.85938 0.6961 0.0
C2227 C 0.03799 0.93255 0.66334 0.0
H2228 H 0.05484 0.8969 0.69603 0.0
C2229 C 0.99612 0.91078 0.66342 0.0
C2230 C 0.97573 0.88542 0.67552 0.0
H2231 H 0.05299 0.95408 0.65443 0.0
H2232 H 0.97979 0.91567 0.65457 0.0
C2233 C 0.99741 0.87945 0.68683 0.0
C2234 C 0.06663 0.10633 0.66386 0.0
C2235 C 0.07021 0.13157 0.67592 0.0
H2236 H 0.08341 0.06505 0.65496 0.0
C2237 C 0.09852 0.13888 0.68723 0.0
H2238 H 0.0451 0.09996 0.65497 0.0
C2239 C 0.11976 0.11846 0.68728 0.0
C2240 C 0.11372 0.09093 0.67592 0.0
H2241 H 0.10233 0.15833 0.69662 0.0
H2242 H 0.13987 0.12313 0.69652 0.0
C2243 C 0.08834 0.08615 0.66386 0.0
C2244 C 0.66307 0.45064 0.51921 0.0
C2245 C 0.64142 0.42247 0.50805 0.0
H2246 H 0.7205 0.49111 0.52828 0.0
C2247 C 0.66182 0.4171 0.49606 0.0
H2248 H 0.64777 0.45574 0.52839 0.0
C2249 C 0.7037 0.43738 0.49593 0.0
C2250 C 0.72554 0.46331 0.5078 0.0
H2251 H 0.64551 0.39548 0.48733 0.0
H2252 H 0.71873 0.43057 0.48713 0.0
C2253 C 0.70472 0.47115 0.51903 0.0
C2254 C 0.55957 0.26451 0.49612 0.0
C2255 C 0.53386 0.26071 0.50804 0.0
H2256 H 0.60131 0.24802 0.48748 0.0
C2257 C 0.52623 0.2323 0.51936 0.0
H2258 H 0.5662 0.28614 0.48724 0.0
C2259 C 0.54676 0.21119 0.51956 0.0
C2260 C 0.57472 0.21743 0.50834 0.0
H2261 H 0.50644 0.22834 0.52865 0.0
H2262 H 0.54186 0.19103 0.5288 0.0
C2263 C 0.57986 0.24292 0.49627 0.0
C2264 C 0.76529 0.29274 0.51925 0.0
C2265 C 0.73662 0.27184 0.50804 0.0
H2266 H 0.80688 0.34974 0.52851 0.0
C2267 C 0.73258 0.29358 0.49611 0.0
H2268 H 0.76944 0.27703 0.52854 0.0
C2269 C 0.75421 0.33545 0.49616 0.0
C2270 C 0.78001 0.35594 0.50813 0.0
H2271 H 0.71074 0.27849 0.48732 0.0
H2272 H 0.74892 0.35169 0.48738 0.0
C2273 C 0.78648 0.33437 0.51935 0.0
C2274 C 0.77125 0.37204 0.6701 0.0
C2275 C 0.79686 0.39384 0.65814 0.0
H2276 H 0.72986 0.31389 0.67889 0.0
C2277 C 0.80467 0.37302 0.64691 0.0
H2278 H 0.76448 0.38707 0.67892 0.0
C2279 C 0.78444 0.33139 0.64683 0.0
C2280 C 0.75659 0.30974 0.65809 0.0
H2281 H 0.8244 0.38877 0.63759 0.0
H2282 H 0.78949 0.31608 0.63765 0.0
C2283 C 0.75125 0.33018 0.67008 0.0
C2284 C 0.62687 0.4009 0.66994 0.0
C2285 C 0.60494 0.40421 0.65791 0.0
H2286 H 0.68511 0.41799 0.67871 0.0
C2287 C 0.62566 0.43238 0.64652 0.0
H2288 H 0.61192 0.37949 0.67888 0.0
C2289 C 0.6673 0.45371 0.64636 0.0
C2290 C 0.68906 0.44794 0.65769 0.0
H2291 H 0.60982 0.43599 0.63715 0.0
H2292 H 0.68252 0.47366 0.63705 0.0
C2293 C 0.66873 0.42272 0.66983 0.0
C2294 C 0.59852 0.22747 0.67022 0.0
C2295 C 0.59488 0.20187 0.65829 0.0
H2296 H 0.58171 0.26895 0.67887 0.0
C2297 C 0.56647 0.19415 0.64697 0.0
H2298 H 0.62013 0.23415 0.6791 0.0
C2299 C 0.54518 0.21451 0.64678 0.0
C2300 C 0.55125 0.24237 0.65801 0.0
H2301 H 0.56263 0.17443 0.63768 0.0
H2302 H 0.525 0.20952 0.63754 0.0
C2303 C 0.57675 0.24758 0.67008 0.0
C2304 C 0.66735 0.21129 0.14641 0.0
C2305 C 0.68849 0.23892 0.15779 0.0
H2306 H 0.61031 0.17089 0.13702 0.0
C2307 C 0.66756 0.24329 0.16983 0.0
H2308 H 0.68305 0.20688 0.13721 0.0
C2309 C 0.62567 0.2226 0.1698 0.0
C2310 C 0.60434 0.19725 0.15772 0.0
H2311 H 0.68346 0.26444 0.17875 0.0
H2312 H 0.61023 0.22867 0.17867 0.0
C2313 C 0.6257 0.19038 0.14643 0.0
C2314 C 0.77154 0.39795 0.17107 0.0
C2315 C 0.7962 0.40121 0.15884 0.0
H2316 H 0.73053 0.41479 0.18019 0.0
C2317 C 0.8028 0.42906 0.14742 0.0
H2318 H 0.76582 0.37686 0.18006 0.0
C2319 C 0.78197 0.44988 0.14738 0.0
C2320 C 0.75499 0.44413 0.15893 0.0
H2321 H 0.82184 0.43268 0.1379 0.0
H2322 H 0.78588 0.46942 0.13802 0.0
C2323 C 0.75114 0.41943 0.17113 0.0
C2324 C 0.54241 0.3263 0.14822 0.0
C2325 C 0.54961 0.30408 0.15893 0.0
H2326 H 0.55899 0.38417 0.13968 0.0
C2327 C 0.57631 0.32389 0.17075 0.0
H2328 H 0.52136 0.31145 0.13918 0.0
C2329 C 0.5979 0.36574 0.17114 0.0
C2330 C 0.59304 0.38817 0.15968 0.0
H2331 H 0.58226 0.30714 0.17911 0.0
H2332 H 0.62034 0.38034 0.17978 0.0
C2333 C 0.56371 0.36792 0.14862 0.0
C2334 C 0.54751 0.33491 0.01852 0.0
C2335 C 0.57732 0.35731 0.00796 0.0
H2336 H 0.50644 0.27691 0.02703 0.0
C2337 C 0.5852 0.33765 0.99636 0.0
H2338 H 0.5406 0.34963 0.02741 0.0
C2339 C 0.56547 0.2958 0.99604 0.0
C2340 C 0.53775 0.27323 0.00736 0.0
H2341 H 0.60826 0.35454 0.98814 0.0
H2342 H 0.57406 0.28136 0.98758 0.0
C2343 C 0.52774 0.29328 0.01819 0.0
C2344 C 0.70736 0.2652 0.9966 0.0
C2345 C 0.72891 0.26249 0.00888 0.0
H2346 H 0.64941 0.24752 0.98741 0.0
C2347 C 0.70788 0.23472 0.02036 0.0
H2348 H 0.72256 0.2862 0.98756 0.0
C2349 C 0.66624 0.21344 0.02037 0.0
C2350 C 0.64484 0.21867 0.00875 0.0
H2351 H 0.72343 0.23152 0.02992 0.0
H2352 H 0.65074 0.19396 0.02976 0.0
C2353 C 0.66551 0.24328 0.99652 0.0
C2354 C 0.75666 0.42013 0.99746 0.0
C2355 C 0.78181 0.42468 0.00958 0.0
H2356 H 0.71367 0.43419 0.98851 0.0
C2357 C 0.78777 0.45212 0.02097 0.0
H2358 H 0.75184 0.39914 0.98853 0.0
C2359 C 0.76661 0.47263 0.02089 0.0
C2360 C 0.7385 0.46552 0.00953 0.0
H2361 H 0.80777 0.45669 0.03022 0.0
H2362 H 0.77029 0.49195 0.03031 0.0
C2363 C 0.73507 0.44042 0.99743 0.0
C2364 C 0.33125 0.78343 0.8533 0.0
C2365 C 0.30947 0.75548 0.8421 0.0
H2366 H 0.38877 0.82357 0.86239 0.0
C2367 C 0.32976 0.75016 0.83005 0.0
H2368 H 0.31605 0.78849 0.86253 0.0
C2369 C 0.37163 0.77026 0.82991 0.0
C2370 C 0.39359 0.79596 0.84182 0.0
H2371 H 0.31335 0.72871 0.82128 0.0
H2372 H 0.38656 0.76349 0.82105 0.0
C2373 C 0.37289 0.80378 0.85311 0.0
C2374 C 0.2266 0.59702 0.83023 0.0
C2375 C 0.20126 0.59367 0.84222 0.0
H2376 H 0.26781 0.57991 0.82151 0.0
C2377 C 0.19369 0.56545 0.85361 0.0
H2378 H 0.23316 0.61847 0.82129 0.0
C2379 C 0.21398 0.54409 0.8538 0.0
C2380 C 0.2416 0.54988 0.8425 0.0
H2381 H 0.17417 0.56183 0.86296 0.0
H2382 H 0.20916 0.5241 0.8631 0.0
C2383 C 0.24662 0.57516 0.83036 0.0
C2384 C 0.43213 0.62457 0.85317 0.0
C2385 C 0.40332 0.60375 0.84199 0.0
H2386 H 0.47403 0.68151 0.86239 0.0
C2387 C 0.39931 0.62556 0.83008 0.0
H2388 H 0.43626 0.60881 0.86245 0.0
C2389 C 0.42114 0.66742 0.83012 0.0
C2390 C 0.4471 0.68785 0.84205 0.0
H2391 H 0.37736 0.61053 0.82131 0.0
H2392 H 0.41588 0.68372 0.82135 0.0
C2393 C 0.45351 0.6662 0.85325 0.0
C2394 C 0.45252 0.664 0.98091 0.0
C2395 C 0.42437 0.64246 0.9921 0.0
H2396 H 0.49289 0.7213 0.97171 0.0
C2397 C 0.41889 0.663 0.00401 0.0
H2398 H 0.45767 0.6486 0.97178 0.0
C2399 C 0.4391 0.70487 0.00404 0.0
C2400 C 0.46504 0.72657 0.99214 0.0
H2401 H 0.39726 0.64678 0.01276 0.0
H2402 H 0.43223 0.71999 0.01279 0.0
C2403 C 0.47294 0.70563 0.98098 0.0
C2404 C 0.29439 0.76591 0.9806 0.0
C2405 C 0.2737 0.73769 0.99197 0.0
H2406 H 0.35123 0.80712 0.97109 0.0
C2407 C 0.29565 0.73418 0.00394 0.0
H2408 H 0.27852 0.76966 0.97127 0.0
C2409 C 0.33752 0.75586 0.00378 0.0
C2410 C 0.3578 0.78115 0.99166 0.0
H2411 H 0.28072 0.71271 0.01287 0.0
H2412 H 0.35392 0.75098 0.01261 0.0
C2413 C 0.33603 0.78711 0.98038 0.0
C2414 C 0.21306 0.54769 0.98088 0.0
C2415 C 0.21936 0.57568 0.99209 0.0
H2416 H 0.23018 0.50736 0.97178 0.0
C2417 C 0.24492 0.58083 0.00414 0.0
H2418 H 0.19283 0.54275 0.97166 0.0
C2419 C 0.26652 0.56054 0.00427 0.0
C2420 C 0.26266 0.53482 0.99235 0.0
H2421 H 0.25005 0.60229 0.01292 0.0
H2422 H 0.28819 0.56719 0.01312 0.0
C2423 C 0.23419 0.52717 0.98107 0.0
C2424 C 0.29321 0.5595 0.50406 0.0
C2425 C 0.27123 0.5341 0.49209 0.0
H2426 H 0.35151 0.60068 0.51276 0.0
C2427 C 0.29189 0.5264 0.48074 0.0
H2428 H 0.27831 0.56616 0.51296 0.0
C2429 C 0.33352 0.54662 0.48056 0.0
C2430 C 0.35534 0.57429 0.49184 0.0
H2431 H 0.276 0.50682 0.47141 0.0
H2432 H 0.3487 0.54168 0.47129 0.0
C2433 C 0.33508 0.57945 0.50393 0.0
C2434 C 0.43775 0.73202 0.50417 0.0
C2435 C 0.46349 0.73587 0.49225 0.0
H2436 H 0.39627 0.74881 0.51287 0.0
C2437 C 0.47147 0.76458 0.48103 0.0
H2438 H 0.43085 0.71015 0.51298 0.0
C2439 C 0.45126 0.78602 0.48091 0.0
C2440 C 0.42328 0.77978 0.49212 0.0
H2441 H 0.49129 0.76858 0.47175 0.0
H2442 H 0.45644 0.80645 0.47174 0.0
C2443 C 0.41777 0.75393 0.5041 0.0
C2444 C 0.26525 0.70468 0.50419 0.0
C2445 C 0.26168 0.72664 0.49223 0.0
H2446 H 0.24834 0.64642 0.51289 0.0
C2447 C 0.23327 0.70598 0.48091 0.0
H2448 H 0.28685 0.7196 0.51307 0.0
C2449 C 0.21193 0.66435 0.48074 0.0
C2450 C 0.21795 0.64256 0.492 0.0
H2451 H 0.22948 0.72185 0.47159 0.0
H2452 H 0.19175 0.64916 0.4715 0.0
C2453 C 0.24343 0.66283 0.50407 0.0
C2454 C 0.21395 0.66866 0.35336 0.0
C2455 C 0.24226 0.69021 0.34222 0.0
H2456 H 0.17327 0.61133 0.36246 0.0
C2457 C 0.24771 0.66971 0.33029 0.0
H2458 H 0.20884 0.68404 0.36251 0.0
C2459 C 0.22732 0.62784 0.33019 0.0
C2460 C 0.20121 0.6061 0.34204 0.0
H2461 H 0.26946 0.68594 0.32157 0.0
H2462 H 0.23417 0.61272 0.32144 0.0
C2463 C 0.19334 0.62703 0.35322 0.0
C2464 C 0.32976 0.54482 0.35366 0.0
C2465 C 0.30806 0.55106 0.34244 0.0
H2466 H 0.38723 0.56189 0.36273 0.0
C2467 C 0.3284 0.57645 0.33034 0.0
H2468 H 0.31451 0.52471 0.36292 0.0
C2469 C 0.37027 0.59794 0.33017 0.0
C2470 C 0.39217 0.59415 0.34209 0.0
H2471 H 0.31204 0.58155 0.32156 0.0
H2472 H 0.38526 0.61949 0.32127 0.0
C2473 C 0.3714 0.56584 0.35343 0.0
C2474 C 0.40005 0.77154 0.32995 0.0
C2475 C 0.4041 0.79726 0.34189 0.0
H2476 H 0.41627 0.72968 0.32121 0.0
C2477 C 0.43269 0.80483 0.35312 0.0
H2478 H 0.37828 0.76494 0.32114 0.0
C2479 C 0.45375 0.78423 0.35322 0.0
C2480 C 0.44726 0.75625 0.34199 0.0
H2481 H 0.43684 0.82463 0.36243 0.0
H2482 H 0.47405 0.7891 0.36241 0.0
C2483 C 0.42158 0.75117 0.33 0.0
C2484 C 0.2112 0.19524 0.25776 0.0
C2485 C 0.19688 0.21471 0.26696 0.0
H2486 H 0.21233 0.17358 0.23587 0.0
C2487 C 0.1766 0.23257 0.26029 0.0
H2488 H 0.22669 0.18105 0.26264 0.0
C2489 C 0.16677 0.22696 0.24497 0.0
C2490 C 0.17825 0.20453 0.23597 0.0
H2491 H 0.16529 0.24788 0.26714 0.0
H2492 H 0.14824 0.23813 0.2404 0.0
C2493 C 0.20264 0.19083 0.24239 0.0
C2494 C 0.80419 0.03671 0.24209 0.0
C2495 C 0.78685 0.00052 0.23408 0.0
H2496 H 0.82154 0.06476 0.26376 0.0
C2497 C 0.76675 0.9644 0.242 0.0
H2498 H 0.82046 0.06493 0.23622 0.0
C2499 C 0.76576 0.96444 0.25774 0.0
C2500 C 0.78641 0.00052 0.26575 0.0
H2501 H 0.75396 0.93619 0.23606 0.0
H2502 H 0.75204 0.93612 0.26362 0.0
C2503 C 0.80474 0.03669 0.25782 0.0
C2504 C 0.03999 0.80815 0.25848 0.0
C2505 C 0.00382 0.78908 0.2665 0.0
H2506 H 0.06787 0.8263 0.2368 0.0
C2507 C 0.96789 0.7672 0.2586 0.0
H2508 H 0.06803 0.82565 0.26433 0.0
C2509 C 0.96805 0.76595 0.24285 0.0
C2510 C 0.00393 0.7881 0.23481 0.0
H2511 H 0.93964 0.75296 0.26455 0.0
H2512 H 0.93976 0.75058 0.23698 0.0
C2513 C 0.03999 0.80841 0.24275 0.0
C2514 C 0.80232 0.76613 0.7422 0.0
C2515 C 0.78604 0.78623 0.73433 0.0
H2516 H 0.81932 0.75422 0.76377 0.0
C2517 C 0.76765 0.80378 0.74242 0.0
H2518 H 0.81729 0.75296 0.73621 0.0
C2519 C 0.76716 0.80278 0.75817 0.0
C2520 C 0.78663 0.78584 0.76603 0.0
H2521 H 0.75568 0.82014 0.73661 0.0
H2522 H 0.75455 0.81828 0.76416 0.0
C2523 C 0.80344 0.76672 0.75795 0.0
C2524 C 0.23165 0.03521 0.75818 0.0
C2525 C 0.21284 -0.00101 0.76608 0.0
H2526 H 0.24525 0.06362 0.73659 0.0
C2527 C 0.19638 0.9629 0.75802 0.0
H2528 H 0.24375 0.06332 0.76415 0.0
C2529 C 0.19551 0.96299 0.74228 0.0
C2530 C 0.21271 -0.00079 0.73438 0.0
H2531 H 0.1811 0.93458 0.76388 0.0
H2532 H 0.17948 0.93487 0.73632 0.0
C2533 C 0.23238 0.0353 0.74243 0.0
C2534 C 0.96219 0.19434 0.74344 0.0
C2535 C -0.00153 0.21159 0.73546 0.0
H2536 H 0.93381 0.1767 0.76507 0.0
C2537 C 0.03452 0.23094 0.74345 0.0
H2538 H 0.93401 0.17866 0.73752 0.0
C2539 C 0.0343 0.23147 0.7592 0.0
C2540 C 0.99809 0.21107 0.76716 0.0
H2541 H 0.0628 0.24368 0.73755 0.0
H2542 H 0.06254 0.24481 0.76512 0.0
C2543 C 0.962 0.19329 0.75918 0.0
C2544 C 0.86082 0.56472 0.57496 0.0
C2545 C 0.87801 0.54579 0.567 0.0
H2546 H 0.84659 0.57863 0.59661 0.0
C2547 C 0.8978 0.52936 0.57499 0.0
H2548 H 0.8447 0.57681 0.56905 0.0
C2549 C 0.89723 0.52866 0.59074 0.0
C2550 C 0.87845 0.54601 0.5987 0.0
H2551 H 0.91071 0.51401 0.5691 0.0
H2552 H 0.90946 0.51267 0.59666 0.0
C2553 C 0.86185 0.56563 0.59071 0.0
C2554 C 0.46803 0.36774 0.57504 0.0
C2555 C 0.45177 0.33143 0.56713 0.0
H2556 H 0.48483 0.39642 0.59663 0.0
C2557 C 0.43318 0.29544 0.57518 0.0
H2558 H 0.48314 0.3959 0.56907 0.0
C2559 C 0.43248 0.2958 0.59092 0.0
C2560 C 0.45196 0.33213 0.59883 0.0
H2561 H 0.42123 0.26717 0.56933 0.0
H2562 H 0.41976 0.26765 0.59689 0.0
C2563 C 0.46894 0.36811 0.59078 0.0
C2564 C 0.63039 0.10013 0.57552 0.0
C2565 C 0.66661 0.12002 0.56754 0.0
H2566 H 0.60194 0.08861 0.59716 0.0
C2567 C 0.7027 0.1376 0.57552 0.0
H2568 H 0.60215 0.08695 0.5696 0.0
C2569 C 0.70252 0.13683 0.59127 0.0
C2570 C 0.66627 0.12009 0.59924 0.0
H2571 H 0.73091 0.15381 0.56961 0.0
H2572 H 0.73074 0.15236 0.59717 0.0
C2573 C 0.63019 0.10095 0.59126 0.0
C2574 C 0.43545 0.13727 0.07433 0.0
C2575 C 0.45291 0.11884 0.06621 0.0
H2576 H 0.42311 0.15238 0.09607 0.0
C2577 C 0.46829 0.09786 0.07406 0.0
H2578 H 0.42415 0.15426 0.06853 0.0
C2579 C 0.46954 0.09848 0.0898 0.0
C2580 C 0.45372 0.1185 0.0979 0.0
H2581 H 0.48251 0.08396 0.06804 0.0
H2582 H 0.48475 0.08525 0.09561 0.0
C2583 C 0.43506 0.13631 0.09006 0.0
C2584 C 0.90016 0.36959 0.07623 0.0
C2585 C 0.88112 0.33359 0.06811 0.0
H2586 H 0.91057 0.39724 0.09799 0.0
C2587 C 0.86423 0.29728 0.07593 0.0
H2588 H 0.91277 0.39797 0.07044 0.0
C2589 C 0.86472 0.29697 0.09168 0.0
C2590 C 0.88045 0.33291 0.0998 0.0
H2591 H 0.84867 0.26922 0.06991 0.0
H2592 H 0.8496 0.26854 0.09747 0.0
C2593 C 0.89904 0.36925 0.09197 0.0
C2594 C 0.62725 0.52393 0.0927 0.0
C2595 C 0.66309 0.54267 0.10084 0.0
H2596 H 0.5999 0.50838 0.07095 0.0
C2597 C 0.69945 0.56367 0.093 0.0
H2598 H 0.59896 0.50689 0.0985 0.0
C2599 C 0.70015 0.56291 0.07726 0.0
C2600 C 0.66437 0.54268 0.06914 0.0
H2601 H 0.72754 0.57774 0.09904 0.0
H2602 H 0.72861 0.57625 0.07147 0.0
C2603 C 0.62787 0.52469 0.07696 0.0
C2604 C 0.53094 0.8981 0.92456 0.0
C2605 C 0.54719 0.87815 0.93255 0.0
H2606 H 0.51394 0.90951 0.90291 0.0
C2607 C 0.56557 0.86041 0.92458 0.0
H2608 H 0.51599 0.91142 0.93046 0.0
C2609 C 0.56607 0.86104 0.90883 0.0
C2610 C 0.54659 0.87781 0.90085 0.0
H2611 H 0.57751 0.84416 0.93049 0.0
H2612 H 0.57865 0.84539 0.90293 0.0
C2613 C 0.52982 0.89714 0.90881 0.0
C2614 C 0.13793 0.70237 0.92493 0.0
C2615 C 0.12066 0.66638 0.93298 0.0
H2616 H 0.15226 0.73017 0.90323 0.0
C2617 C 0.10082 0.63006 0.92507 0.0
H2618 H 0.15409 0.73065 0.93078 0.0
C2619 C 0.10141 0.6297 0.90933 0.0
C2620 C 0.12027 0.66569 0.90128 0.0
H2621 H 0.08788 0.6019 0.93104 0.0
H2622 H 0.08915 0.60141 0.90348 0.0
C2623 C 0.13693 0.70201 0.90919 0.0
C2624 C 0.36941 0.46966 0.90949 0.0
C2625 C 0.33326 0.45205 0.90155 0.0
H2626 H 0.39763 0.48463 0.93111 0.0
C2627 C 0.2971 0.43229 0.90957 0.0
H2628 H 0.39758 0.48577 0.90355 0.0
C2629 C 0.29703 0.43329 0.92532 0.0
C2630 C 0.33318 0.45248 0.93325 0.0
H2631 H 0.26881 0.4191 0.90369 0.0
H2632 H 0.26883 0.42107 0.93125 0.0
C2633 C 0.36936 0.46907 0.92524 0.0
C2634 C 0.13482 0.43404 0.42499 0.0
C2635 C 0.11818 0.45338 0.43304 0.0
H2636 H 0.14874 0.42019 0.40329 0.0
C2637 C 0.09897 0.47054 0.42513 0.0
H2638 H 0.15047 0.42135 0.43085 0.0
C2639 C 0.0997 0.47164 0.40939 0.0
C2640 C 0.11802 0.45395 0.40135 0.0
H2641 H 0.08646 0.48617 0.43109 0.0
H2642 H 0.08802 0.48822 0.40354 0.0
C2643 C 0.1339 0.43353 0.40925 0.0
C2644 C 0.52817 0.62897 0.40917 0.0
C2645 C 0.54507 0.66505 0.40119 0.0
H2646 H 0.51399 0.60089 0.43083 0.0
C2647 C 0.56439 0.70128 0.40916 0.0
H2648 H 0.5124 0.60073 0.40327 0.0
C2649 C 0.56366 0.70143 0.42491 0.0
C2650 C 0.54518 0.66533 0.43289 0.0
H2651 H 0.57705 0.7295 0.40325 0.0
H2652 H 0.57552 0.72962 0.43081 0.0
C2653 C 0.52903 0.62914 0.42492 0.0
C2654 C 0.29774 0.8626 0.42498 0.0
C2655 C 0.33376 0.87942 0.43299 0.0
H2656 H 0.26982 0.84857 0.4033 0.0
C2657 C 0.37007 0.89873 0.42505 0.0
H2658 H 0.26945 0.84685 0.43086 0.0
C2659 C 0.37034 0.89805 0.4093 0.0
C2660 C 0.33429 0.87965 0.40129 0.0
H2661 H 0.39824 0.91133 0.43098 0.0
H2662 H 0.39857 0.90989 0.40342 0.0
C2663 C 0.29803 0.86353 0.40924 0.0
C2664 C 0.31375 0.17825 0.15638 0.0
C2665 C 0.29004 0.14807 0.16672 0.0
H2666 H 0.37164 0.21388 0.14667 0.0
C2667 C 0.30748 0.1303 0.17531 0.0
H2668 H 0.30118 0.19257 0.1496 0.0
C2669 C 0.34789 0.14259 0.17365 0.0
C2670 C 0.37164 0.17293 0.16337 0.0
H2671 H 0.29001 0.10704 0.1834 0.0
H2672 H 0.3605 0.12835 0.18045 0.0
C2673 C 0.35417 0.19057 0.15473 0.0
C2674 C 0.81544 0.12937 0.15788 0.0
C2675 C 0.8459 0.13668 0.16821 0.0
H2676 H 0.77909 0.15056 0.14797 0.0
C2677 C 0.86321 0.17211 0.17665 0.0
H2678 H 0.80148 0.10229 0.15122 0.0
C2679 C 0.85029 0.19968 0.17482 0.0
C2680 C 0.8198 0.19236 0.1645 0.0
H2681 H 0.88664 0.17852 0.18474 0.0
H2682 H 0.86426 0.22674 0.18149 0.0
C2683 C 0.80254 0.15697 0.15604 0.0
C2684 C 0.82234 0.68401 0.17977 0.0
C2685 C 0.85785 0.70202 0.17136 0.0
H2686 H 0.76711 0.63062 0.18432 0.0
C2687 C 0.86486 0.67894 0.1609 0.0
H2688 H 0.81614 0.701 0.18794 0.0
C2689 C 0.83688 0.6387 0.15884 0.0
C2690 C 0.8013 0.62068 0.1672 0.0
H2691 H 0.89198 0.69192 0.15424 0.0
H2692 H 0.84312 0.62181 0.15064 0.0
C2693 C 0.79429 0.64369 0.1777 0.0
C2694 C 0.14274 0.34863 0.32814 0.0
C2695 C 0.17543 0.37291 0.33743 0.0
H2696 H 0.10364 0.28988 0.31977 0.0
C2697 C 0.19377 0.35552 0.34571 0.0
H2698 H 0.12786 0.36114 0.32166 0.0
C2699 C 0.17983 0.31464 0.34465 0.0
C2700 C 0.14718 0.29038 0.33534 0.0
H2701 H 0.21891 0.37343 0.35302 0.0
H2702 H 0.19472 0.30211 0.35111 0.0
C2703 C 0.12872 0.30775 0.32711 0.0
C2704 C 0.64764 0.79529 0.32442 0.0
C2705 C 0.62466 0.80255 0.33486 0.0
H2706 H 0.70486 0.81692 0.31413 0.0
C2707 C 0.64273 0.83826 0.34311 0.0
H2708 H 0.63455 0.76798 0.31789 0.0
C2709 C 0.68297 0.86621 0.34098 0.0
C2710 C 0.70598 0.85899 0.33054 0.0
H2711 H 0.62586 0.84468 0.35127 0.0
H2712 H 0.696 0.89349 0.34752 0.0
C2713 C 0.68794 0.82327 0.32227 0.0
C2714 C 0.13223 0.81647 0.34274 0.0
C2715 C 0.13953 0.84722 0.33257 0.0
H2716 H 0.15354 0.78 0.35246 0.0
C2717 C 0.17509 0.86497 0.32418 0.0
H2718 H 0.10505 0.80216 0.34936 0.0
C2719 C 0.20281 0.85218 0.32593 0.0
C2720 C 0.19549 0.82139 0.33609 0.0
H2721 H 0.1815 0.88863 0.31621 0.0
H2722 H 0.22997 0.86648 0.31931 0.0
C2723 C 0.15996 0.80369 0.3445 0.0
C2724 C 0.68919 0.86106 0.82344 0.0
C2725 C 0.70695 0.84326 0.83182 0.0
H2726 H 0.63595 0.86287 0.81864 0.0
C2727 C 0.68351 0.81266 0.84206 0.0
H2728 H 0.70644 0.88461 0.81543 0.0
C2729 C 0.64308 0.80013 0.84388 0.0
C2730 C 0.62533 0.81793 0.8355 0.0
H2731 H 0.69634 0.79831 0.84868 0.0
H2732 H 0.62583 0.77658 0.8519 0.0
C2733 C 0.64877 0.84852 0.82526 0.0
C2734 C 0.14879 0.79612 0.82506 0.0
C2735 C 0.17922 0.80331 0.83539 0.0
H2736 H 0.11284 0.81767 0.81506 0.0
C2737 C 0.19688 0.83888 0.84374 0.0
H2738 H 0.13456 0.76894 0.81847 0.0
C2739 C 0.18436 0.86675 0.84181 0.0
C2740 C 0.15391 0.85956 0.83149 0.0
H2741 H 0.22029 0.84521 0.85182 0.0
H2742 H 0.19858 0.89393 0.84841 0.0
C2743 C 0.13628 0.824 0.82313 0.0
C2744 C 0.15847 0.3538 0.84464 0.0
C2745 C 0.19389 0.37169 0.83617 0.0
H2746 H 0.10351 0.30047 0.84945 0.0
C2747 C 0.20091 0.3484 0.82582 0.0
H2748 H 0.15226 0.37093 0.85274 0.0
C2749 C 0.17302 0.30801 0.82395 0.0
C2750 C 0.1376 0.29012 0.83241 0.0
H2751 H 0.22797 0.36132 0.81913 0.0
H2752 H 0.17923 0.2909 0.81584 0.0
C2753 C 0.13058 0.3134 0.84277 0.0
C2754 C 0.85022 0.64917 0.67471 0.0
C2755 C 0.81978 0.62608 0.66437 0.0
H2756 H 0.88621 0.70648 0.6848 0.0
C2757 C 0.80218 0.64416 0.65606 0.0
H2758 H 0.86442 0.6361 0.68128 0.0
C2759 C 0.81474 0.68454 0.65806 0.0
C2760 C 0.84517 0.70761 0.6684 0.0
H2761 H 0.77874 0.6272 0.64798 0.0
H2762 H 0.80054 0.69761 0.6515 0.0
C2763 C 0.86278 0.68953 0.67671 0.0
C2764 C 0.35009 0.20198 0.6752 0.0
C2765 C 0.37322 0.19472 0.66484 0.0
H2766 H 0.29274 0.18051 0.68532 0.0
C2767 C 0.35521 0.15909 0.65652 0.0
H2768 H 0.36312 0.22921 0.68177 0.0
C2769 C 0.31486 0.13124 0.65853 0.0
C2770 C 0.29173 0.1385 0.66889 0.0
H2771 H 0.37221 0.15271 0.64841 0.0
H2772 H 0.30184 0.10401 0.65195 0.0
C2773 C 0.30974 0.17412 0.67721 0.0
C2774 C 0.79709 0.149 0.67548 0.0
C2775 C 0.80447 0.17949 0.66515 0.0
H2776 H 0.81854 0.11313 0.68562 0.0
C2777 C 0.84031 0.19736 0.65695 0.0
H2778 H 0.76969 0.1346 0.68196 0.0
C2779 C 0.86826 0.18499 0.65903 0.0
C2780 C 0.86088 0.15448 0.66935 0.0
H2781 H 0.84681 0.22085 0.64888 0.0
H2782 H 0.89565 0.19939 0.65254 0.0
C2783 C 0.82504 0.13662 0.67756 0.0
C2784 C 0.01621 0.48193 0.50865 0.0
C2785 C 0.0397 0.51252 0.49842 0.0
H2786 H 0.95843 0.44565 0.51838 0.0
C2787 C 0.02192 0.53013 0.48994 0.0
H2788 H 0.02905 0.46772 0.51534 0.0
C2789 C 0.98142 0.51739 0.49165 0.0
C2790 C 0.95793 0.48678 0.50188 0.0
H2791 H 0.0392 0.55366 0.48192 0.0
H2792 H 0.96857 0.53159 0.48496 0.0
C2793 C 0.97572 0.4692 0.51037 0.0
C2794 C 0.5285 0.50518 0.51022 0.0
C2795 C 0.51088 0.46982 0.50174 0.0
H2796 H 0.53016 0.56009 0.51513 0.0
C2797 C 0.48045 0.46285 0.49145 0.0
H2798 H 0.55192 0.51134 0.51827 0.0
C2799 C 0.4679 0.49075 0.48967 0.0
C2800 C 0.48552 0.52611 0.49815 0.0
H2801 H 0.46625 0.43582 0.48476 0.0
H2802 H 0.44448 0.4846 0.48162 0.0
C2803 C 0.51595 0.53307 0.50844 0.0
C2804 C 0.53484 0.01617 0.49198 0.0
C2805 C 0.52771 0.03961 0.50222 0.0
H2806 H 0.51327 0.95849 0.48217 0.0
C2807 C 0.49226 0.02185 0.51066 0.0
H2808 H 0.56194 0.029 0.48532 0.0
C2809 C 0.46442 0.98142 0.50888 0.0
C2810 C 0.47154 0.95798 0.49863 0.0
H2811 H 0.48598 0.0391 0.51868 0.0
H2812 H 0.43731 0.9686 0.51553 0.0
C2813 C 0.50701 0.97574 0.4902 0.0
C2814 C 0.53196 0.02303 0.00975 0.0
C2815 C 0.51463 0.04097 0.0012 0.0
H2816 H 0.53321 0.96959 0.01475 0.0
C2817 C 0.48427 0.01765 0.99087 0.0
H2818 H 0.55531 0.04017 0.01784 0.0
C2819 C 0.47152 0.97716 0.98912 0.0
C2820 C 0.48885 0.95922 0.99768 0.0
H2821 H 0.47028 0.03061 0.98413 0.0
H2822 H 0.44816 0.96 0.98104 0.0
C2823 C 0.51922 0.98255 0.008 0.0
C2824 C 0.98323 0.46562 0.99237 0.0
C2825 C 0.96007 0.47287 0.00272 0.0
H2826 H 0.04065 0.48699 0.98234 0.0
C2827 C 0.97808 0.50839 0.0111 0.0
H2828 H 0.97021 0.43848 0.98575 0.0
C2829 C 0.01849 0.53615 0.00917 0.0
C2830 C 0.04165 0.52888 0.99882 0.0
H2831 H 0.96104 0.51475 0.01919 0.0
H2832 H 0.03154 0.56331 0.01579 0.0
C2833 C 0.02363 0.49337 0.99044 0.0
C2834 C 0.46496 0.48169 0.00899 0.0
C2835 C 0.47218 0.51234 0.99877 0.0
H2836 H 0.48668 0.44583 0.01895 0.0
C2837 C 0.50797 0.53047 0.99054 0.0
H2838 H 0.4376 0.46709 0.0155 0.0
C2839 C 0.53606 0.51823 0.9925 0.0
C2840 C 0.52884 0.48758 0.00272 0.0
H2841 H 0.51434 0.55408 0.98254 0.0
H2842 H 0.56341 0.53283 0.986 0.0
C2843 C 0.49304 0.46943 0.01095 0.0
loop_
_geom_bond_atom_site_label_1
_geom_bond_atom_site_label_2
_geom_bond_distance
_geom_bond_site_symmetry_2
_ccdc_geom_bond_type
Co0 O2 2.143 . S
Co0 O8 2.074 . S
Co0 O11 2.093 . S
Co0 O24 2.097 . S
Co0 N41 2.151 . S
Co0 N49 2.214 . S
Co1 O2 2.160 . S
Co1 O7 2.058 . S
Co1 O17 2.057 . S
Co1 O32 2.037 . S
Co1 N36 2.145 . S
Co1 N57 2.257 . S
O2 Co0 2.143 . S
O2 Co1 2.160 . S
C3 O4 1.278 . S
C3 O11 1.224 . S
O4 C3 1.278 . S
C5 O6 1.245 . S
C5 O17 1.232 . S
O6 C5 1.245 . S
O7 Co1 2.058 . S
O7 C33 1.269 . S
O8 Co0 2.074 . S
O8 C33 1.257 . S
H9 C34 0.930 . S
H10 C40 0.930 . S
O11 Co0 2.093 . S
O11 C3 1.224 . S
H12 C44 0.929 . S
H13 C46 0.930 . S
H14 C47 0.930 . S
H15 C45 0.929 . S
H16 C48 0.928 . S
O17 Co1 2.057 . S
O17 C5 1.232 . S
H18 C37 0.929 . S
H19 C38 0.929 . S
H20 C50 0.931 . S
H21 C42 0.929 . S
H22 C51 0.930 . S
H23 C43 0.931 . S
O24 Co0 2.097 . S
O24 C52 1.214 . S
H25 C53 0.929 . S
H26 C54 0.929 . S
H27 C55 0.930 . S
H28 C56 0.929 . S
H29 C58 0.930 . S
H30 C35 0.930 . S
H31 C39 0.930 . S
O32 Co1 2.037 . S
O32 C52 1.234 . S
C33 O7 1.269 . S
C33 O8 1.257 . S
C34 H9 0.930 . S
C34 C37 1.388 . S
C34 C39 1.418 . S
C35 H30 0.930 . S
C35 C38 1.404 . S
C35 C39 1.353 . S
N36 Co1 2.145 . S
N36 C37 1.397 . S
N36 C38 1.334 . S
C37 H18 0.929 . S
C37 C34 1.388 . S
C37 N36 1.397 . S
C38 H19 0.929 . S
C38 C35 1.404 . S
C38 N36 1.334 . S
C39 H31 0.930 . S
C39 C34 1.418 . S
C39 C35 1.353 . S
C40 H10 0.930 . S
C40 N41 1.330 . S
C40 C42 1.446 . S
N41 Co0 2.151 . S
N41 C40 1.330 . S
N41 C45 1.418 . S
C42 H21 0.929 . S
C42 C40 1.446 . S
C42 C43 1.332 . S
C43 H23 0.931 . S
C43 C42 1.332 . S
C43 C44 1.267 . S
C44 H12 0.929 . S
C44 C43 1.267 . S
C44 C45 1.251 . S
C45 H15 0.929 . S
C45 N41 1.418 . S
C45 C44 1.251 . S
C46 H13 0.930 . S
C46 C48 1.406 . S
C46 C51 1.261 . S
C47 H14 0.930 . S
C47 N49 1.325 . S
C47 C50 1.357 . S
C48 H16 0.928 . S
C48 C46 1.406 . S
C48 N49 1.261 . S
N49 Co0 2.214 . S
N49 C47 1.325 . S
N49 C48 1.261 . S
C50 H20 0.931 . S
C50 C47 1.357 . S
C50 C51 1.312 . S
C51 H22 0.930 . S
C51 C46 1.261 . S
C51 C50 1.312 . S
C52 O24 1.214 . S
C52 O32 1.234 . S
C53 H25 0.929 . S
C53 C56 1.391 . S
C53 C58 1.391 . S
C54 H26 0.929 . S
C54 C55 1.390 . S
C54 N57 1.391 . S
C55 H27 0.930 . S
C55 C54 1.390 . S
C55 C56 1.392 . S
C56 H28 0.929 . S
C56 C53 1.391 . S
C56 C55 1.392 . S
N57 Co1 2.257 . S
N57 C54 1.391 . S
N57 C58 1.388 . S
C58 H29 0.930 . S
C58 C53 1.391 . S
C58 N57 1.388 . S
Co59 O61 2.143 . S
Co59 O67 2.074 . S
Co59 O70 2.093 1_545 S
Co59 O83 2.097 1_545 S
Co59 N100 2.151 . S
Co59 N108 2.214 1_545 S
Co60 O61 2.160 . S
Co60 O66 2.058 . S
Co60 O76 2.057 . S
Co60 O91 2.037 1_545 S
Co60 N95 2.145 . S
Co60 N116 2.257 1_545 S
O61 Co59 2.143 . S
O61 Co60 2.160 . S
C62 O63 1.278 . S
C62 O70 1.224 . S
O63 C62 1.278 . S
C64 O65 1.245 . S
C64 O76 1.232 . S
O65 C64 1.245 . S
O66 Co60 2.058 . S
O66 C92 1.269 . S
O67 Co59 2.074 . S
O67 C92 1.257 . S
H68 C93 0.930 . S
H69 C99 0.930 . S
O70 Co59 2.093 1_565 S
O70 C62 1.224 . S
H71 C103 0.929 . S
H72 C105 0.930 . S
H73 C106 0.930 . S
H74 C104 0.929 . S
H75 C107 0.950 . S
O76 Co60 2.057 . S
O76 C64 1.232 . S
H77 C96 0.929 . S
H78 C97 0.929 . S
H79 C109 0.931 . S
H80 C101 0.929 . S
H81 C110 0.930 . S
H82 C102 0.931 . S
O83 Co59 2.097 1_565 S
O83 C111 1.214 . S
H84 C112 0.929 . S
H85 C113 0.929 . S
H86 C114 0.930 . S
H87 C115 0.929 . S
H88 C117 0.930 1_545 S
H89 C94 0.930 . S
H90 C98 0.930 . S
O91 Co60 2.037 1_565 S
O91 C111 1.234 . S
C92 O66 1.269 . S
C92 O67 1.257 . S
C93 H68 0.930 . S
C93 C96 1.388 . S
C93 C98 1.418 . S
C94 H89 0.930 . S
C94 C97 1.404 . S
C94 C98 1.353 1_545 S
N95 Co60 2.145 . S
N95 C96 1.397 1_545 S
N95 C97 1.334 . S
C96 H77 0.929 . S
C96 C93 1.388 . S
C96 N95 1.397 1_565 S
C97 H78 0.929 . S
C97 C94 1.404 . S
C97 N95 1.334 . S
C98 H90 0.930 . S
C98 C93 1.418 . S
C98 C94 1.353 1_565 S
C99 H69 0.930 . S
C99 N100 1.330 . S
C99 C101 1.446 . S
N100 Co59 2.151 . S
N100 C99 1.330 . S
N100 C104 1.418 . S
C101 H80 0.929 . S
C101 C99 1.446 . S
C101 C102 1.332 . S
C102 H82 0.931 . S
C102 C101 1.332 . S
C102 C103 1.267 . S
C103 H71 0.929 . S
C103 C102 1.267 . S
C103 C104 1.251 . S
C104 H74 0.929 . S
C104 N100 1.418 . S
C104 C103 1.251 . S
C105 H72 0.930 . S
C105 C107 1.385 1_565 S
C105 C110 1.261 . S
C106 H73 0.930 . S
C106 N108 1.325 . S
C106 C109 1.357 . S
C107 H75 0.950 . S
C107 C105 1.385 1_545 S
C107 N108 1.262 1_545 S
N108 Co59 2.214 1_565 S
N108 C106 1.325 . S
N108 C107 1.262 1_565 S
C109 H79 0.931 . S
C109 C106 1.357 . S
C109 C110 1.312 . S
C110 H81 0.930 . S
C110 C105 1.261 . S
C110 C109 1.312 . S
C111 O83 1.214 . S
C111 O91 1.234 . S
C112 H84 0.929 . S
C112 C115 1.391 . S
C112 C117 1.391 . S
C113 H85 0.929 . S
C113 C114 1.390 . S
C113 N116 1.391 . S
C114 H86 0.930 . S
C114 C113 1.390 . S
C114 C115 1.392 . S
C115 H87 0.929 . S
C115 C112 1.391 . S
C115 C114 1.392 . S
N116 Co60 2.257 1_565 S
N116 C113 1.391 . S
N116 C117 1.388 . S
C117 H88 0.930 1_565 S
C117 C112 1.391 . S
C117 N116 1.388 . S
Co118 O120 2.143 . S
Co118 O126 2.074 . S
Co118 O129 2.093 1_655 S
Co118 O142 2.097 1_655 S
Co118 N159 2.151 . S
Co118 N167 2.214 1_655 S
Co119 O120 2.160 . S
Co119 O125 2.058 . S
Co119 O135 2.057 . S
Co119 O150 2.037 1_655 S
Co119 N154 2.145 . S
Co119 N175 2.257 1_655 S
O120 Co118 2.143 . S
O120 Co119 2.160 . S
C121 O122 1.278 . S
C121 O129 1.224 . S
O122 C121 1.278 . S
C123 O124 1.245 . S
C123 O135 1.232 . S
O124 C123 1.245 . S
O125 Co119 2.058 . S
O125 C151 1.269 . S
O126 Co118 2.074 . S
O126 C151 1.257 . S
H127 C152 0.930 . S
H128 C158 0.930 . S
O129 Co118 2.093 1_455 S
O129 C121 1.224 . S
H130 C162 0.929 . S
H131 C164 0.930 . S
H132 C165 0.930 . S
H133 C163 0.929 . S
H134 C166 0.927 . S
O135 Co119 2.057 . S
O135 C123 1.232 . S
H136 C155 0.929 . S
H137 C156 0.929 . S
H138 C168 0.931 1_545 S
H139 C160 0.929 . S
H140 C169 0.930 1_545 S
H141 C161 0.931 . S
O142 Co118 2.097 1_455 S
O142 C170 1.214 . S
H143 C171 0.929 . S
H144 C172 0.929 . S
H145 C173 0.930 . S
H146 C174 0.929 . S
H147 C176 0.930 1_655 S
H148 C153 0.930 . S
H149 C157 0.930 . S
O150 Co119 2.037 1_455 S
O150 C170 1.234 . S
C151 O125 1.269 . S
C151 O126 1.257 . S
C152 H127 0.930 . S
C152 C155 1.388 . S
C152 C157 1.418 . S
C153 H148 0.930 . S
C153 C156 1.404 . S
C153 C157 1.353 1_655 S
N154 Co119 2.145 . S
N154 C155 1.397 1_655 S
N154 C156 1.334 . S
C155 H136 0.929 . S
C155 C152 1.388 . S
C155 N154 1.397 1_455 S
C156 H137 0.929 . S
C156 C153 1.404 . S
C156 N154 1.334 . S
C157 H149 0.930 . S
C157 C152 1.418 . S
C157 C153 1.353 1_455 S
C158 H128 0.930 . S
C158 N159 1.330 . S
C158 C160 1.446 . S
N159 Co118 2.151 . S
N159 C158 1.330 . S
N159 C163 1.418 . S
C160 H139 0.929 . S
C160 C158 1.446 . S
C160 C161 1.332 . S
C161 H141 0.931 . S
C161 C160 1.332 . S
C161 C162 1.267 . S
C162 H130 0.929 . S
C162 C161 1.267 . S
C162 C163 1.251 . S
C163 H133 0.929 . S
C163 N159 1.418 . S
C163 C162 1.251 . S
C164 H131 0.930 . S
C164 C166 1.411 1_455 S
C164 C169 1.261 . S
C165 H132 0.930 . S
C165 N167 1.325 . S
C165 C168 1.357 . S
C166 H134 0.927 . S
C166 C164 1.411 1_655 S
C166 N167 1.257 1_655 S
N167 Co118 2.214 1_455 S
N167 C165 1.325 . S
N167 C166 1.257 1_455 S
C168 H138 0.931 1_565 S
C168 C165 1.357 . S
C168 C169 1.312 . S
C169 H140 0.930 1_565 S
C169 C164 1.261 . S
C169 C168 1.312 . S
C170 O142 1.214 . S
C170 O150 1.234 . S
C171 H143 0.929 . S
C171 C174 1.391 . S
C171 C176 1.391 . S
C172 H144 0.929 . S
C172 C173 1.390 . S
C172 N175 1.391 . S
C173 H145 0.930 . S
C173 C172 1.390 . S
C173 C174 1.392 . S
C174 H146 0.929 . S
C174 C171 1.391 . S
C174 C173 1.392 . S
N175 Co119 2.257 1_455 S
N175 C172 1.391 . S
N175 C176 1.388 . S
C176 H147 0.930 1_455 S
C176 C171 1.391 . S
C176 N175 1.388 . S
Co177 O179 2.143 . S
Co177 O185 2.074 . S
Co177 O188 2.093 . S
Co177 O201 2.097 . S
Co177 N218 2.151 . S
Co177 N226 2.214 . S
Co178 O179 2.160 . S
Co178 O184 2.058 . S
Co178 O194 2.057 . S
Co178 O209 2.037 . S
Co178 N213 2.145 . S
Co178 N234 2.257 . S
O179 Co177 2.143 . S
O179 Co178 2.160 . S
C180 O181 1.278 . S
C180 O188 1.224 . S
O181 C180 1.278 . S
C182 O183 1.245 . S
C182 O194 1.232 . S
O183 C182 1.245 . S
O184 Co178 2.058 . S
O184 C210 1.269 . S
O185 Co177 2.074 . S
O185 C210 1.257 . S
H186 C211 0.930 . S
H187 C217 0.930 . S
O188 Co177 2.093 . S
O188 C180 1.224 . S
H189 C221 0.929 . S
H190 C223 0.930 . S
H191 C224 0.930 . S
H192 C222 0.929 . S
H193 C225 0.928 . S
O194 Co178 2.057 . S
O194 C182 1.232 . S
H195 C214 0.929 . S
H196 C215 0.929 . S
H197 C227 0.931 1_565 S
H198 C219 0.929 . S
H199 C228 0.930 1_565 S
H200 C220 0.931 . S
O201 Co177 2.097 . S
O201 C229 1.214 . S
H202 C230 0.929 . S
H203 C231 0.929 . S
H204 C232 0.930 . S
H205 C233 0.929 . S
H206 C235 0.930 . S
H207 C212 0.930 . S
H208 C216 0.930 . S
O209 Co178 2.037 . S
O209 C229 1.234 . S
C210 O184 1.269 . S
C210 O185 1.257 . S
C211 H186 0.930 . S
C211 C214 1.388 . S
C211 C216 1.418 . S
C212 H207 0.930 . S
C212 C215 1.404 . S
C212 C216 1.353 . S
N213 Co178 2.145 . S
N213 C214 1.397 . S
N213 C215 1.334 . S
C214 H195 0.929 . S
C214 C211 1.388 . S
C214 N213 1.397 . S
C215 H196 0.929 . S
C215 C212 1.404 . S
C215 N213 1.334 . S
C216 H208 0.930 . S
C216 C211 1.418 . S
C216 C212 1.353 . S
C217 H187 0.930 . S
C217 N218 1.330 . S
C217 C219 1.446 . S
N218 Co177 2.151 . S
N218 C217 1.330 . S
N218 C222 1.418 . S
C219 H198 0.929 . S
C219 C217 1.446 . S
C219 C220 1.332 . S
C220 H200 0.931 . S
C220 C219 1.332 . S
C220 C221 1.267 . S
C221 H189 0.929 . S
C221 C220 1.267 . S
C221 C222 1.251 . S
C222 H192 0.929 . S
C222 N218 1.418 . S
C222 C221 1.251 . S
C223 H190 0.930 . S
C223 C225 1.406 . S
C223 C228 1.261 . S
C224 H191 0.930 . S
C224 N226 1.325 . S
C224 C227 1.357 . S
C225 H193 0.928 . S
C225 C223 1.406 . S
C225 N226 1.261 . S
N226 Co177 2.214 . S
N226 C224 1.325 . S
N226 C225 1.261 . S
C227 H197 0.931 1_545 S
C227 C224 1.357 . S
C227 C228 1.312 . S
C228 H199 0.930 1_545 S
C228 C223 1.261 . S
C228 C227 1.312 . S
C229 O201 1.214 . S
C229 O209 1.234 . S
C230 H202 0.929 . S
C230 C233 1.391 . S
C230 C235 1.391 . S
C231 H203 0.929 . S
C231 C232 1.390 . S
C231 N234 1.391 . S
C232 H204 0.930 . S
C232 C231 1.390 . S
C232 C233 1.392 . S
C233 H205 0.929 . S
C233 C230 1.391 . S
C233 C232 1.392 . S
N234 Co178 2.257 . S
N234 C231 1.391 . S
N234 C235 1.388 . S
C235 H206 0.930 . S
C235 C230 1.391 . S
C235 N234 1.388 . S
Co236 O238 2.143 . S
Co236 O244 2.074 . S
Co236 O247 2.093 1_565 S
Co236 O260 2.097 1_565 S
Co236 N277 2.151 . S
Co236 N285 2.214 1_565 S
Co237 O238 2.160 . S
Co237 O243 2.058 . S
Co237 O253 2.057 . S
Co237 O268 2.037 1_565 S
Co237 N272 2.145 . S
Co237 N293 2.257 1_565 S
O238 Co236 2.143 . S
O238 Co237 2.160 . S
C239 O240 1.278 . S
C239 O247 1.224 . S
O240 C239 1.278 . S
C241 O242 1.245 . S
C241 O253 1.232 . S
O242 C241 1.245 . S
O243 Co237 2.058 . S
O243 C269 1.269 . S
O244 Co236 2.074 . S
O244 C269 1.257 . S
H245 C270 0.930 . S
H246 C276 0.930 . S
O247 Co236 2.093 1_545 S
O247 C239 1.224 . S
H248 C280 0.929 . S
H249 C282 0.930 . S
H250 C283 0.930 . S
H251 C281 0.929 . S
H252 C284 0.927 . S
O253 Co237 2.057 . S
O253 C241 1.232 . S
H254 C273 0.929 . S
H255 C274 0.929 . S
H256 C286 0.931 1_455 S
H257 C278 0.929 . S
H258 C287 0.930 1_455 S
H259 C279 0.931 . S
O260 Co236 2.097 1_545 S
O260 C288 1.214 . S
H261 C289 0.929 . S
H262 C290 0.929 . S
H263 C291 0.930 . S
H264 C292 0.929 . S
H265 C294 0.930 1_565 S
H266 C271 0.930 . S
H267 C275 0.930 . S
O268 Co237 2.037 1_545 S
O268 C288 1.234 . S
C269 O243 1.269 . S
C269 O244 1.257 . S
C270 H245 0.930 . S
C270 C273 1.388 . S
C270 C275 1.418 . S
C271 H266 0.930 . S
C271 C274 1.404 . S
C271 C275 1.353 1_565 S
N272 Co237 2.145 . S
N272 C273 1.397 1_565 S
N272 C274 1.334 . S
C273 H254 0.929 . S
C273 C270 1.388 . S
C273 N272 1.397 1_545 S
C274 H255 0.929 . S
C274 C271 1.404 . S
C274 N272 1.334 . S
C275 H267 0.930 . S
C275 C270 1.418 . S
C275 C271 1.353 1_545 S
C276 H246 0.930 . S
C276 N277 1.330 . S
C276 C278 1.446 . S
N277 Co236 2.151 . S
N277 C276 1.330 . S
N277 C281 1.418 . S
C278 H257 0.929 . S
C278 C276 1.446 . S
C278 C279 1.332 . S
C279 H259 0.931 . S
C279 C278 1.332 . S
C279 C280 1.267 . S
C280 H248 0.929 . S
C280 C279 1.267 . S
C280 C281 1.251 . S
C281 H251 0.929 . S
C281 N277 1.418 . S
C281 C280 1.251 . S
C282 H249 0.930 . S
C282 C284 1.413 1_545 S
C282 C287 1.261 . S
C283 H250 0.930 . S
C283 N285 1.325 . S
C283 C286 1.357 . S
C284 H252 0.927 . S
C284 C282 1.413 1_565 S
C284 N285 1.256 1_565 S
N285 Co236 2.214 1_545 S
N285 C283 1.325 . S
N285 C284 1.256 1_545 S
C286 H256 0.931 1_655 S
C286 C283 1.357 . S
C286 C287 1.312 . S
C287 H258 0.930 1_655 S
C287 C282 1.261 . S
C287 C286 1.312 . S
C288 O260 1.214 . S
C288 O268 1.234 . S
C289 H261 0.929 . S
C289 C292 1.391 . S
C289 C294 1.391 . S
C290 H262 0.929 . S
C290 C291 1.390 . S
C290 N293 1.391 . S
C291 H263 0.930 . S
C291 C290 1.390 . S
C291 C292 1.392 . S
C292 H264 0.929 . S
C292 C289 1.391 . S
C292 C291 1.392 . S
N293 Co237 2.257 1_545 S
N293 C290 1.391 . S
N293 C294 1.388 . S
C294 H265 0.930 1_545 S
C294 C289 1.391 . S
C294 N293 1.388 . S
Co295 O297 2.143 . S
Co295 O303 2.074 1_455 S
Co295 O306 2.093 . S
Co295 O319 2.097 . S
Co295 N336 2.151 1_455 S
Co295 N344 2.214 . S
Co296 O297 2.160 . S
Co296 O302 2.058 1_455 S
Co296 O312 2.057 1_455 S
Co296 O327 2.037 . S
Co296 N331 2.145 . S
Co296 N352 2.257 . S
O297 Co295 2.143 . S
O297 Co296 2.160 . S
C298 O299 1.278 . S
C298 O306 1.224 . S
O299 C298 1.278 . S
C300 O301 1.245 . S
C300 O312 1.232 . S
O301 C300 1.245 . S
O302 Co296 2.058 1_655 S
O302 C328 1.269 . S
O303 Co295 2.074 1_655 S
O303 C328 1.257 . S
H304 C329 0.930 . S
H305 C335 0.930 1_455 S
O306 Co295 2.093 . S
O306 C298 1.224 . S
H307 C339 0.929 . S
H308 C341 0.930 . S
H309 C342 0.930 . S
H310 C340 0.929 . S
H311 C343 0.928 . S
O312 Co296 2.057 1_655 S
O312 C300 1.232 . S
H313 C332 0.929 . S
H314 C333 0.929 . S
H315 C345 0.931 . S
H316 C337 0.929 . S
H317 C346 0.929 1_655 S
H318 C338 0.931 . S
O319 Co295 2.097 . S
O319 C347 1.214 . S
H320 C348 0.929 . S
H321 C349 0.929 . S
H322 C350 0.930 . S
H323 C351 0.929 . S
H324 C353 0.930 . S
H325 C330 0.927 1_655 S
H326 C334 0.930 . S
O327 Co296 2.037 . S
O327 C347 1.234 . S
C328 O302 1.269 . S
C328 O303 1.257 . S
C329 H304 0.930 . S
C329 C332 1.388 . S
C329 C334 1.418 . S
C330 H325 0.927 1_455 S
C330 C333 1.417 . S
C330 C334 1.343 . S
N331 Co296 2.145 . S
N331 C332 1.397 . S
N331 C333 1.334 . S
C332 H313 0.929 . S
C332 C329 1.388 . S
C332 N331 1.397 . S
C333 H314 0.929 . S
C333 C330 1.417 . S
C333 N331 1.334 . S
C334 H326 0.930 . S
C334 C329 1.418 . S
C334 C330 1.343 . S
C335 H305 0.930 1_655 S
C335 N336 1.330 . S
C335 C337 1.446 . S
N336 Co295 2.151 1_655 S
N336 C335 1.330 . S
N336 C340 1.418 . S
C337 H316 0.929 . S
C337 C335 1.446 . S
C337 C338 1.332 . S
C338 H318 0.931 . S
C338 C337 1.332 . S
C338 C339 1.267 . S
C339 H307 0.929 . S
C339 C338 1.267 . S
C339 C340 1.251 . S
C340 H310 0.929 . S
C340 N336 1.418 . S
C340 C339 1.251 . S
C341 H308 0.930 . S
C341 C343 1.406 . S
C341 C346 1.265 . S
C342 H309 0.930 . S
C342 N344 1.325 . S
C342 C345 1.357 1_455 S
C343 H311 0.928 . S
C343 C341 1.406 . S
C343 N344 1.261 . S
N344 Co295 2.214 . S
N344 C342 1.325 . S
N344 C343 1.261 . S
C345 H315 0.931 . S
C345 C342 1.357 1_655 S
C345 C346 1.309 1_655 S
C346 H317 0.929 1_455 S
C346 C341 1.265 . S
C346 C345 1.309 1_455 S
C347 O319 1.214 . S
C347 O327 1.234 . S
C348 H320 0.929 . S
C348 C351 1.391 . S
C348 C353 1.391 . S
C349 H321 0.929 . S
C349 C350 1.390 . S
C349 N352 1.391 . S
C350 H322 0.930 . S
C350 C349 1.390 . S
C350 C351 1.392 . S
C351 H323 0.929 . S
C351 C348 1.391 . S
C351 C350 1.392 . S
N352 Co296 2.257 . S
N352 C349 1.391 . S
N352 C353 1.388 . S
C353 H324 0.930 . S
C353 C348 1.391 . S
C353 N352 1.388 . S
Co354 O356 2.143 . S
Co354 O362 2.074 . S
Co354 O365 2.093 . S
Co354 O378 2.097 . S
Co354 N395 2.151 . S
Co354 N403 2.214 . S
Co355 O356 2.160 . S
Co355 O361 2.058 . S
Co355 O371 2.057 . S
Co355 O386 2.037 . S
Co355 N390 2.145 . S
Co355 N411 2.257 . S
O356 Co354 2.143 . S
O356 Co355 2.160 . S
C357 O358 1.278 . S
C357 O365 1.224 . S
O358 C357 1.278 . S
C359 O360 1.245 . S
C359 O371 1.232 . S
O360 C359 1.245 . S
O361 Co355 2.058 . S
O361 C387 1.269 . S
O362 Co354 2.074 . S
O362 C387 1.257 . S
H363 C388 0.930 . S
H364 C394 0.930 . S
O365 Co354 2.093 . S
O365 C357 1.224 . S
H366 C398 0.929 . S
H367 C400 0.930 . S
H368 C401 0.930 . S
H369 C399 0.929 . S
H370 C402 0.928 . S
O371 Co355 2.057 . S
O371 C359 1.232 . S
H372 C391 0.929 . S
H373 C392 0.929 . S
H374 C404 0.931 1_455 S
H375 C396 0.929 . S
H376 C405 0.930 1_455 S
H377 C397 0.931 . S
O378 Co354 2.097 . S
O378 C406 1.214 . S
H379 C407 0.929 . S
H380 C408 0.929 . S
H381 C409 0.930 . S
H382 C410 0.929 . S
H383 C412 0.930 . S
H384 C389 0.930 . S
H385 C393 0.930 . S
O386 Co355 2.037 . S
O386 C406 1.234 . S
C387 O361 1.269 . S
C387 O362 1.257 . S
C388 H363 0.930 . S
C388 C391 1.388 . S
C388 C393 1.418 . S
C389 H384 0.930 . S
C389 C392 1.404 . S
C389 C393 1.353 . S
N390 Co355 2.145 . S
N390 C391 1.397 . S
N390 C392 1.334 . S
C391 H372 0.929 . S
C391 C388 1.388 . S
C391 N390 1.397 . S
C392 H373 0.929 . S
C392 C389 1.404 . S
C392 N390 1.334 . S
C393 H385 0.930 . S
C393 C388 1.418 . S
C393 C389 1.353 . S
C394 H364 0.930 . S
C394 N395 1.330 . S
C394 C396 1.446 . S
N395 Co354 2.151 . S
N395 C394 1.330 . S
N395 C399 1.418 . S
C396 H375 0.929 . S
C396 C394 1.446 . S
C396 C397 1.332 . S
C397 H377 0.931 . S
C397 C396 1.332 . S
C397 C398 1.267 . S
C398 H366 0.929 . S
C398 C397 1.267 . S
C398 C399 1.251 . S
C399 H369 0.929 . S
C399 N395 1.418 . S
C399 C398 1.251 . S
C400 H367 0.930 . S
C400 C402 1.406 . S
C400 C405 1.261 . S
C401 H368 0.930 . S
C401 N403 1.325 . S
C401 C404 1.357 . S
C402 H370 0.928 . S
C402 C400 1.406 . S
C402 N403 1.261 . S
N403 Co354 2.214 . S
N403 C401 1.325 . S
N403 C402 1.261 . S
C404 H374 0.931 1_655 S
C404 C401 1.357 . S
C404 C405 1.312 . S
C405 H376 0.930 1_655 S
C405 C400 1.261 . S
C405 C404 1.312 . S
C406 O378 1.214 . S
C406 O386 1.234 . S
C407 H379 0.929 . S
C407 C410 1.391 . S
C407 C412 1.391 . S
C408 H380 0.929 . S
C408 C409 1.390 . S
C408 N411 1.391 . S
C409 H381 0.930 . S
C409 C408 1.390 . S
C409 C410 1.392 . S
C410 H382 0.929 . S
C410 C407 1.391 . S
C410 C409 1.392 . S
N411 Co355 2.257 . S
N411 C408 1.391 . S
N411 C412 1.388 . S
C412 H383 0.930 . S
C412 C407 1.391 . S
C412 N411 1.388 . S
Co413 O415 2.143 . S
Co413 O421 2.074 . S
Co413 O424 2.093 1_565 S
Co413 O437 2.097 1_565 S
Co413 N454 2.151 . S
Co413 N462 2.214 1_565 S
Co414 O415 2.160 . S
Co414 O420 2.058 . S
Co414 O430 2.057 . S
Co414 O445 2.037 1_565 S
Co414 N449 2.145 . S
Co414 N470 2.257 1_565 S
O415 Co413 2.143 . S
O415 Co414 2.160 . S
C416 O417 1.278 . S
C416 O424 1.224 . S
O417 C416 1.278 . S
C418 O419 1.245 . S
C418 O430 1.232 . S
O419 C418 1.245 . S
O420 Co414 2.058 . S
O420 C446 1.269 . S
O421 Co413 2.074 . S
O421 C446 1.257 . S
H422 C447 0.930 . S
H423 C453 0.930 . S
O424 Co413 2.093 1_545 S
O424 C416 1.224 . S
H425 C457 0.929 . S
H426 C459 0.930 . S
H427 C460 0.930 . S
H428 C458 0.929 . S
H429 C461 0.950 . S
O430 Co414 2.057 . S
O430 C418 1.232 . S
H431 C450 0.929 . S
H432 C451 0.929 . S
H433 C463 0.931 . S
H434 C455 0.929 . S
H435 C464 0.930 . S
H436 C456 0.931 . S
O437 Co413 2.097 1_545 S
O437 C465 1.214 . S
H438 C466 0.929 . S
H439 C467 0.929 . S
H440 C468 0.930 . S
H441 C469 0.929 . S
H442 C471 0.930 1_565 S
H443 C448 0.930 . S
H444 C452 0.930 . S
O445 Co414 2.037 1_545 S
O445 C465 1.234 . S
C446 O420 1.269 . S
C446 O421 1.257 . S
C447 H422 0.930 . S
C447 C450 1.388 . S
C447 C452 1.418 . S
C448 H443 0.930 . S
C448 C451 1.404 . S
C448 C452 1.353 1_565 S
N449 Co414 2.145 . S
N449 C450 1.397 1_565 S
N449 C451 1.334 . S
C450 H431 0.929 . S
C450 C447 1.388 . S
C450 N449 1.397 1_545 S
C451 H432 0.929 . S
C451 C448 1.404 . S
C451 N449 1.334 . S
C452 H444 0.930 . S
C452 C447 1.418 . S
C452 C448 1.353 1_545 S
C453 H423 0.930 . S
C453 N454 1.330 . S
C453 C455 1.446 . S
N454 Co413 2.151 . S
N454 C453 1.330 . S
N454 C458 1.418 . S
C455 H434 0.929 . S
C455 C453 1.446 . S
C455 C456 1.332 . S
C456 H436 0.931 . S
C456 C455 1.332 . S
C456 C457 1.267 . S
C457 H425 0.929 . S
C457 C456 1.267 . S
C457 C458 1.251 . S
C458 H428 0.929 . S
C458 N454 1.418 . S
C458 C457 1.251 . S
C459 H426 0.930 . S
C459 C461 1.385 1_545 S
C459 C464 1.261 . S
C460 H427 0.930 . S
C460 N462 1.325 . S
C460 C463 1.357 . S
C461 H429 0.950 . S
C461 C459 1.385 1_565 S
C461 N462 1.262 1_565 S
N462 Co413 2.214 1_545 S
N462 C460 1.325 . S
N462 C461 1.262 1_545 S
C463 H433 0.931 . S
C463 C460 1.357 . S
C463 C464 1.312 . S
C464 H435 0.930 . S
C464 C459 1.261 . S
C464 C463 1.312 . S
C465 O437 1.214 . S
C465 O445 1.234 . S
C466 H438 0.929 . S
C466 C469 1.391 . S
C466 C471 1.391 . S
C467 H439 0.929 . S
C467 C468 1.390 . S
C467 N470 1.391 . S
C468 H440 0.930 . S
C468 C467 1.390 . S
C468 C469 1.392 . S
C469 H441 0.929 . S
C469 C466 1.391 . S
C469 C468 1.392 . S
N470 Co414 2.257 1_545 S
N470 C467 1.391 . S
N470 C471 1.388 . S
C471 H442 0.930 1_545 S
C471 C466 1.391 . S
C471 N470 1.388 . S
Co472 O474 2.143 . S
Co472 O480 2.074 . S
Co472 O483 2.093 1_455 S
Co472 O496 2.097 1_455 S
Co472 N513 2.151 . S
Co472 N521 2.214 1_455 S
Co473 O474 2.160 . S
Co473 O479 2.058 . S
Co473 O489 2.057 . S
Co473 O504 2.037 1_455 S
Co473 N508 2.145 . S
Co473 N529 2.257 1_455 S
O474 Co472 2.143 . S
O474 Co473 2.160 . S
C475 O476 1.278 . S
C475 O483 1.224 . S
O476 C475 1.278 . S
C477 O478 1.245 . S
C477 O489 1.232 . S
O478 C477 1.245 . S
O479 Co473 2.058 . S
O479 C505 1.269 . S
O480 Co472 2.074 . S
O480 C505 1.257 . S
H481 C506 0.930 . S
H482 C512 0.930 . S
O483 Co472 2.093 1_655 S
O483 C475 1.224 . S
H484 C516 0.929 . S
H485 C518 0.930 . S
H486 C519 0.930 . S
H487 C517 0.929 . S
H488 C520 0.927 . S
O489 Co473 2.057 . S
O489 C477 1.232 . S
H490 C509 0.929 . S
H491 C510 0.929 . S
H492 C522 0.931 1_565 S
H493 C514 0.929 . S
H494 C523 0.930 1_565 S
H495 C515 0.931 . S
O496 Co472 2.097 1_655 S
O496 C524 1.214 . S
H497 C525 0.929 . S
H498 C526 0.929 . S
H499 C527 0.930 . S
H500 C528 0.929 . S
H501 C530 0.930 1_455 S
H502 C507 0.930 . S
H503 C511 0.930 . S
O504 Co473 2.037 1_655 S
O504 C524 1.234 . S
C505 O479 1.269 . S
C505 O480 1.257 . S
C506 H481 0.930 . S
C506 C509 1.388 . S
C506 C511 1.418 . S
C507 H502 0.930 . S
C507 C510 1.404 . S
C507 C511 1.353 1_455 S
N508 Co473 2.145 . S
N508 C509 1.397 1_455 S
N508 C510 1.334 . S
C509 H490 0.929 . S
C509 C506 1.388 . S
C509 N508 1.397 1_655 S
C510 H491 0.929 . S
C510 C507 1.404 . S
C510 N508 1.334 . S
C511 H503 0.930 . S
C511 C506 1.418 . S
C511 C507 1.353 1_655 S
C512 H482 0.930 . S
C512 N513 1.330 . S
C512 C514 1.446 . S
N513 Co472 2.151 . S
N513 C512 1.330 . S
N513 C517 1.418 . S
C514 H493 0.929 . S
C514 C512 1.446 . S
C514 C515 1.332 . S
C515 H495 0.931 . S
C515 C514 1.332 . S
C515 C516 1.267 . S
C516 H484 0.929 . S
C516 C515 1.267 . S
C516 C517 1.251 . S
C517 H487 0.929 . S
C517 N513 1.418 . S
C517 C516 1.251 . S
C518 H485 0.930 . S
C518 C520 1.411 1_655 S
C518 C523 1.261 . S
C519 H486 0.930 . S
C519 N521 1.325 . S
C519 C522 1.357 . S
C520 H488 0.927 . S
C520 C518 1.411 1_455 S
C520 N521 1.257 1_455 S
N521 Co472 2.214 1_655 S
N521 C519 1.325 . S
N521 C520 1.257 1_655 S
C522 H492 0.931 1_545 S
C522 C519 1.357 . S
C522 C523 1.312 . S
C523 H494 0.930 1_545 S
C523 C518 1.261 . S
C523 C522 1.312 . S
C524 O496 1.214 . S
C524 O504 1.234 . S
C525 H497 0.929 . S
C525 C528 1.391 . S
C525 C530 1.391 . S
C526 H498 0.929 . S
C526 C527 1.390 . S
C526 N529 1.391 . S
C527 H499 0.930 . S
C527 C526 1.390 . S
C527 C528 1.392 . S
C528 H500 0.929 . S
C528 C525 1.391 . S
C528 C527 1.392 . S
N529 Co473 2.257 1_655 S
N529 C526 1.391 . S
N529 C530 1.388 . S
C530 H501 0.930 1_655 S
C530 C525 1.391 . S
C530 N529 1.388 . S
Co531 O533 2.143 . S
Co531 O539 2.074 . S
Co531 O542 2.093 . S
Co531 O555 2.097 . S
Co531 N572 2.151 . S
Co531 N580 2.214 . S
Co532 O533 2.160 . S
Co532 O538 2.058 . S
Co532 O548 2.057 . S
Co532 O563 2.037 . S
Co532 N567 2.145 . S
Co532 N588 2.257 . S
O533 Co531 2.143 . S
O533 Co532 2.160 . S
C534 O535 1.278 . S
C534 O542 1.224 . S
O535 C534 1.278 . S
C536 O537 1.245 . S
C536 O548 1.232 . S
O537 C536 1.245 . S
O538 Co532 2.058 . S
O538 C564 1.269 . S
O539 Co531 2.074 . S
O539 C564 1.257 . S
H540 C565 0.930 . S
H541 C571 0.930 . S
O542 Co531 2.093 . S
O542 C534 1.224 . S
H543 C575 0.929 . S
H544 C577 0.930 . S
H545 C578 0.930 . S
H546 C576 0.929 . S
H547 C579 0.928 . S
O548 Co532 2.057 . S
O548 C536 1.232 . S
H549 C568 0.929 . S
H550 C569 0.929 . S
H551 C581 0.931 1_545 S
H552 C573 0.929 . S
H553 C582 0.930 1_545 S
H554 C574 0.931 . S
O555 Co531 2.097 . S
O555 C583 1.214 . S
H556 C584 0.929 . S
H557 C585 0.929 . S
H558 C586 0.930 . S
H559 C587 0.929 . S
H560 C589 0.930 . S
H561 C566 0.930 . S
H562 C570 0.930 . S
O563 Co532 2.037 . S
O563 C583 1.234 . S
C564 O538 1.269 . S
C564 O539 1.257 . S
C565 H540 0.930 . S
C565 C568 1.388 . S
C565 C570 1.418 . S
C566 H561 0.930 . S
C566 C569 1.404 . S
C566 C570 1.353 . S
N567 Co532 2.145 . S
N567 C568 1.397 . S
N567 C569 1.334 . S
C568 H549 0.929 . S
C568 C565 1.388 . S
C568 N567 1.397 . S
C569 H550 0.929 . S
C569 C566 1.404 . S
C569 N567 1.334 . S
C570 H562 0.930 . S
C570 C565 1.418 . S
C570 C566 1.353 . S
C571 H541 0.930 . S
C571 N572 1.330 . S
C571 C573 1.446 . S
N572 Co531 2.151 . S
N572 C571 1.330 . S
N572 C576 1.418 . S
C573 H552 0.929 . S
C573 C571 1.446 . S
C573 C574 1.332 . S
C574 H554 0.931 . S
C574 C573 1.332 . S
C574 C575 1.267 . S
C575 H543 0.929 . S
C575 C574 1.267 . S
C575 C576 1.251 . S
C576 H546 0.929 . S
C576 N572 1.418 . S
C576 C575 1.251 . S
C577 H544 0.930 . S
C577 C579 1.406 . S
C577 C582 1.261 . S
C578 H545 0.930 . S
C578 N580 1.325 . S
C578 C581 1.357 . S
C579 H547 0.928 . S
C579 C577 1.406 . S
C579 N580 1.261 . S
N580 Co531 2.214 . S
N580 C578 1.325 . S
N580 C579 1.261 . S
C581 H551 0.931 1_565 S
C581 C578 1.357 . S
C581 C582 1.312 . S
C582 H553 0.930 1_565 S
C582 C577 1.261 . S
C582 C581 1.312 . S
C583 O555 1.214 . S
C583 O563 1.234 . S
C584 H556 0.929 . S
C584 C587 1.391 . S
C584 C589 1.391 . S
C585 H557 0.929 . S
C585 C586 1.390 . S
C585 N588 1.391 . S
C586 H558 0.930 . S
C586 C585 1.390 . S
C586 C587 1.392 . S
C587 H559 0.929 . S
C587 C584 1.391 . S
C587 C586 1.392 . S
N588 Co532 2.257 . S
N588 C585 1.391 . S
N588 C589 1.388 . S
C589 H560 0.930 . S
C589 C584 1.391 . S
C589 N588 1.388 . S
Co590 O592 2.143 . S
Co590 O598 2.074 . S
Co590 O601 2.093 1_545 S
Co590 O614 2.097 1_545 S
Co590 N631 2.151 . S
Co590 N639 2.214 1_545 S
Co591 O592 2.160 . S
Co591 O597 2.058 . S
Co591 O607 2.057 . S
Co591 O622 2.037 1_545 S
Co591 N626 2.145 . S
Co591 N647 2.257 1_545 S
O592 Co590 2.143 . S
O592 Co591 2.160 . S
C593 O594 1.278 . S
C593 O601 1.224 . S
O594 C593 1.278 . S
C595 O596 1.245 . S
C595 O607 1.232 . S
O596 C595 1.245 . S
O597 Co591 2.058 . S
O597 C623 1.269 . S
O598 Co590 2.074 . S
O598 C623 1.257 . S
H599 C624 0.930 . S
H600 C630 0.930 . S
O601 Co590 2.093 1_565 S
O601 C593 1.224 . S
H602 C634 0.929 . S
H603 C636 0.930 . S
H604 C637 0.930 . S
H605 C635 0.929 . S
H606 C638 0.927 . S
O607 Co591 2.057 . S
O607 C595 1.232 . S
H608 C627 0.929 . S
H609 C628 0.929 . S
H610 C640 0.931 1_655 S
H611 C632 0.929 . S
H612 C641 0.930 1_655 S
H613 C633 0.931 . S
O614 Co590 2.097 1_565 S
O614 C642 1.214 . S
H615 C643 0.929 . S
H616 C644 0.929 . S
H617 C645 0.930 . S
H618 C646 0.929 . S
H619 C648 0.930 1_545 S
H620 C625 0.930 . S
H621 C629 0.930 . S
O622 Co591 2.037 1_565 S
O622 C642 1.234 . S
C623 O597 1.269 . S
C623 O598 1.257 . S
C624 H599 0.930 . S
C624 C627 1.388 . S
C624 C629 1.418 . S
C625 H620 0.930 . S
C625 C628 1.404 . S
C625 C629 1.353 1_545 S
N626 Co591 2.145 . S
N626 C627 1.397 1_545 S
N626 C628 1.334 . S
C627 H608 0.929 . S
C627 C624 1.388 . S
C627 N626 1.397 1_565 S
C628 H609 0.929 . S
C628 C625 1.404 . S
C628 N626 1.334 . S
C629 H621 0.930 . S
C629 C624 1.418 . S
C629 C625 1.353 1_565 S
C630 H600 0.930 . S
C630 N631 1.330 . S
C630 C632 1.446 . S
N631 Co590 2.151 . S
N631 C630 1.330 . S
N631 C635 1.418 . S
C632 H611 0.929 . S
C632 C630 1.446 . S
C632 C633 1.332 . S
C633 H613 0.931 . S
C633 C632 1.332 . S
C633 C634 1.267 . S
C634 H602 0.929 . S
C634 C633 1.267 . S
C634 C635 1.251 . S
C635 H605 0.929 . S
C635 N631 1.418 . S
C635 C634 1.251 . S
C636 H603 0.930 . S
C636 C638 1.414 1_565 S
C636 C641 1.261 . S
C637 H604 0.930 . S
C637 N639 1.325 . S
C637 C640 1.357 . S
C638 H606 0.927 . S
C638 C636 1.414 1_545 S
C638 N639 1.255 1_545 S
N639 Co590 2.214 1_565 S
N639 C637 1.325 . S
N639 C638 1.255 1_565 S
C640 H610 0.931 1_455 S
C640 C637 1.357 . S
C640 C641 1.312 . S
C641 H612 0.930 1_455 S
C641 C636 1.261 . S
C641 C640 1.312 . S
C642 O614 1.214 . S
C642 O622 1.234 . S
C643 H615 0.929 . S
C643 C646 1.391 . S
C643 C648 1.391 . S
C644 H616 0.929 . S
C644 C645 1.390 . S
C644 N647 1.391 . S
C645 H617 0.930 . S
C645 C644 1.390 . S
C645 C646 1.392 . S
C646 H618 0.929 . S
C646 C643 1.391 . S
C646 C645 1.392 . S
N647 Co591 2.257 1_565 S
N647 C644 1.391 . S
N647 C648 1.388 . S
C648 H619 0.930 1_565 S
C648 C643 1.391 . S
C648 N647 1.388 . S
Co649 O651 2.143 . S
Co649 O657 2.074 . S
Co649 O660 2.093 1_655 S
Co649 O673 2.097 1_655 S
Co649 N690 2.151 . S
Co649 N698 2.214 1_655 S
Co650 O651 2.160 . S
Co650 O656 2.058 . S
Co650 O666 2.057 . S
Co650 O681 2.037 1_655 S
Co650 N685 2.145 . S
Co650 N706 2.257 1_655 S
O651 Co649 2.143 . S
O651 Co650 2.160 . S
C652 O653 1.278 . S
C652 O660 1.224 . S
O653 C652 1.278 . S
C654 O655 1.245 . S
C654 O666 1.232 . S
O655 C654 1.245 . S
O656 Co650 2.058 . S
O656 C682 1.269 . S
O657 Co649 2.074 . S
O657 C682 1.257 . S
H658 C683 0.930 . S
H659 C689 0.930 . S
O660 Co649 2.093 1_455 S
O660 C652 1.224 . S
H661 C693 0.929 . S
H662 C695 0.930 . S
H663 C696 0.930 . S
H664 C694 0.929 . S
H665 C697 0.928 . S
O666 Co650 2.057 . S
O666 C654 1.232 . S
H667 C686 0.929 . S
H668 C687 0.929 . S
H669 C699 0.931 . S
H670 C691 0.929 . S
H671 C700 0.930 . S
H672 C692 0.931 . S
O673 Co649 2.097 1_455 S
O673 C701 1.214 . S
H674 C702 0.929 . S
H675 C703 0.929 . S
H676 C704 0.930 . S
H677 C705 0.929 . S
H678 C707 0.930 1_655 S
H679 C684 0.930 . S
H680 C688 0.930 . S
O681 Co650 2.037 1_455 S
O681 C701 1.234 . S
C682 O656 1.269 . S
C682 O657 1.257 . S
C683 H658 0.930 . S
C683 C686 1.388 . S
C683 C688 1.418 . S
C684 H679 0.930 . S
C684 C687 1.404 . S
C684 C688 1.353 1_655 S
N685 Co650 2.145 . S
N685 C686 1.397 1_655 S
N685 C687 1.334 . S
C686 H667 0.929 . S
C686 C683 1.388 . S
C686 N685 1.397 1_455 S
C687 H668 0.929 . S
C687 C684 1.404 . S
C687 N685 1.334 . S
C688 H680 0.930 . S
C688 C683 1.418 . S
C688 C684 1.353 1_455 S
C689 H659 0.930 . S
C689 N690 1.330 . S
C689 C691 1.446 . S
N690 Co649 2.151 . S
N690 C689 1.330 . S
N690 C694 1.418 . S
C691 H670 0.929 . S
C691 C689 1.446 . S
C691 C692 1.332 . S
C692 H672 0.931 . S
C692 C691 1.332 . S
C692 C693 1.267 . S
C693 H661 0.929 . S
C693 C692 1.267 . S
C693 C694 1.251 . S
C694 H664 0.929 . S
C694 N690 1.418 . S
C694 C693 1.251 . S
C695 H662 0.930 . S
C695 C697 1.406 1_455 S
C695 C700 1.261 . S
C696 H663 0.930 . S
C696 N698 1.325 . S
C696 C699 1.357 . S
C697 H665 0.928 . S
C697 C695 1.406 1_655 S
C697 N698 1.261 1_655 S
N698 Co649 2.214 1_455 S
N698 C696 1.325 . S
N698 C697 1.261 1_455 S
C699 H669 0.931 . S
C699 C696 1.357 . S
C699 C700 1.312 . S
C700 H671 0.930 . S
C700 C695 1.261 . S
C700 C699 1.312 . S
C701 O673 1.214 . S
C701 O681 1.234 . S
C702 H674 0.929 . S
C702 C705 1.391 . S
C702 C707 1.391 . S
C703 H675 0.929 . S
C703 C704 1.390 . S
C703 N706 1.391 . S
C704 H676 0.930 . S
C704 C703 1.390 . S
C704 C705 1.392 . S
C705 H677 0.929 . S
C705 C702 1.391 . S
C705 C704 1.392 . S
N706 Co650 2.257 1_455 S
N706 C703 1.391 . S
N706 C707 1.388 . S
C707 H678 0.930 1_455 S
C707 C702 1.391 . S
C707 N706 1.388 . S
Co708 O710 2.143 . S
Co708 O716 2.074 . S
Co708 O719 2.093 . S
Co708 O732 2.097 . S
Co708 N749 2.151 . S
Co708 N757 2.214 . S
Co709 O710 2.160 . S
Co709 O715 2.058 . S
Co709 O725 2.057 . S
Co709 O740 2.037 . S
Co709 N744 2.145 . S
Co709 N765 2.257 . S
O710 Co708 2.143 . S
O710 Co709 2.160 . S
C711 O712 1.278 . S
C711 O719 1.224 . S
O712 C711 1.278 . S
C713 O714 1.245 . S
C713 O725 1.232 . S
O714 C713 1.245 . S
O715 Co709 2.058 . S
O715 C741 1.269 . S
O716 Co708 2.074 . S
O716 C741 1.257 . S
H717 C742 0.930 . S
H718 C748 0.930 . S
O719 Co708 2.093 . S
O719 C711 1.224 . S
H720 C752 0.929 . S
H721 C754 0.930 . S
H722 C755 0.930 . S
H723 C753 0.929 . S
H724 C756 0.928 . S
O725 Co709 2.057 . S
O725 C713 1.232 . S
H726 C745 0.929 . S
H727 C746 0.929 . S
H728 C758 0.931 . S
H729 C750 0.929 . S
H730 C759 0.930 . S
H731 C751 0.931 . S
O732 Co708 2.097 . S
O732 C760 1.214 . S
H733 C761 0.929 . S
H734 C762 0.929 . S
H735 C763 0.930 . S
H736 C764 0.929 . S
H737 C766 0.930 . S
H738 C743 0.930 . S
H739 C747 0.930 . S
O740 Co709 2.037 . S
O740 C760 1.234 . S
C741 O715 1.269 . S
C741 O716 1.257 . S
C742 H717 0.930 . S
C742 C745 1.388 . S
C742 C747 1.418 . S
C743 H738 0.930 . S
C743 C746 1.404 . S
C743 C747 1.353 . S
N744 Co709 2.145 . S
N744 C745 1.397 . S
N744 C746 1.334 . S
C745 H726 0.929 . S
C745 C742 1.388 . S
C745 N744 1.397 . S
C746 H727 0.929 . S
C746 C743 1.404 . S
C746 N744 1.334 . S
C747 H739 0.930 . S
C747 C742 1.418 . S
C747 C743 1.353 . S
C748 H718 0.930 . S
C748 N749 1.330 . S
C748 C750 1.446 . S
N749 Co708 2.151 . S
N749 C748 1.330 . S
N749 C753 1.418 . S
C750 H729 0.929 . S
C750 C748 1.446 . S
C750 C751 1.332 . S
C751 H731 0.931 . S
C751 C750 1.332 . S
C751 C752 1.267 . S
C752 H720 0.929 . S
C752 C751 1.267 . S
C752 C753 1.251 . S
C753 H723 0.929 . S
C753 N749 1.418 . S
C753 C752 1.251 . S
C754 H721 0.930 . S
C754 C756 1.406 . S
C754 C759 1.261 . S
C755 H722 0.930 . S
C755 N757 1.325 . S
C755 C758 1.357 . S
C756 H724 0.928 . S
C756 C754 1.406 . S
C756 N757 1.261 . S
N757 Co708 2.214 . S
N757 C755 1.325 . S
N757 C756 1.261 . S
C758 H728 0.931 . S
C758 C755 1.357 . S
C758 C759 1.312 . S
C759 H730 0.930 . S
C759 C754 1.261 . S
C759 C758 1.312 . S
C760 O732 1.214 . S
C760 O740 1.234 . S
C761 H733 0.929 . S
C761 C764 1.391 . S
C761 C766 1.391 . S
C762 H734 0.929 . S
C762 C763 1.390 . S
C762 N765 1.391 . S
C763 H735 0.930 . S
C763 C762 1.390 . S
C763 C764 1.392 . S
C764 H736 0.929 . S
C764 C761 1.391 . S
C764 C763 1.392 . S
N765 Co709 2.257 . S
N765 C762 1.391 . S
N765 C766 1.388 . S
C766 H737 0.930 . S
C766 C761 1.391 . S
C766 N765 1.388 . S
Co767 O769 2.143 . S
Co767 O775 2.074 . S
Co767 O778 2.093 . S
Co767 O791 2.097 . S
Co767 N808 2.151 . S
Co767 N816 2.214 . S
Co768 O769 2.160 . S
Co768 O774 2.058 . S
Co768 O784 2.057 . S
Co768 O799 2.037 . S
Co768 N803 2.145 . S
Co768 N824 2.257 . S
O769 Co767 2.143 . S
O769 Co768 2.160 . S
C770 O771 1.278 . S
C770 O778 1.224 . S
O771 C770 1.278 . S
C772 O773 1.245 . S
C772 O784 1.232 . S
O773 C772 1.245 . S
O774 Co768 2.058 . S
O774 C800 1.269 . S
O775 Co767 2.074 . S
O775 C800 1.257 . S
H776 C801 0.930 . S
H777 C807 0.930 . S
O778 Co767 2.093 . S
O778 C770 1.224 . S
H779 C811 0.929 . S
H780 C813 0.930 . S
H781 C814 0.930 . S
H782 C812 0.929 . S
H783 C815 0.928 . S
O784 Co768 2.057 . S
O784 C772 1.232 . S
H785 C804 0.929 . S
H786 C805 0.929 . S
H787 C817 0.931 . S
H788 C809 0.929 . S
H789 C818 0.930 . S
H790 C810 0.931 . S
O791 Co767 2.097 . S
O791 C819 1.214 . S
H792 C820 0.929 . S
H793 C821 0.929 . S
H794 C822 0.930 . S
H795 C823 0.929 . S
H796 C825 0.930 . S
H797 C802 0.930 . S
H798 C806 0.930 . S
O799 Co768 2.037 . S
O799 C819 1.234 . S
C800 O774 1.269 . S
C800 O775 1.257 . S
C801 H776 0.930 . S
C801 C804 1.388 . S
C801 C806 1.418 . S
C802 H797 0.930 . S
C802 C805 1.404 . S
C802 C806 1.353 . S
N803 Co768 2.145 . S
N803 C804 1.397 . S
N803 C805 1.334 . S
C804 H785 0.929 . S
C804 C801 1.388 . S
C804 N803 1.397 . S
C805 H786 0.929 . S
C805 C802 1.404 . S
C805 N803 1.334 . S
C806 H798 0.930 . S
C806 C801 1.418 . S
C806 C802 1.353 . S
C807 H777 0.930 . S
C807 N808 1.330 . S
C807 C809 1.446 . S
N808 Co767 2.151 . S
N808 C807 1.330 . S
N808 C812 1.418 . S
C809 H788 0.929 . S
C809 C807 1.446 . S
C809 C810 1.332 . S
C810 H790 0.931 . S
C810 C809 1.332 . S
C810 C811 1.267 . S
C811 H779 0.929 . S
C811 C810 1.267 . S
C811 C812 1.251 . S
C812 H782 0.929 . S
C812 N808 1.418 . S
C812 C811 1.251 . S
C813 H780 0.930 . S
C813 C815 1.406 . S
C813 C818 1.261 . S
C814 H781 0.930 . S
C814 N816 1.325 . S
C814 C817 1.357 . S
C815 H783 0.928 . S
C815 C813 1.406 . S
C815 N816 1.261 . S
N816 Co767 2.214 . S
N816 C814 1.325 . S
N816 C815 1.261 . S
C817 H787 0.931 . S
C817 C814 1.357 . S
C817 C818 1.312 . S
C818 H789 0.930 . S
C818 C813 1.261 . S
C818 C817 1.312 . S
C819 O791 1.214 . S
C819 O799 1.234 . S
C820 H792 0.929 . S
C820 C823 1.391 . S
C820 C825 1.391 . S
C821 H793 0.929 . S
C821 C822 1.390 . S
C821 N824 1.391 . S
C822 H794 0.930 . S
C822 C821 1.390 . S
C822 C823 1.392 . S
C823 H795 0.929 . S
C823 C820 1.391 . S
C823 C822 1.392 . S
N824 Co768 2.257 . S
N824 C821 1.391 . S
N824 C825 1.388 . S
C825 H796 0.930 . S
C825 C820 1.391 . S
C825 N824 1.388 . S
Co826 O828 2.143 . S
Co826 O834 2.074 . S
Co826 O837 2.093 . S
Co826 O850 2.097 . S
Co826 N867 2.151 . S
Co826 N875 2.214 . S
Co827 O828 2.160 . S
Co827 O833 2.058 . S
Co827 O843 2.057 . S
Co827 O858 2.037 . S
Co827 N862 2.145 . S
Co827 N883 2.257 . S
O828 Co826 2.143 . S
O828 Co827 2.160 . S
C829 O830 1.278 . S
C829 O837 1.224 . S
O830 C829 1.278 . S
C831 O832 1.245 . S
C831 O843 1.232 . S
O832 C831 1.245 . S
O833 Co827 2.058 . S
O833 C859 1.269 . S
O834 Co826 2.074 . S
O834 C859 1.257 . S
H835 C860 0.930 . S
H836 C866 0.930 . S
O837 Co826 2.093 . S
O837 C829 1.224 . S
H838 C870 0.929 . S
H839 C872 0.930 . S
H840 C873 0.930 . S
H841 C871 0.929 . S
H842 C874 0.928 . S
O843 Co827 2.057 . S
O843 C831 1.232 . S
H844 C863 0.929 . S
H845 C864 0.929 . S
H846 C876 0.931 . S
H847 C868 0.929 . S
H848 C877 0.930 . S
H849 C869 0.931 . S
O850 Co826 2.097 . S
O850 C878 1.214 . S
H851 C879 0.929 . S
H852 C880 0.929 . S
H853 C881 0.930 . S
H854 C882 0.929 . S
H855 C884 0.930 . S
H856 C861 0.930 . S
H857 C865 0.930 . S
O858 Co827 2.037 . S
O858 C878 1.234 . S
C859 O833 1.269 . S
C859 O834 1.257 . S
C860 H835 0.930 . S
C860 C863 1.388 . S
C860 C865 1.418 . S
C861 H856 0.930 . S
C861 C864 1.404 . S
C861 C865 1.353 . S
N862 Co827 2.145 . S
N862 C863 1.397 . S
N862 C864 1.334 . S
C863 H844 0.929 . S
C863 C860 1.388 . S
C863 N862 1.397 . S
C864 H845 0.929 . S
C864 C861 1.404 . S
C864 N862 1.334 . S
C865 H857 0.930 . S
C865 C860 1.418 . S
C865 C861 1.353 . S
C866 H836 0.930 . S
C866 N867 1.330 . S
C866 C868 1.446 . S
N867 Co826 2.151 . S
N867 C866 1.330 . S
N867 C871 1.418 . S
C868 H847 0.929 . S
C868 C866 1.446 . S
C868 C869 1.332 . S
C869 H849 0.931 . S
C869 C868 1.332 . S
C869 C870 1.267 . S
C870 H838 0.929 . S
C870 C869 1.267 . S
C870 C871 1.251 . S
C871 H841 0.929 . S
C871 N867 1.418 . S
C871 C870 1.251 . S
C872 H839 0.930 . S
C872 C874 1.406 . S
C872 C877 1.261 . S
C873 H840 0.930 . S
C873 N875 1.325 . S
C873 C876 1.357 . S
C874 H842 0.928 . S
C874 C872 1.406 . S
C874 N875 1.261 . S
N875 Co826 2.214 . S
N875 C873 1.325 . S
N875 C874 1.261 . S
C876 H846 0.931 . S
C876 C873 1.357 . S
C876 C877 1.312 . S
C877 H848 0.930 . S
C877 C872 1.261 . S
C877 C876 1.312 . S
C878 O850 1.214 . S
C878 O858 1.234 . S
C879 H851 0.929 . S
C879 C882 1.391 . S
C879 C884 1.391 . S
C880 H852 0.929 . S
C880 C881 1.390 . S
C880 N883 1.391 . S
C881 H853 0.930 . S
C881 C880 1.390 . S
C881 C882 1.392 . S
C882 H854 0.929 . S
C882 C879 1.391 . S
C882 C881 1.392 . S
N883 Co827 2.257 . S
N883 C880 1.391 . S
N883 C884 1.388 . S
C884 H855 0.930 . S
C884 C879 1.391 . S
C884 N883 1.388 . S
Co885 O887 2.143 . S
Co885 O893 2.074 . S
Co885 O896 2.093 . S
Co885 O909 2.097 . S
Co885 N926 2.151 . S
Co885 N934 2.214 . S
Co886 O887 2.160 . S
Co886 O892 2.058 . S
Co886 O902 2.057 . S
Co886 O917 2.037 . S
Co886 N921 2.145 . S
Co886 N942 2.257 . S
O887 Co885 2.143 . S
O887 Co886 2.160 . S
C888 O889 1.278 . S
C888 O896 1.224 . S
O889 C888 1.278 . S
C890 O891 1.245 . S
C890 O902 1.232 . S
O891 C890 1.245 . S
O892 Co886 2.058 . S
O892 C918 1.269 . S
O893 Co885 2.074 . S
O893 C918 1.257 . S
H894 C919 0.930 . S
H895 C925 0.930 . S
O896 Co885 2.093 . S
O896 C888 1.224 . S
H897 C929 0.929 . S
H898 C931 0.930 . S
H899 C932 0.930 . S
H900 C930 0.929 . S
H901 C933 0.928 . S
O902 Co886 2.057 . S
O902 C890 1.232 . S
H903 C922 0.929 . S
H904 C923 0.929 . S
H905 C935 0.931 . S
H906 C927 0.929 . S
H907 C936 0.930 . S
H908 C928 0.931 . S
O909 Co885 2.097 . S
O909 C937 1.214 . S
H910 C938 0.929 . S
H911 C939 0.929 . S
H912 C940 0.930 . S
H913 C941 0.929 1_455 S
H914 C943 0.930 . S
H915 C920 0.930 . S
H916 C924 0.930 . S
O917 Co886 2.037 . S
O917 C937 1.234 . S
C918 O892 1.269 . S
C918 O893 1.257 . S
C919 H894 0.930 . S
C919 C922 1.388 . S
C919 C924 1.418 . S
C920 H915 0.930 . S
C920 C923 1.404 . S
C920 C924 1.353 . S
N921 Co886 2.145 . S
N921 C922 1.397 . S
N921 C923 1.334 . S
C922 H903 0.929 . S
C922 C919 1.388 . S
C922 N921 1.397 . S
C923 H904 0.929 . S
C923 C920 1.404 . S
C923 N921 1.334 . S
C924 H916 0.930 . S
C924 C919 1.418 . S
C924 C920 1.353 . S
C925 H895 0.930 . S
C925 N926 1.330 . S
C925 C927 1.446 . S
N926 Co885 2.151 . S
N926 C925 1.330 . S
N926 C930 1.418 . S
C927 H906 0.929 . S
C927 C925 1.446 . S
C927 C928 1.332 . S
C928 H908 0.931 . S
C928 C927 1.332 . S
C928 C929 1.267 . S
C929 H897 0.929 . S
C929 C928 1.267 . S
C929 C930 1.251 . S
C930 H900 0.929 . S
C930 N926 1.418 . S
C930 C929 1.251 . S
C931 H898 0.930 . S
C931 C933 1.406 . S
C931 C936 1.261 . S
C932 H899 0.930 . S
C932 N934 1.325 . S
C932 C935 1.357 . S
C933 H901 0.928 . S
C933 C931 1.406 . S
C933 N934 1.261 . S
N934 Co885 2.214 . S
N934 C932 1.325 . S
N934 C933 1.261 . S
C935 H905 0.931 . S
C935 C932 1.357 . S
C935 C936 1.312 . S
C936 H907 0.930 . S
C936 C931 1.261 . S
C936 C935 1.312 . S
C937 O909 1.214 . S
C937 O917 1.234 . S
C938 H910 0.929 . S
C938 C941 1.391 . S
C938 C943 1.391 . S
C939 H911 0.929 . S
C939 C940 1.390 . S
C939 N942 1.391 . S
C940 H912 0.930 . S
C940 C939 1.390 . S
C940 C941 1.392 . S
C941 H913 0.929 1_655 S
C941 C938 1.391 . S
C941 C940 1.392 . S
N942 Co886 2.257 . S
N942 C939 1.391 . S
N942 C943 1.388 . S
C943 H914 0.930 . S
C943 C938 1.391 . S
C943 N942 1.388 . S
Co944 O946 2.143 . S
Co944 O952 2.074 . S
Co944 O955 2.093 . S
Co944 O968 2.097 . S
Co944 N985 2.151 . S
Co944 N993 2.214 . S
Co945 O946 2.160 . S
Co945 O951 2.058 . S
Co945 O961 2.057 . S
Co945 O976 2.037 . S
Co945 N980 2.145 . S
Co945 N1001 2.257 . S
O946 Co944 2.143 . S
O946 Co945 2.160 . S
C947 O948 1.278 . S
C947 O955 1.224 . S
O948 C947 1.278 . S
C949 O950 1.245 . S
C949 O961 1.232 . S
O950 C949 1.245 . S
O951 Co945 2.058 . S
O951 C977 1.269 . S
O952 Co944 2.074 . S
O952 C977 1.257 . S
H953 C978 0.930 . S
H954 C984 0.930 . S
O955 Co944 2.093 . S
O955 C947 1.224 . S
H956 C988 0.929 . S
H957 C990 0.930 . S
H958 C991 0.930 . S
H959 C989 0.929 . S
H960 C992 0.928 . S
O961 Co945 2.057 . S
O961 C949 1.232 . S
H962 C981 0.929 . S
H963 C982 0.929 . S
H964 C994 0.931 . S
H965 C986 0.929 . S
H966 C995 0.930 . S
H967 C987 0.931 . S
O968 Co944 2.097 . S
O968 C996 1.214 . S
H969 C997 0.929 . S
H970 C998 0.929 . S
H971 C999 0.930 . S
H972 C1000 0.929 . S
H973 C1002 0.930 . S
H974 C979 0.930 . S
H975 C983 0.930 . S
O976 Co945 2.037 . S
O976 C996 1.234 . S
C977 O951 1.269 . S
C977 O952 1.257 . S
C978 H953 0.930 . S
C978 C981 1.388 . S
C978 C983 1.418 . S
C979 H974 0.930 . S
C979 C982 1.404 . S
C979 C983 1.353 . S
N980 Co945 2.145 . S
N980 C981 1.397 . S
N980 C982 1.334 . S
C981 H962 0.929 . S
C981 C978 1.388 . S
C981 N980 1.397 . S
C982 H963 0.929 . S
C982 C979 1.404 . S
C982 N980 1.334 . S
C983 H975 0.930 . S
C983 C978 1.418 . S
C983 C979 1.353 . S
C984 H954 0.930 . S
C984 N985 1.330 . S
C984 C986 1.446 . S
N985 Co944 2.151 . S
N985 C984 1.330 . S
N985 C989 1.418 . S
C986 H965 0.929 . S
C986 C984 1.446 . S
C986 C987 1.332 . S
C987 H967 0.931 . S
C987 C986 1.332 . S
C987 C988 1.267 . S
C988 H956 0.929 . S
C988 C987 1.267 . S
C988 C989 1.251 . S
C989 H959 0.929 . S
C989 N985 1.418 . S
C989 C988 1.251 . S
C990 H957 0.930 . S
C990 C992 1.406 . S
C990 C995 1.261 . S
C991 H958 0.930 . S
C991 N993 1.325 . S
C991 C994 1.357 . S
C992 H960 0.928 . S
C992 C990 1.406 . S
C992 N993 1.261 . S
N993 Co944 2.214 . S
N993 C991 1.325 . S
N993 C992 1.261 . S
C994 H964 0.931 . S
C994 C991 1.357 . S
C994 C995 1.312 . S
C995 H966 0.930 . S
C995 C990 1.261 . S
C995 C994 1.312 . S
C996 O968 1.214 . S
C996 O976 1.234 . S
C997 H969 0.929 . S
C997 C1000 1.391 . S
C997 C1002 1.391 . S
C998 H970 0.929 . S
C998 C999 1.390 . S
C998 N1001 1.391 . S
C999 H971 0.930 . S
C999 C998 1.390 . S
C999 C1000 1.392 . S
C1000 H972 0.929 . S
C1000 C997 1.391 . S
C1000 C999 1.392 . S
N1001 Co945 2.257 . S
N1001 C998 1.391 . S
N1001 C1002 1.388 . S
C1002 H973 0.930 . S
C1002 C997 1.391 . S
C1002 N1001 1.388 . S
Co1003 O1005 2.143 . S
Co1003 O1011 2.074 . S
Co1003 O1014 2.093 . S
Co1003 O1027 2.097 . S
Co1003 N1044 2.151 . S
Co1003 N1052 2.214 . S
Co1004 O1005 2.160 . S
Co1004 O1010 2.058 . S
Co1004 O1020 2.057 . S
Co1004 O1035 2.037 . S
Co1004 N1039 2.145 . S
Co1004 N1060 2.257 . S
O1005 Co1003 2.143 . S
O1005 Co1004 2.160 . S
C1006 O1007 1.278 . S
C1006 O1014 1.224 . S
O1007 C1006 1.278 . S
C1008 O1009 1.245 . S
C1008 O1020 1.232 . S
O1009 C1008 1.245 . S
O1010 Co1004 2.058 . S
O1010 C1036 1.269 . S
O1011 Co1003 2.074 . S
O1011 C1036 1.257 . S
H1012 C1037 0.930 . S
H1013 C1043 0.930 . S
O1014 Co1003 2.093 . S
O1014 C1006 1.224 . S
H1015 C1047 0.929 . S
H1016 C1049 0.930 . S
H1017 C1050 0.930 . S
H1018 C1048 0.929 . S
H1019 C1051 0.928 . S
O1020 Co1004 2.057 . S
O1020 C1008 1.232 . S
H1021 C1040 0.929 . S
H1022 C1041 0.929 . S
H1023 C1053 0.931 . S
H1024 C1045 0.929 . S
H1025 C1054 0.930 . S
H1026 C1046 0.931 . S
O1027 Co1003 2.097 . S
O1027 C1055 1.214 . S
H1028 C1056 0.929 . S
H1029 C1057 0.929 . S
H1030 C1058 0.930 . S
H1031 C1059 0.929 . S
H1032 C1061 0.930 . S
H1033 C1038 0.930 . S
H1034 C1042 0.930 . S
O1035 Co1004 2.037 . S
O1035 C1055 1.234 . S
C1036 O1010 1.269 . S
C1036 O1011 1.257 . S
C1037 H1012 0.930 . S
C1037 C1040 1.388 . S
C1037 C1042 1.418 . S
C1038 H1033 0.930 . S
C1038 C1041 1.404 . S
C1038 C1042 1.353 . S
N1039 Co1004 2.145 . S
N1039 C1040 1.397 . S
N1039 C1041 1.334 . S
C1040 H1021 0.929 . S
C1040 C1037 1.388 . S
C1040 N1039 1.397 . S
C1041 H1022 0.929 . S
C1041 C1038 1.404 . S
C1041 N1039 1.334 . S
C1042 H1034 0.930 . S
C1042 C1037 1.418 . S
C1042 C1038 1.353 . S
C1043 H1013 0.930 . S
C1043 N1044 1.330 . S
C1043 C1045 1.446 . S
N1044 Co1003 2.151 . S
N1044 C1043 1.330 . S
N1044 C1048 1.418 . S
C1045 H1024 0.929 . S
C1045 C1043 1.446 . S
C1045 C1046 1.332 . S
C1046 H1026 0.931 . S
C1046 C1045 1.332 . S
C1046 C1047 1.267 . S
C1047 H1015 0.929 . S
C1047 C1046 1.267 . S
C1047 C1048 1.251 . S
C1048 H1018 0.929 . S
C1048 N1044 1.418 . S
C1048 C1047 1.251 . S
C1049 H1016 0.930 . S
C1049 C1051 1.406 . S
C1049 C1054 1.261 . S
C1050 H1017 0.930 . S
C1050 N1052 1.325 . S
C1050 C1053 1.357 . S
C1051 H1019 0.928 . S
C1051 C1049 1.406 . S
C1051 N1052 1.261 . S
N1052 Co1003 2.214 . S
N1052 C1050 1.325 . S
N1052 C1051 1.261 . S
C1053 H1023 0.931 . S
C1053 C1050 1.357 . S
C1053 C1054 1.312 . S
C1054 H1025 0.930 . S
C1054 C1049 1.261 . S
C1054 C1053 1.312 . S
C1055 O1027 1.214 . S
C1055 O1035 1.234 . S
C1056 H1028 0.929 . S
C1056 C1059 1.391 . S
C1056 C1061 1.391 . S
C1057 H1029 0.929 . S
C1057 C1058 1.390 . S
C1057 N1060 1.391 . S
C1058 H1030 0.930 . S
C1058 C1057 1.390 . S
C1058 C1059 1.392 . S
C1059 H1031 0.929 . S
C1059 C1056 1.391 . S
C1059 C1058 1.392 . S
N1060 Co1004 2.257 . S
N1060 C1057 1.391 . S
N1060 C1061 1.388 . S
C1061 H1032 0.930 . S
C1061 C1056 1.391 . S
C1061 N1060 1.388 . S
Co1062 O1064 2.143 . S
Co1062 O1070 2.074 . S
Co1062 O1073 2.093 . S
Co1062 O1086 2.097 . S
Co1062 N1103 2.151 . S
Co1062 N1111 2.214 . S
Co1063 O1064 2.160 . S
Co1063 O1069 2.058 . S
Co1063 O1079 2.057 . S
Co1063 O1094 2.037 . S
Co1063 N1098 2.145 . S
Co1063 N1119 2.257 . S
O1064 Co1062 2.143 . S
O1064 Co1063 2.160 . S
C1065 O1066 1.278 . S
C1065 O1073 1.224 . S
O1066 C1065 1.278 . S
C1067 O1068 1.245 . S
C1067 O1079 1.232 . S
O1068 C1067 1.245 . S
O1069 Co1063 2.058 . S
O1069 C1095 1.269 . S
O1070 Co1062 2.074 . S
O1070 C1095 1.257 . S
H1071 C1096 0.930 . S
H1072 C1102 0.930 . S
O1073 Co1062 2.093 . S
O1073 C1065 1.224 . S
H1074 C1106 0.929 . S
H1075 C1108 0.930 . S
H1076 C1109 0.930 . S
H1077 C1107 0.929 . S
H1078 C1110 0.928 . S
O1079 Co1063 2.057 . S
O1079 C1067 1.232 . S
H1080 C1099 0.929 . S
H1081 C1100 0.929 . S
H1082 C1112 0.931 . S
H1083 C1104 0.929 . S
H1084 C1113 0.930 . S
H1085 C1105 0.931 . S
O1086 Co1062 2.097 . S
O1086 C1114 1.214 . S
H1087 C1115 0.929 . S
H1088 C1116 0.929 . S
H1089 C1117 0.930 . S
H1090 C1118 0.929 1_565 S
H1091 C1120 0.930 . S
H1092 C1097 0.930 . S
H1093 C1101 0.930 . S
O1094 Co1063 2.037 . S
O1094 C1114 1.234 . S
C1095 O1069 1.269 . S
C1095 O1070 1.257 . S
C1096 H1071 0.930 . S
C1096 C1099 1.388 . S
C1096 C1101 1.418 . S
C1097 H1092 0.930 . S
C1097 C1100 1.404 . S
C1097 C1101 1.353 . S
N1098 Co1063 2.145 . S
N1098 C1099 1.397 . S
N1098 C1100 1.334 . S
C1099 H1080 0.929 . S
C1099 C1096 1.388 . S
C1099 N1098 1.397 . S
C1100 H1081 0.929 . S
C1100 C1097 1.404 . S
C1100 N1098 1.334 . S
C1101 H1093 0.930 . S
C1101 C1096 1.418 . S
C1101 C1097 1.353 . S
C1102 H1072 0.930 . S
C1102 N1103 1.330 . S
C1102 C1104 1.446 . S
N1103 Co1062 2.151 . S
N1103 C1102 1.330 . S
N1103 C1107 1.418 . S
C1104 H1083 0.929 . S
C1104 C1102 1.446 . S
C1104 C1105 1.332 . S
C1105 H1085 0.931 . S
C1105 C1104 1.332 . S
C1105 C1106 1.267 . S
C1106 H1074 0.929 . S
C1106 C1105 1.267 . S
C1106 C1107 1.251 . S
C1107 H1077 0.929 . S
C1107 N1103 1.418 . S
C1107 C1106 1.251 . S
C1108 H1075 0.930 . S
C1108 C1110 1.406 . S
C1108 C1113 1.261 . S
C1109 H1076 0.930 . S
C1109 N1111 1.325 . S
C1109 C1112 1.357 . S
C1110 H1078 0.928 . S
C1110 C1108 1.406 . S
C1110 N1111 1.261 . S
N1111 Co1062 2.214 . S
N1111 C1109 1.325 . S
N1111 C1110 1.261 . S
C1112 H1082 0.931 . S
C1112 C1109 1.357 . S
C1112 C1113 1.312 . S
C1113 H1084 0.930 . S
C1113 C1108 1.261 . S
C1113 C1112 1.312 . S
C1114 O1086 1.214 . S
C1114 O1094 1.234 . S
C1115 H1087 0.929 . S
C1115 C1118 1.391 . S
C1115 C1120 1.391 . S
C1116 H1088 0.929 . S
C1116 C1117 1.390 . S
C1116 N1119 1.391 . S
C1117 H1089 0.930 . S
C1117 C1116 1.390 . S
C1117 C1118 1.392 . S
C1118 H1090 0.929 1_545 S
C1118 C1115 1.391 . S
C1118 C1117 1.392 . S
N1119 Co1063 2.257 . S
N1119 C1116 1.391 . S
N1119 C1120 1.388 . S
C1120 H1091 0.930 . S
C1120 C1115 1.391 . S
C1120 N1119 1.388 . S
Co1121 O1123 2.143 . S
Co1121 O1129 2.074 . S
Co1121 O1132 2.093 . S
Co1121 O1145 2.097 . S
Co1121 N1162 2.151 . S
Co1121 N1170 2.214 . S
Co1122 O1123 2.160 . S
Co1122 O1128 2.058 . S
Co1122 O1138 2.057 . S
Co1122 O1153 2.037 . S
Co1122 N1157 2.145 . S
Co1122 N1178 2.257 . S
O1123 Co1121 2.143 . S
O1123 Co1122 2.160 . S
C1124 O1125 1.278 . S
C1124 O1132 1.224 . S
O1125 C1124 1.278 . S
C1126 O1127 1.245 . S
C1126 O1138 1.232 . S
O1127 C1126 1.245 . S
O1128 Co1122 2.058 . S
O1128 C1154 1.269 . S
O1129 Co1121 2.074 . S
O1129 C1154 1.257 . S
H1130 C1155 0.930 . S
H1131 C1161 0.930 . S
O1132 Co1121 2.093 . S
O1132 C1124 1.224 . S
H1133 C1165 0.929 . S
H1134 C1167 0.930 . S
H1135 C1168 0.930 . S
H1136 C1166 0.929 . S
H1137 C1169 0.928 . S
O1138 Co1122 2.057 . S
O1138 C1126 1.232 . S
H1139 C1158 0.929 . S
H1140 C1159 0.929 . S
H1141 C1171 0.931 . S
H1142 C1163 0.929 . S
H1143 C1172 0.930 . S
H1144 C1164 0.931 . S
O1145 Co1121 2.097 . S
O1145 C1173 1.214 . S
H1146 C1174 0.929 . S
H1147 C1175 0.929 . S
H1148 C1176 0.930 . S
H1149 C1177 0.929 1_455 S
H1150 C1179 0.930 . S
H1151 C1156 0.930 . S
H1152 C1160 0.930 . S
O1153 Co1122 2.037 . S
O1153 C1173 1.234 . S
C1154 O1128 1.269 . S
C1154 O1129 1.257 . S
C1155 H1130 0.930 . S
C1155 C1158 1.388 . S
C1155 C1160 1.418 . S
C1156 H1151 0.930 . S
C1156 C1159 1.404 . S
C1156 C1160 1.353 . S
N1157 Co1122 2.145 . S
N1157 C1158 1.397 . S
N1157 C1159 1.334 . S
C1158 H1139 0.929 . S
C1158 C1155 1.388 . S
C1158 N1157 1.397 . S
C1159 H1140 0.929 . S
C1159 C1156 1.404 . S
C1159 N1157 1.334 . S
C1160 H1152 0.930 . S
C1160 C1155 1.418 . S
C1160 C1156 1.353 . S
C1161 H1131 0.930 . S
C1161 N1162 1.330 . S
C1161 C1163 1.446 . S
N1162 Co1121 2.151 . S
N1162 C1161 1.330 . S
N1162 C1166 1.418 . S
C1163 H1142 0.929 . S
C1163 C1161 1.446 . S
C1163 C1164 1.332 . S
C1164 H1144 0.931 . S
C1164 C1163 1.332 . S
C1164 C1165 1.267 . S
C1165 H1133 0.929 . S
C1165 C1164 1.267 . S
C1165 C1166 1.251 . S
C1166 H1136 0.929 . S
C1166 N1162 1.418 . S
C1166 C1165 1.251 . S
C1167 H1134 0.930 . S
C1167 C1169 1.406 . S
C1167 C1172 1.261 . S
C1168 H1135 0.930 . S
C1168 N1170 1.325 . S
C1168 C1171 1.357 . S
C1169 H1137 0.928 . S
C1169 C1167 1.406 . S
C1169 N1170 1.261 . S
N1170 Co1121 2.214 . S
N1170 C1168 1.325 . S
N1170 C1169 1.261 . S
C1171 H1141 0.931 . S
C1171 C1168 1.357 . S
C1171 C1172 1.312 . S
C1172 H1143 0.930 . S
C1172 C1167 1.261 . S
C1172 C1171 1.312 . S
C1173 O1145 1.214 . S
C1173 O1153 1.234 . S
C1174 H1146 0.929 . S
C1174 C1177 1.391 . S
C1174 C1179 1.391 . S
C1175 H1147 0.929 . S
C1175 C1176 1.390 . S
C1175 N1178 1.391 . S
C1176 H1148 0.930 . S
C1176 C1175 1.390 . S
C1176 C1177 1.392 . S
C1177 H1149 0.929 1_655 S
C1177 C1174 1.391 . S
C1177 C1176 1.392 . S
N1178 Co1122 2.257 . S
N1178 C1175 1.391 . S
N1178 C1179 1.388 . S
C1179 H1150 0.930 . S
C1179 C1174 1.391 . S
C1179 N1178 1.388 . S
Co1180 O1182 2.143 . S
Co1180 O1188 2.074 . S
Co1180 O1191 2.093 . S
Co1180 O1204 2.097 . S
Co1180 N1221 2.151 . S
Co1180 N1229 2.214 . S
Co1181 O1182 2.160 . S
Co1181 O1187 2.058 . S
Co1181 O1197 2.057 . S
Co1181 O1212 2.037 . S
Co1181 N1216 2.145 . S
Co1181 N1237 2.257 . S
O1182 Co1180 2.143 . S
O1182 Co1181 2.160 . S
C1183 O1184 1.278 . S
C1183 O1191 1.224 . S
O1184 C1183 1.278 . S
C1185 O1186 1.245 . S
C1185 O1197 1.232 . S
O1186 C1185 1.245 . S
O1187 Co1181 2.058 . S
O1187 C1213 1.269 . S
O1188 Co1180 2.074 . S
O1188 C1213 1.257 . S
H1189 C1214 0.930 . S
H1190 C1220 0.930 . S
O1191 Co1180 2.093 . S
O1191 C1183 1.224 . S
H1192 C1224 0.929 . S
H1193 C1226 0.930 . S
H1194 C1227 0.930 . S
H1195 C1225 0.929 . S
H1196 C1228 0.928 . S
O1197 Co1181 2.057 . S
O1197 C1185 1.232 . S
H1198 C1217 0.929 . S
H1199 C1218 0.929 . S
H1200 C1230 0.931 . S
H1201 C1222 0.929 . S
H1202 C1231 0.930 . S
H1203 C1223 0.931 . S
O1204 Co1180 2.097 . S
O1204 C1232 1.214 . S
H1205 C1233 0.929 . S
H1206 C1234 0.929 . S
H1207 C1235 0.930 . S
H1208 C1236 0.929 . S
H1209 C1238 0.930 . S
H1210 C1215 0.930 . S
H1211 C1219 0.930 . S
O1212 Co1181 2.037 . S
O1212 C1232 1.234 . S
C1213 O1187 1.269 . S
C1213 O1188 1.257 . S
C1214 H1189 0.930 . S
C1214 C1217 1.388 . S
C1214 C1219 1.418 . S
C1215 H1210 0.930 . S
C1215 C1218 1.404 . S
C1215 C1219 1.353 . S
N1216 Co1181 2.145 . S
N1216 C1217 1.397 . S
N1216 C1218 1.334 . S
C1217 H1198 0.929 . S
C1217 C1214 1.388 . S
C1217 N1216 1.397 . S
C1218 H1199 0.929 . S
C1218 C1215 1.404 . S
C1218 N1216 1.334 . S
C1219 H1211 0.930 . S
C1219 C1214 1.418 . S
C1219 C1215 1.353 . S
C1220 H1190 0.930 . S
C1220 N1221 1.330 . S
C1220 C1222 1.446 . S
N1221 Co1180 2.151 . S
N1221 C1220 1.330 . S
N1221 C1225 1.418 . S
C1222 H1201 0.929 . S
C1222 C1220 1.446 . S
C1222 C1223 1.332 . S
C1223 H1203 0.931 . S
C1223 C1222 1.332 . S
C1223 C1224 1.267 . S
C1224 H1192 0.929 . S
C1224 C1223 1.267 . S
C1224 C1225 1.251 . S
C1225 H1195 0.929 . S
C1225 N1221 1.418 . S
C1225 C1224 1.251 . S
C1226 H1193 0.930 . S
C1226 C1228 1.406 . S
C1226 C1231 1.261 . S
C1227 H1194 0.930 . S
C1227 N1229 1.325 . S
C1227 C1230 1.357 . S
C1228 H1196 0.928 . S
C1228 C1226 1.406 . S
C1228 N1229 1.261 . S
N1229 Co1180 2.214 . S
N1229 C1227 1.325 . S
N1229 C1228 1.261 . S
C1230 H1200 0.931 . S
C1230 C1227 1.357 . S
C1230 C1231 1.312 . S
C1231 H1202 0.930 . S
C1231 C1226 1.261 . S
C1231 C1230 1.312 . S
C1232 O1204 1.214 . S
C1232 O1212 1.234 . S
C1233 H1205 0.929 . S
C1233 C1236 1.391 . S
C1233 C1238 1.391 . S
C1234 H1206 0.929 . S
C1234 C1235 1.390 . S
C1234 N1237 1.391 . S
C1235 H1207 0.930 . S
C1235 C1234 1.390 . S
C1235 C1236 1.392 . S
C1236 H1208 0.929 . S
C1236 C1233 1.391 . S
C1236 C1235 1.392 . S
N1237 Co1181 2.257 . S
N1237 C1234 1.391 . S
N1237 C1238 1.388 . S
C1238 H1209 0.930 . S
C1238 C1233 1.391 . S
C1238 N1237 1.388 . S
Co1239 O1241 2.143 . S
Co1239 O1247 2.074 . S
Co1239 O1250 2.093 . S
Co1239 O1263 2.097 . S
Co1239 N1280 2.151 . S
Co1239 N1288 2.214 . S
Co1240 O1241 2.160 1_556 S
Co1240 O1246 2.058 . S
Co1240 O1256 2.057 . S
Co1240 O1271 2.037 . S
Co1240 N1275 2.145 . S
Co1240 N1296 2.257 . S
O1241 Co1239 2.143 . S
O1241 Co1240 2.160 1_554 S
C1242 O1243 1.278 . S
C1242 O1250 1.224 . S
O1243 C1242 1.278 . S
C1244 O1245 1.245 1_556 S
C1244 O1256 1.232 . S
O1245 C1244 1.245 1_554 S
O1246 Co1240 2.058 . S
O1246 C1272 1.267 . S
O1247 Co1239 2.074 . S
O1247 C1272 1.261 1_554 S
H1248 C1273 0.930 . S
H1249 C1279 0.930 . S
O1250 Co1239 2.093 . S
O1250 C1242 1.224 . S
H1251 C1283 0.929 . S
H1252 C1285 0.930 . S
H1253 C1286 0.930 . S
H1254 C1284 0.929 . S
H1255 C1287 0.928 . S
O1256 Co1240 2.057 . S
O1256 C1244 1.232 . S
H1257 C1276 0.929 . S
H1258 C1277 0.929 . S
H1259 C1289 0.931 . S
H1260 C1281 0.929 . S
H1261 C1290 0.930 . S
H1262 C1282 0.931 . S
O1263 Co1239 2.097 . S
O1263 C1291 1.214 . S
H1264 C1292 0.929 . S
H1265 C1293 0.929 . S
H1266 C1294 0.930 . S
H1267 C1295 0.929 1_554 S
H1268 C1297 0.930 . S
H1269 C1274 0.930 . S
H1270 C1278 0.930 . S
O1271 Co1240 2.037 . S
O1271 C1291 1.234 1_556 S
C1272 O1246 1.267 . S
C1272 O1247 1.261 1_556 S
C1273 H1248 0.930 . S
C1273 C1276 1.388 . S
C1273 C1278 1.418 . S
C1274 H1269 0.930 . S
C1274 C1277 1.404 . S
C1274 C1278 1.353 . S
N1275 Co1240 2.145 . S
N1275 C1276 1.397 . S
N1275 C1277 1.334 . S
C1276 H1257 0.929 . S
C1276 C1273 1.388 . S
C1276 N1275 1.397 . S
C1277 H1258 0.929 . S
C1277 C1274 1.404 . S
C1277 N1275 1.334 . S
C1278 H1270 0.930 . S
C1278 C1273 1.418 . S
C1278 C1274 1.353 . S
C1279 H1249 0.930 . S
C1279 N1280 1.330 . S
C1279 C1281 1.446 . S
N1280 Co1239 2.151 . S
N1280 C1279 1.330 . S
N1280 C1284 1.418 . S
C1281 H1260 0.929 . S
C1281 C1279 1.446 . S
C1281 C1282 1.332 . S
C1282 H1262 0.931 . S
C1282 C1281 1.332 . S
C1282 C1283 1.267 . S
C1283 H1251 0.929 . S
C1283 C1282 1.267 . S
C1283 C1284 1.251 . S
C1284 H1254 0.929 . S
C1284 N1280 1.418 . S
C1284 C1283 1.251 . S
C1285 H1252 0.930 . S
C1285 C1287 1.406 . S
C1285 C1290 1.261 . S
C1286 H1253 0.930 . S
C1286 N1288 1.325 . S
C1286 C1289 1.357 . S
C1287 H1255 0.928 . S
C1287 C1285 1.406 . S
C1287 N1288 1.261 . S
N1288 Co1239 2.214 . S
N1288 C1286 1.325 . S
N1288 C1287 1.261 . S
C1289 H1259 0.931 . S
C1289 C1286 1.357 . S
C1289 C1290 1.312 . S
C1290 H1261 0.930 . S
C1290 C1285 1.261 . S
C1290 C1289 1.312 . S
C1291 O1263 1.214 . S
C1291 O1271 1.234 1_554 S
C1292 H1264 0.929 . S
C1292 C1295 1.391 1_554 S
C1292 C1297 1.391 . S
C1293 H1265 0.929 . S
C1293 C1294 1.390 . S
C1293 N1296 1.391 . S
C1294 H1266 0.930 . S
C1294 C1293 1.390 . S
C1294 C1295 1.392 . S
C1295 H1267 0.929 1_556 S
C1295 C1292 1.391 1_556 S
C1295 C1294 1.392 . S
N1296 Co1240 2.257 . S
N1296 C1293 1.391 . S
N1296 C1297 1.388 1_556 S
C1297 H1268 0.930 . S
C1297 C1292 1.391 . S
C1297 N1296 1.388 1_554 S
Co1298 O1300 2.143 . S
Co1298 O1306 2.074 . S
Co1298 O1309 2.093 . S
Co1298 O1322 2.097 . S
Co1298 N1339 2.151 . S
Co1298 N1347 2.214 . S
Co1299 O1300 2.160 1_556 S
Co1299 O1305 2.058 . S
Co1299 O1315 2.057 . S
Co1299 O1330 2.037 . S
Co1299 N1334 2.145 . S
Co1299 N1355 2.257 . S
O1300 Co1298 2.143 . S
O1300 Co1299 2.160 1_554 S
C1301 O1302 1.278 . S
C1301 O1309 1.224 . S
O1302 C1301 1.278 . S
C1303 O1304 1.245 1_556 S
C1303 O1315 1.232 . S
O1304 C1303 1.245 1_554 S
O1305 Co1299 2.058 . S
O1305 C1331 1.269 . S
O1306 Co1298 2.074 . S
O1306 C1331 1.258 1_554 S
H1307 C1332 0.930 . S
H1308 C1338 0.930 . S
O1309 Co1298 2.093 . S
O1309 C1301 1.224 . S
H1310 C1342 0.929 . S
H1311 C1344 0.930 . S
H1312 C1345 0.930 . S
H1313 C1343 0.929 . S
H1314 C1346 0.928 . S
O1315 Co1299 2.057 . S
O1315 C1303 1.232 . S
H1316 C1335 0.929 . S
H1317 C1336 0.929 . S
H1318 C1348 0.931 . S
H1319 C1340 0.929 . S
H1320 C1349 0.930 . S
H1321 C1341 0.931 . S
O1322 Co1298 2.097 . S
O1322 C1350 1.214 . S
H1323 C1351 0.929 . S
H1324 C1352 0.929 . S
H1325 C1353 0.930 . S
H1326 C1354 0.930 1_554 S
H1327 C1356 0.930 . S
H1328 C1333 0.930 . S
H1329 C1337 0.930 . S
O1330 Co1299 2.037 . S
O1330 C1350 1.234 1_556 S
C1331 O1305 1.269 . S
C1331 O1306 1.258 1_556 S
C1332 H1307 0.930 . S
C1332 C1335 1.388 . S
C1332 C1337 1.418 . S
C1333 H1328 0.930 . S
C1333 C1336 1.404 . S
C1333 C1337 1.353 . S
N1334 Co1299 2.145 . S
N1334 C1335 1.397 . S
N1334 C1336 1.334 . S
C1335 H1316 0.929 . S
C1335 C1332 1.388 . S
C1335 N1334 1.397 . S
C1336 H1317 0.929 . S
C1336 C1333 1.404 . S
C1336 N1334 1.334 . S
C1337 H1329 0.930 . S
C1337 C1332 1.418 . S
C1337 C1333 1.353 . S
C1338 H1308 0.930 . S
C1338 N1339 1.330 . S
C1338 C1340 1.446 . S
N1339 Co1298 2.151 . S
N1339 C1338 1.330 . S
N1339 C1343 1.418 . S
C1340 H1319 0.929 . S
C1340 C1338 1.446 . S
C1340 C1341 1.332 . S
C1341 H1321 0.931 . S
C1341 C1340 1.332 . S
C1341 C1342 1.267 . S
C1342 H1310 0.929 . S
C1342 C1341 1.267 . S
C1342 C1343 1.251 . S
C1343 H1313 0.929 . S
C1343 N1339 1.418 . S
C1343 C1342 1.251 . S
C1344 H1311 0.930 . S
C1344 C1346 1.406 . S
C1344 C1349 1.261 . S
C1345 H1312 0.930 . S
C1345 N1347 1.325 . S
C1345 C1348 1.357 . S
C1346 H1314 0.928 . S
C1346 C1344 1.406 . S
C1346 N1347 1.261 . S
N1347 Co1298 2.214 . S
N1347 C1345 1.325 . S
N1347 C1346 1.261 . S
C1348 H1318 0.931 . S
C1348 C1345 1.357 . S
C1348 C1349 1.312 . S
C1349 H1320 0.930 . S
C1349 C1344 1.261 . S
C1349 C1348 1.312 . S
C1350 O1322 1.214 . S
C1350 O1330 1.234 1_554 S
C1351 H1323 0.929 . S
C1351 C1354 1.391 1_554 S
C1351 C1356 1.391 . S
C1352 H1324 0.929 . S
C1352 C1353 1.390 . S
C1352 N1355 1.391 . S
C1353 H1325 0.930 . S
C1353 C1352 1.390 . S
C1353 C1354 1.392 . S
C1354 H1326 0.930 1_556 S
C1354 C1351 1.391 1_556 S
C1354 C1353 1.392 . S
N1355 Co1299 2.257 . S
N1355 C1352 1.391 . S
N1355 C1356 1.388 1_556 S
C1356 H1327 0.930 . S
C1356 C1351 1.391 . S
C1356 N1355 1.388 1_554 S
Co1357 O1359 2.143 . S
Co1357 O1365 2.074 . S
Co1357 O1368 2.093 . S
Co1357 O1381 2.097 . S
Co1357 N1398 2.151 . S
Co1357 N1406 2.214 . S
Co1358 O1359 2.160 1_556 S
Co1358 O1364 2.058 . S
Co1358 O1374 2.057 . S
Co1358 O1389 2.037 . S
Co1358 N1393 2.145 . S
Co1358 N1414 2.257 . S
O1359 Co1357 2.143 . S
O1359 Co1358 2.160 1_554 S
C1360 O1361 1.278 . S
C1360 O1368 1.224 . S
O1361 C1360 1.278 . S
C1362 O1363 1.245 1_556 S
C1362 O1374 1.232 . S
O1363 C1362 1.245 1_554 S
O1364 Co1358 2.058 . S
O1364 C1390 1.269 . S
O1365 Co1357 2.074 . S
O1365 C1390 1.258 1_554 S
H1366 C1391 0.930 . S
H1367 C1397 0.930 . S
O1368 Co1357 2.093 . S
O1368 C1360 1.224 . S
H1369 C1401 0.929 . S
H1370 C1403 0.930 . S
H1371 C1404 0.930 . S
H1372 C1402 0.929 . S
H1373 C1405 0.928 . S
O1374 Co1358 2.057 . S
O1374 C1362 1.232 . S
H1375 C1394 0.929 . S
H1376 C1395 0.929 . S
H1377 C1407 0.931 . S
H1378 C1399 0.929 . S
H1379 C1408 0.930 . S
H1380 C1400 0.931 . S
O1381 Co1357 2.097 . S
O1381 C1409 1.214 . S
H1382 C1410 0.929 . S
H1383 C1411 0.929 . S
H1384 C1412 0.930 . S
H1385 C1413 0.928 . S
H1386 C1415 0.930 . S
H1387 C1392 0.930 . S
H1388 C1396 0.930 . S
O1389 Co1358 2.037 . S
O1389 C1409 1.234 1_556 S
C1390 O1364 1.269 . S
C1390 O1365 1.258 1_556 S
C1391 H1366 0.930 . S
C1391 C1394 1.388 . S
C1391 C1396 1.418 . S
C1392 H1387 0.930 . S
C1392 C1395 1.404 . S
C1392 C1396 1.353 . S
N1393 Co1358 2.145 . S
N1393 C1394 1.397 . S
N1393 C1395 1.334 . S
C1394 H1375 0.929 . S
C1394 C1391 1.388 . S
C1394 N1393 1.397 . S
C1395 H1376 0.929 . S
C1395 C1392 1.404 . S
C1395 N1393 1.334 . S
C1396 H1388 0.930 . S
C1396 C1391 1.418 . S
C1396 C1392 1.353 . S
C1397 H1367 0.930 . S
C1397 N1398 1.330 . S
C1397 C1399 1.446 . S
N1398 Co1357 2.151 . S
N1398 C1397 1.330 . S
N1398 C1402 1.418 . S
C1399 H1378 0.929 . S
C1399 C1397 1.446 . S
C1399 C1400 1.332 . S
C1400 H1380 0.931 . S
C1400 C1399 1.332 . S
C1400 C1401 1.267 . S
C1401 H1369 0.929 . S
C1401 C1400 1.267 . S
C1401 C1402 1.251 . S
C1402 H1372 0.929 . S
C1402 N1398 1.418 . S
C1402 C1401 1.251 . S
C1403 H1370 0.930 . S
C1403 C1405 1.406 . S
C1403 C1408 1.261 . S
C1404 H1371 0.930 . S
C1404 N1406 1.325 . S
C1404 C1407 1.357 . S
C1405 H1373 0.928 . S
C1405 C1403 1.406 . S
C1405 N1406 1.261 . S
N1406 Co1357 2.214 . S
N1406 C1404 1.325 . S
N1406 C1405 1.261 . S
C1407 H1377 0.931 . S
C1407 C1404 1.357 . S
C1407 C1408 1.312 . S
C1408 H1379 0.930 . S
C1408 C1403 1.261 . S
C1408 C1407 1.312 . S
C1409 O1381 1.214 . S
C1409 O1389 1.234 1_554 S
C1410 H1382 0.929 . S
C1410 C1413 1.391 1_554 S
C1410 C1415 1.391 . S
C1411 H1383 0.929 . S
C1411 C1412 1.390 . S
C1411 N1414 1.391 . S
C1412 H1384 0.930 . S
C1412 C1411 1.390 . S
C1412 C1413 1.392 . S
C1413 H1385 0.928 . S
C1413 C1410 1.391 1_556 S
C1413 C1412 1.392 . S
N1414 Co1358 2.257 . S
N1414 C1411 1.391 . S
N1414 C1415 1.388 1_556 S
C1415 H1386 0.930 . S
C1415 C1410 1.391 . S
C1415 N1414 1.388 1_554 S
Co1416 O1418 2.143 . S
Co1416 O1424 2.074 . S
Co1416 O1427 2.093 . S
Co1416 O1440 2.097 . S
Co1416 N1457 2.151 . S
Co1416 N1465 2.214 . S
Co1417 O1418 2.160 . S
Co1417 O1423 2.058 . S
Co1417 O1433 2.057 . S
Co1417 O1448 2.037 . S
Co1417 N1452 2.145 . S
Co1417 N1473 2.257 . S
O1418 Co1416 2.143 . S
O1418 Co1417 2.160 . S
C1419 O1420 1.278 . S
C1419 O1427 1.224 . S
O1420 C1419 1.278 . S
C1421 O1422 1.245 . S
C1421 O1433 1.232 . S
O1422 C1421 1.245 . S
O1423 Co1417 2.058 . S
O1423 C1449 1.269 . S
O1424 Co1416 2.074 . S
O1424 C1449 1.257 . S
H1425 C1450 0.930 . S
H1426 C1456 0.930 . S
O1427 Co1416 2.093 . S
O1427 C1419 1.224 . S
H1428 C1460 0.929 . S
H1429 C1462 0.930 . S
H1430 C1463 0.930 . S
H1431 C1461 0.929 . S
H1432 C1464 0.928 . S
O1433 Co1417 2.057 . S
O1433 C1421 1.232 . S
H1434 C1453 0.929 . S
H1435 C1454 0.929 . S
H1436 C1466 0.931 . S
H1437 C1458 0.929 . S
H1438 C1467 0.930 . S
H1439 C1459 0.931 . S
O1440 Co1416 2.097 . S
O1440 C1468 1.214 . S
H1441 C1469 0.929 . S
H1442 C1470 0.929 . S
H1443 C1471 0.930 . S
H1444 C1472 0.929 . S
H1445 C1474 0.930 . S
H1446 C1451 0.930 . S
H1447 C1455 0.930 . S
O1448 Co1417 2.037 . S
O1448 C1468 1.234 . S
C1449 O1423 1.269 . S
C1449 O1424 1.257 . S
C1450 H1425 0.930 . S
C1450 C1453 1.388 . S
C1450 C1455 1.418 . S
C1451 H1446 0.930 . S
C1451 C1454 1.404 . S
C1451 C1455 1.353 . S
N1452 Co1417 2.145 . S
N1452 C1453 1.397 . S
N1452 C1454 1.334 . S
C1453 H1434 0.929 . S
C1453 C1450 1.388 . S
C1453 N1452 1.397 . S
C1454 H1435 0.929 . S
C1454 C1451 1.404 . S
C1454 N1452 1.334 . S
C1455 H1447 0.930 . S
C1455 C1450 1.418 . S
C1455 C1451 1.353 . S
C1456 H1426 0.930 . S
C1456 N1457 1.330 . S
C1456 C1458 1.446 . S
N1457 Co1416 2.151 . S
N1457 C1456 1.330 . S
N1457 C1461 1.418 . S
C1458 H1437 0.929 . S
C1458 C1456 1.446 . S
C1458 C1459 1.332 . S
C1459 H1439 0.931 . S
C1459 C1458 1.332 . S
C1459 C1460 1.267 . S
C1460 H1428 0.929 . S
C1460 C1459 1.267 . S
C1460 C1461 1.251 . S
C1461 H1431 0.929 . S
C1461 N1457 1.418 . S
C1461 C1460 1.251 . S
C1462 H1429 0.930 . S
C1462 C1464 1.406 . S
C1462 C1467 1.261 . S
C1463 H1430 0.930 . S
C1463 N1465 1.325 . S
C1463 C1466 1.357 . S
C1464 H1432 0.928 . S
C1464 C1462 1.406 . S
C1464 N1465 1.261 . S
N1465 Co1416 2.214 . S
N1465 C1463 1.325 . S
N1465 C1464 1.261 . S
C1466 H1436 0.931 . S
C1466 C1463 1.357 . S
C1466 C1467 1.312 . S
C1467 H1438 0.930 . S
C1467 C1462 1.261 . S
C1467 C1466 1.312 . S
C1468 O1440 1.214 . S
C1468 O1448 1.234 . S
C1469 H1441 0.929 . S
C1469 C1472 1.391 . S
C1469 C1474 1.391 . S
C1470 H1442 0.929 . S
C1470 C1471 1.390 . S
C1470 N1473 1.391 . S
C1471 H1443 0.930 . S
C1471 C1470 1.390 . S
C1471 C1472 1.392 . S
C1472 H1444 0.929 . S
C1472 C1469 1.391 . S
C1472 C1471 1.392 . S
N1473 Co1417 2.257 . S
N1473 C1470 1.391 . S
N1473 C1474 1.388 . S
C1474 H1445 0.930 . S
C1474 C1469 1.391 . S
C1474 N1473 1.388 . S
Co1475 O1477 2.143 . S
Co1475 O1483 2.074 . S
Co1475 O1486 2.093 . S
Co1475 O1499 2.097 . S
Co1475 N1516 2.151 . S
Co1475 N1524 2.214 . S
Co1476 O1477 2.160 . S
Co1476 O1482 2.058 . S
Co1476 O1492 2.057 . S
Co1476 O1507 2.037 . S
Co1476 N1511 2.145 . S
Co1476 N1532 2.257 . S
O1477 Co1475 2.143 . S
O1477 Co1476 2.160 . S
C1478 O1479 1.278 . S
C1478 O1486 1.224 . S
O1479 C1478 1.278 . S
C1480 O1481 1.245 . S
C1480 O1492 1.232 . S
O1481 C1480 1.245 . S
O1482 Co1476 2.058 . S
O1482 C1508 1.269 . S
O1483 Co1475 2.074 . S
O1483 C1508 1.257 . S
H1484 C1509 0.930 . S
H1485 C1515 0.930 . S
O1486 Co1475 2.093 . S
O1486 C1478 1.224 . S
H1487 C1519 0.929 . S
H1488 C1521 0.930 . S
H1489 C1522 0.930 . S
H1490 C1520 0.929 . S
H1491 C1523 0.928 . S
O1492 Co1476 2.057 . S
O1492 C1480 1.232 . S
H1493 C1512 0.929 . S
H1494 C1513 0.929 . S
H1495 C1525 0.931 . S
H1496 C1517 0.929 . S
H1497 C1526 0.930 . S
H1498 C1518 0.931 . S
O1499 Co1475 2.097 . S
O1499 C1527 1.214 . S
H1500 C1528 0.929 . S
H1501 C1529 0.929 . S
H1502 C1530 0.930 . S
H1503 C1531 0.929 1_655 S
H1504 C1533 0.930 . S
H1505 C1510 0.930 . S
H1506 C1514 0.930 . S
O1507 Co1476 2.037 . S
O1507 C1527 1.234 . S
C1508 O1482 1.269 . S
C1508 O1483 1.257 . S
C1509 H1484 0.930 . S
C1509 C1512 1.388 . S
C1509 C1514 1.418 . S
C1510 H1505 0.930 . S
C1510 C1513 1.404 . S
C1510 C1514 1.353 . S
N1511 Co1476 2.145 . S
N1511 C1512 1.397 . S
N1511 C1513 1.334 . S
C1512 H1493 0.929 . S
C1512 C1509 1.388 . S
C1512 N1511 1.397 . S
C1513 H1494 0.929 . S
C1513 C1510 1.404 . S
C1513 N1511 1.334 . S
C1514 H1506 0.930 . S
C1514 C1509 1.418 . S
C1514 C1510 1.353 . S
C1515 H1485 0.930 . S
C1515 N1516 1.330 . S
C1515 C1517 1.446 . S
N1516 Co1475 2.151 . S
N1516 C1515 1.330 . S
N1516 C1520 1.418 . S
C1517 H1496 0.929 . S
C1517 C1515 1.446 . S
C1517 C1518 1.332 . S
C1518 H1498 0.931 . S
C1518 C1517 1.332 . S
C1518 C1519 1.267 . S
C1519 H1487 0.929 . S
C1519 C1518 1.267 . S
C1519 C1520 1.251 . S
C1520 H1490 0.929 . S
C1520 N1516 1.418 . S
C1520 C1519 1.251 . S
C1521 H1488 0.930 . S
C1521 C1523 1.406 . S
C1521 C1526 1.261 . S
C1522 H1489 0.930 . S
C1522 N1524 1.325 . S
C1522 C1525 1.357 . S
C1523 H1491 0.928 . S
C1523 C1521 1.406 . S
C1523 N1524 1.261 . S
N1524 Co1475 2.214 . S
N1524 C1522 1.325 . S
N1524 C1523 1.261 . S
C1525 H1495 0.931 . S
C1525 C1522 1.357 . S
C1525 C1526 1.312 . S
C1526 H1497 0.930 . S
C1526 C1521 1.261 . S
C1526 C1525 1.312 . S
C1527 O1499 1.214 . S
C1527 O1507 1.234 . S
C1528 H1500 0.929 . S
C1528 C1531 1.391 . S
C1528 C1533 1.391 . S
C1529 H1501 0.929 . S
C1529 C1530 1.390 . S
C1529 N1532 1.391 . S
C1530 H1502 0.930 . S
C1530 C1529 1.390 . S
C1530 C1531 1.392 . S
C1531 H1503 0.929 1_455 S
C1531 C1528 1.391 . S
C1531 C1530 1.392 . S
N1532 Co1476 2.257 . S
N1532 C1529 1.391 . S
N1532 C1533 1.388 . S
C1533 H1504 0.930 . S
C1533 C1528 1.391 . S
C1533 N1532 1.388 . S
Co1534 O1536 2.143 . S
Co1534 O1542 2.074 . S
Co1534 O1545 2.093 . S
Co1534 O1558 2.097 . S
Co1534 N1575 2.151 . S
Co1534 N1583 2.214 . S
Co1535 O1536 2.160 . S
Co1535 O1541 2.058 . S
Co1535 O1551 2.057 . S
Co1535 O1566 2.037 . S
Co1535 N1570 2.145 . S
Co1535 N1591 2.257 . S
O1536 Co1534 2.143 . S
O1536 Co1535 2.160 . S
C1537 O1538 1.278 . S
C1537 O1545 1.224 . S
O1538 C1537 1.278 . S
C1539 O1540 1.245 . S
C1539 O1551 1.232 . S
O1540 C1539 1.245 . S
O1541 Co1535 2.058 . S
O1541 C1567 1.269 . S
O1542 Co1534 2.074 . S
O1542 C1567 1.257 . S
H1543 C1568 0.930 . S
H1544 C1574 0.930 . S
O1545 Co1534 2.093 . S
O1545 C1537 1.224 . S
H1546 C1578 0.929 . S
H1547 C1580 0.930 . S
H1548 C1581 0.930 . S
H1549 C1579 0.929 . S
H1550 C1582 0.928 . S
O1551 Co1535 2.057 . S
O1551 C1539 1.232 . S
H1552 C1571 0.929 . S
H1553 C1572 0.929 . S
H1554 C1584 0.931 . S
H1555 C1576 0.929 . S
H1556 C1585 0.930 . S
H1557 C1577 0.931 . S
O1558 Co1534 2.097 . S
O1558 C1586 1.214 . S
H1559 C1587 0.929 . S
H1560 C1588 0.929 . S
H1561 C1589 0.930 . S
H1562 C1590 0.929 . S
H1563 C1592 0.930 . S
H1564 C1569 0.930 . S
H1565 C1573 0.930 . S
O1566 Co1535 2.037 . S
O1566 C1586 1.234 . S
C1567 O1541 1.269 . S
C1567 O1542 1.257 . S
C1568 H1543 0.930 . S
C1568 C1571 1.388 . S
C1568 C1573 1.418 . S
C1569 H1564 0.930 . S
C1569 C1572 1.404 . S
C1569 C1573 1.353 . S
N1570 Co1535 2.145 . S
N1570 C1571 1.397 . S
N1570 C1572 1.334 . S
C1571 H1552 0.929 . S
C1571 C1568 1.388 . S
C1571 N1570 1.397 . S
C1572 H1553 0.929 . S
C1572 C1569 1.404 . S
C1572 N1570 1.334 . S
C1573 H1565 0.930 . S
C1573 C1568 1.418 . S
C1573 C1569 1.353 . S
C1574 H1544 0.930 . S
C1574 N1575 1.330 . S
C1574 C1576 1.446 . S
N1575 Co1534 2.151 . S
N1575 C1574 1.330 . S
N1575 C1579 1.418 . S
C1576 H1555 0.929 . S
C1576 C1574 1.446 . S
C1576 C1577 1.332 . S
C1577 H1557 0.931 . S
C1577 C1576 1.332 . S
C1577 C1578 1.267 . S
C1578 H1546 0.929 . S
C1578 C1577 1.267 . S
C1578 C1579 1.251 . S
C1579 H1549 0.929 . S
C1579 N1575 1.418 . S
C1579 C1578 1.251 . S
C1580 H1547 0.930 . S
C1580 C1582 1.406 . S
C1580 C1585 1.261 . S
C1581 H1548 0.930 . S
C1581 N1583 1.325 . S
C1581 C1584 1.357 . S
C1582 H1550 0.928 . S
C1582 C1580 1.406 . S
C1582 N1583 1.261 . S
N1583 Co1534 2.214 . S
N1583 C1581 1.325 . S
N1583 C1582 1.261 . S
C1584 H1554 0.931 . S
C1584 C1581 1.357 . S
C1584 C1585 1.312 . S
C1585 H1556 0.930 . S
C1585 C1580 1.261 . S
C1585 C1584 1.312 . S
C1586 O1558 1.214 . S
C1586 O1566 1.234 . S
C1587 H1559 0.929 . S
C1587 C1590 1.391 . S
C1587 C1592 1.391 . S
C1588 H1560 0.929 . S
C1588 C1589 1.390 . S
C1588 N1591 1.391 . S
C1589 H1561 0.930 . S
C1589 C1588 1.390 . S
C1589 C1590 1.392 . S
C1590 H1562 0.929 . S
C1590 C1587 1.391 . S
C1590 C1589 1.392 . S
N1591 Co1535 2.257 . S
N1591 C1588 1.391 . S
N1591 C1592 1.388 . S
C1592 H1563 0.930 . S
C1592 C1587 1.391 . S
C1592 N1591 1.388 . S
Co1593 O1595 2.143 . S
Co1593 O1601 2.074 . S
Co1593 O1604 2.093 . S
Co1593 O1617 2.097 . S
Co1593 N1634 2.151 . S
Co1593 N1642 2.214 . S
Co1594 O1595 2.160 1_554 S
Co1594 O1600 2.058 . S
Co1594 O1610 2.057 . S
Co1594 O1625 2.037 . S
Co1594 N1629 2.145 . S
Co1594 N1650 2.257 . S
O1595 Co1593 2.143 . S
O1595 Co1594 2.160 1_556 S
C1596 O1597 1.278 . S
C1596 O1604 1.224 . S
O1597 C1596 1.278 . S
C1598 O1599 1.245 1_554 S
C1598 O1610 1.232 . S
O1599 C1598 1.245 1_556 S
O1600 Co1594 2.058 . S
O1600 C1626 1.266 . S
O1601 Co1593 2.074 . S
O1601 C1626 1.262 1_556 S
H1602 C1627 0.930 . S
H1603 C1633 0.930 . S
O1604 Co1593 2.093 . S
O1604 C1596 1.224 . S
H1605 C1637 0.929 . S
H1606 C1639 0.930 . S
H1607 C1640 0.930 . S
H1608 C1638 0.929 . S
H1609 C1641 0.928 . S
O1610 Co1594 2.057 . S
O1610 C1598 1.232 . S
H1611 C1630 0.929 . S
H1612 C1631 0.929 . S
H1613 C1643 0.931 . S
H1614 C1635 0.929 . S
H1615 C1644 0.930 . S
H1616 C1636 0.931 . S
O1617 Co1593 2.097 . S
O1617 C1645 1.214 . S
H1618 C1646 0.929 . S
H1619 C1647 0.929 . S
H1620 C1648 0.930 . S
H1621 C1649 0.929 1_556 S
H1622 C1651 0.930 . S
H1623 C1628 0.930 . S
H1624 C1632 0.930 . S
O1625 Co1594 2.037 . S
O1625 C1645 1.234 1_554 S
C1626 O1600 1.266 . S
C1626 O1601 1.262 1_554 S
C1627 H1602 0.930 . S
C1627 C1630 1.388 . S
C1627 C1632 1.418 . S
C1628 H1623 0.930 . S
C1628 C1631 1.404 . S
C1628 C1632 1.353 . S
N1629 Co1594 2.145 . S
N1629 C1630 1.397 . S
N1629 C1631 1.334 . S
C1630 H1611 0.929 . S
C1630 C1627 1.388 . S
C1630 N1629 1.397 . S
C1631 H1612 0.929 . S
C1631 C1628 1.404 . S
C1631 N1629 1.334 . S
C1632 H1624 0.930 . S
C1632 C1627 1.418 . S
C1632 C1628 1.353 . S
C1633 H1603 0.930 . S
C1633 N1634 1.330 . S
C1633 C1635 1.446 . S
N1634 Co1593 2.151 . S
N1634 C1633 1.330 . S
N1634 C1638 1.418 . S
C1635 H1614 0.929 . S
C1635 C1633 1.446 . S
C1635 C1636 1.332 . S
C1636 H1616 0.931 . S
C1636 C1635 1.332 . S
C1636 C1637 1.267 . S
C1637 H1605 0.929 . S
C1637 C1636 1.267 . S
C1637 C1638 1.251 . S
C1638 H1608 0.929 . S
C1638 N1634 1.418 . S
C1638 C1637 1.251 . S
C1639 H1606 0.930 . S
C1639 C1641 1.406 . S
C1639 C1644 1.261 . S
C1640 H1607 0.930 . S
C1640 N1642 1.325 . S
C1640 C1643 1.357 . S
C1641 H1609 0.928 . S
C1641 C1639 1.406 . S
C1641 N1642 1.261 . S
N1642 Co1593 2.214 . S
N1642 C1640 1.325 . S
N1642 C1641 1.261 . S
C1643 H1613 0.931 . S
C1643 C1640 1.357 . S
C1643 C1644 1.312 . S
C1644 H1615 0.930 . S
C1644 C1639 1.261 . S
C1644 C1643 1.312 . S
C1645 O1617 1.214 . S
C1645 O1625 1.234 1_556 S
C1646 H1618 0.929 . S
C1646 C1649 1.391 1_556 S
C1646 C1651 1.391 . S
C1647 H1619 0.929 . S
C1647 C1648 1.390 . S
C1647 N1650 1.391 . S
C1648 H1620 0.930 . S
C1648 C1647 1.390 . S
C1648 C1649 1.392 . S
C1649 H1621 0.929 1_554 S
C1649 C1646 1.391 1_554 S
C1649 C1648 1.392 . S
N1650 Co1594 2.257 . S
N1650 C1647 1.391 . S
N1650 C1651 1.388 1_554 S
C1651 H1622 0.930 . S
C1651 C1646 1.391 . S
C1651 N1650 1.388 1_556 S
Co1652 O1654 2.143 . S
Co1652 O1660 2.074 . S
Co1652 O1663 2.093 . S
Co1652 O1676 2.097 . S
Co1652 N1693 2.151 . S
Co1652 N1701 2.214 . S
Co1653 O1654 2.160 1_554 S
Co1653 O1659 2.058 . S
Co1653 O1669 2.057 . S
Co1653 O1684 2.037 . S
Co1653 N1688 2.145 . S
Co1653 N1709 2.257 . S
O1654 Co1652 2.143 . S
O1654 Co1653 2.160 1_556 S
C1655 O1656 1.278 . S
C1655 O1663 1.224 . S
O1656 C1655 1.278 . S
C1657 O1658 1.245 1_554 S
C1657 O1669 1.232 . S
O1658 C1657 1.245 1_556 S
O1659 Co1653 2.058 . S
O1659 C1685 1.271 1_554 S
O1660 Co1652 2.074 . S
O1660 C1685 1.255 . S
H1661 C1686 0.930 . S
H1662 C1692 0.930 . S
O1663 Co1652 2.093 . S
O1663 C1655 1.224 . S
H1664 C1696 0.929 . S
H1665 C1698 0.930 . S
H1666 C1699 0.930 . S
H1667 C1697 0.929 . S
H1668 C1700 0.928 . S
O1669 Co1653 2.057 . S
O1669 C1657 1.232 . S
H1670 C1689 0.929 . S
H1671 C1690 0.929 . S
H1672 C1702 0.931 . S
H1673 C1694 0.929 . S
H1674 C1703 0.930 . S
H1675 C1695 0.931 . S
O1676 Co1652 2.097 . S
O1676 C1704 1.214 . S
H1677 C1705 0.929 . S
H1678 C1706 0.929 . S
H1679 C1707 0.930 . S
H1680 C1708 0.928 1_556 S
H1681 C1710 0.930 . S
H1682 C1687 0.930 . S
H1683 C1691 0.930 . S
O1684 Co1653 2.037 . S
O1684 C1704 1.234 1_554 S
C1685 O1659 1.271 1_556 S
C1685 O1660 1.255 . S
C1686 H1661 0.930 . S
C1686 C1689 1.388 . S
C1686 C1691 1.418 . S
C1687 H1682 0.930 . S
C1687 C1690 1.404 . S
C1687 C1691 1.353 . S
N1688 Co1653 2.145 . S
N1688 C1689 1.397 . S
N1688 C1690 1.334 . S
C1689 H1670 0.929 . S
C1689 C1686 1.388 . S
C1689 N1688 1.397 . S
C1690 H1671 0.929 . S
C1690 C1687 1.404 . S
C1690 N1688 1.334 . S
C1691 H1683 0.930 . S
C1691 C1686 1.418 . S
C1691 C1687 1.353 . S
C1692 H1662 0.930 . S
C1692 N1693 1.330 . S
C1692 C1694 1.446 . S
N1693 Co1652 2.151 . S
N1693 C1692 1.330 . S
N1693 C1697 1.418 . S
C1694 H1673 0.929 . S
C1694 C1692 1.446 . S
C1694 C1695 1.332 . S
C1695 H1675 0.931 . S
C1695 C1694 1.332 . S
C1695 C1696 1.267 . S
C1696 H1664 0.929 . S
C1696 C1695 1.267 . S
C1696 C1697 1.251 . S
C1697 H1667 0.929 . S
C1697 N1693 1.418 . S
C1697 C1696 1.251 . S
C1698 H1665 0.930 . S
C1698 C1700 1.406 . S
C1698 C1703 1.261 . S
C1699 H1666 0.930 . S
C1699 N1701 1.325 . S
C1699 C1702 1.357 . S
C1700 H1668 0.928 . S
C1700 C1698 1.406 . S
C1700 N1701 1.261 . S
N1701 Co1652 2.214 . S
N1701 C1699 1.325 . S
N1701 C1700 1.261 . S
C1702 H1672 0.931 . S
C1702 C1699 1.357 . S
C1702 C1703 1.312 . S
C1703 H1674 0.930 . S
C1703 C1698 1.261 . S
C1703 C1702 1.312 . S
C1704 O1676 1.214 . S
C1704 O1684 1.234 1_556 S
C1705 H1677 0.929 . S
C1705 C1708 1.391 1_556 S
C1705 C1710 1.391 . S
C1706 H1678 0.929 . S
C1706 C1707 1.390 . S
C1706 N1709 1.391 . S
C1707 H1679 0.930 . S
C1707 C1706 1.390 . S
C1707 C1708 1.392 . S
C1708 H1680 0.928 1_554 S
C1708 C1705 1.391 1_554 S
C1708 C1707 1.392 . S
N1709 Co1653 2.257 . S
N1709 C1706 1.391 . S
N1709 C1710 1.388 1_554 S
C1710 H1681 0.930 . S
C1710 C1705 1.391 . S
C1710 N1709 1.388 1_556 S
Co1711 O1713 2.143 1_554 S
Co1711 O1719 2.074 . S
Co1711 O1722 2.093 . S
Co1711 O1735 2.097 . S
Co1711 N1752 2.151 . S
Co1711 N1760 2.214 . S
Co1712 O1713 2.160 . S
Co1712 O1718 2.058 . S
Co1712 O1728 2.057 . S
Co1712 O1743 2.037 . S
Co1712 N1747 2.145 . S
Co1712 N1768 2.257 . S
O1713 Co1711 2.143 1_556 S
O1713 Co1712 2.160 . S
C1714 O1715 1.278 1_554 S
C1714 O1722 1.224 . S
O1715 C1714 1.278 1_556 S
C1716 O1717 1.245 . S
C1716 O1728 1.232 . S
O1717 C1716 1.245 . S
O1718 Co1712 2.058 . S
O1718 C1744 1.269 . S
O1719 Co1711 2.074 . S
O1719 C1744 1.257 1_554 S
H1720 C1745 0.930 . S
H1721 C1751 0.930 . S
O1722 Co1711 2.093 . S
O1722 C1714 1.224 . S
H1723 C1755 0.929 . S
H1724 C1757 0.930 . S
H1725 C1758 0.930 . S
H1726 C1756 0.929 . S
H1727 C1759 0.928 . S
O1728 Co1712 2.057 . S
O1728 C1716 1.232 . S
H1729 C1748 0.929 . S
H1730 C1749 0.929 . S
H1731 C1761 0.931 . S
H1732 C1753 0.929 . S
H1733 C1762 0.930 . S
H1734 C1754 0.931 . S
O1735 Co1711 2.097 . S
O1735 C1763 1.200 1_554 S
H1736 C1764 0.929 . S
H1737 C1765 0.929 . S
H1738 C1766 0.930 . S
H1739 C1767 0.929 . S
H1740 C1769 0.930 . S
H1741 C1746 0.930 . S
H1742 C1750 0.930 . S
O1743 Co1712 2.037 . S
O1743 C1763 1.257 . S
C1744 O1718 1.269 . S
C1744 O1719 1.257 1_556 S
C1745 H1720 0.930 . S
C1745 C1748 1.388 . S
C1745 C1750 1.418 . S
C1746 H1741 0.930 . S
C1746 C1749 1.404 . S
C1746 C1750 1.353 . S
N1747 Co1712 2.145 . S
N1747 C1748 1.397 . S
N1747 C1749 1.334 . S
C1748 H1729 0.929 . S
C1748 C1745 1.388 . S
C1748 N1747 1.397 . S
C1749 H1730 0.929 . S
C1749 C1746 1.404 . S
C1749 N1747 1.334 . S
C1750 H1742 0.930 . S
C1750 C1745 1.418 . S
C1750 C1746 1.353 . S
C1751 H1721 0.930 . S
C1751 N1752 1.330 . S
C1751 C1753 1.446 . S
N1752 Co1711 2.151 . S
N1752 C1751 1.330 . S
N1752 C1756 1.418 . S
C1753 H1732 0.929 . S
C1753 C1751 1.446 . S
C1753 C1754 1.332 . S
C1754 H1734 0.931 . S
C1754 C1753 1.332 . S
C1754 C1755 1.267 . S
C1755 H1723 0.929 . S
C1755 C1754 1.267 . S
C1755 C1756 1.251 . S
C1756 H1726 0.929 . S
C1756 N1752 1.418 . S
C1756 C1755 1.251 . S
C1757 H1724 0.930 . S
C1757 C1759 1.406 . S
C1757 C1762 1.261 . S
C1758 H1725 0.930 . S
C1758 N1760 1.325 . S
C1758 C1761 1.357 . S
C1759 H1727 0.928 . S
C1759 C1757 1.406 . S
C1759 N1760 1.261 . S
N1760 Co1711 2.214 . S
N1760 C1758 1.325 . S
N1760 C1759 1.261 . S
C1761 H1731 0.931 . S
C1761 C1758 1.357 . S
C1761 C1762 1.312 . S
C1762 H1733 0.930 . S
C1762 C1757 1.261 . S
C1762 C1761 1.312 . S
C1763 O1735 1.200 1_556 S
C1763 O1743 1.257 . S
C1764 H1736 0.929 . S
C1764 C1767 1.391 . S
C1764 C1769 1.391 . S
C1765 H1737 0.929 . S
C1765 C1766 1.390 . S
C1765 N1768 1.391 . S
C1766 H1738 0.930 . S
C1766 C1765 1.390 . S
C1766 C1767 1.392 . S
C1767 H1739 0.929 . S
C1767 C1764 1.391 . S
C1767 C1766 1.392 . S
N1768 Co1712 2.257 . S
N1768 C1765 1.391 . S
N1768 C1769 1.388 . S
C1769 H1740 0.930 . S
C1769 C1764 1.391 . S
C1769 N1768 1.388 . S
Co1770 O1772 2.143 . S
Co1770 O1778 2.074 . S
Co1770 O1781 2.093 . S
Co1770 O1794 2.097 . S
Co1770 N1811 2.151 . S
Co1770 N1819 2.214 . S
Co1771 O1772 2.160 . S
Co1771 O1777 2.058 . S
Co1771 O1787 2.057 . S
Co1771 O1802 2.037 . S
Co1771 N1806 2.145 . S
Co1771 N1827 2.257 . S
O1772 Co1770 2.143 . S
O1772 Co1771 2.160 . S
C1773 O1774 1.278 . S
C1773 O1781 1.224 . S
O1774 C1773 1.278 . S
C1775 O1776 1.245 . S
C1775 O1787 1.232 . S
O1776 C1775 1.245 . S
O1777 Co1771 2.058 . S
O1777 C1803 1.269 . S
O1778 Co1770 2.074 . S
O1778 C1803 1.257 . S
H1779 C1804 0.930 . S
H1780 C1810 0.930 . S
O1781 Co1770 2.093 . S
O1781 C1773 1.224 . S
H1782 C1814 0.929 . S
H1783 C1816 0.930 . S
H1784 C1817 0.930 . S
H1785 C1815 0.929 . S
H1786 C1818 0.928 . S
O1787 Co1771 2.057 . S
O1787 C1775 1.232 . S
H1788 C1807 0.929 . S
H1789 C1808 0.929 . S
H1790 C1820 0.931 . S
H1791 C1812 0.929 . S
H1792 C1821 0.930 . S
H1793 C1813 0.931 . S
O1794 Co1770 2.097 . S
O1794 C1822 1.214 . S
H1795 C1823 0.929 . S
H1796 C1824 0.929 . S
H1797 C1825 0.930 . S
H1798 C1826 0.929 . S
H1799 C1828 0.930 . S
H1800 C1805 0.930 . S
H1801 C1809 0.930 . S
O1802 Co1771 2.037 . S
O1802 C1822 1.234 . S
C1803 O1777 1.269 . S
C1803 O1778 1.257 . S
C1804 H1779 0.930 . S
C1804 C1807 1.388 . S
C1804 C1809 1.418 . S
C1805 H1800 0.930 . S
C1805 C1808 1.404 . S
C1805 C1809 1.353 . S
N1806 Co1771 2.145 . S
N1806 C1807 1.397 . S
N1806 C1808 1.334 . S
C1807 H1788 0.929 . S
C1807 C1804 1.388 . S
C1807 N1806 1.397 . S
C1808 H1789 0.929 . S
C1808 C1805 1.404 . S
C1808 N1806 1.334 . S
C1809 H1801 0.930 . S
C1809 C1804 1.418 . S
C1809 C1805 1.353 . S
C1810 H1780 0.930 . S
C1810 N1811 1.330 . S
C1810 C1812 1.446 . S
N1811 Co1770 2.151 . S
N1811 C1810 1.330 . S
N1811 C1815 1.418 . S
C1812 H1791 0.929 . S
C1812 C1810 1.446 . S
C1812 C1813 1.332 . S
C1813 H1793 0.931 . S
C1813 C1812 1.332 . S
C1813 C1814 1.267 . S
C1814 H1782 0.929 . S
C1814 C1813 1.267 . S
C1814 C1815 1.251 . S
C1815 H1785 0.929 . S
C1815 N1811 1.418 . S
C1815 C1814 1.251 . S
C1816 H1783 0.930 . S
C1816 C1818 1.406 . S
C1816 C1821 1.261 . S
C1817 H1784 0.930 . S
C1817 N1819 1.325 . S
C1817 C1820 1.357 . S
C1818 H1786 0.928 . S
C1818 C1816 1.406 . S
C1818 N1819 1.261 . S
N1819 Co1770 2.214 . S
N1819 C1817 1.325 . S
N1819 C1818 1.261 . S
C1820 H1790 0.931 . S
C1820 C1817 1.357 . S
C1820 C1821 1.312 . S
C1821 H1792 0.930 . S
C1821 C1816 1.261 . S
C1821 C1820 1.312 . S
C1822 O1794 1.214 . S
C1822 O1802 1.234 . S
C1823 H1795 0.929 . S
C1823 C1826 1.391 . S
C1823 C1828 1.391 . S
C1824 H1796 0.929 . S
C1824 C1825 1.390 . S
C1824 N1827 1.391 . S
C1825 H1797 0.930 . S
C1825 C1824 1.390 . S
C1825 C1826 1.392 . S
C1826 H1798 0.929 . S
C1826 C1823 1.391 . S
C1826 C1825 1.392 . S
N1827 Co1771 2.257 . S
N1827 C1824 1.391 . S
N1827 C1828 1.388 . S
C1828 H1799 0.930 . S
C1828 C1823 1.391 . S
C1828 N1827 1.388 . S
Co1829 O1831 2.143 . S
Co1829 O1837 2.074 . S
Co1829 O1840 2.093 . S
Co1829 O1853 2.097 . S
Co1829 N1870 2.151 . S
Co1829 N1878 2.214 . S
Co1830 O1831 2.160 . S
Co1830 O1836 2.058 . S
Co1830 O1846 2.057 . S
Co1830 O1861 2.037 . S
Co1830 N1865 2.145 . S
Co1830 N1886 2.257 . S
O1831 Co1829 2.143 . S
O1831 Co1830 2.160 . S
C1832 O1833 1.278 . S
C1832 O1840 1.224 . S
O1833 C1832 1.278 . S
C1834 O1835 1.245 . S
C1834 O1846 1.232 . S
O1835 C1834 1.245 . S
O1836 Co1830 2.058 . S
O1836 C1862 1.269 . S
O1837 Co1829 2.074 . S
O1837 C1862 1.257 . S
H1838 C1863 0.930 . S
H1839 C1869 0.930 . S
O1840 Co1829 2.093 . S
O1840 C1832 1.224 . S
H1841 C1873 0.929 . S
H1842 C1875 0.930 . S
H1843 C1876 0.930 . S
H1844 C1874 0.929 . S
H1845 C1877 0.928 . S
O1846 Co1830 2.057 . S
O1846 C1834 1.232 . S
H1847 C1866 0.929 . S
H1848 C1867 0.929 . S
H1849 C1879 0.931 . S
H1850 C1871 0.929 . S
H1851 C1880 0.930 . S
H1852 C1872 0.931 . S
O1853 Co1829 2.097 . S
O1853 C1881 1.214 . S
H1854 C1882 0.929 . S
H1855 C1883 0.929 . S
H1856 C1884 0.930 . S
H1857 C1885 0.929 . S
H1858 C1887 0.930 . S
H1859 C1864 0.930 . S
H1860 C1868 0.930 . S
O1861 Co1830 2.037 . S
O1861 C1881 1.234 . S
C1862 O1836 1.269 . S
C1862 O1837 1.257 . S
C1863 H1838 0.930 . S
C1863 C1866 1.388 . S
C1863 C1868 1.418 . S
C1864 H1859 0.930 . S
C1864 C1867 1.404 . S
C1864 C1868 1.353 . S
N1865 Co1830 2.145 . S
N1865 C1866 1.397 . S
N1865 C1867 1.334 . S
C1866 H1847 0.929 . S
C1866 C1863 1.388 . S
C1866 N1865 1.397 . S
C1867 H1848 0.929 . S
C1867 C1864 1.404 . S
C1867 N1865 1.334 . S
C1868 H1860 0.930 . S
C1868 C1863 1.418 . S
C1868 C1864 1.353 . S
C1869 H1839 0.930 . S
C1869 N1870 1.330 . S
C1869 C1871 1.446 . S
N1870 Co1829 2.151 . S
N1870 C1869 1.330 . S
N1870 C1874 1.418 . S
C1871 H1850 0.929 . S
C1871 C1869 1.446 . S
C1871 C1872 1.332 . S
C1872 H1852 0.931 . S
C1872 C1871 1.332 . S
C1872 C1873 1.267 . S
C1873 H1841 0.929 . S
C1873 C1872 1.267 . S
C1873 C1874 1.251 . S
C1874 H1844 0.929 . S
C1874 N1870 1.418 . S
C1874 C1873 1.251 . S
C1875 H1842 0.930 . S
C1875 C1877 1.406 . S
C1875 C1880 1.261 . S
C1876 H1843 0.930 . S
C1876 N1878 1.325 . S
C1876 C1879 1.357 . S
C1877 H1845 0.928 . S
C1877 C1875 1.406 . S
C1877 N1878 1.261 . S
N1878 Co1829 2.214 . S
N1878 C1876 1.325 . S
N1878 C1877 1.261 . S
C1879 H1849 0.931 . S
C1879 C1876 1.357 . S
C1879 C1880 1.312 . S
C1880 H1851 0.930 . S
C1880 C1875 1.261 . S
C1880 C1879 1.312 . S
C1881 O1853 1.214 . S
C1881 O1861 1.234 . S
C1882 H1854 0.929 . S
C1882 C1885 1.391 . S
C1882 C1887 1.391 . S
C1883 H1855 0.929 . S
C1883 C1884 1.390 . S
C1883 N1886 1.391 . S
C1884 H1856 0.930 . S
C1884 C1883 1.390 . S
C1884 C1885 1.392 . S
C1885 H1857 0.929 . S
C1885 C1882 1.391 . S
C1885 C1884 1.392 . S
N1886 Co1830 2.257 . S
N1886 C1883 1.391 . S
N1886 C1887 1.388 . S
C1887 H1858 0.930 . S
C1887 C1882 1.391 . S
C1887 N1886 1.388 . S
Co1888 O1890 2.143 . S
Co1888 O1896 2.074 . S
Co1888 O1899 2.093 . S
Co1888 O1912 2.097 . S
Co1888 N1929 2.151 . S
Co1888 N1937 2.214 . S
Co1889 O1890 2.160 . S
Co1889 O1895 2.058 . S
Co1889 O1905 2.057 . S
Co1889 O1920 2.037 . S
Co1889 N1924 2.145 . S
Co1889 N1945 2.257 . S
O1890 Co1888 2.143 . S
O1890 Co1889 2.160 . S
C1891 O1892 1.278 . S
C1891 O1899 1.224 . S
O1892 C1891 1.278 . S
C1893 O1894 1.245 . S
C1893 O1905 1.232 . S
O1894 C1893 1.245 . S
O1895 Co1889 2.058 . S
O1895 C1921 1.269 . S
O1896 Co1888 2.074 . S
O1896 C1921 1.257 . S
H1897 C1922 0.930 . S
H1898 C1928 0.930 . S
O1899 Co1888 2.093 . S
O1899 C1891 1.224 . S
H1900 C1932 0.929 . S
H1901 C1934 0.930 . S
H1902 C1935 0.930 . S
H1903 C1933 0.929 . S
H1904 C1936 0.928 . S
O1905 Co1889 2.057 . S
O1905 C1893 1.232 . S
H1906 C1925 0.929 . S
H1907 C1926 0.929 . S
H1908 C1938 0.931 . S
H1909 C1930 0.929 . S
H1910 C1939 0.930 . S
H1911 C1931 0.931 . S
O1912 Co1888 2.097 . S
O1912 C1940 1.214 . S
H1913 C1941 0.929 . S
H1914 C1942 0.929 . S
H1915 C1943 0.930 . S
H1916 C1944 0.929 . S
H1917 C1946 0.930 . S
H1918 C1923 0.930 . S
H1919 C1927 0.930 . S
O1920 Co1889 2.037 . S
O1920 C1940 1.234 . S
C1921 O1895 1.269 . S
C1921 O1896 1.257 . S
C1922 H1897 0.930 . S
C1922 C1925 1.388 . S
C1922 C1927 1.418 . S
C1923 H1918 0.930 . S
C1923 C1926 1.404 . S
C1923 C1927 1.353 . S
N1924 Co1889 2.145 . S
N1924 C1925 1.397 . S
N1924 C1926 1.334 . S
C1925 H1906 0.929 . S
C1925 C1922 1.388 . S
C1925 N1924 1.397 . S
C1926 H1907 0.929 . S
C1926 C1923 1.404 . S
C1926 N1924 1.334 . S
C1927 H1919 0.930 . S
C1927 C1922 1.418 . S
C1927 C1923 1.353 . S
C1928 H1898 0.930 . S
C1928 N1929 1.330 . S
C1928 C1930 1.446 . S
N1929 Co1888 2.151 . S
N1929 C1928 1.330 . S
N1929 C1933 1.418 . S
C1930 H1909 0.929 . S
C1930 C1928 1.446 . S
C1930 C1931 1.332 . S
C1931 H1911 0.931 . S
C1931 C1930 1.332 . S
C1931 C1932 1.267 . S
C1932 H1900 0.929 . S
C1932 C1931 1.267 . S
C1932 C1933 1.251 . S
C1933 H1903 0.929 . S
C1933 N1929 1.418 . S
C1933 C1932 1.251 . S
C1934 H1901 0.930 . S
C1934 C1936 1.406 . S
C1934 C1939 1.261 . S
C1935 H1902 0.930 . S
C1935 N1937 1.325 . S
C1935 C1938 1.357 . S
C1936 H1904 0.928 . S
C1936 C1934 1.406 . S
C1936 N1937 1.261 . S
N1937 Co1888 2.214 . S
N1937 C1935 1.325 . S
N1937 C1936 1.261 . S
C1938 H1908 0.931 . S
C1938 C1935 1.357 . S
C1938 C1939 1.312 . S
C1939 H1910 0.930 . S
C1939 C1934 1.261 . S
C1939 C1938 1.312 . S
C1940 O1912 1.214 . S
C1940 O1920 1.234 . S
C1941 H1913 0.929 . S
C1941 C1944 1.391 . S
C1941 C1946 1.391 . S
C1942 H1914 0.929 . S
C1942 C1943 1.390 . S
C1942 N1945 1.391 . S
C1943 H1915 0.930 . S
C1943 C1942 1.390 . S
C1943 C1944 1.392 . S
C1944 H1916 0.929 . S
C1944 C1941 1.391 . S
C1944 C1943 1.392 . S
N1945 Co1889 2.257 . S
N1945 C1942 1.391 . S
N1945 C1946 1.388 . S
C1946 H1917 0.930 . S
C1946 C1941 1.391 . S
C1946 N1945 1.388 . S
Co1947 O1949 2.143 . S
Co1947 O1955 2.074 . S
Co1947 O1958 2.093 . S
Co1947 O1971 2.097 . S
Co1947 N1988 2.151 . S
Co1947 N1996 2.214 . S
Co1948 O1949 2.160 . S
Co1948 O1954 2.058 . S
Co1948 O1964 2.057 . S
Co1948 O1979 2.037 . S
Co1948 N1983 2.145 . S
Co1948 N2004 2.257 . S
O1949 Co1947 2.143 . S
O1949 Co1948 2.160 . S
C1950 O1951 1.278 . S
C1950 O1958 1.224 . S
O1951 C1950 1.278 . S
C1952 O1953 1.245 . S
C1952 O1964 1.232 . S
O1953 C1952 1.245 . S
O1954 Co1948 2.058 . S
O1954 C1980 1.269 . S
O1955 Co1947 2.074 . S
O1955 C1980 1.257 . S
H1956 C1981 0.930 . S
H1957 C1987 0.930 . S
O1958 Co1947 2.093 . S
O1958 C1950 1.224 . S
H1959 C1991 0.929 . S
H1960 C1993 0.930 . S
H1961 C1994 0.930 . S
H1962 C1992 0.929 . S
H1963 C1995 0.928 . S
O1964 Co1948 2.057 . S
O1964 C1952 1.232 . S
H1965 C1984 0.929 . S
H1966 C1985 0.929 . S
H1967 C1997 0.931 . S
H1968 C1989 0.929 . S
H1969 C1998 0.930 . S
H1970 C1990 0.931 . S
O1971 Co1947 2.097 . S
O1971 C1999 1.214 . S
H1972 C2000 0.929 . S
H1973 C2001 0.929 . S
H1974 C2002 0.930 . S
H1975 C2003 0.929 1_655 S
H1976 C2005 0.930 . S
H1977 C1982 0.930 . S
H1978 C1986 0.930 . S
O1979 Co1948 2.037 . S
O1979 C1999 1.234 . S
C1980 O1954 1.269 . S
C1980 O1955 1.257 . S
C1981 H1956 0.930 . S
C1981 C1984 1.388 . S
C1981 C1986 1.418 . S
C1982 H1977 0.930 . S
C1982 C1985 1.404 . S
C1982 C1986 1.353 . S
N1983 Co1948 2.145 . S
N1983 C1984 1.397 . S
N1983 C1985 1.334 . S
C1984 H1965 0.929 . S
C1984 C1981 1.388 . S
C1984 N1983 1.397 . S
C1985 H1966 0.929 . S
C1985 C1982 1.404 . S
C1985 N1983 1.334 . S
C1986 H1978 0.930 . S
C1986 C1981 1.418 . S
C1986 C1982 1.353 . S
C1987 H1957 0.930 . S
C1987 N1988 1.330 . S
C1987 C1989 1.446 . S
N1988 Co1947 2.151 . S
N1988 C1987 1.330 . S
N1988 C1992 1.418 . S
C1989 H1968 0.929 . S
C1989 C1987 1.446 . S
C1989 C1990 1.332 . S
C1990 H1970 0.931 . S
C1990 C1989 1.332 . S
C1990 C1991 1.267 . S
C1991 H1959 0.929 . S
C1991 C1990 1.267 . S
C1991 C1992 1.251 . S
C1992 H1962 0.929 . S
C1992 N1988 1.418 . S
C1992 C1991 1.251 . S
C1993 H1960 0.930 . S
C1993 C1995 1.406 . S
C1993 C1998 1.261 . S
C1994 H1961 0.930 . S
C1994 N1996 1.325 . S
C1994 C1997 1.357 . S
C1995 H1963 0.928 . S
C1995 C1993 1.406 . S
C1995 N1996 1.261 . S
N1996 Co1947 2.214 . S
N1996 C1994 1.325 . S
N1996 C1995 1.261 . S
C1997 H1967 0.931 . S
C1997 C1994 1.357 . S
C1997 C1998 1.312 . S
C1998 H1969 0.930 . S
C1998 C1993 1.261 . S
C1998 C1997 1.312 . S
C1999 O1971 1.214 . S
C1999 O1979 1.234 . S
C2000 H1972 0.929 . S
C2000 C2003 1.391 . S
C2000 C2005 1.391 . S
C2001 H1973 0.929 . S
C2001 C2002 1.390 . S
C2001 N2004 1.391 . S
C2002 H1974 0.930 . S
C2002 C2001 1.390 . S
C2002 C2003 1.392 . S
C2003 H1975 0.929 1_455 S
C2003 C2000 1.391 . S
C2003 C2002 1.392 . S
N2004 Co1948 2.257 . S
N2004 C2001 1.391 . S
N2004 C2005 1.388 . S
C2005 H1976 0.930 . S
C2005 C2000 1.391 . S
C2005 N2004 1.388 . S
Co2006 O2008 2.143 . S
Co2006 O2014 2.074 . S
Co2006 O2017 2.093 . S
Co2006 O2030 2.097 . S
Co2006 N2047 2.151 . S
Co2006 N2055 2.214 . S
Co2007 O2008 2.160 . S
Co2007 O2013 2.058 . S
Co2007 O2023 2.057 . S
Co2007 O2038 2.037 . S
Co2007 N2042 2.145 . S
Co2007 N2063 2.257 . S
O2008 Co2006 2.143 . S
O2008 Co2007 2.160 . S
C2009 O2010 1.278 . S
C2009 O2017 1.224 . S
O2010 C2009 1.278 . S
C2011 O2012 1.245 . S
C2011 O2023 1.232 . S
O2012 C2011 1.245 . S
O2013 Co2007 2.058 . S
O2013 C2039 1.269 . S
O2014 Co2006 2.074 . S
O2014 C2039 1.257 . S
H2015 C2040 0.930 . S
H2016 C2046 0.930 . S
O2017 Co2006 2.093 . S
O2017 C2009 1.224 . S
H2018 C2050 0.929 . S
H2019 C2052 0.930 . S
H2020 C2053 0.930 . S
H2021 C2051 0.929 . S
H2022 C2054 0.928 . S
O2023 Co2007 2.057 . S
O2023 C2011 1.232 . S
H2024 C2043 0.929 . S
H2025 C2044 0.929 . S
H2026 C2056 0.931 . S
H2027 C2048 0.929 . S
H2028 C2057 0.930 . S
H2029 C2049 0.931 . S
O2030 Co2006 2.097 . S
O2030 C2058 1.214 . S
H2031 C2059 0.929 . S
H2032 C2060 0.929 . S
H2033 C2061 0.930 . S
H2034 C2062 0.929 . S
H2035 C2064 0.930 . S
H2036 C2041 0.930 . S
H2037 C2045 0.930 . S
O2038 Co2007 2.037 . S
O2038 C2058 1.234 . S
C2039 O2013 1.269 . S
C2039 O2014 1.257 . S
C2040 H2015 0.930 . S
C2040 C2043 1.388 . S
C2040 C2045 1.418 . S
C2041 H2036 0.930 . S
C2041 C2044 1.404 . S
C2041 C2045 1.353 . S
N2042 Co2007 2.145 . S
N2042 C2043 1.397 . S
N2042 C2044 1.334 . S
C2043 H2024 0.929 . S
C2043 C2040 1.388 . S
C2043 N2042 1.397 . S
C2044 H2025 0.929 . S
C2044 C2041 1.404 . S
C2044 N2042 1.334 . S
C2045 H2037 0.930 . S
C2045 C2040 1.418 . S
C2045 C2041 1.353 . S
C2046 H2016 0.930 . S
C2046 N2047 1.330 . S
C2046 C2048 1.446 . S
N2047 Co2006 2.151 . S
N2047 C2046 1.330 . S
N2047 C2051 1.418 . S
C2048 H2027 0.929 . S
C2048 C2046 1.446 . S
C2048 C2049 1.332 . S
C2049 H2029 0.931 . S
C2049 C2048 1.332 . S
C2049 C2050 1.267 . S
C2050 H2018 0.929 . S
C2050 C2049 1.267 . S
C2050 C2051 1.251 . S
C2051 H2021 0.929 . S
C2051 N2047 1.418 . S
C2051 C2050 1.251 . S
C2052 H2019 0.930 . S
C2052 C2054 1.406 . S
C2052 C2057 1.261 . S
C2053 H2020 0.930 . S
C2053 N2055 1.325 . S
C2053 C2056 1.357 . S
C2054 H2022 0.928 . S
C2054 C2052 1.406 . S
C2054 N2055 1.261 . S
N2055 Co2006 2.214 . S
N2055 C2053 1.325 . S
N2055 C2054 1.261 . S
C2056 H2026 0.931 . S
C2056 C2053 1.357 . S
C2056 C2057 1.312 . S
C2057 H2028 0.930 . S
C2057 C2052 1.261 . S
C2057 C2056 1.312 . S
C2058 O2030 1.214 . S
C2058 O2038 1.234 . S
C2059 H2031 0.929 . S
C2059 C2062 1.391 . S
C2059 C2064 1.391 . S
C2060 H2032 0.929 . S
C2060 C2061 1.390 . S
C2060 N2063 1.391 . S
C2061 H2033 0.930 . S
C2061 C2060 1.390 . S
C2061 C2062 1.392 . S
C2062 H2034 0.929 . S
C2062 C2059 1.391 . S
C2062 C2061 1.392 . S
N2063 Co2007 2.257 . S
N2063 C2060 1.391 . S
N2063 C2064 1.388 . S
C2064 H2035 0.930 . S
C2064 C2059 1.391 . S
C2064 N2063 1.388 . S
Co2065 O2067 2.143 . S
Co2065 O2073 2.074 . S
Co2065 O2076 2.093 . S
Co2065 O2089 2.097 . S
Co2065 N2106 2.151 . S
Co2065 N2114 2.214 . S
Co2066 O2067 2.160 . S
Co2066 O2072 2.058 . S
Co2066 O2082 2.057 . S
Co2066 O2097 2.037 . S
Co2066 N2101 2.145 . S
Co2066 N2122 2.257 . S
O2067 Co2065 2.143 . S
O2067 Co2066 2.160 . S
C2068 O2069 1.278 . S
C2068 O2076 1.224 . S
O2069 C2068 1.278 . S
C2070 O2071 1.245 . S
C2070 O2082 1.232 . S
O2071 C2070 1.245 . S
O2072 Co2066 2.058 . S
O2072 C2098 1.269 . S
O2073 Co2065 2.074 . S
O2073 C2098 1.257 . S
H2074 C2099 0.930 . S
H2075 C2105 0.930 . S
O2076 Co2065 2.093 . S
O2076 C2068 1.224 . S
H2077 C2109 0.929 . S
H2078 C2111 0.930 . S
H2079 C2112 0.930 . S
H2080 C2110 0.929 . S
H2081 C2113 0.928 . S
O2082 Co2066 2.057 . S
O2082 C2070 1.232 . S
H2083 C2102 0.929 . S
H2084 C2103 0.929 . S
H2085 C2115 0.931 . S
H2086 C2107 0.929 . S
H2087 C2116 0.930 . S
H2088 C2108 0.931 . S
O2089 Co2065 2.097 . S
O2089 C2117 1.214 . S
H2090 C2118 0.929 . S
H2091 C2119 0.929 . S
H2092 C2120 0.930 . S
H2093 C2121 0.929 1_545 S
H2094 C2123 0.930 . S
H2095 C2100 0.930 . S
H2096 C2104 0.930 . S
O2097 Co2066 2.037 . S
O2097 C2117 1.234 . S
C2098 O2072 1.269 . S
C2098 O2073 1.257 . S
C2099 H2074 0.930 . S
C2099 C2102 1.388 . S
C2099 C2104 1.418 . S
C2100 H2095 0.930 . S
C2100 C2103 1.404 . S
C2100 C2104 1.353 . S
N2101 Co2066 2.145 . S
N2101 C2102 1.397 . S
N2101 C2103 1.334 . S
C2102 H2083 0.929 . S
C2102 C2099 1.388 . S
C2102 N2101 1.397 . S
C2103 H2084 0.929 . S
C2103 C2100 1.404 . S
C2103 N2101 1.334 . S
C2104 H2096 0.930 . S
C2104 C2099 1.418 . S
C2104 C2100 1.353 . S
C2105 H2075 0.930 . S
C2105 N2106 1.330 . S
C2105 C2107 1.446 . S
N2106 Co2065 2.151 . S
N2106 C2105 1.330 . S
N2106 C2110 1.418 . S
C2107 H2086 0.929 . S
C2107 C2105 1.446 . S
C2107 C2108 1.332 . S
C2108 H2088 0.931 . S
C2108 C2107 1.332 . S
C2108 C2109 1.267 . S
C2109 H2077 0.929 . S
C2109 C2108 1.267 . S
C2109 C2110 1.251 . S
C2110 H2080 0.929 . S
C2110 N2106 1.418 . S
C2110 C2109 1.251 . S
C2111 H2078 0.930 . S
C2111 C2113 1.406 . S
C2111 C2116 1.261 . S
C2112 H2079 0.930 . S
C2112 N2114 1.325 . S
C2112 C2115 1.357 . S
C2113 H2081 0.928 . S
C2113 C2111 1.406 . S
C2113 N2114 1.261 . S
N2114 Co2065 2.214 . S
N2114 C2112 1.325 . S
N2114 C2113 1.261 . S
C2115 H2085 0.931 . S
C2115 C2112 1.357 . S
C2115 C2116 1.312 . S
C2116 H2087 0.930 . S
C2116 C2111 1.261 . S
C2116 C2115 1.312 . S
C2117 O2089 1.214 . S
C2117 O2097 1.234 . S
C2118 H2090 0.929 . S
C2118 C2121 1.391 . S
C2118 C2123 1.391 . S
C2119 H2091 0.929 . S
C2119 C2120 1.390 . S
C2119 N2122 1.391 . S
C2120 H2092 0.930 . S
C2120 C2119 1.390 . S
C2120 C2121 1.392 . S
C2121 H2093 0.929 1_565 S
C2121 C2118 1.391 . S
C2121 C2120 1.392 . S
N2122 Co2066 2.257 . S
N2122 C2119 1.391 . S
N2122 C2123 1.388 . S
C2123 H2094 0.930 . S
C2123 C2118 1.391 . S
C2123 N2122 1.388 . S
C2124 C2125 1.387 . S
C2124 H2128 0.950 . S
C2124 C2133 1.390 1_455 S
C2125 C2124 1.387 . S
C2125 C2127 1.387 . S
H2126 C2133 0.950 . S
C2127 C2125 1.387 . S
C2127 C2129 1.390 1_455 S
C2127 H2131 0.950 . S
H2128 C2124 0.950 . S
C2129 C2127 1.390 1_655 S
C2129 C2130 1.387 . S
C2129 H2132 0.950 . S
C2130 C2129 1.387 . S
C2130 C2133 1.387 . S
H2131 C2127 0.950 . S
H2132 C2129 0.950 . S
C2133 C2124 1.390 1_655 S
C2133 H2126 0.950 . S
C2133 C2130 1.387 . S
C2134 C2135 1.387 . S
C2134 H2138 0.950 . S
C2134 C2143 1.390 . S
C2135 C2134 1.387 . S
C2135 C2137 1.387 . S
H2136 C2143 0.950 . S
C2137 C2135 1.387 . S
C2137 C2139 1.390 . S
C2137 H2141 0.950 . S
H2138 C2134 0.950 . S
C2139 C2137 1.390 . S
C2139 C2140 1.387 . S
C2139 H2142 0.950 . S
C2140 C2139 1.387 . S
C2140 C2143 1.387 . S
H2141 C2137 0.950 . S
H2142 C2139 0.950 . S
C2143 C2134 1.390 . S
C2143 H2136 0.950 . S
C2143 C2140 1.387 . S
C2144 C2145 1.387 . S
C2144 H2148 0.950 . S
C2144 C2153 1.390 1_545 S
C2145 C2144 1.387 . S
C2145 C2147 1.387 . S
H2146 C2153 0.950 . S
C2147 C2145 1.387 . S
C2147 C2149 1.390 1_545 S
C2147 H2151 0.950 . S
H2148 C2144 0.950 . S
C2149 C2147 1.390 1_565 S
C2149 C2150 1.387 . S
C2149 H2152 0.950 . S
C2150 C2149 1.387 . S
C2150 C2153 1.387 . S
H2151 C2147 0.950 . S
H2152 C2149 0.950 . S
C2153 C2144 1.390 1_565 S
C2153 H2146 0.950 . S
C2153 C2150 1.387 . S
C2154 C2155 1.387 . S
C2154 H2158 0.950 . S
C2154 C2163 1.390 1_545 S
C2155 C2154 1.387 . S
C2155 C2157 1.387 . S
H2156 C2163 0.950 . S
C2157 C2155 1.387 . S
C2157 C2159 1.390 1_545 S
C2157 H2161 0.950 . S
H2158 C2154 0.950 . S
C2159 C2157 1.390 1_565 S
C2159 C2160 1.387 . S
C2159 H2162 0.950 . S
C2160 C2159 1.387 . S
C2160 C2163 1.387 . S
H2161 C2157 0.950 . S
H2162 C2159 0.950 . S
C2163 C2154 1.390 1_565 S
C2163 H2156 0.950 . S
C2163 C2160 1.387 . S
C2164 C2165 1.387 . S
C2164 H2168 0.950 . S
C2164 C2173 1.390 1_655 S
C2165 C2164 1.387 . S
C2165 C2167 1.387 . S
H2166 C2173 0.950 . S
C2167 C2165 1.387 . S
C2167 C2169 1.390 1_655 S
C2167 H2171 0.950 . S
H2168 C2164 0.950 . S
C2169 C2167 1.390 1_455 S
C2169 C2170 1.387 . S
C2169 H2172 0.950 . S
C2170 C2169 1.387 . S
C2170 C2173 1.387 . S
H2171 C2167 0.950 . S
H2172 C2169 0.950 . S
C2173 C2164 1.390 1_455 S
C2173 H2166 0.950 . S
C2173 C2170 1.387 . S
C2174 C2175 1.387 . S
C2174 H2178 0.950 . S
C2174 C2183 1.390 . S
C2175 C2174 1.387 . S
C2175 C2177 1.387 . S
H2176 C2183 0.950 . S
C2177 C2175 1.387 . S
C2177 C2179 1.390 . S
C2177 H2181 0.950 . S
H2178 C2174 0.950 . S
C2179 C2177 1.390 . S
C2179 C2180 1.387 . S
C2179 H2182 0.950 . S
C2180 C2179 1.387 . S
C2180 C2183 1.387 . S
H2181 C2177 0.950 . S
H2182 C2179 0.950 . S
C2183 C2174 1.390 . S
C2183 H2176 0.950 . S
C2183 C2180 1.387 . S
C2184 C2185 1.387 . S
C2184 H2188 0.950 . S
C2184 C2193 1.390 1_655 S
C2185 C2184 1.387 . S
C2185 C2187 1.387 . S
H2186 C2193 0.950 . S
C2187 C2185 1.387 . S
C2187 C2189 1.390 1_655 S
C2187 H2191 0.950 . S
H2188 C2184 0.950 . S
C2189 C2187 1.390 1_455 S
C2189 C2190 1.387 . S
C2189 H2192 0.950 . S
C2190 C2189 1.387 . S
C2190 C2193 1.387 . S
H2191 C2187 0.950 . S
H2192 C2189 0.950 . S
C2193 C2184 1.390 1_455 S
C2193 H2186 0.950 . S
C2193 C2190 1.387 . S
C2194 C2195 1.387 . S
C2194 H2198 0.950 . S
C2194 C2203 1.390 . S
C2195 C2194 1.387 . S
C2195 C2197 1.387 . S
H2196 C2203 0.950 . S
C2197 C2195 1.387 . S
C2197 C2199 1.390 . S
C2197 H2201 0.950 . S
H2198 C2194 0.950 . S
C2199 C2197 1.390 . S
C2199 C2200 1.387 . S
C2199 H2202 0.950 . S
C2200 C2199 1.387 . S
C2200 C2203 1.387 . S
H2201 C2197 0.950 . S
H2202 C2199 0.950 . S
C2203 C2194 1.390 . S
C2203 H2196 0.950 . S
C2203 C2200 1.387 . S
C2204 C2205 1.387 . S
C2204 H2208 0.950 . S
C2204 C2213 1.390 1_565 S
C2205 C2204 1.387 . S
C2205 C2207 1.387 . S
H2206 C2213 0.950 . S
C2207 C2205 1.387 . S
C2207 C2209 1.390 1_565 S
C2207 H2211 0.950 . S
H2208 C2204 0.950 . S
C2209 C2207 1.390 1_545 S
C2209 C2210 1.387 . S
C2209 H2212 0.950 . S
C2210 C2209 1.387 . S
C2210 C2213 1.387 . S
H2211 C2207 0.950 . S
H2212 C2209 0.950 . S
C2213 C2204 1.390 1_545 S
C2213 H2206 0.950 . S
C2213 C2210 1.387 . S
C2214 C2215 1.387 . S
C2214 H2218 0.950 . S
C2214 C2223 1.390 1_545 S
C2215 C2214 1.387 . S
C2215 C2217 1.387 . S
H2216 C2223 0.950 . S
C2217 C2215 1.387 . S
C2217 C2219 1.390 1_545 S
C2217 H2221 0.950 . S
H2218 C2214 0.950 . S
C2219 C2217 1.390 1_565 S
C2219 C2220 1.387 . S
C2219 H2222 0.950 . S
C2220 C2219 1.387 . S
C2220 C2223 1.387 . S
H2221 C2217 0.950 . S
H2222 C2219 0.950 . S
C2223 C2214 1.390 1_565 S
C2223 H2216 0.950 . S
C2223 C2220 1.387 . S
C2224 C2225 1.387 . S
C2224 H2228 0.950 . S
C2224 C2233 1.390 1_455 S
C2225 C2224 1.387 . S
C2225 C2227 1.387 . S
H2226 C2233 0.950 . S
C2227 C2225 1.387 . S
C2227 C2229 1.390 1_455 S
C2227 H2231 0.950 . S
H2228 C2224 0.950 . S
C2229 C2227 1.390 1_655 S
C2229 C2230 1.387 . S
C2229 H2232 0.950 . S
C2230 C2229 1.387 . S
C2230 C2233 1.387 . S
H2231 C2227 0.950 . S
H2232 C2229 0.950 . S
C2233 C2224 1.390 1_655 S
C2233 H2226 0.950 . S
C2233 C2230 1.387 . S
C2234 C2235 1.387 . S
C2234 H2238 0.950 . S
C2234 C2243 1.390 . S
C2235 C2234 1.387 . S
C2235 C2237 1.387 . S
H2236 C2243 0.950 . S
C2237 C2235 1.387 . S
C2237 C2239 1.390 . S
C2237 H2241 0.950 . S
H2238 C2234 0.950 . S
C2239 C2237 1.390 . S
C2239 C2240 1.387 . S
C2239 H2242 0.950 . S
C2240 C2239 1.387 . S
C2240 C2243 1.387 . S
H2241 C2237 0.950 . S
H2242 C2239 0.950 . S
C2243 C2234 1.390 . S
C2243 H2236 0.950 . S
C2243 C2240 1.387 . S
C2244 C2245 1.387 . S
C2244 H2248 0.950 . S
C2244 C2253 1.390 . S
C2245 C2244 1.387 . S
C2245 C2247 1.387 . S
H2246 C2253 0.950 . S
C2247 C2245 1.387 . S
C2247 C2249 1.390 . S
C2247 H2251 0.950 . S
H2248 C2244 0.950 . S
C2249 C2247 1.390 . S
C2249 C2250 1.387 . S
C2249 H2252 0.950 . S
C2250 C2249 1.387 . S
C2250 C2253 1.387 . S
H2251 C2247 0.950 . S
H2252 C2249 0.950 . S
C2253 C2244 1.390 . S
C2253 H2246 0.950 . S
C2253 C2250 1.387 . S
C2254 C2255 1.387 . S
C2254 H2258 0.950 . S
C2254 C2263 1.390 . S
C2255 C2254 1.387 . S
C2255 C2257 1.387 . S
H2256 C2263 0.950 . S
C2257 C2255 1.387 . S
C2257 C2259 1.390 . S
C2257 H2261 0.950 . S
H2258 C2254 0.950 . S
C2259 C2257 1.390 . S
C2259 C2260 1.387 . S
C2259 H2262 0.950 . S
C2260 C2259 1.387 . S
C2260 C2263 1.387 . S
H2261 C2257 0.950 . S
H2262 C2259 0.950 . S
C2263 C2254 1.390 . S
C2263 H2256 0.950 . S
C2263 C2260 1.387 . S
C2264 C2265 1.387 . S
C2264 H2268 0.950 . S
C2264 C2273 1.390 . S
C2265 C2264 1.387 . S
C2265 C2267 1.387 . S
H2266 C2273 0.950 . S
C2267 C2265 1.387 . S
C2267 C2269 1.390 . S
C2267 H2271 0.950 . S
H2268 C2264 0.950 . S
C2269 C2267 1.390 . S
C2269 C2270 1.387 . S
C2269 H2272 0.950 . S
C2270 C2269 1.387 . S
C2270 C2273 1.387 . S
H2271 C2267 0.950 . S
H2272 C2269 0.950 . S
C2273 C2264 1.390 . S
C2273 H2266 0.950 . S
C2273 C2270 1.387 . S
C2274 C2275 1.387 . S
C2274 H2278 0.950 . S
C2274 C2283 1.390 . S
C2275 C2274 1.387 . S
C2275 C2277 1.387 . S
H2276 C2283 0.950 . S
C2277 C2275 1.387 . S
C2277 C2279 1.390 . S
C2277 H2281 0.950 . S
H2278 C2274 0.950 . S
C2279 C2277 1.390 . S
C2279 C2280 1.387 . S
C2279 H2282 0.950 . S
C2280 C2279 1.387 . S
C2280 C2283 1.387 . S
H2281 C2277 0.950 . S
H2282 C2279 0.950 . S
C2283 C2274 1.390 . S
C2283 H2276 0.950 . S
C2283 C2280 1.387 . S
C2284 C2285 1.387 . S
C2284 H2288 0.950 . S
C2284 C2293 1.390 . S
C2285 C2284 1.387 . S
C2285 C2287 1.387 . S
H2286 C2293 0.950 . S
C2287 C2285 1.387 . S
C2287 C2289 1.390 . S
C2287 H2291 0.950 . S
H2288 C2284 0.950 . S
C2289 C2287 1.390 . S
C2289 C2290 1.387 . S
C2289 H2292 0.950 . S
C2290 C2289 1.387 . S
C2290 C2293 1.387 . S
H2291 C2287 0.950 . S
H2292 C2289 0.950 . S
C2293 C2284 1.390 . S
C2293 H2286 0.950 . S
C2293 C2290 1.387 . S
C2294 C2295 1.387 . S
C2294 H2298 0.950 . S
C2294 C2303 1.390 . S
C2295 C2294 1.387 . S
C2295 C2297 1.387 . S
H2296 C2303 0.950 . S
C2297 C2295 1.387 . S
C2297 C2299 1.390 . S
C2297 H2301 0.950 . S
H2298 C2294 0.950 . S
C2299 C2297 1.390 . S
C2299 C2300 1.387 . S
C2299 H2302 0.950 . S
C2300 C2299 1.387 . S
C2300 C2303 1.387 . S
H2301 C2297 0.950 . S
H2302 C2299 0.950 . S
C2303 C2294 1.390 . S
C2303 H2296 0.950 . S
C2303 C2300 1.387 . S
C2304 C2305 1.387 . S
C2304 H2308 0.950 . S
C2304 C2313 1.390 . S
C2305 C2304 1.387 . S
C2305 C2307 1.387 . S
H2306 C2313 0.950 . S
C2307 C2305 1.387 . S
C2307 C2309 1.390 . S
C2307 H2311 0.950 . S
H2308 C2304 0.950 . S
C2309 C2307 1.390 . S
C2309 C2310 1.387 . S
C2309 H2312 0.950 . S
C2310 C2309 1.387 . S
C2310 C2313 1.387 . S
H2311 C2307 0.950 . S
H2312 C2309 0.950 . S
C2313 C2304 1.390 . S
C2313 H2306 0.950 . S
C2313 C2310 1.387 . S
C2314 C2315 1.387 . S
C2314 H2318 0.950 . S
C2314 C2323 1.390 . S
C2315 C2314 1.387 . S
C2315 C2317 1.387 . S
H2316 C2323 0.950 . S
C2317 C2315 1.387 . S
C2317 C2319 1.390 . S
C2317 H2321 0.950 . S
H2318 C2314 0.950 . S
C2319 C2317 1.390 . S
C2319 C2320 1.387 . S
C2319 H2322 0.950 . S
C2320 C2319 1.387 . S
C2320 C2323 1.387 . S
H2321 C2317 0.950 . S
H2322 C2319 0.950 . S
C2323 C2314 1.390 . S
C2323 H2316 0.950 . S
C2323 C2320 1.387 . S
C2324 C2325 1.387 . S
C2324 H2328 0.950 . S
C2324 C2333 1.390 . S
C2325 C2324 1.387 . S
C2325 C2327 1.387 . S
H2326 C2333 0.950 . S
C2327 C2325 1.387 . S
C2327 C2329 1.390 . S
C2327 H2331 0.950 . S
H2328 C2324 0.950 . S
C2329 C2327 1.390 . S
C2329 C2330 1.387 . S
C2329 H2332 0.950 . S
C2330 C2329 1.387 . S
C2330 C2333 1.387 . S
H2331 C2327 0.950 . S
H2332 C2329 0.950 . S
C2333 C2324 1.390 . S
C2333 H2326 0.950 . S
C2333 C2330 1.387 . S
C2334 C2335 1.387 . S
C2334 H2338 0.950 . S
C2334 C2343 1.390 . S
C2335 C2334 1.387 . S
C2335 C2337 1.387 1_556 S
H2336 C2343 0.950 . S
C2337 C2335 1.387 1_554 S
C2337 C2339 1.390 . S
C2337 H2341 0.950 . S
H2338 C2334 0.950 . S
C2339 C2337 1.390 . S
C2339 C2340 1.387 . S
C2339 H2342 0.950 . S
C2340 C2339 1.387 . S
C2340 C2343 1.387 1_554 S
H2341 C2337 0.950 . S
H2342 C2339 0.950 . S
C2343 C2334 1.390 . S
C2343 H2336 0.950 . S
C2343 C2340 1.387 1_556 S
C2344 C2345 1.387 1_556 S
C2344 H2348 0.950 . S
C2344 C2353 1.390 . S
C2345 C2344 1.387 1_554 S
C2345 C2347 1.387 . S
H2346 C2353 0.950 . S
C2347 C2345 1.387 . S
C2347 C2349 1.390 . S
C2347 H2351 0.950 . S
H2348 C2344 0.950 . S
C2349 C2347 1.390 . S
C2349 C2350 1.387 1_554 S
C2349 H2352 0.950 . S
C2350 C2349 1.387 1_556 S
C2350 C2353 1.387 . S
H2351 C2347 0.950 . S
H2352 C2349 0.950 . S
C2353 C2344 1.390 . S
C2353 H2346 0.950 . S
C2353 C2350 1.387 . S
C2354 C2355 1.387 . S
C2354 H2358 0.950 . S
C2354 C2363 1.390 . S
C2355 C2354 1.387 . S
C2355 C2357 1.387 1_556 S
H2356 C2363 0.950 . S
C2357 C2355 1.387 1_554 S
C2357 C2359 1.390 . S
C2357 H2361 0.950 . S
H2358 C2354 0.950 . S
C2359 C2357 1.390 . S
C2359 C2360 1.387 . S
C2359 H2362 0.950 . S
C2360 C2359 1.387 . S
C2360 C2363 1.387 1_554 S
H2361 C2357 0.950 . S
H2362 C2359 0.950 . S
C2363 C2354 1.390 . S
C2363 H2356 0.950 . S
C2363 C2360 1.387 1_556 S
C2364 C2365 1.387 . S
C2364 H2368 0.950 . S
C2364 C2373 1.390 . S
C2365 C2364 1.387 . S
C2365 C2367 1.387 . S
H2366 C2373 0.950 . S
C2367 C2365 1.387 . S
C2367 C2369 1.390 . S
C2367 H2371 0.950 . S
H2368 C2364 0.950 . S
C2369 C2367 1.390 . S
C2369 C2370 1.387 . S
C2369 H2372 0.950 . S
C2370 C2369 1.387 . S
C2370 C2373 1.387 . S
H2371 C2367 0.950 . S
H2372 C2369 0.950 . S
C2373 C2364 1.390 . S
C2373 H2366 0.950 . S
C2373 C2370 1.387 . S
C2374 C2375 1.387 . S
C2374 H2378 0.950 . S
C2374 C2383 1.390 . S
C2375 C2374 1.387 . S
C2375 C2377 1.387 . S
H2376 C2383 0.950 . S
C2377 C2375 1.387 . S
C2377 C2379 1.390 . S
C2377 H2381 0.950 . S
H2378 C2374 0.950 . S
C2379 C2377 1.390 . S
C2379 C2380 1.387 . S
C2379 H2382 0.950 . S
C2380 C2379 1.387 . S
C2380 C2383 1.387 . S
H2381 C2377 0.950 . S
H2382 C2379 0.950 . S
C2383 C2374 1.390 . S
C2383 H2376 0.950 . S
C2383 C2380 1.387 . S
C2384 C2385 1.387 . S
C2384 H2388 0.950 . S
C2384 C2393 1.390 . S
C2385 C2384 1.387 . S
C2385 C2387 1.387 . S
H2386 C2393 0.950 . S
C2387 C2385 1.387 . S
C2387 C2389 1.390 . S
C2387 H2391 0.950 . S
H2388 C2384 0.950 . S
C2389 C2387 1.390 . S
C2389 C2390 1.387 . S
C2389 H2392 0.950 . S
C2390 C2389 1.387 . S
C2390 C2393 1.387 . S
H2391 C2387 0.950 . S
H2392 C2389 0.950 . S
C2393 C2384 1.390 . S
C2393 H2386 0.950 . S
C2393 C2390 1.387 . S
C2394 C2395 1.387 . S
C2394 H2398 0.950 . S
C2394 C2403 1.390 . S
C2395 C2394 1.387 . S
C2395 C2397 1.387 1_554 S
H2396 C2403 0.950 . S
C2397 C2395 1.387 1_556 S
C2397 C2399 1.390 . S
C2397 H2401 0.950 . S
H2398 C2394 0.950 . S
C2399 C2397 1.390 . S
C2399 C2400 1.387 . S
C2399 H2402 0.950 . S
C2400 C2399 1.387 . S
C2400 C2403 1.387 1_556 S
H2401 C2397 0.950 . S
H2402 C2399 0.950 . S
C2403 C2394 1.390 . S
C2403 H2396 0.950 . S
C2403 C2400 1.387 1_554 S
C2404 C2405 1.387 . S
C2404 H2408 0.950 . S
C2404 C2413 1.390 . S
C2405 C2404 1.387 . S
C2405 C2407 1.387 1_556 S
H2406 C2413 0.950 . S
C2407 C2405 1.387 1_554 S
C2407 C2409 1.390 . S
C2407 H2411 0.950 . S
H2408 C2404 0.950 . S
C2409 C2407 1.390 . S
C2409 C2410 1.387 . S
C2409 H2412 0.950 . S
C2410 C2409 1.387 . S
C2410 C2413 1.387 1_554 S
H2411 C2407 0.950 . S
H2412 C2409 0.950 . S
C2413 C2404 1.390 . S
C2413 H2406 0.950 . S
C2413 C2410 1.387 1_556 S
C2414 C2415 1.387 1_556 S
C2414 H2418 0.950 . S
C2414 C2423 1.390 . S
C2415 C2414 1.387 1_554 S
C2415 C2417 1.387 . S
H2416 C2423 0.950 . S
C2417 C2415 1.387 . S
C2417 C2419 1.390 . S
C2417 H2421 0.950 . S
H2418 C2414 0.950 . S
C2419 C2417 1.390 . S
C2419 C2420 1.387 1_554 S
C2419 H2422 0.950 . S
C2420 C2419 1.387 1_556 S
C2420 C2423 1.387 . S
H2421 C2417 0.950 . S
H2422 C2419 0.950 . S
C2423 C2414 1.390 . S
C2423 H2416 0.950 . S
C2423 C2420 1.387 . S
C2424 C2425 1.387 . S
C2424 H2428 0.950 . S
C2424 C2433 1.390 . S
C2425 C2424 1.387 . S
C2425 C2427 1.387 . S
H2426 C2433 0.950 . S
C2427 C2425 1.387 . S
C2427 C2429 1.390 . S
C2427 H2431 0.950 . S
H2428 C2424 0.950 . S
C2429 C2427 1.390 . S
C2429 C2430 1.387 . S
C2429 H2432 0.950 . S
C2430 C2429 1.387 . S
C2430 C2433 1.387 . S
H2431 C2427 0.950 . S
H2432 C2429 0.950 . S
C2433 C2424 1.390 . S
C2433 H2426 0.950 . S
C2433 C2430 1.387 . S
C2434 C2435 1.387 . S
C2434 H2438 0.950 . S
C2434 C2443 1.390 . S
C2435 C2434 1.387 . S
C2435 C2437 1.387 . S
H2436 C2443 0.950 . S
C2437 C2435 1.387 . S
C2437 C2439 1.390 . S
C2437 H2441 0.950 . S
H2438 C2434 0.950 . S
C2439 C2437 1.390 . S
C2439 C2440 1.387 . S
C2439 H2442 0.950 . S
C2440 C2439 1.387 . S
C2440 C2443 1.387 . S
H2441 C2437 0.950 . S
H2442 C2439 0.950 . S
C2443 C2434 1.390 . S
C2443 H2436 0.950 . S
C2443 C2440 1.387 . S
C2444 C2445 1.387 . S
C2444 H2448 0.950 . S
C2444 C2453 1.390 . S
C2445 C2444 1.387 . S
C2445 C2447 1.387 . S
H2446 C2453 0.950 . S
C2447 C2445 1.387 . S
C2447 C2449 1.390 . S
C2447 H2451 0.950 . S
H2448 C2444 0.950 . S
C2449 C2447 1.390 . S
C2449 C2450 1.387 . S
C2449 H2452 0.950 . S
C2450 C2449 1.387 . S
C2450 C2453 1.387 . S
H2451 C2447 0.950 . S
H2452 C2449 0.950 . S
C2453 C2444 1.390 . S
C2453 H2446 0.950 . S
C2453 C2450 1.387 . S
C2454 C2455 1.387 . S
C2454 H2458 0.950 . S
C2454 C2463 1.390 . S
C2455 C2454 1.387 . S
C2455 C2457 1.387 . S
H2456 C2463 0.950 . S
C2457 C2455 1.387 . S
C2457 C2459 1.390 . S
C2457 H2461 0.950 . S
H2458 C2454 0.950 . S
C2459 C2457 1.390 . S
C2459 C2460 1.387 . S
C2459 H2462 0.950 . S
C2460 C2459 1.387 . S
C2460 C2463 1.387 . S
H2461 C2457 0.950 . S
H2462 C2459 0.950 . S
C2463 C2454 1.390 . S
C2463 H2456 0.950 . S
C2463 C2460 1.387 . S
C2464 C2465 1.387 . S
C2464 H2468 0.950 . S
C2464 C2473 1.390 . S
C2465 C2464 1.387 . S
C2465 C2467 1.387 . S
H2466 C2473 0.950 . S
C2467 C2465 1.387 . S
C2467 C2469 1.390 . S
C2467 H2471 0.950 . S
H2468 C2464 0.950 . S
C2469 C2467 1.390 . S
C2469 C2470 1.387 . S
C2469 H2472 0.950 . S
C2470 C2469 1.387 . S
C2470 C2473 1.387 . S
H2471 C2467 0.950 . S
H2472 C2469 0.950 . S
C2473 C2464 1.390 . S
C2473 H2466 0.950 . S
C2473 C2470 1.387 . S
C2474 C2475 1.387 . S
C2474 H2478 0.950 . S
C2474 C2483 1.390 . S
C2475 C2474 1.387 . S
C2475 C2477 1.387 . S
H2476 C2483 0.950 . S
C2477 C2475 1.387 . S
C2477 C2479 1.390 . S
C2477 H2481 0.950 . S
H2478 C2474 0.950 . S
C2479 C2477 1.390 . S
C2479 C2480 1.387 . S
C2479 H2482 0.950 . S
C2480 C2479 1.387 . S
C2480 C2483 1.387 . S
H2481 C2477 0.950 . S
H2482 C2479 0.950 . S
C2483 C2474 1.390 . S
C2483 H2476 0.950 . S
C2483 C2480 1.387 . S
C2484 C2485 1.387 . S
C2484 H2488 0.950 . S
C2484 C2493 1.390 . S
C2485 C2484 1.387 . S
C2485 C2487 1.387 . S
H2486 C2493 0.950 . S
C2487 C2485 1.387 . S
C2487 C2489 1.390 . S
C2487 H2491 0.950 . S
H2488 C2484 0.950 . S
C2489 C2487 1.390 . S
C2489 C2490 1.387 . S
C2489 H2492 0.950 . S
C2490 C2489 1.387 . S
C2490 C2493 1.387 . S
H2491 C2487 0.950 . S
H2492 C2489 0.950 . S
C2493 C2484 1.390 . S
C2493 H2486 0.950 . S
C2493 C2490 1.387 . S
C2494 C2495 1.387 . S
C2494 H2498 0.950 . S
C2494 C2503 1.390 1_565 S
C2495 C2494 1.387 . S
C2495 C2497 1.387 . S
H2496 C2503 0.950 . S
C2497 C2495 1.387 . S
C2497 C2499 1.390 1_565 S
C2497 H2501 0.950 . S
H2498 C2494 0.950 . S
C2499 C2497 1.390 1_545 S
C2499 C2500 1.387 . S
C2499 H2502 0.950 . S
C2500 C2499 1.387 . S
C2500 C2503 1.387 . S
H2501 C2497 0.950 . S
H2502 C2499 0.950 . S
C2503 C2494 1.390 1_545 S
C2503 H2496 0.950 . S
C2503 C2500 1.387 . S
C2504 C2505 1.387 1_455 S
C2504 H2508 0.950 . S
C2504 C2513 1.390 . S
C2505 C2504 1.387 1_655 S
C2505 C2507 1.387 . S
H2506 C2513 0.950 . S
C2507 C2505 1.387 . S
C2507 C2509 1.390 . S
C2507 H2511 0.950 . S
H2508 C2504 0.950 . S
C2509 C2507 1.390 . S
C2509 C2510 1.387 1_655 S
C2509 H2512 0.950 . S
C2510 C2509 1.387 1_455 S
C2510 C2513 1.387 . S
H2511 C2507 0.950 . S
H2512 C2509 0.950 . S
C2513 C2504 1.390 . S
C2513 H2506 0.950 . S
C2513 C2510 1.387 . S
C2514 C2515 1.387 . S
C2514 H2518 0.950 . S
C2514 C2523 1.390 . S
C2515 C2514 1.387 . S
C2515 C2517 1.387 . S
H2516 C2523 0.950 . S
C2517 C2515 1.387 . S
C2517 C2519 1.390 . S
C2517 H2521 0.950 . S
H2518 C2514 0.950 . S
C2519 C2517 1.390 . S
C2519 C2520 1.387 . S
C2519 H2522 0.950 . S
C2520 C2519 1.387 . S
C2520 C2523 1.387 . S
H2521 C2517 0.950 . S
H2522 C2519 0.950 . S
C2523 C2514 1.390 . S
C2523 H2516 0.950 . S
C2523 C2520 1.387 . S
C2524 C2525 1.387 . S
C2524 H2528 0.950 . S
C2524 C2533 1.390 1_545 S
C2525 C2524 1.387 . S
C2525 C2527 1.387 . S
H2526 C2533 0.950 . S
C2527 C2525 1.387 . S
C2527 C2529 1.390 1_545 S
C2527 H2531 0.950 . S
H2528 C2524 0.950 . S
C2529 C2527 1.390 1_565 S
C2529 C2530 1.387 . S
C2529 H2532 0.950 . S
C2530 C2529 1.387 . S
C2530 C2533 1.387 . S
H2531 C2527 0.950 . S
H2532 C2529 0.950 . S
C2533 C2524 1.390 1_565 S
C2533 H2526 0.950 . S
C2533 C2530 1.387 . S
C2534 C2535 1.387 1_655 S
C2534 H2538 0.950 . S
C2534 C2543 1.390 . S
C2535 C2534 1.387 1_455 S
C2535 C2537 1.387 . S
H2536 C2543 0.950 . S
C2537 C2535 1.387 . S
C2537 C2539 1.390 . S
C2537 H2541 0.950 . S
H2538 C2534 0.950 . S
C2539 C2537 1.390 . S
C2539 C2540 1.387 1_455 S
C2539 H2542 0.950 . S
C2540 C2539 1.387 1_655 S
C2540 C2543 1.387 . S
H2541 C2537 0.950 . S
H2542 C2539 0.950 . S
C2543 C2534 1.390 . S
C2543 H2536 0.950 . S
C2543 C2540 1.387 . S
C2544 C2545 1.387 . S
C2544 H2548 0.950 . S
C2544 C2553 1.390 . S
C2545 C2544 1.387 . S
C2545 C2547 1.387 . S
H2546 C2553 0.950 . S
C2547 C2545 1.387 . S
C2547 C2549 1.390 . S
C2547 H2551 0.950 . S
H2548 C2544 0.950 . S
C2549 C2547 1.390 . S
C2549 C2550 1.387 . S
C2549 H2552 0.950 . S
C2550 C2549 1.387 . S
C2550 C2553 1.387 . S
H2551 C2547 0.950 . S
H2552 C2549 0.950 . S
C2553 C2544 1.390 . S
C2553 H2546 0.950 . S
C2553 C2550 1.387 . S
C2554 C2555 1.387 . S
C2554 H2558 0.950 . S
C2554 C2563 1.390 . S
C2555 C2554 1.387 . S
C2555 C2557 1.387 . S
H2556 C2563 0.950 . S
C2557 C2555 1.387 . S
C2557 C2559 1.390 . S
C2557 H2561 0.950 . S
H2558 C2554 0.950 . S
C2559 C2557 1.390 . S
C2559 C2560 1.387 . S
C2559 H2562 0.950 . S
C2560 C2559 1.387 . S
C2560 C2563 1.387 . S
H2561 C2557 0.950 . S
H2562 C2559 0.950 . S
C2563 C2554 1.390 . S
C2563 H2556 0.950 . S
C2563 C2560 1.387 . S
C2564 C2565 1.387 . S
C2564 H2568 0.950 . S
C2564 C2573 1.390 . S
C2565 C2564 1.387 . S
C2565 C2567 1.387 . S
H2566 C2573 0.950 . S
C2567 C2565 1.387 . S
C2567 C2569 1.390 . S
C2567 H2571 0.950 . S
H2568 C2564 0.950 . S
C2569 C2567 1.390 . S
C2569 C2570 1.387 . S
C2569 H2572 0.950 . S
C2570 C2569 1.387 . S
C2570 C2573 1.387 . S
H2571 C2567 0.950 . S
H2572 C2569 0.950 . S
C2573 C2564 1.390 . S
C2573 H2566 0.950 . S
C2573 C2570 1.387 . S
C2574 C2575 1.387 . S
C2574 H2578 0.950 . S
C2574 C2583 1.390 . S
C2575 C2574 1.387 . S
C2575 C2577 1.387 . S
H2576 C2583 0.950 . S
C2577 C2575 1.387 . S
C2577 C2579 1.390 . S
C2577 H2581 0.950 . S
H2578 C2574 0.950 . S
C2579 C2577 1.390 . S
C2579 C2580 1.387 . S
C2579 H2582 0.950 . S
C2580 C2579 1.387 . S
C2580 C2583 1.387 . S
H2581 C2577 0.950 . S
H2582 C2579 0.950 . S
C2583 C2574 1.390 . S
C2583 H2576 0.950 . S
C2583 C2580 1.387 . S
C2584 C2585 1.387 . S
C2584 H2588 0.950 . S
C2584 C2593 1.390 . S
C2585 C2584 1.387 . S
C2585 C2587 1.387 . S
H2586 C2593 0.950 . S
C2587 C2585 1.387 . S
C2587 C2589 1.390 . S
C2587 H2591 0.950 . S
H2588 C2584 0.950 . S
C2589 C2587 1.390 . S
C2589 C2590 1.387 . S
C2589 H2592 0.950 . S
C2590 C2589 1.387 . S
C2590 C2593 1.387 . S
H2591 C2587 0.950 . S
H2592 C2589 0.950 . S
C2593 C2584 1.390 . S
C2593 H2586 0.950 . S
C2593 C2590 1.387 . S
C2594 C2595 1.387 . S
C2594 H2598 0.950 . S
C2594 C2603 1.390 . S
C2595 C2594 1.387 . S
C2595 C2597 1.387 . S
H2596 C2603 0.950 . S
C2597 C2595 1.387 . S
C2597 C2599 1.390 . S
C2597 H2601 0.950 . S
H2598 C2594 0.950 . S
C2599 C2597 1.390 . S
C2599 C2600 1.387 . S
C2599 H2602 0.950 . S
C2600 C2599 1.387 . S
C2600 C2603 1.387 . S
H2601 C2597 0.950 . S
H2602 C2599 0.950 . S
C2603 C2594 1.390 . S
C2603 H2596 0.950 . S
C2603 C2600 1.387 . S
C2604 C2605 1.387 . S
C2604 H2608 0.950 . S
C2604 C2613 1.390 . S
C2605 C2604 1.387 . S
C2605 C2607 1.387 . S
H2606 C2613 0.950 . S
C2607 C2605 1.387 . S
C2607 C2609 1.390 . S
C2607 H2611 0.950 . S
H2608 C2604 0.950 . S
C2609 C2607 1.390 . S
C2609 C2610 1.387 . S
C2609 H2612 0.950 . S
C2610 C2609 1.387 . S
C2610 C2613 1.387 . S
H2611 C2607 0.950 . S
H2612 C2609 0.950 . S
C2613 C2604 1.390 . S
C2613 H2606 0.950 . S
C2613 C2610 1.387 . S
C2614 C2615 1.387 . S
C2614 H2618 0.950 . S
C2614 C2623 1.390 . S
C2615 C2614 1.387 . S
C2615 C2617 1.387 . S
H2616 C2623 0.950 . S
C2617 C2615 1.387 . S
C2617 C2619 1.390 . S
C2617 H2621 0.950 . S
H2618 C2614 0.950 . S
C2619 C2617 1.390 . S
C2619 C2620 1.387 . S
C2619 H2622 0.950 . S
C2620 C2619 1.387 . S
C2620 C2623 1.387 . S
H2621 C2617 0.950 . S
H2622 C2619 0.950 . S
C2623 C2614 1.390 . S
C2623 H2616 0.950 . S
C2623 C2620 1.387 . S
C2624 C2625 1.387 . S
C2624 H2628 0.950 . S
C2624 C2633 1.390 . S
C2625 C2624 1.387 . S
C2625 C2627 1.387 . S
H2626 C2633 0.950 . S
C2627 C2625 1.387 . S
C2627 C2629 1.390 . S
C2627 H2631 0.950 . S
H2628 C2624 0.950 . S
C2629 C2627 1.390 . S
C2629 C2630 1.387 . S
C2629 H2632 0.950 . S
C2630 C2629 1.387 . S
C2630 C2633 1.387 . S
H2631 C2627 0.950 . S
H2632 C2629 0.950 . S
C2633 C2624 1.390 . S
C2633 H2626 0.950 . S
C2633 C2630 1.387 . S
C2634 C2635 1.387 . S
C2634 H2638 0.950 . S
C2634 C2643 1.390 . S
C2635 C2634 1.387 . S
C2635 C2637 1.387 . S
H2636 C2643 0.950 . S
C2637 C2635 1.387 . S
C2637 C2639 1.390 . S
C2637 H2641 0.950 . S
H2638 C2634 0.950 . S
C2639 C2637 1.390 . S
C2639 C2640 1.387 . S
C2639 H2642 0.950 . S
C2640 C2639 1.387 . S
C2640 C2643 1.387 . S
H2641 C2637 0.950 . S
H2642 C2639 0.950 . S
C2643 C2634 1.390 . S
C2643 H2636 0.950 . S
C2643 C2640 1.387 . S
C2644 C2645 1.387 . S
C2644 H2648 0.950 . S
C2644 C2653 1.390 . S
C2645 C2644 1.387 . S
C2645 C2647 1.387 . S
H2646 C2653 0.950 . S
C2647 C2645 1.387 . S
C2647 C2649 1.390 . S
C2647 H2651 0.950 . S
H2648 C2644 0.950 . S
C2649 C2647 1.390 . S
C2649 C2650 1.387 . S
C2649 H2652 0.950 . S
C2650 C2649 1.387 . S
C2650 C2653 1.387 . S
H2651 C2647 0.950 . S
H2652 C2649 0.950 . S
C2653 C2644 1.390 . S
C2653 H2646 0.950 . S
C2653 C2650 1.387 . S
C2654 C2655 1.387 . S
C2654 H2658 0.950 . S
C2654 C2663 1.390 . S
C2655 C2654 1.387 . S
C2655 C2657 1.387 . S
H2656 C2663 0.950 . S
C2657 C2655 1.387 . S
C2657 C2659 1.390 . S
C2657 H2661 0.950 . S
H2658 C2654 0.950 . S
C2659 C2657 1.390 . S
C2659 C2660 1.387 . S
C2659 H2662 0.950 . S
C2660 C2659 1.387 . S
C2660 C2663 1.387 . S
H2661 C2657 0.950 . S
H2662 C2659 0.950 . S
C2663 C2654 1.390 . S
C2663 H2656 0.950 . S
C2663 C2660 1.387 . S
C2664 C2665 1.387 . S
C2664 H2668 0.950 . S
C2664 C2673 1.390 . S
C2665 C2664 1.387 . S
C2665 C2667 1.387 . S
H2666 C2673 0.950 . S
C2667 C2665 1.387 . S
C2667 C2669 1.390 . S
C2667 H2671 0.950 . S
H2668 C2664 0.950 . S
C2669 C2667 1.390 . S
C2669 C2670 1.387 . S
C2669 H2672 0.950 . S
C2670 C2669 1.387 . S
C2670 C2673 1.387 . S
H2671 C2667 0.950 . S
H2672 C2669 0.950 . S
C2673 C2664 1.390 . S
C2673 H2666 0.950 . S
C2673 C2670 1.387 . S
C2674 C2675 1.387 . S
C2674 H2678 0.950 . S
C2674 C2683 1.390 . S
C2675 C2674 1.387 . S
C2675 C2677 1.387 . S
H2676 C2683 0.950 . S
C2677 C2675 1.387 . S
C2677 C2679 1.390 . S
C2677 H2681 0.950 . S
H2678 C2674 0.950 . S
C2679 C2677 1.390 . S
C2679 C2680 1.387 . S
C2679 H2682 0.950 . S
C2680 C2679 1.387 . S
C2680 C2683 1.387 . S
H2681 C2677 0.950 . S
H2682 C2679 0.950 . S
C2683 C2674 1.390 . S
C2683 H2676 0.950 . S
C2683 C2680 1.387 . S
C2684 C2685 1.387 . S
C2684 H2688 0.950 . S
C2684 C2693 1.390 . S
C2685 C2684 1.387 . S
C2685 C2687 1.387 . S
H2686 C2693 0.950 . S
C2687 C2685 1.387 . S
C2687 C2689 1.390 . S
C2687 H2691 0.950 . S
H2688 C2684 0.950 . S
C2689 C2687 1.390 . S
C2689 C2690 1.387 . S
C2689 H2692 0.950 . S
C2690 C2689 1.387 . S
C2690 C2693 1.387 . S
H2691 C2687 0.950 . S
H2692 C2689 0.950 . S
C2693 C2684 1.390 . S
C2693 H2686 0.950 . S
C2693 C2690 1.387 . S
C2694 C2695 1.387 . S
C2694 H2698 0.950 . S
C2694 C2703 1.390 . S
C2695 C2694 1.387 . S
C2695 C2697 1.387 . S
H2696 C2703 0.950 . S
C2697 C2695 1.387 . S
C2697 C2699 1.390 . S
C2697 H2701 0.950 . S
H2698 C2694 0.950 . S
C2699 C2697 1.390 . S
C2699 C2700 1.387 . S
C2699 H2702 0.950 . S
C2700 C2699 1.387 . S
C2700 C2703 1.387 . S
H2701 C2697 0.950 . S
H2702 C2699 0.950 . S
C2703 C2694 1.390 . S
C2703 H2696 0.950 . S
C2703 C2700 1.387 . S
C2704 C2705 1.387 . S
C2704 H2708 0.950 . S
C2704 C2713 1.390 . S
C2705 C2704 1.387 . S
C2705 C2707 1.387 . S
H2706 C2713 0.950 . S
C2707 C2705 1.387 . S
C2707 C2709 1.390 . S
C2707 H2711 0.950 . S
H2708 C2704 0.950 . S
C2709 C2707 1.390 . S
C2709 C2710 1.387 . S
C2709 H2712 0.950 . S
C2710 C2709 1.387 . S
C2710 C2713 1.387 . S
H2711 C2707 0.950 . S
H2712 C2709 0.950 . S
C2713 C2704 1.390 . S
C2713 H2706 0.950 . S
C2713 C2710 1.387 . S
C2714 C2715 1.387 . S
C2714 H2718 0.950 . S
C2714 C2723 1.390 . S
C2715 C2714 1.387 . S
C2715 C2717 1.387 . S
H2716 C2723 0.950 . S
C2717 C2715 1.387 . S
C2717 C2719 1.390 . S
C2717 H2721 0.950 . S
H2718 C2714 0.950 . S
C2719 C2717 1.390 . S
C2719 C2720 1.387 . S
C2719 H2722 0.950 . S
C2720 C2719 1.387 . S
C2720 C2723 1.387 . S
H2721 C2717 0.950 . S
H2722 C2719 0.950 . S
C2723 C2714 1.390 . S
C2723 H2716 0.950 . S
C2723 C2720 1.387 . S
C2724 C2725 1.387 . S
C2724 H2728 0.950 . S
C2724 C2733 1.390 . S
C2725 C2724 1.387 . S
C2725 C2727 1.387 . S
H2726 C2733 0.950 . S
C2727 C2725 1.387 . S
C2727 C2729 1.390 . S
C2727 H2731 0.950 . S
H2728 C2724 0.950 . S
C2729 C2727 1.390 . S
C2729 C2730 1.387 . S
C2729 H2732 0.950 . S
C2730 C2729 1.387 . S
C2730 C2733 1.387 . S
H2731 C2727 0.950 . S
H2732 C2729 0.950 . S
C2733 C2724 1.390 . S
C2733 H2726 0.950 . S
C2733 C2730 1.387 . S
C2734 C2735 1.387 . S
C2734 H2738 0.950 . S
C2734 C2743 1.390 . S
C2735 C2734 1.387 . S
C2735 C2737 1.387 . S
H2736 C2743 0.950 . S
C2737 C2735 1.387 . S
C2737 C2739 1.390 . S
C2737 H2741 0.950 . S
H2738 C2734 0.950 . S
C2739 C2737 1.390 . S
C2739 C2740 1.387 . S
C2739 H2742 0.950 . S
C2740 C2739 1.387 . S
C2740 C2743 1.387 . S
H2741 C2737 0.950 . S
H2742 C2739 0.950 . S
C2743 C2734 1.390 . S
C2743 H2736 0.950 . S
C2743 C2740 1.387 . S
C2744 C2745 1.387 . S
C2744 H2748 0.950 . S
C2744 C2753 1.390 . S
C2745 C2744 1.387 . S
C2745 C2747 1.387 . S
H2746 C2753 0.950 . S
C2747 C2745 1.387 . S
C2747 C2749 1.390 . S
C2747 H2751 0.950 . S
H2748 C2744 0.950 . S
C2749 C2747 1.390 . S
C2749 C2750 1.387 . S
C2749 H2752 0.950 . S
C2750 C2749 1.387 . S
C2750 C2753 1.387 . S
H2751 C2747 0.950 . S
H2752 C2749 0.950 . S
C2753 C2744 1.390 . S
C2753 H2746 0.950 . S
C2753 C2750 1.387 . S
C2754 C2755 1.387 . S
C2754 H2758 0.950 . S
C2754 C2763 1.390 . S
C2755 C2754 1.387 . S
C2755 C2757 1.387 . S
H2756 C2763 0.950 . S
C2757 C2755 1.387 . S
C2757 C2759 1.390 . S
C2757 H2761 0.950 . S
H2758 C2754 0.950 . S
C2759 C2757 1.390 . S
C2759 C2760 1.387 . S
C2759 H2762 0.950 . S
C2760 C2759 1.387 . S
C2760 C2763 1.387 . S
H2761 C2757 0.950 . S
H2762 C2759 0.950 . S
C2763 C2754 1.390 . S
C2763 H2756 0.950 . S
C2763 C2760 1.387 . S
C2764 C2765 1.387 . S
C2764 H2768 0.950 . S
C2764 C2773 1.390 . S
C2765 C2764 1.387 . S
C2765 C2767 1.387 . S
H2766 C2773 0.950 . S
C2767 C2765 1.387 . S
C2767 C2769 1.390 . S
C2767 H2771 0.950 . S
H2768 C2764 0.950 . S
C2769 C2767 1.390 . S
C2769 C2770 1.387 . S
C2769 H2772 0.950 . S
C2770 C2769 1.387 . S
C2770 C2773 1.387 . S
H2771 C2767 0.950 . S
H2772 C2769 0.950 . S
C2773 C2764 1.390 . S
C2773 H2766 0.950 . S
C2773 C2770 1.387 . S
C2774 C2775 1.387 . S
C2774 H2778 0.950 . S
C2774 C2783 1.390 . S
C2775 C2774 1.387 . S
C2775 C2777 1.387 . S
H2776 C2783 0.950 . S
C2777 C2775 1.387 . S
C2777 C2779 1.390 . S
C2777 H2781 0.950 . S
H2778 C2774 0.950 . S
C2779 C2777 1.390 . S
C2779 C2780 1.387 . S
C2779 H2782 0.950 . S
C2780 C2779 1.387 . S
C2780 C2783 1.387 . S
H2781 C2777 0.950 . S
H2782 C2779 0.950 . S
C2783 C2774 1.390 . S
C2783 H2776 0.950 . S
C2783 C2780 1.387 . S
C2784 C2785 1.387 . S
C2784 H2788 0.950 . S
C2784 C2793 1.390 1_455 S
C2785 C2784 1.387 . S
C2785 C2787 1.387 . S
H2786 C2793 0.950 . S
C2787 C2785 1.387 . S
C2787 C2789 1.390 1_455 S
C2787 H2791 0.950 . S
H2788 C2784 0.950 . S
C2789 C2787 1.390 1_655 S
C2789 C2790 1.387 . S
C2789 H2792 0.950 . S
C2790 C2789 1.387 . S
C2790 C2793 1.387 . S
H2791 C2787 0.950 . S
H2792 C2789 0.950 . S
C2793 C2784 1.390 1_655 S
C2793 H2786 0.950 . S
C2793 C2790 1.387 . S
C2794 C2795 1.387 . S
C2794 H2798 0.950 . S
C2794 C2803 1.390 . S
C2795 C2794 1.387 . S
C2795 C2797 1.387 . S
H2796 C2803 0.950 . S
C2797 C2795 1.387 . S
C2797 C2799 1.390 . S
C2797 H2801 0.950 . S
H2798 C2794 0.950 . S
C2799 C2797 1.390 . S
C2799 C2800 1.387 . S
C2799 H2802 0.950 . S
C2800 C2799 1.387 . S
C2800 C2803 1.387 . S
H2801 C2797 0.950 . S
H2802 C2799 0.950 . S
C2803 C2794 1.390 . S
C2803 H2796 0.950 . S
C2803 C2800 1.387 . S
C2804 C2805 1.387 1_565 S
C2804 H2808 0.950 . S
C2804 C2813 1.390 . S
C2805 C2804 1.387 1_545 S
C2805 C2807 1.387 . S
H2806 C2813 0.950 . S
C2807 C2805 1.387 . S
C2807 C2809 1.390 . S
C2807 H2811 0.950 . S
H2808 C2804 0.950 . S
C2809 C2807 1.390 . S
C2809 C2810 1.387 1_545 S
C2809 H2812 0.950 . S
C2810 C2809 1.387 1_565 S
C2810 C2813 1.387 . S
H2811 C2807 0.950 . S
H2812 C2809 0.950 . S
C2813 C2804 1.390 . S
C2813 H2806 0.950 . S
C2813 C2810 1.387 . S
C2814 C2815 1.387 1_554 S
C2814 H2818 0.950 . S
C2814 C2823 1.390 1_545 S
C2815 C2814 1.387 1_556 S
C2815 C2817 1.387 . S
H2816 C2823 0.950 . S
C2817 C2815 1.387 . S
C2817 C2819 1.390 1_545 S
C2817 H2821 0.950 . S
H2818 C2814 0.950 . S
C2819 C2817 1.390 1_565 S
C2819 C2820 1.387 1_556 S
C2819 H2822 0.950 . S
C2820 C2819 1.387 1_554 S
C2820 C2823 1.387 . S
H2821 C2817 0.950 . S
H2822 C2819 0.950 . S
C2823 C2814 1.390 1_565 S
C2823 H2816 0.950 . S
C2823 C2820 1.387 . S
C2824 C2825 1.387 . S
C2824 H2828 0.950 . S
C2824 C2833 1.390 1_655 S
C2825 C2824 1.387 . S
C2825 C2827 1.387 1_556 S
H2826 C2833 0.950 . S
C2827 C2825 1.387 1_554 S
C2827 C2829 1.390 1_655 S
C2827 H2831 0.950 . S
H2828 C2824 0.950 . S
C2829 C2827 1.390 1_455 S
C2829 C2830 1.387 . S
C2829 H2832 0.950 . S
C2830 C2829 1.387 . S
C2830 C2833 1.387 1_554 S
H2831 C2827 0.950 . S
H2832 C2829 0.950 . S
C2833 C2824 1.390 1_455 S
C2833 H2826 0.950 . S
C2833 C2830 1.387 1_556 S
C2834 C2835 1.387 . S
C2834 H2838 0.950 . S
C2834 C2843 1.390 . S
C2835 C2834 1.387 . S
C2835 C2837 1.387 1_554 S
H2836 C2843 0.950 . S
C2837 C2835 1.387 1_556 S
C2837 C2839 1.390 . S
C2837 H2841 0.950 . S
H2838 C2834 0.950 . S
C2839 C2837 1.390 . S
C2839 C2840 1.387 . S
C2839 H2842 0.950 . S
C2840 C2839 1.387 . S
C2840 C2843 1.387 1_556 S
H2841 C2837 0.950 . S
H2842 C2839 0.950 . S
C2843 C2834 1.390 . S
C2843 H2836 0.950 . S
C2843 C2840 1.387 1_554 S
C2125 C33 1.542 . S
C2130 C92 1.606 . S
C2135 C111 1.570 . S
C2140 C151 1.604 . S
C2145 C52 1.593 . S
C2150 C170 1.572 . S
C2155 C229 1.568 . S
C2160 C347 1.592 . S
C2165 C288 1.570 . S
C2170 C210 1.605 . S
C2175 C269 1.605 . S
C2180 C328 1.543 . S
C2185 C406 1.567 . S
C2190 C446 1.605 . S
C2195 C505 1.603 . S
C2200 C465 1.567 . S
C2205 C387 1.605 . S
C2210 C524 1.571 . S
C2215 C682 1.605 . S
C2220 C583 1.568 . S
C2225 C642 1.569 . S
C2230 C564 1.604 . S
C2235 C701 1.568 . S
C2240 C623 1.606 . S
C2245 C800 1.605 . S
C2250 C741 1.539 . S
C2255 C819 1.570 . S
C2260 C859 1.604 . S
C2265 C878 1.569 . S
C2270 C760 1.592 . S
C2275 C937 1.571 . S
C2280 C1055 1.593 . S
C2285 C996 1.570 . S
C2290 C918 1.605 . S
C2295 C1036 1.542 . S
C2300 C977 1.606 . S
C2305 C1154 1.605 . S
C2310 C1114 1.570 . S
C2315 C1173 1.566 . S
C2320 C1213 1.604 . S
C2325 C1095 1.606 . S
C2330 C1232 1.571 . S
C2335 C1390 1.605 . S
C2340 C1291 1.569 . S
C2345 C1350 1.566 . S
C2350 C1272 1.604 . S
C2355 C1331 1.605 . S
C2360 C1409 1.567 . S
C2365 C1508 1.604 . S
C2370 C1449 1.539 . S
C2375 C1527 1.570 . S
C2380 C1567 1.604 . S
C2385 C1586 1.569 . S
C2390 C1468 1.592 . S
C2395 C1763 1.591 1_554 S
C2400 C1645 1.570 . S
C2405 C1704 1.567 . S
C2410 C1626 1.605 . S
C2415 C1685 1.605 1_554 S
C2420 C1744 1.539 . S
C2425 C1822 1.567 . S
C2430 C1862 1.604 . S
C2435 C1881 1.566 . S
C2440 C1921 1.604 . S
C2445 C1940 1.569 . S
C2450 C1803 1.608 . S
C2455 C2098 1.605 . S
C2460 C1999 1.571 . S
C2465 C1980 1.604 . S
C2470 C2058 1.569 . S
C2475 C2117 1.567 . S
C2480 C2039 1.605 . S
C2485 C180 1.915 . S
C2490 C5 1.915 . S
C2495 C62 1.918 . S
C2500 C239 1.918 . S
C2505 C300 1.914 . S
C2510 C121 1.915 . S
C2515 C534 1.915 . S
C2520 C357 1.913 . S
C2525 C416 1.912 . S
C2530 C593 1.913 . S
C2535 C652 1.914 . S
C2540 C475 1.913 . S
C2545 C713 1.914 . S
C2550 C888 1.912 . S
C2555 C770 1.917 . S
C2560 C947 1.917 . S
C2565 C829 1.912 . S
C2570 C1008 1.914 . S
C2575 C1242 1.913 . S
C2580 C1065 1.913 . S
C2585 C1301 1.912 . S
C2590 C1124 1.912 . S
C2595 C1183 1.913 . S
C2600 C1360 1.914 . S
C2605 C1596 1.912 . S
C2610 C1421 1.914 . S
C2615 C1655 1.919 . S
C2620 C1478 1.918 . S
C2625 C1537 1.915 . S
C2630 C1716 1.915 . S
C2635 C1773 1.913 . S
C2640 C1950 1.915 . S
C2645 C2009 1.914 . S
C2650 C1832 1.914 . S
C2655 C1891 1.914 . S
C2660 C2068 1.914 . S
C2665 C3 1.707 . S
C2670 C1067 1.721 . S
C2675 C64 1.721 . S
C2680 C1126 1.721 . S
C2685 C123 1.727 . S
C2690 C1185 1.728 . S
C2695 C1952 1.726 . S
C2700 C182 1.726 . S
C2705 C2011 1.723 . S
C2710 C241 1.724 . S
C2715 C298 1.707 . S
C2720 C2070 1.722 . S
C2725 C359 1.722 . S
C2730 C1419 1.707 . S
C2735 C1480 1.720 . S
C2740 C418 1.720 . S
C2745 C1539 1.727 . S
C2750 C477 1.727 . S
C2755 C890 1.724 . S
C2760 C536 1.724 . S
C2765 C949 1.721 . S
C2770 C595 1.721 . S
C2775 C1006 1.707 . S
C2780 C654 1.722 . S
C2785 C1775 1.725 . S
C2790 C711 1.711 . S
C2795 C772 1.724 . S
C2800 C1834 1.724 . S
C2805 C831 1.725 . S
C2810 C1893 1.726 . S
C2815 C1244 1.724 . S
C2820 C1598 1.724 . S
C2825 C1303 1.724 . S
C2830 C1657 1.724 . S
C2835 C1714 1.707 . S
C2840 C1362 1.722 . S
