# Generated by pormake.
# Topology wka, (5)-cn, num edge types: 1
# Building blocks:
#     Node 0, Type 0, BuildingBlock: XOMCOT_clean_sbu_0, # of connection points: 5
#     Node 1, Type 0, BuildingBlock: XOMCOT_clean_sbu_0, # of connection points: 5
#     Node 2, Type 0, BuildingBlock: XOMCOT_clean_sbu_0, # of connection points: 5
#     Node 3, Type 0, BuildingBlock: XOMCOT_clean_sbu_0, # of connection points: 5
#     Node 4, Type 0, BuildingBlock: XOMCOT_clean_sbu_0, # of connection points: 5
#     Node 5, Type 0, BuildingBlock: XOMCOT_clean_sbu_0, # of connection points: 5
#     Node 6, Type 0, BuildingBlock: XOMCOT_clean_sbu_0, # of connection points: 5
#     Node 7, Type 0, BuildingBlock: XOMCOT_clean_sbu_0, # of connection points: 5
#     Node 8, Type 0, BuildingBlock: XOMCOT_clean_sbu_0, # of connection points: 5
#     Node 9, Type 0, BuildingBlock: XOMCOT_clean_sbu_0, # of connection points: 5
#     Node 10, Type 0, BuildingBlock: XOMCOT_clean_sbu_0, # of connection points: 5
#     Node 11, Type 0, BuildingBlock: XOMCOT_clean_sbu_0, # of connection points: 5
#     Edge 12, Type (0, 0), BuildingBlock: ZUJKAS_clean_linker_0, # of connection points: 2
#     Edge 13, Type (0, 0), BuildingBlock: ZUJKAS_clean_linker_0, # of connection points: 2
#     Edge 14, Type (0, 0), BuildingBlock: ZUJKAS_clean_linker_0, # of connection points: 2
#     Edge 15, Type (0, 0), BuildingBlock: ZUJKAS_clean_linker_0, # of connection points: 2
#     Edge 16, Type (0, 0), BuildingBlock: ZUJKAS_clean_linker_0, # of connection points: 2
#     Edge 17, Type (0, 0), BuildingBlock: ZUJKAS_clean_linker_0, # of connection points: 2
#     Edge 18, Type (0, 0), BuildingBlock: ZUJKAS_clean_linker_0, # of connection points: 2
#     Edge 19, Type (0, 0), BuildingBlock: ZUJKAS_clean_linker_0, # of connection points: 2
#     Edge 20, Type (0, 0), BuildingBlock: ZUJKAS_clean_linker_0, # of connection points: 2
#     Edge 21, Type (0, 0), BuildingBlock: ZUJKAS_clean_linker_0, # of connection points: 2
#     Edge 22, Type (0, 0), BuildingBlock: ZUJKAS_clean_linker_0, # of connection points: 2
#     Edge 23, Type (0, 0), BuildingBlock: ZUJKAS_clean_linker_0, # of connection points: 2
#     Edge 24, Type (0, 0), BuildingBlock: ZUJKAS_clean_linker_0, # of connection points: 2
#     Edge 25, Type (0, 0), BuildingBlock: ZUJKAS_clean_linker_0, # of connection points: 2
#     Edge 26, Type (0, 0), BuildingBlock: ZUJKAS_clean_linker_0, # of connection points: 2
#     Edge 27, Type (0, 0), BuildingBlock: ZUJKAS_clean_linker_0, # of connection points: 2
#     Edge 28, Type (0, 0), BuildingBlock: ZUJKAS_clean_linker_0, # of connection points: 2
#     Edge 29, Type (0, 0), BuildingBlock: ZUJKAS_clean_linker_0, # of connection points: 2
#     Edge 30, Type (0, 0), BuildingBlock: ZUJKAS_clean_linker_0, # of connection points: 2
#     Edge 31, Type (0, 0), BuildingBlock: ZUJKAS_clean_linker_0, # of connection points: 2
#     Edge 32, Type (0, 0), BuildingBlock: ZUJKAS_clean_linker_0, # of connection points: 2
#     Edge 33, Type (0, 0), BuildingBlock: ZUJKAS_clean_linker_0, # of connection points: 2
#     Edge 34, Type (0, 0), BuildingBlock: ZUJKAS_clean_linker_0, # of connection points: 2
#     Edge 35, Type (0, 0), BuildingBlock: ZUJKAS_clean_linker_0, # of connection points: 2
#     Edge 36, Type (0, 0), BuildingBlock: ZUJKAS_clean_linker_0, # of connection points: 2
#     Edge 37, Type (0, 0), BuildingBlock: ZUJKAS_clean_linker_0, # of connection points: 2
#     Edge 38, Type (0, 0), BuildingBlock: ZUJKAS_clean_linker_0, # of connection points: 2
#     Edge 39, Type (0, 0), BuildingBlock: ZUJKAS_clean_linker_0, # of connection points: 2
#     Edge 40, Type (0, 0), BuildingBlock: ZUJKAS_clean_linker_0, # of connection points: 2
#     Edge 41, Type (0, 0), BuildingBlock: ZUJKAS_clean_linker_0, # of connection points: 2
# Relax obj value: 0.219
# Max RMSD: 0.182
# Mean RMSD: 0.182
data_MOF--net-wka--node1-XOMCOT_clean_sbu_0--edge1-ZUJKAS_clean_linker_0
_symmetry_space_group_name_H-M    P1
_symmetry_Int_Tables_number       1
_symmetry_cell_setting            triclinic
loop_
_symmetry_equiv_pos_as_xyz
'x, y, z'
_cell_length_a     86.078168
_cell_length_b     86.054946
_cell_length_c     21.583542
_cell_angle_alpha  90.004298
_cell_angle_beta   89.989351
_cell_angle_gamma 119.98766
loop_
_atom_site_label
_atom_site_type_symbol
_atom_site_fract_x
_atom_site_fract_y
_atom_site_fract_z
_atom_type_partial_charge
Co0 Co 0.11025 0.41845 0.09887 0.0
C1 C 0.10381 0.41202 0.23252 0.0
C2 C 0.07935 0.39652 0.18184 0.0
C3 C 0.07575 0.39306 0.24426 0.0
N4 N 0.09698 0.40846 0.17474 0.0
N5 N 0.09122 0.40271 0.27552 0.0
H6 H 0.11772 0.42132 0.24333 0.0
H7 H 0.06974 0.39062 0.14463 0.0
C8 C 0.08303 0.41412 0.00511 0.0
O9 O 0.09405 0.43084 0.98893 0.0
N10 N 0.12371 0.42805 0.02247 0.0
C11 C 0.13819 0.44426 0.01076 0.0
C12 C 0.14217 0.44539 0.94861 0.0
C13 C 0.11985 0.41924 0.96785 0.0
N14 N 0.13051 0.42969 0.92177 0.0
C15 C 0.1241 0.4556 0.13031 0.0
C16 C 0.09189 0.45522 0.12336 0.0
C17 C 0.10775 0.47172 0.13068 0.0
C18 C 0.12393 0.47164 0.13689 0.0
C19 C 0.09273 0.4395 0.11736 0.0
N20 N 0.10889 0.44008 0.11484 0.0
H21 H 0.13657 0.45574 0.13739 0.0
H22 H 0.08032 0.42693 0.11339 0.0
H23 H 0.1455 0.45475 0.04391 0.0
H24 H 0.10867 0.4058 0.96116 0.0
O25 O 0.1323 0.42507 0.14134 0.0
O26 O 0.1154 0.39899 0.09436 0.0
O27 O 0.08714 0.40704 0.04968 0.0
C28 C 0.12971 0.4093 0.12667 0.0
H29 H 0.0629 0.38391 0.26495 0.0
H30 H 0.15257 0.457 0.92471 0.0
H31 H 0.07897 0.45445 0.12036 0.0
H32 H 0.13638 0.48389 0.14651 0.0
Co33 Co 0.69001 0.10764 0.26186 0.0
C34 C 0.68853 0.10201 0.39699 0.0
C35 C 0.69084 0.08164 0.34829 0.0
C36 C 0.6929 0.07977 0.41059 0.0
N37 N 0.68756 0.09531 0.33972 0.0
N38 N 0.69164 0.09276 0.44081 0.0
H39 H 0.68868 0.11438 0.40638 0.0
H40 H 0.69314 0.07447 0.31162 0.0
C41 C 0.66691 0.06915 0.22855 0.0
O42 O 0.65763 0.06712 0.27927 0.0
N43 N 0.69329 0.12008 0.18493 0.0
C44 C 0.69145 0.13446 0.17389 0.0
C45 C 0.69449 0.13859 0.11175 0.0
C46 C 0.69759 0.11573 0.13034 0.0
N47 N 0.69826 0.12672 0.0846 0.0
C48 C 0.66196 0.11255 0.3153 0.0
C49 C 0.63789 0.09677 0.21908 0.0
C50 C 0.63326 0.10416 0.26859 0.0
C51 C 0.6455 0.11207 0.31728 0.0
C52 C 0.65441 0.09741 0.21918 0.0
N53 N 0.66608 0.10479 0.26773 0.0
H54 H 0.67167 0.12004 0.35045 0.0
H55 H 0.65805 0.09255 0.17876 0.0
H56 H 0.68777 0.14119 0.20828 0.0
H57 H 0.7001 0.1047 0.12434 0.0
O58 O 0.70353 0.13035 0.30341 0.0
O59 O 0.71514 0.11476 0.2621 0.0
O60 O 0.68038 0.08438 0.21487 0.0
C61 C 0.71762 0.1289 0.29255 0.0
H62 H 0.69656 0.0706 0.43141 0.0
H63 H 0.69342 0.14911 0.08813 0.0
H64 H 0.62895 0.09075 0.18002 0.0
H65 H 0.64274 0.11857 0.35524 0.0
Co66 Co 0.58003 0.69229 0.43569 0.0
C67 C 0.58632 0.69246 0.5698 0.0
C68 C 0.60032 0.68159 0.52017 0.0
C69 C 0.60389 0.68171 0.5826 0.0
N70 N 0.58926 0.68833 0.51233 0.0
N71 N 0.5952 0.68873 0.61323 0.0
H72 H 0.57787 0.69812 0.5801 0.0
H73 H 0.60565 0.67709 0.4834 0.0
C74 C 0.58362 0.66884 0.34239 0.0
O75 O 0.5671 0.66379 0.32533 0.0
N76 N 0.57122 0.69683 0.35859 0.0
C77 C 0.55546 0.69604 0.34616 0.0
C78 C 0.55486 0.69938 0.28414 0.0
C79 C 0.58033 0.70167 0.30447 0.0
N80 N 0.57045 0.70277 0.258 0.0
C81 C 0.54254 0.67019 0.46514 0.0
C82 C 0.54153 0.63765 0.45956 0.0
C83 C 0.52538 0.63774 0.46652 0.0
C84 C 0.52614 0.65434 0.47178 0.0
C85 C 0.55762 0.65384 0.45346 0.0
N86 N 0.55776 0.66979 0.45053 0.0
H87 H 0.54294 0.68279 0.47185 0.0
H88 H 0.56991 0.65343 0.45 0.0
H89 H 0.54497 0.69329 0.37883 0.0
H90 H 0.59358 0.70338 0.29849 0.0
O91 O 0.57414 0.70835 0.47768 0.0
O92 O 0.60022 0.71651 0.43222 0.0
O93 O 0.59084 0.67988 0.38728 0.0
C94 C 0.59026 0.72104 0.46422 0.0
H95 H 0.61258 0.67747 0.60365 0.0
H96 H 0.54372 0.69912 0.25993 0.0
H97 H 0.54177 0.6252 0.45716 0.0
H98 H 0.51417 0.65511 0.48098 0.0
Co99 Co 0.89134 0.58299 0.60642 0.0
C100 C 0.8969 0.58691 0.74154 0.0
C101 C 0.91789 0.60922 0.69333 0.0
C102 C 0.91982 0.61304 0.75572 0.0
N103 N 0.90377 0.59257 0.68438 0.0
N104 N 0.90645 0.59903 0.78565 0.0
H105 H 0.88428 0.57494 0.75061 0.0
H106 H 0.92536 0.61866 0.65697 0.0
C107 C 0.92967 0.59828 0.57031 0.0
O108 O 0.93166 0.59018 0.61876 0.0
N109 N 0.87882 0.57413 0.52945 0.0
C110 C 0.86448 0.5579 0.518 0.0
C111 C 0.86029 0.55701 0.456 0.0
C112 C 0.88304 0.58297 0.47526 0.0
N113 N 0.87205 0.57278 0.42934 0.0
C114 C 0.88753 0.55033 0.65872 0.0
C115 C 0.90275 0.54232 0.55995 0.0
C116 C 0.89636 0.53051 0.61042 0.0
C117 C 0.8886 0.53466 0.66018 0.0
C118 C 0.90144 0.55783 0.56046 0.0
N119 N 0.89446 0.56205 0.61035 0.0
H120 H 0.88049 0.55256 0.6955 0.0
H121 H 0.90564 0.56622 0.51966 0.0
H122 H 0.85787 0.54734 0.55197 0.0
H123 H 0.89399 0.59656 0.46962 0.0
O124 O 0.86864 0.57339 0.6483 0.0
O125 O 0.88399 0.60082 0.60858 0.0
O126 O 0.91451 0.59705 0.5593 0.0
C127 C 0.86987 0.58889 0.63837 0.0
H128 H 0.92934 0.62569 0.77679 0.0
H129 H 0.84984 0.54546 0.43206 0.0
H130 H 0.9082 0.53934 0.51937 0.0
H131 H 0.88321 0.5258 0.69976 0.0
Co132 Co 0.30749 0.88872 0.75765 0.0
C133 C 0.31286 0.89717 0.89027 0.0
C134 C 0.31042 0.91731 0.83947 0.0
C135 C 0.31129 0.92116 0.90176 0.0
N136 N 0.31138 0.90226 0.83263 0.0
N137 N 0.31273 0.90843 0.93354 0.0
H138 H 0.3129 0.88488 0.90042 0.0
H139 H 0.30842 0.9245 0.80213 0.0
C140 C 0.32923 0.91564 0.66181 0.0
O141 O 0.33504 0.9047 0.64555 0.0
N142 N 0.30285 0.87509 0.68123 0.0
C143 C 0.30474 0.86086 0.66662 0.0
C144 C 0.30141 0.85734 0.60421 0.0
C145 C 0.29738 0.87922 0.62835 0.0
N146 N 0.29711 0.86915 0.58009 0.0
C147 C 0.33154 0.87538 0.78287 0.0
C148 C 0.3629 0.90801 0.7749 0.0
C149 C 0.36398 0.8923 0.77946 0.0
C150 C 0.34798 0.87591 0.78649 0.0
C151 C 0.34613 0.90681 0.77219 0.0
N152 N 0.33076 0.89049 0.76996 0.0
H153 H 0.31942 0.86274 0.7902 0.0
H154 H 0.34559 0.91907 0.77012 0.0
H155 H 0.30857 0.85359 0.69767 0.0
H156 H 0.29454 0.89009 0.62475 0.0
O157 O 0.29289 0.86688 0.80251 0.0
O158 O 0.28273 0.88316 0.75685 0.0
O159 O 0.31842 0.91167 0.70756 0.0
C160 C 0.27938 0.8691 0.78963 0.0
H161 H 0.31038 0.93218 0.92211 0.0
H162 H 0.30306 0.84752 0.57811 0.0
H163 H 0.37484 0.92108 0.77138 0.0
H164 H 0.34812 0.86355 0.7943 0.0
Co165 Co 0.41727 0.30582 0.92474 0.0
C166 C 0.41048 0.3049 0.05847 0.0
C167 C 0.39461 0.31356 0.00853 0.0
C168 C 0.39089 0.31316 0.07095 0.0
N169 N 0.40694 0.3084 0.00096 0.0
N170 N 0.40078 0.30753 0.10178 0.0
H171 H 0.42001 0.30054 0.06879 0.0
H172 H 0.38857 0.3172 0.97159 0.0
C173 C 0.41343 0.32947 0.8332 0.0
O174 O 0.43022 0.33521 0.81773 0.0
N175 N 0.42721 0.30268 0.84788 0.0
C176 C 0.44364 0.30506 0.83552 0.0
C177 C 0.44473 0.30226 0.77329 0.0
C178 C 0.4183 0.29754 0.79345 0.0
N179 N 0.42883 0.29766 0.74698 0.0
C180 C 0.45417 0.32874 0.95954 0.0
C181 C 0.45378 0.36061 0.95651 0.0
C182 C 0.47021 0.36117 0.96494 0.0
C183 C 0.47012 0.34486 0.96903 0.0
C184 C 0.43816 0.34415 0.94765 0.0
N185 N 0.43879 0.32862 0.94338 0.0
H186 H 0.45429 0.31634 0.96485 0.0
H187 H 0.42562 0.34403 0.94317 0.0
H188 H 0.45431 0.30861 0.86826 0.0
H189 H 0.40468 0.29479 0.78734 0.0
O190 O 0.42366 0.28998 0.96561 0.0
O191 O 0.39783 0.28128 0.91748 0.0
O192 O 0.40612 0.31797 0.87678 0.0
C193 C 0.40794 0.27699 0.94962 0.0
H194 H 0.38135 0.31629 0.0919 0.0
H195 H 0.45641 0.30373 0.74906 0.0
H196 H 0.453 0.37278 0.95496 0.0
H197 H 0.48227 0.34454 0.97927 0.0
Co198 Co 0.58382 0.89037 0.72875 0.0
C199 C 0.5868 0.89734 0.59615 0.0
C200 C 0.60903 0.91865 0.64448 0.0
C201 C 0.61212 0.92135 0.5816 0.0
N202 N 0.59317 0.90356 0.65309 0.0
N203 N 0.5982 0.90777 0.55157 0.0
H204 H 0.57449 0.88487 0.58776 0.0
H205 H 0.61822 0.92644 0.68109 0.0
C206 C 0.58741 0.91799 0.81907 0.0
O207 O 0.57055 0.9071 0.83388 0.0
N208 N 0.57505 0.87698 0.8055 0.0
C209 C 0.56083 0.86054 0.81645 0.0
C210 C 0.56055 0.85658 0.87846 0.0
C211 C 0.58375 0.88214 0.86011 0.0
N212 N 0.5749 0.87033 0.90582 0.0
C213 C 0.54595 0.87569 0.70767 0.0
C214 C 0.54674 0.90815 0.70367 0.0
C215 C 0.53006 0.89226 0.70453 0.0
C216 C 0.52987 0.87587 0.70356 0.0
C217 C 0.56249 0.90729 0.70704 0.0
N218 N 0.56186 0.89122 0.7151 0.0
H219 H 0.54557 0.86304 0.70415 0.0
H220 H 0.57521 0.91965 0.70572 0.0
H221 H 0.5515 0.85162 0.78238 0.0
H222 H 0.59647 0.89433 0.86623 0.0
O223 O 0.57735 0.86851 0.6852 0.0
O224 O 0.60361 0.88569 0.73089 0.0
O225 O 0.59507 0.9136 0.77733 0.0
C226 C 0.59336 0.87148 0.69803 0.0
H227 H 0.62421 0.93174 0.55989 0.0
H228 H 0.5504 0.84463 0.90162 0.0
H229 H 0.5477 0.92118 0.70265 0.0
H230 H 0.51739 0.86325 0.69991 0.0
Co231 Co 0.6897 0.58426 0.90674 0.0
C232 C 0.68514 0.58734 0.77184 0.0
C233 C 0.68778 0.60998 0.8218 0.0
C234 C 0.68789 0.61335 0.75949 0.0
N235 N 0.68552 0.59341 0.82986 0.0
N236 N 0.68627 0.59908 0.72819 0.0
H237 H 0.68604 0.57557 0.76125 0.0
H238 H 0.69046 0.61957 0.85841 0.0
C239 C 0.6662 0.5985 0.9463 0.0
O240 O 0.65587 0.58977 0.89902 0.0
N241 N 0.69463 0.57579 0.98263 0.0
C242 C 0.69396 0.55998 0.99172 0.0
C243 C 0.69688 0.55851 0.05362 0.0
C244 C 0.69816 0.58382 0.0384 0.0
N245 N 0.69946 0.57349 0.08282 0.0
C246 C 0.66061 0.55098 0.8587 0.0
C247 C 0.63894 0.54292 0.96204 0.0
C248 C 0.63302 0.53084 0.91237 0.0
C249 C 0.64413 0.53501 0.86023 0.0
C250 C 0.65545 0.5587 0.95853 0.0
N251 N 0.66586 0.56295 0.90646 0.0
H252 H 0.66936 0.55325 0.82015 0.0
H253 H 0.66007 0.56731 -0.00126 0.0
H254 H 0.69096 0.55 0.95621 0.0
H255 H 0.69893 0.59658 0.04679 0.0
O256 O 0.70249 0.5749 0.86175 0.0
O257 O 0.71472 0.60242 0.90073 0.0
O258 O 0.68065 0.5981 0.95591 0.0
C259 C 0.71673 0.59051 0.86995 0.0
H260 H 0.68989 0.62569 0.73897 0.0
H261 H 0.69677 0.54714 0.07554 0.0
H262 H 0.63118 0.53995 0.00431 0.0
H263 H 0.64027 0.52592 0.82118 0.0
Co264 Co 0.10477 0.69184 0.0636 0.0
C265 C 0.09761 0.68729 0.92936 0.0
C266 C 0.07659 0.68839 0.97818 0.0
C267 C 0.07381 0.68899 0.91568 0.0
N268 N 0.0913 0.68683 0.98693 0.0
N269 N 0.08719 0.6885 0.88528 0.0
H270 H 0.11042 0.68841 0.91969 0.0
H271 H 0.06927 0.69064 0.0144 0.0
C272 C 0.06716 0.66807 0.10605 0.0
O273 O 0.0652 0.65723 0.06003 0.0
N274 N 0.11826 0.69761 0.13926 0.0
C275 C 0.13302 0.69648 0.15109 0.0
C276 C 0.13688 0.69963 0.21338 0.0
C277 C 0.11354 0.70173 0.19341 0.0
N278 N 0.12448 0.70274 0.23981 0.0
C279 C 0.1094 0.66279 0.01785 0.0
C280 C 0.09638 0.6417 0.12273 0.0
C281 C 0.10247 0.63559 0.07335 0.0
C282 C 0.10912 0.64643 0.02045 0.0
C283 C 0.09688 0.6581 0.11815 0.0
N284 N 0.10278 0.66823 0.06538 0.0
H285 H 0.11558 0.6713 0.97849 0.0
H286 H 0.0929 0.66286 0.15805 0.0
H287 H 0.13988 0.6927 0.11755 0.0
H288 H 0.10196 0.70336 0.19903 0.0
O289 O 0.12687 0.70484 0.01823 0.0
O290 O 0.11097 0.71663 0.05544 0.0
O291 O 0.08199 0.68272 0.1132 0.0
C292 C 0.125 0.71885 0.02489 0.0
H293 H 0.06369 0.69125 0.89457 0.0
H294 H 0.14729 0.69858 0.23786 0.0
H295 H 0.09178 0.63416 0.16549 0.0
H296 H 0.11423 0.64241 0.98149 0.0
Co297 Co 0.41284 0.10699 0.23053 0.0
C298 C 0.41083 0.10018 0.09604 0.0
C299 C 0.38965 0.0781 0.14448 0.0
C300 C 0.3863 0.07535 0.082 0.0
N301 N 0.40533 0.09349 0.15353 0.0
N302 N 0.39956 0.08939 0.05182 0.0
H303 H 0.42188 0.11344 0.08664 0.0
H304 H 0.38028 0.07025 0.18052 0.0
C305 C 0.40127 0.06987 0.27223 0.0
O306 O 0.41129 0.06914 0.22762 0.0
N307 N 0.41949 0.12044 0.30639 0.0
C308 C 0.43469 0.1359 0.31865 0.0
C309 C 0.43479 0.13974 0.3807 0.0
C310 C 0.41042 0.11526 0.36006 0.0
N311 N 0.41957 0.12663 0.40661 0.0
C312 C 0.44708 0.11295 0.18527 0.0
C313 C 0.45628 0.10165 0.29193 0.0
C314 C 0.4681 0.10732 0.24153 0.0
C315 C 0.46339 0.11313 0.18779 0.0
C316 C 0.44007 0.10153 0.28723 0.0
N317 N 0.4353 0.10656 0.23362 0.0
H318 H 0.44428 0.11847 0.14506 0.0
H319 H 0.43134 0.09743 0.32717 0.0
H320 H 0.44531 0.14333 0.28555 0.0
H321 H 0.39763 0.10309 0.36521 0.0
O322 O 0.4209 0.12894 0.18519 0.0
O323 O 0.39324 0.11166 0.22092 0.0
O324 O 0.4001 0.08398 0.27952 0.0
C325 C 0.40456 0.12594 0.19038 0.0
H326 H 0.37424 0.06474 0.06084 0.0
H327 H 0.44569 0.15072 0.40541 0.0
H328 H 0.45946 0.0972 0.33457 0.0
H329 H 0.47244 0.11822 0.14859 0.0
Co330 Co 0.30615 0.41385 0.40175 0.0
C331 C 0.31177 0.41177 0.26706 0.0
C332 C 0.31131 0.39006 0.31671 0.0
C333 C 0.31171 0.38701 0.25436 0.0
N334 N 0.31187 0.40589 0.32503 0.0
N335 N 0.31194 0.40068 0.22323 0.0
H336 H 0.30959 0.42279 0.2566 0.0
H337 H 0.30937 0.38062 0.35306 0.0
C338 C 0.33163 0.40223 0.44352 0.0
O339 O 0.3421 0.41183 0.3977 0.0
N340 N 0.29972 0.42112 0.47742 0.0
C341 C 0.29874 0.43609 0.48645 0.0
C342 C 0.2955 0.43719 0.54833 0.0
C343 C 0.29686 0.4132 0.53327 0.0
N344 N 0.29441 0.42281 0.57766 0.0
C345 C 0.33411 0.44816 0.35564 0.0
C346 C 0.35523 0.45726 0.46072 0.0
C347 C 0.36104 0.46923 0.41072 0.0
C348 C 0.35015 0.46458 0.35785 0.0
C349 C 0.33916 0.44103 0.45653 0.0
N350 N 0.3291 0.43626 0.40354 0.0
H351 H 0.32554 0.44539 0.31616 0.0
H352 H 0.33469 0.43236 0.49663 0.0
H353 H 0.3009 0.44585 0.45097 0.0
H354 H 0.29749 0.40114 0.54182 0.0
O355 O 0.2923 0.42184 0.35587 0.0
O356 O 0.28176 0.39435 0.39349 0.0
O357 O 0.31643 0.40121 0.4514 0.0
C358 C 0.27882 0.40564 0.36255 0.0
H359 H 0.31096 0.37519 0.23368 0.0
H360 H 0.29446 0.44795 0.57018 0.0
H361 H 0.36281 0.46056 0.50349 0.0
H362 H 0.35392 0.47355 0.31849 0.0
Co363 Co 0.89204 0.30645 0.57187 0.0
C364 C 0.89954 0.3106 0.43698 0.0
C365 C 0.91963 0.30816 0.48705 0.0
C366 C 0.92281 0.30787 0.42472 0.0
N367 N 0.90531 0.31041 0.495 0.0
N368 N 0.91011 0.30938 0.39338 0.0
H369 H 0.88683 0.3096 0.42639 0.0
H370 H 0.92659 0.3056 0.52377 0.0
C371 C 0.92981 0.33004 0.61103 0.0
O372 O 0.93141 0.34025 0.56334 0.0
N373 N 0.87871 0.30171 0.64778 0.0
C374 C 0.86378 0.30273 0.65733 0.0
C375 C 0.85946 0.29982 0.71932 0.0
C376 C 0.88315 0.29798 0.70329 0.0
N377 N 0.8717 0.29689 0.74803 0.0
C378 C 0.88788 0.33539 0.52217 0.0
C379 C 0.90192 0.35767 0.62384 0.0
C380 C 0.89596 0.3635 0.57327 0.0
C381 C 0.88874 0.35203 0.52211 0.0
C382 C 0.90085 0.34097 0.62189 0.0
N383 N 0.89455 0.33029 0.57049 0.0
H384 H 0.88122 0.32642 0.48427 0.0
H385 H 0.90479 0.33649 0.66258 0.0
H386 H 0.8569 0.30594 0.62209 0.0
H387 H 0.89499 0.29693 0.71128 0.0
O388 O 0.86987 0.29352 0.52707 0.0
O389 O 0.88519 0.2814 0.56672 0.0
O390 O 0.91495 0.31564 0.62101 0.0
C391 C 0.8713 0.27932 0.53557 0.0
H392 H 0.93313 0.30582 0.40427 0.0
H393 H 0.8484 0.3002 0.74166 0.0
H394 H 0.90691 0.36572 0.66545 0.0
H395 H 0.88365 0.35579 0.48241 0.0
H396 H 0.07665 0.60395 0.12397 0.0
H397 H 0.07738 0.57606 0.13615 0.0
H398 H 0.12894 0.60027 0.0459 0.0
H399 H 0.12851 0.62833 0.03441 0.0
H400 H 0.10296 0.56503 0.00214 0.0
H401 H 0.11004 0.56816 0.2586 0.0
H402 H 0.09192 0.57065 0.22871 0.0
H403 H 0.11467 0.58748 0.21227 0.0
C404 C 0.08823 0.60341 0.10718 0.0
C405 C 0.10256 0.61841 0.07844 0.0
C406 C 0.08861 0.58747 0.11417 0.0
C407 C 0.10333 0.58623 0.0927 0.0
C408 C 0.11749 0.60101 0.06294 0.0
H409 H 0.13211 0.50325 0.07605 0.0
H410 H 0.13107 0.531 0.06871 0.0
C411 C 0.11715 0.61699 0.05605 0.0
C412 C 0.10387 0.56943 0.10054 0.0
H413 H 0.10583 0.54173 0.20959 0.0
C414 C 0.10364 0.55994 0.04743 0.0
C415 C 0.10467 0.56284 0.15976 0.0
C416 C 0.10548 0.57284 0.2182 0.0
C417 C 0.10397 0.54384 0.05194 0.0
C418 C 0.10496 0.53732 0.11115 0.0
C419 C 0.10509 0.54678 0.1643 0.0
C420 C 0.10606 0.5208 0.11875 0.0
C421 C 0.10289 0.53379 0.99331 0.0
C422 C 0.09273 0.5061 0.15161 0.0
C423 C 0.09343 0.49026 0.15684 0.0
C424 C 0.10754 0.48888 0.12949 0.0
C425 C 0.12114 0.50387 0.09818 0.0
C426 C 0.12044 0.51968 0.09316 0.0
H427 H 0.09724 0.53779 0.95423 0.0
H428 H 0.11657 0.53684 0.97991 0.0
H429 H 0.09451 0.51907 0.0002 0.0
H430 H 0.08161 0.50677 0.17228 0.0
H431 H 0.0829 0.4791 0.18214 0.0
H432 H 0.48296 0.09557 0.15472 0.0
H433 H 0.51118 0.09515 0.16224 0.0
H434 H 0.52031 0.11874 0.34429 0.0
H435 H 0.49217 0.11929 0.33711 0.0
H436 H 0.55078 0.135 0.25136 0.0
H437 H 0.51952 0.06127 0.28625 0.0
H438 H 0.51071 0.06865 0.22439 0.0
H439 H 0.50786 0.07336 0.3032 0.0
C440 C 0.49104 0.10077 0.19617 0.0
C441 C 0.48534 0.1074 0.24544 0.0
C442 C 0.50706 0.10041 0.20054 0.0
C443 C 0.51767 0.10677 0.25402 0.0
C444 C 0.5122 0.11368 0.30283 0.0
H445 H 0.60948 0.0965 0.3637 0.0
H446 H 0.5815 0.09754 0.36204 0.0
C447 C 0.49611 0.1139 0.29876 0.0
C448 C 0.53454 0.10629 0.25885 0.0
H449 H 0.55103 0.07771 0.27357 0.0
C450 C 0.55088 0.12251 0.25635 0.0
C451 C 0.53453 0.08996 0.26593 0.0
C452 C 0.51725 0.07227 0.27056 0.0
C453 C 0.5673 0.12277 0.25948 0.0
C454 C 0.56728 0.1064 0.26512 0.0
C455 C 0.55094 0.09021 0.26894 0.0
C456 C 0.58415 0.10581 0.26618 0.0
C457 C 0.58456 0.14052 0.25698 0.0
C458 C 0.59471 0.10995 0.21264 0.0
C459 C 0.61059 0.10929 0.21336 0.0
C460 C 0.61621 0.10453 0.26775 0.0
C461 C 0.60555 0.10034 0.32132 0.0
C462 C 0.58957 0.10086 0.32039 0.0
H463 H 0.58231 0.15201 0.26467 0.0
H464 H 0.59418 0.14099 0.29227 0.0
H465 H 0.59082 0.14213 0.21072 0.0
H466 H 0.59063 0.11365 0.17026 0.0
H467 H 0.61862 0.11278 0.17158 0.0
H468 H 0.36781 0.50227 0.37029 0.0
H469 H 0.3958 0.53093 0.37945 0.0
H470 H 0.42049 0.50441 0.4724 0.0
H471 H 0.39284 0.47564 0.46134 0.0
H472 H 0.41379 0.54832 0.4867 0.0
H473 H 0.4569 0.53283 0.33804 0.0
H474 H 0.43275 0.51927 0.33815 0.0
H475 H 0.4457 0.51672 0.39856 0.0
C476 C 0.37929 0.50248 0.39166 0.0
C477 C 0.3781 0.48663 0.41482 0.0
C478 C 0.39522 0.51889 0.39731 0.0
C479 C 0.41028 0.51975 0.42586 0.0
C480 C 0.40913 0.504 0.44916 0.0
H481 H 0.51707 0.60549 0.52007 0.0
H482 H 0.48878 0.57704 0.51254 0.0
C483 C 0.39324 0.48759 0.44343 0.0
C484 C 0.42702 0.53721 0.43308 0.0
H485 H 0.4717 0.55949 0.39828 0.0
C486 C 0.42644 0.55082 0.46709 0.0
C487 C 0.44349 0.54039 0.40748 0.0
C488 C 0.44478 0.5266 0.36801 0.0
C489 C 0.44198 0.56744 0.47713 0.0
C490 C 0.45845 0.57055 0.45193 0.0
C491 C 0.45904 0.55698 0.41786 0.0
C492 C 0.4752 0.58796 0.45913 0.0
C493 C 0.44075 0.58144 0.51549 0.0
C494 C 0.47688 0.60346 0.43148 0.0
C495 C 0.49305 0.61969 0.43518 0.0
C496 C 0.50787 0.62071 0.46652 0.0
C497 C 0.50602 0.60515 0.49493 0.0
C498 C 0.48985 0.58891 0.49099 0.0
H499 H 0.42821 0.57556 0.54328 0.0
H500 H 0.4524 0.58826 0.54729 0.0
H501 H 0.44086 0.59175 0.48427 0.0
H502 H 0.46582 0.60291 0.40567 0.0
H503 H 0.49409 0.6313 0.41175 0.0
H504 H 0.87071 0.3716 0.53196 0.0
H505 H 0.87177 0.4005 0.53739 0.0
H506 H 0.92354 0.42401 0.6258 0.0
H507 H 0.9228 0.39526 0.61954 0.0
H508 H 0.89767 0.43079 0.686 0.0
H509 H 0.90425 0.44636 0.43417 0.0
H510 H 0.88627 0.42447 0.45507 0.0
H511 H 0.9091 0.42997 0.46721 0.0
C512 C 0.88247 0.38298 0.55161 0.0
C513 C 0.89671 0.38112 0.57511 0.0
C514 C 0.88302 0.39946 0.55483 0.0
C515 C 0.89781 0.41439 0.58146 0.0
C516 C 0.91202 0.41262 0.60503 0.0
H517 H 0.92364 0.5256 0.56856 0.0
H518 H 0.92429 0.49753 0.56333 0.0
C519 C 0.91152 0.39617 0.60166 0.0
C520 C 0.89824 0.43174 0.5863 0.0
H521 H 0.89916 0.46543 0.50008 0.0
C522 C 0.89805 0.43842 0.64543 0.0
C523 C 0.8989 0.44167 0.53322 0.0
C524 C 0.89979 0.43539 0.46875 0.0
C525 C 0.89819 0.45469 0.65289 0.0
C526 C 0.89838 0.46439 0.59977 0.0
C527 C 0.89889 0.45786 0.54066 0.0
C528 C 0.89807 0.48138 0.60449 0.0
C529 C 0.89832 0.46147 0.71745 0.0
C530 C 0.88306 0.48152 0.62905 0.0
C531 C 0.88258 0.4975 0.6317 0.0
C532 C 0.89711 0.51363 0.60966 0.0
C533 C 0.91216 0.5134 0.5853 0.0
C534 C 0.91259 0.4974 0.58251 0.0
H535 H 0.9023 0.45468 0.75261 0.0
H536 H 0.90763 0.47617 0.72042 0.0
H537 H 0.88465 0.45882 0.72916 0.0
H538 H 0.87159 0.46921 0.64517 0.0
H539 H 0.87065 0.49712 0.64963 0.0
H540 H 0.39681 0.91784 0.82531 0.0
H541 H 0.4258 0.91961 0.80978 0.0
H542 H 0.39974 0.86952 0.70987 0.0
H543 H 0.37094 0.86812 0.72201 0.0
H544 H 0.43794 0.89765 0.84572 0.0
H545 H 0.43859 0.90124 0.58964 0.0
H546 H 0.4227 0.90396 0.63623 0.0
H547 H 0.41889 0.88187 0.61848 0.0
C548 C 0.39726 0.90731 0.79935 0.0
C549 C 0.38151 0.8929 0.77455 0.0
C550 C 0.41383 0.90828 0.79088 0.0
C551 C 0.41497 0.8949 0.75748 0.0
C552 C 0.39924 0.88024 0.7344 0.0
H553 H 0.49986 0.8696 0.76975 0.0
H554 H 0.47242 0.87096 0.78098 0.0
C555 C 0.38271 0.87932 0.74236 0.0
C556 C 0.43255 0.89602 0.74778 0.0
H557 H 0.45992 0.89466 0.63599 0.0
C558 C 0.44282 0.89716 0.79985 0.0
C559 C 0.43908 0.89572 0.68783 0.0
C560 C 0.42933 0.89583 0.62986 0.0
C561 C 0.45917 0.8974 0.79373 0.0
C562 C 0.46515 0.89599 0.73398 0.0
C563 C 0.45518 0.89547 0.6818 0.0
C564 C 0.48157 0.89478 0.72473 0.0
C565 C 0.46993 0.89935 0.85134 0.0
C566 C 0.49552 0.90723 0.6869 0.0
C567 C 0.51113 0.90623 0.67903 0.0
C568 C 0.51306 0.89274 0.70888 0.0
C569 C 0.49882 0.88005 0.7455 0.0
C570 C 0.4832 0.88098 0.75289 0.0
H571 H 0.46657 0.90584 0.88945 0.0
H572 H 0.46678 0.88584 0.86758 0.0
H573 H 0.48456 0.90737 0.8421 0.0
H574 H 0.49444 0.91786 0.66409 0.0
H575 H 0.52166 0.91603 0.64961 0.0
H576 H 0.6259 0.49753 0.87433 0.0
H577 H 0.59782 0.46907 0.88514 0.0
H578 H 0.57345 0.49649 0.97411 0.0
H579 H 0.60123 0.52511 0.96127 0.0
H580 H 0.58025 0.45278 0.99391 0.0
H581 H 0.5366 0.46686 0.84245 0.0
H582 H 0.56075 0.48048 0.84156 0.0
H583 H 0.54796 0.48336 0.90177 0.0
C584 C 0.61446 0.49758 0.89503 0.0
C585 C 0.61578 0.51362 0.91663 0.0
C586 C 0.59848 0.48128 0.90166 0.0
C587 C 0.5835 0.48071 0.92976 0.0
C588 C 0.58475 0.49668 0.95128 0.0
H589 H 0.47684 0.39274 0.02013 0.0
H590 H 0.50456 0.42182 0.01563 0.0
C591 C 0.6007 0.51299 0.94452 0.0
C592 C 0.56681 0.46332 0.93854 0.0
H593 H 0.52222 0.44024 0.90257 0.0
C594 C 0.56757 0.45001 0.97381 0.0
C595 C 0.55028 0.45979 0.91243 0.0
C596 C 0.54881 0.4733 0.87196 0.0
C597 C 0.5522 0.43327 0.98397 0.0
C598 C 0.53573 0.42974 0.95765 0.0
C599 C 0.5349 0.44308 0.92292 0.0
C600 C 0.51932 0.412 0.96333 0.0
C601 C 0.55365 0.41955 0.02325 0.0
C602 C 0.5185 0.39692 0.93529 0.0
C603 C 0.50268 0.38036 0.93719 0.0
C604 C 0.48734 0.37855 0.96715 0.0
C605 C 0.48832 0.39368 0.99604 0.0
C606 C 0.50415 0.41029 0.99384 0.0
H607 H 0.56598 0.42577 0.05219 0.0
H608 H 0.54179 0.41241 0.05403 0.0
H609 H 0.55417 0.40946 0.9926 0.0
H610 H 0.52997 0.39807 0.91048 0.0
H611 H 0.50232 0.36911 0.91337 0.0
H612 H 0.07159 0.42459 0.9042 0.0
H613 H 0.04362 0.4074 0.84731 0.0
H614 H 0.02771 0.36271 0.97156 0.0
H615 H 0.05593 0.3798 0.02877 0.0
H616 H 0.02258 0.35313 0.84528 0.0
H617 H 0.99372 0.39611 0.90431 0.0
H618 H 0.01602 0.40868 0.87349 0.0
H619 H 0.01236 0.39711 0.94618 0.0
C620 C 0.06214 0.41115 0.91985 0.0
C621 C 0.06593 0.40362 0.97137 0.0
C622 C 0.04611 0.40138 0.88738 0.0
C623 C 0.03347 0.38394 0.90601 0.0
C624 C 0.03726 0.37622 0.95687 0.0
H625 H 0.93098 0.31324 0.71756 0.0
H626 H 0.9553 0.32444 0.79398 0.0
C627 C 0.05336 0.38601 0.98947 0.0
C628 C 0.01656 0.37374 0.87085 0.0
H629 H 0.98086 0.37663 0.81659 0.0
C630 C 0.01325 0.35804 0.8398 0.0
C631 C 0.0044 0.38017 0.86422 0.0
C632 C 0.00669 0.39634 0.89934 0.0
C633 C 0.9986 0.34917 0.79938 0.0
C634 C 0.98703 0.35618 0.79034 0.0
C635 C 0.98989 0.3714 0.82343 0.0
C636 C 0.97265 0.34876 0.74339 0.0
C637 C 0.99601 0.33288 0.76434 0.0
C638 C 0.97444 0.35877 0.68997 0.0
C639 C 0.96067 0.35245 0.64634 0.0
C640 C 0.94476 0.33603 0.6556 0.0
C641 C 0.94309 0.3259 0.70896 0.0
C642 C 0.95695 0.33224 0.75259 0.0
H643 H 0.0072 0.33017 0.77207 0.0
H644 H 0.98332 0.32095 0.77948 0.0
H645 H 0.99486 0.33468 0.71392 0.0
H646 H 0.98648 0.37158 0.6823 0.0
H647 H 0.9624 0.3606 0.60586 0.0
H648 H 0.57569 0.94074 0.85085 0.0
H649 H 0.59132 0.96797 0.91345 0.0
H650 H 0.6366 0.95959 0.93088 0.0
H651 H 0.6214 0.93304 0.86436 0.0
H652 H 0.59992 0.97093 0.02589 0.0
H653 H 0.66306 0.01145 0.89648 0.0
H654 H 0.64449 0.99145 0.86436 0.0
H655 H 0.66008 0.9899 0.91626 0.0
C656 C 0.58915 0.94499 0.86709 0.0
C657 C 0.59748 0.93501 0.85261 0.0
C658 C 0.59806 0.96049 0.90297 0.0
C659 C 0.61529 0.96605 0.92641 0.0
C660 C 0.62361 0.956 0.91179 0.0
H661 H 0.65154 0.03366 0.25585 0.0
H662 H 0.64022 0.00859 0.18282 0.0
C663 C 0.61489 0.94077 0.87418 0.0
C664 C 0.6238 0.98152 0.96976 0.0
H665 H 0.66254 0.02055 0.00089 0.0
C666 C 0.61357 0.98186 0.01992 0.0
C667 C 0.64154 0.99593 0.96186 0.0
C668 C 0.65284 0.99728 0.90643 0.0
C669 C 0.62048 0.99612 0.06216 0.0
C670 C 0.63855 0.01003 0.05631 0.0
C671 C 0.64879 0.00976 0.00604 0.0
C672 C 0.64687 0.02524 0.10073 0.0
C673 C 0.60806 0.99633 0.11119 0.0
C674 C 0.65545 0.04301 0.079 0.0
C675 C 0.66253 0.05734 0.12068 0.0
C676 C 0.66085 0.05413 0.18477 0.0
C677 C 0.65272 0.03642 0.20658 0.0
C678 C 0.64612 0.02211 0.16488 0.0
H679 H 0.5938 0.98839 0.09661 0.0
H680 H 0.60955 0.99018 0.1543 0.0
H681 H 0.61111 0.01021 0.12165 0.0
H682 H 0.65631 0.0458 0.02979 0.0
H683 H 0.66873 0.07091 0.10282 0.0
H684 H 0.57254 0.64635 0.24294 0.0
H685 H 0.58934 0.63512 0.18601 0.0
H686 H 0.63447 0.66398 0.30841 0.0
H687 H 0.61777 0.67556 0.36566 0.0
H688 H 0.64362 0.66829 0.18205 0.0
H689 H 0.60073 0.59649 0.2417 0.0
H690 H 0.5881 0.60623 0.21152 0.0
H691 H 0.59987 0.61418 0.28386 0.0
C692 C 0.58599 0.65025 0.2582 0.0
C693 C 0.59378 0.66177 0.30911 0.0
C694 C 0.59554 0.64373 0.22573 0.0
C695 C 0.61301 0.64846 0.24376 0.0
C696 C 0.62093 0.66007 0.2942 0.0
H697 H 0.68336 0.61688 0.05176 0.0
H698 H 0.67227 0.63 0.12863 0.0
C699 C 0.61137 0.66664 0.32682 0.0
C700 C 0.62306 0.64168 0.20807 0.0
H701 H 0.61996 0.60305 0.15323 0.0
C702 C 0.63867 0.65404 0.17653 0.0
C703 C 0.61658 0.62309 0.20135 0.0
C704 C 0.6005 0.60923 0.23692 0.0
C705 C 0.6474 0.64823 0.13558 0.0
C706 C 0.64035 0.62964 0.12655 0.0
C707 C 0.62522 0.61731 0.16008 0.0
C708 C 0.64767 0.62264 0.07932 0.0
C709 C 0.66358 0.6619 0.10003 0.0
C710 C 0.63747 0.61421 0.02646 0.0
C711 C 0.64372 0.60676 0.98257 0.0
C712 C 0.66027 0.60749 0.99101 0.0
C713 C 0.67059 0.61615 0.04381 0.0
C714 C 0.66431 0.62368 0.08769 0.0
H715 H 0.66619 0.67579 0.10735 0.0
H716 H 0.67558 0.66129 0.11515 0.0
H717 H 0.66172 0.65882 0.0497 0.0
H718 H 0.62456 0.61328 0.01943 0.0
H719 H 0.63542 0.60018 0.94255 0.0
H720 H 0.96457 0.60668 0.5843 0.0
H721 H 0.98882 0.62094 0.50847 0.0
H722 H 0.9526 0.62482 0.37961 0.0
H723 H 0.92843 0.61101 0.45553 0.0
H724 H 0.99028 0.60847 0.39535 0.0
H725 H 0.99543 0.675 0.37195 0.0
H726 H 0.98324 0.65973 0.43427 0.0
H727 H 0.9731 0.65676 0.35907 0.0
C728 C 0.96182 0.61076 0.54009 0.0
C729 C 0.94459 0.60777 0.52601 0.0
C730 C 0.97569 0.6189 0.49684 0.0
C731 C 0.97258 0.62418 0.43877 0.0
C732 C 0.95542 0.62128 0.4247 0.0
H733 H 0.03374 0.63832 0.10473 0.0
H734 H 0.01092 0.62819 0.1859 0.0
C735 C 0.94158 0.61327 0.46807 0.0
C736 C 0.98699 0.63168 0.39153 0.0
H737 H 0.01022 0.66725 0.29428 0.0
C738 C 0.99473 0.62138 0.37357 0.0
C739 C 0.99292 0.64862 0.36372 0.0
C740 C 0.98588 0.66075 0.38365 0.0
C741 C 0.00798 0.62738 0.32755 0.0
C742 C 0.0133 0.64393 0.2977 0.0
C743 C 0.0059 0.65444 0.31667 0.0
C744 C 0.02668 0.65059 0.24704 0.0
C745 C 0.01631 0.61604 0.3119 0.0
C746 C 0.04277 0.66691 0.25351 0.0
C747 C 0.05575 0.67285 0.20689 0.0
C748 C 0.05285 0.66255 0.153 0.0
C749 C 0.03646 0.64649 0.14587 0.0
C750 C 0.02345 0.64062 0.19236 0.0
H751 H 0.01444 0.60655 0.3499 0.0
H752 H 0.0098 0.60804 0.26973 0.0
H753 H 0.03089 0.62454 0.30252 0.0
H754 H 0.04546 0.67486 0.29523 0.0
H755 H 0.06818 0.68533 0.21373 0.0
H756 H 0.38025 0.06704 0.37183 0.0
H757 H 0.36475 0.04152 0.44243 0.0
H758 H 0.38523 0.0126 0.33972 0.0
H759 H 0.40053 0.03784 0.26855 0.0
H760 H 0.34831 0.99232 0.36698 0.0
H761 H 0.38898 0.02676 0.57602 0.0
H762 H 0.37848 0.03764 0.53746 0.0
H763 H 0.3959 0.03568 0.49889 0.0
C764 C 0.38143 0.05524 0.36421 0.0
C765 C 0.39165 0.05447 0.31462 0.0
C766 C 0.37265 0.04072 0.4048 0.0
C767 C 0.37403 0.02529 0.39661 0.0
C768 C 0.38404 0.02443 0.34681 0.0
H769 H 0.34823 0.92531 0.55422 0.0
H770 H 0.35696 0.95205 0.49211 0.0
C771 C 0.39279 0.03888 0.30626 0.0
C772 C 0.36509 0.00989 0.43949 0.0
H773 H 0.36657 0.9965 0.58717 0.0
C774 C 0.35218 0.99325 0.41528 0.0
C775 C 0.3701 0.01123 0.50253 0.0
C776 C 0.38421 0.02873 0.53045 0.0
C777 C 0.34448 0.97775 0.45204 0.0
C778 C 0.35006 0.97894 0.51429 0.0
C779 C 0.36238 0.9957 0.53933 0.0
C780 C 0.34446 0.96273 0.55238 0.0
C781 C 0.33062 0.9602 0.42369 0.0
C782 C 0.33491 0.96011 0.60774 0.0
C783 C 0.32994 0.94481 0.64374 0.0
C784 C 0.33465 0.93204 0.62512 0.0
C785 C 0.34441 0.93488 0.56999 0.0
C786 C 0.34929 0.95008 0.53409 0.0
H787 H 0.32396 0.96237 0.38321 0.0
H788 H 0.33728 0.95275 0.40731 0.0
H789 H 0.32021 0.9517 0.45809 0.0
H790 H 0.33122 0.96984 0.62279 0.0
H791 H 0.32245 0.943 0.68605 0.0
H792 H 0.37879 0.32159 0.85398 0.0
H793 H 0.36197 0.33304 0.79689 0.0
H794 H 0.40793 0.36417 0.67999 0.0
H795 H 0.42486 0.35304 0.73683 0.0
H796 H 0.39177 0.38338 0.72709 0.0
H797 H 0.34201 0.31853 0.61909 0.0
H798 H 0.34418 0.31864 0.70198 0.0
H799 H 0.36255 0.32189 0.65373 0.0
C800 C 0.3853 0.33087 0.81611 0.0
C801 C 0.40315 0.33639 0.79987 0.0
C802 C 0.37565 0.33732 0.7834 0.0
C803 C 0.38367 0.34928 0.73387 0.0
C804 C 0.40151 0.35492 0.71805 0.0
H805 H 0.36419 0.40413 0.44541 0.0
H806 H 0.37529 0.391 0.52131 0.0
C807 C 0.41115 0.34852 0.75061 0.0
C808 C 0.37373 0.35619 0.69833 0.0
H809 H 0.33981 0.34399 0.59373 0.0
C810 C 0.38031 0.37475 0.69835 0.0
C811 C 0.35875 0.34487 0.66114 0.0
C812 C 0.35146 0.32488 0.65835 0.0
C813 C 0.37258 0.38237 0.66088 0.0
C814 C 0.35805 0.37114 0.62197 0.0
C815 C 0.35098 0.35251 0.6237 0.0
C816 C 0.35096 0.37867 0.57587 0.0
C817 C 0.38016 0.40242 0.66247 0.0
C818 C 0.33344 0.37569 0.58082 0.0
C819 C 0.32701 0.38319 0.53743 0.0
C820 C 0.33798 0.39361 0.48814 0.0
C821 C 0.3554 0.39621 0.48281 0.0
C822 C 0.36181 0.3888 0.52628 0.0
H823 H 0.38805 0.40849 0.7053 0.0
H824 H 0.38919 0.40859 0.62214 0.0
H825 H 0.36929 0.40577 0.65948 0.0
H826 H 0.32486 0.3678 0.61871 0.0
H827 H 0.31352 0.38092 0.54277 0.0
H828 H 0.15843 0.42753 0.20198 0.0
H829 H 0.17941 0.41836 0.2382 0.0
H830 H 0.15046 0.36861 0.13753 0.0
H831 H 0.12921 0.37779 0.10036 0.0
H832 H 0.17133 0.38604 0.30671 0.0
H833 H 0.20399 0.39218 0.07771 0.0
H834 H 0.19068 0.40267 0.09238 0.0
H835 H 0.17993 0.3788 0.08337 0.0
C836 C 0.15648 0.41464 0.1873 0.0
C837 C 0.14224 0.40342 0.14797 0.0
C838 C 0.16844 0.40939 0.20834 0.0
C839 C 0.16649 0.39286 0.19036 0.0
C840 C 0.15222 0.38148 0.15149 0.0
H841 H 0.24757 0.37332 0.37178 0.0
H842 H 0.21825 0.3654 0.32722 0.0
C843 C 0.14013 0.38673 0.13041 0.0
C844 C 0.17991 0.38816 0.21194 0.0
H845 H 0.21833 0.38927 0.16557 0.0
C846 C 0.18139 0.38626 0.27588 0.0
C847 C 0.19296 0.38852 0.17132 0.0
C848 C 0.19198 0.39071 0.10232 0.0
C849 C 0.19629 0.38597 0.3008 0.0
C850 C 0.20991 0.38745 0.26046 0.0
C851 C 0.2078 0.3881 0.19619 0.0
C852 C 0.22757 0.3913 0.28434 0.0
C853 C 0.19804 0.38546 0.37025 0.0
C854 C 0.24248 0.40833 0.27395 0.0
C855 C 0.25911 0.41287 0.29918 0.0
C856 C 0.26118 0.40043 0.33519 0.0
C857 C 0.24632 0.3832 0.34453 0.0
C858 C 0.2296 0.37867 0.31922 0.0
H859 H 0.18717 0.38627 0.39516 0.0
H860 H 0.19749 0.37275 0.38369 0.0
H861 H 0.21116 0.39673 0.38575 0.0
H862 H 0.24116 0.41827 0.24726 0.0
H863 H 0.27031 0.4262 0.29079 0.0
H864 H 0.74998 0.131 0.27097 0.0
H865 H 0.77929 0.15314 0.31345 0.0
H866 H 0.75449 0.17886 0.41086 0.0
H867 H 0.72531 0.1569 0.36911 0.0
H868 H 0.79694 0.19093 0.29917 0.0
H869 H 0.78384 0.17127 0.54613 0.0
H870 H 0.77031 0.15669 0.48405 0.0
H871 H 0.76651 0.17423 0.51177 0.0
C872 C 0.75081 0.14136 0.30158 0.0
C873 C 0.73538 0.14225 0.3167 0.0
C874 C 0.76752 0.15394 0.32584 0.0
C875 C 0.76895 0.16739 0.36611 0.0
C876 C 0.75358 0.16833 0.38091 0.0
H877 H 0.84413 0.27285 0.45688 0.0
H878 H 0.82166 0.24414 0.41369 0.0
C879 C 0.73695 0.15587 0.35653 0.0
C880 C 0.78656 0.18116 0.3905 0.0
H881 H 0.80778 0.20137 0.52517 0.0
C882 C 0.7995 0.19303 0.34854 0.0
C883 C 0.78998 0.18366 0.45486 0.0
C884 C 0.777 0.17067 0.50182 0.0
C885 C 0.81522 0.20813 0.36947 0.0
C886 C 0.81788 0.21146 0.43384 0.0
C887 C 0.80559 0.19888 0.47579 0.0
C888 C 0.83219 0.2288 0.45823 0.0
C889 C 0.82858 0.22071 0.32252 0.0
C890 C 0.84534 0.22961 0.49866 0.0
C891 C 0.85824 0.24608 0.52369 0.0
C892 C 0.85795 0.26186 0.50925 0.0
C893 C 0.8447 0.26093 0.46894 0.0
C894 C 0.83194 0.24456 0.44375 0.0
H895 H 0.82759 0.21369 0.27822 0.0
H896 H 0.82575 0.23171 0.31257 0.0
H897 H 0.84252 0.22676 0.3403 0.0
H898 H 0.84559 0.21753 0.51083 0.0
H899 H 0.86829 0.24642 0.55473 0.0
H900 H 0.62463 0.8716 0.72481 0.0
H901 H 0.63445 0.85136 0.68243 0.0
H902 H 0.58604 0.82461 0.57351 0.0
H903 H 0.57626 0.84458 0.61497 0.0
H904 H 0.61618 0.81389 0.69273 0.0
H905 H 0.62499 0.83375 0.44658 0.0
H906 H 0.62461 0.84797 0.50753 0.0
H907 H 0.60397 0.83034 0.4754 0.0
C908 C 0.61619 0.86146 0.6915 0.0
C909 C 0.59966 0.85962 0.67332 0.0
C910 C 0.62183 0.84999 0.66724 0.0
C911 C 0.61115 0.83678 0.62383 0.0
C912 C 0.59471 0.83502 0.60569 0.0
H913 H 0.57362 0.73202 0.54499 0.0
H914 H 0.5844 0.76206 0.58558 0.0
C915 C 0.58904 0.84632 0.63005 0.0
C916 C 0.61604 0.8236 0.60083 0.0
H917 H 0.616 0.8024 0.46732 0.0
C918 C 0.61671 0.81167 0.64349 0.0
C919 C 0.61713 0.82093 0.53668 0.0
C920 C 0.61784 0.83408 0.489 0.0
C921 C 0.61647 0.79606 0.62337 0.0
C922 C 0.61528 0.79228 0.55921 0.0
C923 C 0.61661 0.80518 0.51656 0.0
C924 C 0.60967 0.77404 0.53624 0.0
C925 C 0.61648 0.78325 0.67105 0.0
C926 C 0.62012 0.77091 0.49359 0.0
C927 C 0.61391 0.75363 0.46986 0.0
C928 C 0.59706 0.7394 0.48783 0.0
C929 C 0.58664 0.74269 0.53013 0.0
C930 C 0.59287 0.75983 0.55397 0.0
H931 H 0.62369 0.79049 0.71369 0.0
H932 H 0.60244 0.7735 0.68421 0.0
H933 H 0.62281 0.77568 0.65267 0.0
H934 H 0.63301 0.7818 0.47873 0.0
H935 H 0.6222 0.75145 0.43728 0.0
H936 H 0.72351 0.56868 0.79811 0.0
H937 H 0.75238 0.57438 0.75814 0.0
H938 H 0.77841 0.62669 0.84355 0.0
H939 H 0.7494 0.62103 0.8844 0.0
H940 H 0.77747 0.60332 0.68034 0.0
H941 H 0.80534 0.60116 0.91126 0.0
H942 H 0.78166 0.59251 0.89919 0.0
H943 H 0.79676 0.61627 0.90185 0.0
C944 C 0.73535 0.58141 0.80846 0.0
C945 C 0.73423 0.59436 0.84479 0.0
C946 C 0.75182 0.58467 0.78535 0.0
C947 C 0.76749 0.60088 0.79831 0.0
C948 C 0.76645 0.61401 0.83366 0.0
H949 H 0.86769 0.61923 0.61998 0.0
H950 H 0.84448 0.62532 0.6591 0.0
C951 C 0.7499 0.61078 0.85679 0.0
C952 C 0.78485 0.60354 0.77572 0.0
H953 H 0.82246 0.60323 0.82375 0.0
C954 C 0.7875 0.60362 0.71154 0.0
C955 C 0.79776 0.60381 0.81683 0.0
C956 C 0.79532 0.60333 0.88617 0.0
C957 C 0.80241 0.60323 0.68725 0.0
C958 C 0.81501 0.6029 0.72839 0.0
C959 C 0.81275 0.60356 0.79253 0.0
C960 C 0.82947 0.59981 0.70606 0.0
C961 C 0.80408 0.60216 0.61798 0.0
C962 C 0.82878 0.5836 0.7204 0.0
C963 C 0.84193 0.58008 0.69823 0.0
C964 C 0.85606 0.59278 0.66151 0.0
C965 C 0.85689 0.60916 0.64789 0.0
C966 C 0.84366 0.61265 0.67004 0.0
H967 H 0.79187 0.60003 0.5931 0.0
H968 H 0.81565 0.61487 0.6011 0.0
H969 H 0.80661 0.59107 0.60599 0.0
H970 H 0.81792 0.57354 0.74819 0.0
H971 H 0.84099 0.5674 0.70988 0.0
H972 H 0.27003 0.84051 0.86475 0.0
H973 H 0.24021 0.81875 0.90174 0.0
H974 H 0.21774 0.84667 0.80412 0.0
H975 H 0.24779 0.86867 0.7662 0.0
H976 H 0.21549 0.82535 0.9722 0.0
H977 H 0.18899 0.79341 0.74235 0.0
H978 H 0.21273 0.80739 0.75656 0.0
H979 H 0.19887 0.81738 0.74877 0.0
C980 C 0.25879 0.84208 0.851 0.0
C981 C 0.26123 0.85624 0.81224 0.0
C982 C 0.24176 0.82966 0.87242 0.0
C983 C 0.22681 0.83107 0.85538 0.0
C984 C 0.22914 0.8453 0.81727 0.0
H985 H 0.12578 0.75097 0.0355 0.0
H986 H 0.14821 0.77999 0.9919 0.0
C987 C 0.24628 0.85784 0.79581 0.0
C988 C 0.2089 0.81721 0.87711 0.0
H989 H 0.17144 0.77906 0.82974 0.0
C990 C 0.20563 0.81541 0.94112 0.0
C991 C 0.1962 0.80429 0.83617 0.0
C992 C 0.19927 0.80554 0.76709 0.0
C993 C 0.19042 0.80045 0.96568 0.0
C994 C 0.17814 0.7871 0.92491 0.0
C995 C 0.18091 0.7894 0.86069 0.0
C996 C 0.16379 0.76962 0.94822 0.0
C997 C 0.18823 0.79844 0.0351 0.0
C998 C 0.16498 0.7542 0.93692 0.0
C999 C 0.15228 0.73771 0.9616 0.0
C1000 C 0.1381 0.73632 -0.00208 0.0
C1001 C 0.13666 0.75169 0.00804 0.0
C1002 C 0.14944 0.76825 0.9833 0.0
H1003 H 0.20021 0.80883 0.06017 0.0
H1004 H 0.17648 0.79964 0.04932 0.0
H1005 H 0.18571 0.785 0.04967 0.0
H1006 H 0.17598 0.75501 0.90995 0.0
H1007 H 0.15368 0.72609 0.95257 0.0
H1008 H 0.37242 0.12511 0.20056 0.0
H1009 H 0.36388 0.14542 0.1508 0.0
H1010 H 0.41581 0.1737 0.06309 0.0
H1011 H 0.42434 0.15355 0.11188 0.0
H1012 H 0.38082 0.18209 0.1669 0.0
H1013 H 0.38209 0.16649 0.91955 0.0
H1014 H 0.38078 0.15156 0.98084 0.0
H1015 H 0.40212 0.17022 0.95809 0.0
C1016 C 0.38193 0.13558 0.17022 0.0
C1017 C 0.39908 0.13782 0.1603 0.0
C1018 C 0.37701 0.14709 0.14171 0.0
C1019 C 0.38908 0.1608 0.10227 0.0
C1020 C 0.40612 0.16291 0.09203 0.0
H1021 H 0.42429 0.26626 0.03245 0.0
H1022 H 0.41452 0.23594 0.06817 0.0
C1023 C 0.41106 0.15152 0.12061 0.0
C1024 C 0.38483 0.17415 0.07632 0.0
H1025 H 0.38853 0.19694 0.94276 0.0
C1026 C 0.38198 0.18504 0.1177 0.0
C1027 C 0.386 0.17779 0.01204 0.0
C1028 C 0.38772 0.16575 0.96507 0.0
C1029 C 0.38206 0.20052 0.09705 0.0
C1030 C 0.38527 0.20523 0.03371 0.0
C1031 C 0.38633 0.19341 0.99149 0.0
C1032 C 0.39039 0.22348 0.0125 0.0
C1033 C 0.37968 0.21223 0.14366 0.0
C1034 C 0.38022 0.22645 0.9682 0.0
C1035 C 0.38581 0.2439 0.94748 0.0
C1036 C 0.40178 0.25847 0.97015 0.0
C1037 C 0.41195 0.25533 0.01398 0.0
C1038 C 0.40631 0.23802 0.03489 0.0
H1039 H 0.37177 0.2043 0.1843 0.0
H1040 H 0.39305 0.22267 0.1606 0.0
H1041 H 0.3729 0.21904 0.12258 0.0
H1042 H 0.36799 0.21532 0.94994 0.0
H1043 H 0.37774 0.24597 0.91357 0.0
H1044 H 0.07055 0.40419 0.36667 0.0
H1045 H 0.07728 0.40738 0.47811 0.0
H1046 H 0.1247 0.4037 0.44281 0.0
H1047 H 0.11843 0.40146 0.33157 0.0
H1048 H 0.08078 0.38769 0.56387 0.0
H1049 H 0.14637 0.44977 0.5352 0.0
H1050 H 0.13069 0.43988 0.47223 0.0
H1051 H 0.14534 0.43137 0.49287 0.0
C1052 C 0.08234 0.40401 0.38312 0.0
C1053 C 0.09414 0.40288 0.341 0.0
C1054 C 0.0862 0.40583 0.44655 0.0
C1055 C 0.10178 0.40629 0.4687 0.0
C1056 C 0.11298 0.40406 0.42671 0.0
H1057 H 0.12008 0.39808 0.86426 0.0
H1058 H 0.11334 0.39158 0.75365 0.0
C1059 C 0.10935 0.40267 0.36334 0.0
C1060 C 0.10651 0.40943 0.53543 0.0
H1061 H 0.14016 0.4363 0.63484 0.0
C1062 C 0.09374 0.39836 0.57946 0.0
C1063 C 0.12331 0.42356 0.55581 0.0
C1064 C 0.13713 0.43694 0.51157 0.0
C1065 C 0.09732 0.40098 0.64326 0.0
C1066 C 0.11441 0.41463 0.66345 0.0
C1067 C 0.12715 0.42568 0.61937 0.0
C1068 C 0.11911 0.41842 0.73003 0.0
C1069 C 0.08254 0.38949 0.68818 0.0
C1070 C 0.12539 0.43582 0.753 0.0
C1071 C 0.12969 0.43962 0.81552 0.0
C1072 C 0.12763 0.42605 0.85653 0.0
C1073 C 0.12162 0.4087 0.83352 0.0
C1074 C 0.11763 0.40497 0.77057 0.0
H1075 H 0.0691 0.38356 0.66612 0.0
H1076 H 0.0844 0.37827 0.70422 0.0
H1077 H 0.08272 0.39735 0.72926 0.0
H1078 H 0.12667 0.44644 0.72269 0.0
H1079 H 0.13404 0.45304 0.83223 0.0
H1080 H 0.69079 0.09637 0.02299 0.0
H1081 H 0.69423 0.09329 0.91253 0.0
H1082 H 0.71486 0.15001 0.88746 0.0
H1083 H 0.7116 0.15327 -0.00125 0.0
H1084 H 0.687 0.1284 0.8077 0.0
H1085 H 0.73895 0.10832 0.80697 0.0
H1086 H 0.72063 0.09506 0.85843 0.0
H1087 H 0.73491 0.11864 0.87322 0.0
C1088 C 0.69645 0.10829 0.99442 0.0
C1089 C 0.70102 0.1251 0.01975 0.0
C1090 C 0.69842 0.1065 0.93123 0.0
C1091 C 0.70512 0.12148 0.89219 0.0
C1092 C 0.70982 0.13832 0.91713 0.0
H1093 H 0.70857 0.12627 0.48901 0.0
H1094 H 0.71344 0.13433 0.59862 0.0
C1095 C 0.70783 0.14013 0.98051 0.0
C1096 C 0.70569 0.11915 0.82467 0.0
H1097 H 0.7217 0.10252 0.71383 0.0
C1098 C 0.69479 0.123 0.78693 0.0
C1099 C 0.71582 0.11203 0.79808 0.0
C1100 C 0.72838 0.10843 0.83619 0.0
C1101 C 0.69317 0.11924 0.72339 0.0
C1102 C 0.70295 0.11169 0.69707 0.0
C1103 C 0.71419 0.10823 0.73448 0.0
C1104 C 0.70125 0.10691 0.6309 0.0
C1105 C 0.68052 0.12274 0.68534 0.0
C1106 C 0.69333 0.08886 0.61303 0.0
C1107 C 0.69048 0.0842 0.55038 0.0
C1108 C 0.69549 0.09755 0.50498 0.0
C1109 C 0.70406 0.11567 0.5231 0.0
C1110 C 0.70696 0.1203 0.58557 0.0
H1111 H 0.67124 0.12498 0.71488 0.0
H1112 H 0.68842 0.13492 0.65669 0.0
H1113 H 0.67244 0.11134 0.65361 0.0
H1114 H 0.68892 0.07837 0.64761 0.0
H1115 H 0.6839 0.07018 0.53748 0.0
H1116 H 0.59836 0.71855 0.6654 0.0
H1117 H 0.59806 0.72453 0.77611 0.0
H1118 H 0.592 0.67272 0.81831 0.0
H1119 H 0.59326 0.66724 0.70743 0.0
H1120 H 0.57279 0.70886 0.85413 0.0
H1121 H 0.62928 0.70192 0.94154 0.0
H1122 H 0.62552 0.70301 0.85986 0.0
H1123 H 0.61355 0.68203 0.90111 0.0
C1124 C 0.59718 0.70858 0.69858 0.0
C1125 C 0.59585 0.69245 0.67831 0.0
C1126 C 0.59704 0.71199 0.76174 0.0
C1127 C 0.59528 0.69921 0.80591 0.0
C1128 C 0.59396 0.68306 0.78551 0.0
H1129 H 0.5473 0.68562 0.16474 0.0
H1130 H 0.55439 0.68647 0.05499 0.0
C1131 C 0.59453 0.67984 0.72224 0.0
C1132 C 0.59343 0.70223 0.87269 0.0
H1133 H 0.60765 0.6994 0.01773 0.0
C1134 C 0.58062 0.70702 0.88975 0.0
C1135 C 0.60384 0.70022 0.91942 0.0
C1136 C 0.61895 0.69672 0.90444 0.0
C1137 C 0.57751 0.70924 0.95202 0.0
C1138 C 0.58692 0.70583 -0.0011 0.0
C1139 C 0.60021 0.70172 0.9819 0.0
C1140 C 0.58267 0.70575 0.06564 0.0
C1141 C 0.56427 0.71538 0.96662 0.0
C1142 C 0.59628 0.71581 0.10876 0.0
C1143 C 0.59227 0.71505 0.17192 0.0
C1144 C 0.57456 0.70434 0.19291 0.0
C1145 C 0.56098 0.69434 0.14969 0.0
C1146 C 0.56502 0.69487 0.08687 0.0
H1147 H 0.56342 0.72347 0.92806 0.0
H1148 H 0.55074 0.70347 0.97275 0.0
H1149 H 0.56796 0.72353 0.00964 0.0
H1150 H 0.61002 0.72421 0.09357 0.0
H1151 H 0.60298 0.72285 0.20437 0.0
H1152 H 0.9291 0.61346 0.88246 0.0
H1153 H 0.9209 0.61057 0.99253 0.0
H1154 H 0.8649 0.58008 0.94346 0.0
H1155 H 0.87294 0.58303 0.83392 0.0
H1156 H 0.89699 0.62003 0.05771 0.0
H1157 H 0.87352 0.54688 0.06118 0.0
H1158 H 0.88744 0.56149 -9e-05 0.0
H1159 H 0.86394 0.55428 0.00218 0.0
C1160 C 0.91506 0.60629 0.8953 0.0
C1161 C 0.90169 0.59816 0.84986 0.0
C1162 C 0.9104 0.60464 0.95793 0.0
C1163 C 0.89233 0.59487 0.97576 0.0
C1164 C 0.87894 0.58735 0.93043 0.0
H1165 H 0.84555 0.55975 0.34341 0.0
H1166 H 0.84892 0.56623 0.23208 0.0
C1167 C 0.88357 0.58896 0.86797 0.0
C1168 C 0.8875 0.592 0.04192 0.0
H1169 H 0.87032 0.55962 0.15338 0.0
C1170 C 0.89111 0.60684 0.07876 0.0
C1171 C 0.87972 0.57472 0.06873 0.0
C1172 C 0.87602 0.55841 0.03124 0.0
C1173 C 0.88722 0.60487 0.14231 0.0
C1174 C 0.87987 0.58766 0.16945 0.0
C1175 C 0.87589 0.57277 0.13223 0.0
C1176 C 0.87745 0.58493 0.23701 0.0
C1177 C 0.89096 0.62118 0.17977 0.0
C1178 C 0.8924 0.59322 0.27621 0.0
C1179 C 0.89054 0.58949 0.33943 0.0
C1180 C 0.8737 0.57727 0.36461 0.0
C1181 C 0.8587 0.5691 0.32526 0.0
C1182 C 0.86058 0.57287 0.26187 0.0
H1183 H 0.89116 0.63183 0.15006 0.0
H1184 H 0.88077 0.61771 0.21677 0.0
H1185 H 0.90432 0.62678 0.20199 0.0
H1186 H 0.90562 0.60216 0.25761 0.0
H1187 H 0.90243 0.59571 0.36811 0.0
H1188 H 0.30644 0.90135 0.52819 0.0
H1189 H 0.30769 0.90817 0.41823 0.0
H1190 H 0.28848 0.85261 0.37397 0.0
H1191 H 0.28673 0.84554 0.48465 0.0
H1192 H 0.32877 0.90299 0.33144 0.0
H1193 H 0.2566 0.86529 0.26767 0.0
H1194 H 0.26416 0.87059 0.34694 0.0
H1195 H 0.26457 0.85235 0.30795 0.0
C1196 C 0.30201 0.89045 0.49539 0.0
C1197 C 0.29632 0.87282 0.51536 0.0
C1198 C 0.3029 0.89442 0.43241 0.0
C1199 C 0.29802 0.88087 0.38805 0.0
C1200 C 0.29204 0.86321 0.40759 0.0
H1201 H 0.32736 0.8923 5e-05 0.0
H1202 H 0.32416 0.88618 0.11153 0.0
C1203 C 0.29118 0.85921 0.47074 0.0
C1204 C 0.30026 0.8855 0.3214 0.0
H1205 H 0.27751 0.87753 0.18488 0.0
C1206 C 0.31756 0.89747 0.29937 0.0
C1207 C 0.28559 0.8784 0.27997 0.0
C1208 C 0.26664 0.86606 0.30172 0.0
C1209 C 0.32062 0.90233 0.23665 0.0
C1210 C 0.30602 0.89486 0.19495 0.0
C1211 C 0.28868 0.88312 0.21708 0.0
C1212 C 0.30847 0.89907 0.12805 0.0
C1213 C 0.3394 0.91555 0.21552 0.0
C1214 C 0.30061 0.90824 0.10059 0.0
C1215 C 0.30239 0.91172 0.037 0.0
C1216 C 0.3119 0.90592 -0.00033 0.0
C1217 C 0.31986 0.89683 0.02753 0.0
C1218 C 0.31816 0.89344 0.09119 0.0
H1219 H 0.34829 0.92301 0.25504 0.0
H1220 H 0.3452 0.90821 0.19153 0.0
H1221 H 0.33928 0.92534 0.18229 0.0
H1222 H 0.293 0.9126 0.12835 0.0
H1223 H 0.29587 0.9185 0.01686 0.0
H1224 H 0.39696 0.27537 0.69276 0.0
H1225 H 0.38984 0.2736 0.58194 0.0
H1226 H 0.44414 0.31541 0.54457 0.0
H1227 H 0.45136 0.31669 0.65441 0.0
H1228 H 0.38963 0.29733 0.50675 0.0
H1229 H 0.43902 0.27989 0.41696 0.0
H1230 H 0.43415 0.2792 0.49849 0.0
H1231 H 0.44997 0.30005 0.46196 0.0
C1232 C 0.40737 0.28399 0.66056 0.0
C1233 C 0.42477 0.29597 0.68187 0.0
C1234 C 0.40332 0.283 0.5974 0.0
C1235 C 0.41656 0.2941 0.55462 0.0
C1236 C 0.43386 0.30625 0.57619 0.0
H1237 H 0.40061 0.3283 0.19506 0.0
H1238 H 0.40284 0.32375 0.30614 0.0
C1239 C 0.43798 0.30701 0.63902 0.0
C1240 C 0.41217 0.29365 0.48787 0.0
H1241 H 0.42728 0.29227 0.34306 0.0
C1242 C 0.39771 0.29598 0.4709 0.0
C1243 C 0.42245 0.29152 0.44099 0.0
C1244 C 0.43712 0.28732 0.45559 0.0
C1245 C 0.39366 0.29688 0.40843 0.0
C1246 C 0.4048 0.2961 0.36167 0.0
C1247 C 0.41887 0.29315 0.37872 0.0
C1248 C 0.40235 0.29847 0.29483 0.0
C1249 C 0.37736 0.29842 0.39349 0.0
C1250 C 0.40182 0.28609 0.25122 0.0
C1251 C 0.40111 0.289 0.18794 0.0
C1252 C 0.40065 0.30421 0.16701 0.0
C1253 C 0.40072 0.31638 0.21039 0.0
C1254 C 0.40185 0.31369 0.27378 0.0
H1255 H 0.36715 0.29252 0.43088 0.0
H1256 H 0.38138 0.3128 0.3895 0.0
H1257 H 0.37107 0.29161 0.34922 0.0
H1258 H 0.40219 0.27426 0.26612 0.0
H1259 H 0.40092 0.27937 0.15519 0.0
H1260 H 0.56566 0.84468 0.99402 0.0
H1261 H 0.57096 0.84955 0.10577 0.0
H1262 H 0.59861 0.90678 0.07667 0.0
H1263 H 0.59325 0.9021 0.96575 0.0
H1264 H 0.61601 0.89475 0.16066 0.0
H1265 H 0.54378 0.86768 0.21524 0.0
H1266 H 0.54905 0.85311 0.17164 0.0
H1267 H 0.55255 0.87365 0.13755 0.0
C1268 C 0.57286 0.85828 0.01148 0.0
C1269 C 0.579 0.87298 0.97094 0.0
C1270 C 0.57589 0.86103 0.07519 0.0
C1271 C 0.585 0.87852 0.09923 0.0
C1272 C 0.59158 0.89319 0.05884 0.0
H1273 H 0.61167 0.93121 0.45609 0.0
H1274 H 0.6094 0.92379 0.34548 0.0
C1275 C 0.58858 0.89046 0.99535 0.0
C1276 C 0.58722 0.88171 0.16665 0.0
H1277 H 0.56387 0.87733 0.29936 0.0
C1278 C 0.60464 0.8909 0.19117 0.0
C1279 C 0.57232 0.87669 0.20595 0.0
C1280 C 0.55335 0.86736 0.18145 0.0
C1281 C 0.60756 0.89518 0.25436 0.0
C1282 C 0.59266 0.8904 0.29345 0.0
C1283 C 0.57525 0.88099 0.26904 0.0
C1284 C 0.59476 0.89504 0.35994 0.0
C1285 C 0.62651 0.90459 0.27887 0.0
C1286 C 0.58705 0.88136 0.40426 0.0
C1287 C 0.58822 0.88556 0.46703 0.0
C1288 C 0.59706 0.90356 0.48668 0.0
C1289 C 0.6049 0.91726 0.44219 0.0
C1290 C 0.60367 0.91303 0.3792 0.0
H1291 H 0.63584 0.90315 0.24691 0.0
H1292 H 0.63123 0.91911 0.28401 0.0
H1293 H 0.62717 0.89925 0.32504 0.0
H1294 H 0.58013 0.8674 0.39022 0.0
H1295 H 0.58239 0.87468 0.50017 0.0
H1296 H 0.71576 0.60591 0.13955 0.0
H1297 H 0.71596 0.61168 0.25062 0.0
H1298 H 0.68668 0.55473 0.28577 0.0
H1299 H 0.68637 0.54886 0.17507 0.0
H1300 H 0.68581 0.60091 0.32331 0.0
H1301 H 0.7269 0.57274 0.41345 0.0
H1302 H 0.72651 0.5778 0.33246 0.0
H1303 H 0.70869 0.55741 0.36506 0.0
C1304 C 0.70947 0.59462 0.17098 0.0
C1305 C 0.70104 0.57692 0.14846 0.0
C1306 C 0.70966 0.59794 0.23437 0.0
C1307 C 0.70154 0.58364 0.27637 0.0
C1308 C 0.69341 0.56596 0.25424 0.0
H1309 H 0.67237 0.56846 0.66141 0.0
H1310 H 0.67654 0.56564 0.55074 0.0
C1311 C 0.69324 0.56263 0.1909 0.0
C1312 C 0.70037 0.58713 0.34279 0.0
H1313 H 0.70994 0.57861 0.48797 0.0
C1314 C 0.69126 0.59622 0.35937 0.0
C1315 C 0.70746 0.58095 0.38954 0.0
C1316 C 0.71809 0.57183 0.37433 0.0
C1317 C 0.68853 0.59881 0.42169 0.0
C1318 C 0.69532 0.59232 0.4684 0.0
C1319 C 0.70469 0.58349 0.45186 0.0
C1320 C 0.69253 0.59422 0.53486 0.0
C1321 C 0.67794 0.60795 0.43708 0.0
C1322 C 0.70018 0.61124 0.56236 0.0
C1323 C 0.69786 0.61289 0.62559 0.0
C1324 C 0.68795 0.59753 0.66242 0.0
C1325 C 0.68023 0.58052 0.63444 0.0
C1326 C 0.68255 0.57888 0.57127 0.0
H1327 H 0.67036 0.60857 0.39641 0.0
H1328 H 0.66835 0.60087 0.47539 0.0
H1329 H 0.68728 0.62189 0.45246 0.0
H1330 H 0.7082 0.62321 0.53513 0.0
H1331 H 0.70424 0.62616 0.64582 0.0
H1332 H 0.14949 0.71535 0.33097 0.0
H1333 H 0.14385 0.71468 0.44275 0.0
H1334 H 0.0873 0.69189 0.40721 0.0
H1335 H 0.09265 0.692 0.2966 0.0
H1336 H 0.12505 0.73012 0.51229 0.0
H1337 H 0.09171 0.65574 0.52439 0.0
H1338 H 0.10591 0.66851 0.46047 0.0
H1339 H 0.0833 0.66432 0.46533 0.0
C1340 C 0.13588 0.71022 0.34711 0.0
C1341 C 0.12154 0.70373 0.30491 0.0
C1342 C 0.13271 0.70994 0.41072 0.0
C1343 C 0.11515 0.70306 0.43277 0.0
C1344 C 0.10091 0.6971 0.39082 0.0
H1345 H 0.06346 0.6784 0.79115 0.0
H1346 H 0.07043 0.68335 0.68022 0.0
C1347 C 0.10405 0.69737 0.32751 0.0
C1348 C 0.11148 0.70148 0.49975 0.0
H1349 H 0.08994 0.67069 0.61389 0.0
C1350 C 0.11748 0.71717 0.53479 0.0
C1351 C 0.10154 0.68452 0.5284 0.0
C1352 C 0.09535 0.66728 0.49296 0.0
C1353 C 0.11342 0.71631 0.59806 0.0
C1354 C 0.10339 0.69933 0.62663 0.0
C1355 C 0.09751 0.68367 0.59153 0.0
C1356 C 0.09921 0.6974 0.69336 0.0
C1357 C 0.11956 0.73353 0.63347 0.0
C1358 C 0.1131 0.70363 0.73695 0.0
C1359 C 0.10915 0.70086 0.79995 0.0
C1360 C 0.09124 0.69166 0.82037 0.0
C1361 C 0.07735 0.68559 0.77658 0.0
C1362 C 0.08131 0.68837 0.71345 0.0
H1363 H 0.12282 0.74498 0.60198 0.0
H1364 H 0.10915 0.73219 0.66687 0.0
H1365 H 0.13185 0.73675 0.65999 0.0
H1366 H 0.12698 0.71038 0.72219 0.0
H1367 H 0.12017 0.70603 0.83255 0.0
H1368 H 0.43053 0.1518 0.49716 0.0
H1369 H 0.42566 0.14627 0.60892 0.0
H1370 H 0.39408 0.0894 0.57459 0.0
H1371 H 0.39925 0.09465 0.46392 0.0
H1372 H 0.39189 0.1262 0.68051 0.0
H1373 H 0.43613 0.09636 0.68922 0.0
H1374 H 0.43639 0.11004 0.62537 0.0
H1375 H 0.41884 0.08704 0.63127 0.0
C1376 C 0.42253 0.13814 0.51349 0.0
C1377 C 0.41537 0.12369 0.47159 0.0
C1378 C 0.41967 0.13503 0.57713 0.0
C1379 C 0.4097 0.11743 0.59956 0.0
C1380 C 0.40195 0.10306 0.55789 0.0
H1381 H 0.38694 0.06582 0.95702 0.0
H1382 H 0.38812 0.07292 0.84654 0.0
C1383 C 0.4048 0.10614 0.49452 0.0
C1384 C 0.40806 0.11386 0.66663 0.0
H1385 H 0.41947 0.09377 0.77972 0.0
C1386 C 0.39797 0.1192 0.7025 0.0
C1387 C 0.41605 0.10474 0.69466 0.0
C1388 C 0.4276 0.09932 0.65838 0.0
C1389 C 0.39526 0.11521 0.76596 0.0
C1390 C 0.40313 0.10592 0.79382 0.0
C1391 C 0.41336 0.10076 0.75792 0.0
C1392 C 0.40126 0.10164 0.8605 0.0
C1393 C 0.38371 0.12059 0.80228 0.0
C1394 C 0.40829 0.11546 0.90448 0.0
C1395 C 0.40759 0.11144 0.96731 0.0
C1396 C 0.39999 0.09352 0.98714 0.0
C1397 C 0.39279 0.0797 0.94296 0.0
C1398 C 0.39349 0.08374 0.88005 0.0
H1399 H 0.37495 0.12323 0.77144 0.0
H1400 H 0.37516 0.11002 0.83612 0.0
H1401 H 0.39246 0.13309 0.82839 0.0
H1402 H 0.41461 0.12937 0.89016 0.0
H1403 H 0.41292 0.12238 0.00025 0.0
H1404 H 0.28112 0.39065 0.63512 0.0
H1405 H 0.28187 0.38543 0.74622 0.0
H1406 H 0.30621 0.44226 0.78018 0.0
H1407 H 0.30558 0.44759 0.66946 0.0
H1408 H 0.31253 0.39915 0.81816 0.0
H1409 H 0.26624 0.42099 0.90905 0.0
H1410 H 0.26706 0.41614 0.8281 0.0
H1411 H 0.28355 0.43736 0.86009 0.0
C1412 C 0.28652 0.40202 0.66628 0.0
C1413 C 0.29329 0.41954 0.64339 0.0
C1414 C 0.28687 0.39901 0.72971 0.0
C1415 C 0.29388 0.41343 0.77141 0.0
C1416 C 0.30034 0.43089 0.74892 0.0
H1417 H 0.3231 0.43107 0.15679 0.0
H1418 H 0.31843 0.43336 0.04615 0.0
C1419 C 0.29997 0.43392 0.68554 0.0
C1420 C 0.29566 0.41042 0.83786 0.0
H1421 H 0.28483 0.41745 0.98322 0.0
C1422 C 0.30633 0.40296 0.85431 0.0
C1423 C 0.28757 0.41546 0.88474 0.0
C1424 C 0.27532 0.42278 0.86971 0.0
C1425 C 0.30958 0.40091 0.91659 0.0
C1426 C 0.30175 0.40625 0.96344 0.0
C1427 C 0.29087 0.41346 0.94703 0.0
C1428 C 0.3049 0.40474 0.02989 0.0
C1429 C 0.3218 0.39356 0.93179 0.0
C1430 C 0.2988 0.38788 0.05719 0.0
C1431 C 0.3014 0.38653 0.1204 0.0
C1432 C 0.31004 0.40202 0.15745 0.0
C1433 C 0.31623 0.41889 0.12967 0.0
C1434 C 0.31363 0.42022 0.06651 0.0
H1435 H 0.32985 0.3939 0.89106 0.0
H1436 H 0.33107 0.40127 0.97014 0.0
H1437 H 0.31357 0.3794 0.94702 0.0
H1438 H 0.29174 0.37575 0.02982 0.0
H1439 H 0.29619 0.37332 0.14043 0.0
H1440 H 0.89321 0.32306 0.32657 0.0
H1441 H 0.88584 0.31849 0.21633 0.0
H1442 H 0.91209 0.28714 0.20053 0.0
H1443 H 0.91934 0.29145 0.31106 0.0
H1444 H 0.9211 0.31373 0.10638 0.0
H1445 H 0.8475 0.27076 0.13703 0.0
H1446 H 0.85729 0.29152 0.17922 0.0
H1447 H 0.8633 0.2749 0.19866 0.0
C1448 C 0.8973 0.31508 0.29978 0.0
C1449 C 0.90673 0.30751 0.32771 0.0
C1450 C 0.89307 0.31247 0.23688 0.0
C1451 C 0.89814 0.3022 0.2008 0.0
C1452 C 0.90797 0.29501 0.22792 0.0
H1453 H 0.88696 0.27961 0.80361 0.0
H1454 H 0.89296 0.2794 0.91431 0.0
C1455 C 0.9122 0.2976 0.29095 0.0
C1456 C 0.89341 0.29928 0.13444 0.0
H1457 H 0.85781 0.28166 0.03515 0.0
C1458 C 0.90729 0.30657 0.09063 0.0
C1459 C 0.87536 0.28991 0.11442 0.0
C1460 C 0.85999 0.28117 0.15971 0.0
C1461 C 0.90357 0.30532 0.02699 0.0
C1462 C 0.8855 0.29622 0.00697 0.0
C1463 C 0.87163 0.28863 0.05081 0.0
C1464 C 0.88073 0.2951 0.94075 0.0
C1465 C 0.91898 0.31428 0.98187 0.0
C1466 C 0.87125 0.30338 0.91949 0.0
C1467 C 0.86775 0.30347 0.85639 0.0
C1468 C 0.87367 0.29526 0.81352 0.0
C1469 C 0.88254 0.28635 0.83538 0.0
C1470 C 0.88598 0.28622 0.89852 0.0
H1471 H 0.93166 0.32404 0.00523 0.0
H1472 H 0.92115 0.30393 0.95936 0.0
H1473 H 0.91597 0.32141 0.94505 0.0
H1474 H 0.86704 0.31026 0.95155 0.0
H1475 H 0.86104 0.31058 0.84106 0.0
loop_
_geom_bond_atom_site_label_1
_geom_bond_atom_site_label_2
_geom_bond_distance
_geom_bond_site_symmetry_2
_ccdc_geom_bond_type
Co0 N4 2.148 . S
Co0 N10 2.128 1_554 S
Co0 N20 2.194 . S
Co0 O25 2.351 . S
Co0 O26 2.155 . S
Co0 O27 2.096 . S
C1 N4 1.301 . S
C1 N5 1.328 . S
C1 H6 0.930 . S
C2 C3 1.333 . S
C2 N4 1.317 . S
C2 H7 0.930 . S
C3 C2 1.333 . S
C3 N5 1.350 . S
C3 H29 0.931 . S
N4 Co0 2.148 . S
N4 C1 1.301 . S
N4 C2 1.317 . S
N5 C1 1.328 . S
N5 C3 1.350 . S
H6 C1 0.930 . S
H7 C2 0.930 . S
C8 O9 1.224 . S
C8 O27 1.247 . S
O9 C8 1.224 . S
N10 Co0 2.128 1_556 S
N10 C11 1.355 . S
N10 C13 1.311 . S
C11 N10 1.355 . S
C11 C12 1.363 . S
C11 H23 0.929 . S
C12 C11 1.363 . S
C12 N14 1.375 . S
C12 H30 0.931 . S
C13 N10 1.311 . S
C13 N14 1.347 . S
C13 H24 0.929 . S
N14 C12 1.375 . S
N14 C13 1.347 . S
C15 C18 1.365 . S
C15 N20 1.328 . S
C15 H21 0.929 . S
C16 C17 1.362 . S
C16 C19 1.378 . S
C16 H31 0.929 . S
C17 C16 1.362 . S
C17 C18 1.366 . S
C18 C15 1.365 . S
C18 C17 1.366 . S
C18 H32 0.930 . S
C19 C16 1.378 . S
C19 N20 1.315 . S
C19 H22 0.930 . S
N20 Co0 2.194 . S
N20 C15 1.328 . S
N20 C19 1.315 . S
H21 C15 0.929 . S
H22 C19 0.930 . S
H23 C11 0.929 . S
H24 C13 0.929 . S
O25 Co0 2.351 . S
O25 C28 1.244 . S
O26 Co0 2.155 . S
O26 C28 1.240 . S
O27 Co0 2.096 . S
O27 C8 1.247 . S
C28 O25 1.244 . S
C28 O26 1.240 . S
H29 C3 0.931 . S
H30 C12 0.931 . S
H31 C16 0.929 . S
H32 C18 0.930 . S
Co33 N37 2.148 . S
Co33 N43 2.128 . S
Co33 N53 2.194 . S
Co33 O58 2.351 . S
Co33 O59 2.155 . S
Co33 O60 2.096 . S
C34 N37 1.301 . S
C34 N38 1.328 . S
C34 H39 0.930 . S
C35 C36 1.333 . S
C35 N37 1.317 . S
C35 H40 0.930 . S
C36 C35 1.333 . S
C36 N38 1.350 . S
C36 H62 0.931 . S
N37 Co33 2.148 . S
N37 C34 1.301 . S
N37 C35 1.317 . S
N38 C34 1.328 . S
N38 C36 1.350 . S
H39 C34 0.930 . S
H40 C35 0.930 . S
C41 O42 1.224 . S
C41 O60 1.247 . S
O42 C41 1.224 . S
N43 Co33 2.128 . S
N43 C44 1.355 . S
N43 C46 1.311 . S
C44 N43 1.355 . S
C44 C45 1.363 . S
C44 H56 0.929 . S
C45 C44 1.363 . S
C45 N47 1.375 . S
C45 H63 0.931 . S
C46 N43 1.311 . S
C46 N47 1.347 . S
C46 H57 0.929 . S
N47 C45 1.375 . S
N47 C46 1.347 . S
C48 C51 1.365 . S
C48 N53 1.328 . S
C48 H54 0.929 . S
C49 C50 1.362 . S
C49 C52 1.378 . S
C49 H64 0.929 . S
C50 C49 1.362 . S
C50 C51 1.366 . S
C51 C48 1.365 . S
C51 C50 1.366 . S
C51 H65 0.930 . S
C52 C49 1.378 . S
C52 N53 1.315 . S
C52 H55 0.930 . S
N53 Co33 2.194 . S
N53 C48 1.328 . S
N53 C52 1.315 . S
H54 C48 0.929 . S
H55 C52 0.930 . S
H56 C44 0.929 . S
H57 C46 0.929 . S
O58 Co33 2.351 . S
O58 C61 1.244 . S
O59 Co33 2.155 . S
O59 C61 1.240 . S
O60 Co33 2.096 . S
O60 C41 1.247 . S
C61 O58 1.244 . S
C61 O59 1.240 . S
H62 C36 0.931 . S
H63 C45 0.931 . S
H64 C49 0.929 . S
H65 C51 0.930 . S
Co66 N70 2.148 . S
Co66 N76 2.128 . S
Co66 N86 2.194 . S
Co66 O91 2.351 . S
Co66 O92 2.155 . S
Co66 O93 2.096 . S
C67 N70 1.301 . S
C67 N71 1.328 . S
C67 H72 0.930 . S
C68 C69 1.333 . S
C68 N70 1.317 . S
C68 H73 0.930 . S
C69 C68 1.333 . S
C69 N71 1.350 . S
C69 H95 0.931 . S
N70 Co66 2.148 . S
N70 C67 1.301 . S
N70 C68 1.317 . S
N71 C67 1.328 . S
N71 C69 1.350 . S
H72 C67 0.930 . S
H73 C68 0.930 . S
C74 O75 1.224 . S
C74 O93 1.247 . S
O75 C74 1.224 . S
N76 Co66 2.128 . S
N76 C77 1.355 . S
N76 C79 1.311 . S
C77 N76 1.355 . S
C77 C78 1.363 . S
C77 H89 0.929 . S
C78 C77 1.363 . S
C78 N80 1.375 . S
C78 H96 0.931 . S
C79 N76 1.311 . S
C79 N80 1.347 . S
C79 H90 0.929 . S
N80 C78 1.375 . S
N80 C79 1.347 . S
C81 C84 1.365 . S
C81 N86 1.328 . S
C81 H87 0.929 . S
C82 C83 1.362 . S
C82 C85 1.378 . S
C82 H97 0.929 . S
C83 C82 1.362 . S
C83 C84 1.366 . S
C84 C81 1.365 . S
C84 C83 1.366 . S
C84 H98 0.930 . S
C85 C82 1.378 . S
C85 N86 1.315 . S
C85 H88 0.930 . S
N86 Co66 2.194 . S
N86 C81 1.328 . S
N86 C85 1.315 . S
H87 C81 0.929 . S
H88 C85 0.930 . S
H89 C77 0.929 . S
H90 C79 0.929 . S
O91 Co66 2.351 . S
O91 C94 1.244 . S
O92 Co66 2.155 . S
O92 C94 1.240 . S
O93 Co66 2.096 . S
O93 C74 1.247 . S
C94 O91 1.244 . S
C94 O92 1.240 . S
H95 C69 0.931 . S
H96 C78 0.931 . S
H97 C82 0.929 . S
H98 C84 0.930 . S
Co99 N103 2.148 . S
Co99 N109 2.128 . S
Co99 N119 2.194 . S
Co99 O124 2.351 . S
Co99 O125 2.155 . S
Co99 O126 2.096 . S
C100 N103 1.301 . S
C100 N104 1.328 . S
C100 H105 0.930 . S
C101 C102 1.333 . S
C101 N103 1.317 . S
C101 H106 0.930 . S
C102 C101 1.333 . S
C102 N104 1.350 . S
C102 H128 0.931 . S
N103 Co99 2.148 . S
N103 C100 1.301 . S
N103 C101 1.317 . S
N104 C100 1.328 . S
N104 C102 1.350 . S
H105 C100 0.930 . S
H106 C101 0.930 . S
C107 O108 1.224 . S
C107 O126 1.247 . S
O108 C107 1.224 . S
N109 Co99 2.128 . S
N109 C110 1.355 . S
N109 C112 1.311 . S
C110 N109 1.355 . S
C110 C111 1.363 . S
C110 H122 0.929 . S
C111 C110 1.363 . S
C111 N113 1.375 . S
C111 H129 0.931 . S
C112 N109 1.311 . S
C112 N113 1.347 . S
C112 H123 0.929 . S
N113 C111 1.375 . S
N113 C112 1.347 . S
C114 C117 1.365 . S
C114 N119 1.328 . S
C114 H120 0.929 . S
C115 C116 1.362 . S
C115 C118 1.378 . S
C115 H130 0.929 . S
C116 C115 1.362 . S
C116 C117 1.366 . S
C117 C114 1.365 . S
C117 C116 1.366 . S
C117 H131 0.930 . S
C118 C115 1.378 . S
C118 N119 1.315 . S
C118 H121 0.930 . S
N119 Co99 2.194 . S
N119 C114 1.328 . S
N119 C118 1.315 . S
H120 C114 0.929 . S
H121 C118 0.930 . S
H122 C110 0.929 . S
H123 C112 0.929 . S
O124 Co99 2.351 . S
O124 C127 1.244 . S
O125 Co99 2.155 . S
O125 C127 1.240 . S
O126 Co99 2.096 . S
O126 C107 1.247 . S
C127 O124 1.244 . S
C127 O125 1.240 . S
H128 C102 0.931 . S
H129 C111 0.931 . S
H130 C115 0.929 . S
H131 C117 0.930 . S
Co132 N136 2.148 . S
Co132 N142 2.128 . S
Co132 N152 2.194 . S
Co132 O157 2.351 . S
Co132 O158 2.155 . S
Co132 O159 2.096 . S
C133 N136 1.301 . S
C133 N137 1.328 . S
C133 H138 0.930 . S
C134 C135 1.333 . S
C134 N136 1.317 . S
C134 H139 0.930 . S
C135 C134 1.333 . S
C135 N137 1.350 . S
C135 H161 0.931 . S
N136 Co132 2.148 . S
N136 C133 1.301 . S
N136 C134 1.317 . S
N137 C133 1.328 . S
N137 C135 1.350 . S
H138 C133 0.930 . S
H139 C134 0.930 . S
C140 O141 1.224 . S
C140 O159 1.247 . S
O141 C140 1.224 . S
N142 Co132 2.128 . S
N142 C143 1.355 . S
N142 C145 1.311 . S
C143 N142 1.355 . S
C143 C144 1.363 . S
C143 H155 0.929 . S
C144 C143 1.363 . S
C144 N146 1.375 . S
C144 H162 0.931 . S
C145 N142 1.311 . S
C145 N146 1.347 . S
C145 H156 0.929 . S
N146 C144 1.375 . S
N146 C145 1.347 . S
C147 C150 1.365 . S
C147 N152 1.328 . S
C147 H153 0.929 . S
C148 C149 1.362 . S
C148 C151 1.378 . S
C148 H163 0.929 . S
C149 C148 1.362 . S
C149 C150 1.366 . S
C150 C147 1.365 . S
C150 C149 1.366 . S
C150 H164 0.930 . S
C151 C148 1.378 . S
C151 N152 1.315 . S
C151 H154 0.930 . S
N152 Co132 2.194 . S
N152 C147 1.328 . S
N152 C151 1.315 . S
H153 C147 0.929 . S
H154 C151 0.930 . S
H155 C143 0.929 . S
H156 C145 0.929 . S
O157 Co132 2.351 . S
O157 C160 1.244 . S
O158 Co132 2.155 . S
O158 C160 1.240 . S
O159 Co132 2.096 . S
O159 C140 1.247 . S
C160 O157 1.244 . S
C160 O158 1.240 . S
H161 C135 0.931 . S
H162 C144 0.931 . S
H163 C148 0.929 . S
H164 C150 0.930 . S
Co165 N169 2.148 . S
Co165 N175 2.128 . S
Co165 N185 2.194 . S
Co165 O190 2.351 . S
Co165 O191 2.155 . S
Co165 O192 2.096 . S
C166 N169 1.301 1_554 S
C166 N170 1.328 . S
C166 H171 0.930 . S
C167 C168 1.333 . S
C167 N169 1.317 1_554 S
C167 H172 0.930 1_554 S
C168 C167 1.333 . S
C168 N170 1.350 . S
C168 H194 0.931 . S
N169 Co165 2.148 . S
N169 C166 1.301 1_556 S
N169 C167 1.317 1_556 S
N170 C166 1.328 . S
N170 C168 1.350 . S
H171 C166 0.930 . S
H172 C167 0.930 1_556 S
C173 O174 1.224 . S
C173 O192 1.247 . S
O174 C173 1.224 . S
N175 Co165 2.128 . S
N175 C176 1.355 . S
N175 C178 1.311 . S
C176 N175 1.355 . S
C176 C177 1.363 . S
C176 H188 0.929 . S
C177 C176 1.363 . S
C177 N179 1.375 . S
C177 H195 0.931 . S
C178 N175 1.311 . S
C178 N179 1.347 . S
C178 H189 0.929 . S
N179 C177 1.375 . S
N179 C178 1.347 . S
C180 C183 1.365 . S
C180 N185 1.328 . S
C180 H186 0.929 . S
C181 C182 1.362 . S
C181 C184 1.378 . S
C181 H196 0.929 . S
C182 C181 1.362 . S
C182 C183 1.366 . S
C183 C180 1.365 . S
C183 C182 1.366 . S
C183 H197 0.930 . S
C184 C181 1.378 . S
C184 N185 1.315 . S
C184 H187 0.930 . S
N185 Co165 2.194 . S
N185 C180 1.328 . S
N185 C184 1.315 . S
H186 C180 0.929 . S
H187 C184 0.930 . S
H188 C176 0.929 . S
H189 C178 0.929 . S
O190 Co165 2.351 . S
O190 C193 1.244 . S
O191 Co165 2.155 . S
O191 C193 1.240 . S
O192 Co165 2.096 . S
O192 C173 1.247 . S
C193 O190 1.244 . S
C193 O191 1.240 . S
H194 C168 0.931 . S
H195 C177 0.931 . S
H196 C181 0.929 . S
H197 C183 0.930 . S
Co198 N202 2.148 . S
Co198 N208 2.128 . S
Co198 N218 2.194 . S
Co198 O223 2.351 . S
Co198 O224 2.155 . S
Co198 O225 2.096 . S
C199 N202 1.301 . S
C199 N203 1.328 . S
C199 H204 0.930 . S
C200 C201 1.333 . S
C200 N202 1.317 . S
C200 H205 0.930 . S
C201 C200 1.333 . S
C201 N203 1.350 . S
C201 H227 0.931 . S
N202 Co198 2.148 . S
N202 C199 1.301 . S
N202 C200 1.317 . S
N203 C199 1.328 . S
N203 C201 1.350 . S
H204 C199 0.930 . S
H205 C200 0.930 . S
C206 O207 1.224 . S
C206 O225 1.247 . S
O207 C206 1.224 . S
N208 Co198 2.128 . S
N208 C209 1.355 . S
N208 C211 1.311 . S
C209 N208 1.355 . S
C209 C210 1.363 . S
C209 H221 0.929 . S
C210 C209 1.363 . S
C210 N212 1.375 . S
C210 H228 0.931 . S
C211 N208 1.311 . S
C211 N212 1.347 . S
C211 H222 0.929 . S
N212 C210 1.375 . S
N212 C211 1.347 . S
C213 C216 1.365 . S
C213 N218 1.328 . S
C213 H219 0.929 . S
C214 C215 1.362 . S
C214 C217 1.378 . S
C214 H229 0.929 . S
C215 C214 1.362 . S
C215 C216 1.366 . S
C216 C213 1.365 . S
C216 C215 1.366 . S
C216 H230 0.930 . S
C217 C214 1.378 . S
C217 N218 1.315 . S
C217 H220 0.930 . S
N218 Co198 2.194 . S
N218 C213 1.328 . S
N218 C217 1.315 . S
H219 C213 0.929 . S
H220 C217 0.930 . S
H221 C209 0.929 . S
H222 C211 0.929 . S
O223 Co198 2.351 . S
O223 C226 1.244 . S
O224 Co198 2.155 . S
O224 C226 1.240 . S
O225 Co198 2.096 . S
O225 C206 1.247 . S
C226 O223 1.244 . S
C226 O224 1.240 . S
H227 C201 0.931 . S
H228 C210 0.931 . S
H229 C214 0.929 . S
H230 C216 0.930 . S
Co231 N235 2.148 . S
Co231 N241 2.128 1_556 S
Co231 N251 2.194 . S
Co231 O256 2.351 . S
Co231 O257 2.155 . S
Co231 O258 2.096 . S
C232 N235 1.301 . S
C232 N236 1.328 . S
C232 H237 0.930 . S
C233 C234 1.333 . S
C233 N235 1.317 . S
C233 H238 0.930 . S
C234 C233 1.333 . S
C234 N236 1.350 . S
C234 H260 0.931 . S
N235 Co231 2.148 . S
N235 C232 1.301 . S
N235 C233 1.317 . S
N236 C232 1.328 . S
N236 C234 1.350 . S
H237 C232 0.930 . S
H238 C233 0.930 . S
C239 O240 1.224 . S
C239 O258 1.247 . S
O240 C239 1.224 . S
N241 Co231 2.128 1_554 S
N241 C242 1.355 . S
N241 C244 1.311 . S
C242 N241 1.355 . S
C242 C243 1.363 . S
C242 H254 0.929 . S
C243 C242 1.363 . S
C243 N245 1.375 . S
C243 H261 0.931 . S
C244 N241 1.311 . S
C244 N245 1.347 . S
C244 H255 0.929 . S
N245 C243 1.375 . S
N245 C244 1.347 . S
C246 C249 1.365 . S
C246 N251 1.328 . S
C246 H252 0.929 . S
C247 C248 1.362 . S
C247 C250 1.378 . S
C247 H262 0.929 . S
C248 C247 1.362 . S
C248 C249 1.366 . S
C249 C246 1.365 . S
C249 C248 1.366 . S
C249 H263 0.930 . S
C250 C247 1.378 . S
C250 N251 1.315 . S
C250 H253 0.930 . S
N251 Co231 2.194 . S
N251 C246 1.328 . S
N251 C250 1.315 . S
H252 C246 0.929 . S
H253 C250 0.930 . S
H254 C242 0.929 . S
H255 C244 0.929 . S
O256 Co231 2.351 . S
O256 C259 1.244 . S
O257 Co231 2.155 . S
O257 C259 1.240 . S
O258 Co231 2.096 . S
O258 C239 1.247 . S
C259 O256 1.244 . S
C259 O257 1.240 . S
H260 C234 0.931 . S
H261 C243 0.931 . S
H262 C247 0.929 . S
H263 C249 0.930 . S
Co264 N268 2.148 . S
Co264 N274 2.128 . S
Co264 N284 2.194 . S
Co264 O289 2.351 . S
Co264 O290 2.155 . S
Co264 O291 2.096 . S
C265 N268 1.301 1_556 S
C265 N269 1.328 . S
C265 H270 0.930 . S
C266 C267 1.333 1_554 S
C266 N268 1.317 . S
C266 H271 0.930 . S
C267 C266 1.333 1_556 S
C267 N269 1.350 . S
C267 H293 0.931 . S
N268 Co264 2.148 . S
N268 C265 1.301 1_554 S
N268 C266 1.317 . S
N269 C265 1.328 . S
N269 C267 1.350 . S
H270 C265 0.930 . S
H271 C266 0.930 . S
C272 O273 1.224 . S
C272 O291 1.247 . S
O273 C272 1.224 . S
N274 Co264 2.128 . S
N274 C275 1.355 . S
N274 C277 1.311 . S
C275 N274 1.355 . S
C275 C276 1.363 . S
C275 H287 0.929 . S
C276 C275 1.363 . S
C276 N278 1.375 . S
C276 H294 0.931 . S
C277 N274 1.311 . S
C277 N278 1.347 . S
C277 H288 0.929 . S
N278 C276 1.375 . S
N278 C277 1.347 . S
C279 C282 1.365 . S
C279 N284 1.328 . S
C279 H285 0.929 . S
C280 C281 1.362 . S
C280 C283 1.378 . S
C280 H295 0.929 . S
C281 C280 1.362 . S
C281 C282 1.366 . S
C282 C279 1.365 . S
C282 C281 1.366 . S
C282 H296 0.930 . S
C283 C280 1.378 . S
C283 N284 1.315 . S
C283 H286 0.930 . S
N284 Co264 2.194 . S
N284 C279 1.328 . S
N284 C283 1.315 . S
H285 C279 0.929 . S
H286 C283 0.930 . S
H287 C275 0.929 . S
H288 C277 0.929 . S
O289 Co264 2.351 . S
O289 C292 1.244 . S
O290 Co264 2.155 . S
O290 C292 1.240 . S
O291 Co264 2.096 . S
O291 C272 1.247 . S
C292 O289 1.244 . S
C292 O290 1.240 . S
H293 C267 0.931 . S
H294 C276 0.931 . S
H295 C280 0.929 . S
H296 C282 0.930 . S
Co297 N301 2.148 . S
Co297 N307 2.128 . S
Co297 N317 2.194 . S
Co297 O322 2.351 . S
Co297 O323 2.155 . S
Co297 O324 2.096 . S
C298 N301 1.301 . S
C298 N302 1.328 . S
C298 H303 0.930 . S
C299 C300 1.333 . S
C299 N301 1.317 . S
C299 H304 0.930 . S
C300 C299 1.333 . S
C300 N302 1.350 . S
C300 H326 0.931 . S
N301 Co297 2.148 . S
N301 C298 1.301 . S
N301 C299 1.317 . S
N302 C298 1.328 . S
N302 C300 1.350 . S
H303 C298 0.930 . S
H304 C299 0.930 . S
C305 O306 1.224 . S
C305 O324 1.247 . S
O306 C305 1.224 . S
N307 Co297 2.128 . S
N307 C308 1.355 . S
N307 C310 1.311 . S
C308 N307 1.355 . S
C308 C309 1.363 . S
C308 H320 0.929 . S
C309 C308 1.363 . S
C309 N311 1.375 . S
C309 H327 0.931 . S
C310 N307 1.311 . S
C310 N311 1.347 . S
C310 H321 0.929 . S
N311 C309 1.375 . S
N311 C310 1.347 . S
C312 C315 1.365 . S
C312 N317 1.328 . S
C312 H318 0.929 . S
C313 C314 1.362 . S
C313 C316 1.378 . S
C313 H328 0.929 . S
C314 C313 1.362 . S
C314 C315 1.366 . S
C315 C312 1.365 . S
C315 C314 1.366 . S
C315 H329 0.930 . S
C316 C313 1.378 . S
C316 N317 1.315 . S
C316 H319 0.930 . S
N317 Co297 2.194 . S
N317 C312 1.328 . S
N317 C316 1.315 . S
H318 C312 0.929 . S
H319 C316 0.930 . S
H320 C308 0.929 . S
H321 C310 0.929 . S
O322 Co297 2.351 . S
O322 C325 1.244 . S
O323 Co297 2.155 . S
O323 C325 1.240 . S
O324 Co297 2.096 . S
O324 C305 1.247 . S
C325 O322 1.244 . S
C325 O323 1.240 . S
H326 C300 0.931 . S
H327 C309 0.931 . S
H328 C313 0.929 . S
H329 C315 0.930 . S
Co330 N334 2.148 . S
Co330 N340 2.128 . S
Co330 N350 2.194 . S
Co330 O355 2.351 . S
Co330 O356 2.155 . S
Co330 O357 2.096 . S
C331 N334 1.301 . S
C331 N335 1.328 . S
C331 H336 0.930 . S
C332 C333 1.333 . S
C332 N334 1.317 . S
C332 H337 0.930 . S
C333 C332 1.333 . S
C333 N335 1.350 . S
C333 H359 0.931 . S
N334 Co330 2.148 . S
N334 C331 1.301 . S
N334 C332 1.317 . S
N335 C331 1.328 . S
N335 C333 1.350 . S
H336 C331 0.930 . S
H337 C332 0.930 . S
C338 O339 1.224 . S
C338 O357 1.247 . S
O339 C338 1.224 . S
N340 Co330 2.128 . S
N340 C341 1.355 . S
N340 C343 1.311 . S
C341 N340 1.355 . S
C341 C342 1.363 . S
C341 H353 0.929 . S
C342 C341 1.363 . S
C342 N344 1.375 . S
C342 H360 0.931 . S
C343 N340 1.311 . S
C343 N344 1.347 . S
C343 H354 0.929 . S
N344 C342 1.375 . S
N344 C343 1.347 . S
C345 C348 1.365 . S
C345 N350 1.328 . S
C345 H351 0.929 . S
C346 C347 1.362 . S
C346 C349 1.378 . S
C346 H361 0.929 . S
C347 C346 1.362 . S
C347 C348 1.366 . S
C348 C345 1.365 . S
C348 C347 1.366 . S
C348 H362 0.930 . S
C349 C346 1.378 . S
C349 N350 1.315 . S
C349 H352 0.930 . S
N350 Co330 2.194 . S
N350 C345 1.328 . S
N350 C349 1.315 . S
H351 C345 0.929 . S
H352 C349 0.930 . S
H353 C341 0.929 . S
H354 C343 0.929 . S
O355 Co330 2.351 . S
O355 C358 1.244 . S
O356 Co330 2.155 . S
O356 C358 1.240 . S
O357 Co330 2.096 . S
O357 C338 1.247 . S
C358 O355 1.244 . S
C358 O356 1.240 . S
H359 C333 0.931 . S
H360 C342 0.931 . S
H361 C346 0.929 . S
H362 C348 0.930 . S
Co363 N367 2.148 . S
Co363 N373 2.128 . S
Co363 N383 2.194 . S
Co363 O388 2.351 . S
Co363 O389 2.155 . S
Co363 O390 2.096 . S
C364 N367 1.301 . S
C364 N368 1.328 . S
C364 H369 0.930 . S
C365 C366 1.333 . S
C365 N367 1.317 . S
C365 H370 0.930 . S
C366 C365 1.333 . S
C366 N368 1.350 . S
C366 H392 0.931 . S
N367 Co363 2.148 . S
N367 C364 1.301 . S
N367 C365 1.317 . S
N368 C364 1.328 . S
N368 C366 1.350 . S
H369 C364 0.930 . S
H370 C365 0.930 . S
C371 O372 1.224 . S
C371 O390 1.247 . S
O372 C371 1.224 . S
N373 Co363 2.128 . S
N373 C374 1.355 . S
N373 C376 1.311 . S
C374 N373 1.355 . S
C374 C375 1.363 . S
C374 H386 0.929 . S
C375 C374 1.363 . S
C375 N377 1.375 . S
C375 H393 0.931 . S
C376 N373 1.311 . S
C376 N377 1.347 . S
C376 H387 0.929 . S
N377 C375 1.375 . S
N377 C376 1.347 . S
C378 C381 1.365 . S
C378 N383 1.328 . S
C378 H384 0.929 . S
C379 C380 1.362 . S
C379 C382 1.378 . S
C379 H394 0.929 . S
C380 C379 1.362 . S
C380 C381 1.366 . S
C381 C378 1.365 . S
C381 C380 1.366 . S
C381 H395 0.930 . S
C382 C379 1.378 . S
C382 N383 1.315 . S
C382 H385 0.930 . S
N383 Co363 2.194 . S
N383 C378 1.328 . S
N383 C382 1.315 . S
H384 C378 0.929 . S
H385 C382 0.930 . S
H386 C374 0.929 . S
H387 C376 0.929 . S
O388 Co363 2.351 . S
O388 C391 1.244 . S
O389 Co363 2.155 . S
O389 C391 1.240 . S
O390 Co363 2.096 . S
O390 C371 1.247 . S
C391 O388 1.244 . S
C391 O389 1.240 . S
H392 C366 0.931 . S
H393 C375 0.931 . S
H394 C379 0.929 . S
H395 C381 0.930 . S
H396 C404 0.929 . S
H397 C406 0.930 . S
H398 C408 0.930 . S
H399 C411 0.929 . S
H400 C414 0.930 1_556 S
H401 C416 0.960 . S
H402 C416 0.960 . S
H403 C416 0.960 . S
C404 H396 0.929 . S
C404 C405 1.377 . S
C404 C406 1.384 . S
C405 C404 1.377 . S
C405 C411 1.390 . S
C406 H397 0.930 . S
C406 C404 1.384 . S
C406 C407 1.372 . S
C407 C406 1.372 . S
C407 C408 1.400 . S
C407 C412 1.490 . S
C408 H398 0.930 . S
C408 C407 1.400 . S
C408 C411 1.386 . S
H409 C425 0.930 . S
H410 C426 0.931 . S
C411 H399 0.929 . S
C411 C405 1.390 . S
C411 C408 1.386 . S
C412 C407 1.490 . S
C412 C414 1.395 . S
C412 C415 1.403 . S
H413 C419 0.930 . S
C414 H400 0.930 1_554 S
C414 C412 1.395 . S
C414 C417 1.403 . S
C415 C412 1.403 . S
C415 C416 1.524 . S
C415 C419 1.400 . S
C416 H401 0.960 . S
C416 H402 0.960 . S
C416 H403 0.960 . S
C416 C415 1.524 . S
C417 C414 1.403 . S
C417 C418 1.392 . S
C417 C421 1.495 1_554 S
C418 C417 1.392 . S
C418 C419 1.385 . S
C418 C420 1.478 . S
C419 H413 0.930 . S
C419 C415 1.400 . S
C419 C418 1.385 . S
C420 C418 1.478 . S
C420 C422 1.381 . S
C420 C426 1.383 . S
C421 C417 1.495 1_556 S
C421 H427 0.959 . S
C421 H428 0.961 . S
C421 H429 0.960 . S
C422 C420 1.381 . S
C422 C423 1.394 . S
C422 H430 0.930 . S
C423 C422 1.394 . S
C423 C424 1.383 . S
C423 H431 0.929 . S
C424 C423 1.383 . S
C424 C425 1.377 . S
C425 H409 0.930 . S
C425 C424 1.377 . S
C425 C426 1.379 . S
C426 H410 0.931 . S
C426 C420 1.383 . S
C426 C425 1.379 . S
H427 C421 0.959 . S
H428 C421 0.961 . S
H429 C421 0.960 . S
H430 C422 0.930 . S
H431 C423 0.929 . S
H432 C440 0.929 . S
H433 C442 0.930 . S
H434 C444 0.930 . S
H435 C447 0.929 . S
H436 C450 0.930 . S
H437 C452 0.960 . S
H438 C452 0.960 . S
H439 C452 0.960 . S
C440 H432 0.929 . S
C440 C441 1.377 . S
C440 C442 1.384 . S
C441 C440 1.377 . S
C441 C447 1.390 . S
C442 H433 0.930 . S
C442 C440 1.384 . S
C442 C443 1.372 . S
C443 C442 1.372 . S
C443 C444 1.400 . S
C443 C448 1.490 . S
C444 H434 0.930 . S
C444 C443 1.400 . S
C444 C447 1.386 . S
H445 C461 0.930 . S
H446 C462 0.931 . S
C447 H435 0.929 . S
C447 C441 1.390 . S
C447 C444 1.386 . S
C448 C443 1.490 . S
C448 C450 1.395 . S
C448 C451 1.403 . S
H449 C455 0.930 . S
C450 H436 0.930 . S
C450 C448 1.395 . S
C450 C453 1.403 . S
C451 C448 1.403 . S
C451 C452 1.524 . S
C451 C455 1.400 . S
C452 H437 0.960 . S
C452 H438 0.960 . S
C452 H439 0.960 . S
C452 C451 1.524 . S
C453 C450 1.403 . S
C453 C454 1.392 . S
C453 C457 1.495 . S
C454 C453 1.392 . S
C454 C455 1.385 . S
C454 C456 1.478 . S
C455 H449 0.930 . S
C455 C451 1.400 . S
C455 C454 1.385 . S
C456 C454 1.478 . S
C456 C458 1.381 . S
C456 C462 1.383 . S
C457 C453 1.495 . S
C457 H463 0.959 . S
C457 H464 0.961 . S
C457 H465 0.960 . S
C458 C456 1.381 . S
C458 C459 1.394 . S
C458 H466 0.930 . S
C459 C458 1.394 . S
C459 C460 1.383 . S
C459 H467 0.929 . S
C460 C459 1.383 . S
C460 C461 1.377 . S
C461 H445 0.930 . S
C461 C460 1.377 . S
C461 C462 1.379 . S
C462 H446 0.931 . S
C462 C456 1.383 . S
C462 C461 1.379 . S
H463 C457 0.959 . S
H464 C457 0.961 . S
H465 C457 0.960 . S
H466 C458 0.930 . S
H467 C459 0.929 . S
H468 C476 0.929 . S
H469 C478 0.930 . S
H470 C480 0.930 . S
H471 C483 0.929 . S
H472 C486 0.930 . S
H473 C488 0.960 . S
H474 C488 0.960 . S
H475 C488 0.960 . S
C476 H468 0.929 . S
C476 C477 1.377 . S
C476 C478 1.384 . S
C477 C476 1.377 . S
C477 C483 1.390 . S
C478 H469 0.930 . S
C478 C476 1.384 . S
C478 C479 1.372 . S
C479 C478 1.372 . S
C479 C480 1.400 . S
C479 C484 1.490 . S
C480 H470 0.930 . S
C480 C479 1.400 . S
C480 C483 1.386 . S
H481 C497 0.930 . S
H482 C498 0.931 . S
C483 H471 0.929 . S
C483 C477 1.390 . S
C483 C480 1.386 . S
C484 C479 1.490 . S
C484 C486 1.395 . S
C484 C487 1.403 . S
H485 C491 0.930 . S
C486 H472 0.930 . S
C486 C484 1.395 . S
C486 C489 1.403 . S
C487 C484 1.403 . S
C487 C488 1.524 . S
C487 C491 1.400 . S
C488 H473 0.960 . S
C488 H474 0.960 . S
C488 H475 0.960 . S
C488 C487 1.524 . S
C489 C486 1.403 . S
C489 C490 1.392 . S
C489 C493 1.495 . S
C490 C489 1.392 . S
C490 C491 1.385 . S
C490 C492 1.478 . S
C491 H485 0.930 . S
C491 C487 1.400 . S
C491 C490 1.385 . S
C492 C490 1.478 . S
C492 C494 1.381 . S
C492 C498 1.383 . S
C493 C489 1.495 . S
C493 H499 0.959 . S
C493 H500 0.961 . S
C493 H501 0.960 . S
C494 C492 1.381 . S
C494 C495 1.394 . S
C494 H502 0.930 . S
C495 C494 1.394 . S
C495 C496 1.383 . S
C495 H503 0.929 . S
C496 C495 1.383 . S
C496 C497 1.377 . S
C497 H481 0.930 . S
C497 C496 1.377 . S
C497 C498 1.379 . S
C498 H482 0.931 . S
C498 C492 1.383 . S
C498 C497 1.379 . S
H499 C493 0.959 . S
H500 C493 0.961 . S
H501 C493 0.960 . S
H502 C494 0.930 . S
H503 C495 0.929 . S
H504 C512 0.929 . S
H505 C514 0.930 . S
H506 C516 0.930 . S
H507 C519 0.929 . S
H508 C522 0.930 . S
H509 C524 0.960 . S
H510 C524 0.960 . S
H511 C524 0.960 . S
C512 H504 0.929 . S
C512 C513 1.377 . S
C512 C514 1.384 . S
C513 C512 1.377 . S
C513 C519 1.390 . S
C514 H505 0.930 . S
C514 C512 1.384 . S
C514 C515 1.372 . S
C515 C514 1.372 . S
C515 C516 1.400 . S
C515 C520 1.490 . S
C516 H506 0.930 . S
C516 C515 1.400 . S
C516 C519 1.386 . S
H517 C533 0.930 . S
H518 C534 0.931 . S
C519 H507 0.929 . S
C519 C513 1.390 . S
C519 C516 1.386 . S
C520 C515 1.490 . S
C520 C522 1.395 . S
C520 C523 1.403 . S
H521 C527 0.930 . S
C522 H508 0.930 . S
C522 C520 1.395 . S
C522 C525 1.403 . S
C523 C520 1.403 . S
C523 C524 1.524 . S
C523 C527 1.400 . S
C524 H509 0.960 . S
C524 H510 0.960 . S
C524 H511 0.960 . S
C524 C523 1.524 . S
C525 C522 1.403 . S
C525 C526 1.392 . S
C525 C529 1.495 . S
C526 C525 1.392 . S
C526 C527 1.385 . S
C526 C528 1.478 . S
C527 H521 0.930 . S
C527 C523 1.400 . S
C527 C526 1.385 . S
C528 C526 1.478 . S
C528 C530 1.381 . S
C528 C534 1.383 . S
C529 C525 1.495 . S
C529 H535 0.959 . S
C529 H536 0.961 . S
C529 H537 0.960 . S
C530 C528 1.381 . S
C530 C531 1.394 . S
C530 H538 0.930 . S
C531 C530 1.394 . S
C531 C532 1.383 . S
C531 H539 0.929 . S
C532 C531 1.383 . S
C532 C533 1.377 . S
C533 H517 0.930 . S
C533 C532 1.377 . S
C533 C534 1.379 . S
C534 H518 0.931 . S
C534 C528 1.383 . S
C534 C533 1.379 . S
H535 C529 0.959 . S
H536 C529 0.961 . S
H537 C529 0.960 . S
H538 C530 0.930 . S
H539 C531 0.929 . S
H540 C548 0.929 . S
H541 C550 0.930 . S
H542 C552 0.930 . S
H543 C555 0.929 . S
H544 C558 0.930 . S
H545 C560 0.960 . S
H546 C560 0.960 . S
H547 C560 0.960 . S
C548 H540 0.929 . S
C548 C549 1.377 . S
C548 C550 1.384 . S
C549 C548 1.377 . S
C549 C555 1.390 . S
C550 H541 0.930 . S
C550 C548 1.384 . S
C550 C551 1.372 . S
C551 C550 1.372 . S
C551 C552 1.400 . S
C551 C556 1.490 . S
C552 H542 0.930 . S
C552 C551 1.400 . S
C552 C555 1.386 . S
H553 C569 0.930 . S
H554 C570 0.931 . S
C555 H543 0.929 . S
C555 C549 1.390 . S
C555 C552 1.386 . S
C556 C551 1.490 . S
C556 C558 1.395 . S
C556 C559 1.403 . S
H557 C563 0.930 . S
C558 H544 0.930 . S
C558 C556 1.395 . S
C558 C561 1.403 . S
C559 C556 1.403 . S
C559 C560 1.524 . S
C559 C563 1.400 . S
C560 H545 0.960 . S
C560 H546 0.960 . S
C560 H547 0.960 . S
C560 C559 1.524 . S
C561 C558 1.403 . S
C561 C562 1.392 . S
C561 C565 1.495 . S
C562 C561 1.392 . S
C562 C563 1.385 . S
C562 C564 1.478 . S
C563 H557 0.930 . S
C563 C559 1.400 . S
C563 C562 1.385 . S
C564 C562 1.478 . S
C564 C566 1.381 . S
C564 C570 1.383 . S
C565 C561 1.495 . S
C565 H571 0.959 . S
C565 H572 0.961 . S
C565 H573 0.960 . S
C566 C564 1.381 . S
C566 C567 1.394 . S
C566 H574 0.930 . S
C567 C566 1.394 . S
C567 C568 1.383 . S
C567 H575 0.929 . S
C568 C567 1.383 . S
C568 C569 1.377 . S
C569 H553 0.930 . S
C569 C568 1.377 . S
C569 C570 1.379 . S
C570 H554 0.931 . S
C570 C564 1.383 . S
C570 C569 1.379 . S
H571 C565 0.959 . S
H572 C565 0.961 . S
H573 C565 0.960 . S
H574 C566 0.930 . S
H575 C567 0.929 . S
H576 C584 0.929 . S
H577 C586 0.930 . S
H578 C588 0.930 . S
H579 C591 0.929 . S
H580 C594 0.930 1_554 S
H581 C596 0.960 . S
H582 C596 0.960 . S
H583 C596 0.960 . S
C584 H576 0.929 . S
C584 C585 1.377 . S
C584 C586 1.384 . S
C585 C584 1.377 . S
C585 C591 1.390 . S
C586 H577 0.930 . S
C586 C584 1.384 . S
C586 C587 1.372 . S
C587 C586 1.372 . S
C587 C588 1.400 . S
C587 C592 1.490 . S
C588 H578 0.930 . S
C588 C587 1.400 . S
C588 C591 1.386 . S
H589 C605 0.930 . S
H590 C606 0.931 . S
C591 H579 0.929 . S
C591 C585 1.390 . S
C591 C588 1.386 . S
C592 C587 1.490 . S
C592 C594 1.395 . S
C592 C595 1.403 . S
H593 C599 0.930 . S
C594 H580 0.930 1_556 S
C594 C592 1.395 . S
C594 C597 1.403 . S
C595 C592 1.403 . S
C595 C596 1.524 . S
C595 C599 1.400 . S
C596 H581 0.960 . S
C596 H582 0.960 . S
C596 H583 0.960 . S
C596 C595 1.524 . S
C597 C594 1.403 . S
C597 C598 1.392 . S
C597 C601 1.495 1_556 S
C598 C597 1.392 . S
C598 C599 1.385 . S
C598 C600 1.478 . S
C599 H593 0.930 . S
C599 C595 1.400 . S
C599 C598 1.385 . S
C600 C598 1.478 . S
C600 C602 1.381 . S
C600 C606 1.383 . S
C601 C597 1.495 1_554 S
C601 H607 0.959 . S
C601 H608 0.961 . S
C601 H609 0.960 . S
C602 C600 1.381 . S
C602 C603 1.394 . S
C602 H610 0.930 . S
C603 C602 1.394 . S
C603 C604 1.383 . S
C603 H611 0.929 . S
C604 C603 1.383 . S
C604 C605 1.377 . S
C605 H589 0.930 . S
C605 C604 1.377 . S
C605 C606 1.379 . S
C606 H590 0.931 . S
C606 C600 1.383 . S
C606 C605 1.379 . S
H607 C601 0.959 . S
H608 C601 0.961 . S
H609 C601 0.960 . S
H610 C602 0.930 . S
H611 C603 0.929 . S
H612 C620 0.929 . S
H613 C622 0.930 . S
H614 C624 0.930 . S
H615 C627 0.929 . S
H616 C630 0.930 . S
H617 C632 0.960 . S
H618 C632 0.960 . S
H619 C632 0.960 . S
C620 H612 0.929 . S
C620 C621 1.377 . S
C620 C622 1.384 . S
C621 C620 1.377 . S
C621 C627 1.390 1_556 S
C622 H613 0.930 . S
C622 C620 1.384 . S
C622 C623 1.372 . S
C623 C622 1.372 . S
C623 C624 1.400 . S
C623 C628 1.490 . S
C624 H614 0.930 . S
C624 C623 1.400 . S
C624 C627 1.386 1_556 S
H625 C641 0.930 . S
H626 C642 0.931 . S
C627 H615 0.929 . S
C627 C621 1.390 1_554 S
C627 C624 1.386 1_554 S
C628 C623 1.490 . S
C628 C630 1.395 . S
C628 C631 1.403 . S
H629 C635 0.930 . S
C630 H616 0.930 . S
C630 C628 1.395 . S
C630 C633 1.403 1_455 S
C631 C628 1.403 . S
C631 C632 1.524 . S
C631 C635 1.400 1_455 S
C632 H617 0.960 . S
C632 H618 0.960 . S
C632 H619 0.960 . S
C632 C631 1.524 . S
C633 C630 1.403 1_655 S
C633 C634 1.392 . S
C633 C637 1.495 . S
C634 C633 1.392 . S
C634 C635 1.385 . S
C634 C636 1.478 . S
C635 H629 0.930 . S
C635 C631 1.400 1_655 S
C635 C634 1.385 . S
C636 C634 1.478 . S
C636 C638 1.381 . S
C636 C642 1.383 . S
C637 C633 1.495 . S
C637 H643 0.959 . S
C637 H644 0.961 . S
C637 H645 0.960 . S
C638 C636 1.381 . S
C638 C639 1.394 . S
C638 H646 0.930 . S
C639 C638 1.394 . S
C639 C640 1.383 . S
C639 H647 0.929 . S
C640 C639 1.383 . S
C640 C641 1.377 . S
C641 H625 0.930 . S
C641 C640 1.377 . S
C641 C642 1.379 . S
C642 H626 0.931 . S
C642 C636 1.383 . S
C642 C641 1.379 . S
H643 C637 0.959 . S
H644 C637 0.961 . S
H645 C637 0.960 . S
H646 C638 0.930 . S
H647 C639 0.929 . S
H648 C656 0.929 . S
H649 C658 0.930 . S
H650 C660 0.930 . S
H651 C663 0.929 . S
H652 C666 0.930 . S
H653 C668 0.963 . S
H654 C668 0.961 . S
H655 C668 0.955 1_565 S
C656 H648 0.929 . S
C656 C657 1.377 . S
C656 C658 1.384 . S
C657 C656 1.377 . S
C657 C663 1.390 . S
C658 H649 0.930 . S
C658 C656 1.384 . S
C658 C659 1.372 . S
C659 C658 1.372 . S
C659 C660 1.400 . S
C659 C664 1.490 . S
C660 H650 0.930 . S
C660 C659 1.400 . S
C660 C663 1.386 . S
H661 C677 0.930 . S
H662 C678 0.931 . S
C663 H651 0.929 . S
C663 C657 1.390 . S
C663 C660 1.386 . S
C664 C659 1.490 . S
C664 C666 1.395 1_556 S
C664 C667 1.420 . S
H665 C671 0.930 1_556 S
C666 H652 0.930 . S
C666 C664 1.395 1_554 S
C666 C669 1.397 1_565 S
C667 C664 1.420 . S
C667 C668 1.541 1_565 S
C667 C671 1.366 1_566 S
C668 H653 0.963 . S
C668 H654 0.961 . S
C668 H655 0.955 1_545 S
C668 C667 1.541 1_545 S
C669 C666 1.397 1_545 S
C669 C670 1.395 . S
C669 C673 1.496 1_545 S
C670 C669 1.395 . S
C670 C671 1.386 . S
C670 C672 1.478 . S
C671 H665 0.930 1_554 S
C671 C667 1.366 1_544 S
C671 C670 1.386 . S
C672 C670 1.478 . S
C672 C674 1.381 . S
C672 C678 1.383 . S
C673 C669 1.496 1_565 S
C673 H679 0.956 . S
C673 H680 0.963 1_565 S
C673 H681 0.967 1_565 S
C674 C672 1.381 . S
C674 C675 1.394 . S
C674 H682 0.930 . S
C675 C674 1.394 . S
C675 C676 1.383 . S
C675 H683 0.929 . S
C676 C675 1.383 . S
C676 C677 1.377 . S
C677 H661 0.930 . S
C677 C676 1.377 . S
C677 C678 1.379 . S
C678 H662 0.931 . S
C678 C672 1.383 . S
C678 C677 1.379 . S
H679 C673 0.956 . S
H680 C673 0.963 1_545 S
H681 C673 0.967 1_545 S
H682 C674 0.930 . S
H683 C675 0.929 . S
H684 C692 0.929 . S
H685 C694 0.930 . S
H686 C696 0.930 . S
H687 C699 0.929 . S
H688 C702 0.930 . S
H689 C704 0.960 . S
H690 C704 0.960 . S
H691 C704 0.960 . S
C692 H684 0.929 . S
C692 C693 1.377 . S
C692 C694 1.384 . S
C693 C692 1.377 . S
C693 C699 1.390 . S
C694 H685 0.930 . S
C694 C692 1.384 . S
C694 C695 1.372 . S
C695 C694 1.372 . S
C695 C696 1.400 . S
C695 C700 1.490 . S
C696 H686 0.930 . S
C696 C695 1.400 . S
C696 C699 1.386 . S
H697 C713 0.930 . S
H698 C714 0.931 . S
C699 H687 0.929 . S
C699 C693 1.390 . S
C699 C696 1.386 . S
C700 C695 1.490 . S
C700 C702 1.395 . S
C700 C703 1.403 . S
H701 C707 0.930 . S
C702 H688 0.930 . S
C702 C700 1.395 . S
C702 C705 1.403 . S
C703 C700 1.403 . S
C703 C704 1.524 . S
C703 C707 1.400 . S
C704 H689 0.960 . S
C704 H690 0.960 . S
C704 H691 0.960 . S
C704 C703 1.524 . S
C705 C702 1.403 . S
C705 C706 1.392 . S
C705 C709 1.495 . S
C706 C705 1.392 . S
C706 C707 1.385 . S
C706 C708 1.478 . S
C707 H701 0.930 . S
C707 C703 1.400 . S
C707 C706 1.385 . S
C708 C706 1.478 . S
C708 C710 1.381 . S
C708 C714 1.383 . S
C709 C705 1.495 . S
C709 H715 0.959 . S
C709 H716 0.961 . S
C709 H717 0.960 . S
C710 C708 1.381 . S
C710 C711 1.394 1_554 S
C710 H718 0.930 . S
C711 C710 1.394 1_556 S
C711 C712 1.383 1_556 S
C711 H719 0.929 . S
C712 C711 1.383 1_554 S
C712 C713 1.377 . S
C713 H697 0.930 . S
C713 C712 1.377 . S
C713 C714 1.379 . S
C714 H698 0.931 . S
C714 C708 1.383 . S
C714 C713 1.379 . S
H715 C709 0.959 . S
H716 C709 0.961 . S
H717 C709 0.960 . S
H718 C710 0.930 . S
H719 C711 0.929 . S
H720 C728 0.929 . S
H721 C730 0.930 . S
H722 C732 0.930 . S
H723 C735 0.929 . S
H724 C738 0.922 . S
H725 C740 0.960 . S
H726 C740 0.960 . S
H727 C740 0.960 . S
C728 H720 0.929 . S
C728 C729 1.377 . S
C728 C730 1.384 . S
C729 C728 1.377 . S
C729 C735 1.390 . S
C730 H721 0.930 . S
C730 C728 1.384 . S
C730 C731 1.372 . S
C731 C730 1.372 . S
C731 C732 1.400 . S
C731 C736 1.490 . S
C732 H722 0.930 . S
C732 C731 1.400 . S
C732 C735 1.386 . S
H733 C749 0.930 . S
H734 C750 0.931 . S
C735 H723 0.929 . S
C735 C729 1.390 . S
C735 C732 1.386 . S
C736 C731 1.490 . S
C736 C738 1.435 . S
C736 C739 1.403 . S
H737 C743 0.930 . S
C738 H724 0.922 . S
C738 C736 1.435 . S
C738 C741 1.371 1_655 S
C739 C736 1.403 . S
C739 C740 1.524 . S
C739 C743 1.400 1_655 S
C740 H725 0.960 . S
C740 H726 0.960 . S
C740 H727 0.960 . S
C740 C739 1.524 . S
C741 C738 1.371 1_455 S
C741 C742 1.392 . S
C741 C745 1.495 . S
C742 C741 1.392 . S
C742 C743 1.385 . S
C742 C744 1.478 . S
C743 H737 0.930 . S
C743 C739 1.400 1_455 S
C743 C742 1.385 . S
C744 C742 1.478 . S
C744 C746 1.381 . S
C744 C750 1.383 . S
C745 C741 1.495 . S
C745 H751 0.959 . S
C745 H752 0.961 . S
C745 H753 0.960 . S
C746 C744 1.381 . S
C746 C747 1.394 . S
C746 H754 0.930 . S
C747 C746 1.394 . S
C747 C748 1.383 . S
C747 H755 0.929 . S
C748 C747 1.383 . S
C748 C749 1.377 . S
C749 H733 0.930 . S
C749 C748 1.377 . S
C749 C750 1.379 . S
C750 H734 0.931 . S
C750 C744 1.383 . S
C750 C749 1.379 . S
H751 C745 0.959 . S
H752 C745 0.961 . S
H753 C745 0.960 . S
H754 C746 0.930 . S
H755 C747 0.929 . S
H756 C764 0.929 . S
H757 C766 0.930 . S
H758 C768 0.930 . S
H759 C771 0.929 . S
H760 C774 0.930 . S
H761 C776 0.960 . S
H762 C776 0.960 . S
H763 C776 0.960 . S
C764 H756 0.929 . S
C764 C765 1.377 . S
C764 C766 1.384 . S
C765 C764 1.377 . S
C765 C771 1.390 . S
C766 H757 0.930 . S
C766 C764 1.384 . S
C766 C767 1.372 . S
C767 C766 1.372 . S
C767 C768 1.400 . S
C767 C772 1.490 . S
C768 H758 0.930 . S
C768 C767 1.400 . S
C768 C771 1.386 . S
H769 C785 0.930 . S
H770 C786 0.931 . S
C771 H759 0.929 . S
C771 C765 1.390 . S
C771 C768 1.386 . S
C772 C767 1.490 . S
C772 C774 1.395 1_545 S
C772 C775 1.403 . S
H773 C779 0.929 . S
C774 H760 0.930 . S
C774 C772 1.395 1_565 S
C774 C777 1.403 . S
C775 C772 1.403 . S
C775 C776 1.524 . S
C775 C779 1.349 1_545 S
C776 H761 0.960 . S
C776 H762 0.960 . S
C776 H763 0.960 . S
C776 C775 1.524 . S
C777 C774 1.403 . S
C777 C778 1.392 . S
C777 C781 1.495 . S
C778 C777 1.392 . S
C778 C779 1.440 . S
C778 C780 1.478 . S
C779 H773 0.929 . S
C779 C775 1.349 1_565 S
C779 C778 1.440 . S
C780 C778 1.478 . S
C780 C782 1.381 . S
C780 C786 1.383 . S
C781 C777 1.495 . S
C781 H787 0.959 . S
C781 H788 0.961 . S
C781 H789 0.960 . S
C782 C780 1.381 . S
C782 C783 1.394 . S
C782 H790 0.930 . S
C783 C782 1.394 . S
C783 C784 1.383 . S
C783 H791 0.929 . S
C784 C783 1.383 . S
C784 C785 1.377 . S
C785 H769 0.930 . S
C785 C784 1.377 . S
C785 C786 1.379 . S
C786 H770 0.931 . S
C786 C780 1.383 . S
C786 C785 1.379 . S
H787 C781 0.959 . S
H788 C781 0.961 . S
H789 C781 0.960 . S
H790 C782 0.930 . S
H791 C783 0.929 . S
H792 C800 0.929 . S
H793 C802 0.930 . S
H794 C804 0.930 . S
H795 C807 0.929 . S
H796 C810 0.930 . S
H797 C812 0.960 . S
H798 C812 0.960 . S
H799 C812 0.960 . S
C800 H792 0.929 . S
C800 C801 1.377 . S
C800 C802 1.384 . S
C801 C800 1.377 . S
C801 C807 1.390 . S
C802 H793 0.930 . S
C802 C800 1.384 . S
C802 C803 1.372 . S
C803 C802 1.372 . S
C803 C804 1.400 . S
C803 C808 1.490 . S
C804 H794 0.930 . S
C804 C803 1.400 . S
C804 C807 1.386 . S
H805 C821 0.930 . S
H806 C822 0.931 . S
C807 H795 0.929 . S
C807 C801 1.390 . S
C807 C804 1.386 . S
C808 C803 1.490 . S
C808 C810 1.395 . S
C808 C811 1.403 . S
H809 C815 0.930 . S
C810 H796 0.930 . S
C810 C808 1.395 . S
C810 C813 1.403 . S
C811 C808 1.403 . S
C811 C812 1.524 . S
C811 C815 1.400 . S
C812 H797 0.960 . S
C812 H798 0.960 . S
C812 H799 0.960 . S
C812 C811 1.524 . S
C813 C810 1.403 . S
C813 C814 1.392 . S
C813 C817 1.495 . S
C814 C813 1.392 . S
C814 C815 1.385 . S
C814 C816 1.478 . S
C815 H809 0.930 . S
C815 C811 1.400 . S
C815 C814 1.385 . S
C816 C814 1.478 . S
C816 C818 1.381 . S
C816 C822 1.383 . S
C817 C813 1.495 . S
C817 H823 0.959 . S
C817 H824 0.961 . S
C817 H825 0.960 . S
C818 C816 1.381 . S
C818 C819 1.394 . S
C818 H826 0.930 . S
C819 C818 1.394 . S
C819 C820 1.383 . S
C819 H827 0.929 . S
C820 C819 1.383 . S
C820 C821 1.377 . S
C821 H805 0.930 . S
C821 C820 1.377 . S
C821 C822 1.379 . S
C822 H806 0.931 . S
C822 C816 1.383 . S
C822 C821 1.379 . S
H823 C817 0.959 . S
H824 C817 0.961 . S
H825 C817 0.960 . S
H826 C818 0.930 . S
H827 C819 0.929 . S
H828 C836 0.929 . S
H829 C838 0.930 . S
H830 C840 0.930 . S
H831 C843 0.929 . S
H832 C846 0.930 . S
H833 C848 0.960 . S
H834 C848 0.960 . S
H835 C848 0.960 . S
C836 H828 0.929 . S
C836 C837 1.377 . S
C836 C838 1.384 . S
C837 C836 1.377 . S
C837 C843 1.390 . S
C838 H829 0.930 . S
C838 C836 1.384 . S
C838 C839 1.372 . S
C839 C838 1.372 . S
C839 C840 1.400 . S
C839 C844 1.490 . S
C840 H830 0.930 . S
C840 C839 1.400 . S
C840 C843 1.386 . S
H841 C857 0.930 . S
H842 C858 0.931 . S
C843 H831 0.929 . S
C843 C837 1.390 . S
C843 C840 1.386 . S
C844 C839 1.490 . S
C844 C846 1.395 . S
C844 C847 1.403 . S
H845 C851 0.930 . S
C846 H832 0.930 . S
C846 C844 1.395 . S
C846 C849 1.403 . S
C847 C844 1.403 . S
C847 C848 1.524 . S
C847 C851 1.400 . S
C848 H833 0.960 . S
C848 H834 0.960 . S
C848 H835 0.960 . S
C848 C847 1.524 . S
C849 C846 1.403 . S
C849 C850 1.392 . S
C849 C853 1.495 . S
C850 C849 1.392 . S
C850 C851 1.385 . S
C850 C852 1.478 . S
C851 H845 0.930 . S
C851 C847 1.400 . S
C851 C850 1.385 . S
C852 C850 1.478 . S
C852 C854 1.381 . S
C852 C858 1.383 . S
C853 C849 1.495 . S
C853 H859 0.959 . S
C853 H860 0.961 . S
C853 H861 0.960 . S
C854 C852 1.381 . S
C854 C855 1.394 . S
C854 H862 0.930 . S
C855 C854 1.394 . S
C855 C856 1.383 . S
C855 H863 0.929 . S
C856 C855 1.383 . S
C856 C857 1.377 . S
C857 H841 0.930 . S
C857 C856 1.377 . S
C857 C858 1.379 . S
C858 H842 0.931 . S
C858 C852 1.383 . S
C858 C857 1.379 . S
H859 C853 0.959 . S
H860 C853 0.961 . S
H861 C853 0.960 . S
H862 C854 0.930 . S
H863 C855 0.929 . S
H864 C872 0.929 . S
H865 C874 0.930 . S
H866 C876 0.930 . S
H867 C879 0.929 . S
H868 C882 0.930 . S
H869 C884 0.960 . S
H870 C884 0.960 . S
H871 C884 0.960 . S
C872 H864 0.929 . S
C872 C873 1.377 . S
C872 C874 1.384 . S
C873 C872 1.377 . S
C873 C879 1.390 . S
C874 H865 0.930 . S
C874 C872 1.384 . S
C874 C875 1.372 . S
C875 C874 1.372 . S
C875 C876 1.400 . S
C875 C880 1.490 . S
C876 H866 0.930 . S
C876 C875 1.400 . S
C876 C879 1.386 . S
H877 C893 0.930 . S
H878 C894 0.931 . S
C879 H867 0.929 . S
C879 C873 1.390 . S
C879 C876 1.386 . S
C880 C875 1.490 . S
C880 C882 1.395 . S
C880 C883 1.403 . S
H881 C887 0.930 . S
C882 H868 0.930 . S
C882 C880 1.395 . S
C882 C885 1.403 . S
C883 C880 1.403 . S
C883 C884 1.524 . S
C883 C887 1.400 . S
C884 H869 0.960 . S
C884 H870 0.960 . S
C884 H871 0.960 . S
C884 C883 1.524 . S
C885 C882 1.403 . S
C885 C886 1.392 . S
C885 C889 1.495 . S
C886 C885 1.392 . S
C886 C887 1.385 . S
C886 C888 1.478 . S
C887 H881 0.930 . S
C887 C883 1.400 . S
C887 C886 1.385 . S
C888 C886 1.478 . S
C888 C890 1.381 . S
C888 C894 1.383 . S
C889 C885 1.495 . S
C889 H895 0.959 . S
C889 H896 0.961 . S
C889 H897 0.960 . S
C890 C888 1.381 . S
C890 C891 1.394 . S
C890 H898 0.930 . S
C891 C890 1.394 . S
C891 C892 1.383 . S
C891 H899 0.929 . S
C892 C891 1.383 . S
C892 C893 1.377 . S
C893 H877 0.930 . S
C893 C892 1.377 . S
C893 C894 1.379 . S
C894 H878 0.931 . S
C894 C888 1.383 . S
C894 C893 1.379 . S
H895 C889 0.959 . S
H896 C889 0.961 . S
H897 C889 0.960 . S
H898 C890 0.930 . S
H899 C891 0.929 . S
H900 C908 0.929 . S
H901 C910 0.930 . S
H902 C912 0.930 . S
H903 C915 0.929 . S
H904 C918 0.930 . S
H905 C920 0.960 . S
H906 C920 0.960 . S
H907 C920 0.960 . S
C908 H900 0.929 . S
C908 C909 1.377 . S
C908 C910 1.384 . S
C909 C908 1.377 . S
C909 C915 1.390 . S
C910 H901 0.930 . S
C910 C908 1.384 . S
C910 C911 1.372 . S
C911 C910 1.372 . S
C911 C912 1.400 . S
C911 C916 1.490 . S
C912 H902 0.930 . S
C912 C911 1.400 . S
C912 C915 1.386 . S
H913 C929 0.930 . S
H914 C930 0.931 . S
C915 H903 0.929 . S
C915 C909 1.390 . S
C915 C912 1.386 . S
C916 C911 1.490 . S
C916 C918 1.395 . S
C916 C919 1.403 . S
H917 C923 0.930 . S
C918 H904 0.930 . S
C918 C916 1.395 . S
C918 C921 1.403 . S
C919 C916 1.403 . S
C919 C920 1.524 . S
C919 C923 1.400 . S
C920 H905 0.960 . S
C920 H906 0.960 . S
C920 H907 0.960 . S
C920 C919 1.524 . S
C921 C918 1.403 . S
C921 C922 1.392 . S
C921 C925 1.495 . S
C922 C921 1.392 . S
C922 C923 1.385 . S
C922 C924 1.478 . S
C923 H917 0.930 . S
C923 C919 1.400 . S
C923 C922 1.385 . S
C924 C922 1.478 . S
C924 C926 1.381 . S
C924 C930 1.383 . S
C925 C921 1.495 . S
C925 H931 0.959 . S
C925 H932 0.961 . S
C925 H933 0.960 . S
C926 C924 1.381 . S
C926 C927 1.394 . S
C926 H934 0.930 . S
C927 C926 1.394 . S
C927 C928 1.383 . S
C927 H935 0.929 . S
C928 C927 1.383 . S
C928 C929 1.377 . S
C929 H913 0.930 . S
C929 C928 1.377 . S
C929 C930 1.379 . S
C930 H914 0.931 . S
C930 C924 1.383 . S
C930 C929 1.379 . S
H931 C925 0.959 . S
H932 C925 0.961 . S
H933 C925 0.960 . S
H934 C926 0.930 . S
H935 C927 0.929 . S
H936 C944 0.929 . S
H937 C946 0.930 . S
H938 C948 0.930 . S
H939 C951 0.929 . S
H940 C954 0.930 . S
H941 C956 0.960 . S
H942 C956 0.960 . S
H943 C956 0.960 . S
C944 H936 0.929 . S
C944 C945 1.377 . S
C944 C946 1.384 . S
C945 C944 1.377 . S
C945 C951 1.390 . S
C946 H937 0.930 . S
C946 C944 1.384 . S
C946 C947 1.372 . S
C947 C946 1.372 . S
C947 C948 1.400 . S
C947 C952 1.490 . S
C948 H938 0.930 . S
C948 C947 1.400 . S
C948 C951 1.386 . S
H949 C965 0.930 . S
H950 C966 0.931 . S
C951 H939 0.929 . S
C951 C945 1.390 . S
C951 C948 1.386 . S
C952 C947 1.490 . S
C952 C954 1.395 . S
C952 C955 1.403 . S
H953 C959 0.930 . S
C954 H940 0.930 . S
C954 C952 1.395 . S
C954 C957 1.403 . S
C955 C952 1.403 . S
C955 C956 1.524 . S
C955 C959 1.400 . S
C956 H941 0.960 . S
C956 H942 0.960 . S
C956 H943 0.960 . S
C956 C955 1.524 . S
C957 C954 1.403 . S
C957 C958 1.392 . S
C957 C961 1.495 . S
C958 C957 1.392 . S
C958 C959 1.385 . S
C958 C960 1.478 . S
C959 H953 0.930 . S
C959 C955 1.400 . S
C959 C958 1.385 . S
C960 C958 1.478 . S
C960 C962 1.381 . S
C960 C966 1.383 . S
C961 C957 1.495 . S
C961 H967 0.959 . S
C961 H968 0.961 . S
C961 H969 0.960 . S
C962 C960 1.381 . S
C962 C963 1.394 . S
C962 H970 0.930 . S
C963 C962 1.394 . S
C963 C964 1.383 . S
C963 H971 0.929 . S
C964 C963 1.383 . S
C964 C965 1.377 . S
C965 H949 0.930 . S
C965 C964 1.377 . S
C965 C966 1.379 . S
C966 H950 0.931 . S
C966 C960 1.383 . S
C966 C965 1.379 . S
H967 C961 0.959 . S
H968 C961 0.961 . S
H969 C961 0.960 . S
H970 C962 0.930 . S
H971 C963 0.929 . S
H972 C980 0.929 . S
H973 C982 0.930 . S
H974 C984 0.930 . S
H975 C987 0.929 . S
H976 C990 0.930 . S
H977 C992 0.960 . S
H978 C992 0.960 . S
H979 C992 0.960 . S
C980 H972 0.929 . S
C980 C981 1.377 . S
C980 C982 1.384 . S
C981 C980 1.377 . S
C981 C987 1.390 . S
C982 H973 0.930 . S
C982 C980 1.384 . S
C982 C983 1.372 . S
C983 C982 1.372 . S
C983 C984 1.400 . S
C983 C988 1.490 . S
C984 H974 0.930 . S
C984 C983 1.400 . S
C984 C987 1.386 . S
H985 C1001 0.930 . S
H986 C1002 0.931 . S
C987 H975 0.929 . S
C987 C981 1.390 . S
C987 C984 1.386 . S
C988 C983 1.490 . S
C988 C990 1.395 . S
C988 C991 1.403 . S
H989 C995 0.930 . S
C990 H976 0.930 . S
C990 C988 1.395 . S
C990 C993 1.403 . S
C991 C988 1.403 . S
C991 C992 1.524 . S
C991 C995 1.400 . S
C992 H977 0.960 . S
C992 H978 0.960 . S
C992 H979 0.960 . S
C992 C991 1.524 . S
C993 C990 1.403 . S
C993 C994 1.392 . S
C993 C997 1.495 . S
C994 C993 1.392 . S
C994 C995 1.385 . S
C994 C996 1.478 . S
C995 H989 0.930 . S
C995 C991 1.400 . S
C995 C994 1.385 . S
C996 C994 1.478 . S
C996 C998 1.381 . S
C996 C1002 1.383 1_556 S
C997 C993 1.495 . S
C997 H1003 0.959 . S
C997 H1004 0.961 1_556 S
C997 H1005 0.960 . S
C998 C996 1.381 . S
C998 C999 1.394 1_556 S
C998 H1006 0.930 . S
C999 C998 1.394 1_554 S
C999 C1000 1.383 . S
C999 H1007 0.929 1_554 S
C1000 C999 1.383 . S
C1000 C1001 1.377 . S
C1001 H985 0.930 . S
C1001 C1000 1.377 . S
C1001 C1002 1.379 . S
C1002 H986 0.931 . S
C1002 C996 1.383 1_554 S
C1002 C1001 1.379 . S
H1003 C997 0.959 . S
H1004 C997 0.961 1_554 S
H1005 C997 0.960 . S
H1006 C998 0.930 . S
H1007 C999 0.929 1_556 S
H1008 C1016 0.929 . S
H1009 C1018 0.930 . S
H1010 C1020 0.930 . S
H1011 C1023 0.929 . S
H1012 C1026 0.930 . S
H1013 C1028 0.960 . S
H1014 C1028 0.960 . S
H1015 C1028 0.960 . S
C1016 H1008 0.929 . S
C1016 C1017 1.377 . S
C1016 C1018 1.384 . S
C1017 C1016 1.377 . S
C1017 C1023 1.390 . S
C1018 H1009 0.930 . S
C1018 C1016 1.384 . S
C1018 C1019 1.372 . S
C1019 C1018 1.372 . S
C1019 C1020 1.400 . S
C1019 C1024 1.490 . S
C1020 H1010 0.930 . S
C1020 C1019 1.400 . S
C1020 C1023 1.386 . S
H1021 C1037 0.930 . S
H1022 C1038 0.931 . S
C1023 H1011 0.929 . S
C1023 C1017 1.390 . S
C1023 C1020 1.386 . S
C1024 C1019 1.490 . S
C1024 C1026 1.395 . S
C1024 C1027 1.403 . S
H1025 C1031 0.930 . S
C1026 H1012 0.930 . S
C1026 C1024 1.395 . S
C1026 C1029 1.403 . S
C1027 C1024 1.403 . S
C1027 C1028 1.524 . S
C1027 C1031 1.400 . S
C1028 H1013 0.960 . S
C1028 H1014 0.960 . S
C1028 H1015 0.960 . S
C1028 C1027 1.524 . S
C1029 C1026 1.403 . S
C1029 C1030 1.392 . S
C1029 C1033 1.495 . S
C1030 C1029 1.392 . S
C1030 C1031 1.385 . S
C1030 C1032 1.478 . S
C1031 H1025 0.930 . S
C1031 C1027 1.400 . S
C1031 C1030 1.385 . S
C1032 C1030 1.478 . S
C1032 C1034 1.381 1_554 S
C1032 C1038 1.383 . S
C1033 C1029 1.495 . S
C1033 H1039 0.959 . S
C1033 H1040 0.961 . S
C1033 H1041 0.960 1_554 S
C1034 C1032 1.381 1_556 S
C1034 C1035 1.394 . S
C1034 H1042 0.930 . S
C1035 C1034 1.394 . S
C1035 C1036 1.383 . S
C1035 H1043 0.929 . S
C1036 C1035 1.383 . S
C1036 C1037 1.377 1_556 S
C1037 H1021 0.930 . S
C1037 C1036 1.377 1_554 S
C1037 C1038 1.379 . S
C1038 H1022 0.931 . S
C1038 C1032 1.383 . S
C1038 C1037 1.379 . S
H1039 C1033 0.959 . S
H1040 C1033 0.961 . S
H1041 C1033 0.960 1_556 S
H1042 C1034 0.930 . S
H1043 C1035 0.929 . S
H1044 C1052 0.929 . S
H1045 C1054 0.930 . S
H1046 C1056 0.930 . S
H1047 C1059 0.929 . S
H1048 C1062 0.930 . S
H1049 C1064 0.960 . S
H1050 C1064 0.960 . S
H1051 C1064 0.960 . S
C1052 H1044 0.929 . S
C1052 C1053 1.377 . S
C1052 C1054 1.384 . S
C1053 C1052 1.377 . S
C1053 C1059 1.390 . S
C1054 H1045 0.930 . S
C1054 C1052 1.384 . S
C1054 C1055 1.372 . S
C1055 C1054 1.372 . S
C1055 C1056 1.400 . S
C1055 C1060 1.490 . S
C1056 H1046 0.930 . S
C1056 C1055 1.400 . S
C1056 C1059 1.386 . S
H1057 C1073 0.930 . S
H1058 C1074 0.931 . S
C1059 H1047 0.929 . S
C1059 C1053 1.390 . S
C1059 C1056 1.386 . S
C1060 C1055 1.490 . S
C1060 C1062 1.395 . S
C1060 C1063 1.403 . S
H1061 C1067 0.930 . S
C1062 H1048 0.930 . S
C1062 C1060 1.395 . S
C1062 C1065 1.403 . S
C1063 C1060 1.403 . S
C1063 C1064 1.524 . S
C1063 C1067 1.400 . S
C1064 H1049 0.960 . S
C1064 H1050 0.960 . S
C1064 H1051 0.960 . S
C1064 C1063 1.524 . S
C1065 C1062 1.403 . S
C1065 C1066 1.392 . S
C1065 C1069 1.495 . S
C1066 C1065 1.392 . S
C1066 C1067 1.385 . S
C1066 C1068 1.478 . S
C1067 H1061 0.930 . S
C1067 C1063 1.400 . S
C1067 C1066 1.385 . S
C1068 C1066 1.478 . S
C1068 C1070 1.381 . S
C1068 C1074 1.383 . S
C1069 C1065 1.495 . S
C1069 H1075 0.959 . S
C1069 H1076 0.961 . S
C1069 H1077 0.960 . S
C1070 C1068 1.381 . S
C1070 C1071 1.394 . S
C1070 H1078 0.930 . S
C1071 C1070 1.394 . S
C1071 C1072 1.383 . S
C1071 H1079 0.929 . S
C1072 C1071 1.383 . S
C1072 C1073 1.377 . S
C1073 H1057 0.930 . S
C1073 C1072 1.377 . S
C1073 C1074 1.379 . S
C1074 H1058 0.931 . S
C1074 C1068 1.383 . S
C1074 C1073 1.379 . S
H1075 C1069 0.959 . S
H1076 C1069 0.961 . S
H1077 C1069 0.960 . S
H1078 C1070 0.930 . S
H1079 C1071 0.929 . S
H1080 C1088 0.929 . S
H1081 C1090 0.930 . S
H1082 C1092 0.930 . S
H1083 C1095 0.929 . S
H1084 C1098 0.930 . S
H1085 C1100 0.960 . S
H1086 C1100 0.960 . S
H1087 C1100 0.960 . S
C1088 H1080 0.929 . S
C1088 C1089 1.377 . S
C1088 C1090 1.384 . S
C1089 C1088 1.377 . S
C1089 C1095 1.390 . S
C1090 H1081 0.930 . S
C1090 C1088 1.384 . S
C1090 C1091 1.372 . S
C1091 C1090 1.372 . S
C1091 C1092 1.400 . S
C1091 C1096 1.490 . S
C1092 H1082 0.930 . S
C1092 C1091 1.400 . S
C1092 C1095 1.386 . S
H1093 C1109 0.930 . S
H1094 C1110 0.931 . S
C1095 H1083 0.929 . S
C1095 C1089 1.390 . S
C1095 C1092 1.386 . S
C1096 C1091 1.490 . S
C1096 C1098 1.395 . S
C1096 C1099 1.403 . S
H1097 C1103 0.930 . S
C1098 H1084 0.930 . S
C1098 C1096 1.395 . S
C1098 C1101 1.403 . S
C1099 C1096 1.403 . S
C1099 C1100 1.524 . S
C1099 C1103 1.400 . S
C1100 H1085 0.960 . S
C1100 H1086 0.960 . S
C1100 H1087 0.960 . S
C1100 C1099 1.524 . S
C1101 C1098 1.403 . S
C1101 C1102 1.392 . S
C1101 C1105 1.495 . S
C1102 C1101 1.392 . S
C1102 C1103 1.385 . S
C1102 C1104 1.478 . S
C1103 H1097 0.930 . S
C1103 C1099 1.400 . S
C1103 C1102 1.385 . S
C1104 C1102 1.478 . S
C1104 C1106 1.381 . S
C1104 C1110 1.383 . S
C1105 C1101 1.495 . S
C1105 H1111 0.959 . S
C1105 H1112 0.961 . S
C1105 H1113 0.960 . S
C1106 C1104 1.381 . S
C1106 C1107 1.394 . S
C1106 H1114 0.930 . S
C1107 C1106 1.394 . S
C1107 C1108 1.383 . S
C1107 H1115 0.929 . S
C1108 C1107 1.383 . S
C1108 C1109 1.377 . S
C1109 H1093 0.930 . S
C1109 C1108 1.377 . S
C1109 C1110 1.379 . S
C1110 H1094 0.931 . S
C1110 C1104 1.383 . S
C1110 C1109 1.379 . S
H1111 C1105 0.959 . S
H1112 C1105 0.961 . S
H1113 C1105 0.960 . S
H1114 C1106 0.930 . S
H1115 C1107 0.929 . S
H1116 C1124 0.929 . S
H1117 C1126 0.930 . S
H1118 C1128 0.930 . S
H1119 C1131 0.929 . S
H1120 C1134 0.930 . S
H1121 C1136 0.960 . S
H1122 C1136 0.960 . S
H1123 C1136 0.960 . S
C1124 H1116 0.929 . S
C1124 C1125 1.377 . S
C1124 C1126 1.384 . S
C1125 C1124 1.377 . S
C1125 C1131 1.390 . S
C1126 H1117 0.930 . S
C1126 C1124 1.384 . S
C1126 C1127 1.372 . S
C1127 C1126 1.372 . S
C1127 C1128 1.400 . S
C1127 C1132 1.490 . S
C1128 H1118 0.930 . S
C1128 C1127 1.400 . S
C1128 C1131 1.386 . S
H1129 C1145 0.930 . S
H1130 C1146 0.931 . S
C1131 H1119 0.929 . S
C1131 C1125 1.390 . S
C1131 C1128 1.386 . S
C1132 C1127 1.490 . S
C1132 C1134 1.395 . S
C1132 C1135 1.403 . S
H1133 C1139 0.930 . S
C1134 H1120 0.930 . S
C1134 C1132 1.395 . S
C1134 C1137 1.403 . S
C1135 C1132 1.403 . S
C1135 C1136 1.524 . S
C1135 C1139 1.400 . S
C1136 H1121 0.960 . S
C1136 H1122 0.960 . S
C1136 H1123 0.960 . S
C1136 C1135 1.524 . S
C1137 C1134 1.403 . S
C1137 C1138 1.392 . S
C1137 C1141 1.495 . S
C1138 C1137 1.392 . S
C1138 C1139 1.385 . S
C1138 C1140 1.478 1_556 S
C1139 H1133 0.930 . S
C1139 C1135 1.400 . S
C1139 C1138 1.385 . S
C1140 C1138 1.478 1_554 S
C1140 C1142 1.381 . S
C1140 C1146 1.383 . S
C1141 C1137 1.495 . S
C1141 H1147 0.959 . S
C1141 H1148 0.961 . S
C1141 H1149 0.960 . S
C1142 C1140 1.381 . S
C1142 C1143 1.394 . S
C1142 H1150 0.930 . S
C1143 C1142 1.394 . S
C1143 C1144 1.383 . S
C1143 H1151 0.929 . S
C1144 C1143 1.383 . S
C1144 C1145 1.377 . S
C1145 H1129 0.930 . S
C1145 C1144 1.377 . S
C1145 C1146 1.379 . S
C1146 H1130 0.931 . S
C1146 C1140 1.383 . S
C1146 C1145 1.379 . S
H1147 C1141 0.959 . S
H1148 C1141 0.961 . S
H1149 C1141 0.960 . S
H1150 C1142 0.930 . S
H1151 C1143 0.929 . S
H1152 C1160 0.929 . S
H1153 C1162 0.930 . S
H1154 C1164 0.930 . S
H1155 C1167 0.929 . S
H1156 C1170 0.930 . S
H1157 C1172 0.960 1_554 S
H1158 C1172 0.960 . S
H1159 C1172 0.960 . S
C1160 H1152 0.929 . S
C1160 C1161 1.377 . S
C1160 C1162 1.384 . S
C1161 C1160 1.377 . S
C1161 C1167 1.390 . S
C1162 H1153 0.930 . S
C1162 C1160 1.384 . S
C1162 C1163 1.372 . S
C1163 C1162 1.372 . S
C1163 C1164 1.400 . S
C1163 C1168 1.490 . S
C1164 H1154 0.930 . S
C1164 C1163 1.400 . S
C1164 C1167 1.386 . S
H1165 C1181 0.930 . S
H1166 C1182 0.931 . S
C1167 H1155 0.929 . S
C1167 C1161 1.390 . S
C1167 C1164 1.386 . S
C1168 C1163 1.490 . S
C1168 C1170 1.395 1_556 S
C1168 C1171 1.403 1_556 S
H1169 C1175 0.930 . S
C1170 H1156 0.930 . S
C1170 C1168 1.395 1_554 S
C1170 C1173 1.403 . S
C1171 C1168 1.403 1_554 S
C1171 C1172 1.524 1_554 S
C1171 C1175 1.400 . S
C1172 H1157 0.960 1_556 S
C1172 H1158 0.960 . S
C1172 H1159 0.960 . S
C1172 C1171 1.524 1_556 S
C1173 C1170 1.403 . S
C1173 C1174 1.392 . S
C1173 C1177 1.495 . S
C1174 C1173 1.392 . S
C1174 C1175 1.385 . S
C1174 C1176 1.478 . S
C1175 H1169 0.930 . S
C1175 C1171 1.400 . S
C1175 C1174 1.385 . S
C1176 C1174 1.478 . S
C1176 C1178 1.381 . S
C1176 C1182 1.383 . S
C1177 C1173 1.495 . S
C1177 H1183 0.959 . S
C1177 H1184 0.961 . S
C1177 H1185 0.960 . S
C1178 C1176 1.381 . S
C1178 C1179 1.394 . S
C1178 H1186 0.930 . S
C1179 C1178 1.394 . S
C1179 C1180 1.383 . S
C1179 H1187 0.929 . S
C1180 C1179 1.383 . S
C1180 C1181 1.377 . S
C1181 H1165 0.930 . S
C1181 C1180 1.377 . S
C1181 C1182 1.379 . S
C1182 H1166 0.931 . S
C1182 C1176 1.383 . S
C1182 C1181 1.379 . S
H1183 C1177 0.959 . S
H1184 C1177 0.961 . S
H1185 C1177 0.960 . S
H1186 C1178 0.930 . S
H1187 C1179 0.929 . S
H1188 C1196 0.929 . S
H1189 C1198 0.930 . S
H1190 C1200 0.930 . S
H1191 C1203 0.929 . S
H1192 C1206 0.930 . S
H1193 C1208 0.960 . S
H1194 C1208 0.960 . S
H1195 C1208 0.960 . S
C1196 H1188 0.929 . S
C1196 C1197 1.377 . S
C1196 C1198 1.384 . S
C1197 C1196 1.377 . S
C1197 C1203 1.390 . S
C1198 H1189 0.930 . S
C1198 C1196 1.384 . S
C1198 C1199 1.372 . S
C1199 C1198 1.372 . S
C1199 C1200 1.400 . S
C1199 C1204 1.490 . S
C1200 H1190 0.930 . S
C1200 C1199 1.400 . S
C1200 C1203 1.386 . S
H1201 C1217 0.930 . S
H1202 C1218 0.931 . S
C1203 H1191 0.929 . S
C1203 C1197 1.390 . S
C1203 C1200 1.386 . S
C1204 C1199 1.490 . S
C1204 C1206 1.395 . S
C1204 C1207 1.403 . S
H1205 C1211 0.930 . S
C1206 H1192 0.930 . S
C1206 C1204 1.395 . S
C1206 C1209 1.403 . S
C1207 C1204 1.403 . S
C1207 C1208 1.524 . S
C1207 C1211 1.400 . S
C1208 H1193 0.960 . S
C1208 H1194 0.960 . S
C1208 H1195 0.960 . S
C1208 C1207 1.524 . S
C1209 C1206 1.403 . S
C1209 C1210 1.392 . S
C1209 C1213 1.495 . S
C1210 C1209 1.392 . S
C1210 C1211 1.385 . S
C1210 C1212 1.478 . S
C1211 H1205 0.930 . S
C1211 C1207 1.400 . S
C1211 C1210 1.385 . S
C1212 C1210 1.478 . S
C1212 C1214 1.381 . S
C1212 C1218 1.383 . S
C1213 C1209 1.495 . S
C1213 H1219 0.959 . S
C1213 H1220 0.961 . S
C1213 H1221 0.960 . S
C1214 C1212 1.381 . S
C1214 C1215 1.394 1_554 S
C1214 H1222 0.930 . S
C1215 C1214 1.394 1_556 S
C1215 C1216 1.383 . S
C1215 H1223 0.929 . S
C1216 C1215 1.383 . S
C1216 C1217 1.377 . S
C1217 H1201 0.930 . S
C1217 C1216 1.377 . S
C1217 C1218 1.379 1_556 S
C1218 H1202 0.931 . S
C1218 C1212 1.383 . S
C1218 C1217 1.379 1_554 S
H1219 C1213 0.959 . S
H1220 C1213 0.961 . S
H1221 C1213 0.960 . S
H1222 C1214 0.930 . S
H1223 C1215 0.929 . S
H1224 C1232 0.929 . S
H1225 C1234 0.930 . S
H1226 C1236 0.930 . S
H1227 C1239 0.929 . S
H1228 C1242 0.930 . S
H1229 C1244 0.960 . S
H1230 C1244 0.960 . S
H1231 C1244 0.960 . S
C1232 H1224 0.929 . S
C1232 C1233 1.377 . S
C1232 C1234 1.384 . S
C1233 C1232 1.377 . S
C1233 C1239 1.390 . S
C1234 H1225 0.930 . S
C1234 C1232 1.384 . S
C1234 C1235 1.372 . S
C1235 C1234 1.372 . S
C1235 C1236 1.400 . S
C1235 C1240 1.490 . S
C1236 H1226 0.930 . S
C1236 C1235 1.400 . S
C1236 C1239 1.386 . S
H1237 C1253 0.930 . S
H1238 C1254 0.931 . S
C1239 H1227 0.929 . S
C1239 C1233 1.390 . S
C1239 C1236 1.386 . S
C1240 C1235 1.490 . S
C1240 C1242 1.395 . S
C1240 C1243 1.403 . S
H1241 C1247 0.930 . S
C1242 H1228 0.930 . S
C1242 C1240 1.395 . S
C1242 C1245 1.403 . S
C1243 C1240 1.403 . S
C1243 C1244 1.524 . S
C1243 C1247 1.400 . S
C1244 H1229 0.960 . S
C1244 H1230 0.960 . S
C1244 H1231 0.960 . S
C1244 C1243 1.524 . S
C1245 C1242 1.403 . S
C1245 C1246 1.392 . S
C1245 C1249 1.495 . S
C1246 C1245 1.392 . S
C1246 C1247 1.385 . S
C1246 C1248 1.478 . S
C1247 H1241 0.930 . S
C1247 C1243 1.400 . S
C1247 C1246 1.385 . S
C1248 C1246 1.478 . S
C1248 C1250 1.381 . S
C1248 C1254 1.383 . S
C1249 C1245 1.495 . S
C1249 H1255 0.959 . S
C1249 H1256 0.961 . S
C1249 H1257 0.960 . S
C1250 C1248 1.381 . S
C1250 C1251 1.394 . S
C1250 H1258 0.930 . S
C1251 C1250 1.394 . S
C1251 C1252 1.383 . S
C1251 H1259 0.929 . S
C1252 C1251 1.383 . S
C1252 C1253 1.377 . S
C1253 H1237 0.930 . S
C1253 C1252 1.377 . S
C1253 C1254 1.379 . S
C1254 H1238 0.931 . S
C1254 C1248 1.383 . S
C1254 C1253 1.379 . S
H1255 C1249 0.959 . S
H1256 C1249 0.961 . S
H1257 C1249 0.960 . S
H1258 C1250 0.930 . S
H1259 C1251 0.929 . S
H1260 C1268 0.929 . S
H1261 C1270 0.930 . S
H1262 C1272 0.930 . S
H1263 C1275 0.929 . S
H1264 C1278 0.930 . S
H1265 C1280 0.960 . S
H1266 C1280 0.960 . S
H1267 C1280 0.960 . S
C1268 H1260 0.929 . S
C1268 C1269 1.377 . S
C1268 C1270 1.384 . S
C1269 C1268 1.377 . S
C1269 C1275 1.390 . S
C1270 H1261 0.930 . S
C1270 C1268 1.384 . S
C1270 C1271 1.372 . S
C1271 C1270 1.372 . S
C1271 C1272 1.400 . S
C1271 C1276 1.490 . S
C1272 H1262 0.930 . S
C1272 C1271 1.400 . S
C1272 C1275 1.386 . S
H1273 C1289 0.930 . S
H1274 C1290 0.931 . S
C1275 H1263 0.929 . S
C1275 C1269 1.390 . S
C1275 C1272 1.386 . S
C1276 C1271 1.490 . S
C1276 C1278 1.395 . S
C1276 C1279 1.403 . S
H1277 C1283 0.930 . S
C1278 H1264 0.930 . S
C1278 C1276 1.395 . S
C1278 C1281 1.403 . S
C1279 C1276 1.403 . S
C1279 C1280 1.524 . S
C1279 C1283 1.400 . S
C1280 H1265 0.960 . S
C1280 H1266 0.960 . S
C1280 H1267 0.960 . S
C1280 C1279 1.524 . S
C1281 C1278 1.403 . S
C1281 C1282 1.392 . S
C1281 C1285 1.495 . S
C1282 C1281 1.392 . S
C1282 C1283 1.385 . S
C1282 C1284 1.478 . S
C1283 H1277 0.930 . S
C1283 C1279 1.400 . S
C1283 C1282 1.385 . S
C1284 C1282 1.478 . S
C1284 C1286 1.381 . S
C1284 C1290 1.383 . S
C1285 C1281 1.495 . S
C1285 H1291 0.959 . S
C1285 H1292 0.961 . S
C1285 H1293 0.960 . S
C1286 C1284 1.381 . S
C1286 C1287 1.394 . S
C1286 H1294 0.930 . S
C1287 C1286 1.394 . S
C1287 C1288 1.383 . S
C1287 H1295 0.929 . S
C1288 C1287 1.383 . S
C1288 C1289 1.377 . S
C1289 H1273 0.930 . S
C1289 C1288 1.377 . S
C1289 C1290 1.379 . S
C1290 H1274 0.931 . S
C1290 C1284 1.383 . S
C1290 C1289 1.379 . S
H1291 C1285 0.959 . S
H1292 C1285 0.961 . S
H1293 C1285 0.960 . S
H1294 C1286 0.930 . S
H1295 C1287 0.929 . S
H1296 C1304 0.929 . S
H1297 C1306 0.930 . S
H1298 C1308 0.930 . S
H1299 C1311 0.929 . S
H1300 C1314 0.930 . S
H1301 C1316 0.960 . S
H1302 C1316 0.960 . S
H1303 C1316 0.960 . S
C1304 H1296 0.929 . S
C1304 C1305 1.377 . S
C1304 C1306 1.384 . S
C1305 C1304 1.377 . S
C1305 C1311 1.390 . S
C1306 H1297 0.930 . S
C1306 C1304 1.384 . S
C1306 C1307 1.372 . S
C1307 C1306 1.372 . S
C1307 C1308 1.400 . S
C1307 C1312 1.490 . S
C1308 H1298 0.930 . S
C1308 C1307 1.400 . S
C1308 C1311 1.386 . S
H1309 C1325 0.930 . S
H1310 C1326 0.931 . S
C1311 H1299 0.929 . S
C1311 C1305 1.390 . S
C1311 C1308 1.386 . S
C1312 C1307 1.490 . S
C1312 C1314 1.395 . S
C1312 C1315 1.403 . S
H1313 C1319 0.930 . S
C1314 H1300 0.930 . S
C1314 C1312 1.395 . S
C1314 C1317 1.403 . S
C1315 C1312 1.403 . S
C1315 C1316 1.524 . S
C1315 C1319 1.400 . S
C1316 H1301 0.960 . S
C1316 H1302 0.960 . S
C1316 H1303 0.960 . S
C1316 C1315 1.524 . S
C1317 C1314 1.403 . S
C1317 C1318 1.392 . S
C1317 C1321 1.495 . S
C1318 C1317 1.392 . S
C1318 C1319 1.385 . S
C1318 C1320 1.478 . S
C1319 H1313 0.930 . S
C1319 C1315 1.400 . S
C1319 C1318 1.385 . S
C1320 C1318 1.478 . S
C1320 C1322 1.381 . S
C1320 C1326 1.383 . S
C1321 C1317 1.495 . S
C1321 H1327 0.959 . S
C1321 H1328 0.961 . S
C1321 H1329 0.960 . S
C1322 C1320 1.381 . S
C1322 C1323 1.394 . S
C1322 H1330 0.930 . S
C1323 C1322 1.394 . S
C1323 C1324 1.383 . S
C1323 H1331 0.929 . S
C1324 C1323 1.383 . S
C1324 C1325 1.377 . S
C1325 H1309 0.930 . S
C1325 C1324 1.377 . S
C1325 C1326 1.379 . S
C1326 H1310 0.931 . S
C1326 C1320 1.383 . S
C1326 C1325 1.379 . S
H1327 C1321 0.959 . S
H1328 C1321 0.961 . S
H1329 C1321 0.960 . S
H1330 C1322 0.930 . S
H1331 C1323 0.929 . S
H1332 C1340 0.929 . S
H1333 C1342 0.930 . S
H1334 C1344 0.930 . S
H1335 C1347 0.929 . S
H1336 C1350 0.930 . S
H1337 C1352 0.960 . S
H1338 C1352 0.960 . S
H1339 C1352 0.960 . S
C1340 H1332 0.929 . S
C1340 C1341 1.377 . S
C1340 C1342 1.384 . S
C1341 C1340 1.377 . S
C1341 C1347 1.390 . S
C1342 H1333 0.930 . S
C1342 C1340 1.384 . S
C1342 C1343 1.372 . S
C1343 C1342 1.372 . S
C1343 C1344 1.400 . S
C1343 C1348 1.490 . S
C1344 H1334 0.930 . S
C1344 C1343 1.400 . S
C1344 C1347 1.386 . S
H1345 C1361 0.930 . S
H1346 C1362 0.931 . S
C1347 H1335 0.929 . S
C1347 C1341 1.390 . S
C1347 C1344 1.386 . S
C1348 C1343 1.490 . S
C1348 C1350 1.395 . S
C1348 C1351 1.403 . S
H1349 C1355 0.930 . S
C1350 H1336 0.930 . S
C1350 C1348 1.395 . S
C1350 C1353 1.403 . S
C1351 C1348 1.403 . S
C1351 C1352 1.524 . S
C1351 C1355 1.400 . S
C1352 H1337 0.960 . S
C1352 H1338 0.960 . S
C1352 H1339 0.960 . S
C1352 C1351 1.524 . S
C1353 C1350 1.403 . S
C1353 C1354 1.392 . S
C1353 C1357 1.495 . S
C1354 C1353 1.392 . S
C1354 C1355 1.385 . S
C1354 C1356 1.478 . S
C1355 H1349 0.930 . S
C1355 C1351 1.400 . S
C1355 C1354 1.385 . S
C1356 C1354 1.478 . S
C1356 C1358 1.381 . S
C1356 C1362 1.383 . S
C1357 C1353 1.495 . S
C1357 H1363 0.959 . S
C1357 H1364 0.961 . S
C1357 H1365 0.960 . S
C1358 C1356 1.381 . S
C1358 C1359 1.394 . S
C1358 H1366 0.930 . S
C1359 C1358 1.394 . S
C1359 C1360 1.383 . S
C1359 H1367 0.929 . S
C1360 C1359 1.383 . S
C1360 C1361 1.377 . S
C1361 H1345 0.930 . S
C1361 C1360 1.377 . S
C1361 C1362 1.379 . S
C1362 H1346 0.931 . S
C1362 C1356 1.383 . S
C1362 C1361 1.379 . S
H1363 C1357 0.959 . S
H1364 C1357 0.961 . S
H1365 C1357 0.960 . S
H1366 C1358 0.930 . S
H1367 C1359 0.929 . S
H1368 C1376 0.929 . S
H1369 C1378 0.930 . S
H1370 C1380 0.930 . S
H1371 C1383 0.929 . S
H1372 C1386 0.930 . S
H1373 C1388 0.960 . S
H1374 C1388 0.960 . S
H1375 C1388 0.960 . S
C1376 H1368 0.929 . S
C1376 C1377 1.377 . S
C1376 C1378 1.384 . S
C1377 C1376 1.377 . S
C1377 C1383 1.390 . S
C1378 H1369 0.930 . S
C1378 C1376 1.384 . S
C1378 C1379 1.372 . S
C1379 C1378 1.372 . S
C1379 C1380 1.400 . S
C1379 C1384 1.490 . S
C1380 H1370 0.930 . S
C1380 C1379 1.400 . S
C1380 C1383 1.386 . S
H1381 C1397 0.930 . S
H1382 C1398 0.931 . S
C1383 H1371 0.929 . S
C1383 C1377 1.390 . S
C1383 C1380 1.386 . S
C1384 C1379 1.490 . S
C1384 C1386 1.395 . S
C1384 C1387 1.403 . S
H1385 C1391 0.930 . S
C1386 H1372 0.930 . S
C1386 C1384 1.395 . S
C1386 C1389 1.403 . S
C1387 C1384 1.403 . S
C1387 C1388 1.524 . S
C1387 C1391 1.400 . S
C1388 H1373 0.960 . S
C1388 H1374 0.960 . S
C1388 H1375 0.960 . S
C1388 C1387 1.524 . S
C1389 C1386 1.403 . S
C1389 C1390 1.392 . S
C1389 C1393 1.495 . S
C1390 C1389 1.392 . S
C1390 C1391 1.385 . S
C1390 C1392 1.478 . S
C1391 H1385 0.930 . S
C1391 C1387 1.400 . S
C1391 C1390 1.385 . S
C1392 C1390 1.478 . S
C1392 C1394 1.381 . S
C1392 C1398 1.383 . S
C1393 C1389 1.495 . S
C1393 H1399 0.959 . S
C1393 H1400 0.961 . S
C1393 H1401 0.960 . S
C1394 C1392 1.381 . S
C1394 C1395 1.394 1_556 S
C1394 H1402 0.930 . S
C1395 C1394 1.394 1_554 S
C1395 C1396 1.383 . S
C1395 H1403 0.929 . S
C1396 C1395 1.383 . S
C1396 C1397 1.377 . S
C1397 H1381 0.930 . S
C1397 C1396 1.377 . S
C1397 C1398 1.379 1_554 S
C1398 H1382 0.931 . S
C1398 C1392 1.383 . S
C1398 C1397 1.379 1_556 S
H1399 C1393 0.959 . S
H1400 C1393 0.961 . S
H1401 C1393 0.960 . S
H1402 C1394 0.930 . S
H1403 C1395 0.929 . S
H1404 C1412 0.929 . S
H1405 C1414 0.930 . S
H1406 C1416 0.930 . S
H1407 C1419 0.929 . S
H1408 C1422 0.930 . S
H1409 C1424 0.960 . S
H1410 C1424 0.960 . S
H1411 C1424 0.960 . S
C1412 H1404 0.929 . S
C1412 C1413 1.377 . S
C1412 C1414 1.384 . S
C1413 C1412 1.377 . S
C1413 C1419 1.390 . S
C1414 H1405 0.930 . S
C1414 C1412 1.384 . S
C1414 C1415 1.372 . S
C1415 C1414 1.372 . S
C1415 C1416 1.400 . S
C1415 C1420 1.490 . S
C1416 H1406 0.930 . S
C1416 C1415 1.400 . S
C1416 C1419 1.386 . S
H1417 C1433 0.930 . S
H1418 C1434 0.931 . S
C1419 H1407 0.929 . S
C1419 C1413 1.390 . S
C1419 C1416 1.386 . S
C1420 C1415 1.490 . S
C1420 C1422 1.395 . S
C1420 C1423 1.403 . S
H1421 C1427 0.930 1_554 S
C1422 H1408 0.930 . S
C1422 C1420 1.395 . S
C1422 C1425 1.403 . S
C1423 C1420 1.403 . S
C1423 C1424 1.524 . S
C1423 C1427 1.400 . S
C1424 H1409 0.960 . S
C1424 H1410 0.960 . S
C1424 H1411 0.960 . S
C1424 C1423 1.524 . S
C1425 C1422 1.403 . S
C1425 C1426 1.392 1_556 S
C1425 C1429 1.495 . S
C1426 C1425 1.392 1_554 S
C1426 C1427 1.385 1_554 S
C1426 C1428 1.478 . S
C1427 H1421 0.930 1_556 S
C1427 C1423 1.400 . S
C1427 C1426 1.385 1_556 S
C1428 C1426 1.478 . S
C1428 C1430 1.381 . S
C1428 C1434 1.383 . S
C1429 C1425 1.495 . S
C1429 H1435 0.959 . S
C1429 H1436 0.961 1_556 S
C1429 H1437 0.960 1_556 S
C1430 C1428 1.381 . S
C1430 C1431 1.394 . S
C1430 H1438 0.930 . S
C1431 C1430 1.394 . S
C1431 C1432 1.383 . S
C1431 H1439 0.929 . S
C1432 C1431 1.383 . S
C1432 C1433 1.377 . S
C1433 H1417 0.930 . S
C1433 C1432 1.377 . S
C1433 C1434 1.379 . S
C1434 H1418 0.931 . S
C1434 C1428 1.383 . S
C1434 C1433 1.379 . S
H1435 C1429 0.959 . S
H1436 C1429 0.961 1_554 S
H1437 C1429 0.960 1_554 S
H1438 C1430 0.930 . S
H1439 C1431 0.929 . S
H1440 C1448 0.929 . S
H1441 C1450 0.930 . S
H1442 C1452 0.930 . S
H1443 C1455 0.929 . S
H1444 C1458 0.930 . S
H1445 C1460 0.960 . S
H1446 C1460 0.960 . S
H1447 C1460 0.960 . S
C1448 H1440 0.929 . S
C1448 C1449 1.377 . S
C1448 C1450 1.384 . S
C1449 C1448 1.377 . S
C1449 C1455 1.390 . S
C1450 H1441 0.930 . S
C1450 C1448 1.384 . S
C1450 C1451 1.372 . S
C1451 C1450 1.372 . S
C1451 C1452 1.400 . S
C1451 C1456 1.490 . S
C1452 H1442 0.930 . S
C1452 C1451 1.400 . S
C1452 C1455 1.386 . S
H1453 C1469 0.930 . S
H1454 C1470 0.931 . S
C1455 H1443 0.929 . S
C1455 C1449 1.390 . S
C1455 C1452 1.386 . S
C1456 C1451 1.490 . S
C1456 C1458 1.395 . S
C1456 C1459 1.403 . S
H1457 C1463 0.930 . S
C1458 H1444 0.930 . S
C1458 C1456 1.395 . S
C1458 C1461 1.403 . S
C1459 C1456 1.403 . S
C1459 C1460 1.524 . S
C1459 C1463 1.400 . S
C1460 H1445 0.960 . S
C1460 H1446 0.960 . S
C1460 H1447 0.960 . S
C1460 C1459 1.524 . S
C1461 C1458 1.403 . S
C1461 C1462 1.392 . S
C1461 C1465 1.495 . S
C1462 C1461 1.392 . S
C1462 C1463 1.385 . S
C1462 C1464 1.478 1_554 S
C1463 H1457 0.930 . S
C1463 C1459 1.400 . S
C1463 C1462 1.385 . S
C1464 C1462 1.478 1_556 S
C1464 C1466 1.381 . S
C1464 C1470 1.383 . S
C1465 C1461 1.495 . S
C1465 H1471 0.959 . S
C1465 H1472 0.961 . S
C1465 H1473 0.960 . S
C1466 C1464 1.381 . S
C1466 C1467 1.394 . S
C1466 H1474 0.930 . S
C1467 C1466 1.394 . S
C1467 C1468 1.383 . S
C1467 H1475 0.929 . S
C1468 C1467 1.383 . S
C1468 C1469 1.377 . S
C1469 H1453 0.930 . S
C1469 C1468 1.377 . S
C1469 C1470 1.379 . S
C1470 H1454 0.931 . S
C1470 C1464 1.383 . S
C1470 C1469 1.379 . S
H1471 C1465 0.959 . S
H1472 C1465 0.961 . S
H1473 C1465 0.960 . S
H1474 C1466 0.930 . S
H1475 C1467 0.929 . S
C405 C281 1.653 . S
C424 C17 1.653 . S
C441 C314 1.652 . S
C460 C50 1.655 . S
C477 C347 1.653 . S
C496 C83 1.651 . S
C513 C380 1.654 . S
C532 C116 1.646 . S
C549 C149 1.653 . S
C568 C215 1.654 . S
C585 C248 1.654 . S
C604 C182 1.647 . S
C621 C8 0.980 1_556 S
C640 C371 1.006 . S
C657 C206 0.987 . S
C676 C41 0.976 . S
C693 C74 0.979 . S
C712 C239 1.006 1_554 S
C729 C107 0.993 . S
C748 C272 0.946 . S
C765 C305 0.990 . S
C784 C140 0.958 . S
C801 C173 0.989 . S
C820 C338 0.966 . S
C837 C28 1.227 . S
C856 C358 1.239 . S
C873 C61 1.224 . S
C892 C391 1.225 . S
C909 C226 1.224 . S
C928 C94 1.222 . S
C945 C259 1.230 . S
C964 C127 1.225 . S
C981 C160 1.230 . S
C1000 C292 1.223 . S
C1017 C325 1.224 . S
C1036 C193 1.232 . S
C1053 N5 0.908 . S
C1072 N14 0.919 . S
C1089 N47 0.908 1_556 S
C1108 N38 0.915 . S
C1125 N71 0.904 . S
C1144 N80 0.889 . S
C1161 N104 0.906 . S
C1180 N113 0.919 . S
C1197 N146 0.907 . S
C1216 N137 0.900 . S
C1233 N179 0.902 . S
C1252 N170 0.893 . S
C1269 N212 0.902 1_554 S
C1288 N203 0.894 . S
C1305 N245 0.904 . S
C1324 N236 0.892 . S
C1341 N278 0.901 . S
C1360 N269 0.897 . S
C1377 N311 0.901 . S
C1396 N302 0.898 . S
C1413 N344 0.906 . S
C1432 N335 0.896 . S
C1449 N368 0.908 . S
C1468 N377 0.915 . S
