# Generated by pormake.
# Topology zfu, (5)-cn, num edge types: 1
# Building blocks:
#     Node 0, Type 0, BuildingBlock: XOMCOT_clean_sbu_1, # of connection points: 5
#     Node 1, Type 0, BuildingBlock: XOMCOT_clean_sbu_1, # of connection points: 5
#     Node 2, Type 0, BuildingBlock: XOMCOT_clean_sbu_1, # of connection points: 5
#     Node 3, Type 0, BuildingBlock: XOMCOT_clean_sbu_1, # of connection points: 5
#     Node 4, Type 0, BuildingBlock: XOMCOT_clean_sbu_1, # of connection points: 5
#     Node 5, Type 0, BuildingBlock: XOMCOT_clean_sbu_1, # of connection points: 5
#     Node 6, Type 0, BuildingBlock: XOMCOT_clean_sbu_1, # of connection points: 5
#     Node 7, Type 0, BuildingBlock: XOMCOT_clean_sbu_1, # of connection points: 5
#     Edge 8, Type (0, 0), BuildingBlock: EZIPEK_clean_linker_0, # of connection points: 2
#     Edge 9, Type (0, 0), BuildingBlock: EZIPEK_clean_linker_0, # of connection points: 2
#     Edge 10, Type (0, 0), BuildingBlock: EZIPEK_clean_linker_0, # of connection points: 2
#     Edge 11, Type (0, 0), BuildingBlock: EZIPEK_clean_linker_0, # of connection points: 2
#     Edge 12, Type (0, 0), BuildingBlock: EZIPEK_clean_linker_0, # of connection points: 2
#     Edge 13, Type (0, 0), BuildingBlock: EZIPEK_clean_linker_0, # of connection points: 2
#     Edge 14, Type (0, 0), BuildingBlock: EZIPEK_clean_linker_0, # of connection points: 2
#     Edge 15, Type (0, 0), BuildingBlock: EZIPEK_clean_linker_0, # of connection points: 2
#     Edge 16, Type (0, 0), BuildingBlock: EZIPEK_clean_linker_0, # of connection points: 2
#     Edge 17, Type (0, 0), BuildingBlock: EZIPEK_clean_linker_0, # of connection points: 2
#     Edge 18, Type (0, 0), BuildingBlock: EZIPEK_clean_linker_0, # of connection points: 2
#     Edge 19, Type (0, 0), BuildingBlock: EZIPEK_clean_linker_0, # of connection points: 2
#     Edge 20, Type (0, 0), BuildingBlock: EZIPEK_clean_linker_0, # of connection points: 2
#     Edge 21, Type (0, 0), BuildingBlock: EZIPEK_clean_linker_0, # of connection points: 2
#     Edge 22, Type (0, 0), BuildingBlock: EZIPEK_clean_linker_0, # of connection points: 2
#     Edge 23, Type (0, 0), BuildingBlock: EZIPEK_clean_linker_0, # of connection points: 2
#     Edge 24, Type (0, 0), BuildingBlock: EZIPEK_clean_linker_0, # of connection points: 2
#     Edge 25, Type (0, 0), BuildingBlock: EZIPEK_clean_linker_0, # of connection points: 2
#     Edge 26, Type (0, 0), BuildingBlock: EZIPEK_clean_linker_0, # of connection points: 2
#     Edge 27, Type (0, 0), BuildingBlock: EZIPEK_clean_linker_0, # of connection points: 2
# Relax obj value: 0.136
# Max RMSD: 0.160
# Mean RMSD: 0.160
data_MOF--net-zfu--node1-XOMCOT_clean_sbu_1--edge1-EZIPEK_clean_linker_0
_symmetry_space_group_name_H-M    P1
_symmetry_Int_Tables_number       1
_symmetry_cell_setting            triclinic
loop_
_symmetry_equiv_pos_as_xyz
'x, y, z'
_cell_length_a     29.648147
_cell_length_b     29.996106
_cell_length_c     20.440309
_cell_angle_alpha  91.097157
_cell_angle_beta   89.752655
_cell_angle_gamma 90.295475
loop_
_atom_site_label
_atom_site_type_symbol
_atom_site_fract_x
_atom_site_fract_y
_atom_site_fract_z
_atom_type_partial_charge
C0 C 0.45256 0.70182 0.99125 0.0
C1 C 0.47973 0.66563 0.00099 0.0
N2 N 0.52267 0.68007 0.0038 0.0
N3 N 0.47824 0.73896 0.98772 0.0
C4 C 0.52106 0.72465 -0.00403 0.0
H5 H 0.41617 0.7013 0.98834 0.0
Co6 Co 0.4527 0.79526 0.97945 0.0
C7 C 0.52545 0.86077 0.00928 0.0
O8 O 0.49565 0.88211 0.04557 0.0
N9 N 0.42457 0.85255 0.96975 0.0
C10 C 0.38234 0.9135 0.98498 0.0
C11 C 0.40145 0.87746 0.01454 0.0
C12 C 0.41933 0.87527 0.91334 0.0
N13 N 0.39332 0.91185 0.92125 0.0
O14 O 0.45481 0.78705 0.88615 0.0
H15 H 0.39798 0.87034 0.06582 0.0
H16 H 0.43317 0.86482 0.86655 0.0
O17 O 0.51331 0.82403 0.98126 0.0
C18 C 0.41708 0.76989 0.8686 0.0
O19 O 0.38474 0.76659 0.91239 0.0
N20 N 0.44626 0.79708 0.07052 0.0
C21 C 0.42813 0.76005 0.19162 0.0
C22 C 0.47209 0.77345 0.17551 0.0
C23 C 0.4806 0.79186 0.11417 0.0
C24 C 0.40317 0.78555 0.08695 0.0
C25 C 0.3932 0.7678 0.14776 0.0
H26 H 0.51523 0.79715 0.09964 0.0
H27 H 0.37693 0.78675 0.05044 0.0
H28 H 0.5503 0.74626 -0.0021 0.0
H29 H 0.46888 0.63141 0.00676 0.0
H30 H 0.3608 0.93831 0.00802 0.0
H31 H 0.49989 0.76673 0.20802 0.0
H32 H 0.3591 0.7569 0.15838 0.0
C33 C 0.90319 0.94609 0.26172 0.0
C34 C 0.93906 0.97492 0.26939 0.0
N35 N 0.92761 1.01442 0.24449 0.0
N36 N 0.86887 0.96713 0.23206 0.0
C37 C 0.88514 1.00878 0.22161 0.0
H38 H 0.90278 0.91161 0.27596 0.0
Co39 Co 0.81266 0.94112 0.20713 0.0
C40 C 0.7459 1.01344 0.23691 0.0
O41 O 0.71525 0.98286 0.24881 0.0
N42 N 0.756 0.9143 0.1809 0.0
C43 C 0.69494 0.87014 0.17664 0.0
C44 C 0.73308 0.88111 0.21096 0.0
C45 C 0.73015 0.92267 0.12761 0.0
N46 N 0.69303 0.89604 0.12413 0.0
O47 O 0.82952 0.94738 0.1166 0.0
H48 H 0.7423 0.86519 0.25558 0.0
H49 H 0.738 0.94815 0.09252 0.0
O50 O 0.78485 1.00137 0.2159 0.0
C51 C 0.85591 0.91386 0.10843 0.0
O52 O 0.8631 0.88779 0.15792 0.0
N53 N 0.80168 0.92743 0.29443 0.0
C54 C 0.80758 0.88943 0.41633 0.0
C55 C 0.78941 0.93223 0.41041 0.0
C56 C 0.78741 0.95116 0.34835 0.0
C57 C 0.81759 0.8852 0.30054 0.0
C58 C 0.82046 0.86547 0.36058 0.0
H59 H 0.7763 0.98498 0.34512 0.0
H60 H 0.82846 0.86643 0.25802 0.0
H61 H 0.86641 0.03452 0.19736 0.0
H62 H 0.97119 0.96753 0.29159 0.0
H63 H 0.67026 0.84495 0.18923 0.0
H64 H 0.77988 0.95166 0.45343 0.0
H65 H 0.83483 0.83242 0.36373 0.0
C66 C 0.6186 0.34883 0.55771 0.0
C67 C 0.59017 0.38444 0.56751 0.0
N68 N 0.55176 0.3759 0.53504 0.0
N69 N 0.59796 0.3172 0.52018 0.0
C70 C 0.55755 0.33558 0.50567 0.0
H71 H 0.65235 0.34703 0.57668 0.0
Co72 Co 0.62129 0.26147 0.48954 0.0
C73 C 0.53067 0.23676 0.54832 0.0
O74 O 0.53713 0.26572 0.59629 0.0
N75 N 0.64515 0.20634 0.45714 0.0
C76 C 0.66598 0.13494 0.45073 0.0
C77 C 0.6469 0.16755 0.48972 0.0
C78 C 0.66436 0.19617 0.39817 0.0
N79 N 0.67666 0.15287 0.3931 0.0
O80 O 0.60462 0.27795 0.40252 0.0
H81 H 0.63581 0.16281 0.53931 0.0
H82 H 0.67002 0.21982 0.35985 0.0
O83 O 0.56121 0.23162 0.50392 0.0
C84 C 0.63655 0.30248 0.38087 0.0
O85 O 0.67272 0.3081 0.41711 0.0
N86 N 0.64338 0.24912 0.5743 0.0
C87 C 0.68091 0.26066 0.69786 0.0
C88 C 0.64224 0.23409 0.68928 0.0
C89 C 0.62402 0.22841 0.62652 0.0
C90 C 0.68502 0.26812 0.58079 0.0
C91 C 0.70399 0.27529 0.64243 0.0
H92 H 0.59402 0.20842 0.62108 0.0
H93 H 0.70133 0.28224 0.53848 0.0
H94 H 0.5327 0.31953 0.47452 0.0
H95 H 0.59677 0.41402 0.59719 0.0
H96 H 0.67205 0.10069 0.46383 0.0
H97 H 0.62461 0.22066 0.7311 0.0
H98 H 0.73461 0.29495 0.64707 0.0
C99 C 0.16203 0.09245 0.74209 0.0
C100 C 0.12775 0.0638 0.75806 0.0
N101 N 0.1389 1.02288 0.73617 0.0
N102 N 0.19516 0.06987 0.7101 0.0
C103 C 0.17978 0.02726 0.7073 0.0
H104 H 0.16307 0.12709 0.75639 0.0
Co105 Co 0.25 0.09014 0.67264 0.0
C106 C 0.31837 0.04579 0.75718 0.0
O107 O 0.33826 0.08437 0.76837 0.0
N108 N 0.30344 0.10738 0.62945 0.0
C109 C 0.34625 0.11029 0.53956 0.0
C110 C 0.30709 0.09392 0.56627 0.0
C111 C 0.34163 0.13163 0.64043 0.0
N112 N 0.36777 0.13409 0.58618 0.0
O113 O 0.21623 0.13393 0.62005 0.0
H114 H 0.28195 0.07403 0.54076 0.0
H115 H 0.34995 0.14813 0.68631 0.0
O116 O 0.28356 0.04383 0.72025 0.0
C117 C 0.19054 0.16802 0.62698 0.0
O118 O 0.18082 0.18463 0.68503 0.0
N119 N 0.25839 0.13251 0.74346 0.0
C120 C 0.25022 0.19485 0.84589 0.0
C121 C 0.24344 0.14945 0.85671 0.0
C122 C 0.24872 0.11886 0.80547 0.0
C123 C 0.26955 0.17619 0.73366 0.0
C124 C 0.26619 0.20799 0.78457 0.0
H125 H 0.24133 0.08435 0.81488 0.0
H126 H 0.27848 0.18718 0.68547 0.0
H127 H 0.19821 0.99996 0.68464 0.0
H128 H 0.09726 0.07211 0.78486 0.0
H129 H 0.35764 0.10602 0.48944 0.0
H130 H 0.2322 0.1378 0.90396 0.0
H131 H 0.27311 0.24276 0.77506 0.0
C132 C 0.94257 0.85355 0.76175 0.0
C133 C 0.96564 0.89299 0.7536 0.0
N134 N 1.00766 0.88778 0.77643 0.0
N135 N 0.97027 0.82315 0.78779 0.0
C136 C 1.00894 0.84604 0.79976 0.0
H137 H 0.90788 0.84714 0.74833 0.0
Co138 Co 0.95342 0.76398 0.80769 0.0
C139 C 0.05214 0.74925 0.75657 0.0
O140 O 0.05629 0.78689 0.72553 0.0
N141 N 0.93671 0.70468 0.82935 0.0
C142 C 0.93641 0.63036 0.82952 0.0
C143 C 0.95392 0.6675 0.80068 0.0
C144 C 0.90811 0.68881 0.87559 0.0
N145 N 0.90765 0.64369 0.87673 0.0
O146 O 0.96233 0.77915 0.89879 0.0
H147 H 0.97803 0.66692 0.76143 0.0
H148 H 0.88833 0.70955 0.90813 0.0
O149 O 1.01619 0.74032 0.78955 0.0
C150 C 0.92423 0.79899 0.90771 0.0
O151 O 0.89498 0.79691 0.85958 0.0
N152 N 0.93475 0.75401 0.7211 0.0
C153 C 0.88701 0.78556 0.61542 0.0
C154 C 0.93361 0.77873 0.61029 0.0
C155 C 0.95722 0.76481 0.66508 0.0
C156 C 0.88875 0.75253 0.72172 0.0
C157 C 0.86416 0.76969 0.67026 0.0
H158 H 0.99307 0.7678 0.66367 0.0
H159 H 0.87092 0.74437 0.76613 0.0
H160 H 0.03797 0.83221 0.82386 0.0
H161 H 0.95319 0.92261 0.73037 0.0
H162 H 0.94385 0.596 0.81652 0.0
H163 H 0.95217 0.79013 0.56794 0.0
H164 H 0.82805 0.7739 0.67565 0.0
C165 C 0.66547 0.47075 0.01579 0.0
C166 C 0.63456 0.5031 0.00198 0.0
N167 N 0.64576 0.54015 0.03604 0.0
N168 N 0.69637 0.48719 0.05868 0.0
C169 C 0.68325 0.52987 0.06978 0.0
H170 H 0.66538 0.43769 0.99417 0.0
Co171 Co 0.74816 0.46298 0.09823 0.0
C172 C 0.8243 0.50248 0.01993 0.0
O173 O 0.84695 0.46502 0.01918 0.0
N174 N 0.79925 0.44239 0.14264 0.0
C175 C 0.84494 0.44236 0.22907 0.0
C176 C 0.8078 0.46164 0.20152 0.0
C177 C 0.83215 0.41129 0.13517 0.0
N178 N 0.86013 0.41075 0.18732 0.0
O179 O 0.71038 0.42396 0.15284 0.0
H180 H 0.78766 0.488 0.22337 0.0
H181 H 0.83587 0.38947 0.09279 0.0
O182 O 0.78584 0.50493 0.04835 0.0
C183 C 0.67603 0.3981 0.14682 0.0
O184 O 0.65618 0.39245 0.09012 0.0
N185 N 0.75311 0.41765 0.03076 0.0
C186 C 0.74116 0.3541 0.93051 0.0
C187 C 0.74582 0.39924 0.91625 0.0
C188 C 0.75173 0.43038 0.96695 0.0
C189 C 0.75273 0.37317 0.04474 0.0
C190 C 0.74628 0.34077 0.99527 0.0
H191 H 0.75021 0.46523 0.95519 0.0
H192 H 0.75488 0.36247 0.0948 0.0
H193 H 0.70107 0.55307 0.10173 0.0
H194 H 0.60628 0.49994 0.96884 0.0
H195 H 0.85956 0.45058 0.27625 0.0
H196 H 0.74152 0.41069 0.86672 0.0
H197 H 0.74284 0.30601 0.00787 0.0
C198 C 0.11733 0.19402 0.21662 0.0
C199 C 0.09468 0.15398 0.21063 0.0
N200 N 0.05611 0.15705 0.24527 0.0
N201 N 0.09279 0.22276 0.25382 0.0
C202 C 0.05645 0.19844 0.27266 0.0
H203 H 0.14956 0.20187 0.19455 0.0
Co204 Co 0.11013 0.28217 0.27726 0.0
C205 C 1.01092 0.29543 0.23327 0.0
O206 O 1.00584 0.25647 0.20405 0.0
N207 N 0.1273 0.34142 0.30241 0.0
C208 C 0.13884 0.41498 0.29935 0.0
C209 C 0.12091 0.37843 0.26686 0.0
C210 C 0.14826 0.35685 0.35734 0.0
N211 N 0.15601 0.40128 0.35617 0.0
O212 O 0.09947 0.2687 0.36781 0.0
H213 H 0.10501 0.37882 0.21946 0.0
H214 H 0.15711 0.33642 0.39802 0.0
O215 O 0.048 0.30604 0.26221 0.0
C216 C 0.13354 0.24522 0.38441 0.0
O217 O 0.16329 0.23419 0.33914 0.0
N218 N 0.1282 0.29265 0.18992 0.0
C219 C 0.17363 0.28278 0.0709 0.0
C220 C 0.12739 0.27331 0.07549 0.0
C221 C 0.10509 0.27905 0.13537 0.0
C222 C 0.17258 0.30472 0.18489 0.0
C223 C 0.19547 0.30174 0.12525 0.0
H224 H 0.07085 0.26778 0.1387 0.0
H225 H 0.19155 0.31358 0.22833 0.0
H226 H 1.03 0.21121 0.30442 0.0
H227 H 0.10513 0.12513 0.18188 0.0
H228 H 0.13959 0.44897 0.28247 0.0
H229 H 0.10939 0.25862 0.03434 0.0
H230 H 0.23113 0.30967 0.12329 0.0
C231 C 0.38012 0.54459 0.66027 0.0
C232 C 0.41367 0.51371 0.65188 0.0
N233 N 0.41108 0.49694 0.59053 0.0
N234 N 0.35667 0.5479 0.60419 0.0
C235 C 0.37585 0.5177 0.56261 0.0
H236 H 0.37324 0.56352 0.70472 0.0
Co237 Co 0.30875 0.58749 0.596 0.0
C238 C 0.23561 0.53646 0.52147 0.0
O239 O 0.20668 0.56915 0.52844 0.0
N240 N 0.25953 0.6271 0.59501 0.0
C241 C 0.21233 0.68456 0.58939 0.0
C242 C 0.24933 0.66422 0.56142 0.0
C243 C 0.22854 0.62645 0.64401 0.0
N244 N 0.1996 0.66094 0.64148 0.0
O245 O 0.34137 0.63278 0.64979 0.0
H246 H 0.26858 0.67786 0.52161 0.0
H247 H 0.22798 0.60168 0.68182 0.0
O248 O 0.27543 0.54044 0.54527 0.0
C249 C 0.35191 0.67378 0.64146 0.0
O250 O 0.34259 0.69324 0.58621 0.0
N251 N 0.33482 0.60963 0.51642 0.0
C252 C 0.37236 0.65104 0.40772 0.0
C253 C 0.32763 0.63612 0.40656 0.0
C254 C 0.30968 0.61482 0.46114 0.0
C255 C 0.37988 0.61994 0.5149 0.0
C256 C 0.39913 0.64141 0.46155 0.0
H257 H 0.27463 0.60522 0.46016 0.0
H258 H 0.40093 0.61361 0.55645 0.0
H259 H 0.3646 0.51136 0.51298 0.0
H260 H 0.43796 0.50384 0.68822 0.0
H261 H 0.19675 0.71517 0.574 0.0
H262 H 0.3063 0.6424 0.36487 0.0
H263 H 0.43421 0.65164 0.46317 0.0
C264 C 0.62306 0.60606 0.97453 0.0
C265 C 0.62234 0.58206 0.03352 0.0
C266 C 0.56593 0.63361 0.0787 0.0
C267 C 0.56122 0.6525 0.01622 0.0
N268 N 0.58374 0.65677 0.9035 0.0
N269 N 0.59228 0.57104 0.14145 0.0
C270 C 0.58996 0.63931 0.96397 0.0
C271 C 0.59409 0.59578 0.08612 0.0
N272 N 0.65556 0.59664 0.92889 0.0
N273 N 0.54321 0.65215 0.13057 0.0
H274 H 0.61248 0.54315 0.14803 0.0
H275 H 0.56894 0.5764 0.17894 0.0
H276 H 0.52327 0.68046 0.12566 0.0
H277 H 0.54734 0.64232 0.17873 0.0
H278 H 0.66054 0.61509 0.88682 0.0
H279 H 0.68018 0.57253 0.93634 0.0
H280 H 0.60019 0.64519 0.86146 0.0
H281 H 0.55994 0.6814 0.89473 0.0
C282 C 1.0077 0.10358 0.3053 0.0
C283 C 1.02007 0.12434 0.2462 0.0
C284 C 0.96982 0.07331 0.18519 0.0
C285 C 0.95554 0.05417 0.24477 0.0
N286 N 0.95211 0.05889 0.36223 0.0
N287 N 1.00426 0.13697 0.13279 0.0
C288 C 0.9718 0.07185 0.30514 0.0
C289 C 0.99836 0.11164 0.18696 0.0
N290 N 1.03179 0.11248 0.36079 0.0
N291 N 0.95818 0.05356 0.12693 0.0
H292 H 1.02373 0.16603 0.13339 0.0
H293 H 0.98621 0.13178 0.08966 0.0
H294 H 0.9383 1.02491 0.12374 0.0
H295 H 0.97152 0.06333 0.08216 0.0
H296 H 1.02713 0.09532 0.40417 0.0
H297 H 0.05933 0.1342 0.3615 0.0
H298 H 0.95984 0.0733 0.40762 0.0
H299 H 0.92468 0.03698 0.36315 0.0
C300 C 0.50585 0.43947 0.49917 0.0
C301 C 0.5112 0.40214 0.53971 0.0
C302 C 0.44085 0.42104 0.59642 0.0
C303 C 0.43984 0.46229 0.56419 0.0
N304 N 0.47286 0.51279 0.48715 0.0
N305 N 0.48751 0.36089 0.63366 0.0
C306 C 0.47231 0.47185 0.51518 0.0
C307 C 0.47933 0.39348 0.58971 0.0
N308 N 0.53331 0.44396 0.44602 0.0
N309 N 0.40496 0.40875 0.63412 0.0
H310 H 0.51674 0.34186 0.63203 0.0
H311 H 0.46759 0.35568 0.67494 0.0
H312 H 0.3762 0.42853 0.63884 0.0
H313 H 0.4019 0.37738 0.65476 0.0
H314 H 0.5291 0.4684 0.4111 0.0
H315 H 0.55795 0.42047 0.43418 0.0
H316 H 0.49849 0.52355 0.45616 0.0
H317 H 0.44907 0.53725 0.49828 0.0
C318 C 0.06037 0.92607 0.70199 0.0
C319 C 0.04526 0.91763 0.7665 0.0
C320 C 0.10232 0.96945 0.80963 0.0
C321 C 0.11206 0.98324 0.74518 0.0
N322 N 0.09723 0.9781 0.62962 0.0
N323 N 0.04846 0.93393 0.88175 0.0
C324 C 0.09065 0.9621 0.69102 0.0
C325 C 0.06572 0.93968 0.82054 0.0
N326 N 0.04622 0.89905 0.65154 0.0
N327 N 0.12844 0.98487 0.8601 0.0
H328 H 1.0207 0.91342 0.89016 0.0
H329 H 0.05906 0.95221 0.92278 0.0
H330 H 0.15594 1.00606 0.85267 0.0
H331 H 0.12557 0.9734 0.90773 0.0
H332 H 0.05906 0.901 0.60414 0.0
H333 H 1.02491 0.87179 0.65858 0.0
H334 H 0.07877 0.96715 0.58907 0.0
H335 H 0.11869 1.00481 0.62006 0.0
C336 C 0.40939 0.6585 0.29782 0.0
C337 C 0.39028 0.67905 0.35437 0.0
C338 C 0.40454 0.75307 0.309 0.0
C339 C 0.41895 0.73239 0.2497 0.0
N340 N 0.43164 0.66576 0.18421 0.0
N341 N 0.36615 0.74524 0.41331 0.0
C342 C 0.42075 0.68514 0.24328 0.0
C343 C 0.38714 0.72623 0.36004 0.0
N344 N 0.4172 0.6136 0.29676 0.0
N345 N 0.40798 0.79835 0.31654 0.0
H346 H 0.35399 0.72681 0.45244 0.0
H347 H 0.35809 0.77891 0.41712 0.0
H348 H 0.41994 0.81888 0.27958 0.0
H349 H 0.40242 0.81533 0.36069 0.0
H350 H 0.43551 0.59722 0.26008 0.0
H351 H 0.40833 0.593 0.33536 0.0
H352 H 0.42858 0.63176 0.17402 0.0
H353 H 0.4411 0.68405 0.14347 0.0
C354 C 0.8605 0.88509 0.50973 0.0
C355 C 0.82007 0.87047 0.47951 0.0
C356 C 0.82398 0.79963 0.53614 0.0
C357 C 0.86339 0.81495 0.56899 0.0
N358 N 0.91097 0.87794 0.60024 0.0
N359 N 0.75711 0.81981 0.47569 0.0
C360 C 0.87902 0.85947 0.56009 0.0
C361 C 0.79952 0.82982 0.49744 0.0
N362 N 0.88314 0.92172 0.48755 0.0
N363 N 0.8116 0.75573 0.53826 0.0
H364 H 0.73884 0.84174 0.44701 0.0
H365 H 0.73872 0.79228 0.49131 0.0
H366 H 0.83014 0.73196 0.56302 0.0
H367 H 0.78559 0.74204 0.51016 0.0
H368 H 0.91593 0.92984 0.50185 0.0
H369 H 0.87089 0.94233 0.45135 0.0
H370 H 0.91923 0.91177 0.60054 0.0
H371 H 0.92641 0.86063 0.63719 0.0
C372 C 0.67875 0.32755 0.85819 0.0
C373 C 0.72402 0.32293 0.87876 0.0
C374 C 0.73674 0.26783 0.79041 0.0
C375 C 0.69406 0.27848 0.76364 0.0
N376 N 0.62749 0.325 0.76688 0.0
N377 N 0.79747 0.29037 0.86358 0.0
C378 C 0.66557 0.30973 0.79646 0.0
C379 C 0.75338 0.29313 0.84505 0.0
N380 N 0.64829 0.34905 0.89785 0.0
N381 N 0.76099 0.2333 0.76393 0.0
H382 H 0.81029 0.30769 0.90422 0.0
H383 H 0.82185 0.27314 0.83658 0.0
H384 H 0.74937 0.21406 0.72433 0.0
H385 H 0.79045 0.22126 0.78459 0.0
H386 H 0.61384 0.34977 0.88806 0.0
H387 H 0.65674 0.36199 0.94395 0.0
H388 H 0.60851 0.35144 0.78577 0.0
H389 H 0.6171 0.31462 0.72038 0.0
C390 C 0.20178 0.25718 0.89305 0.0
C391 C 0.23855 0.22728 0.89933 0.0
C392 C 0.23494 0.23591 0.01816 0.0
C393 C 0.19969 0.2676 0.01213 0.0
N394 N 0.15969 0.31806 0.94297 0.0
N395 N 0.29935 0.20098 0.96576 0.0
C396 C 0.18663 0.28161 0.94915 0.0
C397 C 0.25851 0.2215 0.9613 0.0
N398 N 0.17906 0.26008 0.83531 0.0
N399 N 0.2435 0.21639 0.07668 0.0
H400 H 0.31746 0.19041 0.92441 0.0
H401 H 0.31702 0.19898 0.00959 0.0
H402 H 0.22466 0.22252 0.11897 0.0
H403 H 0.26604 0.1901 0.08132 0.0
H404 H 0.149 0.2776 0.83088 0.0
H405 H 0.18781 0.24212 0.79316 0.0
H406 H 0.15233 0.33195 0.89792 0.0
H407 H 0.14872 0.33704 0.98325 0.0
C408 C 0.35007 0.74017 0.71836 0.0
C409 C 0.37223 0.70084 0.69572 0.0
C410 C 0.4303 0.71161 0.78032 0.0
C411 C 0.40844 0.75129 0.80194 0.0
N412 N 0.35445 0.809 0.7821 0.0
N413 N 0.43853 0.6545 0.69569 0.0
C414 C 0.37064 0.76738 0.76757 0.0
C415 C 0.4139 0.68815 0.72389 0.0
N416 N 0.30799 0.7502 0.6959 0.0
N417 N 0.46532 0.69502 0.81548 0.0
H418 H 0.42768 0.63644 0.65473 0.0
H419 H 0.47137 0.64694 0.70934 0.0
H420 H 0.48012 0.71232 0.8545 0.0
H421 H 0.47835 0.66314 0.80807 0.0
H422 H 0.28804 0.77545 0.71603 0.0
H423 H 0.29081 0.73072 0.66132 0.0
H424 H 0.33004 0.82481 0.75448 0.0
H425 H 0.36868 0.82958 0.81815 0.0
C426 C 0.84612 0.87079 0.0072 0.0
C427 C 0.87478 0.89803 0.04516 0.0
C428 C 0.94055 0.8596 0.99566 0.0
C429 C 0.91086 0.82802 0.96514 0.0
N430 N 0.8353 0.79677 0.96334 0.0
N431 N 0.9497 0.91709 0.08046 0.0
C432 C 0.86359 0.83167 0.97746 0.0
C433 C 0.92227 0.89221 0.04037 0.0
N434 N 0.80174 0.88156 0.00121 0.0
N435 N 0.98562 0.85936 0.98185 0.0
H436 H 0.93719 0.94278 0.11044 0.0
H437 H 0.98398 0.91097 0.08628 0.0
H438 H 1.00106 0.8357 0.95167 0.0
H439 H 1.00775 0.88419 -0.00187 0.0
H440 H 0.77968 0.86407 0.9704 0.0
H441 H 0.78901 0.91131 0.02064 0.0
H442 H 0.80121 0.79669 0.97616 0.0
H443 H 0.84707 0.76597 0.94659 0.0
C444 C 0.64777 0.39803 0.26265 0.0
C445 C 0.65864 0.37378 0.20457 0.0
C446 C 0.63603 0.30425 0.25803 0.0
C447 C 0.63395 0.32749 0.31889 0.0
N448 N 0.63869 0.39692 0.38022 0.0
N449 N 0.66733 0.30254 0.14846 0.0
C450 C 0.63973 0.37459 0.32135 0.0
C451 C 0.65325 0.32655 0.2022 0.0
N452 N 0.64363 0.44339 0.26128 0.0
N453 N 0.62209 0.26084 0.25358 0.0
H454 H 0.68131 0.31705 0.10715 0.0
H455 H 0.66903 0.26786 0.14709 0.0
H456 H 0.60867 0.24391 0.29326 0.0
H457 H 0.61918 0.24328 0.20933 0.0
H458 H 0.63136 0.46245 0.30053 0.0
H459 H 0.64799 0.46161 0.21872 0.0
H460 H 0.64869 0.43008 0.38632 0.0
H461 H 0.62964 0.38163 0.42373 0.0
C462 C 0.18608 0.24366 0.4805 0.0
C463 C 0.14334 0.23215 0.45287 0.0
C464 C 0.13131 0.17819 0.54053 0.0
C465 C 0.17318 0.19108 0.56868 0.0
N466 N 0.233 0.24554 0.5769 0.0
N467 N 0.07138 0.19509 0.46432 0.0
C468 C 0.19819 0.2268 0.54228 0.0
C469 C 0.11452 0.20176 0.48568 0.0
N470 N 0.21615 0.26951 0.44706 0.0
N471 N 0.10822 0.14262 0.56511 0.0
H472 H 0.05825 0.21098 0.42382 0.0
H473 H 0.04741 0.17666 0.48968 0.0
H474 H 0.11897 0.12548 0.60612 0.0
H475 H 0.08019 0.12819 0.54249 0.0
H476 H 0.24972 0.27351 0.46099 0.0
H477 H 0.20914 0.28442 0.40279 0.0
H478 H 0.24945 0.27472 0.56321 0.0
H479 H 0.24213 0.23493 0.62309 0.0
C480 C 0.40352 0.97035 0.83813 0.0
C481 C 0.37523 0.94014 0.87134 0.0
C482 C 0.30841 0.97527 0.82441 0.0
C483 C 0.33679 1.00532 0.78967 0.0
N484 N 0.41141 1.02097 0.74781 0.0
N485 N 0.30279 0.90483 0.88059 0.0
C486 C 0.38444 0.99955 0.79169 0.0
C487 C 0.32828 0.93972 0.85922 0.0
N488 N 0.44832 0.9725 0.85302 0.0
N489 N 0.26293 0.98192 0.82821 0.0
H490 H 0.31682 0.87811 0.90521 0.0
H491 H 0.26909 0.90011 0.86788 0.0
H492 H 0.24637 1.00754 0.80502 0.0
H493 H 0.24184 0.96404 0.85917 0.0
H494 H 0.46985 0.99719 0.83566 0.0
H495 H 0.46312 0.95163 0.88695 0.0
H496 H 0.44591 1.01517 0.74334 0.0
H497 H 0.39843 0.04066 0.71091 0.0
C498 C 0.61086 0.84654 0.00254 0.0
C499 C 0.57408 0.87596 0.01352 0.0
C500 C 0.62332 0.92676 0.07653 0.0
C501 C 0.65733 0.89385 0.0761 0.0
N502 N 0.68684 0.82481 0.03372 0.0
N503 N 0.55451 0.9533 0.02727 0.0
C504 C 0.6523 0.85472 0.03648 0.0
C505 C 0.58333 0.91919 0.03978 0.0
N506 N 0.60722 0.81299 0.9568 0.0
N507 N 0.62759 0.96359 0.11623 0.0
H508 H 0.52698 0.9491 -0.004 0.0
H509 H 0.56101 0.98638 0.04074 0.0
H510 H 0.65614 0.96961 0.14457 0.0
H511 H 0.60164 0.9863 0.1246 0.0
H512 H 0.63321 0.79123 0.94437 0.0
H513 H 0.57998 0.81053 0.9249 0.0
H514 H 0.68435 0.79312 0.01243 0.0
H515 H 0.71811 0.83163 0.05507 0.0
C516 C 0.76325 0.08261 0.30863 0.0
C517 C 0.73611 0.06034 0.26026 0.0
C518 C 0.67282 0.10998 0.28855 0.0
C519 C 0.69868 0.12937 0.33965 0.0
N520 N 0.77101 0.14518 0.3857 0.0
N521 N 0.67214 0.06442 0.18895 0.0
C522 C 0.74496 0.11946 0.34485 0.0
C523 C 0.69316 0.07812 0.24517 0.0
N524 N 0.80501 0.06703 0.32372 0.0
N525 N 0.62822 0.12038 0.28381 0.0
H526 H 0.6877 0.04272 0.1554 0.0
H527 H 0.64212 0.078 0.1724 0.0
H528 H 0.61308 0.14439 0.31415 0.0
H529 H 0.60597 0.1038 0.25235 0.0
H530 H 0.82347 0.07795 0.3642 0.0
H531 H 0.82069 0.04137 0.29808 0.0
H532 H 0.80601 0.14306 0.38788 0.0
H533 H 0.75762 0.17178 0.41303 0.0
C534 C 0.44565 0.23097 0.55251 0.0
C535 C 0.4883 0.20912 0.54985 0.0
C536 C 0.45062 0.13815 0.5763 0.0
C537 C 0.40844 0.15983 0.57671 0.0
N538 N 0.36381 0.22435 0.55587 0.0
N539 N 0.53029 0.14028 0.55008 0.0
C540 C 0.40545 0.20562 0.56233 0.0
C541 C 0.4904 0.16213 0.55867 0.0
N542 N 0.44354 0.27617 0.54611 0.0
N543 N 0.45248 0.09469 0.59495 0.0
H544 H 0.56019 0.15654 0.5391 0.0
H545 H 0.53336 0.10574 0.54886 0.0
H546 H 0.42365 0.07649 0.60706 0.0
H547 H 0.48231 0.0776 0.60315 0.0
H548 H 0.41493 0.29499 0.55663 0.0
H549 H 0.47116 0.29542 0.53249 0.0
H550 H 0.35847 0.25623 0.53834 0.0
H551 H 0.33396 0.2067 0.56404 0.0
C552 C 0.85164 0.58344 0.88367 0.0
C553 C 0.88073 0.61401 0.91601 0.0
C554 C 0.86615 0.57595 0.01953 0.0
C555 C 0.84276 0.54158 0.98466 0.0
N556 N 0.82227 0.50832 0.88029 0.0
N557 N 0.92019 0.63697 0.01365 0.0
C558 C 0.83775 0.54418 0.91581 0.0
C559 C 0.88884 0.61003 0.984 0.0
N560 N 0.83744 0.59216 0.82182 0.0
N561 N 0.86727 0.57566 0.08634 0.0
H562 H 0.93758 0.6618 0.98884 0.0
H563 H 0.93135 0.6326 0.06132 0.0
H564 H 0.85254 0.55035 0.11362 0.0
H565 H 0.87997 0.60202 0.11472 0.0
H566 H 0.81302 0.57309 0.79753 0.0
H567 H 0.84664 0.62132 0.79793 0.0
H568 H 0.8215 0.50735 0.82933 0.0
H569 H 0.81557 0.47764 0.90115 0.0
C570 C 0.93133 0.31926 0.2566 0.0
C571 C 0.97367 0.32822 0.22666 0.0
C572 C 0.94099 0.39332 0.17307 0.0
C573 C 0.89809 0.38196 0.1984 0.0
N574 N 0.85039 0.33244 0.25845 0.0
N575 N 1.01745 0.36993 0.14872 0.0
C576 C 0.89275 0.34443 0.23872 0.0
C577 C 0.97827 0.36446 0.18313 0.0
N578 N 0.9284 0.28732 0.3033 0.0
N579 N 0.94607 0.43231 0.14033 0.0
H580 H 0.04538 0.34958 0.15457 0.0
H581 H 1.02123 0.39246 0.11095 0.0
H582 H 0.91902 0.45334 0.13093 0.0
H583 H 0.97725 0.44535 0.12665 0.0
H584 H 0.89969 0.28169 0.33145 0.0
H585 H 0.95613 0.26869 0.31782 0.0
H586 H 0.84303 0.30306 0.28264 0.0
H587 H 0.82181 0.35059 0.24614 0.0
C588 C 0.2434 0.47899 0.42858 0.0
C589 C 0.22045 0.49497 0.48571 0.0
C590 C 0.15666 0.44459 0.46059 0.0
C591 C 0.17944 0.42899 0.40382 0.0
N592 N 0.24769 0.42273 0.34133 0.0
N593 N 0.16136 0.48386 0.56526 0.0
C594 C 0.224 0.44344 0.39051 0.0
C595 C 0.17892 0.47482 0.50453 0.0
N596 N 0.2822 0.49931 0.4083 0.0
N597 N 0.11296 0.43189 0.4709 0.0
H598 H 0.17758 0.50466 0.59936 0.0
H599 H 0.13336 0.46741 0.58428 0.0
H600 H 0.09621 0.40931 0.43994 0.0
H601 H 0.09246 0.44587 0.50726 0.0
H602 H 0.29728 0.49296 0.36301 0.0
H603 H 0.29822 0.5246 0.43491 0.0
H604 H 0.28187 0.42825 0.33261 0.0
H605 H 0.23387 0.3969 0.31279 0.0
C606 C 0.11833 0.65989 0.66358 0.0
C607 C 0.16214 0.6716 0.68412 0.0
C608 C 0.13033 0.71996 0.77087 0.0
C609 C 0.08705 0.71472 0.74229 0.0
N610 N 0.03979 0.68001 0.6596 0.0
N611 N 0.21146 0.70905 0.75981 0.0
C612 C 0.0808 0.68388 0.68913 0.0
C613 C 0.16856 0.7 0.73945 0.0
N614 N 0.11303 0.62612 0.6185 0.0
N615 N 0.13457 0.74451 0.82752 0.0
H616 H 0.2393 0.69277 0.73933 0.0
H617 H 0.21968 0.733 0.79532 0.0
H618 H 0.10681 0.75899 0.85109 0.0
H619 H 0.16445 0.74776 0.85369 0.0
H620 H 0.08185 0.61264 0.60538 0.0
H621 H 0.14046 0.60875 0.59886 0.0
H622 H 0.0344 0.66297 0.61546 0.0
H623 H 1.0113 0.69592 0.6776 0.0
loop_
_geom_bond_atom_site_label_1
_geom_bond_atom_site_label_2
_geom_bond_distance
_geom_bond_site_symmetry_2
_ccdc_geom_bond_type
C0 C1 1.351 . S
C0 N3 1.368 . S
C0 H5 0.931 . S
C1 C0 1.351 . S
C1 N2 1.373 . S
C1 H29 0.930 . S
N2 C1 1.373 . S
N2 C4 1.340 . S
N3 C0 1.368 . S
N3 C4 1.321 . S
N3 Co6 2.135 . S
C4 N2 1.340 . S
C4 N3 1.321 . S
C4 H28 0.930 1_556 S
H5 C0 0.931 . S
Co6 N3 2.135 . S
Co6 N9 2.121 . S
Co6 O14 2.055 . S
Co6 O17 2.039 . S
Co6 N20 2.140 1_556 S
C7 O8 1.227 . S
C7 O17 1.265 1_554 S
O8 C7 1.227 . S
N9 Co6 2.121 . S
N9 C11 1.375 1_556 S
N9 C12 1.313 . S
C10 C11 1.338 1_556 S
C10 N13 1.377 . S
C10 H30 0.930 1_556 S
C11 N9 1.375 1_554 S
C11 C10 1.338 1_554 S
C11 H15 0.931 . S
C12 N9 1.313 . S
C12 N13 1.344 . S
C12 H16 0.930 . S
N13 C10 1.377 . S
N13 C12 1.344 . S
O14 Co6 2.055 . S
O14 C18 1.253 . S
H15 C11 0.931 . S
H16 C12 0.930 . S
O17 Co6 2.039 . S
O17 C7 1.265 1_556 S
C18 O14 1.253 . S
C18 O19 1.227 . S
O19 C18 1.227 . S
N20 Co6 2.140 1_554 S
N20 C23 1.346 . S
N20 C24 1.345 . S
C21 C22 1.387 . S
C21 C25 1.391 . S
C22 C21 1.387 . S
C22 C23 1.369 . S
C22 H31 0.929 . S
C23 N20 1.346 . S
C23 C22 1.369 . S
C23 H26 0.928 . S
C24 N20 1.345 . S
C24 C25 1.371 . S
C24 H27 0.931 . S
C25 C21 1.391 . S
C25 C24 1.371 . S
C25 H32 0.930 . S
H26 C23 0.928 . S
H27 C24 0.931 . S
H28 C4 0.930 1_554 S
H29 C1 0.930 . S
H30 C10 0.930 1_554 S
H31 C22 0.929 . S
H32 C25 0.930 . S
C33 C34 1.351 . S
C33 N36 1.368 . S
C33 H38 0.931 . S
C34 C33 1.351 . S
C34 N35 1.373 1_565 S
C34 H62 0.930 . S
N35 C34 1.373 1_545 S
N35 C37 1.340 . S
N36 C33 1.368 . S
N36 C37 1.321 1_565 S
N36 Co39 2.135 . S
C37 N35 1.340 . S
C37 N36 1.321 1_545 S
C37 H61 0.930 . S
H38 C33 0.931 . S
Co39 N36 2.135 . S
Co39 N42 2.121 . S
Co39 O47 2.055 . S
Co39 O50 2.039 . S
Co39 N53 2.140 . S
C40 O41 1.227 1_545 S
C40 O50 1.265 1_545 S
O41 C40 1.227 1_565 S
N42 Co39 2.121 . S
N42 C44 1.375 . S
N42 C45 1.313 . S
C43 C44 1.338 . S
C43 N46 1.377 . S
C43 H63 0.930 . S
C44 N42 1.375 . S
C44 C43 1.338 . S
C44 H48 0.931 . S
C45 N42 1.313 . S
C45 N46 1.344 . S
C45 H49 0.930 . S
N46 C43 1.377 . S
N46 C45 1.344 . S
O47 Co39 2.055 . S
O47 C51 1.253 . S
H48 C44 0.931 . S
H49 C45 0.930 . S
O50 Co39 2.039 . S
O50 C40 1.265 1_565 S
C51 O47 1.253 . S
C51 O52 1.227 . S
O52 C51 1.227 . S
N53 Co39 2.140 . S
N53 C56 1.346 . S
N53 C57 1.345 . S
C54 C55 1.387 . S
C54 C58 1.391 . S
C55 C54 1.387 . S
C55 C56 1.369 . S
C55 H64 0.929 . S
C56 N53 1.346 . S
C56 C55 1.369 . S
C56 H59 0.928 . S
C57 N53 1.345 . S
C57 C58 1.371 . S
C57 H60 0.931 . S
C58 C54 1.391 . S
C58 C57 1.371 . S
C58 H65 0.930 . S
H59 C56 0.928 . S
H60 C57 0.931 . S
H61 C37 0.930 . S
H62 C34 0.930 . S
H63 C43 0.930 . S
H64 C55 0.929 . S
H65 C58 0.930 . S
C66 C67 1.351 . S
C66 N69 1.368 . S
C66 H71 0.931 . S
C67 C66 1.351 . S
C67 N68 1.373 . S
C67 H95 0.930 . S
N68 C67 1.373 . S
N68 C70 1.340 . S
N69 C66 1.368 . S
N69 C70 1.321 . S
N69 Co72 2.135 . S
C70 N68 1.340 . S
C70 N69 1.321 . S
C70 H94 0.930 . S
H71 C66 0.931 . S
Co72 N69 2.135 . S
Co72 N75 2.121 . S
Co72 O80 2.055 . S
Co72 O83 2.039 . S
Co72 N86 2.140 . S
C73 O74 1.227 . S
C73 O83 1.265 . S
O74 C73 1.227 . S
N75 Co72 2.121 . S
N75 C77 1.375 . S
N75 C78 1.313 . S
C76 C77 1.338 . S
C76 N79 1.377 . S
C76 H96 0.930 . S
C77 N75 1.375 . S
C77 C76 1.338 . S
C77 H81 0.931 . S
C78 N75 1.313 . S
C78 N79 1.344 . S
C78 H82 0.930 . S
N79 C76 1.377 . S
N79 C78 1.344 . S
O80 Co72 2.055 . S
O80 C84 1.253 . S
H81 C77 0.931 . S
H82 C78 0.930 . S
O83 Co72 2.039 . S
O83 C73 1.265 . S
C84 O80 1.253 . S
C84 O85 1.227 . S
O85 C84 1.227 . S
N86 Co72 2.140 . S
N86 C89 1.346 . S
N86 C90 1.345 . S
C87 C88 1.387 . S
C87 C91 1.391 . S
C88 C87 1.387 . S
C88 C89 1.369 . S
C88 H97 0.929 . S
C89 N86 1.346 . S
C89 C88 1.369 . S
C89 H92 0.928 . S
C90 N86 1.345 . S
C90 C91 1.371 . S
C90 H93 0.931 . S
C91 C87 1.391 . S
C91 C90 1.371 . S
C91 H98 0.930 . S
H92 C89 0.928 . S
H93 C90 0.931 . S
H94 C70 0.930 . S
H95 C67 0.930 . S
H96 C76 0.930 . S
H97 C88 0.929 . S
H98 C91 0.930 . S
C99 C100 1.351 . S
C99 N102 1.368 . S
C99 H104 0.931 . S
C100 C99 1.351 . S
C100 N101 1.373 1_545 S
C100 H128 0.930 . S
N101 C100 1.373 1_565 S
N101 C103 1.340 . S
N102 C99 1.368 . S
N102 C103 1.321 1_545 S
N102 Co105 2.135 . S
C103 N101 1.340 . S
C103 N102 1.321 1_565 S
C103 H127 0.930 . S
H104 C99 0.931 . S
Co105 N102 2.135 . S
Co105 N108 2.121 . S
Co105 O113 2.055 . S
Co105 O116 2.039 . S
Co105 N119 2.140 . S
C106 O107 1.227 1_565 S
C106 O116 1.265 1_565 S
O107 C106 1.227 1_545 S
N108 Co105 2.121 . S
N108 C110 1.375 . S
N108 C111 1.313 . S
C109 C110 1.338 . S
C109 N112 1.377 . S
C109 H129 0.930 . S
C110 N108 1.375 . S
C110 C109 1.338 . S
C110 H114 0.931 . S
C111 N108 1.313 . S
C111 N112 1.344 . S
C111 H115 0.930 . S
N112 C109 1.377 . S
N112 C111 1.344 . S
O113 Co105 2.055 . S
O113 C117 1.253 . S
H114 C110 0.931 . S
H115 C111 0.930 . S
O116 Co105 2.039 . S
O116 C106 1.265 1_545 S
C117 O113 1.253 . S
C117 O118 1.227 . S
O118 C117 1.227 . S
N119 Co105 2.140 . S
N119 C122 1.346 . S
N119 C123 1.345 . S
C120 C121 1.387 . S
C120 C124 1.391 . S
C121 C120 1.387 . S
C121 C122 1.369 . S
C121 H130 0.929 . S
C122 N119 1.346 . S
C122 C121 1.369 . S
C122 H125 0.928 . S
C123 N119 1.345 . S
C123 C124 1.371 . S
C123 H126 0.931 . S
C124 C120 1.391 . S
C124 C123 1.371 . S
C124 H131 0.930 . S
H125 C122 0.928 . S
H126 C123 0.931 . S
H127 C103 0.930 . S
H128 C100 0.930 . S
H129 C109 0.930 . S
H130 C121 0.929 . S
H131 C124 0.930 . S
C132 C133 1.351 . S
C132 N135 1.368 . S
C132 H137 0.931 . S
C133 C132 1.351 . S
C133 N134 1.373 1_655 S
C133 H161 0.930 . S
N134 C133 1.373 1_455 S
N134 C136 1.340 . S
N135 C132 1.368 . S
N135 C136 1.321 1_655 S
N135 Co138 2.135 . S
C136 N134 1.340 . S
C136 N135 1.321 1_455 S
C136 H160 0.930 . S
H137 C132 0.931 . S
Co138 N135 2.135 . S
Co138 N141 2.121 . S
Co138 O146 2.055 . S
Co138 O149 2.039 . S
Co138 N152 2.140 . S
C139 O140 1.227 1_455 S
C139 O149 1.265 1_455 S
O140 C139 1.227 1_655 S
N141 Co138 2.121 . S
N141 C143 1.375 . S
N141 C144 1.313 . S
C142 C143 1.338 . S
C142 N145 1.377 . S
C142 H162 0.930 . S
C143 N141 1.375 . S
C143 C142 1.338 . S
C143 H147 0.931 . S
C144 N141 1.313 . S
C144 N145 1.344 . S
C144 H148 0.930 . S
N145 C142 1.377 . S
N145 C144 1.344 . S
O146 Co138 2.055 . S
O146 C150 1.253 . S
H147 C143 0.931 . S
H148 C144 0.930 . S
O149 Co138 2.039 . S
O149 C139 1.265 1_655 S
C150 O146 1.253 . S
C150 O151 1.227 . S
O151 C150 1.227 . S
N152 Co138 2.140 . S
N152 C155 1.346 . S
N152 C156 1.345 . S
C153 C154 1.387 . S
C153 C157 1.391 . S
C154 C153 1.387 . S
C154 C155 1.369 . S
C154 H163 0.929 . S
C155 N152 1.346 . S
C155 C154 1.369 . S
C155 H158 0.928 . S
C156 N152 1.345 . S
C156 C157 1.371 . S
C156 H159 0.931 . S
C157 C153 1.391 . S
C157 C156 1.371 . S
C157 H164 0.930 . S
H158 C155 0.928 . S
H159 C156 0.931 . S
H160 C136 0.930 . S
H161 C133 0.930 . S
H162 C142 0.930 . S
H163 C154 0.929 . S
H164 C157 0.930 . S
C165 C166 1.351 . S
C165 N168 1.368 . S
C165 H170 0.931 . S
C166 C165 1.351 . S
C166 N167 1.373 . S
C166 H194 0.930 . S
N167 C166 1.373 . S
N167 C169 1.340 . S
N168 C165 1.368 . S
N168 C169 1.321 . S
N168 Co171 2.135 . S
C169 N167 1.340 . S
C169 N168 1.321 . S
C169 H193 0.930 . S
H170 C165 0.931 . S
Co171 N168 2.135 . S
Co171 N174 2.121 . S
Co171 O179 2.055 . S
Co171 O182 2.039 . S
Co171 N185 2.140 1_554 S
C172 O173 1.227 1_554 S
C172 O182 1.265 . S
O173 C172 1.227 1_556 S
N174 Co171 2.121 . S
N174 C176 1.375 . S
N174 C177 1.313 . S
C175 C176 1.338 . S
C175 N178 1.377 . S
C175 H195 0.930 . S
C176 N174 1.375 . S
C176 C175 1.338 . S
C176 H180 0.931 1_554 S
C177 N174 1.313 . S
C177 N178 1.344 . S
C177 H181 0.930 . S
N178 C175 1.377 . S
N178 C177 1.344 . S
O179 Co171 2.055 . S
O179 C183 1.253 . S
H180 C176 0.931 1_556 S
H181 C177 0.930 . S
O182 Co171 2.039 . S
O182 C172 1.265 . S
C183 O179 1.253 . S
C183 O184 1.227 . S
O184 C183 1.227 . S
N185 Co171 2.140 1_556 S
N185 C188 1.346 . S
N185 C189 1.345 . S
C186 C187 1.387 . S
C186 C190 1.391 . S
C187 C186 1.387 . S
C187 C188 1.369 . S
C187 H196 0.929 . S
C188 N185 1.346 . S
C188 C187 1.369 . S
C188 H191 0.928 . S
C189 N185 1.345 . S
C189 C190 1.371 . S
C189 H192 0.931 1_556 S
C190 C186 1.391 . S
C190 C189 1.371 . S
C190 H197 0.930 . S
H191 C188 0.928 . S
H192 C189 0.931 1_554 S
H193 C169 0.930 . S
H194 C166 0.930 . S
H195 C175 0.930 . S
H196 C187 0.929 . S
H197 C190 0.930 . S
C198 C199 1.351 . S
C198 N201 1.368 . S
C198 H203 0.931 . S
C199 C198 1.351 . S
C199 N200 1.373 1_455 S
C199 H227 0.930 . S
N200 C199 1.373 1_655 S
N200 C202 1.340 . S
N201 C198 1.368 . S
N201 C202 1.321 1_455 S
N201 Co204 2.135 . S
C202 N200 1.340 . S
C202 N201 1.321 1_655 S
C202 H226 0.930 . S
H203 C198 0.931 . S
Co204 N201 2.135 . S
Co204 N207 2.121 . S
Co204 O212 2.055 . S
Co204 O215 2.039 . S
Co204 N218 2.140 . S
C205 O206 1.227 1_655 S
C205 O215 1.265 1_655 S
O206 C205 1.227 1_455 S
N207 Co204 2.121 . S
N207 C209 1.375 . S
N207 C210 1.313 . S
C208 C209 1.338 . S
C208 N211 1.377 . S
C208 H228 0.930 . S
C209 N207 1.375 . S
C209 C208 1.338 . S
C209 H213 0.931 . S
C210 N207 1.313 . S
C210 N211 1.344 . S
C210 H214 0.930 . S
N211 C208 1.377 . S
N211 C210 1.344 . S
O212 Co204 2.055 . S
O212 C216 1.253 . S
H213 C209 0.931 . S
H214 C210 0.930 . S
O215 Co204 2.039 . S
O215 C205 1.265 1_455 S
C216 O212 1.253 . S
C216 O217 1.227 . S
O217 C216 1.227 . S
N218 Co204 2.140 . S
N218 C221 1.346 . S
N218 C222 1.345 . S
C219 C220 1.387 . S
C219 C223 1.391 . S
C220 C219 1.387 . S
C220 C221 1.369 . S
C220 H229 0.929 . S
C221 N218 1.346 . S
C221 C220 1.369 . S
C221 H224 0.928 . S
C222 N218 1.345 . S
C222 C223 1.371 . S
C222 H225 0.931 . S
C223 C219 1.391 . S
C223 C222 1.371 . S
C223 H230 0.930 . S
H224 C221 0.928 . S
H225 C222 0.931 . S
H226 C202 0.930 . S
H227 C199 0.930 . S
H228 C208 0.930 . S
H229 C220 0.929 . S
H230 C223 0.930 . S
C231 C232 1.351 . S
C231 N234 1.368 . S
C231 H236 0.931 . S
C232 C231 1.351 . S
C232 N233 1.373 . S
C232 H260 0.930 . S
N233 C232 1.373 . S
N233 C235 1.340 . S
N234 C231 1.368 . S
N234 C235 1.321 . S
N234 Co237 2.135 . S
C235 N233 1.340 . S
C235 N234 1.321 . S
C235 H259 0.930 . S
H236 C231 0.931 . S
Co237 N234 2.135 . S
Co237 N240 2.121 . S
Co237 O245 2.055 . S
Co237 O248 2.039 . S
Co237 N251 2.140 . S
C238 O239 1.227 . S
C238 O248 1.265 . S
O239 C238 1.227 . S
N240 Co237 2.121 . S
N240 C242 1.375 . S
N240 C243 1.313 . S
C241 C242 1.338 . S
C241 N244 1.377 . S
C241 H261 0.930 . S
C242 N240 1.375 . S
C242 C241 1.338 . S
C242 H246 0.931 . S
C243 N240 1.313 . S
C243 N244 1.344 . S
C243 H247 0.930 . S
N244 C241 1.377 . S
N244 C243 1.344 . S
O245 Co237 2.055 . S
O245 C249 1.253 . S
H246 C242 0.931 . S
H247 C243 0.930 . S
O248 Co237 2.039 . S
O248 C238 1.265 . S
C249 O245 1.253 . S
C249 O250 1.227 . S
O250 C249 1.227 . S
N251 Co237 2.140 . S
N251 C254 1.346 . S
N251 C255 1.345 . S
C252 C253 1.387 . S
C252 C256 1.391 . S
C253 C252 1.387 . S
C253 C254 1.369 . S
C253 H262 0.929 . S
C254 N251 1.346 . S
C254 C253 1.369 . S
C254 H257 0.928 . S
C255 N251 1.345 . S
C255 C256 1.371 . S
C255 H258 0.931 . S
C256 C252 1.391 . S
C256 C255 1.371 . S
C256 H263 0.930 . S
H257 C254 0.928 . S
H258 C255 0.931 . S
H259 C235 0.930 . S
H260 C232 0.930 . S
H261 C241 0.930 . S
H262 C253 0.929 . S
H263 C256 0.930 . S
C264 C265 1.363 1_556 S
C264 C270 1.379 . S
C264 N272 1.356 . S
C265 C264 1.363 1_554 S
C265 C271 1.363 . S
C266 C267 1.363 . S
C266 C271 1.379 . S
C266 N273 1.356 . S
C267 C266 1.363 . S
C267 C270 1.363 1_554 S
N268 C270 1.356 . S
N268 H280 0.984 . S
N268 H281 0.985 . S
N269 C271 1.356 . S
N269 H274 0.984 . S
N269 H275 0.985 . S
C270 C264 1.379 . S
C270 C267 1.363 1_556 S
C270 N268 1.356 . S
C271 C265 1.363 . S
C271 C266 1.379 . S
C271 N269 1.356 . S
N272 C264 1.356 . S
N272 H278 0.984 . S
N272 H279 0.984 . S
N273 C266 1.356 . S
N273 H276 0.984 . S
N273 H277 0.985 . S
H274 N269 0.984 . S
H275 N269 0.985 . S
H276 N273 0.984 . S
H277 N273 0.985 . S
H278 N272 0.984 . S
H279 N272 0.984 . S
H280 N268 0.984 . S
H281 N268 0.985 . S
C282 C283 1.363 . S
C282 C288 1.379 . S
C282 N290 1.356 . S
C283 C282 1.363 . S
C283 C289 1.363 . S
C284 C285 1.363 . S
C284 C289 1.379 . S
C284 N291 1.356 . S
C285 C284 1.363 . S
C285 C288 1.363 . S
N286 C288 1.356 . S
N286 H298 0.984 . S
N286 H299 0.985 1_545 S
N287 C289 1.356 . S
N287 H292 0.984 . S
N287 H293 0.985 . S
C288 C282 1.379 . S
C288 C285 1.363 . S
C288 N286 1.356 . S
C289 C283 1.363 . S
C289 C284 1.379 . S
C289 N287 1.356 . S
N290 C282 1.356 . S
N290 H296 0.984 . S
N290 H297 0.989 . S
N291 C284 1.356 . S
N291 H294 0.984 . S
N291 H295 0.985 . S
H292 N287 0.984 . S
H293 N287 0.985 . S
H294 N291 0.984 . S
H295 N291 0.985 . S
H296 N290 0.984 . S
H297 N290 0.989 . S
H298 N286 0.984 . S
H299 N286 0.985 1_565 S
C300 C301 1.363 . S
C300 C306 1.379 . S
C300 N308 1.356 . S
C301 C300 1.363 . S
C301 C307 1.363 . S
C302 C303 1.363 . S
C302 C307 1.379 . S
C302 N309 1.356 . S
C303 C302 1.363 . S
C303 C306 1.363 . S
N304 C306 1.356 . S
N304 H316 0.984 . S
N304 H317 0.985 . S
N305 C307 1.356 . S
N305 H310 0.984 . S
N305 H311 0.985 . S
C306 C300 1.379 . S
C306 C303 1.363 . S
C306 N304 1.356 . S
C307 C301 1.363 . S
C307 C302 1.379 . S
C307 N305 1.356 . S
N308 C300 1.356 . S
N308 H314 0.984 . S
N308 H315 0.984 . S
N309 C302 1.356 . S
N309 H312 0.984 . S
N309 H313 0.985 . S
H310 N305 0.984 . S
H311 N305 0.985 . S
H312 N309 0.984 . S
H313 N309 0.985 . S
H314 N308 0.984 . S
H315 N308 0.984 . S
H316 N304 0.984 . S
H317 N304 0.985 . S
C318 C319 1.363 . S
C318 C324 1.379 . S
C318 N326 1.356 . S
C319 C318 1.363 . S
C319 C325 1.363 . S
C320 C321 1.363 . S
C320 C325 1.379 . S
C320 N327 1.356 . S
C321 C320 1.363 . S
C321 C324 1.363 . S
N322 C324 1.356 . S
N322 H334 0.984 . S
N322 H335 0.985 . S
N323 C325 1.356 . S
N323 H328 0.984 . S
N323 H329 0.985 . S
C324 C318 1.379 . S
C324 C321 1.363 . S
C324 N322 1.356 . S
C325 C319 1.363 . S
C325 C320 1.379 . S
C325 N323 1.356 . S
N326 C318 1.356 . S
N326 H332 0.984 . S
N326 H333 0.984 . S
N327 C320 1.356 . S
N327 H330 0.984 . S
N327 H331 0.985 . S
H328 N323 0.984 . S
H329 N323 0.985 . S
H330 N327 0.984 . S
H331 N327 0.985 . S
H332 N326 0.984 . S
H333 N326 0.984 . S
H334 N322 0.984 . S
H335 N322 0.985 . S
C336 C337 1.363 . S
C336 C342 1.379 . S
C336 N344 1.356 . S
C337 C336 1.363 . S
C337 C343 1.363 . S
C338 C339 1.363 . S
C338 C343 1.379 . S
C338 N345 1.356 . S
C339 C338 1.363 . S
C339 C342 1.363 . S
N340 C342 1.356 . S
N340 H352 0.984 . S
N340 H353 0.985 . S
N341 C343 1.356 . S
N341 H346 0.984 . S
N341 H347 0.985 . S
C342 C336 1.379 . S
C342 C339 1.363 . S
C342 N340 1.356 . S
C343 C337 1.363 . S
C343 C338 1.379 . S
C343 N341 1.356 . S
N344 C336 1.356 . S
N344 H350 0.984 . S
N344 H351 0.984 . S
N345 C338 1.356 . S
N345 H348 0.984 . S
N345 H349 0.985 . S
H346 N341 0.984 . S
H347 N341 0.985 . S
H348 N345 0.984 . S
H349 N345 0.985 . S
H350 N344 0.984 . S
H351 N344 0.984 . S
H352 N340 0.984 . S
H353 N340 0.985 . S
C354 C355 1.363 . S
C354 C360 1.379 . S
C354 N362 1.356 . S
C355 C354 1.363 . S
C355 C361 1.363 . S
C356 C357 1.363 . S
C356 C361 1.379 . S
C356 N363 1.356 . S
C357 C356 1.363 . S
C357 C360 1.363 . S
N358 C360 1.356 . S
N358 H370 0.984 . S
N358 H371 0.985 . S
N359 C361 1.356 . S
N359 H364 0.984 . S
N359 H365 0.985 . S
C360 C354 1.379 . S
C360 C357 1.363 . S
C360 N358 1.356 . S
C361 C355 1.363 . S
C361 C356 1.379 . S
C361 N359 1.356 . S
N362 C354 1.356 . S
N362 H368 0.984 . S
N362 H369 0.984 . S
N363 C356 1.356 . S
N363 H366 0.984 . S
N363 H367 0.985 . S
H364 N359 0.984 . S
H365 N359 0.985 . S
H366 N363 0.984 . S
H367 N363 0.985 . S
H368 N362 0.984 . S
H369 N362 0.984 . S
H370 N358 0.984 . S
H371 N358 0.985 . S
C372 C373 1.363 . S
C372 C378 1.379 . S
C372 N380 1.356 . S
C373 C372 1.363 . S
C373 C379 1.363 . S
C374 C375 1.363 . S
C374 C379 1.379 . S
C374 N381 1.356 . S
C375 C374 1.363 . S
C375 C378 1.363 . S
N376 C378 1.356 . S
N376 H388 0.984 . S
N376 H389 0.985 . S
N377 C379 1.356 . S
N377 H382 0.984 . S
N377 H383 0.985 . S
C378 C372 1.379 . S
C378 C375 1.363 . S
C378 N376 1.356 . S
C379 C373 1.363 . S
C379 C374 1.379 . S
C379 N377 1.356 . S
N380 C372 1.356 . S
N380 H386 0.984 . S
N380 H387 0.984 . S
N381 C374 1.356 . S
N381 H384 0.984 . S
N381 H385 0.985 . S
H382 N377 0.984 . S
H383 N377 0.985 . S
H384 N381 0.984 . S
H385 N381 0.985 . S
H386 N380 0.984 . S
H387 N380 0.984 . S
H388 N376 0.984 . S
H389 N376 0.985 . S
C390 C391 1.363 . S
C390 C396 1.379 1_556 S
C390 N398 1.356 . S
C391 C390 1.363 . S
C391 C397 1.363 1_556 S
C392 C393 1.363 . S
C392 C397 1.379 . S
C392 N399 1.356 . S
C393 C392 1.363 . S
C393 C396 1.363 . S
N394 C396 1.356 . S
N394 H406 0.984 . S
N394 H407 0.985 . S
N395 C397 1.359 . S
N395 H400 0.975 1_554 S
N395 H401 0.992 . S
C396 C390 1.379 1_554 S
C396 C393 1.363 . S
C396 N394 1.356 . S
C397 C391 1.363 1_554 S
C397 C392 1.379 . S
C397 N395 1.359 . S
N398 C390 1.356 . S
N398 H404 0.984 . S
N398 H405 0.984 . S
N399 C392 1.356 . S
N399 H402 0.984 . S
N399 H403 0.985 . S
H400 N395 0.975 1_556 S
H401 N395 0.992 . S
H402 N399 0.984 . S
H403 N399 0.985 . S
H404 N398 0.984 . S
H405 N398 0.984 . S
H406 N394 0.984 . S
H407 N394 0.985 . S
C408 C409 1.363 . S
C408 C414 1.379 . S
C408 N416 1.356 . S
C409 C408 1.363 . S
C409 C415 1.363 . S
C410 C411 1.363 . S
C410 C415 1.379 . S
C410 N417 1.356 . S
C411 C410 1.363 . S
C411 C414 1.363 . S
N412 C414 1.356 . S
N412 H424 0.984 . S
N412 H425 0.985 . S
N413 C415 1.356 . S
N413 H418 0.984 . S
N413 H419 0.985 . S
C414 C408 1.379 . S
C414 C411 1.363 . S
C414 N412 1.356 . S
C415 C409 1.363 . S
C415 C410 1.379 . S
C415 N413 1.356 . S
N416 C408 1.356 . S
N416 H422 0.984 . S
N416 H423 0.984 . S
N417 C410 1.356 . S
N417 H420 0.984 . S
N417 H421 0.985 . S
H418 N413 0.984 . S
H419 N413 0.985 . S
H420 N417 0.984 . S
H421 N417 0.985 . S
H422 N416 0.984 . S
H423 N416 0.984 . S
H424 N412 0.984 . S
H425 N412 0.985 . S
C426 C427 1.363 . S
C426 C432 1.379 1_554 S
C426 N434 1.356 . S
C427 C426 1.363 . S
C427 C433 1.363 . S
C428 C429 1.363 1_554 S
C428 C433 1.379 . S
C428 N435 1.356 . S
C429 C428 1.363 1_556 S
C429 C432 1.363 . S
N430 C432 1.356 . S
N430 H442 0.984 . S
N430 H443 0.985 . S
N431 C433 1.356 . S
N431 H436 0.984 . S
N431 H437 0.985 . S
C432 C426 1.379 1_556 S
C432 C429 1.363 . S
C432 N430 1.356 . S
C433 C427 1.363 . S
C433 C428 1.379 . S
C433 N431 1.356 . S
N434 C426 1.356 . S
N434 H440 0.984 . S
N434 H441 0.984 . S
N435 C428 1.356 . S
N435 H438 0.984 1_554 S
N435 H439 0.985 . S
H436 N431 0.984 . S
H437 N431 0.985 . S
H438 N435 0.984 1_556 S
H439 N435 0.985 . S
H440 N434 0.984 . S
H441 N434 0.984 . S
H442 N430 0.984 . S
H443 N430 0.985 . S
C444 C445 1.363 . S
C444 C450 1.379 . S
C444 N452 1.356 . S
C445 C444 1.363 . S
C445 C451 1.363 . S
C446 C447 1.363 . S
C446 C451 1.379 . S
C446 N453 1.356 . S
C447 C446 1.363 . S
C447 C450 1.363 . S
N448 C450 1.356 . S
N448 H460 0.984 . S
N448 H461 0.985 . S
N449 C451 1.356 . S
N449 H454 0.984 . S
N449 H455 0.985 . S
C450 C444 1.379 . S
C450 C447 1.363 . S
C450 N448 1.356 . S
C451 C445 1.363 . S
C451 C446 1.379 . S
C451 N449 1.356 . S
N452 C444 1.356 . S
N452 H458 0.984 . S
N452 H459 0.984 . S
N453 C446 1.356 . S
N453 H456 0.984 . S
N453 H457 0.985 . S
H454 N449 0.984 . S
H455 N449 0.985 . S
H456 N453 0.984 . S
H457 N453 0.985 . S
H458 N452 0.984 . S
H459 N452 0.984 . S
H460 N448 0.984 . S
H461 N448 0.985 . S
C462 C463 1.363 . S
C462 C468 1.379 . S
C462 N470 1.356 . S
C463 C462 1.363 . S
C463 C469 1.363 . S
C464 C465 1.363 . S
C464 C469 1.379 . S
C464 N471 1.356 . S
C465 C464 1.363 . S
C465 C468 1.363 . S
N466 C468 1.356 . S
N466 H478 0.984 . S
N466 H479 0.985 . S
N467 C469 1.356 . S
N467 H472 0.984 . S
N467 H473 0.985 . S
C468 C462 1.379 . S
C468 C465 1.363 . S
C468 N466 1.356 . S
C469 C463 1.363 . S
C469 C464 1.379 . S
C469 N467 1.356 . S
N470 C462 1.356 . S
N470 H476 0.984 . S
N470 H477 0.984 . S
N471 C464 1.356 . S
N471 H474 0.984 . S
N471 H475 0.985 . S
H472 N467 0.984 . S
H473 N467 0.985 . S
H474 N471 0.984 . S
H475 N471 0.985 . S
H476 N470 0.984 . S
H477 N470 0.984 . S
H478 N466 0.984 . S
H479 N466 0.985 . S
C480 C481 1.363 . S
C480 C486 1.379 . S
C480 N488 1.356 . S
C481 C480 1.363 . S
C481 C487 1.363 . S
C482 C483 1.363 . S
C482 C487 1.379 . S
C482 N489 1.356 . S
C483 C482 1.363 . S
C483 C486 1.363 . S
N484 C486 1.356 . S
N484 H496 0.984 . S
N484 H497 0.985 . S
N485 C487 1.356 . S
N485 H490 0.984 . S
N485 H491 0.985 1_556 S
C486 C480 1.379 . S
C486 C483 1.363 . S
C486 N484 1.356 . S
C487 C481 1.363 . S
C487 C482 1.379 . S
C487 N485 1.356 . S
N488 C480 1.356 . S
N488 H494 0.984 . S
N488 H495 0.984 . S
N489 C482 1.356 . S
N489 H492 0.984 1_565 S
N489 H493 0.985 . S
H490 N485 0.984 . S
H491 N485 0.985 1_554 S
H492 N489 0.984 1_545 S
H493 N489 0.985 . S
H494 N488 0.984 . S
H495 N488 0.984 . S
H496 N484 0.984 . S
H497 N484 0.985 . S
C498 C499 1.363 . S
C498 C504 1.379 . S
C498 N506 1.356 . S
C499 C498 1.363 . S
C499 C505 1.363 . S
C500 C501 1.363 . S
C500 C505 1.379 . S
C500 N507 1.356 . S
C501 C500 1.363 . S
C501 C504 1.363 . S
N502 C504 1.356 . S
N502 H514 0.984 . S
N502 H515 0.985 . S
N503 C505 1.356 . S
N503 H508 0.984 . S
N503 H509 0.985 . S
C504 C498 1.379 . S
C504 C501 1.363 . S
C504 N502 1.356 . S
C505 C499 1.363 . S
C505 C500 1.379 . S
C505 N503 1.356 . S
N506 C498 1.356 . S
N506 H512 0.984 1_554 S
N506 H513 0.984 1_554 S
N507 C500 1.356 . S
N507 H510 0.984 . S
N507 H511 0.985 . S
H508 N503 0.984 . S
H509 N503 0.985 . S
H510 N507 0.984 . S
H511 N507 0.985 . S
H512 N506 0.984 1_556 S
H513 N506 0.984 1_556 S
H514 N502 0.984 . S
H515 N502 0.985 . S
C516 C517 1.363 . S
C516 C522 1.379 . S
C516 N524 1.356 . S
C517 C516 1.363 . S
C517 C523 1.363 . S
C518 C519 1.363 . S
C518 C523 1.379 . S
C518 N525 1.356 . S
C519 C518 1.363 . S
C519 C522 1.363 . S
N520 C522 1.356 . S
N520 H532 0.984 . S
N520 H533 0.985 . S
N521 C523 1.356 . S
N521 H526 0.984 1_545 S
N521 H527 0.985 1_545 S
C522 C516 1.379 . S
C522 C519 1.363 . S
C522 N520 1.356 . S
C523 C517 1.363 . S
C523 C518 1.379 . S
C523 N521 1.356 . S
N524 C516 1.356 . S
N524 H530 0.984 . S
N524 H531 0.984 . S
N525 C518 1.356 . S
N525 H528 0.984 . S
N525 H529 0.985 . S
H526 N521 0.984 1_565 S
H527 N521 0.985 1_565 S
H528 N525 0.984 . S
H529 N525 0.985 . S
H530 N524 0.984 . S
H531 N524 0.984 . S
H532 N520 0.984 . S
H533 N520 0.985 . S
C534 C535 1.363 . S
C534 C540 1.379 . S
C534 N542 1.356 . S
C535 C534 1.363 . S
C535 C541 1.363 . S
C536 C537 1.363 . S
C536 C541 1.379 . S
C536 N543 1.356 . S
C537 C536 1.363 . S
C537 C540 1.363 . S
N538 C540 1.356 . S
N538 H550 0.984 . S
N538 H551 0.985 . S
N539 C541 1.356 . S
N539 H544 0.984 . S
N539 H545 0.985 . S
C540 C534 1.379 . S
C540 C537 1.363 . S
C540 N538 1.356 . S
C541 C535 1.363 . S
C541 C536 1.379 . S
C541 N539 1.356 . S
N542 C534 1.356 . S
N542 H548 0.984 . S
N542 H549 0.984 . S
N543 C536 1.356 . S
N543 H546 0.984 . S
N543 H547 0.985 . S
H544 N539 0.984 . S
H545 N539 0.985 . S
H546 N543 0.984 . S
H547 N543 0.985 . S
H548 N542 0.984 . S
H549 N542 0.984 . S
H550 N538 0.984 . S
H551 N538 0.985 . S
C552 C553 1.363 . S
C552 C558 1.379 . S
C552 N560 1.356 . S
C553 C552 1.363 . S
C553 C559 1.363 . S
C554 C555 1.363 . S
C554 C559 1.379 . S
C554 N561 1.356 1_556 S
C555 C554 1.363 . S
C555 C558 1.363 . S
N556 C558 1.356 . S
N556 H568 0.984 . S
N556 H569 0.985 . S
N557 C559 1.356 . S
N557 H562 0.984 . S
N557 H563 0.985 . S
C558 C552 1.379 . S
C558 C555 1.363 . S
C558 N556 1.356 . S
C559 C553 1.363 . S
C559 C554 1.379 . S
C559 N557 1.356 . S
N560 C552 1.356 . S
N560 H566 0.984 . S
N560 H567 0.984 . S
N561 C554 1.356 1_554 S
N561 H564 0.984 . S
N561 H565 0.985 . S
H562 N557 0.984 . S
H563 N557 0.985 . S
H564 N561 0.984 . S
H565 N561 0.985 . S
H566 N560 0.984 . S
H567 N560 0.984 . S
H568 N556 0.984 . S
H569 N556 0.985 . S
C570 C571 1.363 . S
C570 C576 1.379 . S
C570 N578 1.356 . S
C571 C570 1.363 . S
C571 C577 1.363 . S
C572 C573 1.363 . S
C572 C577 1.379 . S
C572 N579 1.356 . S
C573 C572 1.363 . S
C573 C576 1.363 . S
N574 C576 1.356 . S
N574 H586 0.984 . S
N574 H587 0.985 . S
N575 C577 1.356 1_455 S
N575 H580 0.984 . S
N575 H581 0.985 . S
C576 C570 1.379 . S
C576 C573 1.363 . S
C576 N574 1.356 . S
C577 C571 1.363 . S
C577 C572 1.379 . S
C577 N575 1.356 1_655 S
N578 C570 1.356 . S
N578 H584 0.984 . S
N578 H585 0.984 . S
N579 C572 1.356 . S
N579 H582 0.984 . S
N579 H583 0.985 . S
H580 N575 0.984 . S
H581 N575 0.985 . S
H582 N579 0.984 . S
H583 N579 0.985 . S
H584 N578 0.984 . S
H585 N578 0.984 . S
H586 N574 0.984 . S
H587 N574 0.985 . S
C588 C589 1.363 . S
C588 C594 1.379 . S
C588 N596 1.356 . S
C589 C588 1.363 . S
C589 C595 1.363 . S
C590 C591 1.363 . S
C590 C595 1.379 . S
C590 N597 1.356 . S
C591 C590 1.363 . S
C591 C594 1.363 . S
N592 C594 1.356 . S
N592 H604 0.984 . S
N592 H605 0.985 . S
N593 C595 1.356 . S
N593 H598 0.984 . S
N593 H599 0.985 . S
C594 C588 1.379 . S
C594 C591 1.363 . S
C594 N592 1.356 . S
C595 C589 1.363 . S
C595 C590 1.379 . S
C595 N593 1.356 . S
N596 C588 1.356 . S
N596 H602 0.984 . S
N596 H603 0.984 . S
N597 C590 1.356 . S
N597 H600 0.984 . S
N597 H601 0.985 . S
H598 N593 0.984 . S
H599 N593 0.985 . S
H600 N597 0.984 . S
H601 N597 0.985 . S
H602 N596 0.984 . S
H603 N596 0.984 . S
H604 N592 0.984 . S
H605 N592 0.985 . S
C606 C607 1.363 . S
C606 C612 1.379 . S
C606 N614 1.356 . S
C607 C606 1.363 . S
C607 C613 1.363 . S
C608 C609 1.363 . S
C608 C613 1.379 . S
C608 N615 1.356 . S
C609 C608 1.363 . S
C609 C612 1.363 . S
N610 C612 1.356 1_655 S
N610 H622 0.984 . S
N610 H623 0.985 . S
N611 C613 1.356 . S
N611 H616 0.984 . S
N611 H617 0.985 . S
C612 C606 1.379 . S
C612 C609 1.363 . S
C612 N610 1.356 1_455 S
C613 C607 1.363 . S
C613 C608 1.379 . S
C613 N611 1.356 . S
N614 C606 1.356 . S
N614 H620 0.984 . S
N614 H621 0.984 . S
N615 C608 1.356 . S
N615 H618 0.984 . S
N615 H619 0.985 . S
H616 N611 0.984 . S
H617 N611 0.985 . S
H618 N615 0.984 . S
H619 N615 0.985 . S
H620 N614 0.984 . S
H621 N614 0.984 . S
H622 N610 0.984 . S
H623 N610 0.985 . S
C265 N167 1.290 . S
C267 N2 1.290 1_554 S
C283 N200 1.290 . S
C285 N35 1.290 . S
C301 N68 1.289 . S
C303 N233 1.289 . S
C319 N134 1.290 . S
C321 N101 1.290 . S
C337 C252 1.023 . S
C339 C21 1.023 . S
C355 C54 1.023 . S
C357 C153 1.023 . S
C373 C186 1.023 . S
C375 C87 1.023 . S
C391 C120 1.023 . S
C393 C219 1.023 . S
C409 C249 1.723 . S
C411 C18 1.723 . S
C427 C51 1.723 . S
C429 C150 1.723 . S
C445 C183 1.723 . S
C447 C84 1.723 . S
C463 C216 1.723 . S
C465 C117 1.723 . S
C481 N13 1.695 . S
C483 C106 1.672 . S
C499 C7 1.672 . S
C501 N46 1.695 . S
C517 C40 1.672 . S
C519 N79 1.695 . S
C535 C73 1.672 . S
C537 N112 1.695 . S
C553 N145 1.695 . S
C555 C172 1.672 1_556 S
C571 C205 1.672 . S
C573 N178 1.695 . S
C589 C238 1.672 . S
C591 N211 1.695 . S
C607 N244 1.695 . S
C609 C139 1.672 . S
