# Generated by pormake.
# Topology sth, (5)-cn, num edge types: 1
# Building blocks:
#     Node 0, Type 0, BuildingBlock: XOMCOT_clean_sbu_1, # of connection points: 5
#     Node 1, Type 0, BuildingBlock: XOMCOT_clean_sbu_1, # of connection points: 5
#     Node 2, Type 0, BuildingBlock: XOMCOT_clean_sbu_1, # of connection points: 5
#     Node 3, Type 0, BuildingBlock: XOMCOT_clean_sbu_1, # of connection points: 5
#     Node 4, Type 0, BuildingBlock: XOMCOT_clean_sbu_1, # of connection points: 5
#     Node 5, Type 0, BuildingBlock: XOMCOT_clean_sbu_1, # of connection points: 5
#     Node 6, Type 0, BuildingBlock: XOMCOT_clean_sbu_1, # of connection points: 5
#     Node 7, Type 0, BuildingBlock: XOMCOT_clean_sbu_1, # of connection points: 5
#     Node 8, Type 0, BuildingBlock: XOMCOT_clean_sbu_1, # of connection points: 5
#     Node 9, Type 0, BuildingBlock: XOMCOT_clean_sbu_1, # of connection points: 5
#     Node 10, Type 0, BuildingBlock: XOMCOT_clean_sbu_1, # of connection points: 5
#     Node 11, Type 0, BuildingBlock: XOMCOT_clean_sbu_1, # of connection points: 5
#     Node 12, Type 0, BuildingBlock: XOMCOT_clean_sbu_1, # of connection points: 5
#     Node 13, Type 0, BuildingBlock: XOMCOT_clean_sbu_1, # of connection points: 5
#     Node 14, Type 0, BuildingBlock: XOMCOT_clean_sbu_1, # of connection points: 5
#     Node 15, Type 0, BuildingBlock: XOMCOT_clean_sbu_1, # of connection points: 5
#     Node 16, Type 0, BuildingBlock: XOMCOT_clean_sbu_1, # of connection points: 5
#     Node 17, Type 0, BuildingBlock: XOMCOT_clean_sbu_1, # of connection points: 5
#     Edge 18, Type (0, 0), BuildingBlock: OJICUG_clean_linker_0, # of connection points: 2
#     Edge 19, Type (0, 0), BuildingBlock: OJICUG_clean_linker_0, # of connection points: 2
#     Edge 20, Type (0, 0), BuildingBlock: OJICUG_clean_linker_0, # of connection points: 2
#     Edge 21, Type (0, 0), BuildingBlock: OJICUG_clean_linker_0, # of connection points: 2
#     Edge 22, Type (0, 0), BuildingBlock: OJICUG_clean_linker_0, # of connection points: 2
#     Edge 23, Type (0, 0), BuildingBlock: OJICUG_clean_linker_0, # of connection points: 2
#     Edge 24, Type (0, 0), BuildingBlock: OJICUG_clean_linker_0, # of connection points: 2
#     Edge 25, Type (0, 0), BuildingBlock: OJICUG_clean_linker_0, # of connection points: 2
#     Edge 26, Type (0, 0), BuildingBlock: OJICUG_clean_linker_0, # of connection points: 2
#     Edge 27, Type (0, 0), BuildingBlock: OJICUG_clean_linker_0, # of connection points: 2
#     Edge 28, Type (0, 0), BuildingBlock: OJICUG_clean_linker_0, # of connection points: 2
#     Edge 29, Type (0, 0), BuildingBlock: OJICUG_clean_linker_0, # of connection points: 2
#     Edge 30, Type (0, 0), BuildingBlock: OJICUG_clean_linker_0, # of connection points: 2
#     Edge 31, Type (0, 0), BuildingBlock: OJICUG_clean_linker_0, # of connection points: 2
#     Edge 32, Type (0, 0), BuildingBlock: OJICUG_clean_linker_0, # of connection points: 2
#     Edge 33, Type (0, 0), BuildingBlock: OJICUG_clean_linker_0, # of connection points: 2
#     Edge 34, Type (0, 0), BuildingBlock: OJICUG_clean_linker_0, # of connection points: 2
#     Edge 35, Type (0, 0), BuildingBlock: OJICUG_clean_linker_0, # of connection points: 2
#     Edge 36, Type (0, 0), BuildingBlock: OJICUG_clean_linker_0, # of connection points: 2
#     Edge 37, Type (0, 0), BuildingBlock: OJICUG_clean_linker_0, # of connection points: 2
#     Edge 38, Type (0, 0), BuildingBlock: OJICUG_clean_linker_0, # of connection points: 2
#     Edge 39, Type (0, 0), BuildingBlock: OJICUG_clean_linker_0, # of connection points: 2
#     Edge 40, Type (0, 0), BuildingBlock: OJICUG_clean_linker_0, # of connection points: 2
#     Edge 41, Type (0, 0), BuildingBlock: OJICUG_clean_linker_0, # of connection points: 2
#     Edge 42, Type (0, 0), BuildingBlock: OJICUG_clean_linker_0, # of connection points: 2
#     Edge 43, Type (0, 0), BuildingBlock: OJICUG_clean_linker_0, # of connection points: 2
#     Edge 44, Type (0, 0), BuildingBlock: OJICUG_clean_linker_0, # of connection points: 2
#     Edge 45, Type (0, 0), BuildingBlock: OJICUG_clean_linker_0, # of connection points: 2
#     Edge 46, Type (0, 0), BuildingBlock: OJICUG_clean_linker_0, # of connection points: 2
#     Edge 47, Type (0, 0), BuildingBlock: OJICUG_clean_linker_0, # of connection points: 2
#     Edge 48, Type (0, 0), BuildingBlock: OJICUG_clean_linker_0, # of connection points: 2
#     Edge 49, Type (0, 0), BuildingBlock: OJICUG_clean_linker_0, # of connection points: 2
#     Edge 50, Type (0, 0), BuildingBlock: OJICUG_clean_linker_0, # of connection points: 2
#     Edge 51, Type (0, 0), BuildingBlock: OJICUG_clean_linker_0, # of connection points: 2
#     Edge 52, Type (0, 0), BuildingBlock: OJICUG_clean_linker_0, # of connection points: 2
#     Edge 53, Type (0, 0), BuildingBlock: OJICUG_clean_linker_0, # of connection points: 2
#     Edge 54, Type (0, 0), BuildingBlock: OJICUG_clean_linker_0, # of connection points: 2
#     Edge 55, Type (0, 0), BuildingBlock: OJICUG_clean_linker_0, # of connection points: 2
#     Edge 56, Type (0, 0), BuildingBlock: OJICUG_clean_linker_0, # of connection points: 2
#     Edge 57, Type (0, 0), BuildingBlock: OJICUG_clean_linker_0, # of connection points: 2
#     Edge 58, Type (0, 0), BuildingBlock: OJICUG_clean_linker_0, # of connection points: 2
#     Edge 59, Type (0, 0), BuildingBlock: OJICUG_clean_linker_0, # of connection points: 2
#     Edge 60, Type (0, 0), BuildingBlock: OJICUG_clean_linker_0, # of connection points: 2
#     Edge 61, Type (0, 0), BuildingBlock: OJICUG_clean_linker_0, # of connection points: 2
#     Edge 62, Type (0, 0), BuildingBlock: OJICUG_clean_linker_0, # of connection points: 2
# Relax obj value: 0.169
# Max RMSD: 0.183
# Mean RMSD: 0.183
data_MOF--net-sth--node1-XOMCOT_clean_sbu_1--edge1-OJICUG_clean_linker_0
_symmetry_space_group_name_H-M    P1
_symmetry_Int_Tables_number       1
_symmetry_cell_setting            triclinic
loop_
_symmetry_equiv_pos_as_xyz
'x, y, z'
_cell_length_a     30.766379
_cell_length_b     30.808714
_cell_length_c     58.69937
_cell_angle_alpha  90.021753
_cell_angle_beta   90.037355
_cell_angle_gamma 119.9945
loop_
_atom_site_label
_atom_site_type_symbol
_atom_site_fract_x
_atom_site_fract_y
_atom_site_fract_z
_atom_type_partial_charge
C0 C 0.2426 0.32872 0.23578 0.0
C1 C 0.29019 0.35831 0.22713 0.0
N2 N 0.28641 0.36532 0.20471 0.0
N3 N 0.20861 0.31767 0.21901 0.0
C4 C 0.2365 0.34044 0.2003 0.0
H5 H 0.23353 0.31407 0.25293 0.0
Co6 Co 0.13923 0.27064 0.21991 0.0
C7 C 0.09586 0.33443 0.20685 0.0
O8 O 0.07285 0.32406 0.22655 0.0
N9 N 0.06813 0.2218 0.21974 0.0
C10 C 0.98535 0.1792 0.22608 0.0
C11 C 1.03046 0.21904 0.23278 0.0
C12 C 0.04386 0.18223 0.20526 0.0
N13 N 0.99377 0.15597 0.20872 0.0
O14 O 0.14845 0.23912 0.19359 0.0
H15 H 1.03467 0.24375 0.24669 0.0
H16 H 0.06208 0.17233 0.19222 0.0
O17 O 0.12424 0.31622 0.20175 0.0
C18 C 0.16099 0.21039 0.20393 0.0
O19 O 0.16137 0.2103 0.22632 0.0
N20 N 0.1347 0.29694 0.24816 0.0
C21 C 0.14038 0.32504 0.29381 0.0
C22 C 0.15724 0.36123 0.2764 0.0
C23 C 0.15491 0.34647 0.25363 0.0
C24 C 0.12028 0.2619 0.26496 0.0
C25 C 0.1212 0.27476 0.28771 0.0
H26 H 0.17085 0.37479 0.24049 0.0
H27 H 0.10821 0.22338 0.26067 0.0
H28 H 0.22043 0.33681 0.18352 0.0
H29 H 0.32496 0.37092 0.23635 0.0
H30 H 0.94936 0.167 0.23407 0.0
H31 H 0.17409 0.40073 0.28035 0.0
H32 H 0.10775 0.24539 0.3004 0.0
C33 C 0.73254 0.92397 0.23709 0.0
C34 C 0.70331 0.94306 0.22932 0.0
N35 N 0.69498 0.93339 0.2068 0.0
N36 N 0.74213 0.90127 0.21978 0.0
C37 C 0.71881 0.90765 0.20156 0.0
H38 H 0.74763 0.9283 0.25412 0.0
Co39 Co 0.7884 0.87789 0.21995 0.0
C40 C 0.72258 0.77099 0.20673 0.0
O41 O 0.7326 0.75791 0.22641 0.0
N42 N 0.83649 0.85477 0.21914 0.0
C43 C 0.87838 0.81373 0.2249 0.0
C44 C 0.83856 0.8189 0.23169 0.0
C45 C 0.87645 0.87074 0.20485 0.0
N46 N 0.9023 0.8464 0.20799 0.0
O47 O 0.8194 0.91872 0.19361 0.0
H48 H 0.81366 0.79799 0.24547 0.0
H49 H 0.88705 0.89983 0.19227 0.0
O50 O 0.74152 0.81769 0.20174 0.0
C51 C 0.84906 0.95977 0.20391 0.0
O52 O 0.85026 0.96006 0.2263 0.0
N53 N 0.76281 0.84693 0.24824 0.0
C54 C 0.73612 0.82517 0.29405 0.0
C55 C 0.69923 0.8064 0.27688 0.0
C56 C 0.71331 0.81848 0.25404 0.0
C57 C 0.79861 0.86681 0.26482 0.0
C58 C 0.7864 0.85518 0.28763 0.0
H59 H 0.68453 0.80669 0.2411 0.0
H60 H 0.8372 0.89264 0.2603 0.0
H61 H 0.72216 0.89635 0.18451 0.0
H62 H 0.69065 0.96382 0.23951 0.0
H63 H 0.89026 0.78945 0.23263 0.0
H64 H 0.65976 0.7846 0.28108 0.0
H65 H 0.81627 0.87063 0.30014 0.0
C66 C 0.13901 0.81756 0.2359 0.0
C67 C 0.12124 0.77009 0.22721 0.0
N68 N 0.13092 0.77385 0.20469 0.0
N69 N 0.16068 0.85149 0.21905 0.0
C70 C 0.15505 0.82367 0.20024 0.0
H71 H 0.1341 0.82653 0.25318 0.0
Co72 Co 0.18209 0.92055 0.22034 0.0
C73 C 0.2888 0.96685 0.20645 0.0
O74 O 0.30115 0.99082 0.22594 0.0
N75 N 0.20315 0.99128 0.22068 0.0
C76 C 0.2415 0.07366 0.22769 0.0
C77 C 0.23637 0.02867 0.23438 0.0
C78 C 0.18855 1.01558 0.20585 0.0
N79 N 0.21138 0.06542 0.2097 0.0
O80 O 0.14059 0.91132 0.19433 0.0
H81 H 0.25634 1.02447 0.24855 0.0
H82 H 0.16179 0.9976 0.19225 0.0
O83 O 0.24235 0.93675 0.20167 0.0
C84 C 0.09915 0.89806 0.20463 0.0
O85 O 0.09839 0.89663 0.22701 0.0
N86 N 0.21431 0.92501 0.24819 0.0
C87 C 0.2407 0.91903 0.29304 0.0
C88 C 0.2598 0.90375 0.27494 0.0
C89 C 0.24549 0.90632 0.25256 0.0
C90 C 0.19349 0.93732 0.26575 0.0
C91 C 0.20724 0.93605 0.2882 0.0
H92 H 0.25804 0.89184 0.23884 0.0
H93 H 0.16539 0.94775 0.26227 0.0
H94 H 0.16648 0.83969 0.18341 0.0
H95 H 0.09999 0.73537 0.23651 0.0
H96 H 0.26429 0.10947 0.23599 0.0
H97 H 0.28462 0.88895 0.27809 0.0
H98 H 0.19002 0.94613 0.30174 0.0
C99 C 0.34515 0.23013 0.77955 0.0
C100 C 0.37469 0.27768 0.7882 0.0
N101 N 0.38101 0.27405 0.81071 0.0
N102 N 0.33341 0.1963 0.7964 0.0
C103 C 0.35573 0.22423 0.81517 0.0
H104 H 0.33103 0.22101 0.7623 0.0
Co105 Co 0.28617 0.1271 0.79518 0.0
C106 C 0.34785 0.08209 0.80911 0.0
O107 O 0.33668 0.0583 0.78958 0.0
N108 N 0.23693 0.05624 0.7949 0.0
C109 C 0.19348 0.97382 0.78795 0.0
C110 C 0.23347 1.01888 0.78141 0.0
C111 C 0.19751 0.03184 0.80945 0.0
N112 N 0.17081 0.98197 0.80562 0.0
O113 O 0.25369 0.13613 0.82116 0.0
H114 H 0.25805 1.0232 0.76742 0.0
H115 H 0.18805 0.04978 0.82279 0.0
O116 O 0.33078 0.11157 0.8139 0.0
C117 C 0.22526 0.14895 0.81073 0.0
O118 O 0.22587 0.15001 0.78835 0.0
N119 N 0.3139 0.12279 0.76734 0.0
C120 C 0.34583 0.1291 0.72243 0.0
C121 C 0.38052 0.145 0.74044 0.0
C122 C 0.36384 0.14222 0.76286 0.0
C123 C 0.28041 0.10976 0.74986 0.0
C124 C 0.29523 0.11117 0.72738 0.0
H125 H 0.39105 0.15718 0.77652 0.0
H126 H 0.24176 0.09873 0.75342 0.0
H127 H 0.35152 0.20829 0.832 0.0
H128 H 0.38777 0.31234 0.7789 0.0
H129 H 0.18084 0.93803 0.7797 0.0
H130 H 0.42021 0.16051 0.73718 0.0
H131 H 0.26766 0.10057 0.7139 0.0
C132 C 0.8306 0.12322 0.77963 0.0
C133 C 0.78294 0.10499 0.78825 0.0
N134 N 0.7866 0.11578 0.81067 0.0
N135 N 0.86449 0.14627 0.79641 0.0
C136 C 0.83651 0.14103 0.8151 0.0
H137 H 0.83979 0.11768 0.76249 0.0
Co138 Co 0.93394 0.16885 0.79557 0.0
C139 C 0.97657 0.27589 0.80878 0.0
O140 O 0.99941 0.28874 0.78904 0.0
N141 N 1.00508 0.19133 0.79578 0.0
C142 C 0.08789 0.2319 0.78954 0.0
C143 C 0.04275 0.22672 0.78293 0.0
C144 C 1.02937 0.17564 0.81005 0.0
N145 N 0.07948 0.19971 0.80664 0.0
O146 O 0.92477 0.12799 0.82183 0.0
H147 H 1.0385 0.24748 0.76916 0.0
H148 H 1.01116 0.14706 0.82287 0.0
O149 O 0.94855 0.22927 0.81382 0.0
C150 C 0.91246 0.08685 0.81142 0.0
O151 O 0.91226 0.08655 0.78903 0.0
N152 N 0.93846 0.19972 0.76735 0.0
C153 C 0.93301 0.2221 0.72168 0.0
C154 C 0.91569 0.24115 0.73905 0.0
C155 C 0.91792 0.22874 0.76182 0.0
C156 C 0.95336 0.17939 0.75058 0.0
C157 C 0.95256 0.19134 0.72784 0.0
H158 H 0.90165 0.24089 0.77493 0.0
H159 H 0.9657 0.15315 0.7549 0.0
H160 H 0.85251 0.15352 0.83189 0.0
H161 H 0.74823 0.08268 0.77902 0.0
H162 H 0.1239 0.25596 0.78164 0.0
H163 H 0.89856 0.26354 0.73505 0.0
H164 H 0.96638 0.17565 0.71518 0.0
C165 C 0.93547 0.71648 0.77933 0.0
C166 C 0.95335 0.68689 0.78807 0.0
N167 N 0.94345 0.68089 0.81057 0.0
N168 N 0.91352 0.72858 0.79613 0.0
C169 C 0.91909 0.70641 0.81496 0.0
H170 H 0.94047 0.73039 0.76206 0.0
Co171 Co 0.89178 0.77601 0.79486 0.0
C172 C 0.7851 0.715 0.80873 0.0
O173 O 0.77258 0.72642 0.78924 0.0
N174 N 0.87037 0.82546 0.79457 0.0
C175 C 0.8316 0.8692 0.78769 0.0
C176 C 0.83676 0.82932 0.781 0.0
C177 C 0.88512 0.86452 0.80932 0.0
N178 N 0.86207 0.89138 0.80555 0.0
O179 O 0.93341 0.80844 0.82082 0.0
H180 H 0.81664 0.805 0.76691 0.0
H181 H 0.91218 0.87355 0.82281 0.0
O182 O 0.83163 0.73178 0.81354 0.0
C183 C 0.97462 0.83662 0.81036 0.0
O184 O 0.97491 0.83586 0.78797 0.0
N185 N 0.85955 0.74816 0.76701 0.0
C186 C 0.83362 0.71566 0.72214 0.0
C187 C 0.81484 0.6813 0.74023 0.0
C188 C 0.82889 0.69825 0.76262 0.0
C189 C 0.87999 0.78135 0.74946 0.0
C190 C 0.86642 0.76624 0.727 0.0
H191 H 0.81665 0.67126 0.77633 0.0
H192 H 0.9077 0.81996 0.75294 0.0
H193 H 0.90743 0.71089 0.83177 0.0
H194 H 0.97481 0.67354 0.77881 0.0
H195 H 0.80855 0.88202 0.77947 0.0
H196 H 0.79054 0.64164 0.73706 0.0
H197 H 0.88337 0.79356 0.71346 0.0
C198 C 0.90931 0.66191 0.56895 0.0
C199 C 0.95694 0.69153 0.56035 0.0
N200 N 0.95324 0.69883 0.53795 0.0
N201 N 0.87539 0.65113 0.55218 0.0
C202 C 0.90334 0.67409 0.53351 0.0
H203 H 0.90018 0.64704 0.58606 0.0
Co204 Co 0.80599 0.60416 0.553 0.0
C205 C 0.76296 0.66836 0.54005 0.0
O206 O 0.74029 0.65839 0.55983 0.0
N207 N 0.7349 0.55542 0.55273 0.0
C208 C 0.65205 0.51313 0.55887 0.0
C209 C 0.69715 0.55289 0.56563 0.0
C210 C 0.71069 0.51578 0.53828 0.0
N211 N 0.66056 0.48973 0.54162 0.0
O212 O 0.81527 0.57294 0.52659 0.0
H213 H 0.70131 0.57768 0.5795 0.0
H214 H 0.72898 0.50571 0.52535 0.0
O215 O 0.79109 0.64989 0.53492 0.0
C216 C 0.82772 0.54404 0.53682 0.0
O217 O 0.82795 0.54356 0.55921 0.0
N218 N 0.80138 0.63019 0.58132 0.0
C219 C 0.80713 0.65786 0.62706 0.0
C220 C 0.82429 0.69424 0.60972 0.0
C221 C 0.82189 0.67969 0.58692 0.0
C222 C 0.7866 0.59493 0.59805 0.0
C223 C 0.78756 0.60759 0.62083 0.0
H224 H 0.83806 0.70814 0.57384 0.0
H225 H 0.77428 0.55639 0.59366 0.0
H226 H 0.88732 0.67068 0.51674 0.0
H227 H 0.99168 0.70395 0.56956 0.0
H228 H 0.61598 0.50109 0.56674 0.0
H229 H 0.84143 0.73373 0.61376 0.0
H230 H 0.77386 0.57806 0.63345 0.0
C231 C 0.39731 0.25783 0.56908 0.0
C232 C 0.3678 0.27599 0.56049 0.0
N233 N 0.36046 0.2651 0.53808 0.0
N234 N 0.40799 0.23471 0.55229 0.0
C235 C 0.38507 0.23985 0.53362 0.0
H236 H 0.4122 0.26347 0.5862 0.0
Co237 Co 0.45486 0.21216 0.55313 0.0
C238 C 0.39024 0.1049 0.54019 0.0
O239 O 0.40032 0.09225 0.55996 0.0
N240 N 0.50348 0.18969 0.55295 0.0
C241 C 0.5458 0.1493 0.55935 0.0
C242 C 0.50584 0.15448 0.5659 0.0
C243 C 0.54341 0.20525 0.53867 0.0
N244 N 0.56951 0.18129 0.54219 0.0
O245 O 0.48621 0.25255 0.52671 0.0
H246 H 0.48091 0.13389 0.57972 0.0
H247 H 0.55372 0.23369 0.52578 0.0
O248 O 0.40879 0.15147 0.53507 0.0
C249 C 0.51517 0.29395 0.53692 0.0
O250 O 0.51553 0.29481 0.5593 0.0
N251 N 0.42892 0.18174 0.58145 0.0
C252 C 0.40191 0.1601 0.62723 0.0
C253 C 0.36521 0.14062 0.60997 0.0
C254 C 0.37944 0.15266 0.58714 0.0
C255 C 0.46444 0.20251 0.5981 0.0
C256 C 0.45212 0.19094 0.6209 0.0
H257 H 0.35078 0.14017 0.57411 0.0
H258 H 0.50295 0.22879 0.59364 0.0
H259 H 0.38842 0.22728 0.51684 0.0
H260 H 0.3555 0.29833 0.56972 0.0
H261 H 0.55783 0.1254 0.56736 0.0
H262 H 0.32575 0.11815 0.6141 0.0
H263 H 0.48187 0.20696 0.63346 0.0
C264 C 0.80573 0.15344 0.57062 0.0
C265 C 0.78698 0.10529 0.56274 0.0
N266 N 0.79544 0.10686 0.54011 0.0
N267 N 0.82704 0.18588 0.55323 0.0
C268 C 0.82015 0.15641 0.53488 0.0
H269 H 0.80216 0.16394 0.5878 0.0
Co270 Co 0.84941 0.25523 0.55383 0.0
C271 C 0.95582 0.29978 0.53973 0.0
O272 O 0.96855 0.32429 0.55907 0.0
N273 N 0.87127 0.32616 0.55352 0.0
C274 C 0.9102 0.40878 0.55995 0.0
C275 C 0.90508 0.36394 0.56688 0.0
C276 C 0.85636 0.3501 0.53864 0.0
N277 N 0.8795 0.40008 0.54215 0.0
O278 O 0.80751 0.24528 0.52789 0.0
H279 H 0.92527 0.36008 0.58104 0.0
H280 H 0.829 0.33172 0.5253 0.0
O281 O 0.90922 0.26996 0.53505 0.0
C282 C 0.76649 0.23319 0.53833 0.0
O283 O 0.76641 0.23326 0.56072 0.0
N284 N 0.88204 0.26053 0.58167 0.0
C285 C 0.90787 0.25439 0.6266 0.0
C286 C 0.9265 0.23836 0.60859 0.0
C287 C 0.91249 0.24104 0.58618 0.0
C288 C 0.86196 0.27398 0.59913 0.0
C289 C 0.87546 0.27262 0.62162 0.0
H290 H 0.92443 0.22575 0.57256 0.0
H291 H 0.83442 0.2851 0.59556 0.0
H292 H 0.83032 0.1711 0.51777 0.0
H293 H 0.76731 0.07178 0.57296 0.0
H294 H 0.93326 0.44481 0.56803 0.0
H295 H 0.95053 0.22269 0.61186 0.0
H296 H 0.85865 0.28336 0.63508 0.0
C297 C 1.01027 0.5613 0.11166 0.0
C298 C 0.0395 0.60946 0.11956 0.0
N299 N 0.04635 0.60791 0.1422 0.0
N300 N 0.99917 0.52886 0.12904 0.0
C301 C 1.02163 0.55835 0.14742 0.0
H302 H 0.99625 0.55078 0.09446 0.0
Co303 Co 0.95232 0.45947 0.12835 0.0
C304 C 1.01439 0.41521 0.1426 0.0
O305 O 1.003 0.39093 0.1232 0.0
N306 N 0.90336 0.38852 0.12852 0.0
C307 C 0.85989 0.30596 0.1219 0.0
C308 C 0.89983 0.3509 0.11519 0.0
C309 C 0.86404 0.3644 0.14313 0.0
N310 N 0.83731 0.31445 0.1395 0.0
O311 O 0.92013 0.46911 0.15426 0.0
H312 H 0.92424 0.35495 0.10117 0.0
H313 H 0.85458 0.38261 0.15635 0.0
O314 O 0.9974 0.44483 0.14723 0.0
C315 C 0.8911 0.48112 0.14384 0.0
O316 O 0.89093 0.48117 0.12145 0.0
N317 N 0.97989 0.45445 0.10056 0.0
C318 C 1.01197 0.46039 0.05568 0.0
C319 C 0.04661 0.47661 0.07372 0.0
C320 C 1.02987 0.47403 0.0961 0.0
C321 C 0.94637 0.44091 0.08306 0.0
C322 C 0.96129 0.44217 0.0606 0.0
H323 H 0.05707 0.48939 0.10975 0.0
H324 H 0.90767 0.42972 0.08657 0.0
H325 H 1.01708 0.54366 0.16452 0.0
H326 H 0.05329 0.64298 0.10934 0.0
H327 H 0.84716 0.27004 0.11376 0.0
H328 H 0.08634 0.49229 0.07049 0.0
H329 H 0.93373 0.43129 0.0471 0.0
C330 C 0.49893 0.45687 0.11163 0.0
C331 C 0.45065 0.43767 0.11949 0.0
N332 N 0.45216 0.44698 0.14205 0.0
N333 N 0.53139 0.47928 0.12895 0.0
C334 C 0.50182 0.47263 0.14724 0.0
H335 H 0.50954 0.45279 0.09455 0.0
Co336 Co 0.60105 0.50263 0.12867 0.0
C337 C 0.64248 0.60938 0.14211 0.0
O338 O 0.66582 0.62254 0.1225 0.0
N339 N 0.67231 0.5257 0.12937 0.0
C340 C 0.75523 0.56649 0.12344 0.0
C341 C 0.7102 0.56143 0.11674 0.0
C342 C 0.69638 0.50972 0.14362 0.0
N343 N 0.74656 0.53389 0.14038 0.0
O344 O 0.59132 0.46151 0.15489 0.0
H345 H 0.70617 0.58235 0.10298 0.0
H346 H 0.67792 0.48069 0.15624 0.0
O347 O 0.61453 0.56266 0.14702 0.0
C348 C 0.57985 0.4206 0.14446 0.0
O349 O 0.58072 0.42062 0.12207 0.0
N350 N 0.60629 0.53389 0.10046 0.0
C351 C 0.60131 0.55636 0.05476 0.0
C352 C 0.58343 0.57504 0.07205 0.0
C353 C 0.58545 0.5626 0.09484 0.0
C354 C 0.62191 0.51406 0.08377 0.0
C355 C 0.62131 0.52604 0.06101 0.0
H356 H 0.56864 0.57434 0.10786 0.0
H357 H 0.63452 0.48806 0.08815 0.0
H358 H 0.51664 0.48368 0.16429 0.0
H359 H 0.41713 0.41707 0.10931 0.0
H360 H 0.79134 0.59066 0.11564 0.0
H361 H 0.56596 0.59708 0.06797 0.0
H362 H 0.63555 0.51065 0.0484 0.0
C363 C 0.60159 0.04949 0.11299 0.0
C364 C 0.61949 1.01994 0.12173 0.0
N365 N 0.6097 1.01405 0.14425 0.0
N366 N 0.57971 0.06168 0.12979 0.0
C367 C 0.58536 0.03961 0.14863 0.0
H368 H 0.60651 0.06331 0.0957 0.0
Co369 Co 0.55797 0.1091 0.12844 0.0
C370 C 0.45134 0.04829 0.1424 0.0
O371 O 0.43874 0.05948 0.12288 0.0
N372 N 0.53657 0.15856 0.12807 0.0
C373 C 0.49785 0.20229 0.12105 0.0
C374 C 0.50295 0.16232 0.11446 0.0
C375 C 0.55138 0.19776 0.14273 0.0
N376 N 0.52837 0.22464 0.13887 0.0
O377 O 0.59959 0.14165 0.15439 0.0
H378 H 0.48278 0.13787 0.10041 0.0
H379 H 0.57847 0.2069 0.15622 0.0
O380 O 0.49788 0.06505 0.14719 0.0
C381 C 0.64084 0.16982 0.14397 0.0
O382 O 0.64123 0.16908 0.12159 0.0
N383 N 0.52569 0.08108 0.10062 0.0
C384 C 0.49943 0.04833 0.0558 0.0
C385 C 0.48071 1.01408 0.07394 0.0
C386 C 0.49494 0.03116 0.0963 0.0
C387 C 0.54612 0.11414 0.08303 0.0
C388 C 0.5324 0.09891 0.06059 0.0
H389 H 0.48271 1.00425 0.11005 0.0
H390 H 0.57391 0.15275 0.08645 0.0
H391 H 0.5738 0.04418 0.16545 0.0
H392 H 0.6409 1.00654 0.11248 0.0
H393 H 0.47482 0.21506 0.11276 0.0
H394 H 0.45628 0.97442 0.07082 0.0
H395 H 0.54933 0.12615 0.04702 0.0
C396 C 0.57413 0.99366 0.90369 0.0
C397 C 0.62237 1.02291 0.89584 0.0
N398 N 0.62081 0.03087 0.87331 0.0
N399 N 0.54163 0.98367 0.8864 0.0
C400 C 0.57114 1.00678 0.86813 0.0
H401 H 0.56357 0.97883 0.92076 0.0
Co402 Co 0.47201 0.93723 0.88667 0.0
C403 C 0.43008 1.00222 0.87346 0.0
O404 O 0.40686 0.99201 0.89311 0.0
N405 N 0.4008 0.88892 0.88593 0.0
C406 C 0.31785 0.84669 0.89178 0.0
C407 C 0.36284 0.88646 0.89864 0.0
C408 C 0.37682 0.84925 0.87148 0.0
N409 N 0.32662 0.82319 0.87466 0.0
O410 O 0.48186 0.90628 0.86032 0.0
H411 H 0.36678 0.91116 0.91251 0.0
H412 H 0.39535 0.83905 0.85872 0.0
O413 O 0.4582 0.98365 0.86848 0.0
C414 C 0.49347 0.87677 0.87057 0.0
O415 O 0.49264 0.87557 0.89295 0.0
N416 N 0.46669 0.96298 0.91497 0.0
C417 C 0.47201 0.99037 0.96073 0.0
C418 C 0.48963 0.02689 0.94345 0.0
C419 C 0.48744 1.01247 0.92064 0.0
C420 C 0.45128 0.92754 0.93164 0.0
C421 C 0.45206 0.94009 0.95443 0.0
H422 H 0.50409 0.04103 0.90763 0.0
H423 H 0.43874 0.88898 0.92721 0.0
H424 H 0.55629 1.00312 0.8511 0.0
H425 H 0.6559 0.03582 0.90602 0.0
H426 H 0.28169 0.83461 0.89957 0.0
H427 H 0.50707 0.06637 0.94754 0.0
H428 H 0.438 0.91047 0.96702 0.0
C429 C 0.06553 0.59033 0.90358 0.0
C430 C 1.03632 0.60939 0.89575 0.0
N431 N 1.02833 0.59996 0.8732 0.0
N432 N 0.07546 0.56788 0.88626 0.0
C433 C 0.05235 0.57438 0.868 0.0
H434 H 0.08038 0.59453 0.92065 0.0
Co435 Co 0.12188 0.5447 0.88656 0.0
C436 C 0.05676 0.43781 0.87329 0.0
O437 O 0.06695 0.42483 0.89295 0.0
N438 N 0.17017 0.5218 0.88592 0.0
C439 C 0.21242 0.48121 0.89195 0.0
C440 C 0.1725 0.4863 0.89865 0.0
C441 C 0.21007 0.53763 0.87161 0.0
N442 N 0.23615 0.51357 0.8749 0.0
O443 O 0.15296 0.58546 0.86023 0.0
H444 H 0.14767 0.46553 0.91248 0.0
H445 H 0.22047 0.56644 0.8589 0.0
O446 O 0.07533 0.48447 0.86832 0.0
C447 C 0.18252 0.62663 0.87046 0.0
O448 O 0.18365 0.62717 0.89284 0.0
N449 N 0.09608 0.51368 0.91483 0.0
C450 C 0.06892 0.49147 0.96057 0.0
C451 C 1.03225 0.47248 0.9433 0.0
C452 C 0.04656 0.4848 0.9205 0.0
C453 C 0.13164 0.53384 0.9315 0.0
C454 C 0.11921 0.52201 0.95427 0.0
H455 H 1.01791 0.47281 0.90749 0.0
H456 H 0.17021 0.55997 0.92707 0.0
H457 H 0.05598 0.56329 0.85094 0.0
H458 H 1.02343 0.62997 0.90593 0.0
H459 H 0.22448 0.45721 0.89981 0.0
H460 H 0.99275 0.45027 0.94741 0.0
H461 H 0.14892 0.53765 0.96686 0.0
C462 C 0.47283 0.48668 0.90368 0.0
C463 C 0.45403 0.43854 0.89579 0.0
N464 N 0.46232 0.44011 0.87315 0.0
N465 N 0.49401 0.51913 0.88629 0.0
C466 C 0.48699 0.48966 0.86791 0.0
H467 H 0.46937 0.49716 0.92088 0.0
Co468 Co 0.51637 0.58848 0.88696 0.0
C469 C 0.62275 0.6332 0.87279 0.0
O470 O 0.63553 0.6576 0.89216 0.0
N471 N 0.53821 0.6594 0.88675 0.0
C472 C 0.57705 0.74196 0.89335 0.0
C473 C 0.572 0.69709 0.90017 0.0
C474 C 0.52325 0.68344 0.87195 0.0
N475 N 0.54632 0.7334 0.87557 0.0
O476 O 0.47452 0.57867 0.86102 0.0
H477 H 0.5922 0.69313 0.91429 0.0
H478 H 0.49588 0.66515 0.85861 0.0
O479 O 0.57615 0.60334 0.86814 0.0
C480 C 0.43343 0.5665 0.87142 0.0
O481 O 0.43321 0.56643 0.89381 0.0
N482 N 0.54903 0.59365 0.91478 0.0
C483 C 0.5752 0.58767 0.95967 0.0
C484 C 0.59381 0.57172 0.94163 0.0
C485 C 0.57962 0.5743 0.91924 0.0
C486 C 0.5289 0.60694 0.93228 0.0
C487 C 0.54256 0.60565 0.95475 0.0
H488 H 0.5916 0.55912 0.90559 0.0
H489 H 0.50124 0.61794 0.92875 0.0
H490 H 0.49703 0.50436 0.85081 0.0
H491 H 0.43444 0.40503 0.90602 0.0
H492 H 0.60006 0.77791 0.9015 0.0
H493 H 0.61801 0.55623 0.94485 0.0
H494 H 0.52573 0.61631 0.96824 0.0
C495 C 0.67904 0.89716 0.44639 0.0
C496 C 0.70857 0.94466 0.45509 0.0
N497 N 0.71459 0.94092 0.47761 0.0
N498 N 0.66699 0.86324 0.46322 0.0
C499 C 0.68912 0.89109 0.48204 0.0
H500 H 0.66513 0.88814 0.42911 0.0
Co501 Co 0.61958 0.79411 0.46188 0.0
C502 C 0.6806 0.74843 0.47583 0.0
O503 O 0.66926 0.72461 0.4563 0.0
N504 N 0.57015 0.7233 0.46144 0.0
C505 C 0.52639 0.64099 0.45424 0.0
C506 C 0.56647 0.68607 0.44779 0.0
C507 C 0.53077 0.69881 0.476 0.0
N508 N 0.50387 0.649 0.47202 0.0
O509 O 0.58708 0.803 0.48787 0.0
H510 H 0.591 0.69048 0.43376 0.0
H511 H 0.52147 0.71664 0.48945 0.0
O512 O 0.66389 0.77821 0.4806 0.0
C513 C 0.55878 0.81609 0.47755 0.0
O514 O 0.55943 0.81749 0.45517 0.0
N515 N 0.64747 0.78994 0.43406 0.0
C516 C 0.67968 0.79589 0.38921 0.0
C517 C 0.71419 0.81147 0.4073 0.0
C518 C 0.69738 0.8089 0.42967 0.0
C519 C 0.6142 0.77738 0.41651 0.0
C520 C 0.62915 0.77863 0.39406 0.0
H521 H 0.72447 0.82356 0.44339 0.0
H522 H 0.57562 0.76673 0.42 0.0
H523 H 0.68465 0.87507 0.49887 0.0
H524 H 0.72185 0.97936 0.4458 0.0
H525 H 0.51359 0.6053 0.44587 0.0
H526 H 0.75384 0.82648 0.40412 0.0
H527 H 0.60174 0.76832 0.38053 0.0
C528 C 0.16611 0.7902 0.44507 0.0
C529 C 0.11779 0.77098 0.45288 0.0
N530 N 0.11918 0.78053 0.47541 0.0
N531 N 0.19848 0.81288 0.46239 0.0
C532 C 0.16882 0.80635 0.48062 0.0
H533 H 0.17683 0.78596 0.42803 0.0
Co534 Co 0.26816 0.83635 0.46222 0.0
C535 C 0.30912 0.94312 0.47558 0.0
O536 O 0.33211 0.9564 0.45589 0.0
N537 N 0.33942 0.85956 0.46305 0.0
C538 C 0.42242 0.9008 0.45737 0.0
C539 C 0.3774 0.89566 0.4506 0.0
C540 C 0.36341 0.84344 0.47726 0.0
N541 N 0.41364 0.86788 0.47417 0.0
O542 O 0.25833 0.7954 0.48851 0.0
H543 H 0.37342 0.91674 0.43689 0.0
H544 H 0.34488 0.81415 0.48975 0.0
O545 O 0.28146 0.89637 0.48052 0.0
C546 C 0.24703 0.75445 0.47816 0.0
O547 O 0.24817 0.75433 0.45578 0.0
N548 N 0.27352 0.8675 0.43395 0.0
C549 C 0.26841 0.88949 0.38817 0.0
C550 C 0.25016 0.90795 0.40539 0.0
C551 C 0.25227 0.89578 0.42821 0.0
C552 C 0.28959 0.84792 0.41733 0.0
C553 C 0.28894 0.85968 0.39454 0.0
H554 H 0.23518 0.90734 0.44117 0.0
H555 H 0.30252 0.82221 0.42179 0.0
H556 H 0.18357 0.81762 0.49767 0.0
H557 H 0.08433 0.75018 0.44267 0.0
H558 H 0.45861 0.92524 0.4497 0.0
H559 H 0.2323 0.92959 0.40124 0.0
H560 H 0.30349 0.84447 0.382 0.0
C561 C 0.26817 0.38504 0.44485 0.0
C562 C 0.28706 0.35581 0.45281 0.0
N563 N 0.27877 0.34923 0.47546 0.0
N564 N 0.24692 0.39638 0.4622 0.0
C565 C 0.254 0.3741 0.48062 0.0
H566 H 0.27161 0.39885 0.42763 0.0
Co567 Co 0.22437 0.44327 0.46151 0.0
C568 C 0.11805 0.38138 0.47569 0.0
O569 O 0.10519 0.39301 0.45635 0.0
N570 N 0.20233 0.49225 0.46173 0.0
C571 C 0.16333 0.53589 0.45518 0.0
C572 C 0.16839 0.49604 0.44837 0.0
C573 C 0.21735 0.53132 0.47649 0.0
N574 N 0.1942 0.55817 0.47291 0.0
O575 O 0.26639 0.4755 0.48738 0.0
H576 H 0.14811 0.47181 0.43427 0.0
H577 H 0.24485 0.54049 0.48979 0.0
O578 O 0.1647 0.39831 0.48035 0.0
C579 C 0.30728 0.50433 0.47682 0.0
O580 O 0.30707 0.50429 0.45444 0.0
N581 N 0.19165 0.41564 0.4337 0.0
C582 C 0.16573 0.38324 0.38882 0.0
C583 C 0.14731 0.34878 0.40688 0.0
C584 C 0.16135 0.36569 0.42927 0.0
C585 C 0.21152 0.449 0.41619 0.0
C586 C 0.19797 0.43391 0.39372 0.0
H587 H 0.14956 0.33861 0.44293 0.0
H588 H 0.23896 0.4877 0.41968 0.0
H589 H 0.24389 0.37886 0.4977 0.0
H590 H 0.30672 0.34187 0.4426 0.0
H591 H 0.1402 0.54875 0.44706 0.0
H592 H 0.12343 0.30907 0.40368 0.0
H593 H 0.21462 0.46134 0.38021 0.0
C594 C 0.4157 0.44657 0.18007 0.0
C595 C 0.40974 0.42837 0.15759 0.0
H596 H 0.38127 0.44132 0.21251 0.0
C597 C 0.36152 0.39039 0.15079 0.0
H598 H 0.45166 0.47619 0.18603 0.0
C599 C 0.32103 0.37079 0.16599 0.0
C600 C 0.32737 0.38819 0.18855 0.0
H601 H 0.35485 0.37454 0.13387 0.0
H602 H 0.28509 0.34072 0.16022 0.0
C603 C 0.37517 0.42662 0.19534 0.0
C604 C 0.65757 0.93281 0.169 0.0
C605 C 0.67084 0.95176 0.19133 0.0
H606 H 0.62728 0.9372 0.13672 0.0
C607 C 0.66129 0.99022 0.19803 0.0
H608 H 0.66336 0.9028 0.16316 0.0
C609 C 0.64009 1.00958 0.18286 0.0
C610 C 0.62803 0.99143 0.16044 0.0
H611 H 0.67128 1.00663 0.21483 0.0
H612 H 0.63479 0.04004 0.18852 0.0
C613 C 0.63667 0.9525 0.15378 0.0
C614 C 0.07946 0.69822 0.15097 0.0
C615 C 0.07008 0.65033 0.1577 0.0
H616 H 0.10572 0.77449 0.16042 0.0
C617 C 0.08322 0.6447 0.18005 0.0
H618 H 0.06942 0.70451 0.13415 0.0
C619 C 0.10402 0.68532 0.19526 0.0
C620 C 0.11261 0.73284 0.18854 0.0
H621 H 0.07747 0.60892 0.1859 0.0
H622 H 0.1134 0.67949 0.21233 0.0
C623 C 0.10052 0.7388 0.16611 0.0
C624 C 0.46212 0.40342 0.83524 0.0
C625 C 0.44368 0.39768 0.85765 0.0
H626 H 0.45725 0.36871 0.80292 0.0
C627 C 0.40553 0.34963 0.86445 0.0
H628 H 0.49187 0.43931 0.82933 0.0
C629 C 0.38603 0.30904 0.84931 0.0
C630 C 0.40373 0.31512 0.82682 0.0
H631 H 0.38946 0.34322 0.88131 0.0
H632 H 0.35581 0.27323 0.85507 0.0
C633 C 0.44231 0.36278 0.82004 0.0
C634 C 0.69767 0.08774 0.82002 0.0
C635 C 0.7456 0.09749 0.82683 0.0
H636 H 0.62106 0.06033 0.82931 0.0
C637 C 0.75207 0.08662 0.8494 0.0
H638 H 0.69146 0.09618 0.80284 0.0
C639 C 0.71158 0.06554 0.86459 0.0
C640 C 0.66322 0.0549 0.85777 0.0
H641 H 0.78813 0.09279 0.85518 0.0
H642 H 0.71839 0.05654 0.88152 0.0
C643 C 0.65713 0.06697 0.83528 0.0
C644 C 0.99127 0.59961 0.83534 0.0
C645 C 1.00434 0.61842 0.8577 0.0
H646 H 0.96122 0.60416 0.80301 0.0
C647 C 0.99471 0.65682 0.8644 0.0
H648 H 0.99714 0.56965 0.82949 0.0
C649 C 0.97362 0.67625 0.84921 0.0
C650 C 0.96172 0.65822 0.82677 0.0
H651 H 1.00457 0.67315 0.88122 0.0
H652 H 0.96824 0.70666 0.85488 0.0
C653 C 0.97047 0.61936 0.82009 0.0
C654 C 0.75362 0.68781 0.84856 0.0
C655 C 0.74421 0.6855 0.82513 0.0
H656 H 0.72213 0.67237 0.88203 0.0
C657 C 0.69404 0.65904 0.81741 0.0
H658 H 0.7917 0.70767 0.85502 0.0
C659 C 0.65403 0.63857 0.83283 0.0
C660 C 0.66346 0.64457 0.85629 0.0
H661 H 0.68552 0.65598 0.79937 0.0
H662 H 0.61595 0.62087 0.82639 0.0
C663 C 0.71362 0.66772 0.86398 0.0
C664 C 0.4241 0.02738 0.83342 0.0
C665 C 0.41848 0.03127 0.85687 0.0
H666 H 0.40641 0.04099 0.79992 0.0
C667 C 0.39557 0.05853 0.86448 0.0
H668 H 0.44162 1.00683 0.82703 0.0
C669 C 0.37537 0.07824 0.84899 0.0
C670 C 0.37736 0.07076 0.82557 0.0
H671 H 0.39119 0.06276 0.88251 0.0
H672 H 0.35571 0.09668 0.8554 0.0
C673 C 0.40358 0.04678 0.81794 0.0
C674 C 1.00082 0.34697 0.86425 0.0
C675 C 1.02766 0.39715 0.85668 0.0
H676 H 0.96295 0.26906 0.85512 0.0
C677 C 1.03105 0.40667 0.83323 0.0
H678 H 0.99696 0.33831 0.88227 0.0
C679 C 1.01154 0.36682 0.81772 0.0
C680 C 0.98799 0.31664 0.82531 0.0
H681 H 0.05127 0.44474 0.82686 0.0
H682 H 1.01693 0.37548 0.7997 0.0
C683 C 0.98104 0.30712 0.84873 0.0
C684 C 0.66657 0.68014 0.19766 0.0
C685 C 0.69334 0.73036 0.19012 0.0
H686 H 0.62881 0.60226 0.18846 0.0
C687 C 0.69649 0.73996 0.16669 0.0
H688 H 0.66286 0.67142 0.21567 0.0
C689 C 0.6769 0.70016 0.15114 0.0
C690 C 0.65353 0.64995 0.15869 0.0
H691 H 0.71661 0.77805 0.16034 0.0
H692 H 0.68216 0.70889 0.13313 0.0
C693 C 0.64674 0.64034 0.18211 0.0
C694 C 0.32038 0.97186 0.16658 0.0
C695 C 0.32975 0.97863 0.19002 0.0
H696 H 0.3519 0.98841 0.13311 0.0
C697 C 0.37992 1.00246 0.19775 0.0
H698 H 0.28229 0.9536 0.16011 0.0
C699 C 0.41993 1.0223 0.18233 0.0
C700 C 0.41053 1.0191 0.15887 0.0
H701 H 0.3884 1.0077 0.21579 0.0
H702 H 0.458 0.04263 0.18879 0.0
C703 C 0.36039 0.99211 0.15116 0.0
C704 C 0.06062 0.39025 0.19805 0.0
C705 C 0.08421 0.36367 0.19038 0.0
H706 H 1.02054 0.4282 0.18899 0.0
C707 C 0.09089 0.36093 0.16694 0.0
H708 H 0.05545 0.39363 0.21608 0.0
C709 C 0.07075 0.38074 0.15149 0.0
C710 C 0.04386 0.40401 0.15914 0.0
H711 H 0.10901 0.34099 0.16051 0.0
H712 H 0.07437 0.3758 0.13345 0.0
C713 C 0.0408 0.4104 0.18258 0.0
C714 C 1.02846 0.7241 0.48406 0.0
C715 C 0.0767 0.76196 0.49091 0.0
H716 H 0.95197 0.67448 0.49343 0.0
C717 C 0.0826 0.78008 0.51341 0.0
H718 H 1.02179 0.70833 0.46712 0.0
C719 C 0.04203 0.7601 0.52864 0.0
C720 C 0.99423 0.72176 0.52181 0.0
H721 H 0.11856 0.80961 0.5194 0.0
H722 H 0.0481 0.7747 0.54584 0.0
C723 C 0.98793 0.70448 0.49923 0.0
C724 C 0.33519 0.31503 0.48418 0.0
C725 C 0.29747 0.32558 0.49102 0.0
H726 H 0.38467 0.28798 0.49355 0.0
C727 C 0.27955 0.3137 0.51355 0.0
H728 H 0.35087 0.32401 0.46722 0.0
C729 C 0.29948 0.29307 0.5288 0.0
C730 C 0.33762 0.28331 0.52195 0.0
H731 H 0.25014 0.32035 0.51952 0.0
H732 H 0.28499 0.28471 0.546 0.0
C733 C 0.35479 0.2941 0.49936 0.0
C734 C 0.77594 0.02957 0.48705 0.0
C735 C 0.7372 0.98194 0.49376 0.0
H736 H 0.82551 0.10605 0.4964 0.0
C737 C 0.71922 0.97585 0.5162 0.0
H738 H 0.79109 0.0355 0.46997 0.0
C739 C 0.73861 1.01642 0.53135 0.0
C740 C 0.77691 0.06444 0.52461 0.0
H741 H 0.68887 0.94006 0.5219 0.0
H742 H 0.72234 1.01003 0.54818 0.0
C743 C 0.79564 0.07018 0.50225 0.0
C744 C 0.33502 1.01381 0.53124 0.0
C745 C 0.36103 0.06403 0.52367 0.0
H746 H 0.29746 0.93593 0.52204 0.0
C747 C 0.36312 0.07357 0.50026 0.0
H748 H 0.33212 1.00511 0.54924 0.0
C749 C 0.34317 0.03376 0.48472 0.0
C750 C 0.32047 0.9836 0.49226 0.0
H751 H 0.38259 0.11166 0.49389 0.0
H752 H 0.34758 0.04247 0.4667 0.0
C753 C 0.31481 0.97399 0.5157 0.0
C754 C 1.02719 0.32472 0.48442 0.0
C755 C 0.07736 0.35163 0.49213 0.0
H756 H 0.9491 0.28638 0.49339 0.0
C757 C 0.08679 0.35444 0.51557 0.0
H758 H 1.01868 0.32129 0.46637 0.0
C759 C 0.04678 0.33447 0.53099 0.0
C760 C 0.9966 0.31097 0.52329 0.0
H761 H 0.12486 0.37468 0.52202 0.0
H762 H 0.05529 0.33955 0.54904 0.0
C763 C 0.98718 0.3044 0.49984 0.0
C764 C 0.72796 0.72432 0.53117 0.0
C765 C 0.751 0.69721 0.52351 0.0
H766 H 0.68811 0.76251 0.52214 0.0
C767 C 0.75669 0.69351 0.50005 0.0
H768 H 0.72353 0.72841 0.54921 0.0
C769 C 0.73621 0.71299 0.4846 0.0
C770 C 0.70997 0.73691 0.49228 0.0
H771 H 0.77432 0.67309 0.49362 0.0
H772 H 0.73914 0.70739 0.46657 0.0
C773 C 0.70782 0.74415 0.51571 0.0
C774 C 0.13752 0.37841 0.32569 0.0
C775 C 0.14524 0.33937 0.31829 0.0
H776 H 0.13729 0.42249 0.35394 0.0
C777 C 0.158 0.31392 0.33454 0.0
H778 H 0.12708 0.39839 0.31373 0.0
C779 C 0.16279 0.32704 0.35752 0.0
C780 C 0.15574 0.36641 0.36481 0.0
H781 H 0.16554 0.28453 0.32948 0.0
H782 H 0.1738 0.3075 0.36948 0.0
C783 C 0.14296 0.39195 0.34871 0.0
C784 C 0.74912 0.85486 0.33465 0.0
C785 C 0.72253 0.81649 0.31861 0.0
H786 H 0.75674 0.87811 0.36949 0.0
C787 C 0.68288 0.77037 0.32625 0.0
H788 H 0.77906 0.89133 0.32939 0.0
C789 C 0.66975 0.76314 0.34931 0.0
C790 C 0.69629 0.80169 0.3652 0.0
H791 H 0.66203 0.73983 0.31444 0.0
H792 H 0.63867 0.72746 0.35473 0.0
C793 C 0.73638 0.84741 0.35768 0.0
C794 C 0.24643 0.86761 0.32449 0.0
C795 C 0.2516 0.91318 0.31705 0.0
H796 H 0.24569 0.82371 0.3527 0.0
C797 C 0.26332 0.95153 0.33301 0.0
H798 H 0.23632 0.83705 0.31263 0.0
C799 C 0.26939 0.94424 0.35605 0.0
C800 C 0.26338 0.89826 0.36362 0.0
H801 H 0.2676 0.9871 0.32766 0.0
H802 H 0.27886 0.97464 0.36791 0.0
C803 C 0.25187 0.86009 0.3475 0.0
C804 C 0.34922 0.10452 0.65937 0.0
C805 C 0.38821 0.15108 0.65177 0.0
H806 H 0.30567 0.06082 0.68783 0.0
C807 C 0.41423 0.18951 0.66787 0.0
H808 H 0.32883 0.07394 0.64752 0.0
C809 C 0.40167 0.18162 0.69091 0.0
C810 C 0.36229 0.13542 0.69839 0.0
H811 H 0.44362 0.22629 0.66265 0.0
H812 H 0.42159 0.21232 0.70276 0.0
C813 C 0.33623 0.09686 0.68244 0.0
C814 C 0.91584 0.19328 0.68096 0.0
C815 C 0.9282 0.23144 0.69718 0.0
H816 H 0.90039 0.17095 0.64602 0.0
C817 C 0.9356 0.27804 0.68976 0.0
H818 H 0.90856 0.15647 0.68605 0.0
C819 C 0.93022 0.28601 0.66672 0.0
C820 C 0.91783 0.24773 0.65064 0.0
H821 H 0.94572 0.30842 0.7017 0.0
H822 H 0.93563 0.32208 0.66145 0.0
C823 C 0.9111 0.20147 0.65797 0.0
C824 C 0.81075 0.72479 0.68211 0.0
C825 C 0.82321 0.69884 0.69813 0.0
H826 H 0.79488 0.73166 0.64718 0.0
C827 C 0.82957 0.6591 0.69075 0.0
H828 H 0.8056 0.7556 0.68741 0.0
C829 C 0.82448 0.64606 0.66775 0.0
C830 C 0.81213 0.67196 0.65158 0.0
H831 H 0.84028 0.63922 0.70265 0.0
H832 H 0.83154 0.61639 0.66261 0.0
C833 C 0.80502 0.71133 0.65907 0.0
C834 C 0.06825 0.51283 0.02423 0.0
C835 C 1.02859 0.46672 0.03165 0.0
H836 H 0.11071 0.55742 0.99604 0.0
C837 C 1.00254 0.42825 0.01566 0.0
H838 H 0.08819 0.54349 0.0361 0.0
C839 C 1.01579 0.43592 0.99262 0.0
C840 C 0.05507 0.48239 0.98509 0.0
H841 H 0.9718 0.39227 0.021 0.0
H842 H 0.99537 0.40542 0.98073 0.0
C843 C 0.0811 0.52071 1.00122 0.0
C844 C 0.60335 0.61189 0.02277 0.0
C845 C 0.59647 0.56552 0.03024 0.0
H846 H 0.60271 0.65551 0.99444 0.0
C847 C 0.58441 0.52735 0.01407 0.0
H848 H 0.61324 0.64227 0.03469 0.0
C849 C 0.57937 0.53529 0.99107 0.0
C850 C 0.58552 0.5813 0.9837 0.0
H851 H 0.57755 0.4907 0.01919 0.0
H852 H 0.56886 0.50474 0.97916 0.0
C853 C 0.59771 0.61961 0.99973 0.0
C854 C 0.49454 0.99137 0.0244 0.0
C855 C 0.48868 0.03141 0.0318 0.0
H856 H 0.49587 0.94836 0.99625 0.0
C857 C 0.47637 0.05752 0.01581 0.0
H858 H 0.50512 0.97134 0.03628 0.0
C859 C 0.47037 0.044 0.99278 0.0
C860 C 0.47704 1.00438 0.98526 0.0
H861 H 0.47156 0.08854 0.02113 0.0
H862 H 0.46042 0.06451 0.98091 0.0
C863 C 0.48917 0.97825 1.00141 0.0
C864 C 0.23838 0.15233 0.19823 0.0
C865 C 0.20073 0.10168 0.19945 0.0
H866 H 0.25477 0.22849 0.19681 0.0
C867 C 0.15116 0.08869 0.19403 0.0
H868 H 0.27702 0.16334 0.20194 0.0
C869 C 0.13856 0.12612 0.19075 0.0
C870 C 0.17534 0.1769 0.19271 0.0
H871 H 0.12134 0.05007 0.19487 0.0
H872 H 0.09929 0.11528 0.18974 0.0
C873 C 0.22579 0.18962 0.19477 0.0
C874 C 0.86941 0.04505 0.19448 0.0
C875 C 0.88243 1.00755 0.19264 0.0
H876 H 0.89534 0.12262 0.20107 0.0
C877 C 0.93334 1.02185 0.19075 0.0
H878 H 0.83043 0.03492 0.1965 0.0
C879 C 0.97064 0.07201 0.19378 0.0
C880 C 0.95744 0.10852 0.19887 0.0
H881 H 0.94441 0.99362 0.18992 0.0
H882 H 1.00938 0.08103 0.19463 0.0
C883 C 0.90659 0.09511 0.19764 0.0
C884 C 0.96365 0.82089 0.19683 0.0
C885 C 0.95027 0.85823 0.19851 0.0
H886 H 1.02386 0.80492 0.19584 0.0
C887 C 0.9872 0.90829 0.19439 0.0
H888 H 0.93584 0.78191 0.19954 0.0
C889 C 1.03755 0.92132 0.19186 0.0
C890 C 0.05159 0.88451 0.19328 0.0
H891 H 0.9782 0.93794 0.19564 0.0
H892 H 0.06594 0.9606 0.19178 0.0
C893 C 1.01392 0.83394 0.1942 0.0
C894 C 0.16658 0.22586 0.81776 0.0
C895 C 0.11585 0.18833 0.81623 0.0
H896 H 0.24288 0.24217 0.81889 0.0
C897 C 0.10288 0.13845 0.82071 0.0
H898 H 0.17762 0.2647 0.81477 0.0
C899 C 0.14036 0.1257 0.82346 0.0
C900 C 0.1912 0.16261 0.82192 0.0
H901 H 0.06422 0.10868 0.81959 0.0
H902 H 0.12956 0.08647 0.82383 0.0
C903 C 0.20394 0.21308 0.82063 0.0
C904 C 0.93497 1.02492 0.82442 0.0
C905 C 0.89817 0.03896 0.82255 0.0
H906 H 0.95222 0.9661 0.82023 0.0
C907 C 0.84771 1.00128 0.82049 0.0
H908 H 0.97423 0.0533 0.82542 0.0
C909 C 0.83513 0.95142 0.81701 0.0
C910 C 0.87279 0.93837 0.81574 0.0
H911 H 0.81872 1.01122 0.81851 0.0
H912 H 0.79646 0.92384 0.81334 0.0
C913 C 0.92238 0.97491 0.82111 0.0
C914 C 0.08666 0.95863 0.82042 0.0
C915 C 0.12343 0.94566 0.81548 0.0
H916 H 1.00801 0.93202 0.82402 0.0
C917 C 0.1103 0.89499 0.81674 0.0
H918 H 0.09554 0.99725 0.8195 0.0
C919 C 0.06025 0.8577 0.8198 0.0
C920 C 1.02251 0.87045 0.82149 0.0
H921 H 0.13806 0.88398 0.81338 0.0
H922 H 0.05035 0.81882 0.81785 0.0
C923 C 1.03647 0.92121 0.82333 0.0
C924 C 0.89272 0.52381 0.52726 0.0
C925 C 0.84212 0.51073 0.52546 0.0
H926 H 0.94451 0.49807 0.53409 0.0
C927 C 0.80555 0.45986 0.52363 0.0
H928 H 0.92154 0.56277 0.5292 0.0
C929 C 0.81856 0.4227 0.52679 0.0
C930 C 0.86833 0.43603 0.53194 0.0
H931 H 0.76619 0.44876 0.52282 0.0
H932 H 0.78891 0.38402 0.52774 0.0
C933 C 0.90572 0.48677 0.53058 0.0
C934 C 0.57348 0.42922 0.53025 0.0
C935 C 0.62421 0.44231 0.53174 0.0
H936 H 0.4972 0.36939 0.52892 0.0
C937 C 0.6372 0.40554 0.52689 0.0
H938 H 0.56243 0.45695 0.53349 0.0
C939 C 0.59973 0.35544 0.52387 0.0
C940 C 0.54887 0.34148 0.52554 0.0
H941 H 0.67586 0.41434 0.52794 0.0
H942 H 0.61058 0.32704 0.52325 0.0
C943 C 0.53614 0.37923 0.52709 0.0
C944 C 0.70439 0.25559 0.52535 0.0
C945 C 0.71859 0.21895 0.52716 0.0
H946 H 0.64503 0.27225 0.52894 0.0
C947 C 0.68102 0.16842 0.52864 0.0
H948 H 0.73272 0.29488 0.52483 0.0
C949 C 0.6308 0.1554 0.53141 0.0
C950 C 0.61734 0.19275 0.53267 0.0
H951 H 0.6911 0.13956 0.53059 0.0
H952 H 0.60312 0.11656 0.53453 0.0
C953 C 0.65408 0.2426 0.52801 0.0
C954 C 0.87064 0.54583 0.15388 0.0
C955 C 0.8574 0.49521 0.15505 0.0
H956 H 0.845 0.5981 0.14837 0.0
C957 C 0.80645 0.45866 0.15666 0.0
H958 H 0.90967 0.57463 0.15208 0.0
C959 C 0.7693 0.47192 0.15413 0.0
C960 C 0.78271 0.52197 0.1498 0.0
H961 H 0.79529 0.41933 0.15694 0.0
H962 H 0.73054 0.4424 0.15306 0.0
C963 C 0.83361 0.55913 0.15124 0.0
C964 C 0.58878 0.30813 0.15444 0.0
C965 C 0.5392 0.27178 0.14894 0.0
H966 H 0.64091 0.38643 0.15879 0.0
C967 C 0.50174 0.28516 0.14995 0.0
H968 H 0.61847 0.29908 0.15376 0.0
C969 C 0.51457 0.33512 0.15333 0.0
C970 C 0.56507 0.37257 0.15556 0.0
H971 H 0.46308 0.25773 0.14618 0.0
H972 H 0.48579 0.34528 0.15116 0.0
C973 C 0.60161 0.35823 0.15766 0.0
C974 C 0.72627 0.19054 0.15367 0.0
C975 C 0.68868 0.20354 0.15516 0.0
H976 H 0.80407 0.21644 0.14749 0.0
C977 C 0.70286 0.25437 0.1569 0.0
H978 H 0.71619 0.1516 0.15179 0.0
C979 C 0.75315 0.2916 0.15409 0.0
C980 C 0.78981 0.27838 0.14934 0.0
H981 H 0.67452 0.26536 0.15745 0.0
H982 H 0.7622 0.33027 0.15309 0.0
C983 C 0.77643 0.22764 0.15071 0.0
C984 C 0.559 0.85714 0.86119 0.0
C985 C 0.50836 0.84382 0.85924 0.0
H986 H 0.61103 0.83169 0.86798 0.0
C987 C 0.47203 0.79291 0.85719 0.0
H988 H 0.58762 0.89613 0.86332 0.0
C989 C 0.48527 0.75589 0.86023 0.0
C990 C 0.53504 0.76939 0.8655 0.0
H991 H 0.43264 0.78162 0.85627 0.0
H992 H 0.45576 0.71713 0.86099 0.0
C993 C 0.57224 0.82025 0.86438 0.0
C994 C 0.23961 0.76186 0.86353 0.0
C995 C 0.29051 0.77549 0.86493 0.0
H996 H 0.16357 0.70145 0.86247 0.0
C997 C 0.30393 0.73899 0.86019 0.0
H998 H 0.2282 0.78934 0.86669 0.0
C999 C 0.2668 0.68872 0.85735 0.0
C1000 C 0.21583 0.67428 0.85909 0.0
H1001 H 0.3427 0.74816 0.86119 0.0
H1002 H 0.27802 0.66059 0.8568 0.0
C1003 C 0.20259 0.71167 0.86057 0.0
C1004 C 0.3712 0.58873 0.85848 0.0
C1005 C 0.3856 0.55223 0.86017 0.0
H1006 H 0.31155 0.60495 0.86204 0.0
C1007 C 0.3482 0.50161 0.86142 0.0
H1008 H 0.3994 0.62807 0.85815 0.0
C1009 C 0.29786 0.48829 0.86406 0.0
C1010 C 0.28414 0.52543 0.86544 0.0
H1011 H 0.35845 0.47285 0.86328 0.0
H1012 H 0.27028 0.44934 0.86701 0.0
C1013 C 0.32078 0.57545 0.86102 0.0
C1014 C 0.53775 0.88021 0.48793 0.0
C1015 C 0.52476 0.82963 0.48886 0.0
H1016 H 0.51183 0.93229 0.48259 0.0
C1017 C 0.47386 0.79285 0.49026 0.0
H1018 H 0.57676 0.9092 0.48631 0.0
C1019 C 0.43657 0.80591 0.48772 0.0
C1020 C 0.44979 0.85599 0.48361 0.0
H1021 H 0.4629 0.75357 0.49036 0.0
H1022 H 0.39788 0.77628 0.48647 0.0
C1023 C 0.50058 0.8933 0.48529 0.0
C1024 C 0.16828 0.61916 0.48412 0.0
C1025 C 0.20549 0.60546 0.48296 0.0
H1026 H 0.15284 0.67963 0.4853 0.0
C1027 C 0.25526 0.64167 0.48823 0.0
H1028 H 0.12949 0.59186 0.48052 0.0
C1029 C 0.26847 0.69189 0.49135 0.0
C1030 C 0.23212 0.70651 0.48937 0.0
H1031 H 0.28479 0.63239 0.48744 0.0
H1032 H 0.30787 0.71993 0.49229 0.0
C1033 C 0.18149 0.66926 0.48739 0.0
C1034 C 0.44304 0.56189 0.48284 0.0
C1035 C 0.45646 0.61267 0.48185 0.0
H1036 H 0.38279 0.48585 0.48373 0.0
C1037 C 0.41993 0.62582 0.48704 0.0
H1038 H 0.4706 0.55073 0.47928 0.0
C1039 C 0.36968 0.58855 0.48994 0.0
C1040 C 0.35542 0.53776 0.48786 0.0
H1041 H 0.42902 0.66453 0.48634 0.0
H1042 H 0.34139 0.59957 0.49085 0.0
C1043 C 0.39293 0.52474 0.48589 0.0
loop_
_geom_bond_atom_site_label_1
_geom_bond_atom_site_label_2
_geom_bond_distance
_geom_bond_site_symmetry_2
_ccdc_geom_bond_type
C0 C1 1.351 . S
C0 N3 1.368 . S
C0 H5 0.931 . S
C1 C0 1.351 . S
C1 N2 1.373 . S
C1 H29 0.930 . S
N2 C1 1.373 . S
N2 C4 1.340 . S
N3 C0 1.368 . S
N3 C4 1.321 . S
N3 Co6 2.135 . S
C4 N2 1.340 . S
C4 N3 1.321 . S
C4 H28 0.930 . S
H5 C0 0.931 . S
Co6 N3 2.135 . S
Co6 N9 2.121 . S
Co6 O14 2.055 . S
Co6 O17 2.039 . S
Co6 N20 2.140 . S
C7 O8 1.227 . S
C7 O17 1.265 . S
O8 C7 1.227 . S
N9 Co6 2.121 . S
N9 C11 1.375 1_455 S
N9 C12 1.313 . S
C10 C11 1.338 . S
C10 N13 1.377 . S
C10 H30 0.930 . S
C11 N9 1.375 1_655 S
C11 C10 1.338 . S
C11 H15 0.931 1_655 S
C12 N9 1.313 . S
C12 N13 1.344 1_455 S
C12 H16 0.930 . S
N13 C10 1.377 . S
N13 C12 1.344 1_655 S
O14 Co6 2.055 . S
O14 C18 1.253 . S
H15 C11 0.931 1_455 S
H16 C12 0.930 . S
O17 Co6 2.039 . S
O17 C7 1.265 . S
C18 O14 1.253 . S
C18 O19 1.227 . S
O19 C18 1.227 . S
N20 Co6 2.140 . S
N20 C23 1.346 . S
N20 C24 1.345 . S
C21 C22 1.387 . S
C21 C25 1.391 . S
C22 C21 1.387 . S
C22 C23 1.369 . S
C22 H31 0.929 . S
C23 N20 1.346 . S
C23 C22 1.369 . S
C23 H26 0.928 . S
C24 N20 1.345 . S
C24 C25 1.371 . S
C24 H27 0.931 . S
C25 C21 1.391 . S
C25 C24 1.371 . S
C25 H32 0.930 . S
H26 C23 0.928 . S
H27 C24 0.931 . S
H28 C4 0.930 . S
H29 C1 0.930 . S
H30 C10 0.930 . S
H31 C22 0.929 . S
H32 C25 0.930 . S
C33 C34 1.351 . S
C33 N36 1.368 . S
C33 H38 0.931 . S
C34 C33 1.351 . S
C34 N35 1.373 . S
C34 H62 0.930 . S
N35 C34 1.373 . S
N35 C37 1.340 . S
N36 C33 1.368 . S
N36 C37 1.321 . S
N36 Co39 2.135 . S
C37 N35 1.340 . S
C37 N36 1.321 . S
C37 H61 0.930 . S
H38 C33 0.931 . S
Co39 N36 2.135 . S
Co39 N42 2.121 . S
Co39 O47 2.055 . S
Co39 O50 2.039 . S
Co39 N53 2.140 . S
C40 O41 1.227 . S
C40 O50 1.265 . S
O41 C40 1.227 . S
N42 Co39 2.121 . S
N42 C44 1.375 . S
N42 C45 1.313 . S
C43 C44 1.338 . S
C43 N46 1.377 . S
C43 H63 0.930 . S
C44 N42 1.375 . S
C44 C43 1.338 . S
C44 H48 0.931 . S
C45 N42 1.313 . S
C45 N46 1.344 . S
C45 H49 0.930 . S
N46 C43 1.377 . S
N46 C45 1.344 . S
O47 Co39 2.055 . S
O47 C51 1.253 . S
H48 C44 0.931 . S
H49 C45 0.930 . S
O50 Co39 2.039 . S
O50 C40 1.265 . S
C51 O47 1.253 . S
C51 O52 1.227 . S
O52 C51 1.227 . S
N53 Co39 2.140 . S
N53 C56 1.346 . S
N53 C57 1.345 . S
C54 C55 1.387 . S
C54 C58 1.391 . S
C55 C54 1.387 . S
C55 C56 1.369 . S
C55 H64 0.929 . S
C56 N53 1.346 . S
C56 C55 1.369 . S
C56 H59 0.928 . S
C57 N53 1.345 . S
C57 C58 1.371 . S
C57 H60 0.931 . S
C58 C54 1.391 . S
C58 C57 1.371 . S
C58 H65 0.930 . S
H59 C56 0.928 . S
H60 C57 0.931 . S
H61 C37 0.930 . S
H62 C34 0.930 . S
H63 C43 0.930 . S
H64 C55 0.929 . S
H65 C58 0.930 . S
C66 C67 1.351 . S
C66 N69 1.368 . S
C66 H71 0.931 . S
C67 C66 1.351 . S
C67 N68 1.373 . S
C67 H95 0.930 . S
N68 C67 1.373 . S
N68 C70 1.340 . S
N69 C66 1.368 . S
N69 C70 1.321 . S
N69 Co72 2.135 . S
C70 N68 1.340 . S
C70 N69 1.321 . S
C70 H94 0.930 . S
H71 C66 0.931 . S
Co72 N69 2.135 . S
Co72 N75 2.121 . S
Co72 O80 2.055 . S
Co72 O83 2.039 . S
Co72 N86 2.140 . S
C73 O74 1.227 . S
C73 O83 1.265 . S
O74 C73 1.227 . S
N75 Co72 2.121 . S
N75 C77 1.371 1_565 S
N75 C78 1.313 . S
C76 C77 1.361 . S
C76 N79 1.377 . S
C76 H96 0.930 . S
C77 N75 1.371 1_545 S
C77 C76 1.361 . S
C77 H81 0.914 1_545 S
C78 N75 1.313 . S
C78 N79 1.344 1_565 S
C78 H82 0.930 . S
N79 C76 1.377 . S
N79 C78 1.344 1_545 S
O80 Co72 2.055 . S
O80 C84 1.253 . S
H81 C77 0.914 1_565 S
H82 C78 0.930 . S
O83 Co72 2.039 . S
O83 C73 1.265 . S
C84 O80 1.253 . S
C84 O85 1.227 . S
O85 C84 1.227 . S
N86 Co72 2.140 . S
N86 C89 1.346 . S
N86 C90 1.345 . S
C87 C88 1.387 . S
C87 C91 1.391 . S
C88 C87 1.387 . S
C88 C89 1.369 . S
C88 H97 0.929 . S
C89 N86 1.346 . S
C89 C88 1.369 . S
C89 H92 0.928 . S
C90 N86 1.345 . S
C90 C91 1.371 . S
C90 H93 0.931 . S
C91 C87 1.391 . S
C91 C90 1.371 . S
C91 H98 0.930 . S
H92 C89 0.928 . S
H93 C90 0.931 . S
H94 C70 0.930 . S
H95 C67 0.930 . S
H96 C76 0.930 . S
H97 C88 0.929 . S
H98 C91 0.930 . S
C99 C100 1.351 . S
C99 N102 1.368 . S
C99 H104 0.931 . S
C100 C99 1.351 . S
C100 N101 1.373 . S
C100 H128 0.930 . S
N101 C100 1.373 . S
N101 C103 1.340 . S
N102 C99 1.368 . S
N102 C103 1.321 . S
N102 Co105 2.135 . S
C103 N101 1.340 . S
C103 N102 1.321 . S
C103 H127 0.930 . S
H104 C99 0.931 . S
Co105 N102 2.135 . S
Co105 N108 2.121 . S
Co105 O113 2.055 . S
Co105 O116 2.039 . S
Co105 N119 2.140 . S
C106 O107 1.227 . S
C106 O116 1.265 . S
O107 C106 1.227 . S
N108 Co105 2.121 . S
N108 C110 1.375 1_545 S
N108 C111 1.313 . S
C109 C110 1.338 . S
C109 N112 1.377 . S
C109 H129 0.930 . S
C110 N108 1.375 1_565 S
C110 C109 1.338 . S
C110 H114 0.931 1_565 S
C111 N108 1.313 . S
C111 N112 1.344 1_545 S
C111 H115 0.930 . S
N112 C109 1.377 . S
N112 C111 1.344 1_565 S
O113 Co105 2.055 . S
O113 C117 1.253 . S
H114 C110 0.931 1_545 S
H115 C111 0.930 . S
O116 Co105 2.039 . S
O116 C106 1.265 . S
C117 O113 1.253 . S
C117 O118 1.227 . S
O118 C117 1.227 . S
N119 Co105 2.140 . S
N119 C122 1.346 . S
N119 C123 1.345 . S
C120 C121 1.387 . S
C120 C124 1.391 . S
C121 C120 1.387 . S
C121 C122 1.369 . S
C121 H130 0.929 . S
C122 N119 1.346 . S
C122 C121 1.369 . S
C122 H125 0.928 . S
C123 N119 1.345 . S
C123 C124 1.371 . S
C123 H126 0.931 . S
C124 C120 1.391 . S
C124 C123 1.371 . S
C124 H131 0.930 . S
H125 C122 0.928 . S
H126 C123 0.931 . S
H127 C103 0.930 . S
H128 C100 0.930 . S
H129 C109 0.930 . S
H130 C121 0.929 . S
H131 C124 0.930 . S
C132 C133 1.351 . S
C132 N135 1.368 . S
C132 H137 0.931 . S
C133 C132 1.351 . S
C133 N134 1.373 . S
C133 H161 0.930 . S
N134 C133 1.373 . S
N134 C136 1.340 . S
N135 C132 1.368 . S
N135 C136 1.321 . S
N135 Co138 2.135 . S
C136 N134 1.340 . S
C136 N135 1.321 . S
C136 H160 0.930 . S
H137 C132 0.931 . S
Co138 N135 2.135 . S
Co138 N141 2.121 . S
Co138 O146 2.055 . S
Co138 O149 2.039 . S
Co138 N152 2.140 . S
C139 O140 1.227 . S
C139 O149 1.265 . S
O140 C139 1.227 . S
N141 Co138 2.121 . S
N141 C143 1.371 1_655 S
N141 C144 1.313 . S
C142 C143 1.361 . S
C142 N145 1.377 . S
C142 H162 0.930 . S
C143 N141 1.371 1_455 S
C143 C142 1.361 . S
C143 H147 0.914 1_455 S
C144 N141 1.313 . S
C144 N145 1.344 1_655 S
C144 H148 0.930 . S
N145 C142 1.377 . S
N145 C144 1.344 1_455 S
O146 Co138 2.055 . S
O146 C150 1.253 . S
H147 C143 0.914 1_655 S
H148 C144 0.930 . S
O149 Co138 2.039 . S
O149 C139 1.265 . S
C150 O146 1.253 . S
C150 O151 1.227 . S
O151 C150 1.227 . S
N152 Co138 2.140 . S
N152 C155 1.346 . S
N152 C156 1.345 . S
C153 C154 1.387 . S
C153 C157 1.391 . S
C154 C153 1.387 . S
C154 C155 1.369 . S
C154 H163 0.929 . S
C155 N152 1.346 . S
C155 C154 1.369 . S
C155 H158 0.928 . S
C156 N152 1.345 . S
C156 C157 1.371 . S
C156 H159 0.931 . S
C157 C153 1.391 . S
C157 C156 1.371 . S
C157 H164 0.930 . S
H158 C155 0.928 . S
H159 C156 0.931 . S
H160 C136 0.930 . S
H161 C133 0.930 . S
H162 C142 0.930 . S
H163 C154 0.929 . S
H164 C157 0.930 . S
C165 C166 1.351 . S
C165 N168 1.368 . S
C165 H170 0.931 . S
C166 C165 1.351 . S
C166 N167 1.373 . S
C166 H194 0.930 . S
N167 C166 1.373 . S
N167 C169 1.340 . S
N168 C165 1.368 . S
N168 C169 1.321 . S
N168 Co171 2.135 . S
C169 N167 1.340 . S
C169 N168 1.321 . S
C169 H193 0.930 . S
H170 C165 0.931 . S
Co171 N168 2.135 . S
Co171 N174 2.121 . S
Co171 O179 2.055 . S
Co171 O182 2.039 . S
Co171 N185 2.140 . S
C172 O173 1.227 . S
C172 O182 1.265 . S
O173 C172 1.227 . S
N174 Co171 2.121 . S
N174 C176 1.375 . S
N174 C177 1.313 . S
C175 C176 1.338 . S
C175 N178 1.377 . S
C175 H195 0.930 . S
C176 N174 1.375 . S
C176 C175 1.338 . S
C176 H180 0.931 . S
C177 N174 1.313 . S
C177 N178 1.344 . S
C177 H181 0.930 . S
N178 C175 1.377 . S
N178 C177 1.344 . S
O179 Co171 2.055 . S
O179 C183 1.253 . S
H180 C176 0.931 . S
H181 C177 0.930 . S
O182 Co171 2.039 . S
O182 C172 1.265 . S
C183 O179 1.253 . S
C183 O184 1.227 . S
O184 C183 1.227 . S
N185 Co171 2.140 . S
N185 C188 1.346 . S
N185 C189 1.345 . S
C186 C187 1.387 . S
C186 C190 1.391 . S
C187 C186 1.387 . S
C187 C188 1.369 . S
C187 H196 0.929 . S
C188 N185 1.346 . S
C188 C187 1.369 . S
C188 H191 0.928 . S
C189 N185 1.345 . S
C189 C190 1.371 . S
C189 H192 0.931 . S
C190 C186 1.391 . S
C190 C189 1.371 . S
C190 H197 0.930 . S
H191 C188 0.928 . S
H192 C189 0.931 . S
H193 C169 0.930 . S
H194 C166 0.930 . S
H195 C175 0.930 . S
H196 C187 0.929 . S
H197 C190 0.930 . S
C198 C199 1.351 . S
C198 N201 1.368 . S
C198 H203 0.931 . S
C199 C198 1.351 . S
C199 N200 1.373 . S
C199 H227 0.930 . S
N200 C199 1.373 . S
N200 C202 1.340 . S
N201 C198 1.368 . S
N201 C202 1.321 . S
N201 Co204 2.135 . S
C202 N200 1.340 . S
C202 N201 1.321 . S
C202 H226 0.930 . S
H203 C198 0.931 . S
Co204 N201 2.135 . S
Co204 N207 2.121 . S
Co204 O212 2.055 . S
Co204 O215 2.039 . S
Co204 N218 2.140 . S
C205 O206 1.227 . S
C205 O215 1.265 . S
O206 C205 1.227 . S
N207 Co204 2.121 . S
N207 C209 1.375 . S
N207 C210 1.313 . S
C208 C209 1.338 . S
C208 N211 1.377 . S
C208 H228 0.930 . S
C209 N207 1.375 . S
C209 C208 1.338 . S
C209 H213 0.931 . S
C210 N207 1.313 . S
C210 N211 1.344 . S
C210 H214 0.930 . S
N211 C208 1.377 . S
N211 C210 1.344 . S
O212 Co204 2.055 . S
O212 C216 1.253 . S
H213 C209 0.931 . S
H214 C210 0.930 . S
O215 Co204 2.039 . S
O215 C205 1.265 . S
C216 O212 1.253 . S
C216 O217 1.227 . S
O217 C216 1.227 . S
N218 Co204 2.140 . S
N218 C221 1.346 . S
N218 C222 1.345 . S
C219 C220 1.387 . S
C219 C223 1.391 . S
C220 C219 1.387 . S
C220 C221 1.369 . S
C220 H229 0.929 . S
C221 N218 1.346 . S
C221 C220 1.369 . S
C221 H224 0.928 . S
C222 N218 1.345 . S
C222 C223 1.371 . S
C222 H225 0.931 . S
C223 C219 1.391 . S
C223 C222 1.371 . S
C223 H230 0.930 . S
H224 C221 0.928 . S
H225 C222 0.931 . S
H226 C202 0.930 . S
H227 C199 0.930 . S
H228 C208 0.930 . S
H229 C220 0.929 . S
H230 C223 0.930 . S
C231 C232 1.351 . S
C231 N234 1.368 . S
C231 H236 0.931 . S
C232 C231 1.351 . S
C232 N233 1.373 . S
C232 H260 0.930 . S
N233 C232 1.373 . S
N233 C235 1.340 . S
N234 C231 1.368 . S
N234 C235 1.321 . S
N234 Co237 2.135 . S
C235 N233 1.340 . S
C235 N234 1.321 . S
C235 H259 0.930 . S
H236 C231 0.931 . S
Co237 N234 2.135 . S
Co237 N240 2.121 . S
Co237 O245 2.055 . S
Co237 O248 2.039 . S
Co237 N251 2.140 . S
C238 O239 1.227 . S
C238 O248 1.265 . S
O239 C238 1.227 . S
N240 Co237 2.121 . S
N240 C242 1.375 . S
N240 C243 1.313 . S
C241 C242 1.338 . S
C241 N244 1.377 . S
C241 H261 0.930 . S
C242 N240 1.375 . S
C242 C241 1.338 . S
C242 H246 0.931 . S
C243 N240 1.313 . S
C243 N244 1.344 . S
C243 H247 0.930 . S
N244 C241 1.377 . S
N244 C243 1.344 . S
O245 Co237 2.055 . S
O245 C249 1.253 . S
H246 C242 0.931 . S
H247 C243 0.930 . S
O248 Co237 2.039 . S
O248 C238 1.265 . S
C249 O245 1.253 . S
C249 O250 1.227 . S
O250 C249 1.227 . S
N251 Co237 2.140 . S
N251 C254 1.346 . S
N251 C255 1.345 . S
C252 C253 1.387 . S
C252 C256 1.391 . S
C253 C252 1.387 . S
C253 C254 1.369 . S
C253 H262 0.929 . S
C254 N251 1.346 . S
C254 C253 1.369 . S
C254 H257 0.928 . S
C255 N251 1.345 . S
C255 C256 1.371 . S
C255 H258 0.931 . S
C256 C252 1.391 . S
C256 C255 1.371 . S
C256 H263 0.930 . S
H257 C254 0.928 . S
H258 C255 0.931 . S
H259 C235 0.930 . S
H260 C232 0.930 . S
H261 C241 0.930 . S
H262 C253 0.929 . S
H263 C256 0.930 . S
C264 C265 1.351 . S
C264 N267 1.368 . S
C264 H269 0.931 . S
C265 C264 1.351 . S
C265 N266 1.373 . S
C265 H293 0.930 . S
N266 C265 1.373 . S
N266 C268 1.340 . S
N267 C264 1.368 . S
N267 C268 1.321 . S
N267 Co270 2.135 . S
C268 N266 1.340 . S
C268 N267 1.321 . S
C268 H292 0.930 . S
H269 C264 0.931 . S
Co270 N267 2.135 . S
Co270 N273 2.121 . S
Co270 O278 2.055 . S
Co270 O281 2.039 . S
Co270 N284 2.140 . S
C271 O272 1.227 . S
C271 O281 1.265 . S
O272 C271 1.227 . S
N273 Co270 2.121 . S
N273 C275 1.375 . S
N273 C276 1.313 . S
C274 C275 1.338 . S
C274 N277 1.377 . S
C274 H294 0.930 . S
C275 N273 1.375 . S
C275 C274 1.338 . S
C275 H279 0.931 . S
C276 N273 1.313 . S
C276 N277 1.344 . S
C276 H280 0.930 . S
N277 C274 1.377 . S
N277 C276 1.344 . S
O278 Co270 2.055 . S
O278 C282 1.253 . S
H279 C275 0.931 . S
H280 C276 0.930 . S
O281 Co270 2.039 . S
O281 C271 1.265 . S
C282 O278 1.253 . S
C282 O283 1.227 . S
O283 C282 1.227 . S
N284 Co270 2.140 . S
N284 C287 1.346 . S
N284 C288 1.345 . S
C285 C286 1.387 . S
C285 C289 1.391 . S
C286 C285 1.387 . S
C286 C287 1.369 . S
C286 H295 0.929 . S
C287 N284 1.346 . S
C287 C286 1.369 . S
C287 H290 0.928 . S
C288 N284 1.345 . S
C288 C289 1.371 . S
C288 H291 0.931 . S
C289 C285 1.391 . S
C289 C288 1.371 . S
C289 H296 0.930 . S
H290 C287 0.928 . S
H291 C288 0.931 . S
H292 C268 0.930 . S
H293 C265 0.930 . S
H294 C274 0.930 . S
H295 C286 0.929 . S
H296 C289 0.930 . S
C297 C298 1.351 . S
C297 N300 1.368 . S
C297 H302 0.931 . S
C298 C297 1.351 . S
C298 N299 1.373 1_655 S
C298 H326 0.930 . S
N299 C298 1.373 1_455 S
N299 C301 1.340 1_455 S
N300 C297 1.368 . S
N300 C301 1.323 . S
N300 Co303 2.135 . S
C301 N299 1.340 1_655 S
C301 N300 1.323 . S
C301 H325 0.929 1_655 S
H302 C297 0.931 . S
Co303 N300 2.135 . S
Co303 N306 2.121 . S
Co303 O311 2.055 . S
Co303 O314 2.039 . S
Co303 N317 2.140 . S
C304 O305 1.227 . S
C304 O314 1.265 . S
O305 C304 1.227 . S
N306 Co303 2.121 . S
N306 C308 1.375 . S
N306 C309 1.313 . S
C307 C308 1.338 . S
C307 N310 1.377 . S
C307 H327 0.930 . S
C308 N306 1.375 . S
C308 C307 1.338 . S
C308 H312 0.931 . S
C309 N306 1.313 . S
C309 N310 1.344 . S
C309 H313 0.930 . S
N310 C307 1.377 . S
N310 C309 1.344 . S
O311 Co303 2.055 . S
O311 C315 1.253 . S
H312 C308 0.931 . S
H313 C309 0.930 . S
O314 Co303 2.039 . S
O314 C304 1.265 . S
C315 O311 1.253 . S
C315 O316 1.227 . S
O316 C315 1.227 . S
N317 Co303 2.140 . S
N317 C320 1.346 . S
N317 C321 1.345 . S
C318 C319 1.387 1_655 S
C318 C322 1.391 . S
C319 C318 1.387 1_455 S
C319 C320 1.369 1_455 S
C319 H328 0.929 . S
C320 N317 1.346 . S
C320 C319 1.369 1_655 S
C320 H323 0.928 1_655 S
C321 N317 1.345 . S
C321 C322 1.371 . S
C321 H324 0.931 . S
C322 C318 1.391 . S
C322 C321 1.371 . S
C322 H329 0.930 . S
H323 C320 0.928 1_455 S
H324 C321 0.931 . S
H325 C301 0.929 1_455 S
H326 C298 0.930 . S
H327 C307 0.930 . S
H328 C319 0.929 . S
H329 C322 0.930 . S
C330 C331 1.351 . S
C330 N333 1.368 . S
C330 H335 0.931 . S
C331 C330 1.351 . S
C331 N332 1.373 . S
C331 H359 0.930 . S
N332 C331 1.373 . S
N332 C334 1.340 . S
N333 C330 1.368 . S
N333 C334 1.321 . S
N333 Co336 2.135 . S
C334 N332 1.340 . S
C334 N333 1.321 . S
C334 H358 0.930 . S
H335 C330 0.931 . S
Co336 N333 2.135 . S
Co336 N339 2.121 . S
Co336 O344 2.055 . S
Co336 O347 2.039 . S
Co336 N350 2.140 . S
C337 O338 1.227 . S
C337 O347 1.265 . S
O338 C337 1.227 . S
N339 Co336 2.121 . S
N339 C341 1.375 . S
N339 C342 1.313 . S
C340 C341 1.338 . S
C340 N343 1.377 . S
C340 H360 0.930 . S
C341 N339 1.375 . S
C341 C340 1.338 . S
C341 H345 0.931 . S
C342 N339 1.313 . S
C342 N343 1.344 . S
C342 H346 0.930 . S
N343 C340 1.377 . S
N343 C342 1.344 . S
O344 Co336 2.055 . S
O344 C348 1.253 . S
H345 C341 0.931 . S
H346 C342 0.930 . S
O347 Co336 2.039 . S
O347 C337 1.265 . S
C348 O344 1.253 . S
C348 O349 1.227 . S
O349 C348 1.227 . S
N350 Co336 2.140 . S
N350 C353 1.346 . S
N350 C354 1.345 . S
C351 C352 1.387 . S
C351 C355 1.391 . S
C352 C351 1.387 . S
C352 C353 1.369 . S
C352 H361 0.929 . S
C353 N350 1.346 . S
C353 C352 1.369 . S
C353 H356 0.928 . S
C354 N350 1.345 . S
C354 C355 1.371 . S
C354 H357 0.931 . S
C355 C351 1.391 . S
C355 C354 1.371 . S
C355 H362 0.930 . S
H356 C353 0.928 . S
H357 C354 0.931 . S
H358 C334 0.930 . S
H359 C331 0.930 . S
H360 C340 0.930 . S
H361 C352 0.929 . S
H362 C355 0.930 . S
C363 C364 1.351 . S
C363 N366 1.368 . S
C363 H368 0.931 . S
C364 C363 1.351 . S
C364 N365 1.373 1_545 S
C364 H392 0.941 . S
N365 C364 1.373 1_565 S
N365 C367 1.340 . S
N366 C363 1.368 . S
N366 C367 1.321 1_545 S
N366 Co369 2.135 . S
C367 N365 1.340 . S
C367 N366 1.321 1_565 S
C367 H391 0.930 . S
H368 C363 0.931 . S
Co369 N366 2.135 . S
Co369 N372 2.121 . S
Co369 O377 2.055 . S
Co369 O380 2.039 . S
Co369 N383 2.140 . S
C370 O371 1.227 1_545 S
C370 O380 1.265 . S
O371 C370 1.227 1_565 S
N372 Co369 2.121 . S
N372 C374 1.375 . S
N372 C375 1.313 . S
C373 C374 1.338 . S
C373 N376 1.377 . S
C373 H393 0.930 . S
C374 N372 1.375 . S
C374 C373 1.338 . S
C374 H378 0.931 . S
C375 N372 1.313 . S
C375 N376 1.344 . S
C375 H379 0.930 . S
N376 C373 1.377 . S
N376 C375 1.344 . S
O377 Co369 2.055 . S
O377 C381 1.253 . S
H378 C374 0.931 . S
H379 C375 0.930 . S
O380 Co369 2.039 . S
O380 C370 1.265 . S
C381 O377 1.253 . S
C381 O382 1.227 . S
O382 C381 1.227 . S
N383 Co369 2.140 . S
N383 C386 1.346 . S
N383 C387 1.345 . S
C384 C385 1.387 1_545 S
C384 C388 1.391 . S
C385 C384 1.387 1_565 S
C385 C386 1.369 1_565 S
C385 H394 0.929 . S
C386 N383 1.346 . S
C386 C385 1.369 1_545 S
C386 H389 0.928 1_545 S
C387 N383 1.345 . S
C387 C388 1.371 . S
C387 H390 0.931 . S
C388 C384 1.391 . S
C388 C387 1.371 . S
C388 H395 0.930 . S
H389 C386 0.928 1_565 S
H390 C387 0.931 . S
H391 C367 0.930 . S
H392 C364 0.941 . S
H393 C373 0.930 . S
H394 C385 0.929 . S
H395 C388 0.930 . S
C396 C397 1.351 . S
C396 N399 1.368 . S
C396 H401 0.931 . S
C397 C396 1.351 . S
C397 N398 1.373 1_565 S
C397 H425 0.930 . S
N398 C397 1.373 1_545 S
N398 C400 1.340 1_545 S
N399 C396 1.368 . S
N399 C400 1.323 . S
N399 Co402 2.135 . S
C400 N398 1.340 1_565 S
C400 N399 1.323 . S
C400 H424 0.929 1_565 S
H401 C396 0.931 . S
Co402 N399 2.135 . S
Co402 N405 2.121 . S
Co402 O410 2.055 . S
Co402 O413 2.039 . S
Co402 N416 2.140 . S
C403 O404 1.227 . S
C403 O413 1.265 . S
O404 C403 1.227 . S
N405 Co402 2.121 . S
N405 C407 1.375 . S
N405 C408 1.313 . S
C406 C407 1.338 . S
C406 N409 1.377 . S
C406 H426 0.930 . S
C407 N405 1.375 . S
C407 C406 1.338 . S
C407 H411 0.931 . S
C408 N405 1.313 . S
C408 N409 1.344 . S
C408 H412 0.930 . S
N409 C406 1.377 . S
N409 C408 1.344 . S
O410 Co402 2.055 . S
O410 C414 1.253 . S
H411 C407 0.931 . S
H412 C408 0.930 . S
O413 Co402 2.039 . S
O413 C403 1.265 . S
C414 O410 1.253 . S
C414 O415 1.227 . S
O415 C414 1.227 . S
N416 Co402 2.140 . S
N416 C419 1.346 . S
N416 C420 1.345 . S
C417 C418 1.387 1_565 S
C417 C421 1.391 . S
C418 C417 1.387 1_545 S
C418 C419 1.369 1_545 S
C418 H427 0.929 . S
C419 N416 1.346 . S
C419 C418 1.369 1_565 S
C419 H422 0.928 1_565 S
C420 N416 1.345 . S
C420 C421 1.371 . S
C420 H423 0.931 . S
C421 C417 1.391 . S
C421 C420 1.371 . S
C421 H428 0.930 . S
H422 C419 0.928 1_545 S
H423 C420 0.931 . S
H424 C400 0.929 1_545 S
H425 C397 0.930 . S
H426 C406 0.930 . S
H427 C418 0.929 . S
H428 C421 0.930 . S
C429 C430 1.351 . S
C429 N432 1.368 . S
C429 H434 0.931 . S
C430 C429 1.351 . S
C430 N431 1.373 1_455 S
C430 H458 0.941 . S
N431 C430 1.373 1_655 S
N431 C433 1.340 . S
N432 C429 1.368 . S
N432 C433 1.321 1_455 S
N432 Co435 2.135 . S
C433 N431 1.340 . S
C433 N432 1.321 1_655 S
C433 H457 0.930 . S
H434 C429 0.931 . S
Co435 N432 2.135 . S
Co435 N438 2.121 . S
Co435 O443 2.055 . S
Co435 O446 2.039 . S
Co435 N449 2.140 . S
C436 O437 1.227 1_455 S
C436 O446 1.265 . S
O437 C436 1.227 1_655 S
N438 Co435 2.121 . S
N438 C440 1.375 . S
N438 C441 1.313 . S
C439 C440 1.338 . S
C439 N442 1.377 . S
C439 H459 0.930 . S
C440 N438 1.375 . S
C440 C439 1.338 . S
C440 H444 0.931 . S
C441 N438 1.313 . S
C441 N442 1.344 . S
C441 H445 0.930 . S
N442 C439 1.377 . S
N442 C441 1.344 . S
O443 Co435 2.055 . S
O443 C447 1.253 . S
H444 C440 0.931 . S
H445 C441 0.930 . S
O446 Co435 2.039 . S
O446 C436 1.265 . S
C447 O443 1.253 . S
C447 O448 1.227 . S
O448 C447 1.227 . S
N449 Co435 2.140 . S
N449 C452 1.346 . S
N449 C453 1.345 . S
C450 C451 1.387 1_455 S
C450 C454 1.391 . S
C451 C450 1.387 1_655 S
C451 C452 1.369 1_655 S
C451 H460 0.929 . S
C452 N449 1.346 . S
C452 C451 1.369 1_455 S
C452 H455 0.928 1_455 S
C453 N449 1.345 . S
C453 C454 1.371 . S
C453 H456 0.931 . S
C454 C450 1.391 . S
C454 C453 1.371 . S
C454 H461 0.930 . S
H455 C452 0.928 1_655 S
H456 C453 0.931 . S
H457 C433 0.930 . S
H458 C430 0.941 . S
H459 C439 0.930 . S
H460 C451 0.929 . S
H461 C454 0.930 . S
C462 C463 1.351 . S
C462 N465 1.368 . S
C462 H467 0.931 . S
C463 C462 1.351 . S
C463 N464 1.373 . S
C463 H491 0.930 . S
N464 C463 1.373 . S
N464 C466 1.340 . S
N465 C462 1.368 . S
N465 C466 1.321 . S
N465 Co468 2.135 . S
C466 N464 1.340 . S
C466 N465 1.321 . S
C466 H490 0.930 . S
H467 C462 0.931 . S
Co468 N465 2.135 . S
Co468 N471 2.121 . S
Co468 O476 2.055 . S
Co468 O479 2.039 . S
Co468 N482 2.140 . S
C469 O470 1.227 . S
C469 O479 1.265 . S
O470 C469 1.227 . S
N471 Co468 2.121 . S
N471 C473 1.375 . S
N471 C474 1.313 . S
C472 C473 1.338 . S
C472 N475 1.377 . S
C472 H492 0.930 . S
C473 N471 1.375 . S
C473 C472 1.338 . S
C473 H477 0.931 . S
C474 N471 1.313 . S
C474 N475 1.344 . S
C474 H478 0.930 . S
N475 C472 1.377 . S
N475 C474 1.344 . S
O476 Co468 2.055 . S
O476 C480 1.253 . S
H477 C473 0.931 . S
H478 C474 0.930 . S
O479 Co468 2.039 . S
O479 C469 1.265 . S
C480 O476 1.253 . S
C480 O481 1.227 . S
O481 C480 1.227 . S
N482 Co468 2.140 . S
N482 C485 1.346 . S
N482 C486 1.345 . S
C483 C484 1.387 . S
C483 C487 1.391 . S
C484 C483 1.387 . S
C484 C485 1.369 . S
C484 H493 0.929 . S
C485 N482 1.346 . S
C485 C484 1.369 . S
C485 H488 0.928 . S
C486 N482 1.345 . S
C486 C487 1.371 . S
C486 H489 0.931 . S
C487 C483 1.391 . S
C487 C486 1.371 . S
C487 H494 0.930 . S
H488 C485 0.928 . S
H489 C486 0.931 . S
H490 C466 0.930 . S
H491 C463 0.930 . S
H492 C472 0.930 . S
H493 C484 0.929 . S
H494 C487 0.930 . S
C495 C496 1.351 . S
C495 N498 1.368 . S
C495 H500 0.931 . S
C496 C495 1.351 . S
C496 N497 1.373 . S
C496 H524 0.930 . S
N497 C496 1.373 . S
N497 C499 1.340 . S
N498 C495 1.368 . S
N498 C499 1.321 . S
N498 Co501 2.135 . S
C499 N497 1.340 . S
C499 N498 1.321 . S
C499 H523 0.930 . S
H500 C495 0.931 . S
Co501 N498 2.135 . S
Co501 N504 2.121 . S
Co501 O509 2.055 . S
Co501 O512 2.039 . S
Co501 N515 2.140 . S
C502 O503 1.227 . S
C502 O512 1.265 . S
O503 C502 1.227 . S
N504 Co501 2.121 . S
N504 C506 1.375 . S
N504 C507 1.313 . S
C505 C506 1.338 . S
C505 N508 1.377 . S
C505 H525 0.930 . S
C506 N504 1.375 . S
C506 C505 1.338 . S
C506 H510 0.931 . S
C507 N504 1.313 . S
C507 N508 1.344 . S
C507 H511 0.930 . S
N508 C505 1.377 . S
N508 C507 1.344 . S
O509 Co501 2.055 . S
O509 C513 1.253 . S
H510 C506 0.931 . S
H511 C507 0.930 . S
O512 Co501 2.039 . S
O512 C502 1.265 . S
C513 O509 1.253 . S
C513 O514 1.227 . S
O514 C513 1.227 . S
N515 Co501 2.140 . S
N515 C518 1.346 . S
N515 C519 1.345 . S
C516 C517 1.387 . S
C516 C520 1.391 . S
C517 C516 1.387 . S
C517 C518 1.369 . S
C517 H526 0.929 . S
C518 N515 1.346 . S
C518 C517 1.369 . S
C518 H521 0.928 . S
C519 N515 1.345 . S
C519 C520 1.371 . S
C519 H522 0.931 . S
C520 C516 1.391 . S
C520 C519 1.371 . S
C520 H527 0.930 . S
H521 C518 0.928 . S
H522 C519 0.931 . S
H523 C499 0.930 . S
H524 C496 0.930 . S
H525 C505 0.930 . S
H526 C517 0.929 . S
H527 C520 0.930 . S
C528 C529 1.351 . S
C528 N531 1.368 . S
C528 H533 0.931 . S
C529 C528 1.351 . S
C529 N530 1.373 . S
C529 H557 0.930 . S
N530 C529 1.373 . S
N530 C532 1.340 . S
N531 C528 1.368 . S
N531 C532 1.321 . S
N531 Co534 2.135 . S
C532 N530 1.340 . S
C532 N531 1.321 . S
C532 H556 0.930 . S
H533 C528 0.931 . S
Co534 N531 2.135 . S
Co534 N537 2.121 . S
Co534 O542 2.055 . S
Co534 O545 2.039 . S
Co534 N548 2.140 . S
C535 O536 1.227 . S
C535 O545 1.265 . S
O536 C535 1.227 . S
N537 Co534 2.121 . S
N537 C539 1.375 . S
N537 C540 1.313 . S
C538 C539 1.338 . S
C538 N541 1.377 . S
C538 H558 0.930 . S
C539 N537 1.375 . S
C539 C538 1.338 . S
C539 H543 0.931 . S
C540 N537 1.313 . S
C540 N541 1.344 . S
C540 H544 0.930 . S
N541 C538 1.377 . S
N541 C540 1.344 . S
O542 Co534 2.055 . S
O542 C546 1.253 . S
H543 C539 0.931 . S
H544 C540 0.930 . S
O545 Co534 2.039 . S
O545 C535 1.265 . S
C546 O542 1.253 . S
C546 O547 1.227 . S
O547 C546 1.227 . S
N548 Co534 2.140 . S
N548 C551 1.346 . S
N548 C552 1.345 . S
C549 C550 1.387 . S
C549 C553 1.391 . S
C550 C549 1.387 . S
C550 C551 1.369 . S
C550 H559 0.929 . S
C551 N548 1.346 . S
C551 C550 1.369 . S
C551 H554 0.928 . S
C552 N548 1.345 . S
C552 C553 1.371 . S
C552 H555 0.931 . S
C553 C549 1.391 . S
C553 C552 1.371 . S
C553 H560 0.930 . S
H554 C551 0.928 . S
H555 C552 0.931 . S
H556 C532 0.930 . S
H557 C529 0.930 . S
H558 C538 0.930 . S
H559 C550 0.929 . S
H560 C553 0.930 . S
C561 C562 1.351 . S
C561 N564 1.368 . S
C561 H566 0.931 . S
C562 C561 1.351 . S
C562 N563 1.373 . S
C562 H590 0.930 . S
N563 C562 1.373 . S
N563 C565 1.340 . S
N564 C561 1.368 . S
N564 C565 1.321 . S
N564 Co567 2.135 . S
C565 N563 1.340 . S
C565 N564 1.321 . S
C565 H589 0.930 . S
H566 C561 0.931 . S
Co567 N564 2.135 . S
Co567 N570 2.121 . S
Co567 O575 2.055 . S
Co567 O578 2.039 . S
Co567 N581 2.140 . S
C568 O569 1.227 . S
C568 O578 1.265 . S
O569 C568 1.227 . S
N570 Co567 2.121 . S
N570 C572 1.375 . S
N570 C573 1.313 . S
C571 C572 1.338 . S
C571 N574 1.377 . S
C571 H591 0.930 . S
C572 N570 1.375 . S
C572 C571 1.338 . S
C572 H576 0.931 . S
C573 N570 1.313 . S
C573 N574 1.344 . S
C573 H577 0.930 . S
N574 C571 1.377 . S
N574 C573 1.344 . S
O575 Co567 2.055 . S
O575 C579 1.253 . S
H576 C572 0.931 . S
H577 C573 0.930 . S
O578 Co567 2.039 . S
O578 C568 1.265 . S
C579 O575 1.253 . S
C579 O580 1.227 . S
O580 C579 1.227 . S
N581 Co567 2.140 . S
N581 C584 1.346 . S
N581 C585 1.345 . S
C582 C583 1.387 . S
C582 C586 1.391 . S
C583 C582 1.387 . S
C583 C584 1.369 . S
C583 H592 0.929 . S
C584 N581 1.346 . S
C584 C583 1.369 . S
C584 H587 0.928 . S
C585 N581 1.345 . S
C585 C586 1.371 . S
C585 H588 0.931 . S
C586 C582 1.391 . S
C586 C585 1.371 . S
C586 H593 0.930 . S
H587 C584 0.928 . S
H588 C585 0.931 . S
H589 C565 0.930 . S
H590 C562 0.930 . S
H591 C571 0.930 . S
H592 C583 0.929 . S
H593 C586 0.930 . S
C594 C595 1.387 . S
C594 H598 0.950 . S
C594 C603 1.390 . S
C595 C594 1.387 . S
C595 C597 1.387 . S
H596 C603 0.950 . S
C597 C595 1.387 . S
C597 C599 1.390 . S
C597 H601 0.950 . S
H598 C594 0.950 . S
C599 C597 1.390 . S
C599 C600 1.387 . S
C599 H602 0.950 . S
C600 C599 1.387 . S
C600 C603 1.387 . S
H601 C597 0.950 . S
H602 C599 0.950 . S
C603 C594 1.390 . S
C603 H596 0.950 . S
C603 C600 1.387 . S
C604 C605 1.387 . S
C604 H608 0.950 . S
C604 C613 1.390 . S
C605 C604 1.387 . S
C605 C607 1.387 . S
H606 C613 0.950 . S
C607 C605 1.387 . S
C607 C609 1.390 . S
C607 H611 0.950 . S
H608 C604 0.950 . S
C609 C607 1.390 . S
C609 C610 1.387 . S
C609 H612 0.950 . S
C610 C609 1.387 . S
C610 C613 1.387 . S
H611 C607 0.950 . S
H612 C609 0.950 . S
C613 C604 1.390 . S
C613 H606 0.950 . S
C613 C610 1.387 . S
C614 C615 1.387 . S
C614 H618 0.950 . S
C614 C623 1.390 . S
C615 C614 1.387 . S
C615 C617 1.387 . S
H616 C623 0.950 . S
C617 C615 1.387 . S
C617 C619 1.390 . S
C617 H621 0.950 . S
H618 C614 0.950 . S
C619 C617 1.390 . S
C619 C620 1.387 . S
C619 H622 0.950 . S
C620 C619 1.387 . S
C620 C623 1.387 . S
H621 C617 0.950 . S
H622 C619 0.950 . S
C623 C614 1.390 . S
C623 H616 0.950 . S
C623 C620 1.387 . S
C624 C625 1.387 . S
C624 H628 0.950 . S
C624 C633 1.390 . S
C625 C624 1.387 . S
C625 C627 1.387 . S
H626 C633 0.950 . S
C627 C625 1.387 . S
C627 C629 1.390 . S
C627 H631 0.950 . S
H628 C624 0.950 . S
C629 C627 1.390 . S
C629 C630 1.387 . S
C629 H632 0.950 . S
C630 C629 1.387 . S
C630 C633 1.387 . S
H631 C627 0.950 . S
H632 C629 0.950 . S
C633 C624 1.390 . S
C633 H626 0.950 . S
C633 C630 1.387 . S
C634 C635 1.387 . S
C634 H638 0.950 . S
C634 C643 1.390 . S
C635 C634 1.387 . S
C635 C637 1.387 . S
H636 C643 0.950 . S
C637 C635 1.387 . S
C637 C639 1.390 . S
C637 H641 0.950 . S
H638 C634 0.950 . S
C639 C637 1.390 . S
C639 C640 1.387 . S
C639 H642 0.950 . S
C640 C639 1.387 . S
C640 C643 1.387 . S
H641 C637 0.950 . S
H642 C639 0.950 . S
C643 C634 1.390 . S
C643 H636 0.950 . S
C643 C640 1.387 . S
C644 C645 1.387 . S
C644 H648 0.950 . S
C644 C653 1.390 . S
C645 C644 1.387 . S
C645 C647 1.387 . S
H646 C653 0.950 . S
C647 C645 1.387 . S
C647 C649 1.390 . S
C647 H651 0.950 . S
H648 C644 0.950 . S
C649 C647 1.390 . S
C649 C650 1.387 . S
C649 H652 0.950 . S
C650 C649 1.387 . S
C650 C653 1.387 . S
H651 C647 0.950 . S
H652 C649 0.950 . S
C653 C644 1.390 . S
C653 H646 0.950 . S
C653 C650 1.387 . S
C654 C655 1.387 . S
C654 H658 0.950 . S
C654 C663 1.390 . S
C655 C654 1.387 . S
C655 C657 1.387 . S
H656 C663 0.950 . S
C657 C655 1.387 . S
C657 C659 1.390 . S
C657 H661 0.950 . S
H658 C654 0.950 . S
C659 C657 1.390 . S
C659 C660 1.387 . S
C659 H662 0.950 . S
C660 C659 1.387 . S
C660 C663 1.387 . S
H661 C657 0.950 . S
H662 C659 0.950 . S
C663 C654 1.390 . S
C663 H656 0.950 . S
C663 C660 1.387 . S
C664 C665 1.371 1_545 S
C664 H668 0.950 . S
C664 C673 1.390 . S
C665 C664 1.371 1_565 S
C665 C667 1.385 . S
H666 C673 0.950 . S
C667 C665 1.385 . S
C667 C669 1.390 1_565 S
C667 H671 0.950 . S
H668 C664 0.950 . S
C669 C667 1.390 1_545 S
C669 C670 1.387 . S
C669 H672 0.950 1_545 S
C670 C669 1.387 . S
C670 C673 1.387 . S
H671 C667 0.950 . S
H672 C669 0.950 1_565 S
C673 C664 1.390 . S
C673 H666 0.950 . S
C673 C670 1.387 . S
C674 C675 1.387 1_455 S
C674 H678 0.950 . S
C674 C683 1.390 1_455 S
C675 C674 1.387 1_655 S
C675 C677 1.387 . S
H676 C683 0.928 1_455 S
C677 C675 1.387 . S
C677 C679 1.390 . S
C677 H681 0.950 . S
H678 C674 0.950 . S
C679 C677 1.390 . S
C679 C680 1.387 . S
C679 H682 0.950 . S
C680 C679 1.387 . S
C680 C683 1.409 . S
H681 C677 0.950 . S
H682 C679 0.950 . S
C683 C674 1.390 1_655 S
C683 H676 0.928 1_655 S
C683 C680 1.409 . S
C684 C685 1.387 . S
C684 H688 0.950 . S
C684 C693 1.390 . S
C685 C684 1.387 . S
C685 C687 1.387 . S
H686 C693 0.950 . S
C687 C685 1.387 . S
C687 C689 1.390 . S
C687 H691 0.950 . S
H688 C684 0.950 . S
C689 C687 1.390 . S
C689 C690 1.387 . S
C689 H692 0.950 . S
C690 C689 1.387 . S
C690 C693 1.387 . S
H691 C687 0.950 . S
H692 C689 0.950 . S
C693 C684 1.390 . S
C693 H686 0.950 . S
C693 C690 1.387 . S
C694 C695 1.387 . S
C694 H698 0.950 . S
C694 C703 1.390 . S
C695 C694 1.387 . S
C695 C697 1.387 . S
H696 C703 0.950 . S
C697 C695 1.387 . S
C697 C699 1.390 1_565 S
C697 H701 0.963 . S
H698 C694 0.950 . S
C699 C697 1.390 1_545 S
C699 C700 1.387 1_545 S
C699 H702 0.950 . S
C700 C699 1.387 1_565 S
C700 C703 1.387 . S
H701 C697 0.963 . S
H702 C699 0.950 . S
C703 C694 1.390 . S
C703 H696 0.950 . S
C703 C700 1.387 . S
C704 C705 1.387 . S
C704 H708 0.950 . S
C704 C713 1.390 . S
C705 C704 1.387 . S
C705 C707 1.387 . S
H706 C713 0.950 . S
C707 C705 1.387 . S
C707 C709 1.390 1_455 S
C707 H711 0.950 . S
H708 C704 0.950 . S
C709 C707 1.390 1_655 S
C709 C710 1.382 . S
C709 H712 0.950 . S
C710 C709 1.382 . S
C710 C713 1.375 1_655 S
H711 C707 0.950 . S
H712 C709 0.950 . S
C713 C704 1.390 . S
C713 H706 0.950 . S
C713 C710 1.375 1_455 S
C714 C715 1.387 1_655 S
C714 H718 0.950 . S
C714 C723 1.390 . S
C715 C714 1.387 1_455 S
C715 C717 1.387 . S
H716 C723 0.950 . S
C717 C715 1.387 . S
C717 C719 1.390 . S
C717 H721 0.950 . S
H718 C714 0.950 . S
C719 C717 1.390 . S
C719 C720 1.387 1_455 S
C719 H722 0.950 . S
C720 C719 1.387 1_655 S
C720 C723 1.387 . S
H721 C717 0.950 . S
H722 C719 0.950 . S
C723 C714 1.390 . S
C723 H716 0.950 . S
C723 C720 1.387 . S
C724 C725 1.387 . S
C724 H728 0.950 . S
C724 C733 1.390 . S
C725 C724 1.387 . S
C725 C727 1.387 . S
H726 C733 0.950 . S
C727 C725 1.387 . S
C727 C729 1.390 . S
C727 H731 0.950 . S
H728 C724 0.950 . S
C729 C727 1.390 . S
C729 C730 1.387 . S
C729 H732 0.950 . S
C730 C729 1.387 . S
C730 C733 1.387 . S
H731 C727 0.950 . S
H732 C729 0.950 . S
C733 C724 1.390 . S
C733 H726 0.950 . S
C733 C730 1.387 . S
C734 C735 1.387 . S
C734 H738 0.950 . S
C734 C743 1.390 1_565 S
C735 C734 1.387 . S
C735 C737 1.387 . S
H736 C743 0.950 . S
C737 C735 1.387 . S
C737 C739 1.390 1_565 S
C737 H741 0.950 . S
H738 C734 0.950 . S
C739 C737 1.390 1_545 S
C739 C740 1.387 . S
C739 H742 0.950 . S
C740 C739 1.387 . S
C740 C743 1.387 . S
H741 C737 0.950 . S
H742 C739 0.950 . S
C743 C734 1.390 1_545 S
C743 H736 0.950 . S
C743 C740 1.387 . S
C744 C745 1.387 . S
C744 H748 0.950 . S
C744 C753 1.390 1_545 S
C745 C744 1.387 . S
C745 C747 1.387 . S
H746 C753 0.950 . S
C747 C745 1.387 . S
C747 C749 1.390 1_545 S
C747 H751 0.950 . S
H748 C744 0.950 . S
C749 C747 1.390 1_565 S
C749 C750 1.387 . S
C749 H752 0.950 . S
C750 C749 1.387 . S
C750 C753 1.387 . S
H751 C747 0.950 . S
H752 C749 0.950 . S
C753 C744 1.390 1_565 S
C753 H746 0.950 . S
C753 C750 1.387 . S
C754 C755 1.387 . S
C754 H758 0.950 . S
C754 C763 1.390 1_455 S
C755 C754 1.387 . S
C755 C757 1.387 . S
H756 C763 0.950 . S
C757 C755 1.387 . S
C757 C759 1.390 1_455 S
C757 H761 0.950 . S
H758 C754 0.950 . S
C759 C757 1.390 1_655 S
C759 C760 1.387 . S
C759 H762 0.950 . S
C760 C759 1.387 . S
C760 C763 1.387 . S
H761 C757 0.950 . S
H762 C759 0.950 . S
C763 C754 1.390 1_655 S
C763 H756 0.950 . S
C763 C760 1.387 . S
C764 C765 1.387 . S
C764 H768 0.950 . S
C764 C773 1.390 . S
C765 C764 1.387 . S
C765 C767 1.387 . S
H766 C773 0.950 . S
C767 C765 1.387 . S
C767 C769 1.390 . S
C767 H771 0.950 . S
H768 C764 0.950 . S
C769 C767 1.390 . S
C769 C770 1.387 . S
C769 H772 0.950 . S
C770 C769 1.387 . S
C770 C773 1.387 . S
H771 C767 0.950 . S
H772 C769 0.950 . S
C773 C764 1.390 . S
C773 H766 0.950 . S
C773 C770 1.387 . S
C774 C775 1.387 . S
C774 H778 0.950 . S
C774 C783 1.390 . S
C775 C774 1.387 . S
C775 C777 1.387 . S
H776 C783 0.950 . S
C777 C775 1.387 . S
C777 C779 1.390 . S
C777 H781 0.950 . S
H778 C774 0.950 . S
C779 C777 1.390 . S
C779 C780 1.387 . S
C779 H782 0.950 . S
C780 C779 1.387 . S
C780 C783 1.387 . S
H781 C777 0.950 . S
H782 C779 0.950 . S
C783 C774 1.390 . S
C783 H776 0.950 . S
C783 C780 1.387 . S
C784 C785 1.387 . S
C784 H788 0.950 . S
C784 C793 1.390 . S
C785 C784 1.387 . S
C785 C787 1.387 . S
H786 C793 0.950 . S
C787 C785 1.387 . S
C787 C789 1.390 . S
C787 H791 0.950 . S
H788 C784 0.950 . S
C789 C787 1.390 . S
C789 C790 1.387 . S
C789 H792 0.950 . S
C790 C789 1.387 . S
C790 C793 1.387 . S
H791 C787 0.950 . S
H792 C789 0.950 . S
C793 C784 1.390 . S
C793 H786 0.950 . S
C793 C790 1.387 . S
C794 C795 1.387 . S
C794 H798 0.950 . S
C794 C803 1.390 . S
C795 C794 1.387 . S
C795 C797 1.387 . S
H796 C803 0.950 . S
C797 C795 1.387 . S
C797 C799 1.390 . S
C797 H801 0.950 . S
H798 C794 0.950 . S
C799 C797 1.390 . S
C799 C800 1.387 . S
C799 H802 0.950 . S
C800 C799 1.387 . S
C800 C803 1.387 . S
H801 C797 0.950 . S
H802 C799 0.950 . S
C803 C794 1.390 . S
C803 H796 0.950 . S
C803 C800 1.387 . S
C804 C805 1.387 . S
C804 H808 0.950 . S
C804 C813 1.390 . S
C805 C804 1.387 . S
C805 C807 1.387 . S
H806 C813 0.950 . S
C807 C805 1.387 . S
C807 C809 1.390 . S
C807 H811 0.950 . S
H808 C804 0.950 . S
C809 C807 1.390 . S
C809 C810 1.387 . S
C809 H812 0.950 . S
C810 C809 1.387 . S
C810 C813 1.387 . S
H811 C807 0.950 . S
H812 C809 0.950 . S
C813 C804 1.390 . S
C813 H806 0.950 . S
C813 C810 1.387 . S
C814 C815 1.387 . S
C814 H818 0.950 . S
C814 C823 1.390 . S
C815 C814 1.387 . S
C815 C817 1.387 . S
H816 C823 0.950 . S
C817 C815 1.387 . S
C817 C819 1.390 . S
C817 H821 0.950 . S
H818 C814 0.950 . S
C819 C817 1.390 . S
C819 C820 1.387 . S
C819 H822 0.950 . S
C820 C819 1.387 . S
C820 C823 1.387 . S
H821 C817 0.950 . S
H822 C819 0.950 . S
C823 C814 1.390 . S
C823 H816 0.950 . S
C823 C820 1.387 . S
C824 C825 1.387 . S
C824 H828 0.950 . S
C824 C833 1.390 . S
C825 C824 1.387 . S
C825 C827 1.387 . S
H826 C833 0.950 . S
C827 C825 1.387 . S
C827 C829 1.390 . S
C827 H831 0.950 . S
H828 C824 0.950 . S
C829 C827 1.390 . S
C829 C830 1.387 . S
C829 H832 0.950 . S
C830 C829 1.387 . S
C830 C833 1.387 . S
H831 C827 0.950 . S
H832 C829 0.950 . S
C833 C824 1.390 . S
C833 H826 0.950 . S
C833 C830 1.387 . S
C834 C835 1.387 1_455 S
C834 H838 0.950 . S
C834 C843 1.390 1_554 S
C835 C834 1.387 1_655 S
C835 C837 1.387 . S
H836 C843 0.950 . S
C837 C835 1.387 . S
C837 C839 1.390 1_554 S
C837 H841 0.950 . S
H838 C834 0.950 . S
C839 C837 1.390 1_556 S
C839 C840 1.382 . S
C839 H842 0.950 . S
C840 C839 1.382 . S
C840 C843 1.394 1_655 S
H841 C837 0.950 . S
H842 C839 0.950 . S
C843 C834 1.390 1_556 S
C843 H836 0.950 . S
C843 C840 1.394 1_455 S
C844 C845 1.387 . S
C844 H848 0.950 . S
C844 C853 1.390 1_554 S
C845 C844 1.387 . S
C845 C847 1.387 . S
H846 C853 0.950 . S
C847 C845 1.387 . S
C847 C849 1.390 1_554 S
C847 H851 0.950 . S
H848 C844 0.950 . S
C849 C847 1.390 1_556 S
C849 C850 1.387 . S
C849 H852 0.950 . S
C850 C849 1.387 . S
C850 C853 1.387 . S
H851 C847 0.950 . S
H852 C849 0.950 . S
C853 C844 1.390 1_556 S
C853 H846 0.950 . S
C853 C850 1.387 . S
C854 C855 1.399 . S
C854 H858 0.950 . S
C854 C863 1.390 1_554 S
C855 C854 1.399 . S
C855 C857 1.371 1_565 S
H856 C863 0.950 . S
C857 C855 1.371 1_545 S
C857 C859 1.390 1_544 S
C857 H861 0.956 . S
H858 C854 0.950 . S
C859 C857 1.390 1_566 S
C859 C860 1.396 . S
C859 H862 0.943 1_565 S
C860 C859 1.396 . S
C860 C863 1.387 . S
H861 C857 0.956 . S
H862 C859 0.943 1_545 S
C863 C854 1.390 1_556 S
C863 H856 0.950 . S
C863 C860 1.387 . S
C864 C865 1.387 . S
C864 H868 0.950 . S
C864 C873 1.390 . S
C865 C864 1.387 . S
C865 C867 1.387 . S
H866 C873 0.950 . S
C867 C865 1.387 . S
C867 C869 1.390 . S
C867 H871 0.950 . S
H868 C864 0.950 . S
C869 C867 1.390 . S
C869 C870 1.387 . S
C869 H872 0.950 . S
C870 C869 1.387 . S
C870 C873 1.387 . S
H871 C867 0.950 . S
H872 C869 0.950 . S
C873 C864 1.390 . S
C873 H866 0.950 . S
C873 C870 1.387 . S
C874 C875 1.387 1_545 S
C874 H878 0.950 . S
C874 C883 1.390 . S
C875 C874 1.387 1_565 S
C875 C877 1.387 1_565 S
H876 C883 0.950 . S
C877 C875 1.387 1_545 S
C877 C879 1.390 . S
C877 H881 0.950 1_545 S
H878 C874 0.950 . S
C879 C877 1.390 . S
C879 C880 1.387 . S
C879 H882 0.950 . S
C880 C879 1.387 . S
C880 C883 1.387 . S
H881 C877 0.950 1_565 S
H882 C879 0.950 . S
C883 C874 1.390 . S
C883 H876 0.950 . S
C883 C880 1.387 . S
C884 C885 1.387 . S
C884 H888 0.950 . S
C884 C893 1.390 . S
C885 C884 1.387 . S
C885 C887 1.387 . S
H886 C893 0.950 . S
C887 C885 1.387 . S
C887 C889 1.390 . S
C887 H891 0.950 . S
H888 C884 0.950 . S
C889 C887 1.390 . S
C889 C890 1.387 1_655 S
C889 H892 0.950 1_655 S
C890 C889 1.387 1_455 S
C890 C893 1.387 1_455 S
H891 C887 0.950 . S
H892 C889 0.950 1_455 S
C893 C884 1.390 . S
C893 H886 0.950 . S
C893 C890 1.387 1_655 S
C894 C895 1.387 . S
C894 H898 0.950 . S
C894 C903 1.390 . S
C895 C894 1.387 . S
C895 C897 1.387 . S
H896 C903 0.950 . S
C897 C895 1.387 . S
C897 C899 1.390 . S
C897 H901 0.950 . S
H898 C894 0.950 . S
C899 C897 1.390 . S
C899 C900 1.387 . S
C899 H902 0.950 . S
C900 C899 1.387 . S
C900 C903 1.387 . S
H901 C897 0.950 . S
H902 C899 0.950 . S
C903 C894 1.390 . S
C903 H896 0.950 . S
C903 C900 1.387 . S
C904 C905 1.387 1_565 S
C904 H908 0.950 1_565 S
C904 C913 1.390 . S
C905 C904 1.387 1_545 S
C905 C907 1.387 1_545 S
H906 C913 0.950 . S
C907 C905 1.387 1_565 S
C907 C909 1.390 . S
C907 H911 0.950 . S
H908 C904 0.950 1_545 S
C909 C907 1.390 . S
C909 C910 1.387 . S
C909 H912 0.950 . S
C910 C909 1.387 . S
C910 C913 1.387 . S
H911 C907 0.950 . S
H912 C909 0.950 . S
C913 C904 1.390 . S
C913 H906 0.950 . S
C913 C910 1.387 . S
C914 C915 1.387 . S
C914 H918 0.950 . S
C914 C923 1.390 . S
C915 C914 1.387 . S
C915 C917 1.387 . S
H916 C923 0.950 . S
C917 C915 1.387 . S
C917 C919 1.390 . S
C917 H921 0.950 . S
H918 C914 0.950 . S
C919 C917 1.390 . S
C919 C920 1.387 1_455 S
C919 H922 0.950 1_455 S
C920 C919 1.387 1_655 S
C920 C923 1.387 1_655 S
H921 C917 0.950 . S
H922 C919 0.950 1_655 S
C923 C914 1.390 . S
C923 H916 0.950 . S
C923 C920 1.387 1_455 S
C924 C925 1.387 . S
C924 H928 0.950 . S
C924 C933 1.390 . S
C925 C924 1.387 . S
C925 C927 1.387 . S
H926 C933 0.950 . S
C927 C925 1.387 . S
C927 C929 1.390 . S
C927 H931 0.950 . S
H928 C924 0.950 . S
C929 C927 1.390 . S
C929 C930 1.387 . S
C929 H932 0.950 . S
C930 C929 1.387 . S
C930 C933 1.387 . S
H931 C927 0.950 . S
H932 C929 0.950 . S
C933 C924 1.390 . S
C933 H926 0.950 . S
C933 C930 1.387 . S
C934 C935 1.387 . S
C934 H938 0.950 . S
C934 C943 1.390 . S
C935 C934 1.387 . S
C935 C937 1.387 . S
H936 C943 0.950 . S
C937 C935 1.387 . S
C937 C939 1.390 . S
C937 H941 0.950 . S
H938 C934 0.950 . S
C939 C937 1.390 . S
C939 C940 1.387 . S
C939 H942 0.950 . S
C940 C939 1.387 . S
C940 C943 1.387 . S
H941 C937 0.950 . S
H942 C939 0.950 . S
C943 C934 1.390 . S
C943 H936 0.950 . S
C943 C940 1.387 . S
C944 C945 1.387 . S
C944 H948 0.950 . S
C944 C953 1.390 . S
C945 C944 1.387 . S
C945 C947 1.387 . S
H946 C953 0.950 . S
C947 C945 1.387 . S
C947 C949 1.390 . S
C947 H951 0.950 . S
H948 C944 0.950 . S
C949 C947 1.390 . S
C949 C950 1.387 . S
C949 H952 0.950 . S
C950 C949 1.387 . S
C950 C953 1.387 . S
H951 C947 0.950 . S
H952 C949 0.950 . S
C953 C944 1.390 . S
C953 H946 0.950 . S
C953 C950 1.387 . S
C954 C955 1.387 . S
C954 H958 0.950 . S
C954 C963 1.390 . S
C955 C954 1.387 . S
C955 C957 1.387 . S
H956 C963 0.950 . S
C957 C955 1.387 . S
C957 C959 1.390 . S
C957 H961 0.950 . S
H958 C954 0.950 . S
C959 C957 1.390 . S
C959 C960 1.387 . S
C959 H962 0.950 . S
C960 C959 1.387 . S
C960 C963 1.387 . S
H961 C957 0.950 . S
H962 C959 0.950 . S
C963 C954 1.390 . S
C963 H956 0.950 . S
C963 C960 1.387 . S
C964 C965 1.387 . S
C964 H968 0.950 . S
C964 C973 1.390 . S
C965 C964 1.387 . S
C965 C967 1.387 . S
H966 C973 0.950 . S
C967 C965 1.387 . S
C967 C969 1.390 . S
C967 H971 0.950 . S
H968 C964 0.950 . S
C969 C967 1.390 . S
C969 C970 1.387 . S
C969 H972 0.950 . S
C970 C969 1.387 . S
C970 C973 1.387 . S
H971 C967 0.950 . S
H972 C969 0.950 . S
C973 C964 1.390 . S
C973 H966 0.950 . S
C973 C970 1.387 . S
C974 C975 1.387 . S
C974 H978 0.950 . S
C974 C983 1.390 . S
C975 C974 1.387 . S
C975 C977 1.387 . S
H976 C983 0.950 . S
C977 C975 1.387 . S
C977 C979 1.390 . S
C977 H981 0.950 . S
H978 C974 0.950 . S
C979 C977 1.390 . S
C979 C980 1.387 . S
C979 H982 0.950 . S
C980 C979 1.387 . S
C980 C983 1.387 . S
H981 C977 0.950 . S
H982 C979 0.950 . S
C983 C974 1.390 . S
C983 H976 0.950 . S
C983 C980 1.387 . S
C984 C985 1.387 . S
C984 H988 0.950 . S
C984 C993 1.390 . S
C985 C984 1.387 . S
C985 C987 1.387 . S
H986 C993 0.950 . S
C987 C985 1.387 . S
C987 C989 1.390 . S
C987 H991 0.950 . S
H988 C984 0.950 . S
C989 C987 1.390 . S
C989 C990 1.387 . S
C989 H992 0.950 . S
C990 C989 1.387 . S
C990 C993 1.387 . S
H991 C987 0.950 . S
H992 C989 0.950 . S
C993 C984 1.390 . S
C993 H986 0.950 . S
C993 C990 1.387 . S
C994 C995 1.387 . S
C994 H998 0.950 . S
C994 C1003 1.390 . S
C995 C994 1.387 . S
C995 C997 1.387 . S
H996 C1003 0.950 . S
C997 C995 1.387 . S
C997 C999 1.390 . S
C997 H1001 0.950 . S
H998 C994 0.950 . S
C999 C997 1.390 . S
C999 C1000 1.387 . S
C999 H1002 0.950 . S
C1000 C999 1.387 . S
C1000 C1003 1.387 . S
H1001 C997 0.950 . S
H1002 C999 0.950 . S
C1003 C994 1.390 . S
C1003 H996 0.950 . S
C1003 C1000 1.387 . S
C1004 C1005 1.387 . S
C1004 H1008 0.950 . S
C1004 C1013 1.390 . S
C1005 C1004 1.387 . S
C1005 C1007 1.387 . S
H1006 C1013 0.950 . S
C1007 C1005 1.387 . S
C1007 C1009 1.390 . S
C1007 H1011 0.950 . S
H1008 C1004 0.950 . S
C1009 C1007 1.390 . S
C1009 C1010 1.387 . S
C1009 H1012 0.950 . S
C1010 C1009 1.387 . S
C1010 C1013 1.387 . S
H1011 C1007 0.950 . S
H1012 C1009 0.950 . S
C1013 C1004 1.390 . S
C1013 H1006 0.950 . S
C1013 C1010 1.387 . S
C1014 C1015 1.387 . S
C1014 H1018 0.950 . S
C1014 C1023 1.390 . S
C1015 C1014 1.387 . S
C1015 C1017 1.387 . S
H1016 C1023 0.950 . S
C1017 C1015 1.387 . S
C1017 C1019 1.390 . S
C1017 H1021 0.950 . S
H1018 C1014 0.950 . S
C1019 C1017 1.390 . S
C1019 C1020 1.387 . S
C1019 H1022 0.950 . S
C1020 C1019 1.387 . S
C1020 C1023 1.387 . S
H1021 C1017 0.950 . S
H1022 C1019 0.950 . S
C1023 C1014 1.390 . S
C1023 H1016 0.950 . S
C1023 C1020 1.387 . S
C1024 C1025 1.387 . S
C1024 H1028 0.950 . S
C1024 C1033 1.390 . S
C1025 C1024 1.387 . S
C1025 C1027 1.387 . S
H1026 C1033 0.950 . S
C1027 C1025 1.387 . S
C1027 C1029 1.390 . S
C1027 H1031 0.950 . S
H1028 C1024 0.950 . S
C1029 C1027 1.390 . S
C1029 C1030 1.387 . S
C1029 H1032 0.950 . S
C1030 C1029 1.387 . S
C1030 C1033 1.387 . S
H1031 C1027 0.950 . S
H1032 C1029 0.950 . S
C1033 C1024 1.390 . S
C1033 H1026 0.950 . S
C1033 C1030 1.387 . S
C1034 C1035 1.387 . S
C1034 H1038 0.950 . S
C1034 C1043 1.390 . S
C1035 C1034 1.387 . S
C1035 C1037 1.387 . S
H1036 C1043 0.950 . S
C1037 C1035 1.387 . S
C1037 C1039 1.390 . S
C1037 H1041 0.950 . S
H1038 C1034 0.950 . S
C1039 C1037 1.390 . S
C1039 C1040 1.387 . S
C1039 H1042 0.950 . S
C1040 C1039 1.387 . S
C1040 C1043 1.387 . S
H1041 C1037 0.950 . S
H1042 C1039 0.950 . S
C1043 C1034 1.390 . S
C1043 H1036 0.950 . S
C1043 C1040 1.387 . S
C595 N332 1.663 . S
C600 N2 1.665 . S
C605 N35 1.663 . S
C610 N365 1.666 . S
C615 N299 1.665 . S
C620 N68 1.665 . S
C625 N464 1.664 . S
C630 N101 1.664 . S
C635 N134 1.666 . S
C640 N398 1.663 . S
C645 N431 1.663 . S
C650 N167 1.666 . S
C655 C172 1.774 . S
C660 C469 1.774 . S
C665 C403 1.791 . S
C670 C106 1.773 . S
C675 C436 1.775 1_655 S
C680 C139 1.775 . S
C685 C40 1.775 . S
C690 C337 1.775 . S
C695 C73 1.773 . S
C700 C370 1.773 1_565 S
C705 C7 1.773 . S
C710 C304 1.790 . S
C715 N530 1.666 . S
C720 N200 1.663 . S
C725 N563 1.665 . S
C730 N233 1.665 . S
C735 N497 1.664 . S
C740 N266 1.664 . S
C745 C238 1.775 . S
C750 C535 1.775 . S
C755 C568 1.773 . S
C760 C271 1.773 . S
C765 C205 1.773 . S
C770 C502 1.773 . S
C775 C21 1.424 . S
C780 C582 1.424 . S
C785 C54 1.421 . S
C790 C516 1.421 . S
C795 C87 1.421 . S
C800 C549 1.421 . S
C805 C252 1.423 . S
C810 C120 1.423 . S
C815 C153 1.421 . S
C820 C285 1.421 . S
C825 C186 1.424 . S
C830 C219 1.424 . S
C835 C318 1.421 . S
C840 C450 1.417 1_655 S
C845 C351 1.424 . S
C850 C483 1.424 . S
C855 C384 1.417 1_565 S
C860 C417 1.421 . S
C865 N79 1.556 . S
C870 C18 1.567 . S
C875 C51 1.568 . S
C880 N13 1.557 . S
C885 N46 1.557 . S
C890 C84 1.568 . S
C895 N145 1.557 . S
C900 C117 1.568 . S
C905 C150 1.566 . S
C910 N178 1.555 . S
C915 N112 1.556 . S
C920 C183 1.567 . S
C925 C216 1.567 . S
C930 N277 1.556 . S
C935 N211 1.557 . S
C940 C249 1.568 . S
C945 C282 1.565 . S
C950 N244 1.554 . S
C955 C315 1.568 . S
C960 N343 1.557 . S
C965 N376 1.554 . S
C970 C348 1.565 . S
C975 C381 1.566 . S
C980 N310 1.555 . S
C985 C414 1.567 . S
C990 N475 1.556 . S
C995 N409 1.556 . S
C1000 C447 1.568 . S
C1005 C480 1.566 . S
C1010 N442 1.554 . S
C1015 C513 1.568 . S
C1020 N541 1.556 . S
C1025 N574 1.557 . S
C1030 C546 1.568 . S
C1035 N508 1.557 . S
C1040 C579 1.568 . S
