# Generated by pormake.
# Topology smu, (6)-cn, num edge types: 1
# Building blocks:
#     Node 0, Type 0, BuildingBlock: PAMTUU_clean_sbu_0, # of connection points: 6
#     Node 1, Type 0, BuildingBlock: PAMTUU_clean_sbu_0, # of connection points: 6
#     Node 2, Type 0, BuildingBlock: PAMTUU_clean_sbu_0, # of connection points: 6
#     Node 3, Type 0, BuildingBlock: PAMTUU_clean_sbu_0, # of connection points: 6
#     Node 4, Type 0, BuildingBlock: PAMTUU_clean_sbu_0, # of connection points: 6
#     Node 5, Type 0, BuildingBlock: PAMTUU_clean_sbu_0, # of connection points: 6
#     Edge 6, Type (0, 0), BuildingBlock: FUNLAD_clean_linker_0, # of connection points: 2
#     Edge 7, Type (0, 0), BuildingBlock: FUNLAD_clean_linker_0, # of connection points: 2
#     Edge 8, Type (0, 0), BuildingBlock: FUNLAD_clean_linker_0, # of connection points: 2
#     Edge 9, Type (0, 0), BuildingBlock: FUNLAD_clean_linker_0, # of connection points: 2
#     Edge 10, Type (0, 0), BuildingBlock: FUNLAD_clean_linker_0, # of connection points: 2
#     Edge 11, Type (0, 0), BuildingBlock: FUNLAD_clean_linker_0, # of connection points: 2
#     Edge 12, Type (0, 0), BuildingBlock: FUNLAD_clean_linker_0, # of connection points: 2
#     Edge 13, Type (0, 0), BuildingBlock: FUNLAD_clean_linker_0, # of connection points: 2
#     Edge 14, Type (0, 0), BuildingBlock: FUNLAD_clean_linker_0, # of connection points: 2
#     Edge 15, Type (0, 0), BuildingBlock: FUNLAD_clean_linker_0, # of connection points: 2
#     Edge 16, Type (0, 0), BuildingBlock: FUNLAD_clean_linker_0, # of connection points: 2
#     Edge 17, Type (0, 0), BuildingBlock: FUNLAD_clean_linker_0, # of connection points: 2
#     Edge 18, Type (0, 0), BuildingBlock: FUNLAD_clean_linker_0, # of connection points: 2
#     Edge 19, Type (0, 0), BuildingBlock: FUNLAD_clean_linker_0, # of connection points: 2
#     Edge 20, Type (0, 0), BuildingBlock: FUNLAD_clean_linker_0, # of connection points: 2
#     Edge 21, Type (0, 0), BuildingBlock: FUNLAD_clean_linker_0, # of connection points: 2
#     Edge 22, Type (0, 0), BuildingBlock: FUNLAD_clean_linker_0, # of connection points: 2
#     Edge 23, Type (0, 0), BuildingBlock: FUNLAD_clean_linker_0, # of connection points: 2
# Relax obj value: 0.212
# Max RMSD: 0.303
# Mean RMSD: 0.303
data_MOF--net-smu--node1-PAMTUU_clean_sbu_0--edge1-FUNLAD_clean_linker_0
_symmetry_space_group_name_H-M    P1
_symmetry_Int_Tables_number       1
_symmetry_cell_setting            triclinic
loop_
_symmetry_equiv_pos_as_xyz
'x, y, z'
_cell_length_a     44.126058
_cell_length_b     44.044311
_cell_length_c     32.509215
_cell_angle_alpha  90.119941
_cell_angle_beta   90.037066
_cell_angle_gamma 119.93558
loop_
_atom_site_label
_atom_site_type_symbol
_atom_site_fract_x
_atom_site_fract_y
_atom_site_fract_z
_atom_type_partial_charge
Tb0 Tb 0.31914 0.11328 0.26888 0.0
Tb1 Tb 0.37512 0.08454 0.26283 0.0
C2 C 0.33117 0.08296 0.18525 0.0
C3 C 0.25232 0.14616 0.26931 0.0
C4 C 0.20167 0.16644 0.25672 0.0
C5 C 0.21781 0.1601 0.22295 0.0
C6 C 0.24313 0.15021 0.2292 0.0
C7 C 0.23483 0.15047 0.30277 0.0
C8 C 0.20988 0.16059 0.29664 0.0
C9 C 0.28311 0.14269 0.27826 0.0
O10 O 0.2857 0.05847 0.25565 0.0
O11 O 0.32354 0.03724 0.27029 0.0
O12 O 0.37195 0.09629 0.32728 0.0
O13 O 0.31651 0.08779 0.32679 0.0
O14 O 0.41053 0.07723 0.22725 0.0
O15 O 0.40436 0.06458 0.29176 0.0
O16 O 0.40232 0.13972 0.24619 0.0
O17 O 0.37058 0.15375 0.28841 0.0
O18 O 0.32261 0.10482 0.20265 0.0
O19 O 0.3473 0.06932 0.20533 0.0
C20 C 0.29206 0.03275 0.26251 0.0
O21 O 0.27872 0.11591 0.29981 0.0
O22 O 0.30759 0.15211 0.25056 0.0
C23 C 0.34236 0.08737 0.34613 0.0
C24 C 0.46142 0.08685 0.26336 0.0
C25 C 0.53499 0.1166 0.26916 0.0
C26 C 0.51278 0.09385 0.29982 0.0
C27 C 0.47646 0.07906 0.29684 0.0
C28 C 0.48363 0.1104 0.23328 0.0
C29 C 0.51993 0.12507 0.23616 0.0
C30 C 0.4228 0.06862 0.25879 0.0
C31 C 0.39869 0.16326 0.26664 0.0
H32 H 0.21162 0.16372 0.19176 0.0
H33 H 0.25633 0.14704 0.20286 0.0
H34 H 0.24186 0.14787 0.334 0.0
H35 H 0.19853 0.16567 0.32344 0.0
H36 H 0.52343 0.08718 0.32605 0.0
H37 H 0.46006 0.06099 0.32044 0.0
H38 H 0.47302 0.11695 0.20691 0.0
H39 H 0.53608 0.14214 0.21172 0.0
Tb40 Tb 0.81052 0.70617 0.2627 0.0
Tb41 Tb 0.72702 0.64671 0.2592 0.0
C42 C 0.76638 0.68977 0.18017 0.0
C43 C 0.90925 0.77599 0.25713 0.0
C44 C 0.98019 0.82879 0.25266 0.0
C45 C 0.96776 0.79769 0.22977 0.0
C46 C 0.93266 0.77151 0.23209 0.0
C47 C 0.92109 0.80815 0.27752 0.0
C48 C 0.95617 0.83433 0.27517 0.0
C49 C 0.87585 0.74512 0.26929 0.0
O50 O 0.78649 0.73709 0.24924 0.0
O51 O 0.72881 0.69735 0.2669 0.0
O52 O 0.74311 0.65216 0.32335 0.0
O53 O 0.78839 0.70865 0.32144 0.0
O54 O 0.68484 0.60889 0.22483 0.0
O55 O 0.67835 0.6171 0.28888 0.0
O56 O 0.75702 0.62084 0.2448 0.0
O57 O 0.80231 0.65666 0.28564 0.0
O58 O 0.79717 0.69892 0.19672 0.0
O59 O 0.73731 0.6737 0.20137 0.0
C60 C 0.75432 0.72932 0.25785 0.0
O61 O 0.85309 0.75003 0.28938 0.0
O62 O 0.86108 0.71791 0.24489 0.0
C63 C 0.76313 0.68245 0.34148 0.0
C64 C 0.64447 0.55908 0.26282 0.0
C65 C 0.60252 0.48554 0.27094 0.0
C66 C 0.5954 0.50824 0.29422 0.0
C67 C 0.6161 0.54458 0.29009 0.0
C68 C 0.65221 0.5365 0.24023 0.0
C69 C 0.63139 0.50013 0.24419 0.0
C70 C 0.66415 0.59747 0.25656 0.0
C71 C 0.78519 0.62737 0.26526 0.0
H72 H 0.98557 0.79246 0.21234 0.0
H73 H 0.92448 0.74683 0.21654 0.0
H74 H 0.90384 0.81235 0.29743 0.0
H75 H 0.9648 0.85828 0.29255 0.0
H76 H 0.57318 0.49792 0.31479 0.0
H77 H 0.6095 0.56141 0.30765 0.0
H78 H 0.67402 0.54684 0.21904 0.0
H79 H 0.63789 0.48342 0.22625 0.0
Tb80 Tb 0.90974 0.21119 0.27088 0.0
Tb81 Tb 0.93683 0.29563 0.26883 0.0
C82 C 0.93994 0.25592 0.18898 0.0
C83 C 0.88107 0.1123 0.2671 0.0
C84 C 0.86363 0.04165 0.25773 0.0
C85 C 0.85895 0.05975 0.22493 0.0
C86 C 0.86746 0.09475 0.22962 0.0
C87 C 0.88767 0.09485 0.29888 0.0
C88 C 0.87909 0.05998 0.29429 0.0
C89 C 0.88216 0.14555 0.27696 0.0
O90 O 0.96465 0.23437 0.25759 0.0
O91 O 0.98423 0.29184 0.27853 0.0
O92 O 0.92582 0.27895 0.33283 0.0
O93 O 0.93474 0.23222 0.3298 0.0
O94 O 0.94893 0.34083 0.23514 0.0
O95 O 0.95067 0.34236 0.30126 0.0
O96 O 0.88189 0.26776 0.25117 0.0
O97 O 0.86813 0.22043 0.29055 0.0
O98 O 0.9185 0.22495 0.20521 0.0
O99 O 0.95271 0.28511 0.21028 0.0
C100 C 0.98972 0.26595 0.26778 0.0
O101 O 0.90729 0.16788 0.30062 0.0
O102 O 0.87301 0.1609 0.24925 0.0
C103 C 0.93498 0.25792 0.35045 0.0
C104 C 0.9319 0.37794 0.26792 0.0
C105 C 0.89684 0.41699 0.26528 0.0
C106 C 0.92716 0.42832 0.28939 0.0
C107 C 0.9445 0.40904 0.29059 0.0
C108 C 0.90109 0.36594 0.24468 0.0
C109 C 0.8838 0.38532 0.24329 0.0
C110 C 0.95183 0.35914 0.26786 0.0
C111 C 0.85847 0.23966 0.27015 0.0
H112 H 0.84755 0.04649 0.19616 0.0
H113 H 0.86182 0.10744 0.20466 0.0
H114 H 0.89749 0.10749 0.3284 0.0
H115 H 0.88259 0.04683 0.32044 0.0
H116 H 0.93757 0.45218 0.30739 0.0
H117 H 0.96805 0.41864 0.30894 0.0
H118 H 0.89066 0.34189 0.22703 0.0
H119 H 0.86073 0.3759 0.22414 0.0
Tb120 Tb 0.08894 0.3705 0.76161 0.0
Tb121 Tb 0.11282 0.31115 0.77397 0.0
C122 C 0.08442 0.33583 0.84639 0.0
C123 C 0.09649 0.45934 0.75665 0.0
C124 C 0.1311 0.53357 0.76026 0.0
C125 C 0.12089 0.51352 0.79651 0.0
C126 C 0.10376 0.4769 0.79474 0.0
C127 C 0.10701 0.47934 0.72045 0.0
C128 C 0.12423 0.51597 0.72222 0.0
C129 C 0.07637 0.42045 0.75447 0.0
O130 O 0.1433 0.39791 0.78269 0.0
O131 O 0.15668 0.3596 0.753 0.0
O132 O 0.09092 0.30179 0.71203 0.0
O133 O 0.10036 0.35739 0.70101 0.0
O134 O 0.11129 0.26859 0.80551 0.0
O135 O 0.15091 0.29771 0.75991 0.0
O136 O 0.05648 0.28051 0.77308 0.0
O137 O 0.04018 0.32081 0.75132 0.0
O138 O 0.06842 0.3452 0.81976 0.0
O139 O 0.11032 0.33102 0.83497 0.0
C140 C 0.16664 0.39024 0.76919 0.0
O141 O 0.08243 0.40547 0.72342 0.0
O142 O 0.07296 0.40355 0.78851 0.0
C143 C 0.09108 0.32569 0.68754 0.0
C144 C 0.13999 0.24002 0.77465 0.0
C145 C 0.15861 0.18741 0.76826 0.0
C146 C 0.17182 0.21535 0.74018 0.0
C147 C 0.16263 0.24138 0.74336 0.0
C148 C 0.1247 0.21074 0.80068 0.0
C149 C 0.13372 0.18459 0.79734 0.0
C150 C 0.13846 0.27178 0.78584 0.0
C151 C 0.03297 0.28874 0.76123 0.0
H152 H 0.12525 0.52604 0.82633 0.0
H153 H 0.09572 0.46238 0.82329 0.0
H154 H 0.10161 0.46667 0.69062 0.0
H155 H 0.13214 0.53049 0.69367 0.0
H156 H 0.19118 0.21855 0.71754 0.0
H157 H 0.1752 0.26376 0.72304 0.0
H158 H 0.10742 0.20906 0.82532 0.0
H159 H 0.1224 0.16299 0.81886 0.0
Tb160 Tb 0.29754 0.93221 0.75909 0.0
Tb161 Tb 0.2148 0.91053 0.7664 0.0
C162 C 0.26527 0.93701 0.84363 0.0
C163 C 0.37853 0.9243 0.75552 0.0
C164 C 0.41694 0.88856 0.75621 0.0
C165 C 0.42173 0.91285 0.78731 0.0
C166 C 0.40291 0.9306 0.7868 0.0
C167 C 0.37295 0.89943 0.72489 0.0
C168 C 0.39202 0.88179 0.72522 0.0
C169 C 0.36002 0.94454 0.75541 0.0
O170 O 0.26754 0.87666 0.77476 0.0
O171 O 0.21777 0.86634 0.74218 0.0
O172 O 0.23142 0.93244 0.70515 0.0
O173 O 0.27714 0.92225 0.69663 0.0
O174 O 0.16632 0.87692 0.79438 0.0
O175 O 0.17128 0.91421 0.74637 0.0
O176 O 0.24322 0.96558 0.78074 0.0
O177 O 0.296 0.98089 0.74918 0.0
O178 O 0.29248 0.94988 0.81923 0.0
O179 O 0.23336 0.91581 0.83005 0.0
C180 C 0.23738 0.85478 0.75783 0.0
O181 O 0.34128 0.94213 0.72328 0.0
O182 O 0.34421 0.94393 0.78937 0.0
C183 C 0.25534 0.93165 0.68186 0.0
C184 C 0.11349 0.87759 0.77526 0.0
C185 C 0.0409 0.85091 0.78248 0.0
C186 C 0.05604 0.85207 0.74393 0.0
C187 C 0.09208 0.86563 0.74033 0.0
C188 C 0.09882 0.87692 0.81363 0.0
C189 C 0.06293 0.86412 0.81716 0.0
C190 C 0.15089 0.88974 0.77191 0.0
C191 C 0.27332 0.98897 0.76506 0.0
H192 H 0.44008 0.91822 0.81218 0.0
H193 H 0.40756 0.9495 0.81088 0.0
H194 H 0.35422 0.89389 0.70042 0.0
H195 H 0.38781 0.86349 0.7006 0.0
H196 H 0.04004 0.84166 0.71661 0.0
H197 H 0.10308 0.86583 0.71047 0.0
H198 H 0.11516 0.88638 0.84085 0.0
H199 H 0.05252 0.86457 0.84716 0.0
Tb200 Tb 0.64985 0.72345 0.76462 0.0
Tb201 Tb 0.70959 0.80679 0.75581 0.0
C202 C 0.69291 0.76832 0.84 0.0
C203 C 0.56097 0.64322 0.77197 0.0
C204 C 0.48686 0.60459 0.77443 0.0
C205 C 0.50697 0.60253 0.80684 0.0
C206 C 0.54354 0.62147 0.80549 0.0
C207 C 0.54101 0.64604 0.73997 0.0
C208 C 0.50442 0.6269 0.74115 0.0
C209 C 0.59968 0.66112 0.7699 0.0
O210 O 0.62304 0.75142 0.74504 0.0
O211 O 0.66115 0.80254 0.77615 0.0
O212 O 0.68889 0.78553 0.69466 0.0
O213 O 0.67608 0.72952 0.70689 0.0
O214 O 0.72762 0.85805 0.77639 0.0
O215 O 0.74845 0.84823 0.72064 0.0
O216 O 0.74004 0.78082 0.75416 0.0
O217 O 0.69932 0.72363 0.7734 0.0
O218 O 0.66123 0.74807 0.82519 0.0
O219 O 0.71811 0.79146 0.81651 0.0
C220 C 0.6306 0.78211 0.75979 0.0
O221 O 0.61407 0.67663 0.73546 0.0
O222 O 0.61717 0.67988 0.80163 0.0
C223 C 0.68541 0.75567 0.68155 0.0
C224 C 0.78097 0.90554 0.75087 0.0
C225 C 0.83232 0.97662 0.76155 0.0
C226 C 0.81847 0.96334 0.72234 0.0
C227 C 0.79324 0.92821 0.71712 0.0
C228 C 0.79595 0.91795 0.78977 0.0
C229 C 0.82164 0.95319 0.795 0.0
C230 C 0.74867 0.87175 0.74522 0.0
C231 C 0.73146 0.74857 0.76425 0.0
H232 H 0.49449 0.58622 0.83337 0.0
H233 H 0.55826 0.6188 0.83052 0.0
H234 H 0.55358 0.66255 0.71358 0.0
H235 H 0.48997 0.62892 0.71539 0.0
H236 H 0.82544 0.98042 0.6959 0.0
H237 H 0.78165 0.91926 0.68695 0.0
H238 H 0.78678 0.90091 0.81634 0.0
H239 H 0.83225 0.96226 0.82549 0.0
C240 C 0.24497 0.95196 0.90956 0.0
C241 C 0.27139 0.95107 0.88621 0.0
C242 C 0.25311 0.97036 0.94715 0.0
C243 C 0.28786 0.98814 0.96185 0.0
C244 C 0.31365 0.98591 0.93899 0.0
C245 C 0.3056 0.96771 0.9019 0.0
C246 C 0.29942 0.00929 1.0005 0.0
C247 C 0.27922 0.01499 0.02705 0.0
C248 C 0.2937 0.03456 0.06651 0.0
C249 C 0.27803 0.05188 0.08595 0.0
C250 C 0.29098 0.06937 0.12374 0.0
C251 C 0.31968 0.06953 0.14282 0.0
H252 H 0.33451 0.02082 0.07342 0.0
C253 C 0.33539 0.0525 0.12301 0.0
C254 C 0.32242 0.03498 0.0859 0.0
H255 H 0.35732 0.05169 0.13683 0.0
H256 H 0.21838 0.9396 0.89812 0.0
H257 H 0.23229 0.97099 0.96394 0.0
H258 H 0.34056 0.99886 0.94951 0.0
H259 H 0.32663 0.96748 0.88496 0.0
H260 H 0.32718 0.02145 1.00711 0.0
H261 H 0.2519 1.00551 0.02011 0.0
H262 H 0.25556 0.05161 0.0721 0.0
H263 H 0.27784 0.08164 0.13858 0.0
C264 C 0.68955 0.71853 0.62636 0.0
C265 C 0.69491 0.75144 0.63895 0.0
C266 C 0.70105 0.71409 0.58811 0.0
C267 C 0.71785 0.74235 0.56066 0.0
C268 C 0.72314 0.77533 0.5731 0.0
C269 C 0.71176 0.77986 0.61181 0.0
C270 C 0.73127 0.7386 0.51979 0.0
C271 C 0.72052 0.70732 0.50119 0.0
C272 C 0.73352 0.70199 0.46091 0.0
C273 C 0.71646 0.66818 0.44355 0.0
C274 C 0.72679 0.66151 0.40554 0.0
C275 C 0.75465 0.68852 0.38382 0.0
H276 H 0.77663 0.75517 0.45194 0.0
C277 C 0.77245 0.7222 0.40157 0.0
C278 C 0.76211 0.72889 0.43968 0.0
H279 H 0.79401 0.74371 0.38566 0.0
H280 H 0.67707 0.69603 0.64653 0.0
H281 H 0.69743 0.6885 0.58111 0.0
H282 H 0.73639 0.79775 0.55294 0.0
H283 H 0.71682 0.80568 0.62076 0.0
H284 H 0.74998 0.76258 0.50457 0.0
H285 H 0.70004 0.68378 0.51545 0.0
H286 H 0.69458 0.64676 0.4592 0.0
H287 H 0.71242 0.63529 0.39286 0.0
C288 C 0.97168 0.2922 0.12815 0.0
C289 C 0.95399 0.25897 0.14665 0.0
C290 C 0.98922 0.2973 0.09095 0.0
C291 C 0.98916 0.26915 0.07031 0.0
C292 C 0.97125 0.23573 0.08853 0.0
C293 C 0.9537 0.23061 0.12626 0.0
C294 C 1.00851 0.27452 0.03066 0.0
C295 C 0.0153 0.30134 1.00511 0.0
C296 C 0.03492 0.30966 0.96548 0.0
C297 C 0.03307 0.33423 0.93977 0.0
C298 C 0.05041 0.34349 0.9022 0.0
C299 C 0.07048 0.32866 0.88898 0.0
H300 H 0.05847 0.27676 0.97225 0.0
C301 C 0.07347 0.30478 0.91502 0.0
C302 C 0.05577 0.29527 0.95301 0.0
H303 H 0.08852 0.29269 0.90551 0.0
H304 H 0.97287 0.31482 0.14299 0.0
H305 H 1.00371 0.32379 0.07937 0.0
H306 H 0.97105 0.21358 0.0737 0.0
H307 H 0.94091 0.2048 0.14 0.0
H308 H 0.01629 0.25556 0.02213 0.0
H309 H 1.00456 0.31809 1.01272 0.0
H310 H 0.01763 0.34613 0.94849 0.0
H311 H 0.04755 0.36204 0.88309 0.0
C312 C 0.30343 0.06048 0.4072 0.0
C313 C 0.33618 0.07267 0.38837 0.0
C314 C 0.29588 0.04329 0.4451 0.0
C315 C 0.3209 0.03758 0.46525 0.0
C316 C 0.35397 0.05068 0.44689 0.0
C317 C 0.36153 0.06793 0.40891 0.0
C318 C 0.31392 0.01841 0.50523 0.0
C319 C 0.28201 0.99998 0.52279 0.0
C320 C 0.2754 0.9812 0.56282 0.0
C321 C 0.2456 0.97449 0.58548 0.0
C322 C 0.23845 0.95737 0.62341 0.0
C323 C 0.26074 0.94608 0.63951 0.0
H324 H 0.31992 0.97275 0.56138 0.0
C325 C 0.29004 0.95182 0.61628 0.0
C326 C 0.29729 0.96914 0.57837 0.0
H327 H 0.30786 0.94358 0.62772 0.0
H328 H 0.28319 0.06361 0.39234 0.0
H329 H 0.27034 0.03468 0.45803 0.0
H330 H 0.37395 0.04703 0.46163 0.0
H331 H 0.38698 0.07684 0.39529 0.0
H332 H 0.33631 0.01965 0.5207 0.0
H333 H 0.25945 0.99896 0.50821 0.0
H334 H 0.22807 0.98317 0.57418 0.0
H335 H 0.21575 0.95361 0.64044 0.0
C336 C 0.73536 0.77696 0.89708 0.0
C337 C 0.70073 0.76187 0.88254 0.0
C338 C 0.74264 0.76721 0.93536 0.0
C339 C 0.71534 0.74207 0.95992 0.0
C340 C 0.68078 0.72794 0.94566 0.0
C341 C 0.67357 0.73761 0.90765 0.0
C342 C 0.72074 0.72897 1.00014 0.0
C343 C 0.75182 0.73907 0.01883 0.0
C344 C 0.7552 0.72509 0.05968 0.0
C345 C 0.78849 0.73276 0.074 0.0
C346 C 0.7926 0.72084 0.11264 0.0
C347 C 0.76339 0.7008 0.13776 0.0
H348 H 0.70006 0.69907 0.0771 0.0
C349 C 0.73021 0.69296 0.12317 0.0
C350 C 0.72618 0.70509 0.08521 0.0
H351 H 0.70694 0.67795 0.14154 0.0
H352 H 0.75697 0.79554 0.87838 0.0
H353 H 0.76964 0.77907 0.94493 0.0
H354 H 0.65905 0.70871 0.96375 0.0
H355 H 0.64658 0.72532 0.89759 0.0
H356 H 0.69699 0.70904 0.01444 0.0
H357 H 0.77585 0.758 1.00394 0.0
H358 H 0.81148 0.74831 0.0554 0.0
H359 H 0.81859 0.72772 0.12299 0.0
C360 C 0.96342 0.2456 0.4101 0.0
C361 C 0.94981 0.26559 0.39282 0.0
C362 C 0.98075 0.25475 0.44809 0.0
C363 C 0.985 0.2843 0.47001 0.0
C364 C 0.97061 0.30373 0.45306 0.0
C365 C 0.95333 0.29459 0.415 0.0
C366 C 1.00435 0.29624 0.5101 0.0
C367 C 0.02132 0.28153 0.52877 0.0
C368 C 0.04064 0.29416 0.56864 0.0
C369 C 0.04652 0.27096 0.59243 0.0
C370 C 0.06398 0.28145 0.6303 0.0
C371 C 0.07641 0.31566 0.64521 0.0
H372 H 0.05118 0.34789 0.56518 0.0
C373 C 0.07155 0.33926 0.62077 0.0
C374 C 0.05399 0.32873 0.58298 0.0
H375 H 0.0807 0.36583 0.63116 0.0
H376 H 0.96142 0.22317 0.39386 0.0
H377 H 0.99087 0.23856 0.4595 0.0
H378 H 0.97324 0.32655 0.46902 0.0
H379 H 0.9434 0.31075 0.40262 0.0
H380 H 1.00432 0.31832 0.52491 0.0
H381 H 0.02057 0.25864 0.51539 0.0
H382 H 0.03692 0.24429 0.58208 0.0
H383 H 0.06702 0.26246 0.64828 0.0
C384 C 0.59753 0.16434 0.25775 0.0
C385 C 0.57345 0.13009 0.27057 0.0
C386 C 0.63354 0.17636 0.25777 0.0
C387 C 0.64641 0.15438 0.27078 0.0
C388 C 0.62225 0.12024 0.28365 0.0
C389 C 0.58636 0.10826 0.28358 0.0
C390 C 0.68436 0.16516 0.27092 0.0
C391 C 0.71101 0.19818 0.2651 0.0
C392 C 0.7487 0.20805 0.26645 0.0
C393 C 0.77374 0.23955 0.24801 0.0
C394 C 0.80939 0.25 0.24912 0.0
C395 C 0.82087 0.22925 0.26905 0.0
H396 H 0.74243 0.16372 0.30269 0.0
C397 C 0.7959 0.19794 0.28787 0.0
C398 C 0.76036 0.18753 0.28679 0.0
H399 H 0.80376 0.18134 0.30368 0.0
H400 H 0.58858 0.18198 0.24777 0.0
H401 H 0.65082 0.20268 0.24705 0.0
H402 H 0.63114 0.10254 0.29367 0.0
H403 H 0.56868 0.08152 0.29293 0.0
H404 H 0.69032 0.14439 0.27617 0.0
H405 H 0.70552 0.21908 0.25869 0.0
H406 H 0.76568 0.25611 0.23247 0.0
H407 H 0.82791 0.27432 0.23441 0.0
C408 C 0.5694 0.42577 0.23831 0.0
C409 C 0.57936 0.44686 0.27386 0.0
C410 C 0.5465 0.38959 0.24085 0.0
C411 C 0.53321 0.37359 0.27918 0.0
C412 C 0.5433 0.39472 0.31463 0.0
C413 C 0.56613 0.43084 0.31207 0.0
C414 C 0.50755 0.33548 0.28349 0.0
C415 C 0.50239 0.311 0.255 0.0
C416 C 0.47601 0.2731 0.25957 0.0
C417 C 0.48005 0.24819 0.2368 0.0
C418 C 0.45536 0.21245 0.23952 0.0
C419 C 0.42582 0.20085 0.26482 0.0
H420 H 0.44139 0.27967 0.30175 0.0
C421 C 0.42165 0.22578 0.28742 0.0
C422 C 0.44631 0.26143 0.28475 0.0
H423 H 0.39902 0.21786 0.30688 0.0
H424 H 0.57854 0.43736 0.20828 0.0
H425 H 0.53865 0.37463 0.21257 0.0
H426 H 0.5334 0.38324 0.34454 0.0
H427 H 0.5735 0.44622 0.34011 0.0
H428 H 0.4932 0.32732 0.31222 0.0
H429 H 0.51883 0.31849 0.22785 0.0
H430 H 0.50243 0.2564 0.2168 0.0
H431 H 0.45924 0.19399 0.22143 0.0
C432 C 0.89964 0.47535 0.26041 0.0
C433 C 0.87949 0.43861 0.2624 0.0
C434 C 0.88365 0.49584 0.25769 0.0
C435 C 0.84692 0.48013 0.25728 0.0
C436 C 0.8268 0.44339 0.25844 0.0
C437 C 0.84282 0.42287 0.26109 0.0
C438 C 0.82875 0.50107 0.25491 0.0
C439 C 0.84389 0.53496 0.26666 0.0
C440 C 0.82696 0.55707 0.2657 0.0
C441 C 0.84535 0.5906 0.28338 0.0
C442 C 0.83149 0.61293 0.28338 0.0
C443 C 0.79872 0.60254 0.26549 0.0
H444 H 0.77899 0.52115 0.23309 0.0
C445 C 0.78011 0.56906 0.24753 0.0
C446 C 0.79404 0.54649 0.2476 0.0
H447 H 0.75485 0.56033 0.23334 0.0
H448 H 0.92793 0.48838 0.26019 0.0
H449 H 0.90037 0.52389 0.25514 0.0
H450 H 0.7985 0.43047 0.25777 0.0
H451 H 0.82642 0.39467 0.26271 0.0
H452 H 0.80171 0.48743 0.24485 0.0
H453 H 0.87019 0.5474 0.2792 0.0
H454 H 0.87079 0.59975 0.29732 0.0
H455 H 0.84683 0.63862 0.2972 0.0
C456 C 0.13957 0.5907 0.73275 0.0
C457 C 0.14791 0.57256 0.76206 0.0
C458 C 0.15489 0.62717 0.73451 0.0
C459 C 0.17869 0.64658 0.76611 0.0
C460 C 0.18735 0.62849 0.79509 0.0
C461 C 0.17214 0.59198 0.79319 0.0
C462 C 0.19555 0.68557 0.76938 0.0
C463 C 0.18252 0.70424 0.75136 0.0
C464 C 0.19817 0.74311 0.75399 0.0
C465 C 0.17889 0.75771 0.7375 0.0
C466 C 0.19182 0.79378 0.73863 0.0
C467 C 0.2246 0.81654 0.75629 0.0
H468 H 0.24743 0.75614 0.78397 0.0
C469 C 0.24424 0.80222 0.77262 0.0
C470 C 0.23125 0.76589 0.77143 0.0
H471 H 0.26964 0.81902 0.78634 0.0
H472 H 0.12083 0.5767 0.70853 0.0
H473 H 0.14815 0.6398 0.71062 0.0
H474 H 0.20586 0.64263 0.8195 0.0
H475 H 0.17967 0.57904 0.81593 0.0
H476 H 0.21866 0.69879 0.78861 0.0
H477 H 0.15811 0.69033 0.73448 0.0
H478 H 0.15347 0.74109 0.72366 0.0
H479 H 0.17586 0.80372 0.72569 0.0
C480 C 0.47401 0.89001 0.76743 0.0
C481 C 0.43862 0.87124 0.75568 0.0
C482 C 0.49455 0.87408 0.7673 0.0
C483 C 0.48046 0.83895 0.75466 0.0
C484 C 0.44503 0.82006 0.74328 0.0
C485 C 0.42435 0.83599 0.74365 0.0
C486 C 0.50159 0.82099 0.75432 0.0
C487 C 0.53682 0.83853 0.75257 0.0
C488 C 0.5591 0.82204 0.75488 0.0
C489 C 0.59384 0.84315 0.76767 0.0
C490 C 0.61652 0.82982 0.76957 0.0
C491 C 0.60527 0.79494 0.75825 0.0
H492 H 0.52107 0.77002 0.73287 0.0
C493 C 0.57047 0.77356 0.74527 0.0
C494 C 0.54748 0.78695 0.74369 0.0
H495 H 0.56106 0.74662 0.73621 0.0
H496 H 0.48608 0.91727 0.77654 0.0
H497 H 0.52127 0.88947 0.77785 0.0
H498 H 0.43328 0.79287 0.73394 0.0
H499 H 0.39707 0.82052 0.73504 0.0
H500 H 0.48755 0.79259 0.75567 0.0
H501 H 0.55068 0.86689 0.75049 0.0
H502 H 0.6036 0.87025 0.77637 0.0
H503 H 0.64315 0.84724 0.77957 0.0
C504 C 0.21819 0.45136 0.77964 0.0
C505 C 0.20476 0.41549 0.77176 0.0
C506 C 0.25454 0.47443 0.78112 0.0
C507 C 0.27805 0.46187 0.77491 0.0
C508 C 0.26433 0.42595 0.76771 0.0
C509 C 0.22836 0.40317 0.76597 0.0
C510 C 0.3169 0.48441 0.77663 0.0
C511 C 0.33466 0.51972 0.77442 0.0
C512 C 0.37374 0.54098 0.77502 0.0
C513 C 0.39029 0.57525 0.75936 0.0
C514 C 0.42683 0.59593 0.75921 0.0
C515 C 0.44785 0.58289 0.7749 0.0
H516 H 0.38344 0.50242 0.80499 0.0
C517 C 0.43124 0.54869 0.79093 0.0
C518 C 0.39478 0.52815 0.79134 0.0
H519 H 0.44642 0.5375 0.80288 0.0
H520 H 0.20068 0.46162 0.78437 0.0
H521 H 0.26389 0.50177 0.78762 0.0
H522 H 0.28157 0.41532 0.7632 0.0
H523 H 0.2191 0.37566 0.7603 0.0
H524 H 0.33152 0.47064 0.77779 0.0
H525 H 0.32043 0.53365 0.76998 0.0
H526 H 0.3749 0.58606 0.74696 0.0
H527 H 0.43855 0.6223 0.74719 0.0
C528 C 0.1502 0.17287 0.2775 0.0
C529 C 0.17865 0.18186 0.251 0.0
C530 C 0.13095 0.19013 0.275 0.0
C531 C 0.13962 0.21672 0.24577 0.0
C532 C 0.16697 0.22464 0.21816 0.0
C533 C 0.18649 0.20766 0.22093 0.0
C534 C 0.11959 0.23543 0.24206 0.0
C535 C 0.10371 0.24092 0.27431 0.0
C536 C 0.0798 0.25555 0.27086 0.0
C537 C 0.06763 0.26324 0.30722 0.0
C538 C 0.04042 0.27086 0.30599 0.0
C539 C 0.02498 0.2708 0.26834 0.0
H540 H 0.07372 0.25208 0.20407 0.0
C541 C 0.03851 0.26552 0.2318 0.0
C542 C 0.06577 0.25813 0.23291 0.0
H543 H 0.02626 0.2646 0.20254 0.0
H544 H 0.14283 0.15254 0.30036 0.0
H545 H 0.10907 0.18227 0.29567 0.0
H546 H 0.1738 0.24464 0.19495 0.0
H547 H 0.20842 0.21563 0.20031 0.0
H548 H 0.1188 0.24544 0.2119 0.0
H549 H 0.10753 0.23337 0.30484 0.0
H550 H 0.07773 0.2613 0.33689 0.0
H551 H 0.02956 0.27383 0.33461 0.0
C552 C 0.04073 0.86117 0.22255 0.0
C553 C 0.01838 0.85346 0.25651 0.0
C554 C 0.07695 0.88217 0.22723 0.0
C555 C 0.09155 0.89576 0.26612 0.0
C556 C 0.06915 0.88883 0.29974 0.0
C557 C 0.03303 0.86777 0.29511 0.0
C558 C 0.12976 0.91836 0.2727 0.0
C559 C 0.15426 0.91762 0.24864 0.0
C560 C 0.19216 0.94262 0.25421 0.0
C561 C 0.21374 0.95446 0.21935 0.0
C562 C 0.24816 0.98208 0.22262 0.0
C563 C 0.26163 0.99757 0.26096 0.0
H564 H 0.19118 0.94718 0.32078 0.0
C565 C 0.24116 0.98397 0.29631 0.0
C566 C 0.20669 0.9565 0.29306 0.0
H567 H 0.25104 0.99613 0.32604 0.0
H568 H 0.03022 0.85101 0.1923 0.0
H569 H 0.09322 0.88801 0.20023 0.0
H570 H 0.07967 0.89923 0.32994 0.0
H571 H 0.01669 0.86192 0.3221 0.0
H572 H 0.13781 0.9364 0.29856 0.0
H573 H 0.14648 0.89996 0.22246 0.0
H574 H 0.20327 0.94399 0.18916 0.0
H575 H 0.26343 0.9929 0.1949 0.0
C576 C 0.81652 0.98097 0.23833 0.0
C577 C 0.84961 1.00318 0.25569 0.0
C578 C 0.80132 0.94456 0.24082 0.0
C579 C 0.819 0.92948 0.26064 0.0
C580 C 0.85246 0.95174 0.27694 0.0
C581 C 0.86763 0.98809 0.27443 0.0
C582 C 0.80339 0.89103 0.26657 0.0
C583 C 0.77433 0.86622 0.24749 0.0
C584 C 0.76178 0.82834 0.25316 0.0
C585 C 0.7479 0.80553 0.21935 0.0
C586 C 0.7416 0.77115 0.222 0.0
C587 C 0.74828 0.75903 0.25882 0.0
H588 H 0.77526 0.83169 0.31796 0.0
C589 C 0.75915 0.78073 0.29363 0.0
C590 C 0.76567 0.8151 0.29095 0.0
H591 H 0.76508 0.77194 0.32208 0.0
H592 H 0.80161 0.9917 0.22434 0.0
H593 H 0.77532 0.92865 0.22834 0.0
H594 H 0.86682 0.94099 0.2923 0.0
H595 H 0.8933 1.00439 0.28778 0.0
H596 H 0.81755 0.88276 0.28676 0.0
H597 H 0.76126 0.87338 0.22445 0.0
H598 H 0.74436 0.81503 0.19005 0.0
H599 H 0.73406 0.75497 0.19456 0.0
C600 C 0.18339 0.153 0.73409 0.0
C601 C 0.17358 0.16371 0.77009 0.0
C602 C 0.20014 0.13316 0.73643 0.0
C603 C 0.20735 0.12358 0.7749 0.0
C604 C 0.19673 0.13345 0.81071 0.0
C605 C 0.18035 0.1535 0.80841 0.0
C606 C 0.22443 0.10205 0.77918 0.0
C607 C 0.2472 0.10173 0.75172 0.0
C608 C 0.26224 0.07828 0.75631 0.0
C609 C 0.27064 0.06559 0.72093 0.0
C610 C 0.27884 0.03878 0.72398 0.0
C611 C 0.27887 0.02456 0.76251 0.0
H612 H 0.26162 0.0768 0.82325 0.0
C613 C 0.27391 0.03955 0.7981 0.0
C614 C 0.26614 0.0665 0.79512 0.0
H615 H 0.27364 0.02872 0.82811 0.0
H616 H 0.17807 0.1599 0.70406 0.0
H617 H 0.20685 0.12497 0.70812 0.0
H618 H 0.20173 0.12619 0.84072 0.0
H619 H 0.17388 0.16178 0.83686 0.0
H620 H 0.21782 0.08592 0.80656 0.0
H621 H 0.25348 0.11745 0.72402 0.0
H622 H 0.26836 0.07459 0.6907 0.0
H623 H 0.28188 0.02703 0.6961 0.0
C624 C 0.98217 0.8377 0.75484 0.0
C625 C 1.0023 0.83499 0.78671 0.0
C626 C 0.94581 0.82136 0.75816 0.0
C627 C 0.92882 0.8023 0.79366 0.0
C628 C 0.94882 0.80055 0.82603 0.0
C629 C 0.98509 0.81626 0.82242 0.0
C630 C 0.8904 0.78528 0.79824 0.0
C631 C 0.86844 0.76919 0.76654 0.0
C632 C 0.8301 0.75565 0.76795 0.0
C633 C 0.81218 0.74955 0.73041 0.0
C634 C 0.77784 0.74303 0.72947 0.0
C635 C 0.76061 0.7418 0.76611 0.0
H636 H 0.82386 0.7546 0.8346 0.0
C637 C 0.7771 0.74461 0.80387 0.0
C638 C 0.8116 0.75132 0.80489 0.0
H639 H 0.76434 0.7444 0.83243 0.0
H640 H 0.99443 0.85269 0.72738 0.0
H641 H 0.93112 0.82421 0.73326 0.0
H642 H 0.93627 0.78631 0.85385 0.0
H643 H 0.99946 0.81305 0.84741 0.0
H644 H 0.88057 0.78637 0.82842 0.0
H645 H 0.87946 0.76801 0.73707 0.0
H646 H 0.82553 0.75231 0.70151 0.0
H647 H 0.76567 0.74161 0.7 0.0
C648 C 0.9799 0.24105 0.79264 0.0
C649 C 0.99749 0.25905 0.75704 0.0
C650 C 0.95299 0.20624 0.79027 0.0
C651 C 0.94387 0.18855 0.75216 0.0
C652 C 0.95947 0.20777 0.71621 0.0
C653 C 0.98621 0.24275 0.71862 0.0
C654 C 0.9206 0.14988 0.74871 0.0
C655 C 0.91314 0.12756 0.78046 0.0
C656 C 0.89335 0.08895 0.77539 0.0
C657 C 0.87152 0.06814 0.80726 0.0
C658 C 0.8524 0.03168 0.80329 0.0
C659 C 0.85533 0.01513 0.76763 0.0
H660 H 0.91492 0.08778 0.71582 0.0
C661 C 0.87857 0.03606 0.73655 0.0
C662 C 0.89719 0.07254 0.74025 0.0
H663 H 0.88232 0.02431 0.70916 0.0
H664 H 0.98867 0.25313 0.82263 0.0
H665 H 0.94077 0.19312 0.81864 0.0
H666 H 0.95274 0.19503 0.68638 0.0
H667 H 1.00008 0.256 0.69089 0.0
H668 H 0.91113 0.13921 0.71819 0.0
H669 H 0.92172 0.13732 0.81138 0.0
H670 H 0.86855 0.0802 0.8349 0.0
H671 H 0.83451 0.01666 0.82768 0.0
loop_
_geom_bond_atom_site_label_1
_geom_bond_atom_site_label_2
_geom_bond_distance
_geom_bond_site_symmetry_2
_ccdc_geom_bond_type
Tb0 C9 2.764 . S
Tb0 O10 2.325 . S
Tb0 O13 2.303 . S
Tb0 O17 2.322 . S
Tb0 O18 2.349 . S
Tb0 O21 2.415 . S
Tb0 O22 2.399 . S
Tb1 O11 2.322 . S
Tb1 O12 2.349 . S
Tb1 O14 2.415 . S
Tb1 O15 2.399 . S
Tb1 O16 2.325 . S
Tb1 O19 2.303 . S
Tb1 C30 2.764 . S
C2 O18 1.261 . S
C2 O19 1.257 . S
C3 C6 1.358 . S
C3 C7 1.332 . S
C3 C9 1.504 . S
C4 C5 1.373 . S
C4 C8 1.308 . S
C5 C4 1.373 . S
C5 C6 1.429 . S
C5 H32 0.932 . S
C6 C3 1.358 . S
C6 C5 1.429 . S
C6 H33 0.930 . S
C7 C3 1.332 . S
C7 C8 1.394 . S
C7 H34 0.932 . S
C8 C4 1.308 . S
C8 C7 1.394 . S
C8 H35 0.929 . S
C9 Tb0 2.764 . S
C9 C3 1.504 . S
C9 O21 1.239 . S
C9 O22 1.263 . S
O10 Tb0 2.325 . S
O10 C20 1.236 . S
O11 Tb1 2.322 . S
O11 C20 1.257 . S
O12 Tb1 2.349 . S
O12 C23 1.261 . S
O13 Tb0 2.303 . S
O13 C23 1.257 . S
O14 Tb1 2.415 . S
O14 C30 1.239 . S
O15 Tb1 2.399 . S
O15 C30 1.263 . S
O16 Tb1 2.325 . S
O16 C31 1.236 . S
O17 Tb0 2.322 . S
O17 C31 1.257 . S
O18 Tb0 2.349 . S
O18 C2 1.261 . S
O19 Tb1 2.303 . S
O19 C2 1.257 . S
C20 O10 1.236 . S
C20 O11 1.257 . S
O21 Tb0 2.415 . S
O21 C9 1.239 . S
O22 Tb0 2.399 . S
O22 C9 1.263 . S
C23 O12 1.261 . S
C23 O13 1.257 . S
C24 C27 1.358 . S
C24 C28 1.332 . S
C24 C30 1.504 . S
C25 C26 1.373 . S
C25 C29 1.308 . S
C26 C25 1.373 . S
C26 C27 1.429 . S
C26 H36 0.932 . S
C27 C24 1.358 . S
C27 C26 1.429 . S
C27 H37 0.930 . S
C28 C24 1.332 . S
C28 C29 1.394 . S
C28 H38 0.932 . S
C29 C25 1.308 . S
C29 C28 1.394 . S
C29 H39 0.929 . S
C30 Tb1 2.764 . S
C30 O14 1.239 . S
C30 O15 1.263 . S
C30 C24 1.504 . S
C31 O16 1.236 . S
C31 O17 1.257 . S
H32 C5 0.932 . S
H33 C6 0.930 . S
H34 C7 0.932 . S
H35 C8 0.929 . S
H36 C26 0.932 . S
H37 C27 0.930 . S
H38 C28 0.932 . S
H39 C29 0.929 . S
Tb40 C49 2.764 . S
Tb40 O50 2.325 . S
Tb40 O53 2.303 . S
Tb40 O57 2.322 . S
Tb40 O58 2.349 . S
Tb40 O61 2.415 . S
Tb40 O62 2.399 . S
Tb41 O51 2.322 . S
Tb41 O52 2.349 . S
Tb41 O54 2.415 . S
Tb41 O55 2.399 . S
Tb41 O56 2.325 . S
Tb41 O59 2.303 . S
Tb41 C70 2.764 . S
C42 O58 1.261 . S
C42 O59 1.257 . S
C43 C46 1.358 . S
C43 C47 1.332 . S
C43 C49 1.504 . S
C44 C45 1.373 . S
C44 C48 1.308 . S
C45 C44 1.373 . S
C45 C46 1.429 . S
C45 H72 0.932 . S
C46 C43 1.358 . S
C46 C45 1.429 . S
C46 H73 0.930 . S
C47 C43 1.332 . S
C47 C48 1.394 . S
C47 H74 0.932 . S
C48 C44 1.308 . S
C48 C47 1.394 . S
C48 H75 0.929 . S
C49 Tb40 2.764 . S
C49 C43 1.504 . S
C49 O61 1.239 . S
C49 O62 1.263 . S
O50 Tb40 2.325 . S
O50 C60 1.236 . S
O51 Tb41 2.322 . S
O51 C60 1.257 . S
O52 Tb41 2.349 . S
O52 C63 1.261 . S
O53 Tb40 2.303 . S
O53 C63 1.257 . S
O54 Tb41 2.415 . S
O54 C70 1.239 . S
O55 Tb41 2.399 . S
O55 C70 1.263 . S
O56 Tb41 2.325 . S
O56 C71 1.236 . S
O57 Tb40 2.322 . S
O57 C71 1.257 . S
O58 Tb40 2.349 . S
O58 C42 1.261 . S
O59 Tb41 2.303 . S
O59 C42 1.257 . S
C60 O50 1.236 . S
C60 O51 1.257 . S
O61 Tb40 2.415 . S
O61 C49 1.239 . S
O62 Tb40 2.399 . S
O62 C49 1.263 . S
C63 O52 1.261 . S
C63 O53 1.257 . S
C64 C67 1.358 . S
C64 C68 1.332 . S
C64 C70 1.504 . S
C65 C66 1.373 . S
C65 C69 1.308 . S
C66 C65 1.373 . S
C66 C67 1.429 . S
C66 H76 0.932 . S
C67 C64 1.358 . S
C67 C66 1.429 . S
C67 H77 0.930 . S
C68 C64 1.332 . S
C68 C69 1.394 . S
C68 H78 0.932 . S
C69 C65 1.308 . S
C69 C68 1.394 . S
C69 H79 0.929 . S
C70 Tb41 2.764 . S
C70 O54 1.239 . S
C70 O55 1.263 . S
C70 C64 1.504 . S
C71 O56 1.236 . S
C71 O57 1.257 . S
H72 C45 0.932 . S
H73 C46 0.930 . S
H74 C47 0.932 . S
H75 C48 0.929 . S
H76 C66 0.932 . S
H77 C67 0.930 . S
H78 C68 0.932 . S
H79 C69 0.929 . S
Tb80 C89 2.764 . S
Tb80 O90 2.325 . S
Tb80 O93 2.303 . S
Tb80 O97 2.322 . S
Tb80 O98 2.349 . S
Tb80 O101 2.415 . S
Tb80 O102 2.399 . S
Tb81 O91 2.322 . S
Tb81 O92 2.349 . S
Tb81 O94 2.415 . S
Tb81 O95 2.399 . S
Tb81 O96 2.325 . S
Tb81 O99 2.303 . S
Tb81 C110 2.764 . S
C82 O98 1.261 . S
C82 O99 1.257 . S
C83 C86 1.358 . S
C83 C87 1.332 . S
C83 C89 1.504 . S
C84 C85 1.373 . S
C84 C88 1.308 . S
C85 C84 1.373 . S
C85 C86 1.429 . S
C85 H112 0.932 . S
C86 C83 1.358 . S
C86 C85 1.429 . S
C86 H113 0.930 . S
C87 C83 1.332 . S
C87 C88 1.394 . S
C87 H114 0.932 . S
C88 C84 1.308 . S
C88 C87 1.394 . S
C88 H115 0.929 . S
C89 Tb80 2.764 . S
C89 C83 1.504 . S
C89 O101 1.239 . S
C89 O102 1.263 . S
O90 Tb80 2.325 . S
O90 C100 1.236 . S
O91 Tb81 2.322 . S
O91 C100 1.257 . S
O92 Tb81 2.349 . S
O92 C103 1.261 . S
O93 Tb80 2.303 . S
O93 C103 1.257 . S
O94 Tb81 2.415 . S
O94 C110 1.239 . S
O95 Tb81 2.399 . S
O95 C110 1.263 . S
O96 Tb81 2.325 . S
O96 C111 1.236 . S
O97 Tb80 2.322 . S
O97 C111 1.257 . S
O98 Tb80 2.349 . S
O98 C82 1.261 . S
O99 Tb81 2.303 . S
O99 C82 1.257 . S
C100 O90 1.236 . S
C100 O91 1.257 . S
O101 Tb80 2.415 . S
O101 C89 1.239 . S
O102 Tb80 2.399 . S
O102 C89 1.263 . S
C103 O92 1.261 . S
C103 O93 1.257 . S
C104 C107 1.358 . S
C104 C108 1.332 . S
C104 C110 1.504 . S
C105 C106 1.373 . S
C105 C109 1.308 . S
C106 C105 1.373 . S
C106 C107 1.429 . S
C106 H116 0.932 . S
C107 C104 1.358 . S
C107 C106 1.429 . S
C107 H117 0.930 . S
C108 C104 1.332 . S
C108 C109 1.394 . S
C108 H118 0.932 . S
C109 C105 1.308 . S
C109 C108 1.394 . S
C109 H119 0.929 . S
C110 Tb81 2.764 . S
C110 O94 1.239 . S
C110 O95 1.263 . S
C110 C104 1.504 . S
C111 O96 1.236 . S
C111 O97 1.257 . S
H112 C85 0.932 . S
H113 C86 0.930 . S
H114 C87 0.932 . S
H115 C88 0.929 . S
H116 C106 0.932 . S
H117 C107 0.930 . S
H118 C108 0.932 . S
H119 C109 0.929 . S
Tb120 C129 2.764 . S
Tb120 O130 2.325 . S
Tb120 O133 2.303 . S
Tb120 O137 2.322 . S
Tb120 O138 2.349 . S
Tb120 O141 2.415 . S
Tb120 O142 2.399 . S
Tb121 O131 2.322 . S
Tb121 O132 2.349 . S
Tb121 O134 2.415 . S
Tb121 O135 2.399 . S
Tb121 O136 2.325 . S
Tb121 O139 2.303 . S
Tb121 C150 2.764 . S
C122 O138 1.261 . S
C122 O139 1.257 . S
C123 C126 1.358 . S
C123 C127 1.332 . S
C123 C129 1.504 . S
C124 C125 1.373 . S
C124 C128 1.308 . S
C125 C124 1.373 . S
C125 C126 1.429 . S
C125 H152 0.932 . S
C126 C123 1.358 . S
C126 C125 1.429 . S
C126 H153 0.930 . S
C127 C123 1.332 . S
C127 C128 1.394 . S
C127 H154 0.932 . S
C128 C124 1.308 . S
C128 C127 1.394 . S
C128 H155 0.929 . S
C129 Tb120 2.764 . S
C129 C123 1.504 . S
C129 O141 1.239 . S
C129 O142 1.263 . S
O130 Tb120 2.325 . S
O130 C140 1.236 . S
O131 Tb121 2.322 . S
O131 C140 1.257 . S
O132 Tb121 2.349 . S
O132 C143 1.261 . S
O133 Tb120 2.303 . S
O133 C143 1.257 . S
O134 Tb121 2.415 . S
O134 C150 1.239 . S
O135 Tb121 2.399 . S
O135 C150 1.263 . S
O136 Tb121 2.325 . S
O136 C151 1.236 . S
O137 Tb120 2.322 . S
O137 C151 1.257 . S
O138 Tb120 2.349 . S
O138 C122 1.261 . S
O139 Tb121 2.303 . S
O139 C122 1.257 . S
C140 O130 1.236 . S
C140 O131 1.257 . S
O141 Tb120 2.415 . S
O141 C129 1.239 . S
O142 Tb120 2.399 . S
O142 C129 1.263 . S
C143 O132 1.261 . S
C143 O133 1.257 . S
C144 C147 1.358 . S
C144 C148 1.332 . S
C144 C150 1.504 . S
C145 C146 1.373 . S
C145 C149 1.308 . S
C146 C145 1.373 . S
C146 C147 1.429 . S
C146 H156 0.932 . S
C147 C144 1.358 . S
C147 C146 1.429 . S
C147 H157 0.930 . S
C148 C144 1.332 . S
C148 C149 1.394 . S
C148 H158 0.932 . S
C149 C145 1.308 . S
C149 C148 1.394 . S
C149 H159 0.929 . S
C150 Tb121 2.764 . S
C150 O134 1.239 . S
C150 O135 1.263 . S
C150 C144 1.504 . S
C151 O136 1.236 . S
C151 O137 1.257 . S
H152 C125 0.932 . S
H153 C126 0.930 . S
H154 C127 0.932 . S
H155 C128 0.929 . S
H156 C146 0.932 . S
H157 C147 0.930 . S
H158 C148 0.932 . S
H159 C149 0.929 . S
Tb160 C169 2.764 . S
Tb160 O170 2.325 . S
Tb160 O173 2.303 . S
Tb160 O177 2.322 . S
Tb160 O178 2.349 . S
Tb160 O181 2.415 . S
Tb160 O182 2.399 . S
Tb161 O171 2.322 . S
Tb161 O172 2.349 . S
Tb161 O174 2.415 . S
Tb161 O175 2.399 . S
Tb161 O176 2.325 . S
Tb161 O179 2.303 . S
Tb161 C190 2.764 . S
C162 O178 1.261 . S
C162 O179 1.257 . S
C163 C166 1.358 . S
C163 C167 1.332 . S
C163 C169 1.504 . S
C164 C165 1.373 . S
C164 C168 1.308 . S
C165 C164 1.373 . S
C165 C166 1.429 . S
C165 H192 0.932 . S
C166 C163 1.358 . S
C166 C165 1.429 . S
C166 H193 0.930 . S
C167 C163 1.332 . S
C167 C168 1.394 . S
C167 H194 0.932 . S
C168 C164 1.308 . S
C168 C167 1.394 . S
C168 H195 0.929 . S
C169 Tb160 2.764 . S
C169 C163 1.504 . S
C169 O181 1.239 . S
C169 O182 1.263 . S
O170 Tb160 2.325 . S
O170 C180 1.236 . S
O171 Tb161 2.322 . S
O171 C180 1.257 . S
O172 Tb161 2.349 . S
O172 C183 1.261 . S
O173 Tb160 2.303 . S
O173 C183 1.257 . S
O174 Tb161 2.415 . S
O174 C190 1.239 . S
O175 Tb161 2.399 . S
O175 C190 1.263 . S
O176 Tb161 2.325 . S
O176 C191 1.236 . S
O177 Tb160 2.322 . S
O177 C191 1.257 . S
O178 Tb160 2.349 . S
O178 C162 1.261 . S
O179 Tb161 2.303 . S
O179 C162 1.257 . S
C180 O170 1.236 . S
C180 O171 1.257 . S
O181 Tb160 2.415 . S
O181 C169 1.239 . S
O182 Tb160 2.399 . S
O182 C169 1.263 . S
C183 O172 1.261 . S
C183 O173 1.257 . S
C184 C187 1.358 . S
C184 C188 1.332 . S
C184 C190 1.504 . S
C185 C186 1.373 . S
C185 C189 1.308 . S
C186 C185 1.373 . S
C186 C187 1.429 . S
C186 H196 0.932 . S
C187 C184 1.358 . S
C187 C186 1.429 . S
C187 H197 0.930 . S
C188 C184 1.332 . S
C188 C189 1.394 . S
C188 H198 0.932 . S
C189 C185 1.308 . S
C189 C188 1.394 . S
C189 H199 0.929 . S
C190 Tb161 2.764 . S
C190 O174 1.239 . S
C190 O175 1.263 . S
C190 C184 1.504 . S
C191 O176 1.236 . S
C191 O177 1.257 . S
H192 C165 0.932 . S
H193 C166 0.930 . S
H194 C167 0.932 . S
H195 C168 0.929 . S
H196 C186 0.932 . S
H197 C187 0.930 . S
H198 C188 0.932 . S
H199 C189 0.929 . S
Tb200 C209 2.764 . S
Tb200 O210 2.325 . S
Tb200 O213 2.303 . S
Tb200 O217 2.322 . S
Tb200 O218 2.349 . S
Tb200 O221 2.415 . S
Tb200 O222 2.399 . S
Tb201 O211 2.322 . S
Tb201 O212 2.349 . S
Tb201 O214 2.415 . S
Tb201 O215 2.399 . S
Tb201 O216 2.325 . S
Tb201 O219 2.303 . S
Tb201 C230 2.764 . S
C202 O218 1.261 . S
C202 O219 1.257 . S
C203 C206 1.358 . S
C203 C207 1.332 . S
C203 C209 1.504 . S
C204 C205 1.373 . S
C204 C208 1.308 . S
C205 C204 1.373 . S
C205 C206 1.429 . S
C205 H232 0.932 . S
C206 C203 1.358 . S
C206 C205 1.429 . S
C206 H233 0.930 . S
C207 C203 1.332 . S
C207 C208 1.394 . S
C207 H234 0.932 . S
C208 C204 1.308 . S
C208 C207 1.394 . S
C208 H235 0.929 . S
C209 Tb200 2.764 . S
C209 C203 1.504 . S
C209 O221 1.239 . S
C209 O222 1.263 . S
O210 Tb200 2.325 . S
O210 C220 1.236 . S
O211 Tb201 2.322 . S
O211 C220 1.257 . S
O212 Tb201 2.349 . S
O212 C223 1.261 . S
O213 Tb200 2.303 . S
O213 C223 1.257 . S
O214 Tb201 2.415 . S
O214 C230 1.239 . S
O215 Tb201 2.399 . S
O215 C230 1.263 . S
O216 Tb201 2.325 . S
O216 C231 1.236 . S
O217 Tb200 2.322 . S
O217 C231 1.257 . S
O218 Tb200 2.349 . S
O218 C202 1.261 . S
O219 Tb201 2.303 . S
O219 C202 1.257 . S
C220 O210 1.236 . S
C220 O211 1.257 . S
O221 Tb200 2.415 . S
O221 C209 1.239 . S
O222 Tb200 2.399 . S
O222 C209 1.263 . S
C223 O212 1.261 . S
C223 O213 1.257 . S
C224 C227 1.358 . S
C224 C228 1.332 . S
C224 C230 1.504 . S
C225 C226 1.373 . S
C225 C229 1.308 . S
C226 C225 1.373 . S
C226 C227 1.429 . S
C226 H236 0.932 . S
C227 C224 1.358 . S
C227 C226 1.429 . S
C227 H237 0.930 . S
C228 C224 1.332 . S
C228 C229 1.394 . S
C228 H238 0.932 . S
C229 C225 1.308 . S
C229 C228 1.394 . S
C229 H239 0.929 . S
C230 Tb201 2.764 . S
C230 O214 1.239 . S
C230 O215 1.263 . S
C230 C224 1.504 . S
C231 O216 1.236 . S
C231 O217 1.257 . S
H232 C205 0.932 . S
H233 C206 0.930 . S
H234 C207 0.932 . S
H235 C208 0.929 . S
H236 C226 0.932 . S
H237 C227 0.930 . S
H238 C228 0.932 . S
H239 C229 0.929 . S
C240 C241 1.386 . S
C240 C242 1.383 . S
C240 H256 0.951 . S
C241 C240 1.386 . S
C241 C245 1.383 . S
C242 C240 1.383 . S
C242 C243 1.402 . S
C242 H257 0.951 . S
C243 C242 1.402 . S
C243 C244 1.375 . S
C243 C246 1.481 1_565 S
C244 C243 1.375 . S
C244 C245 1.367 . S
C244 H258 0.951 1_565 S
C245 C241 1.383 . S
C245 C244 1.367 . S
C245 H259 0.950 . S
C246 C243 1.481 1_545 S
C246 C247 1.297 1_546 S
C246 H260 0.950 . S
C247 C246 1.297 1_564 S
C247 C248 1.479 1_565 S
C247 H261 0.950 . S
C248 C247 1.479 1_545 S
C248 C249 1.375 . S
C248 C254 1.404 . S
C249 C248 1.375 . S
C249 C250 1.369 . S
C249 H262 0.950 1_545 S
C250 C249 1.369 . S
C250 C251 1.392 . S
C250 H263 0.951 . S
C251 C250 1.392 . S
C251 C253 1.384 . S
H252 C254 0.949 . S
C253 C251 1.384 . S
C253 C254 1.385 . S
C253 H255 0.950 . S
C254 C248 1.404 . S
C254 H252 0.949 . S
C254 C253 1.385 . S
H255 C253 0.950 . S
H256 C240 0.951 . S
H257 C242 0.951 . S
H258 C244 0.951 1_545 S
H259 C245 0.950 . S
H260 C246 0.950 . S
H261 C247 0.950 . S
H262 C249 0.950 1_565 S
H263 C250 0.951 . S
C264 C265 1.386 . S
C264 C266 1.383 . S
C264 H280 0.951 . S
C265 C264 1.386 . S
C265 C269 1.383 . S
C266 C264 1.383 . S
C266 C267 1.402 . S
C266 H281 0.951 . S
C267 C266 1.402 . S
C267 C268 1.375 . S
C267 C270 1.481 . S
C268 C267 1.375 . S
C268 C269 1.367 . S
C268 H282 0.951 . S
C269 C265 1.383 . S
C269 C268 1.367 . S
C269 H283 0.950 . S
C270 C267 1.481 . S
C270 C271 1.297 . S
C270 H284 0.950 . S
C271 C270 1.297 . S
C271 C272 1.479 . S
C271 H285 0.950 . S
C272 C271 1.479 . S
C272 C273 1.375 . S
C272 C278 1.404 . S
C273 C272 1.375 . S
C273 C274 1.369 . S
C273 H286 0.950 . S
C274 C273 1.369 . S
C274 C275 1.392 . S
C274 H287 0.951 . S
C275 C274 1.392 . S
C275 C277 1.384 . S
H276 C278 0.949 . S
C277 C275 1.384 . S
C277 C278 1.385 . S
C277 H279 0.950 . S
C278 C272 1.404 . S
C278 H276 0.949 . S
C278 C277 1.385 . S
H279 C277 0.950 . S
H280 C264 0.951 . S
H281 C266 0.951 . S
H282 C268 0.951 . S
H283 C269 0.950 . S
H284 C270 0.950 . S
H285 C271 0.950 . S
H286 C273 0.950 . S
H287 C274 0.951 . S
C288 C289 1.386 . S
C288 C290 1.383 . S
C288 H304 0.951 . S
C289 C288 1.386 . S
C289 C293 1.383 . S
C290 C288 1.383 . S
C290 C291 1.402 . S
C290 H305 0.951 . S
C291 C290 1.402 . S
C291 C292 1.375 . S
C291 C294 1.481 1_655 S
C292 C291 1.375 . S
C292 C293 1.367 . S
C292 H306 0.951 1_655 S
C293 C289 1.383 . S
C293 C292 1.367 . S
C293 H307 0.950 . S
C294 C291 1.481 1_455 S
C294 C295 1.297 1_554 S
C294 H308 0.950 . S
C295 C294 1.297 1_556 S
C295 C296 1.479 . S
C295 H309 0.950 1_455 S
C296 C295 1.479 . S
C296 C297 1.375 . S
C296 C302 1.404 . S
C297 C296 1.375 . S
C297 C298 1.369 . S
C297 H310 0.950 . S
C298 C297 1.369 . S
C298 C299 1.392 . S
C298 H311 0.951 . S
C299 C298 1.392 . S
C299 C301 1.384 . S
H300 C302 0.949 . S
C301 C299 1.384 . S
C301 C302 1.385 . S
C301 H303 0.950 . S
C302 C296 1.404 . S
C302 H300 0.949 . S
C302 C301 1.385 . S
H303 C301 0.950 . S
H304 C288 0.951 . S
H305 C290 0.951 . S
H306 C292 0.951 1_455 S
H307 C293 0.950 . S
H308 C294 0.950 . S
H309 C295 0.950 1_655 S
H310 C297 0.950 . S
H311 C298 0.951 . S
C312 C313 1.386 . S
C312 C314 1.383 . S
C312 H328 0.951 . S
C313 C312 1.386 . S
C313 C317 1.383 . S
C314 C312 1.383 . S
C314 C315 1.402 . S
C314 H329 0.951 . S
C315 C314 1.402 . S
C315 C316 1.375 . S
C315 C318 1.481 1_545 S
C316 C315 1.375 . S
C316 C317 1.367 . S
C316 H330 0.951 . S
C317 C313 1.383 . S
C317 C316 1.367 . S
C317 H331 0.950 . S
C318 C315 1.481 1_565 S
C318 C319 1.297 . S
C318 H332 0.950 . S
C319 C318 1.297 . S
C319 C320 1.479 . S
C319 H333 0.950 . S
C320 C319 1.479 . S
C320 C321 1.375 . S
C320 C326 1.404 . S
C321 C320 1.375 . S
C321 C322 1.369 . S
C321 H334 0.950 . S
C322 C321 1.369 . S
C322 C323 1.392 . S
C322 H335 0.951 . S
C323 C322 1.392 . S
C323 C325 1.384 . S
H324 C326 0.949 . S
C325 C323 1.384 . S
C325 C326 1.385 . S
C325 H327 0.950 . S
C326 C320 1.404 . S
C326 H324 0.949 . S
C326 C325 1.385 . S
H327 C325 0.950 . S
H328 C312 0.951 . S
H329 C314 0.951 . S
H330 C316 0.951 . S
H331 C317 0.950 . S
H332 C318 0.950 . S
H333 C319 0.950 . S
H334 C321 0.950 . S
H335 C322 0.951 . S
C336 C337 1.386 . S
C336 C338 1.383 . S
C336 H352 0.951 . S
C337 C336 1.386 . S
C337 C341 1.383 . S
C338 C336 1.383 . S
C338 C339 1.402 . S
C338 H353 0.951 . S
C339 C338 1.402 . S
C339 C340 1.375 . S
C339 C342 1.481 1_556 S
C340 C339 1.375 . S
C340 C341 1.367 . S
C340 H354 0.951 . S
C341 C337 1.383 . S
C341 C340 1.367 . S
C341 H355 0.950 . S
C342 C339 1.481 1_554 S
C342 C343 1.297 . S
C342 H356 0.950 . S
C343 C342 1.297 . S
C343 C344 1.479 . S
C343 H357 0.950 1_554 S
C344 C343 1.479 . S
C344 C345 1.375 . S
C344 C350 1.404 . S
C345 C344 1.375 . S
C345 C346 1.369 . S
C345 H358 0.950 . S
C346 C345 1.369 . S
C346 C347 1.392 . S
C346 H359 0.951 . S
C347 C346 1.392 . S
C347 C349 1.384 . S
H348 C350 0.949 . S
C349 C347 1.384 . S
C349 C350 1.385 . S
C349 H351 0.950 . S
C350 C344 1.404 . S
C350 H348 0.949 . S
C350 C349 1.385 . S
H351 C349 0.950 . S
H352 C336 0.951 . S
H353 C338 0.951 . S
H354 C340 0.951 . S
H355 C341 0.950 . S
H356 C342 0.950 . S
H357 C343 0.950 1_556 S
H358 C345 0.950 . S
H359 C346 0.951 . S
C360 C361 1.386 . S
C360 C362 1.383 . S
C360 H376 0.951 . S
C361 C360 1.386 . S
C361 C365 1.383 . S
C362 C360 1.383 . S
C362 C363 1.402 . S
C362 H377 0.951 . S
C363 C362 1.402 . S
C363 C364 1.375 . S
C363 C366 1.473 1_655 S
C364 C363 1.375 . S
C364 C365 1.367 . S
C364 H378 0.951 . S
C365 C361 1.383 . S
C365 C364 1.367 . S
C365 H379 0.950 . S
C366 C363 1.473 1_455 S
C366 C367 1.314 . S
C366 H380 0.940 1_455 S
C367 C366 1.314 . S
C367 C368 1.479 . S
C367 H381 0.950 . S
C368 C367 1.479 . S
C368 C369 1.375 . S
C368 C374 1.404 . S
C369 C368 1.375 . S
C369 C370 1.369 . S
C369 H382 0.950 . S
C370 C369 1.369 . S
C370 C371 1.392 . S
C370 H383 0.951 . S
C371 C370 1.392 . S
C371 C373 1.384 . S
H372 C374 0.949 . S
C373 C371 1.384 . S
C373 C374 1.385 . S
C373 H375 0.950 . S
C374 C368 1.404 . S
C374 H372 0.949 . S
C374 C373 1.385 . S
H375 C373 0.950 . S
H376 C360 0.951 . S
H377 C362 0.951 . S
H378 C364 0.951 . S
H379 C365 0.950 . S
H380 C366 0.940 1_655 S
H381 C367 0.950 . S
H382 C369 0.950 . S
H383 C370 0.951 . S
C384 C385 1.386 . S
C384 C386 1.383 . S
C384 H400 0.951 . S
C385 C384 1.386 . S
C385 C389 1.383 . S
C386 C384 1.383 . S
C386 C387 1.402 . S
C386 H401 0.951 . S
C387 C386 1.402 . S
C387 C388 1.375 . S
C387 C390 1.481 . S
C388 C387 1.375 . S
C388 C389 1.367 . S
C388 H402 0.951 . S
C389 C385 1.383 . S
C389 C388 1.367 . S
C389 H403 0.950 . S
C390 C387 1.481 . S
C390 C391 1.297 . S
C390 H404 0.950 . S
C391 C390 1.297 . S
C391 C392 1.479 . S
C391 H405 0.950 . S
C392 C391 1.479 . S
C392 C393 1.375 . S
C392 C398 1.404 . S
C393 C392 1.375 . S
C393 C394 1.369 . S
C393 H406 0.950 . S
C394 C393 1.369 . S
C394 C395 1.392 . S
C394 H407 0.951 . S
C395 C394 1.392 . S
C395 C397 1.384 . S
H396 C398 0.949 . S
C397 C395 1.384 . S
C397 C398 1.385 . S
C397 H399 0.950 . S
C398 C392 1.404 . S
C398 H396 0.949 . S
C398 C397 1.385 . S
H399 C397 0.950 . S
H400 C384 0.951 . S
H401 C386 0.951 . S
H402 C388 0.951 . S
H403 C389 0.950 . S
H404 C390 0.950 . S
H405 C391 0.950 . S
H406 C393 0.950 . S
H407 C394 0.951 . S
C408 C409 1.386 . S
C408 C410 1.383 . S
C408 H424 0.951 . S
C409 C408 1.386 . S
C409 C413 1.383 . S
C410 C408 1.383 . S
C410 C411 1.402 . S
C410 H425 0.951 . S
C411 C410 1.402 . S
C411 C412 1.375 . S
C411 C414 1.481 . S
C412 C411 1.375 . S
C412 C413 1.367 . S
C412 H426 0.951 . S
C413 C409 1.383 . S
C413 C412 1.367 . S
C413 H427 0.950 . S
C414 C411 1.481 . S
C414 C415 1.297 . S
C414 H428 0.950 . S
C415 C414 1.297 . S
C415 C416 1.479 . S
C415 H429 0.950 . S
C416 C415 1.479 . S
C416 C417 1.375 . S
C416 C422 1.404 . S
C417 C416 1.375 . S
C417 C418 1.369 . S
C417 H430 0.950 . S
C418 C417 1.369 . S
C418 C419 1.392 . S
C418 H431 0.951 . S
C419 C418 1.392 . S
C419 C421 1.384 . S
H420 C422 0.949 . S
C421 C419 1.384 . S
C421 C422 1.385 . S
C421 H423 0.950 . S
C422 C416 1.404 . S
C422 H420 0.949 . S
C422 C421 1.385 . S
H423 C421 0.950 . S
H424 C408 0.951 . S
H425 C410 0.951 . S
H426 C412 0.951 . S
H427 C413 0.950 . S
H428 C414 0.950 . S
H429 C415 0.950 . S
H430 C417 0.950 . S
H431 C418 0.951 . S
C432 C433 1.386 . S
C432 C434 1.383 . S
C432 H448 0.951 . S
C433 C432 1.386 . S
C433 C437 1.383 . S
C434 C432 1.383 . S
C434 C435 1.402 . S
C434 H449 0.951 . S
C435 C434 1.402 . S
C435 C436 1.375 . S
C435 C438 1.481 . S
C436 C435 1.375 . S
C436 C437 1.367 . S
C436 H450 0.951 . S
C437 C433 1.383 . S
C437 C436 1.367 . S
C437 H451 0.950 . S
C438 C435 1.481 . S
C438 C439 1.297 . S
C438 H452 0.950 . S
C439 C438 1.297 . S
C439 C440 1.479 . S
C439 H453 0.950 . S
C440 C439 1.479 . S
C440 C441 1.375 . S
C440 C446 1.404 . S
C441 C440 1.375 . S
C441 C442 1.369 . S
C441 H454 0.950 . S
C442 C441 1.369 . S
C442 C443 1.392 . S
C442 H455 0.951 . S
C443 C442 1.392 . S
C443 C445 1.384 . S
H444 C446 0.949 . S
C445 C443 1.384 . S
C445 C446 1.385 . S
C445 H447 0.950 . S
C446 C440 1.404 . S
C446 H444 0.949 . S
C446 C445 1.385 . S
H447 C445 0.950 . S
H448 C432 0.951 . S
H449 C434 0.951 . S
H450 C436 0.951 . S
H451 C437 0.950 . S
H452 C438 0.950 . S
H453 C439 0.950 . S
H454 C441 0.950 . S
H455 C442 0.951 . S
C456 C457 1.386 . S
C456 C458 1.383 . S
C456 H472 0.951 . S
C457 C456 1.386 . S
C457 C461 1.383 . S
C458 C456 1.383 . S
C458 C459 1.402 . S
C458 H473 0.951 . S
C459 C458 1.402 . S
C459 C460 1.375 . S
C459 C462 1.481 . S
C460 C459 1.375 . S
C460 C461 1.367 . S
C460 H474 0.951 . S
C461 C457 1.383 . S
C461 C460 1.367 . S
C461 H475 0.950 . S
C462 C459 1.481 . S
C462 C463 1.297 . S
C462 H476 0.950 . S
C463 C462 1.297 . S
C463 C464 1.479 . S
C463 H477 0.950 . S
C464 C463 1.479 . S
C464 C465 1.375 . S
C464 C470 1.404 . S
C465 C464 1.375 . S
C465 C466 1.369 . S
C465 H478 0.950 . S
C466 C465 1.369 . S
C466 C467 1.392 . S
C466 H479 0.951 . S
C467 C466 1.392 . S
C467 C469 1.384 . S
H468 C470 0.949 . S
C469 C467 1.384 . S
C469 C470 1.385 . S
C469 H471 0.950 . S
C470 C464 1.404 . S
C470 H468 0.949 . S
C470 C469 1.385 . S
H471 C469 0.950 . S
H472 C456 0.951 . S
H473 C458 0.951 . S
H474 C460 0.951 . S
H475 C461 0.950 . S
H476 C462 0.950 . S
H477 C463 0.950 . S
H478 C465 0.950 . S
H479 C466 0.951 . S
C480 C481 1.386 . S
C480 C482 1.383 . S
C480 H496 0.951 . S
C481 C480 1.386 . S
C481 C485 1.383 . S
C482 C480 1.383 . S
C482 C483 1.402 . S
C482 H497 0.951 . S
C483 C482 1.402 . S
C483 C484 1.375 . S
C483 C486 1.481 . S
C484 C483 1.375 . S
C484 C485 1.367 . S
C484 H498 0.951 . S
C485 C481 1.383 . S
C485 C484 1.367 . S
C485 H499 0.950 . S
C486 C483 1.481 . S
C486 C487 1.297 . S
C486 H500 0.950 . S
C487 C486 1.297 . S
C487 C488 1.479 . S
C487 H501 0.950 . S
C488 C487 1.479 . S
C488 C489 1.375 . S
C488 C494 1.404 . S
C489 C488 1.375 . S
C489 C490 1.369 . S
C489 H502 0.950 . S
C490 C489 1.369 . S
C490 C491 1.392 . S
C490 H503 0.951 . S
C491 C490 1.392 . S
C491 C493 1.384 . S
H492 C494 0.949 . S
C493 C491 1.384 . S
C493 C494 1.385 . S
C493 H495 0.950 . S
C494 C488 1.404 . S
C494 H492 0.949 . S
C494 C493 1.385 . S
H495 C493 0.950 . S
H496 C480 0.951 . S
H497 C482 0.951 . S
H498 C484 0.951 . S
H499 C485 0.950 . S
H500 C486 0.950 . S
H501 C487 0.950 . S
H502 C489 0.950 . S
H503 C490 0.951 . S
C504 C505 1.386 . S
C504 C506 1.383 . S
C504 H520 0.951 . S
C505 C504 1.386 . S
C505 C509 1.383 . S
C506 C504 1.383 . S
C506 C507 1.402 . S
C506 H521 0.951 . S
C507 C506 1.402 . S
C507 C508 1.375 . S
C507 C510 1.481 . S
C508 C507 1.375 . S
C508 C509 1.367 . S
C508 H522 0.951 . S
C509 C505 1.383 . S
C509 C508 1.367 . S
C509 H523 0.950 . S
C510 C507 1.481 . S
C510 C511 1.297 . S
C510 H524 0.950 . S
C511 C510 1.297 . S
C511 C512 1.479 . S
C511 H525 0.950 . S
C512 C511 1.479 . S
C512 C513 1.375 . S
C512 C518 1.404 . S
C513 C512 1.375 . S
C513 C514 1.369 . S
C513 H526 0.950 . S
C514 C513 1.369 . S
C514 C515 1.392 . S
C514 H527 0.951 . S
C515 C514 1.392 . S
C515 C517 1.384 . S
H516 C518 0.949 . S
C517 C515 1.384 . S
C517 C518 1.385 . S
C517 H519 0.950 . S
C518 C512 1.404 . S
C518 H516 0.949 . S
C518 C517 1.385 . S
H519 C517 0.950 . S
H520 C504 0.951 . S
H521 C506 0.951 . S
H522 C508 0.951 . S
H523 C509 0.950 . S
H524 C510 0.950 . S
H525 C511 0.950 . S
H526 C513 0.950 . S
H527 C514 0.951 . S
C528 C529 1.386 . S
C528 C530 1.383 . S
C528 H544 0.951 . S
C529 C528 1.386 . S
C529 C533 1.383 . S
C530 C528 1.383 . S
C530 C531 1.402 . S
C530 H545 0.951 . S
C531 C530 1.402 . S
C531 C532 1.375 . S
C531 C534 1.481 . S
C532 C531 1.375 . S
C532 C533 1.367 . S
C532 H546 0.951 . S
C533 C529 1.383 . S
C533 C532 1.367 . S
C533 H547 0.950 . S
C534 C531 1.481 . S
C534 C535 1.297 . S
C534 H548 0.950 . S
C535 C534 1.297 . S
C535 C536 1.479 . S
C535 H549 0.950 . S
C536 C535 1.479 . S
C536 C537 1.375 1_455 S
C536 C542 1.404 . S
C537 C536 1.375 1_655 S
C537 C538 1.369 . S
C537 H550 0.950 . S
C538 C537 1.369 . S
C538 C539 1.392 . S
C538 H551 0.951 . S
C539 C538 1.392 . S
C539 C541 1.384 1_655 S
H540 C542 0.949 . S
C541 C539 1.384 1_455 S
C541 C542 1.385 . S
C541 H543 0.950 . S
C542 C536 1.404 . S
C542 H540 0.949 . S
C542 C541 1.385 . S
H543 C541 0.950 . S
H544 C528 0.951 . S
H545 C530 0.951 . S
H546 C532 0.951 . S
H547 C533 0.950 . S
H548 C534 0.950 . S
H549 C535 0.950 . S
H550 C537 0.950 . S
H551 C538 0.951 . S
C552 C553 1.364 1_455 S
C552 C554 1.383 . S
C552 H568 0.951 . S
C553 C552 1.364 1_655 S
C553 C557 1.377 1_655 S
C554 C552 1.383 . S
C554 C555 1.402 . S
C554 H569 0.951 . S
C555 C554 1.402 . S
C555 C556 1.375 . S
C555 C558 1.481 . S
C556 C555 1.375 . S
C556 C557 1.367 . S
C556 H570 0.951 . S
C557 C553 1.377 1_455 S
C557 C556 1.367 . S
C557 H571 0.957 . S
C558 C555 1.481 . S
C558 C559 1.297 . S
C558 H572 0.950 . S
C559 C558 1.297 . S
C559 C560 1.479 . S
C559 H573 0.950 . S
C560 C559 1.479 . S
C560 C561 1.375 . S
C560 C566 1.404 1_565 S
C561 C560 1.375 . S
C561 C562 1.369 1_565 S
C561 H574 0.950 . S
C562 C561 1.369 1_545 S
C562 C563 1.392 . S
C562 H575 0.951 . S
C563 C562 1.392 . S
C563 C565 1.384 . S
H564 C566 0.949 . S
C565 C563 1.384 . S
C565 C566 1.385 . S
C565 H567 0.950 . S
C566 C560 1.404 1_545 S
C566 H564 0.949 . S
C566 C565 1.385 . S
H567 C565 0.950 . S
H568 C552 0.951 . S
H569 C554 0.951 . S
H570 C556 0.951 . S
H571 C557 0.957 . S
H572 C558 0.950 . S
H573 C559 0.950 . S
H574 C561 0.950 . S
H575 C562 0.951 . S
C576 C577 1.374 1_565 S
C576 C578 1.383 . S
C576 H592 0.951 . S
C577 C576 1.374 1_545 S
C577 C581 1.358 1_545 S
C578 C576 1.383 . S
C578 C579 1.402 . S
C578 H593 0.951 . S
C579 C578 1.402 . S
C579 C580 1.375 . S
C579 C582 1.481 . S
C580 C579 1.375 . S
C580 C581 1.367 . S
C580 H594 0.951 . S
C581 C577 1.358 1_565 S
C581 C580 1.367 . S
C581 H595 0.945 1_565 S
C582 C579 1.481 . S
C582 C583 1.297 . S
C582 H596 0.950 . S
C583 C582 1.297 . S
C583 C584 1.479 . S
C583 H597 0.950 . S
C584 C583 1.479 . S
C584 C585 1.375 . S
C584 C590 1.404 . S
C585 C584 1.375 . S
C585 C586 1.369 . S
C585 H598 0.950 . S
C586 C585 1.369 . S
C586 C587 1.392 . S
C586 H599 0.951 . S
C587 C586 1.392 . S
C587 C589 1.384 . S
H588 C590 0.949 . S
C589 C587 1.384 . S
C589 C590 1.385 . S
C589 H591 0.950 . S
C590 C584 1.404 . S
C590 H588 0.949 . S
C590 C589 1.385 . S
H591 C589 0.950 . S
H592 C576 0.951 . S
H593 C578 0.951 . S
H594 C580 0.951 . S
H595 C581 0.945 1_545 S
H596 C582 0.950 . S
H597 C583 0.950 . S
H598 C585 0.950 . S
H599 C586 0.951 . S
C600 C601 1.386 . S
C600 C602 1.383 . S
C600 H616 0.951 . S
C601 C600 1.386 . S
C601 C605 1.383 . S
C602 C600 1.383 . S
C602 C603 1.402 . S
C602 H617 0.951 . S
C603 C602 1.402 . S
C603 C604 1.375 . S
C603 C606 1.481 . S
C604 C603 1.375 . S
C604 C605 1.367 . S
C604 H618 0.951 . S
C605 C601 1.383 . S
C605 C604 1.367 . S
C605 H619 0.950 . S
C606 C603 1.481 . S
C606 C607 1.297 . S
C606 H620 0.950 . S
C607 C606 1.297 . S
C607 C608 1.479 . S
C607 H621 0.950 . S
C608 C607 1.479 . S
C608 C609 1.375 . S
C608 C614 1.404 . S
C609 C608 1.375 . S
C609 C610 1.369 1_545 S
C609 H622 0.950 . S
C610 C609 1.369 1_565 S
C610 C611 1.392 . S
C610 H623 0.951 . S
C611 C610 1.392 . S
C611 C613 1.384 . S
H612 C614 0.949 . S
C613 C611 1.384 . S
C613 C614 1.385 1_565 S
C613 H615 0.950 . S
C614 C608 1.404 . S
C614 H612 0.949 . S
C614 C613 1.385 1_545 S
H615 C613 0.950 . S
H616 C600 0.951 . S
H617 C602 0.951 . S
H618 C604 0.951 . S
H619 C605 0.950 . S
H620 C606 0.950 . S
H621 C607 0.950 . S
H622 C609 0.950 . S
H623 C610 0.951 . S
C624 C625 1.368 1_655 S
C624 C626 1.383 . S
C624 H640 0.951 . S
C625 C624 1.368 1_455 S
C625 C629 1.380 1_455 S
C626 C624 1.383 . S
C626 C627 1.402 . S
C626 H641 0.951 . S
C627 C626 1.402 . S
C627 C628 1.375 . S
C627 C630 1.481 . S
C628 C627 1.375 . S
C628 C629 1.367 . S
C628 H642 0.951 . S
C629 C625 1.380 1_655 S
C629 C628 1.367 . S
C629 H643 0.950 . S
C630 C627 1.481 . S
C630 C631 1.297 . S
C630 H644 0.950 . S
C631 C630 1.297 . S
C631 C632 1.479 . S
C631 H645 0.950 . S
C632 C631 1.479 . S
C632 C633 1.375 . S
C632 C638 1.404 . S
C633 C632 1.375 . S
C633 C634 1.369 . S
C633 H646 0.950 . S
C634 C633 1.369 . S
C634 C635 1.392 . S
C634 H647 0.951 . S
C635 C634 1.392 . S
C635 C637 1.384 . S
H636 C638 0.949 . S
C637 C635 1.384 . S
C637 C638 1.385 . S
C637 H639 0.950 . S
C638 C632 1.404 . S
C638 H636 0.949 . S
C638 C637 1.385 . S
H639 C637 0.950 . S
H640 C624 0.951 . S
H641 C626 0.951 . S
H642 C628 0.951 . S
H643 C629 0.950 . S
H644 C630 0.950 . S
H645 C631 0.950 . S
H646 C633 0.950 . S
H647 C634 0.951 . S
C648 C649 1.386 1_655 S
C648 C650 1.383 . S
C648 H664 0.951 . S
C649 C648 1.386 1_455 S
C649 C653 1.383 . S
C650 C648 1.383 . S
C650 C651 1.402 . S
C650 H665 0.951 . S
C651 C650 1.402 . S
C651 C652 1.375 1_655 S
C651 C654 1.481 . S
C652 C651 1.375 1_455 S
C652 C653 1.367 . S
C652 H666 0.951 . S
C653 C649 1.383 . S
C653 C652 1.367 . S
C653 H667 0.950 . S
C654 C651 1.481 . S
C654 C655 1.297 . S
C654 H668 0.950 . S
C655 C654 1.297 . S
C655 C656 1.479 . S
C655 H669 0.950 . S
C656 C655 1.479 . S
C656 C657 1.375 . S
C656 C662 1.404 . S
C657 C656 1.375 . S
C657 C658 1.369 . S
C657 H670 0.950 . S
C658 C657 1.369 . S
C658 C659 1.392 1_545 S
C658 H671 0.951 . S
C659 C658 1.392 1_565 S
C659 C661 1.384 1_565 S
H660 C662 0.949 . S
C661 C659 1.384 1_545 S
C661 C662 1.385 . S
C661 H663 0.950 . S
C662 C656 1.404 . S
C662 H660 0.949 . S
C662 C661 1.385 . S
H663 C661 0.950 . S
H664 C648 0.951 . S
H665 C650 0.951 . S
H666 C652 0.951 . S
H667 C653 0.950 . S
H668 C654 0.950 . S
H669 C655 0.950 . S
H670 C657 0.950 . S
H671 C658 0.951 . S
C241 C162 2.323 . S
C251 C2 2.397 . S
C265 C223 2.416 . S
C275 C63 2.291 . S
C289 C82 2.386 . S
C299 C122 2.327 . S
C313 C23 2.319 . S
C323 C183 2.409 . S
C337 C202 2.370 . S
C347 C42 2.352 . S
C361 C103 2.322 . S
C371 C143 2.424 . S
C385 C25 1.791 . S
C395 C111 1.788 . S
C409 C65 1.769 . S
C419 C31 1.813 . S
C433 C105 1.767 . S
C443 C71 1.789 . S
C457 C124 1.775 . S
C467 C180 1.749 . S
C481 C164 1.764 . S
C491 C220 1.771 . S
C505 C140 1.774 . S
C515 C204 1.751 . S
C529 C4 0.890 . S
C539 C100 0.958 . S
C553 C44 0.977 . S
C563 C20 0.853 . S
C577 C84 0.997 . S
C587 C60 0.858 . S
C601 C145 0.910 . S
C611 C191 0.980 . S
C625 C185 0.913 . S
C635 C231 0.949 . S
C649 C151 0.899 . S
C659 C225 0.876 . S
