# Generated by pormake.
# Topology wje, (4)-cn, num edge types: 1
# Building blocks:
#     Node 0, Type 0, BuildingBlock: ICAMEG_clean_sbu_1, # of connection points: 4
#     Node 1, Type 0, BuildingBlock: ICAMEG_clean_sbu_1, # of connection points: 4
#     Node 2, Type 0, BuildingBlock: ICAMEG_clean_sbu_1, # of connection points: 4
#     Node 3, Type 0, BuildingBlock: ICAMEG_clean_sbu_1, # of connection points: 4
#     Node 4, Type 0, BuildingBlock: ICAMEG_clean_sbu_1, # of connection points: 4
#     Node 5, Type 0, BuildingBlock: ICAMEG_clean_sbu_1, # of connection points: 4
#     Node 6, Type 0, BuildingBlock: ICAMEG_clean_sbu_1, # of connection points: 4
#     Node 7, Type 0, BuildingBlock: ICAMEG_clean_sbu_1, # of connection points: 4
#     Node 8, Type 0, BuildingBlock: ICAMEG_clean_sbu_1, # of connection points: 4
#     Node 9, Type 0, BuildingBlock: ICAMEG_clean_sbu_1, # of connection points: 4
#     Node 10, Type 0, BuildingBlock: ICAMEG_clean_sbu_1, # of connection points: 4
#     Node 11, Type 0, BuildingBlock: ICAMEG_clean_sbu_1, # of connection points: 4
#     Edge 12, Type (0, 0), BuildingBlock: EZIPEK_clean_linker_0, # of connection points: 2
#     Edge 13, Type (0, 0), BuildingBlock: EZIPEK_clean_linker_0, # of connection points: 2
#     Edge 14, Type (0, 0), BuildingBlock: EZIPEK_clean_linker_0, # of connection points: 2
#     Edge 15, Type (0, 0), BuildingBlock: EZIPEK_clean_linker_0, # of connection points: 2
#     Edge 16, Type (0, 0), BuildingBlock: EZIPEK_clean_linker_0, # of connection points: 2
#     Edge 17, Type (0, 0), BuildingBlock: EZIPEK_clean_linker_0, # of connection points: 2
#     Edge 18, Type (0, 0), BuildingBlock: EZIPEK_clean_linker_0, # of connection points: 2
#     Edge 19, Type (0, 0), BuildingBlock: EZIPEK_clean_linker_0, # of connection points: 2
#     Edge 20, Type (0, 0), BuildingBlock: EZIPEK_clean_linker_0, # of connection points: 2
#     Edge 21, Type (0, 0), BuildingBlock: EZIPEK_clean_linker_0, # of connection points: 2
#     Edge 22, Type (0, 0), BuildingBlock: EZIPEK_clean_linker_0, # of connection points: 2
#     Edge 23, Type (0, 0), BuildingBlock: EZIPEK_clean_linker_0, # of connection points: 2
#     Edge 24, Type (0, 0), BuildingBlock: EZIPEK_clean_linker_0, # of connection points: 2
#     Edge 25, Type (0, 0), BuildingBlock: EZIPEK_clean_linker_0, # of connection points: 2
#     Edge 26, Type (0, 0), BuildingBlock: EZIPEK_clean_linker_0, # of connection points: 2
#     Edge 27, Type (0, 0), BuildingBlock: EZIPEK_clean_linker_0, # of connection points: 2
#     Edge 28, Type (0, 0), BuildingBlock: EZIPEK_clean_linker_0, # of connection points: 2
#     Edge 29, Type (0, 0), BuildingBlock: EZIPEK_clean_linker_0, # of connection points: 2
#     Edge 30, Type (0, 0), BuildingBlock: EZIPEK_clean_linker_0, # of connection points: 2
#     Edge 31, Type (0, 0), BuildingBlock: EZIPEK_clean_linker_0, # of connection points: 2
#     Edge 32, Type (0, 0), BuildingBlock: EZIPEK_clean_linker_0, # of connection points: 2
#     Edge 33, Type (0, 0), BuildingBlock: EZIPEK_clean_linker_0, # of connection points: 2
#     Edge 34, Type (0, 0), BuildingBlock: EZIPEK_clean_linker_0, # of connection points: 2
#     Edge 35, Type (0, 0), BuildingBlock: EZIPEK_clean_linker_0, # of connection points: 2
# Relax obj value: 0.117
# Max RMSD: 0.099
# Mean RMSD: 0.099
data_MOF--net-wje--node1-ICAMEG_clean_sbu_1--edge1-EZIPEK_clean_linker_0
_symmetry_space_group_name_H-M    P1
_symmetry_Int_Tables_number       1
_symmetry_cell_setting            triclinic
loop_
_symmetry_equiv_pos_as_xyz
'x, y, z'
_cell_length_a     31.702453
_cell_length_b     31.724349
_cell_length_c     30.686279
_cell_angle_alpha  89.801767
_cell_angle_beta   89.949161
_cell_angle_gamma 120.01819
loop_
_atom_site_label
_atom_site_type_symbol
_atom_site_fract_x
_atom_site_fract_y
_atom_site_fract_z
_atom_type_partial_charge
Co0 Co 0.3188 0.97361 0.32801 0.0
Co1 Co 0.31499 0.0805 0.34652 0.0
O2 O 0.3379 0.04165 0.31462 0.0
C3 C 0.42651 0.02056 0.33756 0.0
O4 O 0.4261 0.05568 0.35967 0.0
C5 C 0.30987 0.10152 0.2499 0.0
O6 O 0.32306 0.06994 0.23883 0.0
O7 O 0.24547 0.02599 0.34401 0.0
O8 O 0.25041 0.95784 0.33707 0.0
H9 H 0.22584 0.11058 0.46729 0.0
H10 H 0.37332 0.01721 0.24612 0.0
O11 O 0.38771 0.98772 0.31979 0.0
H12 H 0.21695 0.87698 0.20062 0.0
H13 H 0.33362 0.82336 0.31479 0.0
H14 H 0.24519 0.8948 0.38627 0.0
H15 H 0.23508 0.8967 0.27841 0.0
H16 H 0.34951 0.90493 0.29387 0.0
O17 O 0.30473 0.10863 0.29013 0.0
H18 H 0.25362 0.06298 0.42523 0.0
H19 H 0.32898 0.1808 0.3369 0.0
H20 H 0.22848 0.8134 0.4084 0.0
H21 H 0.35718 0.99834 0.16783 0.0
H22 H 0.27403 0.77769 0.37359 0.0
H23 H 0.27828 0.92795 0.14467 0.0
O24 O 0.33139 0.98833 0.39129 0.0
H25 H 0.48546 0.18882 0.2897 0.0
H26 H 0.37573 0.14984 0.41598 0.0
H27 H 0.46091 0.21593 0.4216 0.0
H28 H 0.51652 0.2359 0.35815 0.0
H29 H 0.40004 0.12337 0.28531 0.0
H30 H 0.30149 0.22948 0.3776 0.0
H31 H 0.24985 0.19459 0.4436 0.0
O32 O 0.32439 0.05473 0.40336 0.0
C33 C 0.22635 0.9797 0.34274 0.0
C34 C 0.24822 0.12617 0.43853 0.0
C35 C 0.29061 0.19284 0.38818 0.0
N36 N 0.29258 0.11871 0.37835 0.0
C37 C 0.264 0.09928 0.41451 0.0
C38 C 0.30574 0.16488 0.365 0.0
C39 C 0.26169 0.17329 0.42522 0.0
C40 C 0.33937 0.9861 0.23623 0.0
N41 N 0.30538 0.95809 0.26673 0.0
C42 C 0.33022 0.97577 0.19189 0.0
C43 C 0.2859 0.93634 0.17891 0.0
C44 C 0.25144 0.90778 0.21027 0.0
C45 C 0.26188 0.91924 0.25429 0.0
C46 C 0.31452 0.83913 0.33108 0.0
C47 C 0.26548 0.88004 0.37119 0.0
C48 C 0.32356 0.88555 0.31959 0.0
N49 N 0.3003 0.90621 0.34058 0.0
C50 C 0.25548 0.83352 0.38357 0.0
C51 C 0.2809 0.81341 0.3639 0.0
C52 C 0.33089 0.02011 0.41641 0.0
C53 C 0.46148 0.18078 0.31745 0.0
C54 C 0.39932 0.15875 0.38788 0.0
C55 C 0.4477 0.19606 0.39141 0.0
C56 C 0.4789 0.20715 0.35586 0.0
N57 N 0.3822 0.1334 0.34989 0.0
C58 C 0.41286 0.14371 0.31513 0.0
Co59 Co 0.3485 0.31147 0.66523 0.0
Co60 Co 0.23318 0.29499 0.66257 0.0
O61 O 0.30115 0.32804 0.64158 0.0
C62 C 0.43292 0.40883 0.68601 0.0
O63 O 0.42554 0.39477 0.72693 0.0
C64 C 0.21689 0.28905 0.56553 0.0
O65 O 0.24814 0.27377 0.56038 0.0
O66 O 0.22595 0.23023 0.64707 0.0
O67 O 0.29696 0.2419 0.67364 0.0
H68 H 0.08357 0.16091 0.73588 0.0
H69 H 0.36776 0.36092 0.5795 0.0
O70 O 0.40312 0.38134 0.65671 0.0
H71 H 0.36214 0.20528 0.55077 0.0
H72 H 0.50812 0.31296 0.67219 0.0
H73 H 0.34825 0.25478 0.74215 0.0
H74 H 0.35251 0.22749 0.62544 0.0
H75 H 0.44855 0.33249 0.64028 0.0
O76 O 0.20955 0.30112 0.60312 0.0
H77 H 0.16962 0.20444 0.71295 0.0
H78 H 0.14994 0.31281 0.65033 0.0
H79 H 0.40663 0.23425 0.77503 0.0
H80 H 0.37826 0.34039 0.50421 0.0
H81 H 0.48755 0.26409 0.74042 0.0
H82 H 0.37507 0.26189 0.48945 0.0
O83 O 0.33483 0.32659 0.72465 0.0
H84 H 0.29265 0.4732 0.6408 0.0
H85 H 0.20664 0.33313 0.74048 0.0
H86 H 0.21893 0.41324 0.76215 0.0
H87 H 0.26196 0.48397 0.71201 0.0
H88 H 0.28006 0.39247 0.62084 0.0
H89 H 0.06342 0.27015 0.6721 0.0
H90 H 0.02973 0.1938 0.71548 0.0
O91 O 0.2535 0.28891 0.7236 0.0
C92 C 0.25395 0.21432 0.65957 0.0
C93 C 0.09791 0.19442 0.71736 0.0
C94 C 0.08661 0.2557 0.68157 0.0
N95 N 0.1654 0.26193 0.68147 0.0
C96 C 0.14678 0.21939 0.7045 0.0
C97 C 0.13571 0.27974 0.66941 0.0
C98 C 0.06771 0.21284 0.70586 0.0
C99 C 0.36706 0.32704 0.57336 0.0
N100 N 0.3598 0.29565 0.60686 0.0
C101 C 0.37278 0.31549 0.53067 0.0
C102 C 0.37094 0.27141 0.52239 0.0
C103 C 0.36367 0.23963 0.55676 0.0
C104 C 0.35813 0.2524 0.599 0.0
C105 C 0.47301 0.29982 0.68764 0.0
C106 C 0.38325 0.26761 0.72667 0.0
C107 C 0.43913 0.31075 0.66969 0.0
N108 N 0.39506 0.29503 0.68944 0.0
C109 C 0.41616 0.25587 0.74547 0.0
C110 C 0.46149 0.2725 0.72597 0.0
C111 C 0.29392 0.30962 0.74417 0.0
C112 C 0.27334 0.44256 0.66272 0.0
C113 C 0.22518 0.36364 0.71836 0.0
C114 C 0.23209 0.40895 0.73086 0.0
C115 C 0.25624 0.4486 0.70272 0.0
N116 N 0.24139 0.35781 0.67875 0.0
C117 C 0.26572 0.39668 0.65134 0.0
Co118 Co 0.04678 0.34733 0.99853 0.0
Co119 Co 0.94171 0.23439 0.00834 0.0
O120 O 0.98029 0.29884 0.98055 0.0
C121 C 0.9973 0.40657 1.00141 0.0
O122 O 0.95955 0.37021 0.02059 0.0
C123 C 0.91926 0.21474 0.91144 0.0
O124 O 0.94946 0.26028 0.90094 0.0
O125 O 0.99735 0.22142 1.00078 0.0
O126 O 0.06359 0.29563 0.00825 0.0
H127 H 0.9159 0.09097 0.10022 0.0
H128 H 0.01095 0.36461 0.91503 0.0
O129 O 0.03326 0.40219 0.98917 0.0
H130 H 0.14721 0.33932 0.87483 0.0
H131 H 0.20236 0.50872 0.98998 0.0
H132 H 0.11254 0.35337 0.0701 0.0
H133 H 0.12617 0.34026 0.95207 0.0
H134 H 0.12151 0.44496 0.96494 0.0
O135 O 0.91366 0.20077 0.95107 0.0
H136 H 0.96395 0.17098 0.06534 0.0
H137 H 0.83713 0.15587 0.00435 0.0
H138 H 0.19346 0.41613 0.09604 0.0
H139 H 0.03277 0.36684 0.83759 0.0
H140 H 0.23857 0.49462 0.05628 0.0
H141 H 0.10104 0.35356 0.81707 0.0
O142 O 0.026 0.34141 0.0609 0.0
H143 H 0.83239 0.2998 0.9632 0.0
H144 H 0.87611 0.22431 0.08234 0.0
H145 H 0.81209 0.24541 0.09432 0.0
H146 H 0.78956 0.28317 0.0344 0.0
H147 H 0.89633 0.2785 0.95271 0.0
H148 H 0.78778 0.07491 0.0376 0.0
H149 H 0.8269 0.04212 0.08661 0.0
O150 O 0.96625 0.26357 0.06713 0.0
C151 C 0.04329 0.24961 0.00544 0.0
C152 C 0.89814 0.10534 0.07984 0.0
C153 C 0.82632 0.09627 0.04462 0.0
N154 N 0.90317 0.17017 0.03519 0.0
C155 C 0.92517 0.15131 0.06061 0.0
C156 C 0.85454 0.14242 0.02604 0.0
C157 C 0.84829 0.07786 0.07203 0.0
C158 C 0.04154 0.36012 0.90647 0.0
N159 N 0.06719 0.35235 0.93813 0.0
C160 C 0.05346 0.36101 0.86252 0.0
C161 C 0.09172 0.3535 0.85102 0.0
C162 C 0.1178 0.34571 0.88347 0.0
C163 C 0.10534 0.34579 0.92714 0.0
C164 C 0.18295 0.47465 0.00767 0.0
C165 C 0.13229 0.38714 0.05216 0.0
C166 C 0.1372 0.43835 0.99359 0.0
N167 N 0.1123 0.39539 0.01599 0.0
C168 C 0.17802 0.42257 0.06711 0.0
C169 C 0.20328 0.4667 0.04483 0.0
C170 C 0.99584 0.30486 0.08379 0.0
C171 C 0.84139 0.28275 0.98938 0.0
C172 C 0.86634 0.24036 0.05591 0.0
C173 C 0.83007 0.25233 0.06296 0.0
C174 C 0.81748 0.27355 0.02937 0.0
N175 N 0.88898 0.24847 0.01625 0.0
C176 C 0.87745 0.27023 0.98351 0.0
Co177 Co 0.70013 0.03674 0.33956 0.0
Co178 Co 0.72164 0.94139 0.33887 0.0
O179 O 0.68633 0.97343 0.31619 0.0
C180 C 0.59116 0.98762 0.34232 0.0
O181 O 0.58928 0.95132 0.36451 0.0
C182 C 0.70091 0.91272 0.24327 0.0
O183 O 0.67773 0.93709 0.23952 0.0
O184 O 0.78492 1.0006 0.3233 0.0
O185 O 0.76965 0.05648 0.3515 0.0
H186 H 0.86089 0.94117 0.41734 0.0
H187 H 0.65662 0.00874 0.25174 0.0
O188 O 0.63152 0.02157 0.32771 0.0
H189 H 0.81228 0.16143 0.23005 0.0
H190 H 0.68375 0.18636 0.34964 0.0
H191 H 0.75372 0.09386 0.41707 0.0
H192 H 0.78534 0.12717 0.30373 0.0
H193 H 0.67282 0.1114 0.31539 0.0
O194 O 0.72052 0.91217 0.27959 0.0
H195 H 0.81212 0.97654 0.39082 0.0
H196 H 0.71053 0.84162 0.33433 0.0
H197 H 0.76725 0.16972 0.45136 0.0
H198 H 0.68179 0.04211 0.17741 0.0
H199 H 0.7314 0.21611 0.41803 0.0
H200 H 0.76033 0.11887 0.16622 0.0
O201 O 0.68109 0.00644 0.39842 0.0
H202 H 0.5447 0.81384 0.31891 0.0
H203 H 0.68576 0.87776 0.41756 0.0
H204 H 0.6079 0.80739 0.44057 0.0
H205 H 0.53663 0.77463 0.39098 0.0
H206 H 0.62286 0.8843 0.29744 0.0
H207 H 0.75848 0.80483 0.3595 0.0
H208 H 0.83425 0.85463 0.40171 0.0
O209 O 0.7238 0.96781 0.39904 0.0
C210 C 0.79916 0.04344 0.3374 0.0
C211 C 0.82797 0.91905 0.39895 0.0
C212 C 0.77056 0.84262 0.36648 0.0
N213 N 0.75823 0.91133 0.36078 0.0
C214 C 0.80011 0.93894 0.38375 0.0
C215 C 0.74362 0.86377 0.35192 0.0
C216 C 0.81303 0.87053 0.39018 0.0
C217 C 0.69057 0.04235 0.24709 0.0
N218 N 0.71948 0.06576 0.28197 0.0
C219 C 0.70472 0.06104 0.20496 0.0
C220 C 0.74881 0.10408 0.1987 0.0
C221 C 0.77796 0.12799 0.2345 0.0
C222 C 0.76255 0.10829 0.27615 0.0
C223 C 0.69948 0.16642 0.36451 0.0
C224 C 0.73892 0.11437 0.40179 0.0
C225 C 0.69336 0.1239 0.34529 0.0
N226 N 0.7127 0.09825 0.36412 0.0
C227 C 0.74639 0.15712 0.42157 0.0
C228 C 0.7262 0.18307 0.4029 0.0
C229 C 0.69918 0.98394 0.41866 0.0
C230 C 0.57567 0.82733 0.34056 0.0
C231 C 0.65519 0.86362 0.39549 0.0
C232 C 0.61106 0.82376 0.40884 0.0
C233 C 0.57111 0.80544 0.38104 0.0
N234 N 0.65984 0.88439 0.35527 0.0
C235 C 0.62041 0.86715 0.32832 0.0
Co236 Co 0.66686 0.69806 0.65453 0.0
Co237 Co 0.78281 0.71342 0.66378 0.0
O238 O 0.7175 0.68285 0.63679 0.0
C239 C 0.6131 0.58809 0.64378 0.0
O240 O 0.65326 0.58861 0.63252 0.0
C241 C 0.80713 0.72781 0.56901 0.0
O242 O 0.77494 0.7418 0.56322 0.0
O243 O 0.79271 0.78011 0.65265 0.0
O244 O 0.71701 0.76823 0.66096 0.0
H245 H 0.92271 0.83789 0.75317 0.0
H246 H 0.65643 0.64623 0.57087 0.0
O247 O 0.61313 0.62772 0.65066 0.0
H248 H 0.65436 0.79573 0.53075 0.0
H249 H 0.50172 0.68469 0.65087 0.0
H250 H 0.66164 0.7605 0.72354 0.0
H251 H 0.66156 0.77763 0.60764 0.0
H252 H 0.56593 0.66834 0.62527 0.0
O253 O 0.81357 0.71475 0.60641 0.0
H254 H 0.84028 0.79834 0.72182 0.0
H255 H 0.8663 0.69517 0.65761 0.0
H256 H 0.59869 0.77839 0.74971 0.0
H257 H 0.64856 0.66258 0.4937 0.0
H258 H 0.5178 0.73963 0.71383 0.0
H259 H 0.64758 0.73791 0.47314 0.0
O260 O 0.67519 0.68571 0.71633 0.0
H261 H 0.73735 0.54231 0.62374 0.0
H262 H 0.79273 0.66287 0.74217 0.0
H263 H 0.77793 0.58027 0.75744 0.0
H264 H 0.75005 0.51928 0.69797 0.0
H265 H 0.75189 0.6252 0.61001 0.0
H266 H 0.94914 0.73372 0.68814 0.0
H267 H 0.9778 0.80544 0.73657 0.0
O268 O 0.75492 0.71229 0.72273 0.0
C269 C 0.76289 0.7958 0.65715 0.0
C270 C 0.9105 0.80635 0.73248 0.0
C271 C 0.92531 0.74788 0.69603 0.0
N272 N 0.84767 0.74345 0.68905 0.0
C273 C 0.8637 0.78364 0.71475 0.0
C274 C 0.87821 0.72607 0.67899 0.0
C275 C 0.9414 0.78816 0.72312 0.0
C276 C 0.65521 0.67859 0.5624 0.0
N277 N 0.65863 0.7104 0.59395 0.0
C278 C 0.65107 0.68787 0.51854 0.0
C279 C 0.65064 0.73019 0.50701 0.0
C280 C 0.65442 0.76264 0.53932 0.0
C281 C 0.65851 0.75215 0.58283 0.0
C282 C 0.53676 0.70155 0.66693 0.0
C283 C 0.6268 0.74415 0.70723 0.0
C284 C 0.57324 0.69242 0.65259 0.0
N285 N 0.61753 0.71352 0.67281 0.0
C286 C 0.59124 0.75424 0.72236 0.0
C287 C 0.54584 0.73247 0.70221 0.0
C288 C 0.71261 0.6961 0.73924 0.0
C289 C 0.74948 0.56855 0.64992 0.0
C290 C 0.78014 0.63647 0.71617 0.0
C291 C 0.77208 0.58979 0.72499 0.0
C292 C 0.75653 0.55563 0.69159 0.0
N293 N 0.7729 0.64882 0.67524 0.0
C294 C 0.75797 0.61561 0.64229 0.0
Co295 Co 0.95761 0.65215 0.98421 0.0
Co296 Co 0.06044 0.76814 0.98826 0.0
O297 O 0.02355 0.70157 0.96499 0.0
C298 C 0.013 0.59662 0.98035 0.0
O299 O 0.05475 0.63683 0.97464 0.0
C300 C 0.06606 0.78899 0.89184 0.0
O301 O 0.01999 0.7561 0.88678 0.0
O302 O 1.00263 0.77786 0.98045 0.0
O303 O 0.93776 0.7024 0.98758 0.0
H304 H 0.08559 0.91875 0.06717 0.0
H305 H 1.00129 0.63979 0.90297 0.0
O306 O 0.9735 0.59785 0.98292 0.0
H307 H 0.85051 0.63592 0.85678 0.0
H308 H 0.80374 0.48903 0.97701 0.0
H309 H 0.88884 0.64571 0.05392 0.0
H310 H 0.87352 0.64505 0.93436 0.0
H311 H 0.88638 0.55181 0.95466 0.0
O312 O 0.08616 0.79648 0.929 0.0
H313 H 0.03803 0.83551 0.03967 0.0
H314 H 0.16365 0.84777 0.97828 0.0
H315 H 0.80606 0.58425 0.07708 0.0
H316 H 0.97939 0.63006 0.82514 0.0
H317 H 0.76298 0.5051 0.03862 0.0
H318 H 0.90347 0.6281 0.80158 0.0
O319 O 0.97778 0.66435 0.04689 0.0
H320 H 0.18211 0.71991 0.94046 0.0
H321 H 0.12556 0.77906 0.06316 0.0
H322 H 0.19374 0.76377 0.07415 0.0
H323 H 0.22264 0.73421 0.01248 0.0
H324 H 0.11322 0.73451 0.93113 0.0
H325 H 0.21247 0.93188 0.00423 0.0
H326 H 0.17374 0.96794 0.04954 0.0
O327 O 0.03783 0.74287 0.04862 0.0
C328 C 0.95676 0.7484 0.98475 0.0
C329 C 0.10327 0.90303 0.04852 0.0
C330 C 0.17438 0.91044 0.01313 0.0
N331 N 0.09835 0.83464 0.01024 0.0
C332 C 0.07652 0.85514 0.03361 0.0
C333 C 0.14648 0.8624 0.9989 0.0
C334 C 0.15263 0.93069 0.03844 0.0
C335 C 0.96779 0.63809 0.89312 0.0
N336 N 0.93817 0.64174 0.92338 0.0
C337 C 0.95572 0.63291 0.84893 0.0
C338 C 0.91319 0.63193 0.83573 0.0
C339 C 0.88343 0.63627 0.86669 0.0
C340 C 0.89667 0.64139 0.91059 0.0
C341 C 0.82209 0.52347 0.99396 0.0
C342 C 0.87019 0.61189 0.03658 0.0
C343 C 0.86895 0.55922 0.98147 0.0
N344 N 0.8923 0.60306 0.00244 0.0
C345 C 0.82335 0.57699 0.05001 0.0
C346 C 0.79922 0.53252 0.02848 0.0
C347 C 0.0079 0.70285 0.06749 0.0
C348 C 0.16993 0.73291 0.96756 0.0
C349 C 0.13743 0.76559 0.03626 0.0
C350 C 0.17632 0.75732 0.04263 0.0
C351 C 0.19258 0.74083 0.00799 0.0
N352 N 0.11534 0.7577 0.99649 0.0
C353 C 0.13113 0.74156 0.96239 0.0
Co354 Co 0.0506 0.70272 0.34202 0.0
Co355 Co 0.94993 0.71893 0.3348 0.0
O356 O 0.98464 0.68758 0.36068 0.0
C357 C 0.99623 0.5926 0.35619 0.0
O358 O 0.95485 0.59108 0.36399 0.0
C359 C 0.92289 0.70921 0.43144 0.0
O360 O 0.95015 0.69018 0.44102 0.0
O361 O 0.00793 0.78512 0.3462 0.0
O362 O 0.07103 0.77272 0.33491 0.0
H363 H 0.93654 0.84788 0.24911 0.0
H364 H 0.00948 0.65303 0.42697 0.0
O365 O 0.03471 0.63285 0.34798 0.0
H366 H 0.16118 0.80366 0.46368 0.0
H367 H 0.20184 0.68857 0.34755 0.0
H368 H 0.1169 0.75995 0.26924 0.0
H369 H 0.13638 0.78283 0.38711 0.0
H370 H 0.12244 0.6749 0.37366 0.0
O371 O 0.92057 0.72194 0.39249 0.0
H372 H 0.97908 0.80849 0.28105 0.0
H373 H 0.84756 0.69979 0.33882 0.0
H374 H 0.19714 0.7764 0.24304 0.0
H375 H 0.03332 0.67198 0.50394 0.0
H376 H 0.23975 0.73964 0.28176 0.0
H377 H 0.10958 0.74799 0.52277 0.0
O378 O 0.02911 0.69038 0.27981 0.0
H379 H 0.82823 0.54346 0.36913 0.0
H380 H 0.88711 0.67254 0.25725 0.0
H381 H 0.81983 0.59059 0.2398 0.0
H382 H 0.7897 0.52533 0.29602 0.0
H383 H 0.89564 0.62571 0.38504 0.0
H384 H 0.80368 0.73877 0.30853 0.0
H385 H 0.84799 0.81308 0.26275 0.0
O386 O 0.97588 0.71751 0.27585 0.0
C387 C 0.05342 0.80062 0.34048 0.0
C388 C 0.91655 0.81491 0.26823 0.0
C389 C 0.84208 0.75383 0.30167 0.0
N390 N 0.91565 0.75008 0.30982 0.0
C391 C 0.94045 0.79186 0.28583 0.0
C392 C 0.86721 0.73177 0.31864 0.0
C393 C 0.86695 0.79552 0.27604 0.0
C394 C 0.04314 0.68563 0.43475 0.0
N395 N 0.07182 0.71616 0.40238 0.0
C396 C 0.05633 0.69637 0.47847 0.0
C397 C 0.09907 0.73903 0.48903 0.0
C398 C 0.12806 0.77024 0.45589 0.0
C399 C 0.11379 0.75818 0.41255 0.0
C400 C 0.18362 0.70477 0.33037 0.0
C401 C 0.13583 0.74527 0.28712 0.0
C402 C 0.13864 0.69722 0.34504 0.0
N403 N 0.11522 0.71732 0.32341 0.0
C404 C 0.18105 0.75414 0.2718 0.0
C405 C 0.20486 0.73341 0.29345 0.0
C406 C 1.00269 0.70291 0.25809 0.0
C407 C 0.84072 0.57168 0.34446 0.0
C408 C 0.87423 0.6445 0.28205 0.0
C409 C 0.83606 0.59809 0.2719 0.0
C410 C 0.81919 0.5615 0.30343 0.0
N411 N 0.8948 0.65453 0.32264 0.0
C412 C 0.87883 0.61854 0.3534 0.0
Co413 Co 0.35493 0.04218 0.69308 0.0
Co414 Co 0.24419 0.93875 0.66725 0.0
O415 O 0.30302 0.97441 0.70379 0.0
C416 C 0.41405 0.99309 0.68807 0.0
O417 O 0.3815 0.96098 0.66149 0.0
C418 C 0.20801 0.91075 0.76097 0.0
O419 O 0.25201 0.93854 0.77632 0.0
O420 O 0.23206 0.99501 0.66837 0.0
O421 O 0.30542 0.06122 0.67994 0.0
H422 H 0.14096 0.92213 0.53687 0.0
H423 H 0.35749 0.99535 0.776 0.0
O424 O 0.40718 0.02543 0.70574 0.0
H425 H 0.34047 0.13589 0.81866 0.0
H426 H 0.51925 0.19075 0.71649 0.0
H427 H 0.36857 0.11911 0.62959 0.0
H428 H 0.3464 0.11913 0.74122 0.0
H429 H 0.45077 0.10925 0.73442 0.0
O430 O 0.19983 0.9093 0.72006 0.0
H431 H 0.21187 0.9636 0.58527 0.0
H432 H 0.1517 0.84115 0.67024 0.0
H433 H 0.43553 0.2013 0.61155 0.0
H434 H 0.35233 0.01114 0.85401 0.0
H435 H 0.51244 0.23669 0.65389 0.0
H436 H 0.34338 0.08166 0.87573 0.0
O437 O 0.35843 0.02908 0.63015 0.0
H438 H 0.3002 0.82699 0.72834 0.0
H439 H 0.22907 0.86293 0.60088 0.0
H440 H 0.24329 0.79379 0.59844 0.0
H441 H 0.27924 0.77526 0.66241 0.0
H442 H 0.28476 0.89523 0.72992 0.0
H443 H 0.0796 0.79891 0.62333 0.0
H444 H 0.07419 0.83907 0.55564 0.0
O445 O 0.28559 0.96565 0.6134 0.0
C446 C 0.26015 0.04094 0.6718 0.0
C447 C 0.14301 0.90414 0.56616 0.0
C448 C 0.10852 0.83508 0.61474 0.0
N449 N 0.18651 0.90488 0.63058 0.0
C450 C 0.18326 0.92741 0.5937 0.0
C451 C 0.14938 0.85945 0.64148 0.0
C452 C 0.1055 0.85759 0.57676 0.0
C453 C 0.35414 0.02638 0.78529 0.0
N454 N 0.35211 0.05613 0.75414 0.0
C455 C 0.35103 0.03504 0.82947 0.0
C456 C 0.34595 0.07458 0.84163 0.0
C457 C 0.34424 0.10498 0.80963 0.0
C458 C 0.34746 0.09518 0.7658 0.0
C459 C 0.48624 0.17528 0.69733 0.0
C460 C 0.40116 0.1349 0.64925 0.0
C461 C 0.44734 0.12909 0.70726 0.0
N462 N 0.4059 0.10898 0.68269 0.0
C463 C 0.4392 0.18129 0.63852 0.0
C464 C 0.48231 0.20114 0.66229 0.0
C465 C 0.32859 0.99911 0.60267 0.0
C466 C 0.28437 0.83456 0.70027 0.0
C467 C 0.24411 0.85515 0.62925 0.0
C468 C 0.25235 0.81587 0.6275 0.0
C469 C 0.27259 0.80554 0.66332 0.0
N470 N 0.25535 0.88345 0.66571 0.0
C471 C 0.27555 0.87351 0.70086 0.0
Co472 Co 0.30799 0.3425 0.00993 0.0
Co473 Co 0.30235 0.23122 0.01056 0.0
O474 O 0.32886 0.29791 0.03294 0.0
C475 C 0.41718 0.4074 0.02451 0.0
O476 O 0.42257 0.3703 0.03516 0.0
C477 C 0.29016 0.21227 0.10689 0.0
O478 O 0.26984 0.23943 0.10975 0.0
O479 O 0.23411 0.21668 0.02215 0.0
O480 O 0.24019 0.28749 1.00165 0.0
H481 H 0.18317 0.0803 0.92973 0.0
H482 H 0.35585 0.35983 0.09645 0.0
O483 O 0.37524 0.40133 0.01576 0.0
H484 H 0.19515 0.34302 0.12518 0.0
H485 H 0.3045 0.49921 0.00199 0.0
H486 H 0.24762 0.33883 0.93458 0.0
H487 H 0.22101 0.34009 0.05004 0.0
H488 H 0.32527 0.4408 0.03455 0.0
O489 O 0.306 0.20685 0.07039 0.0
H490 H 0.21837 0.16494 0.9549 0.0
H491 H 0.32862 0.15388 0.02354 0.0
H492 H 0.22604 0.39629 0.90109 0.0
H493 H 0.33211 0.36464 0.17195 0.0
H494 H 0.25418 0.47688 0.93491 0.0
H495 H 0.25099 0.35576 0.18677 0.0
O496 O 0.32531 0.33303 0.95008 0.0
H497 H 0.47815 0.29403 0.04785 0.0
H498 H 0.35319 0.2194 0.93351 0.0
H499 H 0.43748 0.23956 0.91767 0.0
H500 H 0.50067 0.2771 0.97511 0.0
H501 H 0.39347 0.27388 0.06211 0.0
H502 H 0.29452 0.06901 0.99929 0.0
H503 H 0.22135 0.03166 0.9519 0.0
O504 O 0.2986 0.25304 0.9495 0.0
C505 C 0.21522 0.24246 0.01116 0.0
C506 C 0.21528 0.09625 0.95011 0.0
C507 C 0.27778 0.08994 0.9891 0.0
N508 N 0.27624 0.16492 0.98975 0.0
C509 C 0.23547 0.14428 0.96437 0.0
C510 C 0.29703 0.13812 0.0026 0.0
C511 C 0.23669 0.06898 0.96257 0.0
C512 C 0.32111 0.35728 0.10244 0.0
N513 N 0.2904 0.3507 0.06868 0.0
C514 C 0.30765 0.35961 0.14535 0.0
C515 C 0.26211 0.35454 0.15365 0.0
C516 C 0.23081 0.34751 0.1191 0.0
C517 C 0.24569 0.34585 0.07659 0.0
C518 C 0.29158 0.46396 0.98715 0.0
C519 C 0.25968 0.37372 0.94978 0.0
C520 C 0.30326 0.43074 0.00542 0.0
N521 N 0.28751 0.38634 0.9866 0.0
C522 C 0.24729 0.40604 0.93065 0.0
C523 C 0.26337 0.45142 0.94952 0.0
C524 C 0.31433 0.29382 0.92979 0.0
C525 C 0.45095 0.27768 0.02256 0.0
C526 C 0.38051 0.23614 0.95857 0.0
C527 C 0.42817 0.24725 0.94946 0.0
C528 C 0.46357 0.26824 0.98172 0.0
N529 N 0.36843 0.24566 0.99867 0.0
C530 C 0.40291 0.26603 0.0305 0.0
Co531 Co 0.9665 0.31135 0.36253 0.0
Co532 Co 0.07318 0.31038 0.33778 0.0
O533 O 0.0355 0.33239 0.37232 0.0
C534 C 0.01286 0.41829 0.35316 0.0
O535 O 0.04807 0.41774 0.33121 0.0
C536 C 0.08977 0.29121 0.43001 0.0
O537 O 0.04394 0.27639 0.43865 0.0
O538 O 0.02105 0.2399 0.34514 0.0
O539 O 0.95189 0.24291 0.35428 0.0
H540 H 0.10476 0.22808 0.21172 0.0
H541 H 0.0162 0.36747 0.44169 0.0
O542 O 0.97917 0.37949 0.37047 0.0
H543 H 0.87976 0.21193 0.49531 0.0
H544 H 0.81226 0.31653 0.38724 0.0
H545 H 0.89036 0.2433 0.30124 0.0
H546 H 0.89288 0.22896 0.41646 0.0
H547 H 0.89603 0.33555 0.40373 0.0
O548 O 0.10706 0.30631 0.39201 0.0
H549 H 0.05601 0.25203 0.25645 0.0
H550 H 0.17494 0.32815 0.34298 0.0
H551 H 0.80637 0.22297 0.28394 0.0
H552 H 1.00433 0.35209 0.52094 0.0
H553 H 0.76748 0.26108 0.32609 0.0
H554 H 0.9358 0.27374 0.54816 0.0
O555 O 0.97694 0.32355 0.29848 0.0
H556 H 0.18561 0.48135 0.38824 0.0
H557 H 0.12859 0.3718 0.26141 0.0
H558 H 0.19014 0.45829 0.25093 0.0
H559 H 0.21913 0.51373 0.31465 0.0
H560 H 0.12379 0.39464 0.39707 0.0
H561 H 0.22481 0.30454 0.29926 0.0
H562 H 0.18995 0.25434 0.23293 0.0
O563 O 0.04114 0.31426 0.28331 0.0
C564 C 0.97462 0.21949 0.34913 0.0
C565 C 0.12018 0.24941 0.2409 0.0
C566 C 0.18751 0.2923 0.29 0.0
N567 N 0.11162 0.28997 0.30349 0.0
C568 C 0.09249 0.26278 0.26671 0.0
C569 C 0.15876 0.30506 0.31499 0.0
C570 C 0.16798 0.26421 0.25275 0.0
C571 C 0.98611 0.33348 0.45338 0.0
N572 N 0.95531 0.29915 0.42458 0.0
C573 C 0.97963 0.32491 0.49824 0.0
C574 C 0.9412 0.28092 0.5135 0.0
C575 C 0.90975 0.24622 0.48387 0.0
C576 C 0.91741 0.25603 0.43927 0.0
C577 C 0.82911 0.3002 0.36827 0.0
C578 C 0.8733 0.25908 0.32043 0.0
C579 C 0.87654 0.31078 0.37747 0.0
N580 N 0.89833 0.29085 0.35322 0.0
C581 C 0.82579 0.24759 0.31035 0.0
C582 C 0.80392 0.2689 0.33408 0.0
C583 C 1.00661 0.32134 0.27189 0.0
C584 C 0.17351 0.45751 0.36026 0.0
C585 C 0.14107 0.39562 0.28934 0.0
C586 C 0.17595 0.44459 0.28319 0.0
C587 C 0.19221 0.47567 0.31895 0.0
N588 N 0.12301 0.37805 0.32999 0.0
C589 C 0.13872 0.40832 0.36515 0.0
Co590 Co 0.6686 0.97 0.6834 0.0
Co591 Co 0.7823 0.07311 0.67991 0.0
O592 O 0.71652 0.03473 0.70566 0.0
C593 C 0.60883 0.01918 0.69941 0.0
O594 O 0.64818 0.06185 0.70377 0.0
C595 C 0.80553 0.07925 0.7748 0.0
O596 O 0.77535 0.03236 0.77931 0.0
O597 O 0.79466 0.01753 0.68838 0.0
O598 O 0.72116 0.95461 0.6715 0.0
H599 H 0.9263 0.09948 0.5896 0.0
H600 H 0.6577 1.00164 0.77139 0.0
O601 O 0.61191 0.98111 0.69343 0.0
H602 H 0.66464 0.85144 0.79522 0.0
H603 H 0.50897 0.81181 0.6801 0.0
H604 H 0.66749 0.91213 0.60727 0.0
H605 H 0.6681 0.88272 0.72087 0.0
H606 H 0.56924 0.89142 0.71034 0.0
O607 O 0.81111 0.10019 0.73821 0.0
H608 H 0.84295 0.05253 0.61905 0.0
H609 H 0.86327 0.1755 0.69071 0.0
H610 H 0.60883 0.83216 0.57671 0.0
H611 H 0.65316 0.97115 0.84631 0.0
H612 H 0.52873 0.78159 0.61295 0.0
H613 H 0.65682 0.89558 0.8586 0.0
O614 O 0.67612 0.99735 0.62378 0.0
H615 H 0.72942 0.19127 0.72682 0.0
H616 H 0.79188 0.13759 0.6046 0.0
H617 H 0.77464 0.20438 0.59317 0.0
H618 H 0.74329 0.23178 0.6546 0.0
H619 H 0.74632 0.12393 0.73659 0.0
H620 H 0.94698 0.22376 0.66223 0.0
H621 H 0.97901 0.18587 0.61115 0.0
O622 O 0.75644 0.04854 0.6201 0.0
C623 C 0.76658 0.97304 0.67807 0.0
C624 C 0.91267 0.11655 0.61159 0.0
C625 C 0.92424 0.18629 0.65229 0.0
N626 N 0.84759 0.11141 0.65569 0.0
C627 C 0.86537 0.09011 0.62829 0.0
C628 C 0.87668 0.15876 0.6682 0.0
C629 C 0.94222 0.16499 0.62369 0.0
C630 C 0.65822 0.96819 0.77643 0.0
N631 N 0.66203 0.94348 0.74173 0.0
C632 C 0.65604 0.95129 0.81895 0.0
C633 C 0.6582 0.90895 0.82582 0.0
C634 C 0.66251 0.88413 0.79028 0.0
C635 C 0.66442 0.90204 0.74823 0.0
C636 C 0.54376 0.83353 0.66402 0.0
C637 C 0.63299 0.89008 0.62362 0.0
C638 C 0.57798 0.8787 0.68092 0.0
N639 N 0.62195 0.90638 0.6607 0.0
C640 C 0.59983 0.84491 0.60601 0.0
C641 C 0.55487 0.81659 0.62633 0.0
C642 C 0.71474 0.02477 0.60208 0.0
C643 C 0.7431 0.17968 0.6998 0.0
C644 C 0.77773 0.14883 0.63136 0.0
C645 C 0.76831 0.18693 0.62476 0.0
C646 C 0.75081 0.20234 0.65926 0.0
N647 N 0.76993 0.12665 0.67119 0.0
C648 C 0.75295 0.14171 0.70519 0.0
Co649 Co 0.69073 0.66491 1.00098 0.0
Co650 Co 0.70429 0.77934 1.00016 0.0
O651 O 0.6745 0.7128 0.02459 0.0
C652 C 0.58209 0.60358 0.0046 0.0
O653 O 0.57805 0.63858 0.98576 0.0
C654 C 0.69271 0.79028 0.09744 0.0
O655 O 0.67242 0.74309 0.10314 0.0
O656 O 0.77064 0.78865 0.01071 0.0
O657 O 0.75857 0.71689 0.98662 0.0
H658 H 0.83082 0.92187 0.91335 0.0
H659 H 0.64842 0.64874 0.08953 0.0
O660 O 0.62367 0.60956 0.01443 0.0
H661 H 0.80781 0.6593 0.10868 0.0
H662 H 0.69015 0.50579 0.99721 0.0
H663 H 0.74391 0.66237 0.9223 0.0
H664 H 0.77946 0.66577 0.03549 0.0
H665 H 0.67031 0.56564 0.0276 0.0
O666 O 0.70673 0.80882 0.05943 0.0
H667 H 0.79021 0.83871 0.9432 0.0
H668 H 0.68467 0.86262 0.0054 0.0
H669 H 0.7653 0.60393 0.89131 0.0
H670 H 0.67547 0.64218 0.16337 0.0
H671 H 0.7386 0.52506 0.92893 0.0
H672 H 0.75583 0.64764 0.17325 0.0
O673 O 0.6691 0.67288 0.94247 0.0
H674 H 0.52809 0.72152 0.03581 0.0
H675 H 0.65705 0.7982 0.92448 0.0
H676 H 0.57495 0.78393 0.90836 0.0
H677 H 0.50974 0.74563 0.96436 0.0
H678 H 0.61031 0.73581 0.0503 0.0
H679 H 0.72434 0.94629 0.97686 0.0
H680 H 0.79789 0.97649 0.93005 0.0
O681 O 0.70361 0.75392 0.9401 0.0
C682 C 0.7864 0.76118 0.99685 0.0
C683 C 0.79879 0.9092 0.9337 0.0
C684 C 0.73911 0.9229 0.96933 0.0
N685 N 0.73481 0.84527 0.97616 0.0
C686 C 0.7756 0.86198 0.9508 0.0
C687 C 0.71689 0.87542 0.98575 0.0
C688 C 0.78033 0.93981 0.94307 0.0
C689 C 0.68339 0.65109 0.09362 0.0
N690 N 0.71243 0.65803 0.05831 0.0
C691 C 0.69852 0.64736 0.13548 0.0
C692 C 0.74363 0.65048 0.14101 0.0
C693 C 0.77287 0.65711 0.10478 0.0
C694 C 0.75662 0.66086 0.06343 0.0
C695 C 0.70223 0.54014 0.98064 0.0
C696 C 0.7323 0.62824 0.93903 0.0
C697 C 0.69094 0.57412 0.99761 0.0
N698 N 0.70623 0.61768 0.97697 0.0
C699 C 0.74446 0.59524 0.92124 0.0
C700 C 0.72937 0.55096 0.94231 0.0
C701 C 0.68271 0.71243 0.92145 0.0
C702 C 0.55634 0.73881 0.01133 0.0
C703 C 0.62909 0.78166 0.94918 0.0
C704 C 0.58256 0.77365 0.9398 0.0
C705 C 0.54602 0.75218 0.9712 0.0
N706 N 0.63935 0.76933 0.98896 0.0
C707 C 0.60334 0.74746 0.01956 0.0
C708 C 0.26956 0.10545 0.18001 0.0
C709 C 0.30224 0.13022 0.21486 0.0
C710 C 0.32062 0.20894 0.18218 0.0
C711 C 0.2917 0.1842 0.14546 0.0
N712 N 0.23947 0.10894 0.10813 0.0
N713 N 0.36485 0.20598 0.24532 0.0
C714 C 0.26649 0.13245 0.14404 0.0
C715 C 0.32889 0.18211 0.21524 0.0
N716 N 0.23978 0.05605 0.18212 0.0
N717 N 0.3409 0.25832 0.18528 0.0
H718 H 0.3733 0.18813 0.2692 0.0
H719 H 0.38947 0.24322 0.24433 0.0
H720 H 0.33896 0.27983 0.1605 0.0
H721 H 0.35687 0.27774 0.21361 0.0
H722 H 0.21114 0.03622 0.16075 0.0
H723 H 0.24108 0.03482 0.2074 0.0
H724 H 0.2264 0.07226 0.10176 0.0
H725 H 0.23162 0.12656 0.08338 0.0
C726 C 0.15558 0.24649 0.50508 0.0
C727 C 0.18709 0.28991 0.52812 0.0
C728 C 0.14994 0.33183 0.49051 0.0
C729 C 0.12206 0.29009 0.46457 0.0
N730 N 0.1035 0.2099 0.44218 0.0
N731 N 0.22235 0.37678 0.53433 0.0
C732 C 0.12662 0.24813 0.47023 0.0
C733 C 0.18649 0.33343 0.51845 0.0
N734 N 0.15107 0.20313 0.51795 0.0
N735 N 0.1408 0.36958 0.48928 0.0
H736 H 0.25164 0.37951 0.552 0.0
H737 H 0.22628 0.4103 0.52551 0.0
H738 H 0.11348 0.36907 0.46999 0.0
H739 H 0.15682 0.39896 0.51058 0.0
H740 H 0.12493 0.16966 0.50543 0.0
H741 H 0.17038 0.19992 0.54395 0.0
H742 H 0.10983 0.18069 0.44152 0.0
H743 H 0.08066 0.2091 0.41733 0.0
C744 C 0.80997 0.12147 0.845 0.0
C745 C 0.83379 0.10957 0.81233 0.0
C746 C 0.91367 0.16774 0.84336 0.0
C747 C 0.88983 0.17868 0.87707 0.0
N748 N 0.81508 0.16257 0.91267 0.0
N749 N 0.90681 0.11511 0.78299 0.0
C750 C 0.83791 0.1542 0.87883 0.0
C751 C 0.88529 0.1311 0.81219 0.0
N752 N 0.76082 0.1037 0.84218 0.0
N753 N 0.96347 0.19236 0.84116 0.0
H754 H 0.88702 0.08805 0.76011 0.0
H755 H 0.94357 0.12556 0.78326 0.0
H756 H 0.98567 0.21644 0.86511 0.0
H757 H 0.98318 0.19087 0.81467 0.0
H758 H 0.74188 0.11571 0.86139 0.0
H759 H 0.73893 0.07892 0.81848 0.0
H760 H 0.77811 0.14095 0.9196 0.0
H761 H 0.8334 0.19004 0.93529 0.0
C762 C 0.70365 0.81127 0.17813 0.0
C763 C 0.6959 0.82206 0.13491 0.0
C764 C 0.70154 0.89731 0.16217 0.0
C765 C 0.70048 0.88207 0.20591 0.0
N766 N 0.67993 0.81253 0.25229 0.0
N767 N 0.66757 0.86677 0.09152 0.0
C768 C 0.69606 0.83572 0.21326 0.0
C769 C 0.68949 0.8629 0.12825 0.0
N770 N 0.71875 0.77856 0.18616 0.0
N771 N 0.71437 0.94425 0.15246 0.0
H772 H 0.64983 0.8378 0.07002 0.0
H773 H 0.66005 0.89492 0.08667 0.0
H774 H 0.72705 0.97166 0.17583 0.0
H775 H 0.71804 0.95671 0.1204 0.0
H776 H 0.72725 0.77234 0.21751 0.0
H777 H 0.72854 0.76257 0.16149 0.0
H778 H 0.67385 0.77746 0.25795 0.0
H779 H 0.66502 0.8249 0.27576 0.0
C780 C 0.84115 0.68903 0.46332 0.0
C781 C 0.89301 0.71499 0.46609 0.0
C782 C 0.88782 0.75494 0.53288 0.0
C783 C 0.83621 0.72582 0.53193 0.0
N784 N 0.76369 0.66009 0.50025 0.0
N785 N 0.96605 0.77039 0.50503 0.0
C786 C 0.81281 0.69186 0.49799 0.0
C787 C 0.91642 0.74716 0.50146 0.0
N788 N 0.81865 0.66125 0.42763 0.0
N789 N 0.90933 0.79144 0.56291 0.0
H790 H 0.98865 0.76878 0.4812 0.0
H791 H 0.98491 0.78921 0.53271 0.0
H792 H 0.88951 0.79861 0.58592 0.0
H793 H 0.94626 0.8173 0.56293 0.0
H794 H 0.78192 0.64739 0.42064 0.0
H795 H 0.83716 0.65423 0.40348 0.0
H796 H 0.74525 0.63038 0.47964 0.0
H797 H 0.74154 0.66081 0.52502 0.0
C798 C 0.15314 0.90036 0.82485 0.0
C799 C 0.1676 0.8789 0.7917 0.0
C800 C 0.11133 0.79727 0.82193 0.0
C801 C 0.09642 0.8188 0.8544 0.0
N802 N 0.09586 0.88911 0.88275 0.0
N803 N 0.15642 0.80651 0.75542 0.0
C804 C 0.11531 0.86992 0.85465 0.0
C805 C 0.14503 0.8272 0.78902 0.0
N806 N 0.17602 0.94996 0.82815 0.0
N807 N 0.09566 0.74852 0.82422 0.0
H808 H 0.1842 0.82653 0.73326 0.0
H809 H 0.13674 0.76961 0.74798 0.0
H810 H 0.07045 0.72532 0.84726 0.0
H811 H 0.10973 0.73129 0.80526 0.0
H812 H 0.172 0.9681 0.8546 0.0
H813 H 0.20123 0.97347 0.80528 0.0
H814 H 0.1043 0.9253 0.88221 0.0
H815 H 0.06785 0.86777 0.90457 0.0
C816 C 0.49089 0.00971 0.29917 0.0
C817 C 0.46995 0.01408 0.33865 0.0
C818 C 0.53124 0.00515 0.3801 0.0
C819 C 0.54827 0.99485 0.341 0.0
N820 N 0.54029 0.98103 0.26359 0.0
N821 N 0.46389 0.00513 0.41712 0.0
C822 C 0.52693 0.99535 0.30055 0.0
C823 C 0.48838 0.00885 0.37929 0.0
N824 N 0.47781 0.02122 0.26046 0.0
N825 N 0.55723 0.01375 0.41775 0.0
H826 H 0.43148 0.00602 0.41825 0.0
H827 H 0.4731 0.99618 0.44696 0.0
H828 H 0.58994 0.01351 0.41934 0.0
H829 H 0.54914 0.02626 0.44614 0.0
H830 H 0.495 0.02323 0.23097 0.0
H831 H 0.45306 0.03368 0.25853 0.0
H832 H 0.52262 0.97587 0.23383 0.0
H833 H 0.56633 0.9701 0.26359 0.0
C834 C 0.56779 0.50742 0.68291 0.0
C835 C 0.56753 0.54088 0.65224 0.0
C836 C 0.47833 0.48979 0.64606 0.0
C837 C 0.4792 0.45413 0.67365 0.0
N838 N 0.52753 0.42526 0.71076 0.0
N839 N 0.5239 0.55917 0.59808 0.0
C840 C 0.52469 0.46189 0.6899 0.0
C841 C 0.52314 0.53067 0.63192 0.0
N842 N 0.60849 0.5198 0.70724 0.0
N843 N 0.43482 0.48604 0.63504 0.0
H844 H 0.55601 0.5886 0.58616 0.0
H845 H 0.4935 0.55078 0.57909 0.0
H846 H 0.40131 0.45763 0.64572 0.0
H847 H 0.43207 0.51351 0.61892 0.0
H848 H 0.60857 0.49952 0.73398 0.0
H849 H 0.6411 0.55254 0.7037 0.0
H850 H 0.56045 0.42691 0.71792 0.0
H851 H 0.49755 0.39137 0.71745 0.0
C852 C 0.03931 0.54157 0.01657 0.0
C853 C 0.01089 0.54853 0.98454 0.0
C854 C 0.96968 0.46094 0.96721 0.0
C855 C 1.00063 0.45489 0.99675 0.0
N856 N 0.06883 0.49019 0.04628 0.0
N857 N 0.95619 0.51667 0.92329 0.0
C858 C 0.03678 0.49552 0.02024 0.0
C859 C 0.97779 0.5086 0.95837 0.0
N860 N 0.0667 0.57798 0.04531 0.0
N861 N 0.93264 0.42116 0.94727 0.0
H862 H 0.96288 0.55117 0.91445 0.0
H863 H 0.93569 0.49025 0.90028 0.0
H864 H 0.92732 0.38611 0.95069 0.0
H865 H 0.90511 0.42226 0.92972 0.0
H866 H 0.083 0.57309 0.07283 0.0
H867 H 0.07022 0.61237 0.044 0.0
H868 H 0.10013 0.51943 0.05919 0.0
H869 H 0.06589 0.45662 0.05316 0.0
C870 C 0.03378 0.54363 0.38352 0.0
C871 C 0.99904 0.547 0.35653 0.0
C872 C 0.97145 0.46441 0.32935 0.0
C873 C 0.00881 0.46291 0.35372 0.0
N874 N 0.07995 0.50321 0.39918 0.0
N875 N 0.94062 0.51397 0.29802 0.0
C876 C 0.04147 0.50331 0.37915 0.0
C877 C 0.96914 0.50813 0.3281 0.0
N878 N 0.0576 0.57764 0.41509 0.0
N879 N 0.93823 0.42409 0.30708 0.0
H880 H 0.93822 0.54546 0.29544 0.0
H881 H 0.92248 0.48939 0.27301 0.0
H882 H 0.94078 0.39272 0.304 0.0
H883 H 0.90648 0.4206 0.29368 0.0
H884 H 0.07942 0.57461 0.43879 0.0
H885 H 0.05181 0.60669 0.42041 0.0
H886 H 0.10844 0.53386 0.41368 0.0
H887 H 0.08537 0.47338 0.39865 0.0
C888 C 0.52414 0.98669 0.73043 0.0
C889 C 0.55966 0.01473 0.69817 0.0
C890 C 0.49786 0.02389 0.65738 0.0
C891 C 0.46334 0.99848 0.69095 0.0
N892 N 0.44416 0.9605 0.76171 0.0
N893 N 0.58226 0.06557 0.63378 0.0
C894 C 0.47668 0.98127 0.72816 0.0
C895 C 0.5471 0.03513 0.66258 0.0
N896 N 0.53565 0.96485 0.7631 0.0
N897 N 0.48323 0.03627 0.6199 0.0
H898 H 0.6182 0.07313 0.63492 0.0
H899 H 0.5769 0.08627 0.61042 0.0
H900 H 0.4479 0.02966 0.61517 0.0
H901 H 0.50475 0.04958 0.59204 0.0
H902 H 0.51014 0.939 0.78434 0.0
H903 H 0.57072 0.97081 0.76781 0.0
H904 H 0.45309 0.95229 0.79197 0.0
H905 H 0.40851 0.95397 0.7602 0.0
C906 C 0.46391 0.49563 0.04752 0.0
C907 C 0.46042 0.45742 0.0207 0.0
C908 C 0.53412 0.5165 0.9808 0.0
C909 C 0.53897 0.55395 0.00919 0.0
N910 N 0.51281 0.5792 0.07253 0.0
N911 N 0.49411 0.43029 0.964 0.0
C912 C 0.50485 0.54358 0.04321 0.0
C913 C 0.49627 0.46752 0.98812 0.0
N914 N 0.42797 0.48608 0.07717 0.0
N915 N 0.56466 0.52827 0.94563 0.0
H916 H 0.4653 0.39458 0.96574 0.0
H917 H 0.52212 0.43394 0.94379 0.0
H918 H 0.59296 0.56354 0.93935 0.0
H919 H 0.56007 0.50421 0.92071 0.0
H920 H 0.42462 0.51292 0.09357 0.0
H921 H 0.39982 0.45104 0.08418 0.0
H922 H 0.49284 0.57306 0.10111 0.0
H923 H 0.54177 0.61484 0.06977 0.0
C924 C 0.1024 0.8806 0.37969 0.0
C925 C 0.08936 0.85382 0.34009 0.0
C926 C 0.15271 0.9259 0.30216 0.0
C927 C 0.17273 0.94771 0.3423 0.0
N928 N 0.16659 0.94796 0.42021 0.0
N929 N 0.11163 0.8496 0.2652 0.0
C930 C 0.14693 0.92619 0.38143 0.0
C931 C 0.11647 0.87629 0.30145 0.0
N932 N 0.07381 0.86155 0.41589 0.0
N933 N 0.17111 0.95188 0.26462 0.0
H934 H 0.09002 0.81209 0.26462 0.0
H935 H 0.13384 0.8638 0.23776 0.0
H936 H 0.19824 0.98845 0.26534 0.0
H937 H 0.1559 0.93879 0.23405 0.0
H938 H 0.07937 0.88089 0.44468 0.0
H939 H 0.04234 0.82743 0.41621 0.0
H940 H 0.15319 0.93171 0.45044 0.0
H941 H 0.19812 0.98194 0.42167 0.0
C942 C 0.23896 0.13822 0.62185 0.0
C943 C 0.23689 0.1613 0.66064 0.0
C944 C 0.22901 0.09209 0.70353 0.0
C945 C 0.24057 0.07428 0.66592 0.0
N946 N 0.25809 0.08021 0.58906 0.0
N947 N 0.23181 0.16143 0.73905 0.0
C948 C 0.24493 0.09667 0.62476 0.0
C949 C 0.23139 0.13802 0.70165 0.0
N950 N 0.23694 0.1571 0.58238 0.0
N951 N 0.2171 0.06554 0.74126 0.0
H952 H 0.2329 0.19475 0.73878 0.0
H953 H 0.23417 0.14952 0.77013 0.0
H954 H 0.21568 0.032 0.74324 0.0
H955 H 0.20442 0.07436 0.76912 0.0
H956 H 0.23435 0.14001 0.55279 0.0
H957 H 0.23362 0.18801 0.57958 0.0
H958 H 0.26786 0.09839 0.55922 0.0
H959 H 0.262 0.04948 0.59006 0.0
C960 C 0.13865 0.21919 0.96975 0.0
C961 C 0.16161 0.22158 0.01014 0.0
C962 C 0.10046 0.23239 0.04847 0.0
C963 C 0.07679 0.22968 0.00832 0.0
N964 N 0.06696 0.20959 0.932 0.0
N965 N 0.15423 0.21226 0.08786 0.0
C966 C 0.09332 0.21851 0.96943 0.0
C967 C 0.1384 0.22111 0.04947 0.0
N968 N 0.16189 0.22091 0.93172 0.0
N969 N 0.08994 0.24996 0.0849 0.0
H970 H 0.18122 0.2027 0.08878 0.0
H971 H 0.13669 0.20862 0.11755 0.0
H972 H 0.06545 0.26265 0.08463 0.0
H973 H 0.1095 0.25713 0.11384 0.0
H974 H 0.15036 0.22542 0.90118 0.0
H975 H 0.1945 0.22036 0.93116 0.0
H976 H 0.07519 0.1977 0.90333 0.0
H977 H 0.03438 0.21018 0.93075 0.0
C978 C 0.91584 0.14334 0.38781 0.0
C979 C 0.94328 0.16537 0.34978 0.0
C980 C 0.88305 0.09788 0.30542 0.0
C981 C 0.85212 0.07918 0.3425 0.0
N982 N 0.84075 0.08021 0.42014 0.0
N983 N 0.96446 0.15293 0.27805 0.0
C984 C 0.8696 0.10027 0.38427 0.0
C985 C 0.93053 0.13909 0.31029 0.0
N986 N 0.93507 0.16367 0.42723 0.0
N987 N 0.86588 0.07903 0.26508 0.0
H988 H 0.99998 0.18091 0.28286 0.0
H989 H 0.95921 0.13339 0.24941 0.0
H990 H 0.8314 0.04902 0.25998 0.0
H991 H 0.88456 0.09516 0.23631 0.0
H992 H 0.91914 0.14906 0.45725 0.0
H993 H 0.96976 0.19409 0.42972 0.0
H994 H 0.8477 0.09656 0.45058 0.0
H995 H 0.80846 0.04702 0.41903 0.0
C996 C 0.78325 0.8677 0.70453 0.0
C997 C 0.78139 0.84873 0.66223 0.0
C998 C 0.78492 0.92094 0.62963 0.0
C999 C 0.78573 0.93932 0.672 0.0
N1000 N 0.79986 0.93768 0.74869 0.0
N1001 N 0.79281 0.86213 0.58496 0.0
C1002 C 0.7903 0.91538 0.70905 0.0
C1003 C 0.78691 0.87734 0.6249 0.0
N1004 N 0.77478 0.83886 0.7403 0.0
N1005 N 0.77908 0.94356 0.59411 0.0
H1006 H 0.79406 0.83016 0.58095 0.0
H1007 H 0.80086 0.88309 0.55672 0.0
H1008 H 0.77909 0.97631 0.59644 0.0
H1009 H 0.77159 0.92866 0.56298 0.0
H1010 H 0.76897 0.84807 0.77135 0.0
H1011 H 0.76999 0.804 0.73826 0.0
H1012 H 0.80734 0.92377 0.77656 0.0
H1013 H 0.8052 0.97265 0.75251 0.0
C1014 C 0.86149 0.78134 0.95359 0.0
C1015 C 0.83924 0.77839 0.9946 0.0
C1016 C 0.89831 0.76231 0.03001 0.0
C1017 C 0.9223 0.76723 0.9894 0.0
N1018 N 0.93335 0.79351 0.91443 0.0
N1019 N 0.84616 0.78194 0.07265 0.0
C1020 C 0.90655 0.78161 0.95192 0.0
C1021 C 0.86186 0.77554 0.03309 0.0
N1022 N 0.8379 0.78032 0.9161 0.0
N1023 N 0.90665 0.74061 0.06471 0.0
H1024 H 0.81849 0.79045 0.07574 0.0
H1025 H 0.86394 0.7837 0.10173 0.0
H1026 H 0.92905 0.72558 0.06267 0.0
H1027 H 0.88724 0.73256 0.09387 0.0
H1028 H 0.84926 0.77604 0.88542 0.0
H1029 H 0.80497 0.78017 0.91614 0.0
H1030 H 0.92549 0.80789 0.88709 0.0
H1031 H 0.96606 0.79334 0.91225 0.0
C1032 C 0.30361 0.97112 0.48527 0.0
C1033 C 0.33611 0.01518 0.46398 0.0
C1034 C 0.37587 0.04889 0.53427 0.0
C1035 C 0.34225 1.00391 0.55501 0.0
N1036 N 0.29831 0.91762 0.54314 0.0
N1037 N 0.41261 0.09048 0.46611 0.0
C1038 C 0.31368 0.96344 0.5282 0.0
C1039 C 0.37504 0.05273 0.48786 0.0
N1040 N 0.2615 0.93767 0.46582 0.0
N1041 N 0.40927 0.0875 0.55788 0.0
H1042 H 0.41417 0.09264 0.43224 0.0
H1043 H 0.44434 0.11675 0.48115 0.0
H1044 H 0.42076 0.08389 0.58861 0.0
H1045 H 0.42738 0.12301 0.54578 0.0
H1046 H 0.23556 0.90613 0.48175 0.0
H1047 H 0.25008 0.94514 0.43648 0.0
H1048 H 0.27908 0.88681 0.52374 0.0
H1049 H 0.31164 0.91218 0.57243 0.0
C1050 C 0.2767 0.25698 0.8568 0.0
C1051 C 0.31421 0.29571 0.88078 0.0
C1052 C 0.33427 0.34788 0.81548 0.0
C1053 C 0.2945 0.3094 0.79313 0.0
N1054 N 0.21478 0.23844 0.80351 0.0
N1055 N 0.3884 0.37319 0.87797 0.0
C1056 C 0.26165 0.26718 0.81685 0.0
C1057 C 0.34565 0.34018 0.85874 0.0
N1058 N 0.25792 0.2098 0.8697 0.0
N1059 N 0.35852 0.39286 0.79639 0.0
H1060 H 0.39976 0.36614 0.90764 0.0
H1061 H 0.41514 0.40453 0.86258 0.0
H1062 H 0.348 0.40009 0.76633 0.0
H1063 H 0.38508 0.42392 0.81198 0.0
H1064 H 0.23168 0.18064 0.85167 0.0
H1065 H 0.27521 0.19963 0.8927 0.0
H1066 H 0.18929 0.20863 0.82166 0.0
H1067 H 0.1994 0.24938 0.77932 0.0
C1068 C 0.01179 0.35994 0.19839 0.0
C1069 C 0.99609 0.31802 0.22474 0.0
C1070 C 0.98338 0.26894 0.16023 0.0
C1071 C 0.99516 0.30973 0.13258 0.0
N1072 N 1.00518 0.39072 0.12824 0.0
N1073 N 0.95135 0.23063 0.22969 0.0
C1074 C 1.00505 0.35448 0.15241 0.0
C1075 C 0.97626 0.27192 0.2052 0.0
N1076 N 0.03358 0.40494 0.21695 0.0
N1077 N 0.98328 0.22862 0.14498 0.0
H1078 H 0.94641 0.23145 0.26315 0.0
H1079 H 0.93149 0.19615 0.21584 0.0
H1080 H 0.99469 0.22674 0.11395 0.0
H1081 H 0.97901 0.20014 0.16505 0.0
H1082 H 0.05081 0.4371 0.19883 0.0
H1083 H 0.03707 0.40983 0.25054 0.0
H1084 H 0.00841 0.42222 0.14192 0.0
H1085 H 0.99568 0.38676 0.09554 0.0
C1086 C 0.65911 0.98438 0.48956 0.0
C1087 C 0.69862 0.98484 0.46743 0.0
C1088 C 0.75123 0.02453 0.52913 0.0
C1089 C 0.71176 0.02171 0.55327 0.0
N1090 N 0.63172 0.01266 0.55098 0.0
N1091 N 0.77128 0.97961 0.47904 0.0
C1092 C 0.6663 1.00504 0.532 0.0
C1093 C 0.74148 0.99703 0.49091 0.0
N1094 N 0.6139 0.96019 0.47133 0.0
N1095 N 0.79829 0.05608 0.54028 0.0
H1096 H 0.76034 0.95149 0.45673 0.0
H1097 H 0.80221 0.98683 0.49682 0.0
H1098 H 0.80729 0.08487 0.56143 0.0
H1099 H 0.82782 0.05916 0.52259 0.0
H1100 H 0.58226 0.95449 0.48684 0.0
H1101 H 0.60764 0.94071 0.44246 0.0
H1102 H 0.59925 1.00504 0.53597 0.0
H1103 H 0.63832 0.03222 0.57983 0.0
C1104 C 0.65025 0.66664 0.85052 0.0
C1105 C 0.68285 0.71033 0.87267 0.0
C1106 C 0.74007 0.7345 0.8127 0.0
C1107 C 0.70659 0.69427 0.78772 0.0
N1108 N 0.63144 0.61766 0.78466 0.0
N1109 N 0.74351 0.79494 0.86115 0.0
C1110 C 0.66178 0.65895 0.80722 0.0
C1111 C 0.72305 0.74729 0.84966 0.0
N1112 N 0.60766 0.6339 0.87042 0.0
N1113 N 0.78848 0.75916 0.80305 0.0
H1114 H 0.72557 0.80694 0.88167 0.0
H1115 H 0.77299 0.82277 0.8444 0.0
H1116 H 0.80398 0.74432 0.78289 0.0
H1117 H 0.81365 0.78899 0.82109 0.0
H1118 H 0.58347 0.59947 0.8585 0.0
H1119 H 0.59563 0.64234 0.89897 0.0
H1120 H 0.5967 0.59156 0.79476 0.0
H1121 H 0.64208 0.60882 0.75556 0.0
C1122 C 0.99846 0.66084 0.18661 0.0
C1123 C 1.00391 0.70227 0.20932 0.0
C1124 C 1.00676 0.7413 0.13927 0.0
C1125 C 1.00684 0.70239 0.11637 0.0
N1126 N 0.01314 0.62963 0.11985 0.0
N1127 N 0.02117 0.78579 0.20553 0.0
C1128 C 1.0055 0.66332 0.1405 0.0
C1129 C 0.01025 0.7434 0.18515 0.0
N1130 N 0.98413 0.61822 0.20858 0.0
N1131 N 1.00097 0.77577 0.11773 0.0
H1132 H 0.02071 0.78925 0.23888 0.0
H1133 H 0.03473 0.81903 0.18932 0.0
H1134 H 0.99942 0.77756 0.0843 0.0
H1135 H 0.99255 0.79986 0.13318 0.0
H1136 H 0.97478 0.58557 0.19302 0.0
H1137 H 0.97643 0.61415 0.24185 0.0
H1138 H 0.01762 0.60342 0.13641 0.0
H1139 H 0.02015 0.63101 0.08657 0.0
loop_
_geom_bond_atom_site_label_1
_geom_bond_atom_site_label_2
_geom_bond_distance
_geom_bond_site_symmetry_2
_ccdc_geom_bond_type
Co0 O2 2.143 1_565 S
Co0 O8 2.074 . S
Co0 O11 2.093 . S
Co0 O24 2.097 . S
Co0 N41 2.151 . S
Co0 N49 2.214 . S
Co1 O2 2.160 . S
Co1 O7 2.058 1_545 S
Co1 O17 2.057 . S
Co1 O32 2.037 . S
Co1 N36 2.145 . S
Co1 N57 2.257 . S
O2 Co0 2.143 1_545 S
O2 Co1 2.160 . S
C3 O4 1.278 . S
C3 O11 1.224 1_545 S
O4 C3 1.278 . S
C5 O6 1.245 . S
C5 O17 1.232 . S
O6 C5 1.245 . S
O7 Co1 2.058 1_565 S
O7 C33 1.269 . S
O8 Co0 2.074 . S
O8 C33 1.257 . S
H9 C34 0.930 . S
H10 C40 0.930 . S
O11 Co0 2.093 . S
O11 C3 1.224 1_565 S
H12 C44 0.929 . S
H13 C46 0.930 . S
H14 C47 0.930 . S
H15 C45 0.929 . S
H16 C48 0.928 . S
O17 Co1 2.057 . S
O17 C5 1.232 . S
H18 C37 0.929 . S
H19 C38 0.929 . S
H20 C50 0.931 . S
H21 C42 0.929 . S
H22 C51 0.930 . S
H23 C43 0.931 . S
O24 Co0 2.097 . S
O24 C52 1.214 1_565 S
H25 C53 0.929 . S
H26 C54 0.929 . S
H27 C55 0.930 . S
H28 C56 0.929 . S
H29 C58 0.930 . S
H30 C35 0.930 . S
H31 C39 0.930 . S
O32 Co1 2.037 . S
O32 C52 1.234 . S
C33 O7 1.269 . S
C33 O8 1.257 . S
C34 H9 0.930 . S
C34 C37 1.388 . S
C34 C39 1.418 . S
C35 H30 0.930 . S
C35 C38 1.404 . S
C35 C39 1.353 . S
N36 Co1 2.145 . S
N36 C37 1.397 . S
N36 C38 1.334 . S
C37 H18 0.929 . S
C37 C34 1.388 . S
C37 N36 1.397 . S
C38 H19 0.929 . S
C38 C35 1.404 . S
C38 N36 1.334 . S
C39 H31 0.930 . S
C39 C34 1.418 . S
C39 C35 1.353 . S
C40 H10 0.930 . S
C40 N41 1.330 . S
C40 C42 1.446 . S
N41 Co0 2.151 . S
N41 C40 1.330 . S
N41 C45 1.418 . S
C42 H21 0.929 . S
C42 C40 1.446 . S
C42 C43 1.332 . S
C43 H23 0.931 . S
C43 C42 1.332 . S
C43 C44 1.267 . S
C44 H12 0.929 . S
C44 C43 1.267 . S
C44 C45 1.251 . S
C45 H15 0.929 . S
C45 N41 1.418 . S
C45 C44 1.251 . S
C46 H13 0.930 . S
C46 C48 1.406 . S
C46 C51 1.261 . S
C47 H14 0.930 . S
C47 N49 1.325 . S
C47 C50 1.357 . S
C48 H16 0.928 . S
C48 C46 1.406 . S
C48 N49 1.261 . S
N49 Co0 2.214 . S
N49 C47 1.325 . S
N49 C48 1.261 . S
C50 H20 0.931 . S
C50 C47 1.357 . S
C50 C51 1.312 . S
C51 H22 0.930 . S
C51 C46 1.261 . S
C51 C50 1.312 . S
C52 O24 1.214 1_545 S
C52 O32 1.234 . S
C53 H25 0.929 . S
C53 C56 1.391 . S
C53 C58 1.391 . S
C54 H26 0.929 . S
C54 C55 1.390 . S
C54 N57 1.391 . S
C55 H27 0.930 . S
C55 C54 1.390 . S
C55 C56 1.392 . S
C56 H28 0.929 . S
C56 C53 1.391 . S
C56 C55 1.392 . S
N57 Co1 2.257 . S
N57 C54 1.391 . S
N57 C58 1.388 . S
C58 H29 0.930 . S
C58 C53 1.391 . S
C58 N57 1.388 . S
Co59 O61 2.143 . S
Co59 O67 2.074 . S
Co59 O70 2.093 . S
Co59 O83 2.097 . S
Co59 N100 2.151 . S
Co59 N108 2.214 . S
Co60 O61 2.160 . S
Co60 O66 2.058 . S
Co60 O76 2.057 . S
Co60 O91 2.037 . S
Co60 N95 2.145 . S
Co60 N116 2.257 . S
O61 Co59 2.143 . S
O61 Co60 2.160 . S
C62 O63 1.278 . S
C62 O70 1.224 . S
O63 C62 1.278 . S
C64 O65 1.245 . S
C64 O76 1.232 . S
O65 C64 1.245 . S
O66 Co60 2.058 . S
O66 C92 1.269 . S
O67 Co59 2.074 . S
O67 C92 1.257 . S
H68 C93 0.930 . S
H69 C99 0.930 . S
O70 Co59 2.093 . S
O70 C62 1.224 . S
H71 C103 0.929 . S
H72 C105 0.930 . S
H73 C106 0.930 . S
H74 C104 0.929 . S
H75 C107 0.928 . S
O76 Co60 2.057 . S
O76 C64 1.232 . S
H77 C96 0.929 . S
H78 C97 0.929 . S
H79 C109 0.931 . S
H80 C101 0.929 . S
H81 C110 0.930 . S
H82 C102 0.931 . S
O83 Co59 2.097 . S
O83 C111 1.214 . S
H84 C112 0.929 . S
H85 C113 0.929 . S
H86 C114 0.930 . S
H87 C115 0.929 . S
H88 C117 0.930 . S
H89 C94 0.930 . S
H90 C98 0.930 . S
O91 Co60 2.037 . S
O91 C111 1.234 . S
C92 O66 1.269 . S
C92 O67 1.257 . S
C93 H68 0.930 . S
C93 C96 1.388 . S
C93 C98 1.418 . S
C94 H89 0.930 . S
C94 C97 1.404 . S
C94 C98 1.353 . S
N95 Co60 2.145 . S
N95 C96 1.397 . S
N95 C97 1.334 . S
C96 H77 0.929 . S
C96 C93 1.388 . S
C96 N95 1.397 . S
C97 H78 0.929 . S
C97 C94 1.404 . S
C97 N95 1.334 . S
C98 H90 0.930 . S
C98 C93 1.418 . S
C98 C94 1.353 . S
C99 H69 0.930 . S
C99 N100 1.330 . S
C99 C101 1.446 . S
N100 Co59 2.151 . S
N100 C99 1.330 . S
N100 C104 1.418 . S
C101 H80 0.929 . S
C101 C99 1.446 . S
C101 C102 1.332 . S
C102 H82 0.931 . S
C102 C101 1.332 . S
C102 C103 1.267 . S
C103 H71 0.929 . S
C103 C102 1.267 . S
C103 C104 1.251 . S
C104 H74 0.929 . S
C104 N100 1.418 . S
C104 C103 1.251 . S
C105 H72 0.930 . S
C105 C107 1.406 . S
C105 C110 1.261 . S
C106 H73 0.930 . S
C106 N108 1.325 . S
C106 C109 1.357 . S
C107 H75 0.928 . S
C107 C105 1.406 . S
C107 N108 1.261 . S
N108 Co59 2.214 . S
N108 C106 1.325 . S
N108 C107 1.261 . S
C109 H79 0.931 . S
C109 C106 1.357 . S
C109 C110 1.312 . S
C110 H81 0.930 . S
C110 C105 1.261 . S
C110 C109 1.312 . S
C111 O83 1.214 . S
C111 O91 1.234 . S
C112 H84 0.929 . S
C112 C115 1.391 . S
C112 C117 1.391 . S
C113 H85 0.929 . S
C113 C114 1.390 . S
C113 N116 1.391 . S
C114 H86 0.930 . S
C114 C113 1.390 . S
C114 C115 1.392 . S
C115 H87 0.929 . S
C115 C112 1.391 . S
C115 C114 1.392 . S
N116 Co60 2.257 . S
N116 C113 1.391 . S
N116 C117 1.388 . S
C117 H88 0.930 . S
C117 C112 1.391 . S
C117 N116 1.388 . S
Co118 O120 2.143 1_454 S
Co118 O126 2.074 . S
Co118 O129 2.093 . S
Co118 O142 2.097 . S
Co118 N159 2.151 1_554 S
Co118 N167 2.214 . S
Co119 O120 2.160 1_554 S
Co119 O125 2.058 1_654 S
Co119 O135 2.057 1_554 S
Co119 O150 2.037 . S
Co119 N154 2.145 . S
Co119 N175 2.257 . S
O120 Co118 2.143 1_656 S
O120 Co119 2.160 1_556 S
C121 O122 1.278 . S
C121 O129 1.224 1_656 S
O122 C121 1.278 . S
C123 O124 1.245 . S
C123 O135 1.232 . S
O124 C123 1.245 . S
O125 Co119 2.058 1_456 S
O125 C151 1.269 . S
O126 Co118 2.074 . S
O126 C151 1.257 1_554 S
H127 C152 0.930 . S
H128 C158 0.930 . S
O129 Co118 2.093 . S
O129 C121 1.224 1_454 S
H130 C162 0.929 . S
H131 C164 0.930 . S
H132 C165 0.930 . S
H133 C163 0.929 . S
H134 C166 0.928 . S
O135 Co119 2.057 1_556 S
O135 C123 1.232 . S
H136 C155 0.929 . S
H137 C156 0.929 1_556 S
H138 C168 0.931 . S
H139 C160 0.929 . S
H140 C169 0.930 . S
H141 C161 0.931 . S
O142 Co118 2.097 . S
O142 C170 1.214 1_455 S
H143 C171 0.929 1_556 S
H144 C172 0.929 . S
H145 C173 0.930 . S
H146 C174 0.929 . S
H147 C176 0.930 . S
H148 C153 0.930 1_556 S
H149 C157 0.930 . S
O150 Co119 2.037 . S
O150 C170 1.234 . S
C151 O125 1.269 . S
C151 O126 1.257 1_556 S
C152 H127 0.930 . S
C152 C155 1.388 . S
C152 C157 1.418 . S
C153 H148 0.930 1_554 S
C153 C156 1.404 . S
C153 C157 1.353 . S
N154 Co119 2.145 . S
N154 C155 1.397 . S
N154 C156 1.334 . S
C155 H136 0.929 . S
C155 C152 1.388 . S
C155 N154 1.397 . S
C156 H137 0.929 1_554 S
C156 C153 1.404 . S
C156 N154 1.334 . S
C157 H149 0.930 . S
C157 C152 1.418 . S
C157 C153 1.353 . S
C158 H128 0.930 . S
C158 N159 1.330 . S
C158 C160 1.446 . S
N159 Co118 2.151 1_556 S
N159 C158 1.330 . S
N159 C163 1.418 . S
C160 H139 0.929 . S
C160 C158 1.446 . S
C160 C161 1.332 . S
C161 H141 0.931 . S
C161 C160 1.332 . S
C161 C162 1.267 . S
C162 H130 0.929 . S
C162 C161 1.267 . S
C162 C163 1.251 . S
C163 H133 0.929 . S
C163 N159 1.418 . S
C163 C162 1.251 . S
C164 H131 0.930 . S
C164 C166 1.406 . S
C164 C169 1.261 . S
C165 H132 0.930 . S
C165 N167 1.325 . S
C165 C168 1.357 . S
C166 H134 0.928 . S
C166 C164 1.406 . S
C166 N167 1.261 . S
N167 Co118 2.214 . S
N167 C165 1.325 . S
N167 C166 1.261 . S
C168 H138 0.931 . S
C168 C165 1.357 . S
C168 C169 1.312 . S
C169 H140 0.930 . S
C169 C164 1.261 . S
C169 C168 1.312 . S
C170 O142 1.214 1_655 S
C170 O150 1.234 . S
C171 H143 0.929 1_554 S
C171 C174 1.391 . S
C171 C176 1.391 1_554 S
C172 H144 0.929 . S
C172 C173 1.390 . S
C172 N175 1.391 . S
C173 H145 0.930 . S
C173 C172 1.390 . S
C173 C174 1.392 . S
C174 H146 0.929 . S
C174 C171 1.391 . S
C174 C173 1.392 . S
N175 Co119 2.257 . S
N175 C172 1.391 . S
N175 C176 1.388 1_554 S
C176 H147 0.930 . S
C176 C171 1.391 1_556 S
C176 N175 1.388 1_556 S
Co177 O179 2.143 1_545 S
Co177 O185 2.074 . S
Co177 O188 2.093 . S
Co177 O201 2.097 . S
Co177 N218 2.151 . S
Co177 N226 2.214 . S
Co178 O179 2.160 . S
Co178 O184 2.058 1_565 S
Co178 O194 2.057 . S
Co178 O209 2.037 . S
Co178 N213 2.145 . S
Co178 N234 2.257 . S
O179 Co177 2.143 1_565 S
O179 Co178 2.160 . S
C180 O181 1.278 . S
C180 O188 1.224 1_565 S
O181 C180 1.278 . S
C182 O183 1.245 . S
C182 O194 1.232 . S
O183 C182 1.245 . S
O184 Co178 2.058 1_545 S
O184 C210 1.269 . S
O185 Co177 2.074 . S
O185 C210 1.257 . S
H186 C211 0.930 . S
H187 C217 0.930 . S
O188 Co177 2.093 . S
O188 C180 1.224 1_545 S
H189 C221 0.929 . S
H190 C223 0.930 . S
H191 C224 0.930 . S
H192 C222 0.929 . S
H193 C225 0.928 . S
O194 Co178 2.057 . S
O194 C182 1.232 . S
H195 C214 0.929 . S
H196 C215 0.929 . S
H197 C227 0.931 . S
H198 C219 0.929 . S
H199 C228 0.930 . S
H200 C220 0.931 . S
O201 Co177 2.097 . S
O201 C229 1.214 1_545 S
H202 C230 0.929 . S
H203 C231 0.929 . S
H204 C232 0.930 . S
H205 C233 0.929 . S
H206 C235 0.930 . S
H207 C212 0.930 . S
H208 C216 0.930 . S
O209 Co178 2.037 . S
O209 C229 1.234 . S
C210 O184 1.269 . S
C210 O185 1.257 . S
C211 H186 0.930 . S
C211 C214 1.388 . S
C211 C216 1.418 . S
C212 H207 0.930 . S
C212 C215 1.404 . S
C212 C216 1.353 . S
N213 Co178 2.145 . S
N213 C214 1.397 . S
N213 C215 1.334 . S
C214 H195 0.929 . S
C214 C211 1.388 . S
C214 N213 1.397 . S
C215 H196 0.929 . S
C215 C212 1.404 . S
C215 N213 1.334 . S
C216 H208 0.930 . S
C216 C211 1.418 . S
C216 C212 1.353 . S
C217 H187 0.930 . S
C217 N218 1.330 . S
C217 C219 1.446 . S
N218 Co177 2.151 . S
N218 C217 1.330 . S
N218 C222 1.418 . S
C219 H198 0.929 . S
C219 C217 1.446 . S
C219 C220 1.332 . S
C220 H200 0.931 . S
C220 C219 1.332 . S
C220 C221 1.267 . S
C221 H189 0.929 . S
C221 C220 1.267 . S
C221 C222 1.251 . S
C222 H192 0.929 . S
C222 N218 1.418 . S
C222 C221 1.251 . S
C223 H190 0.930 . S
C223 C225 1.406 . S
C223 C228 1.261 . S
C224 H191 0.930 . S
C224 N226 1.325 . S
C224 C227 1.357 . S
C225 H193 0.928 . S
C225 C223 1.406 . S
C225 N226 1.261 . S
N226 Co177 2.214 . S
N226 C224 1.325 . S
N226 C225 1.261 . S
C227 H197 0.931 . S
C227 C224 1.357 . S
C227 C228 1.312 . S
C228 H199 0.930 . S
C228 C223 1.261 . S
C228 C227 1.312 . S
C229 O201 1.214 1_565 S
C229 O209 1.234 . S
C230 H202 0.929 . S
C230 C233 1.391 . S
C230 C235 1.391 . S
C231 H203 0.929 . S
C231 C232 1.390 . S
C231 N234 1.391 . S
C232 H204 0.930 . S
C232 C231 1.390 . S
C232 C233 1.392 . S
C233 H205 0.929 . S
C233 C230 1.391 . S
C233 C232 1.392 . S
N234 Co178 2.257 . S
N234 C231 1.391 . S
N234 C235 1.388 . S
C235 H206 0.930 . S
C235 C230 1.391 . S
C235 N234 1.388 . S
Co236 O238 2.143 . S
Co236 O244 2.074 . S
Co236 O247 2.093 . S
Co236 O260 2.097 . S
Co236 N277 2.151 . S
Co236 N285 2.214 . S
Co237 O238 2.160 . S
Co237 O243 2.058 . S
Co237 O253 2.057 . S
Co237 O268 2.037 . S
Co237 N272 2.145 . S
Co237 N293 2.257 . S
O238 Co236 2.143 . S
O238 Co237 2.160 . S
C239 O240 1.278 . S
C239 O247 1.224 . S
O240 C239 1.278 . S
C241 O242 1.245 . S
C241 O253 1.232 . S
O242 C241 1.245 . S
O243 Co237 2.058 . S
O243 C269 1.269 . S
O244 Co236 2.074 . S
O244 C269 1.257 . S
H245 C270 0.930 . S
H246 C276 0.930 . S
O247 Co236 2.093 . S
O247 C239 1.224 . S
H248 C280 0.929 . S
H249 C282 0.930 . S
H250 C283 0.930 . S
H251 C281 0.929 . S
H252 C284 0.928 . S
O253 Co237 2.057 . S
O253 C241 1.232 . S
H254 C273 0.929 . S
H255 C274 0.929 . S
H256 C286 0.931 . S
H257 C278 0.929 . S
H258 C287 0.930 . S
H259 C279 0.931 . S
O260 Co236 2.097 . S
O260 C288 1.214 . S
H261 C289 0.929 . S
H262 C290 0.929 . S
H263 C291 0.930 . S
H264 C292 0.929 . S
H265 C294 0.930 . S
H266 C271 0.930 . S
H267 C275 0.930 . S
O268 Co237 2.037 . S
O268 C288 1.234 . S
C269 O243 1.269 . S
C269 O244 1.257 . S
C270 H245 0.930 . S
C270 C273 1.388 . S
C270 C275 1.418 . S
C271 H266 0.930 . S
C271 C274 1.404 . S
C271 C275 1.353 . S
N272 Co237 2.145 . S
N272 C273 1.397 . S
N272 C274 1.334 . S
C273 H254 0.929 . S
C273 C270 1.388 . S
C273 N272 1.397 . S
C274 H255 0.929 . S
C274 C271 1.404 . S
C274 N272 1.334 . S
C275 H267 0.930 . S
C275 C270 1.418 . S
C275 C271 1.353 . S
C276 H246 0.930 . S
C276 N277 1.330 . S
C276 C278 1.446 . S
N277 Co236 2.151 . S
N277 C276 1.330 . S
N277 C281 1.418 . S
C278 H257 0.929 . S
C278 C276 1.446 . S
C278 C279 1.332 . S
C279 H259 0.931 . S
C279 C278 1.332 . S
C279 C280 1.267 . S
C280 H248 0.929 . S
C280 C279 1.267 . S
C280 C281 1.251 . S
C281 H251 0.929 . S
C281 N277 1.418 . S
C281 C280 1.251 . S
C282 H249 0.930 . S
C282 C284 1.406 . S
C282 C287 1.261 . S
C283 H250 0.930 . S
C283 N285 1.325 . S
C283 C286 1.357 . S
C284 H252 0.928 . S
C284 C282 1.406 . S
C284 N285 1.261 . S
N285 Co236 2.214 . S
N285 C283 1.325 . S
N285 C284 1.261 . S
C286 H256 0.931 . S
C286 C283 1.357 . S
C286 C287 1.312 . S
C287 H258 0.930 . S
C287 C282 1.261 . S
C287 C286 1.312 . S
C288 O260 1.214 . S
C288 O268 1.234 . S
C289 H261 0.929 . S
C289 C292 1.391 . S
C289 C294 1.391 . S
C290 H262 0.929 . S
C290 C291 1.390 . S
C290 N293 1.391 . S
C291 H263 0.930 . S
C291 C290 1.390 . S
C291 C292 1.392 . S
C292 H264 0.929 . S
C292 C289 1.391 . S
C292 C291 1.392 . S
N293 Co237 2.257 . S
N293 C290 1.391 . S
N293 C294 1.388 . S
C294 H265 0.930 . S
C294 C289 1.391 . S
C294 N293 1.388 . S
Co295 O297 2.143 1_654 S
Co295 O303 2.074 . S
Co295 O306 2.093 . S
Co295 O319 2.097 . S
Co295 N336 2.151 1_554 S
Co295 N344 2.214 . S
Co296 O297 2.160 1_554 S
Co296 O302 2.058 1_454 S
Co296 O312 2.057 1_554 S
Co296 O327 2.037 . S
Co296 N331 2.145 . S
Co296 N352 2.257 . S
O297 Co295 2.143 1_456 S
O297 Co296 2.160 1_556 S
C298 O299 1.278 . S
C298 O306 1.224 1_456 S
O299 C298 1.278 . S
C300 O301 1.245 . S
C300 O312 1.232 . S
O301 C300 1.245 . S
O302 Co296 2.058 1_656 S
O302 C328 1.269 . S
O303 Co295 2.074 . S
O303 C328 1.257 1_554 S
H304 C329 0.930 . S
H305 C335 0.930 . S
O306 Co295 2.093 . S
O306 C298 1.224 1_654 S
H307 C339 0.929 . S
H308 C341 0.930 . S
H309 C342 0.930 . S
H310 C340 0.929 . S
H311 C343 0.928 . S
O312 Co296 2.057 1_556 S
O312 C300 1.232 . S
H313 C332 0.929 . S
H314 C333 0.929 1_556 S
H315 C345 0.931 . S
H316 C337 0.929 . S
H317 C346 0.930 . S
H318 C338 0.931 . S
O319 Co295 2.097 . S
O319 C347 1.214 1_655 S
H320 C348 0.929 1_556 S
H321 C349 0.929 . S
H322 C350 0.930 . S
H323 C351 0.929 . S
H324 C353 0.930 . S
H325 C330 0.930 1_556 S
H326 C334 0.930 . S
O327 Co296 2.037 . S
O327 C347 1.234 . S
C328 O302 1.269 . S
C328 O303 1.257 1_556 S
C329 H304 0.930 . S
C329 C332 1.388 . S
C329 C334 1.418 . S
C330 H325 0.930 1_554 S
C330 C333 1.404 . S
C330 C334 1.353 . S
N331 Co296 2.145 . S
N331 C332 1.397 . S
N331 C333 1.334 . S
C332 H313 0.929 . S
C332 C329 1.388 . S
C332 N331 1.397 . S
C333 H314 0.929 1_554 S
C333 C330 1.404 . S
C333 N331 1.334 . S
C334 H326 0.930 . S
C334 C329 1.418 . S
C334 C330 1.353 . S
C335 H305 0.930 . S
C335 N336 1.330 . S
C335 C337 1.446 . S
N336 Co295 2.151 1_556 S
N336 C335 1.330 . S
N336 C340 1.418 . S
C337 H316 0.929 . S
C337 C335 1.446 . S
C337 C338 1.332 . S
C338 H318 0.931 . S
C338 C337 1.332 . S
C338 C339 1.267 . S
C339 H307 0.929 . S
C339 C338 1.267 . S
C339 C340 1.251 . S
C340 H310 0.929 . S
C340 N336 1.418 . S
C340 C339 1.251 . S
C341 H308 0.930 . S
C341 C343 1.406 . S
C341 C346 1.261 . S
C342 H309 0.930 . S
C342 N344 1.325 . S
C342 C345 1.357 . S
C343 H311 0.928 . S
C343 C341 1.406 . S
C343 N344 1.261 . S
N344 Co295 2.214 . S
N344 C342 1.325 . S
N344 C343 1.261 . S
C345 H315 0.931 . S
C345 C342 1.357 . S
C345 C346 1.312 . S
C346 H317 0.930 . S
C346 C341 1.261 . S
C346 C345 1.312 . S
C347 O319 1.214 1_455 S
C347 O327 1.234 . S
C348 H320 0.929 1_554 S
C348 C351 1.391 . S
C348 C353 1.391 1_554 S
C349 H321 0.929 . S
C349 C350 1.390 . S
C349 N352 1.391 . S
C350 H322 0.930 . S
C350 C349 1.390 . S
C350 C351 1.392 . S
C351 H323 0.929 . S
C351 C348 1.391 . S
C351 C350 1.392 . S
N352 Co296 2.257 . S
N352 C349 1.391 . S
N352 C353 1.388 1_554 S
C353 H324 0.930 . S
C353 C348 1.391 1_556 S
C353 N352 1.388 1_556 S
Co354 O356 2.143 1_455 S
Co354 O362 2.074 . S
Co354 O365 2.093 . S
Co354 O378 2.097 . S
Co354 N395 2.151 . S
Co354 N403 2.214 . S
Co355 O356 2.160 . S
Co355 O361 2.058 1_655 S
Co355 O371 2.057 . S
Co355 O386 2.037 . S
Co355 N390 2.145 . S
Co355 N411 2.257 . S
O356 Co354 2.143 1_655 S
O356 Co355 2.160 . S
C357 O358 1.278 . S
C357 O365 1.224 1_655 S
O358 C357 1.278 . S
C359 O360 1.245 . S
C359 O371 1.232 . S
O360 C359 1.245 . S
O361 Co355 2.058 1_455 S
O361 C387 1.269 . S
O362 Co354 2.074 . S
O362 C387 1.257 . S
H363 C388 0.930 . S
H364 C394 0.930 . S
O365 Co354 2.093 . S
O365 C357 1.224 1_455 S
H366 C398 0.929 . S
H367 C400 0.930 . S
H368 C401 0.930 . S
H369 C399 0.929 . S
H370 C402 0.928 . S
O371 Co355 2.057 . S
O371 C359 1.232 . S
H372 C391 0.929 . S
H373 C392 0.929 . S
H374 C404 0.931 . S
H375 C396 0.929 . S
H376 C405 0.930 . S
H377 C397 0.931 . S
O378 Co354 2.097 . S
O378 C406 1.214 1_455 S
H379 C407 0.929 . S
H380 C408 0.929 . S
H381 C409 0.930 . S
H382 C410 0.929 . S
H383 C412 0.930 . S
H384 C389 0.930 . S
H385 C393 0.930 . S
O386 Co355 2.037 . S
O386 C406 1.234 . S
C387 O361 1.269 . S
C387 O362 1.257 . S
C388 H363 0.930 . S
C388 C391 1.388 . S
C388 C393 1.418 . S
C389 H384 0.930 . S
C389 C392 1.404 . S
C389 C393 1.353 . S
N390 Co355 2.145 . S
N390 C391 1.397 . S
N390 C392 1.334 . S
C391 H372 0.929 . S
C391 C388 1.388 . S
C391 N390 1.397 . S
C392 H373 0.929 . S
C392 C389 1.404 . S
C392 N390 1.334 . S
C393 H385 0.930 . S
C393 C388 1.418 . S
C393 C389 1.353 . S
C394 H364 0.930 . S
C394 N395 1.330 . S
C394 C396 1.446 . S
N395 Co354 2.151 . S
N395 C394 1.330 . S
N395 C399 1.418 . S
C396 H375 0.929 . S
C396 C394 1.446 . S
C396 C397 1.332 . S
C397 H377 0.931 . S
C397 C396 1.332 . S
C397 C398 1.267 . S
C398 H366 0.929 . S
C398 C397 1.267 . S
C398 C399 1.251 . S
C399 H369 0.929 . S
C399 N395 1.418 . S
C399 C398 1.251 . S
C400 H367 0.930 . S
C400 C402 1.406 . S
C400 C405 1.261 . S
C401 H368 0.930 . S
C401 N403 1.325 . S
C401 C404 1.357 . S
C402 H370 0.928 . S
C402 C400 1.406 . S
C402 N403 1.261 . S
N403 Co354 2.214 . S
N403 C401 1.325 . S
N403 C402 1.261 . S
C404 H374 0.931 . S
C404 C401 1.357 . S
C404 C405 1.312 . S
C405 H376 0.930 . S
C405 C400 1.261 . S
C405 C404 1.312 . S
C406 O378 1.214 1_655 S
C406 O386 1.234 . S
C407 H379 0.929 . S
C407 C410 1.391 . S
C407 C412 1.391 . S
C408 H380 0.929 . S
C408 C409 1.390 . S
C408 N411 1.391 . S
C409 H381 0.930 . S
C409 C408 1.390 . S
C409 C410 1.392 . S
C410 H382 0.929 . S
C410 C407 1.391 . S
C410 C409 1.392 . S
N411 Co355 2.257 . S
N411 C408 1.391 . S
N411 C412 1.388 . S
C412 H383 0.930 . S
C412 C407 1.391 . S
C412 N411 1.388 . S
Co413 O415 2.143 1_545 S
Co413 O421 2.074 . S
Co413 O424 2.093 . S
Co413 O437 2.097 . S
Co413 N454 2.151 . S
Co413 N462 2.214 . S
Co414 O415 2.160 . S
Co414 O420 2.058 1_565 S
Co414 O430 2.057 . S
Co414 O445 2.037 . S
Co414 N449 2.145 . S
Co414 N470 2.257 . S
O415 Co413 2.143 1_565 S
O415 Co414 2.160 . S
C416 O417 1.278 . S
C416 O424 1.224 1_565 S
O417 C416 1.278 . S
C418 O419 1.245 . S
C418 O430 1.232 . S
O419 C418 1.245 . S
O420 Co414 2.058 1_545 S
O420 C446 1.269 . S
O421 Co413 2.074 . S
O421 C446 1.257 . S
H422 C447 0.930 . S
H423 C453 0.930 . S
O424 Co413 2.093 . S
O424 C416 1.224 1_545 S
H425 C457 0.929 . S
H426 C459 0.930 . S
H427 C460 0.930 . S
H428 C458 0.929 . S
H429 C461 0.928 . S
O430 Co414 2.057 . S
O430 C418 1.232 . S
H431 C450 0.929 . S
H432 C451 0.929 . S
H433 C463 0.931 . S
H434 C455 0.929 . S
H435 C464 0.930 . S
H436 C456 0.931 . S
O437 Co413 2.097 . S
O437 C465 1.214 1_545 S
H438 C466 0.929 . S
H439 C467 0.929 . S
H440 C468 0.930 . S
H441 C469 0.929 . S
H442 C471 0.930 . S
H443 C448 0.930 . S
H444 C452 0.930 . S
O445 Co414 2.037 . S
O445 C465 1.234 . S
C446 O420 1.269 . S
C446 O421 1.257 . S
C447 H422 0.930 . S
C447 C450 1.388 . S
C447 C452 1.418 . S
C448 H443 0.930 . S
C448 C451 1.404 . S
C448 C452 1.353 . S
N449 Co414 2.145 . S
N449 C450 1.397 . S
N449 C451 1.334 . S
C450 H431 0.929 . S
C450 C447 1.388 . S
C450 N449 1.397 . S
C451 H432 0.929 . S
C451 C448 1.404 . S
C451 N449 1.334 . S
C452 H444 0.930 . S
C452 C447 1.418 . S
C452 C448 1.353 . S
C453 H423 0.930 . S
C453 N454 1.330 . S
C453 C455 1.446 . S
N454 Co413 2.151 . S
N454 C453 1.330 . S
N454 C458 1.418 . S
C455 H434 0.929 . S
C455 C453 1.446 . S
C455 C456 1.332 . S
C456 H436 0.931 . S
C456 C455 1.332 . S
C456 C457 1.267 . S
C457 H425 0.929 . S
C457 C456 1.267 . S
C457 C458 1.251 . S
C458 H428 0.929 . S
C458 N454 1.418 . S
C458 C457 1.251 . S
C459 H426 0.930 . S
C459 C461 1.406 . S
C459 C464 1.261 . S
C460 H427 0.930 . S
C460 N462 1.325 . S
C460 C463 1.357 . S
C461 H429 0.928 . S
C461 C459 1.406 . S
C461 N462 1.261 . S
N462 Co413 2.214 . S
N462 C460 1.325 . S
N462 C461 1.261 . S
C463 H433 0.931 . S
C463 C460 1.357 . S
C463 C464 1.312 . S
C464 H435 0.930 . S
C464 C459 1.261 . S
C464 C463 1.312 . S
C465 O437 1.214 1_565 S
C465 O445 1.234 . S
C466 H438 0.929 . S
C466 C469 1.391 . S
C466 C471 1.391 . S
C467 H439 0.929 . S
C467 C468 1.390 . S
C467 N470 1.391 . S
C468 H440 0.930 . S
C468 C467 1.390 . S
C468 C469 1.392 . S
C469 H441 0.929 . S
C469 C466 1.391 . S
C469 C468 1.392 . S
N470 Co414 2.257 . S
N470 C467 1.391 . S
N470 C471 1.388 . S
C471 H442 0.930 . S
C471 C466 1.391 . S
C471 N470 1.388 . S
Co472 O474 2.133 1_556 S
Co472 O480 2.074 . S
Co472 O483 2.092 1_556 S
Co472 O496 2.117 . S
Co472 N513 2.132 1_556 S
Co472 N521 2.224 . S
Co473 O474 2.160 . S
Co473 O479 2.058 . S
Co473 O489 2.057 . S
Co473 O504 2.037 1_554 S
Co473 N508 2.145 1_554 S
Co473 N529 2.257 1_554 S
O474 Co472 2.133 1_554 S
O474 Co473 2.160 . S
C475 O476 1.278 . S
C475 O483 1.224 . S
O476 C475 1.278 . S
C477 O478 1.245 . S
C477 O489 1.232 . S
O478 C477 1.245 . S
O479 Co473 2.058 . S
O479 C505 1.269 . S
O480 Co472 2.074 . S
O480 C505 1.257 1_556 S
H481 C506 0.930 . S
H482 C512 0.930 . S
O483 Co472 2.092 1_554 S
O483 C475 1.224 . S
H484 C516 0.929 . S
H485 C518 0.930 . S
H486 C519 0.930 . S
H487 C517 0.929 . S
H488 C520 0.928 . S
O489 Co473 2.057 . S
O489 C477 1.232 . S
H490 C509 0.929 . S
H491 C510 0.929 . S
H492 C522 0.931 . S
H493 C514 0.929 . S
H494 C523 0.930 . S
H495 C515 0.931 . S
O496 Co472 2.117 . S
O496 C524 1.214 . S
H497 C525 0.916 1_554 S
H498 C526 0.929 . S
H499 C527 0.930 . S
H500 C528 0.929 . S
H501 C530 0.930 . S
H502 C507 0.930 1_554 S
H503 C511 0.930 . S
O504 Co473 2.037 1_556 S
O504 C524 1.234 . S
C505 O479 1.269 . S
C505 O480 1.257 1_554 S
C506 H481 0.930 . S
C506 C509 1.388 . S
C506 C511 1.418 . S
C507 H502 0.930 1_556 S
C507 C510 1.404 1_556 S
C507 C511 1.353 . S
N508 Co473 2.145 1_556 S
N508 C509 1.397 . S
N508 C510 1.334 1_556 S
C509 H490 0.929 . S
C509 C506 1.388 . S
C509 N508 1.397 . S
C510 H491 0.929 . S
C510 C507 1.404 1_554 S
C510 N508 1.334 1_554 S
C511 H503 0.930 . S
C511 C506 1.418 . S
C511 C507 1.353 . S
C512 H482 0.930 . S
C512 N513 1.330 . S
C512 C514 1.446 . S
N513 Co472 2.132 1_554 S
N513 C512 1.330 . S
N513 C517 1.418 . S
C514 H493 0.929 . S
C514 C512 1.446 . S
C514 C515 1.332 . S
C515 H495 0.931 . S
C515 C514 1.332 . S
C515 C516 1.267 . S
C516 H484 0.929 . S
C516 C515 1.267 . S
C516 C517 1.251 . S
C517 H487 0.929 . S
C517 N513 1.418 . S
C517 C516 1.251 . S
C518 H485 0.930 . S
C518 C520 1.406 . S
C518 C523 1.261 . S
C519 H486 0.930 . S
C519 N521 1.325 . S
C519 C522 1.357 . S
C520 H488 0.928 . S
C520 C518 1.406 . S
C520 N521 1.261 . S
N521 Co472 2.224 . S
N521 C519 1.325 . S
N521 C520 1.261 . S
C522 H492 0.931 . S
C522 C519 1.357 . S
C522 C523 1.312 . S
C523 H494 0.930 . S
C523 C518 1.261 . S
C523 C522 1.312 . S
C524 O496 1.214 . S
C524 O504 1.234 . S
C525 H497 0.916 1_556 S
C525 C528 1.411 . S
C525 C530 1.385 1_556 S
C526 H498 0.929 . S
C526 C527 1.390 . S
C526 N529 1.391 . S
C527 H499 0.930 . S
C527 C526 1.390 . S
C527 C528 1.392 . S
C528 H500 0.929 . S
C528 C525 1.411 . S
C528 C527 1.392 . S
N529 Co473 2.257 1_556 S
N529 C526 1.391 . S
N529 C530 1.388 1_556 S
C530 H501 0.930 . S
C530 C525 1.385 1_554 S
C530 N529 1.388 1_554 S
Co531 O533 2.143 1_655 S
Co531 O539 2.074 . S
Co531 O542 2.093 . S
Co531 O555 2.097 . S
Co531 N572 2.151 . S
Co531 N580 2.214 . S
Co532 O533 2.160 . S
Co532 O538 2.058 1_455 S
Co532 O548 2.057 . S
Co532 O563 2.037 . S
Co532 N567 2.145 . S
Co532 N588 2.257 . S
O533 Co531 2.143 1_455 S
O533 Co532 2.160 . S
C534 O535 1.278 . S
C534 O542 1.224 1_455 S
O535 C534 1.278 . S
C536 O537 1.245 . S
C536 O548 1.232 . S
O537 C536 1.245 . S
O538 Co532 2.058 1_655 S
O538 C564 1.269 . S
O539 Co531 2.074 . S
O539 C564 1.257 . S
H540 C565 0.930 . S
H541 C571 0.930 . S
O542 Co531 2.093 . S
O542 C534 1.224 1_655 S
H543 C575 0.929 . S
H544 C577 0.930 . S
H545 C578 0.930 . S
H546 C576 0.929 . S
H547 C579 0.928 . S
O548 Co532 2.057 . S
O548 C536 1.232 . S
H549 C568 0.929 . S
H550 C569 0.929 . S
H551 C581 0.931 . S
H552 C573 0.929 . S
H553 C582 0.930 . S
H554 C574 0.931 . S
O555 Co531 2.097 . S
O555 C583 1.214 1_655 S
H556 C584 0.929 . S
H557 C585 0.929 . S
H558 C586 0.930 . S
H559 C587 0.929 . S
H560 C589 0.930 . S
H561 C566 0.930 . S
H562 C570 0.930 . S
O563 Co532 2.037 . S
O563 C583 1.234 . S
C564 O538 1.269 . S
C564 O539 1.257 . S
C565 H540 0.930 . S
C565 C568 1.388 . S
C565 C570 1.418 . S
C566 H561 0.930 . S
C566 C569 1.404 . S
C566 C570 1.353 . S
N567 Co532 2.145 . S
N567 C568 1.397 . S
N567 C569 1.334 . S
C568 H549 0.929 . S
C568 C565 1.388 . S
C568 N567 1.397 . S
C569 H550 0.929 . S
C569 C566 1.404 . S
C569 N567 1.334 . S
C570 H562 0.930 . S
C570 C565 1.418 . S
C570 C566 1.353 . S
C571 H541 0.930 . S
C571 N572 1.330 . S
C571 C573 1.446 . S
N572 Co531 2.151 . S
N572 C571 1.330 . S
N572 C576 1.418 . S
C573 H552 0.929 . S
C573 C571 1.446 . S
C573 C574 1.332 . S
C574 H554 0.931 . S
C574 C573 1.332 . S
C574 C575 1.267 . S
C575 H543 0.929 . S
C575 C574 1.267 . S
C575 C576 1.251 . S
C576 H546 0.929 . S
C576 N572 1.418 . S
C576 C575 1.251 . S
C577 H544 0.930 . S
C577 C579 1.406 . S
C577 C582 1.261 . S
C578 H545 0.930 . S
C578 N580 1.325 . S
C578 C581 1.357 . S
C579 H547 0.928 . S
C579 C577 1.406 . S
C579 N580 1.261 . S
N580 Co531 2.214 . S
N580 C578 1.325 . S
N580 C579 1.261 . S
C581 H551 0.931 . S
C581 C578 1.357 . S
C581 C582 1.312 . S
C582 H553 0.930 . S
C582 C577 1.261 . S
C582 C581 1.312 . S
C583 O555 1.214 1_455 S
C583 O563 1.234 . S
C584 H556 0.929 . S
C584 C587 1.391 . S
C584 C589 1.391 . S
C585 H557 0.929 . S
C585 C586 1.390 . S
C585 N588 1.391 . S
C586 H558 0.930 . S
C586 C585 1.390 . S
C586 C587 1.392 . S
C587 H559 0.929 . S
C587 C584 1.391 . S
C587 C586 1.392 . S
N588 Co532 2.257 . S
N588 C585 1.391 . S
N588 C589 1.388 . S
C589 H560 0.930 . S
C589 C584 1.391 . S
C589 N588 1.388 . S
Co590 O592 2.143 1_565 S
Co590 O598 2.074 . S
Co590 O601 2.093 . S
Co590 O614 2.097 . S
Co590 N631 2.151 . S
Co590 N639 2.214 . S
Co591 O592 2.160 . S
Co591 O597 2.058 1_545 S
Co591 O607 2.057 . S
Co591 O622 2.037 . S
Co591 N626 2.145 . S
Co591 N647 2.257 . S
O592 Co590 2.143 1_545 S
O592 Co591 2.160 . S
C593 O594 1.278 . S
C593 O601 1.224 1_545 S
O594 C593 1.278 . S
C595 O596 1.245 . S
C595 O607 1.232 . S
O596 C595 1.245 . S
O597 Co591 2.058 1_565 S
O597 C623 1.269 . S
O598 Co590 2.074 . S
O598 C623 1.257 . S
H599 C624 0.930 . S
H600 C630 0.930 . S
O601 Co590 2.093 . S
O601 C593 1.224 1_565 S
H602 C634 0.929 . S
H603 C636 0.930 . S
H604 C637 0.930 . S
H605 C635 0.929 . S
H606 C638 0.928 . S
O607 Co591 2.057 . S
O607 C595 1.232 . S
H608 C627 0.929 . S
H609 C628 0.929 . S
H610 C640 0.931 . S
H611 C632 0.929 . S
H612 C641 0.930 . S
H613 C633 0.931 . S
O614 Co590 2.097 . S
O614 C642 1.214 1_565 S
H615 C643 0.929 . S
H616 C644 0.929 . S
H617 C645 0.930 . S
H618 C646 0.929 . S
H619 C648 0.930 . S
H620 C625 0.930 . S
H621 C629 0.930 . S
O622 Co591 2.037 . S
O622 C642 1.234 . S
C623 O597 1.269 . S
C623 O598 1.257 . S
C624 H599 0.930 . S
C624 C627 1.388 . S
C624 C629 1.418 . S
C625 H620 0.930 . S
C625 C628 1.404 . S
C625 C629 1.353 . S
N626 Co591 2.145 . S
N626 C627 1.397 . S
N626 C628 1.334 . S
C627 H608 0.929 . S
C627 C624 1.388 . S
C627 N626 1.397 . S
C628 H609 0.929 . S
C628 C625 1.404 . S
C628 N626 1.334 . S
C629 H621 0.930 . S
C629 C624 1.418 . S
C629 C625 1.353 . S
C630 H600 0.930 . S
C630 N631 1.330 . S
C630 C632 1.446 . S
N631 Co590 2.151 . S
N631 C630 1.330 . S
N631 C635 1.418 . S
C632 H611 0.929 . S
C632 C630 1.446 . S
C632 C633 1.332 . S
C633 H613 0.931 . S
C633 C632 1.332 . S
C633 C634 1.267 . S
C634 H602 0.929 . S
C634 C633 1.267 . S
C634 C635 1.251 . S
C635 H605 0.929 . S
C635 N631 1.418 . S
C635 C634 1.251 . S
C636 H603 0.930 . S
C636 C638 1.406 . S
C636 C641 1.261 . S
C637 H604 0.930 . S
C637 N639 1.325 . S
C637 C640 1.357 . S
C638 H606 0.928 . S
C638 C636 1.406 . S
C638 N639 1.261 . S
N639 Co590 2.214 . S
N639 C637 1.325 . S
N639 C638 1.261 . S
C640 H610 0.931 . S
C640 C637 1.357 . S
C640 C641 1.312 . S
C641 H612 0.930 . S
C641 C636 1.261 . S
C641 C640 1.312 . S
C642 O614 1.214 1_545 S
C642 O622 1.234 . S
C643 H615 0.929 . S
C643 C646 1.391 . S
C643 C648 1.391 . S
C644 H616 0.929 . S
C644 C645 1.390 . S
C644 N647 1.391 . S
C645 H617 0.930 . S
C645 C644 1.390 . S
C645 C646 1.392 . S
C646 H618 0.929 . S
C646 C643 1.391 . S
C646 C645 1.392 . S
N647 Co591 2.257 . S
N647 C644 1.391 . S
N647 C648 1.388 . S
C648 H619 0.930 . S
C648 C643 1.391 . S
C648 N647 1.388 . S
Co649 O651 2.133 1_556 S
Co649 O657 2.074 . S
Co649 O660 2.092 1_556 S
Co649 O673 2.117 . S
Co649 N690 2.132 1_556 S
Co649 N698 2.224 . S
Co650 O651 2.160 . S
Co650 O656 2.058 . S
Co650 O666 2.057 . S
Co650 O681 2.037 1_554 S
Co650 N685 2.145 1_554 S
Co650 N706 2.257 1_554 S
O651 Co649 2.133 1_554 S
O651 Co650 2.160 . S
C652 O653 1.278 . S
C652 O660 1.224 . S
O653 C652 1.278 . S
C654 O655 1.245 . S
C654 O666 1.232 . S
O655 C654 1.245 . S
O656 Co650 2.058 . S
O656 C682 1.269 . S
O657 Co649 2.074 . S
O657 C682 1.257 1_556 S
H658 C683 0.930 . S
H659 C689 0.930 . S
O660 Co649 2.092 1_554 S
O660 C652 1.224 . S
H661 C693 0.929 . S
H662 C695 0.930 . S
H663 C696 0.930 . S
H664 C694 0.929 . S
H665 C697 0.928 . S
O666 Co650 2.057 . S
O666 C654 1.232 . S
H667 C686 0.929 . S
H668 C687 0.929 . S
H669 C699 0.931 . S
H670 C691 0.929 . S
H671 C700 0.930 . S
H672 C692 0.931 . S
O673 Co649 2.117 . S
O673 C701 1.214 . S
H674 C702 0.916 1_554 S
H675 C703 0.929 . S
H676 C704 0.930 . S
H677 C705 0.929 . S
H678 C707 0.930 . S
H679 C684 0.930 1_554 S
H680 C688 0.930 . S
O681 Co650 2.037 1_556 S
O681 C701 1.234 . S
C682 O656 1.269 . S
C682 O657 1.257 1_554 S
C683 H658 0.930 . S
C683 C686 1.388 . S
C683 C688 1.418 . S
C684 H679 0.930 1_556 S
C684 C687 1.404 1_556 S
C684 C688 1.353 . S
N685 Co650 2.145 1_556 S
N685 C686 1.397 . S
N685 C687 1.334 1_556 S
C686 H667 0.929 . S
C686 C683 1.388 . S
C686 N685 1.397 . S
C687 H668 0.929 . S
C687 C684 1.404 1_554 S
C687 N685 1.334 1_554 S
C688 H680 0.930 . S
C688 C683 1.418 . S
C688 C684 1.353 . S
C689 H659 0.930 . S
C689 N690 1.330 . S
C689 C691 1.446 . S
N690 Co649 2.132 1_554 S
N690 C689 1.330 . S
N690 C694 1.418 . S
C691 H670 0.929 . S
C691 C689 1.446 . S
C691 C692 1.332 . S
C692 H672 0.931 . S
C692 C691 1.332 . S
C692 C693 1.267 . S
C693 H661 0.929 . S
C693 C692 1.267 . S
C693 C694 1.251 . S
C694 H664 0.929 . S
C694 N690 1.418 . S
C694 C693 1.251 . S
C695 H662 0.930 . S
C695 C697 1.406 . S
C695 C700 1.261 . S
C696 H663 0.930 . S
C696 N698 1.325 . S
C696 C699 1.357 . S
C697 H665 0.928 . S
C697 C695 1.406 . S
C697 N698 1.261 . S
N698 Co649 2.224 . S
N698 C696 1.325 . S
N698 C697 1.261 . S
C699 H669 0.931 . S
C699 C696 1.357 . S
C699 C700 1.312 . S
C700 H671 0.930 . S
C700 C695 1.261 . S
C700 C699 1.312 . S
C701 O673 1.214 . S
C701 O681 1.234 . S
C702 H674 0.916 1_556 S
C702 C705 1.411 . S
C702 C707 1.385 1_556 S
C703 H675 0.929 . S
C703 C704 1.390 . S
C703 N706 1.391 . S
C704 H676 0.930 . S
C704 C703 1.390 . S
C704 C705 1.392 . S
C705 H677 0.929 . S
C705 C702 1.411 . S
C705 C704 1.392 . S
N706 Co650 2.257 1_556 S
N706 C703 1.391 . S
N706 C707 1.388 1_556 S
C707 H678 0.930 . S
C707 C702 1.385 1_554 S
C707 N706 1.388 1_554 S
C708 C709 1.363 . S
C708 C714 1.379 . S
C708 N716 1.356 . S
C709 C708 1.363 . S
C709 C715 1.363 . S
C710 C711 1.363 . S
C710 C715 1.379 . S
C710 N717 1.356 . S
C711 C710 1.363 . S
C711 C714 1.363 . S
N712 C714 1.356 . S
N712 H724 0.984 . S
N712 H725 0.985 . S
N713 C715 1.356 . S
N713 H718 0.984 . S
N713 H719 0.985 . S
C714 C708 1.379 . S
C714 C711 1.363 . S
C714 N712 1.356 . S
C715 C709 1.363 . S
C715 C710 1.379 . S
C715 N713 1.356 . S
N716 C708 1.356 . S
N716 H722 0.984 . S
N716 H723 0.984 . S
N717 C710 1.356 . S
N717 H720 0.984 . S
N717 H721 0.985 . S
H718 N713 0.984 . S
H719 N713 0.985 . S
H720 N717 0.984 . S
H721 N717 0.985 . S
H722 N716 0.984 . S
H723 N716 0.984 . S
H724 N712 0.984 . S
H725 N712 0.985 . S
C726 C727 1.363 . S
C726 C732 1.379 . S
C726 N734 1.356 . S
C727 C726 1.363 . S
C727 C733 1.363 . S
C728 C729 1.363 . S
C728 C733 1.379 . S
C728 N735 1.356 . S
C729 C728 1.363 . S
C729 C732 1.363 . S
N730 C732 1.356 . S
N730 H742 0.984 . S
N730 H743 0.985 . S
N731 C733 1.356 . S
N731 H736 0.984 . S
N731 H737 0.985 . S
C732 C726 1.379 . S
C732 C729 1.363 . S
C732 N730 1.356 . S
C733 C727 1.363 . S
C733 C728 1.379 . S
C733 N731 1.356 . S
N734 C726 1.356 . S
N734 H740 0.984 . S
N734 H741 0.984 . S
N735 C728 1.356 . S
N735 H738 0.984 . S
N735 H739 0.985 . S
H736 N731 0.984 . S
H737 N731 0.985 . S
H738 N735 0.984 . S
H739 N735 0.985 . S
H740 N734 0.984 . S
H741 N734 0.984 . S
H742 N730 0.984 . S
H743 N730 0.985 . S
C744 C745 1.363 . S
C744 C750 1.379 . S
C744 N752 1.356 . S
C745 C744 1.363 . S
C745 C751 1.363 . S
C746 C747 1.363 . S
C746 C751 1.379 . S
C746 N753 1.356 . S
C747 C746 1.363 . S
C747 C750 1.363 . S
N748 C750 1.356 . S
N748 H760 0.984 . S
N748 H761 0.985 . S
N749 C751 1.356 . S
N749 H754 0.984 . S
N749 H755 0.985 . S
C750 C744 1.379 . S
C750 C747 1.363 . S
C750 N748 1.356 . S
C751 C745 1.363 . S
C751 C746 1.379 . S
C751 N749 1.356 . S
N752 C744 1.356 . S
N752 H758 0.984 . S
N752 H759 0.984 . S
N753 C746 1.356 . S
N753 H756 0.984 . S
N753 H757 0.985 . S
H754 N749 0.984 . S
H755 N749 0.985 . S
H756 N753 0.984 . S
H757 N753 0.985 . S
H758 N752 0.984 . S
H759 N752 0.984 . S
H760 N748 0.984 . S
H761 N748 0.985 . S
C762 C763 1.363 . S
C762 C768 1.379 . S
C762 N770 1.356 . S
C763 C762 1.363 . S
C763 C769 1.363 . S
C764 C765 1.363 . S
C764 C769 1.379 . S
C764 N771 1.356 . S
C765 C764 1.363 . S
C765 C768 1.363 . S
N766 C768 1.356 . S
N766 H778 0.984 . S
N766 H779 0.985 . S
N767 C769 1.356 . S
N767 H772 0.984 . S
N767 H773 0.985 . S
C768 C762 1.379 . S
C768 C765 1.363 . S
C768 N766 1.356 . S
C769 C763 1.363 . S
C769 C764 1.379 . S
C769 N767 1.356 . S
N770 C762 1.356 . S
N770 H776 0.984 . S
N770 H777 0.984 . S
N771 C764 1.356 . S
N771 H774 0.984 . S
N771 H775 0.985 . S
H772 N767 0.984 . S
H773 N767 0.985 . S
H774 N771 0.984 . S
H775 N771 0.985 . S
H776 N770 0.984 . S
H777 N770 0.984 . S
H778 N766 0.984 . S
H779 N766 0.985 . S
C780 C781 1.363 . S
C780 C786 1.379 . S
C780 N788 1.356 . S
C781 C780 1.363 . S
C781 C787 1.363 . S
C782 C783 1.363 . S
C782 C787 1.379 . S
C782 N789 1.356 . S
C783 C782 1.363 . S
C783 C786 1.363 . S
N784 C786 1.356 . S
N784 H796 0.984 . S
N784 H797 0.985 . S
N785 C787 1.356 . S
N785 H790 0.984 . S
N785 H791 0.985 . S
C786 C780 1.379 . S
C786 C783 1.363 . S
C786 N784 1.356 . S
C787 C781 1.363 . S
C787 C782 1.379 . S
C787 N785 1.356 . S
N788 C780 1.356 . S
N788 H794 0.984 . S
N788 H795 0.984 . S
N789 C782 1.356 . S
N789 H792 0.984 . S
N789 H793 0.985 . S
H790 N785 0.984 . S
H791 N785 0.985 . S
H792 N789 0.984 . S
H793 N789 0.985 . S
H794 N788 0.984 . S
H795 N788 0.984 . S
H796 N784 0.984 . S
H797 N784 0.985 . S
C798 C799 1.363 . S
C798 C804 1.379 . S
C798 N806 1.356 . S
C799 C798 1.363 . S
C799 C805 1.363 . S
C800 C801 1.363 . S
C800 C805 1.379 . S
C800 N807 1.356 . S
C801 C800 1.363 . S
C801 C804 1.363 . S
N802 C804 1.356 . S
N802 H814 0.984 . S
N802 H815 0.985 . S
N803 C805 1.356 . S
N803 H808 0.984 . S
N803 H809 0.985 . S
C804 C798 1.379 . S
C804 C801 1.363 . S
C804 N802 1.356 . S
C805 C799 1.363 . S
C805 C800 1.379 . S
C805 N803 1.356 . S
N806 C798 1.356 . S
N806 H812 0.984 . S
N806 H813 0.984 . S
N807 C800 1.356 . S
N807 H810 0.984 . S
N807 H811 0.985 . S
H808 N803 0.984 . S
H809 N803 0.985 . S
H810 N807 0.984 . S
H811 N807 0.985 . S
H812 N806 0.984 . S
H813 N806 0.984 . S
H814 N802 0.984 . S
H815 N802 0.985 . S
C816 C817 1.363 1_565 S
C816 C822 1.379 . S
C816 N824 1.356 . S
C817 C816 1.363 1_545 S
C817 C823 1.363 . S
C818 C819 1.363 1_545 S
C818 C823 1.379 . S
C818 N825 1.356 . S
C819 C818 1.363 1_565 S
C819 C822 1.363 . S
N820 C822 1.356 . S
N820 H832 0.984 . S
N820 H833 0.985 . S
N821 C823 1.356 . S
N821 H826 0.984 . S
N821 H827 0.985 . S
C822 C816 1.379 . S
C822 C819 1.363 . S
C822 N820 1.356 . S
C823 C817 1.363 . S
C823 C818 1.379 . S
C823 N821 1.356 . S
N824 C816 1.356 . S
N824 H830 0.984 . S
N824 H831 0.984 1_565 S
N825 C818 1.356 . S
N825 H828 0.984 1_545 S
N825 H829 0.985 . S
H826 N821 0.984 . S
H827 N821 0.985 . S
H828 N825 0.984 1_565 S
H829 N825 0.985 . S
H830 N824 0.984 . S
H831 N824 0.984 1_545 S
H832 N820 0.984 . S
H833 N820 0.985 . S
C834 C835 1.363 . S
C834 C840 1.379 . S
C834 N842 1.356 . S
C835 C834 1.363 . S
C835 C841 1.363 . S
C836 C837 1.363 . S
C836 C841 1.379 . S
C836 N843 1.356 . S
C837 C836 1.363 . S
C837 C840 1.363 . S
N838 C840 1.356 . S
N838 H850 0.984 . S
N838 H851 0.985 . S
N839 C841 1.356 . S
N839 H844 0.984 . S
N839 H845 0.985 . S
C840 C834 1.379 . S
C840 C837 1.363 . S
C840 N838 1.356 . S
C841 C835 1.363 . S
C841 C836 1.379 . S
C841 N839 1.356 . S
N842 C834 1.356 . S
N842 H848 0.984 . S
N842 H849 0.984 . S
N843 C836 1.356 . S
N843 H846 0.984 . S
N843 H847 0.985 . S
H844 N839 0.984 . S
H845 N839 0.985 . S
H846 N843 0.984 . S
H847 N843 0.985 . S
H848 N842 0.984 . S
H849 N842 0.984 . S
H850 N838 0.984 . S
H851 N838 0.985 . S
C852 C853 1.363 1_554 S
C852 C858 1.379 . S
C852 N860 1.356 . S
C853 C852 1.363 1_556 S
C853 C859 1.363 1_455 S
C854 C855 1.363 . S
C854 C859 1.379 . S
C854 N861 1.356 . S
C855 C854 1.363 . S
C855 C858 1.363 1_656 S
N856 C858 1.356 . S
N856 H868 0.984 . S
N856 H869 0.985 1_455 S
N857 C859 1.356 . S
N857 H862 0.984 1_655 S
N857 H863 0.985 . S
C858 C852 1.379 . S
C858 C855 1.363 1_454 S
C858 N856 1.356 . S
C859 C853 1.363 1_655 S
C859 C854 1.379 . S
C859 N857 1.356 . S
N860 C852 1.356 . S
N860 H866 0.984 . S
N860 H867 0.984 . S
N861 C854 1.356 . S
N861 H864 0.984 . S
N861 H865 0.985 . S
H862 N857 0.984 1_455 S
H863 N857 0.985 . S
H864 N861 0.984 . S
H865 N861 0.985 . S
H866 N860 0.984 . S
H867 N860 0.984 . S
H868 N856 0.984 . S
H869 N856 0.985 1_655 S
C870 C871 1.363 1_455 S
C870 C876 1.379 . S
C870 N878 1.356 . S
C871 C870 1.363 1_655 S
C871 C877 1.363 . S
C872 C873 1.363 1_655 S
C872 C877 1.379 . S
C872 N879 1.356 . S
C873 C872 1.363 1_455 S
C873 C876 1.363 . S
N874 C876 1.356 . S
N874 H886 0.984 . S
N874 H887 0.985 . S
N875 C877 1.356 . S
N875 H880 0.984 . S
N875 H881 0.985 . S
C876 C870 1.379 . S
C876 C873 1.363 . S
C876 N874 1.356 . S
C877 C871 1.363 . S
C877 C872 1.379 . S
C877 N875 1.356 . S
N878 C870 1.356 . S
N878 H884 0.984 . S
N878 H885 0.984 1_455 S
N879 C872 1.356 . S
N879 H882 0.984 1_655 S
N879 H883 0.985 . S
H880 N875 0.984 . S
H881 N875 0.985 . S
H882 N879 0.984 1_455 S
H883 N879 0.985 . S
H884 N878 0.984 . S
H885 N878 0.984 1_655 S
H886 N874 0.984 . S
H887 N874 0.985 . S
C888 C889 1.363 1_565 S
C888 C894 1.379 . S
C888 N896 1.356 . S
C889 C888 1.363 1_545 S
C889 C895 1.363 . S
C890 C891 1.363 1_545 S
C890 C895 1.379 . S
C890 N897 1.356 . S
C891 C890 1.363 1_565 S
C891 C894 1.363 . S
N892 C894 1.356 . S
N892 H904 0.984 . S
N892 H905 0.985 . S
N893 C895 1.356 . S
N893 H898 0.984 . S
N893 H899 0.985 . S
C894 C888 1.379 . S
C894 C891 1.363 . S
C894 N892 1.356 . S
C895 C889 1.363 . S
C895 C890 1.379 . S
C895 N893 1.356 . S
N896 C888 1.356 . S
N896 H902 0.984 . S
N896 H903 0.984 1_565 S
N897 C890 1.356 . S
N897 H900 0.984 1_545 S
N897 H901 0.985 . S
H898 N893 0.984 . S
H899 N893 0.985 . S
H900 N897 0.984 1_565 S
H901 N897 0.985 . S
H902 N896 0.984 . S
H903 N896 0.984 1_545 S
H904 N892 0.984 . S
H905 N892 0.985 . S
C906 C907 1.363 . S
C906 C912 1.379 . S
C906 N914 1.356 . S
C907 C906 1.363 . S
C907 C913 1.363 1_554 S
C908 C909 1.363 1_556 S
C908 C913 1.379 . S
C908 N915 1.356 . S
C909 C908 1.363 1_554 S
C909 C912 1.363 . S
N910 C912 1.356 . S
N910 H922 0.984 . S
N910 H923 0.985 . S
N911 C913 1.356 . S
N911 H916 0.984 . S
N911 H917 0.985 . S
C912 C906 1.379 . S
C912 C909 1.363 . S
C912 N910 1.356 . S
C913 C907 1.363 1_556 S
C913 C908 1.379 . S
C913 N911 1.356 . S
N914 C906 1.356 . S
N914 H920 0.984 . S
N914 H921 0.984 . S
N915 C908 1.356 . S
N915 H918 0.984 . S
N915 H919 0.985 . S
H916 N911 0.984 . S
H917 N911 0.985 . S
H918 N915 0.984 . S
H919 N915 0.985 . S
H920 N914 0.984 . S
H921 N914 0.984 . S
H922 N910 0.984 . S
H923 N910 0.985 . S
C924 C925 1.363 . S
C924 C930 1.379 . S
C924 N932 1.356 . S
C925 C924 1.363 . S
C925 C931 1.363 . S
C926 C927 1.363 . S
C926 C931 1.379 . S
C926 N933 1.356 . S
C927 C926 1.363 . S
C927 C930 1.363 . S
N928 C930 1.356 . S
N928 H940 0.984 . S
N928 H941 0.985 . S
N929 C931 1.356 . S
N929 H934 0.984 . S
N929 H935 0.985 . S
C930 C924 1.379 . S
C930 C927 1.363 . S
C930 N928 1.356 . S
C931 C925 1.363 . S
C931 C926 1.379 . S
C931 N929 1.356 . S
N932 C924 1.356 . S
N932 H938 0.984 . S
N932 H939 0.984 . S
N933 C926 1.356 . S
N933 H936 0.984 . S
N933 H937 0.985 . S
H934 N929 0.984 . S
H935 N929 0.985 . S
H936 N933 0.984 . S
H937 N933 0.985 . S
H938 N932 0.984 . S
H939 N932 0.984 . S
H940 N928 0.984 . S
H941 N928 0.985 . S
C942 C943 1.363 . S
C942 C948 1.379 . S
C942 N950 1.356 . S
C943 C942 1.363 . S
C943 C949 1.363 . S
C944 C945 1.363 . S
C944 C949 1.379 . S
C944 N951 1.356 . S
C945 C944 1.363 . S
C945 C948 1.363 . S
N946 C948 1.356 . S
N946 H958 0.984 . S
N946 H959 0.985 . S
N947 C949 1.356 . S
N947 H952 0.984 . S
N947 H953 0.985 . S
C948 C942 1.379 . S
C948 C945 1.363 . S
C948 N946 1.356 . S
C949 C943 1.363 . S
C949 C944 1.379 . S
C949 N947 1.356 . S
N950 C942 1.356 . S
N950 H956 0.984 . S
N950 H957 0.984 . S
N951 C944 1.356 . S
N951 H954 0.984 . S
N951 H955 0.985 . S
H952 N947 0.984 . S
H953 N947 0.985 . S
H954 N951 0.984 . S
H955 N951 0.985 . S
H956 N950 0.984 . S
H957 N950 0.984 . S
H958 N946 0.984 . S
H959 N946 0.985 . S
C960 C961 1.363 1_556 S
C960 C966 1.379 . S
C960 N968 1.356 . S
C961 C960 1.363 1_554 S
C961 C967 1.363 . S
C962 C963 1.363 1_554 S
C962 C967 1.379 . S
C962 N969 1.356 . S
C963 C962 1.363 1_556 S
C963 C966 1.363 . S
N964 C966 1.356 . S
N964 H976 0.984 . S
N964 H977 0.985 . S
N965 C967 1.356 . S
N965 H970 0.984 . S
N965 H971 0.985 . S
C966 C960 1.379 . S
C966 C963 1.363 . S
C966 N964 1.356 . S
C967 C961 1.363 . S
C967 C962 1.379 . S
C967 N965 1.356 . S
N968 C960 1.356 . S
N968 H974 0.984 . S
N968 H975 0.984 . S
N969 C962 1.356 . S
N969 H972 0.984 . S
N969 H973 0.985 . S
H970 N965 0.984 . S
H971 N965 0.985 . S
H972 N969 0.984 . S
H973 N969 0.985 . S
H974 N968 0.984 . S
H975 N968 0.984 . S
H976 N964 0.984 . S
H977 N964 0.985 . S
C978 C979 1.363 . S
C978 C984 1.379 . S
C978 N986 1.356 . S
C979 C978 1.363 . S
C979 C985 1.363 . S
C980 C981 1.363 . S
C980 C985 1.379 . S
C980 N987 1.356 . S
C981 C980 1.363 . S
C981 C984 1.363 . S
N982 C984 1.356 . S
N982 H994 0.984 . S
N982 H995 0.985 . S
N983 C985 1.356 . S
N983 H988 0.984 . S
N983 H989 0.985 . S
C984 C978 1.379 . S
C984 C981 1.363 . S
C984 N982 1.356 . S
C985 C979 1.363 . S
C985 C980 1.379 . S
C985 N983 1.356 . S
N986 C978 1.356 . S
N986 H992 0.984 . S
N986 H993 0.984 . S
N987 C980 1.356 . S
N987 H990 0.984 . S
N987 H991 0.985 . S
H988 N983 0.984 . S
H989 N983 0.985 . S
H990 N987 0.984 . S
H991 N987 0.985 . S
H992 N986 0.984 . S
H993 N986 0.984 . S
H994 N982 0.984 . S
H995 N982 0.985 . S
C996 C997 1.363 . S
C996 C1002 1.379 . S
C996 N1004 1.356 . S
C997 C996 1.363 . S
C997 C1003 1.363 . S
C998 C999 1.363 . S
C998 C1003 1.379 . S
C998 N1005 1.356 . S
C999 C998 1.363 . S
C999 C1002 1.363 . S
N1000 C1002 1.356 . S
N1000 H1012 0.984 . S
N1000 H1013 0.985 . S
N1001 C1003 1.356 . S
N1001 H1006 0.984 . S
N1001 H1007 0.985 . S
C1002 C996 1.379 . S
C1002 C999 1.363 . S
C1002 N1000 1.356 . S
C1003 C997 1.363 . S
C1003 C998 1.379 . S
C1003 N1001 1.356 . S
N1004 C996 1.356 . S
N1004 H1010 0.984 . S
N1004 H1011 0.984 . S
N1005 C998 1.356 . S
N1005 H1008 0.984 . S
N1005 H1009 0.985 . S
H1006 N1001 0.984 . S
H1007 N1001 0.985 . S
H1008 N1005 0.984 . S
H1009 N1005 0.985 . S
H1010 N1004 0.984 . S
H1011 N1004 0.984 . S
H1012 N1000 0.984 . S
H1013 N1000 0.985 . S
C1014 C1015 1.363 1_556 S
C1014 C1020 1.379 . S
C1014 N1022 1.356 . S
C1015 C1014 1.363 1_554 S
C1015 C1021 1.363 . S
C1016 C1017 1.363 1_554 S
C1016 C1021 1.379 . S
C1016 N1023 1.356 . S
C1017 C1016 1.363 1_556 S
C1017 C1020 1.363 . S
N1018 C1020 1.356 . S
N1018 H1030 0.984 . S
N1018 H1031 0.985 . S
N1019 C1021 1.356 . S
N1019 H1024 0.984 . S
N1019 H1025 0.985 . S
C1020 C1014 1.379 . S
C1020 C1017 1.363 . S
C1020 N1018 1.356 . S
C1021 C1015 1.363 . S
C1021 C1016 1.379 . S
C1021 N1019 1.356 . S
N1022 C1014 1.356 . S
N1022 H1028 0.984 . S
N1022 H1029 0.984 . S
N1023 C1016 1.356 . S
N1023 H1026 0.984 . S
N1023 H1027 0.985 . S
H1024 N1019 0.984 . S
H1025 N1019 0.985 . S
H1026 N1023 0.984 . S
H1027 N1023 0.985 . S
H1028 N1022 0.984 . S
H1029 N1022 0.984 . S
H1030 N1018 0.984 . S
H1031 N1018 0.985 . S
C1032 C1033 1.363 1_565 S
C1032 C1038 1.379 . S
C1032 N1040 1.356 . S
C1033 C1032 1.363 1_545 S
C1033 C1039 1.363 . S
C1034 C1035 1.363 1_545 S
C1034 C1039 1.379 . S
C1034 N1041 1.356 . S
C1035 C1034 1.363 1_565 S
C1035 C1038 1.363 . S
N1036 C1038 1.356 . S
N1036 H1048 0.984 . S
N1036 H1049 0.985 . S
N1037 C1039 1.356 . S
N1037 H1042 0.984 . S
N1037 H1043 0.985 . S
C1038 C1032 1.379 . S
C1038 C1035 1.363 . S
C1038 N1036 1.356 . S
C1039 C1033 1.363 . S
C1039 C1034 1.379 . S
C1039 N1037 1.356 . S
N1040 C1032 1.356 . S
N1040 H1046 0.984 . S
N1040 H1047 0.984 . S
N1041 C1034 1.356 . S
N1041 H1044 0.984 . S
N1041 H1045 0.985 . S
H1042 N1037 0.984 . S
H1043 N1037 0.985 . S
H1044 N1041 0.984 . S
H1045 N1041 0.985 . S
H1046 N1040 0.984 . S
H1047 N1040 0.984 . S
H1048 N1036 0.984 . S
H1049 N1036 0.985 . S
C1050 C1051 1.363 . S
C1050 C1056 1.379 . S
C1050 N1058 1.356 . S
C1051 C1050 1.363 . S
C1051 C1057 1.363 . S
C1052 C1053 1.363 . S
C1052 C1057 1.379 . S
C1052 N1059 1.356 . S
C1053 C1052 1.363 . S
C1053 C1056 1.363 . S
N1054 C1056 1.356 . S
N1054 H1066 0.984 . S
N1054 H1067 0.985 . S
N1055 C1057 1.356 . S
N1055 H1060 0.984 . S
N1055 H1061 0.985 . S
C1056 C1050 1.379 . S
C1056 C1053 1.363 . S
C1056 N1054 1.356 . S
C1057 C1051 1.363 . S
C1057 C1052 1.379 . S
C1057 N1055 1.356 . S
N1058 C1050 1.356 . S
N1058 H1064 0.984 . S
N1058 H1065 0.984 . S
N1059 C1052 1.356 . S
N1059 H1062 0.984 . S
N1059 H1063 0.985 . S
H1060 N1055 0.984 . S
H1061 N1055 0.985 . S
H1062 N1059 0.984 . S
H1063 N1059 0.985 . S
H1064 N1058 0.984 . S
H1065 N1058 0.984 . S
H1066 N1054 0.984 . S
H1067 N1054 0.985 . S
C1068 C1069 1.363 . S
C1068 C1074 1.379 1_455 S
C1068 N1076 1.356 . S
C1069 C1068 1.363 . S
C1069 C1075 1.363 . S
C1070 C1071 1.363 . S
C1070 C1075 1.379 1_655 S
C1070 N1077 1.356 . S
C1071 C1070 1.363 . S
C1071 C1074 1.363 . S
N1072 C1074 1.356 . S
N1072 H1084 0.984 . S
N1072 H1085 0.985 . S
N1073 C1075 1.356 . S
N1073 H1078 0.984 . S
N1073 H1079 0.985 . S
C1074 C1068 1.379 1_655 S
C1074 C1071 1.363 . S
C1074 N1072 1.356 . S
C1075 C1069 1.363 . S
C1075 C1070 1.379 1_455 S
C1075 N1073 1.356 . S
N1076 C1068 1.356 . S
N1076 H1082 0.984 . S
N1076 H1083 0.984 . S
N1077 C1070 1.356 . S
N1077 H1080 0.984 . S
N1077 H1081 0.985 . S
H1078 N1073 0.984 . S
H1079 N1073 0.985 . S
H1080 N1077 0.984 . S
H1081 N1077 0.985 . S
H1082 N1076 0.984 . S
H1083 N1076 0.984 . S
H1084 N1072 0.984 . S
H1085 N1072 0.985 . S
C1086 C1087 1.363 . S
C1086 C1092 1.379 . S
C1086 N1094 1.356 . S
C1087 C1086 1.363 . S
C1087 C1093 1.363 1_565 S
C1088 C1089 1.363 . S
C1088 C1093 1.379 . S
C1088 N1095 1.356 . S
C1089 C1088 1.363 . S
C1089 C1092 1.363 1_545 S
N1090 C1092 1.356 . S
N1090 H1102 0.984 . S
N1090 H1103 0.985 . S
N1091 C1093 1.356 . S
N1091 H1096 0.984 . S
N1091 H1097 0.985 . S
C1092 C1086 1.379 . S
C1092 C1089 1.363 1_565 S
C1092 N1090 1.356 . S
C1093 C1087 1.363 1_545 S
C1093 C1088 1.379 . S
C1093 N1091 1.356 . S
N1094 C1086 1.356 . S
N1094 H1100 0.984 . S
N1094 H1101 0.984 . S
N1095 C1088 1.356 . S
N1095 H1098 0.984 . S
N1095 H1099 0.985 . S
H1096 N1091 0.984 . S
H1097 N1091 0.985 . S
H1098 N1095 0.984 . S
H1099 N1095 0.985 . S
H1100 N1094 0.984 . S
H1101 N1094 0.984 . S
H1102 N1090 0.984 . S
H1103 N1090 0.985 . S
C1104 C1105 1.363 . S
C1104 C1110 1.379 . S
C1104 N1112 1.356 . S
C1105 C1104 1.363 . S
C1105 C1111 1.363 . S
C1106 C1107 1.363 . S
C1106 C1111 1.379 . S
C1106 N1113 1.356 . S
C1107 C1106 1.363 . S
C1107 C1110 1.363 . S
N1108 C1110 1.356 . S
N1108 H1120 0.984 . S
N1108 H1121 0.985 . S
N1109 C1111 1.356 . S
N1109 H1114 0.984 . S
N1109 H1115 0.985 . S
C1110 C1104 1.379 . S
C1110 C1107 1.363 . S
C1110 N1108 1.356 . S
C1111 C1105 1.363 . S
C1111 C1106 1.379 . S
C1111 N1109 1.356 . S
N1112 C1104 1.356 . S
N1112 H1118 0.984 . S
N1112 H1119 0.984 . S
N1113 C1106 1.356 . S
N1113 H1116 0.984 . S
N1113 H1117 0.985 . S
H1114 N1109 0.984 . S
H1115 N1109 0.985 . S
H1116 N1113 0.984 . S
H1117 N1113 0.985 . S
H1118 N1112 0.984 . S
H1119 N1112 0.984 . S
H1120 N1108 0.984 . S
H1121 N1108 0.985 . S
C1122 C1123 1.363 1_455 S
C1122 C1128 1.379 . S
C1122 N1130 1.362 1_455 S
C1123 C1122 1.363 1_655 S
C1123 C1129 1.363 . S
C1124 C1125 1.363 1_655 S
C1124 C1129 1.379 . S
C1124 N1131 1.362 1_655 S
C1125 C1124 1.363 1_455 S
C1125 C1128 1.363 . S
N1126 C1128 1.356 . S
N1126 H1138 0.984 . S
N1126 H1139 0.985 . S
N1127 C1129 1.356 . S
N1127 H1132 0.984 . S
N1127 H1133 0.985 . S
C1128 C1122 1.379 . S
C1128 C1125 1.363 . S
C1128 N1126 1.356 . S
C1129 C1123 1.363 . S
C1129 C1124 1.379 . S
C1129 N1127 1.356 . S
N1130 C1122 1.362 1_655 S
N1130 H1136 0.971 1_655 S
N1130 H1137 0.992 . S
N1131 C1124 1.362 1_455 S
N1131 H1134 0.992 . S
N1131 H1135 0.971 1_455 S
H1132 N1127 0.984 . S
H1133 N1127 0.985 . S
H1134 N1131 0.992 . S
H1135 N1131 0.971 1_655 S
H1136 N1130 0.971 1_455 S
H1137 N1130 0.992 . S
H1138 N1126 0.984 . S
H1139 N1126 0.985 . S
C709 C5 1.622 . S
C711 C477 1.622 . S
C727 C64 1.622 . S
C729 C536 1.622 . S
C745 C595 1.622 . S
C747 C123 1.622 . S
C763 C654 1.622 . S
C765 C182 1.622 . S
C781 C359 1.622 . S
C783 C241 1.622 . S
C799 C418 1.622 . S
C801 C300 1.622 . S
C817 C3 1.761 . S
C819 C180 1.761 . S
C835 C239 1.761 . S
C837 C62 1.761 . S
C853 C298 1.761 . S
C855 C121 1.761 . S
C871 C357 1.761 . S
C873 C534 1.761 . S
C889 C593 1.761 . S
C891 C416 1.761 . S
C907 C475 1.761 . S
C909 C652 1.761 . S
C925 C387 1.275 . S
C927 C33 1.275 . S
C943 C92 1.275 . S
C945 C446 1.275 . S
C961 C505 1.275 . S
C963 C151 1.275 . S
C979 C564 1.275 . S
C981 C210 1.275 . S
C997 C269 1.275 . S
C999 C623 1.275 . S
C1015 C682 1.275 . S
C1017 C328 1.275 . S
C1033 C52 1.302 . S
C1035 C465 1.302 . S
C1051 C524 1.303 . S
C1053 C111 1.303 . S
C1069 C583 1.302 . S
C1071 C170 1.302 . S
C1087 C229 1.302 . S
C1089 C642 1.302 . S
C1105 C701 1.303 . S
C1107 C288 1.303 . S
C1123 C406 1.302 . S
C1125 C347 1.302 . S
