# Generated by pormake.
# Topology hjm, (4)-cn, num edge types: 1
# Building blocks:
#     Node 0, Type 0, BuildingBlock: GALJAG_clean_sbu_0, # of connection points: 4
#     Node 1, Type 0, BuildingBlock: GALJAG_clean_sbu_0, # of connection points: 4
#     Node 2, Type 0, BuildingBlock: GALJAG_clean_sbu_0, # of connection points: 4
#     Node 3, Type 0, BuildingBlock: GALJAG_clean_sbu_0, # of connection points: 4
#     Node 4, Type 0, BuildingBlock: GALJAG_clean_sbu_0, # of connection points: 4
#     Node 5, Type 0, BuildingBlock: GALJAG_clean_sbu_0, # of connection points: 4
#     Node 6, Type 0, BuildingBlock: GALJAG_clean_sbu_0, # of connection points: 4
#     Node 7, Type 0, BuildingBlock: GALJAG_clean_sbu_0, # of connection points: 4
#     Edge 8, Type (0, 0), BuildingBlock: FUNLAD_clean_linker_0, # of connection points: 2
#     Edge 9, Type (0, 0), BuildingBlock: FUNLAD_clean_linker_0, # of connection points: 2
#     Edge 10, Type (0, 0), BuildingBlock: FUNLAD_clean_linker_0, # of connection points: 2
#     Edge 11, Type (0, 0), BuildingBlock: FUNLAD_clean_linker_0, # of connection points: 2
#     Edge 12, Type (0, 0), BuildingBlock: FUNLAD_clean_linker_0, # of connection points: 2
#     Edge 13, Type (0, 0), BuildingBlock: FUNLAD_clean_linker_0, # of connection points: 2
#     Edge 14, Type (0, 0), BuildingBlock: FUNLAD_clean_linker_0, # of connection points: 2
#     Edge 15, Type (0, 0), BuildingBlock: FUNLAD_clean_linker_0, # of connection points: 2
#     Edge 16, Type (0, 0), BuildingBlock: FUNLAD_clean_linker_0, # of connection points: 2
#     Edge 17, Type (0, 0), BuildingBlock: FUNLAD_clean_linker_0, # of connection points: 2
#     Edge 18, Type (0, 0), BuildingBlock: FUNLAD_clean_linker_0, # of connection points: 2
#     Edge 19, Type (0, 0), BuildingBlock: FUNLAD_clean_linker_0, # of connection points: 2
#     Edge 20, Type (0, 0), BuildingBlock: FUNLAD_clean_linker_0, # of connection points: 2
#     Edge 21, Type (0, 0), BuildingBlock: FUNLAD_clean_linker_0, # of connection points: 2
#     Edge 22, Type (0, 0), BuildingBlock: FUNLAD_clean_linker_0, # of connection points: 2
#     Edge 23, Type (0, 0), BuildingBlock: FUNLAD_clean_linker_0, # of connection points: 2
# Relax obj value: 0.069
# Max RMSD: 0.136
# Mean RMSD: 0.136
data_MOF--net-hjm--node1-GALJAG_clean_sbu_0--edge1-FUNLAD_clean_linker_0
_symmetry_space_group_name_H-M    P1
_symmetry_Int_Tables_number       1
_symmetry_cell_setting            triclinic
loop_
_symmetry_equiv_pos_as_xyz
'x, y, z'
_cell_length_a     29.784413
_cell_length_b     24.670231
_cell_length_c     29.84463
_cell_angle_alpha  89.878658
_cell_angle_beta   69.669026
_cell_angle_gamma 90.050021
loop_
_atom_site_label
_atom_site_type_symbol
_atom_site_fract_x
_atom_site_fract_y
_atom_site_fract_z
_atom_type_partial_charge
In0 In 0.18168 0.23578 0.31562 0.0
O1 O 0.14763 0.31871 0.33369 0.0
O2 O 0.17128 0.28058 0.3855 0.0
C3 C 0.18115 0.23292 0.22532 0.0
C4 C 0.11661 0.16033 0.36314 0.0
C5 C 0.27644 0.23448 0.30067 0.0
O6 O 0.16864 0.27403 0.25168 0.0
O7 O 0.19272 0.19256 0.2449 0.0
O8 O 0.24814 0.19876 0.32529 0.0
O9 O 0.25678 0.27113 0.28455 0.0
C10 C 0.15126 0.32104 0.37452 0.0
O11 O 0.16101 0.15099 0.34747 0.0
O12 O 0.10511 0.20701 0.35382 0.0
In13 In 0.81192 0.2584 0.18035 0.0
O14 O 0.88088 0.30752 0.16118 0.0
O15 O 0.83137 0.32859 0.12716 0.0
C16 C 0.80079 0.26425 0.27383 0.0
C17 C 0.85662 0.17454 0.12488 0.0
C18 C 0.71797 0.25738 0.1921 0.0
O19 O 0.79978 0.30553 0.24921 0.0
O20 O 0.80842 0.2202 0.25106 0.0
O21 O 0.73987 0.21594 0.19837 0.0
O22 O 0.74371 0.29916 0.17885 0.0
C23 C 0.87129 0.3378 0.13162 0.0
O24 O 0.82581 0.20314 0.11569 0.0
O25 O 0.86428 0.1877 0.1624 0.0
In26 In 0.81231 0.72818 0.68192 0.0
O27 O 0.88291 0.68212 0.66072 0.0
O28 O 0.82951 0.65426 0.63383 0.0
C29 C 0.80547 0.72641 0.7745 0.0
C30 C 0.85776 0.808 0.62111 0.0
C31 C 0.71802 0.72696 0.6942 0.0
O32 O 0.80892 0.68395 0.75014 0.0
O33 O 0.80656 0.76994 0.75189 0.0
O34 O 0.74134 0.77024 0.69151 0.0
O35 O 0.74244 0.68431 0.68972 0.0
C36 C 0.87121 0.64833 0.63497 0.0
O37 O 0.83421 0.77119 0.60993 0.0
O38 O 0.85748 0.80542 0.66346 0.0
In39 In 0.18412 0.76095 0.8041 0.0
O40 O 0.16935 0.82266 0.86416 0.0
O41 O 0.12145 0.8201 0.82549 0.0
C42 C 0.27888 0.76068 0.78921 0.0
C43 C 0.13291 0.67751 0.85563 0.0
C44 C 0.19124 0.7647 0.7116 0.0
O45 O 0.25526 0.80371 0.79208 0.0
O46 O 0.25454 0.71772 0.79484 0.0
O47 O 0.19192 0.72086 0.73318 0.0
O48 O 0.18624 0.80673 0.73689 0.0
C49 C 0.13207 0.84136 0.85892 0.0
O50 O 0.12788 0.69432 0.81772 0.0
O51 O 0.1644 0.70214 0.86714 0.0
In52 In 0.67901 0.75184 0.30712 0.0
O53 O 0.62187 0.81708 0.32068 0.0
O54 O 0.66047 0.81222 0.36858 0.0
C55 C 0.68929 0.74947 0.21376 0.0
C56 C 0.62413 0.67174 0.36088 0.0
C57 C 0.77341 0.75575 0.29394 0.0
O58 O 0.68154 0.79261 0.23784 0.0
O59 O 0.69093 0.70718 0.23701 0.0
O60 O 0.75088 0.71169 0.29752 0.0
O61 O 0.74806 0.79766 0.29837 0.0
C62 C 0.6281 0.83557 0.35747 0.0
O63 O 0.65976 0.69117 0.36896 0.0
O64 O 0.617 0.69168 0.32501 0.0
In65 In 0.30874 0.74789 0.17886 0.0
O66 O 0.36626 0.8127 0.1671 0.0
O67 O 0.32864 0.81031 0.11835 0.0
C68 C 0.29477 0.74562 0.27307 0.0
C69 C 0.36529 0.6682 0.12743 0.0
C70 C 0.2153 0.7433 0.18799 0.0
O71 O 0.2959 0.7892 0.25049 0.0
O72 O 0.30135 0.70329 0.24799 0.0
O73 O 0.24099 0.7016 0.18313 0.0
O74 O 0.23706 0.78744 0.18684 0.0
C75 C 0.36093 0.83256 0.13032 0.0
O76 O 0.332 0.68896 0.11609 0.0
O77 O 0.36964 0.68723 0.1649 0.0
In78 In 0.31419 0.24828 0.69224 0.0
O79 O 0.37489 0.1872 0.67561 0.0
O80 O 0.33462 0.18997 0.62913 0.0
C81 C 0.3016 0.24248 0.78603 0.0
C82 C 0.36646 0.33274 0.64307 0.0
C83 C 0.22034 0.24309 0.7033 0.0
O84 O 0.31275 0.20198 0.7587 0.0
O85 O 0.29787 0.2864 0.76584 0.0
O86 O 0.24187 0.28736 0.70239 0.0
O87 O 0.24646 0.20159 0.6972 0.0
C88 C 0.36872 0.1687 0.63879 0.0
O89 O 0.33325 0.3111 0.63224 0.0
O90 O 0.37247 0.31278 0.67951 0.0
In91 In 0.68688 0.24888 0.80756 0.0
O92 O 0.62623 0.18778 0.82049 0.0
O93 O 0.66478 0.18702 0.86847 0.0
C94 C 0.70458 0.24529 0.71267 0.0
C95 C 0.6324 0.33148 0.85623 0.0
C96 C 0.7795 0.25344 0.80127 0.0
O97 O 0.7024 0.20326 0.7375 0.0
O98 O 0.69684 0.28906 0.73589 0.0
O99 O 0.7547 0.29519 0.80259 0.0
O100 O 0.7572 0.20926 0.80459 0.0
C101 C 0.63116 0.16708 0.85717 0.0
O102 O 0.664 0.30912 0.86918 0.0
O103 O 0.62867 0.31259 0.81842 0.0
C104 C 0.09377 0.06698 0.39624 0.0
C105 C 0.0811 0.12125 0.39286 0.0
C106 C 0.06082 0.03095 0.42672 0.0
C107 C 0.01475 0.04878 0.45474 0.0
C108 C 0.00215 0.10296 0.45121 0.0
C109 C 0.03479 0.13873 0.42016 0.0
C110 C 0.98031 0.01271 0.49003 0.0
C111 C 0.97764 0.95915 0.48302 0.0
C112 C 0.94449 0.92283 0.51919 0.0
C113 C 0.92552 0.87732 0.50395 0.0
C114 C 0.89601 0.84094 0.53721 0.0
C115 C 0.88587 0.84874 0.58637 0.0
H116 H 0.9487 0.96519 0.58135 0.0
C117 C 0.90483 0.89427 0.60172 0.0
C118 C 0.93369 0.93118 0.56846 0.0
H119 H 0.8978 0.90107 0.63939 0.0
H120 H 0.12933 0.05254 0.37579 0.0
H121 H 0.07205 0.98972 0.42945 0.0
H122 H 0.96702 0.11773 0.4727 0.0
H123 H 0.02416 0.18046 0.41855 0.0
H124 H 0.9553 0.03126 0.52196 0.0
H125 H -0.00082 0.9415 0.449 0.0
H126 H 0.93366 0.86982 0.46618 0.0
H127 H 0.88219 0.80593 0.52435 0.0
C128 C 0.06071 0.90248 0.88375 0.0
C129 C 0.10227 0.88339 0.89058 0.0
C130 C 0.03154 0.9408 0.91483 0.0
C131 C 0.04325 0.96053 0.95367 0.0
C132 C 0.0854 0.94215 0.95972 0.0
C133 C 0.11454 0.90389 0.92864 0.0
C134 C 0.01334 0.00086 0.98817 0.0
C135 C 0.96702 0.01095 0.99471 0.0
C136 C 0.93817 0.05151 0.02953 0.0
C137 C 0.90043 0.07781 0.02045 0.0
C138 C 0.87342 0.11735 0.05175 0.0
C139 C 0.88329 0.13078 0.0931 0.0
H140 H 0.97465 0.04301 0.0809 0.0
C141 C 0.91995 0.10318 0.10308 0.0
C142 C 0.94708 0.06386 0.0717 0.0
H143 H 0.92805 0.11231 0.13495 0.0
H144 H 0.0506 0.8877 0.85444 0.0
H145 H 0.00036 0.95502 0.90772 0.0
H146 H 0.09559 0.95695 0.989 0.0
H147 H 0.14645 0.89004 0.93473 0.0
H148 H 0.03045 0.02269 0.00946 0.0
H149 H 0.94948 0.99014 0.97334 0.0
H150 H 0.89243 0.06855 0.98854 0.0
H151 H 0.84518 0.13776 0.04327 0.0
C152 C 0.39167 0.3935 0.57142 0.0
C153 C 0.39784 0.37549 0.61356 0.0
C154 C 0.42338 0.43106 0.5416 0.0
C155 C 0.46185 0.45184 0.55354 0.0
C156 C 0.46761 0.43407 0.59597 0.0
C157 C 0.43591 0.39645 0.62575 0.0
C158 C 0.49799 0.48986 0.52186 0.0
C159 C 0.49021 0.52085 0.48798 0.0
C160 C 0.52652 0.55802 0.45539 0.0
C161 C 0.51951 0.57613 0.41364 0.0
C162 C 0.55174 0.61215 0.38245 0.0
C163 C 0.59169 0.63117 0.39244 0.0
H164 H 0.57304 0.56559 0.49756 0.0
C165 C 0.599 0.61307 0.43401 0.0
C166 C 0.56672 0.57705 0.46529 0.0
H167 H 0.62923 0.62751 0.44289 0.0
H168 H 0.36293 0.37763 0.56084 0.0
H169 H 0.41822 0.44213 0.50866 0.0
H170 H 0.49701 0.44903 0.60599 0.0
H171 H 0.44174 0.38312 0.6579 0.0
H172 H 0.53222 0.4919 0.52705 0.0
H173 H 0.45582 0.51892 0.48311 0.0
H174 H 0.48882 0.56248 0.40513 0.0
H175 H 0.54499 0.62559 0.3508 0.0
C176 C 0.39261 0.60749 0.05598 0.0
C177 C 0.39738 0.62583 0.09862 0.0
C178 C 0.42376 0.56829 0.02818 0.0
C179 C 0.46053 0.54682 0.04243 0.0
C180 C 0.46458 0.56452 0.08554 0.0
C181 C 0.43353 0.60379 0.11324 0.0
C182 C 0.49447 0.50498 0.01424 0.0
C183 C 0.50542 0.49799 0.96684 0.0
C184 C 0.53923 0.4559 0.93883 0.0
C185 C 0.5352 0.43791 0.89579 0.0
C186 C 0.56572 0.39782 0.86869 0.0
C187 C 0.60126 0.37522 0.88392 0.0
H188 H 0.58125 0.4482 0.9854 0.0
C189 C 0.60619 0.39407 0.92632 0.0
C190 C 0.57565 0.43413 0.95345 0.0
H191 H 0.63361 0.37778 0.93868 0.0
H192 H 0.3648 0.62345 0.04404 0.0
H193 H 0.41828 0.55448 -0.0039 0.0
H194 H 0.49223 0.54832 0.09763 0.0
H195 H 0.43797 0.61698 0.14605 0.0
H196 H 0.51137 0.47969 0.03359 0.0
H197 H 0.48848 0.52324 0.9475 0.0
H198 H 0.50785 0.45436 0.88339 0.0
H199 H 0.56121 0.38426 0.83602 0.0
C200 C 0.89203 0.41322 0.0718 0.0
C201 C 0.90491 0.3794 0.10323 0.0
C202 C 0.92447 0.45126 0.04362 0.0
C203 C 0.97079 0.4558 0.04591 0.0
C204 C 0.98311 0.42279 0.07822 0.0
C205 C 0.9506 0.38487 0.10651 0.0
C206 C 0.00669 0.49525 0.0162 0.0
C207 C 0.00568 0.51549 0.97454 0.0
C208 C 0.04074 0.55552 0.94429 0.0
C209 C 0.04014 0.56645 0.89827 0.0
C210 C 0.07065 0.60537 0.86914 0.0
C211 C 0.10264 0.63423 0.88534 0.0
H212 H 0.07442 0.57854 0.99576 0.0
C213 C 0.10392 0.62301 0.93101 0.0
C214 C 0.07314 0.58436 0.96036 0.0
H215 H 0.12797 0.64503 0.94458 0.0
H216 H 0.85684 0.4103 0.06893 0.0
H217 H 0.91272 0.47729 0.02066 0.0
H218 H 0.01827 0.42583 0.08119 0.0
H219 H 0.96148 0.35946 0.13056 0.0
H220 H 0.03581 0.50572 0.02847 0.0
H221 H 0.97846 0.50118 0.96089 0.0
H222 H 0.01557 0.54516 0.88489 0.0
H223 H 0.06883 0.61321 0.83408 0.0
C224 C 0.1068 0.4083 0.39379 0.0
C225 C 0.12958 0.36534 0.40818 0.0
C226 C 0.08097 0.4468 0.4268 0.0
C227 C 0.07712 0.4429 0.47502 0.0
C228 C 0.10242 0.40201 0.48879 0.0
C229 C 0.12827 0.36327 0.45568 0.0
C230 C 0.04575 0.48005 0.51154 0.0
C231 C 0.00409 0.49808 0.50884 0.0
C232 C 0.97028 0.53426 0.54443 0.0
C233 C 0.92281 0.53677 0.54561 0.0
C234 C 0.89028 0.5727 0.5761 0.0
C235 C 0.90466 0.60728 0.60589 0.0
H236 H 0.02103 0.56839 0.57439 0.0
C237 C 0.95191 0.60429 0.60548 0.0
C238 C 0.98453 0.56818 0.57496 0.0
H239 H 0.96403 0.63078 0.62788 0.0
H240 H 0.10778 0.41142 0.35725 0.0
H241 H 0.06345 0.47912 0.41459 0.0
H242 H 0.10056 0.39868 0.5256 0.0
H243 H 0.14581 0.33076 0.46766 0.0
H244 H 0.05545 0.48915 0.54257 0.0
H245 H 0.99298 0.48391 0.47982 0.0
H246 H 0.91091 0.51127 0.52237 0.0
H247 H 0.85413 0.57414 0.57555 0.0
C248 C 0.60338 0.10538 0.92821 0.0
C249 C 0.59891 0.12434 0.88557 0.0
C250 C 0.57157 0.06654 0.95607 0.0
C251 C 0.53445 0.04602 0.94186 0.0
C252 C 0.53086 0.06406 0.89859 0.0
C253 C 0.56254 0.10303 0.87085 0.0
C254 C 0.49964 0.00489 0.97039 0.0
C255 C 0.48803 -0.00122 0.01798 0.0
C256 C 0.45381 0.95714 0.04655 0.0
C257 C 0.45742 0.94005 0.09006 0.0
C258 C 0.42684 0.90009 0.11758 0.0
C259 C 0.39157 0.87674 0.10238 0.0
H260 H 0.41237 0.94811 -0.00042 0.0
C261 C 0.38688 0.89487 0.05959 0.0
C262 C 0.41759 0.93475 0.03196 0.0
H263 H 0.35972 0.87793 0.04721 0.0
H264 H 0.63133 0.12076 0.94024 0.0
H265 H 0.57673 0.05233 0.98824 0.0
H266 H 0.50299 0.04852 0.8865 0.0
H267 H 0.55833 0.11669 0.83802 0.0
H268 H 0.4827 0.97948 0.9512 0.0
H269 H 0.50494 0.02436 0.03709 0.0
H270 H 0.48459 0.95699 0.10245 0.0
H271 H 0.43117 0.88714 0.15054 0.0
C272 C 0.60422 0.89606 0.42899 0.0
C273 C 0.59859 0.87974 0.38621 0.0
C274 C 0.57478 0.93616 0.45731 0.0
C275 C 0.53889 0.96057 0.44345 0.0
C276 C 0.53435 0.94532 0.39994 0.0
C277 C 0.56369 0.90511 0.37171 0.0
C278 C 0.50603 0.00249 0.47288 0.0
C279 C 0.49463 0.00641 0.52058 0.0
C280 C 0.46141 0.0479 0.55021 0.0
C281 C 0.46567 0.06282 0.59391 0.0
C282 C 0.43541 0.10189 0.6228 0.0
C283 C 0.3998 0.12638 0.60882 0.0
H284 H 0.41948 0.06004 0.50407 0.0
C285 C 0.39468 0.11065 0.56566 0.0
C286 C 0.42511 0.07174 0.53662 0.0
H287 H 0.36727 0.12857 0.55418 0.0
H288 H 0.63116 0.87757 0.44082 0.0
H289 H 0.58071 0.94812 0.48965 0.0
H290 H 0.50743 0.96391 0.38811 0.0
H291 H 0.55874 0.89359 0.33873 0.0
H292 H 0.49001 0.0301 0.4544 0.0
H293 H 0.51062 0.97877 0.53907 0.0
H294 H 0.49293 0.04467 0.6055 0.0
H295 H 0.44002 0.11299 0.65603 0.0
C296 C 0.27596 0.79221 0.35178 0.0
C297 C 0.28506 0.74413 0.32504 0.0
C298 C 0.26526 0.79066 0.40122 0.0
C299 C 0.2632 0.7408 0.42493 0.0
C300 C 0.27333 0.69294 0.39791 0.0
C301 C 0.28392 0.69451 0.34851 0.0
C302 C 0.25195 0.73698 0.47739 0.0
C303 C 0.22672 0.77469 0.50862 0.0
C304 C 0.21608 0.7707 0.56098 0.0
C305 C 0.20778 0.81851 0.58806 0.0
C306 C 0.199 0.81662 0.63718 0.0
C307 C 0.19791 0.76672 0.66026 0.0
H308 H 0.21779 0.68268 0.56531 0.0
C309 C 0.20467 0.71872 0.63355 0.0
C310 C 0.21349 0.7206 0.58445 0.0
H311 H 0.20347 0.67961 0.6505 0.0
H312 H 0.27701 0.83112 0.33454 0.0
H313 H 0.25939 0.82867 0.42036 0.0
H314 H 0.27249 0.65406 0.41515 0.0
H315 H 0.29096 0.65678 0.32879 0.0
H316 H 0.26464 0.70115 0.49045 0.0
H317 H 0.21411 0.81066 0.49569 0.0
H318 H 0.20899 0.85758 0.57101 0.0
H319 H 0.19368 0.85428 0.65693 0.0
C320 C 0.7879 0.77298 0.85302 0.0
C321 C 0.79772 0.72505 0.82609 0.0
C322 C 0.77712 0.77124 0.90246 0.0
C323 C 0.77583 0.72139 0.92593 0.0
C324 C 0.78746 0.6738 0.89867 0.0
C325 C 0.79797 0.67551 0.84927 0.0
C326 C 0.76321 0.71758 0.97854 0.0
C327 C 0.73393 0.75313 0.00916 0.0
C328 C 0.72121 0.75018 0.06186 0.0
C329 C 0.7063 0.79773 0.08863 0.0
C330 C 0.69518 0.79732 0.13809 0.0
C331 C 0.69824 0.7491 0.16193 0.0
H332 H 0.73255 0.66355 0.06697 0.0
C333 C 0.71163 0.70106 0.1355 0.0
C334 C 0.72294 0.7015 0.08595 0.0
H335 H 0.71391 0.66319 0.15302 0.0
H336 H 0.78785 0.81181 0.83603 0.0
H337 H 0.77016 0.80905 0.92195 0.0
H338 H 0.78737 0.63498 0.91577 0.0
H339 H 0.80569 0.63792 0.82936 0.0
H340 H 0.77786 0.68361 0.99207 0.0
H341 H 0.7192 0.7868 0.99529 0.0
H342 H 0.70408 0.83564 0.0711 0.0
H343 H 0.6847 0.83494 0.15757 0.0
C344 C 0.78905 0.2192 0.35214 0.0
C345 C 0.7912 0.26688 0.32573 0.0
C346 C 0.77713 0.22122 0.4017 0.0
C347 C 0.76751 0.27123 0.42588 0.0
C348 C 0.77001 0.31886 0.39924 0.0
C349 C 0.78185 0.31679 0.3497 0.0
C350 C 0.75267 0.27542 0.47876 0.0
C351 C 0.76106 0.23667 0.50677 0.0
C352 C 0.74519 0.24041 0.55972 0.0
C353 C 0.74078 0.19238 0.58625 0.0
C354 C 0.7268 0.19385 0.636 0.0
C355 C 0.71727 0.24355 0.6603 0.0
H356 H 0.74017 0.3284 0.56519 0.0
C357 C 0.72177 0.2917 0.63393 0.0
C358 C 0.73576 0.29026 0.58414 0.0
H359 H 0.71518 0.33067 0.65169 0.0
H360 H 0.7956 0.18007 0.33466 0.0
H361 H 0.77422 0.18329 0.42069 0.0
H362 H 0.76249 0.35789 0.41687 0.0
H363 H 0.78303 0.35422 0.33028 0.0
H364 H 0.73401 0.31213 0.49483 0.0
H365 H 0.77969 0.19992 0.49079 0.0
H366 H 0.74812 0.15346 0.56841 0.0
H367 H 0.72391 0.15607 0.65538 0.0
C368 C 0.20574 0.18929 0.14488 0.0
C369 C 0.18601 0.23377 0.1744 0.0
C370 C 0.21501 0.1923 0.09571 0.0
C371 C 0.20491 0.24007 0.07511 0.0
C372 C 0.183 0.28344 0.10507 0.0
C373 C 0.17387 0.28048 0.15419 0.0
C374 C 0.2169 0.24646 0.02274 0.0
C375 C 0.25254 0.21906 0.99017 0.0
C376 C 0.26564 0.2268 0.93785 0.0
C377 C 0.28709 0.1837 0.90735 0.0
C378 C 0.29938 0.18904 0.85793 0.0
C379 C 0.29114 0.23799 0.83798 0.0
H380 H 0.24358 0.31109 0.93996 0.0
C381 C 0.2711 0.28178 0.86829 0.0
C382 C 0.25844 0.2763 0.91777 0.0
H383 H 0.26461 0.3201 0.85384 0.0
H384 H 0.215 0.15254 0.15957 0.0
H385 H 0.23012 0.15714 0.07417 0.0
H386 H 0.17422 0.3204 0.09026 0.0
H387 H 0.15833 0.3153 0.17613 0.0
H388 H 0.19661 0.27628 0.0109 0.0
H389 H 0.27288 0.18917 0.00182 0.0
H390 H 0.29361 0.1454 0.92184 0.0
H391 H 0.31502 0.15467 0.8354 0.0
C392 C 0.35841 0.27245 0.26054 0.0
C393 C 0.3287 0.23251 0.28972 0.0
C394 C 0.40806 0.26962 0.24827 0.0
C395 C 0.42908 0.22689 0.26533 0.0
C396 C 0.39926 0.18692 0.29441 0.0
C397 C 0.34955 0.18977 0.30667 0.0
C398 C 0.48181 0.22144 0.25215 0.0
C399 C 0.51236 0.26376 0.23905 0.0
C400 C 0.56532 0.25962 0.22577 0.0
C401 C 0.59333 0.30539 0.20579 0.0
C402 C 0.643 0.30444 0.19401 0.0
C403 C 0.66585 0.25759 0.20198 0.0
H404 H 0.56883 0.17645 0.24948 0.0
C405 C 0.63817 0.21155 0.22146 0.0
C406 C 0.58847 0.2125 0.23343 0.0
H407 H 0.65481 0.17496 0.22835 0.0
H408 H 0.34337 0.30556 0.24648 0.0
H409 H 0.42964 0.30027 0.22446 0.0
H410 H 0.41446 0.15332 0.30772 0.0
H411 H 0.32754 0.15821 0.32899 0.0
H412 H 0.49511 0.18104 0.25432 0.0
H413 H 0.49812 0.30408 0.23822 0.0
H414 H 0.57669 0.3423 0.19951 0.0
H415 H 0.66342 0.34062 0.17913 0.0
C416 C 0.63991 0.77489 0.71179 0.0
C417 C 0.66588 0.72624 0.70422 0.0
C418 C 0.5902 0.77422 0.72381 0.0
C419 C 0.56541 0.72471 0.72812 0.0
C420 C 0.59155 0.67616 0.72039 0.0
C421 C 0.64127 0.67686 0.7084 0.0
C422 C 0.51237 0.72175 0.74253 0.0
C423 C 0.48503 0.76311 0.73729 0.0
C424 C 0.43192 0.76072 0.75222 0.0
C425 C 0.40643 0.80966 0.75859 0.0
C426 C 0.35665 0.80967 0.77143 0.0
C427 C 0.33123 0.76061 0.77794 0.0
H428 H 0.42441 0.6728 0.75286 0.0
C429 C 0.35651 0.71156 0.77168 0.0
C430 C 0.40635 0.71151 0.75875 0.0
H431 H 0.33788 0.6731 0.77595 0.0
H432 H 0.6579 0.81356 0.70931 0.0
H433 H 0.57154 0.81256 0.73093 0.0
H434 H 0.57344 0.63744 0.72378 0.0
H435 H 0.66032 0.63867 0.70301 0.0
H436 H 0.49573 0.68369 0.75782 0.0
H437 H 0.50186 0.80102 0.72177 0.0
H438 H 0.42512 0.84815 0.75353 0.0
H439 H 0.33815 0.84815 0.77579 0.0
C440 C 0.13532 0.78772 0.20764 0.0
C441 C 0.16321 0.74042 0.19772 0.0
C442 C 0.08556 0.78472 0.22049 0.0
C443 C 0.06261 0.73418 0.22329 0.0
C444 C 0.09074 0.68705 0.21281 0.0
C445 C 0.14048 0.69008 0.20005 0.0
C446 C 0.00959 0.72842 0.23907 0.0
C447 C 0.97974 0.76911 0.23804 0.0
C448 C 0.92665 0.76371 0.2544 0.0
C449 C 0.89891 0.81115 0.26424 0.0
C450 C 0.84907 0.8085 0.27817 0.0
C451 C 0.82579 0.75825 0.2824 0.0
H452 H 0.92291 0.67568 0.25044 0.0
C453 C 0.85329 0.71066 0.27295 0.0
C454 C 0.90319 0.71327 0.2589 0.0
H455 H 0.83634 0.67135 0.27539 0.0
H456 H 0.15183 0.82707 0.20663 0.0
H457 H 0.06547 0.82203 0.22957 0.0
H458 H 0.07415 0.64757 0.21488 0.0
H459 H 0.16102 0.65287 0.19281 0.0
H460 H 0.99508 0.68874 0.25197 0.0
H461 H 0.99436 0.80871 0.22497 0.0
H462 H 0.91587 0.85056 0.2609 0.0
H463 H 0.82884 0.84593 0.285 0.0
C464 C 0.13996 0.28689 0.72465 0.0
C465 C 0.16814 0.23984 0.7139 0.0
C466 C 0.09018 0.28354 0.7379 0.0
C467 C 0.06751 0.2329 0.74024 0.0
C468 C 0.0959 0.18598 0.72918 0.0
C469 C 0.14566 0.18936 0.71602 0.0
C470 C 0.01454 0.22689 0.75575 0.0
C471 C 0.98478 0.26739 0.75405 0.0
C472 C 0.93178 0.26182 0.76907 0.0
C473 C 0.90409 0.30924 0.77664 0.0
C474 C 0.85447 0.30649 0.78846 0.0
C475 C 0.83135 0.25613 0.79282 0.0
H476 H 0.92808 0.17358 0.7675 0.0
C477 C 0.85871 0.20855 0.78603 0.0
C478 C 0.90841 0.21125 0.77408 0.0
H479 H 0.84189 0.16914 0.78871 0.0
H480 H 0.15626 0.32631 0.72388 0.0
H481 H 0.06986 0.32064 0.74751 0.0
H482 H 0.07951 0.14643 0.73094 0.0
H483 H 0.16643 0.15233 0.70819 0.0
H484 H 0.00011 0.18715 0.76853 0.0
H485 H -0.00048 0.30693 0.74089 0.0
H486 H 0.92096 0.34874 0.77292 0.0
H487 H 0.83434 0.34391 0.79332 0.0
loop_
_geom_bond_atom_site_label_1
_geom_bond_atom_site_label_2
_geom_bond_distance
_geom_bond_site_symmetry_2
_ccdc_geom_bond_type
In0 O1 2.294 . S
In0 O2 2.326 . S
In0 O6 2.266 . S
In0 O7 2.326 . S
In0 O8 2.266 . S
In0 O9 2.326 . S
In0 O11 2.294 . S
In0 O12 2.326 . S
O1 In0 2.294 . S
O1 C10 1.240 . S
O2 In0 2.326 . S
O2 C10 1.252 . S
C3 O6 1.252 . S
C3 O7 1.260 . S
C4 O11 1.240 . S
C4 O12 1.252 . S
C5 O8 1.252 . S
C5 O9 1.260 . S
O6 In0 2.266 . S
O6 C3 1.252 . S
O7 In0 2.326 . S
O7 C3 1.260 . S
O8 In0 2.266 . S
O8 C5 1.252 . S
O9 In0 2.326 . S
O9 C5 1.260 . S
C10 O1 1.240 . S
C10 O2 1.252 . S
O11 In0 2.294 . S
O11 C4 1.240 . S
O12 In0 2.326 . S
O12 C4 1.252 . S
In13 O14 2.294 . S
In13 O15 2.326 . S
In13 O19 2.266 . S
In13 O20 2.326 . S
In13 O21 2.266 . S
In13 O22 2.326 . S
In13 O24 2.294 . S
In13 O25 2.326 . S
O14 In13 2.294 . S
O14 C23 1.240 . S
O15 In13 2.326 . S
O15 C23 1.252 . S
C16 O19 1.252 . S
C16 O20 1.260 . S
C17 O24 1.240 . S
C17 O25 1.252 . S
C18 O21 1.252 . S
C18 O22 1.260 . S
O19 In13 2.266 . S
O19 C16 1.252 . S
O20 In13 2.326 . S
O20 C16 1.260 . S
O21 In13 2.266 . S
O21 C18 1.252 . S
O22 In13 2.326 . S
O22 C18 1.260 . S
C23 O14 1.240 . S
C23 O15 1.252 . S
O24 In13 2.294 . S
O24 C17 1.240 . S
O25 In13 2.326 . S
O25 C17 1.252 . S
In26 O27 2.294 . S
In26 O28 2.326 . S
In26 O32 2.266 . S
In26 O33 2.326 . S
In26 O34 2.266 . S
In26 O35 2.326 . S
In26 O37 2.294 . S
In26 O38 2.326 . S
O27 In26 2.294 . S
O27 C36 1.240 . S
O28 In26 2.326 . S
O28 C36 1.252 . S
C29 O32 1.252 . S
C29 O33 1.260 . S
C30 O37 1.240 . S
C30 O38 1.252 . S
C31 O34 1.252 . S
C31 O35 1.260 . S
O32 In26 2.266 . S
O32 C29 1.252 . S
O33 In26 2.326 . S
O33 C29 1.260 . S
O34 In26 2.266 . S
O34 C31 1.252 . S
O35 In26 2.326 . S
O35 C31 1.260 . S
C36 O27 1.240 . S
C36 O28 1.252 . S
O37 In26 2.294 . S
O37 C30 1.240 . S
O38 In26 2.326 . S
O38 C30 1.252 . S
In39 O40 2.294 . S
In39 O41 2.326 . S
In39 O45 2.266 . S
In39 O46 2.326 . S
In39 O47 2.266 . S
In39 O48 2.326 . S
In39 O50 2.294 . S
In39 O51 2.326 . S
O40 In39 2.294 . S
O40 C49 1.240 . S
O41 In39 2.326 . S
O41 C49 1.252 . S
C42 O45 1.252 . S
C42 O46 1.260 . S
C43 O50 1.240 . S
C43 O51 1.252 . S
C44 O47 1.252 . S
C44 O48 1.260 . S
O45 In39 2.266 . S
O45 C42 1.252 . S
O46 In39 2.326 . S
O46 C42 1.260 . S
O47 In39 2.266 . S
O47 C44 1.252 . S
O48 In39 2.326 . S
O48 C44 1.260 . S
C49 O40 1.240 . S
C49 O41 1.252 . S
O50 In39 2.294 . S
O50 C43 1.240 . S
O51 In39 2.326 . S
O51 C43 1.252 . S
In52 O53 2.294 . S
In52 O54 2.326 . S
In52 O58 2.266 . S
In52 O59 2.326 . S
In52 O60 2.266 . S
In52 O61 2.326 . S
In52 O63 2.294 . S
In52 O64 2.326 . S
O53 In52 2.294 . S
O53 C62 1.240 . S
O54 In52 2.326 . S
O54 C62 1.252 . S
C55 O58 1.252 . S
C55 O59 1.260 . S
C56 O63 1.240 . S
C56 O64 1.252 . S
C57 O60 1.252 . S
C57 O61 1.260 . S
O58 In52 2.266 . S
O58 C55 1.252 . S
O59 In52 2.326 . S
O59 C55 1.260 . S
O60 In52 2.266 . S
O60 C57 1.252 . S
O61 In52 2.326 . S
O61 C57 1.260 . S
C62 O53 1.240 . S
C62 O54 1.252 . S
O63 In52 2.294 . S
O63 C56 1.240 . S
O64 In52 2.326 . S
O64 C56 1.252 . S
In65 O66 2.294 . S
In65 O67 2.326 . S
In65 O71 2.266 . S
In65 O72 2.326 . S
In65 O73 2.266 . S
In65 O74 2.326 . S
In65 O76 2.294 . S
In65 O77 2.326 . S
O66 In65 2.294 . S
O66 C75 1.240 . S
O67 In65 2.326 . S
O67 C75 1.252 . S
C68 O71 1.252 . S
C68 O72 1.260 . S
C69 O76 1.240 . S
C69 O77 1.252 . S
C70 O73 1.252 . S
C70 O74 1.260 . S
O71 In65 2.266 . S
O71 C68 1.252 . S
O72 In65 2.326 . S
O72 C68 1.260 . S
O73 In65 2.266 . S
O73 C70 1.252 . S
O74 In65 2.326 . S
O74 C70 1.260 . S
C75 O66 1.240 . S
C75 O67 1.252 . S
O76 In65 2.294 . S
O76 C69 1.240 . S
O77 In65 2.326 . S
O77 C69 1.252 . S
In78 O79 2.294 . S
In78 O80 2.326 . S
In78 O84 2.266 . S
In78 O85 2.326 . S
In78 O86 2.266 . S
In78 O87 2.326 . S
In78 O89 2.294 . S
In78 O90 2.326 . S
O79 In78 2.294 . S
O79 C88 1.240 . S
O80 In78 2.326 . S
O80 C88 1.252 . S
C81 O84 1.252 . S
C81 O85 1.260 . S
C82 O89 1.240 . S
C82 O90 1.252 . S
C83 O86 1.252 . S
C83 O87 1.260 . S
O84 In78 2.266 . S
O84 C81 1.252 . S
O85 In78 2.326 . S
O85 C81 1.260 . S
O86 In78 2.266 . S
O86 C83 1.252 . S
O87 In78 2.326 . S
O87 C83 1.260 . S
C88 O79 1.240 . S
C88 O80 1.252 . S
O89 In78 2.294 . S
O89 C82 1.240 . S
O90 In78 2.326 . S
O90 C82 1.252 . S
In91 O92 2.294 . S
In91 O93 2.326 . S
In91 O97 2.266 . S
In91 O98 2.326 . S
In91 O99 2.266 . S
In91 O100 2.326 . S
In91 O102 2.294 . S
In91 O103 2.326 . S
O92 In91 2.294 . S
O92 C101 1.240 . S
O93 In91 2.326 . S
O93 C101 1.252 . S
C94 O97 1.252 . S
C94 O98 1.260 . S
C95 O102 1.240 . S
C95 O103 1.252 . S
C96 O99 1.252 . S
C96 O100 1.260 . S
O97 In91 2.266 . S
O97 C94 1.252 . S
O98 In91 2.326 . S
O98 C94 1.260 . S
O99 In91 2.266 . S
O99 C96 1.252 . S
O100 In91 2.326 . S
O100 C96 1.260 . S
C101 O92 1.240 . S
C101 O93 1.252 . S
O102 In91 2.294 . S
O102 C95 1.240 . S
O103 In91 2.326 . S
O103 C95 1.252 . S
C104 C105 1.386 . S
C104 C106 1.383 . S
C104 H120 0.951 . S
C105 C104 1.386 . S
C105 C109 1.383 . S
C106 C104 1.383 . S
C106 C107 1.402 . S
C106 H121 0.951 . S
C107 C106 1.402 . S
C107 C108 1.375 . S
C107 C110 1.481 . S
C108 C107 1.375 . S
C108 C109 1.367 . S
C108 H122 0.951 . S
C109 C105 1.383 . S
C109 C108 1.367 . S
C109 H123 0.950 . S
C110 C107 1.481 . S
C110 C111 1.297 1_545 S
C110 H124 0.950 1_455 S
C111 C110 1.297 1_565 S
C111 C112 1.479 1_455 S
C111 H125 0.950 . S
C112 C111 1.479 1_655 S
C112 C113 1.375 . S
C112 C118 1.404 . S
C113 C112 1.375 . S
C113 C114 1.369 . S
C113 H126 0.950 . S
C114 C113 1.369 . S
C114 C115 1.392 . S
C114 H127 0.951 . S
C115 C114 1.392 . S
C115 C117 1.384 . S
H116 C118 0.949 . S
C117 C115 1.384 . S
C117 C118 1.385 . S
C117 H119 0.950 . S
C118 C112 1.404 . S
C118 H116 0.949 . S
C118 C117 1.385 . S
H119 C117 0.950 . S
H120 C104 0.951 . S
H121 C106 0.951 . S
H122 C108 0.951 . S
H123 C109 0.950 . S
H124 C110 0.950 1_655 S
H125 C111 0.950 . S
H126 C113 0.950 . S
H127 C114 0.951 . S
C128 C129 1.386 . S
C128 C130 1.383 . S
C128 H144 0.951 . S
C129 C128 1.386 . S
C129 C133 1.383 . S
C130 C128 1.383 . S
C130 C131 1.402 . S
C130 H145 0.951 1_455 S
C131 C130 1.402 . S
C131 C132 1.375 . S
C131 C134 1.481 1_556 S
C132 C131 1.375 . S
C132 C133 1.367 . S
C132 H146 0.951 1_556 S
C133 C129 1.383 . S
C133 C132 1.367 . S
C133 H147 0.950 . S
C134 C131 1.481 1_554 S
C134 C135 1.297 1_455 S
C134 H148 0.950 . S
C135 C134 1.297 1_655 S
C135 C136 1.480 1_565 S
C135 H149 0.950 1_554 S
C136 C135 1.480 1_545 S
C136 C137 1.375 . S
C136 C142 1.404 . S
C137 C136 1.375 . S
C137 C138 1.369 . S
C137 H150 0.950 . S
C138 C137 1.369 . S
C138 C139 1.392 . S
C138 H151 0.951 . S
C139 C138 1.392 . S
C139 C141 1.384 . S
H140 C142 0.949 . S
C141 C139 1.384 . S
C141 C142 1.385 . S
C141 H143 0.950 . S
C142 C136 1.404 . S
C142 H140 0.949 . S
C142 C141 1.385 . S
H143 C141 0.950 . S
H144 C128 0.951 . S
H145 C130 0.951 1_655 S
H146 C132 0.951 1_554 S
H147 C133 0.950 . S
H148 C134 0.950 . S
H149 C135 0.950 1_556 S
H150 C137 0.950 . S
H151 C138 0.951 . S
C152 C153 1.386 . S
C152 C154 1.383 . S
C152 H168 0.951 . S
C153 C152 1.386 . S
C153 C157 1.383 . S
C154 C152 1.383 . S
C154 C155 1.402 . S
C154 H169 0.951 . S
C155 C154 1.402 . S
C155 C156 1.375 . S
C155 C158 1.481 . S
C156 C155 1.375 . S
C156 C157 1.367 . S
C156 H170 0.951 . S
C157 C153 1.383 . S
C157 C156 1.367 . S
C157 H171 0.950 . S
C158 C155 1.481 . S
C158 C159 1.297 . S
C158 H172 0.950 . S
C159 C158 1.297 . S
C159 C160 1.479 . S
C159 H173 0.950 . S
C160 C159 1.479 . S
C160 C161 1.375 . S
C160 C166 1.404 . S
C161 C160 1.375 . S
C161 C162 1.369 . S
C161 H174 0.950 . S
C162 C161 1.369 . S
C162 C163 1.392 . S
C162 H175 0.951 . S
C163 C162 1.392 . S
C163 C165 1.384 . S
H164 C166 0.949 . S
C165 C163 1.384 . S
C165 C166 1.385 . S
C165 H167 0.950 . S
C166 C160 1.404 . S
C166 H164 0.949 . S
C166 C165 1.385 . S
H167 C165 0.950 . S
H168 C152 0.951 . S
H169 C154 0.951 . S
H170 C156 0.951 . S
H171 C157 0.950 . S
H172 C158 0.950 . S
H173 C159 0.950 . S
H174 C161 0.950 . S
H175 C162 0.951 . S
C176 C177 1.386 . S
C176 C178 1.383 . S
C176 H192 0.951 . S
C177 C176 1.386 . S
C177 C181 1.383 . S
C178 C176 1.383 . S
C178 C179 1.402 . S
C178 H193 0.951 . S
C179 C178 1.402 . S
C179 C180 1.375 . S
C179 C182 1.481 1_554 S
C180 C179 1.375 . S
C180 C181 1.367 . S
C180 H194 0.951 . S
C181 C177 1.383 . S
C181 C180 1.367 . S
C181 H195 0.950 . S
C182 C179 1.481 1_556 S
C182 C183 1.297 . S
C182 H196 0.950 . S
C183 C182 1.297 . S
C183 C184 1.479 . S
C183 H197 0.950 . S
C184 C183 1.479 . S
C184 C185 1.375 . S
C184 C190 1.404 . S
C185 C184 1.375 . S
C185 C186 1.369 . S
C185 H198 0.950 . S
C186 C185 1.369 . S
C186 C187 1.392 . S
C186 H199 0.951 . S
C187 C186 1.392 . S
C187 C189 1.384 . S
H188 C190 0.949 . S
C189 C187 1.384 . S
C189 C190 1.385 . S
C189 H191 0.950 . S
C190 C184 1.404 . S
C190 H188 0.949 . S
C190 C189 1.385 . S
H191 C189 0.950 . S
H192 C176 0.951 . S
H193 C178 0.951 . S
H194 C180 0.951 . S
H195 C181 0.950 . S
H196 C182 0.950 . S
H197 C183 0.950 . S
H198 C185 0.950 . S
H199 C186 0.951 . S
C200 C201 1.386 . S
C200 C202 1.383 . S
C200 H216 0.951 . S
C201 C200 1.386 . S
C201 C205 1.383 . S
C202 C200 1.383 . S
C202 C203 1.402 . S
C202 H217 0.951 1_554 S
C203 C202 1.402 . S
C203 C204 1.375 . S
C203 C206 1.481 . S
C204 C203 1.375 . S
C204 C205 1.367 . S
C204 H218 0.951 . S
C205 C201 1.383 . S
C205 C204 1.367 . S
C205 H219 0.950 . S
C206 C203 1.481 . S
C206 C207 1.297 1_554 S
C206 H220 0.950 . S
C207 C206 1.297 1_556 S
C207 C208 1.479 1_655 S
C207 H221 0.950 . S
C208 C207 1.479 1_455 S
C208 C209 1.375 . S
C208 C214 1.404 . S
C209 C208 1.375 . S
C209 C210 1.369 . S
C209 H222 0.950 . S
C210 C209 1.369 . S
C210 C211 1.392 . S
C210 H223 0.951 . S
C211 C210 1.392 . S
C211 C213 1.384 . S
H212 C214 0.949 1_554 S
C213 C211 1.384 . S
C213 C214 1.385 . S
C213 H215 0.950 . S
C214 C208 1.404 . S
C214 H212 0.949 1_556 S
C214 C213 1.385 . S
H215 C213 0.950 . S
H216 C200 0.951 . S
H217 C202 0.951 1_556 S
H218 C204 0.951 . S
H219 C205 0.950 . S
H220 C206 0.950 . S
H221 C207 0.950 . S
H222 C209 0.950 . S
H223 C210 0.951 . S
C224 C225 1.386 . S
C224 C226 1.383 . S
C224 H240 0.951 . S
C225 C224 1.386 . S
C225 C229 1.383 . S
C226 C224 1.383 . S
C226 C227 1.402 . S
C226 H241 0.951 . S
C227 C226 1.402 . S
C227 C228 1.375 . S
C227 C230 1.481 . S
C228 C227 1.375 . S
C228 C229 1.367 . S
C228 H242 0.951 . S
C229 C225 1.383 . S
C229 C228 1.367 . S
C229 H243 0.950 . S
C230 C227 1.481 . S
C230 C231 1.297 1_455 S
C230 H244 0.950 . S
C231 C230 1.297 1_655 S
C231 C232 1.479 . S
C231 H245 0.950 . S
C232 C231 1.479 . S
C232 C233 1.375 . S
C232 C238 1.404 . S
C233 C232 1.375 . S
C233 C234 1.369 . S
C233 H246 0.950 . S
C234 C233 1.369 . S
C234 C235 1.392 . S
C234 H247 0.951 . S
C235 C234 1.392 . S
C235 C237 1.384 . S
H236 C238 0.949 . S
C237 C235 1.384 . S
C237 C238 1.385 . S
C237 H239 0.950 . S
C238 C232 1.404 . S
C238 H236 0.949 . S
C238 C237 1.385 . S
H239 C237 0.950 . S
H240 C224 0.951 . S
H241 C226 0.951 . S
H242 C228 0.951 . S
H243 C229 0.950 . S
H244 C230 0.950 . S
H245 C231 0.950 . S
H246 C233 0.950 . S
H247 C234 0.951 . S
C248 C249 1.386 . S
C248 C250 1.383 . S
C248 H264 0.951 . S
C249 C248 1.386 . S
C249 C253 1.383 . S
C250 C248 1.383 . S
C250 C251 1.402 . S
C250 H265 0.951 1_556 S
C251 C250 1.402 . S
C251 C252 1.375 . S
C251 C254 1.481 . S
C252 C251 1.375 . S
C252 C253 1.367 . S
C252 H266 0.951 . S
C253 C249 1.383 . S
C253 C252 1.367 . S
C253 H267 0.950 . S
C254 C251 1.481 . S
C254 C255 1.297 1_556 S
C254 H268 0.950 1_545 S
C255 C254 1.297 1_554 S
C255 C256 1.479 1_545 S
C255 H269 0.950 . S
C256 C255 1.479 1_565 S
C256 C257 1.375 . S
C256 C262 1.404 . S
C257 C256 1.375 . S
C257 C258 1.369 . S
C257 H270 0.950 . S
C258 C257 1.369 . S
C258 C259 1.392 . S
C258 H271 0.951 . S
C259 C258 1.392 . S
C259 C261 1.384 . S
H260 C262 0.949 1_556 S
C261 C259 1.384 . S
C261 C262 1.385 . S
C261 H263 0.950 . S
C262 C256 1.404 . S
C262 H260 0.949 1_554 S
C262 C261 1.385 . S
H263 C261 0.950 . S
H264 C248 0.951 . S
H265 C250 0.951 1_554 S
H266 C252 0.951 . S
H267 C253 0.950 . S
H268 C254 0.950 1_565 S
H269 C255 0.950 . S
H270 C257 0.950 . S
H271 C258 0.951 . S
C272 C273 1.386 . S
C272 C274 1.383 . S
C272 H288 0.951 . S
C273 C272 1.386 . S
C273 C277 1.383 . S
C274 C272 1.383 . S
C274 C275 1.402 . S
C274 H289 0.951 . S
C275 C274 1.402 . S
C275 C276 1.375 . S
C275 C278 1.481 1_565 S
C276 C275 1.375 . S
C276 C277 1.367 . S
C276 H290 0.951 1_565 S
C277 C273 1.383 . S
C277 C276 1.367 . S
C277 H291 0.950 . S
C278 C275 1.481 1_545 S
C278 C279 1.297 . S
C278 H292 0.950 . S
C279 C278 1.297 . S
C279 C280 1.479 . S
C279 H293 0.950 1_545 S
C280 C279 1.479 . S
C280 C281 1.375 . S
C280 C286 1.404 . S
C281 C280 1.375 . S
C281 C282 1.369 . S
C281 H294 0.953 . S
C282 C281 1.369 . S
C282 C283 1.392 . S
C282 H295 0.951 . S
C283 C282 1.392 . S
C283 C285 1.384 . S
H284 C286 0.949 . S
C285 C283 1.384 . S
C285 C286 1.385 . S
C285 H287 0.950 . S
C286 C280 1.404 . S
C286 H284 0.949 . S
C286 C285 1.385 . S
H287 C285 0.950 . S
H288 C272 0.951 . S
H289 C274 0.951 . S
H290 C276 0.951 1_545 S
H291 C277 0.950 . S
H292 C278 0.950 . S
H293 C279 0.950 1_565 S
H294 C281 0.953 . S
H295 C282 0.951 . S
C296 C297 1.386 . S
C296 C298 1.383 . S
C296 H312 0.951 . S
C297 C296 1.386 . S
C297 C301 1.383 . S
C298 C296 1.383 . S
C298 C299 1.402 . S
C298 H313 0.951 . S
C299 C298 1.402 . S
C299 C300 1.375 . S
C299 C302 1.481 . S
C300 C299 1.375 . S
C300 C301 1.367 . S
C300 H314 0.951 . S
C301 C297 1.383 . S
C301 C300 1.367 . S
C301 H315 0.950 . S
C302 C299 1.481 . S
C302 C303 1.297 . S
C302 H316 0.950 . S
C303 C302 1.297 . S
C303 C304 1.479 . S
C303 H317 0.950 . S
C304 C303 1.479 . S
C304 C305 1.375 . S
C304 C310 1.404 . S
C305 C304 1.375 . S
C305 C306 1.369 . S
C305 H318 0.950 . S
C306 C305 1.369 . S
C306 C307 1.392 . S
C306 H319 0.951 . S
C307 C306 1.392 . S
C307 C309 1.384 . S
H308 C310 0.949 . S
C309 C307 1.384 . S
C309 C310 1.385 . S
C309 H311 0.950 . S
C310 C304 1.404 . S
C310 H308 0.949 . S
C310 C309 1.385 . S
H311 C309 0.950 . S
H312 C296 0.951 . S
H313 C298 0.951 . S
H314 C300 0.951 . S
H315 C301 0.950 . S
H316 C302 0.950 . S
H317 C303 0.950 . S
H318 C305 0.950 . S
H319 C306 0.951 . S
C320 C321 1.386 . S
C320 C322 1.383 . S
C320 H336 0.951 . S
C321 C320 1.386 . S
C321 C325 1.383 . S
C322 C320 1.383 . S
C322 C323 1.402 . S
C322 H337 0.951 . S
C323 C322 1.402 . S
C323 C324 1.375 . S
C323 C326 1.481 . S
C324 C323 1.375 . S
C324 C325 1.367 . S
C324 H338 0.951 . S
C325 C321 1.383 . S
C325 C324 1.367 . S
C325 H339 0.950 . S
C326 C323 1.481 . S
C326 C327 1.297 1_556 S
C326 H340 0.950 . S
C327 C326 1.297 1_554 S
C327 C328 1.479 . S
C327 H341 0.950 . S
C328 C327 1.479 . S
C328 C329 1.375 . S
C328 C334 1.404 . S
C329 C328 1.375 . S
C329 C330 1.369 . S
C329 H342 0.950 . S
C330 C329 1.369 . S
C330 C331 1.392 . S
C330 H343 0.951 . S
C331 C330 1.392 . S
C331 C333 1.384 . S
H332 C334 0.949 . S
C333 C331 1.384 . S
C333 C334 1.385 . S
C333 H335 0.950 . S
C334 C328 1.404 . S
C334 H332 0.949 . S
C334 C333 1.385 . S
H335 C333 0.950 . S
H336 C320 0.951 . S
H337 C322 0.951 . S
H338 C324 0.951 . S
H339 C325 0.950 . S
H340 C326 0.950 . S
H341 C327 0.950 . S
H342 C329 0.950 . S
H343 C330 0.951 . S
C344 C345 1.386 . S
C344 C346 1.383 . S
C344 H360 0.951 . S
C345 C344 1.386 . S
C345 C349 1.383 . S
C346 C344 1.383 . S
C346 C347 1.402 . S
C346 H361 0.951 . S
C347 C346 1.402 . S
C347 C348 1.375 . S
C347 C350 1.481 . S
C348 C347 1.375 . S
C348 C349 1.367 . S
C348 H362 0.951 . S
C349 C345 1.383 . S
C349 C348 1.367 . S
C349 H363 0.950 . S
C350 C347 1.481 . S
C350 C351 1.297 . S
C350 H364 0.950 . S
C351 C350 1.297 . S
C351 C352 1.479 . S
C351 H365 0.950 . S
C352 C351 1.479 . S
C352 C353 1.375 . S
C352 C358 1.404 . S
C353 C352 1.375 . S
C353 C354 1.369 . S
C353 H366 0.950 . S
C354 C353 1.369 . S
C354 C355 1.392 . S
C354 H367 0.951 . S
C355 C354 1.392 . S
C355 C357 1.384 . S
H356 C358 0.949 . S
C357 C355 1.384 . S
C357 C358 1.385 . S
C357 H359 0.950 . S
C358 C352 1.404 . S
C358 H356 0.949 . S
C358 C357 1.385 . S
H359 C357 0.950 . S
H360 C344 0.951 . S
H361 C346 0.951 . S
H362 C348 0.951 . S
H363 C349 0.950 . S
H364 C350 0.950 . S
H365 C351 0.950 . S
H366 C353 0.950 . S
H367 C354 0.951 . S
C368 C369 1.386 . S
C368 C370 1.383 . S
C368 H384 0.951 . S
C369 C368 1.386 . S
C369 C373 1.383 . S
C370 C368 1.383 . S
C370 C371 1.402 . S
C370 H385 0.951 . S
C371 C370 1.402 . S
C371 C372 1.375 . S
C371 C374 1.481 . S
C372 C371 1.375 . S
C372 C373 1.367 . S
C372 H386 0.951 . S
C373 C369 1.383 . S
C373 C372 1.367 . S
C373 H387 0.950 . S
C374 C371 1.481 . S
C374 C375 1.297 1_554 S
C374 H388 0.950 . S
C375 C374 1.297 1_556 S
C375 C376 1.479 . S
C375 H389 0.950 . S
C376 C375 1.479 . S
C376 C377 1.375 . S
C376 C382 1.404 . S
C377 C376 1.375 . S
C377 C378 1.369 . S
C377 H390 0.950 . S
C378 C377 1.369 . S
C378 C379 1.392 . S
C378 H391 0.951 . S
C379 C378 1.392 . S
C379 C381 1.384 . S
H380 C382 0.949 . S
C381 C379 1.384 . S
C381 C382 1.385 . S
C381 H383 0.950 . S
C382 C376 1.404 . S
C382 H380 0.949 . S
C382 C381 1.385 . S
H383 C381 0.950 . S
H384 C368 0.951 . S
H385 C370 0.951 . S
H386 C372 0.951 . S
H387 C373 0.950 . S
H388 C374 0.950 . S
H389 C375 0.950 . S
H390 C377 0.950 . S
H391 C378 0.951 . S
C392 C393 1.386 . S
C392 C394 1.383 . S
C392 H408 0.951 . S
C393 C392 1.386 . S
C393 C397 1.383 . S
C394 C392 1.383 . S
C394 C395 1.402 . S
C394 H409 0.951 . S
C395 C394 1.402 . S
C395 C396 1.375 . S
C395 C398 1.481 . S
C396 C395 1.375 . S
C396 C397 1.367 . S
C396 H410 0.951 . S
C397 C393 1.383 . S
C397 C396 1.367 . S
C397 H411 0.950 . S
C398 C395 1.481 . S
C398 C399 1.297 . S
C398 H412 0.950 . S
C399 C398 1.297 . S
C399 C400 1.479 . S
C399 H413 0.950 . S
C400 C399 1.479 . S
C400 C401 1.375 . S
C400 C406 1.404 . S
C401 C400 1.375 . S
C401 C402 1.369 . S
C401 H414 0.950 . S
C402 C401 1.369 . S
C402 C403 1.392 . S
C402 H415 0.951 . S
C403 C402 1.392 . S
C403 C405 1.384 . S
H404 C406 0.949 . S
C405 C403 1.384 . S
C405 C406 1.385 . S
C405 H407 0.950 . S
C406 C400 1.404 . S
C406 H404 0.949 . S
C406 C405 1.385 . S
H407 C405 0.950 . S
H408 C392 0.951 . S
H409 C394 0.951 . S
H410 C396 0.951 . S
H411 C397 0.950 . S
H412 C398 0.950 . S
H413 C399 0.950 . S
H414 C401 0.950 . S
H415 C402 0.951 . S
C416 C417 1.386 . S
C416 C418 1.383 . S
C416 H432 0.951 . S
C417 C416 1.386 . S
C417 C421 1.383 . S
C418 C416 1.383 . S
C418 C419 1.402 . S
C418 H433 0.951 . S
C419 C418 1.402 . S
C419 C420 1.375 . S
C419 C422 1.481 . S
C420 C419 1.375 . S
C420 C421 1.367 . S
C420 H434 0.951 . S
C421 C417 1.383 . S
C421 C420 1.367 . S
C421 H435 0.950 . S
C422 C419 1.481 . S
C422 C423 1.297 . S
C422 H436 0.950 . S
C423 C422 1.297 . S
C423 C424 1.479 . S
C423 H437 0.950 . S
C424 C423 1.479 . S
C424 C425 1.375 . S
C424 C430 1.404 . S
C425 C424 1.375 . S
C425 C426 1.369 . S
C425 H438 0.950 . S
C426 C425 1.369 . S
C426 C427 1.392 . S
C426 H439 0.951 . S
C427 C426 1.392 . S
C427 C429 1.384 . S
H428 C430 0.949 . S
C429 C427 1.384 . S
C429 C430 1.385 . S
C429 H431 0.950 . S
C430 C424 1.404 . S
C430 H428 0.949 . S
C430 C429 1.385 . S
H431 C429 0.950 . S
H432 C416 0.951 . S
H433 C418 0.951 . S
H434 C420 0.951 . S
H435 C421 0.950 . S
H436 C422 0.950 . S
H437 C423 0.950 . S
H438 C425 0.950 . S
H439 C426 0.951 . S
C440 C441 1.386 . S
C440 C442 1.383 . S
C440 H456 0.951 . S
C441 C440 1.386 . S
C441 C445 1.383 . S
C442 C440 1.383 . S
C442 C443 1.402 . S
C442 H457 0.951 . S
C443 C442 1.402 . S
C443 C444 1.375 . S
C443 C446 1.481 . S
C444 C443 1.375 . S
C444 C445 1.367 . S
C444 H458 0.951 . S
C445 C441 1.383 . S
C445 C444 1.367 . S
C445 H459 0.950 . S
C446 C443 1.481 . S
C446 C447 1.297 1_455 S
C446 H460 0.950 . S
C447 C446 1.297 1_655 S
C447 C448 1.479 . S
C447 H461 0.950 1_655 S
C448 C447 1.479 . S
C448 C449 1.375 . S
C448 C454 1.404 . S
C449 C448 1.375 . S
C449 C450 1.369 . S
C449 H462 0.950 . S
C450 C449 1.369 . S
C450 C451 1.392 . S
C450 H463 0.951 . S
C451 C450 1.392 . S
C451 C453 1.384 . S
H452 C454 0.949 . S
C453 C451 1.384 . S
C453 C454 1.385 . S
C453 H455 0.950 . S
C454 C448 1.404 . S
C454 H452 0.949 . S
C454 C453 1.385 . S
H455 C453 0.950 . S
H456 C440 0.951 . S
H457 C442 0.951 . S
H458 C444 0.951 . S
H459 C445 0.950 . S
H460 C446 0.950 . S
H461 C447 0.950 1_455 S
H462 C449 0.950 . S
H463 C450 0.951 . S
C464 C465 1.386 . S
C464 C466 1.383 . S
C464 H480 0.951 . S
C465 C464 1.386 . S
C465 C469 1.383 . S
C466 C464 1.383 . S
C466 C467 1.402 . S
C466 H481 0.951 . S
C467 C466 1.402 . S
C467 C468 1.375 . S
C467 C470 1.481 . S
C468 C467 1.375 . S
C468 C469 1.367 . S
C468 H482 0.951 . S
C469 C465 1.383 . S
C469 C468 1.367 . S
C469 H483 0.950 . S
C470 C467 1.481 . S
C470 C471 1.297 1_455 S
C470 H484 0.950 . S
C471 C470 1.297 1_655 S
C471 C472 1.479 . S
C471 H485 0.950 . S
C472 C471 1.479 . S
C472 C473 1.375 . S
C472 C478 1.404 . S
C473 C472 1.375 . S
C473 C474 1.369 . S
C473 H486 0.950 . S
C474 C473 1.369 . S
C474 C475 1.392 . S
C474 H487 0.951 . S
C475 C474 1.392 . S
C475 C477 1.384 . S
H476 C478 0.949 . S
C477 C475 1.384 . S
C477 C478 1.385 . S
C477 H479 0.950 . S
C478 C472 1.404 . S
C478 H476 0.949 . S
C478 C477 1.385 . S
H479 C477 0.950 . S
H480 C464 0.951 . S
H481 C466 0.951 . S
H482 C468 0.951 . S
H483 C469 0.950 . S
H484 C470 0.950 . S
H485 C471 0.950 . S
H486 C473 0.950 . S
H487 C474 0.951 . S
C105 C4 1.881 . S
C115 C30 1.896 . S
C129 C49 1.884 . S
C139 C17 1.876 . S
C153 C82 1.900 . S
C163 C56 1.870 . S
C177 C69 1.890 . S
C187 C95 1.896 . S
C201 C23 1.190 . S
C211 C43 1.148 . S
C225 C10 1.183 . S
C235 C36 1.202 . S
C249 C101 1.166 . S
C259 C75 1.201 . S
C273 C62 1.195 . S
C283 C88 1.148 . S
C297 C68 1.518 . S
C307 C44 1.528 . S
C321 C29 1.517 . S
C331 C55 1.525 . S
C345 C16 1.518 . S
C355 C94 1.514 . S
C369 C3 1.524 . S
C379 C81 1.504 . S
C393 C5 1.542 . S
C403 C18 1.540 . S
C417 C31 1.555 . S
C427 C42 1.538 . S
C441 C70 1.542 . S
C451 C57 1.538 . S
C465 C83 1.552 . S
C475 C96 1.531 . S
