# Generated by pormake.
# Topology umu, (4)-cn, num edge types: 1
# Building blocks:
#     Node 0, Type 0, BuildingBlock: NAHDIM_clean_sbu_0, # of connection points: 4
#     Node 1, Type 0, BuildingBlock: NAHDIM_clean_sbu_0, # of connection points: 4
#     Node 2, Type 0, BuildingBlock: NAHDIM_clean_sbu_0, # of connection points: 4
#     Node 3, Type 0, BuildingBlock: NAHDIM_clean_sbu_0, # of connection points: 4
#     Node 4, Type 0, BuildingBlock: NAHDIM_clean_sbu_0, # of connection points: 4
#     Node 5, Type 0, BuildingBlock: NAHDIM_clean_sbu_0, # of connection points: 4
#     Node 6, Type 0, BuildingBlock: NAHDIM_clean_sbu_0, # of connection points: 4
#     Node 7, Type 0, BuildingBlock: NAHDIM_clean_sbu_0, # of connection points: 4
#     Node 8, Type 0, BuildingBlock: NAHDIM_clean_sbu_0, # of connection points: 4
#     Node 9, Type 0, BuildingBlock: NAHDIM_clean_sbu_0, # of connection points: 4
#     Node 10, Type 0, BuildingBlock: NAHDIM_clean_sbu_0, # of connection points: 4
#     Node 11, Type 0, BuildingBlock: NAHDIM_clean_sbu_0, # of connection points: 4
#     Node 12, Type 0, BuildingBlock: NAHDIM_clean_sbu_0, # of connection points: 4
#     Node 13, Type 0, BuildingBlock: NAHDIM_clean_sbu_0, # of connection points: 4
#     Node 14, Type 0, BuildingBlock: NAHDIM_clean_sbu_0, # of connection points: 4
#     Node 15, Type 0, BuildingBlock: NAHDIM_clean_sbu_0, # of connection points: 4
#     Node 16, Type 0, BuildingBlock: NAHDIM_clean_sbu_0, # of connection points: 4
#     Node 17, Type 0, BuildingBlock: NAHDIM_clean_sbu_0, # of connection points: 4
#     Node 18, Type 0, BuildingBlock: NAHDIM_clean_sbu_0, # of connection points: 4
#     Node 19, Type 0, BuildingBlock: NAHDIM_clean_sbu_0, # of connection points: 4
#     Node 20, Type 0, BuildingBlock: NAHDIM_clean_sbu_0, # of connection points: 4
#     Node 21, Type 0, BuildingBlock: NAHDIM_clean_sbu_0, # of connection points: 4
#     Node 22, Type 0, BuildingBlock: NAHDIM_clean_sbu_0, # of connection points: 4
#     Node 23, Type 0, BuildingBlock: NAHDIM_clean_sbu_0, # of connection points: 4
#     Node 24, Type 0, BuildingBlock: NAHDIM_clean_sbu_0, # of connection points: 4
#     Node 25, Type 0, BuildingBlock: NAHDIM_clean_sbu_0, # of connection points: 4
#     Node 26, Type 0, BuildingBlock: NAHDIM_clean_sbu_0, # of connection points: 4
#     Node 27, Type 0, BuildingBlock: NAHDIM_clean_sbu_0, # of connection points: 4
#     Node 28, Type 0, BuildingBlock: NAHDIM_clean_sbu_0, # of connection points: 4
#     Node 29, Type 0, BuildingBlock: NAHDIM_clean_sbu_0, # of connection points: 4
#     Node 30, Type 0, BuildingBlock: NAHDIM_clean_sbu_0, # of connection points: 4
#     Node 31, Type 0, BuildingBlock: NAHDIM_clean_sbu_0, # of connection points: 4
#     Edge 32, Type (0, 0), BuildingBlock: XIVTED_clean_linker_0, # of connection points: 2
#     Edge 33, Type (0, 0), BuildingBlock: XIVTED_clean_linker_0, # of connection points: 2
#     Edge 34, Type (0, 0), BuildingBlock: XIVTED_clean_linker_0, # of connection points: 2
#     Edge 35, Type (0, 0), BuildingBlock: XIVTED_clean_linker_0, # of connection points: 2
#     Edge 36, Type (0, 0), BuildingBlock: XIVTED_clean_linker_0, # of connection points: 2
#     Edge 37, Type (0, 0), BuildingBlock: XIVTED_clean_linker_0, # of connection points: 2
#     Edge 38, Type (0, 0), BuildingBlock: XIVTED_clean_linker_0, # of connection points: 2
#     Edge 39, Type (0, 0), BuildingBlock: XIVTED_clean_linker_0, # of connection points: 2
#     Edge 40, Type (0, 0), BuildingBlock: XIVTED_clean_linker_0, # of connection points: 2
#     Edge 41, Type (0, 0), BuildingBlock: XIVTED_clean_linker_0, # of connection points: 2
#     Edge 42, Type (0, 0), BuildingBlock: XIVTED_clean_linker_0, # of connection points: 2
#     Edge 43, Type (0, 0), BuildingBlock: XIVTED_clean_linker_0, # of connection points: 2
#     Edge 44, Type (0, 0), BuildingBlock: XIVTED_clean_linker_0, # of connection points: 2
#     Edge 45, Type (0, 0), BuildingBlock: XIVTED_clean_linker_0, # of connection points: 2
#     Edge 46, Type (0, 0), BuildingBlock: XIVTED_clean_linker_0, # of connection points: 2
#     Edge 47, Type (0, 0), BuildingBlock: XIVTED_clean_linker_0, # of connection points: 2
#     Edge 48, Type (0, 0), BuildingBlock: XIVTED_clean_linker_0, # of connection points: 2
#     Edge 49, Type (0, 0), BuildingBlock: XIVTED_clean_linker_0, # of connection points: 2
#     Edge 50, Type (0, 0), BuildingBlock: XIVTED_clean_linker_0, # of connection points: 2
#     Edge 51, Type (0, 0), BuildingBlock: XIVTED_clean_linker_0, # of connection points: 2
#     Edge 52, Type (0, 0), BuildingBlock: XIVTED_clean_linker_0, # of connection points: 2
#     Edge 53, Type (0, 0), BuildingBlock: XIVTED_clean_linker_0, # of connection points: 2
#     Edge 54, Type (0, 0), BuildingBlock: XIVTED_clean_linker_0, # of connection points: 2
#     Edge 55, Type (0, 0), BuildingBlock: XIVTED_clean_linker_0, # of connection points: 2
#     Edge 56, Type (0, 0), BuildingBlock: XIVTED_clean_linker_0, # of connection points: 2
#     Edge 57, Type (0, 0), BuildingBlock: XIVTED_clean_linker_0, # of connection points: 2
#     Edge 58, Type (0, 0), BuildingBlock: XIVTED_clean_linker_0, # of connection points: 2
#     Edge 59, Type (0, 0), BuildingBlock: XIVTED_clean_linker_0, # of connection points: 2
#     Edge 60, Type (0, 0), BuildingBlock: XIVTED_clean_linker_0, # of connection points: 2
#     Edge 61, Type (0, 0), BuildingBlock: XIVTED_clean_linker_0, # of connection points: 2
#     Edge 62, Type (0, 0), BuildingBlock: XIVTED_clean_linker_0, # of connection points: 2
#     Edge 63, Type (0, 0), BuildingBlock: XIVTED_clean_linker_0, # of connection points: 2
#     Edge 64, Type (0, 0), BuildingBlock: XIVTED_clean_linker_0, # of connection points: 2
#     Edge 65, Type (0, 0), BuildingBlock: XIVTED_clean_linker_0, # of connection points: 2
#     Edge 66, Type (0, 0), BuildingBlock: XIVTED_clean_linker_0, # of connection points: 2
#     Edge 67, Type (0, 0), BuildingBlock: XIVTED_clean_linker_0, # of connection points: 2
#     Edge 68, Type (0, 0), BuildingBlock: XIVTED_clean_linker_0, # of connection points: 2
#     Edge 69, Type (0, 0), BuildingBlock: XIVTED_clean_linker_0, # of connection points: 2
#     Edge 70, Type (0, 0), BuildingBlock: XIVTED_clean_linker_0, # of connection points: 2
#     Edge 71, Type (0, 0), BuildingBlock: XIVTED_clean_linker_0, # of connection points: 2
#     Edge 72, Type (0, 0), BuildingBlock: XIVTED_clean_linker_0, # of connection points: 2
#     Edge 73, Type (0, 0), BuildingBlock: XIVTED_clean_linker_0, # of connection points: 2
#     Edge 74, Type (0, 0), BuildingBlock: XIVTED_clean_linker_0, # of connection points: 2
#     Edge 75, Type (0, 0), BuildingBlock: XIVTED_clean_linker_0, # of connection points: 2
#     Edge 76, Type (0, 0), BuildingBlock: XIVTED_clean_linker_0, # of connection points: 2
#     Edge 77, Type (0, 0), BuildingBlock: XIVTED_clean_linker_0, # of connection points: 2
#     Edge 78, Type (0, 0), BuildingBlock: XIVTED_clean_linker_0, # of connection points: 2
#     Edge 79, Type (0, 0), BuildingBlock: XIVTED_clean_linker_0, # of connection points: 2
#     Edge 80, Type (0, 0), BuildingBlock: XIVTED_clean_linker_0, # of connection points: 2
#     Edge 81, Type (0, 0), BuildingBlock: XIVTED_clean_linker_0, # of connection points: 2
#     Edge 82, Type (0, 0), BuildingBlock: XIVTED_clean_linker_0, # of connection points: 2
#     Edge 83, Type (0, 0), BuildingBlock: XIVTED_clean_linker_0, # of connection points: 2
#     Edge 84, Type (0, 0), BuildingBlock: XIVTED_clean_linker_0, # of connection points: 2
#     Edge 85, Type (0, 0), BuildingBlock: XIVTED_clean_linker_0, # of connection points: 2
#     Edge 86, Type (0, 0), BuildingBlock: XIVTED_clean_linker_0, # of connection points: 2
#     Edge 87, Type (0, 0), BuildingBlock: XIVTED_clean_linker_0, # of connection points: 2
#     Edge 88, Type (0, 0), BuildingBlock: XIVTED_clean_linker_0, # of connection points: 2
#     Edge 89, Type (0, 0), BuildingBlock: XIVTED_clean_linker_0, # of connection points: 2
#     Edge 90, Type (0, 0), BuildingBlock: XIVTED_clean_linker_0, # of connection points: 2
#     Edge 91, Type (0, 0), BuildingBlock: XIVTED_clean_linker_0, # of connection points: 2
#     Edge 92, Type (0, 0), BuildingBlock: XIVTED_clean_linker_0, # of connection points: 2
#     Edge 93, Type (0, 0), BuildingBlock: XIVTED_clean_linker_0, # of connection points: 2
#     Edge 94, Type (0, 0), BuildingBlock: XIVTED_clean_linker_0, # of connection points: 2
#     Edge 95, Type (0, 0), BuildingBlock: XIVTED_clean_linker_0, # of connection points: 2
# Relax obj value: 0.142
# Max RMSD: 0.102
# Mean RMSD: 0.102
data_MOF--net-umu--node1-NAHDIM_clean_sbu_0--edge1-XIVTED_clean_linker_0
_symmetry_space_group_name_H-M    P1
_symmetry_Int_Tables_number       1
_symmetry_cell_setting            triclinic
loop_
_symmetry_equiv_pos_as_xyz
'x, y, z'
_cell_length_a     87.926598
_cell_length_b     87.92437
_cell_length_c     23.550029
_cell_angle_alpha  90.042466
_cell_angle_beta   89.956877
_cell_angle_gamma 90.000241
loop_
_atom_site_label
_atom_site_type_symbol
_atom_site_fract_x
_atom_site_fract_y
_atom_site_fract_z
_atom_type_partial_charge
C0 C 0.1812 0.13561 0.997 0.0
O1 O 0.19574 0.13217 0.99758 0.0
O2 O 0.20458 0.15707 0.10402 0.0
Zn3 Zn 0.19333 0.16369 0.03368 0.0
O4 O 0.20771 0.16501 0.96767 0.0
C5 C 0.18227 0.19009 0.09507 0.0
O6 O 0.18527 0.18182 0.14013 0.0
O7 O 0.17706 0.14878 0.01296 0.0
C8 C 0.2184 0.17472 0.96586 0.0
O9 O 0.22023 0.18417 0.00858 0.0
C10 C 0.21771 0.15102 0.10256 0.0
O11 O 0.22415 0.14828 0.05329 0.0
O12 O 0.18444 0.18448 0.04598 0.0
C13 C 0.1087 0.92859 0.26962 0.0
O14 O 0.11152 0.94325 0.27206 0.0
O15 O 0.08604 0.95144 0.37374 0.0
Zn16 Zn 0.08001 0.93951 0.30391 0.0
O17 O 0.07804 0.95294 0.23529 0.0
C18 C 0.05288 0.92928 0.3636 0.0
O19 O 0.05989 0.93441 0.40897 0.0
O20 O 0.09565 0.92379 0.28428 0.0
C21 C 0.07025 0.9651 0.2335 0.0
O22 O 0.06325 0.96989 0.27945 0.0
C23 C 0.09226 0.9645 0.37272 0.0
O24 O 0.09563 0.97076 0.32369 0.0
O25 O 0.05956 0.92984 0.31578 0.0
C26 C 0.31353 0.85561 0.48746 0.0
O27 O 0.29895 0.85881 0.49002 0.0
O28 O 0.29128 0.83547 0.59799 0.0
Zn29 Zn 0.30196 0.82784 0.52768 0.0
O30 O 0.28697 0.82609 0.46381 0.0
C31 C 0.31176 0.80092 0.58969 0.0
O32 O 0.30767 0.80868 0.63486 0.0
O33 O 0.31805 0.84256 0.50326 0.0
C34 C 0.29037 0.81908 0.41836 0.0
O35 O 0.30384 0.81272 0.41369 0.0
C36 C 0.27822 0.84164 0.5953 0.0
O37 O 0.27169 0.84337 0.54559 0.0
O38 O 0.31074 0.80706 0.54101 0.0
C39 C 0.3852 0.0632 0.75682 0.0
O40 O 0.38198 0.04862 0.75927 0.0
O41 O 0.4063 0.04057 0.86595 0.0
Zn42 Zn 0.41336 0.05196 0.79645 0.0
O43 O 0.41572 0.03741 0.73132 0.0
C44 C 0.43941 0.06312 0.86028 0.0
O45 O 0.4314 0.05912 0.90495 0.0
O46 O 0.39823 0.06771 0.77292 0.0
C47 C 0.42322 0.04101 0.68722 0.0
O48 O 0.42969 0.05446 0.68451 0.0
C49 C 0.40163 0.02692 0.86284 0.0
O50 O 0.40074 0.02029 0.81295 0.0
O51 O 0.43376 0.06146 0.81102 0.0
C52 C 0.18326 0.86152 0.0674 0.0
O53 O 0.19785 0.86474 0.06753 0.0
O54 O 0.20648 0.84287 0.95212 0.0
Zn55 Zn 0.19503 0.83464 0.01944 0.0
O56 O 0.20917 0.83132 0.08508 0.0
C57 C 0.17851 0.80657 0.032 0.0
O58 O 0.17572 0.81199 0.08297 0.0
O59 O 0.17886 0.84901 0.04598 0.0
C60 C 0.21962 0.82135 0.08506 0.0
O61 O 0.22151 0.81269 0.04009 0.0
C62 C 0.21988 0.84822 0.95552 0.0
O63 O 0.22641 0.84939 0.00547 0.0
O64 O 0.18616 0.81452 0.99724 0.0
C65 C 0.38729 0.93062 0.32397 0.0
O66 O 0.38362 0.94511 0.32324 0.0
O67 O 0.40877 0.95459 0.22017 0.0
Zn68 Zn 0.41541 0.94324 0.29024 0.0
O69 O 0.41632 0.95747 0.35678 0.0
C70 C 0.44281 0.9337 0.23092 0.0
O71 O 0.43542 0.93806 0.18529 0.0
O72 O 0.40065 0.92671 0.30946 0.0
C73 C 0.42574 0.96841 0.35877 0.0
O74 O 0.43513 0.97053 0.31607 0.0
C75 C 0.40216 0.96743 0.2224 0.0
O76 O 0.39898 0.97346 0.27205 0.0
O77 O 0.43633 0.93457 0.27907 0.0
C78 C 0.31378 0.13654 0.57034 0.0
O79 O 0.29916 0.13348 0.56899 0.0
O80 O 0.29165 0.15771 0.45863 0.0
Zn81 Zn 0.30266 0.16459 0.52924 0.0
O82 O 0.28784 0.16667 0.59369 0.0
C83 C 0.31308 0.19158 0.46875 0.0
O84 O 0.30814 0.18445 0.42333 0.0
O85 O 0.31836 0.14943 0.55302 0.0
C86 C 0.29127 0.1741 0.63814 0.0
O87 O 0.30466 0.18068 0.64149 0.0
C88 C 0.27802 0.1529 0.46075 0.0
O89 O 0.27119 0.15183 0.51019 0.0
O90 O 0.31223 0.18507 0.5168 0.0
C91 C 0.10675 0.06158 0.83146 0.0
O92 O 0.10978 0.04695 0.83127 0.0
O93 O 0.08419 0.03781 0.73054 0.0
Zn94 Zn 0.07805 0.05002 0.79955 0.0
O95 O 0.07624 0.03695 0.86922 0.0
C96 C 0.05172 0.0611 0.73753 0.0
O97 O 0.05951 0.05696 0.69249 0.0
O98 O 0.09357 0.06602 0.81695 0.0
C99 C 0.06888 0.02454 0.87136 0.0
O100 O 0.06218 0.01936 0.8254 0.0
C101 C 0.09078 0.02494 0.73197 0.0
O102 O 0.09442 0.01893 0.78115 0.0
O103 O 0.05759 0.05955 0.78647 0.0
C104 C 0.81513 0.85959 0.06318 0.0
O105 O 0.80059 0.86298 0.06076 0.0
O106 O 0.7923 0.83782 0.95595 0.0
Zn107 Zn 0.80347 0.83128 0.02654 0.0
O108 O 0.7889 0.82961 0.09182 0.0
C109 C 0.8144 0.80463 0.96593 0.0
O110 O 0.81076 0.81246 0.92045 0.0
O111 O 0.81945 0.84639 0.04832 0.0
C112 C 0.77842 0.81967 0.09265 0.0
O113 O 0.77697 0.81031 0.04947 0.0
C114 C 0.77912 0.84375 0.95739 0.0
O115 O 0.77265 0.84643 0.00667 0.0
O116 O 0.81268 0.81061 0.01465 0.0
C117 C 0.88392 0.06467 0.81954 0.0
O118 O 0.88048 0.05015 0.81735 0.0
O119 O 0.9058 0.04162 0.71219 0.0
Zn120 Zn 0.91219 0.05283 0.78299 0.0
O121 O 0.91358 0.03831 0.84843 0.0
C122 C 0.93945 0.06315 0.72437 0.0
O123 O 0.93206 0.05915 0.67825 0.0
O124 O 0.89712 0.06892 0.80438 0.0
C125 C 0.92341 0.02774 0.84978 0.0
O126 O 0.93284 0.0261 0.80689 0.0
C127 C 0.8996 0.02856 0.71383 0.0
O128 O 0.89657 0.02233 0.76322 0.0
O129 O 0.93298 0.06187 0.77239 0.0
C130 C 0.67984 0.13778 0.58667 0.0
O131 O 0.6944 0.13446 0.58589 0.0
O132 O 0.703 0.15894 0.47828 0.0
Zn133 Zn 0.69173 0.16573 0.54843 0.0
O134 O 0.70604 0.16721 0.6145 0.0
C135 C 0.68119 0.19238 0.4872 0.0
O136 O 0.6852 0.1846 0.44196 0.0
O137 O 0.67556 0.15082 0.56991 0.0
C138 C 0.71671 0.17692 0.6168 0.0
O139 O 0.71866 0.1864 0.5743 0.0
C140 C 0.71616 0.15296 0.48003 0.0
O141 O 0.7226 0.15046 0.52943 0.0
O142 O 0.68264 0.1864 0.536 0.0
C143 C 0.61029 0.93226 0.32615 0.0
O144 O 0.61377 0.94678 0.32487 0.0
O145 O 0.58791 0.95673 0.22799 0.0
Zn146 Zn 0.58159 0.94441 0.2963 0.0
O147 O 0.5797 0.95741 0.36611 0.0
C148 C 0.55518 0.93384 0.23343 0.0
O149 O 0.56308 0.9379 0.18856 0.0
O150 O 0.59687 0.92817 0.31329 0.0
C151 C 0.57171 0.96944 0.36774 0.0
O152 O 0.56469 0.97405 0.32163 0.0
C153 C 0.59427 0.9697 0.23033 0.0
O154 O 0.59758 0.97565 0.27998 0.0
O155 O 0.56105 0.9352 0.28246 0.0
C156 C 0.81158 0.13673 0.009 0.0
O157 O 0.79693 0.13383 0.0108 0.0
O158 O 0.79 0.15788 0.12315 0.0
Zn159 Zn 0.80089 0.16475 0.05224 0.0
O160 O 0.7859 0.16715 0.9886 0.0
C161 C 0.81229 0.19125 0.11345 0.0
O162 O 0.80822 0.18371 0.15912 0.0
O163 O 0.81637 0.14949 0.02698 0.0
C164 C 0.78943 0.17461 0.94433 0.0
O165 O 0.80295 0.1809 0.9409 0.0
C166 C 0.7764 0.15298 0.12138 0.0
O167 O 0.76954 0.15177 0.07207 0.0
O168 O 0.8106 0.18515 0.06494 0.0
C169 C 0.60676 0.06495 0.76695 0.0
O170 O 0.6097 0.0503 0.76702 0.0
O171 O 0.58498 0.04159 0.87178 0.0
Zn172 Zn 0.5784 0.05353 0.80278 0.0
O173 O 0.5764 0.04014 0.734 0.0
C174 C 0.5515 0.06357 0.86453 0.0
O175 O 0.55874 0.05843 0.90935 0.0
O176 O 0.59376 0.0695 0.78321 0.0
C177 C 0.56941 0.02751 0.73308 0.0
O178 O 0.56319 0.02226 0.77988 0.0
C179 C 0.59202 0.02897 0.86971 0.0
O180 O 0.59575 0.02319 0.82019 0.0
O181 O 0.55793 0.06299 0.81621 0.0
C182 C 0.683 0.85648 0.49081 0.0
O183 O 0.69763 0.85955 0.49162 0.0
O184 O 0.70531 0.83553 0.60177 0.0
Zn185 Zn 0.69439 0.82854 0.53114 0.0
O186 O 0.70928 0.8268 0.46686 0.0
C187 C 0.68332 0.80201 0.59241 0.0
O188 O 0.68682 0.80992 0.63791 0.0
O189 O 0.67848 0.84356 0.50792 0.0
C190 C 0.70608 0.8195 0.42189 0.0
O191 O 0.69279 0.81276 0.4176 0.0
C192 C 0.71879 0.84074 0.59957 0.0
O193 O 0.72553 0.8421 0.55007 0.0
O194 O 0.68521 0.8079 0.54365 0.0
C195 C 0.88719 0.93308 0.24587 0.0
O196 O 0.88419 0.94772 0.24706 0.0
O197 O 0.90798 0.95546 0.35732 0.0
Zn198 Zn 0.91516 0.94415 0.28771 0.0
O199 O 0.9175 0.95878 0.22295 0.0
C200 C 0.94088 0.93235 0.35169 0.0
O201 O 0.93263 0.93592 0.3963 0.0
O202 O 0.90002 0.92845 0.2636 0.0
C203 C 0.92478 0.95527 0.17823 0.0
O204 O 0.93123 0.94183 0.17455 0.0
C205 C 0.90301 0.96901 0.35405 0.0
O206 O 0.90199 0.97556 0.3041 0.0
O207 O 0.93551 0.93456 0.30229 0.0
C208 C 0.68303 0.63483 0.49121 0.0
O209 O 0.69761 0.63156 0.49182 0.0
O210 O 0.7056 0.65607 0.60316 0.0
Zn211 Zn 0.69455 0.66278 0.53248 0.0
O212 O 0.70921 0.66465 0.46758 0.0
C213 C 0.6841 0.68975 0.59266 0.0
O214 O 0.68865 0.68242 0.63817 0.0
O215 O 0.67866 0.64773 0.50925 0.0
C216 C 0.71975 0.67452 0.46699 0.0
O217 O 0.72132 0.68375 0.5105 0.0
C218 C 0.71875 0.65007 0.60162 0.0
O219 O 0.72521 0.64742 0.55229 0.0
O220 O 0.68518 0.68337 0.54439 0.0
C221 C 0.60649 0.4319 0.73487 0.0
O222 O 0.60903 0.44661 0.73213 0.0
O223 O 0.58459 0.45555 0.83965 0.0
Zn224 Zn 0.57812 0.44311 0.77164 0.0
O225 O 0.57584 0.45604 0.70184 0.0
C226 C 0.55218 0.43226 0.83647 0.0
O227 O 0.5603 0.43652 0.8805 0.0
O228 O 0.59372 0.42724 0.75316 0.0
C229 C 0.56854 0.46849 0.69992 0.0
O230 O 0.56215 0.47384 0.74625 0.0
C231 C 0.59119 0.46839 0.8372 0.0
O232 O 0.59464 0.47423 0.78751 0.0
O233 O 0.55775 0.43357 0.78689 0.0
C234 C 0.81925 0.36036 0.04135 0.0
O235 O 0.80497 0.36428 0.04851 0.0
O236 O 0.79252 0.3364 0.12102 0.0
Zn237 Zn 0.80603 0.33127 0.05439 0.0
O238 O 0.79386 0.33191 0.98254 0.0
C239 C 0.81562 0.3037 0.1113 0.0
O240 O 0.81214 0.31134 0.15748 0.0
O241 O 0.82288 0.34641 0.04497 0.0
C242 C 0.78294 0.32282 0.97291 0.0
O243 O 0.77938 0.31255 0.01119 0.0
C244 C 0.77994 0.34339 0.11557 0.0
O245 O 0.77569 0.34805 0.06504 0.0
O246 O 0.81431 0.31012 0.06322 0.0
C247 C 0.88593 0.56771 0.27596 0.0
O248 O 0.88293 0.5531 0.27985 0.0
O249 O 0.90765 0.54658 0.38915 0.0
Zn250 Zn 0.91424 0.55722 0.31723 0.0
O251 O 0.91639 0.54204 0.25411 0.0
C252 C 0.94335 0.56454 0.36878 0.0
O253 O 0.93838 0.55604 0.41071 0.0
O254 O 0.89884 0.57255 0.29203 0.0
C255 C 0.923 0.54586 0.20832 0.0
O256 O 0.92843 0.55972 0.20332 0.0
C257 C 0.90243 0.5331 0.38753 0.0
O258 O 0.90082 0.52632 0.3382 0.0
O259 O 0.93473 0.56704 0.32656 0.0
C260 C 0.68307 0.35991 0.56985 0.0
O261 O 0.69749 0.3637 0.56608 0.0
O262 O 0.70865 0.33561 0.47904 0.0
Zn263 Zn 0.69491 0.33033 0.54431 0.0
O264 O 0.70774 0.328 0.61435 0.0
C265 C 0.68284 0.30434 0.48164 0.0
O266 O 0.68675 0.31205 0.43616 0.0
O267 O 0.67917 0.34627 0.55985 0.0
C268 C 0.72041 0.33478 0.61987 0.0
O269 O 0.72527 0.34369 0.57895 0.0
C270 C 0.70524 0.34357 0.43593 0.0
O271 O 0.69147 0.34925 0.43137 0.0
O272 O 0.68494 0.31015 0.53043 0.0
C273 C 0.88867 0.43683 0.86293 0.0
O274 O 0.88602 0.45148 0.86775 0.0
O275 O 0.90779 0.45953 0.74287 0.0
Zn276 Zn 0.91531 0.44853 0.81251 0.0
O277 O 0.9175 0.46313 0.87739 0.0
C278 C 0.94199 0.43902 0.74874 0.0
O279 O 0.9344 0.4442 0.70479 0.0
O280 O 0.90068 0.43244 0.83773 0.0
C281 C 0.92665 0.47431 0.87722 0.0
O282 O 0.93525 0.47671 0.83246 0.0
C283 C 0.90152 0.47255 0.74503 0.0
O284 O 0.89902 0.47893 0.79463 0.0
O285 O 0.93588 0.43941 0.79765 0.0
C286 C 0.81457 0.6379 0.07299 0.0
O287 O 0.79997 0.63472 0.07188 0.0
O288 O 0.79263 0.65807 0.95696 0.0
Zn289 Zn 0.80331 0.66542 0.02766 0.0
O290 O 0.78819 0.66758 0.09099 0.0
C291 C 0.81353 0.69234 0.96632 0.0
O292 O 0.80879 0.68499 0.92107 0.0
O293 O 0.8191 0.6506 0.05366 0.0
C294 C 0.79159 0.67461 0.13635 0.0
O295 O 0.80513 0.68079 0.14126 0.0
C296 C 0.77919 0.65275 0.95916 0.0
O297 O 0.77243 0.65143 0.00866 0.0
O298 O 0.81263 0.68598 0.01465 0.0
C299 C 0.61007 0.56352 0.30184 0.0
O300 O 0.6127 0.54881 0.30157 0.0
O301 O 0.58679 0.54086 0.19702 0.0
Zn302 Zn 0.58117 0.55297 0.26688 0.0
O303 O 0.57893 0.53964 0.33561 0.0
C304 C 0.55404 0.56398 0.20869 0.0
O305 O 0.56052 0.55845 0.16284 0.0
O306 O 0.59716 0.56836 0.28579 0.0
C307 C 0.57097 0.5276 0.33728 0.0
O308 O 0.564 0.52288 0.29118 0.0
C309 C 0.59308 0.52784 0.19847 0.0
O310 O 0.59669 0.52183 0.24769 0.0
O311 O 0.561 0.56325 0.25587 0.0
C312 C 0.31103 0.35612 0.59634 0.0
O313 O 0.29627 0.35843 0.59741 0.0
O314 O 0.2903 0.33678 0.47304 0.0
Zn315 Zn 0.30095 0.32916 0.5433 0.0
O316 O 0.28557 0.32596 0.60508 0.0
C317 C 0.31265 0.30354 0.4782 0.0
O318 O 0.30856 0.31162 0.43389 0.0
O319 O 0.31615 0.34419 0.57259 0.0
C320 C 0.28893 0.31872 0.65 0.0
O321 O 0.30262 0.31291 0.65538 0.0
C322 C 0.2769 0.34219 0.47563 0.0
O323 O 0.27025 0.34357 0.52532 0.0
O324 O 0.31087 0.30901 0.52773 0.0
C325 C 0.38769 0.56314 0.32187 0.0
O326 O 0.38439 0.54865 0.31616 0.0
O327 O 0.41221 0.53805 0.23406 0.0
Zn328 Zn 0.41757 0.55204 0.29859 0.0
O329 O 0.42003 0.53936 0.36909 0.0
C330 C 0.44243 0.56492 0.23292 0.0
O331 O 0.43371 0.56182 0.18916 0.0
O332 O 0.4013 0.56751 0.31395 0.0
C333 C 0.41312 0.52674 0.3743 0.0
O334 O 0.40434 0.52195 0.3329 0.0
C335 C 0.40385 0.54117 0.1917 0.0
O336 O 0.39787 0.55481 0.18716 0.0
O337 O 0.43762 0.56213 0.28275 0.0
C338 C 0.17837 0.63874 0.06354 0.0
O339 O 0.193 0.63593 0.05962 0.0
O340 O 0.19956 0.66043 0.9509 0.0
Zn341 Zn 0.18876 0.66701 0.02265 0.0
O342 O 0.20388 0.66889 0.08605 0.0
C343 C 0.18025 0.69564 0.96907 0.0
O344 O 0.18745 0.69015 0.92466 0.0
O345 O 0.17337 0.65159 0.04746 0.0
C346 C 0.20055 0.67604 0.13127 0.0
O347 O 0.18712 0.68248 0.13589 0.0
C348 C 0.21295 0.65498 0.95323 0.0
O349 O 0.21947 0.65321 0.00293 0.0
O350 O 0.17901 0.68753 0.01343 0.0
C351 C 0.1086 0.43349 0.84583 0.0
O352 O 0.11206 0.44803 0.84555 0.0
O353 O 0.08918 0.45608 0.73169 0.0
Zn354 Zn 0.08133 0.44559 0.80189 0.0
O355 O 0.07935 0.46061 0.86579 0.0
C356 C 0.05426 0.43657 0.73894 0.0
O357 O 0.06181 0.44142 0.69435 0.0
O358 O 0.09571 0.42932 0.82712 0.0
C359 C 0.07153 0.45727 0.90942 0.0
O360 O 0.06469 0.444 0.91179 0.0
C361 C 0.09508 0.46927 0.73356 0.0
O362 O 0.09661 0.47611 0.78283 0.0
O363 O 0.06057 0.43689 0.78745 0.0
C364 C 0.30967 0.63369 0.4861 0.0
O365 O 0.29507 0.63061 0.48276 0.0
O366 O 0.28613 0.65553 0.59611 0.0
Zn367 Zn 0.29786 0.66176 0.52623 0.0
O368 O 0.28372 0.66358 0.4598 0.0
C369 C 0.30849 0.68859 0.58666 0.0
O370 O 0.30391 0.68121 0.63204 0.0
O371 O 0.31383 0.64648 0.50585 0.0
C372 C 0.27342 0.6737 0.45817 0.0
O373 O 0.27189 0.6831 0.50119 0.0
C374 C 0.27282 0.64993 0.59381 0.0
O375 O 0.26659 0.64727 0.54411 0.0
O376 O 0.30735 0.6823 0.53825 0.0
C377 C 0.10979 0.56589 0.26724 0.0
O378 O 0.11348 0.55141 0.26848 0.0
O379 O 0.09165 0.5419 0.37812 0.0
Zn380 Zn 0.08303 0.55314 0.31101 0.0
O381 O 0.08063 0.53914 0.24423 0.0
C382 C 0.05416 0.56849 0.29908 0.0
O383 O 0.05934 0.5717 0.24812 0.0
O384 O 0.09688 0.56994 0.2862 0.0
C385 C 0.0707 0.52868 0.2415 0.0
O386 O 0.06135 0.52663 0.28438 0.0
C387 C 0.09706 0.52851 0.37492 0.0
O388 O 0.0979 0.52176 0.32526 0.0
O389 O 0.06251 0.56107 0.33319 0.0
C390 C 0.18128 0.35868 0.01681 0.0
O391 O 0.19582 0.36195 0.02078 0.0
O392 O 0.2043 0.3361 0.11849 0.0
Zn393 Zn 0.19265 0.32983 0.04849 0.0
O394 O 0.20684 0.32811 0.98209 0.0
C395 C 0.18265 0.30241 0.10684 0.0
O396 O 0.1878 0.30927 0.15251 0.0
O397 O 0.17684 0.34531 0.02861 0.0
C398 C 0.21711 0.31796 0.98032 0.0
O399 O 0.21859 0.30853 0.02321 0.0
C400 C 0.21749 0.342 0.11587 0.0
O401 O 0.22366 0.34461 0.06603 0.0
O402 O 0.18315 0.30927 0.0594 0.0
C403 C 0.38297 0.42794 0.78736 0.0
O404 O 0.37913 0.44237 0.78926 0.0
O405 O 0.40689 0.4542 0.87619 0.0
Zn406 Zn 0.41184 0.44098 0.80863 0.0
O407 O 0.41144 0.4536 0.73788 0.0
C408 C 0.4399 0.43134 0.86316 0.0
O409 O 0.43287 0.4352 0.91027 0.0
O410 O 0.39666 0.42424 0.7975 0.0
C411 C 0.42068 0.46448 0.72968 0.0
O412 O 0.43083 0.4677 0.76883 0.0
C413 C 0.3996 0.46663 0.87129 0.0
O414 O 0.3945 0.47073 0.82119 0.0
O415 O 0.43295 0.43249 0.81607 0.0
H416 H 0.13633 0.05606 0.86071 0.0
H417 H 0.15081 0.1402 0.9781 0.0
H418 H 0.10299 0.09204 0.85172 0.0
H419 H 0.18606 0.10621 0.9636 0.0
H420 H 0.13276 0.12231 0.93621 0.0
H421 H 0.15447 0.074 0.90155 0.0
C422 C 0.13284 0.06775 0.86706 0.0
C423 C 0.11811 0.07255 0.85284 0.0
C424 C 0.14444 0.11876 0.94222 0.0
C425 C 0.13879 0.09312 0.90001 0.0
C426 C 0.15474 0.12895 0.96636 0.0
C427 C 0.16998 0.1247 0.97431 0.0
C428 C 0.14938 0.10419 0.92615 0.0
C429 C 0.17443 0.10999 0.95817 0.0
C430 C 0.14321 0.07799 0.89043 0.0
C431 C 0.11423 0.08784 0.86199 0.0
N432 N 0.16418 0.10027 0.93488 0.0
N433 N 0.12449 0.09757 0.88525 0.0
H434 H 0.10505 0.8985 0.24243 0.0
H435 H 0.18859 0.8898 0.11148 0.0
H436 H 0.13796 0.93493 0.23831 0.0
H437 H 0.15311 0.85634 0.08962 0.0
H438 H 0.17072 0.90588 0.16347 0.0
H439 H 0.12324 0.88208 0.19332 0.0
C440 C 0.11614 0.90301 0.23162 0.0
C441 C 0.11998 0.91813 0.24431 0.0
C442 C 0.16684 0.89504 0.14716 0.0
C443 C 0.14079 0.89944 0.18784 0.0
C444 C 0.17702 0.88586 0.1174 0.0
C445 C 0.17233 0.87171 0.0961 0.0
C446 C 0.15187 0.89001 0.15605 0.0
C447 C 0.15721 0.86719 0.10511 0.0
C448 C 0.12649 0.89366 0.20331 0.0
C449 C 0.1345 0.92337 0.22919 0.0
N450 N 0.14753 0.87629 0.1346 0.0
N451 N 0.14437 0.91405 0.20166 0.0
H452 H 0.39212 0.90022 0.34193 0.0
H453 H 0.30777 0.88496 0.45607 0.0
H454 H 0.35763 0.93502 0.35469 0.0
H455 H 0.34387 0.85174 0.46487 0.0
H456 H 0.32557 0.90309 0.41447 0.0
H457 H 0.37419 0.88184 0.3816 0.0
C458 C 0.38075 0.90398 0.3528 0.0
C459 C 0.37637 0.91919 0.3451 0.0
C460 C 0.32962 0.89185 0.42559 0.0
C461 C 0.35583 0.89823 0.39067 0.0
C462 C 0.31946 0.88148 0.44937 0.0
C463 C 0.32435 0.86681 0.46401 0.0
C464 C 0.34477 0.8875 0.41608 0.0
C465 C 0.33962 0.86294 0.45435 0.0
C466 C 0.37054 0.89349 0.37564 0.0
C467 C 0.36151 0.92343 0.36001 0.0
N468 N 0.34929 0.87322 0.43085 0.0
N469 N 0.35178 0.913 0.38212 0.0
H470 H 0.35594 0.05765 0.72318 0.0
H471 H 0.3441 0.14065 0.59171 0.0
H472 H 0.38964 0.09329 0.73219 0.0
H473 H 0.30801 0.1076 0.60711 0.0
H474 H 0.36142 0.12286 0.63807 0.0
H475 H 0.33854 0.07536 0.67673 0.0
C476 C 0.35966 0.06921 0.71562 0.0
C477 C 0.37427 0.074 0.73157 0.0
C478 C 0.34971 0.1195 0.63127 0.0
C479 C 0.35446 0.09428 0.67803 0.0
C480 C 0.33983 0.12962 0.60456 0.0
C481 C 0.32457 0.12561 0.59558 0.0
C482 C 0.34432 0.10522 0.64888 0.0
C483 C 0.31967 0.11118 0.61327 0.0
C484 C 0.34972 0.07931 0.68906 0.0
C485 C 0.37848 0.08912 0.72071 0.0
N486 N 0.32952 0.1015 0.63907 0.0
N487 N 0.36864 0.0987 0.6944 0.0
H488 H 0.84532 0.85509 0.0862 0.0
H489 H 0.85828 0.93894 0.20911 0.0
H490 H 0.80991 0.88903 0.09538 0.0
H491 H 0.89125 0.90276 0.22396 0.0
H492 H 0.8408 0.92124 0.16293 0.0
H493 H 0.86286 0.87297 0.13102 0.0
C494 C 0.84125 0.86634 0.09734 0.0
C495 C 0.82611 0.87057 0.08714 0.0
C496 C 0.85184 0.91716 0.17645 0.0
C497 C 0.84611 0.89106 0.13867 0.0
C498 C 0.86182 0.92726 0.20286 0.0
C499 C 0.87624 0.92232 0.22045 0.0
C500 C 0.85634 0.90204 0.16723 0.0
C501 C 0.88023 0.90706 0.21122 0.0
C502 C 0.85126 0.87651 0.12316 0.0
C503 C 0.82147 0.88527 0.10256 0.0
N504 N 0.87035 0.89747 0.18506 0.0
N505 N 0.83143 0.89499 0.1276 0.0
H506 H 0.88865 0.09482 0.84302 0.0
H507 H 0.80538 0.10797 0.97115 0.0
H508 H 0.85452 0.05959 0.85257 0.0
H509 H 0.84184 0.14064 0.98562 0.0
H510 H 0.82276 0.09053 0.92302 0.0
H511 H 0.87103 0.11237 0.88935 0.0
C512 C 0.87742 0.09079 0.85452 0.0
C513 C 0.87306 0.0757 0.84404 0.0
C514 C 0.82697 0.1015 0.93688 0.0
C515 C 0.85288 0.09571 0.89732 0.0
C516 C 0.81706 0.11146 0.96441 0.0
C517 C 0.82217 0.12578 0.98247 0.0
C518 C 0.84208 0.10593 0.927 0.0
C519 C 0.83742 0.12969 0.97255 0.0
C520 C 0.86739 0.10081 0.88122 0.0
C521 C 0.85838 0.07112 0.85997 0.0
N522 N 0.84682 0.11984 0.94531 0.0
N523 N 0.84882 0.08108 0.88586 0.0
H524 H 0.64955 0.14243 0.60769 0.0
H525 H 0.63604 0.05918 0.7344 0.0
H526 H 0.68496 0.10862 0.62199 0.0
H527 H 0.60288 0.0953 0.74509 0.0
H528 H 0.65382 0.07681 0.68971 0.0
H529 H 0.63183 0.12484 0.65317 0.0
C530 C 0.65358 0.13127 0.6201 0.0
C531 C 0.66877 0.12698 0.61109 0.0
C532 C 0.64268 0.0809 0.70204 0.0
C533 C 0.64857 0.10684 0.66337 0.0
C534 C 0.63252 0.07084 0.72762 0.0
C535 C 0.61794 0.07577 0.74343 0.0
C536 C 0.6382 0.09598 0.69184 0.0
C537 C 0.61401 0.09102 0.73365 0.0
C538 C 0.64348 0.12127 0.64631 0.0
C539 C 0.67337 0.11241 0.62818 0.0
N540 N 0.62407 0.10057 0.70821 0.0
N541 N 0.6633 0.10286 0.6535 0.0
H542 H 0.64019 0.93693 0.35298 0.0
H543 H 0.65251 0.85266 0.47203 0.0
H544 H 0.60572 0.90198 0.34724 0.0
H545 H 0.68871 0.88555 0.45545 0.0
H546 H 0.63492 0.87094 0.42982 0.0
H547 H 0.65799 0.91849 0.39286 0.0
C548 C 0.63638 0.92536 0.35984 0.0
C549 C 0.62143 0.92099 0.34687 0.0
C550 C 0.64672 0.87415 0.4354 0.0
C551 C 0.64171 0.89987 0.39291 0.0
C552 C 0.65675 0.86375 0.45972 0.0
C553 C 0.67211 0.86759 0.46729 0.0
C554 C 0.65205 0.88853 0.41878 0.0
C555 C 0.67698 0.8821 0.45037 0.0
C556 C 0.64655 0.91484 0.38265 0.0
C557 C 0.61713 0.90584 0.35659 0.0
N558 N 0.66697 0.89205 0.42696 0.0
N559 N 0.62721 0.89584 0.37929 0.0
H560 H 0.65281 0.6396 0.46977 0.0
H561 H 0.63919 0.55723 0.3352 0.0
H562 H 0.68826 0.6059 0.45296 0.0
H563 H 0.6066 0.59386 0.32478 0.0
H564 H 0.65702 0.57447 0.38197 0.0
H565 H 0.63522 0.62237 0.4218 0.0
C566 C 0.65688 0.62854 0.45629 0.0
C567 C 0.67204 0.62419 0.46533 0.0
C568 C 0.646 0.57875 0.36919 0.0
C569 C 0.65198 0.60445 0.41015 0.0
C570 C 0.63582 0.56892 0.34242 0.0
C571 C 0.62137 0.5741 0.32613 0.0
C572 C 0.64166 0.59384 0.38014 0.0
C573 C 0.61762 0.58937 0.33655 0.0
C574 C 0.64685 0.61875 0.42863 0.0
C575 C 0.67668 0.60974 0.44679 0.0
N576 N 0.62767 0.59868 0.36318 0.0
N577 N 0.66668 0.60038 0.42009 0.0
H578 H 0.60359 0.40109 0.72126 0.0
H579 H 0.68727 0.39011 0.59383 0.0
H580 H 0.63528 0.43806 0.69737 0.0
H581 H 0.65309 0.35484 0.5946 0.0
H582 H 0.66874 0.4077 0.63483 0.0
H583 H 0.62213 0.38367 0.67949 0.0
C584 C 0.61448 0.40554 0.70753 0.0
C585 C 0.61788 0.42106 0.71274 0.0
C586 C 0.66528 0.39613 0.62579 0.0
C587 C 0.63912 0.4012 0.66465 0.0
C588 C 0.67585 0.38609 0.6023 0.0
C589 C 0.67173 0.37098 0.59084 0.0
C590 C 0.65052 0.391 0.63823 0.0
C591 C 0.65677 0.36639 0.60271 0.0
C592 C 0.62503 0.3956 0.68343 0.0
C593 C 0.63216 0.42619 0.69407 0.0
N594 N 0.64673 0.37634 0.626 0.0
N595 N 0.64225 0.41628 0.67085 0.0
H596 H 0.86187 0.44243 0.91794 0.0
H597 H 0.84852 0.35551 0.00547 0.0
H598 H 0.89226 0.40594 0.87098 0.0
H599 H 0.81542 0.3911 0.03207 0.0
H600 H 0.8658 0.37422 0.96393 0.0
H601 H 0.84559 0.42405 0.96622 0.0
C602 C 0.8651 0.43054 0.91759 0.0
C603 C 0.87842 0.42571 0.8902 0.0
C604 C 0.85479 0.37794 0.97912 0.0
C605 C 0.85988 0.40462 0.94582 0.0
C606 C 0.84494 0.36728 0.00313 0.0
C607 C 0.83046 0.37174 0.02194 0.0
C608 C 0.85013 0.39316 0.97409 0.0
C609 C 0.82644 0.38714 0.01781 0.0
C610 C 0.85581 0.42006 0.94529 0.0
C611 C 0.88206 0.41016 0.89135 0.0
N612 N 0.8362 0.39728 0.99412 0.0
N613 N 0.87284 0.40017 0.91878 0.0
H614 H 0.84478 0.64255 0.09511 0.0
H615 H 0.85686 0.56145 0.2418 0.0
H616 H 0.80893 0.60939 0.11443 0.0
H617 H 0.8901 0.59757 0.24706 0.0
H618 H 0.83948 0.57838 0.19138 0.0
H619 H 0.86205 0.62557 0.14571 0.0
C620 C 0.84055 0.63166 0.1097 0.0
C621 C 0.82537 0.62739 0.10059 0.0
C622 C 0.85055 0.58261 0.20377 0.0
C623 C 0.84507 0.60793 0.15875 0.0
C624 C 0.86048 0.57296 0.23261 0.0
C625 C 0.87496 0.5781 0.24865 0.0
C626 C 0.85517 0.59748 0.19051 0.0
C627 C 0.87904 0.59313 0.23561 0.0
C628 C 0.85041 0.622 0.13883 0.0
C629 C 0.82053 0.61316 0.12059 0.0
N630 N 0.86922 0.60227 0.20707 0.0
N631 N 0.83035 0.60393 0.14874 0.0
H632 H 0.304 0.38341 0.64549 0.0
H633 H 0.38833 0.39806 0.76084 0.0
H634 H 0.34161 0.35289 0.61499 0.0
H635 H 0.35272 0.43188 0.76493 0.0
H636 H 0.37063 0.38024 0.71644 0.0
H637 H 0.32113 0.40039 0.69691 0.0
C638 C 0.31587 0.38029 0.64947 0.0
C639 C 0.3214 0.36673 0.62572 0.0
C640 C 0.36668 0.39154 0.72731 0.0
C641 C 0.34103 0.38606 0.68496 0.0
C642 C 0.37675 0.4017 0.75295 0.0
C643 C 0.37202 0.41652 0.7663 0.0
C644 C 0.35176 0.39621 0.71517 0.0
C645 C 0.35688 0.42059 0.75507 0.0
C646 C 0.32564 0.38999 0.67891 0.0
C647 C 0.33688 0.36326 0.63236 0.0
N648 N 0.34731 0.41051 0.72996 0.0
N649 N 0.34615 0.37286 0.66146 0.0
H650 H 0.30481 0.60504 0.44427 0.0
H651 H 0.39143 0.59315 0.34962 0.0
H652 H 0.34036 0.63793 0.4747 0.0
H653 H 0.35748 0.55773 0.34136 0.0
H654 H 0.3724 0.61032 0.38961 0.0
H655 H 0.32361 0.58798 0.40197 0.0
C656 C 0.31657 0.60866 0.44228 0.0
C657 C 0.32102 0.62294 0.46309 0.0
C658 C 0.36911 0.5988 0.37895 0.0
C659 C 0.34256 0.60351 0.41431 0.0
C660 C 0.37995 0.589 0.35586 0.0
C661 C 0.37605 0.57396 0.34228 0.0
C662 C 0.35423 0.59354 0.38835 0.0
C663 C 0.361 0.56922 0.35135 0.0
C664 C 0.3273 0.59891 0.41805 0.0
C665 C 0.33642 0.62702 0.45932 0.0
N666 N 0.35064 0.57897 0.37391 0.0
N667 N 0.34662 0.61737 0.43522 0.0
H668 H 0.10415 0.59592 0.24409 0.0
H669 H 0.18509 0.60981 0.09761 0.0
H670 H 0.13856 0.56117 0.22707 0.0
H671 H 0.14842 0.64244 0.0928 0.0
H672 H 0.16853 0.59217 0.14835 0.0
H673 H 0.1207 0.61364 0.1933 0.0
C674 C 0.11522 0.59204 0.23 0.0
C675 C 0.11998 0.57703 0.23978 0.0
C676 C 0.16408 0.60317 0.13601 0.0
C677 C 0.13892 0.59722 0.18141 0.0
C678 C 0.17353 0.61324 0.10697 0.0
C679 C 0.16813 0.62763 0.09096 0.0
C680 C 0.14914 0.60753 0.1495 0.0
C681 C 0.15304 0.63146 0.10423 0.0
C682 C 0.12463 0.60214 0.20076 0.0
C683 C 0.13442 0.57262 0.22038 0.0
N684 N 0.14409 0.62149 0.13296 0.0
N685 N 0.14337 0.58267 0.19212 0.0
H686 H 0.10391 0.40305 0.86298 0.0
H687 H 0.18678 0.38856 0.99191 0.0
H688 H 0.13746 0.43842 0.88486 0.0
H689 H 0.15118 0.35472 0.99087 0.0
H690 H 0.16909 0.40684 0.95043 0.0
H691 H 0.12142 0.38491 0.90647 0.0
C692 C 0.11498 0.40699 0.87675 0.0
C693 C 0.11923 0.42228 0.87028 0.0
C694 C 0.16513 0.39543 0.95948 0.0
C695 C 0.1393 0.40159 0.92023 0.0
C696 C 0.17522 0.38499 0.9832 0.0
C697 C 0.17046 0.37008 0.99479 0.0
C698 C 0.15019 0.39092 0.94693 0.0
C699 C 0.15534 0.3661 0.98267 0.0
C700 C 0.12495 0.39665 0.90177 0.0
C701 C 0.1337 0.42676 0.88904 0.0
N702 N 0.14577 0.37644 0.95916 0.0
N703 N 0.14322 0.41646 0.91312 0.0
H704 H 0.21654 0.15806 0.86813 0.0
H705 H 0.29425 0.18999 0.73774 0.0
H706 H 0.24404 0.19208 0.95146 0.0
H707 H 0.26361 0.16012 0.64776 0.0
H708 H 0.27634 0.19067 0.81725 0.0
H709 H 0.23403 0.15839 0.78784 0.0
C710 C 0.22625 0.16562 0.86955 0.0
C711 C 0.22884 0.17505 0.91666 0.0
C712 C 0.27353 0.18401 0.78002 0.0
C713 C 0.24897 0.17545 0.8247 0.0
C714 C 0.28375 0.1836 0.73463 0.0
C715 C 0.28044 0.17496 0.68605 0.0
C716 C 0.25994 0.17566 0.77689 0.0
C717 C 0.26665 0.16693 0.68434 0.0
C718 C 0.23624 0.16582 0.82358 0.0
C719 C 0.24161 0.18463 0.91601 0.0
N720 N 0.25695 0.16744 0.72916 0.0
N721 N 0.25123 0.18455 0.8708 0.0
H722 H 0.07513 0.95457 0.12606 0.0
H723 H 0.07325 0.03539 0.97869 0.0
H724 H 0.06305 0.99515 0.21895 0.0
H725 H 0.0629 0.99425 0.88636 0.0
H726 H 0.07264 0.02093 0.06745 0.0
H727 H 0.07382 0.96904 0.03748 0.0
C728 C 0.07221 0.96653 0.12779 0.0
C729 C 0.06921 0.9737 0.17988 0.0
C730 C 0.07043 0.01511 0.02776 0.0
C731 C 0.06786 0.99028 0.07892 0.0
C732 C 0.07084 0.02331 0.97713 0.0
C733 C 0.06814 0.01598 0.92515 0.0
C734 C 0.06761 -0.00059 0.02626 0.0
C735 C 0.065 0.00034 0.92556 0.0
C736 C 0.07139 0.97474 0.07726 0.0
C737 C 0.0654 0.98919 0.17966 0.0
N738 N 0.06497 0.99252 0.97536 0.0
N739 N 0.06498 0.99703 0.12992 0.0
H740 H 0.2451 0.80356 0.09628 0.0
H741 H 0.26236 0.83246 0.41227 0.0
H742 H 0.21735 0.83603 0.18692 0.0
H743 H 0.29351 0.80457 0.31587 0.0
H744 H 0.24481 0.83222 0.33221 0.0
H745 H 0.2621 0.80216 0.17845 0.0
C746 C 0.24255 0.81035 0.13348 0.0
C747 C 0.22981 0.81996 0.13466 0.0
C748 C 0.25547 0.82613 0.32853 0.0
C749 C 0.24917 0.81841 0.22866 0.0
C750 C 0.2655 0.82624 0.37431 0.0
C751 C 0.27946 0.81857 0.3707 0.0
C752 C 0.25938 0.81826 0.27869 0.0
C753 C 0.28289 0.81068 0.32043 0.0
C754 C 0.25227 0.80956 0.1803 0.0
C755 C 0.22706 0.8285 0.18398 0.0
N756 N 0.27292 0.81075 0.27631 0.0
N757 N 0.23666 0.82753 0.22892 0.0
H758 H 0.4392 0.04438 0.58798 0.0
H759 H 0.40906 0.96609 0.45631 0.0
H760 H 0.40969 0.01315 0.6768 0.0
H761 H 0.44248 0.99444 0.37358 0.0
H762 H 0.40889 0.98355 0.53672 0.0
H763 H 0.44033 0.02656 0.50826 0.0
C764 C 0.43298 0.03377 0.59078 0.0
C765 C 0.42432 0.03026 0.6391 0.0
C766 C 0.4163 0.98595 0.50108 0.0
C767 C 0.42553 0.00986 0.54804 0.0
C768 C 0.41639 0.97598 0.45505 0.0
C769 C 0.42579 0.97881 0.40807 0.0
C770 C 0.42563 -0.00109 0.50015 0.0
C771 C 0.43506 0.99181 0.40892 0.0
C772 C 0.43365 0.0236 0.54528 0.0
C773 C 0.41651 0.01634 0.64042 0.0
N774 N 0.43471 0.00141 0.45419 0.0
N775 N 0.41727 0.00668 0.59551 0.0
H776 H 0.75314 0.80168 0.10495 0.0
H777 H 0.73364 0.83376 0.41477 0.0
H778 H 0.77957 0.83602 0.19125 0.0
H779 H 0.70362 0.80408 0.32101 0.0
H780 H 0.75143 0.8333 0.33537 0.0
H781 H 0.73564 0.80105 0.1858 0.0
C782 C 0.75529 0.80906 0.1409 0.0
C783 C 0.76782 0.81894 0.14129 0.0
C784 C 0.74096 0.82687 0.33211 0.0
C785 C 0.74789 0.81825 0.23384 0.0
C786 C 0.73079 0.82711 0.37751 0.0
C787 C 0.71708 0.81898 0.37448 0.0
C788 C 0.73745 0.81841 0.28326 0.0
C789 C 0.71403 0.81056 0.32511 0.0
C790 C 0.74528 0.80871 0.18698 0.0
C791 C 0.77004 0.82825 0.189 0.0
N792 N 0.72414 0.8105 0.28138 0.0
N793 N 0.76018 0.82767 0.2333 0.0
H794 H 0.90703 0.02942 0.94817 0.0
H795 H 0.94021 0.95218 0.07756 0.0
H796 H 0.9411 0.00229 0.86329 0.0
H797 H 0.91081 0.98293 0.16935 0.0
H798 H 0.9404 0.96996 0.99767 0.0
H799 H 0.90789 0.01202 0.02857 0.0
C800 C 0.91471 0.0198 0.94642 0.0
C801 C 0.924 0.0173 0.89887 0.0
C802 C 0.93395 0.97282 0.0354 0.0
C803 C 0.92503 0.99728 0.99096 0.0
C804 C 0.93383 0.96267 0.081 0.0
C805 C 0.92545 0.96605 0.13017 0.0
C806 C 0.92558 0.9864 0.03894 0.0
C807 C 0.91742 0.97983 0.1323 0.0
C808 C 0.91522 0.00987 0.99246 0.0
C809 C 0.93375 0.00465 0.8991 0.0
N810 N 0.91764 0.98946 0.08728 0.0
N811 N 0.93397 0.99507 0.94441 0.0
H812 H 0.79265 0.19067 0.84534 0.0
H813 H 0.71442 0.16033 0.71445 0.0
H814 H 0.76146 0.16125 0.93477 0.0
H815 H 0.74254 0.19398 0.63188 0.0
H816 H 0.73181 0.16035 0.79494 0.0
H817 H 0.77471 0.19188 0.76614 0.0
C818 C 0.78202 0.18449 0.8484 0.0
C819 C 0.77856 0.17581 0.89671 0.0
C820 C 0.73417 0.16777 0.75934 0.0
C821 C 0.75803 0.17712 0.80622 0.0
C822 C 0.72425 0.16775 0.71325 0.0
C823 C 0.72704 0.17715 0.66626 0.0
C824 C 0.74706 0.17719 0.75845 0.0
C825 C 0.73994 0.18655 0.66722 0.0
C826 C 0.77178 0.18521 0.80319 0.0
C827 C 0.76461 0.16807 0.89837 0.0
N828 N 0.74952 0.18629 0.71252 0.0
N829 N 0.75489 0.16887 0.85371 0.0
H830 H 0.56423 0.997 0.7198 0.0
H831 H 0.56356 -0.00075 0.38149 0.0
H832 H 0.57281 0.03812 0.62503 0.0
H833 H 0.57688 0.9593 0.47553 0.0
H834 H 0.56206 0.01347 0.471 0.0
H835 H 0.56396 0.98267 0.63033 0.0
C836 C 0.56595 0.00301 0.68018 0.0
C837 C 0.56862 0.01874 0.67973 0.0
C838 C 0.56528 0.00158 0.47185 0.0
C839 C 0.56816 0.00252 0.57775 0.0
C840 C 0.56609 0.99347 0.42096 0.0
C841 C 0.57042 0.97812 0.42118 0.0
C842 C 0.56855 0.99419 0.52326 0.0
C843 C 0.57361 0.97116 0.47348 0.0
C844 C 0.56586 0.99484 0.62931 0.0
C845 C 0.57083 0.02598 0.62725 0.0
N846 N 0.57254 0.97923 0.52251 0.0
N847 N 0.57048 0.01782 0.57829 0.0
H848 H 0.74527 0.69221 0.45506 0.0
H849 H 0.76356 0.66128 0.14258 0.0
H850 H 0.71813 0.65868 0.36738 0.0
H851 H 0.79453 0.68954 0.23806 0.0
H852 H 0.74585 0.66187 0.22223 0.0
H853 H 0.7626 0.69295 0.37368 0.0
C854 C 0.74293 0.68503 0.4187 0.0
C855 C 0.73025 0.67534 0.41808 0.0
C856 C 0.75651 0.66796 0.2258 0.0
C857 C 0.74998 0.67617 0.32494 0.0
C858 C 0.76662 0.66765 0.18025 0.0
C859 C 0.78058 0.67533 0.18373 0.0
C860 C 0.76032 0.67604 0.27524 0.0
C861 C 0.78392 0.68341 0.23362 0.0
C862 C 0.75284 0.68545 0.37232 0.0
C863 C 0.72779 0.66629 0.36984 0.0
N864 N 0.77386 0.68355 0.27749 0.0
N865 N 0.73755 0.66693 0.32526 0.0
H866 H 0.57582 0.53811 0.44472 0.0
H867 H 0.57237 0.45745 0.59257 0.0
H868 H 0.56314 0.4977 0.35197 0.0
H869 H 0.5629 0.49884 0.68472 0.0
H870 H 0.57189 0.47184 0.50368 0.0
H871 H 0.57407 0.52374 0.53339 0.0
C872 C 0.57268 0.5262 0.44303 0.0
C873 C 0.56965 0.51905 0.39096 0.0
C874 C 0.56983 0.47774 0.54336 0.0
C875 C 0.56778 0.50258 0.49205 0.0
C876 C 0.57017 0.46957 0.59406 0.0
C877 C 0.5677 0.47699 0.64603 0.0
C878 C 0.56732 0.49348 0.54477 0.0
C879 C 0.56482 0.49268 0.64553 0.0
C880 C 0.5716 0.51806 0.49363 0.0
C881 C 0.56553 0.50364 0.39125 0.0
N882 N 0.56487 0.50046 0.59565 0.0
N883 N 0.56486 0.49585 0.44105 0.0
H884 H 0.71435 0.31622 0.71052 0.0
H885 H 0.78825 0.34193 0.88362 0.0
H886 H 0.74741 0.34837 0.64744 0.0
H887 H 0.7574 0.307 0.94147 0.0
H888 H 0.77321 0.3446 0.79731 0.0
H889 H 0.72971 0.3129 0.79598 0.0
C890 C 0.72484 0.32259 0.71461 0.0
C891 C 0.72959 0.33261 0.67176 0.0
C892 C 0.76974 0.33632 0.82878 0.0
C893 C 0.74722 0.32885 0.76951 0.0
C894 C 0.77832 0.33479 0.87816 0.0
C895 C 0.77407 0.32423 0.91992 0.0
C896 C 0.75675 0.32727 0.82107 0.0
C897 C 0.7611 0.31528 0.91041 0.0
C898 C 0.73361 0.32066 0.7634 0.0
C899 C 0.7433 0.34053 0.67936 0.0
N900 N 0.75287 0.31704 0.86202 0.0
N901 N 0.75161 0.33849 0.72733 0.0
H902 H 0.91155 0.51698 0.20261 0.0
H903 H 0.9424 0.50112 0.88805 0.0
H904 H 0.93728 0.54984 0.10592 0.0
H905 H 0.9119 0.47122 0.97858 0.0
H906 H 0.94225 0.51841 0.96961 0.0
H907 H 0.91319 0.49932 0.12298 0.0
C908 C 0.91758 0.52048 0.16467 0.0
C909 C 0.92425 0.53494 0.16085 0.0
C910 C 0.93562 0.50804 0.97157 0.0
C911 C 0.92616 0.51474 0.0694 0.0
C912 C 0.93572 0.49816 0.9251 0.0
C913 C 0.92712 0.48473 0.92643 0.0
C914 C 0.92691 0.50441 0.01973 0.0
C915 C 0.91866 0.48147 0.97554 0.0
C916 C 0.91849 0.51038 0.11914 0.0
C917 C 0.93193 0.53882 0.11063 0.0
N918 N 0.91877 0.49124 0.02014 0.0
N919 N 0.93266 0.52878 0.0668 0.0
H920 H 0.26065 0.33153 0.65567 0.0
H921 H 0.24233 0.29994 0.96694 0.0
H922 H 0.29179 0.30342 0.75087 0.0
H923 H 0.21544 0.33399 0.8812 0.0
H924 H 0.25951 0.29919 0.88516 0.0
H925 H 0.2428 0.33055 0.73485 0.0
C926 C 0.26372 0.32509 0.69315 0.0
C927 C 0.27777 0.3176 0.69675 0.0
C928 C 0.24983 0.3068 0.8843 0.0
C929 C 0.25736 0.31646 0.78771 0.0
C930 C 0.24001 0.30722 0.9309 0.0
C931 C 0.22746 0.31708 0.93098 0.0
C932 C 0.24702 0.31624 0.83738 0.0
C933 C 0.22501 0.32626 0.88312 0.0
C934 C 0.25352 0.32457 0.73843 0.0
C935 C 0.2811 0.30942 0.74637 0.0
N936 N 0.23469 0.32561 0.8383 0.0
N937 N 0.27098 0.30908 0.79 0.0
H938 H 0.43115 0.53261 0.46678 0.0
H939 H 0.40192 0.45983 0.63893 0.0
H940 H 0.39879 0.50012 0.40109 0.0
H941 H 0.43735 0.48964 0.70007 0.0
H942 H 0.40035 0.47487 0.55229 0.0
H943 H 0.43333 0.51741 0.55331 0.0
C944 C 0.42451 0.52228 0.47051 0.0
C945 C 0.41475 0.51763 0.42664 0.0
C946 C 0.4085 0.47812 0.58456 0.0
C947 C 0.41719 0.50022 0.52552 0.0
C948 C 0.40939 0.46955 0.63414 0.0
C949 C 0.41979 0.47349 0.67687 0.0
C950 C 0.41802 0.4908 0.57757 0.0
C951 C 0.42918 0.48619 0.66822 0.0
C952 C 0.42578 0.5136 0.51989 0.0
C953 C 0.40645 0.50414 0.43377 0.0
N954 N 0.42805 0.49442 0.61955 0.0
N955 N 0.40784 0.49594 0.48229 0.0
H956 H 0.27495 0.65745 0.35938 0.0
H957 H 0.19786 0.69144 0.23202 0.0
H958 H 0.24829 0.69182 0.44471 0.0
H959 H 0.22814 0.66186 0.13888 0.0
H960 H 0.21584 0.69147 0.31119 0.0
H961 H 0.25753 0.6586 0.27904 0.0
C962 C 0.26544 0.66526 0.36122 0.0
C963 C 0.26306 0.67454 0.40891 0.0
C964 C 0.21856 0.68503 0.27333 0.0
C965 C 0.24303 0.67589 0.31695 0.0
C966 C 0.2083 0.68499 0.22814 0.0
C967 C 0.21148 0.6766 0.17881 0.0
C968 C 0.23206 0.67655 0.26925 0.0
C969 C 0.2252 0.66848 0.17609 0.0
C970 C 0.2555 0.66593 0.31523 0.0
C971 C 0.25056 0.68446 0.4088 0.0
N972 N 0.23495 0.66861 0.22076 0.0
N973 N 0.24096 0.68484 0.36358 0.0
H974 H 0.08713 0.53118 0.14348 0.0
H975 H 0.05501 0.45426 0.00749 0.0
H976 H 0.05305 0.50332 0.22475 0.0
H977 H 0.08572 0.48479 0.92102 0.0
H978 H 0.05407 0.47195 0.08758 0.0
H979 H 0.0867 0.51419 0.06176 0.0
C980 C 0.07952 0.5215 0.14413 0.0
C981 C 0.07013 0.51865 0.19116 0.0
C982 C 0.06097 0.47479 0.05099 0.0
C983 C 0.06962 0.49908 0.09752 0.0
C984 C 0.06153 0.46469 0.00526 0.0
C985 C 0.07049 0.46803 0.95753 0.0
C986 C 0.06949 0.48829 0.04907 0.0
C987 C 0.07867 0.48174 0.95695 0.0
C988 C 0.07927 0.5118 0.09734 0.0
C989 C 0.06048 0.50594 0.18944 0.0
N990 N 0.07801 0.49133 0.0021 0.0
N991 N 0.06052 0.49658 0.14344 0.0
H992 H 0.18137 0.20728 0.19226 0.0
H993 H 0.17161 0.28489 0.02018 0.0
H994 H 0.17403 0.20994 0.01127 0.0
H995 H 0.18383 0.28289 0.19758 0.0
H996 H 0.16787 0.25742 0.02042 0.0
H997 H 0.17782 0.23482 0.1988 0.0
C998 C 0.17881 0.21361 0.154 0.0
C999 C 0.17821 0.20632 0.101 0.0
C1000 C 0.17123 0.263 0.05947 0.0
C1001 C 0.17419 0.23781 0.1082 0.0
C1002 C 0.17335 0.2787 0.05941 0.0
C1003 C 0.17827 0.28618 0.10874 0.0
C1004 C 0.17411 0.25467 0.10915 0.0
C1005 C 0.18018 0.27758 0.15842 0.0
C1006 C 0.17682 0.22934 0.15777 0.0
C1007 C 0.17479 0.2151 0.05292 0.0
N1008 N 0.17827 0.26224 0.1572 0.0
N1009 N 0.17305 0.23039 0.05762 0.0
H1010 H 0.03514 0.91793 0.27818 0.0
H1011 H 0.95789 0.93133 0.44924 0.0
H1012 H 0.03349 0.93116 0.45468 0.0
H1013 H 0.96041 0.9226 0.26903 0.0
H1014 H 0.98525 0.92666 0.45642 0.0
H1015 H 0.0076 0.9148 0.27897 0.0
C1016 C 0.02901 0.92 0.31735 0.0
C1017 C 0.03662 0.92507 0.3662 0.0
C1018 C 0.97977 0.92559 0.41545 0.0
C1019 C 0.00502 0.92162 0.36723 0.0
C1020 C 0.96415 0.92823 0.41132 0.0
C1021 C 0.9569 0.92758 0.35829 0.0
C1022 C 0.98817 0.92227 0.36621 0.0
C1023 C 0.96556 0.92343 0.31066 0.0
C1024 C 0.01326 0.91823 0.31773 0.0
C1025 C 0.02808 0.92739 0.41587 0.0
N1026 N 0.98075 0.92108 0.31568 0.0
N1027 N 0.0127 0.92585 0.41492 0.0
H1028 H 0.31095 0.78278 0.68441 0.0
H1029 H 0.31957 0.70676 0.50202 0.0
H1030 H 0.32098 0.78175 0.50493 0.0
H1031 H 0.30793 0.7072 0.68016 0.0
H1032 H 0.32406 0.73409 0.50623 0.0
H1033 H 0.31372 0.75511 0.68746 0.0
C1034 C 0.31394 0.77677 0.6458 0.0
C1035 C 0.31551 0.78457 0.59415 0.0
C1036 C 0.32067 0.7282 0.54459 0.0
C1037 C 0.31862 0.75293 0.59732 0.0
C1038 C 0.31811 0.71257 0.54221 0.0
C1039 C 0.31315 0.70471 0.59063 0.0
C1040 C 0.31817 0.73608 0.59565 0.0
C1041 C 0.31161 0.71283 0.64166 0.0
C1042 C 0.31549 0.76097 0.64757 0.0
C1043 C 0.31947 0.7762 0.54556 0.0
N1044 N 0.31393 0.72812 0.64268 0.0
N1045 N 0.32073 0.76083 0.54824 0.0
H1046 H 0.45694 0.06302 0.95663 0.0
H1047 H 0.53355 0.0755 0.78096 0.0
H1048 H 0.45868 0.07324 0.77743 0.0
H1049 H 0.53253 0.06167 0.95681 0.0
H1050 H 0.50611 0.0793 0.78402 0.0
H1051 H 0.48444 0.06697 0.96221 0.0
C1052 C 0.46306 0.06631 0.91863 0.0
C1053 C 0.45554 0.06757 0.86629 0.0
C1054 C 0.51189 0.07559 0.82215 0.0
C1055 C 0.48697 0.07204 0.87237 0.0
C1056 C 0.52758 0.07343 0.82046 0.0
C1057 C 0.53532 0.06802 0.86846 0.0
C1058 C 0.50383 0.07223 0.87209 0.0
C1059 C 0.52701 0.0657 0.91862 0.0
C1060 C 0.47876 0.06853 0.92184 0.0
C1061 C 0.46403 0.07194 0.81853 0.0
N1062 N 0.51167 0.06763 0.91893 0.0
N1063 N 0.47931 0.07386 0.82262 0.0
H1064 H 0.16446 0.78532 0.0991 0.0
H1065 H 0.18383 0.71731 0.88646 0.0
H1066 H 0.18362 0.79159 0.93188 0.0
H1067 H 0.16646 0.71093 0.05634 0.0
H1068 H 0.17979 0.74467 0.89638 0.0
H1069 H 0.16114 0.75829 0.0783 0.0
C1070 C 0.1678 0.78106 0.05777 0.0
C1071 C 0.17454 0.79069 0.01751 0.0
C1072 C 0.17669 0.73726 0.93124 0.0
C1073 C 0.17086 0.75976 0.99353 0.0
C1074 C 0.17897 0.72162 0.92555 0.0
C1075 C 0.17571 0.71183 0.97096 0.0
C1076 C 0.17116 0.74314 0.98277 0.0
C1077 C 0.16932 0.71807 0.02045 0.0
C1078 C 0.16591 0.76562 0.04592 0.0
C1079 C 0.17854 0.78456 0.96448 0.0
N1080 N 0.16743 0.73334 0.02528 0.0
N1081 N 0.17679 0.76945 0.95428 0.0
H1082 H 0.46101 0.92302 0.31606 0.0
H1083 H 0.53738 0.9342 0.13777 0.0
H1084 H 0.46173 0.93508 0.13838 0.0
H1085 H 0.53597 0.92406 0.31707 0.0
H1086 H 0.50983 0.93062 0.13321 0.0
H1087 H 0.48847 0.91938 0.31308 0.0
C1088 C 0.46692 0.92476 0.27622 0.0
C1089 C 0.45908 0.92958 0.22759 0.0
C1090 C 0.51558 0.92901 0.17339 0.0
C1091 C 0.4906 0.92554 0.22399 0.0
C1092 C 0.53132 0.93102 0.17601 0.0
C1093 C 0.53896 0.92965 0.22806 0.0
C1094 C 0.50745 0.92562 0.22318 0.0
C1095 C 0.53053 0.92543 0.27616 0.0
C1096 C 0.48262 0.92268 0.27455 0.0
C1097 C 0.46733 0.93149 0.17703 0.0
N1098 N 0.51523 0.92372 0.27265 0.0
N1099 N 0.48268 0.92964 0.1767 0.0
H1100 H 0.32477 0.20926 0.55367 0.0
H1101 H 0.31286 0.28632 0.38097 0.0
H1102 H 0.31168 0.21077 0.37709 0.0
H1103 H 0.32284 0.28409 0.56026 0.0
H1104 H 0.31692 0.25886 0.37418 0.0
H1105 H 0.32871 0.23668 0.55193 0.0
C1106 C 0.32289 0.21533 0.51429 0.0
C1107 C 0.31764 0.20774 0.46568 0.0
C1108 C 0.3184 0.26442 0.41484 0.0
C1109 C 0.322 0.23922 0.46356 0.0
C1110 C 0.31612 0.28011 0.41874 0.0
C1111 C 0.31727 0.28747 0.47146 0.0
C1112 C 0.32185 0.25607 0.46401 0.0
C1113 C 0.32162 0.27886 0.51889 0.0
C1114 C 0.32513 0.23102 0.51335 0.0
C1115 C 0.31557 0.21618 0.41572 0.0
N1116 N 0.32359 0.2636 0.51413 0.0
N1117 N 0.31757 0.23152 0.41614 0.0
H1118 H 0.95825 0.06295 0.63131 0.0
H1119 H 0.03285 0.0716 0.82115 0.0
H1120 H 0.95792 0.07223 0.81137 0.0
H1121 H 0.03381 0.06092 0.64219 0.0
H1122 H 0.00552 0.07583 0.81467 0.0
H1123 H 0.98589 0.06609 0.63092 0.0
C1124 C 0.96395 0.06585 0.67061 0.0
C1125 C 0.95578 0.0671 0.72162 0.0
C1126 C 0.01171 0.07272 0.77664 0.0
C1127 C 0.98739 0.07063 0.7215 0.0
C1128 C 0.02734 0.0703 0.78031 0.0
C1129 C 0.0356 0.06567 0.7323 0.0
C1130 C 0.00423 0.07039 0.72469 0.0
C1131 C 0.02787 0.06434 0.68041 0.0
C1132 C 0.97974 0.06761 0.67036 0.0
C1133 C 0.96376 0.07097 0.77117 0.0
N1134 N 0.01257 0.0665 0.67811 0.0
N1135 N 0.97912 0.07243 0.76996 0.0
H1136 H 0.82453 0.71052 0.05107 0.0
H1137 H 0.81469 0.78667 0.8706 0.0
H1138 H 0.81259 0.71107 0.87326 0.0
H1139 H 0.8234 0.78549 0.05096 0.0
H1140 H 0.81816 0.75909 0.86686 0.0
H1141 H 0.8285 0.73794 0.04759 0.0
C1142 C 0.8229 0.71638 0.01108 0.0
C1143 C 0.81799 0.70852 0.96257 0.0
C1144 C 0.81948 0.7649 0.90712 0.0
C1145 C 0.8224 0.73998 0.95842 0.0
C1146 C 0.81753 0.78066 0.90928 0.0
C1147 C 0.81853 0.78838 0.96134 0.0
C1148 C 0.82245 0.75684 0.95737 0.0
C1149 C 0.82233 0.78 0.01001 0.0
C1150 C 0.82516 0.73206 0.00914 0.0
C1151 C 0.81623 0.7167 0.91183 0.0
N1152 N 0.82399 0.76468 0.00691 0.0
N1153 N 0.81825 0.73202 0.91124 0.0
H1154 H 0.67052 0.21108 0.57092 0.0
H1155 H 0.68239 0.28619 0.38677 0.0
H1156 H 0.68213 0.2106 0.39276 0.0
H1157 H 0.67244 0.28587 0.56634 0.0
H1158 H 0.67805 0.25871 0.38392 0.0
H1159 H 0.66686 0.23851 0.56564 0.0
C1160 C 0.67215 0.21673 0.53049 0.0
C1161 C 0.67688 0.20857 0.48241 0.0
C1162 C 0.67663 0.2647 0.42377 0.0
C1163 C 0.67283 0.24005 0.47618 0.0
C1164 C 0.67907 0.28039 0.42541 0.0
C1165 C 0.67803 0.28829 0.47708 0.0
C1166 C 0.67313 0.25689 0.47415 0.0
C1167 C 0.6736 0.28021 0.52573 0.0
C1168 C 0.67005 0.23241 0.5275 0.0
C1169 C 0.67863 0.21646 0.43102 0.0
N1170 N 0.67149 0.26494 0.52317 0.0
N1171 N 0.6768 0.23181 0.42942 0.0
H1172 H 0.82438 0.2849 0.02471 0.0
H1173 H 0.81326 0.20944 0.20815 0.0
H1174 H 0.815 0.28509 0.20471 0.0
H1175 H 0.82166 0.20991 0.02748 0.0
H1176 H 0.81758 0.23691 0.21079 0.0
H1177 H 0.82716 0.25733 0.02808 0.0
C1178 C 0.82305 0.27916 0.0651 0.0
C1179 C 0.81924 0.2873 0.11437 0.0
C1180 C 0.81865 0.23097 0.1707 0.0
C1181 C 0.8223 0.25567 0.11844 0.0
C1182 C 0.81621 0.21527 0.16917 0.0
C1183 C 0.81688 0.2074 0.11738 0.0
C1184 C 0.82175 0.23882 0.12005 0.0
C1185 C 0.82083 0.21554 0.06828 0.0
C1186 C 0.82464 0.2634 0.067 0.0
C1187 C 0.81782 0.27927 0.16559 0.0
N1188 N 0.82296 0.23081 0.07075 0.0
N1189 N 0.81917 0.26386 0.16617 0.0
H1190 H 0.67332 0.70788 0.50748 0.0
H1191 H 0.68283 0.78415 0.6879 0.0
H1192 H 0.68481 0.70854 0.68569 0.0
H1193 H 0.6744 0.78283 0.50735 0.0
H1194 H 0.6793 0.75657 0.69172 0.0
H1195 H 0.66933 0.7353 0.51077 0.0
C1196 C 0.67485 0.71377 0.5475 0.0
C1197 C 0.67964 0.70593 0.5962 0.0
C1198 C 0.67805 0.76235 0.65141 0.0
C1199 C 0.6752 0.73739 0.60013 0.0
C1200 C 0.68003 0.77811 0.6492 0.0
C1201 C 0.67914 0.78578 0.59707 0.0
C1202 C 0.67516 0.75425 0.60113 0.0
C1203 C 0.6754 0.77737 0.54837 0.0
C1204 C 0.67257 0.72944 0.54934 0.0
C1205 C 0.68127 0.71414 0.64698 0.0
N1206 N 0.6737 0.76205 0.55151 0.0
N1207 N 0.67924 0.72947 0.64748 0.0
H1208 H 0.5325 0.42203 0.75506 0.0
H1209 H 0.45953 0.43155 0.95371 0.0
H1210 H 0.53501 0.43274 0.93376 0.0
H1211 H 0.45762 0.42243 0.77367 0.0
H1212 H 0.48714 0.42825 0.95064 0.0
H1213 H 0.50516 0.41827 0.76465 0.0
C1214 C 0.52733 0.42344 0.79649 0.0
C1215 C 0.53604 0.42793 0.84352 0.0
C1216 C 0.48065 0.42681 0.91195 0.0
C1217 C 0.50465 0.42376 0.85471 0.0
C1218 C 0.46488 0.42867 0.91368 0.0
C1219 C 0.45627 0.42748 0.86371 0.0
C1220 C 0.48784 0.42375 0.85988 0.0
C1221 C 0.46381 0.42364 0.81314 0.0
C1222 C 0.51169 0.4213 0.80194 0.0
C1223 C 0.52873 0.42942 0.89625 0.0
N1224 N 0.47916 0.42206 0.81244 0.0
N1225 N 0.51342 0.42752 0.90029 0.0
H1226 H 0.96559 0.55969 0.44817 0.0
H1227 H 0.03223 0.58223 0.23411 0.0
H1228 H 0.95801 0.57971 0.28323 0.0
H1229 H 0.03967 0.56228 0.39925 0.0
H1230 H 0.00522 0.58475 0.25671 0.0
H1231 H 0.99285 0.56399 0.43664 0.0
C1232 C 0.96963 0.56518 0.40985 0.0
C1233 C 0.95951 0.56914 0.36626 0.0
C1234 C 0.01279 0.57997 0.28824 0.0
C1235 C 0.99073 0.57398 0.35254 0.0
C1236 C 0.02823 0.57854 0.27536 0.0
C1237 C 0.0382 0.57184 0.31452 0.0
C1238 C 0.00728 0.57461 0.34056 0.0
C1239 C 0.03237 0.56736 0.36748 0.0
C1240 C 0.98521 0.56761 0.40324 0.0
C1241 C 0.9654 0.57632 0.31772 0.0
N1242 N 0.01728 0.56868 0.37869 0.0
N1243 N 0.98063 0.57834 0.31188 0.0
H1244 H 0.96054 0.42676 0.8298 0.0
H1245 H 0.03575 0.43872 0.64553 0.0
H1246 H 0.96021 0.44111 0.65451 0.0
H1247 H 0.0355 0.42586 0.82245 0.0
H1248 H 0.0081 0.43577 0.64332 0.0
H1249 H 0.98787 0.42249 0.82307 0.0
C1250 C 0.96619 0.42887 0.78967 0.0
C1251 C 0.95811 0.43452 0.74287 0.0
C1252 C 0.01413 0.43342 0.68242 0.0
C1253 C 0.98947 0.42976 0.735 0.0
C1254 C 0.02992 0.43507 0.68369 0.0
C1255 C 0.03793 0.43275 0.73449 0.0
C1256 C 0.00631 0.42945 0.73231 0.0
C1257 C 0.02979 0.42796 0.78253 0.0
C1258 C 0.98182 0.42643 0.78586 0.0
C1259 C 0.96601 0.43688 0.69182 0.0
N1260 N 0.01442 0.42662 0.78039 0.0
N1261 N 0.9813 0.43467 0.68943 0.0
H1262 H 0.45853 0.56609 0.13321 0.0
H1263 H 0.5375 0.57644 0.29534 0.0
H1264 H 0.46284 0.57412 0.31338 0.0
H1265 H 0.53393 0.56276 0.11973 0.0
H1266 H 0.51015 0.58088 0.29735 0.0
H1267 H 0.48594 0.56999 0.12277 0.0
C1268 C 0.46519 0.5689 0.17044 0.0
C1269 C 0.45843 0.56953 0.22442 0.0
C1270 C 0.51536 0.57707 0.25815 0.0
C1271 C 0.48976 0.57395 0.21275 0.0
C1272 C 0.531 0.57454 0.25694 0.0
C1273 C 0.53798 0.56896 0.20755 0.0
C1274 C 0.50659 0.57391 0.20975 0.0
C1275 C 0.52899 0.5669 0.15891 0.0
C1276 C 0.48084 0.57109 0.16445 0.0
C1277 C 0.46761 0.5733 0.27108 0.0
N1278 N 0.51371 0.56918 0.16145 0.0
N1279 N 0.48281 0.57521 0.26424 0.0
H1280 H 0.20686 0.1521 0.2114 0.0
H1281 H 0.28903 0.15167 0.35192 0.0
H1282 H 0.24795 0.14444 0.11509 0.0
H1283 H 0.24758 0.14741 0.44901 0.0
H1284 H 0.27428 0.14886 0.26457 0.0
H1285 H 0.22157 0.15023 0.29903 0.0
C1286 C 0.21896 0.1499 0.20869 0.0
C1287 C 0.22621 0.14852 0.15584 0.0
C1288 C 0.26844 0.14839 0.30502 0.0
C1289 C 0.24314 0.14651 0.25597 0.0
C1290 C 0.27685 0.15002 0.3549 0.0
C1291 C 0.26951 0.14988 0.40784 0.0
C1292 C 0.25257 0.14679 0.30808 0.0
C1293 C 0.25371 0.14765 0.40915 0.0
C1294 C 0.22735 0.14881 0.25875 0.0
C1295 C 0.2419 0.14561 0.15491 0.0
N1296 N 0.24574 0.14634 0.35998 0.0
N1297 N 0.24988 0.14487 0.20423 0.0
H1298 H 0.09098 0.95367 0.48154 0.0
H1299 H 0.08947 0.03563 0.62304 0.0
H1300 H 0.09823 0.99486 0.38561 0.0
H1301 H 0.09757 0.99472 0.71966 0.0
H1302 H 0.09181 0.02089 0.53542 0.0
H1303 H 0.09256 0.96842 0.56939 0.0
C1304 C 0.093 0.9658 0.47896 0.0
C1305 C 0.09441 0.97306 0.42616 0.0
C1306 C 0.09321 0.01517 0.57578 0.0
C1307 C 0.09607 0.99001 0.52647 0.0
C1308 C 0.09183 0.02356 0.62582 0.0
C1309 C 0.09326 0.01638 0.67874 0.0
C1310 C 0.09581 -0.00057 0.57866 0.0
C1311 C 0.09639 0.00072 0.67978 0.0
C1312 C 0.09395 0.9742 0.52913 0.0
C1313 C 0.09708 0.98879 0.42538 0.0
N1314 N 0.0974 0.99274 0.63047 0.0
N1315 N 0.09766 0.99678 0.47477 0.0
H1316 H 0.25058 0.8527 0.94516 0.0
H1317 H 0.24873 0.85113 0.60565 0.0
H1318 H 0.2093 0.84992 0.84651 0.0
H1319 H 0.28894 0.84159 0.70457 0.0
H1320 H 0.2347 0.85586 0.69347 0.0
H1321 H 0.26525 0.85392 0.857 0.0
C1322 C 0.24458 0.85256 0.90501 0.0
C1323 C 0.2287 0.85103 0.90315 0.0
C1324 C 0.24662 0.85283 0.69589 0.0
C1325 C 0.24542 0.85239 0.80233 0.0
C1326 C 0.25465 0.85016 0.64579 0.0
C1327 C 0.26999 0.84579 0.64781 0.0
C1328 C 0.25399 0.85122 0.74838 0.0
C1329 C 0.27709 0.84479 0.70106 0.0
C1330 C 0.25297 0.85319 0.85474 0.0
C1331 C 0.22153 0.85093 0.84991 0.0
N1332 N 0.269 0.84741 0.74928 0.0
N1333 N 0.22996 0.8515 0.8016 0.0
H1334 H 0.39657 0.99634 0.8725 0.0
H1335 H 0.3939 0.99732 0.21193 0.0
H1336 H 0.40018 0.03739 0.97234 0.0
H1337 H 0.40387 0.9572 0.11283 0.0
H1338 H 0.39128 0.01186 0.12398 0.0
H1339 H 0.39427 0.98162 0.96006 0.0
C1340 C 0.39672 0.00229 0.91279 0.0
C1341 C 0.39872 0.01811 0.91514 0.0
C1342 C 0.39394 -0.00015 0.12157 0.0
C1343 C 0.39608 0.00133 0.01538 0.0
C1344 C 0.39539 0.99153 0.1717 0.0
C1345 C 0.39924 0.97604 0.16969 0.0
C1346 C 0.39622 0.99261 0.06911 0.0
C1347 C 0.40102 0.96914 0.11635 0.0
C1348 C 0.39546 0.99386 0.96273 0.0
C1349 C 0.39879 0.0252 0.96857 0.0
N1350 N 0.39954 0.97748 0.06817 0.0
N1351 N 0.39756 0.01674 0.01663 0.0
H1352 H 0.78998 0.84284 0.84854 0.0
H1353 H 0.70781 0.84166 0.70846 0.0
H1354 H 0.7488 0.84992 0.94496 0.0
H1355 H 0.7491 0.84693 0.61109 0.0
H1356 H 0.72253 0.8448 0.79572 0.0
H1357 H 0.77521 0.84446 0.76095 0.0
C1358 C 0.77785 0.84486 0.85128 0.0
C1359 C 0.77059 0.84615 0.90414 0.0
C1360 C 0.72834 0.84542 0.75522 0.0
C1361 C 0.75361 0.84786 0.8041 0.0
C1362 C 0.71995 0.84359 0.7054 0.0
C1363 C 0.72726 0.84392 0.65242 0.0
C1364 C 0.74417 0.8474 0.75206 0.0
C1365 C 0.743 0.84654 0.651 0.0
C1366 C 0.76943 0.84581 0.80125 0.0
C1367 C 0.75486 0.84883 0.90514 0.0
N1368 N 0.75095 0.84801 0.70012 0.0
N1369 N 0.74686 0.84943 0.85585 0.0
H1370 H 0.89242 -0.00157 0.70252 0.0
H1371 H 0.89708 -0.00056 0.36339 0.0
H1372 H 0.9015 0.03889 0.60443 0.0
H1373 H 0.9015 0.95856 0.46354 0.0
H1374 H 0.89384 0.01411 0.45074 0.0
H1375 H 0.89088 0.9838 0.61434 0.0
C1376 C 0.89393 0.00427 0.66244 0.0
C1377 C 0.89722 0.01989 0.66083 0.0
C1378 C 0.89542 0.00191 0.45352 0.0
C1379 C 0.89545 0.00322 0.55996 0.0
C1380 C 0.89722 0.99352 0.4037 0.0
C1381 C 0.8997 0.97776 0.40621 0.0
C1382 C 0.89598 0.99449 0.50622 0.0
C1383 C 0.89974 0.97071 0.45965 0.0
C1384 C 0.8931 0.9959 0.61218 0.0
C1385 C 0.89906 0.02686 0.60767 0.0
N1386 N 0.89797 0.97913 0.5076 0.0
N1387 N 0.8982 0.01846 0.55934 0.0
H1388 H 0.78745 0.15219 0.23015 0.0
H1389 H 0.7053 0.15347 0.3712 0.0
H1390 H 0.74597 0.14746 0.1337 0.0
H1391 H 0.7464 0.14632 0.46776 0.0
H1392 H 0.72 0.15109 0.28362 0.0
H1393 H 0.77272 0.14981 0.31779 0.0
C1394 C 0.77526 0.15053 0.22737 0.0
C1395 C 0.76791 0.15014 0.17452 0.0
C1396 C 0.72578 0.14989 0.32396 0.0
C1397 C 0.75099 0.14755 0.2746 0.0
C1398 C 0.7174 0.15128 0.37399 0.0
C1399 C 0.72465 0.15019 0.42687 0.0
C1400 C 0.74157 0.14759 0.3268 0.0
C1401 C 0.74035 0.14727 0.42791 0.0
C1402 C 0.76687 0.14914 0.27743 0.0
C1403 C 0.75211 0.14789 0.17349 0.0
N1404 N 0.74832 0.14624 0.3786 0.0
N1405 N 0.74416 0.14684 0.2228 0.0
H1406 H 0.60017 0.00015 0.21992 0.0
H1407 H 0.60017 -0.00093 0.88034 0.0
H1408 H 0.59361 0.95934 0.12085 0.0
H1409 H 0.59037 0.03926 0.97924 0.0
H1410 H 0.60295 0.98459 0.96845 0.0
H1411 H 0.60178 0.01484 0.13182 0.0
C1412 C 0.59924 0.99425 0.17967 0.0
C1413 C 0.59664 0.97852 0.17768 0.0
C1414 C 0.60029 0.9966 0.97076 0.0
C1415 C 0.59852 0.99523 0.07702 0.0
C1416 C 0.59875 0.00489 0.92056 0.0
C1417 C 0.59492 0.02037 0.92248 0.0
C1418 C 0.59815 0.0039 0.02321 0.0
C1419 C 0.59321 0.02732 0.9758 0.0
C1420 C 0.60009 0.00265 0.12949 0.0
C1421 C 0.5955 0.97147 0.12434 0.0
N1422 N 0.59482 0.01902 0.02409 0.0
N1423 N 0.59642 0.97988 0.0761 0.0
H1424 H 0.79015 0.65186 0.85021 0.0
H1425 H 0.70794 0.65091 0.71057 0.0
H1426 H 0.7489 0.64643 0.94773 0.0
H1427 H 0.74905 0.64377 0.61382 0.0
H1428 H 0.72274 0.64915 0.79806 0.0
H1429 H 0.7754 0.64877 0.76299 0.0
C1430 C 0.77802 0.6499 0.85331 0.0
C1431 C 0.77073 0.64951 0.90633 0.0
C1432 C 0.7285 0.64781 0.75771 0.0
C1433 C 0.75378 0.6461 0.80674 0.0
C1434 C 0.72006 0.64885 0.70773 0.0
C1435 C 0.72729 0.64758 0.65481 0.0
C1436 C 0.74432 0.64571 0.75474 0.0
C1437 C 0.74301 0.64484 0.6537 0.0
C1438 C 0.76961 0.6481 0.80351 0.0
C1439 C 0.75499 0.64686 0.9078 0.0
N1440 N 0.75104 0.64417 0.70293 0.0
N1441 N 0.74702 0.64542 0.85871 0.0
H1442 H 0.5995 0.49753 0.18708 0.0
H1443 H 0.59811 0.49863 0.84752 0.0
H1444 H 0.59136 0.5382 0.08908 0.0
H1445 H 0.59023 0.45812 0.94677 0.0
H1446 H 0.60053 0.51326 0.93557 0.0
H1447 H 0.60101 0.48293 0.09875 0.0
C1448 C 0.59818 0.50342 0.147 0.0
C1449 C 0.59519 0.51909 0.14543 0.0
C1450 C 0.59836 0.50115 0.93796 0.0
C1451 C 0.59697 0.50247 0.0444 0.0
C1452 C 0.59704 0.49279 0.88779 0.0
C1453 C 0.59386 0.47716 0.88983 0.0
C1454 C 0.59668 0.4938 0.99049 0.0
C1455 C 0.59257 0.47018 0.94322 0.0
C1456 C 0.59898 0.49507 0.09666 0.0
C1457 C 0.59356 0.52612 0.09226 0.0
N1458 N 0.59397 0.47855 0.99145 0.0
N1459 N 0.59445 0.51775 0.04384 0.0
H1460 H 0.70141 0.35714 0.3318 0.0
H1461 H 0.78504 0.33486 0.22563 0.0
H1462 H 0.73493 0.33452 0.43568 0.0
H1463 H 0.75154 0.35623 0.11802 0.0
H1464 H 0.76736 0.33656 0.30519 0.0
H1465 H 0.72013 0.3588 0.25499 0.0
C1466 C 0.71271 0.35261 0.3386 0.0
C1467 C 0.71656 0.34558 0.39009 0.0
C1468 C 0.76389 0.34096 0.26426 0.0
C1469 C 0.738 0.34741 0.30252 0.0
C1470 C 0.774 0.34 0.21878 0.0
C1471 C 0.76974 0.34532 0.16496 0.0
C1472 C 0.74937 0.34724 0.25596 0.0
C1473 C 0.75529 0.35192 0.15872 0.0
C1474 C 0.72339 0.35354 0.29473 0.0
C1475 C 0.7314 0.33993 0.39658 0.0
N1476 N 0.74558 0.35262 0.2036 0.0
N1477 N 0.74153 0.34092 0.35327 0.0
H1478 H 0.90175 0.46179 0.63602 0.0
H1479 H 0.90222 0.54403 0.49662 0.0
H1480 H 0.89505 0.50285 0.7335 0.0
H1481 H 0.89616 0.50282 0.39946 0.0
H1482 H 0.89951 0.52927 0.58405 0.0
H1483 H 0.89959 0.47663 0.54877 0.0
C1484 C 0.89969 0.47391 0.63907 0.0
C1485 C 0.89868 0.48111 0.69212 0.0
C1486 C 0.89862 0.52349 0.54357 0.0
C1487 C 0.89636 0.49819 0.59243 0.0
C1488 C 0.9002 0.53191 0.49365 0.0
C1489 C 0.89953 0.52463 0.44065 0.0
C1490 C 0.89655 0.50767 0.54045 0.0
C1491 C 0.89682 0.5089 0.43936 0.0
C1492 C 0.89843 0.48237 0.58923 0.0
C1493 C 0.89593 0.49683 0.69351 0.0
N1494 N 0.89559 0.50092 0.48852 0.0
N1495 N 0.89504 0.50488 0.64438 0.0
H1496 H 0.24774 0.34883 0.12572 0.0
H1497 H 0.24663 0.34876 0.46526 0.0
H1498 H 0.2072 0.34145 0.22557 0.0
H1499 H 0.28748 0.34242 0.36609 0.0
H1500 H 0.23206 0.35111 0.37743 0.0
H1501 H 0.26239 0.3514 0.21344 0.0
C1502 C 0.24189 0.34789 0.16606 0.0
C1503 C 0.22624 0.34479 0.16836 0.0
C1504 C 0.24423 0.34932 0.37495 0.0
C1505 C 0.24294 0.34777 0.26869 0.0
C1506 C 0.25258 0.34803 0.42505 0.0
C1507 C 0.26828 0.34524 0.42301 0.0
C1508 C 0.25165 0.34792 0.32243 0.0
C1509 C 0.27537 0.34444 0.36964 0.0
C1510 C 0.25027 0.34931 0.21606 0.0
C1511 C 0.21926 0.34371 0.22183 0.0
N1512 N 0.26698 0.34571 0.32142 0.0
N1513 N 0.22767 0.34515 0.26989 0.0
H1514 H 0.38601 0.49466 0.87463 0.0
H1515 H 0.41309 0.51154 0.19249 0.0
H1516 H 0.40981 0.46228 0.97986 0.0
H1517 H 0.38931 0.54437 0.08915 0.0
H1518 H 0.41039 0.49284 0.11689 0.0
H1519 H 0.38544 0.51243 0.95448 0.0
C1520 C 0.39102 0.49123 0.91463 0.0
C1521 C 0.39806 0.47699 0.92044 0.0
C1522 C 0.40569 0.5041 0.11072 0.0
C1523 C 0.3975 0.4973 0.01189 0.0
C1524 C 0.40725 0.51482 0.15392 0.0
C1525 C 0.40151 0.5296 0.14699 0.0
C1526 C 0.3984 0.50817 0.05996 0.0
C1527 C 0.39395 0.53313 0.09622 0.0
C1528 C 0.3907 0.5014 0.96019 0.0
C1529 C 0.40432 0.47315 0.97332 0.0
N1530 N 0.39269 0.52251 0.05446 0.0
N1531 N 0.40397 0.48328 0.01685 0.0
H1532 H 0.243 0.64752 0.94333 0.0
H1533 H 0.24224 0.64469 0.60395 0.0
H1534 H 0.20257 0.65515 0.84335 0.0
H1535 H 0.28299 0.65081 0.70353 0.0
H1536 H 0.22734 0.64384 0.69171 0.0
H1537 H 0.25753 0.64405 0.8559 0.0
C1538 C 0.23714 0.64835 0.90301 0.0
C1539 C 0.22155 0.65175 0.90064 0.0
C1540 C 0.23956 0.64526 0.69426 0.0
C1541 C 0.23815 0.64776 0.80044 0.0
C1542 C 0.24808 0.64568 0.64426 0.0
C1543 C 0.26388 0.64793 0.64643 0.0
C1544 C 0.24691 0.64695 0.74679 0.0
C1545 C 0.27083 0.64917 0.69985 0.0
C1546 C 0.24546 0.6464 0.85313 0.0
C1547 C 0.21458 0.65265 0.84714 0.0
N1548 N 0.26229 0.6487 0.74791 0.0
N1549 N 0.22294 0.6507 0.7991 0.0
H1550 H 0.09965 0.53967 0.48295 0.0
H1551 H 0.09537 0.45793 0.6252 0.0
H1552 H 0.10206 0.49794 0.38665 0.0
H1553 H 0.10308 0.49915 0.72072 0.0
H1554 H 0.09897 0.47222 0.53728 0.0
H1555 H 0.10216 0.52501 0.57044 0.0
C1556 C 0.10087 0.52743 0.48017 0.0
C1557 C 0.10049 0.52 0.42745 0.0
C1558 C 0.10004 0.47811 0.57749 0.0
C1559 C 0.10321 0.50314 0.52748 0.0
C1560 C 0.09795 0.46996 0.62772 0.0
C1561 C 0.09877 0.47739 0.68039 0.0
C1562 C 0.10279 0.49383 0.57991 0.0
C1563 C 0.10225 0.49297 0.68107 0.0
C1564 C 0.10233 0.51907 0.53016 0.0
C1565 C 0.10223 0.50414 0.42638 0.0
N1566 N 0.10396 0.50071 0.63157 0.0
N1567 N 0.10331 0.49621 0.47572 0.0
loop_
_geom_bond_atom_site_label_1
_geom_bond_atom_site_label_2
_geom_bond_distance
_geom_bond_site_symmetry_2
_ccdc_geom_bond_type
C0 O1 1.160 . S
C0 O7 1.185 . S
O1 C0 1.160 . S
O2 Zn3 1.899 . S
O2 C10 1.284 . S
Zn3 O2 1.899 . S
Zn3 O4 2.032 1_554 S
Zn3 O7 2.086 . S
Zn3 O12 1.977 . S
O4 Zn3 2.032 1_556 S
O4 C8 1.278 . S
C5 O6 1.203 . S
C5 O12 1.267 . S
O6 C5 1.203 . S
O7 C0 1.185 . S
O7 Zn3 2.086 . S
C8 O4 1.278 . S
C8 O9 1.211 . S
O9 C8 1.211 . S
C10 O2 1.284 . S
C10 O11 1.273 . S
O11 C10 1.273 . S
O12 Zn3 1.977 . S
O12 C5 1.267 . S
C13 O14 1.160 . S
C13 O20 1.185 . S
O14 C13 1.160 . S
O15 Zn16 1.899 . S
O15 C23 1.284 . S
Zn16 O15 1.899 . S
Zn16 O17 2.032 . S
Zn16 O20 2.086 . S
Zn16 O25 1.977 . S
O17 Zn16 2.032 . S
O17 C21 1.278 . S
C18 O19 1.203 . S
C18 O25 1.267 . S
O19 C18 1.203 . S
O20 C13 1.185 . S
O20 Zn16 2.086 . S
C21 O17 1.278 . S
C21 O22 1.211 . S
O22 C21 1.211 . S
C23 O15 1.284 . S
C23 O24 1.273 . S
O24 C23 1.273 . S
O25 Zn16 1.977 . S
O25 C18 1.267 . S
C26 O27 1.160 . S
C26 O33 1.185 . S
O27 C26 1.160 . S
O28 Zn29 1.899 . S
O28 C36 1.284 . S
Zn29 O28 1.899 . S
Zn29 O30 2.032 . S
Zn29 O33 2.086 . S
Zn29 O38 1.977 . S
O30 Zn29 2.032 . S
O30 C34 1.278 . S
C31 O32 1.203 . S
C31 O38 1.267 . S
O32 C31 1.203 . S
O33 C26 1.185 . S
O33 Zn29 2.086 . S
C34 O30 1.278 . S
C34 O35 1.211 . S
O35 C34 1.211 . S
C36 O28 1.284 . S
C36 O37 1.273 . S
O37 C36 1.273 . S
O38 Zn29 1.977 . S
O38 C31 1.267 . S
C39 O40 1.160 . S
C39 O46 1.185 . S
O40 C39 1.160 . S
O41 Zn42 1.899 . S
O41 C49 1.284 . S
Zn42 O41 1.899 . S
Zn42 O43 2.032 . S
Zn42 O46 2.086 . S
Zn42 O51 1.977 . S
O43 Zn42 2.032 . S
O43 C47 1.278 . S
C44 O45 1.203 . S
C44 O51 1.267 . S
O45 C44 1.203 . S
O46 C39 1.185 . S
O46 Zn42 2.086 . S
C47 O43 1.278 . S
C47 O48 1.211 . S
O48 C47 1.211 . S
C49 O41 1.284 . S
C49 O50 1.273 . S
O50 C49 1.273 . S
O51 Zn42 1.977 . S
O51 C44 1.267 . S
C52 O53 1.160 . S
C52 O59 1.185 . S
O53 C52 1.160 . S
O54 Zn55 1.899 1_556 S
O54 C62 1.284 . S
Zn55 O54 1.899 1_554 S
Zn55 O56 2.032 . S
Zn55 O59 2.086 . S
Zn55 O64 1.977 . S
O56 Zn55 2.032 . S
O56 C60 1.278 . S
C57 O58 1.203 . S
C57 O64 1.267 . S
O58 C57 1.203 . S
O59 C52 1.185 . S
O59 Zn55 2.086 . S
C60 O56 1.278 . S
C60 O61 1.211 . S
O61 C60 1.211 . S
C62 O54 1.284 . S
C62 O63 1.273 1_556 S
O63 C62 1.273 1_554 S
O64 Zn55 1.977 . S
O64 C57 1.267 . S
C65 O66 1.160 . S
C65 O72 1.185 . S
O66 C65 1.160 . S
O67 Zn68 1.899 . S
O67 C75 1.284 . S
Zn68 O67 1.899 . S
Zn68 O69 2.032 . S
Zn68 O72 2.086 . S
Zn68 O77 1.977 . S
O69 Zn68 2.032 . S
O69 C73 1.278 . S
C70 O71 1.203 . S
C70 O77 1.267 . S
O71 C70 1.203 . S
O72 C65 1.185 . S
O72 Zn68 2.086 . S
C73 O69 1.278 . S
C73 O74 1.211 . S
O74 C73 1.211 . S
C75 O67 1.284 . S
C75 O76 1.273 . S
O76 C75 1.273 . S
O77 Zn68 1.977 . S
O77 C70 1.267 . S
C78 O79 1.160 . S
C78 O85 1.185 . S
O79 C78 1.160 . S
O80 Zn81 1.899 . S
O80 C88 1.284 . S
Zn81 O80 1.899 . S
Zn81 O82 2.032 . S
Zn81 O85 2.086 . S
Zn81 O90 1.977 . S
O82 Zn81 2.032 . S
O82 C86 1.278 . S
C83 O84 1.203 . S
C83 O90 1.267 . S
O84 C83 1.203 . S
O85 C78 1.185 . S
O85 Zn81 2.086 . S
C86 O82 1.278 . S
C86 O87 1.211 . S
O87 C86 1.211 . S
C88 O80 1.284 . S
C88 O89 1.273 . S
O89 C88 1.273 . S
O90 Zn81 1.977 . S
O90 C83 1.267 . S
C91 O92 1.160 . S
C91 O98 1.185 . S
O92 C91 1.160 . S
O93 Zn94 1.899 . S
O93 C101 1.284 . S
Zn94 O93 1.899 . S
Zn94 O95 2.032 . S
Zn94 O98 2.086 . S
Zn94 O103 1.977 . S
O95 Zn94 2.032 . S
O95 C99 1.278 . S
C96 O97 1.203 . S
C96 O103 1.267 . S
O97 C96 1.203 . S
O98 C91 1.185 . S
O98 Zn94 2.086 . S
C99 O95 1.278 . S
C99 O100 1.211 . S
O100 C99 1.211 . S
C101 O93 1.284 . S
C101 O102 1.273 . S
O102 C101 1.273 . S
O103 Zn94 1.977 . S
O103 C96 1.267 . S
C104 O105 1.160 . S
C104 O111 1.185 . S
O105 C104 1.160 . S
O106 Zn107 1.899 1_556 S
O106 C114 1.284 . S
Zn107 O106 1.899 1_554 S
Zn107 O108 2.032 . S
Zn107 O111 2.086 . S
Zn107 O116 1.977 . S
O108 Zn107 2.032 . S
O108 C112 1.278 . S
C109 O110 1.203 . S
C109 O116 1.267 . S
O110 C109 1.203 . S
O111 C104 1.185 . S
O111 Zn107 2.086 . S
C112 O108 1.278 . S
C112 O113 1.211 . S
O113 C112 1.211 . S
C114 O106 1.284 . S
C114 O115 1.273 1_556 S
O115 C114 1.273 1_554 S
O116 Zn107 1.977 . S
O116 C109 1.267 . S
C117 O118 1.160 . S
C117 O124 1.185 . S
O118 C117 1.160 . S
O119 Zn120 1.899 . S
O119 C127 1.284 . S
Zn120 O119 1.899 . S
Zn120 O121 2.032 . S
Zn120 O124 2.086 . S
Zn120 O129 1.977 . S
O121 Zn120 2.032 . S
O121 C125 1.278 . S
C122 O123 1.203 . S
C122 O129 1.267 . S
O123 C122 1.203 . S
O124 C117 1.185 . S
O124 Zn120 2.086 . S
C125 O121 1.278 . S
C125 O126 1.211 . S
O126 C125 1.211 . S
C127 O119 1.284 . S
C127 O128 1.273 . S
O128 C127 1.273 . S
O129 Zn120 1.977 . S
O129 C122 1.267 . S
C130 O131 1.160 . S
C130 O137 1.185 . S
O131 C130 1.160 . S
O132 Zn133 1.899 . S
O132 C140 1.284 . S
Zn133 O132 1.899 . S
Zn133 O134 2.032 . S
Zn133 O137 2.086 . S
Zn133 O142 1.977 . S
O134 Zn133 2.032 . S
O134 C138 1.278 . S
C135 O136 1.203 . S
C135 O142 1.267 . S
O136 C135 1.203 . S
O137 C130 1.185 . S
O137 Zn133 2.086 . S
C138 O134 1.278 . S
C138 O139 1.211 . S
O139 C138 1.211 . S
C140 O132 1.284 . S
C140 O141 1.273 . S
O141 C140 1.273 . S
O142 Zn133 1.977 . S
O142 C135 1.267 . S
C143 O144 1.160 . S
C143 O150 1.185 . S
O144 C143 1.160 . S
O145 Zn146 1.899 . S
O145 C153 1.284 . S
Zn146 O145 1.899 . S
Zn146 O147 2.032 . S
Zn146 O150 2.086 . S
Zn146 O155 1.977 . S
O147 Zn146 2.032 . S
O147 C151 1.278 . S
C148 O149 1.203 . S
C148 O155 1.267 . S
O149 C148 1.203 . S
O150 C143 1.185 . S
O150 Zn146 2.086 . S
C151 O147 1.278 . S
C151 O152 1.211 . S
O152 C151 1.211 . S
C153 O145 1.284 . S
C153 O154 1.273 . S
O154 C153 1.273 . S
O155 Zn146 1.977 . S
O155 C148 1.267 . S
C156 O157 1.160 . S
C156 O163 1.185 . S
O157 C156 1.160 . S
O158 Zn159 1.899 . S
O158 C166 1.284 . S
Zn159 O158 1.899 . S
Zn159 O160 2.032 1_554 S
Zn159 O163 2.086 . S
Zn159 O168 1.977 . S
O160 Zn159 2.032 1_556 S
O160 C164 1.278 . S
C161 O162 1.203 . S
C161 O168 1.267 . S
O162 C161 1.203 . S
O163 C156 1.185 . S
O163 Zn159 2.086 . S
C164 O160 1.278 . S
C164 O165 1.211 . S
O165 C164 1.211 . S
C166 O158 1.284 . S
C166 O167 1.273 . S
O167 C166 1.273 . S
O168 Zn159 1.977 . S
O168 C161 1.267 . S
C169 O170 1.160 . S
C169 O176 1.185 . S
O170 C169 1.160 . S
O171 Zn172 1.899 . S
O171 C179 1.284 . S
Zn172 O171 1.899 . S
Zn172 O173 2.032 . S
Zn172 O176 2.086 . S
Zn172 O181 1.977 . S
O173 Zn172 2.032 . S
O173 C177 1.278 . S
C174 O175 1.203 . S
C174 O181 1.267 . S
O175 C174 1.203 . S
O176 C169 1.185 . S
O176 Zn172 2.086 . S
C177 O173 1.278 . S
C177 O178 1.211 . S
O178 C177 1.211 . S
C179 O171 1.284 . S
C179 O180 1.273 . S
O180 C179 1.273 . S
O181 Zn172 1.977 . S
O181 C174 1.267 . S
C182 O183 1.160 . S
C182 O189 1.185 . S
O183 C182 1.160 . S
O184 Zn185 1.899 . S
O184 C192 1.284 . S
Zn185 O184 1.899 . S
Zn185 O186 2.032 . S
Zn185 O189 2.086 . S
Zn185 O194 1.977 . S
O186 Zn185 2.032 . S
O186 C190 1.278 . S
C187 O188 1.203 . S
C187 O194 1.267 . S
O188 C187 1.203 . S
O189 C182 1.185 . S
O189 Zn185 2.086 . S
C190 O186 1.278 . S
C190 O191 1.211 . S
O191 C190 1.211 . S
C192 O184 1.284 . S
C192 O193 1.273 . S
O193 C192 1.273 . S
O194 Zn185 1.977 . S
O194 C187 1.267 . S
C195 O196 1.160 . S
C195 O202 1.185 . S
O196 C195 1.160 . S
O197 Zn198 1.899 . S
O197 C205 1.284 . S
Zn198 O197 1.899 . S
Zn198 O199 2.032 . S
Zn198 O202 2.086 . S
Zn198 O207 1.977 . S
O199 Zn198 2.032 . S
O199 C203 1.278 . S
C200 O201 1.203 . S
C200 O207 1.267 . S
O201 C200 1.203 . S
O202 C195 1.185 . S
O202 Zn198 2.086 . S
C203 O199 1.278 . S
C203 O204 1.211 . S
O204 C203 1.211 . S
C205 O197 1.284 . S
C205 O206 1.273 . S
O206 C205 1.273 . S
O207 Zn198 1.977 . S
O207 C200 1.267 . S
C208 O209 1.160 . S
C208 O215 1.185 . S
O209 C208 1.160 . S
O210 Zn211 1.899 . S
O210 C218 1.284 . S
Zn211 O210 1.899 . S
Zn211 O212 2.032 . S
Zn211 O215 2.086 . S
Zn211 O220 1.977 . S
O212 Zn211 2.032 . S
O212 C216 1.278 . S
C213 O214 1.203 . S
C213 O220 1.267 . S
O214 C213 1.203 . S
O215 C208 1.185 . S
O215 Zn211 2.086 . S
C216 O212 1.278 . S
C216 O217 1.211 . S
O217 C216 1.211 . S
C218 O210 1.284 . S
C218 O219 1.273 . S
O219 C218 1.273 . S
O220 Zn211 1.977 . S
O220 C213 1.267 . S
C221 O222 1.160 . S
C221 O228 1.185 . S
O222 C221 1.160 . S
O223 Zn224 1.899 . S
O223 C231 1.284 . S
Zn224 O223 1.899 . S
Zn224 O225 2.032 . S
Zn224 O228 2.086 . S
Zn224 O233 1.977 . S
O225 Zn224 2.032 . S
O225 C229 1.278 . S
C226 O227 1.203 . S
C226 O233 1.267 . S
O227 C226 1.203 . S
O228 C221 1.185 . S
O228 Zn224 2.086 . S
C229 O225 1.278 . S
C229 O230 1.211 . S
O230 C229 1.211 . S
C231 O223 1.284 . S
C231 O232 1.273 . S
O232 C231 1.273 . S
O233 Zn224 1.977 . S
O233 C226 1.267 . S
C234 O235 1.160 . S
C234 O241 1.185 . S
O235 C234 1.160 . S
O236 Zn237 1.899 . S
O236 C244 1.284 . S
Zn237 O236 1.899 . S
Zn237 O238 2.032 1_554 S
Zn237 O241 2.086 . S
Zn237 O246 1.977 . S
O238 Zn237 2.032 1_556 S
O238 C242 1.278 . S
C239 O240 1.203 . S
C239 O246 1.267 . S
O240 C239 1.203 . S
O241 C234 1.185 . S
O241 Zn237 2.086 . S
C242 O238 1.278 . S
C242 O243 1.211 . S
O243 C242 1.211 . S
C244 O236 1.284 . S
C244 O245 1.273 . S
O245 C244 1.273 . S
O246 Zn237 1.977 . S
O246 C239 1.267 . S
C247 O248 1.160 . S
C247 O254 1.185 . S
O248 C247 1.160 . S
O249 Zn250 1.899 . S
O249 C257 1.284 . S
Zn250 O249 1.899 . S
Zn250 O251 2.032 . S
Zn250 O254 2.086 . S
Zn250 O259 1.977 . S
O251 Zn250 2.032 . S
O251 C255 1.278 . S
C252 O253 1.203 . S
C252 O259 1.267 . S
O253 C252 1.203 . S
O254 C247 1.185 . S
O254 Zn250 2.086 . S
C255 O251 1.278 . S
C255 O256 1.211 . S
O256 C255 1.211 . S
C257 O249 1.284 . S
C257 O258 1.273 . S
O258 C257 1.273 . S
O259 Zn250 1.977 . S
O259 C252 1.267 . S
C260 O261 1.160 . S
C260 O267 1.185 . S
O261 C260 1.160 . S
O262 Zn263 1.899 . S
O262 C270 1.284 . S
Zn263 O262 1.899 . S
Zn263 O264 2.032 . S
Zn263 O267 2.086 . S
Zn263 O272 1.977 . S
O264 Zn263 2.032 . S
O264 C268 1.278 . S
C265 O266 1.203 . S
C265 O272 1.267 . S
O266 C265 1.203 . S
O267 C260 1.185 . S
O267 Zn263 2.086 . S
C268 O264 1.278 . S
C268 O269 1.211 . S
O269 C268 1.211 . S
C270 O262 1.284 . S
C270 O271 1.273 . S
O271 C270 1.273 . S
O272 Zn263 1.977 . S
O272 C265 1.267 . S
C273 O274 1.160 . S
C273 O280 1.185 . S
O274 C273 1.160 . S
O275 Zn276 1.899 . S
O275 C283 1.284 . S
Zn276 O275 1.899 . S
Zn276 O277 2.032 . S
Zn276 O280 2.086 . S
Zn276 O285 1.977 . S
O277 Zn276 2.032 . S
O277 C281 1.278 . S
C278 O279 1.203 . S
C278 O285 1.267 . S
O279 C278 1.203 . S
O280 C273 1.185 . S
O280 Zn276 2.086 . S
C281 O277 1.278 . S
C281 O282 1.211 . S
O282 C281 1.211 . S
C283 O275 1.284 . S
C283 O284 1.273 . S
O284 C283 1.273 . S
O285 Zn276 1.977 . S
O285 C278 1.267 . S
C286 O287 1.160 . S
C286 O293 1.185 . S
O287 C286 1.160 . S
O288 Zn289 1.899 1_556 S
O288 C296 1.284 . S
Zn289 O288 1.899 1_554 S
Zn289 O290 2.032 . S
Zn289 O293 2.086 . S
Zn289 O298 1.977 . S
O290 Zn289 2.032 . S
O290 C294 1.278 . S
C291 O292 1.203 . S
C291 O298 1.267 . S
O292 C291 1.203 . S
O293 C286 1.185 . S
O293 Zn289 2.086 . S
C294 O290 1.278 . S
C294 O295 1.211 . S
O295 C294 1.211 . S
C296 O288 1.284 . S
C296 O297 1.273 1_556 S
O297 C296 1.273 1_554 S
O298 Zn289 1.977 . S
O298 C291 1.267 . S
C299 O300 1.160 . S
C299 O306 1.185 . S
O300 C299 1.160 . S
O301 Zn302 1.899 . S
O301 C309 1.284 . S
Zn302 O301 1.899 . S
Zn302 O303 2.032 . S
Zn302 O306 2.086 . S
Zn302 O311 1.977 . S
O303 Zn302 2.032 . S
O303 C307 1.278 . S
C304 O305 1.203 . S
C304 O311 1.267 . S
O305 C304 1.203 . S
O306 C299 1.185 . S
O306 Zn302 2.086 . S
C307 O303 1.278 . S
C307 O308 1.211 . S
O308 C307 1.211 . S
C309 O301 1.284 . S
C309 O310 1.273 . S
O310 C309 1.273 . S
O311 Zn302 1.977 . S
O311 C304 1.267 . S
C312 O313 1.160 . S
C312 O319 1.185 . S
O313 C312 1.160 . S
O314 Zn315 1.899 . S
O314 C322 1.284 . S
Zn315 O314 1.899 . S
Zn315 O316 2.032 . S
Zn315 O319 2.086 . S
Zn315 O324 1.977 . S
O316 Zn315 2.032 . S
O316 C320 1.278 . S
C317 O318 1.203 . S
C317 O324 1.267 . S
O318 C317 1.203 . S
O319 C312 1.185 . S
O319 Zn315 2.086 . S
C320 O316 1.278 . S
C320 O321 1.211 . S
O321 C320 1.211 . S
C322 O314 1.284 . S
C322 O323 1.273 . S
O323 C322 1.273 . S
O324 Zn315 1.977 . S
O324 C317 1.267 . S
C325 O326 1.160 . S
C325 O332 1.185 . S
O326 C325 1.160 . S
O327 Zn328 1.899 . S
O327 C335 1.284 . S
Zn328 O327 1.899 . S
Zn328 O329 2.032 . S
Zn328 O332 2.086 . S
Zn328 O337 1.977 . S
O329 Zn328 2.032 . S
O329 C333 1.278 . S
C330 O331 1.203 . S
C330 O337 1.267 . S
O331 C330 1.203 . S
O332 C325 1.185 . S
O332 Zn328 2.086 . S
C333 O329 1.278 . S
C333 O334 1.211 . S
O334 C333 1.211 . S
C335 O327 1.284 . S
C335 O336 1.273 . S
O336 C335 1.273 . S
O337 Zn328 1.977 . S
O337 C330 1.267 . S
C338 O339 1.160 . S
C338 O345 1.185 . S
O339 C338 1.160 . S
O340 Zn341 1.899 1_556 S
O340 C348 1.284 . S
Zn341 O340 1.899 1_554 S
Zn341 O342 2.032 . S
Zn341 O345 2.086 . S
Zn341 O350 1.977 . S
O342 Zn341 2.032 . S
O342 C346 1.278 . S
C343 O344 1.203 . S
C343 O350 1.267 . S
O344 C343 1.203 . S
O345 C338 1.185 . S
O345 Zn341 2.086 . S
C346 O342 1.278 . S
C346 O347 1.211 . S
O347 C346 1.211 . S
C348 O340 1.284 . S
C348 O349 1.273 1_556 S
O349 C348 1.273 1_554 S
O350 Zn341 1.977 . S
O350 C343 1.267 . S
C351 O352 1.160 . S
C351 O358 1.185 . S
O352 C351 1.160 . S
O353 Zn354 1.899 . S
O353 C361 1.284 . S
Zn354 O353 1.899 . S
Zn354 O355 2.032 . S
Zn354 O358 2.086 . S
Zn354 O363 1.977 . S
O355 Zn354 2.032 . S
O355 C359 1.278 . S
C356 O357 1.203 . S
C356 O363 1.267 . S
O357 C356 1.203 . S
O358 C351 1.185 . S
O358 Zn354 2.086 . S
C359 O355 1.278 . S
C359 O360 1.211 . S
O360 C359 1.211 . S
C361 O353 1.284 . S
C361 O362 1.273 . S
O362 C361 1.273 . S
O363 Zn354 1.977 . S
O363 C356 1.267 . S
C364 O365 1.160 . S
C364 O371 1.185 . S
O365 C364 1.160 . S
O366 Zn367 1.899 . S
O366 C374 1.284 . S
Zn367 O366 1.899 . S
Zn367 O368 2.032 . S
Zn367 O371 2.086 . S
Zn367 O376 1.977 . S
O368 Zn367 2.032 . S
O368 C372 1.278 . S
C369 O370 1.203 . S
C369 O376 1.267 . S
O370 C369 1.203 . S
O371 C364 1.185 . S
O371 Zn367 2.086 . S
C372 O368 1.278 . S
C372 O373 1.211 . S
O373 C372 1.211 . S
C374 O366 1.284 . S
C374 O375 1.273 . S
O375 C374 1.273 . S
O376 Zn367 1.977 . S
O376 C369 1.267 . S
C377 O378 1.160 . S
C377 O384 1.185 . S
O378 C377 1.160 . S
O379 Zn380 1.899 . S
O379 C387 1.284 . S
Zn380 O379 1.899 . S
Zn380 O381 2.032 . S
Zn380 O384 2.086 . S
Zn380 O389 1.977 . S
O381 Zn380 2.032 . S
O381 C385 1.278 . S
C382 O383 1.203 . S
C382 O389 1.267 . S
O383 C382 1.203 . S
O384 C377 1.185 . S
O384 Zn380 2.086 . S
C385 O381 1.278 . S
C385 O386 1.211 . S
O386 C385 1.211 . S
C387 O379 1.284 . S
C387 O388 1.273 . S
O388 C387 1.273 . S
O389 Zn380 1.977 . S
O389 C382 1.267 . S
C390 O391 1.160 . S
C390 O397 1.185 . S
O391 C390 1.160 . S
O392 Zn393 1.899 . S
O392 C400 1.284 . S
Zn393 O392 1.899 . S
Zn393 O394 2.032 1_554 S
Zn393 O397 2.086 . S
Zn393 O402 1.977 . S
O394 Zn393 2.032 1_556 S
O394 C398 1.278 . S
C395 O396 1.203 . S
C395 O402 1.267 . S
O396 C395 1.203 . S
O397 C390 1.185 . S
O397 Zn393 2.086 . S
C398 O394 1.278 . S
C398 O399 1.211 . S
O399 C398 1.211 . S
C400 O392 1.284 . S
C400 O401 1.273 . S
O401 C400 1.273 . S
O402 Zn393 1.977 . S
O402 C395 1.267 . S
C403 O404 1.160 . S
C403 O410 1.185 . S
O404 C403 1.160 . S
O405 Zn406 1.899 . S
O405 C413 1.284 . S
Zn406 O405 1.899 . S
Zn406 O407 2.032 . S
Zn406 O410 2.086 . S
Zn406 O415 1.977 . S
O407 Zn406 2.032 . S
O407 C411 1.278 . S
C408 O409 1.203 . S
C408 O415 1.267 . S
O409 C408 1.203 . S
O410 C403 1.185 . S
O410 Zn406 2.086 . S
C411 O407 1.278 . S
C411 O412 1.211 . S
O412 C411 1.211 . S
C413 O405 1.284 . S
C413 O414 1.273 . S
O414 C413 1.273 . S
O415 Zn406 1.977 . S
O415 C408 1.267 . S
H416 C422 0.930 . S
H417 C426 0.930 . S
H418 C431 0.929 . S
H419 C429 0.929 . S
H420 C424 0.929 . S
H421 C430 0.929 . S
C422 H416 0.930 . S
C422 C423 1.367 . S
C422 C430 1.378 . S
C423 C422 1.367 . S
C423 C431 1.433 . S
C424 H420 0.929 . S
C424 C426 1.378 . S
C424 C428 1.350 . S
C425 C428 1.463 . S
C425 C430 1.350 . S
C425 N433 1.427 . S
C426 H417 0.930 . S
C426 C424 1.378 . S
C426 C427 1.367 . S
C427 C426 1.367 . S
C427 C429 1.433 1_556 S
C428 C424 1.350 . S
C428 C425 1.463 . S
C428 N432 1.427 . S
C429 H419 0.929 . S
C429 C427 1.433 1_554 S
C429 N432 1.384 1_554 S
C430 H421 0.929 . S
C430 C422 1.378 . S
C430 C425 1.350 . S
C431 H418 0.929 . S
C431 C423 1.433 . S
C431 N433 1.384 . S
N432 C428 1.427 . S
N432 C429 1.384 1_556 S
N433 C425 1.427 . S
N433 C431 1.384 . S
H434 C440 0.930 . S
H435 C444 0.930 . S
H436 C449 0.929 . S
H437 C447 0.929 . S
H438 C442 0.929 . S
H439 C448 0.929 . S
C440 H434 0.930 . S
C440 C441 1.367 . S
C440 C448 1.378 . S
C441 C440 1.367 . S
C441 C449 1.433 . S
C442 H438 0.929 . S
C442 C444 1.378 . S
C442 C446 1.350 . S
C443 C446 1.463 . S
C443 C448 1.350 . S
C443 N451 1.427 . S
C444 H435 0.930 . S
C444 C442 1.378 . S
C444 C445 1.367 . S
C445 C444 1.367 . S
C445 C447 1.433 . S
C446 C442 1.350 . S
C446 C443 1.463 . S
C446 N450 1.427 . S
C447 H437 0.929 . S
C447 C445 1.433 . S
C447 N450 1.384 . S
C448 H439 0.929 . S
C448 C440 1.378 . S
C448 C443 1.350 . S
C449 H436 0.929 . S
C449 C441 1.433 . S
C449 N451 1.384 . S
N450 C446 1.427 . S
N450 C447 1.384 . S
N451 C443 1.427 . S
N451 C449 1.384 . S
H452 C458 0.930 . S
H453 C462 0.930 . S
H454 C467 0.929 . S
H455 C465 0.929 . S
H456 C460 0.929 . S
H457 C466 0.929 . S
C458 H452 0.930 . S
C458 C459 1.367 . S
C458 C466 1.378 . S
C459 C458 1.367 . S
C459 C467 1.433 . S
C460 H456 0.929 . S
C460 C462 1.378 . S
C460 C464 1.350 . S
C461 C464 1.463 . S
C461 C466 1.350 . S
C461 N469 1.427 . S
C462 H453 0.930 . S
C462 C460 1.378 . S
C462 C463 1.367 . S
C463 C462 1.367 . S
C463 C465 1.433 . S
C464 C460 1.350 . S
C464 C461 1.463 . S
C464 N468 1.427 . S
C465 H455 0.929 . S
C465 C463 1.433 . S
C465 N468 1.384 . S
C466 H457 0.929 . S
C466 C458 1.378 . S
C466 C461 1.350 . S
C467 H454 0.929 . S
C467 C459 1.433 . S
C467 N469 1.384 . S
N468 C464 1.427 . S
N468 C465 1.384 . S
N469 C461 1.427 . S
N469 C467 1.384 . S
H470 C476 0.930 . S
H471 C480 0.930 . S
H472 C485 0.929 . S
H473 C483 0.929 . S
H474 C478 0.929 . S
H475 C484 0.929 . S
C476 H470 0.930 . S
C476 C477 1.367 . S
C476 C484 1.378 . S
C477 C476 1.367 . S
C477 C485 1.433 . S
C478 H474 0.929 . S
C478 C480 1.378 . S
C478 C482 1.350 . S
C479 C482 1.463 . S
C479 C484 1.350 . S
C479 N487 1.427 . S
C480 H471 0.930 . S
C480 C478 1.378 . S
C480 C481 1.367 . S
C481 C480 1.367 . S
C481 C483 1.433 . S
C482 C478 1.350 . S
C482 C479 1.463 . S
C482 N486 1.427 . S
C483 H473 0.929 . S
C483 C481 1.433 . S
C483 N486 1.384 . S
C484 H475 0.929 . S
C484 C476 1.378 . S
C484 C479 1.350 . S
C485 H472 0.929 . S
C485 C477 1.433 . S
C485 N487 1.384 . S
N486 C482 1.427 . S
N486 C483 1.384 . S
N487 C479 1.427 . S
N487 C485 1.384 . S
H488 C494 0.930 . S
H489 C498 0.930 . S
H490 C503 0.929 . S
H491 C501 0.929 . S
H492 C496 0.929 . S
H493 C502 0.929 . S
C494 H488 0.930 . S
C494 C495 1.367 . S
C494 C502 1.378 . S
C495 C494 1.367 . S
C495 C503 1.433 . S
C496 H492 0.929 . S
C496 C498 1.378 . S
C496 C500 1.350 . S
C497 C500 1.463 . S
C497 C502 1.350 . S
C497 N505 1.427 . S
C498 H489 0.930 . S
C498 C496 1.378 . S
C498 C499 1.367 . S
C499 C498 1.367 . S
C499 C501 1.433 . S
C500 C496 1.350 . S
C500 C497 1.463 . S
C500 N504 1.427 . S
C501 H491 0.929 . S
C501 C499 1.433 . S
C501 N504 1.384 . S
C502 H493 0.929 . S
C502 C494 1.378 . S
C502 C497 1.350 . S
C503 H490 0.929 . S
C503 C495 1.433 . S
C503 N505 1.384 . S
N504 C500 1.427 . S
N504 C501 1.384 . S
N505 C497 1.427 . S
N505 C503 1.384 . S
H506 C512 0.930 . S
H507 C516 0.930 . S
H508 C521 0.929 . S
H509 C519 0.929 . S
H510 C514 0.929 1_554 S
H511 C520 0.929 . S
C512 H506 0.930 . S
C512 C513 1.367 . S
C512 C520 1.378 . S
C513 C512 1.367 . S
C513 C521 1.433 . S
C514 H510 0.929 1_556 S
C514 C516 1.378 1_556 S
C514 C518 1.350 . S
C515 C518 1.463 . S
C515 C520 1.350 . S
C515 N523 1.427 . S
C516 H507 0.930 . S
C516 C514 1.378 1_554 S
C516 C517 1.367 1_554 S
C517 C516 1.367 1_556 S
C517 C519 1.433 . S
C518 C514 1.350 . S
C518 C515 1.463 . S
C518 N522 1.427 . S
C519 H509 0.929 . S
C519 C517 1.433 . S
C519 N522 1.384 . S
C520 H511 0.929 . S
C520 C512 1.378 . S
C520 C515 1.350 . S
C521 H508 0.929 . S
C521 C513 1.433 . S
C521 N523 1.384 . S
N522 C518 1.427 . S
N522 C519 1.384 . S
N523 C515 1.427 . S
N523 C521 1.384 . S
H524 C530 0.930 . S
H525 C534 0.930 . S
H526 C539 0.929 . S
H527 C537 0.929 . S
H528 C532 0.929 . S
H529 C538 0.929 . S
C530 H524 0.930 . S
C530 C531 1.367 . S
C530 C538 1.378 . S
C531 C530 1.367 . S
C531 C539 1.433 . S
C532 H528 0.929 . S
C532 C534 1.378 . S
C532 C536 1.350 . S
C533 C536 1.463 . S
C533 C538 1.350 . S
C533 N541 1.427 . S
C534 H525 0.930 . S
C534 C532 1.378 . S
C534 C535 1.367 . S
C535 C534 1.367 . S
C535 C537 1.433 . S
C536 C532 1.350 . S
C536 C533 1.463 . S
C536 N540 1.427 . S
C537 H527 0.929 . S
C537 C535 1.433 . S
C537 N540 1.384 . S
C538 H529 0.929 . S
C538 C530 1.378 . S
C538 C533 1.350 . S
C539 H526 0.929 . S
C539 C531 1.433 . S
C539 N541 1.384 . S
N540 C536 1.427 . S
N540 C537 1.384 . S
N541 C533 1.427 . S
N541 C539 1.384 . S
H542 C548 0.930 . S
H543 C552 0.930 . S
H544 C557 0.929 . S
H545 C555 0.929 . S
H546 C550 0.929 . S
H547 C556 0.929 . S
C548 H542 0.930 . S
C548 C549 1.367 . S
C548 C556 1.378 . S
C549 C548 1.367 . S
C549 C557 1.433 . S
C550 H546 0.929 . S
C550 C552 1.378 . S
C550 C554 1.350 . S
C551 C554 1.463 . S
C551 C556 1.350 . S
C551 N559 1.427 . S
C552 H543 0.930 . S
C552 C550 1.378 . S
C552 C553 1.367 . S
C553 C552 1.367 . S
C553 C555 1.433 . S
C554 C550 1.350 . S
C554 C551 1.463 . S
C554 N558 1.427 . S
C555 H545 0.929 . S
C555 C553 1.433 . S
C555 N558 1.384 . S
C556 H547 0.929 . S
C556 C548 1.378 . S
C556 C551 1.350 . S
C557 H544 0.929 . S
C557 C549 1.433 . S
C557 N559 1.384 . S
N558 C554 1.427 . S
N558 C555 1.384 . S
N559 C551 1.427 . S
N559 C557 1.384 . S
H560 C566 0.930 . S
H561 C570 0.930 . S
H562 C575 0.929 . S
H563 C573 0.929 . S
H564 C568 0.929 . S
H565 C574 0.929 . S
C566 H560 0.930 . S
C566 C567 1.367 . S
C566 C574 1.378 . S
C567 C566 1.367 . S
C567 C575 1.433 . S
C568 H564 0.929 . S
C568 C570 1.378 . S
C568 C572 1.350 . S
C569 C572 1.463 . S
C569 C574 1.350 . S
C569 N577 1.427 . S
C570 H561 0.930 . S
C570 C568 1.378 . S
C570 C571 1.367 . S
C571 C570 1.367 . S
C571 C573 1.433 . S
C572 C568 1.350 . S
C572 C569 1.463 . S
C572 N576 1.427 . S
C573 H563 0.929 . S
C573 C571 1.433 . S
C573 N576 1.384 . S
C574 H565 0.929 . S
C574 C566 1.378 . S
C574 C569 1.350 . S
C575 H562 0.929 . S
C575 C567 1.433 . S
C575 N577 1.384 . S
N576 C572 1.427 . S
N576 C573 1.384 . S
N577 C569 1.427 . S
N577 C575 1.384 . S
H578 C584 0.930 . S
H579 C588 0.930 . S
H580 C593 0.929 . S
H581 C591 0.929 . S
H582 C586 0.929 . S
H583 C592 0.929 . S
C584 H578 0.930 . S
C584 C585 1.367 . S
C584 C592 1.378 . S
C585 C584 1.367 . S
C585 C593 1.433 . S
C586 H582 0.929 . S
C586 C588 1.378 . S
C586 C590 1.350 . S
C587 C590 1.463 . S
C587 C592 1.350 . S
C587 N595 1.427 . S
C588 H579 0.930 . S
C588 C586 1.378 . S
C588 C589 1.367 . S
C589 C588 1.367 . S
C589 C591 1.433 . S
C590 C586 1.350 . S
C590 C587 1.463 . S
C590 N594 1.427 . S
C591 H581 0.929 . S
C591 C589 1.433 . S
C591 N594 1.384 . S
C592 H583 0.929 . S
C592 C584 1.378 . S
C592 C587 1.350 . S
C593 H580 0.929 . S
C593 C585 1.433 . S
C593 N595 1.384 . S
N594 C590 1.427 . S
N594 C591 1.384 . S
N595 C587 1.427 . S
N595 C593 1.384 . S
H596 C602 0.930 . S
H597 C606 0.930 . S
H598 C611 0.929 . S
H599 C609 0.929 . S
H600 C604 0.929 . S
H601 C610 0.929 . S
C602 H596 0.930 . S
C602 C603 1.367 . S
C602 C610 1.378 . S
C603 C602 1.367 . S
C603 C611 1.433 . S
C604 H600 0.929 . S
C604 C606 1.378 . S
C604 C608 1.350 . S
C605 C608 1.463 . S
C605 C610 1.350 . S
C605 N613 1.427 . S
C606 H597 0.930 . S
C606 C604 1.378 . S
C606 C607 1.367 . S
C607 C606 1.367 . S
C607 C609 1.433 . S
C608 C604 1.350 . S
C608 C605 1.463 . S
C608 N612 1.427 . S
C609 H599 0.929 . S
C609 C607 1.433 . S
C609 N612 1.384 . S
C610 H601 0.929 . S
C610 C602 1.378 . S
C610 C605 1.350 . S
C611 H598 0.929 . S
C611 C603 1.433 . S
C611 N613 1.384 . S
N612 C608 1.427 . S
N612 C609 1.384 . S
N613 C605 1.427 . S
N613 C611 1.384 . S
H614 C620 0.930 . S
H615 C624 0.930 . S
H616 C629 0.929 . S
H617 C627 0.929 . S
H618 C622 0.929 . S
H619 C628 0.929 . S
C620 H614 0.930 . S
C620 C621 1.367 . S
C620 C628 1.378 . S
C621 C620 1.367 . S
C621 C629 1.433 . S
C622 H618 0.929 . S
C622 C624 1.378 . S
C622 C626 1.350 . S
C623 C626 1.463 . S
C623 C628 1.350 . S
C623 N631 1.427 . S
C624 H615 0.930 . S
C624 C622 1.378 . S
C624 C625 1.367 . S
C625 C624 1.367 . S
C625 C627 1.433 . S
C626 C622 1.350 . S
C626 C623 1.463 . S
C626 N630 1.427 . S
C627 H617 0.929 . S
C627 C625 1.433 . S
C627 N630 1.384 . S
C628 H619 0.929 . S
C628 C620 1.378 . S
C628 C623 1.350 . S
C629 H616 0.929 . S
C629 C621 1.433 . S
C629 N631 1.384 . S
N630 C626 1.427 . S
N630 C627 1.384 . S
N631 C623 1.427 . S
N631 C629 1.384 . S
H632 C638 0.930 . S
H633 C642 0.930 . S
H634 C647 0.929 . S
H635 C645 0.929 . S
H636 C640 0.929 . S
H637 C646 0.929 . S
C638 H632 0.930 . S
C638 C639 1.367 . S
C638 C646 1.378 . S
C639 C638 1.367 . S
C639 C647 1.433 . S
C640 H636 0.929 . S
C640 C642 1.378 . S
C640 C644 1.350 . S
C641 C644 1.463 . S
C641 C646 1.350 . S
C641 N649 1.427 . S
C642 H633 0.930 . S
C642 C640 1.378 . S
C642 C643 1.367 . S
C643 C642 1.367 . S
C643 C645 1.433 . S
C644 C640 1.350 . S
C644 C641 1.463 . S
C644 N648 1.427 . S
C645 H635 0.929 . S
C645 C643 1.433 . S
C645 N648 1.384 . S
C646 H637 0.929 . S
C646 C638 1.378 . S
C646 C641 1.350 . S
C647 H634 0.929 . S
C647 C639 1.433 . S
C647 N649 1.384 . S
N648 C644 1.427 . S
N648 C645 1.384 . S
N649 C641 1.427 . S
N649 C647 1.384 . S
H650 C656 0.930 . S
H651 C660 0.930 . S
H652 C665 0.929 . S
H653 C663 0.929 . S
H654 C658 0.929 . S
H655 C664 0.929 . S
C656 H650 0.930 . S
C656 C657 1.367 . S
C656 C664 1.378 . S
C657 C656 1.367 . S
C657 C665 1.433 . S
C658 H654 0.929 . S
C658 C660 1.378 . S
C658 C662 1.350 . S
C659 C662 1.463 . S
C659 C664 1.350 . S
C659 N667 1.427 . S
C660 H651 0.930 . S
C660 C658 1.378 . S
C660 C661 1.367 . S
C661 C660 1.367 . S
C661 C663 1.433 . S
C662 C658 1.350 . S
C662 C659 1.463 . S
C662 N666 1.427 . S
C663 H653 0.929 . S
C663 C661 1.433 . S
C663 N666 1.384 . S
C664 H655 0.929 . S
C664 C656 1.378 . S
C664 C659 1.350 . S
C665 H652 0.929 . S
C665 C657 1.433 . S
C665 N667 1.384 . S
N666 C662 1.427 . S
N666 C663 1.384 . S
N667 C659 1.427 . S
N667 C665 1.384 . S
H668 C674 0.930 . S
H669 C678 0.930 . S
H670 C683 0.929 . S
H671 C681 0.929 . S
H672 C676 0.929 . S
H673 C682 0.929 . S
C674 H668 0.930 . S
C674 C675 1.367 . S
C674 C682 1.378 . S
C675 C674 1.367 . S
C675 C683 1.433 . S
C676 H672 0.929 . S
C676 C678 1.378 . S
C676 C680 1.350 . S
C677 C680 1.463 . S
C677 C682 1.350 . S
C677 N685 1.427 . S
C678 H669 0.930 . S
C678 C676 1.378 . S
C678 C679 1.367 . S
C679 C678 1.367 . S
C679 C681 1.433 . S
C680 C676 1.350 . S
C680 C677 1.463 . S
C680 N684 1.427 . S
C681 H671 0.929 . S
C681 C679 1.433 . S
C681 N684 1.384 . S
C682 H673 0.929 . S
C682 C674 1.378 . S
C682 C677 1.350 . S
C683 H670 0.929 . S
C683 C675 1.433 . S
C683 N685 1.384 . S
N684 C680 1.427 . S
N684 C681 1.384 . S
N685 C677 1.427 . S
N685 C683 1.384 . S
H686 C692 0.930 . S
H687 C696 0.930 . S
H688 C701 0.929 . S
H689 C699 0.929 . S
H690 C694 0.929 1_554 S
H691 C700 0.929 . S
C692 H686 0.930 . S
C692 C693 1.367 . S
C692 C700 1.378 . S
C693 C692 1.367 . S
C693 C701 1.433 . S
C694 H690 0.929 1_556 S
C694 C696 1.378 1_556 S
C694 C698 1.350 . S
C695 C698 1.463 . S
C695 C700 1.350 . S
C695 N703 1.427 . S
C696 H687 0.930 . S
C696 C694 1.378 1_554 S
C696 C697 1.367 1_554 S
C697 C696 1.367 1_556 S
C697 C699 1.433 . S
C698 C694 1.350 . S
C698 C695 1.463 . S
C698 N702 1.427 . S
C699 H689 0.929 . S
C699 C697 1.433 . S
C699 N702 1.384 . S
C700 H691 0.929 . S
C700 C692 1.378 . S
C700 C695 1.350 . S
C701 H688 0.929 . S
C701 C693 1.433 . S
C701 N703 1.384 . S
N702 C698 1.427 . S
N702 C699 1.384 . S
N703 C695 1.427 . S
N703 C701 1.384 . S
H704 C710 0.930 . S
H705 C714 0.930 . S
H706 C719 0.929 . S
H707 C717 0.929 . S
H708 C712 0.929 . S
H709 C718 0.929 . S
C710 H704 0.930 . S
C710 C711 1.367 . S
C710 C718 1.378 . S
C711 C710 1.367 . S
C711 C719 1.433 . S
C712 H708 0.929 . S
C712 C714 1.378 . S
C712 C716 1.350 . S
C713 C716 1.463 . S
C713 C718 1.350 . S
C713 N721 1.427 . S
C714 H705 0.930 . S
C714 C712 1.378 . S
C714 C715 1.367 . S
C715 C714 1.367 . S
C715 C717 1.433 . S
C716 C712 1.350 . S
C716 C713 1.463 . S
C716 N720 1.427 . S
C717 H707 0.929 . S
C717 C715 1.433 . S
C717 N720 1.384 . S
C718 H709 0.929 . S
C718 C710 1.378 . S
C718 C713 1.350 . S
C719 H706 0.929 . S
C719 C711 1.433 . S
C719 N721 1.384 . S
N720 C716 1.427 . S
N720 C717 1.384 . S
N721 C713 1.427 . S
N721 C719 1.384 . S
H722 C728 0.930 . S
H723 C732 0.930 . S
H724 C737 0.929 . S
H725 C735 0.929 . S
H726 C730 0.929 . S
H727 C736 0.929 . S
C728 H722 0.930 . S
C728 C729 1.367 . S
C728 C736 1.378 . S
C729 C728 1.367 . S
C729 C737 1.433 . S
C730 H726 0.929 . S
C730 C732 1.378 1_554 S
C730 C734 1.350 . S
C731 C734 1.463 1_565 S
C731 C736 1.350 . S
C731 N739 1.427 1_565 S
C732 H723 0.930 . S
C732 C730 1.378 1_556 S
C732 C733 1.367 . S
C733 C732 1.367 . S
C733 C735 1.433 . S
C734 C730 1.350 . S
C734 C731 1.463 1_545 S
C734 N738 1.427 1_544 S
C735 H725 0.929 . S
C735 C733 1.433 . S
C735 N738 1.384 1_545 S
C736 H727 0.929 . S
C736 C728 1.378 . S
C736 C731 1.350 . S
C737 H724 0.929 . S
C737 C729 1.433 . S
C737 N739 1.384 1_565 S
N738 C734 1.427 1_566 S
N738 C735 1.384 1_565 S
N739 C731 1.427 1_545 S
N739 C737 1.384 1_545 S
H740 C746 0.930 . S
H741 C750 0.930 . S
H742 C755 0.929 . S
H743 C753 0.929 . S
H744 C748 0.929 . S
H745 C754 0.929 . S
C746 H740 0.930 . S
C746 C747 1.367 . S
C746 C754 1.378 . S
C747 C746 1.367 . S
C747 C755 1.433 . S
C748 H744 0.929 . S
C748 C750 1.378 . S
C748 C752 1.350 . S
C749 C752 1.463 . S
C749 C754 1.350 . S
C749 N757 1.427 . S
C750 H741 0.930 . S
C750 C748 1.378 . S
C750 C751 1.367 . S
C751 C750 1.367 . S
C751 C753 1.433 . S
C752 C748 1.350 . S
C752 C749 1.463 . S
C752 N756 1.427 . S
C753 H743 0.929 . S
C753 C751 1.433 . S
C753 N756 1.384 . S
C754 H745 0.929 . S
C754 C746 1.378 . S
C754 C749 1.350 . S
C755 H742 0.929 . S
C755 C747 1.433 . S
C755 N757 1.384 . S
N756 C752 1.427 . S
N756 C753 1.384 . S
N757 C749 1.427 . S
N757 C755 1.384 . S
H758 C764 0.930 . S
H759 C768 0.930 . S
H760 C773 0.929 . S
H761 C771 0.929 . S
H762 C766 0.929 . S
H763 C772 0.929 . S
C764 H758 0.930 . S
C764 C765 1.367 . S
C764 C772 1.378 . S
C765 C764 1.367 . S
C765 C773 1.433 . S
C766 H762 0.929 . S
C766 C768 1.378 . S
C766 C770 1.350 . S
C767 C770 1.463 1_545 S
C767 C772 1.350 . S
C767 N775 1.427 . S
C768 H759 0.930 . S
C768 C766 1.378 . S
C768 C769 1.367 . S
C769 C768 1.367 . S
C769 C771 1.433 . S
C770 C766 1.350 . S
C770 C767 1.463 1_565 S
C770 N774 1.427 . S
C771 H761 0.929 . S
C771 C769 1.433 . S
C771 N774 1.384 . S
C772 H763 0.929 . S
C772 C764 1.378 . S
C772 C767 1.350 . S
C773 H760 0.929 . S
C773 C765 1.433 . S
C773 N775 1.384 . S
N774 C770 1.427 . S
N774 C771 1.384 . S
N775 C767 1.427 . S
N775 C773 1.384 . S
H776 C782 0.930 . S
H777 C786 0.930 . S
H778 C791 0.929 . S
H779 C789 0.929 . S
H780 C784 0.929 . S
H781 C790 0.929 . S
C782 H776 0.930 . S
C782 C783 1.367 . S
C782 C790 1.378 . S
C783 C782 1.367 . S
C783 C791 1.433 . S
C784 H780 0.929 . S
C784 C786 1.378 . S
C784 C788 1.350 . S
C785 C788 1.463 . S
C785 C790 1.350 . S
C785 N793 1.427 . S
C786 H777 0.930 . S
C786 C784 1.378 . S
C786 C787 1.367 . S
C787 C786 1.367 . S
C787 C789 1.433 . S
C788 C784 1.350 . S
C788 C785 1.463 . S
C788 N792 1.427 . S
C789 H779 0.929 . S
C789 C787 1.433 . S
C789 N792 1.384 . S
C790 H781 0.929 . S
C790 C782 1.378 . S
C790 C785 1.350 . S
C791 H778 0.929 . S
C791 C783 1.433 . S
C791 N793 1.384 . S
N792 C788 1.427 . S
N792 C789 1.384 . S
N793 C785 1.427 . S
N793 C791 1.384 . S
H794 C800 0.930 . S
H795 C804 0.930 . S
H796 C809 0.929 . S
H797 C807 0.929 . S
H798 C802 0.929 . S
H799 C808 0.929 . S
C800 H794 0.930 . S
C800 C801 1.367 . S
C800 C808 1.378 1_556 S
C801 C800 1.367 . S
C801 C809 1.433 . S
C802 H798 0.929 . S
C802 C804 1.378 . S
C802 C806 1.350 . S
C803 C806 1.463 1_545 S
C803 C808 1.350 . S
C803 N811 1.422 1_544 S
C804 H795 0.930 . S
C804 C802 1.378 . S
C804 C805 1.367 . S
C805 C804 1.367 . S
C805 C807 1.433 . S
C806 C802 1.350 . S
C806 C803 1.463 1_565 S
C806 N810 1.427 1_565 S
C807 H797 0.929 . S
C807 C805 1.433 . S
C807 N810 1.384 1_565 S
C808 H799 0.929 . S
C808 C800 1.378 1_554 S
C808 C803 1.350 . S
C809 H796 0.929 . S
C809 C801 1.433 . S
C809 N811 1.375 1_545 S
N810 C806 1.427 1_545 S
N810 C807 1.384 1_545 S
N811 C803 1.422 1_566 S
N811 C809 1.375 1_565 S
H812 C818 0.930 . S
H813 C822 0.930 . S
H814 C827 0.929 . S
H815 C825 0.929 . S
H816 C820 0.929 . S
H817 C826 0.929 . S
C818 H812 0.930 . S
C818 C819 1.367 . S
C818 C826 1.378 . S
C819 C818 1.367 . S
C819 C827 1.433 . S
C820 H816 0.929 . S
C820 C822 1.378 . S
C820 C824 1.350 . S
C821 C824 1.463 . S
C821 C826 1.350 . S
C821 N829 1.427 . S
C822 H813 0.930 . S
C822 C820 1.378 . S
C822 C823 1.367 . S
C823 C822 1.367 . S
C823 C825 1.433 . S
C824 C820 1.350 . S
C824 C821 1.463 . S
C824 N828 1.427 . S
C825 H815 0.929 . S
C825 C823 1.433 . S
C825 N828 1.384 . S
C826 H817 0.929 . S
C826 C818 1.378 . S
C826 C821 1.350 . S
C827 H814 0.929 . S
C827 C819 1.433 . S
C827 N829 1.384 . S
N828 C824 1.427 . S
N828 C825 1.384 . S
N829 C821 1.427 . S
N829 C827 1.384 . S
H830 C836 0.930 . S
H831 C840 0.930 . S
H832 C845 0.929 . S
H833 C843 0.929 . S
H834 C838 0.929 . S
H835 C844 0.929 . S
C836 H830 0.930 . S
C836 C837 1.367 . S
C836 C844 1.378 1_545 S
C837 C836 1.367 . S
C837 C845 1.433 . S
C838 H834 0.929 . S
C838 C840 1.378 1_545 S
C838 C842 1.350 1_545 S
C839 C842 1.463 1_545 S
C839 C844 1.350 1_545 S
C839 N847 1.427 . S
C840 H831 0.930 . S
C840 C838 1.378 1_565 S
C840 C841 1.367 . S
C841 C840 1.367 . S
C841 C843 1.433 . S
C842 C838 1.350 1_565 S
C842 C839 1.463 1_565 S
C842 N846 1.427 . S
C843 H833 0.929 . S
C843 C841 1.433 . S
C843 N846 1.384 . S
C844 H835 0.929 . S
C844 C836 1.378 1_565 S
C844 C839 1.350 1_565 S
C845 H832 0.929 . S
C845 C837 1.433 . S
C845 N847 1.384 . S
N846 C842 1.427 . S
N846 C843 1.384 . S
N847 C839 1.427 . S
N847 C845 1.384 . S
H848 C854 0.930 . S
H849 C858 0.930 . S
H850 C863 0.929 . S
H851 C861 0.929 . S
H852 C856 0.929 . S
H853 C862 0.929 . S
C854 H848 0.930 . S
C854 C855 1.367 . S
C854 C862 1.378 . S
C855 C854 1.367 . S
C855 C863 1.433 . S
C856 H852 0.929 . S
C856 C858 1.378 . S
C856 C860 1.350 . S
C857 C860 1.463 . S
C857 C862 1.350 . S
C857 N865 1.427 . S
C858 H849 0.930 . S
C858 C856 1.378 . S
C858 C859 1.367 . S
C859 C858 1.367 . S
C859 C861 1.433 . S
C860 C856 1.350 . S
C860 C857 1.463 . S
C860 N864 1.427 . S
C861 H851 0.929 . S
C861 C859 1.433 . S
C861 N864 1.384 . S
C862 H853 0.929 . S
C862 C854 1.378 . S
C862 C857 1.350 . S
C863 H850 0.929 . S
C863 C855 1.433 . S
C863 N865 1.384 . S
N864 C860 1.427 . S
N864 C861 1.384 . S
N865 C857 1.427 . S
N865 C863 1.384 . S
H866 C872 0.930 . S
H867 C876 0.930 . S
H868 C881 0.929 . S
H869 C879 0.929 . S
H870 C874 0.929 . S
H871 C880 0.929 . S
C872 H866 0.930 . S
C872 C873 1.367 . S
C872 C880 1.378 . S
C873 C872 1.367 . S
C873 C881 1.433 . S
C874 H870 0.929 . S
C874 C876 1.378 . S
C874 C878 1.350 . S
C875 C878 1.463 . S
C875 C880 1.350 . S
C875 N883 1.427 . S
C876 H867 0.930 . S
C876 C874 1.378 . S
C876 C877 1.367 . S
C877 C876 1.367 . S
C877 C879 1.433 . S
C878 C874 1.350 . S
C878 C875 1.463 . S
C878 N882 1.427 . S
C879 H869 0.929 . S
C879 C877 1.433 . S
C879 N882 1.384 . S
C880 H871 0.929 . S
C880 C872 1.378 . S
C880 C875 1.350 . S
C881 H868 0.929 . S
C881 C873 1.433 . S
C881 N883 1.384 . S
N882 C878 1.427 . S
N882 C879 1.384 . S
N883 C875 1.427 . S
N883 C881 1.384 . S
H884 C890 0.930 . S
H885 C894 0.930 . S
H886 C899 0.929 . S
H887 C897 0.929 . S
H888 C892 0.929 . S
H889 C898 0.929 . S
C890 H884 0.930 . S
C890 C891 1.367 . S
C890 C898 1.378 . S
C891 C890 1.367 . S
C891 C899 1.433 . S
C892 H888 0.929 . S
C892 C894 1.378 . S
C892 C896 1.350 . S
C893 C896 1.463 . S
C893 C898 1.350 . S
C893 N901 1.427 . S
C894 H885 0.930 . S
C894 C892 1.378 . S
C894 C895 1.367 . S
C895 C894 1.367 . S
C895 C897 1.433 . S
C896 C892 1.350 . S
C896 C893 1.463 . S
C896 N900 1.427 . S
C897 H887 0.929 . S
C897 C895 1.433 . S
C897 N900 1.384 . S
C898 H889 0.929 . S
C898 C890 1.378 . S
C898 C893 1.350 . S
C899 H886 0.929 . S
C899 C891 1.433 . S
C899 N901 1.384 . S
N900 C896 1.427 . S
N900 C897 1.384 . S
N901 C893 1.427 . S
N901 C899 1.384 . S
H902 C908 0.930 . S
H903 C912 0.930 . S
H904 C917 0.929 . S
H905 C915 0.929 . S
H906 C910 0.929 . S
H907 C916 0.929 . S
C908 H902 0.930 . S
C908 C909 1.367 . S
C908 C916 1.378 . S
C909 C908 1.367 . S
C909 C917 1.433 . S
C910 H906 0.929 . S
C910 C912 1.378 . S
C910 C914 1.350 1_556 S
C911 C914 1.463 . S
C911 C916 1.350 . S
C911 N919 1.427 . S
C912 H903 0.930 . S
C912 C910 1.378 . S
C912 C913 1.367 . S
C913 C912 1.367 . S
C913 C915 1.433 . S
C914 C910 1.350 1_554 S
C914 C911 1.463 . S
C914 N918 1.427 . S
C915 H905 0.929 . S
C915 C913 1.433 . S
C915 N918 1.384 1_556 S
C916 H907 0.929 . S
C916 C908 1.378 . S
C916 C911 1.350 . S
C917 H904 0.929 . S
C917 C909 1.433 . S
C917 N919 1.384 . S
N918 C914 1.427 . S
N918 C915 1.384 1_554 S
N919 C911 1.427 . S
N919 C917 1.384 . S
H920 C926 0.930 . S
H921 C930 0.930 . S
H922 C935 0.929 . S
H923 C933 0.929 . S
H924 C928 0.929 . S
H925 C934 0.929 . S
C926 H920 0.930 . S
C926 C927 1.367 . S
C926 C934 1.378 . S
C927 C926 1.367 . S
C927 C935 1.433 . S
C928 H924 0.929 . S
C928 C930 1.378 . S
C928 C932 1.350 . S
C929 C932 1.463 . S
C929 C934 1.350 . S
C929 N937 1.427 . S
C930 H921 0.930 . S
C930 C928 1.378 . S
C930 C931 1.367 . S
C931 C930 1.367 . S
C931 C933 1.433 . S
C932 C928 1.350 . S
C932 C929 1.463 . S
C932 N936 1.427 . S
C933 H923 0.929 . S
C933 C931 1.433 . S
C933 N936 1.384 . S
C934 H925 0.929 . S
C934 C926 1.378 . S
C934 C929 1.350 . S
C935 H922 0.929 . S
C935 C927 1.433 . S
C935 N937 1.384 . S
N936 C932 1.427 . S
N936 C933 1.384 . S
N937 C929 1.427 . S
N937 C935 1.384 . S
H938 C944 0.930 . S
H939 C948 0.930 . S
H940 C953 0.929 . S
H941 C951 0.929 . S
H942 C946 0.929 . S
H943 C952 0.929 . S
C944 H938 0.930 . S
C944 C945 1.367 . S
C944 C952 1.378 . S
C945 C944 1.367 . S
C945 C953 1.433 . S
C946 H942 0.929 . S
C946 C948 1.378 . S
C946 C950 1.350 . S
C947 C950 1.463 . S
C947 C952 1.350 . S
C947 N955 1.427 . S
C948 H939 0.930 . S
C948 C946 1.378 . S
C948 C949 1.367 . S
C949 C948 1.367 . S
C949 C951 1.433 . S
C950 C946 1.350 . S
C950 C947 1.463 . S
C950 N954 1.427 . S
C951 H941 0.929 . S
C951 C949 1.433 . S
C951 N954 1.384 . S
C952 H943 0.929 . S
C952 C944 1.378 . S
C952 C947 1.350 . S
C953 H940 0.929 . S
C953 C945 1.433 . S
C953 N955 1.384 . S
N954 C950 1.427 . S
N954 C951 1.384 . S
N955 C947 1.427 . S
N955 C953 1.384 . S
H956 C962 0.930 . S
H957 C966 0.930 . S
H958 C971 0.929 . S
H959 C969 0.929 . S
H960 C964 0.929 . S
H961 C970 0.929 . S
C962 H956 0.930 . S
C962 C963 1.367 . S
C962 C970 1.378 . S
C963 C962 1.367 . S
C963 C971 1.433 . S
C964 H960 0.929 . S
C964 C966 1.378 . S
C964 C968 1.350 . S
C965 C968 1.463 . S
C965 C970 1.350 . S
C965 N973 1.427 . S
C966 H957 0.930 . S
C966 C964 1.378 . S
C966 C967 1.367 . S
C967 C966 1.367 . S
C967 C969 1.433 . S
C968 C964 1.350 . S
C968 C965 1.463 . S
C968 N972 1.427 . S
C969 H959 0.929 . S
C969 C967 1.433 . S
C969 N972 1.384 . S
C970 H961 0.929 . S
C970 C962 1.378 . S
C970 C965 1.350 . S
C971 H958 0.929 . S
C971 C963 1.433 . S
C971 N973 1.384 . S
N972 C968 1.427 . S
N972 C969 1.384 . S
N973 C965 1.427 . S
N973 C971 1.384 . S
H974 C980 0.930 . S
H975 C984 0.930 . S
H976 C989 0.929 . S
H977 C987 0.929 . S
H978 C982 0.929 . S
H979 C988 0.929 . S
C980 H974 0.930 . S
C980 C981 1.367 . S
C980 C988 1.378 . S
C981 C980 1.367 . S
C981 C989 1.433 . S
C982 H978 0.929 . S
C982 C984 1.378 1_554 S
C982 C986 1.350 . S
C983 C986 1.463 . S
C983 C988 1.350 . S
C983 N991 1.427 . S
C984 H975 0.930 . S
C984 C982 1.378 1_556 S
C984 C985 1.367 . S
C985 C984 1.367 . S
C985 C987 1.433 . S
C986 C982 1.350 . S
C986 C983 1.463 . S
C986 N990 1.427 1_554 S
C987 H977 0.929 . S
C987 C985 1.433 . S
C987 N990 1.384 . S
C988 H979 0.929 . S
C988 C980 1.378 . S
C988 C983 1.350 . S
C989 H976 0.929 . S
C989 C981 1.433 . S
C989 N991 1.384 . S
N990 C986 1.427 1_556 S
N990 C987 1.384 . S
N991 C983 1.427 . S
N991 C989 1.384 . S
H992 C998 0.930 . S
H993 C1002 0.934 . S
H994 C1007 0.929 . S
H995 C1005 0.929 . S
H996 C1000 0.932 . S
H997 C1006 0.929 . S
C998 H992 0.930 . S
C998 C999 1.367 . S
C998 C1006 1.378 . S
C999 C998 1.367 . S
C999 C1007 1.433 1_554 S
C1000 H996 0.932 . S
C1000 C1002 1.378 . S
C1000 C1004 1.346 1_556 S
C1001 C1004 1.463 . S
C1001 C1006 1.350 . S
C1001 N1009 1.421 1_554 S
C1002 H993 0.934 . S
C1002 C1000 1.378 . S
C1002 C1003 1.363 1_556 S
C1003 C1002 1.363 1_554 S
C1003 C1005 1.433 . S
C1004 C1000 1.346 1_554 S
C1004 C1001 1.463 . S
C1004 N1008 1.427 . S
C1005 H995 0.929 . S
C1005 C1003 1.433 . S
C1005 N1008 1.384 . S
C1006 H997 0.929 . S
C1006 C998 1.378 . S
C1006 C1001 1.350 . S
C1007 H994 0.929 . S
C1007 C999 1.433 1_556 S
C1007 N1009 1.384 . S
N1008 C1004 1.427 . S
N1008 C1005 1.384 . S
N1009 C1001 1.421 1_556 S
N1009 C1007 1.384 . S
H1010 C1016 0.930 . S
H1011 C1020 0.930 . S
H1012 C1025 0.929 . S
H1013 C1023 0.929 . S
H1014 C1018 0.929 . S
H1015 C1024 0.929 . S
C1016 H1010 0.930 . S
C1016 C1017 1.367 . S
C1016 C1024 1.378 . S
C1017 C1016 1.367 . S
C1017 C1025 1.433 . S
C1018 H1014 0.929 . S
C1018 C1020 1.378 . S
C1018 C1022 1.350 . S
C1019 C1022 1.463 1_455 S
C1019 C1024 1.350 . S
C1019 N1027 1.427 . S
C1020 H1011 0.930 . S
C1020 C1018 1.378 . S
C1020 C1021 1.367 . S
C1021 C1020 1.367 . S
C1021 C1023 1.433 . S
C1022 C1018 1.350 . S
C1022 C1019 1.463 1_655 S
C1022 N1026 1.427 . S
C1023 H1013 0.929 . S
C1023 C1021 1.433 . S
C1023 N1026 1.384 . S
C1024 H1015 0.929 . S
C1024 C1016 1.378 . S
C1024 C1019 1.350 . S
C1025 H1012 0.929 . S
C1025 C1017 1.433 . S
C1025 N1027 1.384 . S
N1026 C1022 1.427 . S
N1026 C1023 1.384 . S
N1027 C1019 1.427 . S
N1027 C1025 1.384 . S
H1028 C1034 0.930 . S
H1029 C1038 0.930 . S
H1030 C1043 0.929 . S
H1031 C1041 0.929 . S
H1032 C1036 0.929 . S
H1033 C1042 0.929 . S
C1034 H1028 0.930 . S
C1034 C1035 1.367 . S
C1034 C1042 1.378 . S
C1035 C1034 1.367 . S
C1035 C1043 1.433 . S
C1036 H1032 0.929 . S
C1036 C1038 1.378 . S
C1036 C1040 1.350 . S
C1037 C1040 1.463 . S
C1037 C1042 1.350 . S
C1037 N1045 1.427 . S
C1038 H1029 0.930 . S
C1038 C1036 1.378 . S
C1038 C1039 1.367 . S
C1039 C1038 1.367 . S
C1039 C1041 1.433 . S
C1040 C1036 1.350 . S
C1040 C1037 1.463 . S
C1040 N1044 1.427 . S
C1041 H1031 0.929 . S
C1041 C1039 1.433 . S
C1041 N1044 1.384 . S
C1042 H1033 0.929 . S
C1042 C1034 1.378 . S
C1042 C1037 1.350 . S
C1043 H1030 0.929 . S
C1043 C1035 1.433 . S
C1043 N1045 1.384 . S
N1044 C1040 1.427 . S
N1044 C1041 1.384 . S
N1045 C1037 1.427 . S
N1045 C1043 1.384 . S
H1046 C1052 0.930 . S
H1047 C1056 0.930 . S
H1048 C1061 0.929 . S
H1049 C1059 0.929 . S
H1050 C1054 0.929 . S
H1051 C1060 0.929 . S
C1052 H1046 0.930 . S
C1052 C1053 1.367 . S
C1052 C1060 1.378 . S
C1053 C1052 1.367 . S
C1053 C1061 1.433 . S
C1054 H1050 0.929 . S
C1054 C1056 1.378 . S
C1054 C1058 1.350 . S
C1055 C1058 1.463 . S
C1055 C1060 1.350 . S
C1055 N1063 1.427 . S
C1056 H1047 0.930 . S
C1056 C1054 1.378 . S
C1056 C1057 1.367 . S
C1057 C1056 1.367 . S
C1057 C1059 1.433 . S
C1058 C1054 1.350 . S
C1058 C1055 1.463 . S
C1058 N1062 1.427 . S
C1059 H1049 0.929 . S
C1059 C1057 1.433 . S
C1059 N1062 1.384 . S
C1060 H1051 0.929 . S
C1060 C1052 1.378 . S
C1060 C1055 1.350 . S
C1061 H1048 0.929 . S
C1061 C1053 1.433 . S
C1061 N1063 1.384 . S
N1062 C1058 1.427 . S
N1062 C1059 1.384 . S
N1063 C1055 1.427 . S
N1063 C1061 1.384 . S
H1064 C1070 0.930 1_556 S
H1065 C1074 0.930 . S
H1066 C1079 0.929 . S
H1067 C1077 0.929 1_556 S
H1068 C1072 0.929 . S
H1069 C1078 0.929 1_556 S
C1070 H1064 0.930 1_554 S
C1070 C1071 1.367 . S
C1070 C1078 1.378 . S
C1071 C1070 1.367 . S
C1071 C1079 1.433 . S
C1072 H1068 0.929 . S
C1072 C1074 1.378 . S
C1072 C1076 1.350 . S
C1073 C1076 1.463 . S
C1073 C1078 1.350 . S
C1073 N1081 1.427 . S
C1074 H1065 0.930 . S
C1074 C1072 1.378 . S
C1074 C1075 1.367 . S
C1075 C1074 1.367 . S
C1075 C1077 1.433 . S
C1076 C1072 1.350 . S
C1076 C1073 1.463 . S
C1076 N1080 1.427 . S
C1077 H1067 0.929 1_554 S
C1077 C1075 1.433 . S
C1077 N1080 1.384 . S
C1078 H1069 0.929 1_554 S
C1078 C1070 1.378 . S
C1078 C1073 1.350 . S
C1079 H1066 0.929 . S
C1079 C1071 1.433 . S
C1079 N1081 1.384 . S
N1080 C1076 1.427 . S
N1080 C1077 1.384 . S
N1081 C1073 1.427 . S
N1081 C1079 1.384 . S
H1082 C1088 0.930 . S
H1083 C1092 0.930 . S
H1084 C1097 0.929 . S
H1085 C1095 0.929 . S
H1086 C1090 0.929 . S
H1087 C1096 0.929 . S
C1088 H1082 0.930 . S
C1088 C1089 1.367 . S
C1088 C1096 1.378 . S
C1089 C1088 1.367 . S
C1089 C1097 1.433 . S
C1090 H1086 0.929 . S
C1090 C1092 1.378 . S
C1090 C1094 1.350 . S
C1091 C1094 1.463 . S
C1091 C1096 1.350 . S
C1091 N1099 1.427 . S
C1092 H1083 0.930 . S
C1092 C1090 1.378 . S
C1092 C1093 1.367 . S
C1093 C1092 1.367 . S
C1093 C1095 1.433 . S
C1094 C1090 1.350 . S
C1094 C1091 1.463 . S
C1094 N1098 1.427 . S
C1095 H1085 0.929 . S
C1095 C1093 1.433 . S
C1095 N1098 1.384 . S
C1096 H1087 0.929 . S
C1096 C1088 1.378 . S
C1096 C1091 1.350 . S
C1097 H1084 0.929 . S
C1097 C1089 1.433 . S
C1097 N1099 1.384 . S
N1098 C1094 1.427 . S
N1098 C1095 1.384 . S
N1099 C1091 1.427 . S
N1099 C1097 1.384 . S
H1100 C1106 0.930 . S
H1101 C1110 0.930 . S
H1102 C1115 0.929 . S
H1103 C1113 0.929 . S
H1104 C1108 0.929 . S
H1105 C1114 0.929 . S
C1106 H1100 0.930 . S
C1106 C1107 1.367 . S
C1106 C1114 1.378 . S
C1107 C1106 1.367 . S
C1107 C1115 1.433 . S
C1108 H1104 0.929 . S
C1108 C1110 1.378 . S
C1108 C1112 1.350 . S
C1109 C1112 1.463 . S
C1109 C1114 1.350 . S
C1109 N1117 1.427 . S
C1110 H1101 0.930 . S
C1110 C1108 1.378 . S
C1110 C1111 1.367 . S
C1111 C1110 1.367 . S
C1111 C1113 1.433 . S
C1112 C1108 1.350 . S
C1112 C1109 1.463 . S
C1112 N1116 1.427 . S
C1113 H1103 0.929 . S
C1113 C1111 1.433 . S
C1113 N1116 1.384 . S
C1114 H1105 0.929 . S
C1114 C1106 1.378 . S
C1114 C1109 1.350 . S
C1115 H1102 0.929 . S
C1115 C1107 1.433 . S
C1115 N1117 1.384 . S
N1116 C1112 1.427 . S
N1116 C1113 1.384 . S
N1117 C1109 1.427 . S
N1117 C1115 1.384 . S
H1118 C1124 0.930 . S
H1119 C1128 0.930 . S
H1120 C1133 0.929 . S
H1121 C1131 0.929 . S
H1122 C1126 0.929 . S
H1123 C1132 0.929 . S
C1124 H1118 0.930 . S
C1124 C1125 1.367 . S
C1124 C1132 1.378 . S
C1125 C1124 1.367 . S
C1125 C1133 1.433 . S
C1126 H1122 0.929 . S
C1126 C1128 1.378 . S
C1126 C1130 1.350 . S
C1127 C1130 1.463 1_655 S
C1127 C1132 1.350 . S
C1127 N1135 1.427 . S
C1128 H1119 0.930 . S
C1128 C1126 1.378 . S
C1128 C1129 1.367 . S
C1129 C1128 1.367 . S
C1129 C1131 1.433 . S
C1130 C1126 1.350 . S
C1130 C1127 1.463 1_455 S
C1130 N1134 1.427 . S
C1131 H1121 0.929 . S
C1131 C1129 1.433 . S
C1131 N1134 1.384 . S
C1132 H1123 0.929 . S
C1132 C1124 1.378 . S
C1132 C1127 1.350 . S
C1133 H1120 0.929 . S
C1133 C1125 1.433 . S
C1133 N1135 1.384 . S
N1134 C1130 1.427 . S
N1134 C1131 1.384 . S
N1135 C1127 1.427 . S
N1135 C1133 1.384 . S
H1136 C1142 0.930 . S
H1137 C1146 0.930 . S
H1138 C1151 0.929 . S
H1139 C1149 0.929 . S
H1140 C1144 0.929 . S
H1141 C1150 0.929 . S
C1142 H1136 0.930 . S
C1142 C1143 1.367 . S
C1142 C1150 1.378 . S
C1143 C1142 1.367 . S
C1143 C1151 1.433 1_554 S
C1144 H1140 0.929 . S
C1144 C1146 1.378 . S
C1144 C1148 1.350 1_556 S
C1145 C1148 1.463 . S
C1145 C1150 1.350 . S
C1145 N1153 1.427 1_554 S
C1146 H1137 0.930 . S
C1146 C1144 1.378 . S
C1146 C1147 1.367 1_556 S
C1147 C1146 1.367 1_554 S
C1147 C1149 1.433 . S
C1148 C1144 1.350 1_554 S
C1148 C1145 1.463 . S
C1148 N1152 1.427 . S
C1149 H1139 0.929 . S
C1149 C1147 1.433 . S
C1149 N1152 1.384 . S
C1150 H1141 0.929 . S
C1150 C1142 1.378 . S
C1150 C1145 1.350 . S
C1151 H1138 0.929 . S
C1151 C1143 1.433 1_556 S
C1151 N1153 1.384 . S
N1152 C1148 1.427 . S
N1152 C1149 1.384 . S
N1153 C1145 1.427 1_556 S
N1153 C1151 1.384 . S
H1154 C1160 0.930 . S
H1155 C1164 0.930 . S
H1156 C1169 0.929 . S
H1157 C1167 0.929 . S
H1158 C1162 0.929 . S
H1159 C1168 0.929 . S
C1160 H1154 0.930 . S
C1160 C1161 1.367 . S
C1160 C1168 1.378 . S
C1161 C1160 1.367 . S
C1161 C1169 1.433 . S
C1162 H1158 0.929 . S
C1162 C1164 1.378 . S
C1162 C1166 1.350 . S
C1163 C1166 1.463 . S
C1163 C1168 1.350 . S
C1163 N1171 1.427 . S
C1164 H1155 0.930 . S
C1164 C1162 1.378 . S
C1164 C1165 1.367 . S
C1165 C1164 1.367 . S
C1165 C1167 1.433 . S
C1166 C1162 1.350 . S
C1166 C1163 1.463 . S
C1166 N1170 1.427 . S
C1167 H1157 0.929 . S
C1167 C1165 1.433 . S
C1167 N1170 1.384 . S
C1168 H1159 0.929 . S
C1168 C1160 1.378 . S
C1168 C1163 1.350 . S
C1169 H1156 0.929 . S
C1169 C1161 1.433 . S
C1169 N1171 1.384 . S
N1170 C1166 1.427 . S
N1170 C1167 1.384 . S
N1171 C1163 1.427 . S
N1171 C1169 1.384 . S
H1172 C1178 0.930 1_556 S
H1173 C1182 0.930 . S
H1174 C1187 0.929 . S
H1175 C1185 0.929 1_556 S
H1176 C1180 0.929 . S
H1177 C1186 0.929 1_556 S
C1178 H1172 0.930 1_554 S
C1178 C1179 1.367 . S
C1178 C1186 1.378 . S
C1179 C1178 1.367 . S
C1179 C1187 1.433 . S
C1180 H1176 0.929 . S
C1180 C1182 1.378 . S
C1180 C1184 1.350 . S
C1181 C1184 1.463 . S
C1181 C1186 1.350 . S
C1181 N1189 1.427 . S
C1182 H1173 0.930 . S
C1182 C1180 1.378 . S
C1182 C1183 1.367 . S
C1183 C1182 1.367 . S
C1183 C1185 1.433 . S
C1184 C1180 1.350 . S
C1184 C1181 1.463 . S
C1184 N1188 1.427 . S
C1185 H1175 0.929 1_554 S
C1185 C1183 1.433 . S
C1185 N1188 1.384 . S
C1186 H1177 0.929 1_554 S
C1186 C1178 1.378 . S
C1186 C1181 1.350 . S
C1187 H1174 0.929 . S
C1187 C1179 1.433 . S
C1187 N1189 1.384 . S
N1188 C1184 1.427 . S
N1188 C1185 1.384 . S
N1189 C1181 1.427 . S
N1189 C1187 1.384 . S
H1190 C1196 0.930 . S
H1191 C1200 0.930 . S
H1192 C1205 0.929 . S
H1193 C1203 0.929 . S
H1194 C1198 0.929 . S
H1195 C1204 0.929 . S
C1196 H1190 0.930 . S
C1196 C1197 1.367 . S
C1196 C1204 1.378 . S
C1197 C1196 1.367 . S
C1197 C1205 1.433 . S
C1198 H1194 0.929 . S
C1198 C1200 1.378 . S
C1198 C1202 1.350 . S
C1199 C1202 1.463 . S
C1199 C1204 1.350 . S
C1199 N1207 1.427 . S
C1200 H1191 0.930 . S
C1200 C1198 1.378 . S
C1200 C1201 1.367 . S
C1201 C1200 1.367 . S
C1201 C1203 1.433 . S
C1202 C1198 1.350 . S
C1202 C1199 1.463 . S
C1202 N1206 1.427 . S
C1203 H1193 0.929 . S
C1203 C1201 1.433 . S
C1203 N1206 1.384 . S
C1204 H1195 0.929 . S
C1204 C1196 1.378 . S
C1204 C1199 1.350 . S
C1205 H1192 0.929 . S
C1205 C1197 1.433 . S
C1205 N1207 1.384 . S
N1206 C1202 1.427 . S
N1206 C1203 1.384 . S
N1207 C1199 1.427 . S
N1207 C1205 1.384 . S
H1208 C1214 0.930 . S
H1209 C1218 0.930 . S
H1210 C1223 0.929 . S
H1211 C1221 0.929 . S
H1212 C1216 0.929 . S
H1213 C1222 0.929 . S
C1214 H1208 0.930 . S
C1214 C1215 1.367 . S
C1214 C1222 1.378 . S
C1215 C1214 1.367 . S
C1215 C1223 1.433 . S
C1216 H1212 0.929 . S
C1216 C1218 1.378 . S
C1216 C1220 1.350 . S
C1217 C1220 1.463 . S
C1217 C1222 1.350 . S
C1217 N1225 1.427 . S
C1218 H1209 0.930 . S
C1218 C1216 1.378 . S
C1218 C1219 1.367 . S
C1219 C1218 1.367 . S
C1219 C1221 1.433 . S
C1220 C1216 1.350 . S
C1220 C1217 1.463 . S
C1220 N1224 1.427 . S
C1221 H1211 0.929 . S
C1221 C1219 1.433 . S
C1221 N1224 1.384 . S
C1222 H1213 0.929 . S
C1222 C1214 1.378 . S
C1222 C1217 1.350 . S
C1223 H1210 0.929 . S
C1223 C1215 1.433 . S
C1223 N1225 1.384 . S
N1224 C1220 1.427 . S
N1224 C1221 1.384 . S
N1225 C1217 1.427 . S
N1225 C1223 1.384 . S
H1226 C1232 0.930 . S
H1227 C1236 0.930 . S
H1228 C1241 0.929 . S
H1229 C1239 0.929 . S
H1230 C1234 0.929 . S
H1231 C1240 0.929 . S
C1232 H1226 0.930 . S
C1232 C1233 1.367 . S
C1232 C1240 1.378 . S
C1233 C1232 1.367 . S
C1233 C1241 1.433 . S
C1234 H1230 0.929 . S
C1234 C1236 1.378 . S
C1234 C1238 1.350 . S
C1235 C1238 1.463 1_655 S
C1235 C1240 1.350 . S
C1235 N1243 1.427 . S
C1236 H1227 0.930 . S
C1236 C1234 1.378 . S
C1236 C1237 1.367 . S
C1237 C1236 1.367 . S
C1237 C1239 1.433 . S
C1238 C1234 1.350 . S
C1238 C1235 1.463 1_455 S
C1238 N1242 1.427 . S
C1239 H1229 0.929 . S
C1239 C1237 1.433 . S
C1239 N1242 1.384 . S
C1240 H1231 0.929 . S
C1240 C1232 1.378 . S
C1240 C1235 1.350 . S
C1241 H1228 0.929 . S
C1241 C1233 1.433 . S
C1241 N1243 1.384 . S
N1242 C1238 1.427 . S
N1242 C1239 1.384 . S
N1243 C1235 1.427 . S
N1243 C1241 1.384 . S
H1244 C1250 0.930 . S
H1245 C1254 0.930 . S
H1246 C1259 0.929 . S
H1247 C1257 0.929 . S
H1248 C1252 0.929 . S
H1249 C1258 0.929 . S
C1250 H1244 0.930 . S
C1250 C1251 1.367 . S
C1250 C1258 1.378 . S
C1251 C1250 1.367 . S
C1251 C1259 1.433 . S
C1252 H1248 0.929 . S
C1252 C1254 1.378 . S
C1252 C1256 1.350 . S
C1253 C1256 1.463 1_655 S
C1253 C1258 1.350 . S
C1253 N1261 1.427 . S
C1254 H1245 0.930 . S
C1254 C1252 1.378 . S
C1254 C1255 1.367 . S
C1255 C1254 1.367 . S
C1255 C1257 1.433 . S
C1256 C1252 1.350 . S
C1256 C1253 1.463 1_455 S
C1256 N1260 1.427 . S
C1257 H1247 0.929 . S
C1257 C1255 1.433 . S
C1257 N1260 1.384 . S
C1258 H1249 0.929 . S
C1258 C1250 1.378 . S
C1258 C1253 1.350 . S
C1259 H1246 0.929 . S
C1259 C1251 1.433 . S
C1259 N1261 1.384 . S
N1260 C1256 1.427 . S
N1260 C1257 1.384 . S
N1261 C1253 1.427 . S
N1261 C1259 1.384 . S
H1262 C1268 0.930 . S
H1263 C1272 0.930 . S
H1264 C1277 0.929 . S
H1265 C1275 0.929 . S
H1266 C1270 0.929 . S
H1267 C1276 0.929 . S
C1268 H1262 0.930 . S
C1268 C1269 1.367 . S
C1268 C1276 1.378 . S
C1269 C1268 1.367 . S
C1269 C1277 1.433 . S
C1270 H1266 0.929 . S
C1270 C1272 1.378 . S
C1270 C1274 1.350 . S
C1271 C1274 1.463 . S
C1271 C1276 1.350 . S
C1271 N1279 1.427 . S
C1272 H1263 0.930 . S
C1272 C1270 1.378 . S
C1272 C1273 1.367 . S
C1273 C1272 1.367 . S
C1273 C1275 1.433 . S
C1274 C1270 1.350 . S
C1274 C1271 1.463 . S
C1274 N1278 1.427 . S
C1275 H1265 0.929 . S
C1275 C1273 1.433 . S
C1275 N1278 1.384 . S
C1276 H1267 0.929 . S
C1276 C1268 1.378 . S
C1276 C1271 1.350 . S
C1277 H1264 0.929 . S
C1277 C1269 1.433 . S
C1277 N1279 1.384 . S
N1278 C1274 1.427 . S
N1278 C1275 1.384 . S
N1279 C1271 1.427 . S
N1279 C1277 1.384 . S
H1280 C1286 0.930 . S
H1281 C1290 0.930 . S
H1282 C1295 0.929 . S
H1283 C1293 0.929 . S
H1284 C1288 0.929 . S
H1285 C1294 0.929 . S
C1286 H1280 0.930 . S
C1286 C1287 1.367 . S
C1286 C1294 1.378 . S
C1287 C1286 1.367 . S
C1287 C1295 1.433 . S
C1288 H1284 0.929 . S
C1288 C1290 1.378 . S
C1288 C1292 1.350 . S
C1289 C1292 1.463 . S
C1289 C1294 1.350 . S
C1289 N1297 1.427 . S
C1290 H1281 0.930 . S
C1290 C1288 1.378 . S
C1290 C1291 1.367 . S
C1291 C1290 1.367 . S
C1291 C1293 1.433 . S
C1292 C1288 1.350 . S
C1292 C1289 1.463 . S
C1292 N1296 1.427 . S
C1293 H1283 0.929 . S
C1293 C1291 1.433 . S
C1293 N1296 1.384 . S
C1294 H1285 0.929 . S
C1294 C1286 1.378 . S
C1294 C1289 1.350 . S
C1295 H1282 0.929 . S
C1295 C1287 1.433 . S
C1295 N1297 1.384 . S
N1296 C1292 1.427 . S
N1296 C1293 1.384 . S
N1297 C1289 1.427 . S
N1297 C1295 1.384 . S
H1298 C1304 0.930 . S
H1299 C1308 0.930 . S
H1300 C1313 0.929 . S
H1301 C1311 0.929 . S
H1302 C1306 0.929 . S
H1303 C1312 0.929 . S
C1304 H1298 0.930 . S
C1304 C1305 1.367 . S
C1304 C1312 1.378 . S
C1305 C1304 1.367 . S
C1305 C1313 1.433 . S
C1306 H1302 0.929 . S
C1306 C1308 1.378 . S
C1306 C1310 1.350 . S
C1307 C1310 1.463 1_565 S
C1307 C1312 1.350 . S
C1307 N1315 1.435 . S
C1308 H1299 0.930 . S
C1308 C1306 1.378 . S
C1308 C1309 1.367 . S
C1309 C1308 1.367 . S
C1309 C1311 1.433 . S
C1310 C1306 1.350 . S
C1310 C1307 1.463 1_545 S
C1310 N1314 1.427 . S
C1311 H1301 0.929 . S
C1311 C1309 1.433 . S
C1311 N1314 1.384 . S
C1312 H1303 0.929 . S
C1312 C1304 1.378 . S
C1312 C1307 1.350 . S
C1313 H1300 0.929 . S
C1313 C1305 1.433 . S
C1313 N1315 1.400 . S
N1314 C1310 1.427 . S
N1314 C1311 1.384 . S
N1315 C1307 1.435 . S
N1315 C1313 1.400 . S
H1316 C1322 0.930 . S
H1317 C1326 0.930 . S
H1318 C1331 0.929 . S
H1319 C1329 0.929 . S
H1320 C1324 0.929 . S
H1321 C1330 0.929 . S
C1322 H1316 0.930 . S
C1322 C1323 1.367 . S
C1322 C1330 1.378 . S
C1323 C1322 1.367 . S
C1323 C1331 1.433 . S
C1324 H1320 0.929 . S
C1324 C1326 1.378 . S
C1324 C1328 1.350 . S
C1325 C1328 1.463 . S
C1325 C1330 1.350 . S
C1325 N1333 1.427 . S
C1326 H1317 0.930 . S
C1326 C1324 1.378 . S
C1326 C1327 1.367 . S
C1327 C1326 1.367 . S
C1327 C1329 1.433 . S
C1328 C1324 1.350 . S
C1328 C1325 1.463 . S
C1328 N1332 1.427 . S
C1329 H1319 0.929 . S
C1329 C1327 1.433 . S
C1329 N1332 1.384 . S
C1330 H1321 0.929 . S
C1330 C1322 1.378 . S
C1330 C1325 1.350 . S
C1331 H1318 0.929 . S
C1331 C1323 1.433 . S
C1331 N1333 1.384 . S
N1332 C1328 1.427 . S
N1332 C1329 1.384 . S
N1333 C1325 1.427 . S
N1333 C1331 1.384 . S
H1334 C1340 0.930 . S
H1335 C1344 0.930 . S
H1336 C1349 0.929 . S
H1337 C1347 0.929 . S
H1338 C1342 0.950 . S
H1339 C1348 0.866 1_565 S
C1340 H1334 0.930 . S
C1340 C1341 1.367 . S
C1340 C1348 1.422 . S
C1341 C1340 1.367 . S
C1341 C1349 1.433 . S
C1342 H1338 0.950 . S
C1342 C1344 1.363 1_545 S
C1342 C1346 1.343 1_545 S
C1343 C1346 1.463 1_545 S
C1343 C1348 1.372 1_554 S
C1343 N1351 1.427 . S
C1344 H1335 0.930 . S
C1344 C1342 1.363 1_565 S
C1344 C1345 1.367 . S
C1345 C1344 1.367 . S
C1345 C1347 1.433 . S
C1346 C1342 1.343 1_565 S
C1346 C1343 1.463 1_565 S
C1346 N1350 1.427 . S
C1347 H1337 0.929 . S
C1347 C1345 1.433 . S
C1347 N1350 1.384 . S
C1348 H1339 0.866 1_545 S
C1348 C1340 1.422 . S
C1348 C1343 1.372 1_556 S
C1349 H1336 0.929 . S
C1349 C1341 1.433 . S
C1349 N1351 1.384 1_556 S
N1350 C1346 1.427 . S
N1350 C1347 1.384 . S
N1351 C1343 1.427 . S
N1351 C1349 1.384 1_554 S
H1352 C1358 0.930 . S
H1353 C1362 0.930 . S
H1354 C1367 0.929 . S
H1355 C1365 0.929 . S
H1356 C1360 0.929 . S
H1357 C1366 0.929 . S
C1358 H1352 0.930 . S
C1358 C1359 1.367 . S
C1358 C1366 1.378 . S
C1359 C1358 1.367 . S
C1359 C1367 1.433 . S
C1360 H1356 0.929 . S
C1360 C1362 1.378 . S
C1360 C1364 1.350 . S
C1361 C1364 1.463 . S
C1361 C1366 1.350 . S
C1361 N1369 1.427 . S
C1362 H1353 0.930 . S
C1362 C1360 1.378 . S
C1362 C1363 1.367 . S
C1363 C1362 1.367 . S
C1363 C1365 1.433 . S
C1364 C1360 1.350 . S
C1364 C1361 1.463 . S
C1364 N1368 1.427 . S
C1365 H1355 0.929 . S
C1365 C1363 1.433 . S
C1365 N1368 1.384 . S
C1366 H1357 0.929 . S
C1366 C1358 1.378 . S
C1366 C1361 1.350 . S
C1367 H1354 0.929 . S
C1367 C1359 1.433 . S
C1367 N1369 1.384 . S
N1368 C1364 1.427 . S
N1368 C1365 1.384 . S
N1369 C1361 1.427 . S
N1369 C1367 1.384 . S
H1370 C1376 0.930 . S
H1371 C1380 0.930 . S
H1372 C1385 0.929 . S
H1373 C1383 0.929 . S
H1374 C1378 0.929 1_545 S
H1375 C1384 0.929 1_565 S
C1376 H1370 0.930 . S
C1376 C1377 1.367 . S
C1376 C1384 1.378 . S
C1377 C1376 1.367 . S
C1377 C1385 1.433 . S
C1378 H1374 0.929 1_565 S
C1378 C1380 1.378 . S
C1378 C1382 1.350 . S
C1379 C1382 1.463 1_545 S
C1379 C1384 1.350 . S
C1379 N1387 1.427 . S
C1380 H1371 0.930 . S
C1380 C1378 1.378 . S
C1380 C1381 1.367 . S
C1381 C1380 1.367 . S
C1381 C1383 1.433 . S
C1382 C1378 1.350 . S
C1382 C1379 1.463 1_565 S
C1382 N1386 1.427 . S
C1383 H1373 0.929 . S
C1383 C1381 1.433 . S
C1383 N1386 1.384 . S
C1384 H1375 0.929 1_545 S
C1384 C1376 1.378 . S
C1384 C1379 1.350 . S
C1385 H1372 0.929 . S
C1385 C1377 1.433 . S
C1385 N1387 1.384 . S
N1386 C1382 1.427 . S
N1386 C1383 1.384 . S
N1387 C1379 1.427 . S
N1387 C1385 1.384 . S
H1388 C1394 0.930 . S
H1389 C1398 0.930 . S
H1390 C1403 0.929 . S
H1391 C1401 0.929 . S
H1392 C1396 0.929 . S
H1393 C1402 0.929 . S
C1394 H1388 0.930 . S
C1394 C1395 1.367 . S
C1394 C1402 1.378 . S
C1395 C1394 1.367 . S
C1395 C1403 1.433 . S
C1396 H1392 0.929 . S
C1396 C1398 1.378 . S
C1396 C1400 1.350 . S
C1397 C1400 1.463 . S
C1397 C1402 1.350 . S
C1397 N1405 1.427 . S
C1398 H1389 0.930 . S
C1398 C1396 1.378 . S
C1398 C1399 1.367 . S
C1399 C1398 1.367 . S
C1399 C1401 1.433 . S
C1400 C1396 1.350 . S
C1400 C1397 1.463 . S
C1400 N1404 1.427 . S
C1401 H1391 0.929 . S
C1401 C1399 1.433 . S
C1401 N1404 1.384 . S
C1402 H1393 0.929 . S
C1402 C1394 1.378 . S
C1402 C1397 1.350 . S
C1403 H1390 0.929 . S
C1403 C1395 1.433 . S
C1403 N1405 1.384 . S
N1404 C1400 1.427 . S
N1404 C1401 1.384 . S
N1405 C1397 1.427 . S
N1405 C1403 1.384 . S
H1406 C1412 0.930 . S
H1407 C1416 0.930 . S
H1408 C1421 0.929 . S
H1409 C1419 0.929 . S
H1410 C1414 0.868 1_565 S
H1411 C1420 0.952 . S
C1412 H1406 0.930 . S
C1412 C1413 1.367 . S
C1412 C1420 1.362 1_565 S
C1413 C1412 1.367 . S
C1413 C1421 1.433 . S
C1414 H1410 0.868 1_545 S
C1414 C1416 1.421 . S
C1414 C1418 1.372 1_556 S
C1415 C1418 1.463 1_565 S
C1415 C1420 1.343 1_565 S
C1415 N1423 1.427 . S
C1416 H1407 0.930 . S
C1416 C1414 1.421 . S
C1416 C1417 1.367 . S
C1417 C1416 1.367 . S
C1417 C1419 1.433 . S
C1418 C1414 1.372 1_554 S
C1418 C1415 1.463 1_545 S
C1418 N1422 1.427 . S
C1419 H1409 0.929 . S
C1419 C1417 1.433 . S
C1419 N1422 1.384 1_556 S
C1420 H1411 0.952 . S
C1420 C1412 1.362 1_545 S
C1420 C1415 1.343 1_545 S
C1421 H1408 0.929 . S
C1421 C1413 1.433 . S
C1421 N1423 1.384 . S
N1422 C1418 1.427 . S
N1422 C1419 1.384 1_554 S
N1423 C1415 1.427 . S
N1423 C1421 1.384 . S
H1424 C1430 0.930 . S
H1425 C1434 0.930 . S
H1426 C1439 0.929 . S
H1427 C1437 0.929 . S
H1428 C1432 0.929 . S
H1429 C1438 0.929 . S
C1430 H1424 0.930 . S
C1430 C1431 1.367 . S
C1430 C1438 1.378 . S
C1431 C1430 1.367 . S
C1431 C1439 1.433 . S
C1432 H1428 0.929 . S
C1432 C1434 1.378 . S
C1432 C1436 1.350 . S
C1433 C1436 1.463 . S
C1433 C1438 1.350 . S
C1433 N1441 1.427 . S
C1434 H1425 0.930 . S
C1434 C1432 1.378 . S
C1434 C1435 1.367 . S
C1435 C1434 1.367 . S
C1435 C1437 1.433 . S
C1436 C1432 1.350 . S
C1436 C1433 1.463 . S
C1436 N1440 1.427 . S
C1437 H1427 0.929 . S
C1437 C1435 1.433 . S
C1437 N1440 1.384 . S
C1438 H1429 0.929 . S
C1438 C1430 1.378 . S
C1438 C1433 1.350 . S
C1439 H1426 0.929 . S
C1439 C1431 1.433 . S
C1439 N1441 1.384 . S
N1440 C1436 1.427 . S
N1440 C1437 1.384 . S
N1441 C1433 1.427 . S
N1441 C1439 1.384 . S
H1442 C1448 0.930 . S
H1443 C1452 0.930 . S
H1444 C1457 0.929 . S
H1445 C1455 0.929 . S
H1446 C1450 0.929 . S
H1447 C1456 0.929 . S
C1448 H1442 0.930 . S
C1448 C1449 1.367 . S
C1448 C1456 1.378 . S
C1449 C1448 1.367 . S
C1449 C1457 1.433 . S
C1450 H1446 0.929 . S
C1450 C1452 1.378 . S
C1450 C1454 1.350 1_556 S
C1451 C1454 1.463 . S
C1451 C1456 1.350 . S
C1451 N1459 1.427 . S
C1452 H1443 0.930 . S
C1452 C1450 1.378 . S
C1452 C1453 1.367 . S
C1453 C1452 1.367 . S
C1453 C1455 1.433 . S
C1454 C1450 1.350 1_554 S
C1454 C1451 1.463 . S
C1454 N1458 1.427 . S
C1455 H1445 0.929 . S
C1455 C1453 1.433 . S
C1455 N1458 1.384 1_556 S
C1456 H1447 0.929 . S
C1456 C1448 1.378 . S
C1456 C1451 1.350 . S
C1457 H1444 0.929 . S
C1457 C1449 1.433 . S
C1457 N1459 1.384 . S
N1458 C1454 1.427 . S
N1458 C1455 1.384 1_554 S
N1459 C1451 1.427 . S
N1459 C1457 1.384 . S
H1460 C1466 0.930 . S
H1461 C1470 0.930 . S
H1462 C1475 0.929 . S
H1463 C1473 0.929 . S
H1464 C1468 0.929 . S
H1465 C1474 0.929 . S
C1466 H1460 0.930 . S
C1466 C1467 1.367 . S
C1466 C1474 1.378 . S
C1467 C1466 1.367 . S
C1467 C1475 1.433 . S
C1468 H1464 0.929 . S
C1468 C1470 1.378 . S
C1468 C1472 1.350 . S
C1469 C1472 1.463 . S
C1469 C1474 1.350 . S
C1469 N1477 1.427 . S
C1470 H1461 0.930 . S
C1470 C1468 1.378 . S
C1470 C1471 1.367 . S
C1471 C1470 1.367 . S
C1471 C1473 1.433 . S
C1472 C1468 1.350 . S
C1472 C1469 1.463 . S
C1472 N1476 1.427 . S
C1473 H1463 0.929 . S
C1473 C1471 1.433 . S
C1473 N1476 1.384 . S
C1474 H1465 0.929 . S
C1474 C1466 1.378 . S
C1474 C1469 1.350 . S
C1475 H1462 0.929 . S
C1475 C1467 1.433 . S
C1475 N1477 1.384 . S
N1476 C1472 1.427 . S
N1476 C1473 1.384 . S
N1477 C1469 1.427 . S
N1477 C1475 1.384 . S
H1478 C1484 0.930 . S
H1479 C1488 0.930 . S
H1480 C1493 0.929 . S
H1481 C1491 0.929 . S
H1482 C1486 0.929 . S
H1483 C1492 0.929 . S
C1484 H1478 0.930 . S
C1484 C1485 1.367 . S
C1484 C1492 1.378 . S
C1485 C1484 1.367 . S
C1485 C1493 1.433 . S
C1486 H1482 0.929 . S
C1486 C1488 1.378 . S
C1486 C1490 1.350 . S
C1487 C1490 1.463 . S
C1487 C1492 1.350 . S
C1487 N1495 1.427 . S
C1488 H1479 0.930 . S
C1488 C1486 1.378 . S
C1488 C1489 1.367 . S
C1489 C1488 1.367 . S
C1489 C1491 1.433 . S
C1490 C1486 1.350 . S
C1490 C1487 1.463 . S
C1490 N1494 1.427 . S
C1491 H1481 0.929 . S
C1491 C1489 1.433 . S
C1491 N1494 1.384 . S
C1492 H1483 0.929 . S
C1492 C1484 1.378 . S
C1492 C1487 1.350 . S
C1493 H1480 0.929 . S
C1493 C1485 1.433 . S
C1493 N1495 1.384 . S
N1494 C1490 1.427 . S
N1494 C1491 1.384 . S
N1495 C1487 1.427 . S
N1495 C1493 1.384 . S
H1496 C1502 0.930 . S
H1497 C1506 0.930 . S
H1498 C1511 0.929 . S
H1499 C1509 0.929 . S
H1500 C1504 0.929 . S
H1501 C1510 0.929 . S
C1502 H1496 0.930 . S
C1502 C1503 1.367 . S
C1502 C1510 1.378 . S
C1503 C1502 1.367 . S
C1503 C1511 1.433 . S
C1504 H1500 0.929 . S
C1504 C1506 1.378 . S
C1504 C1508 1.350 . S
C1505 C1508 1.463 . S
C1505 C1510 1.350 . S
C1505 N1513 1.427 . S
C1506 H1497 0.930 . S
C1506 C1504 1.378 . S
C1506 C1507 1.367 . S
C1507 C1506 1.367 . S
C1507 C1509 1.433 . S
C1508 C1504 1.350 . S
C1508 C1505 1.463 . S
C1508 N1512 1.427 . S
C1509 H1499 0.929 . S
C1509 C1507 1.433 . S
C1509 N1512 1.384 . S
C1510 H1501 0.929 . S
C1510 C1502 1.378 . S
C1510 C1505 1.350 . S
C1511 H1498 0.929 . S
C1511 C1503 1.433 . S
C1511 N1513 1.384 . S
N1512 C1508 1.427 . S
N1512 C1509 1.384 . S
N1513 C1505 1.427 . S
N1513 C1511 1.384 . S
H1514 C1520 0.930 . S
H1515 C1524 0.930 . S
H1516 C1529 0.929 . S
H1517 C1527 0.929 . S
H1518 C1522 0.929 . S
H1519 C1528 0.929 1_554 S
C1520 H1514 0.930 . S
C1520 C1521 1.367 . S
C1520 C1528 1.378 . S
C1521 C1520 1.367 . S
C1521 C1529 1.433 . S
C1522 H1518 0.929 . S
C1522 C1524 1.378 . S
C1522 C1526 1.350 . S
C1523 C1526 1.463 . S
C1523 C1528 1.350 1_554 S
C1523 N1531 1.427 1_554 S
C1524 H1515 0.930 . S
C1524 C1522 1.378 . S
C1524 C1525 1.367 . S
C1525 C1524 1.367 . S
C1525 C1527 1.433 . S
C1526 C1522 1.350 . S
C1526 C1523 1.463 . S
C1526 N1530 1.427 . S
C1527 H1517 0.929 . S
C1527 C1525 1.433 . S
C1527 N1530 1.384 . S
C1528 H1519 0.929 1_556 S
C1528 C1520 1.378 . S
C1528 C1523 1.350 1_556 S
C1529 H1516 0.929 . S
C1529 C1521 1.433 . S
C1529 N1531 1.384 . S
N1530 C1526 1.427 . S
N1530 C1527 1.384 . S
N1531 C1523 1.427 1_556 S
N1531 C1529 1.384 . S
H1532 C1538 0.930 . S
H1533 C1542 0.930 . S
H1534 C1547 0.929 . S
H1535 C1545 0.929 . S
H1536 C1540 0.929 . S
H1537 C1546 0.929 . S
C1538 H1532 0.930 . S
C1538 C1539 1.367 . S
C1538 C1546 1.378 . S
C1539 C1538 1.367 . S
C1539 C1547 1.433 . S
C1540 H1536 0.929 . S
C1540 C1542 1.378 . S
C1540 C1544 1.350 . S
C1541 C1544 1.463 . S
C1541 C1546 1.350 . S
C1541 N1549 1.427 . S
C1542 H1533 0.930 . S
C1542 C1540 1.378 . S
C1542 C1543 1.367 . S
C1543 C1542 1.367 . S
C1543 C1545 1.433 . S
C1544 C1540 1.350 . S
C1544 C1541 1.463 . S
C1544 N1548 1.427 . S
C1545 H1535 0.929 . S
C1545 C1543 1.433 . S
C1545 N1548 1.384 . S
C1546 H1537 0.929 . S
C1546 C1538 1.378 . S
C1546 C1541 1.350 . S
C1547 H1534 0.929 . S
C1547 C1539 1.433 . S
C1547 N1549 1.384 . S
N1548 C1544 1.427 . S
N1548 C1545 1.384 . S
N1549 C1541 1.427 . S
N1549 C1547 1.384 . S
H1550 C1556 0.930 . S
H1551 C1560 0.930 . S
H1552 C1565 0.929 . S
H1553 C1563 0.929 . S
H1554 C1558 0.929 . S
H1555 C1564 0.929 . S
C1556 H1550 0.930 . S
C1556 C1557 1.367 . S
C1556 C1564 1.378 . S
C1557 C1556 1.367 . S
C1557 C1565 1.433 . S
C1558 H1554 0.929 . S
C1558 C1560 1.378 . S
C1558 C1562 1.350 . S
C1559 C1562 1.463 . S
C1559 C1564 1.350 . S
C1559 N1567 1.427 . S
C1560 H1551 0.930 . S
C1560 C1558 1.378 . S
C1560 C1561 1.367 . S
C1561 C1560 1.367 . S
C1561 C1563 1.433 . S
C1562 C1558 1.350 . S
C1562 C1559 1.463 . S
C1562 N1566 1.427 . S
C1563 H1553 0.929 . S
C1563 C1561 1.433 . S
C1563 N1566 1.384 . S
C1564 H1555 0.929 . S
C1564 C1556 1.378 . S
C1564 C1559 1.350 . S
C1565 H1552 0.929 . S
C1565 C1557 1.433 . S
C1565 N1567 1.384 . S
N1566 C1562 1.427 . S
N1566 C1563 1.384 . S
N1567 C1559 1.427 . S
N1567 C1565 1.384 . S
C423 C91 1.308 . S
C427 C0 1.309 1_556 S
C441 C13 1.312 . S
C445 C52 1.304 . S
C459 C65 1.309 . S
C463 C26 1.308 . S
C477 C39 1.305 . S
C481 C78 1.311 . S
C495 C104 1.311 . S
C499 C195 1.305 . S
C513 C117 1.310 . S
C517 C156 1.307 1_556 S
C531 C130 1.309 . S
C535 C169 1.307 . S
C549 C143 1.308 . S
C553 C182 1.309 . S
C567 C208 1.310 . S
C571 C299 1.306 . S
C585 C221 1.310 . S
C589 C260 1.306 . S
C603 C273 1.305 . S
C607 C234 1.312 1_556 S
C621 C286 1.310 . S
C625 C247 1.306 . S
C639 C312 1.305 . S
C643 C403 1.311 . S
C657 C364 1.305 . S
C661 C325 1.311 . S
C675 C377 1.311 . S
C679 C338 1.305 . S
C693 C351 1.310 . S
C697 C390 1.306 1_556 S
C711 C8 0.947 . S
C715 C86 0.927 . S
C729 C21 0.937 . S
C733 C99 0.937 . S
C747 C60 0.928 . S
C751 C34 0.948 . S
C765 C47 0.929 . S
C769 C73 0.945 . S
C783 C112 0.926 . S
C787 C190 0.948 . S
C801 C125 0.942 . S
C805 C203 0.932 . S
C819 C164 0.927 . S
C823 C138 0.947 . S
C837 C177 0.938 . S
C841 C151 0.939 . S
C855 C216 0.928 . S
C859 C294 0.947 . S
C873 C307 0.933 . S
C877 C229 0.941 . S
C891 C268 0.945 . S
C895 C242 0.929 . S
C909 C255 0.945 . S
C913 C281 0.931 . S
C927 C320 0.948 . S
C931 C398 0.927 . S
C945 C333 0.940 . S
C949 C411 0.934 . S
C963 C372 0.948 . S
C967 C346 0.926 . S
C981 C385 0.944 . S
C985 C359 0.929 . S
C999 C5 1.337 . S
C1003 C395 1.352 . S
C1017 C18 1.350 . S
C1021 C200 1.338 . S
C1035 C31 1.340 . S
C1039 C369 1.348 . S
C1053 C44 1.346 . S
C1057 C174 1.342 . S
C1071 C57 1.347 . S
C1075 C343 1.341 . S
C1089 C70 1.350 . S
C1093 C148 1.338 . S
C1107 C83 1.347 . S
C1111 C317 1.341 . S
C1125 C122 1.339 . S
C1129 C96 1.349 . S
C1143 C291 1.346 . S
C1147 C109 1.342 . S
C1161 C135 1.349 . S
C1165 C265 1.339 . S
C1179 C239 1.352 . S
C1183 C161 1.336 . S
C1197 C213 1.347 . S
C1201 C187 1.341 . S
C1215 C226 1.349 . S
C1219 C408 1.340 . S
C1233 C252 1.341 . S
C1237 C382 1.347 . S
C1251 C278 1.350 . S
C1255 C356 1.339 . S
C1269 C330 1.344 . S
C1273 C304 1.345 . S
C1287 C10 1.579 . S
C1291 C88 1.578 . S
C1305 C23 1.577 . S
C1309 C101 1.579 . S
C1323 C62 1.572 . S
C1327 C36 1.569 . S
C1341 C49 1.568 . S
C1345 C75 1.570 . S
C1359 C114 1.577 . S
C1363 C192 1.579 . S
C1377 C127 1.571 . S
C1381 C205 1.569 . S
C1395 C166 1.578 . S
C1399 C140 1.579 . S
C1413 C153 1.570 . S
C1417 C179 1.568 . S
C1431 C296 1.579 . S
C1435 C218 1.579 . S
C1449 C309 1.568 . S
C1453 C231 1.571 . S
C1467 C270 1.575 . S
C1471 C244 1.571 . S
C1485 C283 1.579 . S
C1489 C257 1.579 . S
C1503 C400 1.569 . S
C1507 C322 1.573 . S
C1521 C413 1.574 . S
C1525 C335 1.571 . S
C1539 C348 1.568 . S
C1543 C374 1.568 . S
C1557 C387 1.575 . S
C1561 C361 1.578 . S
