# Generated by pormake.
# Topology qdl, (4)-cn, num edge types: 1
# Building blocks:
#     Node 0, Type 0, BuildingBlock: MUDLON_clean_sbu_0, # of connection points: 4
#     Node 1, Type 0, BuildingBlock: MUDLON_clean_sbu_0, # of connection points: 4
#     Node 2, Type 0, BuildingBlock: MUDLON_clean_sbu_0, # of connection points: 4
#     Node 3, Type 0, BuildingBlock: MUDLON_clean_sbu_0, # of connection points: 4
#     Node 4, Type 0, BuildingBlock: MUDLON_clean_sbu_0, # of connection points: 4
#     Node 5, Type 0, BuildingBlock: MUDLON_clean_sbu_0, # of connection points: 4
#     Edge 6, Type (0, 0), BuildingBlock: MIFKUJ_clean_linker_0, # of connection points: 2
#     Edge 7, Type (0, 0), BuildingBlock: MIFKUJ_clean_linker_0, # of connection points: 2
#     Edge 8, Type (0, 0), BuildingBlock: MIFKUJ_clean_linker_0, # of connection points: 2
#     Edge 9, Type (0, 0), BuildingBlock: MIFKUJ_clean_linker_0, # of connection points: 2
#     Edge 10, Type (0, 0), BuildingBlock: MIFKUJ_clean_linker_0, # of connection points: 2
#     Edge 11, Type (0, 0), BuildingBlock: MIFKUJ_clean_linker_0, # of connection points: 2
#     Edge 12, Type (0, 0), BuildingBlock: MIFKUJ_clean_linker_0, # of connection points: 2
#     Edge 13, Type (0, 0), BuildingBlock: MIFKUJ_clean_linker_0, # of connection points: 2
#     Edge 14, Type (0, 0), BuildingBlock: MIFKUJ_clean_linker_0, # of connection points: 2
#     Edge 15, Type (0, 0), BuildingBlock: MIFKUJ_clean_linker_0, # of connection points: 2
#     Edge 16, Type (0, 0), BuildingBlock: MIFKUJ_clean_linker_0, # of connection points: 2
#     Edge 17, Type (0, 0), BuildingBlock: MIFKUJ_clean_linker_0, # of connection points: 2
# Relax obj value: 0.001
# Max RMSD: 0.013
# Mean RMSD: 0.012
data_MOF--net-qdl--node1-MUDLON_clean_sbu_0--edge1-MIFKUJ_clean_linker_0
_symmetry_space_group_name_H-M    P1
_symmetry_Int_Tables_number       1
_symmetry_cell_setting            triclinic
loop_
_symmetry_equiv_pos_as_xyz
'x, y, z'
_cell_length_a     19.846929
_cell_length_b     19.793222
_cell_length_c     117.59712
_cell_angle_alpha  90.641175
_cell_angle_beta   90.337626
_cell_angle_gamma 119.96615
loop_
_atom_site_label
_atom_site_type_symbol
_atom_site_fract_x
_atom_site_fract_y
_atom_site_fract_z
_atom_type_partial_charge
Mg0 Mg 0.88545 0.93824 0.09755 0.0
C1 C 0.86396 0.78529 0.10017 0.0
O2 O 0.93759 0.83661 0.10212 0.0
C3 C 0.87061 0.07696 0.10003 0.0
O4 O 0.94084 0.0968 0.10371 0.0
C5 C 0.904 0.9592 0.12241 0.0
O6 O 0.83017 0.93438 0.12023 0.0
O7 O 0.94859 0.96967 0.11402 0.0
O8 O 0.81777 0.81074 0.09793 0.0
O9 O 0.94748 0.957 0.08139 0.0
C10 C 0.97822 0.01946 0.07567 0.0
O11 O 0.98405 0.08319 0.08018 0.0
O12 O 0.82609 1.00657 0.09675 0.0
Mg13 Mg 0.09989 0.16984 0.43263 0.0
C14 C 1.00014 0.24356 0.42442 0.0
O15 O 0.02433 0.23725 0.4143 0.0
C16 C 0.27045 0.24422 0.42521 0.0
O17 O 0.23616 0.22623 0.41516 0.0
C18 C 1.01268 0.09286 0.45439 0.0
O19 O 0.96608 0.11629 0.45035 0.0
O20 O 0.06916 0.10093 0.44831 0.0
O21 O 0.02817 0.22779 0.43313 0.0
O22 O 0.07916 0.10745 0.41621 0.0
C23 C 0.01752 0.07535 0.41008 0.0
O24 O 0.95285 0.06814 0.41417 0.0
O25 O 0.22916 0.23574 0.43395 0.0
Mg26 Mg 0.15014 1.00811 0.76451 0.0
C27 C 0.05506 0.83415 0.75621 0.0
O28 O 0.07984 0.86457 0.74617 0.0
C29 C 0.31706 0.1126 0.75566 0.0
O30 O 0.2784 0.10274 0.74611 0.0
C31 C 0.17063 0.06005 0.7889 0.0
O32 O 0.23595 0.06136 0.78661 0.0
O33 O 0.12068 0.0425 0.78088 0.0
O34 O 0.08148 0.8785 0.76501 0.0
O35 O 0.1159 0.04221 0.74865 0.0
C36 C 0.049 1.00464 0.74391 0.0
O37 O 0.99202 0.94754 0.74943 0.0
O38 O 0.27979 0.07423 0.76435 0.0
Mg39 Mg 0.94446 0.9018 0.59833 0.0
C40 C 0.06708 0.8637 0.60451 0.0
O41 O 0.08585 0.92732 0.61046 0.0
C42 C 0.78856 0.88025 0.60214 0.0
O43 O 0.83766 0.95113 0.60587 0.0
C44 C 0.93214 0.96562 0.57531 0.0
O45 O 0.85949 0.93398 0.57852 0.0
O46 O 0.98234 0.96684 0.58227 0.0
O47 O 1.00501 0.83377 0.59844 0.0
O48 O 0.97579 0.96547 0.61486 0.0
C49 C 0.93997 0.92133 0.62317 0.0
O50 O 0.89012 0.84749 0.62095 0.0
O51 O 0.81599 0.8391 0.59805 0.0
Mg52 Mg 0.98936 0.10715 0.93172 0.0
C53 C 0.12302 0.26311 0.93705 0.0
O54 O 0.14318 0.21335 0.9408 0.0
C55 C 0.83027 0.9791 0.92617 0.0
O56 O 0.87668 0.95864 0.92122 0.0
C57 C 0.08119 0.12195 0.90962 0.0
O58 O 0.13445 0.18753 0.9144 0.0
O59 O 0.02067 0.07667 0.91521 0.0
O60 O 0.05513 0.23591 0.93268 0.0
O61 O 0.02102 0.07136 0.94768 0.0
C62 C 0.97172 0.01585 0.95376 0.0
O63 O 0.90119 0.97037 0.94967 0.0
O64 O 0.86088 0.04494 0.93138 0.0
Mg65 Mg 0.17122 0.07278 0.26521 0.0
C66 C 0.24776 0.24616 0.27238 0.0
O67 O 0.22959 0.21571 0.28252 0.0
C68 C 0.20189 0.94206 0.26949 0.0
O69 O 0.1352 0.91903 0.27453 0.0
C70 C 0.14479 0.04373 0.24073 0.0
O71 O 0.21895 0.0686 0.24261 0.0
O72 O 0.1023 0.03602 0.24928 0.0
O73 O 0.23617 0.2013 0.26382 0.0
O74 O 0.11233 0.04644 0.28185 0.0
C75 C 0.15677 0.05362 0.29024 0.0
O76 O 0.22905 0.07282 0.28809 0.0
O77 O 0.23546 1.00833 0.26471 0.0
H78 H 0.94948 0.72062 0.1069 0.0
H79 H 0.9194 0.58635 0.1047 0.0
H80 H 0.69399 0.52258 0.09061 0.0
H81 H 0.72409 0.65917 0.09274 0.0
H82 H 0.70154 0.41092 0.10733 0.0
H83 H 0.80827 0.53412 0.0722 0.0
H84 H 0.89894 0.6406 0.05991 0.0
H85 H 0.09058 0.62378 0.07375 0.0
H86 H 1.00127 0.51803 0.08627 0.0
H87 H 0.72924 0.06154 0.09339 0.0
H88 H 0.69825 0.16704 0.0914 0.0
H89 H 0.93109 0.33492 0.10249 0.0
H90 H 0.96204 0.23161 0.10454 0.0
H91 H 0.88649 0.37849 0.08282 0.0
H92 H 0.78251 0.27566 0.1203 0.0
H93 H 0.69395 0.17236 0.13321 0.0
H94 H 0.49669 0.15071 0.11472 0.0
H95 H 0.58425 0.25328 0.10161 0.0
C96 C 0.89308 0.6784 0.1034 0.0
C97 C 0.83952 0.70106 0.09987 0.0
C98 C 0.876 0.6014 0.10216 0.0
C99 C 0.80496 0.54472 0.09736 0.0
C100 C 0.74931 0.56567 0.09431 0.0
C101 C 0.76659 0.64358 0.09552 0.0
C102 C 0.79299 0.46546 0.0951 0.0
C103 C 0.74028 0.4029 0.10172 0.0
C104 C 0.84389 0.45522 0.08783 0.0
C105 C 0.89797 0.51822 0.08021 0.0
C106 C 0.8698 0.55341 0.07268 0.0
C107 C 0.92096 0.61363 0.06566 0.0
C108 C 1.00047 0.63898 0.06605 0.0
C109 C 0.02896 0.60404 0.07345 0.0
C110 C 0.97805 0.54385 0.08049 0.0
C111 C 0.77352 0.12096 0.09544 0.0
C112 C 0.84816 0.13799 0.0991 0.0
C113 C 0.75575 0.18108 0.09431 0.0
C114 C 0.81255 0.25895 0.09675 0.0
C115 C 0.88651 0.27547 0.10048 0.0
C116 C 0.90398 0.21595 0.10169 0.0
C117 C 0.79739 0.32486 0.09541 0.0
C118 C 0.84557 0.38525 0.08811 0.0
C119 C 0.7422 0.33273 0.10201 0.0
C120 C 0.68984 0.27126 0.10989 0.0
C121 C 0.72026 0.24832 0.11893 0.0
C122 C 0.67026 0.19004 0.12629 0.0
C123 C 0.58974 0.15478 0.12476 0.0
C124 C 0.55906 0.17792 0.11588 0.0
C125 C 0.60883 0.23612 0.10848 0.0
H126 H 0.55112 0.10969 0.13047 0.0
H127 H 0.03998 0.68565 0.06063 0.0
H128 H 0.37569 0.27985 0.40821 0.0
H129 H 0.50278 0.28904 0.40916 0.0
H130 H 0.4791 0.25288 0.44533 0.0
H131 H 0.35163 0.24503 0.44447 0.0
H132 H 0.62832 0.35708 0.44031 0.0
H133 H 0.4406 0.10215 0.42664 0.0
H134 H 0.33419 1.00641 0.41423 0.0
H135 H 0.47982 0.09776 0.38505 0.0
H136 H 0.58683 0.19483 0.39726 0.0
H137 H 0.92079 0.24259 0.4437 0.0
H138 H 0.80214 0.2515 0.44483 0.0
H139 H 0.80698 0.28355 0.40858 0.0
H140 H 0.92463 0.27385 0.40738 0.0
H141 H 0.66531 0.17829 0.41457 0.0
H142 H 0.85259 0.43483 0.42832 0.0
H143 H 0.95815 0.53102 0.44079 0.0
H144 H 0.81325 0.43538 0.46995 0.0
H145 H 0.7071 0.3379 0.45767 0.0
C146 C 0.39768 0.27486 0.41642 0.0
C147 C 0.35271 0.26117 0.42625 0.0
C148 C 0.47052 0.27965 0.41694 0.0
C149 C 0.50035 0.26981 0.42727 0.0
C150 C 0.45752 0.26018 0.43722 0.0
C151 C 0.3845 0.25583 0.43672 0.0
C152 C 0.57434 0.26641 0.42751 0.0
C153 C 0.63594 0.31719 0.43479 0.0
C154 C 0.58542 0.21526 0.42021 0.0
C155 C 0.52153 0.15624 0.41286 0.0
C156 C 0.4498 0.10214 0.41757 0.0
C157 C 0.38938 0.0476 0.41057 0.0
C158 C 0.40016 0.04613 0.39886 0.0
C159 C 0.47152 0.09903 0.39412 0.0
C160 C 0.53211 0.15377 0.40108 0.0
C161 C 0.8973 0.25265 0.43598 0.0
C162 C 0.93288 0.25764 0.42545 0.0
C163 C 0.82921 0.25784 0.43664 0.0
C164 C 0.79508 0.26855 0.42679 0.0
C165 C 0.83151 0.27505 0.41632 0.0
C166 C 0.89937 0.26988 0.41565 0.0
C167 C 0.72 0.26985 0.42724 0.0
C168 C 0.65787 0.21824 0.4201 0.0
C169 C 0.70853 0.32003 0.43469 0.0
C170 C 0.77221 0.37855 0.44209 0.0
C171 C 0.84346 0.43389 0.4374 0.0
C172 C 0.90335 0.48873 0.44444 0.0
C173 C 0.8925 0.48916 0.45616 0.0
C174 C 0.82162 0.43489 0.46087 0.0
C175 C 0.76155 0.37987 0.45388 0.0
H176 H 0.93893 0.53168 0.46159 0.0
H177 H 0.35329 1.00392 0.39346 0.0
H178 H 0.97777 0.75388 0.77537 0.0
H179 H 0.85842 0.62651 0.7762 0.0
H180 H 0.85912 0.60309 0.73972 0.0
H181 H 0.97765 0.72993 0.73882 0.0
H182 H 0.71868 0.57126 0.7467 0.0
H183 H 0.90332 0.49311 0.75786 0.0
H184 H 1.0091 0.49763 0.76955 0.0
H185 H 0.86804 0.44462 0.7993 0.0
H186 H 0.76173 0.4408 0.7878 0.0
H187 H 0.41725 0.18642 0.73832 0.0
H188 H 0.54653 0.3018 0.73938 0.0
H189 H 0.53434 0.30255 0.77597 0.0
H190 H 0.40506 0.18504 0.77497 0.0
H191 H 0.67948 0.34727 0.76997 0.0
H192 H 0.49577 0.42494 0.75938 0.0
H193 H 0.389 0.42239 0.7482 0.0
H194 H 0.52735 0.48051 0.71811 0.0
H195 H 0.63462 0.48235 0.72908 0.0
C196 C 0.95325 0.72113 0.76753 0.0
C197 C 0.98787 0.75266 0.75703 0.0
C198 C 0.88481 0.64802 0.76802 0.0
C199 C 0.84926 0.6045 0.75802 0.0
C200 C 0.88485 0.63518 0.74757 0.0
C201 C 0.95319 0.70791 0.74708 0.0
C202 C 0.7732 0.52913 0.75828 0.0
C203 C 0.71068 0.52201 0.75168 0.0
C204 C 0.76112 0.46531 0.76508 0.0
C205 C 0.82489 0.46749 0.77199 0.0
C206 C 0.8951 0.48307 0.76691 0.0
C207 C 0.9551 0.48537 0.7735 0.0
C208 C 0.94538 0.47164 0.78516 0.0
C209 C 0.87553 0.45537 0.79026 0.0
C210 C 0.81537 0.45306 0.78371 0.0
C211 C 0.44228 0.21033 0.74662 0.0
C212 C 0.40014 0.17637 0.75655 0.0
C213 C 0.51634 0.27696 0.74722 0.0
C214 C 0.55006 0.31276 0.75774 0.0
C215 C 0.50982 0.27677 0.76772 0.0
C216 C 0.43575 0.20931 0.76714 0.0
C217 C 0.62547 0.38903 0.75821 0.0
C218 C 0.68758 0.39652 0.76499 0.0
C219 C 0.63719 0.45374 0.75166 0.0
C220 C 0.57296 0.45308 0.74504 0.0
C221 C 0.50323 0.43665 0.75036 0.0
C222 C 0.44265 0.4354 0.74407 0.0
C223 C 0.45132 0.45109 0.73245 0.0
C224 C 0.52069 0.46827 0.72711 0.0
C225 C 0.58142 0.4695 0.73336 0.0
H226 H 0.40434 0.45009 0.72758 0.0
H227 H 0.9919 0.47344 0.79025 0.0
H228 H 0.17958 0.89193 0.62007 0.0
H229 H 0.2887 0.86923 0.61806 0.0
H230 H 0.19468 0.75025 0.58599 0.0
H231 H 0.08384 0.77287 0.58796 0.0
H232 H 0.27396 0.68566 0.60104 0.0
H233 H 0.32015 0.92196 0.58312 0.0
H234 H 0.31894 0.0457 0.58205 0.0
H235 H 0.47089 0.13471 0.61127 0.0
H236 H 0.472 1.01097 0.61262 0.0
H237 H 0.67053 0.77052 0.58825 0.0
H238 H 0.53528 0.74382 0.5872 0.0
H239 H 0.58222 0.90324 0.6154 0.0
H240 H 0.71603 0.93086 0.61631 0.0
H241 H 0.5199 0.93852 0.59841 0.0
H242 H 0.46595 0.70093 0.61746 0.0
H243 H 0.46492 0.57644 0.61933 0.0
H244 H 0.32893 0.48976 0.58856 0.0
H245 H 0.33001 0.61421 0.58643 0.0
C246 C 0.18097 0.85953 0.61267 0.0
C247 C 0.12345 0.8351 0.60409 0.0
C248 C 0.24345 0.84644 0.61156 0.0
C249 C 0.25041 0.80896 0.60182 0.0
C250 C 0.19035 0.77927 0.59359 0.0
C251 C 0.12712 0.79225 0.59472 0.0
C252 C 0.32499 0.81014 0.59985 0.0
C253 C 0.32775 0.74066 0.60023 0.0
C254 C 0.39519 0.88195 0.5989 0.0
C255 C 0.39575 0.95699 0.598 0.0
C256 C 0.3529 0.96773 0.58936 0.0
C257 C 0.35228 0.03789 0.5887 0.0
C258 C 0.39472 0.09799 0.5966 0.0
C259 C 0.43803 0.08811 0.60515 0.0
C260 C 0.43876 0.018 0.60586 0.0
C261 C 0.65127 0.79859 0.59434 0.0
C262 C 0.70409 0.85331 0.6023 0.0
C263 C 0.57403 0.78338 0.59373 0.0
C264 C 0.54844 0.82195 0.60117 0.0
C265 C 0.60048 0.87339 0.60947 0.0
C266 C 0.67714 0.88904 0.61 0.0
C267 C 0.46992 0.81426 0.60004 0.0
C268 C 0.46634 0.88305 0.59902 0.0
C269 C 0.39949 0.74185 0.60043 0.0
C270 C 0.3989 0.66719 0.60171 0.0
C271 C 0.43644 0.65558 0.61104 0.0
C272 C 0.43571 0.58498 0.61216 0.0
C273 C 0.39712 0.52532 0.60405 0.0
C274 C 0.35895 0.53607 0.59482 0.0
C275 C 0.35956 0.6066 0.59366 0.0
H276 H 0.3966 0.4707 0.60493 0.0
H277 H 0.39413 0.15225 0.59607 0.0
H278 H 0.11231 0.3864 0.92806 0.0
H279 H 0.21689 0.52314 0.9269 0.0
H280 H 0.37297 0.46607 0.94448 0.0
H281 H 0.26943 0.33176 0.94597 0.0
H282 H 0.40284 0.60111 0.95161 0.0
H283 H 0.36505 0.4779 0.91449 0.0
H284 H 0.28931 0.4089 0.89725 0.0
H285 H 0.24788 0.59793 0.89046 0.0
H286 H 0.3226 0.66756 0.90776 0.0
H287 H 0.75203 0.84437 0.91386 0.0
H288 H 0.6189 0.73961 0.91603 0.0
H289 H 0.58111 0.87621 0.94135 0.0
H290 H 0.71658 0.98172 0.93941 0.0
H291 H 0.47887 0.71514 0.91329 0.0
H292 H 0.45819 0.75051 0.96151 0.0
H293 H 0.54474 0.80916 0.97827 0.0
H294 H 0.72121 0.77874 0.96202 0.0
H295 H 0.63526 0.71888 0.94525 0.0
C296 C 0.16865 0.40343 0.93181 0.0
C297 C 0.18237 0.34771 0.93703 0.0
C298 C 0.22861 0.48159 0.9311 0.0
C299 C 0.30357 0.50524 0.93548 0.0
C300 C 0.31602 0.45 0.94105 0.0
C301 C 0.25644 0.37261 0.94183 0.0
C302 C 0.37096 0.58559 0.93382 0.0
C303 C 0.41872 0.62642 0.94324 0.0
C304 C 0.39289 0.61889 0.92291 0.0
C305 C 0.3485 0.57742 0.91248 0.0
C306 C 0.33933 0.50447 0.90936 0.0
C307 C 0.29666 0.46529 0.89957 0.0
C308 C 0.26358 0.4989 0.89278 0.0
C309 C 0.27336 0.57188 0.89574 0.0
C310 C 0.31586 0.61123 0.90553 0.0
C311 C 0.71549 0.85288 0.91983 0.0
C312 C 0.74555 0.92137 0.92655 0.0
C313 C 0.6388 0.79275 0.92101 0.0
C314 C 0.58968 0.79911 0.92895 0.0
C315 C 0.61804 0.86923 0.93527 0.0
C316 C 0.6954 0.92977 0.93411 0.0
C317 C 0.51152 0.72965 0.93104 0.0
C318 C 0.46179 0.6909 0.9217 0.0
C319 C 0.48916 0.69684 0.94197 0.0
C320 C 0.5407 0.73128 0.95209 0.0
C321 C 0.51537 0.75616 0.96154 0.0
C322 C 0.56431 0.78958 0.97104 0.0
C323 C 0.63855 0.79797 0.97119 0.0
C324 C 0.66382 0.77248 0.96187 0.0
C325 C 0.61502 0.73882 0.95238 0.0
H326 H 0.67641 0.82403 0.97853 0.0
H327 H 0.23054 0.46847 0.88521 0.0
H328 H 0.28911 0.35786 0.28895 0.0
H329 H 0.3009 0.48602 0.28729 0.0
H330 H 0.26312 0.4508 0.25105 0.0
H331 H 0.25187 0.3219 0.25262 0.0
H332 H 0.37349 0.60826 0.2575 0.0
H333 H 0.11233 0.40985 0.26694 0.0
H334 H 0.01603 0.29989 0.27821 0.0
H335 H 0.09091 0.44433 0.30838 0.0
H336 H 0.18837 0.55495 0.29731 0.0
H337 H 0.24742 0.89043 0.25097 0.0
H338 H 0.27223 0.78074 0.25037 0.0
H339 H 0.25274 0.76412 0.28692 0.0
H340 H 0.22269 0.86965 0.28735 0.0
H341 H 0.17145 0.63024 0.27916 0.0
H342 H 0.43257 0.82916 0.2705 0.0
H343 H 0.53469 0.93937 0.25993 0.0
H344 H 0.46787 0.79893 0.22937 0.0
H345 H 0.36471 0.68815 0.23973 0.0
C346 C 0.28466 0.37767 0.28057 0.0
C347 C 0.26861 0.32898 0.27093 0.0
C348 C 0.29136 0.45112 0.27965 0.0
C349 C 0.28152 0.47758 0.26908 0.0
C350 C 0.2707 0.43154 0.25931 0.0
C351 C 0.26423 0.3578 0.26022 0.0
C352 C 0.27528 0.5495 0.2685 0.0
C353 C 0.32893 0.61309 0.26213 0.0
C354 C 0.21799 0.55631 0.2747 0.0
C355 C 0.15798 0.49048 0.28131 0.0
C356 C 0.10846 0.41806 0.27599 0.0
C357 C 0.05368 0.35564 0.28234 0.0
C358 C 0.04748 0.36509 0.29401 0.0
C359 C 0.09581 0.43711 0.29934 0.0
C360 C 0.15075 0.49972 0.29303 0.0
C361 C 0.25043 0.86435 0.25887 0.0
C362 C 0.23376 0.88866 0.26922 0.0
C363 C 0.26473 0.8016 0.25854 0.0
C364 C 0.26491 0.76361 0.26861 0.0
C365 C 0.2524 0.79139 0.279 0.0
C366 C 0.23591 0.85228 0.27927 0.0
C367 C 0.27126 0.69119 0.26839 0.0
C368 C 0.21673 0.62656 0.27455 0.0
C369 C 0.3284 0.68414 0.2621 0.0
C370 C 0.39043 0.75063 0.25587 0.0
C371 C 0.4393 0.82197 0.26151 0.0
C372 C 0.49743 0.8845 0.25556 0.0
C373 C 0.50762 0.87622 0.24398 0.0
C374 C 0.45984 0.8053 0.23834 0.0
C375 C 0.40159 0.7426 0.24425 0.0
H376 H 0.55265 0.9247 0.23939 0.0
H377 H 1.00514 0.31666 0.29891 0.0
H378 H 1.00167 0.01514 0.23253 0.0
H379 H 0.95912 1.00042 0.21253 0.0
H380 H 0.17785 0.02467 0.202 0.0
H381 H 0.2208 0.04058 0.22175 0.0
H382 H 0.14445 0.11166 0.18921 0.0
H383 H 1.00446 0.84557 0.20164 0.0
H384 H 0.91502 0.73746 0.21381 0.0
H385 H 0.72879 0.77878 0.20482 0.0
H386 H 0.81743 0.88782 0.1927 0.0
H387 H 0.04606 0.98783 0.13098 0.0
H388 H 0.08627 1.00138 0.15106 0.0
H389 H 0.86511 0.97336 0.16108 0.0
H390 H 0.82431 0.95823 0.14122 0.0
H391 H 0.89881 0.88894 0.17419 0.0
H392 H 0.03795 0.15435 0.16172 0.0
H393 H 0.12702 0.2628 0.14957 0.0
H394 H 0.31439 0.22356 0.15869 0.0
H395 H 0.22615 0.11418 0.17079 0.0
C396 C 0.04033 0.0167 0.22595 0.0
C397 C 0.11471 0.0292 0.22879 0.0
C398 C 0.01594 1.00815 0.2145 0.0
C399 C 0.06516 1.01116 0.20569 0.0
C400 C 0.13885 0.02256 0.20857 0.0
C401 C 0.16323 0.0314 0.21993 0.0
C402 C 0.04147 1.00413 0.19343 0.0
C403 C 0.0911 0.0624 0.18592 0.0
C404 C 0.97114 0.94095 0.1891 0.0
C405 C 0.91778 0.87535 0.19636 0.0
C406 C 0.94459 0.83198 0.20233 0.0
C407 C 0.89401 0.77047 0.2092 0.0
C408 C 0.81633 0.7514 0.21012 0.0
C409 C 0.78901 0.79369 0.20413 0.0
C410 C 0.83937 0.8553 0.19724 0.0
C411 C 1.0063 0.98506 0.13747 0.0
C412 C 0.93196 0.97192 0.13445 0.0
C413 C 0.02936 0.99299 0.14896 0.0
C414 C 0.97894 0.98891 0.15766 0.0
C415 C 0.90508 0.97641 0.1546 0.0
C416 C 0.88194 0.96804 0.14318 0.0
C417 C 1.0019 0.99637 0.16996 0.0
C418 C 0.95214 0.93823 0.17748 0.0
C419 C 0.07207 0.05975 0.17431 0.0
C420 C 0.12525 0.12559 0.16706 0.0
C421 C 0.09801 0.16848 0.16107 0.0
C422 C 0.14837 0.23018 0.1542 0.0
C423 C 0.22626 0.24992 0.15333 0.0
C424 C 0.25402 0.20813 0.15935 0.0
C425 C 0.20387 0.14633 0.16622 0.0
H426 H 0.26516 0.29771 0.14801 0.0
H427 H 0.77727 0.70376 0.21544 0.0
H428 H 0.84247 0.98486 0.55948 0.0
H429 H 0.86438 1.00481 0.53912 0.0
H430 H 0.08564 0.01545 0.54306 0.0
H431 H 0.06458 0.99671 0.56362 0.0
H432 H 0.09501 0.12021 0.52762 0.0
H433 H 0.92609 0.84816 0.53339 0.0
H434 H 0.8122 0.73133 0.54088 0.0
H435 H 0.65935 0.78868 0.52279 0.0
H436 H 0.77236 0.90651 0.51531 0.0
H437 H 0.11652 0.07199 0.46745 0.0
H438 H 0.11036 0.04754 0.48793 0.0
H439 H 0.88826 0.03705 0.48926 0.0
H440 H 0.89365 0.06072 0.46888 0.0
H441 H 0.88753 0.9252 0.50203 0.0
H442 H 0.05765 0.20221 0.49741 0.0
H443 H 0.17201 0.31896 0.48999 0.0
H444 H 0.32349 0.25031 0.50586 0.0
H445 H 0.20988 0.13253 0.51325 0.0
C446 C 0.89632 0.9923 0.55608 0.0
C447 C 0.95147 0.98851 0.56322 0.0
C448 C 0.90857 1.00327 0.54438 0.0
C449 C 0.97582 1.00974 0.53945 0.0
C450 C 0.03298 1.01 0.54662 0.0
C451 C 0.02092 0.99942 0.55839 0.0
C452 C 0.98455 0.01369 0.52681 0.0
C453 C 0.05025 0.07682 0.52204 0.0
C454 C 0.9259 0.95765 0.51945 0.0
C455 C 0.85774 0.88652 0.52386 0.0
C456 C 0.86819 0.83614 0.53107 0.0
C457 C 0.80379 0.7697 0.53531 0.0
C458 C 0.72859 0.75268 0.53233 0.0
C459 C 0.71764 0.80197 0.52509 0.0
C460 C 0.78185 0.86855 0.52084 0.0
C461 C 0.06585 0.06338 0.47207 0.0
C462 C 1.00569 0.06861 0.46648 0.0
C463 C 0.0627 0.05001 0.48381 0.0
C464 C 0.99935 0.04157 0.49022 0.0
C465 C 0.9379 0.04359 0.48455 0.0
C466 C 0.94113 0.05723 0.47286 0.0
C467 C 0.99718 0.03249 0.50284 0.0
C468 C 0.93265 0.96822 0.50762 0.0
C469 C 0.05701 0.0873 0.51018 0.0
C470 C 0.12528 0.15815 0.50577 0.0
C471 C 0.11533 0.2117 0.49924 0.0
C472 C 0.18001 0.27811 0.49505 0.0
C473 C 0.25496 0.29192 0.49742 0.0
C474 C 0.26539 0.23945 0.50401 0.0
C475 C 0.20089 0.1729 0.50821 0.0
H476 H 0.30497 0.34337 0.49417 0.0
H477 H 0.6788 0.70122 0.53562 0.0
H478 H 0.27661 0.13156 0.80597 0.0
H479 H 0.25327 0.13782 0.82615 0.0
H480 H 1.00602 0.01936 0.81955 0.0
H481 H 0.0294 0.01459 0.7991 0.0
H482 H 0.04444 0.12913 0.83585 0.0
H483 H 0.09415 0.92004 0.82986 0.0
H484 H 0.1638 0.85433 0.82279 0.0
H485 H 0.3645 1.00992 0.84294 0.0
H486 H 0.29643 0.07734 0.85001 0.0
H487 H 0.96361 0.02554 0.89486 0.0
H488 H 0.97166 0.01166 0.87422 0.0
H489 H 0.21913 0.16963 0.87594 0.0
H490 H 0.21138 0.18529 0.89651 0.0
H491 H 0.1695 0.02882 0.86216 0.0
H492 H 0.11728 0.24091 0.86724 0.0
H493 H 0.04324 0.30164 0.87443 0.0
H494 H 0.83991 0.13093 0.85614 0.0
H495 H 0.91256 0.06845 0.84897 0.0
C496 C 0.21714 0.10742 0.80875 0.0
C497 C 0.15482 0.07189 0.8009 0.0
C498 C 0.20384 0.11066 0.82035 0.0
C499 C 0.12776 0.07719 0.82448 0.0
C500 C 0.06528 0.04503 0.81661 0.0
C501 C 0.07867 0.04245 0.80492 0.0
C502 C 0.1145 0.07426 0.83702 0.0
C503 C 0.07072 0.10593 0.84156 0.0
C504 C 0.1492 0.04466 0.84459 0.0
C505 C 0.19037 1.00416 0.84039 0.0
C506 C 0.15334 0.94062 0.83272 0.0
C507 C 0.19251 0.90301 0.82872 0.0
C508 C 0.26859 0.92804 0.83239 0.0
C509 C 0.30559 0.99064 0.84009 0.0
C510 C 0.26671 0.02853 0.84411 0.0
C511 C 0.01992 0.05664 0.89087 0.0
C512 C 0.08693 0.10649 0.89735 0.0
C513 C 0.02431 0.04898 0.87906 0.0
C514 C 0.09592 0.08998 0.87352 0.0
C515 C 0.16326 0.13751 0.88003 0.0
C516 C 0.15872 0.14638 0.89179 0.0
C517 C 0.10072 0.08475 0.86093 0.0
C518 C 0.14281 0.05139 0.8564 0.0
C519 C 0.06372 0.11186 0.8534 0.0
C520 C 0.02007 0.14944 0.85768 0.0
C521 C 0.05657 0.21585 0.86484 0.0
C522 C 0.01491 0.2507 0.8689 0.0
C523 C 0.93684 0.22 0.86578 0.0
C524 C 0.90035 0.15454 0.85857 0.0
C525 C 0.94175 0.11941 0.8545 0.0
H526 H 0.90467 0.24708 0.86892 0.0
H527 H 0.29881 0.89884 0.82929 0.0
H528 H 0.92125 0.89208 0.06138 0.0
H529 H 0.93413 0.89041 0.04079 0.0
H530 H 0.08781 0.13988 0.0415 0.0
H531 H 0.07128 0.14214 0.06208 0.0
H532 H 0.99366 0.10996 0.0254 0.0
H533 H 0.14741 0.9954 0.03557 0.0
H534 H 0.1778 0.90353 0.04519 0.0
H535 H 0.9873 0.71109 0.02758 0.0
H536 H 0.95518 0.80175 0.01795 0.0
H537 H 0.09178 0.12522 0.96706 0.0
H538 H 0.10755 0.1238 0.98772 0.0
H539 H 0.90586 0.89386 0.98884 0.0
H540 H 0.88892 0.89514 0.96821 0.0
H541 H 0.03375 0.9169 1.00367 0.0
H542 H 0.87861 0.03617 0.99459 0.0
H543 H 0.85297 0.13106 0.98489 0.0
H544 H 0.057 0.32012 1.00062 0.0
H545 H 0.08446 0.22622 1.01028 0.0
C546 C 0.95885 0.94648 0.05719 0.0
C547 C 0.99538 0.01727 0.06341 0.0
C548 C 0.96656 0.94545 0.04536 0.0
C549 C 1.01291 0.01489 0.03946 0.0
C550 C 0.05152 0.08535 0.04575 0.0
C551 C 0.04241 0.08661 0.05756 0.0
C552 C 0.01692 0.01483 0.02672 0.0
C553 C 1.00413 0.0686 0.02072 0.0
C554 C 0.02885 0.96005 0.02044 0.0
C555 C 0.04853 0.90538 0.02611 0.0
C556 C 0.11173 0.93346 0.0338 0.0
C557 C 0.1293 0.8816 0.03924 0.0
C558 C 0.0844 0.80152 0.03701 0.0
C559 C 0.022 0.77314 0.0293 0.0
C560 C 1.00416 0.82475 0.02383 0.0
C561 C 0.05159 0.07368 0.97165 0.0
C562 C 0.98886 1.01039 0.96595 0.0
C563 C 0.06056 0.0731 0.98349 0.0
C564 C 1.00758 1.00893 0.98985 0.0
C565 C 0.94751 0.94393 0.98411 0.0
C566 C 0.93784 0.94489 0.97231 0.0
C567 C 1.01098 0.01205 1.00253 0.0
C568 C 0.02455 0.9587 1.00845 0.0
C569 C 1.00087 0.0678 1.00877 0.0
C570 C 0.98405 0.12423 1.00305 0.0
C571 C 0.91835 0.09798 0.9959 0.0
C572 C 0.90343 0.15157 0.99043 0.0
C573 C 0.95345 0.23157 0.99211 0.0
C574 C 0.01838 0.25813 0.99931 0.0
C575 C 0.03363 0.20477 1.00479 0.0
H576 H 0.94181 0.27298 0.98787 0.0
H577 H 0.09809 0.76147 0.04124 0.0
H578 H 1.00957 1.00433 0.29869 0.0
H579 H 0.97216 0.99365 0.31878 0.0
H580 H 0.21044 0.07735 0.329 0.0
H581 H 0.24723 0.08571 0.3092 0.0
H582 H 0.12273 0.96382 0.34187 0.0
H583 H 0.1198 0.19378 0.3292 0.0
H584 H 0.07773 0.26775 0.31719 0.0
H585 H 0.84156 0.12074 0.32753 0.0
H586 H 0.8821 0.04526 0.33949 0.0
H587 H 0.14661 0.1015 0.39822 0.0
H588 H 0.15718 0.08539 0.37786 0.0
H589 H 0.91026 0.99288 0.37363 0.0
H590 H 0.89954 1.01109 0.39406 0.0
H591 H 0.9859 0.09547 0.35755 0.0
H592 H 0.99569 0.87368 0.37181 0.0
H593 H 0.04366 0.80718 0.38433 0.0
H594 H 0.27397 0.9465 0.37129 0.0
H595 H 0.22752 0.01429 0.35875 0.0
C596 C 0.05377 0.0202 0.30524 0.0
C597 C 0.13139 0.04584 0.30229 0.0
C598 C 0.03245 0.01446 0.31674 0.0
C599 C 0.08856 0.03532 0.32549 0.0
C600 C 0.16577 0.06047 0.32249 0.0
C601 C 0.18681 0.06547 0.31109 0.0
C602 C 0.06839 0.0316 0.33781 0.0
C603 C 0.09319 0.9931 0.34528 0.0
C604 C 0.02819 0.06803 0.34233 0.0
C605 C 1.00383 0.11332 0.33513 0.0
C606 C 0.05881 0.17685 0.32884 0.0
C607 C 0.03527 0.21911 0.32206 0.0
C608 C 0.95699 0.1988 0.32158 0.0
C609 C 0.90214 0.1363 0.3279 0.0
C610 C 0.92536 0.09378 0.33468 0.0
C611 C 0.09421 0.07685 0.39302 0.0
C612 C 0.02209 0.05736 0.39785 0.0
C613 C 0.10034 0.06738 0.38133 0.0
C614 C 0.03438 0.03691 0.37415 0.0
C615 C 0.96206 0.01637 0.37896 0.0
C616 C 0.95594 0.02639 0.39067 0.0
C617 C 0.04178 0.02916 0.36161 0.0
C618 C 1.01452 0.06536 0.35411 0.0
C619 C 0.0805 0.99134 0.35705 0.0
C620 C 0.10815 0.94931 0.36439 0.0
C621 C 0.0566 0.89027 0.37164 0.0
C622 C 0.08352 0.85233 0.37873 0.0
C623 C 0.16183 0.87267 0.37862 0.0
C624 C 0.21332 0.93075 0.37136 0.0
C625 C 0.18668 0.96881 0.36424 0.0
H626 H 0.1826 0.84338 0.38414 0.0
H627 H 0.93885 0.23161 0.31634 0.0
H628 H 0.06481 0.05406 0.63253 0.0
H629 H 0.08991 0.0909 0.65284 0.0
H630 H 0.87186 0.88806 0.6612 0.0
H631 H 0.8467 0.85131 0.64114 0.0
H632 H 0.89532 0.01567 0.67353 0.0
H633 H 0.04141 0.88714 0.66354 0.0
H634 H 0.13918 0.87258 0.6526 0.0
H635 H 0.31726 0.09919 0.66419 0.0
H636 H 0.22021 0.11554 0.67508 0.0
H637 H 0.91984 0.92066 0.7304 0.0
H638 H 0.90788 0.92851 0.70988 0.0
H639 H 0.14309 0.12158 0.70886 0.0
H640 H 0.15615 0.11277 0.72944 0.0
H641 H 0.12278 0.02273 0.69246 0.0
H642 H 0.98119 0.14552 0.70444 0.0
H643 H 0.88436 0.16247 0.71523 0.0
H644 H 0.69998 0.95301 0.69988 0.0
H645 H 0.79575 0.93416 0.68911 0.0
C646 C 0.02193 0.01799 0.63871 0.0
C647 C 0.95398 0.94951 0.63521 0.0
C648 C 0.03646 0.03885 0.65031 0.0
C649 C 0.98301 0.99189 0.65859 0.0
C650 C 0.914 0.9253 0.65502 0.0
C651 C 0.89989 0.90416 0.64351 0.0
C652 C 0.99919 1.00905 0.67103 0.0
C653 C 0.94494 0.017 0.67768 0.0
C654 C 0.06507 0.01311 0.67645 0.0
C655 C 0.12345 1.00295 0.67 0.0
C656 C 0.10132 0.9341 0.66368 0.0
C657 C 0.1566 0.92548 0.6575 0.0
C658 C 0.23434 0.98503 0.65767 0.0
C659 C 0.257 0.0532 0.66405 0.0
C660 C 0.20189 0.06216 0.67023 0.0
C661 C 0.96878 0.96567 0.72587 0.0
C662 C 0.03892 0.01621 0.73163 0.0
C663 C 0.96176 0.97029 0.71409 0.0
C664 C 0.02426 0.02624 0.70774 0.0
C665 C 0.0939 0.07791 0.71351 0.0
C666 C 0.10113 0.07307 0.72532 0.0
C667 C 0.01784 0.02763 0.69506 0.0
C668 C 0.07383 0.02293 0.68835 0.0
C669 C 0.95372 0.02704 0.68958 0.0
C670 C 0.89578 0.03816 0.69602 0.0
C671 C 0.92004 0.10276 0.70342 0.0
C672 C 0.86532 0.11276 0.70952 0.0
C673 C 0.78608 0.05878 0.70826 0.0
C674 C 0.76138 0.99476 0.70086 0.0
C675 C 0.81586 0.98445 0.69474 0.0
H676 H 0.74382 0.06663 0.71299 0.0
H677 H 0.27706 0.97826 0.65288 0.0
loop_
_geom_bond_atom_site_label_1
_geom_bond_atom_site_label_2
_geom_bond_distance
_geom_bond_site_symmetry_2
_ccdc_geom_bond_type
Mg0 O7 2.141 . S
Mg0 O8 2.048 1_545 S
Mg0 O9 2.048 . S
Mg0 O12 2.141 . S
C1 O2 1.313 . S
C1 O8 1.195 1_455 S
O2 C1 1.313 . S
C3 O4 1.245 . S
C3 O12 1.289 1_455 S
O4 C3 1.245 . S
C5 O6 1.245 . S
C5 O7 1.289 1_455 S
O6 C5 1.245 . S
O7 Mg0 2.141 . S
O7 C5 1.289 1_655 S
O8 Mg0 2.048 1_565 S
O8 C1 1.195 1_655 S
O9 Mg0 2.048 . S
O9 C10 1.195 1_655 S
C10 O9 1.195 1_455 S
C10 O11 1.313 . S
O11 C10 1.313 . S
O12 Mg0 2.141 . S
O12 C3 1.289 1_655 S
Mg13 O20 2.141 . S
Mg13 O21 2.048 1_455 S
Mg13 O22 2.048 . S
Mg13 O25 2.141 . S
C14 O15 1.313 1_545 S
C14 O21 1.195 . S
O15 C14 1.313 1_565 S
C16 O17 1.245 1_545 S
C16 O25 1.289 . S
O17 C16 1.245 1_565 S
C18 O19 1.245 1_445 S
C18 O20 1.289 . S
O19 C18 1.245 1_665 S
O20 Mg13 2.141 . S
O20 C18 1.289 . S
O21 Mg13 2.048 1_655 S
O21 C14 1.195 . S
O22 Mg13 2.048 . S
O22 C23 1.195 . S
C23 O22 1.195 . S
C23 O24 1.313 1_445 S
O24 C23 1.313 1_665 S
O25 Mg13 2.141 . S
O25 C16 1.289 . S
Mg26 O33 2.141 . S
Mg26 O34 2.048 1_445 S
Mg26 O35 2.048 . S
Mg26 O38 2.141 . S
C27 O28 1.313 . S
C27 O34 1.195 . S
O28 C27 1.313 . S
C29 O30 1.245 . S
C29 O38 1.289 . S
O30 C29 1.245 . S
C31 O32 1.245 1_545 S
C31 O33 1.289 . S
O32 C31 1.245 1_565 S
O33 Mg26 2.141 . S
O33 C31 1.289 . S
O34 Mg26 2.048 1_665 S
O34 C27 1.195 . S
O35 Mg26 2.048 . S
O35 C36 1.195 . S
C36 O35 1.195 . S
C36 O37 1.313 1_545 S
O37 C36 1.313 1_565 S
O38 Mg26 2.141 . S
O38 C29 1.289 . S
Mg39 O46 2.141 . S
Mg39 O47 2.048 . S
Mg39 O48 2.048 . S
Mg39 O51 2.141 1_455 S
C40 O41 1.313 1_545 S
C40 O47 1.195 . S
O41 C40 1.313 1_565 S
C42 O43 1.245 1_545 S
C42 O51 1.289 . S
O43 C42 1.245 1_565 S
C44 O45 1.245 1_445 S
C44 O46 1.289 . S
O45 C44 1.245 1_665 S
O46 Mg39 2.141 . S
O46 C44 1.289 . S
O47 Mg39 2.048 . S
O47 C40 1.195 . S
O48 Mg39 2.048 . S
O48 C49 1.195 . S
C49 O48 1.195 . S
C49 O50 1.313 1_445 S
O50 C49 1.313 1_665 S
O51 Mg39 2.141 1_655 S
O51 C42 1.289 . S
Mg52 O59 2.141 . S
Mg52 O60 2.048 1_655 S
Mg52 O61 2.048 . S
Mg52 O64 2.141 1_545 S
C53 O54 1.313 . S
C53 O60 1.195 . S
O54 C53 1.313 . S
C55 O56 1.245 . S
C55 O64 1.289 . S
O56 C55 1.245 . S
C57 O58 1.245 1_545 S
C57 O59 1.289 1_455 S
O58 C57 1.245 1_565 S
O59 Mg52 2.141 . S
O59 C57 1.289 1_655 S
O60 Mg52 2.048 1_455 S
O60 C53 1.195 . S
O61 Mg52 2.048 . S
O61 C62 1.195 1_655 S
C62 O61 1.195 1_455 S
C62 O63 1.313 . S
O63 C62 1.313 . S
O64 Mg52 2.141 1_565 S
O64 C55 1.289 . S
Mg65 O72 2.141 . S
Mg65 O73 2.048 1_565 S
Mg65 O74 2.048 . S
Mg65 O77 2.141 . S
C66 O67 1.313 . S
C66 O73 1.195 1_455 S
O67 C66 1.313 . S
C68 O69 1.245 . S
C68 O77 1.289 1_455 S
O69 C68 1.245 . S
C70 O71 1.245 . S
C70 O72 1.289 1_445 S
O71 C70 1.245 . S
O72 Mg65 2.141 . S
O72 C70 1.289 1_665 S
O73 Mg65 2.048 1_545 S
O73 C66 1.195 1_655 S
O74 Mg65 2.048 . S
O74 C75 1.195 1_665 S
C75 O74 1.195 1_445 S
C75 O76 1.313 . S
O76 C75 1.313 . S
O77 Mg65 2.141 . S
O77 C68 1.289 1_655 S
H78 C96 0.951 . S
H79 C98 0.951 . S
H80 C100 0.950 . S
H81 C101 0.950 . S
H82 C103 0.950 . S
H83 C106 0.950 . S
H84 C107 0.950 . S
H85 C109 0.950 . S
H86 C110 0.950 . S
H87 C111 0.951 . S
H88 C113 0.951 . S
H89 C115 0.950 . S
H90 C116 0.950 . S
H91 C118 0.950 . S
H92 C121 0.950 . S
H93 C122 0.950 . S
H94 C124 0.950 . S
H95 C125 0.950 . S
C96 H78 0.951 . S
C96 C97 1.366 . S
C96 C98 1.388 . S
C97 C96 1.366 . S
C97 C101 1.385 1_455 S
C98 H79 0.951 . S
C98 C96 1.388 . S
C98 C99 1.366 . S
C99 C98 1.366 . S
C99 C100 1.414 1_455 S
C99 C102 1.499 . S
C100 H80 0.950 . S
C100 C99 1.414 1_655 S
C100 C101 1.374 . S
C101 H81 0.950 . S
C101 C97 1.385 1_655 S
C101 C100 1.374 . S
C102 C99 1.499 . S
C102 C103 1.373 1_455 S
C102 C104 1.389 . S
C103 H82 0.950 . S
C103 C102 1.373 1_655 S
C103 C119 1.377 . S
C104 C102 1.389 . S
C104 C105 1.524 . S
C104 C118 1.377 . S
C105 C104 1.524 . S
C105 C106 1.397 . S
C105 C110 1.363 . S
C106 H83 0.950 . S
C106 C105 1.397 . S
C106 C107 1.334 . S
C107 H84 0.950 . S
C107 C106 1.334 . S
C107 C108 1.287 . S
C108 C107 1.287 . S
C108 C109 1.524 . S
C108 H127 0.913 . S
C109 H85 0.950 . S
C109 C108 1.524 . S
C109 C110 1.415 . S
C110 H86 0.950 . S
C110 C105 1.363 . S
C110 C109 1.415 . S
C111 H87 0.951 . S
C111 C112 1.366 1_655 S
C111 C113 1.388 . S
C112 C111 1.366 1_455 S
C112 C116 1.385 . S
C113 H88 0.951 . S
C113 C111 1.388 . S
C113 C114 1.366 1_655 S
C114 C113 1.366 1_455 S
C114 C115 1.414 . S
C114 C117 1.499 . S
C115 H89 0.950 . S
C115 C114 1.414 . S
C115 C116 1.374 . S
C116 H90 0.950 . S
C116 C112 1.385 . S
C116 C115 1.374 . S
C117 C114 1.499 . S
C117 C118 1.373 . S
C117 C119 1.389 1_455 S
C118 H91 0.950 . S
C118 C104 1.377 . S
C118 C117 1.373 . S
C119 C103 1.377 . S
C119 C117 1.389 1_655 S
C119 C120 1.524 . S
C120 C119 1.524 . S
C120 C121 1.397 . S
C120 C125 1.363 . S
C121 H92 0.950 . S
C121 C120 1.397 . S
C121 C122 1.334 . S
C122 H93 0.950 . S
C122 C121 1.334 . S
C122 C123 1.287 . S
C123 C122 1.287 . S
C123 C124 1.524 . S
C123 H126 0.999 . S
C124 H94 0.950 . S
C124 C123 1.524 . S
C124 C125 1.415 . S
C125 H95 0.950 . S
C125 C120 1.363 . S
C125 C124 1.415 . S
H126 C123 0.999 . S
H127 C108 0.913 . S
H128 C146 0.951 . S
H129 C148 0.951 . S
H130 C150 0.950 . S
H131 C151 0.950 . S
H132 C153 0.950 . S
H133 C156 0.950 . S
H134 C157 0.950 . S
H135 C159 0.950 . S
H136 C160 0.950 . S
H137 C161 0.951 . S
H138 C163 0.951 . S
H139 C165 0.950 . S
H140 C166 0.950 . S
H141 C168 0.950 . S
H142 C171 0.950 . S
H143 C172 0.950 . S
H144 C174 0.950 . S
H145 C175 0.950 . S
C146 H128 0.951 . S
C146 C147 1.366 . S
C146 C148 1.388 . S
C147 C146 1.366 . S
C147 C151 1.385 . S
C148 H129 0.951 . S
C148 C146 1.388 . S
C148 C149 1.366 . S
C149 C148 1.366 . S
C149 C150 1.414 . S
C149 C152 1.499 . S
C150 H130 0.950 . S
C150 C149 1.414 . S
C150 C151 1.374 . S
C151 H131 0.950 . S
C151 C147 1.385 . S
C151 C150 1.374 . S
C152 C149 1.499 . S
C152 C153 1.373 . S
C152 C154 1.389 1_545 S
C153 H132 0.950 . S
C153 C152 1.373 . S
C153 C169 1.377 . S
C154 C152 1.389 1_565 S
C154 C155 1.524 . S
C154 C168 1.377 . S
C155 C154 1.524 . S
C155 C156 1.397 . S
C155 C160 1.363 . S
C156 H133 0.950 . S
C156 C155 1.397 . S
C156 C157 1.334 . S
C157 H134 0.950 . S
C157 C156 1.334 . S
C157 C158 1.287 . S
C158 C157 1.287 . S
C158 C159 1.524 . S
C158 H177 0.913 . S
C159 H135 0.950 . S
C159 C158 1.524 . S
C159 C160 1.415 . S
C160 H136 0.950 . S
C160 C155 1.363 . S
C160 C159 1.415 . S
C161 H137 0.951 . S
C161 C162 1.366 . S
C161 C163 1.388 . S
C162 C161 1.366 . S
C162 C166 1.385 . S
C163 H138 0.951 . S
C163 C161 1.388 . S
C163 C164 1.366 . S
C164 C163 1.366 . S
C164 C165 1.414 . S
C164 C167 1.499 . S
C165 H139 0.950 . S
C165 C164 1.414 . S
C165 C166 1.374 . S
C166 H140 0.950 . S
C166 C162 1.385 . S
C166 C165 1.374 . S
C167 C164 1.499 . S
C167 C168 1.373 1_545 S
C167 C169 1.389 . S
C168 H141 0.950 . S
C168 C154 1.377 . S
C168 C167 1.373 1_565 S
C169 C153 1.377 . S
C169 C167 1.389 . S
C169 C170 1.524 . S
C170 C169 1.524 . S
C170 C171 1.397 . S
C170 C175 1.363 . S
C171 H142 0.950 . S
C171 C170 1.397 . S
C171 C172 1.334 . S
C172 H143 0.950 . S
C172 C171 1.334 . S
C172 C173 1.287 . S
C173 C172 1.287 . S
C173 C174 1.524 . S
C173 H176 0.999 . S
C174 H144 0.950 . S
C174 C173 1.524 . S
C174 C175 1.415 . S
C175 H145 0.950 . S
C175 C170 1.363 . S
C175 C174 1.415 . S
H176 C173 0.999 . S
H177 C158 0.913 . S
H178 C196 0.951 . S
H179 C198 0.951 . S
H180 C200 0.950 . S
H181 C201 0.950 . S
H182 C203 0.950 . S
H183 C206 0.950 . S
H184 C207 0.950 . S
H185 C209 0.950 . S
H186 C210 0.950 . S
H187 C211 0.951 . S
H188 C213 0.951 . S
H189 C215 0.950 . S
H190 C216 0.950 . S
H191 C218 0.950 . S
H192 C221 0.950 . S
H193 C222 0.950 . S
H194 C224 0.950 . S
H195 C225 0.950 . S
C196 H178 0.951 . S
C196 C197 1.366 . S
C196 C198 1.388 . S
C197 C196 1.366 . S
C197 C201 1.385 . S
C198 H179 0.951 . S
C198 C196 1.388 . S
C198 C199 1.366 . S
C199 C198 1.366 . S
C199 C200 1.414 . S
C199 C202 1.499 . S
C200 H180 0.950 . S
C200 C199 1.414 . S
C200 C201 1.374 . S
C201 H181 0.950 . S
C201 C197 1.385 . S
C201 C200 1.374 . S
C202 C199 1.499 . S
C202 C203 1.373 . S
C202 C204 1.389 . S
C203 H182 0.950 . S
C203 C202 1.373 . S
C203 C219 1.377 . S
C204 C202 1.389 . S
C204 C205 1.524 . S
C204 C218 1.377 . S
C205 C204 1.524 . S
C205 C206 1.397 . S
C205 C210 1.363 . S
C206 H183 0.950 . S
C206 C205 1.397 . S
C206 C207 1.334 . S
C207 H184 0.950 . S
C207 C206 1.334 . S
C207 C208 1.287 . S
C208 C207 1.287 . S
C208 C209 1.524 . S
C208 H227 0.913 . S
C209 H185 0.950 . S
C209 C208 1.524 . S
C209 C210 1.415 . S
C210 H186 0.950 . S
C210 C205 1.363 . S
C210 C209 1.415 . S
C211 H187 0.951 . S
C211 C212 1.366 . S
C211 C213 1.388 . S
C212 C211 1.366 . S
C212 C216 1.385 . S
C213 H188 0.951 . S
C213 C211 1.388 . S
C213 C214 1.366 . S
C214 C213 1.366 . S
C214 C215 1.414 . S
C214 C217 1.499 . S
C215 H189 0.950 . S
C215 C214 1.414 . S
C215 C216 1.374 . S
C216 H190 0.950 . S
C216 C212 1.385 . S
C216 C215 1.374 . S
C217 C214 1.499 . S
C217 C218 1.373 . S
C217 C219 1.389 . S
C218 H191 0.950 . S
C218 C204 1.377 . S
C218 C217 1.373 . S
C219 C203 1.377 . S
C219 C217 1.389 . S
C219 C220 1.524 . S
C220 C219 1.524 . S
C220 C221 1.397 . S
C220 C225 1.363 . S
C221 H192 0.950 . S
C221 C220 1.397 . S
C221 C222 1.334 . S
C222 H193 0.950 . S
C222 C221 1.334 . S
C222 C223 1.287 . S
C223 C222 1.287 . S
C223 C224 1.524 . S
C223 H226 0.999 . S
C224 H194 0.950 . S
C224 C223 1.524 . S
C224 C225 1.415 . S
C225 H195 0.950 . S
C225 C220 1.363 . S
C225 C224 1.415 . S
H226 C223 0.999 . S
H227 C208 0.913 . S
H228 C246 0.951 1_565 S
H229 C248 0.951 1_565 S
H230 C250 0.950 . S
H231 C251 0.950 . S
H232 C253 0.950 . S
H233 C256 0.950 . S
H234 C257 0.950 . S
H235 C259 0.950 . S
H236 C260 0.950 . S
H237 C261 0.951 . S
H238 C263 0.951 . S
H239 C265 0.950 . S
H240 C266 0.951 1_565 S
H241 C268 0.950 . S
H242 C271 0.950 . S
H243 C272 0.950 . S
H244 C274 0.950 . S
H245 C275 0.950 . S
C246 H228 0.951 1_545 S
C246 C247 1.366 . S
C246 C248 1.388 . S
C247 C246 1.366 . S
C247 C251 1.385 . S
C248 H229 0.951 1_545 S
C248 C246 1.388 . S
C248 C249 1.366 . S
C249 C248 1.366 . S
C249 C250 1.414 . S
C249 C252 1.499 . S
C250 H230 0.950 . S
C250 C249 1.414 . S
C250 C251 1.374 . S
C251 H231 0.950 . S
C251 C247 1.385 . S
C251 C250 1.374 . S
C252 C249 1.499 . S
C252 C253 1.373 1_545 S
C252 C254 1.389 . S
C253 H232 0.950 . S
C253 C252 1.373 1_565 S
C253 C269 1.377 . S
C254 C252 1.389 . S
C254 C255 1.524 . S
C254 C268 1.377 . S
C255 C254 1.524 . S
C255 C256 1.397 . S
C255 C260 1.363 . S
C256 H233 0.950 . S
C256 C255 1.397 . S
C256 C257 1.334 . S
C257 H234 0.950 . S
C257 C256 1.334 . S
C257 C258 1.287 . S
C258 C257 1.287 . S
C258 C259 1.524 . S
C258 H277 0.913 . S
C259 H235 0.950 . S
C259 C258 1.524 . S
C259 C260 1.415 . S
C260 H236 0.950 . S
C260 C255 1.363 . S
C260 C259 1.415 . S
C261 H237 0.951 . S
C261 C262 1.366 . S
C261 C263 1.388 . S
C262 C261 1.366 . S
C262 C266 1.385 . S
C263 H238 0.951 . S
C263 C261 1.388 . S
C263 C264 1.366 . S
C264 C263 1.366 . S
C264 C265 1.414 1_545 S
C264 C267 1.499 . S
C265 H239 0.950 . S
C265 C264 1.414 1_565 S
C265 C266 1.373 1_565 S
C266 H240 0.951 1_545 S
C266 C262 1.385 . S
C266 C265 1.373 1_545 S
C267 C264 1.499 . S
C267 C268 1.373 . S
C267 C269 1.389 1_545 S
C268 H241 0.950 . S
C268 C254 1.377 . S
C268 C267 1.373 . S
C269 C253 1.377 . S
C269 C267 1.389 1_565 S
C269 C270 1.524 . S
C270 C269 1.524 . S
C270 C271 1.397 . S
C270 C275 1.363 . S
C271 H242 0.950 . S
C271 C270 1.397 . S
C271 C272 1.334 . S
C272 H243 0.950 . S
C272 C271 1.334 . S
C272 C273 1.287 . S
C273 C272 1.287 . S
C273 C274 1.524 . S
C273 H276 0.999 . S
C274 H244 0.950 . S
C274 C273 1.524 . S
C274 C275 1.415 . S
C275 H245 0.950 . S
C275 C270 1.363 . S
C275 C274 1.415 . S
H276 C273 0.999 . S
H277 C258 0.913 . S
H278 C296 0.951 . S
H279 C298 0.951 . S
H280 C300 0.950 . S
H281 C301 0.950 . S
H282 C303 0.950 . S
H283 C306 0.950 . S
H284 C307 0.950 . S
H285 C309 0.950 . S
H286 C310 0.950 . S
H287 C311 0.951 . S
H288 C313 0.951 . S
H289 C315 0.950 . S
H290 C316 0.950 . S
H291 C318 0.950 . S
H292 C321 0.950 . S
H293 C322 0.950 . S
H294 C324 0.950 . S
H295 C325 0.950 . S
C296 H278 0.951 . S
C296 C297 1.366 . S
C296 C298 1.388 . S
C297 C296 1.366 . S
C297 C301 1.385 . S
C298 H279 0.951 . S
C298 C296 1.388 . S
C298 C299 1.366 . S
C299 C298 1.366 . S
C299 C300 1.414 . S
C299 C302 1.499 . S
C300 H280 0.950 . S
C300 C299 1.414 . S
C300 C301 1.374 . S
C301 H281 0.950 . S
C301 C297 1.385 . S
C301 C300 1.374 . S
C302 C299 1.499 . S
C302 C303 1.373 . S
C302 C304 1.389 . S
C303 H282 0.950 . S
C303 C302 1.373 . S
C303 C319 1.377 . S
C304 C302 1.389 . S
C304 C305 1.524 . S
C304 C318 1.377 . S
C305 C304 1.524 . S
C305 C306 1.397 . S
C305 C310 1.363 . S
C306 H283 0.950 . S
C306 C305 1.397 . S
C306 C307 1.334 . S
C307 H284 0.950 . S
C307 C306 1.334 . S
C307 C308 1.287 . S
C308 C307 1.287 . S
C308 C309 1.524 . S
C308 H327 0.913 . S
C309 H285 0.950 . S
C309 C308 1.524 . S
C309 C310 1.415 . S
C310 H286 0.950 . S
C310 C305 1.363 . S
C310 C309 1.415 . S
C311 H287 0.951 . S
C311 C312 1.366 . S
C311 C313 1.388 . S
C312 C311 1.366 . S
C312 C316 1.385 . S
C313 H288 0.951 . S
C313 C311 1.388 . S
C313 C314 1.366 . S
C314 C313 1.366 . S
C314 C315 1.414 . S
C314 C317 1.499 . S
C315 H289 0.950 . S
C315 C314 1.414 . S
C315 C316 1.374 . S
C316 H290 0.950 . S
C316 C312 1.385 . S
C316 C315 1.374 . S
C317 C314 1.499 . S
C317 C318 1.373 . S
C317 C319 1.389 . S
C318 H291 0.950 . S
C318 C304 1.377 . S
C318 C317 1.373 . S
C319 C303 1.377 . S
C319 C317 1.389 . S
C319 C320 1.524 . S
C320 C319 1.524 . S
C320 C321 1.397 . S
C320 C325 1.363 . S
C321 H292 0.950 . S
C321 C320 1.397 . S
C321 C322 1.334 . S
C322 H293 0.950 . S
C322 C321 1.334 . S
C322 C323 1.287 . S
C323 C322 1.287 . S
C323 C324 1.524 . S
C323 H326 0.999 . S
C324 H294 0.950 . S
C324 C323 1.524 . S
C324 C325 1.415 . S
C325 H295 0.950 . S
C325 C320 1.363 . S
C325 C324 1.415 . S
H326 C323 0.999 . S
H327 C308 0.913 . S
H328 C346 0.951 . S
H329 C348 0.951 . S
H330 C350 0.950 . S
H331 C351 0.950 . S
H332 C353 0.950 . S
H333 C356 0.950 . S
H334 C357 0.950 . S
H335 C359 0.950 . S
H336 C360 0.950 . S
H337 C361 0.951 . S
H338 C363 0.951 . S
H339 C365 0.950 . S
H340 C366 0.950 . S
H341 C368 0.950 . S
H342 C371 0.950 . S
H343 C372 0.950 . S
H344 C374 0.950 . S
H345 C375 0.950 1_655 S
C346 H328 0.951 . S
C346 C347 1.366 . S
C346 C348 1.388 . S
C347 C346 1.366 . S
C347 C351 1.385 1_455 S
C348 H329 0.951 . S
C348 C346 1.388 . S
C348 C349 1.366 . S
C349 C348 1.366 . S
C349 C350 1.414 1_455 S
C349 C352 1.499 . S
C350 H330 0.950 . S
C350 C349 1.414 1_655 S
C350 C351 1.374 . S
C351 H331 0.950 . S
C351 C347 1.385 1_655 S
C351 C350 1.374 . S
C352 C349 1.499 . S
C352 C353 1.373 . S
C352 C354 1.389 . S
C353 H332 0.950 . S
C353 C352 1.373 . S
C353 C369 1.377 . S
C354 C352 1.389 . S
C354 C355 1.524 1_455 S
C354 C368 1.377 . S
C355 C354 1.524 1_655 S
C355 C356 1.397 . S
C355 C360 1.363 1_655 S
C356 H333 0.950 . S
C356 C355 1.397 . S
C356 C357 1.334 . S
C357 H334 0.950 . S
C357 C356 1.334 . S
C357 C358 1.287 . S
C358 C357 1.287 . S
C358 C359 1.524 1_655 S
C358 H377 0.913 . S
C359 H335 0.950 . S
C359 C358 1.524 1_455 S
C359 C360 1.415 . S
C360 H336 0.950 . S
C360 C355 1.363 1_455 S
C360 C359 1.415 . S
C361 H337 0.951 . S
C361 C362 1.366 1_655 S
C361 C363 1.388 . S
C362 C361 1.366 1_455 S
C362 C366 1.385 . S
C363 H338 0.951 . S
C363 C361 1.388 . S
C363 C364 1.366 1_655 S
C364 C363 1.366 1_455 S
C364 C365 1.414 . S
C364 C367 1.499 . S
C365 H339 0.950 . S
C365 C364 1.414 . S
C365 C366 1.374 . S
C366 H340 0.950 . S
C366 C362 1.385 . S
C366 C365 1.374 . S
C367 C364 1.499 . S
C367 C368 1.373 . S
C367 C369 1.389 . S
C368 H341 0.950 . S
C368 C354 1.377 . S
C368 C367 1.373 . S
C369 C353 1.377 . S
C369 C367 1.389 . S
C369 C370 1.524 . S
C370 C369 1.524 . S
C370 C371 1.397 . S
C370 C375 1.363 . S
C371 H342 0.950 . S
C371 C370 1.397 . S
C371 C372 1.334 . S
C372 H343 0.950 . S
C372 C371 1.334 . S
C372 C373 1.287 . S
C373 C372 1.287 . S
C373 C374 1.524 . S
C373 H376 0.999 . S
C374 H344 0.950 . S
C374 C373 1.524 . S
C374 C375 1.415 . S
C375 H345 0.950 1_455 S
C375 C370 1.363 . S
C375 C374 1.415 . S
H376 C373 0.999 . S
H377 C358 0.913 . S
H378 C396 0.951 1_655 S
H379 C398 0.951 1_655 S
H380 C400 0.950 . S
H381 C401 0.950 . S
H382 C403 0.950 . S
H383 C406 0.950 . S
H384 C407 0.950 . S
H385 C409 0.950 . S
H386 C410 0.950 . S
H387 C411 0.951 . S
H388 C413 0.951 . S
H389 C415 0.950 1_655 S
H390 C416 0.950 1_655 S
H391 C418 0.950 . S
H392 C421 0.950 . S
H393 C422 0.950 . S
H394 C424 0.950 1_565 S
H395 C425 0.950 1_565 S
C396 H378 0.951 1_455 S
C396 C397 1.366 . S
C396 C398 1.388 . S
C397 C396 1.366 . S
C397 C401 1.385 1_545 S
C398 H379 0.951 1_455 S
C398 C396 1.388 . S
C398 C399 1.366 . S
C399 C398 1.366 . S
C399 C400 1.414 1_545 S
C399 C402 1.499 . S
C400 H380 0.950 . S
C400 C399 1.414 1_565 S
C400 C401 1.374 . S
C401 H381 0.950 . S
C401 C397 1.385 1_565 S
C401 C400 1.374 . S
C402 C399 1.499 . S
C402 C403 1.373 . S
C402 C404 1.389 1_455 S
C403 H382 0.950 . S
C403 C402 1.373 . S
C403 C419 1.377 . S
C404 C402 1.389 1_655 S
C404 C405 1.524 1_545 S
C404 C418 1.377 . S
C405 C404 1.524 1_565 S
C405 C406 1.397 . S
C405 C410 1.363 1_565 S
C406 H383 0.950 . S
C406 C405 1.397 . S
C406 C407 1.334 . S
C407 H384 0.950 . S
C407 C406 1.334 . S
C407 C408 1.287 . S
C408 C407 1.287 . S
C408 C409 1.524 1_565 S
C408 H427 0.913 . S
C409 H385 0.950 . S
C409 C408 1.524 1_545 S
C409 C410 1.415 . S
C410 H386 0.950 . S
C410 C405 1.363 1_545 S
C410 C409 1.415 . S
C411 H387 0.951 . S
C411 C412 1.366 1_565 S
C411 C413 1.388 . S
C412 C411 1.366 1_545 S
C412 C416 1.385 . S
C413 H388 0.951 . S
C413 C411 1.388 . S
C413 C414 1.366 1_565 S
C414 C413 1.366 1_545 S
C414 C415 1.414 . S
C414 C417 1.499 . S
C415 H389 0.950 1_455 S
C415 C414 1.414 . S
C415 C416 1.374 . S
C416 H390 0.950 1_455 S
C416 C412 1.385 . S
C416 C415 1.374 . S
C417 C414 1.499 . S
C417 C418 1.373 1_455 S
C417 C419 1.389 . S
C418 H391 0.950 . S
C418 C404 1.377 . S
C418 C417 1.373 1_655 S
C419 C403 1.377 . S
C419 C417 1.389 . S
C419 C420 1.524 . S
C420 C419 1.524 . S
C420 C421 1.397 . S
C420 C425 1.363 . S
C421 H392 0.950 . S
C421 C420 1.397 . S
C421 C422 1.334 . S
C422 H393 0.950 . S
C422 C421 1.334 . S
C422 C423 1.287 . S
C423 C422 1.287 . S
C423 C424 1.524 . S
C423 H426 0.999 . S
C424 H394 0.950 1_545 S
C424 C423 1.524 . S
C424 C425 1.415 . S
C425 H395 0.950 1_545 S
C425 C420 1.363 . S
C425 C424 1.415 . S
H426 C423 0.999 . S
H427 C408 0.913 . S
H428 C446 0.947 . S
H429 C448 0.951 . S
H430 C450 0.950 . S
H431 C451 0.950 . S
H432 C453 0.950 . S
H433 C456 0.950 . S
H434 C457 0.950 . S
H435 C459 0.950 . S
H436 C460 0.950 . S
H437 C461 0.951 . S
H438 C463 0.951 . S
H439 C465 0.950 1_565 S
H440 C466 0.950 1_565 S
H441 C468 0.950 . S
H442 C471 0.950 . S
H443 C472 0.950 . S
H444 C474 0.950 . S
H445 C475 0.950 . S
C446 H428 0.947 . S
C446 C447 1.370 1_665 S
C446 C448 1.388 . S
C447 C446 1.370 1_445 S
C447 C451 1.385 . S
C448 H429 0.951 . S
C448 C446 1.388 . S
C448 C449 1.366 1_665 S
C449 C448 1.366 1_445 S
C449 C450 1.414 . S
C449 C452 1.499 . S
C450 H430 0.950 . S
C450 C449 1.414 . S
C450 C451 1.374 . S
C451 H431 0.950 . S
C451 C447 1.385 . S
C451 C450 1.374 . S
C452 C449 1.499 . S
C452 C453 1.373 . S
C452 C454 1.389 1_445 S
C453 H432 0.950 . S
C453 C452 1.373 . S
C453 C469 1.377 . S
C454 C452 1.389 1_665 S
C454 C455 1.524 . S
C454 C468 1.377 . S
C455 C454 1.524 . S
C455 C456 1.397 . S
C455 C460 1.363 . S
C456 H433 0.950 . S
C456 C455 1.397 . S
C456 C457 1.334 . S
C457 H434 0.950 . S
C457 C456 1.334 . S
C457 C458 1.287 . S
C458 C457 1.287 . S
C458 C459 1.524 . S
C458 H477 0.913 . S
C459 H435 0.950 . S
C459 C458 1.524 . S
C459 C460 1.415 . S
C460 H436 0.950 . S
C460 C455 1.363 . S
C460 C459 1.415 . S
C461 H437 0.951 . S
C461 C462 1.366 . S
C461 C463 1.388 . S
C462 C461 1.366 . S
C462 C466 1.385 1_455 S
C463 H438 0.951 . S
C463 C461 1.388 . S
C463 C464 1.366 . S
C464 C463 1.366 . S
C464 C465 1.414 1_455 S
C464 C467 1.499 . S
C465 H439 0.950 1_545 S
C465 C464 1.414 1_655 S
C465 C466 1.374 . S
C466 H440 0.950 1_545 S
C466 C462 1.385 1_655 S
C466 C465 1.374 . S
C467 C464 1.499 . S
C467 C468 1.373 1_445 S
C467 C469 1.389 . S
C468 H441 0.950 . S
C468 C454 1.377 . S
C468 C467 1.373 1_665 S
C469 C453 1.377 . S
C469 C467 1.389 . S
C469 C470 1.524 . S
C470 C469 1.524 . S
C470 C471 1.397 . S
C470 C475 1.363 . S
C471 H442 0.950 . S
C471 C470 1.397 . S
C471 C472 1.334 . S
C472 H443 0.950 . S
C472 C471 1.334 . S
C472 C473 1.287 . S
C473 C472 1.287 . S
C473 C474 1.524 . S
C473 H476 0.999 . S
C474 H444 0.950 . S
C474 C473 1.524 . S
C474 C475 1.415 . S
C475 H445 0.950 . S
C475 C470 1.363 . S
C475 C474 1.415 . S
H476 C473 0.999 . S
H477 C458 0.913 . S
H478 C496 0.951 . S
H479 C498 0.951 . S
H480 C500 0.950 . S
H481 C501 0.950 . S
H482 C503 0.950 . S
H483 C506 0.950 1_655 S
H484 C507 0.950 1_655 S
H485 C509 0.950 . S
H486 C510 0.950 . S
H487 C511 0.951 . S
H488 C513 0.951 . S
H489 C515 0.950 . S
H490 C516 0.950 . S
H491 C518 0.950 . S
H492 C521 0.950 . S
H493 C522 0.950 . S
H494 C524 0.950 . S
H495 C525 0.950 . S
C496 H478 0.951 . S
C496 C497 1.366 . S
C496 C498 1.388 . S
C497 C496 1.366 . S
C497 C501 1.385 1_455 S
C498 H479 0.951 . S
C498 C496 1.388 . S
C498 C499 1.366 . S
C499 C498 1.366 . S
C499 C500 1.414 1_455 S
C499 C502 1.499 . S
C500 H480 0.950 . S
C500 C499 1.414 1_655 S
C500 C501 1.374 . S
C501 H481 0.950 . S
C501 C497 1.385 1_655 S
C501 C500 1.374 . S
C502 C499 1.499 . S
C502 C503 1.373 1_455 S
C502 C504 1.389 1_545 S
C503 H482 0.950 . S
C503 C502 1.373 1_655 S
C503 C519 1.377 . S
C504 C502 1.389 1_565 S
C504 C505 1.524 . S
C504 C518 1.377 . S
C505 C504 1.524 . S
C505 C506 1.397 . S
C505 C510 1.363 . S
C506 H483 0.950 1_455 S
C506 C505 1.397 . S
C506 C507 1.334 . S
C507 H484 0.950 1_455 S
C507 C506 1.334 . S
C507 C508 1.287 . S
C508 C507 1.287 . S
C508 C509 1.524 . S
C508 H527 0.913 . S
C509 H485 0.950 . S
C509 C508 1.524 . S
C509 C510 1.415 . S
C510 H486 0.950 . S
C510 C505 1.363 . S
C510 C509 1.415 . S
C511 H487 0.951 . S
C511 C512 1.366 1_655 S
C511 C513 1.388 . S
C512 C511 1.366 1_455 S
C512 C516 1.385 . S
C513 H488 0.951 . S
C513 C511 1.388 . S
C513 C514 1.366 1_655 S
C514 C513 1.366 1_455 S
C514 C515 1.414 . S
C514 C517 1.499 . S
C515 H489 0.950 . S
C515 C514 1.414 . S
C515 C516 1.374 . S
C516 H490 0.950 . S
C516 C512 1.385 . S
C516 C515 1.374 . S
C517 C514 1.499 . S
C517 C518 1.373 1_545 S
C517 C519 1.389 1_455 S
C518 H491 0.950 . S
C518 C504 1.377 . S
C518 C517 1.373 1_565 S
C519 C503 1.377 . S
C519 C517 1.389 1_655 S
C519 C520 1.524 . S
C520 C519 1.524 . S
C520 C521 1.397 1_655 S
C520 C525 1.363 . S
C521 H492 0.950 . S
C521 C520 1.397 1_455 S
C521 C522 1.334 . S
C522 H493 0.950 . S
C522 C521 1.334 . S
C522 C523 1.287 1_455 S
C523 C522 1.287 1_655 S
C523 C524 1.524 . S
C523 H526 0.999 . S
C524 H494 0.950 . S
C524 C523 1.524 . S
C524 C525 1.415 . S
C525 H495 0.950 . S
C525 C520 1.363 . S
C525 C524 1.415 . S
H526 C523 0.999 . S
H527 C508 0.913 . S
H528 C546 0.951 . S
H529 C548 0.951 . S
H530 C550 0.950 . S
H531 C551 0.950 . S
H532 C553 0.950 . S
H533 C556 0.950 1_545 S
H534 C557 0.950 . S
H535 C559 0.950 . S
H536 C560 0.950 1_655 S
H537 C561 0.951 . S
H538 C563 0.951 . S
H539 C565 0.950 . S
H540 C566 0.950 . S
H541 C568 0.950 . S
H542 C571 0.950 . S
H543 C572 0.950 . S
H544 C574 0.950 . S
H545 C575 0.950 1_455 S
C546 H528 0.951 . S
C546 C547 1.366 1_665 S
C546 C548 1.388 . S
C547 C546 1.366 1_445 S
C547 C551 1.385 . S
C548 H529 0.951 . S
C548 C546 1.388 . S
C548 C549 1.366 1_665 S
C549 C548 1.366 1_445 S
C549 C550 1.414 . S
C549 C552 1.499 . S
C550 H530 0.950 . S
C550 C549 1.414 . S
C550 C551 1.374 . S
C551 H531 0.950 . S
C551 C547 1.385 . S
C551 C550 1.374 . S
C552 C549 1.499 . S
C552 C553 1.373 1_455 S
C552 C554 1.389 1_545 S
C553 H532 0.950 . S
C553 C552 1.373 1_655 S
C553 C569 1.377 1_554 S
C554 C552 1.389 1_565 S
C554 C555 1.524 . S
C554 C568 1.377 1_554 S
C555 C554 1.524 . S
C555 C556 1.397 . S
C555 C560 1.363 . S
C556 H533 0.950 1_565 S
C556 C555 1.397 . S
C556 C557 1.334 . S
C557 H534 0.950 . S
C557 C556 1.334 . S
C557 C558 1.287 . S
C558 C557 1.287 . S
C558 C559 1.524 . S
C558 H577 0.913 . S
C559 H535 0.950 . S
C559 C558 1.524 . S
C559 C560 1.415 . S
C560 H536 0.950 1_455 S
C560 C555 1.363 . S
C560 C559 1.415 . S
C561 H537 0.951 . S
C561 C562 1.366 . S
C561 C563 1.388 . S
C562 C561 1.366 . S
C562 C566 1.385 1_445 S
C563 H538 0.951 . S
C563 C561 1.388 . S
C563 C564 1.366 . S
C564 C563 1.366 . S
C564 C565 1.414 1_445 S
C564 C567 1.499 . S
C565 H539 0.950 . S
C565 C564 1.414 1_665 S
C565 C566 1.374 . S
C566 H540 0.950 . S
C566 C562 1.385 1_665 S
C566 C565 1.374 . S
C567 C564 1.499 . S
C567 C568 1.373 1_545 S
C567 C569 1.389 1_455 S
C568 H541 0.950 . S
C568 C554 1.377 1_556 S
C568 C567 1.373 1_565 S
C569 C553 1.377 1_556 S
C569 C567 1.389 1_655 S
C569 C570 1.524 . S
C570 C569 1.524 . S
C570 C571 1.397 . S
C570 C575 1.363 . S
C571 H542 0.950 . S
C571 C570 1.397 . S
C571 C572 1.334 . S
C572 H543 0.950 . S
C572 C571 1.334 . S
C572 C573 1.287 . S
C573 C572 1.287 . S
C573 C574 1.524 . S
C573 H576 0.999 . S
C574 H544 0.950 . S
C574 C573 1.524 . S
C574 C575 1.415 . S
C575 H545 0.950 1_655 S
C575 C570 1.363 . S
C575 C574 1.415 . S
H576 C573 0.999 . S
H577 C558 0.913 . S
H578 C596 0.951 . S
H579 C598 0.951 . S
H580 C600 0.950 . S
H581 C601 0.950 . S
H582 C603 0.950 . S
H583 C606 0.950 1_545 S
H584 C607 0.950 1_545 S
H585 C609 0.950 . S
H586 C610 0.950 . S
H587 C611 0.951 . S
H588 C613 0.951 . S
H589 C615 0.950 . S
H590 C616 0.950 . S
H591 C618 0.950 . S
H592 C621 0.950 1_565 S
H593 C622 0.950 . S
H594 C624 0.950 . S
H595 C625 0.950 . S
C596 H578 0.951 . S
C596 C597 1.366 1_665 S
C596 C598 1.388 . S
C597 C596 1.366 1_445 S
C597 C601 1.385 . S
C598 H579 0.951 . S
C598 C596 1.388 . S
C598 C599 1.366 1_665 S
C599 C598 1.366 1_445 S
C599 C600 1.414 . S
C599 C602 1.499 . S
C600 H580 0.950 . S
C600 C599 1.414 . S
C600 C601 1.374 . S
C601 H581 0.950 . S
C601 C597 1.385 . S
C601 C600 1.374 . S
C602 C599 1.499 . S
C602 C603 1.373 . S
C602 C604 1.389 1_445 S
C603 H582 0.950 . S
C603 C602 1.373 . S
C603 C619 1.377 . S
C604 C602 1.389 1_665 S
C604 C605 1.524 . S
C604 C618 1.377 . S
C605 C604 1.524 . S
C605 C606 1.397 . S
C605 C610 1.363 . S
C606 H583 0.950 1_565 S
C606 C605 1.397 . S
C606 C607 1.334 . S
C607 H584 0.950 1_565 S
C607 C606 1.334 . S
C607 C608 1.287 . S
C608 C607 1.287 . S
C608 C609 1.524 . S
C608 H627 0.913 . S
C609 H585 0.950 . S
C609 C608 1.524 . S
C609 C610 1.415 . S
C610 H586 0.950 . S
C610 C605 1.363 . S
C610 C609 1.415 . S
C611 H587 0.951 . S
C611 C612 1.366 . S
C611 C613 1.388 . S
C612 C611 1.366 . S
C612 C616 1.385 1_445 S
C613 H588 0.951 . S
C613 C611 1.388 . S
C613 C614 1.366 . S
C614 C613 1.366 . S
C614 C615 1.414 1_445 S
C614 C617 1.499 . S
C615 H589 0.950 . S
C615 C614 1.414 1_665 S
C615 C616 1.374 . S
C616 H590 0.950 . S
C616 C612 1.385 1_665 S
C616 C615 1.374 . S
C617 C614 1.499 . S
C617 C618 1.373 1_445 S
C617 C619 1.389 . S
C618 H591 0.950 . S
C618 C604 1.377 . S
C618 C617 1.373 1_665 S
C619 C603 1.377 . S
C619 C617 1.389 . S
C619 C620 1.524 . S
C620 C619 1.524 . S
C620 C621 1.397 . S
C620 C625 1.363 . S
C621 H592 0.950 1_545 S
C621 C620 1.397 . S
C621 C622 1.334 . S
C622 H593 0.950 . S
C622 C621 1.334 . S
C622 C623 1.287 . S
C623 C622 1.287 . S
C623 C624 1.524 . S
C623 H626 0.999 . S
C624 H594 0.950 . S
C624 C623 1.524 . S
C624 C625 1.415 . S
C625 H595 0.950 . S
C625 C620 1.363 . S
C625 C624 1.415 . S
H626 C623 0.999 . S
H627 C608 0.913 . S
H628 C646 0.951 . S
H629 C648 0.951 . S
H630 C650 0.950 . S
H631 C651 0.950 . S
H632 C653 0.950 . S
H633 C656 0.950 1_565 S
H634 C657 0.950 . S
H635 C659 0.950 . S
H636 C660 0.950 . S
H637 C661 0.951 . S
H638 C663 0.951 . S
H639 C665 0.950 . S
H640 C666 0.950 . S
H641 C668 0.950 . S
H642 C671 0.950 . S
H643 C672 0.950 1_545 S
H644 C674 0.950 . S
H645 C675 0.950 . S
C646 H628 0.951 . S
C646 C647 1.366 . S
C646 C648 1.388 . S
C647 C646 1.366 . S
C647 C651 1.385 1_445 S
C648 H629 0.951 . S
C648 C646 1.388 . S
C648 C649 1.366 . S
C649 C648 1.366 . S
C649 C650 1.414 1_445 S
C649 C652 1.499 . S
C650 H630 0.950 . S
C650 C649 1.414 1_665 S
C650 C651 1.374 . S
C651 H631 0.950 . S
C651 C647 1.385 1_665 S
C651 C650 1.374 . S
C652 C649 1.499 . S
C652 C653 1.373 1_445 S
C652 C654 1.389 . S
C653 H632 0.950 . S
C653 C652 1.373 1_665 S
C653 C669 1.377 . S
C654 C652 1.389 . S
C654 C655 1.524 . S
C654 C668 1.377 . S
C655 C654 1.524 . S
C655 C656 1.397 . S
C655 C660 1.363 . S
C656 H633 0.950 1_545 S
C656 C655 1.397 . S
C656 C657 1.334 . S
C657 H634 0.950 . S
C657 C656 1.334 . S
C657 C658 1.287 . S
C658 C657 1.287 . S
C658 C659 1.524 . S
C658 H677 0.913 . S
C659 H635 0.950 . S
C659 C658 1.524 . S
C659 C660 1.415 . S
C660 H636 0.950 . S
C660 C655 1.363 . S
C660 C659 1.415 . S
C661 H637 0.951 . S
C661 C662 1.366 1_665 S
C661 C663 1.388 . S
C662 C661 1.366 1_445 S
C662 C666 1.385 . S
C663 H638 0.951 . S
C663 C661 1.388 . S
C663 C664 1.366 1_665 S
C664 C663 1.366 1_445 S
C664 C665 1.414 . S
C664 C667 1.499 . S
C665 H639 0.950 . S
C665 C664 1.414 . S
C665 C666 1.374 . S
C666 H640 0.950 . S
C666 C662 1.385 . S
C666 C665 1.374 . S
C667 C664 1.499 . S
C667 C668 1.373 . S
C667 C669 1.389 1_445 S
C668 H641 0.950 . S
C668 C654 1.377 . S
C668 C667 1.373 . S
C669 C653 1.377 . S
C669 C667 1.389 1_665 S
C669 C670 1.524 . S
C670 C669 1.524 . S
C670 C671 1.397 1_565 S
C670 C675 1.363 . S
C671 H642 0.950 . S
C671 C670 1.397 1_545 S
C671 C672 1.334 1_545 S
C672 H643 0.950 1_565 S
C672 C671 1.334 1_565 S
C672 C673 1.287 . S
C673 C672 1.287 . S
C673 C674 1.524 . S
C673 H676 0.999 . S
C674 H644 0.950 . S
C674 C673 1.524 . S
C674 C675 1.415 . S
C675 H645 0.950 . S
C675 C670 1.363 . S
C675 C674 1.415 . S
H676 C673 0.999 . S
H677 C658 0.913 . S
C97 C1 1.493 . S
C112 C3 1.488 . S
C147 C16 1.489 . S
C162 C14 1.493 . S
C197 C27 1.493 . S
C212 C29 1.488 . S
C247 C40 1.493 . S
C262 C42 1.489 . S
C297 C53 1.493 . S
C312 C55 1.489 . S
C347 C66 1.493 . S
C362 C68 1.489 . S
C397 C70 1.489 . S
C412 C5 1.490 . S
C447 C44 1.491 . S
C462 C18 1.488 . S
C497 C31 1.491 . S
C512 C57 1.488 . S
C547 C10 1.494 . S
C562 C62 1.492 . S
C597 C75 1.493 . S
C612 C23 1.492 . S
C647 C49 1.494 . S
C662 C36 1.494 . S
