# Generated by pormake.
# Topology atn, (4)-cn, num edge types: 1
# Building blocks:
#     Node 0, Type 0, BuildingBlock: CEKHIL_clean_sbu_0, # of connection points: 4
#     Node 1, Type 0, BuildingBlock: CEKHIL_clean_sbu_0, # of connection points: 4
#     Node 2, Type 0, BuildingBlock: CEKHIL_clean_sbu_0, # of connection points: 4
#     Node 3, Type 0, BuildingBlock: CEKHIL_clean_sbu_0, # of connection points: 4
#     Node 4, Type 0, BuildingBlock: CEKHIL_clean_sbu_0, # of connection points: 4
#     Node 5, Type 0, BuildingBlock: CEKHIL_clean_sbu_0, # of connection points: 4
#     Node 6, Type 0, BuildingBlock: CEKHIL_clean_sbu_0, # of connection points: 4
#     Node 7, Type 0, BuildingBlock: CEKHIL_clean_sbu_0, # of connection points: 4
#     Node 8, Type 0, BuildingBlock: CEKHIL_clean_sbu_0, # of connection points: 4
#     Node 9, Type 0, BuildingBlock: CEKHIL_clean_sbu_0, # of connection points: 4
#     Node 10, Type 0, BuildingBlock: CEKHIL_clean_sbu_0, # of connection points: 4
#     Node 11, Type 0, BuildingBlock: CEKHIL_clean_sbu_0, # of connection points: 4
#     Node 12, Type 0, BuildingBlock: CEKHIL_clean_sbu_0, # of connection points: 4
#     Node 13, Type 0, BuildingBlock: CEKHIL_clean_sbu_0, # of connection points: 4
#     Node 14, Type 0, BuildingBlock: CEKHIL_clean_sbu_0, # of connection points: 4
#     Node 15, Type 0, BuildingBlock: CEKHIL_clean_sbu_0, # of connection points: 4
#     Edge 16, Type (0, 0), BuildingBlock: XUDNAN_clean_linker_2, # of connection points: 2
#     Edge 17, Type (0, 0), BuildingBlock: XUDNAN_clean_linker_2, # of connection points: 2
#     Edge 18, Type (0, 0), BuildingBlock: XUDNAN_clean_linker_2, # of connection points: 2
#     Edge 19, Type (0, 0), BuildingBlock: XUDNAN_clean_linker_2, # of connection points: 2
#     Edge 20, Type (0, 0), BuildingBlock: XUDNAN_clean_linker_2, # of connection points: 2
#     Edge 21, Type (0, 0), BuildingBlock: XUDNAN_clean_linker_2, # of connection points: 2
#     Edge 22, Type (0, 0), BuildingBlock: XUDNAN_clean_linker_2, # of connection points: 2
#     Edge 23, Type (0, 0), BuildingBlock: XUDNAN_clean_linker_2, # of connection points: 2
#     Edge 24, Type (0, 0), BuildingBlock: XUDNAN_clean_linker_2, # of connection points: 2
#     Edge 25, Type (0, 0), BuildingBlock: XUDNAN_clean_linker_2, # of connection points: 2
#     Edge 26, Type (0, 0), BuildingBlock: XUDNAN_clean_linker_2, # of connection points: 2
#     Edge 27, Type (0, 0), BuildingBlock: XUDNAN_clean_linker_2, # of connection points: 2
#     Edge 28, Type (0, 0), BuildingBlock: XUDNAN_clean_linker_2, # of connection points: 2
#     Edge 29, Type (0, 0), BuildingBlock: XUDNAN_clean_linker_2, # of connection points: 2
#     Edge 30, Type (0, 0), BuildingBlock: XUDNAN_clean_linker_2, # of connection points: 2
#     Edge 31, Type (0, 0), BuildingBlock: XUDNAN_clean_linker_2, # of connection points: 2
#     Edge 32, Type (0, 0), BuildingBlock: XUDNAN_clean_linker_2, # of connection points: 2
#     Edge 33, Type (0, 0), BuildingBlock: XUDNAN_clean_linker_2, # of connection points: 2
#     Edge 34, Type (0, 0), BuildingBlock: XUDNAN_clean_linker_2, # of connection points: 2
#     Edge 35, Type (0, 0), BuildingBlock: XUDNAN_clean_linker_2, # of connection points: 2
#     Edge 36, Type (0, 0), BuildingBlock: XUDNAN_clean_linker_2, # of connection points: 2
#     Edge 37, Type (0, 0), BuildingBlock: XUDNAN_clean_linker_2, # of connection points: 2
#     Edge 38, Type (0, 0), BuildingBlock: XUDNAN_clean_linker_2, # of connection points: 2
#     Edge 39, Type (0, 0), BuildingBlock: XUDNAN_clean_linker_2, # of connection points: 2
#     Edge 40, Type (0, 0), BuildingBlock: XUDNAN_clean_linker_2, # of connection points: 2
#     Edge 41, Type (0, 0), BuildingBlock: XUDNAN_clean_linker_2, # of connection points: 2
#     Edge 42, Type (0, 0), BuildingBlock: XUDNAN_clean_linker_2, # of connection points: 2
#     Edge 43, Type (0, 0), BuildingBlock: XUDNAN_clean_linker_2, # of connection points: 2
#     Edge 44, Type (0, 0), BuildingBlock: XUDNAN_clean_linker_2, # of connection points: 2
#     Edge 45, Type (0, 0), BuildingBlock: XUDNAN_clean_linker_2, # of connection points: 2
#     Edge 46, Type (0, 0), BuildingBlock: XUDNAN_clean_linker_2, # of connection points: 2
#     Edge 47, Type (0, 0), BuildingBlock: XUDNAN_clean_linker_2, # of connection points: 2
# Relax obj value: 0.034
# Max RMSD: 0.063
# Mean RMSD: 0.063
data_MOF--net-atn--node1-CEKHIL_clean_sbu_0--edge1-XUDNAN_clean_linker_2
_symmetry_space_group_name_H-M    P1
_symmetry_Int_Tables_number       1
_symmetry_cell_setting            triclinic
loop_
_symmetry_equiv_pos_as_xyz
'x, y, z'
_cell_length_a     59.493234
_cell_length_b     59.412533
_cell_length_c     26.952713
_cell_angle_alpha  90.025262
_cell_angle_beta   89.995905
_cell_angle_gamma 89.987245
loop_
_atom_site_label
_atom_site_type_symbol
_atom_site_fract_x
_atom_site_fract_y
_atom_site_fract_z
_atom_type_partial_charge
Co0 Co 0.19178 0.38215 0.98157 0.0
O1 O 0.17326 0.40811 0.9709 0.0
O2 O 0.20635 0.40929 0.00765 0.0
C3 C 0.18847 0.36873 0.9034 0.0
O4 O 0.21589 0.35828 0.99646 0.0
Co5 Co 0.16986 0.33496 0.97184 0.0
O6 O 0.2013 0.32446 0.9764 0.0
C7 C 0.16275 0.36094 0.06347 0.0
C8 C 0.18886 0.42018 0.99115 0.0
C9 C 0.21765 0.33676 0.99049 0.0
O10 O 0.17626 0.37625 0.04731 0.0
O11 O 0.15696 0.34377 0.03777 0.0
O12 O 0.20312 0.38416 0.91407 0.0
O13 O 0.1749 0.36344 0.93899 0.0
Co14 Co 0.62311 0.20501 0.9956 0.0
O15 O 0.59405 0.19043 0.99384 0.0
O16 O 0.60085 0.22335 0.02897 0.0
C17 C 0.63115 0.19973 0.91455 0.0
O18 O 0.65015 0.22618 0.0025 0.0
Co19 Co 0.66702 0.17889 0.97161 0.0
O20 O 0.68129 0.20901 0.97401 0.0
C21 C 0.64426 0.17163 0.06755 0.0
C22 C 0.58626 0.20805 0.01653 0.0
C23 C 0.67118 0.22631 0.99092 0.0
O24 O 0.63117 0.18855 0.05921 0.0
O25 O 0.65803 0.16394 0.0352 0.0
O26 O 0.6184 0.21633 0.9284 0.0
O27 O 0.637 0.18596 0.94921 0.0
Co28 Co 0.81467 0.62577 0.98449 0.0
O29 O 0.83364 0.59978 0.97894 0.0
O30 O 0.80057 0.59955 0.01598 0.0
C31 C 0.81783 0.63612 0.904 0.0
O32 O 0.79042 0.65 0.99502 0.0
Co33 Co 0.83653 0.67264 0.96394 0.0
O34 O 0.8051 0.68321 0.97038 0.0
C35 C 0.84597 0.64927 0.05794 0.0
C36 C 0.81832 0.58837 1.00188 0.0
C37 C 0.78877 0.67136 0.98648 0.0
O38 O 0.83038 0.63476 0.0485 0.0
O39 O 0.85249 0.66407 0.02657 0.0
O40 O 0.80335 0.62091 0.91712 0.0
O41 O 0.83112 0.64283 0.93873 0.0
Co42 Co 0.38261 0.80988 0.00519 0.0
O43 O 0.41189 0.8244 0.00296 0.0
O44 O 0.40612 0.78855 0.02047 0.0
C45 C 0.36932 0.82442 0.93322 0.0
O46 O 0.356 0.78799 0.00862 0.0
Co47 Co 0.33749 0.83627 0.00976 0.0
O48 O 0.32326 0.80647 1.00006 0.0
C49 C 0.36571 0.8327 0.09969 0.0
C50 C 0.42037 0.80479 0.01329 0.0
C51 C 0.33442 0.78825 0.00418 0.0
O52 O 0.37888 0.81845 0.07793 0.0
O53 O 0.34969 0.84286 0.07726 0.0
O54 O 0.38268 0.80711 0.93246 0.0
O55 O 0.36604 0.83327 0.97627 0.0
Co56 Co 0.19616 0.62266 0.02748 0.0
O57 O 0.17822 0.59585 0.02913 0.0
O58 O 0.21148 0.59803 0.99291 0.0
C59 C 0.19233 0.63088 0.10881 0.0
O60 O 0.21938 0.64813 0.02062 0.0
Co61 Co 0.17228 0.66802 0.05321 0.0
O62 O 0.20358 0.67937 0.05301 0.0
C63 C 0.16432 0.64673 0.95611 0.0
C64 C 0.19408 0.58585 0.00482 0.0
C65 C 0.22038 0.66897 0.03451 0.0
O66 O 0.18032 0.63255 0.96445 0.0
O67 O 0.15719 0.66066 0.98878 0.0
O68 O 0.20743 0.61652 0.09437 0.0
O69 O 0.17888 0.63786 0.07465 0.0
Co70 Co 0.38317 0.20086 0.01091 0.0
O71 O 0.41254 0.18664 0.01274 0.0
O72 O 0.40639 0.22259 0.99644 0.0
C73 C 0.37026 0.18578 0.08246 0.0
O74 O 0.35629 0.22239 0.0082 0.0
Co75 Co 0.33833 0.1741 0.00623 0.0
O76 O 0.32427 0.20345 0.02224 0.0
C77 C 0.36645 0.17836 0.91609 0.0
C78 C 0.42079 0.20645 0.00346 0.0
C79 C 0.33496 0.22186 0.01658 0.0
O80 O 0.37953 0.19261 0.93809 0.0
O81 O 0.35045 0.16807 0.9383 0.0
O82 O 0.38332 0.2033 0.08355 0.0
O83 O 0.36697 0.1771 0.03924 0.0
Co84 Co 0.81708 0.38441 0.02994 0.0
O85 O 0.83593 0.41049 0.03585 0.0
O86 O 0.80207 0.41106 0.0025 0.0
C87 C 0.82186 0.3725 0.10886 0.0
O88 O 0.79263 0.36028 0.02001 0.0
Co89 Co 0.83913 0.33733 0.04221 0.0
O90 O 0.80746 0.32741 0.04579 0.0
C91 C 0.8444 0.36132 0.94742 0.0
C92 C 0.82001 0.42215 0.01562 0.0
C93 C 0.79084 0.33914 0.03083 0.0
O94 O 0.83125 0.37702 0.9634 0.0
O95 O 0.85061 0.34463 0.97413 0.0
O96 O 0.80717 0.38791 0.09832 0.0
O97 O 0.83471 0.36648 0.07252 0.0
Co98 Co 0.62411 0.80901 0.00633 0.0
O99 O 0.59488 0.82362 0.00814 0.0
O100 O 0.60054 0.78766 0.99143 0.0
C101 C 0.63738 0.82383 0.078 0.0
O102 O 0.65079 0.78715 0.00352 0.0
Co103 Co 0.66914 0.83547 1.00125 0.0
O104 O 0.68301 0.80593 0.01653 0.0
C105 C 0.64094 0.83137 0.91132 0.0
C106 C 0.58634 0.804 0.99815 0.0
C107 C 0.67219 0.78758 0.01127 0.0
O108 O 0.62787 0.81719 0.93348 0.0
O109 O 0.65697 0.84166 0.93343 0.0
O110 O 0.62401 0.80653 0.07907 0.0
O111 O 0.64061 0.83253 0.0348 0.0
Co112 Co 0.69471 0.88505 0.4841 0.0
O113 O 0.67437 0.91015 0.48105 0.0
O114 O 0.70793 0.91155 0.51589 0.0
C115 C 0.69088 0.87531 0.4032 0.0
O116 O 0.72062 0.86245 0.49224 0.0
Co117 Co 0.67636 0.8369 0.46252 0.0
O118 O 0.70833 0.82812 0.46878 0.0
C119 C 0.66552 0.85909 0.55741 0.0
C120 C 0.68955 0.92203 0.50342 0.0
C121 C 0.72382 0.84128 0.48389 0.0
O122 O 0.6802 0.87461 0.54853 0.0
O123 O 0.65998 0.84414 0.52545 0.0
O124 O 0.70475 0.89112 0.41622 0.0
O125 O 0.67864 0.86735 0.43854 0.0
Co126 Co 0.12722 0.69511 0.50632 0.0
O127 O 0.10123 0.67629 0.50054 0.0
O128 O 0.09971 0.7123 0.52011 0.0
C129 C 0.14345 0.6834 0.43496 0.0
O130 O 0.15149 0.71963 0.51363 0.0
Co131 Co 0.17399 0.67128 0.51528 0.0
O132 O 0.18509 0.70235 0.50572 0.0
C133 C 0.1435 0.6723 0.60143 0.0
C134 C 0.08896 0.69358 0.51138 0.0
C135 C 0.17319 0.72012 0.51014 0.0
O136 O 0.13041 0.68625 0.57874 0.0
O137 O 0.16044 0.66295 0.58062 0.0
O138 O 0.1281 0.69896 0.43392 0.0
O139 O 0.14672 0.67427 0.47764 0.0
Co140 Co 0.31299 0.12523 0.48918 0.0
O141 O 0.32743 0.09597 0.48985 0.0
O142 O 0.29414 0.10335 0.52235 0.0
C143 C 0.31911 0.13235 0.40796 0.0
O144 O 0.29181 0.15236 0.49328 0.0
Co145 Co 0.33902 0.16909 0.46376 0.0
O146 O 0.30885 0.18326 0.46317 0.0
C147 C 0.34499 0.14789 0.56207 0.0
C148 C 0.30937 0.08847 0.51125 0.0
C149 C 0.29154 0.17323 0.48011 0.0
O150 O 0.32858 0.13418 0.55339 0.0
O151 O 0.35286 0.16135 0.52931 0.0
O152 O 0.30247 0.11968 0.42171 0.0
O153 O 0.33251 0.13866 0.44296 0.0
Co154 Co 0.88316 0.30497 0.50831 0.0
O155 O 0.9124 0.31916 0.50335 0.0
O156 O 0.90658 0.28399 0.5268 0.0
C157 C 0.86996 0.31707 0.43414 0.0
O158 O 0.85608 0.28379 0.51527 0.0
Co159 Co 0.83887 0.33288 0.50907 0.0
O160 O 0.82437 0.30315 0.49987 0.0
C161 C 0.86884 0.3335 0.59609 0.0
C162 C 0.92084 0.29992 0.51667 0.0
C163 C 0.83468 0.28467 0.50763 0.0
O164 O 0.87979 0.31629 0.57938 0.0
O165 O 0.85377 0.34381 0.57101 0.0
O166 O 0.8831 0.29962 0.43616 0.0
O167 O 0.867 0.32747 0.47557 0.0
Co168 Co 0.6874 0.12652 0.51668 0.0
O169 O 0.66801 0.1008 0.52151 0.0
O170 O 0.70397 0.09875 0.50221 0.0
C171 C 0.67608 0.14273 0.58848 0.0
O172 O 0.7126 0.15012 0.51041 0.0
Co173 Co 0.66518 0.17419 0.5093 0.0
O174 O 0.69655 0.18433 0.51871 0.0
C175 C 0.6655 0.14441 0.42178 0.0
C176 C 0.68512 0.08826 0.51068 0.0
C177 C 0.71385 0.1718 0.51425 0.0
O178 O 0.67878 0.1305 0.44415 0.0
O179 O 0.65672 0.1615 0.44325 0.0
O180 O 0.69113 0.12688 0.58922 0.0
O181 O 0.66711 0.14648 0.54584 0.0
Co182 Co 0.88453 0.69977 0.507 0.0
O183 O 0.90969 0.67969 0.51072 0.0
O184 O 0.91266 0.71581 0.49307 0.0
C185 C 0.86835 0.68803 0.57846 0.0
O186 O 0.86151 0.72562 0.50228 0.0
Co187 Co 0.83643 0.67897 0.49898 0.0
O188 O 0.82753 0.7101 0.5162 0.0
C189 C 0.86627 0.67873 0.41158 0.0
C190 C 0.92264 0.69657 0.50052 0.0
C191 C 0.84018 0.72727 0.51097 0.0
O192 O 0.88034 0.69173 0.43424 0.0
O193 O 0.84886 0.67042 0.43265 0.0
O194 O 0.88442 0.70283 0.57964 0.0
O195 O 0.86423 0.67961 0.53539 0.0
Co196 Co 0.31098 0.88563 0.52707 0.0
O197 O 0.3258 0.91469 0.52715 0.0
O198 O 0.2924 0.90796 0.49454 0.0
C199 C 0.31713 0.87801 0.60822 0.0
O200 O 0.28943 0.85878 0.52213 0.0
Co201 Co 0.3366 0.84141 0.55138 0.0
O202 O 0.30613 0.82793 0.55323 0.0
C203 C 0.34276 0.86304 0.45355 0.0
C204 C 0.30786 0.92256 0.50593 0.0
C205 C 0.28892 0.83799 0.53585 0.0
O206 O 0.32646 0.87684 0.46255 0.0
O207 O 0.35051 0.84933 0.48597 0.0
O208 O 0.30058 0.8909 0.59486 0.0
O209 O 0.33039 0.87175 0.57293 0.0
Co210 Co 0.12384 0.30779 0.50205 0.0
O211 O 0.09429 0.32126 0.50805 0.0
O212 O 0.10087 0.28645 0.4829 0.0
C213 C 0.13717 0.3193 0.57643 0.0
O214 O 0.15137 0.28735 0.49376 0.0
Co215 Co 0.16748 0.33667 0.50134 0.0
O216 O 0.18299 0.30724 0.50674 0.0
C217 C 0.13725 0.33714 0.41489 0.0
C218 C 0.08627 0.30196 0.49393 0.0
C219 C 0.17288 0.28862 0.49933 0.0
O220 O 0.12673 0.31966 0.43143 0.0
O221 O 0.15214 0.34771 0.44 0.0
O222 O 0.12426 0.3017 0.57375 0.0
O223 O 0.13971 0.33028 0.53559 0.0
H224 H 0.22526 0.55111 0.01212 0.0
H225 H 0.15635 0.56628 0.97162 0.0
H226 H 0.14837 0.52583 0.96287 0.0
H227 H 0.23174 0.5007 0.93046 0.0
H228 H 0.24803 0.48543 0.97569 0.0
H229 H 0.2493 0.51573 0.97376 0.0
H230 H 0.23802 0.51726 0.06644 0.0
H231 H 0.23637 0.487 0.06847 0.0
H232 H 0.21244 0.50375 0.0864 0.0
H233 H 0.14646 0.48474 0.96474 0.0
H234 H 0.15115 0.44389 0.97132 0.0
H235 H 0.22124 0.45306 0.01198 0.0
C236 C 0.20875 0.54582 0.99994 0.0
C237 C 0.19145 0.5618 0.99179 0.0
C238 C 0.16983 0.5543 0.97757 0.0
C239 C 0.16512 0.53136 0.97264 0.0
C240 C 0.18218 0.51598 0.98243 0.0
C241 C 0.20363 0.52271 0.99535 0.0
C242 C 0.21835 0.50227 0.00616 0.0
C243 C 0.23802 0.50096 0.96931 0.0
C244 C 0.22679 0.5026 0.06008 0.0
C245 C 0.20168 0.48317 0.99781 0.0
C246 C 0.18098 0.49169 0.98407 0.0
C247 C 0.16263 0.47782 0.97502 0.0
C248 C 0.16549 0.45455 0.97905 0.0
C249 C 0.18657 0.44512 0.99209 0.0
C250 C 0.2049 0.45971 1.00214 0.0
H251 H 0.45568 0.176 0.99683 0.0
H252 H 0.4413 0.24711 0.01543 0.0
H253 H 0.4818 0.25479 0.02555 0.0
H254 H 0.50137 0.17232 0.08371 0.0
H255 H 0.51792 0.15344 0.04617 0.0
H256 H 0.48772 0.15324 0.04128 0.0
H257 H 0.49053 0.16041 0.94667 0.0
H258 H 0.52073 0.16035 0.9512 0.0
H259 H 0.50643 0.18417 0.92438 0.0
H260 H 0.52376 0.25466 0.03705 0.0
H261 H 0.56465 0.24747 0.03788 0.0
H262 H 0.55233 0.17686 0.00686 0.0
C263 C 0.46109 0.19318 0.00285 0.0
C264 C 0.4453 0.21096 0.00549 0.0
C265 C 0.45306 0.23324 0.01305 0.0
C266 C 0.47605 0.23776 0.01919 0.0
C267 C 0.49115 0.21986 0.01705 0.0
C268 C 0.48407 0.19807 0.00819 0.0
C269 C 0.50394 0.18208 0.00544 0.0
C270 C 0.50265 0.16422 0.04661 0.0
C271 C 0.5055 0.17111 0.95385 0.0
C272 C 0.52325 0.19828 0.0143 0.0
C273 C 0.51546 0.21994 0.02164 0.0
C274 C 0.53006 0.23778 0.03108 0.0
C275 C 0.55327 0.23351 0.03179 0.0
C276 C 0.56172 0.21163 0.02243 0.0
C277 C 0.54641 0.19378 0.01418 0.0
H278 H 0.78724 0.45584 0.00948 0.0
H279 H 0.85935 0.44446 0.01003 0.0
H280 H 0.8659 0.48524 0.00961 0.0
H281 H 0.78838 0.50588 0.92907 0.0
H282 H 0.76644 0.52029 0.96253 0.0
H283 H 0.76698 0.48997 0.96087 0.0
H284 H 0.7667 0.48904 0.05688 0.0
H285 H 0.76646 0.51936 0.05882 0.0
H286 H 0.78817 0.50395 0.09078 0.0
H287 H 0.86547 0.52637 0.01129 0.0
H288 H 0.85806 0.56701 0.0096 0.0
H289 H 0.78621 0.55415 0.00936 0.0
C290 C 0.80436 0.46202 0.00869 0.0
C291 C 0.82281 0.44687 0.00969 0.0
C292 C 0.84496 0.45563 0.00942 0.0
C293 C 0.84888 0.47882 0.00926 0.0
C294 C 0.8305 0.49328 0.00959 0.0
C295 C 0.80865 0.4854 0.00892 0.0
C296 C 0.79215 0.50506 0.00996 0.0
C297 C 0.77763 0.50531 0.96279 0.0
C298 C 0.7775 0.5043 0.05691 0.0
C299 C 0.80824 0.52504 0.01123 0.0
C300 C 0.83025 0.51761 0.01109 0.0
C301 C 0.84832 0.53244 0.01136 0.0
C302 C 0.84391 0.55554 0.0105 0.0
C303 C 0.82159 0.56383 0.00959 0.0
C304 C 0.80345 0.54833 0.0108 0.0
H305 H 0.55198 0.83538 1.00053 0.0
H306 H 0.5648 0.76348 0.99583 0.0
H307 H 0.52407 0.75615 1.00089 0.0
H308 H 0.50587 0.83376 0.08617 0.0
H309 H 0.4899 0.85548 0.05557 0.0
H310 H 0.52012 0.85535 0.05125 0.0
H311 H 0.51753 0.85523 0.95533 0.0
H312 H 0.48731 0.85553 0.95935 0.0
H313 H 0.50131 0.83371 0.92465 0.0
H314 H 0.4822 0.75637 0.0102 0.0
H315 H 0.44156 0.7641 0.0155 0.0
H316 H 0.45502 0.83588 0.01051 0.0
C317 C 0.5462 0.81811 1.00028 0.0
C318 C 0.56166 0.79999 0.99785 0.0
C319 C 0.55336 0.77764 0.9975 0.0
C320 C 0.53022 0.77329 1.00057 0.0
C321 C 0.51546 0.79146 0.0035 0.0
C322 C 0.52304 0.81344 0.00275 0.0
C323 C 0.50347 0.82985 0.00543 0.0
C324 C 0.50493 0.84447 0.0524 0.0
C325 C 0.50234 0.84444 0.95839 0.0
C326 C 0.48375 0.81364 0.00814 0.0
C327 C 0.49113 0.79158 0.0074 0.0
C328 C 0.47621 0.77357 0.01048 0.0
C329 C 0.45312 0.77815 0.0137 0.0
C330 C 0.44502 0.80059 0.01336 0.0
C331 C 0.46065 0.81854 0.01075 0.0
H332 H 0.71826 0.05484 0.50698 0.0
H333 H 0.64599 0.06511 0.51281 0.0
H334 H 0.64014 0.0243 0.51603 0.0
H335 H 0.71655 0.00472 0.42949 0.0
H336 H 0.73927 0.99072 0.46119 0.0
H337 H 0.73824 0.02101 0.45939 0.0
H338 H 0.74007 0.0222 0.55532 0.0
H339 H 0.74089 0.99189 0.55741 0.0
H340 H 0.71947 0.00697 0.59107 0.0
H341 H 0.64124 0.98306 0.51768 0.0
H342 H 0.64937 0.94251 0.51427 0.0
H343 H 0.72089 0.95678 0.50907 0.0
C344 C 0.70124 0.04843 0.50865 0.0
C345 C 0.68259 0.06333 0.50968 0.0
C346 C 0.66059 0.05422 0.51213 0.0
C347 C 0.65704 0.03098 0.51408 0.0
C348 C 0.67563 0.01681 0.51372 0.0
C349 C 0.69732 0.02501 0.51086 0.0
C350 C 0.71414 0.00565 0.51064 0.0
C351 C 0.72786 0.00552 0.4623 0.0
C352 C 0.72955 0.00675 0.55633 0.0
C353 C 0.69841 0.98544 0.5134 0.0
C354 C 0.67629 0.99247 0.5153 0.0
C355 C 0.65848 0.9773 0.51644 0.0
C356 C 0.66329 0.95427 0.51453 0.0
C357 C 0.68573 0.94643 0.5118 0.0
C358 C 0.70358 0.96226 0.51205 0.0
H359 H 0.95727 0.72864 0.50044 0.0
H360 H 0.94425 0.65666 0.49812 0.0
H361 H 0.98464 0.64915 0.50227 0.0
H362 H 0.00872 0.72617 0.42491 0.0
H363 H 0.02312 0.7477 0.45971 0.0
H364 H 0.99289 0.74807 0.45533 0.0
H365 H 0.99008 0.74832 0.55115 0.0
H366 H 0.0203 0.74777 0.55582 0.0
H367 H 0.00377 0.72644 0.5863 0.0
H368 H 0.02534 0.64844 0.50909 0.0
H369 H 0.06595 0.65452 0.51349 0.0
H370 H 0.05547 0.72692 0.5112 0.0
C371 C 0.96301 0.71135 0.50027 0.0
C372 C 0.94743 0.69325 0.49905 0.0
C373 C 0.95566 0.67086 0.49925 0.0
C374 C 0.97867 0.66635 0.50164 0.0
C375 C 0.9935 0.68438 0.50376 0.0
C376 C 0.98623 0.70645 0.50273 0.0
C377 C 0.00628 0.72242 0.50564 0.0
C378 C 0.00784 0.73695 0.45859 0.0
C379 C 0.00503 0.73711 0.55253 0.0
C380 C 0.02575 0.70576 0.50863 0.0
C381 C 0.01771 0.68395 0.50755 0.0
C382 C 0.03191 0.66542 0.50974 0.0
C383 C 0.05504 0.66911 0.51226 0.0
C384 C 0.06406 0.69119 0.51258 0.0
C385 C 0.04913 0.70984 0.51129 0.0
H386 H 0.34015 0.05373 0.51171 0.0
H387 H 0.26865 0.06773 0.51929 0.0
H388 H 0.26062 0.027 0.51505 0.0
H389 H 0.33775 0.0076 0.42798 0.0
H390 H 0.35919 0.99123 0.45847 0.0
H391 H 0.3596 0.02149 0.4628 0.0
H392 H 0.35943 0.01907 0.55875 0.0
H393 H 0.3594 0.9888 0.55473 0.0
H394 H 0.33779 1.00307 0.58951 0.0
H395 H 0.26022 0.98494 0.5029 0.0
H396 H 0.2675 0.94406 0.49841 0.0
H397 H 0.33925 0.95672 0.5055 0.0
C398 C 0.32282 0.04818 0.51315 0.0
C399 C 0.30501 0.06395 0.51581 0.0
C400 C 0.28258 0.05601 0.51766 0.0
C401 C 0.27784 0.03289 0.51484 0.0
C402 C 0.29572 0.01782 0.51107 0.0
C403 C 0.31779 0.02508 0.51147 0.0
C404 C 0.33389 0.00526 0.50873 0.0
C405 C 0.34847 0.00648 0.46169 0.0
C406 C 0.34848 1.00398 0.55573 0.0
C407 C 0.31742 0.98578 0.50613 0.0
C408 C 0.29549 0.99345 0.50671 0.0
C409 C 0.27732 0.97873 0.50299 0.0
C410 C 0.28163 0.95553 0.50003 0.0
C411 C 0.30392 0.94717 0.50166 0.0
C412 C 0.32202 0.96259 0.50426 0.0
H413 H 0.05142 0.33245 0.49832 0.0
H414 H 0.06568 0.26089 0.49114 0.0
H415 H 0.02512 0.25267 0.49849 0.0
H416 H 0.00653 0.3298 0.58619 0.0
H417 H 0.98981 0.35128 0.55673 0.0
H418 H 0.01996 0.3517 0.55067 0.0
H419 H 0.01627 0.35168 0.4549 0.0
H420 H 0.98611 0.35148 0.46067 0.0
H421 H 1.00005 0.32994 0.42497 0.0
H422 H 0.98318 0.25213 0.51115 0.0
H423 H 0.94242 0.25934 0.51865 0.0
H424 H 0.95494 0.33125 0.51304 0.0
C425 C 0.04598 0.31506 0.49798 0.0
C426 C 0.06175 0.2973 0.49426 0.0
C427 C 0.05394 0.27478 0.49373 0.0
C428 C 0.03093 0.26993 0.49816 0.0
C429 C 0.01586 0.28779 0.50247 0.0
C430 C 0.023 0.30992 0.50161 0.0
C431 C 1.00323 0.32598 0.50557 0.0
C432 C 0.005 0.34054 0.55259 0.0
C433 C 1.0013 0.34063 0.45874 0.0
C434 C 0.98388 0.30942 0.50924 0.0
C435 C 0.99158 0.28748 0.50791 0.0
C436 C 0.97695 0.26924 0.51185 0.0
C437 C 0.95382 0.27351 0.51637 0.0
C438 C 0.94546 0.29584 0.51635 0.0
C439 C 0.96079 0.31399 0.51302 0.0
H440 H 0.22254 0.29347 0.02008 0.0
H441 H 0.2612 0.35306 0.98362 0.0
H442 H 0.29645 0.33085 0.99196 0.0
H443 H 0.26237 0.26982 0.1103 0.0
H444 H 0.25631 0.2414 0.09109 0.0
H445 H 0.23488 0.26275 0.0869 0.0
H446 H 0.22985 0.25381 0.99338 0.0
H447 H 0.25133 0.2326 0.99716 0.0
H448 H 0.25388 0.25512 0.95272 0.0
H449 H 0.3273 0.30013 0.99663 0.0
H450 H 0.3501 0.26526 1.00004 0.0
H451 H 0.28996 0.22693 0.03426 0.0
C452 C 0.23841 0.30202 0.01441 0.0
C453 C 0.23913 0.32499 1.00096 0.0
C454 C 0.26027 0.33551 0.99425 0.0
C455 C 0.28034 0.32299 0.99877 0.0
C456 C 0.2789 0.30012 0.0108 0.0
C457 C 0.25838 0.28991 0.01915 0.0
C458 C 0.26091 0.26505 0.02963 0.0
C459 C 0.25316 0.25943 0.08263 0.0
C460 C 0.24825 0.25082 0.9909 0.0
C461 C 0.28605 0.26253 0.02435 0.0
C462 C 0.29629 0.28287 0.0139 0.0
C463 C 0.3194 0.28421 0.00539 0.0
C464 C 0.33223 0.26428 0.00733 0.0
C465 C 0.3219 0.24324 0.01746 0.0
C466 C 0.29852 0.24263 0.02659 0.0
H467 H 0.78457 0.29378 0.03117 0.0
H468 H 0.74796 0.35656 0.0151 0.0
H469 H 0.71247 0.33486 0.00539 0.0
H470 H 0.75446 0.26284 0.94087 0.0
H471 H 0.75584 0.23687 0.97531 0.0
H472 H 0.77762 0.25762 0.98245 0.0
H473 H 0.77076 0.25826 0.07747 0.0
H474 H 0.74891 0.23752 0.07063 0.0
H475 H 0.74293 0.26394 0.1008 0.0
H476 H 0.68055 0.30483 0.99894 0.0
H477 H 0.65685 0.27058 0.99061 0.0
H478 H 0.71615 0.22891 0.00818 0.0
C479 C 0.76916 0.30318 0.02591 0.0
C480 C 0.76913 0.32699 0.02428 0.0
C481 C 0.74846 0.33835 0.01659 0.0
C482 C 0.72823 0.32614 0.0112 0.0
C483 C 0.729 0.30262 0.01328 0.0
C484 C 0.74908 0.29138 0.02015 0.0
C485 C 0.74599 0.26615 0.01979 0.0
C486 C 0.75926 0.25524 0.97705 0.0
C487 C 0.75253 0.25587 0.07017 0.0
C488 C 0.72098 0.2647 0.01115 0.0
C489 C 0.71125 0.2858 0.0081 0.0
C490 C 0.68811 0.2883 1.00108 0.0
C491 C 0.67476 0.26877 0.99657 0.0
C492 C 0.68467 0.24707 0.99833 0.0
C493 C 0.70806 0.24522 0.00603 0.0
H494 H 0.78441 0.71536 0.01133 0.0
H495 H 0.745 0.65531 0.98332 0.0
H496 H 0.70997 0.67792 0.99141 0.0
H497 H 0.74606 0.7408 0.10177 0.0
H498 H 0.75193 0.76884 0.07982 0.0
H499 H 0.77321 0.74733 0.07576 0.0
H500 H 0.77682 0.75461 0.98124 0.0
H501 H 0.7555 0.776 0.98492 0.0
H502 H 0.75217 0.75276 0.94255 0.0
H503 H 0.67927 0.70897 0.99549 0.0
H504 H 0.65665 0.744 0.99844 0.0
H505 H 0.71748 0.78248 0.02503 0.0
C506 C 0.76843 0.70681 0.00736 0.0
C507 C 0.76743 0.68357 0.99639 0.0
C508 C 0.74615 0.67308 0.99196 0.0
C509 C 0.72621 0.68582 0.99636 0.0
C510 C 0.7279 0.70891 0.00598 0.0
C511 C 0.74858 0.71914 0.01206 0.0
C512 C 0.74629 0.74418 0.02069 0.0
C513 C 0.75488 0.75066 0.0726 0.0
C514 C 0.75841 0.75767 0.97991 0.0
C515 C 0.7211 0.74676 0.01711 0.0
C516 C 0.71062 0.72631 0.00894 0.0
C517 C 0.68737 0.72498 0.00243 0.0
C518 C 0.67464 0.745 0.0041 0.0
C519 C 0.68519 0.76612 0.01205 0.0
C520 C 0.70873 0.76673 0.01909 0.0
H521 H 0.22554 0.71408 0.04903 0.0
H522 H 0.26271 0.65463 0.00375 0.0
H523 H 0.29675 0.67828 0.99194 0.0
H524 H 0.24942 0.75169 0.96227 0.0
H525 H 0.24936 0.77517 0.00463 0.0
H526 H 0.2287 0.75325 0.01097 0.0
H527 H 0.24094 0.74691 0.10225 0.0
H528 H 0.26162 0.76886 0.09626 0.0
H529 H 0.27003 0.74112 0.11594 0.0
H530 H 0.32715 0.7098 0.98622 0.0
H531 H 0.34939 0.74517 0.98358 0.0
H532 H 0.29047 0.7827 0.02982 0.0
C533 C 0.24078 0.70578 0.03687 0.0
C534 C 0.24136 0.68234 0.02759 0.0
C535 C 0.26179 0.67251 0.01127 0.0
C536 C 0.28121 0.68583 0.00452 0.0
C537 C 0.27988 0.70895 0.01403 0.0
C538 C 0.26005 0.71872 0.0297 0.0
C539 C 0.26242 0.74386 0.03648 0.0
C540 C 0.24654 0.75674 1.00149 0.0
C541 C 0.25853 0.75057 0.09096 0.0
C542 C 0.2867 0.74696 0.02176 0.0
C543 C 0.29672 0.72671 0.00941 0.0
C544 C 0.31934 0.72569 0.99564 0.0
C545 C 0.33187 0.74585 0.99432 0.0
C546 C 0.32165 0.76676 0.00603 0.0
C547 C 0.29877 0.7671 0.01996 0.0
H548 H 0.79853 0.73607 0.54726 0.0
H549 H 0.85548 0.76889 0.47758 0.0
H550 H 0.83324 0.80425 0.47173 0.0
H551 H 0.75815 0.75806 0.4708 0.0
H552 H 0.73694 0.76053 0.51823 0.0
H553 H 0.75857 0.7396 0.52386 0.0
H554 H 0.76972 0.75562 0.60993 0.0
H555 H 0.748 0.77663 0.60466 0.0
H556 H 0.77666 0.78503 0.61585 0.0
H557 H 0.80214 0.83526 0.46658 0.0
H558 H 0.76632 0.85678 0.45978 0.0
H559 H 0.73088 0.80161 0.52964 0.0
C560 C 0.80664 0.75073 0.53147 0.0
C561 C 0.82882 0.74962 0.5128 0.0
C562 C 0.83858 0.76933 0.49249 0.0
C563 C 0.82604 0.78948 0.489 0.0
C564 C 0.80386 0.78965 0.50639 0.0
C565 C 0.79443 0.77068 0.52749 0.0
C566 C 0.76987 0.77406 0.53956 0.0
C567 C 0.75503 0.75707 0.51142 0.0
C568 C 0.76583 0.77277 0.59584 0.0
C569 C 0.76653 0.7977 0.52053 0.0
C570 C 0.7863 0.80678 0.50238 0.0
C571 C 0.78669 0.82829 0.48118 0.0
C572 C 0.76633 0.84044 0.4776 0.0
C573 C 0.74592 0.83079 0.49419 0.0
C574 C 0.74627 0.80939 0.51669 0.0
H575 H 0.28418 0.79243 0.5434 0.0
H576 H 0.24587 0.85324 0.51515 0.0
H577 H 0.21122 0.83029 0.50664 0.0
H578 H 0.25558 0.75774 0.45599 0.0
H579 H 0.25736 0.73298 0.4944 0.0
H580 H 0.27853 0.75451 0.49908 0.0
H581 H 0.27088 0.75795 0.59354 0.0
H582 H 0.24967 0.73645 0.58913 0.0
H583 H 0.24272 0.76356 0.61494 0.0
H584 H 0.18015 0.79919 0.50233 0.0
H585 H 0.15746 0.76402 0.49908 0.0
H586 H 0.21779 0.72522 0.52869 0.0
C587 C 0.26855 0.80108 0.53566 0.0
C588 C 0.26782 0.82472 0.53026 0.0
C589 C 0.24692 0.83516 0.51952 0.0
C590 C 0.22712 0.82224 0.51471 0.0
C591 C 0.22853 0.79891 0.52044 0.0
C592 C 0.24885 0.78854 0.53042 0.0
C593 C 0.24639 0.76331 0.53392 0.0
C594 C 0.26028 0.75145 0.49343 0.0
C595 C 0.25279 0.75483 0.58598 0.0
C596 C 0.22149 0.76093 0.52452 0.0
C597 C 0.21125 0.78151 0.51701 0.0
C598 C 0.18812 0.78302 0.50804 0.0
C599 C 0.17532 0.76298 0.50636 0.0
C600 C 0.18577 0.74176 0.51322 0.0
C601 C 0.20914 0.74103 0.52269 0.0
H602 H 0.28729 0.21902 0.485 0.0
H603 H 0.24808 0.15746 0.48664 0.0
H604 H 0.21309 0.18002 0.49181 0.0
H605 H 0.25264 0.24926 0.57287 0.0
H606 H 0.25646 0.27588 0.54198 0.0
H607 H 0.2781 0.25473 0.53866 0.0
H608 H 0.27673 0.25637 0.44258 0.0
H609 H 0.25505 0.27746 0.44561 0.0
H610 H 0.25036 0.25189 0.41113 0.0
H611 H 0.18212 0.2101 0.4936 0.0
H612 H 0.15852 0.24443 0.49659 0.0
H613 H 0.21883 0.28556 0.4963 0.0
C614 C 0.27137 0.21021 0.4864 0.0
C615 C 0.27044 0.18644 0.48509 0.0
C616 C 0.24923 0.17565 0.48768 0.0
C617 C 0.22927 0.18833 0.49048 0.0
C618 C 0.23083 0.21177 0.49128 0.0
C619 C 0.2514 0.22255 0.48983 0.0
C620 C 0.24872 0.24785 0.49196 0.0
C621 C 0.25962 0.25749 0.53917 0.0
C622 C 0.25828 0.25904 0.44502 0.0
C623 C 0.22338 0.24975 0.49396 0.0
C624 C 0.21327 0.22882 0.49349 0.0
C625 C 0.18992 0.22655 0.49427 0.0
C626 C 0.17663 0.24616 0.49583 0.0
C627 C 0.18673 0.26778 0.49682 0.0
C628 C 0.21046 0.26939 0.49584 0.0
H629 H 0.78977 0.28061 0.48873 0.0
H630 H 0.84836 0.24101 0.52858 0.0
H631 H 0.82453 0.20673 0.53146 0.0
H632 H 0.75119 0.2533 0.56735 0.0
H633 H 0.72822 0.25532 0.52398 0.0
H634 H 0.75029 0.276 0.52301 0.0
H635 H 0.75752 0.2675 0.42995 0.0
H636 H 0.73545 0.24677 0.43064 0.0
H637 H 0.76332 0.23902 0.41072 0.0
H638 H 0.7926 0.17648 0.53169 0.0
H639 H 0.75678 0.15482 0.53131 0.0
H640 H 0.72083 0.21577 0.49178 0.0
C641 C 0.79779 0.26479 0.49792 0.0
C642 C 0.82102 0.26363 0.5085 0.0
C643 C 0.8306 0.24241 0.52027 0.0
C644 C 0.81719 0.22283 0.52195 0.0
C645 C 0.79425 0.22471 0.51157 0.0
C646 C 0.78476 0.24527 0.49973 0.0
C647 C 0.75976 0.24335 0.49122 0.0
C648 C 0.7466 0.25784 0.52863 0.0
C649 C 0.75366 0.24952 0.43744 0.0
C650 C 0.75642 0.21855 0.50083 0.0
C651 C 0.77638 0.20784 0.51212 0.0
C652 C 0.77693 0.18479 0.52277 0.0
C653 C 0.75654 0.17259 0.52237 0.0
C654 C 0.73592 0.18356 0.51191 0.0
C655 C 0.73617 0.20678 0.50048 0.0
H656 H 0.13156 0.31206 0.32982 0.0
H657 H 0.13646 0.38052 0.38443 0.0
H658 H 0.13904 0.39457 0.29865 0.0
H659 H 0.17172 0.31723 0.23999 0.0
H660 H 0.15835 0.30002 0.19348 0.0
H661 H 0.15236 0.29537 0.25805 0.0
H662 H 0.1098 0.30072 0.2416 0.0
H663 H 0.11562 0.30509 0.17666 0.0
H664 H 0.10008 0.32592 0.21116 0.0
H665 H 0.14773 0.40074 0.20949 0.0
H666 H 0.15922 0.3987 0.12149 0.0
H667 H 0.14819 0.32649 0.12308 0.0
C668 C 0.13217 0.33004 0.32345 0.0
C669 C 0.13354 0.34524 0.36365 0.0
C670 C 0.13522 0.36862 0.35407 0.0
C671 C 0.13669 0.37678 0.30546 0.0
C672 C 0.13636 0.36135 0.26661 0.0
C673 C 0.13381 0.33849 0.27486 0.0
C674 C 0.13625 0.32542 0.22678 0.0
C675 C 0.15584 0.30853 0.22978 0.0
C676 C 0.11412 0.31359 0.21325 0.0
C677 C 0.14141 0.3444 0.19086 0.0
C678 C 0.14121 0.36501 0.21454 0.0
C679 C 0.14743 0.38477 0.19018 0.0
C680 C 0.15406 0.38344 0.14029 0.0
C681 C 0.15435 0.36251 0.11518 0.0
C682 C 0.14765 0.34283 0.14086 0.0
H683 H 0.64161 0.17292 0.36187 0.0
H684 H 0.67963 0.1105 0.35889 0.0
H685 H 0.6745 0.1086 0.26785 0.0
H686 H 0.60177 0.15901 0.26174 0.0
H687 H 0.60194 0.18741 0.23821 0.0
H688 H 0.60626 0.18232 0.30344 0.0
H689 H 0.64379 0.2044 0.29986 0.0
H690 H 0.63962 0.20953 0.23476 0.0
H691 H 0.66504 0.19607 0.25584 0.0
H692 H 0.66821 0.11553 0.17664 0.0
H693 H 0.66226 0.13085 0.0928 0.0
H694 H 0.62863 0.18907 0.15588 0.0
C695 C 0.64855 0.15855 0.34248 0.0
C696 C 0.66098 0.14177 0.36784 0.0
C697 C 0.66997 0.1235 0.3405 0.0
C698 C 0.66708 0.12226 0.28878 0.0
C699 C 0.65508 0.13935 0.26503 0.0
C700 C 0.64591 0.15711 0.2911 0.0
C701 C 0.63527 0.17426 0.25669 0.0
C702 C 0.6098 0.17583 0.26555 0.0
C703 C 0.64662 0.19742 0.26212 0.0
C704 C 0.6404 0.16371 0.20687 0.0
C705 C 0.65159 0.14344 0.21253 0.0
C706 C 0.65925 0.13123 0.17185 0.0
C707 C 0.65582 0.14015 0.1243 0.0
C708 C 0.64491 0.1612 0.1176 0.0
C709 C 0.6367 0.17282 0.15958 0.0
H710 H 0.83869 0.65378 0.35142 0.0
H711 H 0.90094 0.692 0.35006 0.0
H712 H 0.90468 0.68468 0.26006 0.0
H713 H 0.85506 0.61143 0.25866 0.0
H714 H 0.82731 0.61059 0.23191 0.0
H715 H 0.83079 0.61687 0.29689 0.0
H716 H 0.80859 0.65405 0.28555 0.0
H717 H 0.80498 0.64786 0.22073 0.0
H718 H 0.81771 0.67405 0.23946 0.0
H719 H 0.89976 0.676 0.16916 0.0
H720 H 0.88621 0.66781 0.08462 0.0
H721 H 0.82722 0.63505 0.14583 0.0
C722 C 0.85335 0.66038 0.3326 0.0
C723 C 0.86957 0.67347 0.35812 0.0
C724 C 0.88831 0.68191 0.33155 0.0
C725 C 0.89061 0.67776 0.28043 0.0
C726 C 0.87414 0.66501 0.2565 0.0
C727 C 0.85589 0.65642 0.28181 0.0
C728 C 0.8397 0.64458 0.24709 0.0
C729 C 0.83813 0.61937 0.25938 0.0
C730 C 0.81638 0.65582 0.24828 0.0
C731 C 0.85135 0.64836 0.19787 0.0
C732 C 0.87132 0.65995 0.20419 0.0
C733 C 0.88431 0.66668 0.16389 0.0
C734 C 0.87643 0.66197 0.11597 0.0
C735 C 0.8557 0.65066 0.10854 0.0
C736 C 0.84333 0.6433 0.15022 0.0
H737 H 0.32294 0.87466 0.36463 0.0
H738 H 0.38381 0.84625 0.42746 0.0
H739 H 0.39763 0.83744 0.34351 0.0
H740 H 0.31578 0.83391 0.27314 0.0
H741 H 0.30552 0.8528 0.226 0.0
H742 H 0.30152 0.85951 0.29049 0.0
H743 H 0.32155 0.89781 0.27794 0.0
H744 H 0.3254 0.89132 0.21317 0.0
H745 H 0.34931 0.89845 0.25113 0.0
H746 H 0.40311 0.8279 0.25288 0.0
H747 H 0.40036 0.82046 0.16259 0.0
H748 H 0.33616 0.85528 0.15956 0.0
C749 C 0.33945 0.8672 0.36066 0.0
C750 C 0.35229 0.86125 0.40275 0.0
C751 C 0.37362 0.85098 0.39585 0.0
C752 C 0.38166 0.84591 0.34824 0.0
C753 C 0.36827 0.85126 0.30761 0.0
C754 C 0.34772 0.8619 0.31327 0.0
C755 C 0.33599 0.86452 0.26376 0.0
C756 C 0.31337 0.85193 0.26335 0.0
C757 C 0.33289 0.88951 0.25074 0.0
C758 C 0.35293 0.85334 0.22972 0.0
C759 C 0.37149 0.84585 0.25554 0.0
C760 C 0.38878 0.83398 0.23211 0.0
C761 C 0.38705 0.82974 0.18085 0.0
C762 C 0.36817 0.83738 0.15365 0.0
C763 C 0.35103 0.84941 0.1788 0.0
H764 H 0.16955 0.64608 0.66213 0.0
H765 H 0.10982 0.68817 0.66257 0.0
H766 H 0.1063 0.68251 0.75314 0.0
H767 H 0.15145 0.60645 0.75965 0.0
H768 H 0.17939 0.60446 0.78513 0.0
H769 H 0.17557 0.6096 0.71977 0.0
H770 H 0.20011 0.64551 0.72639 0.0
H771 H 0.20398 0.64052 0.79162 0.0
H772 H 0.19265 0.66701 0.77067 0.0
H773 H 0.11154 0.67528 0.84444 0.0
H774 H 0.12527 0.66779 0.92907 0.0
H775 H 0.18172 0.63047 0.86848 0.0
C776 C 0.15542 0.65382 0.68087 0.0
C777 C 0.1399 0.66755 0.65495 0.0
C778 C 0.12189 0.67753 0.6814 0.0
C779 C 0.11971 0.67435 0.73286 0.0
C780 C 0.13559 0.66104 0.75722 0.0
C781 C 0.15305 0.65087 0.732 0.0
C782 C 0.16888 0.63881 0.76711 0.0
C783 C 0.16881 0.61331 0.75732 0.0
C784 C 0.19281 0.64856 0.76374 0.0
C785 C 0.15799 0.64431 0.81636 0.0
C786 C 0.13866 0.65692 0.80981 0.0
C787 C 0.12648 0.66519 0.84995 0.0
C788 C 0.13449 0.66088 0.89793 0.0
C789 C 0.15458 0.64847 0.90556 0.0
C790 C 0.16615 0.6397 0.86406 0.0
H791 H 0.32569 0.13509 0.6508 0.0
H792 H 0.38533 0.16626 0.58851 0.0
H793 H 0.39874 0.17532 0.67259 0.0
H794 H 0.31666 0.17492 0.74294 0.0
H795 H 0.30735 0.15539 0.7898 0.0
H796 H 0.30366 0.14871 0.72522 0.0
H797 H 0.32556 0.11139 0.73714 0.0
H798 H 0.32912 0.11785 0.802 0.0
H799 H 0.35333 0.11202 0.76389 0.0
H800 H 0.40375 0.18485 0.76317 0.0
H801 H 0.4006 0.19206 0.85343 0.0
H802 H 0.33801 0.15443 0.8561 0.0
C803 C 0.34187 0.14323 0.65488 0.0
C804 C 0.35443 0.14989 0.61291 0.0
C805 C 0.37533 0.16099 0.62 0.0
C806 C 0.38315 0.1662 0.66769 0.0
C807 C 0.37 0.16013 0.7082 0.0
C808 C 0.34993 0.14864 0.70236 0.0
C809 C 0.33834 0.14531 0.75183 0.0
C810 C 0.31514 0.15677 0.75245 0.0
C811 C 0.33649 0.12015 0.76446 0.0
C812 C 0.35474 0.15717 0.78602 0.0
C813 C 0.37297 0.16551 0.76032 0.0
C814 C 0.3897 0.1781 0.78386 0.0
C815 C 0.38773 0.18221 0.8351 0.0
C816 C 0.36916 0.17376 0.86218 0.0
C817 C 0.3526 0.16098 0.83693 0.0
H818 H 0.85763 0.32585 0.88897 0.0
H819 H 0.84784 0.39824 0.887 0.0
H820 H 0.85886 0.39909 0.79864 0.0
H821 H 0.90529 0.32343 0.80039 0.0
H822 H 0.89506 0.29805 0.77151 0.0
H823 H 0.88939 0.30335 0.83619 0.0
H824 H 0.84668 0.29888 0.82011 0.0
H825 H 0.85223 0.29343 0.75562 0.0
H826 H 0.83341 0.31586 0.77305 0.0
H827 H 0.86759 0.39191 0.70989 0.0
H828 H 0.87028 0.37701 0.6248 0.0
H829 H 0.87382 0.30898 0.68242 0.0
C830 C 0.8583 0.34196 0.87025 0.0
C831 C 0.85212 0.36205 0.8951 0.0
C832 C 0.85258 0.38268 0.86885 0.0
C833 C 0.85897 0.38333 0.81874 0.0
C834 C 0.86477 0.36321 0.79529 0.0
C835 C 0.86436 0.34287 0.82003 0.0
C836 C 0.86911 0.32344 0.78489 0.0
C837 C 0.89102 0.31135 0.79911 0.0
C838 C 0.84917 0.30694 0.78333 0.0
C839 C 0.87166 0.33597 0.73618 0.0
C840 C 0.8695 0.35895 0.74339 0.0
C841 C 0.86961 0.37401 0.70389 0.0
C842 C 0.87117 0.36538 0.6557 0.0
C843 C 0.87253 0.34188 0.64713 0.0
C844 C 0.87344 0.32703 0.688 0.0
H845 H 0.66785 0.85749 0.85216 0.0
H846 H 0.60865 0.81473 0.84732 0.0
H847 H 0.60634 0.82058 0.75653 0.0
H848 H 0.65057 0.89729 0.7554 0.0
H849 H 0.67871 0.89984 0.73127 0.0
H850 H 0.67436 0.89405 0.7962 0.0
H851 H 0.69934 0.85846 0.78915 0.0
H852 H 0.7038 0.86414 0.72436 0.0
H853 H 0.6926 0.83733 0.74348 0.0
H854 H 0.61236 0.8288 0.66567 0.0
H855 H 0.6266 0.83749 0.58204 0.0
H856 H 0.68205 0.87487 0.64657 0.0
C857 C 0.65412 0.84957 0.8324 0.0
C858 C 0.63834 0.83567 0.85722 0.0
C859 C 0.6209 0.82548 0.82938 0.0
C860 C 0.61942 0.82878 0.77779 0.0
C861 C 0.63545 0.84238 0.75464 0.0
C862 C 0.65245 0.85262 0.78113 0.0
C863 C 0.66846 0.86521 0.74726 0.0
C864 C 0.66798 0.89061 0.75819 0.0
C865 C 0.69246 0.85571 0.75131 0.0
C866 C 0.65813 0.86006 0.6972 0.0
C867 C 0.63896 0.84707 0.70235 0.0
C868 C 0.6272 0.83914 0.6613 0.0
C869 C 0.63548 0.84416 0.61388 0.0
C870 C 0.65544 0.85695 0.60761 0.0
C871 C 0.66657 0.8654 0.65001 0.0
H872 H 0.87831 0.69652 0.67624 0.0
H873 H 0.82981 0.66331 0.58082 0.0
H874 H 0.80966 0.6492 0.65438 0.0
H875 H 0.88236 0.65297 0.76339 0.0
H876 H 0.885 0.67102 0.81685 0.0
H877 H 0.89421 0.68075 0.75699 0.0
H878 H 0.86823 0.7156 0.76472 0.0
H879 H 0.85896 0.70598 0.82475 0.0
H880 H 0.83867 0.71167 0.7767 0.0
H881 H 0.79647 0.63619 0.73747 0.0
H882 H 0.79152 0.62469 0.82485 0.0
H883 H 0.84873 0.66585 0.86675 0.0
C884 C 0.86321 0.68665 0.67093 0.0
C885 C 0.85554 0.68112 0.62285 0.0
C886 C 0.83595 0.66781 0.61731 0.0
C887 C 0.82434 0.65976 0.65888 0.0
C888 C 0.83252 0.66517 0.70577 0.0
C889 C 0.85148 0.67832 0.71211 0.0
C890 C 0.8576 0.68032 0.76652 0.0
C891 C 0.88118 0.67069 0.7765 0.0
C892 C 0.85575 0.70485 0.7842 0.0
C893 C 0.83946 0.66579 0.78954 0.0
C894 C 0.82501 0.65743 0.75389 0.0
C895 C 0.80752 0.6428 0.76583 0.0
C896 C 0.80486 0.63634 0.81552 0.0
C897 C 0.81969 0.64441 0.85252 0.0
C898 C 0.83701 0.65955 0.83931 0.0
H899 H 0.3486 0.84839 0.64451 0.0
H900 H 0.29331 0.89154 0.68942 0.0
H901 H 0.29976 0.88102 0.77685 0.0
H902 H 0.33813 0.8039 0.73569 0.0
H903 H 0.3676 0.79855 0.74586 0.0
H904 H 0.35807 0.80868 0.68645 0.0
H905 H 0.38569 0.84227 0.69258 0.0
H906 H 0.39527 0.83229 0.752 0.0
H907 H 0.38456 0.86054 0.74594 0.0
H908 H 0.31363 0.86808 0.8591 0.0
H909 H 0.3331 0.85236 0.93171 0.0
H910 H 0.37879 0.81622 0.83456 0.0
C911 C 0.33773 0.85547 0.67272 0.0
C912 C 0.32044 0.87081 0.66021 0.0
C913 C 0.30662 0.87975 0.69815 0.0
C914 C 0.31015 0.87387 0.7479 0.0
C915 C 0.32745 0.85889 0.75905 0.0
C916 C 0.34093 0.84966 0.72262 0.0
C917 C 0.35864 0.83429 0.74492 0.0
C918 C 0.35541 0.80991 0.72717 0.0
C919 C 0.38244 0.84287 0.73316 0.0
C920 C 0.35324 0.83666 0.79967 0.0
C921 C 0.33517 0.85093 0.80682 0.0
C922 C 0.32762 0.85666 0.854 0.0
C923 C 0.33885 0.84765 0.89506 0.0
C924 C 0.35736 0.8329 0.88886 0.0
C925 C 0.36451 0.8272 0.84043 0.0
H926 H 0.12608 0.31057 0.6738 0.0
H927 H 0.17629 0.34278 0.58113 0.0
H928 H 0.19674 0.35514 0.65544 0.0
H929 H 0.12371 0.35417 0.76225 0.0
H930 H 0.11984 0.33613 0.81533 0.0
H931 H 0.11049 0.32705 0.75506 0.0
H932 H 0.1346 0.29091 0.76301 0.0
H933 H 0.14405 0.29991 0.82339 0.0
H934 H 0.16425 0.29329 0.77572 0.0
H935 H 0.21059 0.36618 0.73806 0.0
H936 H 0.21581 0.37754 0.82509 0.0
H937 H 0.15609 0.33997 0.86652 0.0
C938 C 0.14162 0.31983 0.66935 0.0
C939 C 0.14974 0.32549 0.62166 0.0
C940 C 0.16979 0.33814 0.61717 0.0
C941 C 0.18163 0.34517 0.65922 0.0
C942 C 0.17309 0.33961 0.70567 0.0
C943 C 0.15349 0.32738 0.7112 0.0
C944 C 0.14701 0.32558 0.76556 0.0
C945 C 0.1239 0.33638 0.77509 0.0
C946 C 0.14751 0.30095 0.78294 0.0
C947 C 0.16577 0.33913 0.78935 0.0
C948 C 0.1808 0.34669 0.75401 0.0
C949 C 0.19906 0.36024 0.7662 0.0
C950 C 0.20185 0.36663 0.81577 0.0
C951 C 0.18636 0.35966 0.85256 0.0
C952 C 0.16829 0.34541 0.83924 0.0
H953 H 0.65834 0.1666 0.87706 0.0
H954 H 0.61936 0.22526 0.83438 0.0
H955 H 0.62888 0.21834 0.7465 0.0
H956 H 0.70286 0.17339 0.78329 0.0
H957 H 0.70542 0.1435 0.77328 0.0
H958 H 0.69698 0.15405 0.83315 0.0
H959 H 0.66107 0.12944 0.82959 0.0
H960 H 0.66934 0.11888 0.76972 0.0
H961 H 0.64228 0.13208 0.77742 0.0
H962 H 0.63979 0.20333 0.66349 0.0
H963 H 0.6523 0.18189 0.59031 0.0
H964 H 0.68514 0.13335 0.68634 0.0
C965 C 0.65206 0.17817 0.84928 0.0
C966 C 0.63812 0.19649 0.86247 0.0
C967 C 0.63011 0.21116 0.82508 0.0
C968 C 0.63544 0.20738 0.7751 0.0
C969 C 0.64895 0.18897 0.76326 0.0
C970 C 0.6573 0.17469 0.79925 0.0
C971 C 0.6707 0.15562 0.77635 0.0
C972 C 0.69546 0.15672 0.79248 0.0
C973 C 0.66021 0.13265 0.78902 0.0
C974 C 0.66811 0.16111 0.72177 0.0
C975 C 0.65558 0.18048 0.71515 0.0
C976 C 0.64987 0.18832 0.66817 0.0
C977 C 0.65702 0.17597 0.62683 0.0
C978 C 0.66983 0.15605 0.63265 0.0
C979 C 0.67564 0.14869 0.68079 0.0
H980 H 0.88195 0.30994 0.33642 0.0
H981 H 0.83101 0.34078 0.42955 0.0
H982 H 0.81165 0.35506 0.35559 0.0
H983 H 0.88584 0.35525 0.25249 0.0
H984 H 0.88997 0.33829 0.19779 0.0
H985 H 0.8986 0.32782 0.25748 0.0
H986 H 0.87408 0.29225 0.2448 0.0
H987 H 0.8654 0.30261 0.18493 0.0
H988 H 0.84461 0.29534 0.23084 0.0
H989 H 0.79907 0.36835 0.27369 0.0
H990 H 0.79463 0.38116 0.18745 0.0
H991 H 0.854 0.34323 0.14498 0.0
C992 C 0.86647 0.31929 0.34098 0.0
C993 C 0.85787 0.32404 0.38877 0.0
C994 C 0.83789 0.33683 0.39345 0.0
C995 C 0.82668 0.34497 0.35157 0.0
C996 C 0.83572 0.34037 0.3051 0.0
C997 C 0.85518 0.32792 0.29932 0.0
C998 C 0.86218 0.32713 0.24514 0.0
C999 C 0.88553 0.33776 0.23782 0.0
C1000 C 0.86152 0.30289 0.22526 0.0
C1001 C 0.84386 0.34145 0.22181 0.0
C1002 C 0.82865 0.34861 0.25718 0.0
C1003 C 0.81074 0.36271 0.2455 0.0
C1004 C 0.8084 0.36994 0.19639 0.0
C1005 C 0.82395 0.36319 0.15951 0.0
C1006 C 0.84176 0.34852 0.17234 0.0
H1007 H 0.63014 0.81335 0.17647 0.0
H1008 H 0.67196 0.85381 0.07922 0.0
H1009 H 0.69196 0.86909 0.15166 0.0
H1010 H 0.6236 0.85514 0.26949 0.0
H1011 H 0.62441 0.83577 0.32093 0.0
H1012 H 0.61452 0.82642 0.26127 0.0
H1013 H 0.64412 0.79441 0.26153 0.0
H1014 H 0.65413 0.80371 0.32123 0.0
H1015 H 0.6734 0.80123 0.26991 0.0
H1016 H 0.70642 0.88141 0.23409 0.0
H1017 H 0.71327 0.8911 0.32189 0.0
H1018 H 0.66173 0.84354 0.36667 0.0
C1019 C 0.64369 0.82521 0.17049 0.0
C1020 C 0.64958 0.83224 0.12212 0.0
C1021 C 0.66718 0.84806 0.11584 0.0
C1022 C 0.67872 0.85683 0.15678 0.0
C1023 C 0.67243 0.84971 0.20395 0.0
C1024 C 0.6553 0.83433 0.21115 0.0
C1025 C 0.65108 0.83056 0.26602 0.0
C1026 C 0.62698 0.83739 0.28025 0.0
C1027 C 0.65598 0.80602 0.28051 0.0
C1028 C 0.66827 0.84647 0.28833 0.0
C1029 C 0.68057 0.85715 0.25181 0.0
C1030 C 0.697 0.87307 0.26309 0.0
C1031 C 0.70077 0.87846 0.31305 0.0
C1032 C 0.68807 0.86807 0.35107 0.0
C1033 C 0.67181 0.85168 0.33842 0.0
H1034 H 0.13396 0.69256 0.33743 0.0
H1035 H 0.18104 0.65723 0.43259 0.0
H1036 H 0.20062 0.6424 0.3589 0.0
H1037 H 0.12811 0.6493 0.2502 0.0
H1038 H 0.12615 0.66747 0.19684 0.0
H1039 H 0.11738 0.67753 0.25676 0.0
H1040 H 0.14473 0.71131 0.2492 0.0
H1041 H 0.15354 0.70138 0.18907 0.0
H1042 H 0.17409 0.70619 0.23704 0.0
H1043 H 0.21337 0.6291 0.27553 0.0
H1044 H 0.21799 0.61783 0.18785 0.0
H1045 H 0.16225 0.66115 0.14684 0.0
C1046 C 0.14867 0.68208 0.34267 0.0
C1047 C 0.15609 0.67616 0.39065 0.0
C1048 C 0.17512 0.66204 0.39613 0.0
C1049 C 0.1864 0.65358 0.3545 0.0
C1050 C 0.17843 0.65938 0.30767 0.0
C1051 C 0.16003 0.67332 0.30145 0.0
C1052 C 0.15394 0.67562 0.24713 0.0
C1053 C 0.12998 0.66696 0.23717 0.0
C1054 C 0.15675 0.70008 0.22958 0.0
C1055 C 0.17146 0.6604 0.22399 0.0
C1056 C 0.18559 0.65141 0.25949 0.0
C1057 C 0.20255 0.63619 0.24729 0.0
C1058 C 0.20503 0.62987 0.19746 0.0
C1059 C 0.19051 0.63863 0.16065 0.0
C1060 C 0.17368 0.65426 0.17416 0.0
H1061 H 0.34989 0.16247 0.37116 0.0
H1062 H 0.29572 0.11778 0.32708 0.0
H1063 H 0.30203 0.12796 0.23941 0.0
H1064 H 0.33832 0.20618 0.27888 0.0
H1065 H 0.36764 0.21227 0.26881 0.0
H1066 H 0.35829 0.2022 0.3284 0.0
H1067 H 0.38684 0.16934 0.3233 0.0
H1068 H 0.39623 0.17926 0.26369 0.0
H1069 H 0.38629 0.15076 0.27039 0.0
H1070 H 0.31573 0.1408 0.15688 0.0
H1071 H 0.33489 0.15675 0.08405 0.0
H1072 H 0.37942 0.19448 0.18083 0.0
C1073 C 0.33925 0.15497 0.34307 0.0
C1074 C 0.32232 0.1393 0.35585 0.0
C1075 C 0.30875 0.12984 0.3181 0.0
C1076 C 0.3122 0.13552 0.26822 0.0
C1077 C 0.32915 0.15084 0.25682 0.0
C1078 C 0.34234 0.1606 0.29309 0.0
C1079 C 0.35966 0.17631 0.27058 0.0
C1080 C 0.35574 0.20069 0.28769 0.0
C1081 C 0.38368 0.16844 0.28271 0.0
C1082 C 0.35441 0.17351 0.2159 0.0
C1083 C 0.33673 0.15874 0.20893 0.0
C1084 C 0.32941 0.1526 0.16183 0.0
C1085 C 0.34045 0.16174 0.12066 0.0
C1086 C 0.35853 0.17701 0.12675 0.0
C1087 C 0.36546 0.18308 0.17507 0.0
loop_
_geom_bond_atom_site_label_1
_geom_bond_atom_site_label_2
_geom_bond_distance
_geom_bond_site_symmetry_2
_ccdc_geom_bond_type
Co0 O1 2.216 . S
Co0 O2 2.089 1_556 S
Co0 O4 2.004 . S
Co0 O10 2.021 1_556 S
Co0 O12 2.137 . S
Co0 O13 2.244 . S
O1 Co0 2.216 . S
O1 C8 1.246 1_556 S
O2 Co0 2.089 1_554 S
O2 C8 1.261 . S
C3 O12 1.247 . S
C3 O13 1.272 . S
O4 Co0 2.004 . S
O4 C9 1.259 . S
Co5 O6 2.061 1_556 S
Co5 O11 2.042 1_556 S
Co5 O13 2.142 . S
O6 Co5 2.061 1_554 S
O6 C9 1.235 1_554 S
C7 O10 1.238 . S
C7 O11 1.241 . S
C8 O1 1.246 1_554 S
C8 O2 1.261 . S
C9 O4 1.259 . S
C9 O6 1.235 1_556 S
O10 Co0 2.021 1_554 S
O10 C7 1.238 . S
O11 Co5 2.042 1_554 S
O11 C7 1.241 . S
O12 Co0 2.137 . S
O12 C3 1.247 . S
O13 Co0 2.244 . S
O13 C3 1.272 . S
O13 Co5 2.142 . S
Co14 O15 2.216 . S
Co14 O16 2.089 1_556 S
Co14 O18 2.004 . S
Co14 O24 2.021 1_556 S
Co14 O26 2.137 . S
Co14 O27 2.244 . S
O15 Co14 2.216 . S
O15 C22 1.246 1_556 S
O16 Co14 2.089 1_554 S
O16 C22 1.261 . S
C17 O26 1.247 . S
C17 O27 1.272 . S
O18 Co14 2.004 . S
O18 C23 1.259 . S
Co19 O20 2.061 1_556 S
Co19 O25 2.042 1_556 S
Co19 O27 2.142 . S
O20 Co19 2.061 1_554 S
O20 C23 1.235 1_554 S
C21 O24 1.238 . S
C21 O25 1.241 . S
C22 O15 1.246 1_554 S
C22 O16 1.261 . S
C23 O18 1.259 . S
C23 O20 1.235 1_556 S
O24 Co14 2.021 1_554 S
O24 C21 1.238 . S
O25 Co19 2.042 1_554 S
O25 C21 1.241 . S
O26 Co14 2.137 . S
O26 C17 1.247 . S
O27 Co14 2.244 . S
O27 C17 1.272 . S
O27 Co19 2.142 . S
Co28 O29 2.216 . S
Co28 O30 2.089 1_556 S
Co28 O32 2.004 . S
Co28 O38 2.021 1_556 S
Co28 O40 2.137 . S
Co28 O41 2.244 . S
O29 Co28 2.216 . S
O29 C36 1.246 1_556 S
O30 Co28 2.089 1_554 S
O30 C36 1.261 . S
C31 O40 1.247 . S
C31 O41 1.272 . S
O32 Co28 2.004 . S
O32 C37 1.259 . S
Co33 O34 2.061 1_556 S
Co33 O39 2.042 1_556 S
Co33 O41 2.142 . S
O34 Co33 2.061 1_554 S
O34 C37 1.235 1_554 S
C35 O38 1.238 . S
C35 O39 1.241 . S
C36 O29 1.246 1_554 S
C36 O30 1.261 . S
C37 O32 1.259 . S
C37 O34 1.235 1_556 S
O38 Co28 2.021 1_554 S
O38 C35 1.238 . S
O39 Co33 2.042 1_554 S
O39 C35 1.241 . S
O40 Co28 2.137 . S
O40 C31 1.247 . S
O41 Co28 2.244 . S
O41 C31 1.272 . S
O41 Co33 2.142 . S
Co42 O43 2.216 . S
Co42 O44 2.089 1_556 S
Co42 O46 2.004 . S
Co42 O52 2.021 1_556 S
Co42 O54 2.137 . S
Co42 O55 2.244 . S
O43 Co42 2.216 . S
O43 C50 1.246 1_556 S
O44 Co42 2.089 1_554 S
O44 C50 1.261 . S
C45 O54 1.247 . S
C45 O55 1.272 . S
O46 Co42 2.004 . S
O46 C51 1.259 . S
Co47 O48 2.061 1_556 S
Co47 O53 2.042 1_556 S
Co47 O55 2.142 . S
O48 Co47 2.061 1_554 S
O48 C51 1.235 1_554 S
C49 O52 1.238 . S
C49 O53 1.241 . S
C50 O43 1.246 1_554 S
C50 O44 1.261 . S
C51 O46 1.259 . S
C51 O48 1.235 1_556 S
O52 Co42 2.021 1_554 S
O52 C49 1.238 . S
O53 Co47 2.042 1_554 S
O53 C49 1.241 . S
O54 Co42 2.137 . S
O54 C45 1.247 . S
O55 Co42 2.244 . S
O55 C45 1.272 . S
O55 Co47 2.142 . S
Co56 O57 2.216 . S
Co56 O58 2.091 1_554 S
Co56 O60 2.004 . S
Co56 O66 2.021 1_554 S
Co56 O68 2.137 . S
Co56 O69 2.244 . S
O57 Co56 2.216 . S
O57 C64 1.248 . S
O58 Co56 2.091 1_556 S
O58 C64 1.261 1_556 S
C59 O68 1.247 . S
C59 O69 1.272 . S
O60 Co56 2.004 . S
O60 C65 1.259 . S
Co61 O62 2.061 1_554 S
Co61 O67 2.052 1_554 S
Co61 O69 2.135 . S
O62 Co61 2.061 1_556 S
O62 C65 1.235 1_556 S
C63 O66 1.238 . S
C63 O67 1.241 . S
C64 O57 1.248 . S
C64 O58 1.261 1_554 S
C65 O60 1.259 . S
C65 O62 1.235 1_554 S
O66 Co56 2.021 1_556 S
O66 C63 1.238 . S
O67 Co61 2.052 1_556 S
O67 C63 1.241 . S
O68 Co56 2.137 . S
O68 C59 1.247 . S
O69 Co56 2.244 . S
O69 C59 1.272 . S
O69 Co61 2.135 . S
Co70 O71 2.216 . S
Co70 O72 2.091 1_554 S
Co70 O74 2.004 . S
Co70 O80 2.021 1_554 S
Co70 O82 2.137 . S
Co70 O83 2.244 . S
O71 Co70 2.216 . S
O71 C78 1.248 . S
O72 Co70 2.091 1_556 S
O72 C78 1.261 1_556 S
C73 O82 1.247 . S
C73 O83 1.272 . S
O74 Co70 2.004 . S
O74 C79 1.259 . S
Co75 O76 2.061 1_554 S
Co75 O81 2.052 1_554 S
Co75 O83 2.135 . S
O76 Co75 2.061 1_556 S
O76 C79 1.235 1_556 S
C77 O80 1.238 . S
C77 O81 1.241 . S
C78 O71 1.248 . S
C78 O72 1.261 1_554 S
C79 O74 1.259 . S
C79 O76 1.235 1_554 S
O80 Co70 2.021 1_556 S
O80 C77 1.238 . S
O81 Co75 2.052 1_556 S
O81 C77 1.241 . S
O82 Co70 2.137 . S
O82 C73 1.247 . S
O83 Co70 2.244 . S
O83 C73 1.272 . S
O83 Co75 2.135 . S
Co84 O85 2.216 . S
Co84 O86 2.091 1_554 S
Co84 O88 2.004 . S
Co84 O94 2.021 1_554 S
Co84 O96 2.137 . S
Co84 O97 2.244 . S
O85 Co84 2.216 . S
O85 C92 1.248 . S
O86 Co84 2.091 1_556 S
O86 C92 1.261 1_556 S
C87 O96 1.247 . S
C87 O97 1.272 . S
O88 Co84 2.004 . S
O88 C93 1.259 . S
Co89 O90 2.061 1_554 S
Co89 O95 2.052 1_554 S
Co89 O97 2.135 . S
O90 Co89 2.061 1_556 S
O90 C93 1.235 1_556 S
C91 O94 1.238 . S
C91 O95 1.241 . S
C92 O85 1.248 . S
C92 O86 1.261 1_554 S
C93 O88 1.259 . S
C93 O90 1.235 1_554 S
O94 Co84 2.021 1_556 S
O94 C91 1.238 . S
O95 Co89 2.052 1_556 S
O95 C91 1.241 . S
O96 Co84 2.137 . S
O96 C87 1.247 . S
O97 Co84 2.244 . S
O97 C87 1.272 . S
O97 Co89 2.135 . S
Co98 O99 2.216 . S
Co98 O100 2.091 1_554 S
Co98 O102 2.004 . S
Co98 O108 2.021 1_554 S
Co98 O110 2.137 . S
Co98 O111 2.244 . S
O99 Co98 2.216 . S
O99 C106 1.248 . S
O100 Co98 2.091 1_556 S
O100 C106 1.261 1_556 S
C101 O110 1.247 . S
C101 O111 1.272 . S
O102 Co98 2.004 . S
O102 C107 1.259 . S
Co103 O104 2.061 1_554 S
Co103 O109 2.052 1_554 S
Co103 O111 2.135 . S
O104 Co103 2.061 1_556 S
O104 C107 1.235 1_556 S
C105 O108 1.238 . S
C105 O109 1.241 . S
C106 O99 1.248 . S
C106 O100 1.261 1_554 S
C107 O102 1.259 . S
C107 O104 1.235 1_554 S
O108 Co98 2.021 1_556 S
O108 C105 1.238 . S
O109 Co103 2.052 1_556 S
O109 C105 1.241 . S
O110 Co98 2.137 . S
O110 C101 1.247 . S
O111 Co98 2.244 . S
O111 C101 1.272 . S
O111 Co103 2.135 . S
Co112 O113 2.216 . S
Co112 O114 2.091 . S
Co112 O116 2.004 . S
Co112 O122 2.021 . S
Co112 O124 2.137 . S
Co112 O125 2.244 . S
O113 Co112 2.216 . S
O113 C120 1.247 . S
O114 Co112 2.091 . S
O114 C120 1.261 . S
C115 O124 1.247 . S
C115 O125 1.272 . S
O116 Co112 2.004 . S
O116 C121 1.259 . S
Co117 O118 2.061 . S
Co117 O123 2.052 . S
Co117 O125 2.135 . S
O118 Co117 2.061 . S
O118 C121 1.235 . S
C119 O122 1.238 . S
C119 O123 1.241 . S
C120 O113 1.247 . S
C120 O114 1.261 . S
C121 O116 1.259 . S
C121 O118 1.235 . S
O122 Co112 2.021 . S
O122 C119 1.238 . S
O123 Co117 2.052 . S
O123 C119 1.241 . S
O124 Co112 2.137 . S
O124 C115 1.247 . S
O125 Co112 2.244 . S
O125 C115 1.272 . S
O125 Co117 2.135 . S
Co126 O127 2.216 . S
Co126 O128 2.091 . S
Co126 O130 2.004 . S
Co126 O136 2.021 . S
Co126 O138 2.137 . S
Co126 O139 2.244 . S
O127 Co126 2.216 . S
O127 C134 1.247 . S
O128 Co126 2.091 . S
O128 C134 1.261 . S
C129 O138 1.247 . S
C129 O139 1.272 . S
O130 Co126 2.004 . S
O130 C135 1.259 . S
Co131 O132 2.061 . S
Co131 O137 2.052 . S
Co131 O139 2.135 . S
O132 Co131 2.061 . S
O132 C135 1.235 . S
C133 O136 1.238 . S
C133 O137 1.241 . S
C134 O127 1.247 . S
C134 O128 1.261 . S
C135 O130 1.259 . S
C135 O132 1.235 . S
O136 Co126 2.021 . S
O136 C133 1.238 . S
O137 Co131 2.052 . S
O137 C133 1.241 . S
O138 Co126 2.137 . S
O138 C129 1.247 . S
O139 Co126 2.244 . S
O139 C129 1.272 . S
O139 Co131 2.135 . S
Co140 O141 2.216 . S
Co140 O142 2.091 . S
Co140 O144 2.004 . S
Co140 O150 2.021 . S
Co140 O152 2.137 . S
Co140 O153 2.244 . S
O141 Co140 2.216 . S
O141 C148 1.247 . S
O142 Co140 2.091 . S
O142 C148 1.261 . S
C143 O152 1.247 . S
C143 O153 1.272 . S
O144 Co140 2.004 . S
O144 C149 1.259 . S
Co145 O146 2.061 . S
Co145 O151 2.052 . S
Co145 O153 2.135 . S
O146 Co145 2.061 . S
O146 C149 1.235 . S
C147 O150 1.238 . S
C147 O151 1.241 . S
C148 O141 1.247 . S
C148 O142 1.261 . S
C149 O144 1.259 . S
C149 O146 1.235 . S
O150 Co140 2.021 . S
O150 C147 1.238 . S
O151 Co145 2.052 . S
O151 C147 1.241 . S
O152 Co140 2.137 . S
O152 C143 1.247 . S
O153 Co140 2.244 . S
O153 C143 1.272 . S
O153 Co145 2.135 . S
Co154 O155 2.216 . S
Co154 O156 2.091 . S
Co154 O158 2.004 . S
Co154 O164 2.021 . S
Co154 O166 2.137 . S
Co154 O167 2.244 . S
O155 Co154 2.216 . S
O155 C162 1.247 . S
O156 Co154 2.091 . S
O156 C162 1.261 . S
C157 O166 1.247 . S
C157 O167 1.272 . S
O158 Co154 2.004 . S
O158 C163 1.259 . S
Co159 O160 2.061 . S
Co159 O165 2.052 . S
Co159 O167 2.135 . S
O160 Co159 2.061 . S
O160 C163 1.235 . S
C161 O164 1.238 . S
C161 O165 1.241 . S
C162 O155 1.247 . S
C162 O156 1.261 . S
C163 O158 1.259 . S
C163 O160 1.235 . S
O164 Co154 2.021 . S
O164 C161 1.238 . S
O165 Co159 2.052 . S
O165 C161 1.241 . S
O166 Co154 2.137 . S
O166 C157 1.247 . S
O167 Co154 2.244 . S
O167 C157 1.272 . S
O167 Co159 2.135 . S
Co168 O169 2.216 . S
Co168 O170 2.091 . S
Co168 O172 2.004 . S
Co168 O178 2.021 . S
Co168 O180 2.137 . S
Co168 O181 2.244 . S
O169 Co168 2.216 . S
O169 C176 1.247 . S
O170 Co168 2.091 . S
O170 C176 1.261 . S
C171 O180 1.247 . S
C171 O181 1.272 . S
O172 Co168 2.004 . S
O172 C177 1.259 . S
Co173 O174 2.061 . S
Co173 O179 2.052 . S
Co173 O181 2.135 . S
O174 Co173 2.061 . S
O174 C177 1.235 . S
C175 O178 1.238 . S
C175 O179 1.241 . S
C176 O169 1.247 . S
C176 O170 1.261 . S
C177 O172 1.259 . S
C177 O174 1.235 . S
O178 Co168 2.021 . S
O178 C175 1.238 . S
O179 Co173 2.052 . S
O179 C175 1.241 . S
O180 Co168 2.137 . S
O180 C171 1.247 . S
O181 Co168 2.244 . S
O181 C171 1.272 . S
O181 Co173 2.135 . S
Co182 O183 2.216 . S
Co182 O184 2.091 . S
Co182 O186 2.004 . S
Co182 O192 2.021 . S
Co182 O194 2.137 . S
Co182 O195 2.244 . S
O183 Co182 2.216 . S
O183 C190 1.247 . S
O184 Co182 2.091 . S
O184 C190 1.261 . S
C185 O194 1.247 . S
C185 O195 1.272 . S
O186 Co182 2.004 . S
O186 C191 1.259 . S
Co187 O188 2.061 . S
Co187 O193 2.052 . S
Co187 O195 2.135 . S
O188 Co187 2.061 . S
O188 C191 1.235 . S
C189 O192 1.238 . S
C189 O193 1.241 . S
C190 O183 1.247 . S
C190 O184 1.261 . S
C191 O186 1.259 . S
C191 O188 1.235 . S
O192 Co182 2.021 . S
O192 C189 1.238 . S
O193 Co187 2.052 . S
O193 C189 1.241 . S
O194 Co182 2.137 . S
O194 C185 1.247 . S
O195 Co182 2.244 . S
O195 C185 1.272 . S
O195 Co187 2.135 . S
Co196 O197 2.216 . S
Co196 O198 2.091 . S
Co196 O200 2.004 . S
Co196 O206 2.021 . S
Co196 O208 2.137 . S
Co196 O209 2.244 . S
O197 Co196 2.216 . S
O197 C204 1.247 . S
O198 Co196 2.091 . S
O198 C204 1.261 . S
C199 O208 1.247 . S
C199 O209 1.272 . S
O200 Co196 2.004 . S
O200 C205 1.259 . S
Co201 O202 2.061 . S
Co201 O207 2.052 . S
Co201 O209 2.135 . S
O202 Co201 2.061 . S
O202 C205 1.235 . S
C203 O206 1.238 . S
C203 O207 1.241 . S
C204 O197 1.247 . S
C204 O198 1.261 . S
C205 O200 1.259 . S
C205 O202 1.235 . S
O206 Co196 2.021 . S
O206 C203 1.238 . S
O207 Co201 2.052 . S
O207 C203 1.241 . S
O208 Co196 2.137 . S
O208 C199 1.247 . S
O209 Co196 2.244 . S
O209 C199 1.272 . S
O209 Co201 2.135 . S
Co210 O211 2.216 . S
Co210 O212 2.091 . S
Co210 O214 2.004 . S
Co210 O220 2.021 . S
Co210 O222 2.137 . S
Co210 O223 2.244 . S
O211 Co210 2.216 . S
O211 C218 1.247 . S
O212 Co210 2.091 . S
O212 C218 1.261 . S
C213 O222 1.247 . S
C213 O223 1.272 . S
O214 Co210 2.004 . S
O214 C219 1.259 . S
Co215 O216 2.061 . S
Co215 O221 2.052 . S
Co215 O223 2.135 . S
O216 Co215 2.061 . S
O216 C219 1.235 . S
C217 O220 1.238 . S
C217 O221 1.241 . S
C218 O211 1.247 . S
C218 O212 1.261 . S
C219 O214 1.259 . S
C219 O216 1.235 . S
O220 Co210 2.021 . S
O220 C217 1.238 . S
O221 Co215 2.052 . S
O221 C217 1.241 . S
O222 Co210 2.137 . S
O222 C213 1.247 . S
O223 Co210 2.244 . S
O223 C213 1.272 . S
O223 Co215 2.135 . S
H224 C236 0.930 . S
H225 C238 0.930 . S
H226 C239 0.930 . S
H227 C243 0.959 . S
H228 C243 0.959 . S
H229 C243 0.961 . S
H230 C244 0.960 . S
H231 C244 0.961 . S
H232 C244 0.959 . S
H233 C247 0.929 . S
H234 C248 0.931 . S
H235 C250 0.930 . S
C236 H224 0.930 . S
C236 C237 1.399 1_554 S
C236 C241 1.399 . S
C237 C236 1.399 1_556 S
C237 C238 1.376 . S
C238 H225 0.930 . S
C238 C237 1.376 . S
C238 C239 1.388 . S
C239 H226 0.930 . S
C239 C238 1.388 . S
C239 C240 1.390 . S
C240 C239 1.390 . S
C240 C241 1.394 1_556 S
C240 C246 1.465 . S
C241 C236 1.399 . S
C241 C240 1.394 1_554 S
C241 C242 1.516 . S
C242 C241 1.516 . S
C242 C243 1.502 . S
C242 C244 1.561 . S
C242 C245 1.526 . S
C243 H227 0.959 . S
C243 H228 0.959 . S
C243 H229 0.961 . S
C243 C242 1.502 . S
C244 H230 0.960 . S
C244 H231 0.961 . S
C244 H232 0.959 . S
C244 C242 1.561 . S
C245 C242 1.526 . S
C245 C246 1.396 1_554 S
C245 C250 1.390 . S
C246 C240 1.465 . S
C246 C245 1.396 1_556 S
C246 C247 1.399 . S
C247 H233 0.929 . S
C247 C246 1.399 . S
C247 C248 1.385 . S
C248 H234 0.931 . S
C248 C247 1.385 . S
C248 C249 1.389 . S
C249 C248 1.389 . S
C249 C250 1.387 1_556 S
C250 H235 0.930 . S
C250 C245 1.390 . S
C250 C249 1.387 1_554 S
H251 C263 0.930 . S
H252 C265 0.930 . S
H253 C266 0.930 . S
H254 C270 0.959 . S
H255 C270 0.959 . S
H256 C270 0.961 . S
H257 C271 0.960 . S
H258 C271 0.961 . S
H259 C271 0.959 . S
H260 C274 0.929 . S
H261 C275 0.931 . S
H262 C277 0.930 . S
C263 H251 0.930 . S
C263 C264 1.399 1_554 S
C263 C268 1.399 . S
C264 C263 1.399 1_556 S
C264 C265 1.376 . S
C265 H252 0.930 . S
C265 C264 1.376 . S
C265 C266 1.388 . S
C266 H253 0.930 . S
C266 C265 1.388 . S
C266 C267 1.390 . S
C267 C266 1.390 . S
C267 C268 1.394 1_556 S
C267 C273 1.465 . S
C268 C263 1.399 . S
C268 C267 1.394 1_554 S
C268 C269 1.516 . S
C269 C268 1.516 . S
C269 C270 1.502 . S
C269 C271 1.561 1_554 S
C269 C272 1.526 . S
C270 H254 0.959 . S
C270 H255 0.959 . S
C270 H256 0.961 . S
C270 C269 1.502 . S
C271 H257 0.960 . S
C271 H258 0.961 . S
C271 H259 0.959 . S
C271 C269 1.561 1_556 S
C272 C269 1.526 . S
C272 C273 1.396 1_554 S
C272 C277 1.390 . S
C273 C267 1.465 . S
C273 C272 1.396 1_556 S
C273 C274 1.399 . S
C274 H260 0.929 . S
C274 C273 1.399 . S
C274 C275 1.385 . S
C275 H261 0.931 . S
C275 C274 1.385 . S
C275 C276 1.394 . S
C276 C275 1.394 . S
C276 C277 1.383 1_556 S
C277 H262 0.930 . S
C277 C272 1.390 . S
C277 C276 1.383 1_554 S
H278 C290 0.930 . S
H279 C292 0.930 . S
H280 C293 0.930 . S
H281 C297 0.959 . S
H282 C297 0.959 . S
H283 C297 0.961 . S
H284 C298 0.960 . S
H285 C298 0.961 . S
H286 C298 0.959 . S
H287 C301 0.929 . S
H288 C302 0.931 . S
H289 C304 0.930 . S
C290 H278 0.930 . S
C290 C291 1.399 1_554 S
C290 C295 1.399 . S
C291 C290 1.399 1_556 S
C291 C292 1.376 . S
C292 H279 0.930 . S
C292 C291 1.376 . S
C292 C293 1.388 . S
C293 H280 0.930 . S
C293 C292 1.388 . S
C293 C294 1.390 . S
C294 C293 1.390 . S
C294 C295 1.394 1_556 S
C294 C300 1.465 . S
C295 C290 1.399 . S
C295 C294 1.394 1_554 S
C295 C296 1.516 . S
C296 C295 1.516 . S
C296 C297 1.502 . S
C296 C298 1.561 . S
C296 C299 1.526 . S
C297 H281 0.959 . S
C297 H282 0.959 . S
C297 H283 0.961 . S
C297 C296 1.502 . S
C298 H284 0.960 . S
C298 H285 0.961 . S
C298 H286 0.959 . S
C298 C296 1.561 . S
C299 C296 1.526 . S
C299 C300 1.396 1_554 S
C299 C304 1.390 . S
C300 C294 1.465 . S
C300 C299 1.396 1_556 S
C300 C301 1.399 . S
C301 H287 0.929 . S
C301 C300 1.399 . S
C301 C302 1.385 . S
C302 H288 0.931 . S
C302 C301 1.385 . S
C302 C303 1.389 . S
C303 C302 1.389 . S
C303 C304 1.387 1_556 S
C304 H289 0.930 . S
C304 C299 1.390 . S
C304 C303 1.387 1_554 S
H305 C317 0.930 . S
H306 C319 0.930 . S
H307 C320 0.930 . S
H308 C324 0.959 . S
H309 C324 0.959 . S
H310 C324 0.961 . S
H311 C325 0.960 . S
H312 C325 0.961 . S
H313 C325 0.959 . S
H314 C328 0.929 . S
H315 C329 0.931 . S
H316 C331 0.930 . S
C317 H305 0.930 . S
C317 C318 1.399 1_554 S
C317 C322 1.399 . S
C318 C317 1.399 1_556 S
C318 C319 1.376 . S
C319 H306 0.930 . S
C319 C318 1.376 . S
C319 C320 1.388 . S
C320 H307 0.930 . S
C320 C319 1.388 . S
C320 C321 1.390 . S
C321 C320 1.390 . S
C321 C322 1.394 1_556 S
C321 C327 1.465 . S
C322 C317 1.399 . S
C322 C321 1.394 1_554 S
C322 C323 1.516 . S
C323 C322 1.516 . S
C323 C324 1.502 . S
C323 C325 1.561 . S
C323 C326 1.526 . S
C324 H308 0.959 . S
C324 H309 0.959 . S
C324 H310 0.961 . S
C324 C323 1.502 . S
C325 H311 0.960 . S
C325 H312 0.961 . S
C325 H313 0.959 . S
C325 C323 1.561 . S
C326 C323 1.526 . S
C326 C327 1.396 1_554 S
C326 C331 1.390 . S
C327 C321 1.465 . S
C327 C326 1.396 1_556 S
C327 C328 1.399 . S
C328 H314 0.929 . S
C328 C327 1.399 . S
C328 C329 1.385 . S
C329 H315 0.931 . S
C329 C328 1.385 . S
C329 C330 1.389 . S
C330 C329 1.389 . S
C330 C331 1.387 1_556 S
C331 H316 0.930 . S
C331 C326 1.390 . S
C331 C330 1.387 1_554 S
H332 C344 0.930 . S
H333 C346 0.930 . S
H334 C347 0.930 . S
H335 C351 0.960 . S
H336 C351 0.961 . S
H337 C351 0.959 1_545 S
H338 C352 0.979 . S
H339 C352 0.944 1_565 S
H340 C352 0.955 1_565 S
H341 C355 0.929 . S
H342 C356 0.931 . S
H343 C358 0.930 . S
C344 H332 0.930 . S
C344 C345 1.399 . S
C344 C349 1.399 . S
C345 C344 1.399 . S
C345 C346 1.376 . S
C346 H333 0.930 . S
C346 C345 1.376 . S
C346 C347 1.388 . S
C347 H334 0.930 . S
C347 C346 1.388 . S
C347 C348 1.390 . S
C348 C347 1.390 . S
C348 C349 1.394 . S
C348 C354 1.465 1_545 S
C349 C344 1.399 . S
C349 C348 1.394 . S
C349 C350 1.522 . S
C350 C349 1.522 . S
C350 C351 1.502 1_545 S
C350 C352 1.561 . S
C350 C353 1.519 1_545 S
C351 H335 0.960 . S
C351 H336 0.961 . S
C351 H337 0.959 1_565 S
C351 C350 1.502 1_565 S
C352 H338 0.979 . S
C352 H339 0.944 1_545 S
C352 H340 0.955 1_545 S
C352 C350 1.561 . S
C353 C350 1.519 1_565 S
C353 C354 1.396 . S
C353 C358 1.390 . S
C354 C348 1.465 1_565 S
C354 C353 1.396 . S
C354 C355 1.399 . S
C355 H341 0.929 . S
C355 C354 1.399 . S
C355 C356 1.385 . S
C356 H342 0.931 . S
C356 C355 1.385 . S
C356 C357 1.389 . S
C357 C356 1.389 . S
C357 C358 1.387 . S
C358 H343 0.930 . S
C358 C353 1.390 . S
C358 C357 1.387 . S
H359 C371 0.930 . S
H360 C373 0.930 . S
H361 C374 0.930 . S
H362 C378 0.965 . S
H363 C378 0.994 . S
H364 C378 0.924 1_655 S
H365 C379 0.959 . S
H366 C379 0.962 1_455 S
H367 C379 0.959 1_455 S
H368 C382 0.929 . S
H369 C383 0.931 . S
H370 C385 0.930 . S
C371 H359 0.930 . S
C371 C372 1.399 . S
C371 C376 1.399 . S
C372 C371 1.399 . S
C372 C373 1.376 . S
C373 H360 0.930 . S
C373 C372 1.376 . S
C373 C374 1.388 . S
C374 H361 0.930 . S
C374 C373 1.388 . S
C374 C375 1.390 . S
C375 C374 1.390 . S
C375 C376 1.394 . S
C375 C381 1.465 1_655 S
C376 C371 1.399 . S
C376 C375 1.394 . S
C376 C377 1.515 1_655 S
C377 C376 1.515 1_455 S
C377 C378 1.501 . S
C377 C379 1.561 1_455 S
C377 C380 1.527 . S
C378 H362 0.965 . S
C378 H363 0.994 . S
C378 H364 0.924 1_455 S
C378 C377 1.501 . S
C379 H365 0.959 . S
C379 H366 0.962 1_655 S
C379 H367 0.959 1_655 S
C379 C377 1.561 1_655 S
C380 C377 1.527 . S
C380 C381 1.396 . S
C380 C385 1.390 . S
C381 C375 1.465 1_455 S
C381 C380 1.396 . S
C381 C382 1.399 . S
C382 H368 0.929 . S
C382 C381 1.399 . S
C382 C383 1.385 . S
C383 H369 0.931 . S
C383 C382 1.385 . S
C383 C384 1.389 . S
C384 C383 1.389 . S
C384 C385 1.387 . S
C385 H370 0.930 . S
C385 C380 1.390 . S
C385 C384 1.387 . S
H386 C398 0.930 . S
H387 C400 0.930 . S
H388 C401 0.930 . S
H389 C405 0.959 . S
H390 C405 0.959 . S
H391 C405 0.961 1_545 S
H392 C406 0.929 1_545 S
H393 C406 0.990 . S
H394 C406 0.962 . S
H395 C409 0.929 . S
H396 C410 0.931 . S
H397 C412 0.930 . S
C398 H386 0.930 . S
C398 C399 1.399 . S
C398 C403 1.399 . S
C399 C398 1.399 . S
C399 C400 1.376 . S
C400 H387 0.930 . S
C400 C399 1.376 . S
C400 C401 1.388 . S
C401 H388 0.930 . S
C401 C400 1.388 . S
C401 C402 1.390 . S
C402 C401 1.390 . S
C402 C403 1.394 . S
C402 C408 1.465 1_545 S
C403 C398 1.399 . S
C403 C402 1.394 . S
C403 C404 1.501 1_545 S
C404 C403 1.501 1_565 S
C404 C405 1.502 . S
C404 C406 1.561 . S
C404 C407 1.541 . S
C405 H389 0.959 . S
C405 H390 0.959 . S
C405 H391 0.961 1_565 S
C405 C404 1.502 . S
C406 H392 0.929 1_565 S
C406 H393 0.990 . S
C406 H394 0.962 . S
C406 C404 1.561 . S
C407 C404 1.541 . S
C407 C408 1.396 . S
C407 C412 1.390 . S
C408 C402 1.465 1_565 S
C408 C407 1.396 . S
C408 C409 1.399 . S
C409 H395 0.929 . S
C409 C408 1.399 . S
C409 C410 1.385 . S
C410 H396 0.931 . S
C410 C409 1.385 . S
C410 C411 1.389 . S
C411 C410 1.389 . S
C411 C412 1.387 . S
C412 H397 0.930 . S
C412 C407 1.390 . S
C412 C411 1.387 . S
H413 C425 0.930 . S
H414 C427 0.930 . S
H415 C428 0.930 . S
H416 C432 0.960 . S
H417 C432 0.961 . S
H418 C432 0.958 1_455 S
H419 C433 0.950 1_455 S
H420 C433 0.970 . S
H421 C433 0.960 . S
H422 C436 0.929 . S
H423 C437 0.931 . S
H424 C439 0.930 . S
C425 H413 0.930 . S
C425 C426 1.399 . S
C425 C430 1.399 . S
C426 C425 1.399 . S
C426 C427 1.376 . S
C427 H414 0.930 . S
C427 C426 1.376 . S
C427 C428 1.388 . S
C428 H415 0.930 . S
C428 C427 1.388 . S
C428 C429 1.390 . S
C429 C428 1.390 . S
C429 C430 1.394 . S
C429 C435 1.465 1_455 S
C430 C425 1.399 . S
C430 C429 1.394 . S
C430 C431 1.521 1_455 S
C431 C430 1.521 1_655 S
C431 C432 1.502 . S
C431 C433 1.561 . S
C431 C434 1.521 . S
C432 H416 0.960 . S
C432 H417 0.961 . S
C432 H418 0.958 1_655 S
C432 C431 1.502 . S
C433 H419 0.950 1_655 S
C433 H420 0.970 . S
C433 H421 0.960 . S
C433 C431 1.561 . S
C434 C431 1.521 . S
C434 C435 1.396 . S
C434 C439 1.390 . S
C435 C429 1.465 1_655 S
C435 C434 1.396 . S
C435 C436 1.399 . S
C436 H422 0.929 . S
C436 C435 1.399 . S
C436 C437 1.385 . S
C437 H423 0.931 . S
C437 C436 1.385 . S
C437 C438 1.389 . S
C438 C437 1.389 . S
C438 C439 1.387 . S
C439 H424 0.930 . S
C439 C434 1.390 . S
C439 C438 1.387 . S
H440 C452 0.930 . S
H441 C454 0.930 . S
H442 C455 0.930 . S
H443 C459 0.959 . S
H444 C459 0.959 . S
H445 C459 0.961 . S
H446 C460 0.960 . S
H447 C460 0.961 . S
H448 C460 0.959 . S
H449 C463 0.929 . S
H450 C464 0.931 . S
H451 C466 0.930 . S
C452 H440 0.930 . S
C452 C453 1.399 1_554 S
C452 C457 1.399 . S
C453 C452 1.399 1_556 S
C453 C454 1.376 . S
C454 H441 0.930 . S
C454 C453 1.376 . S
C454 C455 1.388 . S
C455 H442 0.930 . S
C455 C454 1.388 . S
C455 C456 1.390 . S
C456 C455 1.390 . S
C456 C457 1.394 1_556 S
C456 C462 1.465 . S
C457 C452 1.399 . S
C457 C456 1.394 1_554 S
C457 C458 1.516 . S
C458 C457 1.516 . S
C458 C459 1.502 . S
C458 C460 1.561 . S
C458 C461 1.526 . S
C459 H443 0.959 . S
C459 H444 0.959 . S
C459 H445 0.961 . S
C459 C458 1.502 . S
C460 H446 0.960 . S
C460 H447 0.961 . S
C460 H448 0.959 . S
C460 C458 1.561 . S
C461 C458 1.526 . S
C461 C462 1.396 1_554 S
C461 C466 1.390 . S
C462 C456 1.465 . S
C462 C461 1.396 1_556 S
C462 C463 1.399 . S
C463 H449 0.929 . S
C463 C462 1.399 . S
C463 C464 1.385 . S
C464 H450 0.931 . S
C464 C463 1.385 . S
C464 C465 1.389 . S
C465 C464 1.389 . S
C465 C466 1.387 1_556 S
C466 H451 0.930 . S
C466 C461 1.390 . S
C466 C465 1.387 1_554 S
H467 C479 0.930 . S
H468 C481 0.930 . S
H469 C482 0.930 . S
H470 C486 0.959 . S
H471 C486 0.959 . S
H472 C486 0.961 . S
H473 C487 0.960 . S
H474 C487 0.961 . S
H475 C487 0.959 . S
H476 C490 0.929 . S
H477 C491 0.931 . S
H478 C493 0.930 . S
C479 H467 0.930 . S
C479 C480 1.399 1_554 S
C479 C484 1.399 . S
C480 C479 1.399 1_556 S
C480 C481 1.376 . S
C481 H468 0.930 . S
C481 C480 1.376 . S
C481 C482 1.388 . S
C482 H469 0.930 . S
C482 C481 1.388 . S
C482 C483 1.390 . S
C483 C482 1.390 . S
C483 C484 1.394 1_556 S
C483 C489 1.465 . S
C484 C479 1.399 . S
C484 C483 1.394 1_554 S
C484 C485 1.516 . S
C485 C484 1.516 . S
C485 C486 1.502 . S
C485 C487 1.561 . S
C485 C488 1.526 . S
C486 H470 0.959 . S
C486 H471 0.959 . S
C486 H472 0.961 . S
C486 C485 1.502 . S
C487 H473 0.960 . S
C487 H474 0.961 . S
C487 H475 0.959 . S
C487 C485 1.561 . S
C488 C485 1.526 . S
C488 C489 1.396 1_554 S
C488 C493 1.390 . S
C489 C483 1.465 . S
C489 C488 1.396 1_556 S
C489 C490 1.399 . S
C490 H476 0.929 . S
C490 C489 1.399 . S
C490 C491 1.385 . S
C491 H477 0.931 . S
C491 C490 1.385 . S
C491 C492 1.389 . S
C492 C491 1.389 . S
C492 C493 1.387 1_556 S
C493 H478 0.930 . S
C493 C488 1.390 . S
C493 C492 1.387 1_554 S
H494 C506 0.930 . S
H495 C508 0.930 . S
H496 C509 0.930 . S
H497 C513 0.959 . S
H498 C513 0.959 . S
H499 C513 0.961 . S
H500 C514 0.960 . S
H501 C514 0.961 . S
H502 C514 0.959 . S
H503 C517 0.929 . S
H504 C518 0.931 . S
H505 C520 0.930 . S
C506 H494 0.930 . S
C506 C507 1.399 1_554 S
C506 C511 1.399 . S
C507 C506 1.399 1_556 S
C507 C508 1.376 . S
C508 H495 0.930 . S
C508 C507 1.376 . S
C508 C509 1.388 . S
C509 H496 0.930 . S
C509 C508 1.388 . S
C509 C510 1.390 . S
C510 C509 1.390 . S
C510 C511 1.394 1_556 S
C510 C516 1.465 . S
C511 C506 1.399 . S
C511 C510 1.394 1_554 S
C511 C512 1.516 . S
C512 C511 1.516 . S
C512 C513 1.502 . S
C512 C514 1.561 . S
C512 C515 1.526 . S
C513 H497 0.959 . S
C513 H498 0.959 . S
C513 H499 0.961 . S
C513 C512 1.502 . S
C514 H500 0.960 . S
C514 H501 0.961 . S
C514 H502 0.959 . S
C514 C512 1.561 . S
C515 C512 1.526 . S
C515 C516 1.396 1_554 S
C515 C520 1.390 . S
C516 C510 1.465 . S
C516 C515 1.396 1_556 S
C516 C517 1.399 . S
C517 H503 0.929 . S
C517 C516 1.399 . S
C517 C518 1.385 . S
C518 H504 0.931 . S
C518 C517 1.385 . S
C518 C519 1.389 . S
C519 C518 1.389 . S
C519 C520 1.387 1_556 S
C520 H505 0.930 . S
C520 C515 1.390 . S
C520 C519 1.387 1_554 S
H521 C533 0.930 . S
H522 C535 0.930 . S
H523 C536 0.930 . S
H524 C540 0.959 . S
H525 C540 0.959 . S
H526 C540 0.961 . S
H527 C541 0.960 . S
H528 C541 0.961 . S
H529 C541 0.959 . S
H530 C544 0.929 . S
H531 C545 0.931 . S
H532 C547 0.930 . S
C533 H521 0.930 . S
C533 C534 1.399 1_554 S
C533 C538 1.399 . S
C534 C533 1.399 1_556 S
C534 C535 1.376 . S
C535 H522 0.930 . S
C535 C534 1.376 . S
C535 C536 1.388 . S
C536 H523 0.930 . S
C536 C535 1.388 . S
C536 C537 1.390 . S
C537 C536 1.390 . S
C537 C538 1.394 1_556 S
C537 C543 1.465 . S
C538 C533 1.399 . S
C538 C537 1.394 1_554 S
C538 C539 1.516 . S
C539 C538 1.516 . S
C539 C540 1.502 . S
C539 C541 1.561 . S
C539 C542 1.526 . S
C540 H524 0.959 . S
C540 H525 0.959 . S
C540 H526 0.961 . S
C540 C539 1.502 . S
C541 H527 0.960 . S
C541 H528 0.961 . S
C541 H529 0.959 . S
C541 C539 1.561 . S
C542 C539 1.526 . S
C542 C543 1.396 1_554 S
C542 C547 1.390 . S
C543 C537 1.465 . S
C543 C542 1.396 1_556 S
C543 C544 1.399 . S
C544 H530 0.929 . S
C544 C543 1.399 . S
C544 C545 1.385 . S
C545 H531 0.931 . S
C545 C544 1.385 . S
C545 C546 1.389 . S
C546 C545 1.389 . S
C546 C547 1.387 1_556 S
C547 H532 0.930 . S
C547 C542 1.390 . S
C547 C546 1.387 1_554 S
H548 C560 0.930 . S
H549 C562 0.930 . S
H550 C563 0.930 . S
H551 C567 0.959 . S
H552 C567 0.959 . S
H553 C567 0.961 . S
H554 C568 0.960 . S
H555 C568 0.961 . S
H556 C568 0.959 . S
H557 C571 0.929 . S
H558 C572 0.931 . S
H559 C574 0.930 . S
C560 H548 0.930 . S
C560 C561 1.399 . S
C560 C565 1.399 . S
C561 C560 1.399 . S
C561 C562 1.376 . S
C562 H549 0.930 . S
C562 C561 1.376 . S
C562 C563 1.388 . S
C563 H550 0.930 . S
C563 C562 1.388 . S
C563 C564 1.390 . S
C564 C563 1.390 . S
C564 C565 1.394 . S
C564 C570 1.465 . S
C565 C560 1.399 . S
C565 C564 1.394 . S
C565 C566 1.516 . S
C566 C565 1.516 . S
C566 C567 1.502 . S
C566 C568 1.561 . S
C566 C569 1.526 . S
C567 H551 0.959 . S
C567 H552 0.959 . S
C567 H553 0.961 . S
C567 C566 1.502 . S
C568 H554 0.960 . S
C568 H555 0.961 . S
C568 H556 0.959 . S
C568 C566 1.561 . S
C569 C566 1.526 . S
C569 C570 1.396 . S
C569 C574 1.390 . S
C570 C564 1.465 . S
C570 C569 1.396 . S
C570 C571 1.399 . S
C571 H557 0.929 . S
C571 C570 1.399 . S
C571 C572 1.385 . S
C572 H558 0.931 . S
C572 C571 1.385 . S
C572 C573 1.389 . S
C573 C572 1.389 . S
C573 C574 1.387 . S
C574 H559 0.930 . S
C574 C569 1.390 . S
C574 C573 1.387 . S
H575 C587 0.930 . S
H576 C589 0.930 . S
H577 C590 0.930 . S
H578 C594 0.959 . S
H579 C594 0.959 . S
H580 C594 0.961 . S
H581 C595 0.960 . S
H582 C595 0.961 . S
H583 C595 0.959 . S
H584 C598 0.929 . S
H585 C599 0.931 . S
H586 C601 0.930 . S
C587 H575 0.930 . S
C587 C588 1.399 . S
C587 C592 1.399 . S
C588 C587 1.399 . S
C588 C589 1.376 . S
C589 H576 0.930 . S
C589 C588 1.376 . S
C589 C590 1.388 . S
C590 H577 0.930 . S
C590 C589 1.388 . S
C590 C591 1.390 . S
C591 C590 1.390 . S
C591 C592 1.394 . S
C591 C597 1.465 . S
C592 C587 1.399 . S
C592 C591 1.394 . S
C592 C593 1.516 . S
C593 C592 1.516 . S
C593 C594 1.502 . S
C593 C595 1.561 . S
C593 C596 1.526 . S
C594 H578 0.959 . S
C594 H579 0.959 . S
C594 H580 0.961 . S
C594 C593 1.502 . S
C595 H581 0.960 . S
C595 H582 0.961 . S
C595 H583 0.959 . S
C595 C593 1.561 . S
C596 C593 1.526 . S
C596 C597 1.396 . S
C596 C601 1.390 . S
C597 C591 1.465 . S
C597 C596 1.396 . S
C597 C598 1.399 . S
C598 H584 0.929 . S
C598 C597 1.399 . S
C598 C599 1.385 . S
C599 H585 0.931 . S
C599 C598 1.385 . S
C599 C600 1.389 . S
C600 C599 1.389 . S
C600 C601 1.387 . S
C601 H586 0.930 . S
C601 C596 1.390 . S
C601 C600 1.387 . S
H602 C614 0.930 . S
H603 C616 0.930 . S
H604 C617 0.930 . S
H605 C621 0.959 . S
H606 C621 0.959 . S
H607 C621 0.961 . S
H608 C622 0.960 . S
H609 C622 0.961 . S
H610 C622 0.959 . S
H611 C625 0.929 . S
H612 C626 0.931 . S
H613 C628 0.930 . S
C614 H602 0.930 . S
C614 C615 1.399 . S
C614 C619 1.399 . S
C615 C614 1.399 . S
C615 C616 1.376 . S
C616 H603 0.930 . S
C616 C615 1.376 . S
C616 C617 1.388 . S
C617 H604 0.930 . S
C617 C616 1.388 . S
C617 C618 1.390 . S
C618 C617 1.390 . S
C618 C619 1.394 . S
C618 C624 1.465 . S
C619 C614 1.399 . S
C619 C618 1.394 . S
C619 C620 1.516 . S
C620 C619 1.516 . S
C620 C621 1.502 . S
C620 C622 1.561 . S
C620 C623 1.526 . S
C621 H605 0.959 . S
C621 H606 0.959 . S
C621 H607 0.961 . S
C621 C620 1.502 . S
C622 H608 0.960 . S
C622 H609 0.961 . S
C622 H610 0.959 . S
C622 C620 1.561 . S
C623 C620 1.526 . S
C623 C624 1.396 . S
C623 C628 1.390 . S
C624 C618 1.465 . S
C624 C623 1.396 . S
C624 C625 1.399 . S
C625 H611 0.929 . S
C625 C624 1.399 . S
C625 C626 1.385 . S
C626 H612 0.931 . S
C626 C625 1.385 . S
C626 C627 1.389 . S
C627 C626 1.389 . S
C627 C628 1.387 . S
C628 H613 0.930 . S
C628 C623 1.390 . S
C628 C627 1.387 . S
H629 C641 0.930 . S
H630 C643 0.930 . S
H631 C644 0.930 . S
H632 C648 0.959 . S
H633 C648 0.959 . S
H634 C648 0.961 . S
H635 C649 0.960 . S
H636 C649 0.961 . S
H637 C649 0.959 . S
H638 C652 0.929 . S
H639 C653 0.931 . S
H640 C655 0.930 . S
C641 H629 0.930 . S
C641 C642 1.399 . S
C641 C646 1.399 . S
C642 C641 1.399 . S
C642 C643 1.376 . S
C643 H630 0.930 . S
C643 C642 1.376 . S
C643 C644 1.388 . S
C644 H631 0.930 . S
C644 C643 1.388 . S
C644 C645 1.390 . S
C645 C644 1.390 . S
C645 C646 1.394 . S
C645 C651 1.465 . S
C646 C641 1.399 . S
C646 C645 1.394 . S
C646 C647 1.516 . S
C647 C646 1.516 . S
C647 C648 1.502 . S
C647 C649 1.561 . S
C647 C650 1.526 . S
C648 H632 0.959 . S
C648 H633 0.959 . S
C648 H634 0.961 . S
C648 C647 1.502 . S
C649 H635 0.960 . S
C649 H636 0.961 . S
C649 H637 0.959 . S
C649 C647 1.561 . S
C650 C647 1.526 . S
C650 C651 1.396 . S
C650 C655 1.390 . S
C651 C645 1.465 . S
C651 C650 1.396 . S
C651 C652 1.399 . S
C652 H638 0.929 . S
C652 C651 1.399 . S
C652 C653 1.385 . S
C653 H639 0.931 . S
C653 C652 1.385 . S
C653 C654 1.389 . S
C654 C653 1.389 . S
C654 C655 1.387 . S
C655 H640 0.930 . S
C655 C650 1.390 . S
C655 C654 1.387 . S
H656 C668 0.930 . S
H657 C670 0.930 . S
H658 C671 0.930 . S
H659 C675 0.959 . S
H660 C675 0.959 . S
H661 C675 0.961 . S
H662 C676 0.960 . S
H663 C676 0.961 . S
H664 C676 0.959 . S
H665 C679 0.929 . S
H666 C680 0.931 . S
H667 C682 0.930 . S
C668 H656 0.930 . S
C668 C669 1.399 . S
C668 C673 1.399 . S
C669 C668 1.399 . S
C669 C670 1.376 . S
C670 H657 0.930 . S
C670 C669 1.376 . S
C670 C671 1.388 . S
C671 H658 0.930 . S
C671 C670 1.388 . S
C671 C672 1.390 . S
C672 C671 1.390 . S
C672 C673 1.394 . S
C672 C678 1.465 . S
C673 C668 1.399 . S
C673 C672 1.394 . S
C673 C674 1.516 . S
C674 C673 1.516 . S
C674 C675 1.502 . S
C674 C676 1.561 . S
C674 C677 1.526 . S
C675 H659 0.959 . S
C675 H660 0.959 . S
C675 H661 0.961 . S
C675 C674 1.502 . S
C676 H662 0.960 . S
C676 H663 0.961 . S
C676 H664 0.959 . S
C676 C674 1.561 . S
C677 C674 1.526 . S
C677 C678 1.396 . S
C677 C682 1.390 . S
C678 C672 1.465 . S
C678 C677 1.396 . S
C678 C679 1.399 . S
C679 H665 0.929 . S
C679 C678 1.399 . S
C679 C680 1.385 . S
C680 H666 0.931 . S
C680 C679 1.385 . S
C680 C681 1.389 . S
C681 C680 1.389 . S
C681 C682 1.387 . S
C682 H667 0.930 . S
C682 C677 1.390 . S
C682 C681 1.387 . S
H683 C695 0.930 . S
H684 C697 0.930 . S
H685 C698 0.930 . S
H686 C702 0.959 . S
H687 C702 0.959 . S
H688 C702 0.961 . S
H689 C703 0.960 . S
H690 C703 0.961 . S
H691 C703 0.959 . S
H692 C706 0.929 . S
H693 C707 0.931 . S
H694 C709 0.930 . S
C695 H683 0.930 . S
C695 C696 1.399 . S
C695 C700 1.399 . S
C696 C695 1.399 . S
C696 C697 1.376 . S
C697 H684 0.930 . S
C697 C696 1.376 . S
C697 C698 1.388 . S
C698 H685 0.930 . S
C698 C697 1.388 . S
C698 C699 1.390 . S
C699 C698 1.390 . S
C699 C700 1.394 . S
C699 C705 1.465 . S
C700 C695 1.399 . S
C700 C699 1.394 . S
C700 C701 1.516 . S
C701 C700 1.516 . S
C701 C702 1.502 . S
C701 C703 1.561 . S
C701 C704 1.526 . S
C702 H686 0.959 . S
C702 H687 0.959 . S
C702 H688 0.961 . S
C702 C701 1.502 . S
C703 H689 0.960 . S
C703 H690 0.961 . S
C703 H691 0.959 . S
C703 C701 1.561 . S
C704 C701 1.526 . S
C704 C705 1.396 . S
C704 C709 1.390 . S
C705 C699 1.465 . S
C705 C704 1.396 . S
C705 C706 1.399 . S
C706 H692 0.929 . S
C706 C705 1.399 . S
C706 C707 1.385 . S
C707 H693 0.931 . S
C707 C706 1.385 . S
C707 C708 1.389 . S
C708 C707 1.389 . S
C708 C709 1.387 . S
C709 H694 0.930 . S
C709 C704 1.390 . S
C709 C708 1.387 . S
H710 C722 0.930 . S
H711 C724 0.930 . S
H712 C725 0.930 . S
H713 C729 0.959 . S
H714 C729 0.959 . S
H715 C729 0.961 . S
H716 C730 0.960 . S
H717 C730 0.961 . S
H718 C730 0.959 . S
H719 C733 0.929 . S
H720 C734 0.931 . S
H721 C736 0.930 . S
C722 H710 0.930 . S
C722 C723 1.399 . S
C722 C727 1.399 . S
C723 C722 1.399 . S
C723 C724 1.376 . S
C724 H711 0.930 . S
C724 C723 1.376 . S
C724 C725 1.388 . S
C725 H712 0.930 . S
C725 C724 1.388 . S
C725 C726 1.390 . S
C726 C725 1.390 . S
C726 C727 1.394 . S
C726 C732 1.465 . S
C727 C722 1.399 . S
C727 C726 1.394 . S
C727 C728 1.516 . S
C728 C727 1.516 . S
C728 C729 1.502 . S
C728 C730 1.561 . S
C728 C731 1.526 . S
C729 H713 0.959 . S
C729 H714 0.959 . S
C729 H715 0.961 . S
C729 C728 1.502 . S
C730 H716 0.960 . S
C730 H717 0.961 . S
C730 H718 0.959 . S
C730 C728 1.561 . S
C731 C728 1.526 . S
C731 C732 1.396 . S
C731 C736 1.390 . S
C732 C726 1.465 . S
C732 C731 1.396 . S
C732 C733 1.399 . S
C733 H719 0.929 . S
C733 C732 1.399 . S
C733 C734 1.385 . S
C734 H720 0.931 . S
C734 C733 1.385 . S
C734 C735 1.389 . S
C735 C734 1.389 . S
C735 C736 1.387 . S
C736 H721 0.930 . S
C736 C731 1.390 . S
C736 C735 1.387 . S
H737 C749 0.930 . S
H738 C751 0.930 . S
H739 C752 0.930 . S
H740 C756 0.959 . S
H741 C756 0.959 . S
H742 C756 0.961 . S
H743 C757 0.960 . S
H744 C757 0.961 . S
H745 C757 0.959 . S
H746 C760 0.929 . S
H747 C761 0.931 . S
H748 C763 0.930 . S
C749 H737 0.930 . S
C749 C750 1.399 . S
C749 C754 1.399 . S
C750 C749 1.399 . S
C750 C751 1.376 . S
C751 H738 0.930 . S
C751 C750 1.376 . S
C751 C752 1.388 . S
C752 H739 0.930 . S
C752 C751 1.388 . S
C752 C753 1.390 . S
C753 C752 1.390 . S
C753 C754 1.394 . S
C753 C759 1.465 . S
C754 C749 1.399 . S
C754 C753 1.394 . S
C754 C755 1.516 . S
C755 C754 1.516 . S
C755 C756 1.502 . S
C755 C757 1.561 . S
C755 C758 1.526 . S
C756 H740 0.959 . S
C756 H741 0.959 . S
C756 H742 0.961 . S
C756 C755 1.502 . S
C757 H743 0.960 . S
C757 H744 0.961 . S
C757 H745 0.959 . S
C757 C755 1.561 . S
C758 C755 1.526 . S
C758 C759 1.396 . S
C758 C763 1.390 . S
C759 C753 1.465 . S
C759 C758 1.396 . S
C759 C760 1.399 . S
C760 H746 0.929 . S
C760 C759 1.399 . S
C760 C761 1.385 . S
C761 H747 0.931 . S
C761 C760 1.385 . S
C761 C762 1.389 . S
C762 C761 1.389 . S
C762 C763 1.387 . S
C763 H748 0.930 . S
C763 C758 1.390 . S
C763 C762 1.387 . S
H764 C776 0.930 . S
H765 C778 0.930 . S
H766 C779 0.930 . S
H767 C783 0.959 . S
H768 C783 0.959 . S
H769 C783 0.961 . S
H770 C784 0.960 . S
H771 C784 0.961 . S
H772 C784 0.959 . S
H773 C787 0.929 . S
H774 C788 0.931 . S
H775 C790 0.930 . S
C776 H764 0.930 . S
C776 C777 1.399 . S
C776 C781 1.399 . S
C777 C776 1.399 . S
C777 C778 1.376 . S
C778 H765 0.930 . S
C778 C777 1.376 . S
C778 C779 1.388 . S
C779 H766 0.930 . S
C779 C778 1.388 . S
C779 C780 1.390 . S
C780 C779 1.390 . S
C780 C781 1.394 . S
C780 C786 1.465 . S
C781 C776 1.399 . S
C781 C780 1.394 . S
C781 C782 1.516 . S
C782 C781 1.516 . S
C782 C783 1.502 . S
C782 C784 1.561 . S
C782 C785 1.526 . S
C783 H767 0.959 . S
C783 H768 0.959 . S
C783 H769 0.961 . S
C783 C782 1.502 . S
C784 H770 0.960 . S
C784 H771 0.961 . S
C784 H772 0.959 . S
C784 C782 1.561 . S
C785 C782 1.526 . S
C785 C786 1.396 . S
C785 C790 1.390 . S
C786 C780 1.465 . S
C786 C785 1.396 . S
C786 C787 1.399 . S
C787 H773 0.929 . S
C787 C786 1.399 . S
C787 C788 1.385 . S
C788 H774 0.931 . S
C788 C787 1.385 . S
C788 C789 1.389 . S
C789 C788 1.389 . S
C789 C790 1.387 . S
C790 H775 0.930 . S
C790 C785 1.390 . S
C790 C789 1.387 . S
H791 C803 0.930 . S
H792 C805 0.930 . S
H793 C806 0.930 . S
H794 C810 0.959 . S
H795 C810 0.959 . S
H796 C810 0.961 . S
H797 C811 0.960 . S
H798 C811 0.961 . S
H799 C811 0.959 . S
H800 C814 0.929 . S
H801 C815 0.931 . S
H802 C817 0.930 . S
C803 H791 0.930 . S
C803 C804 1.399 . S
C803 C808 1.399 . S
C804 C803 1.399 . S
C804 C805 1.376 . S
C805 H792 0.930 . S
C805 C804 1.376 . S
C805 C806 1.388 . S
C806 H793 0.930 . S
C806 C805 1.388 . S
C806 C807 1.390 . S
C807 C806 1.390 . S
C807 C808 1.394 . S
C807 C813 1.465 . S
C808 C803 1.399 . S
C808 C807 1.394 . S
C808 C809 1.516 . S
C809 C808 1.516 . S
C809 C810 1.502 . S
C809 C811 1.561 . S
C809 C812 1.526 . S
C810 H794 0.959 . S
C810 H795 0.959 . S
C810 H796 0.961 . S
C810 C809 1.502 . S
C811 H797 0.960 . S
C811 H798 0.961 . S
C811 H799 0.959 . S
C811 C809 1.561 . S
C812 C809 1.526 . S
C812 C813 1.396 . S
C812 C817 1.390 . S
C813 C807 1.465 . S
C813 C812 1.396 . S
C813 C814 1.399 . S
C814 H800 0.929 . S
C814 C813 1.399 . S
C814 C815 1.385 . S
C815 H801 0.931 . S
C815 C814 1.385 . S
C815 C816 1.389 . S
C816 C815 1.389 . S
C816 C817 1.387 . S
C817 H802 0.930 . S
C817 C812 1.390 . S
C817 C816 1.387 . S
H818 C830 0.930 . S
H819 C832 0.930 . S
H820 C833 0.930 . S
H821 C837 0.959 . S
H822 C837 0.959 . S
H823 C837 0.961 . S
H824 C838 0.960 . S
H825 C838 0.961 . S
H826 C838 0.959 . S
H827 C841 0.929 . S
H828 C842 0.931 . S
H829 C844 0.930 . S
C830 H818 0.930 . S
C830 C831 1.399 . S
C830 C835 1.399 . S
C831 C830 1.399 . S
C831 C832 1.376 . S
C832 H819 0.930 . S
C832 C831 1.376 . S
C832 C833 1.388 . S
C833 H820 0.930 . S
C833 C832 1.388 . S
C833 C834 1.390 . S
C834 C833 1.390 . S
C834 C835 1.394 . S
C834 C840 1.465 . S
C835 C830 1.399 . S
C835 C834 1.394 . S
C835 C836 1.516 . S
C836 C835 1.516 . S
C836 C837 1.502 . S
C836 C838 1.561 . S
C836 C839 1.526 . S
C837 H821 0.959 . S
C837 H822 0.959 . S
C837 H823 0.961 . S
C837 C836 1.502 . S
C838 H824 0.960 . S
C838 H825 0.961 . S
C838 H826 0.959 . S
C838 C836 1.561 . S
C839 C836 1.526 . S
C839 C840 1.396 . S
C839 C844 1.390 . S
C840 C834 1.465 . S
C840 C839 1.396 . S
C840 C841 1.399 . S
C841 H827 0.929 . S
C841 C840 1.399 . S
C841 C842 1.385 . S
C842 H828 0.931 . S
C842 C841 1.385 . S
C842 C843 1.389 . S
C843 C842 1.389 . S
C843 C844 1.387 . S
C844 H829 0.930 . S
C844 C839 1.390 . S
C844 C843 1.387 . S
H845 C857 0.930 . S
H846 C859 0.930 . S
H847 C860 0.930 . S
H848 C864 0.959 . S
H849 C864 0.959 . S
H850 C864 0.961 . S
H851 C865 0.960 . S
H852 C865 0.961 . S
H853 C865 0.959 . S
H854 C868 0.929 . S
H855 C869 0.931 . S
H856 C871 0.930 . S
C857 H845 0.930 . S
C857 C858 1.399 . S
C857 C862 1.399 . S
C858 C857 1.399 . S
C858 C859 1.376 . S
C859 H846 0.930 . S
C859 C858 1.376 . S
C859 C860 1.388 . S
C860 H847 0.930 . S
C860 C859 1.388 . S
C860 C861 1.390 . S
C861 C860 1.390 . S
C861 C862 1.394 . S
C861 C867 1.465 . S
C862 C857 1.399 . S
C862 C861 1.394 . S
C862 C863 1.516 . S
C863 C862 1.516 . S
C863 C864 1.502 . S
C863 C865 1.561 . S
C863 C866 1.526 . S
C864 H848 0.959 . S
C864 H849 0.959 . S
C864 H850 0.961 . S
C864 C863 1.502 . S
C865 H851 0.960 . S
C865 H852 0.961 . S
C865 H853 0.959 . S
C865 C863 1.561 . S
C866 C863 1.526 . S
C866 C867 1.396 . S
C866 C871 1.390 . S
C867 C861 1.465 . S
C867 C866 1.396 . S
C867 C868 1.399 . S
C868 H854 0.929 . S
C868 C867 1.399 . S
C868 C869 1.385 . S
C869 H855 0.931 . S
C869 C868 1.385 . S
C869 C870 1.389 . S
C870 C869 1.389 . S
C870 C871 1.387 . S
C871 H856 0.930 . S
C871 C866 1.390 . S
C871 C870 1.387 . S
H872 C884 0.930 . S
H873 C886 0.930 . S
H874 C887 0.930 . S
H875 C891 0.959 . S
H876 C891 0.959 . S
H877 C891 0.961 . S
H878 C892 0.960 . S
H879 C892 0.961 . S
H880 C892 0.959 . S
H881 C895 0.929 . S
H882 C896 0.931 . S
H883 C898 0.930 . S
C884 H872 0.930 . S
C884 C885 1.399 . S
C884 C889 1.399 . S
C885 C884 1.399 . S
C885 C886 1.376 . S
C886 H873 0.930 . S
C886 C885 1.376 . S
C886 C887 1.388 . S
C887 H874 0.930 . S
C887 C886 1.388 . S
C887 C888 1.390 . S
C888 C887 1.390 . S
C888 C889 1.394 . S
C888 C894 1.465 . S
C889 C884 1.399 . S
C889 C888 1.394 . S
C889 C890 1.516 . S
C890 C889 1.516 . S
C890 C891 1.502 . S
C890 C892 1.561 . S
C890 C893 1.526 . S
C891 H875 0.959 . S
C891 H876 0.959 . S
C891 H877 0.961 . S
C891 C890 1.502 . S
C892 H878 0.960 . S
C892 H879 0.961 . S
C892 H880 0.959 . S
C892 C890 1.561 . S
C893 C890 1.526 . S
C893 C894 1.396 . S
C893 C898 1.390 . S
C894 C888 1.465 . S
C894 C893 1.396 . S
C894 C895 1.399 . S
C895 H881 0.929 . S
C895 C894 1.399 . S
C895 C896 1.385 . S
C896 H882 0.931 . S
C896 C895 1.385 . S
C896 C897 1.389 . S
C897 C896 1.389 . S
C897 C898 1.387 . S
C898 H883 0.930 . S
C898 C893 1.390 . S
C898 C897 1.387 . S
H899 C911 0.930 . S
H900 C913 0.930 . S
H901 C914 0.930 . S
H902 C918 0.959 . S
H903 C918 0.959 . S
H904 C918 0.961 . S
H905 C919 0.960 . S
H906 C919 0.961 . S
H907 C919 0.959 . S
H908 C922 0.929 . S
H909 C923 0.931 . S
H910 C925 0.930 . S
C911 H899 0.930 . S
C911 C912 1.399 . S
C911 C916 1.399 . S
C912 C911 1.399 . S
C912 C913 1.376 . S
C913 H900 0.930 . S
C913 C912 1.376 . S
C913 C914 1.388 . S
C914 H901 0.930 . S
C914 C913 1.388 . S
C914 C915 1.390 . S
C915 C914 1.390 . S
C915 C916 1.394 . S
C915 C921 1.465 . S
C916 C911 1.399 . S
C916 C915 1.394 . S
C916 C917 1.516 . S
C917 C916 1.516 . S
C917 C918 1.502 . S
C917 C919 1.561 . S
C917 C920 1.526 . S
C918 H902 0.959 . S
C918 H903 0.959 . S
C918 H904 0.961 . S
C918 C917 1.502 . S
C919 H905 0.960 . S
C919 H906 0.961 . S
C919 H907 0.959 . S
C919 C917 1.561 . S
C920 C917 1.526 . S
C920 C921 1.396 . S
C920 C925 1.390 . S
C921 C915 1.465 . S
C921 C920 1.396 . S
C921 C922 1.399 . S
C922 H908 0.929 . S
C922 C921 1.399 . S
C922 C923 1.385 . S
C923 H909 0.931 . S
C923 C922 1.385 . S
C923 C924 1.389 . S
C924 C923 1.389 . S
C924 C925 1.387 . S
C925 H910 0.930 . S
C925 C920 1.390 . S
C925 C924 1.387 . S
H926 C938 0.930 . S
H927 C940 0.930 . S
H928 C941 0.930 . S
H929 C945 0.959 . S
H930 C945 0.959 . S
H931 C945 0.961 . S
H932 C946 0.960 . S
H933 C946 0.961 . S
H934 C946 0.959 . S
H935 C949 0.929 . S
H936 C950 0.931 . S
H937 C952 0.930 . S
C938 H926 0.930 . S
C938 C939 1.399 . S
C938 C943 1.399 . S
C939 C938 1.399 . S
C939 C940 1.376 . S
C940 H927 0.930 . S
C940 C939 1.376 . S
C940 C941 1.388 . S
C941 H928 0.930 . S
C941 C940 1.388 . S
C941 C942 1.390 . S
C942 C941 1.390 . S
C942 C943 1.394 . S
C942 C948 1.465 . S
C943 C938 1.399 . S
C943 C942 1.394 . S
C943 C944 1.516 . S
C944 C943 1.516 . S
C944 C945 1.502 . S
C944 C946 1.561 . S
C944 C947 1.526 . S
C945 H929 0.959 . S
C945 H930 0.959 . S
C945 H931 0.961 . S
C945 C944 1.502 . S
C946 H932 0.960 . S
C946 H933 0.961 . S
C946 H934 0.959 . S
C946 C944 1.561 . S
C947 C944 1.526 . S
C947 C948 1.396 . S
C947 C952 1.390 . S
C948 C942 1.465 . S
C948 C947 1.396 . S
C948 C949 1.399 . S
C949 H935 0.929 . S
C949 C948 1.399 . S
C949 C950 1.385 . S
C950 H936 0.931 . S
C950 C949 1.385 . S
C950 C951 1.389 . S
C951 C950 1.389 . S
C951 C952 1.387 . S
C952 H937 0.930 . S
C952 C947 1.390 . S
C952 C951 1.387 . S
H953 C965 0.930 . S
H954 C967 0.930 . S
H955 C968 0.930 . S
H956 C972 0.959 . S
H957 C972 0.959 . S
H958 C972 0.961 . S
H959 C973 0.960 . S
H960 C973 0.961 . S
H961 C973 0.959 . S
H962 C976 0.929 . S
H963 C977 0.931 . S
H964 C979 0.930 . S
C965 H953 0.930 . S
C965 C966 1.399 . S
C965 C970 1.399 . S
C966 C965 1.399 . S
C966 C967 1.376 . S
C967 H954 0.930 . S
C967 C966 1.376 . S
C967 C968 1.388 . S
C968 H955 0.930 . S
C968 C967 1.388 . S
C968 C969 1.390 . S
C969 C968 1.390 . S
C969 C970 1.394 . S
C969 C975 1.465 . S
C970 C965 1.399 . S
C970 C969 1.394 . S
C970 C971 1.516 . S
C971 C970 1.516 . S
C971 C972 1.502 . S
C971 C973 1.561 . S
C971 C974 1.526 . S
C972 H956 0.959 . S
C972 H957 0.959 . S
C972 H958 0.961 . S
C972 C971 1.502 . S
C973 H959 0.960 . S
C973 H960 0.961 . S
C973 H961 0.959 . S
C973 C971 1.561 . S
C974 C971 1.526 . S
C974 C975 1.396 . S
C974 C979 1.390 . S
C975 C969 1.465 . S
C975 C974 1.396 . S
C975 C976 1.399 . S
C976 H962 0.929 . S
C976 C975 1.399 . S
C976 C977 1.385 . S
C977 H963 0.931 . S
C977 C976 1.385 . S
C977 C978 1.389 . S
C978 C977 1.389 . S
C978 C979 1.387 . S
C979 H964 0.930 . S
C979 C974 1.390 . S
C979 C978 1.387 . S
H980 C992 0.930 . S
H981 C994 0.930 . S
H982 C995 0.930 . S
H983 C999 0.959 . S
H984 C999 0.959 . S
H985 C999 0.961 . S
H986 C1000 0.960 . S
H987 C1000 0.961 . S
H988 C1000 0.959 . S
H989 C1003 0.929 . S
H990 C1004 0.931 . S
H991 C1006 0.930 . S
C992 H980 0.930 . S
C992 C993 1.399 . S
C992 C997 1.399 . S
C993 C992 1.399 . S
C993 C994 1.376 . S
C994 H981 0.930 . S
C994 C993 1.376 . S
C994 C995 1.388 . S
C995 H982 0.930 . S
C995 C994 1.388 . S
C995 C996 1.390 . S
C996 C995 1.390 . S
C996 C997 1.394 . S
C996 C1002 1.465 . S
C997 C992 1.399 . S
C997 C996 1.394 . S
C997 C998 1.516 . S
C998 C997 1.516 . S
C998 C999 1.502 . S
C998 C1000 1.561 . S
C998 C1001 1.526 . S
C999 H983 0.959 . S
C999 H984 0.959 . S
C999 H985 0.961 . S
C999 C998 1.502 . S
C1000 H986 0.960 . S
C1000 H987 0.961 . S
C1000 H988 0.959 . S
C1000 C998 1.561 . S
C1001 C998 1.526 . S
C1001 C1002 1.396 . S
C1001 C1006 1.390 . S
C1002 C996 1.465 . S
C1002 C1001 1.396 . S
C1002 C1003 1.399 . S
C1003 H989 0.929 . S
C1003 C1002 1.399 . S
C1003 C1004 1.385 . S
C1004 H990 0.931 . S
C1004 C1003 1.385 . S
C1004 C1005 1.389 . S
C1005 C1004 1.389 . S
C1005 C1006 1.387 . S
C1006 H991 0.930 . S
C1006 C1001 1.390 . S
C1006 C1005 1.387 . S
H1007 C1019 0.930 . S
H1008 C1021 0.930 . S
H1009 C1022 0.930 . S
H1010 C1026 0.959 . S
H1011 C1026 0.959 . S
H1012 C1026 0.961 . S
H1013 C1027 0.960 . S
H1014 C1027 0.961 . S
H1015 C1027 0.959 . S
H1016 C1030 0.929 . S
H1017 C1031 0.931 . S
H1018 C1033 0.930 . S
C1019 H1007 0.930 . S
C1019 C1020 1.399 . S
C1019 C1024 1.399 . S
C1020 C1019 1.399 . S
C1020 C1021 1.376 . S
C1021 H1008 0.930 . S
C1021 C1020 1.376 . S
C1021 C1022 1.388 . S
C1022 H1009 0.930 . S
C1022 C1021 1.388 . S
C1022 C1023 1.390 . S
C1023 C1022 1.390 . S
C1023 C1024 1.394 . S
C1023 C1029 1.465 . S
C1024 C1019 1.399 . S
C1024 C1023 1.394 . S
C1024 C1025 1.516 . S
C1025 C1024 1.516 . S
C1025 C1026 1.502 . S
C1025 C1027 1.561 . S
C1025 C1028 1.526 . S
C1026 H1010 0.959 . S
C1026 H1011 0.959 . S
C1026 H1012 0.961 . S
C1026 C1025 1.502 . S
C1027 H1013 0.960 . S
C1027 H1014 0.961 . S
C1027 H1015 0.959 . S
C1027 C1025 1.561 . S
C1028 C1025 1.526 . S
C1028 C1029 1.396 . S
C1028 C1033 1.390 . S
C1029 C1023 1.465 . S
C1029 C1028 1.396 . S
C1029 C1030 1.399 . S
C1030 H1016 0.929 . S
C1030 C1029 1.399 . S
C1030 C1031 1.385 . S
C1031 H1017 0.931 . S
C1031 C1030 1.385 . S
C1031 C1032 1.389 . S
C1032 C1031 1.389 . S
C1032 C1033 1.387 . S
C1033 H1018 0.930 . S
C1033 C1028 1.390 . S
C1033 C1032 1.387 . S
H1034 C1046 0.930 . S
H1035 C1048 0.930 . S
H1036 C1049 0.930 . S
H1037 C1053 0.959 . S
H1038 C1053 0.959 . S
H1039 C1053 0.961 . S
H1040 C1054 0.960 . S
H1041 C1054 0.961 . S
H1042 C1054 0.959 . S
H1043 C1057 0.929 . S
H1044 C1058 0.931 . S
H1045 C1060 0.930 . S
C1046 H1034 0.930 . S
C1046 C1047 1.399 . S
C1046 C1051 1.399 . S
C1047 C1046 1.399 . S
C1047 C1048 1.376 . S
C1048 H1035 0.930 . S
C1048 C1047 1.376 . S
C1048 C1049 1.388 . S
C1049 H1036 0.930 . S
C1049 C1048 1.388 . S
C1049 C1050 1.390 . S
C1050 C1049 1.390 . S
C1050 C1051 1.394 . S
C1050 C1056 1.465 . S
C1051 C1046 1.399 . S
C1051 C1050 1.394 . S
C1051 C1052 1.516 . S
C1052 C1051 1.516 . S
C1052 C1053 1.502 . S
C1052 C1054 1.561 . S
C1052 C1055 1.526 . S
C1053 H1037 0.959 . S
C1053 H1038 0.959 . S
C1053 H1039 0.961 . S
C1053 C1052 1.502 . S
C1054 H1040 0.960 . S
C1054 H1041 0.961 . S
C1054 H1042 0.959 . S
C1054 C1052 1.561 . S
C1055 C1052 1.526 . S
C1055 C1056 1.396 . S
C1055 C1060 1.390 . S
C1056 C1050 1.465 . S
C1056 C1055 1.396 . S
C1056 C1057 1.399 . S
C1057 H1043 0.929 . S
C1057 C1056 1.399 . S
C1057 C1058 1.385 . S
C1058 H1044 0.931 . S
C1058 C1057 1.385 . S
C1058 C1059 1.389 . S
C1059 C1058 1.389 . S
C1059 C1060 1.387 . S
C1060 H1045 0.930 . S
C1060 C1055 1.390 . S
C1060 C1059 1.387 . S
H1061 C1073 0.930 . S
H1062 C1075 0.930 . S
H1063 C1076 0.930 . S
H1064 C1080 0.959 . S
H1065 C1080 0.959 . S
H1066 C1080 0.961 . S
H1067 C1081 0.960 . S
H1068 C1081 0.961 . S
H1069 C1081 0.959 . S
H1070 C1084 0.929 . S
H1071 C1085 0.931 . S
H1072 C1087 0.930 . S
C1073 H1061 0.930 . S
C1073 C1074 1.399 . S
C1073 C1078 1.399 . S
C1074 C1073 1.399 . S
C1074 C1075 1.376 . S
C1075 H1062 0.930 . S
C1075 C1074 1.376 . S
C1075 C1076 1.388 . S
C1076 H1063 0.930 . S
C1076 C1075 1.388 . S
C1076 C1077 1.390 . S
C1077 C1076 1.390 . S
C1077 C1078 1.394 . S
C1077 C1083 1.465 . S
C1078 C1073 1.399 . S
C1078 C1077 1.394 . S
C1078 C1079 1.516 . S
C1079 C1078 1.516 . S
C1079 C1080 1.502 . S
C1079 C1081 1.561 . S
C1079 C1082 1.526 . S
C1080 H1064 0.959 . S
C1080 H1065 0.959 . S
C1080 H1066 0.961 . S
C1080 C1079 1.502 . S
C1081 H1067 0.960 . S
C1081 H1068 0.961 . S
C1081 H1069 0.959 . S
C1081 C1079 1.561 . S
C1082 C1079 1.526 . S
C1082 C1083 1.396 . S
C1082 C1087 1.390 . S
C1083 C1077 1.465 . S
C1083 C1082 1.396 . S
C1083 C1084 1.399 . S
C1084 H1070 0.929 . S
C1084 C1083 1.399 . S
C1084 C1085 1.385 . S
C1085 H1071 0.931 . S
C1085 C1084 1.385 . S
C1085 C1086 1.389 . S
C1086 C1085 1.389 . S
C1086 C1087 1.387 . S
C1087 H1072 0.930 . S
C1087 C1082 1.390 . S
C1087 C1086 1.387 . S
C237 C64 1.419 1_556 S
C249 C8 1.409 1_556 S
C264 C78 1.411 1_556 S
C276 C22 1.403 1_556 S
C291 C92 1.419 1_556 S
C303 C36 1.410 1_556 S
C318 C106 1.417 1_556 S
C330 C50 1.404 1_556 S
C345 C176 1.421 . S
C357 C120 1.411 . S
C372 C190 1.412 . S
C384 C134 1.420 . S
C399 C148 1.402 . S
C411 C204 1.416 . S
C426 C218 1.412 . S
C438 C162 1.403 . S
C453 C9 1.440 . S
C465 C79 1.451 1_556 S
C480 C93 1.477 1_556 S
C492 C23 1.466 . S
C507 C37 1.442 . S
C519 C107 1.453 1_556 S
C534 C65 1.472 1_556 S
C546 C51 1.461 . S
C561 C191 1.480 . S
C573 C121 1.471 . S
C588 C205 1.484 . S
C600 C135 1.484 . S
C615 C149 1.442 . S
C627 C219 1.452 . S
C642 C163 1.485 . S
C654 C177 1.480 . S
C669 C217 1.402 . S
C681 C7 1.406 . S
C696 C175 1.372 . S
C708 C21 1.348 . S
C723 C189 1.346 . S
C735 C35 1.344 . S
C750 C203 1.408 . S
C762 C49 1.398 . S
C777 C133 1.344 . S
C789 C63 1.346 . S
C804 C147 1.342 . S
C816 C77 1.362 . S
C831 C91 1.395 . S
C843 C161 1.368 . S
C858 C105 1.344 . S
C870 C119 1.346 . S
C885 C185 1.385 . S
C897 C31 1.355 . S
C912 C199 1.350 . S
C924 C45 1.371 . S
C939 C213 1.387 . S
C951 C3 1.359 . S
C966 C17 1.353 . S
C978 C171 1.383 . S
C993 C157 1.357 . S
C1005 C87 1.358 . S
C1020 C101 1.388 . S
C1032 C115 1.361 . S
C1047 C129 1.371 . S
C1059 C59 1.351 . S
C1074 C143 1.367 . S
C1086 C73 1.389 . S
