# Generated by pormake.
# Topology hbo, (4)-cn, num edge types: 1
# Building blocks:
#     Node 0, Type 0, BuildingBlock: ICAMEG_clean_sbu_1, # of connection points: 4
#     Node 1, Type 0, BuildingBlock: ICAMEG_clean_sbu_1, # of connection points: 4
#     Node 2, Type 0, BuildingBlock: ICAMEG_clean_sbu_1, # of connection points: 4
#     Node 3, Type 0, BuildingBlock: ICAMEG_clean_sbu_1, # of connection points: 4
#     Node 4, Type 0, BuildingBlock: ICAMEG_clean_sbu_1, # of connection points: 4
#     Node 5, Type 0, BuildingBlock: ICAMEG_clean_sbu_1, # of connection points: 4
#     Node 6, Type 0, BuildingBlock: ICAMEG_clean_sbu_1, # of connection points: 4
#     Node 7, Type 0, BuildingBlock: ICAMEG_clean_sbu_1, # of connection points: 4
#     Node 8, Type 0, BuildingBlock: ICAMEG_clean_sbu_1, # of connection points: 4
#     Node 9, Type 0, BuildingBlock: ICAMEG_clean_sbu_1, # of connection points: 4
#     Node 10, Type 0, BuildingBlock: ICAMEG_clean_sbu_1, # of connection points: 4
#     Node 11, Type 0, BuildingBlock: ICAMEG_clean_sbu_1, # of connection points: 4
#     Node 12, Type 0, BuildingBlock: ICAMEG_clean_sbu_1, # of connection points: 4
#     Node 13, Type 0, BuildingBlock: ICAMEG_clean_sbu_1, # of connection points: 4
#     Node 14, Type 0, BuildingBlock: ICAMEG_clean_sbu_1, # of connection points: 4
#     Node 15, Type 0, BuildingBlock: ICAMEG_clean_sbu_1, # of connection points: 4
#     Node 16, Type 0, BuildingBlock: ICAMEG_clean_sbu_1, # of connection points: 4
#     Node 17, Type 0, BuildingBlock: ICAMEG_clean_sbu_1, # of connection points: 4
#     Node 18, Type 0, BuildingBlock: ICAMEG_clean_sbu_1, # of connection points: 4
#     Node 19, Type 0, BuildingBlock: ICAMEG_clean_sbu_1, # of connection points: 4
#     Node 20, Type 0, BuildingBlock: ICAMEG_clean_sbu_1, # of connection points: 4
#     Node 21, Type 0, BuildingBlock: ICAMEG_clean_sbu_1, # of connection points: 4
#     Node 22, Type 0, BuildingBlock: ICAMEG_clean_sbu_1, # of connection points: 4
#     Node 23, Type 0, BuildingBlock: ICAMEG_clean_sbu_1, # of connection points: 4
#     Edge 24, Type (0, 0), None
#     Edge 25, Type (0, 0), None
#     Edge 26, Type (0, 0), None
#     Edge 27, Type (0, 0), None
#     Edge 28, Type (0, 0), None
#     Edge 29, Type (0, 0), None
#     Edge 30, Type (0, 0), None
#     Edge 31, Type (0, 0), None
#     Edge 32, Type (0, 0), None
#     Edge 33, Type (0, 0), None
#     Edge 34, Type (0, 0), None
#     Edge 35, Type (0, 0), None
#     Edge 36, Type (0, 0), None
#     Edge 37, Type (0, 0), None
#     Edge 38, Type (0, 0), None
#     Edge 39, Type (0, 0), None
#     Edge 40, Type (0, 0), None
#     Edge 41, Type (0, 0), None
#     Edge 42, Type (0, 0), None
#     Edge 43, Type (0, 0), None
#     Edge 44, Type (0, 0), None
#     Edge 45, Type (0, 0), None
#     Edge 46, Type (0, 0), None
#     Edge 47, Type (0, 0), None
#     Edge 48, Type (0, 0), None
#     Edge 49, Type (0, 0), None
#     Edge 50, Type (0, 0), None
#     Edge 51, Type (0, 0), None
#     Edge 52, Type (0, 0), None
#     Edge 53, Type (0, 0), None
#     Edge 54, Type (0, 0), None
#     Edge 55, Type (0, 0), None
#     Edge 56, Type (0, 0), None
#     Edge 57, Type (0, 0), None
#     Edge 58, Type (0, 0), None
#     Edge 59, Type (0, 0), None
#     Edge 60, Type (0, 0), None
#     Edge 61, Type (0, 0), None
#     Edge 62, Type (0, 0), None
#     Edge 63, Type (0, 0), None
#     Edge 64, Type (0, 0), None
#     Edge 65, Type (0, 0), None
#     Edge 66, Type (0, 0), None
#     Edge 67, Type (0, 0), None
#     Edge 68, Type (0, 0), None
#     Edge 69, Type (0, 0), None
#     Edge 70, Type (0, 0), None
#     Edge 71, Type (0, 0), None
# Relax obj value: 0.134
# Max RMSD: 0.178
# Mean RMSD: 0.177
data_MOF--net-hbo--node1-ICAMEG_clean_sbu_1--edge1-none
_symmetry_space_group_name_H-M    P1
_symmetry_Int_Tables_number       1
_symmetry_cell_setting            triclinic
loop_
_symmetry_equiv_pos_as_xyz
'x, y, z'
_cell_length_a     27.135488
_cell_length_b     27.1226
_cell_length_c     27.198169
_cell_angle_alpha  90.068167
_cell_angle_beta   90.109511
_cell_angle_gamma 90.281039
loop_
_atom_site_label
_atom_site_type_symbol
_atom_site_fract_x
_atom_site_fract_y
_atom_site_fract_z
_atom_type_partial_charge
Co0 Co 0.19703 0.38253 0.2805 0.0
Co1 Co 0.11994 0.30601 0.21639 0.0
O2 O 0.13539 0.36742 0.2486 0.0
C3 C 0.18476 0.47673 0.22063 0.0
O4 O 0.18317 0.45399 0.17803 0.0
C5 C 0.02525 0.31363 0.27617 0.0
O6 O 0.04737 0.30969 0.31894 0.0
O7 O 0.14039 0.2695 0.27853 0.0
O8 O 0.20699 0.31359 0.30288 0.0
H9 H 0.06736 0.1896 0.07815 0.0
H10 H 0.11726 0.45445 0.30576 0.0
O11 O 0.19004 0.45301 0.26047 0.0
H12 H 0.12792 0.34689 0.45077 0.0
H13 H 0.31466 0.43419 0.4181 0.0
H14 H 0.2848 0.42797 0.24016 0.0
H15 H 0.18397 0.3352 0.38265 0.0
H16 H 0.24469 0.38869 0.38622 0.0
O17 O 0.04951 0.31336 0.23633 0.0
H18 H 0.11322 0.25913 0.1104 0.0
H19 H 0.07434 0.21799 0.2563 0.0
H20 H 0.35988 0.46667 0.27099 0.0
H21 H 0.06015 0.46562 0.37397 0.0
H22 H 0.37484 0.47131 0.36099 0.0
H23 H 0.06549 0.41322 0.4477 0.0
O24 O 0.23315 0.36197 0.21823 0.0
H25 H 0.03781 0.44403 0.12358 0.0
H26 H 0.16733 0.31934 0.11432 0.0
H27 H 0.15599 0.37588 0.04646 0.0
H28 H 0.09011 0.43877 0.04982 0.0
H29 H 0.0486 0.38641 0.19149 0.0
H30 H 0.03495 0.14348 0.225 0.0
H31 H 0.03052 0.12896 0.1349 0.0
O32 O 0.18874 0.29559 0.194 0.0
C33 C 0.1802 0.27491 0.30431 0.0
C34 C 0.07037 0.19507 0.11743 0.0
C35 C 0.05191 0.16921 0.19969 0.0
N36 N 0.09855 0.24379 0.18621 0.0
C37 C 0.0963 0.23539 0.13653 0.0
C38 C 0.07606 0.21102 0.21735 0.0
C39 C 0.04902 0.16135 0.14926 0.0
C40 C 0.12238 0.43226 0.33817 0.0
N41 N 0.15804 0.39667 0.34024 0.0
C42 C 0.0889 0.43863 0.37664 0.0
C43 C 0.09134 0.40856 0.41781 0.0
C44 C 0.12624 0.37145 0.41948 0.0
C45 C 0.15834 0.36523 0.37994 0.0
C46 C 0.3089 0.43129 0.37885 0.0
C47 C 0.29217 0.42593 0.27903 0.0
C48 C 0.26833 0.40557 0.35997 0.0
N49 N 0.25953 0.40352 0.31036 0.0
C50 C 0.3343 0.4497 0.29644 0.0
C51 C 0.34246 0.45262 0.34683 0.0
C52 C 0.22755 0.32212 0.19258 0.0
C53 C 0.06459 0.4151 0.12076 0.0
C54 C 0.1375 0.34518 0.11714 0.0
C55 C 0.13147 0.37755 0.07775 0.0
C56 C 0.09461 0.4127 0.07959 0.0
N57 N 0.10606 0.34543 0.15682 0.0
C58 C 0.07073 0.38133 0.15905 0.0
Co59 Co 0.18554 0.61056 0.71293 0.0
Co60 Co 0.11888 0.68333 0.79051 0.0
O61 O 0.12943 0.62523 0.75207 0.0
C62 C 0.18341 0.52062 0.77847 0.0
O63 O 0.18299 0.54822 0.81811 0.0
C64 C 0.02996 0.68351 0.72437 0.0
O65 O 0.05838 0.68261 0.6854 0.0
O66 O 0.14064 0.72791 0.73469 0.0
O67 O 0.1907 0.68017 0.68909 0.0
H68 H 0.08674 0.78259 0.9468 0.0
H69 H 0.09262 0.55278 0.70437 0.0
O70 O 0.18277 0.53995 0.73563 0.0
H71 H 0.11924 0.62607 0.54065 0.0
H72 H 0.27339 0.50971 0.5867 0.0
H73 H 0.28253 0.65602 0.69421 0.0
H74 H 0.18033 0.63809 0.60677 0.0
H75 H 0.20638 0.52803 0.64463 0.0
O76 O 0.04838 0.68365 0.76768 0.0
H77 H 0.11295 0.72647 0.84798 0.0
H78 H 0.07673 0.78194 0.76525 0.0
H79 H 0.35134 0.63647 0.64069 0.0
H80 H 0.02948 0.54198 0.63999 0.0
H81 H 0.34853 0.56238 0.58648 0.0
H82 H 0.04275 0.57817 0.55719 0.0
O83 O 0.23149 0.62905 0.76858 0.0
H84 H 0.03985 0.52952 0.85626 0.0
H85 H 0.15835 0.66196 0.8933 0.0
H86 H 0.14565 0.5959 0.95296 0.0
H87 H 0.0862 0.52851 0.93475 0.0
H88 H 0.04901 0.59932 0.79957 0.0
H89 H 0.04697 0.8529 0.81183 0.0
H90 H 0.04917 0.85181 0.90289 0.0
O91 O 0.18916 0.68528 0.81294 0.0
C92 C 0.17179 0.7218 0.69958 0.0
C93 C 0.08552 0.78191 0.90711 0.0
C94 C 0.0623 0.82178 0.83111 0.0
N95 N 0.10324 0.74215 0.8303 0.0
C96 C 0.10643 0.74199 0.88221 0.0
C97 C 0.08073 0.78234 0.80475 0.0
C98 C 0.06377 0.82107 0.88223 0.0
C99 C 0.09874 0.56869 0.66846 0.0
N100 N 0.14029 0.5958 0.65935 0.0
C101 C 0.06275 0.56259 0.63215 0.0
C102 C 0.07019 0.58301 0.58576 0.0
C103 C 0.11306 0.60985 0.57645 0.0
C104 C 0.14766 0.61634 0.61402 0.0
C105 C 0.27637 0.54101 0.61117 0.0
C106 C 0.2809 0.62323 0.67161 0.0
C107 C 0.23839 0.55191 0.64371 0.0
N108 N 0.24071 0.59322 0.67254 0.0
C109 C 0.3201 0.61229 0.641 0.0
C110 C 0.31811 0.5709 0.61067 0.0
C111 C 0.22873 0.66221 0.80242 0.0
C112 C 0.06358 0.56019 0.86593 0.0
C113 C 0.1298 0.63511 0.88593 0.0
C114 C 0.12349 0.59699 0.91986 0.0
C115 C 0.09027 0.55916 0.9096 0.0
N116 N 0.1019 0.63729 0.84383 0.0
C117 C 0.06894 0.60017 0.83397 0.0
Co118 Co 0.79342 0.62504 0.2775 0.0
Co119 Co 0.87189 0.70418 0.21883 0.0
O120 O 0.85549 0.64187 0.24806 0.0
C121 C 0.81239 0.53285 0.21483 0.0
O122 O 0.81804 0.55686 0.17334 0.0
C123 C 0.96471 0.68813 0.28155 0.0
O124 O 0.94124 0.68472 0.32357 0.0
O125 O 0.84898 0.73936 0.28083 0.0
O126 O 0.78243 0.6936 0.30232 0.0
H127 H 0.9264 0.82375 0.08548 0.0
H128 H 0.87243 0.5512 0.30202 0.0
O129 O 0.80202 0.55529 0.25449 0.0
H130 H 0.85775 0.65176 0.45163 0.0
H131 H 0.67459 0.57178 0.41185 0.0
H132 H 0.71023 0.57342 0.23472 0.0
H133 H 0.80586 0.66898 0.38127 0.0
H134 H 0.73911 0.62534 0.3795 0.0
O135 O 0.94172 0.69595 0.24161 0.0
H136 H 0.87279 0.75876 0.11676 0.0
H137 H 0.92212 0.78778 0.26245 0.0
H138 H 0.64204 0.52279 0.2656 0.0
H139 H 0.92579 0.53478 0.37194 0.0
H140 H 0.62495 0.52011 0.35512 0.0
H141 H 0.91825 0.58365 0.44823 0.0
O142 O 0.75782 0.64785 0.21562 0.0
H143 H 0.96156 0.57165 0.12438 0.0
H144 H 0.82823 0.69253 0.11489 0.0
H145 H 0.84521 0.6406 0.04449 0.0
H146 H 0.91287 0.57961 0.048 0.0
H147 H 0.94557 0.62526 0.19426 0.0
H148 H 0.97286 0.85621 0.2325 0.0
H149 H 0.97691 0.87347 0.14308 0.0
O150 O 0.80324 0.7147 0.19409 0.0
C151 C 0.80799 0.73329 0.30446 0.0
C152 C 0.92507 0.81615 0.12446 0.0
C153 C 0.95113 0.83458 0.20687 0.0
N154 N 0.89468 0.76718 0.19176 0.0
C155 C 0.89502 0.77831 0.14269 0.0
C156 C 0.9212 0.79619 0.22368 0.0
C157 C 0.95359 0.84408 0.15677 0.0
C158 C 0.86617 0.5719 0.3352 0.0
N159 N 0.83117 0.60822 0.3375 0.0
C160 C 0.89765 0.56255 0.37481 0.0
C161 C 0.89397 0.59054 0.41739 0.0
C162 C 0.86007 0.62861 0.41928 0.0
C163 C 0.82997 0.63773 0.37863 0.0
C164 C 0.68211 0.57244 0.37283 0.0
C165 C 0.7019 0.57477 0.27349 0.0
C166 C 0.71972 0.6024 0.35403 0.0
N167 N 0.73078 0.60194 0.30495 0.0
C168 C 0.66364 0.54499 0.29085 0.0
C169 C 0.65423 0.54331 0.34101 0.0
C170 C 0.76374 0.68884 0.19187 0.0
C171 C 0.93407 0.60005 0.12145 0.0
C172 C 0.85932 0.66821 0.11754 0.0
C173 C 0.86831 0.63811 0.07687 0.0
C174 C 0.90614 0.60394 0.07883 0.0
N175 N 0.88879 0.66678 0.1587 0.0
C176 C 0.92494 0.63161 0.16103 0.0
Co177 Co 0.89062 0.31451 0.78347 0.0
Co178 Co 0.81816 0.38119 0.7055 0.0
O179 O 0.87609 0.37069 0.74426 0.0
C180 C 0.98066 0.31663 0.71813 0.0
O181 O 0.9531 0.31691 0.67845 0.0
C182 C 0.81798 0.47045 0.77114 0.0
O183 O 0.8193 0.44231 0.81033 0.0
O184 O 0.77338 0.35959 0.76124 0.0
O185 O 0.82096 0.30953 0.80715 0.0
H186 H 0.7196 0.41243 0.54853 0.0
H187 H 0.94863 0.40731 0.79209 0.0
O188 O 0.96127 0.31721 0.76094 0.0
H189 H 0.87501 0.38089 0.95564 0.0
H190 H 0.99109 0.2264 0.90998 0.0
H191 H 0.84496 0.21758 0.80222 0.0
H192 H 0.86287 0.31984 0.88953 0.0
H193 H 0.97296 0.29351 0.852 0.0
O194 O 0.81772 0.45175 0.72799 0.0
H195 H 0.7753 0.38686 0.64779 0.0
H196 H 0.71962 0.42371 0.73002 0.0
H197 H 0.86433 0.14866 0.85577 0.0
H198 H 0.95961 0.47036 0.85648 0.0
H199 H 0.93834 0.1513 0.91008 0.0
H200 H 0.92325 0.45722 0.93921 0.0
O201 O 0.87217 0.2685 0.72786 0.0
H202 H 0.97205 0.46037 0.64028 0.0
H203 H 0.8401 0.34139 0.60295 0.0
H204 H 0.90643 0.35402 0.54364 0.0
H205 H 0.97357 0.41369 0.56199 0.0
H206 H 0.90211 0.45113 0.69664 0.0
H207 H 0.64894 0.45332 0.68285 0.0
H208 H 0.65041 0.45063 0.59183 0.0
O209 O 0.81619 0.31092 0.68326 0.0
C210 C 0.77939 0.32852 0.79651 0.0
C211 C 0.72016 0.41397 0.58821 0.0
C212 C 0.68013 0.43792 0.66384 0.0
N213 N 0.75958 0.39673 0.66534 0.0
C214 C 0.7599 0.39313 0.61345 0.0
C215 C 0.71938 0.41952 0.69053 0.0
C216 C 0.68103 0.43608 0.61274 0.0
C217 C 0.93265 0.40122 0.82797 0.0
N218 N 0.90537 0.35977 0.83703 0.0
C219 C 0.93885 0.43717 0.86428 0.0
C220 C 0.91834 0.42981 0.91063 0.0
C221 C 0.8913 0.38702 0.91988 0.0
C222 C 0.88474 0.35246 0.88231 0.0
C223 C 0.95984 0.22349 0.88543 0.0
C224 C 0.87771 0.21914 0.82486 0.0
C225 C 0.94904 0.26153 0.85288 0.0
N226 N 0.90779 0.2593 0.82396 0.0
C227 C 0.88856 0.17987 0.85548 0.0
C228 C 0.92991 0.18176 0.88588 0.0
C229 C 0.8391 0.2713 0.69393 0.0
C230 C 0.94155 0.43645 0.63055 0.0
C231 C 0.86686 0.37001 0.61038 0.0
C232 C 0.90513 0.37628 0.57665 0.0
C233 C 0.94283 0.40962 0.58699 0.0
N234 N 0.86443 0.39804 0.65236 0.0
C235 C 0.90144 0.43109 0.66232 0.0
Co236 Co 0.21829 0.12202 0.31224 0.0
Co237 Co 0.29402 0.19563 0.38034 0.0
O238 O 0.25635 0.13621 0.36997 0.0
C239 C 0.2716 0.02541 0.30545 0.0
O240 O 0.31183 0.04623 0.28845 0.0
C241 C 0.23826 0.18874 0.47536 0.0
O242 O 0.19544 0.18795 0.45282 0.0
O243 O 0.23382 0.23702 0.36379 0.0
O244 O 0.19874 0.19169 0.30367 0.0
H245 H 0.41238 0.26288 0.40475 0.0
H246 H 0.1973 0.06684 0.40531 0.0
O247 O 0.2351 0.05091 0.31951 0.0
H248 H 0.04142 0.14769 0.35919 0.0
H249 H 0.09551 0.01993 0.22065 0.0
H250 H 0.20407 0.16586 0.21379 0.0
H251 H 0.11493 0.15657 0.30754 0.0
H252 H 0.14869 0.04089 0.29021 0.0
O253 O 0.2783 0.1917 0.45152 0.0
H254 H 0.34904 0.24147 0.38548 0.0
H255 H 0.26507 0.29125 0.42587 0.0
H256 H 0.15236 0.14506 0.14372 0.0
H257 H 0.12357 0.05672 0.45761 0.0
H258 H 0.1011 0.06867 0.14349 0.0
H259 H 0.04543 0.09706 0.43519 0.0
O260 O 0.27752 0.13687 0.26958 0.0
H261 H 0.38367 0.05142 0.45551 0.0
H262 H 0.39436 0.18306 0.33231 0.0
H263 H 0.46134 0.12402 0.33973 0.0
H264 H 0.45704 0.0578 0.40246 0.0
H265 H 0.31617 0.11103 0.44749 0.0
H266 H 0.30844 0.3599 0.46389 0.0
H267 H 0.39878 0.36426 0.46269 0.0
O268 O 0.3117 0.20157 0.30959 0.0
C269 C 0.20311 0.23151 0.32779 0.0
C270 C 0.40977 0.29696 0.42362 0.0
C271 C 0.32931 0.33141 0.44563 0.0
N272 N 0.33168 0.25602 0.39735 0.0
C273 C 0.38452 0.2566 0.39829 0.0
C274 C 0.30466 0.29323 0.42271 0.0
C275 C 0.38053 0.33319 0.44546 0.0
C276 C 0.16315 0.08444 0.39498 0.0
N277 N 0.16056 0.11228 0.35334 0.0
C278 C 0.12173 0.07868 0.42489 0.0
C279 C 0.07764 0.10141 0.41217 0.0
C280 C 0.07534 0.12975 0.36969 0.0
C281 C 0.11734 0.13487 0.34067 0.0
C282 C 0.12092 0.05047 0.21769 0.0
C283 C 0.1817 0.13281 0.21472 0.0
C284 C 0.15068 0.06316 0.25734 0.0
N285 N 0.18028 0.10411 0.25548 0.0
C286 C 0.15316 0.12046 0.17425 0.0
C287 C 0.12357 0.07832 0.175 0.0
C288 C 0.30687 0.17441 0.27161 0.0
C289 C 0.38652 0.08117 0.42957 0.0
C290 C 0.39149 0.15506 0.36032 0.0
C291 C 0.43012 0.12156 0.36429 0.0
C292 C 0.42763 0.08444 0.39932 0.0
N293 N 0.35148 0.15271 0.39112 0.0
C294 C 0.3486 0.11558 0.425 0.0
Co295 Co 0.31844 0.77205 0.87504 0.0
Co296 Co 0.38495 0.69591 0.80034 0.0
O297 O 0.37408 0.73225 0.85987 0.0
C298 C 0.31476 0.71062 0.96886 0.0
O299 O 0.30759 0.66944 0.94443 0.0
C300 C 0.47119 0.76426 0.80215 0.0
O301 O 0.44134 0.80201 0.7987 0.0
O302 O 0.36334 0.75253 0.75706 0.0
O303 O 0.31207 0.79558 0.80551 0.0
H304 H 0.39465 0.57782 0.72751 0.0
H305 H 0.41167 0.78082 0.9313 0.0
O306 O 0.32212 0.75124 0.94628 0.0
H307 H 0.38553 0.94451 0.85736 0.0
H308 H 0.23307 0.8991 0.97677 0.0
H309 H 0.22036 0.79021 0.83192 0.0
H310 H 0.32403 0.87832 0.84631 0.0
H311 H 0.29975 0.84171 0.95676 0.0
O312 O 0.45476 0.72007 0.80171 0.0
H313 H 0.38861 0.64132 0.75483 0.0
H314 H 0.43485 0.72309 0.70628 0.0
H315 H 0.15239 0.84417 0.85289 0.0
H316 H 0.47481 0.84526 0.94173 0.0
H317 H 0.15636 0.89824 0.92667 0.0
H318 H 0.46195 0.92823 0.9051 0.0
O319 O 0.27258 0.71569 0.85714 0.0
H320 H 0.47323 0.61903 0.94394 0.0
H321 H 0.34435 0.59321 0.81929 0.0
H322 H 0.35957 0.52945 0.8804 0.0
H323 H 0.42496 0.54138 0.94333 0.0
H324 H 0.45864 0.68194 0.88101 0.0
H325 H 0.46933 0.67803 0.63644 0.0
H326 H 0.45856 0.5886 0.62959 0.0
O327 O 0.31445 0.67348 0.79845 0.0
C328 C 0.33137 0.78664 0.76378 0.0
C329 C 0.41602 0.57963 0.69499 0.0
C330 C 0.44809 0.65845 0.66389 0.0
N331 N 0.4012 0.65802 0.74011 0.0
C332 C 0.39401 0.60572 0.73645 0.0
C333 C 0.42822 0.6839 0.70314 0.0
C334 C 0.44205 0.60763 0.66036 0.0
C335 C 0.40565 0.81675 0.91527 0.0
N336 N 0.36405 0.82581 0.88848 0.0
C337 C 0.44172 0.85312 0.92107 0.0
C338 C 0.43445 0.89955 0.90047 0.0
C339 C 0.3916 0.90875 0.87377 0.0
C340 C 0.3568 0.87112 0.86775 0.0
C341 C 0.22919 0.8742 0.94595 0.0
C342 C 0.22271 0.81298 0.8645 0.0
C343 C 0.26707 0.84201 0.93397 0.0
N344 N 0.26374 0.8127 0.89309 0.0
C345 C 0.18369 0.8434 0.87652 0.0
C346 C 0.18658 0.87402 0.91757 0.0
C347 C 0.27517 0.68283 0.82279 0.0
C348 C 0.44655 0.61233 0.9152 0.0
C349 C 0.37423 0.59881 0.84494 0.0
C350 C 0.3824 0.56221 0.87998 0.0
C351 C 0.4189 0.56903 0.91531 0.0
N352 N 0.40252 0.64085 0.84384 0.0
C353 C 0.43813 0.64781 0.87897 0.0
Co354 Co 0.771 0.88782 0.31455 0.0
Co355 Co 0.69152 0.81468 0.37931 0.0
O356 O 0.73096 0.87265 0.36999 0.0
C357 C 0.70943 0.9811 0.31715 0.0
O358 O 0.66772 0.95652 0.31465 0.0
C359 C 0.75704 0.81355 0.46739 0.0
O360 O 0.79604 0.81575 0.43902 0.0
O361 O 0.74733 0.76977 0.35756 0.0
O362 O 0.79389 0.81831 0.30873 0.0
H363 H 0.56961 0.74724 0.38218 0.0
H364 H 0.77876 0.94616 0.40563 0.0
O365 O 0.75062 0.95878 0.31827 0.0
H366 H 0.94159 0.86924 0.38529 0.0
H367 H 0.90229 0.98725 0.23178 0.0
H368 H 0.78961 0.84484 0.21666 0.0
H369 H 0.87669 0.85696 0.32289 0.0
H370 H 0.84227 0.96896 0.29681 0.0
O371 O 0.71366 0.81276 0.44928 0.0
H372 H 0.63421 0.77276 0.38199 0.0
H373 H 0.71216 0.71609 0.42477 0.0
H374 H 0.84545 0.86495 0.14974 0.0
H375 H 0.84178 0.95928 0.46824 0.0
H376 H 0.90168 0.93737 0.15515 0.0
H377 H 0.92474 0.92079 0.45889 0.0
O378 O 0.71504 0.87072 0.26806 0.0
H379 H 0.627 0.96691 0.46142 0.0
H380 H 0.58961 0.83924 0.33865 0.0
H381 H 0.53109 0.90581 0.35211 0.0
H382 H 0.54924 0.97066 0.41396 0.0
H383 H 0.68278 0.89676 0.45113 0.0
H384 H 0.66159 0.64694 0.45368 0.0
H385 H 0.57173 0.64922 0.44665 0.0
O386 O 0.6698 0.81433 0.30966 0.0
C387 C 0.78333 0.77653 0.32728 0.0
C388 C 0.56833 0.71552 0.40488 0.0
C389 C 0.64426 0.67781 0.43587 0.0
N390 N 0.6499 0.75611 0.39319 0.0
C391 C 0.59778 0.75542 0.38404 0.0
C392 C 0.67286 0.71609 0.4182 0.0
C393 C 0.59326 0.67891 0.43095 0.0
C394 C 0.81456 0.9296 0.40069 0.0
N395 N 0.82406 0.90115 0.36045 0.0
C396 C 0.85028 0.93671 0.43674 0.0
C397 C 0.8965 0.91522 0.43125 0.0
C398 C 0.90608 0.88643 0.38991 0.0
C399 C 0.86913 0.87956 0.35473 0.0
C400 C 0.87652 0.95706 0.22735 0.0
C401 C 0.81312 0.87702 0.21946 0.0
C402 C 0.84286 0.94602 0.2643 0.0
N403 N 0.81257 0.9057 0.26038 0.0
C404 C 0.84478 0.8884 0.18116 0.0
C405 C 0.87654 0.92872 0.18479 0.0
C406 C 0.68058 0.83781 0.27063 0.0
C407 C 0.6171 0.93709 0.4369 0.0
C408 C 0.597 0.86484 0.36815 0.0
C409 C 0.56365 0.9033 0.37494 0.0
C410 C 0.57391 0.93973 0.40949 0.0
N411 N 0.63865 0.86107 0.39661 0.0
C412 C 0.6486 0.89693 0.43077 0.0
Co413 Co 0.70401 0.22056 0.88415 0.0
Co414 Co 0.62679 0.27865 0.80394 0.0
O415 O 0.64259 0.25029 0.86655 0.0
C416 C 0.68957 0.28828 0.97353 0.0
O417 O 0.6902 0.32883 0.94723 0.0
C418 C 0.537 0.21157 0.81546 0.0
O419 O 0.56318 0.17102 0.81427 0.0
O420 O 0.64976 0.21682 0.76928 0.0
O421 O 0.71494 0.19408 0.81581 0.0
H422 H 0.57349 0.41114 0.68286 0.0
H423 H 0.62634 0.19758 0.96046 0.0
O424 O 0.69532 0.24625 0.95335 0.0
H425 H 0.63527 0.04735 0.85994 0.0
H426 H 0.82267 0.0849 0.93426 0.0
H427 H 0.78783 0.26267 0.93545 0.0
H428 H 0.68846 0.11656 0.84145 0.0
H429 H 0.75646 0.11802 0.88355 0.0
O430 O 0.55739 0.25382 0.81196 0.0
H431 H 0.62499 0.38083 0.74967 0.0
H432 H 0.57817 0.23395 0.71976 0.0
H433 H 0.85748 0.23132 0.98293 0.0
H434 H 0.57218 0.12836 0.9786 0.0
H435 H 0.87434 0.14137 0.98442 0.0
H436 H 0.5766 0.05187 0.92954 0.0
O437 O 0.74074 0.28148 0.86064 0.0
H438 H 0.53566 0.37435 0.93457 0.0
H439 H 0.67067 0.38259 0.81553 0.0
H440 H 0.65501 0.45241 0.86839 0.0
H441 H 0.58634 0.44961 0.92833 0.0
H442 H 0.55062 0.3043 0.88031 0.0
H443 H 0.52973 0.26296 0.64984 0.0
H444 H 0.52551 0.35247 0.6319 0.0
O445 O 0.69592 0.30387 0.79396 0.0
C446 C 0.68994 0.19245 0.77579 0.0
C447 C 0.57507 0.37209 0.69063 0.0
C448 C 0.55042 0.28906 0.67194 0.0
N449 N 0.60451 0.30523 0.74073 0.0
C450 C 0.60394 0.35439 0.72943 0.0
C451 C 0.57907 0.27279 0.7113 0.0
C452 C 0.54791 0.33919 0.66202 0.0
C453 C 0.63135 0.16426 0.93959 0.0
N454 N 0.6653 0.16129 0.90232 0.0
C455 C 0.59937 0.12508 0.94995 0.0
C456 C 0.60134 0.08234 0.92194 0.0
C457 C 0.63423 0.07978 0.88305 0.0
C458 C 0.66504 0.11989 0.8731 0.0
C459 C 0.81522 0.12404 0.93439 0.0
C460 C 0.79575 0.22374 0.93378 0.0
C461 C 0.77677 0.14324 0.90603 0.0
N462 N 0.76602 0.19247 0.90736 0.0
C463 C 0.83498 0.20606 0.96172 0.0
C464 C 0.84427 0.15571 0.9626 0.0
C465 C 0.73538 0.30555 0.81998 0.0
C466 C 0.56359 0.3768 0.90661 0.0
C467 C 0.63943 0.37999 0.83968 0.0
C468 C 0.631 0.42052 0.87012 0.0
C469 C 0.59266 0.41892 0.9037 0.0
N470 N 0.60928 0.33909 0.84055 0.0
C471 C 0.57227 0.33721 0.87483 0.0
Co472 Co 0.27993 0.79701 0.61209 0.0
Co473 Co 0.22216 0.87426 0.6924 0.0
O474 O 0.25038 0.85851 0.62974 0.0
C475 C 0.21169 0.81119 0.52317 0.0
O476 O 0.1714 0.80982 0.54979 0.0
C477 C 0.2893 0.96408 0.68112 0.0
O478 O 0.32981 0.93786 0.68227 0.0
O479 O 0.28398 0.8511 0.72694 0.0
O480 O 0.30653 0.7859 0.68041 0.0
H481 H 0.09039 0.92792 0.81398 0.0
H482 H 0.30304 0.87452 0.53553 0.0
O483 O 0.25395 0.80588 0.54299 0.0
H484 H 0.45335 0.86529 0.63594 0.0
H485 H 0.41524 0.67791 0.56227 0.0
H486 H 0.23765 0.71326 0.56073 0.0
H487 H 0.38395 0.81245 0.65474 0.0
H488 H 0.38228 0.74433 0.61276 0.0
O489 O 0.24705 0.94368 0.68446 0.0
H490 H 0.12006 0.87662 0.7468 0.0
H491 H 0.26731 0.92225 0.77657 0.0
H492 H 0.26882 0.64337 0.51355 0.0
H493 H 0.37241 0.92838 0.51713 0.0
H494 H 0.35867 0.62622 0.51222 0.0
H495 H 0.44893 0.92379 0.56613 0.0
O496 O 0.21904 0.76035 0.63561 0.0
H497 H 0.12648 0.96566 0.56183 0.0
H498 H 0.11808 0.83073 0.68111 0.0
H499 H 0.0481 0.84676 0.62853 0.0
H500 H 0.051 0.91538 0.56846 0.0
H501 H 0.19664 0.95043 0.61594 0.0
H502 H 0.23901 0.9703 0.84675 0.0
H503 H 0.14955 0.97521 0.86499 0.0
O504 O 0.1968 0.80516 0.7023 0.0
C505 C 0.30822 0.81086 0.72045 0.0
C506 C 0.12938 0.92612 0.80608 0.0
C507 C 0.21261 0.95002 0.82466 0.0
N508 N 0.19582 0.89645 0.75567 0.0
C509 C 0.14673 0.89733 0.76709 0.0
C510 C 0.22852 0.92151 0.78513 0.0
C511 C 0.16256 0.95289 0.83471 0.0
C512 C 0.33634 0.86947 0.55642 0.0
N513 N 0.33923 0.83562 0.59382 0.0
C514 C 0.37562 0.90127 0.5459 0.0
C515 C 0.41838 0.89921 0.57388 0.0
C516 C 0.42087 0.86642 0.61289 0.0
C517 C 0.38066 0.83581 0.62302 0.0
C518 C 0.37615 0.68547 0.56206 0.0
C519 C 0.27655 0.70525 0.56246 0.0
C520 C 0.35703 0.72405 0.59028 0.0
N521 N 0.30786 0.73494 0.58883 0.0
C522 C 0.29412 0.66587 0.53469 0.0
C523 C 0.34442 0.65641 0.53391 0.0
C524 C 0.19497 0.76575 0.67621 0.0
C525 C 0.124 0.93777 0.58986 0.0
C526 C 0.12071 0.86197 0.65692 0.0
C527 C 0.08011 0.87059 0.62663 0.0
C528 C 0.08176 0.90891 0.59297 0.0
N529 N 0.16171 0.89196 0.65589 0.0
C530 C 0.16365 0.92893 0.62154 0.0
Co531 Co 0.60945 0.72652 0.18138 0.0
Co532 Co 0.68302 0.80525 0.11618 0.0
O533 O 0.6248 0.7663 0.1258 0.0
C534 C 0.51717 0.78931 0.17872 0.0
O535 O 0.54235 0.83069 0.18089 0.0
C536 C 0.68444 0.73974 0.02788 0.0
O537 O 0.682 0.70041 0.05582 0.0
O538 O 0.72741 0.74916 0.13831 0.0
O539 O 0.6787 0.7029 0.18719 0.0
H540 H 0.78212 0.96363 0.09066 0.0
H541 H 0.55069 0.71905 0.09048 0.0
O542 O 0.53883 0.74775 0.17777 0.0
H543 H 0.62489 0.55502 0.11191 0.0
H544 H 0.50941 0.59578 0.26428 0.0
H545 H 0.65277 0.70728 0.27909 0.0
H546 H 0.63906 0.62039 0.17341 0.0
H547 H 0.5274 0.65648 0.19973 0.0
O548 O 0.68475 0.78294 0.04635 0.0
H549 H 0.72617 0.86313 0.11226 0.0
H550 H 0.78147 0.78208 0.07236 0.0
H551 H 0.633 0.65074 0.34564 0.0
H552 H 0.5358 0.65551 0.02867 0.0
H553 H 0.5604 0.59479 0.34016 0.0
H554 H 0.57288 0.572 0.03863 0.0
O555 O 0.62722 0.78252 0.22754 0.0
H556 H 0.53098 0.8703 0.0342 0.0
H557 H 0.65969 0.90783 0.15595 0.0
H558 H 0.59348 0.96682 0.14227 0.0
H559 H 0.52808 0.94852 0.08102 0.0
H560 H 0.60078 0.81409 0.04464 0.0
H561 H 0.85169 0.83101 0.04266 0.0
H562 H 0.85036 0.9219 0.04902 0.0
O563 O 0.68366 0.82751 0.18569 0.0
C564 C 0.72052 0.71327 0.16871 0.0
C565 C 0.78129 0.92394 0.08716 0.0
C566 C 0.82068 0.84921 0.05928 0.0
N567 N 0.7418 0.84592 0.10168 0.0
C568 C 0.74177 0.89775 0.10755 0.0
C569 C 0.78177 0.82158 0.07758 0.0
C570 C 0.81991 0.90032 0.0632 0.0
C571 C 0.56673 0.68302 0.09562 0.0
N572 N 0.59538 0.67342 0.13572 0.0
C573 C 0.55857 0.64701 0.06006 0.0
C574 C 0.57929 0.60046 0.06587 0.0
C575 C 0.60837 0.59083 0.107 0.0
C576 C 0.6163 0.62805 0.14168 0.0
C577 C 0.53988 0.62122 0.26863 0.0
C578 C 0.62045 0.68396 0.27634 0.0
C579 C 0.55069 0.65535 0.23199 0.0
N580 N 0.59133 0.68521 0.23573 0.0
C581 C 0.60937 0.65179 0.31434 0.0
C582 C 0.56885 0.62029 0.31075 0.0
C583 C 0.66006 0.81703 0.22474 0.0
C584 C 0.56097 0.88017 0.05856 0.0
C585 C 0.63377 0.90035 0.12672 0.0
C586 C 0.59555 0.93396 0.11981 0.0
C587 C 0.55882 0.92363 0.08558 0.0
N588 N 0.63707 0.85842 0.09861 0.0
C589 C 0.60095 0.84845 0.06473 0.0
Co590 Co 0.72892 0.1821 0.62137 0.0
Co591 Co 0.80459 0.11525 0.69623 0.0
O592 O 0.7684 0.12627 0.63664 0.0
C593 C 0.79059 0.18376 0.52772 0.0
O594 O 0.83196 0.18942 0.55222 0.0
C595 C 0.73611 0.02918 0.69373 0.0
O596 O 0.69842 0.05911 0.69684 0.0
O597 O 0.74792 0.13691 0.73933 0.0
O598 O 0.70544 0.18869 0.69084 0.0
H599 H 0.92243 0.1048 0.76938 0.0
H600 H 0.71958 0.08877 0.56535 0.0
O601 O 0.7497 0.17813 0.55021 0.0
H602 H 0.55607 0.11621 0.63894 0.0
H603 H 0.60171 0.2676 0.51988 0.0
H604 H 0.71104 0.28028 0.66443 0.0
H605 H 0.62267 0.17723 0.65004 0.0
H606 H 0.65951 0.2011 0.53948 0.0
O607 O 0.78032 0.0455 0.69465 0.0
H608 H 0.85905 0.1113 0.74192 0.0
H609 H 0.77699 0.06531 0.79013 0.0
H610 H 0.65662 0.34806 0.64386 0.0
H611 H 0.65476 0.02607 0.55497 0.0
H612 H 0.60237 0.34413 0.57019 0.0
H613 H 0.57183 0.0396 0.59134 0.0
O614 O 0.78556 0.22764 0.63915 0.0
H615 H 0.88093 0.02844 0.5517 0.0
H616 H 0.90758 0.15541 0.67803 0.0
H617 H 0.97131 0.14048 0.6169 0.0
H618 H 0.9589 0.0761 0.55305 0.0
H619 H 0.81829 0.04228 0.61501 0.0
H620 H 0.82166 0.03054 0.86012 0.0
H621 H 0.91107 0.04091 0.8673 0.0
O622 O 0.82721 0.18568 0.69824 0.0
C623 C 0.71406 0.16916 0.73254 0.0
C624 C 0.92043 0.08345 0.80192 0.0
C625 C 0.84141 0.05172 0.83274 0.0
N626 N 0.84226 0.09875 0.75657 0.0
C627 C 0.89457 0.10564 0.76038 0.0
C628 C 0.81618 0.07177 0.79342 0.0
C629 C 0.89221 0.05753 0.83646 0.0
C630 C 0.68369 0.09508 0.58131 0.0
N631 N 0.67491 0.13678 0.60801 0.0
C632 C 0.64708 0.05925 0.57552 0.0
C633 C 0.6007 0.06689 0.596 0.0
C634 C 0.59179 0.10985 0.62262 0.0
C635 C 0.62966 0.14438 0.62867 0.0
C636 C 0.62672 0.27148 0.55061 0.0
C637 C 0.68819 0.27796 0.63189 0.0
C638 C 0.65917 0.23372 0.56234 0.0
N639 N 0.68856 0.23701 0.60318 0.0
C640 C 0.6575 0.31686 0.62011 0.0
C641 C 0.62677 0.31399 0.57914 0.0
C642 C 0.81826 0.22493 0.67366 0.0
C643 C 0.88788 0.05454 0.58089 0.0
C644 C 0.90186 0.1258 0.6521 0.0
C645 C 0.93842 0.11784 0.61701 0.0
C646 C 0.93134 0.08191 0.58118 0.0
N647 N 0.85969 0.09771 0.65284 0.0
C648 C 0.85253 0.06258 0.61729 0.0
Co649 Co 0.38018 0.28324 0.18506 0.0
Co650 Co 0.30642 0.20767 0.11699 0.0
O651 O 0.3659 0.24523 0.12733 0.0
C652 C 0.47625 0.22892 0.19102 0.0
O653 O 0.45507 0.18835 0.20681 0.0
C654 C 0.31324 0.26366 0.02209 0.0
O655 O 0.31416 0.30643 0.0447 0.0
O656 O 0.26519 0.26798 0.13348 0.0
O657 O 0.31066 0.3032 0.19342 0.0
H658 H 0.20468 0.05467 0.0759 0.0
H659 H 0.43561 0.30377 0.09212 0.0
O660 O 0.45111 0.26606 0.17802 0.0
H661 H 0.35623 0.46048 0.13798 0.0
H662 H 0.48272 0.40535 0.27714 0.0
H663 H 0.33643 0.2973 0.28346 0.0
H664 H 0.34636 0.38691 0.18953 0.0
H665 H 0.46146 0.35267 0.20727 0.0
O666 O 0.31026 0.22352 0.04585 0.0
H667 H 0.26051 0.15182 0.11038 0.0
H668 H 0.21043 0.23688 0.07169 0.0
H669 H 0.35768 0.34822 0.35392 0.0
H670 H 0.4466 0.37748 0.03988 0.0
H671 H 0.43424 0.39923 0.35439 0.0
H672 H 0.407 0.45602 0.06217 0.0
O673 O 0.36503 0.22408 0.22779 0.0
H674 H 0.4495 0.11716 0.04079 0.0
H675 H 0.31935 0.10739 0.16544 0.0
H676 H 0.37783 0.04002 0.15747 0.0
H677 H 0.44327 0.04384 0.094 0.0
H678 H 0.3905 0.18511 0.04937 0.0
H679 H 0.14169 0.19291 0.03355 0.0
H680 H 0.13915 0.10159 0.03483 0.0
O681 O 0.3004 0.18995 0.18769 0.0
C682 C 0.27083 0.29887 0.1693 0.0
C683 C 0.20636 0.09453 0.07595 0.0
C684 C 0.17024 0.17235 0.05205 0.0
N685 N 0.2461 0.17015 0.10014 0.0
C686 C 0.24511 0.118 0.10093 0.0
C687 C 0.20845 0.19729 0.07507 0.0
C688 C 0.1693 0.12107 0.05239 0.0
C689 C 0.41829 0.33808 0.10238 0.0
N690 N 0.39035 0.34091 0.14391 0.0
C691 C 0.42455 0.3795 0.0725 0.0
C692 C 0.40223 0.42381 0.08515 0.0
C693 C 0.37379 0.42635 0.12752 0.0
C694 C 0.36813 0.38434 0.15649 0.0
C695 C 0.45212 0.38 0.27998 0.0
C696 C 0.36957 0.31953 0.28265 0.0
C697 C 0.43923 0.35059 0.24013 0.0
N698 N 0.39817 0.32114 0.24185 0.0
C699 C 0.38218 0.34762 0.32333 0.0
C700 C 0.42442 0.37705 0.32273 0.0
C701 C 0.32746 0.1948 0.22573 0.0
C702 C 0.42008 0.11455 0.06709 0.0
C703 C 0.34702 0.11011 0.13713 0.0
C704 C 0.38022 0.07125 0.13287 0.0
C705 C 0.4169 0.07346 0.09742 0.0
N706 N 0.34921 0.15008 0.10621 0.0
C707 C 0.386 0.15272 0.07198 0.0
Co708 Co 0.8812 0.6956 0.77936 0.0
Co709 Co 0.80443 0.61877 0.71525 0.0
O710 O 0.86594 0.63405 0.74733 0.0
C711 C 0.9759 0.68606 0.71974 0.0
O712 O 0.95371 0.68764 0.67685 0.0
C713 C 0.81511 0.52453 0.77527 0.0
O714 O 0.81471 0.54718 0.81795 0.0
O715 O 0.76813 0.63914 0.77745 0.0
O716 O 0.81231 0.7057 0.80171 0.0
H717 H 0.68743 0.56721 0.57714 0.0
H718 H 0.95256 0.61531 0.80441 0.0
O719 O 0.95168 0.68844 0.75953 0.0
H720 H 0.84546 0.62643 0.94962 0.0
H721 H 0.93395 0.81274 0.91701 0.0
H722 H 0.92652 0.7835 0.73905 0.0
H723 H 0.83401 0.68273 0.88155 0.0
H724 H 0.88832 0.74282 0.88525 0.0
O725 O 0.81162 0.54833 0.73528 0.0
H726 H 0.75706 0.61294 0.60943 0.0
H727 H 0.7166 0.573 0.75524 0.0
H728 H 0.96557 0.85838 0.76986 0.0
H729 H 0.96346 0.55793 0.87251 0.0
H730 H 0.97041 0.87325 0.85986 0.0
H731 H 0.9113 0.5635 0.94636 0.0
O732 O 0.86065 0.73189 0.71711 0.0
H733 H 0.94162 0.53597 0.62191 0.0
H734 H 0.81778 0.66637 0.61324 0.0
H735 H 0.87405 0.65492 0.54528 0.0
H736 H 0.93649 0.5886 0.54833 0.0
H737 H 0.88434 0.54695 0.69001 0.0
H738 H 0.64185 0.534 0.72399 0.0
H739 H 0.62717 0.52972 0.63391 0.0
O740 O 0.79414 0.68765 0.69291 0.0
C741 C 0.77364 0.67893 0.80321 0.0
C742 C 0.69306 0.56995 0.61641 0.0
C743 C 0.66748 0.55108 0.69868 0.0
N744 N 0.7421 0.5976 0.68518 0.0
C745 C 0.73345 0.59576 0.63553 0.0
C746 C 0.70943 0.575 0.71632 0.0
C747 C 0.65949 0.54836 0.64825 0.0
C748 C 0.93049 0.6205 0.83687 0.0
N749 N 0.89518 0.65643 0.83905 0.0
C750 C 0.93669 0.58688 0.87528 0.0
C751 C 0.90676 0.58945 0.9165 0.0
C752 C 0.86991 0.62463 0.91828 0.0
C753 C 0.86382 0.65685 0.87878 0.0
C754 C 0.93075 0.80711 0.87776 0.0
C755 C 0.92471 0.79072 0.77795 0.0
C756 C 0.90491 0.7666 0.85893 0.0
N757 N 0.90241 0.75802 0.8093 0.0
C758 C 0.94872 0.83274 0.79533 0.0
C759 C 0.95182 0.84081 0.84571 0.0
C760 C 0.82073 0.72643 0.69151 0.0
C761 C 0.91288 0.56298 0.61925 0.0
C762 C 0.84343 0.63636 0.61596 0.0
C763 C 0.87564 0.63027 0.5765 0.0
C764 C 0.91055 0.59317 0.57817 0.0
N765 N 0.84362 0.60481 0.65558 0.0
C766 C 0.8793 0.56923 0.65765 0.0
Co767 Co 0.81578 0.3887 0.28344 0.0
Co768 Co 0.88218 0.31592 0.20566 0.0
O769 O 0.87175 0.37402 0.24415 0.0
C770 C 0.81741 0.47873 0.21796 0.0
O771 O 0.81779 0.45119 0.17827 0.0
C772 C 0.97117 0.31563 0.27162 0.0
O773 O 0.94278 0.31581 0.31062 0.0
O774 O 0.86049 0.27127 0.26148 0.0
O775 O 0.81066 0.31907 0.30729 0.0
H776 H 0.9132 0.21659 0.04915 0.0
H777 H 0.90872 0.44649 0.29169 0.0
O778 O 0.81842 0.45933 0.26076 0.0
H779 H 0.88267 0.37316 0.45547 0.0
H780 H 0.72809 0.49 0.40944 0.0
H781 H 0.71879 0.34333 0.3024 0.0
H782 H 0.82133 0.36117 0.38957 0.0
H783 H 0.79518 0.47126 0.35175 0.0
O784 O 0.95271 0.31568 0.22833 0.0
H785 H 0.88789 0.27282 0.14814 0.0
H786 H 0.92447 0.21726 0.23065 0.0
H787 H 0.64996 0.36321 0.35575 0.0
H788 H 0.97206 0.45733 0.35587 0.0
H789 H 0.65285 0.43744 0.40976 0.0
H790 H 0.9591 0.42108 0.4387 0.0
O791 O 0.7697 0.37023 0.22792 0.0
H792 H 0.96088 0.46989 0.13996 0.0
H793 H 0.84245 0.3374 0.10298 0.0
H794 H 0.85492 0.40357 0.04342 0.0
H795 H 0.91437 0.47098 0.06157 0.0
H796 H 0.95202 0.39996 0.1965 0.0
H797 H 0.95377 0.14619 0.18382 0.0
H798 H 0.95083 0.14724 0.09281 0.0
O799 O 0.81189 0.31403 0.18339 0.0
C800 C 0.82944 0.27739 0.29669 0.0
C801 C 0.91471 0.21728 0.08883 0.0
C802 C 0.93832 0.17733 0.16468 0.0
N803 N 0.89767 0.25712 0.16576 0.0
C804 C 0.89413 0.25728 0.11388 0.0
C805 C 0.92022 0.21686 0.19116 0.0
C806 C 0.93648 0.17804 0.11357 0.0
C807 C 0.90272 0.43057 0.32762 0.0
N808 N 0.8612 0.40347 0.33687 0.0
C809 C 0.93884 0.43668 0.3638 0.0
C810 C 0.93156 0.41625 0.41022 0.0
C811 C 0.88872 0.38939 0.41966 0.0
C812 C 0.85399 0.38292 0.38222 0.0
C813 C 0.7251 0.45858 0.38511 0.0
C814 C 0.72049 0.37616 0.32494 0.0
C815 C 0.76312 0.44746 0.35271 0.0
N816 N 0.76074 0.40607 0.32397 0.0
C817 C 0.68126 0.3873 0.35544 0.0
C818 C 0.68329 0.42878 0.38565 0.0
C819 C 0.77238 0.33714 0.19402 0.0
C820 C 0.93724 0.43917 0.13025 0.0
C821 C 0.87103 0.36423 0.11031 0.0
C822 C 0.8772 0.40242 0.07644 0.0
C823 C 0.91042 0.44026 0.08666 0.0
N824 N 0.89905 0.362 0.15233 0.0
C825 C 0.93202 0.39912 0.16215 0.0
Co826 Co 0.20608 0.37405 0.71908 0.0
Co827 Co 0.1274 0.29505 0.77766 0.0
O828 O 0.14396 0.35735 0.74849 0.0
C829 C 0.18794 0.46647 0.78171 0.0
O830 O 0.18282 0.44264 0.82338 0.0
C831 C 0.03483 0.31242 0.71494 0.0
O832 O 0.05853 0.31691 0.67315 0.0
O833 O 0.15032 0.25983 0.71567 0.0
O834 O 0.21698 0.30548 0.69431 0.0
H835 H 0.07281 0.17545 0.91096 0.0
H836 H 0.12707 0.44781 0.69457 0.0
O837 O 0.19761 0.44382 0.74199 0.0
H838 H 0.14187 0.34732 0.54492 0.0
H839 H 0.32508 0.42738 0.58491 0.0
H840 H 0.28935 0.42542 0.762 0.0
H841 H 0.19381 0.33017 0.61526 0.0
H842 H 0.26049 0.37383 0.61709 0.0
O843 O 0.0576 0.30344 0.75477 0.0
H844 H 0.12651 0.24037 0.87967 0.0
H845 H 0.0769 0.21164 0.73402 0.0
H846 H 0.35756 0.47609 0.73125 0.0
H847 H 0.07356 0.46406 0.6247 0.0
H848 H 0.3747 0.47893 0.64176 0.0
H849 H 0.0812 0.41527 0.54838 0.0
O850 O 0.24156 0.35122 0.78099 0.0
H851 H 0.03744 0.42727 0.87237 0.0
H852 H 0.17104 0.30666 0.88161 0.0
H853 H 0.1539 0.35836 0.95214 0.0
H854 H 0.0861 0.4192 0.94876 0.0
H855 H 0.05367 0.37397 0.80232 0.0
H856 H 0.02612 0.14322 0.76395 0.0
H857 H 0.02213 0.12588 0.85337 0.0
O858 O 0.19605 0.28441 0.80247 0.0
C859 C 0.19135 0.26585 0.6921 0.0
C860 C 0.07409 0.18309 0.87198 0.0
C861 C 0.04791 0.16479 0.78958 0.0
N862 N 0.10448 0.23209 0.80469 0.0
C863 C 0.10419 0.2209 0.85375 0.0
C864 C 0.07787 0.20317 0.77277 0.0
C865 C 0.04549 0.15524 0.83968 0.0
C866 C 0.13334 0.42714 0.66137 0.0
N867 N 0.16841 0.39089 0.65904 0.0
C868 C 0.1018 0.4364 0.62179 0.0
C869 C 0.10552 0.40844 0.5792 0.0
C870 C 0.13952 0.37046 0.57727 0.0
C871 C 0.16966 0.36138 0.61791 0.0
C872 C 0.31754 0.42664 0.62392 0.0
C873 C 0.2977 0.42412 0.72323 0.0
C874 C 0.27989 0.39667 0.64263 0.0
N875 N 0.26879 0.39705 0.6917 0.0
C876 C 0.33596 0.45394 0.70595 0.0
C877 C 0.34541 0.45571 0.6558 0.0
C878 C 0.23559 0.31022 0.80472 0.0
C879 C 0.06503 0.39895 0.87522 0.0
C880 C 0.13993 0.33094 0.87899 0.0
C881 C 0.13084 0.36091 0.91974 0.0
C882 C 0.09293 0.395 0.91786 0.0
N883 N 0.11049 0.33243 0.83781 0.0
C884 C 0.07429 0.36755 0.83555 0.0
Co885 Co 0.10887 0.68702 0.21289 0.0
Co886 Co 0.18126 0.62 0.29063 0.0
O887 O 0.12334 0.63068 0.25191 0.0
C888 C 0.01891 0.68449 0.27825 0.0
O889 O 0.04655 0.68441 0.31789 0.0
C890 C 0.18138 0.53079 0.22484 0.0
O891 O 0.17952 0.55895 0.18569 0.0
O892 O 0.22598 0.64164 0.23489 0.0
O893 O 0.17851 0.69205 0.18927 0.0
H894 H 0.2797 0.5875 0.44739 0.0
H895 H 0.05089 0.59423 0.20383 0.0
O896 O 0.03823 0.68416 0.23541 0.0
H897 H 0.12455 0.62145 0.04042 0.0
H898 H 0.00907 0.77543 0.08607 0.0
H899 H 0.15468 0.78395 0.19452 0.0
H900 H 0.13667 0.68217 0.10683 0.0
H901 H 0.02663 0.70837 0.14432 0.0
O902 O 0.1817 0.54946 0.26801 0.0
H903 H 0.22415 0.61406 0.3483 0.0
H904 H 0.27974 0.57758 0.26584 0.0
H905 H 0.13578 0.85286 0.1408 0.0
H906 H 0.04002 0.53145 0.13916 0.0
H907 H 0.06197 0.85039 0.0862 0.0
H908 H 0.07634 0.54502 0.05649 0.0
O909 O 0.12733 0.73285 0.26868 0.0
H910 H 0.02741 0.54071 0.35592 0.0
H911 H 0.15948 0.65959 0.39329 0.0
H912 H 0.09324 0.64684 0.45269 0.0
H913 H 0.02602 0.58726 0.43429 0.0
H914 H 0.09725 0.55013 0.29941 0.0
H915 H 0.3503 0.54749 0.31276 0.0
H916 H 0.34878 0.54942 0.40383 0.0
O917 O 0.18336 0.69027 0.31302 0.0
C918 C 0.22001 0.67287 0.19976 0.0
C919 C 0.27916 0.58628 0.4077 0.0
C920 C 0.31913 0.56276 0.3319 0.0
N921 N 0.23984 0.60426 0.33069 0.0
C922 C 0.2395 0.60747 0.3826 0.0
C923 C 0.27997 0.58151 0.30535 0.0
C924 C 0.31823 0.56422 0.38301 0.0
C925 C 0.06687 0.60049 0.16798 0.0
N926 N 0.09414 0.64199 0.15913 0.0
C927 C 0.06071 0.56471 0.1315 0.0
C928 C 0.08122 0.5723 0.08519 0.0
C929 C 0.10825 0.61514 0.07614 0.0
C930 C 0.1148 0.64952 0.11389 0.0
C931 C 0.04017 0.7783 0.11081 0.0
C932 C 0.12199 0.78248 0.17178 0.0
C933 C 0.05064 0.74029 0.14352 0.0
N934 N 0.09179 0.74241 0.17259 0.0
C935 C 0.11142 0.82174 0.14105 0.0
C936 C 0.0702 0.81994 0.11048 0.0
C937 C 0.1605 0.72996 0.3025 0.0
C938 C 0.0579 0.56469 0.3656 0.0
C939 C 0.13267 0.63103 0.38582 0.0
C940 C 0.09445 0.6247 0.4196 0.0
C941 C 0.05671 0.59141 0.40923 0.0
N942 N 0.135 0.6031 0.34376 0.0
C943 C 0.09796 0.57011 0.33377 0.0
Co944 Co 0.78253 0.87931 0.68431 0.0
Co945 Co 0.70629 0.80604 0.61643 0.0
O946 O 0.74432 0.86529 0.6266 0.0
C947 C 0.72888 0.97573 0.69073 0.0
O948 O 0.68832 0.95474 0.70674 0.0
C949 C 0.76153 0.8118 0.52105 0.0
O950 O 0.80448 0.81204 0.54333 0.0
O951 O 0.76643 0.76438 0.63264 0.0
O952 O 0.8021 0.80962 0.69252 0.0
H953 H 0.55242 0.70542 0.57611 0.0
H954 H 0.80333 0.93499 0.59147 0.0
O955 O 0.76574 0.95039 0.67739 0.0
H956 H 0.9594 0.85422 0.63704 0.0
H957 H 0.90493 0.98133 0.77662 0.0
H958 H 0.79659 0.8352 0.78257 0.0
H959 H 0.88587 0.84474 0.68858 0.0
H960 H 0.8524 0.96024 0.70657 0.0
O961 O 0.72159 0.80978 0.54515 0.0
H962 H 0.65014 0.76047 0.61017 0.0
H963 H 0.73455 0.70998 0.57078 0.0
H964 H 0.84748 0.85616 0.85309 0.0
H965 H 0.87714 0.94585 0.53937 0.0
H966 H 0.89857 0.93271 0.85381 0.0
H967 H 0.95532 0.90549 0.56149 0.0
O968 O 0.72346 0.86443 0.72721 0.0
H969 H 0.61642 0.94993 0.54076 0.0
H970 H 0.60644 0.81965 0.66543 0.0
H971 H 0.53953 0.87871 0.65788 0.0
H972 H 0.54345 0.94423 0.59442 0.0
H973 H 0.68393 0.89036 0.54895 0.0
H974 H 0.68987 0.64183 0.53237 0.0
H975 H 0.59858 0.63996 0.53412 0.0
O976 O 0.68897 0.79998 0.68718 0.0
C977 C 0.7975 0.76984 0.66835 0.0
C978 C 0.59227 0.70686 0.57586 0.0
C979 C 0.66964 0.6704 0.55118 0.0
N980 N 0.66829 0.74597 0.59976 0.0
C981 C 0.61617 0.74529 0.60095 0.0
C982 C 0.69499 0.70826 0.57435 0.0
C983 C 0.61838 0.66983 0.5518 0.0
C984 C 0.83751 0.91738 0.60166 0.0
N985 N 0.84015 0.88922 0.64309 0.0
C986 C 0.87896 0.92354 0.57186 0.0
C987 C 0.92309 0.90082 0.58442 0.0
C988 C 0.92543 0.87211 0.62665 0.0
C989 C 0.88342 0.86665 0.6556 0.0
C990 C 0.87953 0.95075 0.77936 0.0
C991 C 0.8189 0.8683 0.78183 0.0
C992 C 0.85021 0.93796 0.73942 0.0
N993 N 0.82063 0.89698 0.74106 0.0
C994 C 0.84694 0.88078 0.82258 0.0
C995 C 0.87644 0.92299 0.82209 0.0
C996 C 0.6941 0.82692 0.72524 0.0
C997 C 0.61375 0.92049 0.56707 0.0
C998 C 0.60919 0.84733 0.63711 0.0
C999 C 0.57059 0.88088 0.6331 0.0
C1000 C 0.57286 0.9176 0.59765 0.0
N1001 N 0.64896 0.84926 0.60597 0.0
C1002 C 0.65166 0.88608 0.57174 0.0
Co1003 Co 0.68251 0.22762 0.12132 0.0
Co1004 Co 0.6162 0.30374 0.19614 0.0
O1005 O 0.62695 0.26745 0.13657 0.0
C1006 C 0.68476 0.28959 0.02782 0.0
O1007 O 0.69045 0.33086 0.05249 0.0
C1008 C 0.52973 0.23578 0.1938 0.0
O1009 O 0.55941 0.19786 0.19681 0.0
O1010 O 0.63755 0.24695 0.23932 0.0
O1011 O 0.68888 0.20399 0.19083 0.0
H1012 H 0.60653 0.42177 0.26906 0.0
H1013 H 0.58928 0.21903 0.06506 0.0
O1014 O 0.67882 0.24862 0.05016 0.0
H1015 H 0.61537 0.05511 0.13855 0.0
H1016 H 0.76757 0.10049 0.01942 0.0
H1017 H 0.78048 0.2091 0.16447 0.0
H1018 H 0.67683 0.12131 0.14988 0.0
H1019 H 0.70113 0.15819 0.03938 0.0
O1020 O 0.54635 0.27989 0.19465 0.0
H1021 H 0.61265 0.35828 0.24174 0.0
H1022 H 0.56624 0.27652 0.29013 0.0
H1023 H 0.84818 0.15479 0.14363 0.0
H1024 H 0.52618 0.15463 0.0544 0.0
H1025 H 0.84415 0.10087 0.06971 0.0
H1026 H 0.53902 0.07152 0.09076 0.0
O1027 O 0.72843 0.2839 0.1392 0.0
H1028 H 0.52946 0.38075 0.05178 0.0
H1029 H 0.65717 0.40637 0.17762 0.0
H1030 H 0.64286 0.47001 0.11618 0.0
H1031 H 0.57805 0.45818 0.05264 0.0
H1032 H 0.54299 0.31803 0.11516 0.0
H1033 H 0.53185 0.3215 0.36006 0.0
H1034 H 0.54279 0.4109 0.36707 0.0
O1035 O 0.68674 0.3259 0.19815 0.0
C1036 C 0.66955 0.21287 0.23256 0.0
C1037 C 0.58524 0.41993 0.30163 0.0
C1038 C 0.5531 0.3411 0.33262 0.0
N1039 N 0.60001 0.34158 0.25642 0.0
C1040 C 0.60721 0.39388 0.26012 0.0
C1041 C 0.57293 0.31569 0.29334 0.0
C1042 C 0.55923 0.3919 0.33625 0.0
C1043 C 0.59529 0.18306 0.081 0.0
N1044 N 0.63685 0.17393 0.10781 0.0
C1045 C 0.55924 0.14669 0.07506 0.0
C1046 C 0.5665 0.1002 0.09552 0.0
C1047 C 0.60931 0.09093 0.12226 0.0
C1048 C 0.64408 0.12856 0.12844 0.0
C1049 C 0.77149 0.12532 0.0503 0.0
C1050 C 0.77809 0.18639 0.13185 0.0
C1051 C 0.73376 0.1577 0.06222 0.0
N1052 N 0.73713 0.18693 0.10316 0.0
C1053 C 0.81696 0.15576 0.1199 0.0
C1054 C 0.81403 0.12523 0.07879 0.0
C1055 C 0.72593 0.31662 0.17368 0.0
C1056 C 0.55579 0.38746 0.08082 0.0
C1057 C 0.62747 0.40086 0.15175 0.0
C1058 C 0.61982 0.43739 0.11651 0.0
C1059 C 0.58366 0.43063 0.08084 0.0
N1060 N 0.59897 0.35896 0.15269 0.0
C1061 C 0.56364 0.35208 0.11729 0.0
Co1062 Co 0.22848 0.11136 0.68192 0.0
Co1063 Co 0.30794 0.18461 0.61722 0.0
O1064 O 0.26849 0.12662 0.62646 0.0
C1065 C 0.2905 0.01845 0.67917 0.0
O1066 O 0.33208 0.04328 0.68139 0.0
C1067 C 0.24249 0.18624 0.52901 0.0
O1068 O 0.20338 0.18372 0.5572 0.0
O1069 O 0.25211 0.22944 0.63912 0.0
O1070 O 0.20535 0.1808 0.68766 0.0
H1071 H 0.42979 0.25219 0.6142 0.0
H1072 H 0.22091 0.05286 0.59089 0.0
O1073 O 0.24916 0.04051 0.67829 0.0
H1074 H 0.05759 0.12866 0.61154 0.0
H1075 H 0.09745 0.01164 0.7648 0.0
H1076 H 0.20963 0.15446 0.77972 0.0
H1077 H 0.12267 0.14176 0.67359 0.0
H1078 H 0.15757 0.02991 0.69985 0.0
O1079 O 0.2858 0.18677 0.54727 0.0
H1080 H 0.36524 0.22656 0.6145 0.0
H1081 H 0.2871 0.28325 0.57208 0.0
H1082 H 0.1537 0.13439 0.84658 0.0
H1083 H 0.15769 0.03895 0.52859 0.0
H1084 H 0.09764 0.06184 0.84121 0.0
H1085 H 0.0745 0.07685 0.53814 0.0
O1086 O 0.28435 0.12865 0.72844 0.0
H1087 H 0.37243 0.03267 0.53455 0.0
H1088 H 0.40996 0.16004 0.65761 0.0
H1089 H 0.46861 0.09364 0.64372 0.0
H1090 H 0.45036 0.02893 0.58176 0.0
H1091 H 0.31655 0.10269 0.54524 0.0
H1092 H 0.33749 0.35234 0.54293 0.0
H1093 H 0.42743 0.35004 0.54947 0.0
O1094 O 0.32977 0.18485 0.68683 0.0
C1095 C 0.216 0.22262 0.66924 0.0
C1096 C 0.431 0.28382 0.59137 0.0
C1097 C 0.35493 0.3215 0.56067 0.0
N1098 N 0.34949 0.24323 0.6034 0.0
C1099 C 0.40164 0.24394 0.61239 0.0
C1100 C 0.32641 0.28325 0.5785 0.0
C1101 C 0.40596 0.32039 0.56534 0.0
C1102 C 0.18502 0.06921 0.59588 0.0
N1103 N 0.17547 0.09776 0.63604 0.0
C1104 C 0.14919 0.06163 0.56003 0.0
C1105 C 0.10283 0.0828 0.56561 0.0
C1106 C 0.09323 0.11174 0.60683 0.0
C1107 C 0.13028 0.11908 0.64181 0.0
C1108 C 0.12309 0.04194 0.76918 0.0
C1109 C 0.18622 0.12221 0.77696 0.0
C1110 C 0.15683 0.05295 0.73228 0.0
N1111 N 0.18696 0.0934 0.73612 0.0
C1112 C 0.15448 0.11087 0.81521 0.0
C1113 C 0.12283 0.07046 0.81162 0.0
C1114 C 0.3189 0.16144 0.72587 0.0
C1115 C 0.38234 0.06241 0.55916 0.0
C1116 C 0.40254 0.1345 0.62806 0.0
C1117 C 0.43594 0.09614 0.62104 0.0
C1118 C 0.42563 0.05978 0.58642 0.0
N1119 N 0.3608 0.13828 0.59974 0.0
C1120 C 0.3508 0.1025 0.56551 0.0
Co1121 Co 0.29582 0.78057 0.11218 0.0
Co1122 Co 0.37265 0.72216 0.19249 0.0
O1123 O 0.35706 0.75058 0.12986 0.0
C1124 C 0.30974 0.71242 0.02312 0.0
O1125 O 0.30817 0.67204 0.04965 0.0
C1126 C 0.46285 0.78857 0.18085 0.0
O1127 O 0.43696 0.82931 0.18191 0.0
O1128 O 0.35002 0.78418 0.22706 0.0
O1129 O 0.28494 0.80716 0.18051 0.0
H1130 H 0.42583 0.58968 0.3137 0.0
H1131 H 0.3734 0.80332 0.0356 0.0
O1132 O 0.30452 0.75466 0.04303 0.0
H1133 H 0.36524 0.9536 0.13614 0.0
H1134 H 0.17772 0.91686 0.06249 0.0
H1135 H 0.21187 0.73895 0.06066 0.0
H1136 H 0.31202 0.88448 0.15493 0.0
H1137 H 0.24382 0.88329 0.11306 0.0
O1138 O 0.44217 0.74647 0.18442 0.0
H1139 H 0.37439 0.61993 0.24688 0.0
H1140 H 0.4213 0.76683 0.27664 0.0
H1141 H 0.14228 0.77074 0.01338 0.0
H1142 H 0.42755 0.87245 0.01715 0.0
H1143 H 0.12575 0.86075 0.01222 0.0
H1144 H 0.42353 0.94895 0.06624 0.0
O1145 O 0.25879 0.71986 0.13571 0.0
H1146 H 0.46205 0.62621 0.06098 0.0
H1147 H 0.32833 0.61835 0.18145 0.0
H1148 H 0.34318 0.54849 0.12838 0.0
H1149 H 0.41116 0.55114 0.06767 0.0
H1150 H 0.44809 0.69619 0.11565 0.0
H1151 H 0.46974 0.73784 0.34654 0.0
H1152 H 0.47393 0.64835 0.36454 0.0
O1153 O 0.30343 0.69737 0.20248 0.0
C1154 C 0.30991 0.80866 0.22056 0.0
C1155 C 0.42429 0.62872 0.30589 0.0
C1156 C 0.449 0.71174 0.32449 0.0
N1157 N 0.39483 0.69556 0.25575 0.0
C1158 C 0.39541 0.6464 0.26709 0.0
C1159 C 0.42033 0.728 0.28515 0.0
C1160 C 0.4515 0.66162 0.33443 0.0
C1161 C 0.36856 0.83663 0.05652 0.0
N1162 N 0.3348 0.83968 0.09395 0.0
C1163 C 0.40055 0.87577 0.04598 0.0
C1164 C 0.3988 0.91851 0.07399 0.0
C1165 C 0.36613 0.92114 0.11306 0.0
C1166 C 0.3353 0.88108 0.12318 0.0
C1167 C 0.18501 0.8777 0.06222 0.0
C1168 C 0.20412 0.77791 0.06244 0.0
C1169 C 0.22341 0.85823 0.09047 0.0
N1170 N 0.23398 0.80898 0.08893 0.0
C1171 C 0.16491 0.79584 0.03463 0.0
C1172 C 0.1558 0.84623 0.03394 0.0
C1173 C 0.26404 0.69578 0.17637 0.0
C1174 C 0.43449 0.62379 0.0893 0.0
C1175 C 0.35938 0.62081 0.15704 0.0
C1176 C 0.36731 0.58029 0.12646 0.0
C1177 C 0.40527 0.58179 0.09245 0.0
N1178 N 0.38971 0.66158 0.15593 0.0
C1179 C 0.42637 0.66335 0.12128 0.0
Co1180 Co 0.72108 0.20253 0.38421 0.0
Co1181 Co 0.77862 0.12498 0.304 0.0
O1182 O 0.75044 0.1409 0.36664 0.0
C1183 C 0.78904 0.1883 0.47342 0.0
O1184 O 0.82947 0.1892 0.44701 0.0
C1185 C 0.71096 0.03548 0.31518 0.0
O1186 O 0.6706 0.06192 0.3139 0.0
O1187 O 0.71695 0.14839 0.26937 0.0
O1188 O 0.69452 0.21364 0.31588 0.0
H1189 H 0.91039 0.07117 0.18252 0.0
H1190 H 0.69784 0.12503 0.46068 0.0
O1191 O 0.74691 0.19373 0.45336 0.0
H1192 H 0.54758 0.13457 0.36025 0.0
H1193 H 0.58615 0.32196 0.43428 0.0
H1194 H 0.76367 0.28625 0.43537 0.0
H1195 H 0.61699 0.18744 0.34161 0.0
H1196 H 0.61884 0.25547 0.38371 0.0
O1197 O 0.75333 0.05565 0.31191 0.0
H1198 H 0.88071 0.12247 0.24972 0.0
H1199 H 0.73344 0.07703 0.2198 0.0
H1200 H 0.73276 0.35614 0.48272 0.0
H1201 H 0.62844 0.07114 0.47892 0.0
H1202 H 0.64295 0.37348 0.48426 0.0
H1203 H 0.55194 0.0759 0.42992 0.0
O1204 O 0.7821 0.23898 0.36067 0.0
H1205 H 0.87396 0.03235 0.43403 0.0
H1206 H 0.88282 0.16812 0.3157 0.0
H1207 H 0.95274 0.15148 0.36818 0.0
H1208 H 0.94963 0.08243 0.42774 0.0
H1209 H 0.80382 0.04831 0.38017 0.0
H1210 H 0.76175 0.029 0.14958 0.0
H1211 H 0.8512 0.02405 0.13137 0.0
O1212 O 0.80432 0.194 0.2941 0.0
C1213 C 0.69275 0.18865 0.27586 0.0
C1214 C 0.8714 0.07301 0.19039 0.0
C1215 C 0.78815 0.04922 0.17172 0.0
N1216 N 0.80495 0.10268 0.24077 0.0
C1217 C 0.85405 0.10178 0.22939 0.0
C1218 C 0.77224 0.07769 0.21128 0.0
C1219 C 0.8382 0.04633 0.16168 0.0
C1220 C 0.66454 0.13016 0.43981 0.0
N1221 N 0.66168 0.1641 0.40249 0.0
C1222 C 0.62525 0.09835 0.45024 0.0
C1223 C 0.5825 0.1005 0.42226 0.0
C1224 C 0.58003 0.13339 0.38333 0.0
C1225 C 0.62025 0.16401 0.37329 0.0
C1226 C 0.62523 0.31431 0.4344 0.0
C1227 C 0.72478 0.29434 0.43373 0.0
C1228 C 0.64419 0.2757 0.40612 0.0
N1229 N 0.69334 0.26472 0.40741 0.0
C1230 C 0.70736 0.33372 0.4616 0.0
C1231 C 0.65709 0.34327 0.4625 0.0
C1232 C 0.80621 0.23347 0.32011 0.0
C1233 C 0.87652 0.06049 0.40624 0.0
C1234 C 0.88006 0.13676 0.33972 0.0
C1235 C 0.92063 0.12777 0.36994 0.0
C1236 C 0.91887 0.08921 0.40331 0.0
N1237 N 0.83894 0.10692 0.34057 0.0
C1238 C 0.83687 0.06973 0.37469 0.0
Co1239 Co 0.38993 0.27268 0.81523 0.0
Co1240 Co 0.3164 0.19388 0.88035 0.0
O1241 O 0.37463 0.23278 0.87071 0.0
C1242 C 0.48267 0.21039 0.81765 0.0
O1243 O 0.45779 0.16884 0.8151 0.0
C1244 C 0.31551 0.25955 0.96844 0.0
O1245 O 0.31779 0.29872 0.94024 0.0
O1246 O 0.27196 0.24997 0.85834 0.0
O1247 O 0.32061 0.29608 0.80929 0.0
H1248 H 0.21727 0.03546 0.90545 0.0
H1249 H 0.44847 0.28017 0.90623 0.0
O1250 O 0.46068 0.25177 0.81893 0.0
H1251 H 0.373 0.44369 0.88548 0.0
H1252 H 0.48977 0.40381 0.73275 0.0
H1253 H 0.34687 0.29179 0.71737 0.0
H1254 H 0.35984 0.37867 0.8234 0.0
H1255 H 0.47167 0.34314 0.79728 0.0
O1256 O 0.31485 0.21624 0.95019 0.0
H1257 H 0.27325 0.13602 0.88423 0.0
H1258 H 0.21795 0.21694 0.92437 0.0
H1259 H 0.36678 0.34832 0.65084 0.0
H1260 H 0.46241 0.34333 0.96856 0.0
H1261 H 0.4392 0.40447 0.65658 0.0
H1262 H 0.42465 0.42662 0.95898 0.0
O1263 O 0.37236 0.21664 0.76902 0.0
H1264 H 0.46862 0.12872 0.96189 0.0
H1265 H 0.33968 0.09141 0.84036 0.0
H1266 H 0.40599 0.03249 0.85368 0.0
H1267 H 0.47149 0.05064 0.91486 0.0
H1268 H 0.39873 0.18488 0.95182 0.0
H1269 H 0.14762 0.16789 0.95378 0.0
H1270 H 0.14894 0.07706 0.94706 0.0
O1271 O 0.31573 0.17175 0.81079 0.0
C1272 C 0.27881 0.28577 0.82785 0.0
C1273 C 0.21809 0.07513 0.90907 0.0
C1274 C 0.17866 0.14977 0.93713 0.0
N1275 N 0.25762 0.1532 0.89487 0.0
C1276 C 0.25765 0.10139 0.88884 0.0
C1277 C 0.21764 0.17746 0.91902 0.0
C1278 C 0.17942 0.09868 0.93302 0.0
C1279 C 0.43219 0.31611 0.90121 0.0
N1280 N 0.4037 0.32574 0.86101 0.0
C1281 C 0.43977 0.3519 0.93709 0.0
C1282 C 0.4187 0.39832 0.93149 0.0
C1283 C 0.38984 0.40801 0.89021 0.0
C1284 C 0.38248 0.37099 0.8552 0.0
C1285 C 0.45941 0.37826 0.72827 0.0
C1286 C 0.3791 0.31522 0.72024 0.0
C1287 C 0.44853 0.34416 0.76491 0.0
N1288 N 0.40802 0.31412 0.76098 0.0
C1289 C 0.39027 0.34737 0.68224 0.0
C1290 C 0.43068 0.379 0.68598 0.0
C1291 C 0.33942 0.1822 0.77177 0.0
C1292 C 0.43856 0.11887 0.93763 0.0
C1293 C 0.36564 0.09883 0.86956 0.0
C1294 C 0.40391 0.06525 0.87628 0.0
C1295 C 0.44071 0.0755 0.91046 0.0
N1296 N 0.36236 0.14068 0.8978 0.0
C1297 C 0.39853 0.15058 0.93164 0.0
Co1298 Co 0.27105 0.81887 0.37503 0.0
Co1299 Co 0.19542 0.88603 0.30035 0.0
O1300 O 0.23165 0.87482 0.35989 0.0
C1301 C 0.20977 0.81605 0.46891 0.0
O1302 O 0.16845 0.80936 0.44459 0.0
C1303 C 0.26419 0.97196 0.30261 0.0
O1304 O 0.30178 0.94193 0.29924 0.0
O1305 O 0.25195 0.86418 0.25712 0.0
O1306 O 0.29445 0.81234 0.30553 0.0
H1307 H 0.07754 0.89664 0.22726 0.0
H1308 H 0.28063 0.91212 0.43117 0.0
O1309 O 0.25041 0.82276 0.44624 0.0
H1310 H 0.44393 0.88453 0.35722 0.0
H1311 H 0.39795 0.73283 0.47644 0.0
H1312 H 0.28855 0.72064 0.33191 0.0
H1313 H 0.37726 0.82359 0.34625 0.0
H1314 H 0.34059 0.79965 0.45675 0.0
O1315 O 0.21994 0.95573 0.3019 0.0
H1316 H 0.14092 0.89013 0.25473 0.0
H1317 H 0.223 0.93604 0.20647 0.0
H1318 H 0.34252 0.65251 0.35259 0.0
H1319 H 0.34557 0.97476 0.44147 0.0
H1320 H 0.39681 0.65622 0.42621 0.0
H1321 H 0.42837 0.96116 0.40487 0.0
O1322 O 0.2143 0.77344 0.3572 0.0
H1323 H 0.11936 0.97391 0.44444 0.0
H1324 H 0.09231 0.84626 0.31884 0.0
H1325 H 0.0285 0.86196 0.37974 0.0
H1326 H 0.04113 0.92665 0.44321 0.0
H1327 H 0.1821 0.95923 0.38144 0.0
H1328 H 0.17831 0.97096 0.13657 0.0
H1329 H 0.08888 0.96069 0.12945 0.0
O1330 O 0.17252 0.81563 0.29836 0.0
C1331 C 0.2858 0.83191 0.26385 0.0
C1332 C 0.07953 0.91805 0.19477 0.0
C1333 C 0.15856 0.94975 0.16393 0.0
N1334 N 0.15771 0.90267 0.24007 0.0
C1335 C 0.1054 0.8958 0.23627 0.0
C1336 C 0.1838 0.92964 0.20321 0.0
C1337 C 0.10775 0.944 0.16024 0.0
C1338 C 0.31648 0.90578 0.41514 0.0
N1339 N 0.32515 0.86408 0.3884 0.0
C1340 C 0.35314 0.94157 0.42088 0.0
C1341 C 0.39946 0.93389 0.40028 0.0
C1342 C 0.40827 0.89093 0.37363 0.0
C1343 C 0.37035 0.85644 0.36765 0.0
C1344 C 0.37292 0.72905 0.4457 0.0
C1345 C 0.31142 0.72286 0.36443 0.0
C1346 C 0.34073 0.76701 0.43392 0.0
N1347 N 0.31131 0.76384 0.39309 0.0
C1348 C 0.34184 0.68376 0.37628 0.0
C1349 C 0.3726 0.6865 0.41724 0.0
C1350 C 0.18148 0.77629 0.32281 0.0
C1351 C 0.11236 0.94761 0.41544 0.0
C1352 C 0.09815 0.87596 0.34464 0.0
C1353 C 0.06156 0.88436 0.3796 0.0
C1354 C 0.06874 0.92049 0.41521 0.0
N1355 N 0.14046 0.90384 0.34381 0.0
C1356 C 0.14776 0.93911 0.37919 0.0
Co1357 Co 0.62099 0.7177 0.81149 0.0
Co1358 Co 0.69512 0.79271 0.87979 0.0
O1359 O 0.63548 0.75556 0.86923 0.0
C1360 C 0.52465 0.77144 0.80469 0.0
O1361 O 0.54556 0.81141 0.78712 0.0
C1362 C 0.68742 0.73603 0.97423 0.0
O1363 O 0.68625 0.69344 0.95127 0.0
O1364 O 0.73607 0.73236 0.8629 0.0
O1365 O 0.69048 0.69773 0.80274 0.0
H1366 H 0.76302 0.91041 0.90548 0.0
H1367 H 0.56627 0.69708 0.90479 0.0
O1368 O 0.55005 0.73493 0.81896 0.0
H1369 H 0.64554 0.5405 0.85832 0.0
H1370 H 0.51831 0.59526 0.72016 0.0
H1371 H 0.66443 0.7035 0.71288 0.0
H1372 H 0.65466 0.61397 0.80653 0.0
H1373 H 0.53949 0.64857 0.78954 0.0
O1374 O 0.69111 0.77633 0.95082 0.0
H1375 H 0.74136 0.84742 0.88526 0.0
H1376 H 0.79067 0.76272 0.92491 0.0
H1377 H 0.64329 0.65179 0.64287 0.0
H1378 H 0.55626 0.62355 0.95741 0.0
H1379 H 0.56689 0.6006 0.64292 0.0
H1380 H 0.59572 0.545 0.93478 0.0
O1381 O 0.63615 0.77702 0.76899 0.0
H1382 H 0.5518 0.88299 0.95568 0.0
H1383 H 0.68327 0.89351 0.83243 0.0
H1384 H 0.62484 0.96096 0.84037 0.0
H1385 H 0.55872 0.95674 0.90314 0.0
H1386 H 0.61081 0.81502 0.94716 0.0
H1387 H 0.85998 0.80528 0.96257 0.0
H1388 H 0.86514 0.89562 0.96181 0.0
O1389 O 0.70102 0.81086 0.80909 0.0
C1390 C 0.73036 0.70184 0.82681 0.0
C1391 C 0.79741 0.90744 0.92371 0.0
C1392 C 0.83149 0.82652 0.94472 0.0
N1393 N 0.75579 0.82983 0.89702 0.0
C1394 C 0.75664 0.88268 0.89857 0.0
C1395 C 0.79291 0.80233 0.92199 0.0
C1396 C 0.83371 0.87774 0.94485 0.0
C1397 C 0.58352 0.66277 0.89437 0.0
N1398 N 0.61101 0.65994 0.85254 0.0
C1399 C 0.5778 0.62145 0.92446 0.0
C1400 C 0.60007 0.57715 0.91163 0.0
C1401 C 0.62798 0.57458 0.8689 0.0
C1402 C 0.63318 0.61654 0.83979 0.0
C1403 C 0.54888 0.62062 0.71708 0.0
C1404 C 0.63133 0.68121 0.71389 0.0
C1405 C 0.56169 0.65044 0.75665 0.0
N1406 N 0.60273 0.67991 0.7547 0.0
C1407 C 0.61882 0.65264 0.67349 0.0
C1408 C 0.57665 0.62312 0.67436 0.0
C1409 C 0.67375 0.80629 0.77113 0.0
C1410 C 0.58152 0.88579 0.92973 0.0
C1411 C 0.6553 0.89066 0.86045 0.0
C1412 C 0.62215 0.92956 0.86471 0.0
C1413 C 0.58509 0.92712 0.89976 0.0
N1414 N 0.65267 0.85042 0.89098 0.0
C1415 C 0.61559 0.8476 0.92487 0.0
loop_
_geom_bond_atom_site_label_1
_geom_bond_atom_site_label_2
_geom_bond_distance
_geom_bond_site_symmetry_2
_ccdc_geom_bond_type
Co0 O2 2.143 . S
Co0 O8 2.074 . S
Co0 O11 2.093 . S
Co0 O24 2.097 . S
Co0 N41 2.151 . S
Co0 N49 2.214 . S
Co1 O2 2.160 . S
Co1 O7 2.058 . S
Co1 O17 2.057 . S
Co1 O32 2.037 . S
Co1 N36 2.145 . S
Co1 N57 2.257 . S
O2 Co0 2.143 . S
O2 Co1 2.160 . S
C3 O4 1.278 . S
C3 O11 1.224 . S
O4 C3 1.278 . S
C5 O6 1.245 . S
C5 O17 1.232 . S
O6 C5 1.245 . S
O7 Co1 2.058 . S
O7 C33 1.269 . S
O8 Co0 2.074 . S
O8 C33 1.257 . S
H9 C34 0.930 . S
H10 C40 0.930 . S
O11 Co0 2.093 . S
O11 C3 1.224 . S
H12 C44 0.929 . S
H13 C46 0.930 . S
H14 C47 0.930 . S
H15 C45 0.929 . S
H16 C48 0.928 . S
O17 Co1 2.057 . S
O17 C5 1.232 . S
H18 C37 0.929 . S
H19 C38 0.929 . S
H20 C50 0.931 . S
H21 C42 0.929 . S
H22 C51 0.930 . S
H23 C43 0.931 . S
O24 Co0 2.097 . S
O24 C52 1.214 . S
H25 C53 0.929 . S
H26 C54 0.929 . S
H27 C55 0.930 . S
H28 C56 0.929 . S
H29 C58 0.930 . S
H30 C35 0.930 . S
H31 C39 0.930 . S
O32 Co1 2.037 . S
O32 C52 1.234 . S
C33 O7 1.269 . S
C33 O8 1.257 . S
C34 H9 0.930 . S
C34 C37 1.388 . S
C34 C39 1.418 . S
C35 H30 0.930 . S
C35 C38 1.404 . S
C35 C39 1.353 . S
N36 Co1 2.145 . S
N36 C37 1.397 . S
N36 C38 1.334 . S
C37 H18 0.929 . S
C37 C34 1.388 . S
C37 N36 1.397 . S
C38 H19 0.929 . S
C38 C35 1.404 . S
C38 N36 1.334 . S
C39 H31 0.930 . S
C39 C34 1.418 . S
C39 C35 1.353 . S
C40 H10 0.930 . S
C40 N41 1.330 . S
C40 C42 1.446 . S
N41 Co0 2.151 . S
N41 C40 1.330 . S
N41 C45 1.418 . S
C42 H21 0.929 . S
C42 C40 1.446 . S
C42 C43 1.332 . S
C43 H23 0.931 . S
C43 C42 1.332 . S
C43 C44 1.267 . S
C44 H12 0.929 . S
C44 C43 1.267 . S
C44 C45 1.251 . S
C45 H15 0.929 . S
C45 N41 1.418 . S
C45 C44 1.251 . S
C46 H13 0.930 . S
C46 C48 1.406 . S
C46 C51 1.261 . S
C47 H14 0.930 . S
C47 N49 1.325 . S
C47 C50 1.357 . S
C48 H16 0.928 . S
C48 C46 1.406 . S
C48 N49 1.261 . S
N49 Co0 2.214 . S
N49 C47 1.325 . S
N49 C48 1.261 . S
C50 H20 0.931 . S
C50 C47 1.357 . S
C50 C51 1.312 . S
C51 H22 0.930 . S
C51 C46 1.261 . S
C51 C50 1.312 . S
C52 O24 1.214 . S
C52 O32 1.234 . S
C53 H25 0.929 . S
C53 C56 1.391 . S
C53 C58 1.391 . S
C54 H26 0.929 . S
C54 C55 1.390 . S
C54 N57 1.391 . S
C55 H27 0.930 . S
C55 C54 1.390 . S
C55 C56 1.392 . S
C56 H28 0.929 . S
C56 C53 1.391 . S
C56 C55 1.392 . S
N57 Co1 2.257 . S
N57 C54 1.391 . S
N57 C58 1.388 . S
C58 H29 0.930 . S
C58 C53 1.391 . S
C58 N57 1.388 . S
Co59 O61 2.143 . S
Co59 O67 2.074 . S
Co59 O70 2.093 . S
Co59 O83 2.097 . S
Co59 N100 2.151 . S
Co59 N108 2.214 . S
Co60 O61 2.160 . S
Co60 O66 2.058 . S
Co60 O76 2.057 . S
Co60 O91 2.037 . S
Co60 N95 2.145 . S
Co60 N116 2.257 . S
O61 Co59 2.143 . S
O61 Co60 2.160 . S
C62 O63 1.278 . S
C62 O70 1.224 . S
O63 C62 1.278 . S
C64 O65 1.245 . S
C64 O76 1.232 . S
O65 C64 1.245 . S
O66 Co60 2.058 . S
O66 C92 1.269 . S
O67 Co59 2.074 . S
O67 C92 1.257 . S
H68 C93 0.930 . S
H69 C99 0.930 . S
O70 Co59 2.093 . S
O70 C62 1.224 . S
H71 C103 0.929 . S
H72 C105 0.930 . S
H73 C106 0.930 . S
H74 C104 0.929 . S
H75 C107 0.928 . S
O76 Co60 2.057 . S
O76 C64 1.232 . S
H77 C96 0.929 . S
H78 C97 0.929 . S
H79 C109 0.931 . S
H80 C101 0.929 . S
H81 C110 0.930 . S
H82 C102 0.931 . S
O83 Co59 2.097 . S
O83 C111 1.214 . S
H84 C112 0.929 . S
H85 C113 0.929 . S
H86 C114 0.930 . S
H87 C115 0.929 . S
H88 C117 0.930 . S
H89 C94 0.930 . S
H90 C98 0.930 . S
O91 Co60 2.037 . S
O91 C111 1.234 . S
C92 O66 1.269 . S
C92 O67 1.257 . S
C93 H68 0.930 . S
C93 C96 1.388 . S
C93 C98 1.418 . S
C94 H89 0.930 . S
C94 C97 1.404 . S
C94 C98 1.353 . S
N95 Co60 2.145 . S
N95 C96 1.397 . S
N95 C97 1.334 . S
C96 H77 0.929 . S
C96 C93 1.388 . S
C96 N95 1.397 . S
C97 H78 0.929 . S
C97 C94 1.404 . S
C97 N95 1.334 . S
C98 H90 0.930 . S
C98 C93 1.418 . S
C98 C94 1.353 . S
C99 H69 0.930 . S
C99 N100 1.330 . S
C99 C101 1.446 . S
N100 Co59 2.151 . S
N100 C99 1.330 . S
N100 C104 1.418 . S
C101 H80 0.929 . S
C101 C99 1.446 . S
C101 C102 1.332 . S
C102 H82 0.931 . S
C102 C101 1.332 . S
C102 C103 1.267 . S
C103 H71 0.929 . S
C103 C102 1.267 . S
C103 C104 1.251 . S
C104 H74 0.929 . S
C104 N100 1.418 . S
C104 C103 1.251 . S
C105 H72 0.930 . S
C105 C107 1.406 . S
C105 C110 1.261 . S
C106 H73 0.930 . S
C106 N108 1.325 . S
C106 C109 1.357 . S
C107 H75 0.928 . S
C107 C105 1.406 . S
C107 N108 1.261 . S
N108 Co59 2.214 . S
N108 C106 1.325 . S
N108 C107 1.261 . S
C109 H79 0.931 . S
C109 C106 1.357 . S
C109 C110 1.312 . S
C110 H81 0.930 . S
C110 C105 1.261 . S
C110 C109 1.312 . S
C111 O83 1.214 . S
C111 O91 1.234 . S
C112 H84 0.929 . S
C112 C115 1.391 . S
C112 C117 1.391 . S
C113 H85 0.929 . S
C113 C114 1.390 . S
C113 N116 1.391 . S
C114 H86 0.930 . S
C114 C113 1.390 . S
C114 C115 1.392 . S
C115 H87 0.929 . S
C115 C112 1.391 . S
C115 C114 1.392 . S
N116 Co60 2.257 . S
N116 C113 1.391 . S
N116 C117 1.388 . S
C117 H88 0.930 . S
C117 C112 1.391 . S
C117 N116 1.388 . S
Co118 O120 2.143 . S
Co118 O126 2.074 . S
Co118 O129 2.093 . S
Co118 O142 2.097 . S
Co118 N159 2.151 . S
Co118 N167 2.214 . S
Co119 O120 2.160 . S
Co119 O125 2.058 . S
Co119 O135 2.057 . S
Co119 O150 2.037 . S
Co119 N154 2.145 . S
Co119 N175 2.257 . S
O120 Co118 2.143 . S
O120 Co119 2.160 . S
C121 O122 1.278 . S
C121 O129 1.224 . S
O122 C121 1.278 . S
C123 O124 1.245 . S
C123 O135 1.232 . S
O124 C123 1.245 . S
O125 Co119 2.058 . S
O125 C151 1.269 . S
O126 Co118 2.074 . S
O126 C151 1.257 . S
H127 C152 0.930 . S
H128 C158 0.930 . S
O129 Co118 2.093 . S
O129 C121 1.224 . S
H130 C162 0.929 . S
H131 C164 0.930 . S
H132 C165 0.930 . S
H133 C163 0.929 . S
H134 C166 0.928 . S
O135 Co119 2.057 . S
O135 C123 1.232 . S
H136 C155 0.929 . S
H137 C156 0.929 . S
H138 C168 0.931 . S
H139 C160 0.929 . S
H140 C169 0.930 . S
H141 C161 0.931 . S
O142 Co118 2.097 . S
O142 C170 1.214 . S
H143 C171 0.929 . S
H144 C172 0.929 . S
H145 C173 0.930 . S
H146 C174 0.929 . S
H147 C176 0.930 . S
H148 C153 0.930 . S
H149 C157 0.930 . S
O150 Co119 2.037 . S
O150 C170 1.234 . S
C151 O125 1.269 . S
C151 O126 1.257 . S
C152 H127 0.930 . S
C152 C155 1.388 . S
C152 C157 1.418 . S
C153 H148 0.930 . S
C153 C156 1.404 . S
C153 C157 1.353 . S
N154 Co119 2.145 . S
N154 C155 1.397 . S
N154 C156 1.334 . S
C155 H136 0.929 . S
C155 C152 1.388 . S
C155 N154 1.397 . S
C156 H137 0.929 . S
C156 C153 1.404 . S
C156 N154 1.334 . S
C157 H149 0.930 . S
C157 C152 1.418 . S
C157 C153 1.353 . S
C158 H128 0.930 . S
C158 N159 1.330 . S
C158 C160 1.446 . S
N159 Co118 2.151 . S
N159 C158 1.330 . S
N159 C163 1.418 . S
C160 H139 0.929 . S
C160 C158 1.446 . S
C160 C161 1.332 . S
C161 H141 0.931 . S
C161 C160 1.332 . S
C161 C162 1.267 . S
C162 H130 0.929 . S
C162 C161 1.267 . S
C162 C163 1.251 . S
C163 H133 0.929 . S
C163 N159 1.418 . S
C163 C162 1.251 . S
C164 H131 0.930 . S
C164 C166 1.406 . S
C164 C169 1.261 . S
C165 H132 0.930 . S
C165 N167 1.325 . S
C165 C168 1.357 . S
C166 H134 0.928 . S
C166 C164 1.406 . S
C166 N167 1.261 . S
N167 Co118 2.214 . S
N167 C165 1.325 . S
N167 C166 1.261 . S
C168 H138 0.931 . S
C168 C165 1.357 . S
C168 C169 1.312 . S
C169 H140 0.930 . S
C169 C164 1.261 . S
C169 C168 1.312 . S
C170 O142 1.214 . S
C170 O150 1.234 . S
C171 H143 0.929 . S
C171 C174 1.391 . S
C171 C176 1.391 . S
C172 H144 0.929 . S
C172 C173 1.390 . S
C172 N175 1.391 . S
C173 H145 0.930 . S
C173 C172 1.390 . S
C173 C174 1.392 . S
C174 H146 0.929 . S
C174 C171 1.391 . S
C174 C173 1.392 . S
N175 Co119 2.257 . S
N175 C172 1.391 . S
N175 C176 1.388 . S
C176 H147 0.930 . S
C176 C171 1.391 . S
C176 N175 1.388 . S
Co177 O179 2.143 . S
Co177 O185 2.074 . S
Co177 O188 2.093 . S
Co177 O201 2.097 . S
Co177 N218 2.151 . S
Co177 N226 2.214 . S
Co178 O179 2.160 . S
Co178 O184 2.058 . S
Co178 O194 2.057 . S
Co178 O209 2.037 . S
Co178 N213 2.145 . S
Co178 N234 2.257 . S
O179 Co177 2.143 . S
O179 Co178 2.160 . S
C180 O181 1.278 . S
C180 O188 1.224 . S
O181 C180 1.278 . S
C182 O183 1.245 . S
C182 O194 1.232 . S
O183 C182 1.245 . S
O184 Co178 2.058 . S
O184 C210 1.269 . S
O185 Co177 2.074 . S
O185 C210 1.257 . S
H186 C211 0.930 . S
H187 C217 0.930 . S
O188 Co177 2.093 . S
O188 C180 1.224 . S
H189 C221 0.929 . S
H190 C223 0.930 . S
H191 C224 0.930 . S
H192 C222 0.929 . S
H193 C225 0.928 . S
O194 Co178 2.057 . S
O194 C182 1.232 . S
H195 C214 0.929 . S
H196 C215 0.929 . S
H197 C227 0.931 . S
H198 C219 0.929 . S
H199 C228 0.930 . S
H200 C220 0.931 . S
O201 Co177 2.097 . S
O201 C229 1.214 . S
H202 C230 0.929 . S
H203 C231 0.929 . S
H204 C232 0.930 . S
H205 C233 0.929 . S
H206 C235 0.930 . S
H207 C212 0.930 . S
H208 C216 0.930 . S
O209 Co178 2.037 . S
O209 C229 1.234 . S
C210 O184 1.269 . S
C210 O185 1.257 . S
C211 H186 0.930 . S
C211 C214 1.388 . S
C211 C216 1.418 . S
C212 H207 0.930 . S
C212 C215 1.404 . S
C212 C216 1.353 . S
N213 Co178 2.145 . S
N213 C214 1.397 . S
N213 C215 1.334 . S
C214 H195 0.929 . S
C214 C211 1.388 . S
C214 N213 1.397 . S
C215 H196 0.929 . S
C215 C212 1.404 . S
C215 N213 1.334 . S
C216 H208 0.930 . S
C216 C211 1.418 . S
C216 C212 1.353 . S
C217 H187 0.930 . S
C217 N218 1.330 . S
C217 C219 1.446 . S
N218 Co177 2.151 . S
N218 C217 1.330 . S
N218 C222 1.418 . S
C219 H198 0.929 . S
C219 C217 1.446 . S
C219 C220 1.332 . S
C220 H200 0.931 . S
C220 C219 1.332 . S
C220 C221 1.267 . S
C221 H189 0.929 . S
C221 C220 1.267 . S
C221 C222 1.251 . S
C222 H192 0.929 . S
C222 N218 1.418 . S
C222 C221 1.251 . S
C223 H190 0.930 . S
C223 C225 1.406 . S
C223 C228 1.261 . S
C224 H191 0.930 . S
C224 N226 1.325 . S
C224 C227 1.357 . S
C225 H193 0.928 . S
C225 C223 1.406 . S
C225 N226 1.261 . S
N226 Co177 2.214 . S
N226 C224 1.325 . S
N226 C225 1.261 . S
C227 H197 0.931 . S
C227 C224 1.357 . S
C227 C228 1.312 . S
C228 H199 0.930 . S
C228 C223 1.261 . S
C228 C227 1.312 . S
C229 O201 1.214 . S
C229 O209 1.234 . S
C230 H202 0.929 . S
C230 C233 1.391 . S
C230 C235 1.391 . S
C231 H203 0.929 . S
C231 C232 1.390 . S
C231 N234 1.391 . S
C232 H204 0.930 . S
C232 C231 1.390 . S
C232 C233 1.392 . S
C233 H205 0.929 . S
C233 C230 1.391 . S
C233 C232 1.392 . S
N234 Co178 2.257 . S
N234 C231 1.391 . S
N234 C235 1.388 . S
C235 H206 0.930 . S
C235 C230 1.391 . S
C235 N234 1.388 . S
Co236 O238 2.143 . S
Co236 O244 2.074 . S
Co236 O247 2.093 . S
Co236 O260 2.097 . S
Co236 N277 2.151 . S
Co236 N285 2.214 . S
Co237 O238 2.160 . S
Co237 O243 2.058 . S
Co237 O253 2.057 . S
Co237 O268 2.037 . S
Co237 N272 2.145 . S
Co237 N293 2.257 . S
O238 Co236 2.143 . S
O238 Co237 2.160 . S
C239 O240 1.278 . S
C239 O247 1.224 . S
O240 C239 1.278 . S
C241 O242 1.245 . S
C241 O253 1.232 . S
O242 C241 1.245 . S
O243 Co237 2.058 . S
O243 C269 1.269 . S
O244 Co236 2.074 . S
O244 C269 1.257 . S
H245 C270 0.930 . S
H246 C276 0.930 . S
O247 Co236 2.093 . S
O247 C239 1.224 . S
H248 C280 0.929 . S
H249 C282 0.930 . S
H250 C283 0.930 . S
H251 C281 0.929 . S
H252 C284 0.928 . S
O253 Co237 2.057 . S
O253 C241 1.232 . S
H254 C273 0.929 . S
H255 C274 0.929 . S
H256 C286 0.931 . S
H257 C278 0.929 . S
H258 C287 0.930 . S
H259 C279 0.931 . S
O260 Co236 2.097 . S
O260 C288 1.214 . S
H261 C289 0.929 . S
H262 C290 0.929 . S
H263 C291 0.930 . S
H264 C292 0.929 . S
H265 C294 0.930 . S
H266 C271 0.930 . S
H267 C275 0.930 . S
O268 Co237 2.037 . S
O268 C288 1.234 . S
C269 O243 1.269 . S
C269 O244 1.257 . S
C270 H245 0.930 . S
C270 C273 1.388 . S
C270 C275 1.418 . S
C271 H266 0.930 . S
C271 C274 1.404 . S
C271 C275 1.353 . S
N272 Co237 2.145 . S
N272 C273 1.397 . S
N272 C274 1.334 . S
C273 H254 0.929 . S
C273 C270 1.388 . S
C273 N272 1.397 . S
C274 H255 0.929 . S
C274 C271 1.404 . S
C274 N272 1.334 . S
C275 H267 0.930 . S
C275 C270 1.418 . S
C275 C271 1.353 . S
C276 H246 0.930 . S
C276 N277 1.330 . S
C276 C278 1.446 . S
N277 Co236 2.151 . S
N277 C276 1.330 . S
N277 C281 1.418 . S
C278 H257 0.929 . S
C278 C276 1.446 . S
C278 C279 1.332 . S
C279 H259 0.931 . S
C279 C278 1.332 . S
C279 C280 1.267 . S
C280 H248 0.929 . S
C280 C279 1.267 . S
C280 C281 1.251 . S
C281 H251 0.929 . S
C281 N277 1.418 . S
C281 C280 1.251 . S
C282 H249 0.930 . S
C282 C284 1.406 . S
C282 C287 1.261 . S
C283 H250 0.930 . S
C283 N285 1.325 . S
C283 C286 1.357 . S
C284 H252 0.928 . S
C284 C282 1.406 . S
C284 N285 1.261 . S
N285 Co236 2.214 . S
N285 C283 1.325 . S
N285 C284 1.261 . S
C286 H256 0.931 . S
C286 C283 1.357 . S
C286 C287 1.312 . S
C287 H258 0.930 . S
C287 C282 1.261 . S
C287 C286 1.312 . S
C288 O260 1.214 . S
C288 O268 1.234 . S
C289 H261 0.929 . S
C289 C292 1.391 . S
C289 C294 1.391 . S
C290 H262 0.929 . S
C290 C291 1.390 . S
C290 N293 1.391 . S
C291 H263 0.930 . S
C291 C290 1.390 . S
C291 C292 1.392 . S
C292 H264 0.929 . S
C292 C289 1.391 . S
C292 C291 1.392 . S
N293 Co237 2.257 . S
N293 C290 1.391 . S
N293 C294 1.388 . S
C294 H265 0.930 . S
C294 C289 1.391 . S
C294 N293 1.388 . S
Co295 O297 2.143 . S
Co295 O303 2.074 . S
Co295 O306 2.093 . S
Co295 O319 2.097 . S
Co295 N336 2.151 . S
Co295 N344 2.214 . S
Co296 O297 2.160 . S
Co296 O302 2.058 . S
Co296 O312 2.057 . S
Co296 O327 2.037 . S
Co296 N331 2.145 . S
Co296 N352 2.257 . S
O297 Co295 2.143 . S
O297 Co296 2.160 . S
C298 O299 1.278 . S
C298 O306 1.224 . S
O299 C298 1.278 . S
C300 O301 1.245 . S
C300 O312 1.232 . S
O301 C300 1.245 . S
O302 Co296 2.058 . S
O302 C328 1.269 . S
O303 Co295 2.074 . S
O303 C328 1.257 . S
H304 C329 0.930 . S
H305 C335 0.930 . S
O306 Co295 2.093 . S
O306 C298 1.224 . S
H307 C339 0.929 . S
H308 C341 0.930 . S
H309 C342 0.930 . S
H310 C340 0.929 . S
H311 C343 0.928 . S
O312 Co296 2.057 . S
O312 C300 1.232 . S
H313 C332 0.929 . S
H314 C333 0.929 . S
H315 C345 0.931 . S
H316 C337 0.929 . S
H317 C346 0.930 . S
H318 C338 0.931 . S
O319 Co295 2.097 . S
O319 C347 1.214 . S
H320 C348 0.929 . S
H321 C349 0.929 . S
H322 C350 0.930 . S
H323 C351 0.929 . S
H324 C353 0.930 . S
H325 C330 0.930 . S
H326 C334 0.930 . S
O327 Co296 2.037 . S
O327 C347 1.234 . S
C328 O302 1.269 . S
C328 O303 1.257 . S
C329 H304 0.930 . S
C329 C332 1.388 . S
C329 C334 1.418 . S
C330 H325 0.930 . S
C330 C333 1.404 . S
C330 C334 1.353 . S
N331 Co296 2.145 . S
N331 C332 1.397 . S
N331 C333 1.334 . S
C332 H313 0.929 . S
C332 C329 1.388 . S
C332 N331 1.397 . S
C333 H314 0.929 . S
C333 C330 1.404 . S
C333 N331 1.334 . S
C334 H326 0.930 . S
C334 C329 1.418 . S
C334 C330 1.353 . S
C335 H305 0.930 . S
C335 N336 1.330 . S
C335 C337 1.446 . S
N336 Co295 2.151 . S
N336 C335 1.330 . S
N336 C340 1.418 . S
C337 H316 0.929 . S
C337 C335 1.446 . S
C337 C338 1.332 . S
C338 H318 0.931 . S
C338 C337 1.332 . S
C338 C339 1.267 . S
C339 H307 0.929 . S
C339 C338 1.267 . S
C339 C340 1.251 . S
C340 H310 0.929 . S
C340 N336 1.418 . S
C340 C339 1.251 . S
C341 H308 0.930 . S
C341 C343 1.406 . S
C341 C346 1.261 . S
C342 H309 0.930 . S
C342 N344 1.325 . S
C342 C345 1.357 . S
C343 H311 0.928 . S
C343 C341 1.406 . S
C343 N344 1.261 . S
N344 Co295 2.214 . S
N344 C342 1.325 . S
N344 C343 1.261 . S
C345 H315 0.931 . S
C345 C342 1.357 . S
C345 C346 1.312 . S
C346 H317 0.930 . S
C346 C341 1.261 . S
C346 C345 1.312 . S
C347 O319 1.214 . S
C347 O327 1.234 . S
C348 H320 0.929 . S
C348 C351 1.391 . S
C348 C353 1.391 . S
C349 H321 0.929 . S
C349 C350 1.390 . S
C349 N352 1.391 . S
C350 H322 0.930 . S
C350 C349 1.390 . S
C350 C351 1.392 . S
C351 H323 0.929 . S
C351 C348 1.391 . S
C351 C350 1.392 . S
N352 Co296 2.257 . S
N352 C349 1.391 . S
N352 C353 1.388 . S
C353 H324 0.930 . S
C353 C348 1.391 . S
C353 N352 1.388 . S
Co354 O356 2.143 . S
Co354 O362 2.074 . S
Co354 O365 2.093 . S
Co354 O378 2.097 . S
Co354 N395 2.151 . S
Co354 N403 2.214 . S
Co355 O356 2.160 . S
Co355 O361 2.058 . S
Co355 O371 2.057 . S
Co355 O386 2.037 . S
Co355 N390 2.145 . S
Co355 N411 2.257 . S
O356 Co354 2.143 . S
O356 Co355 2.160 . S
C357 O358 1.278 . S
C357 O365 1.224 . S
O358 C357 1.278 . S
C359 O360 1.245 . S
C359 O371 1.232 . S
O360 C359 1.245 . S
O361 Co355 2.058 . S
O361 C387 1.269 . S
O362 Co354 2.074 . S
O362 C387 1.257 . S
H363 C388 0.930 . S
H364 C394 0.930 . S
O365 Co354 2.093 . S
O365 C357 1.224 . S
H366 C398 0.929 . S
H367 C400 0.930 . S
H368 C401 0.930 . S
H369 C399 0.929 . S
H370 C402 0.928 . S
O371 Co355 2.057 . S
O371 C359 1.232 . S
H372 C391 0.929 . S
H373 C392 0.929 . S
H374 C404 0.931 . S
H375 C396 0.929 . S
H376 C405 0.930 . S
H377 C397 0.931 . S
O378 Co354 2.097 . S
O378 C406 1.214 . S
H379 C407 0.929 . S
H380 C408 0.929 . S
H381 C409 0.930 . S
H382 C410 0.929 . S
H383 C412 0.930 . S
H384 C389 0.930 . S
H385 C393 0.930 . S
O386 Co355 2.037 . S
O386 C406 1.234 . S
C387 O361 1.269 . S
C387 O362 1.257 . S
C388 H363 0.930 . S
C388 C391 1.388 . S
C388 C393 1.418 . S
C389 H384 0.930 . S
C389 C392 1.404 . S
C389 C393 1.353 . S
N390 Co355 2.145 . S
N390 C391 1.397 . S
N390 C392 1.334 . S
C391 H372 0.929 . S
C391 C388 1.388 . S
C391 N390 1.397 . S
C392 H373 0.929 . S
C392 C389 1.404 . S
C392 N390 1.334 . S
C393 H385 0.930 . S
C393 C388 1.418 . S
C393 C389 1.353 . S
C394 H364 0.930 . S
C394 N395 1.330 . S
C394 C396 1.446 . S
N395 Co354 2.151 . S
N395 C394 1.330 . S
N395 C399 1.418 . S
C396 H375 0.929 . S
C396 C394 1.446 . S
C396 C397 1.332 . S
C397 H377 0.931 . S
C397 C396 1.332 . S
C397 C398 1.267 . S
C398 H366 0.929 . S
C398 C397 1.267 . S
C398 C399 1.251 . S
C399 H369 0.929 . S
C399 N395 1.418 . S
C399 C398 1.251 . S
C400 H367 0.930 . S
C400 C402 1.406 . S
C400 C405 1.261 . S
C401 H368 0.930 . S
C401 N403 1.325 . S
C401 C404 1.357 . S
C402 H370 0.928 . S
C402 C400 1.406 . S
C402 N403 1.261 . S
N403 Co354 2.214 . S
N403 C401 1.325 . S
N403 C402 1.261 . S
C404 H374 0.931 . S
C404 C401 1.357 . S
C404 C405 1.312 . S
C405 H376 0.930 . S
C405 C400 1.261 . S
C405 C404 1.312 . S
C406 O378 1.214 . S
C406 O386 1.234 . S
C407 H379 0.929 . S
C407 C410 1.391 . S
C407 C412 1.391 . S
C408 H380 0.929 . S
C408 C409 1.390 . S
C408 N411 1.391 . S
C409 H381 0.930 . S
C409 C408 1.390 . S
C409 C410 1.392 . S
C410 H382 0.929 . S
C410 C407 1.391 . S
C410 C409 1.392 . S
N411 Co355 2.257 . S
N411 C408 1.391 . S
N411 C412 1.388 . S
C412 H383 0.930 . S
C412 C407 1.391 . S
C412 N411 1.388 . S
Co413 O415 2.143 . S
Co413 O421 2.074 . S
Co413 O424 2.093 . S
Co413 O437 2.097 . S
Co413 N454 2.151 . S
Co413 N462 2.214 . S
Co414 O415 2.160 . S
Co414 O420 2.058 . S
Co414 O430 2.057 . S
Co414 O445 2.037 . S
Co414 N449 2.145 . S
Co414 N470 2.257 . S
O415 Co413 2.143 . S
O415 Co414 2.160 . S
C416 O417 1.278 . S
C416 O424 1.224 . S
O417 C416 1.278 . S
C418 O419 1.245 . S
C418 O430 1.232 . S
O419 C418 1.245 . S
O420 Co414 2.058 . S
O420 C446 1.269 . S
O421 Co413 2.074 . S
O421 C446 1.257 . S
H422 C447 0.930 . S
H423 C453 0.930 . S
O424 Co413 2.093 . S
O424 C416 1.224 . S
H425 C457 0.929 . S
H426 C459 0.930 . S
H427 C460 0.930 . S
H428 C458 0.929 . S
H429 C461 0.928 . S
O430 Co414 2.057 . S
O430 C418 1.232 . S
H431 C450 0.929 . S
H432 C451 0.929 . S
H433 C463 0.931 . S
H434 C455 0.929 . S
H435 C464 0.930 . S
H436 C456 0.931 . S
O437 Co413 2.097 . S
O437 C465 1.214 . S
H438 C466 0.929 . S
H439 C467 0.929 . S
H440 C468 0.930 . S
H441 C469 0.929 . S
H442 C471 0.930 . S
H443 C448 0.930 . S
H444 C452 0.930 . S
O445 Co414 2.037 . S
O445 C465 1.234 . S
C446 O420 1.269 . S
C446 O421 1.257 . S
C447 H422 0.930 . S
C447 C450 1.388 . S
C447 C452 1.418 . S
C448 H443 0.930 . S
C448 C451 1.404 . S
C448 C452 1.353 . S
N449 Co414 2.145 . S
N449 C450 1.397 . S
N449 C451 1.334 . S
C450 H431 0.929 . S
C450 C447 1.388 . S
C450 N449 1.397 . S
C451 H432 0.929 . S
C451 C448 1.404 . S
C451 N449 1.334 . S
C452 H444 0.930 . S
C452 C447 1.418 . S
C452 C448 1.353 . S
C453 H423 0.930 . S
C453 N454 1.330 . S
C453 C455 1.446 . S
N454 Co413 2.151 . S
N454 C453 1.330 . S
N454 C458 1.418 . S
C455 H434 0.929 . S
C455 C453 1.446 . S
C455 C456 1.332 . S
C456 H436 0.931 . S
C456 C455 1.332 . S
C456 C457 1.267 . S
C457 H425 0.929 . S
C457 C456 1.267 . S
C457 C458 1.251 . S
C458 H428 0.929 . S
C458 N454 1.418 . S
C458 C457 1.251 . S
C459 H426 0.930 . S
C459 C461 1.406 . S
C459 C464 1.261 . S
C460 H427 0.930 . S
C460 N462 1.325 . S
C460 C463 1.357 . S
C461 H429 0.928 . S
C461 C459 1.406 . S
C461 N462 1.261 . S
N462 Co413 2.214 . S
N462 C460 1.325 . S
N462 C461 1.261 . S
C463 H433 0.931 . S
C463 C460 1.357 . S
C463 C464 1.312 . S
C464 H435 0.930 . S
C464 C459 1.261 . S
C464 C463 1.312 . S
C465 O437 1.214 . S
C465 O445 1.234 . S
C466 H438 0.929 . S
C466 C469 1.391 . S
C466 C471 1.391 . S
C467 H439 0.929 . S
C467 C468 1.390 . S
C467 N470 1.391 . S
C468 H440 0.930 . S
C468 C467 1.390 . S
C468 C469 1.392 . S
C469 H441 0.929 . S
C469 C466 1.391 . S
C469 C468 1.392 . S
N470 Co414 2.257 . S
N470 C467 1.391 . S
N470 C471 1.388 . S
C471 H442 0.930 . S
C471 C466 1.391 . S
C471 N470 1.388 . S
Co472 O474 2.143 . S
Co472 O480 2.074 . S
Co472 O483 2.093 . S
Co472 O496 2.097 . S
Co472 N513 2.151 . S
Co472 N521 2.214 . S
Co473 O474 2.160 . S
Co473 O479 2.058 . S
Co473 O489 2.057 . S
Co473 O504 2.037 . S
Co473 N508 2.145 . S
Co473 N529 2.257 . S
O474 Co472 2.143 . S
O474 Co473 2.160 . S
C475 O476 1.278 . S
C475 O483 1.224 . S
O476 C475 1.278 . S
C477 O478 1.245 . S
C477 O489 1.232 . S
O478 C477 1.245 . S
O479 Co473 2.058 . S
O479 C505 1.269 . S
O480 Co472 2.074 . S
O480 C505 1.257 . S
H481 C506 0.930 . S
H482 C512 0.930 . S
O483 Co472 2.093 . S
O483 C475 1.224 . S
H484 C516 0.929 . S
H485 C518 0.930 . S
H486 C519 0.930 . S
H487 C517 0.929 . S
H488 C520 0.928 . S
O489 Co473 2.057 . S
O489 C477 1.232 . S
H490 C509 0.929 . S
H491 C510 0.929 . S
H492 C522 0.931 . S
H493 C514 0.929 . S
H494 C523 0.930 . S
H495 C515 0.931 . S
O496 Co472 2.097 . S
O496 C524 1.214 . S
H497 C525 0.929 . S
H498 C526 0.929 . S
H499 C527 0.930 . S
H500 C528 0.929 . S
H501 C530 0.930 . S
H502 C507 0.930 . S
H503 C511 0.930 . S
O504 Co473 2.037 . S
O504 C524 1.234 . S
C505 O479 1.269 . S
C505 O480 1.257 . S
C506 H481 0.930 . S
C506 C509 1.388 . S
C506 C511 1.418 . S
C507 H502 0.930 . S
C507 C510 1.404 . S
C507 C511 1.353 . S
N508 Co473 2.145 . S
N508 C509 1.397 . S
N508 C510 1.334 . S
C509 H490 0.929 . S
C509 C506 1.388 . S
C509 N508 1.397 . S
C510 H491 0.929 . S
C510 C507 1.404 . S
C510 N508 1.334 . S
C511 H503 0.930 . S
C511 C506 1.418 . S
C511 C507 1.353 . S
C512 H482 0.930 . S
C512 N513 1.330 . S
C512 C514 1.446 . S
N513 Co472 2.151 . S
N513 C512 1.330 . S
N513 C517 1.418 . S
C514 H493 0.929 . S
C514 C512 1.446 . S
C514 C515 1.332 . S
C515 H495 0.931 . S
C515 C514 1.332 . S
C515 C516 1.267 . S
C516 H484 0.929 . S
C516 C515 1.267 . S
C516 C517 1.251 . S
C517 H487 0.929 . S
C517 N513 1.418 . S
C517 C516 1.251 . S
C518 H485 0.930 . S
C518 C520 1.406 . S
C518 C523 1.261 . S
C519 H486 0.930 . S
C519 N521 1.325 . S
C519 C522 1.357 . S
C520 H488 0.928 . S
C520 C518 1.406 . S
C520 N521 1.261 . S
N521 Co472 2.214 . S
N521 C519 1.325 . S
N521 C520 1.261 . S
C522 H492 0.931 . S
C522 C519 1.357 . S
C522 C523 1.312 . S
C523 H494 0.930 . S
C523 C518 1.261 . S
C523 C522 1.312 . S
C524 O496 1.214 . S
C524 O504 1.234 . S
C525 H497 0.929 . S
C525 C528 1.391 . S
C525 C530 1.391 . S
C526 H498 0.929 . S
C526 C527 1.390 . S
C526 N529 1.391 . S
C527 H499 0.930 . S
C527 C526 1.390 . S
C527 C528 1.392 . S
C528 H500 0.929 . S
C528 C525 1.391 . S
C528 C527 1.392 . S
N529 Co473 2.257 . S
N529 C526 1.391 . S
N529 C530 1.388 . S
C530 H501 0.930 . S
C530 C525 1.391 . S
C530 N529 1.388 . S
Co531 O533 2.143 . S
Co531 O539 2.074 . S
Co531 O542 2.093 . S
Co531 O555 2.097 . S
Co531 N572 2.151 . S
Co531 N580 2.214 . S
Co532 O533 2.160 . S
Co532 O538 2.058 . S
Co532 O548 2.057 . S
Co532 O563 2.037 . S
Co532 N567 2.145 . S
Co532 N588 2.257 . S
O533 Co531 2.143 . S
O533 Co532 2.160 . S
C534 O535 1.278 . S
C534 O542 1.224 . S
O535 C534 1.278 . S
C536 O537 1.245 . S
C536 O548 1.232 . S
O537 C536 1.245 . S
O538 Co532 2.058 . S
O538 C564 1.269 . S
O539 Co531 2.074 . S
O539 C564 1.257 . S
H540 C565 0.930 . S
H541 C571 0.930 . S
O542 Co531 2.093 . S
O542 C534 1.224 . S
H543 C575 0.929 . S
H544 C577 0.930 . S
H545 C578 0.930 . S
H546 C576 0.929 . S
H547 C579 0.928 . S
O548 Co532 2.057 . S
O548 C536 1.232 . S
H549 C568 0.929 . S
H550 C569 0.929 . S
H551 C581 0.931 . S
H552 C573 0.929 . S
H553 C582 0.930 . S
H554 C574 0.931 . S
O555 Co531 2.097 . S
O555 C583 1.214 . S
H556 C584 0.929 . S
H557 C585 0.929 . S
H558 C586 0.930 . S
H559 C587 0.929 . S
H560 C589 0.930 . S
H561 C566 0.930 . S
H562 C570 0.930 . S
O563 Co532 2.037 . S
O563 C583 1.234 . S
C564 O538 1.269 . S
C564 O539 1.257 . S
C565 H540 0.930 . S
C565 C568 1.388 . S
C565 C570 1.418 . S
C566 H561 0.930 . S
C566 C569 1.404 . S
C566 C570 1.353 . S
N567 Co532 2.145 . S
N567 C568 1.397 . S
N567 C569 1.334 . S
C568 H549 0.929 . S
C568 C565 1.388 . S
C568 N567 1.397 . S
C569 H550 0.929 . S
C569 C566 1.404 . S
C569 N567 1.334 . S
C570 H562 0.930 . S
C570 C565 1.418 . S
C570 C566 1.353 . S
C571 H541 0.930 . S
C571 N572 1.330 . S
C571 C573 1.446 . S
N572 Co531 2.151 . S
N572 C571 1.330 . S
N572 C576 1.418 . S
C573 H552 0.929 . S
C573 C571 1.446 . S
C573 C574 1.332 . S
C574 H554 0.931 . S
C574 C573 1.332 . S
C574 C575 1.267 . S
C575 H543 0.929 . S
C575 C574 1.267 . S
C575 C576 1.251 . S
C576 H546 0.929 . S
C576 N572 1.418 . S
C576 C575 1.251 . S
C577 H544 0.930 . S
C577 C579 1.406 . S
C577 C582 1.261 . S
C578 H545 0.930 . S
C578 N580 1.325 . S
C578 C581 1.357 . S
C579 H547 0.928 . S
C579 C577 1.406 . S
C579 N580 1.261 . S
N580 Co531 2.214 . S
N580 C578 1.325 . S
N580 C579 1.261 . S
C581 H551 0.931 . S
C581 C578 1.357 . S
C581 C582 1.312 . S
C582 H553 0.930 . S
C582 C577 1.261 . S
C582 C581 1.312 . S
C583 O555 1.214 . S
C583 O563 1.234 . S
C584 H556 0.929 . S
C584 C587 1.391 . S
C584 C589 1.391 . S
C585 H557 0.929 . S
C585 C586 1.390 . S
C585 N588 1.391 . S
C586 H558 0.930 . S
C586 C585 1.390 . S
C586 C587 1.392 . S
C587 H559 0.929 . S
C587 C584 1.391 . S
C587 C586 1.392 . S
N588 Co532 2.257 . S
N588 C585 1.391 . S
N588 C589 1.388 . S
C589 H560 0.930 . S
C589 C584 1.391 . S
C589 N588 1.388 . S
Co590 O592 2.143 . S
Co590 O598 2.074 . S
Co590 O601 2.093 . S
Co590 O614 2.097 . S
Co590 N631 2.151 . S
Co590 N639 2.214 . S
Co591 O592 2.160 . S
Co591 O597 2.058 . S
Co591 O607 2.057 . S
Co591 O622 2.037 . S
Co591 N626 2.145 . S
Co591 N647 2.257 . S
O592 Co590 2.143 . S
O592 Co591 2.160 . S
C593 O594 1.278 . S
C593 O601 1.224 . S
O594 C593 1.278 . S
C595 O596 1.245 . S
C595 O607 1.232 . S
O596 C595 1.245 . S
O597 Co591 2.058 . S
O597 C623 1.269 . S
O598 Co590 2.074 . S
O598 C623 1.257 . S
H599 C624 0.930 . S
H600 C630 0.930 . S
O601 Co590 2.093 . S
O601 C593 1.224 . S
H602 C634 0.929 . S
H603 C636 0.930 . S
H604 C637 0.930 . S
H605 C635 0.929 . S
H606 C638 0.928 . S
O607 Co591 2.057 . S
O607 C595 1.232 . S
H608 C627 0.929 . S
H609 C628 0.929 . S
H610 C640 0.931 . S
H611 C632 0.929 . S
H612 C641 0.930 . S
H613 C633 0.931 . S
O614 Co590 2.097 . S
O614 C642 1.214 . S
H615 C643 0.929 . S
H616 C644 0.929 . S
H617 C645 0.930 . S
H618 C646 0.929 . S
H619 C648 0.930 . S
H620 C625 0.930 . S
H621 C629 0.930 . S
O622 Co591 2.037 . S
O622 C642 1.234 . S
C623 O597 1.269 . S
C623 O598 1.257 . S
C624 H599 0.930 . S
C624 C627 1.388 . S
C624 C629 1.418 . S
C625 H620 0.930 . S
C625 C628 1.404 . S
C625 C629 1.353 . S
N626 Co591 2.145 . S
N626 C627 1.397 . S
N626 C628 1.334 . S
C627 H608 0.929 . S
C627 C624 1.388 . S
C627 N626 1.397 . S
C628 H609 0.929 . S
C628 C625 1.404 . S
C628 N626 1.334 . S
C629 H621 0.930 . S
C629 C624 1.418 . S
C629 C625 1.353 . S
C630 H600 0.930 . S
C630 N631 1.330 . S
C630 C632 1.446 . S
N631 Co590 2.151 . S
N631 C630 1.330 . S
N631 C635 1.418 . S
C632 H611 0.929 . S
C632 C630 1.446 . S
C632 C633 1.332 . S
C633 H613 0.931 . S
C633 C632 1.332 . S
C633 C634 1.267 . S
C634 H602 0.929 . S
C634 C633 1.267 . S
C634 C635 1.251 . S
C635 H605 0.929 . S
C635 N631 1.418 . S
C635 C634 1.251 . S
C636 H603 0.930 . S
C636 C638 1.406 . S
C636 C641 1.261 . S
C637 H604 0.930 . S
C637 N639 1.325 . S
C637 C640 1.357 . S
C638 H606 0.928 . S
C638 C636 1.406 . S
C638 N639 1.261 . S
N639 Co590 2.214 . S
N639 C637 1.325 . S
N639 C638 1.261 . S
C640 H610 0.931 . S
C640 C637 1.357 . S
C640 C641 1.312 . S
C641 H612 0.930 . S
C641 C636 1.261 . S
C641 C640 1.312 . S
C642 O614 1.214 . S
C642 O622 1.234 . S
C643 H615 0.929 . S
C643 C646 1.391 . S
C643 C648 1.391 . S
C644 H616 0.929 . S
C644 C645 1.390 . S
C644 N647 1.391 . S
C645 H617 0.930 . S
C645 C644 1.390 . S
C645 C646 1.392 . S
C646 H618 0.929 . S
C646 C643 1.391 . S
C646 C645 1.392 . S
N647 Co591 2.257 . S
N647 C644 1.391 . S
N647 C648 1.388 . S
C648 H619 0.930 . S
C648 C643 1.391 . S
C648 N647 1.388 . S
Co649 O651 2.143 . S
Co649 O657 2.074 . S
Co649 O660 2.093 . S
Co649 O673 2.097 . S
Co649 N690 2.151 . S
Co649 N698 2.214 . S
Co650 O651 2.160 . S
Co650 O656 2.058 . S
Co650 O666 2.057 . S
Co650 O681 2.037 . S
Co650 N685 2.145 . S
Co650 N706 2.257 . S
O651 Co649 2.143 . S
O651 Co650 2.160 . S
C652 O653 1.278 . S
C652 O660 1.224 . S
O653 C652 1.278 . S
C654 O655 1.245 . S
C654 O666 1.232 . S
O655 C654 1.245 . S
O656 Co650 2.058 . S
O656 C682 1.269 . S
O657 Co649 2.074 . S
O657 C682 1.257 . S
H658 C683 0.930 . S
H659 C689 0.930 . S
O660 Co649 2.093 . S
O660 C652 1.224 . S
H661 C693 0.929 . S
H662 C695 0.930 . S
H663 C696 0.930 . S
H664 C694 0.929 . S
H665 C697 0.928 . S
O666 Co650 2.057 . S
O666 C654 1.232 . S
H667 C686 0.929 . S
H668 C687 0.929 . S
H669 C699 0.931 . S
H670 C691 0.929 . S
H671 C700 0.930 . S
H672 C692 0.931 . S
O673 Co649 2.097 . S
O673 C701 1.214 . S
H674 C702 0.929 . S
H675 C703 0.929 . S
H676 C704 0.930 . S
H677 C705 0.929 . S
H678 C707 0.930 . S
H679 C684 0.930 . S
H680 C688 0.930 . S
O681 Co650 2.037 . S
O681 C701 1.234 . S
C682 O656 1.269 . S
C682 O657 1.257 . S
C683 H658 0.930 . S
C683 C686 1.388 . S
C683 C688 1.418 . S
C684 H679 0.930 . S
C684 C687 1.404 . S
C684 C688 1.353 . S
N685 Co650 2.145 . S
N685 C686 1.397 . S
N685 C687 1.334 . S
C686 H667 0.929 . S
C686 C683 1.388 . S
C686 N685 1.397 . S
C687 H668 0.929 . S
C687 C684 1.404 . S
C687 N685 1.334 . S
C688 H680 0.930 . S
C688 C683 1.418 . S
C688 C684 1.353 . S
C689 H659 0.930 . S
C689 N690 1.330 . S
C689 C691 1.446 . S
N690 Co649 2.151 . S
N690 C689 1.330 . S
N690 C694 1.418 . S
C691 H670 0.929 . S
C691 C689 1.446 . S
C691 C692 1.332 . S
C692 H672 0.931 . S
C692 C691 1.332 . S
C692 C693 1.267 . S
C693 H661 0.929 . S
C693 C692 1.267 . S
C693 C694 1.251 . S
C694 H664 0.929 . S
C694 N690 1.418 . S
C694 C693 1.251 . S
C695 H662 0.930 . S
C695 C697 1.406 . S
C695 C700 1.261 . S
C696 H663 0.930 . S
C696 N698 1.325 . S
C696 C699 1.357 . S
C697 H665 0.928 . S
C697 C695 1.406 . S
C697 N698 1.261 . S
N698 Co649 2.214 . S
N698 C696 1.325 . S
N698 C697 1.261 . S
C699 H669 0.931 . S
C699 C696 1.357 . S
C699 C700 1.312 . S
C700 H671 0.930 . S
C700 C695 1.261 . S
C700 C699 1.312 . S
C701 O673 1.214 . S
C701 O681 1.234 . S
C702 H674 0.929 . S
C702 C705 1.391 . S
C702 C707 1.391 . S
C703 H675 0.929 . S
C703 C704 1.390 . S
C703 N706 1.391 . S
C704 H676 0.930 . S
C704 C703 1.390 . S
C704 C705 1.392 . S
C705 H677 0.929 . S
C705 C702 1.391 . S
C705 C704 1.392 . S
N706 Co650 2.257 . S
N706 C703 1.391 . S
N706 C707 1.388 . S
C707 H678 0.930 . S
C707 C702 1.391 . S
C707 N706 1.388 . S
Co708 O710 2.143 . S
Co708 O716 2.074 . S
Co708 O719 2.093 . S
Co708 O732 2.097 . S
Co708 N749 2.151 . S
Co708 N757 2.214 . S
Co709 O710 2.160 . S
Co709 O715 2.058 . S
Co709 O725 2.057 . S
Co709 O740 2.037 . S
Co709 N744 2.145 . S
Co709 N765 2.257 . S
O710 Co708 2.143 . S
O710 Co709 2.160 . S
C711 O712 1.278 . S
C711 O719 1.224 . S
O712 C711 1.278 . S
C713 O714 1.245 . S
C713 O725 1.232 . S
O714 C713 1.245 . S
O715 Co709 2.058 . S
O715 C741 1.269 . S
O716 Co708 2.074 . S
O716 C741 1.257 . S
H717 C742 0.930 . S
H718 C748 0.930 . S
O719 Co708 2.093 . S
O719 C711 1.224 . S
H720 C752 0.929 . S
H721 C754 0.930 . S
H722 C755 0.930 . S
H723 C753 0.929 . S
H724 C756 0.928 . S
O725 Co709 2.057 . S
O725 C713 1.232 . S
H726 C745 0.929 . S
H727 C746 0.929 . S
H728 C758 0.931 . S
H729 C750 0.929 . S
H730 C759 0.930 . S
H731 C751 0.931 . S
O732 Co708 2.097 . S
O732 C760 1.214 . S
H733 C761 0.929 . S
H734 C762 0.929 . S
H735 C763 0.930 . S
H736 C764 0.929 . S
H737 C766 0.930 . S
H738 C743 0.930 . S
H739 C747 0.930 . S
O740 Co709 2.037 . S
O740 C760 1.234 . S
C741 O715 1.269 . S
C741 O716 1.257 . S
C742 H717 0.930 . S
C742 C745 1.388 . S
C742 C747 1.418 . S
C743 H738 0.930 . S
C743 C746 1.404 . S
C743 C747 1.353 . S
N744 Co709 2.145 . S
N744 C745 1.397 . S
N744 C746 1.334 . S
C745 H726 0.929 . S
C745 C742 1.388 . S
C745 N744 1.397 . S
C746 H727 0.929 . S
C746 C743 1.404 . S
C746 N744 1.334 . S
C747 H739 0.930 . S
C747 C742 1.418 . S
C747 C743 1.353 . S
C748 H718 0.930 . S
C748 N749 1.330 . S
C748 C750 1.446 . S
N749 Co708 2.151 . S
N749 C748 1.330 . S
N749 C753 1.418 . S
C750 H729 0.929 . S
C750 C748 1.446 . S
C750 C751 1.332 . S
C751 H731 0.931 . S
C751 C750 1.332 . S
C751 C752 1.267 . S
C752 H720 0.929 . S
C752 C751 1.267 . S
C752 C753 1.251 . S
C753 H723 0.929 . S
C753 N749 1.418 . S
C753 C752 1.251 . S
C754 H721 0.930 . S
C754 C756 1.406 . S
C754 C759 1.261 . S
C755 H722 0.930 . S
C755 N757 1.325 . S
C755 C758 1.357 . S
C756 H724 0.928 . S
C756 C754 1.406 . S
C756 N757 1.261 . S
N757 Co708 2.214 . S
N757 C755 1.325 . S
N757 C756 1.261 . S
C758 H728 0.931 . S
C758 C755 1.357 . S
C758 C759 1.312 . S
C759 H730 0.930 . S
C759 C754 1.261 . S
C759 C758 1.312 . S
C760 O732 1.214 . S
C760 O740 1.234 . S
C761 H733 0.929 . S
C761 C764 1.391 . S
C761 C766 1.391 . S
C762 H734 0.929 . S
C762 C763 1.390 . S
C762 N765 1.391 . S
C763 H735 0.930 . S
C763 C762 1.390 . S
C763 C764 1.392 . S
C764 H736 0.929 . S
C764 C761 1.391 . S
C764 C763 1.392 . S
N765 Co709 2.257 . S
N765 C762 1.391 . S
N765 C766 1.388 . S
C766 H737 0.930 . S
C766 C761 1.391 . S
C766 N765 1.388 . S
Co767 O769 2.143 . S
Co767 O775 2.074 . S
Co767 O778 2.093 . S
Co767 O791 2.097 . S
Co767 N808 2.151 . S
Co767 N816 2.214 . S
Co768 O769 2.160 . S
Co768 O774 2.058 . S
Co768 O784 2.057 . S
Co768 O799 2.037 . S
Co768 N803 2.145 . S
Co768 N824 2.257 . S
O769 Co767 2.143 . S
O769 Co768 2.160 . S
C770 O771 1.278 . S
C770 O778 1.224 . S
O771 C770 1.278 . S
C772 O773 1.245 . S
C772 O784 1.232 . S
O773 C772 1.245 . S
O774 Co768 2.058 . S
O774 C800 1.269 . S
O775 Co767 2.074 . S
O775 C800 1.257 . S
H776 C801 0.930 . S
H777 C807 0.930 . S
O778 Co767 2.093 . S
O778 C770 1.224 . S
H779 C811 0.929 . S
H780 C813 0.930 . S
H781 C814 0.930 . S
H782 C812 0.929 . S
H783 C815 0.928 . S
O784 Co768 2.057 . S
O784 C772 1.232 . S
H785 C804 0.929 . S
H786 C805 0.929 . S
H787 C817 0.931 . S
H788 C809 0.929 . S
H789 C818 0.930 . S
H790 C810 0.931 . S
O791 Co767 2.097 . S
O791 C819 1.214 . S
H792 C820 0.929 . S
H793 C821 0.929 . S
H794 C822 0.930 . S
H795 C823 0.929 . S
H796 C825 0.930 . S
H797 C802 0.930 . S
H798 C806 0.930 . S
O799 Co768 2.037 . S
O799 C819 1.234 . S
C800 O774 1.269 . S
C800 O775 1.257 . S
C801 H776 0.930 . S
C801 C804 1.388 . S
C801 C806 1.418 . S
C802 H797 0.930 . S
C802 C805 1.404 . S
C802 C806 1.353 . S
N803 Co768 2.145 . S
N803 C804 1.397 . S
N803 C805 1.334 . S
C804 H785 0.929 . S
C804 C801 1.388 . S
C804 N803 1.397 . S
C805 H786 0.929 . S
C805 C802 1.404 . S
C805 N803 1.334 . S
C806 H798 0.930 . S
C806 C801 1.418 . S
C806 C802 1.353 . S
C807 H777 0.930 . S
C807 N808 1.330 . S
C807 C809 1.446 . S
N808 Co767 2.151 . S
N808 C807 1.330 . S
N808 C812 1.418 . S
C809 H788 0.929 . S
C809 C807 1.446 . S
C809 C810 1.332 . S
C810 H790 0.931 . S
C810 C809 1.332 . S
C810 C811 1.267 . S
C811 H779 0.929 . S
C811 C810 1.267 . S
C811 C812 1.251 . S
C812 H782 0.929 . S
C812 N808 1.418 . S
C812 C811 1.251 . S
C813 H780 0.930 . S
C813 C815 1.406 . S
C813 C818 1.261 . S
C814 H781 0.930 . S
C814 N816 1.325 . S
C814 C817 1.357 . S
C815 H783 0.928 . S
C815 C813 1.406 . S
C815 N816 1.261 . S
N816 Co767 2.214 . S
N816 C814 1.325 . S
N816 C815 1.261 . S
C817 H787 0.931 . S
C817 C814 1.357 . S
C817 C818 1.312 . S
C818 H789 0.930 . S
C818 C813 1.261 . S
C818 C817 1.312 . S
C819 O791 1.214 . S
C819 O799 1.234 . S
C820 H792 0.929 . S
C820 C823 1.391 . S
C820 C825 1.391 . S
C821 H793 0.929 . S
C821 C822 1.390 . S
C821 N824 1.391 . S
C822 H794 0.930 . S
C822 C821 1.390 . S
C822 C823 1.392 . S
C823 H795 0.929 . S
C823 C820 1.391 . S
C823 C822 1.392 . S
N824 Co768 2.257 . S
N824 C821 1.391 . S
N824 C825 1.388 . S
C825 H796 0.930 . S
C825 C820 1.391 . S
C825 N824 1.388 . S
Co826 O828 2.143 . S
Co826 O834 2.074 . S
Co826 O837 2.093 . S
Co826 O850 2.097 . S
Co826 N867 2.151 . S
Co826 N875 2.214 . S
Co827 O828 2.160 . S
Co827 O833 2.058 . S
Co827 O843 2.057 . S
Co827 O858 2.037 . S
Co827 N862 2.145 . S
Co827 N883 2.257 . S
O828 Co826 2.143 . S
O828 Co827 2.160 . S
C829 O830 1.278 . S
C829 O837 1.224 . S
O830 C829 1.278 . S
C831 O832 1.245 . S
C831 O843 1.232 . S
O832 C831 1.245 . S
O833 Co827 2.058 . S
O833 C859 1.269 . S
O834 Co826 2.074 . S
O834 C859 1.257 . S
H835 C860 0.930 . S
H836 C866 0.930 . S
O837 Co826 2.093 . S
O837 C829 1.224 . S
H838 C870 0.929 . S
H839 C872 0.930 . S
H840 C873 0.930 . S
H841 C871 0.929 . S
H842 C874 0.928 . S
O843 Co827 2.057 . S
O843 C831 1.232 . S
H844 C863 0.929 . S
H845 C864 0.929 . S
H846 C876 0.931 . S
H847 C868 0.929 . S
H848 C877 0.930 . S
H849 C869 0.931 . S
O850 Co826 2.097 . S
O850 C878 1.214 . S
H851 C879 0.929 . S
H852 C880 0.929 . S
H853 C881 0.930 . S
H854 C882 0.929 . S
H855 C884 0.930 . S
H856 C861 0.930 . S
H857 C865 0.930 . S
O858 Co827 2.037 . S
O858 C878 1.234 . S
C859 O833 1.269 . S
C859 O834 1.257 . S
C860 H835 0.930 . S
C860 C863 1.388 . S
C860 C865 1.418 . S
C861 H856 0.930 . S
C861 C864 1.404 . S
C861 C865 1.353 . S
N862 Co827 2.145 . S
N862 C863 1.397 . S
N862 C864 1.334 . S
C863 H844 0.929 . S
C863 C860 1.388 . S
C863 N862 1.397 . S
C864 H845 0.929 . S
C864 C861 1.404 . S
C864 N862 1.334 . S
C865 H857 0.930 . S
C865 C860 1.418 . S
C865 C861 1.353 . S
C866 H836 0.930 . S
C866 N867 1.330 . S
C866 C868 1.446 . S
N867 Co826 2.151 . S
N867 C866 1.330 . S
N867 C871 1.418 . S
C868 H847 0.929 . S
C868 C866 1.446 . S
C868 C869 1.332 . S
C869 H849 0.931 . S
C869 C868 1.332 . S
C869 C870 1.267 . S
C870 H838 0.929 . S
C870 C869 1.267 . S
C870 C871 1.251 . S
C871 H841 0.929 . S
C871 N867 1.418 . S
C871 C870 1.251 . S
C872 H839 0.930 . S
C872 C874 1.406 . S
C872 C877 1.261 . S
C873 H840 0.930 . S
C873 N875 1.325 . S
C873 C876 1.357 . S
C874 H842 0.928 . S
C874 C872 1.406 . S
C874 N875 1.261 . S
N875 Co826 2.214 . S
N875 C873 1.325 . S
N875 C874 1.261 . S
C876 H846 0.931 . S
C876 C873 1.357 . S
C876 C877 1.312 . S
C877 H848 0.930 . S
C877 C872 1.261 . S
C877 C876 1.312 . S
C878 O850 1.214 . S
C878 O858 1.234 . S
C879 H851 0.929 . S
C879 C882 1.391 . S
C879 C884 1.391 . S
C880 H852 0.929 . S
C880 C881 1.390 . S
C880 N883 1.391 . S
C881 H853 0.930 . S
C881 C880 1.390 . S
C881 C882 1.392 . S
C882 H854 0.929 . S
C882 C879 1.391 . S
C882 C881 1.392 . S
N883 Co827 2.257 . S
N883 C880 1.391 . S
N883 C884 1.388 . S
C884 H855 0.930 . S
C884 C879 1.391 . S
C884 N883 1.388 . S
Co885 O887 2.143 . S
Co885 O893 2.074 . S
Co885 O896 2.093 . S
Co885 O909 2.097 . S
Co885 N926 2.151 . S
Co885 N934 2.214 . S
Co886 O887 2.160 . S
Co886 O892 2.058 . S
Co886 O902 2.057 . S
Co886 O917 2.037 . S
Co886 N921 2.145 . S
Co886 N942 2.257 . S
O887 Co885 2.143 . S
O887 Co886 2.160 . S
C888 O889 1.278 . S
C888 O896 1.224 . S
O889 C888 1.278 . S
C890 O891 1.245 . S
C890 O902 1.232 . S
O891 C890 1.245 . S
O892 Co886 2.058 . S
O892 C918 1.269 . S
O893 Co885 2.074 . S
O893 C918 1.257 . S
H894 C919 0.930 . S
H895 C925 0.930 . S
O896 Co885 2.093 . S
O896 C888 1.224 . S
H897 C929 0.929 . S
H898 C931 0.930 . S
H899 C932 0.930 . S
H900 C930 0.929 . S
H901 C933 0.928 . S
O902 Co886 2.057 . S
O902 C890 1.232 . S
H903 C922 0.929 . S
H904 C923 0.929 . S
H905 C935 0.931 . S
H906 C927 0.929 . S
H907 C936 0.930 . S
H908 C928 0.931 . S
O909 Co885 2.097 . S
O909 C937 1.214 . S
H910 C938 0.929 . S
H911 C939 0.929 . S
H912 C940 0.930 . S
H913 C941 0.929 . S
H914 C943 0.930 . S
H915 C920 0.930 . S
H916 C924 0.930 . S
O917 Co886 2.037 . S
O917 C937 1.234 . S
C918 O892 1.269 . S
C918 O893 1.257 . S
C919 H894 0.930 . S
C919 C922 1.388 . S
C919 C924 1.418 . S
C920 H915 0.930 . S
C920 C923 1.404 . S
C920 C924 1.353 . S
N921 Co886 2.145 . S
N921 C922 1.397 . S
N921 C923 1.334 . S
C922 H903 0.929 . S
C922 C919 1.388 . S
C922 N921 1.397 . S
C923 H904 0.929 . S
C923 C920 1.404 . S
C923 N921 1.334 . S
C924 H916 0.930 . S
C924 C919 1.418 . S
C924 C920 1.353 . S
C925 H895 0.930 . S
C925 N926 1.330 . S
C925 C927 1.446 . S
N926 Co885 2.151 . S
N926 C925 1.330 . S
N926 C930 1.418 . S
C927 H906 0.929 . S
C927 C925 1.446 . S
C927 C928 1.332 . S
C928 H908 0.931 . S
C928 C927 1.332 . S
C928 C929 1.267 . S
C929 H897 0.929 . S
C929 C928 1.267 . S
C929 C930 1.251 . S
C930 H900 0.929 . S
C930 N926 1.418 . S
C930 C929 1.251 . S
C931 H898 0.930 . S
C931 C933 1.406 . S
C931 C936 1.261 . S
C932 H899 0.930 . S
C932 N934 1.325 . S
C932 C935 1.357 . S
C933 H901 0.928 . S
C933 C931 1.406 . S
C933 N934 1.261 . S
N934 Co885 2.214 . S
N934 C932 1.325 . S
N934 C933 1.261 . S
C935 H905 0.931 . S
C935 C932 1.357 . S
C935 C936 1.312 . S
C936 H907 0.930 . S
C936 C931 1.261 . S
C936 C935 1.312 . S
C937 O909 1.214 . S
C937 O917 1.234 . S
C938 H910 0.929 . S
C938 C941 1.391 . S
C938 C943 1.391 . S
C939 H911 0.929 . S
C939 C940 1.390 . S
C939 N942 1.391 . S
C940 H912 0.930 . S
C940 C939 1.390 . S
C940 C941 1.392 . S
C941 H913 0.929 . S
C941 C938 1.391 . S
C941 C940 1.392 . S
N942 Co886 2.257 . S
N942 C939 1.391 . S
N942 C943 1.388 . S
C943 H914 0.930 . S
C943 C938 1.391 . S
C943 N942 1.388 . S
Co944 O946 2.143 . S
Co944 O952 2.074 . S
Co944 O955 2.093 . S
Co944 O968 2.097 . S
Co944 N985 2.151 . S
Co944 N993 2.214 . S
Co945 O946 2.160 . S
Co945 O951 2.058 . S
Co945 O961 2.057 . S
Co945 O976 2.037 . S
Co945 N980 2.145 . S
Co945 N1001 2.257 . S
O946 Co944 2.143 . S
O946 Co945 2.160 . S
C947 O948 1.278 . S
C947 O955 1.224 . S
O948 C947 1.278 . S
C949 O950 1.245 . S
C949 O961 1.232 . S
O950 C949 1.245 . S
O951 Co945 2.058 . S
O951 C977 1.269 . S
O952 Co944 2.074 . S
O952 C977 1.257 . S
H953 C978 0.930 . S
H954 C984 0.930 . S
O955 Co944 2.093 . S
O955 C947 1.224 . S
H956 C988 0.929 . S
H957 C990 0.930 . S
H958 C991 0.930 . S
H959 C989 0.929 . S
H960 C992 0.928 . S
O961 Co945 2.057 . S
O961 C949 1.232 . S
H962 C981 0.929 . S
H963 C982 0.929 . S
H964 C994 0.931 . S
H965 C986 0.929 . S
H966 C995 0.930 . S
H967 C987 0.931 . S
O968 Co944 2.097 . S
O968 C996 1.214 . S
H969 C997 0.929 . S
H970 C998 0.929 . S
H971 C999 0.930 . S
H972 C1000 0.929 . S
H973 C1002 0.930 . S
H974 C979 0.930 . S
H975 C983 0.930 . S
O976 Co945 2.037 . S
O976 C996 1.234 . S
C977 O951 1.269 . S
C977 O952 1.257 . S
C978 H953 0.930 . S
C978 C981 1.388 . S
C978 C983 1.418 . S
C979 H974 0.930 . S
C979 C982 1.404 . S
C979 C983 1.353 . S
N980 Co945 2.145 . S
N980 C981 1.397 . S
N980 C982 1.334 . S
C981 H962 0.929 . S
C981 C978 1.388 . S
C981 N980 1.397 . S
C982 H963 0.929 . S
C982 C979 1.404 . S
C982 N980 1.334 . S
C983 H975 0.930 . S
C983 C978 1.418 . S
C983 C979 1.353 . S
C984 H954 0.930 . S
C984 N985 1.330 . S
C984 C986 1.446 . S
N985 Co944 2.151 . S
N985 C984 1.330 . S
N985 C989 1.418 . S
C986 H965 0.929 . S
C986 C984 1.446 . S
C986 C987 1.332 . S
C987 H967 0.931 . S
C987 C986 1.332 . S
C987 C988 1.267 . S
C988 H956 0.929 . S
C988 C987 1.267 . S
C988 C989 1.251 . S
C989 H959 0.929 . S
C989 N985 1.418 . S
C989 C988 1.251 . S
C990 H957 0.930 . S
C990 C992 1.406 . S
C990 C995 1.261 . S
C991 H958 0.930 . S
C991 N993 1.325 . S
C991 C994 1.357 . S
C992 H960 0.928 . S
C992 C990 1.406 . S
C992 N993 1.261 . S
N993 Co944 2.214 . S
N993 C991 1.325 . S
N993 C992 1.261 . S
C994 H964 0.931 . S
C994 C991 1.357 . S
C994 C995 1.312 . S
C995 H966 0.930 . S
C995 C990 1.261 . S
C995 C994 1.312 . S
C996 O968 1.214 . S
C996 O976 1.234 . S
C997 H969 0.929 . S
C997 C1000 1.391 . S
C997 C1002 1.391 . S
C998 H970 0.929 . S
C998 C999 1.390 . S
C998 N1001 1.391 . S
C999 H971 0.930 . S
C999 C998 1.390 . S
C999 C1000 1.392 . S
C1000 H972 0.929 . S
C1000 C997 1.391 . S
C1000 C999 1.392 . S
N1001 Co945 2.257 . S
N1001 C998 1.391 . S
N1001 C1002 1.388 . S
C1002 H973 0.930 . S
C1002 C997 1.391 . S
C1002 N1001 1.388 . S
Co1003 O1005 2.143 . S
Co1003 O1011 2.074 . S
Co1003 O1014 2.093 . S
Co1003 O1027 2.097 . S
Co1003 N1044 2.151 . S
Co1003 N1052 2.214 . S
Co1004 O1005 2.160 . S
Co1004 O1010 2.058 . S
Co1004 O1020 2.057 . S
Co1004 O1035 2.037 . S
Co1004 N1039 2.145 . S
Co1004 N1060 2.257 . S
O1005 Co1003 2.143 . S
O1005 Co1004 2.160 . S
C1006 O1007 1.278 . S
C1006 O1014 1.224 . S
O1007 C1006 1.278 . S
C1008 O1009 1.245 . S
C1008 O1020 1.232 . S
O1009 C1008 1.245 . S
O1010 Co1004 2.058 . S
O1010 C1036 1.269 . S
O1011 Co1003 2.074 . S
O1011 C1036 1.257 . S
H1012 C1037 0.930 . S
H1013 C1043 0.930 . S
O1014 Co1003 2.093 . S
O1014 C1006 1.224 . S
H1015 C1047 0.929 . S
H1016 C1049 0.930 . S
H1017 C1050 0.930 . S
H1018 C1048 0.929 . S
H1019 C1051 0.928 . S
O1020 Co1004 2.057 . S
O1020 C1008 1.232 . S
H1021 C1040 0.929 . S
H1022 C1041 0.929 . S
H1023 C1053 0.931 . S
H1024 C1045 0.929 . S
H1025 C1054 0.930 . S
H1026 C1046 0.931 . S
O1027 Co1003 2.097 . S
O1027 C1055 1.214 . S
H1028 C1056 0.929 . S
H1029 C1057 0.929 . S
H1030 C1058 0.930 . S
H1031 C1059 0.929 . S
H1032 C1061 0.930 . S
H1033 C1038 0.930 . S
H1034 C1042 0.930 . S
O1035 Co1004 2.037 . S
O1035 C1055 1.234 . S
C1036 O1010 1.269 . S
C1036 O1011 1.257 . S
C1037 H1012 0.930 . S
C1037 C1040 1.388 . S
C1037 C1042 1.418 . S
C1038 H1033 0.930 . S
C1038 C1041 1.404 . S
C1038 C1042 1.353 . S
N1039 Co1004 2.145 . S
N1039 C1040 1.397 . S
N1039 C1041 1.334 . S
C1040 H1021 0.929 . S
C1040 C1037 1.388 . S
C1040 N1039 1.397 . S
C1041 H1022 0.929 . S
C1041 C1038 1.404 . S
C1041 N1039 1.334 . S
C1042 H1034 0.930 . S
C1042 C1037 1.418 . S
C1042 C1038 1.353 . S
C1043 H1013 0.930 . S
C1043 N1044 1.330 . S
C1043 C1045 1.446 . S
N1044 Co1003 2.151 . S
N1044 C1043 1.330 . S
N1044 C1048 1.418 . S
C1045 H1024 0.929 . S
C1045 C1043 1.446 . S
C1045 C1046 1.332 . S
C1046 H1026 0.931 . S
C1046 C1045 1.332 . S
C1046 C1047 1.267 . S
C1047 H1015 0.929 . S
C1047 C1046 1.267 . S
C1047 C1048 1.251 . S
C1048 H1018 0.929 . S
C1048 N1044 1.418 . S
C1048 C1047 1.251 . S
C1049 H1016 0.930 . S
C1049 C1051 1.406 . S
C1049 C1054 1.261 . S
C1050 H1017 0.930 . S
C1050 N1052 1.325 . S
C1050 C1053 1.357 . S
C1051 H1019 0.928 . S
C1051 C1049 1.406 . S
C1051 N1052 1.261 . S
N1052 Co1003 2.214 . S
N1052 C1050 1.325 . S
N1052 C1051 1.261 . S
C1053 H1023 0.931 . S
C1053 C1050 1.357 . S
C1053 C1054 1.312 . S
C1054 H1025 0.930 . S
C1054 C1049 1.261 . S
C1054 C1053 1.312 . S
C1055 O1027 1.214 . S
C1055 O1035 1.234 . S
C1056 H1028 0.929 . S
C1056 C1059 1.391 . S
C1056 C1061 1.391 . S
C1057 H1029 0.929 . S
C1057 C1058 1.390 . S
C1057 N1060 1.391 . S
C1058 H1030 0.930 . S
C1058 C1057 1.390 . S
C1058 C1059 1.392 . S
C1059 H1031 0.929 . S
C1059 C1056 1.391 . S
C1059 C1058 1.392 . S
N1060 Co1004 2.257 . S
N1060 C1057 1.391 . S
N1060 C1061 1.388 . S
C1061 H1032 0.930 . S
C1061 C1056 1.391 . S
C1061 N1060 1.388 . S
Co1062 O1064 2.143 . S
Co1062 O1070 2.074 . S
Co1062 O1073 2.093 . S
Co1062 O1086 2.097 . S
Co1062 N1103 2.151 . S
Co1062 N1111 2.214 . S
Co1063 O1064 2.160 . S
Co1063 O1069 2.058 . S
Co1063 O1079 2.057 . S
Co1063 O1094 2.037 . S
Co1063 N1098 2.145 . S
Co1063 N1119 2.257 . S
O1064 Co1062 2.143 . S
O1064 Co1063 2.160 . S
C1065 O1066 1.278 . S
C1065 O1073 1.224 . S
O1066 C1065 1.278 . S
C1067 O1068 1.245 . S
C1067 O1079 1.232 . S
O1068 C1067 1.245 . S
O1069 Co1063 2.058 . S
O1069 C1095 1.269 . S
O1070 Co1062 2.074 . S
O1070 C1095 1.257 . S
H1071 C1096 0.930 . S
H1072 C1102 0.930 . S
O1073 Co1062 2.093 . S
O1073 C1065 1.224 . S
H1074 C1106 0.929 . S
H1075 C1108 0.930 . S
H1076 C1109 0.930 . S
H1077 C1107 0.929 . S
H1078 C1110 0.928 . S
O1079 Co1063 2.057 . S
O1079 C1067 1.232 . S
H1080 C1099 0.929 . S
H1081 C1100 0.929 . S
H1082 C1112 0.931 . S
H1083 C1104 0.929 . S
H1084 C1113 0.930 . S
H1085 C1105 0.931 . S
O1086 Co1062 2.097 . S
O1086 C1114 1.214 . S
H1087 C1115 0.929 . S
H1088 C1116 0.929 . S
H1089 C1117 0.930 . S
H1090 C1118 0.929 . S
H1091 C1120 0.930 . S
H1092 C1097 0.930 . S
H1093 C1101 0.930 . S
O1094 Co1063 2.037 . S
O1094 C1114 1.234 . S
C1095 O1069 1.269 . S
C1095 O1070 1.257 . S
C1096 H1071 0.930 . S
C1096 C1099 1.388 . S
C1096 C1101 1.418 . S
C1097 H1092 0.930 . S
C1097 C1100 1.404 . S
C1097 C1101 1.353 . S
N1098 Co1063 2.145 . S
N1098 C1099 1.397 . S
N1098 C1100 1.334 . S
C1099 H1080 0.929 . S
C1099 C1096 1.388 . S
C1099 N1098 1.397 . S
C1100 H1081 0.929 . S
C1100 C1097 1.404 . S
C1100 N1098 1.334 . S
C1101 H1093 0.930 . S
C1101 C1096 1.418 . S
C1101 C1097 1.353 . S
C1102 H1072 0.930 . S
C1102 N1103 1.330 . S
C1102 C1104 1.446 . S
N1103 Co1062 2.151 . S
N1103 C1102 1.330 . S
N1103 C1107 1.418 . S
C1104 H1083 0.929 . S
C1104 C1102 1.446 . S
C1104 C1105 1.332 . S
C1105 H1085 0.931 . S
C1105 C1104 1.332 . S
C1105 C1106 1.267 . S
C1106 H1074 0.929 . S
C1106 C1105 1.267 . S
C1106 C1107 1.251 . S
C1107 H1077 0.929 . S
C1107 N1103 1.418 . S
C1107 C1106 1.251 . S
C1108 H1075 0.930 . S
C1108 C1110 1.406 . S
C1108 C1113 1.261 . S
C1109 H1076 0.930 . S
C1109 N1111 1.325 . S
C1109 C1112 1.357 . S
C1110 H1078 0.928 . S
C1110 C1108 1.406 . S
C1110 N1111 1.261 . S
N1111 Co1062 2.214 . S
N1111 C1109 1.325 . S
N1111 C1110 1.261 . S
C1112 H1082 0.931 . S
C1112 C1109 1.357 . S
C1112 C1113 1.312 . S
C1113 H1084 0.930 . S
C1113 C1108 1.261 . S
C1113 C1112 1.312 . S
C1114 O1086 1.214 . S
C1114 O1094 1.234 . S
C1115 H1087 0.929 . S
C1115 C1118 1.391 . S
C1115 C1120 1.391 . S
C1116 H1088 0.929 . S
C1116 C1117 1.390 . S
C1116 N1119 1.391 . S
C1117 H1089 0.930 . S
C1117 C1116 1.390 . S
C1117 C1118 1.392 . S
C1118 H1090 0.929 . S
C1118 C1115 1.391 . S
C1118 C1117 1.392 . S
N1119 Co1063 2.257 . S
N1119 C1116 1.391 . S
N1119 C1120 1.388 . S
C1120 H1091 0.930 . S
C1120 C1115 1.391 . S
C1120 N1119 1.388 . S
Co1121 O1123 2.143 . S
Co1121 O1129 2.074 . S
Co1121 O1132 2.093 . S
Co1121 O1145 2.097 . S
Co1121 N1162 2.151 . S
Co1121 N1170 2.214 . S
Co1122 O1123 2.160 . S
Co1122 O1128 2.058 . S
Co1122 O1138 2.057 . S
Co1122 O1153 2.037 . S
Co1122 N1157 2.145 . S
Co1122 N1178 2.257 . S
O1123 Co1121 2.143 . S
O1123 Co1122 2.160 . S
C1124 O1125 1.278 . S
C1124 O1132 1.224 . S
O1125 C1124 1.278 . S
C1126 O1127 1.245 . S
C1126 O1138 1.232 . S
O1127 C1126 1.245 . S
O1128 Co1122 2.058 . S
O1128 C1154 1.269 . S
O1129 Co1121 2.074 . S
O1129 C1154 1.257 . S
H1130 C1155 0.930 . S
H1131 C1161 0.930 . S
O1132 Co1121 2.093 . S
O1132 C1124 1.224 . S
H1133 C1165 0.929 . S
H1134 C1167 0.930 . S
H1135 C1168 0.930 . S
H1136 C1166 0.929 . S
H1137 C1169 0.928 . S
O1138 Co1122 2.057 . S
O1138 C1126 1.232 . S
H1139 C1158 0.929 . S
H1140 C1159 0.929 . S
H1141 C1171 0.931 . S
H1142 C1163 0.929 . S
H1143 C1172 0.930 . S
H1144 C1164 0.931 . S
O1145 Co1121 2.097 . S
O1145 C1173 1.214 . S
H1146 C1174 0.929 . S
H1147 C1175 0.929 . S
H1148 C1176 0.930 . S
H1149 C1177 0.929 . S
H1150 C1179 0.930 . S
H1151 C1156 0.930 . S
H1152 C1160 0.930 . S
O1153 Co1122 2.037 . S
O1153 C1173 1.234 . S
C1154 O1128 1.269 . S
C1154 O1129 1.257 . S
C1155 H1130 0.930 . S
C1155 C1158 1.388 . S
C1155 C1160 1.418 . S
C1156 H1151 0.930 . S
C1156 C1159 1.404 . S
C1156 C1160 1.353 . S
N1157 Co1122 2.145 . S
N1157 C1158 1.397 . S
N1157 C1159 1.334 . S
C1158 H1139 0.929 . S
C1158 C1155 1.388 . S
C1158 N1157 1.397 . S
C1159 H1140 0.929 . S
C1159 C1156 1.404 . S
C1159 N1157 1.334 . S
C1160 H1152 0.930 . S
C1160 C1155 1.418 . S
C1160 C1156 1.353 . S
C1161 H1131 0.930 . S
C1161 N1162 1.330 . S
C1161 C1163 1.446 . S
N1162 Co1121 2.151 . S
N1162 C1161 1.330 . S
N1162 C1166 1.418 . S
C1163 H1142 0.929 . S
C1163 C1161 1.446 . S
C1163 C1164 1.332 . S
C1164 H1144 0.931 . S
C1164 C1163 1.332 . S
C1164 C1165 1.267 . S
C1165 H1133 0.929 . S
C1165 C1164 1.267 . S
C1165 C1166 1.251 . S
C1166 H1136 0.929 . S
C1166 N1162 1.418 . S
C1166 C1165 1.251 . S
C1167 H1134 0.930 . S
C1167 C1169 1.406 . S
C1167 C1172 1.261 . S
C1168 H1135 0.930 . S
C1168 N1170 1.325 . S
C1168 C1171 1.357 . S
C1169 H1137 0.928 . S
C1169 C1167 1.406 . S
C1169 N1170 1.261 . S
N1170 Co1121 2.214 . S
N1170 C1168 1.325 . S
N1170 C1169 1.261 . S
C1171 H1141 0.931 . S
C1171 C1168 1.357 . S
C1171 C1172 1.312 . S
C1172 H1143 0.930 . S
C1172 C1167 1.261 . S
C1172 C1171 1.312 . S
C1173 O1145 1.214 . S
C1173 O1153 1.234 . S
C1174 H1146 0.929 . S
C1174 C1177 1.391 . S
C1174 C1179 1.391 . S
C1175 H1147 0.929 . S
C1175 C1176 1.390 . S
C1175 N1178 1.391 . S
C1176 H1148 0.930 . S
C1176 C1175 1.390 . S
C1176 C1177 1.392 . S
C1177 H1149 0.929 . S
C1177 C1174 1.391 . S
C1177 C1176 1.392 . S
N1178 Co1122 2.257 . S
N1178 C1175 1.391 . S
N1178 C1179 1.388 . S
C1179 H1150 0.930 . S
C1179 C1174 1.391 . S
C1179 N1178 1.388 . S
Co1180 O1182 2.143 . S
Co1180 O1188 2.074 . S
Co1180 O1191 2.093 . S
Co1180 O1204 2.097 . S
Co1180 N1221 2.151 . S
Co1180 N1229 2.214 . S
Co1181 O1182 2.160 . S
Co1181 O1187 2.058 . S
Co1181 O1197 2.057 . S
Co1181 O1212 2.037 . S
Co1181 N1216 2.145 . S
Co1181 N1237 2.257 . S
O1182 Co1180 2.143 . S
O1182 Co1181 2.160 . S
C1183 O1184 1.278 . S
C1183 O1191 1.224 . S
O1184 C1183 1.278 . S
C1185 O1186 1.245 . S
C1185 O1197 1.232 . S
O1186 C1185 1.245 . S
O1187 Co1181 2.058 . S
O1187 C1213 1.269 . S
O1188 Co1180 2.074 . S
O1188 C1213 1.257 . S
H1189 C1214 0.930 . S
H1190 C1220 0.930 . S
O1191 Co1180 2.093 . S
O1191 C1183 1.224 . S
H1192 C1224 0.929 . S
H1193 C1226 0.930 . S
H1194 C1227 0.930 . S
H1195 C1225 0.929 . S
H1196 C1228 0.928 . S
O1197 Co1181 2.057 . S
O1197 C1185 1.232 . S
H1198 C1217 0.929 . S
H1199 C1218 0.929 . S
H1200 C1230 0.931 . S
H1201 C1222 0.929 . S
H1202 C1231 0.930 . S
H1203 C1223 0.931 . S
O1204 Co1180 2.097 . S
O1204 C1232 1.214 . S
H1205 C1233 0.929 . S
H1206 C1234 0.929 . S
H1207 C1235 0.930 . S
H1208 C1236 0.929 . S
H1209 C1238 0.930 . S
H1210 C1215 0.930 . S
H1211 C1219 0.930 . S
O1212 Co1181 2.037 . S
O1212 C1232 1.234 . S
C1213 O1187 1.269 . S
C1213 O1188 1.257 . S
C1214 H1189 0.930 . S
C1214 C1217 1.388 . S
C1214 C1219 1.418 . S
C1215 H1210 0.930 . S
C1215 C1218 1.404 . S
C1215 C1219 1.353 . S
N1216 Co1181 2.145 . S
N1216 C1217 1.397 . S
N1216 C1218 1.334 . S
C1217 H1198 0.929 . S
C1217 C1214 1.388 . S
C1217 N1216 1.397 . S
C1218 H1199 0.929 . S
C1218 C1215 1.404 . S
C1218 N1216 1.334 . S
C1219 H1211 0.930 . S
C1219 C1214 1.418 . S
C1219 C1215 1.353 . S
C1220 H1190 0.930 . S
C1220 N1221 1.330 . S
C1220 C1222 1.446 . S
N1221 Co1180 2.151 . S
N1221 C1220 1.330 . S
N1221 C1225 1.418 . S
C1222 H1201 0.929 . S
C1222 C1220 1.446 . S
C1222 C1223 1.332 . S
C1223 H1203 0.931 . S
C1223 C1222 1.332 . S
C1223 C1224 1.267 . S
C1224 H1192 0.929 . S
C1224 C1223 1.267 . S
C1224 C1225 1.251 . S
C1225 H1195 0.929 . S
C1225 N1221 1.418 . S
C1225 C1224 1.251 . S
C1226 H1193 0.930 . S
C1226 C1228 1.406 . S
C1226 C1231 1.261 . S
C1227 H1194 0.930 . S
C1227 N1229 1.325 . S
C1227 C1230 1.357 . S
C1228 H1196 0.928 . S
C1228 C1226 1.406 . S
C1228 N1229 1.261 . S
N1229 Co1180 2.214 . S
N1229 C1227 1.325 . S
N1229 C1228 1.261 . S
C1230 H1200 0.931 . S
C1230 C1227 1.357 . S
C1230 C1231 1.312 . S
C1231 H1202 0.930 . S
C1231 C1226 1.261 . S
C1231 C1230 1.312 . S
C1232 O1204 1.214 . S
C1232 O1212 1.234 . S
C1233 H1205 0.929 . S
C1233 C1236 1.391 . S
C1233 C1238 1.391 . S
C1234 H1206 0.929 . S
C1234 C1235 1.390 . S
C1234 N1237 1.391 . S
C1235 H1207 0.930 . S
C1235 C1234 1.390 . S
C1235 C1236 1.392 . S
C1236 H1208 0.929 . S
C1236 C1233 1.391 . S
C1236 C1235 1.392 . S
N1237 Co1181 2.257 . S
N1237 C1234 1.391 . S
N1237 C1238 1.388 . S
C1238 H1209 0.930 . S
C1238 C1233 1.391 . S
C1238 N1237 1.388 . S
Co1239 O1241 2.143 . S
Co1239 O1247 2.074 . S
Co1239 O1250 2.093 . S
Co1239 O1263 2.097 . S
Co1239 N1280 2.151 . S
Co1239 N1288 2.214 . S
Co1240 O1241 2.160 . S
Co1240 O1246 2.058 . S
Co1240 O1256 2.057 . S
Co1240 O1271 2.037 . S
Co1240 N1275 2.145 . S
Co1240 N1296 2.257 . S
O1241 Co1239 2.143 . S
O1241 Co1240 2.160 . S
C1242 O1243 1.278 . S
C1242 O1250 1.224 . S
O1243 C1242 1.278 . S
C1244 O1245 1.245 . S
C1244 O1256 1.232 . S
O1245 C1244 1.245 . S
O1246 Co1240 2.058 . S
O1246 C1272 1.269 . S
O1247 Co1239 2.074 . S
O1247 C1272 1.257 . S
H1248 C1273 0.930 . S
H1249 C1279 0.930 . S
O1250 Co1239 2.093 . S
O1250 C1242 1.224 . S
H1251 C1283 0.929 . S
H1252 C1285 0.930 . S
H1253 C1286 0.930 . S
H1254 C1284 0.929 . S
H1255 C1287 0.928 . S
O1256 Co1240 2.057 . S
O1256 C1244 1.232 . S
H1257 C1276 0.929 . S
H1258 C1277 0.929 . S
H1259 C1289 0.931 . S
H1260 C1281 0.929 . S
H1261 C1290 0.930 . S
H1262 C1282 0.931 . S
O1263 Co1239 2.097 . S
O1263 C1291 1.214 . S
H1264 C1292 0.929 . S
H1265 C1293 0.929 . S
H1266 C1294 0.930 . S
H1267 C1295 0.929 . S
H1268 C1297 0.930 . S
H1269 C1274 0.930 . S
H1270 C1278 0.930 . S
O1271 Co1240 2.037 . S
O1271 C1291 1.234 . S
C1272 O1246 1.269 . S
C1272 O1247 1.257 . S
C1273 H1248 0.930 . S
C1273 C1276 1.388 . S
C1273 C1278 1.418 . S
C1274 H1269 0.930 . S
C1274 C1277 1.404 . S
C1274 C1278 1.353 . S
N1275 Co1240 2.145 . S
N1275 C1276 1.397 . S
N1275 C1277 1.334 . S
C1276 H1257 0.929 . S
C1276 C1273 1.388 . S
C1276 N1275 1.397 . S
C1277 H1258 0.929 . S
C1277 C1274 1.404 . S
C1277 N1275 1.334 . S
C1278 H1270 0.930 . S
C1278 C1273 1.418 . S
C1278 C1274 1.353 . S
C1279 H1249 0.930 . S
C1279 N1280 1.330 . S
C1279 C1281 1.446 . S
N1280 Co1239 2.151 . S
N1280 C1279 1.330 . S
N1280 C1284 1.418 . S
C1281 H1260 0.929 . S
C1281 C1279 1.446 . S
C1281 C1282 1.332 . S
C1282 H1262 0.931 . S
C1282 C1281 1.332 . S
C1282 C1283 1.267 . S
C1283 H1251 0.929 . S
C1283 C1282 1.267 . S
C1283 C1284 1.251 . S
C1284 H1254 0.929 . S
C1284 N1280 1.418 . S
C1284 C1283 1.251 . S
C1285 H1252 0.930 . S
C1285 C1287 1.406 . S
C1285 C1290 1.261 . S
C1286 H1253 0.930 . S
C1286 N1288 1.325 . S
C1286 C1289 1.357 . S
C1287 H1255 0.928 . S
C1287 C1285 1.406 . S
C1287 N1288 1.261 . S
N1288 Co1239 2.214 . S
N1288 C1286 1.325 . S
N1288 C1287 1.261 . S
C1289 H1259 0.931 . S
C1289 C1286 1.357 . S
C1289 C1290 1.312 . S
C1290 H1261 0.930 . S
C1290 C1285 1.261 . S
C1290 C1289 1.312 . S
C1291 O1263 1.214 . S
C1291 O1271 1.234 . S
C1292 H1264 0.929 . S
C1292 C1295 1.391 . S
C1292 C1297 1.391 . S
C1293 H1265 0.929 . S
C1293 C1294 1.390 . S
C1293 N1296 1.391 . S
C1294 H1266 0.930 . S
C1294 C1293 1.390 . S
C1294 C1295 1.392 . S
C1295 H1267 0.929 . S
C1295 C1292 1.391 . S
C1295 C1294 1.392 . S
N1296 Co1240 2.257 . S
N1296 C1293 1.391 . S
N1296 C1297 1.388 . S
C1297 H1268 0.930 . S
C1297 C1292 1.391 . S
C1297 N1296 1.388 . S
Co1298 O1300 2.143 . S
Co1298 O1306 2.074 . S
Co1298 O1309 2.093 . S
Co1298 O1322 2.097 . S
Co1298 N1339 2.151 . S
Co1298 N1347 2.214 . S
Co1299 O1300 2.160 . S
Co1299 O1305 2.058 . S
Co1299 O1315 2.057 . S
Co1299 O1330 2.037 . S
Co1299 N1334 2.145 . S
Co1299 N1355 2.257 . S
O1300 Co1298 2.143 . S
O1300 Co1299 2.160 . S
C1301 O1302 1.278 . S
C1301 O1309 1.224 . S
O1302 C1301 1.278 . S
C1303 O1304 1.245 . S
C1303 O1315 1.232 . S
O1304 C1303 1.245 . S
O1305 Co1299 2.058 . S
O1305 C1331 1.269 . S
O1306 Co1298 2.074 . S
O1306 C1331 1.257 . S
H1307 C1332 0.930 . S
H1308 C1338 0.930 . S
O1309 Co1298 2.093 . S
O1309 C1301 1.224 . S
H1310 C1342 0.929 . S
H1311 C1344 0.930 . S
H1312 C1345 0.930 . S
H1313 C1343 0.929 . S
H1314 C1346 0.928 . S
O1315 Co1299 2.057 . S
O1315 C1303 1.232 . S
H1316 C1335 0.929 . S
H1317 C1336 0.929 . S
H1318 C1348 0.931 . S
H1319 C1340 0.929 . S
H1320 C1349 0.930 . S
H1321 C1341 0.931 . S
O1322 Co1298 2.097 . S
O1322 C1350 1.214 . S
H1323 C1351 0.929 . S
H1324 C1352 0.929 . S
H1325 C1353 0.930 . S
H1326 C1354 0.929 . S
H1327 C1356 0.930 . S
H1328 C1333 0.930 . S
H1329 C1337 0.930 . S
O1330 Co1299 2.037 . S
O1330 C1350 1.234 . S
C1331 O1305 1.269 . S
C1331 O1306 1.257 . S
C1332 H1307 0.930 . S
C1332 C1335 1.388 . S
C1332 C1337 1.418 . S
C1333 H1328 0.930 . S
C1333 C1336 1.404 . S
C1333 C1337 1.353 . S
N1334 Co1299 2.145 . S
N1334 C1335 1.397 . S
N1334 C1336 1.334 . S
C1335 H1316 0.929 . S
C1335 C1332 1.388 . S
C1335 N1334 1.397 . S
C1336 H1317 0.929 . S
C1336 C1333 1.404 . S
C1336 N1334 1.334 . S
C1337 H1329 0.930 . S
C1337 C1332 1.418 . S
C1337 C1333 1.353 . S
C1338 H1308 0.930 . S
C1338 N1339 1.330 . S
C1338 C1340 1.446 . S
N1339 Co1298 2.151 . S
N1339 C1338 1.330 . S
N1339 C1343 1.418 . S
C1340 H1319 0.929 . S
C1340 C1338 1.446 . S
C1340 C1341 1.332 . S
C1341 H1321 0.931 . S
C1341 C1340 1.332 . S
C1341 C1342 1.267 . S
C1342 H1310 0.929 . S
C1342 C1341 1.267 . S
C1342 C1343 1.251 . S
C1343 H1313 0.929 . S
C1343 N1339 1.418 . S
C1343 C1342 1.251 . S
C1344 H1311 0.930 . S
C1344 C1346 1.406 . S
C1344 C1349 1.261 . S
C1345 H1312 0.930 . S
C1345 N1347 1.325 . S
C1345 C1348 1.357 . S
C1346 H1314 0.928 . S
C1346 C1344 1.406 . S
C1346 N1347 1.261 . S
N1347 Co1298 2.214 . S
N1347 C1345 1.325 . S
N1347 C1346 1.261 . S
C1348 H1318 0.931 . S
C1348 C1345 1.357 . S
C1348 C1349 1.312 . S
C1349 H1320 0.930 . S
C1349 C1344 1.261 . S
C1349 C1348 1.312 . S
C1350 O1322 1.214 . S
C1350 O1330 1.234 . S
C1351 H1323 0.929 . S
C1351 C1354 1.391 . S
C1351 C1356 1.391 . S
C1352 H1324 0.929 . S
C1352 C1353 1.390 . S
C1352 N1355 1.391 . S
C1353 H1325 0.930 . S
C1353 C1352 1.390 . S
C1353 C1354 1.392 . S
C1354 H1326 0.929 . S
C1354 C1351 1.391 . S
C1354 C1353 1.392 . S
N1355 Co1299 2.257 . S
N1355 C1352 1.391 . S
N1355 C1356 1.388 . S
C1356 H1327 0.930 . S
C1356 C1351 1.391 . S
C1356 N1355 1.388 . S
Co1357 O1359 2.143 . S
Co1357 O1365 2.074 . S
Co1357 O1368 2.093 . S
Co1357 O1381 2.097 . S
Co1357 N1398 2.151 . S
Co1357 N1406 2.214 . S
Co1358 O1359 2.160 . S
Co1358 O1364 2.058 . S
Co1358 O1374 2.057 . S
Co1358 O1389 2.037 . S
Co1358 N1393 2.145 . S
Co1358 N1414 2.257 . S
O1359 Co1357 2.143 . S
O1359 Co1358 2.160 . S
C1360 O1361 1.278 . S
C1360 O1368 1.224 . S
O1361 C1360 1.278 . S
C1362 O1363 1.245 . S
C1362 O1374 1.232 . S
O1363 C1362 1.245 . S
O1364 Co1358 2.058 . S
O1364 C1390 1.269 . S
O1365 Co1357 2.074 . S
O1365 C1390 1.257 . S
H1366 C1391 0.930 . S
H1367 C1397 0.930 . S
O1368 Co1357 2.093 . S
O1368 C1360 1.224 . S
H1369 C1401 0.929 . S
H1370 C1403 0.930 . S
H1371 C1404 0.930 . S
H1372 C1402 0.929 . S
H1373 C1405 0.928 . S
O1374 Co1358 2.057 . S
O1374 C1362 1.232 . S
H1375 C1394 0.929 . S
H1376 C1395 0.929 . S
H1377 C1407 0.931 . S
H1378 C1399 0.929 . S
H1379 C1408 0.930 . S
H1380 C1400 0.931 . S
O1381 Co1357 2.097 . S
O1381 C1409 1.214 . S
H1382 C1410 0.929 . S
H1383 C1411 0.929 . S
H1384 C1412 0.930 . S
H1385 C1413 0.929 . S
H1386 C1415 0.930 . S
H1387 C1392 0.930 . S
H1388 C1396 0.930 . S
O1389 Co1358 2.037 . S
O1389 C1409 1.234 . S
C1390 O1364 1.269 . S
C1390 O1365 1.257 . S
C1391 H1366 0.930 . S
C1391 C1394 1.388 . S
C1391 C1396 1.418 . S
C1392 H1387 0.930 . S
C1392 C1395 1.404 . S
C1392 C1396 1.353 . S
N1393 Co1358 2.145 . S
N1393 C1394 1.397 . S
N1393 C1395 1.334 . S
C1394 H1375 0.929 . S
C1394 C1391 1.388 . S
C1394 N1393 1.397 . S
C1395 H1376 0.929 . S
C1395 C1392 1.404 . S
C1395 N1393 1.334 . S
C1396 H1388 0.930 . S
C1396 C1391 1.418 . S
C1396 C1392 1.353 . S
C1397 H1367 0.930 . S
C1397 N1398 1.330 . S
C1397 C1399 1.446 . S
N1398 Co1357 2.151 . S
N1398 C1397 1.330 . S
N1398 C1402 1.418 . S
C1399 H1378 0.929 . S
C1399 C1397 1.446 . S
C1399 C1400 1.332 . S
C1400 H1380 0.931 . S
C1400 C1399 1.332 . S
C1400 C1401 1.267 . S
C1401 H1369 0.929 . S
C1401 C1400 1.267 . S
C1401 C1402 1.251 . S
C1402 H1372 0.929 . S
C1402 N1398 1.418 . S
C1402 C1401 1.251 . S
C1403 H1370 0.930 . S
C1403 C1405 1.406 . S
C1403 C1408 1.261 . S
C1404 H1371 0.930 . S
C1404 N1406 1.325 . S
C1404 C1407 1.357 . S
C1405 H1373 0.928 . S
C1405 C1403 1.406 . S
C1405 N1406 1.261 . S
N1406 Co1357 2.214 . S
N1406 C1404 1.325 . S
N1406 C1405 1.261 . S
C1407 H1377 0.931 . S
C1407 C1404 1.357 . S
C1407 C1408 1.312 . S
C1408 H1379 0.930 . S
C1408 C1403 1.261 . S
C1408 C1407 1.312 . S
C1409 O1381 1.214 . S
C1409 O1389 1.234 . S
C1410 H1382 0.929 . S
C1410 C1413 1.391 . S
C1410 C1415 1.391 . S
C1411 H1383 0.929 . S
C1411 C1412 1.390 . S
C1411 N1414 1.391 . S
C1412 H1384 0.930 . S
C1412 C1411 1.390 . S
C1412 C1413 1.392 . S
C1413 H1385 0.929 . S
C1413 C1410 1.391 . S
C1413 C1412 1.392 . S
N1414 Co1358 2.257 . S
N1414 C1411 1.391 . S
N1414 C1415 1.388 . S
C1415 H1386 0.930 . S
C1415 C1410 1.391 . S
C1415 N1414 1.388 . S
C890 C3 1.445 . S
C711 C64 1.450 1_655 S
C770 C121 1.445 . S
C831 C180 1.450 1_455 S
C829 C62 1.448 . S
C123 C888 1.454 1_655 S
C713 C182 1.439 . S
C772 C5 1.444 1_655 S
C1067 C241 1.436 . S
C298 C1124 1.454 1_556 S
C359 C949 1.436 . S
C1006 C416 1.452 1_554 S
C1301 C475 1.453 . S
C536 C1362 1.436 1_554 S
C593 C1183 1.452 . S
C654 C1244 1.436 1_554 S
C1008 C652 1.447 . S
C1360 C300 1.451 . S
C357 C1185 1.452 1_565 S
C1242 C418 1.450 . S
C1303 C239 1.449 1_565 S
C534 C1126 1.451 . S
C947 C595 1.446 1_565 S
C1065 C477 1.453 1_545 S
C33 C269 1.088 . S
C347 C111 1.131 . S
C151 C387 1.093 . S
C210 C465 1.112 . S
C524 C92 1.117 . S
C564 C170 1.111 . S
C642 C229 1.125 . S
C52 C682 1.105 . S
C701 C288 1.119 . S
C328 C505 1.100 . S
C406 C583 1.119 . S
C623 C446 1.098 . S
C977 C760 1.105 . S
C1055 C819 1.128 . S
C859 C1095 1.093 . S
C918 C1173 1.114 . S
C800 C1232 1.114 . S
C878 C1272 1.111 . S
C1350 C937 1.128 . S
C741 C1390 1.088 . S
C996 C1409 1.119 . S
C1213 C1036 1.098 . S
C1114 C1291 1.119 . S
C1331 C1154 1.099 . S
