# Generated by pormake.
# Topology atn, (4)-cn, num edge types: 1
# Building blocks:
#     Node 0, Type 0, BuildingBlock: KUFVIS_clean_sbu_0, # of connection points: 4
#     Node 1, Type 0, BuildingBlock: KUFVIS_clean_sbu_0, # of connection points: 4
#     Node 2, Type 0, BuildingBlock: KUFVIS_clean_sbu_0, # of connection points: 4
#     Node 3, Type 0, BuildingBlock: KUFVIS_clean_sbu_0, # of connection points: 4
#     Node 4, Type 0, BuildingBlock: KUFVIS_clean_sbu_0, # of connection points: 4
#     Node 5, Type 0, BuildingBlock: KUFVIS_clean_sbu_0, # of connection points: 4
#     Node 6, Type 0, BuildingBlock: KUFVIS_clean_sbu_0, # of connection points: 4
#     Node 7, Type 0, BuildingBlock: KUFVIS_clean_sbu_0, # of connection points: 4
#     Node 8, Type 0, BuildingBlock: KUFVIS_clean_sbu_0, # of connection points: 4
#     Node 9, Type 0, BuildingBlock: KUFVIS_clean_sbu_0, # of connection points: 4
#     Node 10, Type 0, BuildingBlock: KUFVIS_clean_sbu_0, # of connection points: 4
#     Node 11, Type 0, BuildingBlock: KUFVIS_clean_sbu_0, # of connection points: 4
#     Node 12, Type 0, BuildingBlock: KUFVIS_clean_sbu_0, # of connection points: 4
#     Node 13, Type 0, BuildingBlock: KUFVIS_clean_sbu_0, # of connection points: 4
#     Node 14, Type 0, BuildingBlock: KUFVIS_clean_sbu_0, # of connection points: 4
#     Node 15, Type 0, BuildingBlock: KUFVIS_clean_sbu_0, # of connection points: 4
#     Edge 16, Type (0, 0), BuildingBlock: XIVTED_clean_linker_0, # of connection points: 2
#     Edge 17, Type (0, 0), BuildingBlock: XIVTED_clean_linker_0, # of connection points: 2
#     Edge 18, Type (0, 0), BuildingBlock: XIVTED_clean_linker_0, # of connection points: 2
#     Edge 19, Type (0, 0), BuildingBlock: XIVTED_clean_linker_0, # of connection points: 2
#     Edge 20, Type (0, 0), BuildingBlock: XIVTED_clean_linker_0, # of connection points: 2
#     Edge 21, Type (0, 0), BuildingBlock: XIVTED_clean_linker_0, # of connection points: 2
#     Edge 22, Type (0, 0), BuildingBlock: XIVTED_clean_linker_0, # of connection points: 2
#     Edge 23, Type (0, 0), BuildingBlock: XIVTED_clean_linker_0, # of connection points: 2
#     Edge 24, Type (0, 0), BuildingBlock: XIVTED_clean_linker_0, # of connection points: 2
#     Edge 25, Type (0, 0), BuildingBlock: XIVTED_clean_linker_0, # of connection points: 2
#     Edge 26, Type (0, 0), BuildingBlock: XIVTED_clean_linker_0, # of connection points: 2
#     Edge 27, Type (0, 0), BuildingBlock: XIVTED_clean_linker_0, # of connection points: 2
#     Edge 28, Type (0, 0), BuildingBlock: XIVTED_clean_linker_0, # of connection points: 2
#     Edge 29, Type (0, 0), BuildingBlock: XIVTED_clean_linker_0, # of connection points: 2
#     Edge 30, Type (0, 0), BuildingBlock: XIVTED_clean_linker_0, # of connection points: 2
#     Edge 31, Type (0, 0), BuildingBlock: XIVTED_clean_linker_0, # of connection points: 2
#     Edge 32, Type (0, 0), BuildingBlock: XIVTED_clean_linker_0, # of connection points: 2
#     Edge 33, Type (0, 0), BuildingBlock: XIVTED_clean_linker_0, # of connection points: 2
#     Edge 34, Type (0, 0), BuildingBlock: XIVTED_clean_linker_0, # of connection points: 2
#     Edge 35, Type (0, 0), BuildingBlock: XIVTED_clean_linker_0, # of connection points: 2
#     Edge 36, Type (0, 0), BuildingBlock: XIVTED_clean_linker_0, # of connection points: 2
#     Edge 37, Type (0, 0), BuildingBlock: XIVTED_clean_linker_0, # of connection points: 2
#     Edge 38, Type (0, 0), BuildingBlock: XIVTED_clean_linker_0, # of connection points: 2
#     Edge 39, Type (0, 0), BuildingBlock: XIVTED_clean_linker_0, # of connection points: 2
#     Edge 40, Type (0, 0), BuildingBlock: XIVTED_clean_linker_0, # of connection points: 2
#     Edge 41, Type (0, 0), BuildingBlock: XIVTED_clean_linker_0, # of connection points: 2
#     Edge 42, Type (0, 0), BuildingBlock: XIVTED_clean_linker_0, # of connection points: 2
#     Edge 43, Type (0, 0), BuildingBlock: XIVTED_clean_linker_0, # of connection points: 2
#     Edge 44, Type (0, 0), BuildingBlock: XIVTED_clean_linker_0, # of connection points: 2
#     Edge 45, Type (0, 0), BuildingBlock: XIVTED_clean_linker_0, # of connection points: 2
#     Edge 46, Type (0, 0), BuildingBlock: XIVTED_clean_linker_0, # of connection points: 2
#     Edge 47, Type (0, 0), BuildingBlock: XIVTED_clean_linker_0, # of connection points: 2
# Relax obj value: 0.056
# Max RMSD: 0.082
# Mean RMSD: 0.082
data_MOF--net-atn--node1-KUFVIS_clean_sbu_0--edge1-XIVTED_clean_linker_0
_symmetry_space_group_name_H-M    P1
_symmetry_Int_Tables_number       1
_symmetry_cell_setting            triclinic
loop_
_symmetry_equiv_pos_as_xyz
'x, y, z'
_cell_length_a     61.194126
_cell_length_b     61.184256
_cell_length_c     26.763367
_cell_angle_alpha  89.996432
_cell_angle_beta   90.017505
_cell_angle_gamma 90.046149
loop_
_atom_site_label
_atom_site_type_symbol
_atom_site_fract_x
_atom_site_fract_y
_atom_site_fract_z
_atom_type_partial_charge
Mn0 Mn 0.20185 0.37539 0.00911 0.0
Mn1 Mn 0.14774 0.38484 0.01953 0.0
C2 C 0.18513 0.37429 0.08666 0.0
C3 C 0.23027 0.35047 -0.00274 0.0
C4 C 0.18128 0.42078 0.00211 0.0
O5 O 0.19077 0.37132 0.93767 0.0
O6 O 0.15452 0.3752 0.95057 0.0
C7 C 0.13074 0.33991 0.00598 0.0
N8 N 0.13238 0.3584 0.03406 0.0
C9 C 0.10911 0.34328 0.09776 0.0
C10 C 0.10706 0.32411 0.0694 0.0
C11 C 0.11796 0.32242 0.02336 0.0
C12 C 0.12195 0.36022 0.07839 0.0
H13 H 0.13913 0.33854 0.97063 0.0
C14 C 0.17095 0.37096 0.92252 0.0
O15 O 0.23307 0.37118 0.98846 0.0
O16 O 0.21098 0.34438 0.01148 0.0
N17 N 0.13912 0.39404 0.08486 0.0
C18 C 0.14406 0.41299 0.10912 0.0
C19 C 0.13503 0.41699 0.15641 0.0
C20 C 0.12098 0.40154 0.17811 0.0
C21 C 0.11616 0.38212 0.15251 0.0
C22 C 0.12549 0.37913 0.10526 0.0
H23 H 0.15482 0.42496 0.09258 0.0
O24 O 0.20604 0.3775 0.08323 0.0
O25 O 0.17475 0.37194 0.04473 0.0
O26 O 0.19841 0.40887 0.00385 0.0
O27 O 0.16196 0.41306 0.00585 0.0
C28 C 0.10277 0.36548 0.17224 0.0
C29 C 0.09929 0.34606 0.14495 0.0
H30 H 0.09733 0.31053 0.08281 0.0
H31 H 0.11655 0.30764 0.00137 0.0
H32 H 0.13887 0.43196 0.17609 0.0
H33 H 0.11405 0.40482 0.21443 0.0
H34 H 0.0953 0.36727 0.20864 0.0
H35 H 0.08925 0.33324 0.16091 0.0
Mn36 Mn 0.62692 0.20439 0.00757 0.0
Mn37 Mn 0.61709 0.15027 0.01751 0.0
C38 C 0.6284 0.18738 0.08482 0.0
C39 C 0.65223 0.23258 -0.0046 0.0
C40 C 0.58124 0.18411 0.00277 0.0
O41 O 0.63029 0.1936 0.93569 0.0
O42 O 0.62584 0.15737 0.94815 0.0
C43 C 0.66179 0.13331 0.00074 0.0
N44 N 0.64361 0.13474 0.02989 0.0
C45 C 0.65928 0.11085 0.09166 0.0
C46 C 0.67813 0.10901 0.06217 0.0
C47 C 0.6794 0.12034 0.01658 0.0
C48 C 0.64222 0.12394 0.07384 0.0
H49 H 0.66283 0.14202 0.96573 0.0
C50 C 0.62999 0.17384 0.92016 0.0
O51 O 0.6315 0.23572 0.98747 0.0
O52 O 0.65807 0.21313 0.00891 0.0
N53 N 0.6086 0.14121 0.08302 0.0
C54 C 0.58988 0.14587 0.10841 0.0
C55 C 0.58625 0.13628 0.15529 0.0
C56 C 0.60183 0.12194 0.17538 0.0
C57 C 0.62101 0.11743 0.14869 0.0
C58 C 0.62362 0.12728 0.10188 0.0
H59 H 0.5778 0.15682 0.09304 0.0
O60 O 0.62542 0.20833 0.08183 0.0
O61 O 0.63038 0.17711 0.04267 0.0
O62 O 0.59329 0.20121 0.00357 0.0
O63 O 0.58889 0.16476 0.00615 0.0
C64 C 0.63777 0.10379 0.1669 0.0
C65 C 0.65691 0.10056 0.13848 0.0
H66 H 0.69179 0.09911 0.07437 0.0
H67 H 0.69393 0.11908 0.99374 0.0
H68 H 0.57145 0.13988 0.17583 0.0
H69 H 0.59883 0.1145 0.21129 0.0
H70 H 0.63626 0.09597 0.20302 0.0
H71 H 0.66983 0.09033 0.15325 0.0
Mn72 Mn 0.79772 0.62811 0.00807 0.0
Mn73 Mn 0.85188 0.61901 0.01658 0.0
C74 C 0.81485 0.62893 0.08515 0.0
C75 C 0.7696 0.65345 -0.00294 0.0
C76 C 0.81819 0.58309 -0.00228 0.0
O77 O 0.80847 0.632 0.93629 0.0
O78 O 0.84493 0.63041 0.94906 0.0
C79 C 0.86821 0.66447 0.00899 0.0
N80 N 0.86721 0.64514 0.03412 0.0
C81 C 0.89084 0.65883 0.09887 0.0
C82 C 0.89246 0.67872 0.07315 0.0
C83 C 0.88101 0.68159 0.02814 0.0
C84 C 0.87799 0.64228 0.07773 0.0
H85 H 0.85914 0.66687 0.97488 0.0
C86 C 0.82823 0.63403 0.92139 0.0
O87 O 0.7664 0.63279 0.98826 0.0
O88 O 0.78905 0.65919 0.01078 0.0
N89 N 0.86068 0.60841 0.08083 0.0
C90 C 0.85573 0.58904 0.10329 0.0
C91 C 0.86494 0.58407 0.14998 0.0
C92 C 0.87919 0.599 0.17297 0.0
C93 C 0.884 0.61886 0.14925 0.0
C94 C 0.87451 0.62282 0.10251 0.0
H95 H 0.84483 0.57747 0.08577 0.0
O96 O 0.79389 0.62598 0.08241 0.0
O97 O 0.82492 0.63128 0.04295 0.0
O98 O 0.80102 0.59476 0.00252 0.0
O99 O 0.83755 0.59096 -0.00025 0.0
C100 C 0.8975 0.63504 0.17054 0.0
C101 C 0.90088 0.65502 0.14543 0.0
H102 H 0.90214 0.69204 0.08806 0.0
H103 H 0.88193 0.69701 0.00843 0.0
H104 H 0.86109 0.56875 0.16818 0.0
H105 H 0.88629 0.59508 0.20889 0.0
H106 H 0.90508 0.63247 0.20659 0.0
H107 H 0.91092 0.6675 0.16271 0.0
Mn108 Mn 0.37538 0.79988 0.00732 0.0
Mn109 Mn 0.38476 0.85415 0.01316 0.0
C110 C 0.37334 0.81808 0.08306 0.0
C111 C 0.35038 0.77135 -0.0031 0.0
C112 C 0.42088 0.82038 0.0012 0.0
O113 O 0.3721 0.80959 0.93464 0.0
O114 O 0.37605 0.84606 0.94429 0.0
C115 C 0.33997 0.87063 0.99508 0.0
N116 N 0.35812 0.86965 0.02443 0.0
C117 C 0.34213 0.89395 0.0849 0.0
C118 C 0.3233 0.89532 0.05518 0.0
C119 C 0.32221 0.88356 0.01014 0.0
C120 C 0.35934 0.88087 0.06786 0.0
H121 H 0.33906 0.86157 0.9605 0.0
C122 C 0.37209 0.82912 0.91761 0.0
O123 O 0.37116 0.76826 0.9896 0.0
O124 O 0.34433 0.79093 0.00881 0.0
N125 N 0.39311 0.86401 0.07821 0.0
C126 C 0.41179 0.85969 0.10407 0.0
C127 C 0.41526 0.86975 0.1505 0.0
C128 C 0.39953 0.88417 0.16971 0.0
C129 C 0.38034 0.88823 0.14263 0.0
C130 C 0.37792 0.87794 0.09627 0.0
H131 H 0.42398 0.84869 0.08939 0.0
O132 O 0.37662 0.79714 0.08195 0.0
O133 O 0.37158 0.82761 0.03998 0.0
O134 O 0.40893 0.80326 0.00358 0.0
O135 O 0.41312 0.83974 0.00283 0.0
C136 C 0.36342 0.90187 0.16002 0.0
C137 C 0.3443 0.90466 0.13126 0.0
H138 H 0.30951 0.90517 0.0668 0.0
H139 H 0.30769 0.88444 0.98713 0.0
H140 H 0.43005 0.86647 0.17136 0.0
H141 H 0.40245 0.89201 0.20524 0.0
H142 H 0.36479 0.91005 0.19575 0.0
H143 H 0.33125 0.91488 0.14543 0.0
Mn144 Mn 0.20654 0.62973 0.98532 0.0
Mn145 Mn 0.15217 0.62189 0.97655 0.0
C146 C 0.18948 0.63133 0.90824 0.0
C147 C 0.23522 0.65442 -0.0028 0.0
C148 C 0.18498 0.58513 0.99415 0.0
O149 O 0.19586 0.63336 0.05716 0.0
O150 O 0.15937 0.63277 0.04442 0.0
C151 C 0.13677 0.6676 0.98539 0.0
N152 N 0.13742 0.64841 0.95968 0.0
C153 C 0.1141 0.66287 0.89525 0.0
C154 C 0.11287 0.68266 0.9215 0.0
C155 C 0.12434 0.68506 0.96665 0.0
C156 C 0.1266 0.64598 0.91598 0.0
H157 H 0.14581 0.66962 0.01968 0.0
C158 C 0.17617 0.63575 0.0722 0.0
O159 O 0.23795 0.63364 0.00534 0.0
O160 O 0.2159 0.66064 0.98363 0.0
N161 N 0.14314 0.61178 0.91207 0.0
C162 C 0.14765 0.59241 0.88917 0.0
C163 C 0.13832 0.58783 0.84241 0.0
C164 C 0.12441 0.60315 0.81978 0.0
C165 C 0.12006 0.623 0.84393 0.0
C166 C 0.12963 0.62657 0.89074 0.0
H167 H 0.15829 0.58054 0.90639 0.0
O168 O 0.21037 0.62796 0.91097 0.0
O169 O 0.17942 0.6337 0.95047 0.0
O170 O 0.20244 0.59643 0.98975 0.0
O171 O 0.16584 0.59348 0.99258 0.0
C172 C 0.10692 0.63955 0.823 0.0
C173 C 0.10398 0.65948 0.84859 0.0
H174 H 0.10347 0.69624 0.90694 0.0
H175 H 0.1237 0.70038 0.98681 0.0
H176 H 0.14182 0.57251 0.82386 0.0
H177 H 0.11723 0.59951 0.78381 0.0
H178 H 0.09931 0.63729 0.78685 0.0
H179 H 0.09422 0.67224 0.83162 0.0
Mn180 Mn 0.37186 0.20669 0.9837 0.0
Mn181 Mn 0.38107 0.15253 0.97533 0.0
C182 C 0.37124 0.18959 0.90659 0.0
C183 C 0.34644 0.23474 0.99473 0.0
C184 C 0.41691 0.1863 0.99421 0.0
O185 O 0.368 0.19594 0.05548 0.0
O186 O 0.3696 0.15949 0.04276 0.0
C187 C 0.33567 0.13607 0.98276 0.0
N188 N 0.35502 0.1371 0.95776 0.0
C189 C 0.34162 0.11306 0.89353 0.0
C190 C 0.3217 0.11139 0.91913 0.0
C191 C 0.31867 0.12306 0.96379 0.0
C192 C 0.35802 0.12615 0.91444 0.0
H193 H 0.33316 0.14528 0.01664 0.0
C194 C 0.366 0.17619 0.07042 0.0
O195 O 0.36709 0.23799 0.00354 0.0
O196 O 0.34075 0.21529 0.98091 0.0
N197 N 0.39178 0.14366 0.91125 0.0
C198 C 0.41115 0.14864 0.88884 0.0
C199 C 0.41624 0.13926 0.84241 0.0
C200 C 0.40146 0.12478 0.81965 0.0
C201 C 0.38161 0.11994 0.84335 0.0
C202 C 0.37749 0.12964 0.88977 0.0
H203 H 0.42262 0.15968 0.90621 0.0
O204 O 0.37406 0.21057 0.90943 0.0
O205 O 0.36879 0.17946 0.94872 0.0
O206 O 0.40523 0.20347 0.98933 0.0
O207 O 0.40904 0.16694 0.99222 0.0
C208 C 0.36561 0.10614 0.82236 0.0
C209 C 0.34562 0.10273 0.8474 0.0
H210 H 0.30849 0.10151 0.9044 0.0
H211 H 0.30324 0.1221 0.98341 0.0
H212 H 0.43156 0.14314 0.82422 0.0
H213 H 0.40548 0.11755 0.78394 0.0
H214 H 0.36831 0.09836 0.7866 0.0
H215 H 0.33327 0.09245 0.83037 0.0
Mn216 Mn 0.79721 0.3734 0.98182 0.0
Mn217 Mn 0.85164 0.3819 0.97436 0.0
C218 C 0.81484 0.37143 0.90547 0.0
C219 C 0.76832 0.34879 0.99281 0.0
C220 C 0.81858 0.41864 0.98652 0.0
O221 O 0.8072 0.36984 0.05414 0.0
O222 O 0.84359 0.37375 0.0436 0.0
C223 C 0.86713 0.33684 0.99358 0.0
N224 N 0.86654 0.35487 0.96376 0.0
C225 C 0.89058 0.33808 0.90387 0.0
C226 C 0.89155 0.31938 0.93409 0.0
C227 C 0.87973 0.31875 0.97908 0.0
C228 C 0.87783 0.35565 0.92038 0.0
H229 H 0.85802 0.33628 0.02813 0.0
C230 C 0.82678 0.36989 0.07074 0.0
O231 O 0.76561 0.3696 0.00048 0.0
O232 O 0.78772 0.34247 0.98021 0.0
N233 N 0.86168 0.38971 0.9091 0.0
C234 C 0.85789 0.40841 0.88285 0.0
C235 C 0.86814 0.41146 0.83648 0.0
C236 C 0.88222 0.39533 0.81775 0.0
C237 C 0.8858 0.37617 0.84528 0.0
C238 C 0.87535 0.37416 0.89156 0.0
H239 H 0.84714 0.42091 0.89717 0.0
O240 O 0.79396 0.37494 0.90748 0.0
O241 O 0.82472 0.3692 0.94807 0.0
O242 O 0.80123 0.40695 0.98578 0.0
O243 O 0.83778 0.41056 0.98387 0.0
C244 C 0.89908 0.35889 0.82837 0.0
C245 C 0.90141 0.33983 0.85756 0.0
H246 H 0.90116 0.30535 0.92291 0.0
H247 H 0.88031 0.30433 0.00248 0.0
H248 H 0.86525 0.42624 0.81527 0.0
H249 H 0.89021 0.39786 0.78226 0.0
H250 H 0.90731 0.35994 0.79263 0.0
H251 H 0.91138 0.32651 0.84379 0.0
Mn252 Mn 0.62981 0.7988 0.98511 0.0
Mn253 Mn 0.62236 0.85325 0.97748 0.0
C254 C 0.63178 0.81619 0.90848 0.0
C255 C 0.65416 0.76986 -0.00342 0.0
C256 C 0.58533 0.82056 0.99385 0.0
O257 O 0.63345 0.80913 0.05719 0.0
O258 O 0.6329 0.84569 0.04546 0.0
C259 C 0.66809 0.86846 0.98795 0.0
N260 N 0.64906 0.86794 0.96162 0.0
C261 C 0.66404 0.89133 0.89794 0.0
C262 C 0.68368 0.89241 0.92482 0.0
C263 C 0.68574 0.88084 0.96991 0.0
C264 C 0.64694 0.87889 0.91801 0.0
H265 H 0.66986 0.85934 0.02222 0.0
C266 C 0.63584 0.82874 0.07281 0.0
O267 O 0.63334 0.76728 0.00443 0.0
O268 O 0.66062 0.78917 0.9835 0.0
N269 N 0.61263 0.86258 0.91291 0.0
C270 C 0.59337 0.85822 0.88936 0.0
C271 C 0.58914 0.86765 0.84253 0.0
C272 C 0.60469 0.88151 0.82051 0.0
C273 C 0.62443 0.88571 0.84533 0.0
C274 C 0.62765 0.87603 0.89217 0.0
H275 H 0.58133 0.8476 0.9061 0.0
O276 O 0.62814 0.79532 0.91069 0.0
O277 O 0.63412 0.82606 0.95097 0.0
O278 O 0.59655 0.80308 0.98937 0.0
O279 O 0.59378 0.83968 0.99255 0.0
C280 C 0.64119 0.89878 0.82505 0.0
C281 C 0.66099 0.90156 0.85129 0.0
H282 H 0.6974 0.90177 0.91078 0.0
H283 H 0.70093 0.88137 0.99057 0.0
H284 H 0.57391 0.86426 0.82346 0.0
H285 H 0.60133 0.88877 0.78447 0.0
H286 H 0.6392 0.90648 0.78893 0.0
H287 H 0.67392 0.91129 0.83482 0.0
Mn288 Mn 0.708 0.87327 0.50949 0.0
Mn289 Mn 0.65359 0.8807 0.51796 0.0
C290 C 0.69095 0.87179 0.58659 0.0
C291 C 0.73672 0.8486 0.4979 0.0
C292 C 0.68619 0.91763 0.49928 0.0
O293 O 0.69732 0.86938 0.43766 0.0
O294 O 0.66083 0.86949 0.45042 0.0
C295 C 0.63838 0.83486 0.51045 0.0
N296 N 0.63898 0.85418 0.53565 0.0
C297 C 0.61577 0.83994 0.60052 0.0
C298 C 0.6146 0.82 0.57482 0.0
C299 C 0.62604 0.81743 0.52971 0.0
C300 C 0.62818 0.85679 0.57929 0.0
H301 H 0.64738 0.83272 0.47616 0.0
C302 C 0.67766 0.86667 0.42267 0.0
O303 O 0.73945 0.86937 0.48952 0.0
O304 O 0.71742 0.8424 0.51164 0.0
N305 N 0.64456 0.89112 0.58216 0.0
C306 C 0.649 0.91064 0.6045 0.0
C307 C 0.63971 0.9154 0.65119 0.0
C308 C 0.6259 0.90011 0.67433 0.0
C309 C 0.6216 0.88011 0.65072 0.0
C310 C 0.63114 0.87636 0.60396 0.0
H311 H 0.65956 0.92248 0.58688 0.0
O312 O 0.71182 0.87527 0.58385 0.0
O313 O 0.68092 0.86926 0.54436 0.0
O314 O 0.70375 0.90656 0.50447 0.0
O315 O 0.66711 0.90909 0.50096 0.0
C316 C 0.60856 0.8636 0.67216 0.0
C317 C 0.60567 0.84352 0.64712 0.0
H318 H 0.60527 0.80645 0.5898 0.0
H319 H 0.62544 0.80201 0.50996 0.0
H320 H 0.64317 0.93083 0.66931 0.0
H321 H 0.61876 0.90388 0.71026 0.0
H322 H 0.60098 0.866 0.70828 0.0
H323 H 0.59598 0.83079 0.66448 0.0
Mn324 Mn 0.12924 0.70465 0.50933 0.0
Mn325 Mn 0.1215 0.65023 0.51741 0.0
C326 C 0.13109 0.68737 0.58612 0.0
C327 C 0.15404 0.73332 0.49764 0.0
C328 C 0.08458 0.683 0.50111 0.0
O329 O 0.13273 0.69421 0.43731 0.0
O330 O 0.13201 0.65768 0.44937 0.0
C331 C 0.1672 0.635 0.50701 0.0
N332 N 0.14816 0.63552 0.53329 0.0
C333 C 0.16309 0.61214 0.59703 0.0
C334 C 0.18273 0.61105 0.57017 0.0
C335 C 0.18482 0.62261 0.52508 0.0
C336 C 0.14603 0.62459 0.57693 0.0
H337 H 0.16899 0.64413 0.47276 0.0
C338 C 0.135 0.67457 0.42185 0.0
O339 O 0.13325 0.73617 0.48987 0.0
O340 O 0.16018 0.71393 0.5108 0.0
N341 N 0.11178 0.64097 0.58203 0.0
C342 C 0.09254 0.64537 0.60558 0.0
C343 C 0.08828 0.63593 0.65238 0.0
C344 C 0.10379 0.62204 0.6744 0.0
C345 C 0.12351 0.61782 0.6496 0.0
C346 C 0.12675 0.62749 0.60277 0.0
H347 H 0.08053 0.656 0.58885 0.0
O348 O 0.12765 0.70826 0.58373 0.0
O349 O 0.13334 0.67743 0.54371 0.0
O350 O 0.09589 0.70049 0.50521 0.0
O351 O 0.09298 0.66386 0.50244 0.0
C352 C 0.14024 0.60472 0.6699 0.0
C353 C 0.16003 0.60192 0.64368 0.0
H354 H 0.19643 0.60168 0.58423 0.0
H355 H 0.20002 0.62208 0.50446 0.0
H356 H 0.07306 0.63934 0.67144 0.0
H357 H 0.10039 0.61478 0.7104 0.0
H358 H 0.13823 0.59701 0.70601 0.0
H359 H 0.17293 0.59218 0.66016 0.0
Mn360 Mn 0.29839 0.1293 0.50801 0.0
Mn361 Mn 0.35271 0.12091 0.51643 0.0
C362 C 0.31556 0.1306 0.58494 0.0
C363 C 0.26976 0.15406 0.49682 0.0
C364 C 0.31949 0.08441 0.49955 0.0
O365 O 0.30893 0.13312 0.43616 0.0
O366 O 0.3454 0.13151 0.44838 0.0
C367 C 0.36836 0.16651 0.50599 0.0
N368 N 0.3677 0.14745 0.53223 0.0
C369 C 0.39142 0.16211 0.59566 0.0
C370 C 0.39269 0.18175 0.56881 0.0
C371 C 0.38101 0.18398 0.52391 0.0
C372 C 0.3787 0.14519 0.57574 0.0
H373 H 0.35914 0.16842 0.47191 0.0
C374 C 0.32863 0.13502 0.42085 0.0
O375 O 0.26698 0.13331 0.48834 0.0
O376 O 0.28912 0.16024 0.51026 0.0
N377 N 0.36192 0.11111 0.58103 0.0
C378 C 0.35739 0.09188 0.6046 0.0
C379 C 0.36693 0.0875 0.65125 0.0
C380 C 0.38108 0.10286 0.67306 0.0
C381 C 0.38544 0.12255 0.64823 0.0
C382 C 0.37564 0.12593 0.60159 0.0
H383 H 0.34657 0.07999 0.58798 0.0
O384 O 0.29465 0.12732 0.58226 0.0
O385 O 0.32563 0.13305 0.54272 0.0
O386 O 0.3022 0.09599 0.50311 0.0
O387 O 0.33876 0.09249 0.50152 0.0
C388 C 0.39883 0.13912 0.66831 0.0
C389 C 0.40178 0.1589 0.64209 0.0
H390 H 0.40227 0.19534 0.58273 0.0
H391 H 0.38167 0.19919 0.5033 0.0
H392 H 0.36342 0.0723 0.67032 0.0
H393 H 0.38846 0.09938 0.70892 0.0
H394 H 0.40664 0.137 0.70426 0.0
H395 H 0.41175 0.17167 0.65841 0.0
Mn396 Mn 0.8721 0.2969 0.50581 0.0
Mn397 Mn 0.88378 0.35059 0.51653 0.0
C398 C 0.87205 0.31352 0.58347 0.0
C399 C 0.84607 0.26943 0.49452 0.0
C400 C 0.91812 0.31573 0.49684 0.0
O401 O 0.86811 0.3083 0.43455 0.0
O402 O 0.8735 0.34437 0.44783 0.0
C403 C 0.83956 0.36945 0.50453 0.0
N404 N 0.8581 0.36696 0.5321 0.0
C405 C 0.84437 0.39072 0.59644 0.0
C406 C 0.82517 0.39364 0.56863 0.0
C407 C 0.82274 0.38292 0.52253 0.0
C408 C 0.86062 0.37721 0.57646 0.0
H409 H 0.83763 0.36121 0.46911 0.0
C410 C 0.86855 0.32817 0.41967 0.0
O411 O 0.8666 0.26591 0.48504 0.0
O412 O 0.84077 0.28891 0.50899 0.0
N413 N 0.89371 0.35864 0.58173 0.0
C414 C 0.91252 0.3528 0.60546 0.0
C415 C 0.91711 0.36145 0.65287 0.0
C416 C 0.90239 0.37608 0.6752 0.0
C417 C 0.88312 0.38184 0.65009 0.0
C418 C 0.8795 0.37282 0.60275 0.0
H419 H 0.9239 0.34158 0.58841 0.0
O420 O 0.87444 0.29251 0.57984 0.0
O421 O 0.86994 0.32404 0.54169 0.0
O422 O 0.90564 0.29903 0.4995 0.0
O423 O 0.91126 0.33533 0.50141 0.0
C424 C 0.8672 0.39589 0.67042 0.0
C425 C 0.84783 0.4003 0.64366 0.0
H426 H 0.8121 0.40391 0.58253 0.0
H427 H 0.80793 0.38502 0.50096 0.0
H428 H 0.93197 0.35688 0.67215 0.0
H429 H 0.90608 0.3827 0.71168 0.0
H430 H 0.8695 0.40318 0.70687 0.0
H431 H 0.83556 0.41084 0.66007 0.0
Mn432 Mn 0.7022 0.12782 0.48429 0.0
Mn433 Mn 0.64823 0.11735 0.4749 0.0
C434 C 0.68511 0.12895 0.40719 0.0
C435 C 0.7303 0.15315 0.49589 0.0
C436 C 0.68249 0.08194 0.49005 0.0
O437 O 0.69146 0.13141 0.55606 0.0
O438 O 0.65526 0.12655 0.54409 0.0
C439 C 0.63065 0.16187 0.49089 0.0
N440 N 0.63237 0.14364 0.462 0.0
C441 C 0.60851 0.15891 0.39962 0.0
C442 C 0.60638 0.17781 0.42885 0.0
C443 C 0.61753 0.17931 0.47463 0.0
C444 C 0.6217 0.14201 0.41791 0.0
H445 H 0.63924 0.16311 0.52603 0.0
C446 C 0.67174 0.1311 0.57178 0.0
O447 O 0.73344 0.13246 0.50421 0.0
O448 O 0.71085 0.159 0.48236 0.0
N449 N 0.63932 0.10853 0.40946 0.0
C450 C 0.64435 0.08985 0.38426 0.0
C451 C 0.63503 0.08606 0.33716 0.0
C452 C 0.6206 0.10145 0.3166 0.0
C453 C 0.61573 0.12061 0.3431 0.0
C454 C 0.62533 0.12338 0.39015 0.0
H455 H 0.65541 0.07794 0.39992 0.0
O456 O 0.70607 0.12608 0.4101 0.0
O457 O 0.67486 0.13095 0.44938 0.0
O458 O 0.69936 0.09426 0.48889 0.0
O459 O 0.66301 0.08928 0.4868 0.0
C460 C 0.60202 0.1372 0.32443 0.0
C461 C 0.59846 0.15636 0.35261 0.0
H462 H 0.59639 0.19135 0.41629 0.0
H463 H 0.61605 0.19389 0.49727 0.0
H464 H 0.63893 0.0713 0.31677 0.0
H465 H 0.61341 0.09832 0.28046 0.0
H466 H 0.59435 0.13557 0.28817 0.0
H467 H 0.58817 0.16915 0.33747 0.0
Mn468 Mn 0.87542 0.70198 0.48391 0.0
Mn469 Mn 0.8831 0.64754 0.47582 0.0
C470 C 0.87375 0.68467 0.4071 0.0
C471 C 0.85086 0.73081 0.49509 0.0
C472 C 0.92004 0.68031 0.4926 0.0
O473 O 0.87157 0.69154 0.55589 0.0
O474 O 0.87254 0.65502 0.54375 0.0
C475 C 0.83728 0.63255 0.48596 0.0
N476 N 0.85638 0.6329 0.45989 0.0
C477 C 0.84141 0.60947 0.39627 0.0
C478 C 0.82172 0.60851 0.42298 0.0
C479 C 0.81962 0.62019 0.46789 0.0
C480 C 0.85851 0.6219 0.41636 0.0
H481 H 0.83546 0.6418 0.52001 0.0
C482 C 0.86932 0.67187 0.57123 0.0
O483 O 0.87164 0.73349 0.50333 0.0
O484 O 0.84457 0.71147 0.4818 0.0
N485 N 0.89283 0.6382 0.41127 0.0
C486 C 0.91213 0.64247 0.38783 0.0
C487 C 0.91641 0.63289 0.34118 0.0
C488 C 0.90087 0.61899 0.31924 0.0
C489 C 0.88109 0.61491 0.34392 0.0
C490 C 0.87782 0.62471 0.3906 0.0
H491 H 0.92417 0.65309 0.40455 0.0
O492 O 0.8773 0.70555 0.4095 0.0
O493 O 0.87134 0.67475 0.44948 0.0
O494 O 0.90871 0.69776 0.48866 0.0
O495 O 0.91168 0.66114 0.49088 0.0
C496 C 0.86433 0.60181 0.32367 0.0
C497 C 0.84449 0.59913 0.34976 0.0
H498 H 0.80799 0.59916 0.40891 0.0
H499 H 0.80438 0.61979 0.48836 0.0
H500 H 0.93168 0.63618 0.32222 0.0
H501 H 0.90428 0.61158 0.28338 0.0
H502 H 0.86635 0.59401 0.28769 0.0
H503 H 0.83156 0.58941 0.3333 0.0
Mn504 Mn 0.29816 0.87483 0.48338 0.0
Mn505 Mn 0.3523 0.8838 0.47048 0.0
C506 C 0.31412 0.87411 0.40499 0.0
C507 C 0.26966 0.84991 0.49565 0.0
C508 C 0.31938 0.92 0.49054 0.0
O509 O 0.30985 0.87032 0.55424 0.0
O510 O 0.346 0.87401 0.53951 0.0
C511 C 0.36856 0.83852 0.48202 0.0
N512 N 0.36706 0.85719 0.45456 0.0
C513 C 0.38931 0.84194 0.38917 0.0
C514 C 0.39121 0.82258 0.41689 0.0
C515 C 0.38075 0.82086 0.46347 0.0
C516 C 0.37706 0.85903 0.40971 0.0
H517 H 0.36047 0.83712 0.51775 0.0
C518 C 0.32982 0.86988 0.56837 0.0
O519 O 0.26704 0.87057 0.50529 0.0
O520 O 0.28881 0.84388 0.48049 0.0
N521 N 0.36054 0.89322 0.40506 0.0
C522 C 0.35593 0.91247 0.38176 0.0
C523 C 0.36467 0.9166 0.33423 0.0
C524 C 0.3781 0.90095 0.31133 0.0
C525 C 0.38265 0.88126 0.33601 0.0
C526 C 0.37368 0.87816 0.38359 0.0
H527 H 0.34564 0.92458 0.39923 0.0
O528 O 0.29328 0.87739 0.40953 0.0
O529 O 0.32488 0.87141 0.44628 0.0
O530 O 0.30205 0.90829 0.48941 0.0
O531 O 0.33856 0.91209 0.48549 0.0
C532 C 0.39541 0.86444 0.31501 0.0
C533 C 0.39868 0.84477 0.3415 0.0
H534 H 0.40048 0.80887 0.40258 0.0
H535 H 0.38205 0.80593 0.48496 0.0
H536 H 0.36106 0.93179 0.31527 0.0
H537 H 0.38476 0.90427 0.27478 0.0
H538 H 0.4025 0.8663 0.27821 0.0
H539 H 0.40822 0.83183 0.32462 0.0
Mn540 Mn 0.12797 0.29754 0.48584 0.0
Mn541 Mn 0.11705 0.35148 0.47704 0.0
C542 C 0.12951 0.31497 0.40914 0.0
C543 C 0.15354 0.26972 0.49786 0.0
C544 C 0.08183 0.31675 0.48893 0.0
O545 O 0.13078 0.30796 0.55806 0.0
O546 O 0.1252 0.34408 0.54666 0.0
C547 C 0.16124 0.36919 0.49699 0.0
N548 N 0.14339 0.36763 0.46678 0.0
C549 C 0.15928 0.39227 0.40681 0.0
C550 C 0.17778 0.39425 0.43742 0.0
C551 C 0.17878 0.38261 0.48264 0.0
C552 C 0.14227 0.37873 0.42317 0.0
H553 H 0.16208 0.36024 0.53171 0.0
C554 C 0.12971 0.32758 0.57424 0.0
O555 O 0.13282 0.26624 0.50515 0.0
O556 O 0.15924 0.28932 0.48515 0.0
N557 N 0.10908 0.36088 0.41142 0.0
C558 C 0.09072 0.35604 0.38477 0.0
C559 C 0.08738 0.36598 0.33817 0.0
C560 C 0.10287 0.38082 0.3196 0.0
C561 C 0.12171 0.38544 0.34748 0.0
C562 C 0.12402 0.37525 0.39399 0.0
H563 H 0.07874 0.34467 0.39891 0.0
O564 O 0.12689 0.29396 0.41153 0.0
O565 O 0.13113 0.3251 0.45158 0.0
O566 O 0.09432 0.3 0.48892 0.0
O567 O 0.08901 0.33631 0.48612 0.0
C568 C 0.13841 0.3995 0.3307 0.0
C569 C 0.15722 0.40286 0.36026 0.0
H570 H 0.19139 0.40449 0.42637 0.0
H571 H 0.19304 0.38397 0.50634 0.0
H572 H 0.07286 0.36226 0.31666 0.0
H573 H 0.10008 0.38855 0.28395 0.0
H574 H 0.13713 0.40756 0.29479 0.0
H575 H 0.17011 0.41343 0.3466 0.0
H576 H 0.22159 0.55837 0.99061 0.0
H577 H 0.14827 0.45014 0.99045 0.0
H578 H 0.15136 0.5564 0.00668 0.0
H579 H 0.21853 0.44684 0.00469 0.0
H580 H 0.15041 0.48953 0.98965 0.0
H581 H 0.22207 0.51812 0.99142 0.0
C582 C 0.20633 0.54958 0.99468 0.0
C583 C 0.18639 0.56092 -0.00161 0.0
C584 C 0.16544 0.48032 0.99298 0.0
C585 C 0.18686 0.51502 -0.00125 0.0
C586 C 0.16426 0.45765 0.99327 0.0
C587 C 0.18326 0.44495 -0.00205 0.0
C588 C 0.18578 0.49073 -0.00269 0.0
C589 C 0.20345 0.45592 0.00107 0.0
C590 C 0.20664 0.52662 0.99501 0.0
C591 C 0.16716 0.54858 0.00346 0.0
N592 N 0.20419 0.47824 0.00082 0.0
N593 N 0.16791 0.52645 0.00324 0.0
H594 H 0.44326 0.22307 0.98466 0.0
H595 H 0.55173 0.15088 -0.00047 0.0
H596 H 0.44581 0.15386 0.01602 0.0
H597 H 0.55512 0.22144 0.0003 0.0
H598 H 0.51245 0.15291 -0.00025 0.0
H599 H 0.48352 0.22412 0.98687 0.0
C600 C 0.45218 0.20818 0.99245 0.0
C601 C 0.44102 0.1883 -0.00022 0.0
C602 C 0.52163 0.16805 -5e-05 0.0
C603 C 0.4869 0.18941 0.00182 0.0
C604 C 0.54427 0.16693 -0.0004 0.0
C605 C 0.55701 0.18604 7e-05 0.0
C606 C 0.5112 0.18844 0.00058 0.0
C607 C 0.54602 0.20626 -3e-05 0.0
C608 C 0.47514 0.20881 0.99356 0.0
C609 C 0.45351 0.16955 0.00964 0.0
N610 N 0.52369 0.20696 0.00024 0.0
N611 N 0.47561 0.17059 0.01007 0.0
H612 H 0.85225 0.44768 0.98301 0.0
H613 H 0.78132 0.55691 0.00646 0.0
H614 H 0.78183 0.44534 0.99366 0.0
H615 H 0.85058 0.55405 0.97616 0.0
H616 H 0.77997 0.5167 0.00297 0.0
H617 H 0.8508 0.48701 0.98313 0.0
C618 C 0.83636 0.45539 0.98556 0.0
C619 C 0.8171 0.44293 0.9884 0.0
C620 C 0.79538 0.52499 -0.00317 0.0
C621 C 0.81537 0.48878 0.98834 0.0
C622 C 0.79617 0.54792 -0.00133 0.0
C623 C 0.81613 0.55899 0.9919 0.0
C624 C 0.81468 0.51312 0.98828 0.0
C625 C 0.83483 0.54642 0.98204 0.0
C626 C 0.83557 0.47805 0.98543 0.0
C627 C 0.7971 0.45421 0.99146 0.0
N628 N 0.83362 0.52432 0.98077 0.0
N629 N 0.79674 0.47655 0.99144 0.0
H630 H 0.55678 0.85417 0.00791 0.0
H631 H 0.44685 0.78307 0.00252 0.0
H632 H 0.55842 0.78404 0.98959 0.0
H633 H 0.45046 0.85351 0.99432 0.0
H634 H 0.48713 0.78176 0.00243 0.0
H635 H 0.51732 0.85286 0.00969 0.0
C636 C 0.54888 0.8384 0.00443 0.0
C637 C 0.56113 0.81919 -0.00166 0.0
C638 C 0.47896 0.79742 0.0005 0.0
C639 C 0.51531 0.8176 5e-05 0.0
C640 C 0.456 0.7982 0.00045 0.0
C641 C 0.4451 0.81843 -0.00147 0.0
C642 C 0.491 0.81701 -0.00108 0.0
C643 C 0.45789 0.83749 -0.00399 0.0
C644 C 0.52619 0.83767 0.00529 0.0
C645 C 0.5497 0.79928 0.9943 0.0
N646 N 0.47998 0.83627 -0.00355 0.0
N647 N 0.52738 0.79898 0.99508 0.0
H648 H 0.72043 0.05701 0.49506 0.0
H649 H 0.65287 0.94521 0.4756 0.0
H650 H 0.65006 0.05143 0.49053 0.0
H651 H 0.72184 0.94537 0.51003 0.0
H652 H 0.65331 0.98469 0.47295 0.0
H653 H 0.72288 0.01679 0.49497 0.0
C654 C 0.70554 0.04744 0.49429 0.0
C655 C 0.685 0.05777 0.49276 0.0
C656 C 0.66843 0.97621 0.48109 0.0
C657 C 0.68774 0.01193 0.49207 0.0
C658 C 0.66821 0.95352 0.48247 0.0
C659 C 0.68732 0.94178 0.49347 0.0
C660 C 0.68789 0.98761 0.49079 0.0
C661 C 0.7067 0.95371 0.50149 0.0
C662 C 0.70697 0.02451 0.49415 0.0
C663 C 0.66629 0.04445 0.49169 0.0
N664 N 0.70648 0.97603 0.50023 0.0
N665 N 0.66815 0.0224 0.49119 0.0
H666 H 0.949 0.64674 0.50339 0.0
H667 H 0.0578 0.71962 0.50257 0.0
H668 H 0.9466 0.71709 0.49064 0.0
H669 H 0.05577 0.64919 0.49188 0.0
H670 H 0.01757 0.72011 0.50174 0.0
H671 H 0.9885 0.64845 0.50468 0.0
C672 C 0.95673 0.66264 0.50107 0.0
C673 C 0.94426 0.68181 0.49674 0.0
C674 C 0.02604 0.70461 0.49939 0.0
C675 C 0.99009 0.68385 0.49789 0.0
C676 C 0.04899 0.70431 0.49973 0.0
C677 C 0.06033 0.68433 0.49737 0.0
C678 C 0.01441 0.68481 0.49696 0.0
C679 C 0.04796 0.66503 0.49388 0.0
C680 C 0.97944 0.66358 0.50162 0.0
C681 C 0.95548 0.70187 0.49402 0.0
N682 N 0.02583 0.66579 0.49398 0.0
N683 N 0.97779 0.70238 0.49454 0.0
H684 H 0.28225 0.05846 0.49898 0.0
H685 H 0.35273 0.94848 0.50732 0.0
H686 H 0.35269 0.05486 0.49242 0.0
H687 H 0.28281 0.9469 0.48521 0.0
H688 H 0.35157 0.98791 0.50889 0.0
H689 H 0.28079 0.01824 0.49852 0.0
C690 C 0.29737 0.04932 0.49712 0.0
C691 C 0.31764 0.0602 0.49584 0.0
C692 C 0.33639 0.97907 0.50368 0.0
C693 C 0.31603 0.01431 0.49589 0.0
C694 C 0.33702 0.95639 0.50292 0.0
C695 C 0.31784 0.94416 0.49572 0.0
C696 C 0.31645 0.98999 0.49725 0.0
C697 C 0.29801 0.95561 0.4908 0.0
C698 C 0.2965 0.02637 0.49697 0.0
C699 C 0.33666 0.04741 0.49357 0.0
N700 N 0.29782 0.97795 0.49146 0.0
N701 N 0.33535 0.0253 0.49388 0.0
H702 H 0.05691 0.27901 0.50172 0.0
H703 H 0.94588 0.34517 0.45608 0.0
H704 H 0.05133 0.34857 0.47676 0.0
H705 H 0.94472 0.28032 0.51951 0.0
H706 H 0.98531 0.34341 0.45148 0.0
H707 H 0.01663 0.27637 0.49956 0.0
C708 C 0.04734 0.29367 0.49589 0.0
C709 C 0.05767 0.31405 0.48953 0.0
C710 C 0.97657 0.32947 0.46643 0.0
C711 C 0.01188 0.31105 0.4863 0.0
C712 C 0.95395 0.33045 0.46897 0.0
C713 C 0.94194 0.31299 0.48892 0.0
C714 C 0.9876 0.31093 0.48425 0.0
C715 C 0.95339 0.29418 0.50406 0.0
C716 C 0.0244 0.29212 0.49463 0.0
C717 C 0.04437 0.33247 0.48204 0.0
N718 N 0.9757 0.2937 0.50191 0.0
N719 N 0.02237 0.33047 0.48051 0.0
H720 H 0.27454 0.35784 0.98656 0.0
H721 H 0.3024 0.23 0.99271 0.0
H722 H 0.22681 0.30627 0.00131 0.0
H723 H 0.35262 0.27936 0.00272 0.0
H724 H 0.27481 0.25846 0.99174 0.0
H725 H 0.30369 0.33012 0.98722 0.0
C726 C 0.27019 0.34072 0.98953 0.0
C727 C 0.24822 0.33435 0.99391 0.0
C728 C 0.29182 0.26319 0.99437 0.0
C729 C 0.28132 0.30273 0.99495 0.0
C730 C 0.30764 0.24689 0.99496 0.0
C731 C 0.32988 0.25229 -0.00217 0.0
C732 C 0.29815 0.28523 -0.00367 0.0
C733 C 0.33563 0.27449 0.0007 0.0
C734 C 0.28681 0.32496 0.99021 0.0
C735 C 0.2435 0.31199 -0.00203 0.0
N736 N 0.31984 0.29021 -0.00037 0.0
N737 N 0.25986 0.29706 -0.00163 0.0
H738 H 0.72387 0.3562 0.00116 0.0
H739 H 0.69632 0.22813 -0.00394 0.0
H740 H 0.77167 0.3046 0.99032 0.0
H741 H 0.64584 0.27721 0.98777 0.0
H742 H 0.72378 0.25674 -0.00336 0.0
H743 H 0.6947 0.32842 0.00019 0.0
C744 C 0.72823 0.33908 -0.00104 0.0
C745 C 0.75024 0.33271 -0.0042 0.0
C746 C 0.70674 0.26139 0.99449 0.0
C747 C 0.71712 0.30101 0.99438 0.0
C748 C 0.69099 0.24498 0.9941 0.0
C749 C 0.66871 0.25025 0.99186 0.0
C750 C 0.70033 0.28341 0.99295 0.0
C751 C 0.66286 0.27243 0.98931 0.0
C752 C 0.7116 0.32327 -0.00188 0.0
C753 C 0.75497 0.31033 0.99271 0.0
N754 N 0.67859 0.28826 0.99017 0.0
N755 N 0.73861 0.29538 0.99208 0.0
H756 H 0.77426 0.69747 -0.00014 0.0
H757 H 0.6464 0.72546 0.0042 0.0
H758 H 0.72497 0.64721 0.98876 0.0
H759 H 0.69833 0.77307 0.99528 0.0
H760 H 0.674 0.69616 0.00302 0.0
H761 H 0.7458 0.72499 0.00142 0.0
C762 C 0.75738 0.6922 -0.00251 0.0
C763 C 0.75201 0.66997 0.99416 0.0
C764 C 0.67926 0.71304 0.00144 0.0
C765 C 0.71903 0.70165 -0.00367 0.0
C766 C 0.66355 0.72974 0.00242 0.0
C767 C 0.67008 0.75173 -0.00021 0.0
C768 C 0.70155 0.71849 -0.00188 0.0
C769 C 0.69249 0.75638 -0.00278 0.0
C770 C 0.74107 0.70799 -0.00156 0.0
C771 C 0.72982 0.66419 0.99114 0.0
N772 N 0.70733 0.73996 -0.00357 0.0
N773 N 0.71407 0.67996 0.99253 0.0
H774 H 0.27968 0.64723 0.00597 0.0
H775 H 0.30629 0.77546 -0.00242 0.0
H776 H 0.23157 0.69855 0.99505 0.0
H777 H 0.35717 0.72673 0.99141 0.0
H778 H 0.27907 0.74666 -0.00054 0.0
H779 H 0.30869 0.67519 0.00478 0.0
C780 C 0.27522 0.66433 0.00376 0.0
C781 C 0.25318 0.67057 0.00055 0.0
C782 C 0.29615 0.74212 -0.00249 0.0
C783 C 0.28609 0.70245 -0.00116 0.0
C784 C 0.31176 0.75863 -0.00362 0.0
C785 C 0.33407 0.75352 0.99433 0.0
C786 C 0.30274 0.72014 -0.00313 0.0
C787 C 0.34011 0.73137 0.99278 0.0
C788 C 0.29175 0.68024 0.00278 0.0
C789 C 0.24831 0.69292 -0.00256 0.0
N790 N 0.32451 0.71544 0.9943 0.0
N791 N 0.26457 0.70795 -0.00337 0.0
H792 H 0.80676 0.72717 0.49362 0.0
H793 H 0.78126 0.85562 0.48921 0.0
H794 H 0.85815 0.77536 0.50264 0.0
H795 H 0.73282 0.80451 0.49946 0.0
H796 H 0.81009 0.82747 0.48976 0.0
H797 H 0.77987 0.75622 0.49259 0.0
C798 C 0.81242 0.74393 0.49563 0.0
C799 C 0.83477 0.74881 0.49823 0.0
C800 C 0.79313 0.82252 0.49178 0.0
C801 C 0.80381 0.7825 0.4967 0.0
C802 C 0.7767 0.83854 0.49116 0.0
C803 C 0.75461 0.8324 0.49436 0.0
C804 C 0.78731 0.80033 0.49529 0.0
C805 C 0.74959 0.81007 0.49712 0.0
C806 C 0.79699 0.76059 0.495 0.0
C807 C 0.84105 0.77089 0.50083 0.0
N808 N 0.76575 0.79495 0.49753 0.0
N809 N 0.82562 0.78699 0.49977 0.0
H810 H 0.22536 0.8571 0.50775 0.0
H811 H 0.19807 0.72911 0.49555 0.0
H812 H 0.27307 0.80578 0.49003 0.0
H813 H 0.14732 0.77802 0.49281 0.0
H814 H 0.2254 0.7578 0.49651 0.0
H815 H 0.19622 0.82928 0.50665 0.0
C816 C 0.22971 0.84002 0.50406 0.0
C817 C 0.25168 0.83375 0.49896 0.0
C818 C 0.20833 0.76241 0.49549 0.0
C819 C 0.21859 0.80202 0.49735 0.0
C820 C 0.19265 0.74596 0.49489 0.0
C821 C 0.17034 0.75115 0.49412 0.0
C822 C 0.20182 0.78441 0.49565 0.0
C823 C 0.16436 0.77332 0.49318 0.0
C824 C 0.21309 0.8242 0.50311 0.0
C825 C 0.25639 0.81144 0.49395 0.0
N826 N 0.18005 0.7892 0.49425 0.0
N827 N 0.24005 0.79648 0.49327 0.0
H828 H 0.22542 0.14666 0.48709 0.0
H829 H 0.19761 0.27453 0.49816 0.0
H830 H 0.27319 0.19822 0.5013 0.0
H831 H 0.14735 0.22507 0.5035 0.0
H832 H 0.22522 0.24607 0.49657 0.0
H833 H 0.19626 0.17437 0.48894 0.0
C834 C 0.22977 0.16377 0.49018 0.0
C835 C 0.25176 0.17015 0.49407 0.0
C836 C 0.20819 0.24132 0.4983 0.0
C837 C 0.21866 0.20175 0.49652 0.0
C838 C 0.19237 0.25762 0.49928 0.0
C839 C 0.17012 0.25218 0.50097 0.0
C840 C 0.20185 0.21925 0.49867 0.0
C841 C 0.16435 0.22996 0.50241 0.0
C842 C 0.21315 0.17954 0.49154 0.0
C843 C 0.25649 0.1925 0.49832 0.0
N844 N 0.18014 0.21425 0.50097 0.0
N845 N 0.24013 0.20741 0.49944 0.0
H846 H 0.802 0.27426 0.49951 0.0
H847 H 0.77466 0.14625 0.50457 0.0
H848 H 0.85198 0.22497 0.48474 0.0
H849 H 0.72638 0.19736 0.49284 0.0
H850 H 0.80355 0.17422 0.50293 0.0
H851 H 0.77436 0.24571 0.50145 0.0
C852 C 0.80717 0.25739 0.49639 0.0
C853 C 0.82935 0.252 0.49189 0.0
C854 C 0.78661 0.17924 0.50082 0.0
C855 C 0.79763 0.21902 0.49459 0.0
C856 C 0.77014 0.16332 0.50208 0.0
C857 C 0.74809 0.16949 0.49881 0.0
C858 C 0.7809 0.20143 0.49665 0.0
C859 C 0.74314 0.19182 0.49532 0.0
C860 C 0.79134 0.24105 0.49756 0.0
C861 C 0.83504 0.22983 0.48801 0.0
N862 N 0.75938 0.20691 0.49435 0.0
N863 N 0.81927 0.21409 0.4897 0.0
H864 H 0.10966 0.31111 0.31831 0.0
H865 H 0.18867 0.39427 0.17766 0.0
H866 H 0.16506 0.34024 0.3921 0.0
H867 H 0.16173 0.33765 0.10434 0.0
H868 H 0.1738 0.38087 0.25762 0.0
H869 H 0.12222 0.32698 0.23878 0.0
C870 C 0.12427 0.32111 0.31772 0.0
C871 C 0.13595 0.32516 0.36172 0.0
C872 C 0.17095 0.3716 0.22377 0.0
C873 C 0.15034 0.34309 0.2719 0.0
C874 C 0.17936 0.37921 0.17845 0.0
C875 C 0.17561 0.3674 0.13447 0.0
C876 C 0.15885 0.35208 0.22468 0.0
C877 C 0.16409 0.34764 0.13729 0.0
C878 C 0.1314 0.33011 0.27262 0.0
C879 C 0.15514 0.33762 0.35914 0.0
N880 N 0.15588 0.34068 0.18159 0.0
N881 N 0.16167 0.34638 0.315 0.0
H882 H 0.68897 0.10935 0.31595 0.0
H883 H 0.60823 0.19078 0.17551 0.0
H884 H 0.66072 0.16503 0.39026 0.0
H885 H 0.66463 0.16334 0.10252 0.0
H886 H 0.621 0.17517 0.25522 0.0
H887 H 0.67387 0.12268 0.23624 0.0
C888 C 0.6793 0.12417 0.31544 0.0
C889 C 0.67527 0.13572 0.35962 0.0
C890 C 0.63037 0.17238 0.22151 0.0
C891 C 0.65821 0.15097 0.26963 0.0
C892 C 0.62312 0.18123 0.17633 0.0
C893 C 0.63503 0.17754 0.13249 0.0
C894 C 0.64964 0.15993 0.22245 0.0
C895 C 0.65456 0.16567 0.13535 0.0
C896 C 0.67075 0.13175 0.27025 0.0
C897 C 0.66329 0.1552 0.35714 0.0
N898 N 0.66118 0.15705 0.17953 0.0
N899 N 0.65494 0.16213 0.31293 0.0
H900 H 0.83624 0.66253 0.39193 0.0
H901 H 0.83765 0.66591 0.10146 0.0
H902 H 0.89342 0.68641 0.31547 0.0
H903 H 0.81282 0.60869 0.17621 0.0
H904 H 0.85403 0.67818 0.18012 0.0
H905 H 0.82301 0.64677 0.3134 0.0
C906 C 0.84619 0.66403 0.35863 0.0
C907 C 0.86635 0.67484 0.36016 0.0
C908 C 0.84525 0.6628 0.17909 0.0
C909 C 0.85084 0.65807 0.27039 0.0
C910 C 0.83604 0.65576 0.13442 0.0
C911 C 0.82481 0.63584 0.13233 0.0
C912 C 0.84237 0.65024 0.22227 0.0
C913 C 0.82192 0.62387 0.1764 0.0
C914 C 0.8386 0.65518 0.31403 0.0
C915 C 0.87805 0.67763 0.3157 0.0
N916 N 0.83066 0.6313 0.21994 0.0
N917 N 0.87007 0.66931 0.27226 0.0
H918 H 0.31127 0.89613 0.31644 0.0
H919 H 0.33609 0.84112 0.09432 0.0
H920 H 0.3363 0.83717 0.38322 0.0
H921 H 0.39134 0.8165 0.17661 0.0
H922 H 0.32171 0.85727 0.17116 0.0
H923 H 0.32628 0.8844 0.23543 0.0
C924 C 0.32001 0.88078 0.31388 0.0
C925 C 0.32325 0.86787 0.35638 0.0
C926 C 0.33722 0.84877 0.17226 0.0
C927 C 0.33985 0.85416 0.26472 0.0
C928 C 0.34544 0.83962 0.12853 0.0
C929 C 0.36539 0.82842 0.12906 0.0
C930 C 0.34872 0.84603 0.2171 0.0
C931 C 0.37621 0.82562 0.17471 0.0
C932 C 0.32845 0.87406 0.26789 0.0
C933 C 0.33421 0.84789 0.35138 0.0
N934 N 0.36768 0.83435 0.21719 0.0
N935 N 0.34237 0.84173 0.30641 0.0
H936 H 0.1685 0.66509 0.60127 0.0
H937 H 0.16731 0.66867 0.89182 0.0
H938 H 0.1115 0.68928 0.67776 0.0
H939 H 0.19125 0.61107 0.81727 0.0
H940 H 0.15115 0.68113 0.81305 0.0
H941 H 0.1817 0.64939 0.6799 0.0
C942 C 0.15858 0.66667 0.63459 0.0
C943 C 0.13846 0.67753 0.63305 0.0
C944 C 0.15969 0.66564 0.81415 0.0
C945 C 0.15396 0.66086 0.7229 0.0
C946 C 0.16878 0.65849 0.85888 0.0
C947 C 0.17967 0.63841 0.86105 0.0
C948 C 0.16238 0.653 0.77103 0.0
C949 C 0.18239 0.62638 0.81701 0.0
C950 C 0.16616 0.65786 0.67924 0.0
C951 C 0.12682 0.68044 0.67754 0.0
N952 N 0.17378 0.6339 0.77344 0.0
N953 N 0.13479 0.67216 0.72102 0.0
H954 H 0.31283 0.11023 0.67543 0.0
H955 H 0.39238 0.19221 0.8169 0.0
H956 H 0.33881 0.16732 0.60223 0.0
H957 H 0.33493 0.16597 0.88807 0.0
H958 H 0.38006 0.17625 0.7371 0.0
H959 H 0.32796 0.12358 0.75511 0.0
C960 C 0.32205 0.12535 0.67617 0.0
C961 C 0.32543 0.13734 0.63235 0.0
C962 C 0.3704 0.17376 0.77051 0.0
C963 C 0.34262 0.15249 0.72208 0.0
C964 C 0.37738 0.18281 0.81569 0.0
C965 C 0.365 0.17956 0.859 0.0
C966 C 0.351 0.1615 0.7692 0.0
C967 C 0.34535 0.16792 0.85569 0.0
C968 C 0.33065 0.1329 0.72129 0.0
C969 C 0.33681 0.15718 0.63505 0.0
N970 N 0.33902 0.15904 0.81159 0.0
N971 N 0.34527 0.16407 0.67916 0.0
H972 H 0.8123 0.39162 0.81482 0.0
H973 H 0.89193 0.30918 0.67448 0.0
H974 H 0.83838 0.33476 0.88863 0.0
H975 H 0.83633 0.33815 0.60126 0.0
H976 H 0.87916 0.32459 0.75445 0.0
H977 H 0.82775 0.3784 0.73546 0.0
C978 C 0.82157 0.37655 0.81428 0.0
C979 C 0.82489 0.36462 0.85823 0.0
C980 C 0.86999 0.32776 0.72061 0.0
C981 C 0.84235 0.3495 0.76864 0.0
C982 C 0.87723 0.31904 0.6753 0.0
C983 C 0.86555 0.32321 0.63135 0.0
C984 C 0.85097 0.3406 0.7215 0.0
C985 C 0.84625 0.33544 0.63418 0.0
C986 C 0.83034 0.36904 0.76929 0.0
C987 C 0.83638 0.34485 0.85571 0.0
N988 N 0.83965 0.34395 0.67845 0.0
N989 N 0.84495 0.33797 0.81168 0.0
H990 H 0.6693 0.83844 0.89377 0.0
H991 H 0.66911 0.83426 0.60342 0.0
H992 H 0.61241 0.81429 0.81655 0.0
H993 H 0.69241 0.89234 0.67731 0.0
H994 H 0.65283 0.82192 0.68215 0.0
H995 H 0.68275 0.85405 0.81527 0.0
C996 C 0.65945 0.83687 0.86033 0.0
C997 C 0.63929 0.82604 0.86163 0.0
C998 C 0.66126 0.83749 0.68091 0.0
C999 C 0.6551 0.84258 0.77191 0.0
C1000 C 0.67042 0.84456 0.63621 0.0
C1001 C 0.68115 0.86475 0.63384 0.0
C1002 C 0.6637 0.85031 0.72383 0.0
C1003 C 0.68367 0.87694 0.67771 0.0
C1004 C 0.66718 0.84561 0.81574 0.0
C1005 C 0.62776 0.82311 0.81697 0.0
N1006 N 0.67498 0.8695 0.72128 0.0
N1007 N 0.63588 0.83131 0.77356 0.0
H1008 H 0.84621 0.63682 0.60521 0.0
H1009 H 0.86305 0.6578 0.88883 0.0
H1010 H 0.87459 0.69777 0.65442 0.0
H1011 H 0.80333 0.62778 0.83705 0.0
H1012 H 0.87095 0.66954 0.8036 0.0
H1013 H 0.83364 0.62989 0.6902 0.0
C1014 C 0.84977 0.6488 0.63383 0.0
C1015 C 0.86152 0.66793 0.62269 0.0
C1016 C 0.85603 0.66058 0.81107 0.0
C1017 C 0.84744 0.65979 0.72011 0.0
C1018 C 0.85153 0.65375 0.85959 0.0
C1019 C 0.83249 0.64175 0.87003 0.0
C1020 C 0.84175 0.65481 0.77241 0.0
C1021 C 0.81816 0.63702 0.83057 0.0
C1022 C 0.84244 0.64485 0.68221 0.0
C1023 C 0.86559 0.68284 0.66142 0.0
N1024 N 0.82328 0.64325 0.78317 0.0
N1025 N 0.85885 0.67829 0.70876 0.0
H1026 H 0.36548 0.8825 0.62114 0.0
H1027 H 0.34516 0.80507 0.85604 0.0
H1028 H 0.30674 0.84379 0.63393 0.0
H1029 H 0.38611 0.86251 0.85918 0.0
H1030 H 0.33385 0.81472 0.77043 0.0
H1031 H 0.37606 0.87124 0.70483 0.0
C1032 C 0.35474 0.87165 0.64169 0.0
C1033 C 0.33516 0.86411 0.62058 0.0
C1034 C 0.34535 0.82509 0.79003 0.0
C1035 C 0.34738 0.85092 0.71657 0.0
C1036 C 0.35196 0.8195 0.83851 0.0
C1037 C 0.36659 0.83302 0.86463 0.0
C1038 C 0.35378 0.84407 0.76757 0.0
C1039 C 0.37473 0.85168 0.84052 0.0
C1040 C 0.3608 0.86525 0.68953 0.0
C1041 C 0.32188 0.85012 0.64908 0.0
N1042 N 0.36828 0.85659 0.79341 0.0
N1043 N 0.32832 0.84381 0.69567 0.0
H1044 H 0.1127 0.35998 0.63124 0.0
H1045 H 0.19573 0.34599 0.8582 0.0
H1046 H 0.1582 0.3062 0.63706 0.0
H1047 H 0.13483 0.38129 0.86837 0.0
H1048 H 0.1853 0.33385 0.77379 0.0
H1049 H 0.12331 0.37033 0.71566 0.0
C1050 C 0.12484 0.35024 0.65053 0.0
C1051 C 0.13456 0.33218 0.62722 0.0
C1052 C 0.1743 0.34425 0.7947 0.0
C1053 C 0.14709 0.34419 0.72379 0.0
C1054 C 0.18031 0.35135 0.84254 0.0
C1055 C 0.16613 0.36469 0.87031 0.0
C1056 C 0.15417 0.35087 0.77446 0.0
C1057 C 0.14624 0.37096 0.84847 0.0
C1058 C 0.1309 0.35616 0.69874 0.0
C1059 C 0.15019 0.32012 0.65398 0.0
N1060 N 0.14092 0.36407 0.8019 0.0
N1061 N 0.15617 0.32648 0.70084 0.0
H1062 H 0.61458 0.14022 0.86443 0.0
H1063 H 0.6959 0.1571 0.63526 0.0
H1064 H 0.65756 0.19606 0.85649 0.0
H1065 H 0.63653 0.11909 0.62725 0.0
H1066 H 0.6855 0.1689 0.71992 0.0
H1067 H 0.6255 0.12986 0.78029 0.0
C1068 C 0.62625 0.15039 0.84476 0.0
C1069 C 0.63515 0.16905 0.8674 0.0
C1070 C 0.67483 0.15796 0.69944 0.0
C1071 C 0.64801 0.15706 0.77106 0.0
C1072 C 0.68084 0.15106 0.65147 0.0
C1073 C 0.66706 0.13707 0.62423 0.0
C1074 C 0.65513 0.1505 0.72035 0.0
C1075 C 0.64762 0.12994 0.64675 0.0
C1076 C 0.63247 0.14447 0.79669 0.0
C1077 C 0.65018 0.18165 0.84012 0.0
N1078 N 0.6423 0.13667 0.69343 0.0
N1079 N 0.65633 0.17531 0.79337 0.0
H1080 H 0.88217 0.36303 0.36535 0.0
H1081 H 0.80263 0.34363 0.13356 0.0
H1082 H 0.84133 0.30562 0.35562 0.0
H1083 H 0.86076 0.38354 0.1279 0.0
H1084 H 0.81256 0.3325 0.21907 0.0
H1085 H 0.87072 0.37354 0.28174 0.0
C1086 C 0.87082 0.35256 0.34548 0.0
C1087 C 0.86272 0.33338 0.36744 0.0
C1088 C 0.82303 0.34373 0.19895 0.0
C1089 C 0.84932 0.34552 0.27156 0.0
C1090 C 0.81728 0.35024 0.15051 0.0
C1091 C 0.83091 0.36451 0.12369 0.0
C1092 C 0.84229 0.35189 0.22067 0.0
C1093 C 0.84984 0.37243 0.1471 0.0
C1094 C 0.86431 0.35858 0.29768 0.0
C1095 C 0.8481 0.32044 0.33981 0.0
N1096 N 0.85491 0.36606 0.19418 0.0
N1097 N 0.8417 0.32683 0.29325 0.0
H1098 H 0.63015 0.80232 0.15486 0.0
H1099 H 0.70234 0.87476 0.33899 0.0
H1100 H 0.6588 0.86357 0.10856 0.0
H1101 H 0.64389 0.84177 0.38873 0.0
H1102 H 0.69373 0.86375 0.25274 0.0
H1103 H 0.6423 0.80981 0.24081 0.0
C1104 C 0.63911 0.81721 0.16265 0.0
C1105 C 0.64333 0.83241 0.12462 0.0
C1106 C 0.68297 0.85883 0.28285 0.0
C1107 C 0.65764 0.84072 0.22188 0.0
C1108 C 0.68788 0.86503 0.33186 0.0
C1109 C 0.67372 0.8593 0.37092 0.0
C1110 C 0.66414 0.84637 0.27332 0.0
C1111 C 0.65516 0.84669 0.3597 0.0
C1112 C 0.64599 0.82146 0.21151 0.0
C1113 C 0.65504 0.85147 0.13674 0.0
N1114 N 0.65094 0.84056 0.31194 0.0
N1115 N 0.66189 0.85503 0.18427 0.0
H1116 H 0.12889 0.70061 0.33935 0.0
H1117 H 0.20127 0.62844 0.15566 0.0
H1118 H 0.15815 0.63983 0.38661 0.0
H1119 H 0.14189 0.65982 0.10638 0.0
H1120 H 0.1928 0.63969 0.2418 0.0
H1121 H 0.1408 0.69282 0.25336 0.0
C1122 C 0.13795 0.68577 0.33176 0.0
C1123 C 0.1424 0.67077 0.37006 0.0
C1124 C 0.1818 0.6442 0.21181 0.0
C1125 C 0.15643 0.66215 0.2728 0.0
C1126 C 0.18662 0.63786 0.16286 0.0
C1127 C 0.17218 0.64307 0.12396 0.0
C1128 C 0.16277 0.65631 0.22141 0.0
C1129 C 0.15339 0.6553 0.13528 0.0
C1130 C 0.14468 0.68135 0.28289 0.0
C1131 C 0.15421 0.65177 0.35821 0.0
N1132 N 0.14927 0.6616 0.18295 0.0
N1133 N 0.16092 0.64805 0.31066 0.0
H1134 H 0.36414 0.15732 0.38652 0.0
H1135 H 0.34179 0.14168 0.10294 0.0
H1136 H 0.30247 0.13035 0.33795 0.0
H1137 H 0.37298 0.20076 0.15491 0.0
H1138 H 0.33034 0.13369 0.18835 0.0
H1139 H 0.3711 0.16989 0.30148 0.0
C1140 C 0.35202 0.15406 0.35803 0.0
C1141 C 0.33267 0.14272 0.36936 0.0
C1142 C 0.3395 0.14849 0.18089 0.0
C1143 C 0.34081 0.1568 0.27193 0.0
C1144 C 0.34615 0.15305 0.13228 0.0
C1145 C 0.35839 0.17193 0.12184 0.0
C1146 C 0.34569 0.16256 0.21962 0.0
C1147 C 0.36354 0.18606 0.1614 0.0
C1148 C 0.35598 0.16139 0.30964 0.0
C1149 C 0.31757 0.13903 0.33081 0.0
N1150 N 0.35747 0.18089 0.20888 0.0
N1151 N 0.32212 0.14577 0.28348 0.0
loop_
_geom_bond_atom_site_label_1
_geom_bond_atom_site_label_2
_geom_bond_distance
_geom_bond_site_symmetry_2
_ccdc_geom_bond_type
Mn0 O5 2.095 1_554 S
Mn0 O15 2.160 1_554 S
Mn0 O16 2.297 . S
Mn0 O24 2.385 . S
Mn0 O25 2.209 . S
Mn0 O26 2.094 . S
Mn1 O6 2.121 1_554 S
Mn1 N8 2.257 . S
Mn1 N17 2.282 . S
Mn1 O25 2.215 . S
Mn1 O27 2.117 . S
C2 O24 1.234 . S
C2 O25 1.283 . S
C3 O15 1.280 1_554 S
C3 O16 1.236 . S
C4 O26 1.240 . S
C4 O27 1.264 . S
O5 Mn0 2.095 1_556 S
O5 C14 1.250 . S
O6 Mn1 2.121 1_556 S
O6 C14 1.258 . S
C7 N8 1.326 1_556 S
C7 C11 1.460 1_556 S
C7 H13 0.929 . S
N8 Mn1 2.257 . S
N8 C7 1.326 1_554 S
N8 C12 1.362 . S
C9 C10 1.258 . S
C9 C12 1.431 . S
C9 C29 1.449 . S
C10 C9 1.258 . S
C10 C11 1.477 . S
C10 H30 0.931 . S
C11 C7 1.460 1_554 S
C11 C10 1.477 . S
C11 H31 0.930 1_554 S
C12 N8 1.362 . S
C12 C9 1.431 . S
C12 C22 1.476 . S
H13 C7 0.929 . S
C14 O5 1.250 . S
C14 O6 1.258 . S
O15 Mn0 2.160 1_556 S
O15 C3 1.280 1_556 S
O16 Mn0 2.297 . S
O16 C3 1.236 . S
N17 Mn1 2.282 . S
N17 C18 1.328 . S
N17 C22 1.318 . S
C18 N17 1.328 . S
C18 C19 1.457 . S
C18 H23 0.929 . S
C19 C18 1.457 . S
C19 C20 1.291 . S
C19 H32 0.931 . S
C20 C19 1.291 . S
C20 C21 1.373 . S
C20 H33 0.929 . S
C21 C20 1.373 . S
C21 C22 1.396 . S
C21 C28 1.403 . S
C22 C12 1.476 . S
C22 N17 1.318 . S
C22 C21 1.396 . S
H23 C18 0.929 . S
O24 Mn0 2.385 . S
O24 C2 1.234 . S
O25 Mn0 2.209 . S
O25 Mn1 2.215 . S
O25 C2 1.283 . S
O26 Mn0 2.094 . S
O26 C4 1.240 . S
O27 Mn1 2.117 . S
O27 C4 1.264 . S
C28 C21 1.403 . S
C28 C29 1.399 . S
C28 H34 0.929 . S
C29 C9 1.449 . S
C29 C28 1.399 . S
C29 H35 0.930 . S
H30 C10 0.931 . S
H31 C11 0.930 1_556 S
H32 C19 0.931 . S
H33 C20 0.929 . S
H34 C28 0.929 . S
H35 C29 0.930 . S
Mn36 O41 2.095 1_554 S
Mn36 O51 2.160 1_554 S
Mn36 O52 2.297 . S
Mn36 O60 2.385 . S
Mn36 O61 2.209 . S
Mn36 O62 2.094 . S
Mn37 O42 2.121 1_554 S
Mn37 N44 2.257 . S
Mn37 N53 2.282 . S
Mn37 O61 2.215 . S
Mn37 O63 2.117 . S
C38 O60 1.234 . S
C38 O61 1.283 . S
C39 O51 1.280 1_554 S
C39 O52 1.236 . S
C40 O62 1.240 . S
C40 O63 1.264 . S
O41 Mn36 2.095 1_556 S
O41 C50 1.250 . S
O42 Mn37 2.121 1_556 S
O42 C50 1.258 . S
C43 N44 1.326 1_556 S
C43 C47 1.460 1_556 S
C43 H49 0.929 . S
N44 Mn37 2.257 . S
N44 C43 1.326 1_554 S
N44 C48 1.362 . S
C45 C46 1.258 . S
C45 C48 1.431 . S
C45 C65 1.449 . S
C46 C45 1.258 . S
C46 C47 1.477 . S
C46 H66 0.931 . S
C47 C43 1.460 1_554 S
C47 C46 1.477 . S
C47 H67 0.930 1_554 S
C48 N44 1.362 . S
C48 C45 1.431 . S
C48 C58 1.476 . S
H49 C43 0.929 . S
C50 O41 1.250 . S
C50 O42 1.258 . S
O51 Mn36 2.160 1_556 S
O51 C39 1.280 1_556 S
O52 Mn36 2.297 . S
O52 C39 1.236 . S
N53 Mn37 2.282 . S
N53 C54 1.328 . S
N53 C58 1.318 . S
C54 N53 1.328 . S
C54 C55 1.457 . S
C54 H59 0.929 . S
C55 C54 1.457 . S
C55 C56 1.291 . S
C55 H68 0.931 . S
C56 C55 1.291 . S
C56 C57 1.373 . S
C56 H69 0.929 . S
C57 C56 1.373 . S
C57 C58 1.396 . S
C57 C64 1.403 . S
C58 C48 1.476 . S
C58 N53 1.318 . S
C58 C57 1.396 . S
H59 C54 0.929 . S
O60 Mn36 2.385 . S
O60 C38 1.234 . S
O61 Mn36 2.209 . S
O61 Mn37 2.215 . S
O61 C38 1.283 . S
O62 Mn36 2.094 . S
O62 C40 1.240 . S
O63 Mn37 2.117 . S
O63 C40 1.264 . S
C64 C57 1.403 . S
C64 C65 1.399 . S
C64 H70 0.929 . S
C65 C45 1.449 . S
C65 C64 1.399 . S
C65 H71 0.930 . S
H66 C46 0.931 . S
H67 C47 0.930 1_556 S
H68 C55 0.931 . S
H69 C56 0.929 . S
H70 C64 0.929 . S
H71 C65 0.930 . S
Mn72 O77 2.095 1_554 S
Mn72 O87 2.160 1_554 S
Mn72 O88 2.297 . S
Mn72 O96 2.385 . S
Mn72 O97 2.209 . S
Mn72 O98 2.094 . S
Mn73 O78 2.121 1_554 S
Mn73 N80 2.257 . S
Mn73 N89 2.282 . S
Mn73 O97 2.215 . S
Mn73 O99 2.117 . S
C74 O96 1.234 . S
C74 O97 1.283 . S
C75 O87 1.280 1_554 S
C75 O88 1.236 . S
C76 O98 1.240 . S
C76 O99 1.264 . S
O77 Mn72 2.095 1_556 S
O77 C86 1.250 . S
O78 Mn73 2.121 1_556 S
O78 C86 1.258 . S
C79 N80 1.326 1_556 S
C79 C83 1.460 1_556 S
C79 H85 0.929 . S
N80 Mn73 2.257 . S
N80 C79 1.326 1_554 S
N80 C84 1.362 . S
C81 C82 1.258 . S
C81 C84 1.431 . S
C81 C101 1.449 . S
C82 C81 1.258 . S
C82 C83 1.477 . S
C82 H102 0.931 . S
C83 C79 1.460 1_554 S
C83 C82 1.477 . S
C83 H103 0.930 1_554 S
C84 N80 1.362 . S
C84 C81 1.431 . S
C84 C94 1.476 . S
H85 C79 0.929 . S
C86 O77 1.250 . S
C86 O78 1.258 . S
O87 Mn72 2.160 1_556 S
O87 C75 1.280 1_556 S
O88 Mn72 2.297 . S
O88 C75 1.236 . S
N89 Mn73 2.282 . S
N89 C90 1.328 . S
N89 C94 1.318 . S
C90 N89 1.328 . S
C90 C91 1.457 . S
C90 H95 0.929 . S
C91 C90 1.457 . S
C91 C92 1.291 . S
C91 H104 0.931 . S
C92 C91 1.291 . S
C92 C93 1.373 . S
C92 H105 0.929 . S
C93 C92 1.373 . S
C93 C94 1.396 . S
C93 C100 1.403 . S
C94 C84 1.476 . S
C94 N89 1.318 . S
C94 C93 1.396 . S
H95 C90 0.929 . S
O96 Mn72 2.385 . S
O96 C74 1.234 . S
O97 Mn72 2.209 . S
O97 Mn73 2.215 . S
O97 C74 1.283 . S
O98 Mn72 2.094 . S
O98 C76 1.240 . S
O99 Mn73 2.117 . S
O99 C76 1.264 . S
C100 C93 1.403 . S
C100 C101 1.399 . S
C100 H106 0.929 . S
C101 C81 1.449 . S
C101 C100 1.399 . S
C101 H107 0.930 . S
H102 C82 0.931 . S
H103 C83 0.930 1_556 S
H104 C91 0.931 . S
H105 C92 0.929 . S
H106 C100 0.929 . S
H107 C101 0.930 . S
Mn108 O113 2.095 1_554 S
Mn108 O123 2.160 1_554 S
Mn108 O124 2.297 . S
Mn108 O132 2.385 . S
Mn108 O133 2.209 . S
Mn108 O134 2.094 . S
Mn109 O114 2.121 1_554 S
Mn109 N116 2.257 . S
Mn109 N125 2.282 . S
Mn109 O133 2.215 . S
Mn109 O135 2.117 . S
C110 O132 1.234 . S
C110 O133 1.283 . S
C111 O123 1.280 1_554 S
C111 O124 1.236 . S
C112 O134 1.240 . S
C112 O135 1.264 . S
O113 Mn108 2.095 1_556 S
O113 C122 1.250 . S
O114 Mn109 2.121 1_556 S
O114 C122 1.258 . S
C115 N116 1.326 1_556 S
C115 C119 1.460 1_556 S
C115 H121 0.929 . S
N116 Mn109 2.257 . S
N116 C115 1.326 1_554 S
N116 C120 1.362 . S
C117 C118 1.258 . S
C117 C120 1.431 . S
C117 C137 1.449 . S
C118 C117 1.258 . S
C118 C119 1.477 . S
C118 H138 0.931 . S
C119 C115 1.460 1_554 S
C119 C118 1.477 . S
C119 H139 0.930 1_554 S
C120 N116 1.362 . S
C120 C117 1.431 . S
C120 C130 1.476 . S
H121 C115 0.929 . S
C122 O113 1.250 . S
C122 O114 1.258 . S
O123 Mn108 2.160 1_556 S
O123 C111 1.280 1_556 S
O124 Mn108 2.297 . S
O124 C111 1.236 . S
N125 Mn109 2.282 . S
N125 C126 1.328 . S
N125 C130 1.318 . S
C126 N125 1.328 . S
C126 C127 1.457 . S
C126 H131 0.929 . S
C127 C126 1.457 . S
C127 C128 1.291 . S
C127 H140 0.931 . S
C128 C127 1.291 . S
C128 C129 1.373 . S
C128 H141 0.929 . S
C129 C128 1.373 . S
C129 C130 1.396 . S
C129 C136 1.403 . S
C130 C120 1.476 . S
C130 N125 1.318 . S
C130 C129 1.396 . S
H131 C126 0.929 . S
O132 Mn108 2.385 . S
O132 C110 1.234 . S
O133 Mn108 2.209 . S
O133 Mn109 2.215 . S
O133 C110 1.283 . S
O134 Mn108 2.094 . S
O134 C112 1.240 . S
O135 Mn109 2.117 . S
O135 C112 1.264 . S
C136 C129 1.403 . S
C136 C137 1.399 . S
C136 H142 0.929 . S
C137 C117 1.449 . S
C137 C136 1.399 . S
C137 H143 0.930 . S
H138 C118 0.931 . S
H139 C119 0.930 1_556 S
H140 C127 0.931 . S
H141 C128 0.929 . S
H142 C136 0.929 . S
H143 C137 0.930 . S
Mn144 O149 2.095 1_556 S
Mn144 O159 2.162 1_556 S
Mn144 O160 2.297 . S
Mn144 O168 2.385 . S
Mn144 O169 2.209 . S
Mn144 O170 2.094 . S
Mn145 O150 2.121 1_556 S
Mn145 N152 2.257 . S
Mn145 N161 2.282 . S
Mn145 O169 2.215 . S
Mn145 O171 2.117 . S
C146 O168 1.234 . S
C146 O169 1.283 . S
C147 O159 1.279 1_556 S
C147 O160 1.237 . S
C148 O170 1.240 . S
C148 O171 1.264 . S
O149 Mn144 2.095 1_554 S
O149 C158 1.250 . S
O150 Mn145 2.121 1_554 S
O150 C158 1.258 . S
C151 N152 1.326 1_554 S
C151 C155 1.460 1_554 S
C151 H157 0.929 . S
N152 Mn145 2.257 . S
N152 C151 1.326 1_556 S
N152 C156 1.362 . S
C153 C154 1.258 . S
C153 C156 1.431 . S
C153 C173 1.449 . S
C154 C153 1.258 . S
C154 C155 1.477 . S
C154 H174 0.931 . S
C155 C151 1.460 1_556 S
C155 C154 1.477 . S
C155 H175 0.930 1_556 S
C156 N152 1.362 . S
C156 C153 1.431 . S
C156 C166 1.476 . S
H157 C151 0.929 . S
C158 O149 1.250 . S
C158 O150 1.258 . S
O159 Mn144 2.162 1_554 S
O159 C147 1.279 1_554 S
O160 Mn144 2.297 . S
O160 C147 1.237 . S
N161 Mn145 2.282 . S
N161 C162 1.328 . S
N161 C166 1.318 . S
C162 N161 1.328 . S
C162 C163 1.457 . S
C162 H167 0.929 . S
C163 C162 1.457 . S
C163 C164 1.291 . S
C163 H176 0.931 . S
C164 C163 1.291 . S
C164 C165 1.373 . S
C164 H177 0.929 . S
C165 C164 1.373 . S
C165 C166 1.396 . S
C165 C172 1.403 . S
C166 C156 1.476 . S
C166 N161 1.318 . S
C166 C165 1.396 . S
H167 C162 0.929 . S
O168 Mn144 2.385 . S
O168 C146 1.234 . S
O169 Mn144 2.209 . S
O169 Mn145 2.215 . S
O169 C146 1.283 . S
O170 Mn144 2.094 . S
O170 C148 1.240 . S
O171 Mn145 2.117 . S
O171 C148 1.264 . S
C172 C165 1.403 . S
C172 C173 1.399 . S
C172 H178 0.929 . S
C173 C153 1.449 . S
C173 C172 1.399 . S
C173 H179 0.930 . S
H174 C154 0.931 . S
H175 C155 0.930 1_554 S
H176 C163 0.931 . S
H177 C164 0.929 . S
H178 C172 0.929 . S
H179 C173 0.930 . S
Mn180 O185 2.095 1_556 S
Mn180 O195 2.162 1_556 S
Mn180 O196 2.297 . S
Mn180 O204 2.385 . S
Mn180 O205 2.209 . S
Mn180 O206 2.094 . S
Mn181 O186 2.121 1_556 S
Mn181 N188 2.257 . S
Mn181 N197 2.282 . S
Mn181 O205 2.215 . S
Mn181 O207 2.117 . S
C182 O204 1.234 . S
C182 O205 1.283 . S
C183 O195 1.279 1_556 S
C183 O196 1.237 . S
C184 O206 1.240 . S
C184 O207 1.264 . S
O185 Mn180 2.095 1_554 S
O185 C194 1.250 . S
O186 Mn181 2.121 1_554 S
O186 C194 1.258 . S
C187 N188 1.326 1_554 S
C187 C191 1.460 1_554 S
C187 H193 0.929 . S
N188 Mn181 2.257 . S
N188 C187 1.326 1_556 S
N188 C192 1.362 . S
C189 C190 1.258 . S
C189 C192 1.431 . S
C189 C209 1.449 . S
C190 C189 1.258 . S
C190 C191 1.477 . S
C190 H210 0.931 . S
C191 C187 1.460 1_556 S
C191 C190 1.477 . S
C191 H211 0.930 1_556 S
C192 N188 1.362 . S
C192 C189 1.431 . S
C192 C202 1.476 . S
H193 C187 0.929 . S
C194 O185 1.250 . S
C194 O186 1.258 . S
O195 Mn180 2.162 1_554 S
O195 C183 1.279 1_554 S
O196 Mn180 2.297 . S
O196 C183 1.237 . S
N197 Mn181 2.282 . S
N197 C198 1.328 . S
N197 C202 1.318 . S
C198 N197 1.328 . S
C198 C199 1.457 . S
C198 H203 0.929 . S
C199 C198 1.457 . S
C199 C200 1.291 . S
C199 H212 0.931 . S
C200 C199 1.291 . S
C200 C201 1.373 . S
C200 H213 0.929 . S
C201 C200 1.373 . S
C201 C202 1.396 . S
C201 C208 1.403 . S
C202 C192 1.476 . S
C202 N197 1.318 . S
C202 C201 1.396 . S
H203 C198 0.929 . S
O204 Mn180 2.385 . S
O204 C182 1.234 . S
O205 Mn180 2.209 . S
O205 Mn181 2.215 . S
O205 C182 1.283 . S
O206 Mn180 2.094 . S
O206 C184 1.240 . S
O207 Mn181 2.117 . S
O207 C184 1.264 . S
C208 C201 1.403 . S
C208 C209 1.399 . S
C208 H214 0.929 . S
C209 C189 1.449 . S
C209 C208 1.399 . S
C209 H215 0.930 . S
H210 C190 0.931 . S
H211 C191 0.930 1_554 S
H212 C199 0.931 . S
H213 C200 0.929 . S
H214 C208 0.929 . S
H215 C209 0.930 . S
Mn216 O221 2.095 1_556 S
Mn216 O231 2.162 1_556 S
Mn216 O232 2.297 . S
Mn216 O240 2.385 . S
Mn216 O241 2.209 . S
Mn216 O242 2.094 . S
Mn217 O222 2.121 1_556 S
Mn217 N224 2.257 . S
Mn217 N233 2.282 . S
Mn217 O241 2.215 . S
Mn217 O243 2.117 . S
C218 O240 1.234 . S
C218 O241 1.283 . S
C219 O231 1.279 1_556 S
C219 O232 1.237 . S
C220 O242 1.240 . S
C220 O243 1.264 . S
O221 Mn216 2.095 1_554 S
O221 C230 1.250 . S
O222 Mn217 2.121 1_554 S
O222 C230 1.258 . S
C223 N224 1.326 1_554 S
C223 C227 1.460 1_554 S
C223 H229 0.929 . S
N224 Mn217 2.257 . S
N224 C223 1.326 1_556 S
N224 C228 1.362 . S
C225 C226 1.258 . S
C225 C228 1.431 . S
C225 C245 1.449 . S
C226 C225 1.258 . S
C226 C227 1.477 . S
C226 H246 0.931 . S
C227 C223 1.460 1_556 S
C227 C226 1.477 . S
C227 H247 0.930 1_556 S
C228 N224 1.362 . S
C228 C225 1.431 . S
C228 C238 1.476 . S
H229 C223 0.929 . S
C230 O221 1.250 . S
C230 O222 1.258 . S
O231 Mn216 2.162 1_554 S
O231 C219 1.279 1_554 S
O232 Mn216 2.297 . S
O232 C219 1.237 . S
N233 Mn217 2.282 . S
N233 C234 1.328 . S
N233 C238 1.318 . S
C234 N233 1.328 . S
C234 C235 1.457 . S
C234 H239 0.929 . S
C235 C234 1.457 . S
C235 C236 1.291 . S
C235 H248 0.931 . S
C236 C235 1.291 . S
C236 C237 1.373 . S
C236 H249 0.929 . S
C237 C236 1.373 . S
C237 C238 1.396 . S
C237 C244 1.403 . S
C238 C228 1.476 . S
C238 N233 1.318 . S
C238 C237 1.396 . S
H239 C234 0.929 . S
O240 Mn216 2.385 . S
O240 C218 1.234 . S
O241 Mn216 2.209 . S
O241 Mn217 2.215 . S
O241 C218 1.283 . S
O242 Mn216 2.094 . S
O242 C220 1.240 . S
O243 Mn217 2.117 . S
O243 C220 1.264 . S
C244 C237 1.403 . S
C244 C245 1.399 . S
C244 H250 0.929 . S
C245 C225 1.449 . S
C245 C244 1.399 . S
C245 H251 0.930 . S
H246 C226 0.931 . S
H247 C227 0.930 1_554 S
H248 C235 0.931 . S
H249 C236 0.929 . S
H250 C244 0.929 . S
H251 C245 0.930 . S
Mn252 O257 2.095 1_556 S
Mn252 O267 2.162 1_556 S
Mn252 O268 2.297 . S
Mn252 O276 2.385 . S
Mn252 O277 2.209 . S
Mn252 O278 2.094 . S
Mn253 O258 2.121 1_556 S
Mn253 N260 2.257 . S
Mn253 N269 2.282 . S
Mn253 O277 2.215 . S
Mn253 O279 2.117 . S
C254 O276 1.234 . S
C254 O277 1.283 . S
C255 O267 1.279 1_556 S
C255 O268 1.237 . S
C256 O278 1.240 . S
C256 O279 1.264 . S
O257 Mn252 2.095 1_554 S
O257 C266 1.250 . S
O258 Mn253 2.121 1_554 S
O258 C266 1.258 . S
C259 N260 1.326 1_554 S
C259 C263 1.460 1_554 S
C259 H265 0.929 . S
N260 Mn253 2.257 . S
N260 C259 1.326 1_556 S
N260 C264 1.362 . S
C261 C262 1.258 . S
C261 C264 1.431 . S
C261 C281 1.449 . S
C262 C261 1.258 . S
C262 C263 1.477 . S
C262 H282 0.931 . S
C263 C259 1.460 1_556 S
C263 C262 1.477 . S
C263 H283 0.930 1_556 S
C264 N260 1.362 . S
C264 C261 1.431 . S
C264 C274 1.476 . S
H265 C259 0.929 . S
C266 O257 1.250 . S
C266 O258 1.258 . S
O267 Mn252 2.162 1_554 S
O267 C255 1.279 1_554 S
O268 Mn252 2.297 . S
O268 C255 1.237 . S
N269 Mn253 2.282 . S
N269 C270 1.328 . S
N269 C274 1.318 . S
C270 N269 1.328 . S
C270 C271 1.457 . S
C270 H275 0.929 . S
C271 C270 1.457 . S
C271 C272 1.291 . S
C271 H284 0.931 . S
C272 C271 1.291 . S
C272 C273 1.373 . S
C272 H285 0.929 . S
C273 C272 1.373 . S
C273 C274 1.396 . S
C273 C280 1.403 . S
C274 C264 1.476 . S
C274 N269 1.318 . S
C274 C273 1.396 . S
H275 C270 0.929 . S
O276 Mn252 2.385 . S
O276 C254 1.234 . S
O277 Mn252 2.209 . S
O277 Mn253 2.215 . S
O277 C254 1.283 . S
O278 Mn252 2.094 . S
O278 C256 1.240 . S
O279 Mn253 2.117 . S
O279 C256 1.264 . S
C280 C273 1.403 . S
C280 C281 1.399 . S
C280 H286 0.929 . S
C281 C261 1.449 . S
C281 C280 1.399 . S
C281 H287 0.930 . S
H282 C262 0.931 . S
H283 C263 0.930 1_554 S
H284 C271 0.931 . S
H285 C272 0.929 . S
H286 C280 0.929 . S
H287 C281 0.930 . S
Mn288 O293 2.095 . S
Mn288 O303 2.162 . S
Mn288 O304 2.297 . S
Mn288 O312 2.385 . S
Mn288 O313 2.209 . S
Mn288 O314 2.094 . S
Mn289 O294 2.121 . S
Mn289 N296 2.257 . S
Mn289 N305 2.282 . S
Mn289 O313 2.215 . S
Mn289 O315 2.117 . S
C290 O312 1.234 . S
C290 O313 1.283 . S
C291 O303 1.281 . S
C291 O304 1.236 . S
C292 O314 1.240 . S
C292 O315 1.264 . S
O293 Mn288 2.095 . S
O293 C302 1.250 . S
O294 Mn289 2.121 . S
O294 C302 1.258 . S
C295 N296 1.326 . S
C295 C299 1.460 . S
C295 H301 0.929 . S
N296 Mn289 2.257 . S
N296 C295 1.326 . S
N296 C300 1.362 . S
C297 C298 1.258 . S
C297 C300 1.431 . S
C297 C317 1.449 . S
C298 C297 1.258 . S
C298 C299 1.477 . S
C298 H318 0.931 . S
C299 C295 1.460 . S
C299 C298 1.477 . S
C299 H319 0.930 . S
C300 N296 1.362 . S
C300 C297 1.431 . S
C300 C310 1.476 . S
H301 C295 0.929 . S
C302 O293 1.250 . S
C302 O294 1.258 . S
O303 Mn288 2.162 . S
O303 C291 1.281 . S
O304 Mn288 2.297 . S
O304 C291 1.236 . S
N305 Mn289 2.282 . S
N305 C306 1.328 . S
N305 C310 1.318 . S
C306 N305 1.328 . S
C306 C307 1.457 . S
C306 H311 0.929 . S
C307 C306 1.457 . S
C307 C308 1.291 . S
C307 H320 0.931 . S
C308 C307 1.291 . S
C308 C309 1.373 . S
C308 H321 0.929 . S
C309 C308 1.373 . S
C309 C310 1.396 . S
C309 C316 1.403 . S
C310 C300 1.476 . S
C310 N305 1.318 . S
C310 C309 1.396 . S
H311 C306 0.929 . S
O312 Mn288 2.385 . S
O312 C290 1.234 . S
O313 Mn288 2.209 . S
O313 Mn289 2.215 . S
O313 C290 1.283 . S
O314 Mn288 2.094 . S
O314 C292 1.240 . S
O315 Mn289 2.117 . S
O315 C292 1.264 . S
C316 C309 1.403 . S
C316 C317 1.399 . S
C316 H322 0.929 . S
C317 C297 1.449 . S
C317 C316 1.399 . S
C317 H323 0.930 . S
H318 C298 0.931 . S
H319 C299 0.930 . S
H320 C307 0.931 . S
H321 C308 0.929 . S
H322 C316 0.929 . S
H323 C317 0.930 . S
Mn324 O329 2.095 . S
Mn324 O339 2.162 . S
Mn324 O340 2.297 . S
Mn324 O348 2.385 . S
Mn324 O349 2.209 . S
Mn324 O350 2.094 . S
Mn325 O330 2.121 . S
Mn325 N332 2.257 . S
Mn325 N341 2.282 . S
Mn325 O349 2.215 . S
Mn325 O351 2.117 . S
C326 O348 1.234 . S
C326 O349 1.283 . S
C327 O339 1.281 . S
C327 O340 1.236 . S
C328 O350 1.240 . S
C328 O351 1.264 . S
O329 Mn324 2.095 . S
O329 C338 1.250 . S
O330 Mn325 2.121 . S
O330 C338 1.258 . S
C331 N332 1.326 . S
C331 C335 1.460 . S
C331 H337 0.929 . S
N332 Mn325 2.257 . S
N332 C331 1.326 . S
N332 C336 1.362 . S
C333 C334 1.258 . S
C333 C336 1.431 . S
C333 C353 1.449 . S
C334 C333 1.258 . S
C334 C335 1.477 . S
C334 H354 0.931 . S
C335 C331 1.460 . S
C335 C334 1.477 . S
C335 H355 0.930 . S
C336 N332 1.362 . S
C336 C333 1.431 . S
C336 C346 1.476 . S
H337 C331 0.929 . S
C338 O329 1.250 . S
C338 O330 1.258 . S
O339 Mn324 2.162 . S
O339 C327 1.281 . S
O340 Mn324 2.297 . S
O340 C327 1.236 . S
N341 Mn325 2.282 . S
N341 C342 1.328 . S
N341 C346 1.318 . S
C342 N341 1.328 . S
C342 C343 1.457 . S
C342 H347 0.929 . S
C343 C342 1.457 . S
C343 C344 1.291 . S
C343 H356 0.931 . S
C344 C343 1.291 . S
C344 C345 1.373 . S
C344 H357 0.929 . S
C345 C344 1.373 . S
C345 C346 1.396 . S
C345 C352 1.403 . S
C346 C336 1.476 . S
C346 N341 1.318 . S
C346 C345 1.396 . S
H347 C342 0.929 . S
O348 Mn324 2.385 . S
O348 C326 1.234 . S
O349 Mn324 2.209 . S
O349 Mn325 2.215 . S
O349 C326 1.283 . S
O350 Mn324 2.094 . S
O350 C328 1.240 . S
O351 Mn325 2.117 . S
O351 C328 1.264 . S
C352 C345 1.403 . S
C352 C353 1.399 . S
C352 H358 0.929 . S
C353 C333 1.449 . S
C353 C352 1.399 . S
C353 H359 0.930 . S
H354 C334 0.931 . S
H355 C335 0.930 . S
H356 C343 0.931 . S
H357 C344 0.929 . S
H358 C352 0.929 . S
H359 C353 0.930 . S
Mn360 O365 2.095 . S
Mn360 O375 2.162 . S
Mn360 O376 2.297 . S
Mn360 O384 2.385 . S
Mn360 O385 2.209 . S
Mn360 O386 2.094 . S
Mn361 O366 2.121 . S
Mn361 N368 2.257 . S
Mn361 N377 2.282 . S
Mn361 O385 2.215 . S
Mn361 O387 2.117 . S
C362 O384 1.234 . S
C362 O385 1.283 . S
C363 O375 1.281 . S
C363 O376 1.236 . S
C364 O386 1.240 . S
C364 O387 1.264 . S
O365 Mn360 2.095 . S
O365 C374 1.250 . S
O366 Mn361 2.121 . S
O366 C374 1.258 . S
C367 N368 1.326 . S
C367 C371 1.460 . S
C367 H373 0.929 . S
N368 Mn361 2.257 . S
N368 C367 1.326 . S
N368 C372 1.362 . S
C369 C370 1.258 . S
C369 C372 1.431 . S
C369 C389 1.449 . S
C370 C369 1.258 . S
C370 C371 1.477 . S
C370 H390 0.931 . S
C371 C367 1.460 . S
C371 C370 1.477 . S
C371 H391 0.930 . S
C372 N368 1.362 . S
C372 C369 1.431 . S
C372 C382 1.476 . S
H373 C367 0.929 . S
C374 O365 1.250 . S
C374 O366 1.258 . S
O375 Mn360 2.162 . S
O375 C363 1.281 . S
O376 Mn360 2.297 . S
O376 C363 1.236 . S
N377 Mn361 2.282 . S
N377 C378 1.328 . S
N377 C382 1.318 . S
C378 N377 1.328 . S
C378 C379 1.457 . S
C378 H383 0.929 . S
C379 C378 1.457 . S
C379 C380 1.291 . S
C379 H392 0.931 . S
C380 C379 1.291 . S
C380 C381 1.373 . S
C380 H393 0.929 . S
C381 C380 1.373 . S
C381 C382 1.396 . S
C381 C388 1.403 . S
C382 C372 1.476 . S
C382 N377 1.318 . S
C382 C381 1.396 . S
H383 C378 0.929 . S
O384 Mn360 2.385 . S
O384 C362 1.234 . S
O385 Mn360 2.209 . S
O385 Mn361 2.215 . S
O385 C362 1.283 . S
O386 Mn360 2.094 . S
O386 C364 1.240 . S
O387 Mn361 2.117 . S
O387 C364 1.264 . S
C388 C381 1.403 . S
C388 C389 1.399 . S
C388 H394 0.929 . S
C389 C369 1.449 . S
C389 C388 1.399 . S
C389 H395 0.930 . S
H390 C370 0.931 . S
H391 C371 0.930 . S
H392 C379 0.931 . S
H393 C380 0.929 . S
H394 C388 0.929 . S
H395 C389 0.930 . S
Mn396 O401 2.095 . S
Mn396 O411 2.162 . S
Mn396 O412 2.297 . S
Mn396 O420 2.385 . S
Mn396 O421 2.209 . S
Mn396 O422 2.094 . S
Mn397 O402 2.121 . S
Mn397 N404 2.257 . S
Mn397 N413 2.282 . S
Mn397 O421 2.215 . S
Mn397 O423 2.117 . S
C398 O420 1.234 . S
C398 O421 1.283 . S
C399 O411 1.281 . S
C399 O412 1.236 . S
C400 O422 1.240 . S
C400 O423 1.264 . S
O401 Mn396 2.095 . S
O401 C410 1.250 . S
O402 Mn397 2.121 . S
O402 C410 1.258 . S
C403 N404 1.326 . S
C403 C407 1.460 . S
C403 H409 0.929 . S
N404 Mn397 2.257 . S
N404 C403 1.326 . S
N404 C408 1.362 . S
C405 C406 1.258 . S
C405 C408 1.431 . S
C405 C425 1.449 . S
C406 C405 1.258 . S
C406 C407 1.477 . S
C406 H426 0.931 . S
C407 C403 1.460 . S
C407 C406 1.477 . S
C407 H427 0.930 . S
C408 N404 1.362 . S
C408 C405 1.431 . S
C408 C418 1.476 . S
H409 C403 0.929 . S
C410 O401 1.250 . S
C410 O402 1.258 . S
O411 Mn396 2.162 . S
O411 C399 1.281 . S
O412 Mn396 2.297 . S
O412 C399 1.236 . S
N413 Mn397 2.282 . S
N413 C414 1.328 . S
N413 C418 1.318 . S
C414 N413 1.328 . S
C414 C415 1.457 . S
C414 H419 0.929 . S
C415 C414 1.457 . S
C415 C416 1.291 . S
C415 H428 0.931 . S
C416 C415 1.291 . S
C416 C417 1.373 . S
C416 H429 0.929 . S
C417 C416 1.373 . S
C417 C418 1.396 . S
C417 C424 1.403 . S
C418 C408 1.476 . S
C418 N413 1.318 . S
C418 C417 1.396 . S
H419 C414 0.929 . S
O420 Mn396 2.385 . S
O420 C398 1.234 . S
O421 Mn396 2.209 . S
O421 Mn397 2.215 . S
O421 C398 1.283 . S
O422 Mn396 2.094 . S
O422 C400 1.240 . S
O423 Mn397 2.117 . S
O423 C400 1.264 . S
C424 C417 1.403 . S
C424 C425 1.399 . S
C424 H430 0.929 . S
C425 C405 1.449 . S
C425 C424 1.399 . S
C425 H431 0.930 . S
H426 C406 0.931 . S
H427 C407 0.930 . S
H428 C415 0.931 . S
H429 C416 0.929 . S
H430 C424 0.929 . S
H431 C425 0.930 . S
Mn432 O437 2.095 . S
Mn432 O447 2.162 . S
Mn432 O448 2.297 . S
Mn432 O456 2.385 . S
Mn432 O457 2.209 . S
Mn432 O458 2.094 . S
Mn433 O438 2.121 . S
Mn433 N440 2.257 . S
Mn433 N449 2.282 . S
Mn433 O457 2.215 . S
Mn433 O459 2.117 . S
C434 O456 1.234 . S
C434 O457 1.283 . S
C435 O447 1.281 . S
C435 O448 1.236 . S
C436 O458 1.240 . S
C436 O459 1.264 . S
O437 Mn432 2.095 . S
O437 C446 1.250 . S
O438 Mn433 2.121 . S
O438 C446 1.258 . S
C439 N440 1.326 . S
C439 C443 1.460 . S
C439 H445 0.929 . S
N440 Mn433 2.257 . S
N440 C439 1.326 . S
N440 C444 1.362 . S
C441 C442 1.258 . S
C441 C444 1.431 . S
C441 C461 1.449 . S
C442 C441 1.258 . S
C442 C443 1.477 . S
C442 H462 0.931 . S
C443 C439 1.460 . S
C443 C442 1.477 . S
C443 H463 0.930 . S
C444 N440 1.362 . S
C444 C441 1.431 . S
C444 C454 1.476 . S
H445 C439 0.929 . S
C446 O437 1.250 . S
C446 O438 1.258 . S
O447 Mn432 2.162 . S
O447 C435 1.281 . S
O448 Mn432 2.297 . S
O448 C435 1.236 . S
N449 Mn433 2.282 . S
N449 C450 1.328 . S
N449 C454 1.318 . S
C450 N449 1.328 . S
C450 C451 1.457 . S
C450 H455 0.929 . S
C451 C450 1.457 . S
C451 C452 1.291 . S
C451 H464 0.931 . S
C452 C451 1.291 . S
C452 C453 1.373 . S
C452 H465 0.929 . S
C453 C452 1.373 . S
C453 C454 1.396 . S
C453 C460 1.403 . S
C454 C444 1.476 . S
C454 N449 1.318 . S
C454 C453 1.396 . S
H455 C450 0.929 . S
O456 Mn432 2.385 . S
O456 C434 1.234 . S
O457 Mn432 2.209 . S
O457 Mn433 2.215 . S
O457 C434 1.283 . S
O458 Mn432 2.094 . S
O458 C436 1.240 . S
O459 Mn433 2.117 . S
O459 C436 1.264 . S
C460 C453 1.403 . S
C460 C461 1.399 . S
C460 H466 0.929 . S
C461 C441 1.449 . S
C461 C460 1.399 . S
C461 H467 0.930 . S
H462 C442 0.931 . S
H463 C443 0.930 . S
H464 C451 0.931 . S
H465 C452 0.929 . S
H466 C460 0.929 . S
H467 C461 0.930 . S
Mn468 O473 2.095 . S
Mn468 O483 2.162 . S
Mn468 O484 2.297 . S
Mn468 O492 2.385 . S
Mn468 O493 2.209 . S
Mn468 O494 2.094 . S
Mn469 O474 2.121 . S
Mn469 N476 2.257 . S
Mn469 N485 2.282 . S
Mn469 O493 2.215 . S
Mn469 O495 2.117 . S
C470 O492 1.234 . S
C470 O493 1.283 . S
C471 O483 1.281 . S
C471 O484 1.236 . S
C472 O494 1.240 . S
C472 O495 1.264 . S
O473 Mn468 2.095 . S
O473 C482 1.250 . S
O474 Mn469 2.121 . S
O474 C482 1.258 . S
C475 N476 1.326 . S
C475 C479 1.460 . S
C475 H481 0.929 . S
N476 Mn469 2.257 . S
N476 C475 1.326 . S
N476 C480 1.362 . S
C477 C478 1.258 . S
C477 C480 1.431 . S
C477 C497 1.449 . S
C478 C477 1.258 . S
C478 C479 1.477 . S
C478 H498 0.931 . S
C479 C475 1.460 . S
C479 C478 1.477 . S
C479 H499 0.930 . S
C480 N476 1.362 . S
C480 C477 1.431 . S
C480 C490 1.476 . S
H481 C475 0.929 . S
C482 O473 1.250 . S
C482 O474 1.258 . S
O483 Mn468 2.162 . S
O483 C471 1.281 . S
O484 Mn468 2.297 . S
O484 C471 1.236 . S
N485 Mn469 2.282 . S
N485 C486 1.328 . S
N485 C490 1.318 . S
C486 N485 1.328 . S
C486 C487 1.457 . S
C486 H491 0.929 . S
C487 C486 1.457 . S
C487 C488 1.291 . S
C487 H500 0.931 . S
C488 C487 1.291 . S
C488 C489 1.373 . S
C488 H501 0.929 . S
C489 C488 1.373 . S
C489 C490 1.396 . S
C489 C496 1.403 . S
C490 C480 1.476 . S
C490 N485 1.318 . S
C490 C489 1.396 . S
H491 C486 0.929 . S
O492 Mn468 2.385 . S
O492 C470 1.234 . S
O493 Mn468 2.209 . S
O493 Mn469 2.215 . S
O493 C470 1.283 . S
O494 Mn468 2.094 . S
O494 C472 1.240 . S
O495 Mn469 2.117 . S
O495 C472 1.264 . S
C496 C489 1.403 . S
C496 C497 1.399 . S
C496 H502 0.929 . S
C497 C477 1.449 . S
C497 C496 1.399 . S
C497 H503 0.930 . S
H498 C478 0.931 . S
H499 C479 0.930 . S
H500 C487 0.931 . S
H501 C488 0.929 . S
H502 C496 0.929 . S
H503 C497 0.930 . S
Mn504 O509 2.095 . S
Mn504 O519 2.162 . S
Mn504 O520 2.297 . S
Mn504 O528 2.385 . S
Mn504 O529 2.209 . S
Mn504 O530 2.094 . S
Mn505 O510 2.121 . S
Mn505 N512 2.257 . S
Mn505 N521 2.282 . S
Mn505 O529 2.215 . S
Mn505 O531 2.117 . S
C506 O528 1.234 . S
C506 O529 1.283 . S
C507 O519 1.281 . S
C507 O520 1.236 . S
C508 O530 1.240 . S
C508 O531 1.264 . S
O509 Mn504 2.095 . S
O509 C518 1.250 . S
O510 Mn505 2.121 . S
O510 C518 1.258 . S
C511 N512 1.326 . S
C511 C515 1.460 . S
C511 H517 0.929 . S
N512 Mn505 2.257 . S
N512 C511 1.326 . S
N512 C516 1.362 . S
C513 C514 1.258 . S
C513 C516 1.431 . S
C513 C533 1.449 . S
C514 C513 1.258 . S
C514 C515 1.477 . S
C514 H534 0.931 . S
C515 C511 1.460 . S
C515 C514 1.477 . S
C515 H535 0.930 . S
C516 N512 1.362 . S
C516 C513 1.431 . S
C516 C526 1.476 . S
H517 C511 0.929 . S
C518 O509 1.250 . S
C518 O510 1.258 . S
O519 Mn504 2.162 . S
O519 C507 1.281 . S
O520 Mn504 2.297 . S
O520 C507 1.236 . S
N521 Mn505 2.282 . S
N521 C522 1.328 . S
N521 C526 1.318 . S
C522 N521 1.328 . S
C522 C523 1.457 . S
C522 H527 0.929 . S
C523 C522 1.457 . S
C523 C524 1.291 . S
C523 H536 0.931 . S
C524 C523 1.291 . S
C524 C525 1.373 . S
C524 H537 0.929 . S
C525 C524 1.373 . S
C525 C526 1.396 . S
C525 C532 1.403 . S
C526 C516 1.476 . S
C526 N521 1.318 . S
C526 C525 1.396 . S
H527 C522 0.929 . S
O528 Mn504 2.385 . S
O528 C506 1.234 . S
O529 Mn504 2.209 . S
O529 Mn505 2.215 . S
O529 C506 1.283 . S
O530 Mn504 2.094 . S
O530 C508 1.240 . S
O531 Mn505 2.117 . S
O531 C508 1.264 . S
C532 C525 1.403 . S
C532 C533 1.399 . S
C532 H538 0.929 . S
C533 C513 1.449 . S
C533 C532 1.399 . S
C533 H539 0.930 . S
H534 C514 0.931 . S
H535 C515 0.930 . S
H536 C523 0.931 . S
H537 C524 0.929 . S
H538 C532 0.929 . S
H539 C533 0.930 . S
Mn540 O545 2.095 . S
Mn540 O555 2.162 . S
Mn540 O556 2.297 . S
Mn540 O564 2.385 . S
Mn540 O565 2.209 . S
Mn540 O566 2.094 . S
Mn541 O546 2.121 . S
Mn541 N548 2.257 . S
Mn541 N557 2.282 . S
Mn541 O565 2.215 . S
Mn541 O567 2.117 . S
C542 O564 1.234 . S
C542 O565 1.283 . S
C543 O555 1.281 . S
C543 O556 1.236 . S
C544 O566 1.240 . S
C544 O567 1.264 . S
O545 Mn540 2.095 . S
O545 C554 1.250 . S
O546 Mn541 2.121 . S
O546 C554 1.258 . S
C547 N548 1.326 . S
C547 C551 1.460 . S
C547 H553 0.929 . S
N548 Mn541 2.257 . S
N548 C547 1.326 . S
N548 C552 1.362 . S
C549 C550 1.258 . S
C549 C552 1.431 . S
C549 C569 1.449 . S
C550 C549 1.258 . S
C550 C551 1.477 . S
C550 H570 0.931 . S
C551 C547 1.460 . S
C551 C550 1.477 . S
C551 H571 0.930 . S
C552 N548 1.362 . S
C552 C549 1.431 . S
C552 C562 1.476 . S
H553 C547 0.929 . S
C554 O545 1.250 . S
C554 O546 1.258 . S
O555 Mn540 2.162 . S
O555 C543 1.281 . S
O556 Mn540 2.297 . S
O556 C543 1.236 . S
N557 Mn541 2.282 . S
N557 C558 1.328 . S
N557 C562 1.318 . S
C558 N557 1.328 . S
C558 C559 1.457 . S
C558 H563 0.929 . S
C559 C558 1.457 . S
C559 C560 1.291 . S
C559 H572 0.931 . S
C560 C559 1.291 . S
C560 C561 1.373 . S
C560 H573 0.929 . S
C561 C560 1.373 . S
C561 C562 1.396 . S
C561 C568 1.403 . S
C562 C552 1.476 . S
C562 N557 1.318 . S
C562 C561 1.396 . S
H563 C558 0.929 . S
O564 Mn540 2.385 . S
O564 C542 1.234 . S
O565 Mn540 2.209 . S
O565 Mn541 2.215 . S
O565 C542 1.283 . S
O566 Mn540 2.094 . S
O566 C544 1.240 . S
O567 Mn541 2.117 . S
O567 C544 1.264 . S
C568 C561 1.403 . S
C568 C569 1.399 . S
C568 H574 0.929 . S
C569 C549 1.449 . S
C569 C568 1.399 . S
C569 H575 0.930 . S
H570 C550 0.931 . S
H571 C551 0.930 . S
H572 C559 0.931 . S
H573 C560 0.929 . S
H574 C568 0.929 . S
H575 C569 0.930 . S
H576 C582 0.930 . S
H577 C586 0.930 . S
H578 C591 0.929 . S
H579 C589 0.929 . S
H580 C584 0.929 . S
H581 C590 0.929 . S
C582 H576 0.930 . S
C582 C583 1.374 . S
C582 C590 1.378 . S
C583 C582 1.374 . S
C583 C591 1.426 1_556 S
C584 H580 0.929 . S
C584 C586 1.378 . S
C584 C588 1.350 . S
C585 C588 1.462 1_556 S
C585 C590 1.356 . S
C585 N593 1.421 1_556 S
C586 H577 0.930 . S
C586 C584 1.378 . S
C586 C587 1.367 . S
C587 C586 1.367 . S
C587 C589 1.433 1_554 S
C588 C584 1.350 . S
C588 C585 1.462 1_554 S
C588 N592 1.427 1_554 S
C589 H579 0.929 . S
C589 C587 1.433 1_556 S
C589 N592 1.384 . S
C590 H581 0.929 . S
C590 C582 1.378 . S
C590 C585 1.356 . S
C591 H578 0.929 . S
C591 C583 1.426 1_554 S
C591 N593 1.384 . S
N592 C588 1.427 1_556 S
N592 C589 1.384 . S
N593 C585 1.421 1_554 S
N593 C591 1.384 . S
H594 C600 0.930 . S
H595 C604 0.931 . S
H596 C609 0.929 . S
H597 C607 0.929 . S
H598 C602 0.929 . S
H599 C608 0.929 . S
C600 H594 0.930 . S
C600 C601 1.367 . S
C600 C608 1.378 . S
C601 C600 1.367 . S
C601 C609 1.433 1_554 S
C602 H598 0.929 . S
C602 C604 1.378 . S
C602 C606 1.350 1_556 S
C603 C606 1.462 . S
C603 C608 1.350 . S
C603 N611 1.427 1_554 S
C604 H595 0.931 . S
C604 C602 1.378 . S
C604 C605 1.367 1_556 S
C605 C604 1.367 1_554 S
C605 C607 1.433 . S
C606 C602 1.350 1_554 S
C606 C603 1.462 . S
C606 N610 1.428 . S
C607 H597 0.929 . S
C607 C605 1.433 . S
C607 N610 1.384 . S
C608 H599 0.929 . S
C608 C600 1.378 . S
C608 C603 1.350 . S
C609 H596 0.929 . S
C609 C601 1.433 1_556 S
C609 N611 1.384 . S
N610 C606 1.428 . S
N610 C607 1.384 . S
N611 C603 1.427 1_556 S
N611 C609 1.384 . S
H612 C618 0.930 . S
H613 C622 0.930 . S
H614 C627 0.929 . S
H615 C625 0.929 . S
H616 C620 0.929 . S
H617 C626 0.929 . S
C618 H612 0.930 . S
C618 C619 1.384 . S
C618 C626 1.378 . S
C619 C618 1.384 . S
C619 C627 1.416 1_556 S
C620 H616 0.929 . S
C620 C622 1.378 . S
C620 C624 1.350 . S
C621 C624 1.461 1_556 S
C621 C626 1.369 . S
C621 N629 1.408 1_556 S
C622 H613 0.930 . S
C622 C620 1.378 . S
C622 C623 1.367 . S
C623 C622 1.367 . S
C623 C625 1.433 1_554 S
C624 C620 1.350 . S
C624 C621 1.461 1_554 S
C624 N628 1.427 1_554 S
C625 H615 0.929 . S
C625 C623 1.433 1_556 S
C625 N628 1.384 . S
C626 H617 0.929 . S
C626 C618 1.378 . S
C626 C621 1.369 . S
C627 H614 0.929 . S
C627 C619 1.416 1_554 S
C627 N629 1.384 . S
N628 C624 1.427 1_556 S
N628 C625 1.384 . S
N629 C621 1.408 1_554 S
N629 C627 1.384 . S
H630 C636 0.930 . S
H631 C640 0.930 . S
H632 C645 0.929 . S
H633 C643 0.929 . S
H634 C638 0.929 . S
H635 C644 0.929 . S
C636 H630 0.930 . S
C636 C637 1.368 . S
C636 C644 1.378 . S
C637 C636 1.368 . S
C637 C645 1.432 1_556 S
C638 H634 0.929 . S
C638 C640 1.378 . S
C638 C642 1.350 . S
C639 C642 1.463 1_556 S
C639 C644 1.350 . S
C639 N647 1.428 1_556 S
C640 H631 0.930 . S
C640 C638 1.378 . S
C640 C641 1.367 . S
C641 C640 1.367 . S
C641 C643 1.433 1_554 S
C642 C638 1.350 . S
C642 C639 1.463 1_554 S
C642 N646 1.427 1_554 S
C643 H633 0.929 . S
C643 C641 1.433 1_556 S
C643 N646 1.384 . S
C644 H635 0.929 . S
C644 C636 1.378 . S
C644 C639 1.350 . S
C645 H632 0.929 . S
C645 C637 1.432 1_554 S
C645 N647 1.384 . S
N646 C642 1.427 1_556 S
N646 C643 1.384 . S
N647 C639 1.428 1_554 S
N647 C645 1.384 . S
H648 C654 0.930 . S
H649 C658 0.930 . S
H650 C663 0.929 . S
H651 C661 0.929 . S
H652 C656 0.929 . S
H653 C662 0.929 . S
C654 H648 0.930 . S
C654 C655 1.367 . S
C654 C662 1.378 . S
C655 C654 1.367 . S
C655 C663 1.433 . S
C656 H652 0.929 . S
C656 C658 1.378 . S
C656 C660 1.350 . S
C657 C660 1.463 1_545 S
C657 C662 1.350 . S
C657 N665 1.427 . S
C658 H649 0.930 . S
C658 C656 1.378 . S
C658 C659 1.367 . S
C659 C658 1.367 . S
C659 C661 1.433 . S
C660 C656 1.350 . S
C660 C657 1.463 1_565 S
C660 N664 1.427 . S
C661 H651 0.929 . S
C661 C659 1.433 . S
C661 N664 1.384 . S
C662 H653 0.929 . S
C662 C654 1.378 . S
C662 C657 1.350 . S
C663 H650 0.929 . S
C663 C655 1.433 . S
C663 N665 1.384 . S
N664 C660 1.427 . S
N664 C661 1.384 . S
N665 C657 1.427 . S
N665 C663 1.384 . S
H666 C672 0.930 . S
H667 C676 0.930 . S
H668 C681 0.929 . S
H669 C679 0.929 . S
H670 C674 0.929 . S
H671 C680 0.929 . S
C672 H666 0.930 . S
C672 C673 1.367 . S
C672 C680 1.378 . S
C673 C672 1.367 . S
C673 C681 1.433 . S
C674 H670 0.929 . S
C674 C676 1.378 . S
C674 C678 1.350 . S
C675 C678 1.463 1_655 S
C675 C680 1.350 . S
C675 N683 1.427 . S
C676 H667 0.930 . S
C676 C674 1.378 . S
C676 C677 1.367 . S
C677 C676 1.367 . S
C677 C679 1.433 . S
C678 C674 1.350 . S
C678 C675 1.463 1_455 S
C678 N682 1.427 . S
C679 H669 0.929 . S
C679 C677 1.433 . S
C679 N682 1.384 . S
C680 H671 0.929 . S
C680 C672 1.378 . S
C680 C675 1.350 . S
C681 H668 0.929 . S
C681 C673 1.433 . S
C681 N683 1.384 . S
N682 C678 1.427 . S
N682 C679 1.384 . S
N683 C675 1.427 . S
N683 C681 1.384 . S
H684 C690 0.930 . S
H685 C694 0.930 . S
H686 C699 0.929 . S
H687 C697 0.929 . S
H688 C692 0.929 . S
H689 C698 0.929 . S
C690 H684 0.930 . S
C690 C691 1.367 . S
C690 C698 1.378 . S
C691 C690 1.367 . S
C691 C699 1.433 . S
C692 H688 0.929 . S
C692 C694 1.378 . S
C692 C696 1.350 . S
C693 C696 1.463 1_545 S
C693 C698 1.350 . S
C693 N701 1.427 . S
C694 H685 0.930 . S
C694 C692 1.378 . S
C694 C695 1.367 . S
C695 C694 1.367 . S
C695 C697 1.433 . S
C696 C692 1.350 . S
C696 C693 1.463 1_565 S
C696 N700 1.427 . S
C697 H687 0.929 . S
C697 C695 1.433 . S
C697 N700 1.384 . S
C698 H689 0.929 . S
C698 C690 1.378 . S
C698 C693 1.350 . S
C699 H686 0.929 . S
C699 C691 1.433 . S
C699 N701 1.384 . S
N700 C696 1.427 . S
N700 C697 1.384 . S
N701 C693 1.427 . S
N701 C699 1.384 . S
H702 C708 0.930 . S
H703 C712 0.930 . S
H704 C717 0.929 . S
H705 C715 0.929 . S
H706 C710 0.929 . S
H707 C716 0.929 . S
C708 H702 0.930 . S
C708 C709 1.367 . S
C708 C716 1.378 . S
C709 C708 1.367 . S
C709 C717 1.433 . S
C710 H706 0.929 . S
C710 C712 1.378 . S
C710 C714 1.350 . S
C711 C714 1.463 1_455 S
C711 C716 1.350 . S
C711 N719 1.427 . S
C712 H703 0.930 . S
C712 C710 1.378 . S
C712 C713 1.367 . S
C713 C712 1.367 . S
C713 C715 1.433 . S
C714 C710 1.350 . S
C714 C711 1.463 1_655 S
C714 N718 1.427 . S
C715 H705 0.929 . S
C715 C713 1.433 . S
C715 N718 1.384 . S
C716 H707 0.929 . S
C716 C708 1.378 . S
C716 C711 1.350 . S
C717 H704 0.929 . S
C717 C709 1.433 . S
C717 N719 1.384 . S
N718 C714 1.427 . S
N718 C715 1.384 . S
N719 C711 1.427 . S
N719 C717 1.384 . S
H720 C726 0.930 . S
H721 C730 0.930 . S
H722 C735 0.929 . S
H723 C733 0.929 . S
H724 C728 0.929 . S
H725 C734 0.929 . S
C726 H720 0.930 . S
C726 C727 1.367 1_556 S
C726 C734 1.378 . S
C727 C726 1.367 1_554 S
C727 C735 1.433 . S
C728 H724 0.929 . S
C728 C730 1.378 . S
C728 C732 1.350 . S
C729 C732 1.463 1_556 S
C729 C734 1.348 . S
C729 N737 1.429 1_556 S
C730 H721 0.930 . S
C730 C728 1.378 . S
C730 C731 1.367 1_554 S
C731 C730 1.367 1_556 S
C731 C733 1.433 . S
C732 C728 1.350 . S
C732 C729 1.463 1_554 S
C732 N736 1.427 1_554 S
C733 H723 0.929 . S
C733 C731 1.433 . S
C733 N736 1.384 . S
C734 H725 0.929 . S
C734 C726 1.378 . S
C734 C729 1.348 . S
C735 H722 0.929 . S
C735 C727 1.433 . S
C735 N737 1.384 . S
N736 C732 1.427 1_556 S
N736 C733 1.384 . S
N737 C729 1.429 1_554 S
N737 C735 1.384 . S
H738 C744 0.930 . S
H739 C748 0.930 . S
H740 C753 0.929 . S
H741 C751 0.929 . S
H742 C746 0.929 . S
H743 C752 0.929 . S
C744 H738 0.930 . S
C744 C745 1.367 . S
C744 C752 1.378 . S
C745 C744 1.367 . S
C745 C753 1.433 1_556 S
C746 H742 0.929 . S
C746 C748 1.378 . S
C746 C750 1.350 . S
C747 C750 1.462 1_556 S
C747 C752 1.358 . S
C747 N755 1.420 1_556 S
C748 H739 0.930 . S
C748 C746 1.378 . S
C748 C749 1.367 . S
C749 C748 1.367 . S
C749 C751 1.433 1_554 S
C750 C746 1.350 . S
C750 C747 1.462 1_554 S
C750 N754 1.427 1_554 S
C751 H741 0.929 . S
C751 C749 1.433 1_556 S
C751 N754 1.384 . S
C752 H743 0.929 . S
C752 C744 1.378 . S
C752 C747 1.358 . S
C753 H740 0.929 . S
C753 C745 1.433 1_554 S
C753 N755 1.384 . S
N754 C750 1.427 1_556 S
N754 C751 1.384 . S
N755 C747 1.420 1_554 S
N755 C753 1.384 . S
H756 C762 0.930 . S
H757 C766 0.930 . S
H758 C771 0.929 . S
H759 C769 0.929 . S
H760 C764 0.929 . S
H761 C770 0.929 . S
C762 H756 0.930 . S
C762 C763 1.367 . S
C762 C770 1.378 . S
C763 C762 1.367 . S
C763 C771 1.433 1_554 S
C764 H760 0.929 . S
C764 C766 1.378 . S
C764 C768 1.350 . S
C765 C768 1.463 1_554 S
C765 C770 1.350 . S
C765 N773 1.427 1_554 S
C766 H757 0.930 . S
C766 C764 1.378 . S
C766 C767 1.367 . S
C767 C766 1.367 . S
C767 C769 1.433 1_556 S
C768 C764 1.350 . S
C768 C765 1.463 1_556 S
C768 N772 1.427 1_556 S
C769 H759 0.929 . S
C769 C767 1.433 1_554 S
C769 N772 1.384 . S
C770 H761 0.929 . S
C770 C762 1.378 . S
C770 C765 1.350 . S
C771 H758 0.929 . S
C771 C763 1.433 1_556 S
C771 N773 1.384 . S
N772 C768 1.427 1_554 S
N772 C769 1.384 . S
N773 C765 1.427 1_556 S
N773 C771 1.384 . S
H774 C780 0.930 . S
H775 C784 0.930 . S
H776 C789 0.929 . S
H777 C787 0.929 . S
H778 C782 0.929 . S
H779 C788 0.929 . S
C780 H774 0.930 . S
C780 C781 1.367 1_554 S
C780 C788 1.378 . S
C781 C780 1.367 1_556 S
C781 C789 1.433 . S
C782 H778 0.929 . S
C782 C784 1.378 . S
C782 C786 1.352 1_556 S
C783 C786 1.462 . S
C783 C788 1.350 . S
C783 N791 1.427 1_554 S
C784 H775 0.930 . S
C784 C782 1.378 . S
C784 C785 1.367 1_556 S
C785 C784 1.367 1_554 S
C785 C787 1.433 . S
C786 C782 1.352 1_554 S
C786 C783 1.462 . S
C786 N790 1.426 . S
C787 H777 0.929 . S
C787 C785 1.433 . S
C787 N790 1.384 . S
C788 H779 0.929 . S
C788 C780 1.378 . S
C788 C783 1.350 . S
C789 H776 0.929 . S
C789 C781 1.433 . S
C789 N791 1.384 . S
N790 C786 1.426 . S
N790 C787 1.384 . S
N791 C783 1.427 1_556 S
N791 C789 1.384 . S
H792 C798 0.930 . S
H793 C802 0.930 . S
H794 C807 0.929 . S
H795 C805 0.929 . S
H796 C800 0.929 . S
H797 C806 0.929 . S
C798 H792 0.930 . S
C798 C799 1.367 . S
C798 C806 1.378 . S
C799 C798 1.367 . S
C799 C807 1.433 . S
C800 H796 0.929 . S
C800 C802 1.378 . S
C800 C804 1.350 . S
C801 C804 1.463 . S
C801 C806 1.350 . S
C801 N809 1.427 . S
C802 H793 0.930 . S
C802 C800 1.378 . S
C802 C803 1.367 . S
C803 C802 1.367 . S
C803 C805 1.433 . S
C804 C800 1.350 . S
C804 C801 1.463 . S
C804 N808 1.427 . S
C805 H795 0.929 . S
C805 C803 1.433 . S
C805 N808 1.384 . S
C806 H797 0.929 . S
C806 C798 1.378 . S
C806 C801 1.350 . S
C807 H794 0.929 . S
C807 C799 1.433 . S
C807 N809 1.384 . S
N808 C804 1.427 . S
N808 C805 1.384 . S
N809 C801 1.427 . S
N809 C807 1.384 . S
H810 C816 0.930 . S
H811 C820 0.930 . S
H812 C825 0.929 . S
H813 C823 0.929 . S
H814 C818 0.929 . S
H815 C824 0.929 . S
C816 H810 0.930 . S
C816 C817 1.367 . S
C816 C824 1.378 . S
C817 C816 1.367 . S
C817 C825 1.433 . S
C818 H814 0.929 . S
C818 C820 1.378 . S
C818 C822 1.350 . S
C819 C822 1.463 . S
C819 C824 1.350 . S
C819 N827 1.427 . S
C820 H811 0.930 . S
C820 C818 1.378 . S
C820 C821 1.367 . S
C821 C820 1.367 . S
C821 C823 1.433 . S
C822 C818 1.350 . S
C822 C819 1.463 . S
C822 N826 1.427 . S
C823 H813 0.929 . S
C823 C821 1.433 . S
C823 N826 1.384 . S
C824 H815 0.929 . S
C824 C816 1.378 . S
C824 C819 1.350 . S
C825 H812 0.929 . S
C825 C817 1.433 . S
C825 N827 1.384 . S
N826 C822 1.427 . S
N826 C823 1.384 . S
N827 C819 1.427 . S
N827 C825 1.384 . S
H828 C834 0.930 . S
H829 C838 0.930 . S
H830 C843 0.929 . S
H831 C841 0.929 . S
H832 C836 0.929 . S
H833 C842 0.929 . S
C834 H828 0.930 . S
C834 C835 1.367 . S
C834 C842 1.378 . S
C835 C834 1.367 . S
C835 C843 1.433 . S
C836 H832 0.929 . S
C836 C838 1.378 . S
C836 C840 1.350 . S
C837 C840 1.463 . S
C837 C842 1.350 . S
C837 N845 1.427 . S
C838 H829 0.930 . S
C838 C836 1.378 . S
C838 C839 1.367 . S
C839 C838 1.367 . S
C839 C841 1.433 . S
C840 C836 1.350 . S
C840 C837 1.463 . S
C840 N844 1.427 . S
C841 H831 0.929 . S
C841 C839 1.433 . S
C841 N844 1.384 . S
C842 H833 0.929 . S
C842 C834 1.378 . S
C842 C837 1.350 . S
C843 H830 0.929 . S
C843 C835 1.433 . S
C843 N845 1.384 . S
N844 C840 1.427 . S
N844 C841 1.384 . S
N845 C837 1.427 . S
N845 C843 1.384 . S
H846 C852 0.930 . S
H847 C856 0.930 . S
H848 C861 0.929 . S
H849 C859 0.929 . S
H850 C854 0.929 . S
H851 C860 0.929 . S
C852 H846 0.930 . S
C852 C853 1.367 . S
C852 C860 1.378 . S
C853 C852 1.367 . S
C853 C861 1.433 . S
C854 H850 0.929 . S
C854 C856 1.378 . S
C854 C858 1.350 . S
C855 C858 1.463 . S
C855 C860 1.350 . S
C855 N863 1.427 . S
C856 H847 0.930 . S
C856 C854 1.378 . S
C856 C857 1.367 . S
C857 C856 1.367 . S
C857 C859 1.433 . S
C858 C854 1.350 . S
C858 C855 1.463 . S
C858 N862 1.427 . S
C859 H849 0.929 . S
C859 C857 1.433 . S
C859 N862 1.384 . S
C860 H851 0.929 . S
C860 C852 1.378 . S
C860 C855 1.350 . S
C861 H848 0.929 . S
C861 C853 1.433 . S
C861 N863 1.384 . S
N862 C858 1.427 . S
N862 C859 1.384 . S
N863 C855 1.427 . S
N863 C861 1.384 . S
H864 C870 0.930 . S
H865 C874 0.930 . S
H866 C879 0.929 . S
H867 C877 0.929 . S
H868 C872 0.929 . S
H869 C878 0.929 . S
C870 H864 0.930 . S
C870 C871 1.367 . S
C870 C878 1.378 . S
C871 C870 1.367 . S
C871 C879 1.433 . S
C872 H868 0.929 . S
C872 C874 1.378 . S
C872 C876 1.350 . S
C873 C876 1.463 . S
C873 C878 1.350 . S
C873 N881 1.427 . S
C874 H865 0.930 . S
C874 C872 1.378 . S
C874 C875 1.367 . S
C875 C874 1.367 . S
C875 C877 1.433 . S
C876 C872 1.350 . S
C876 C873 1.463 . S
C876 N880 1.427 . S
C877 H867 0.929 . S
C877 C875 1.433 . S
C877 N880 1.384 . S
C878 H869 0.929 . S
C878 C870 1.378 . S
C878 C873 1.350 . S
C879 H866 0.929 . S
C879 C871 1.433 . S
C879 N881 1.384 . S
N880 C876 1.427 . S
N880 C877 1.384 . S
N881 C873 1.427 . S
N881 C879 1.384 . S
H882 C888 0.930 . S
H883 C892 0.930 . S
H884 C897 0.929 . S
H885 C895 0.929 . S
H886 C890 0.929 . S
H887 C896 0.929 . S
C888 H882 0.930 . S
C888 C889 1.367 . S
C888 C896 1.378 . S
C889 C888 1.367 . S
C889 C897 1.433 . S
C890 H886 0.929 . S
C890 C892 1.378 . S
C890 C894 1.350 . S
C891 C894 1.463 . S
C891 C896 1.350 . S
C891 N899 1.427 . S
C892 H883 0.930 . S
C892 C890 1.378 . S
C892 C893 1.367 . S
C893 C892 1.367 . S
C893 C895 1.433 . S
C894 C890 1.350 . S
C894 C891 1.463 . S
C894 N898 1.427 . S
C895 H885 0.929 . S
C895 C893 1.433 . S
C895 N898 1.384 . S
C896 H887 0.929 . S
C896 C888 1.378 . S
C896 C891 1.350 . S
C897 H884 0.929 . S
C897 C889 1.433 . S
C897 N899 1.384 . S
N898 C894 1.427 . S
N898 C895 1.384 . S
N899 C891 1.427 . S
N899 C897 1.384 . S
H900 C906 0.930 . S
H901 C910 0.930 . S
H902 C915 0.929 . S
H903 C913 0.929 . S
H904 C908 0.929 . S
H905 C914 0.929 . S
C906 H900 0.930 . S
C906 C907 1.367 . S
C906 C914 1.378 . S
C907 C906 1.367 . S
C907 C915 1.433 . S
C908 H904 0.929 . S
C908 C910 1.378 . S
C908 C912 1.350 . S
C909 C912 1.463 . S
C909 C914 1.350 . S
C909 N917 1.427 . S
C910 H901 0.930 . S
C910 C908 1.378 . S
C910 C911 1.367 . S
C911 C910 1.367 . S
C911 C913 1.433 . S
C912 C908 1.350 . S
C912 C909 1.463 . S
C912 N916 1.427 . S
C913 H903 0.929 . S
C913 C911 1.433 . S
C913 N916 1.384 . S
C914 H905 0.929 . S
C914 C906 1.378 . S
C914 C909 1.350 . S
C915 H902 0.929 . S
C915 C907 1.433 . S
C915 N917 1.384 . S
N916 C912 1.427 . S
N916 C913 1.384 . S
N917 C909 1.427 . S
N917 C915 1.384 . S
H918 C924 0.930 . S
H919 C928 0.930 . S
H920 C933 0.929 . S
H921 C931 0.929 . S
H922 C926 0.929 . S
H923 C932 0.929 . S
C924 H918 0.930 . S
C924 C925 1.367 . S
C924 C932 1.378 . S
C925 C924 1.367 . S
C925 C933 1.433 . S
C926 H922 0.929 . S
C926 C928 1.378 . S
C926 C930 1.350 . S
C927 C930 1.463 . S
C927 C932 1.350 . S
C927 N935 1.427 . S
C928 H919 0.930 . S
C928 C926 1.378 . S
C928 C929 1.367 . S
C929 C928 1.367 . S
C929 C931 1.433 . S
C930 C926 1.350 . S
C930 C927 1.463 . S
C930 N934 1.427 . S
C931 H921 0.929 . S
C931 C929 1.433 . S
C931 N934 1.384 . S
C932 H923 0.929 . S
C932 C924 1.378 . S
C932 C927 1.350 . S
C933 H920 0.929 . S
C933 C925 1.433 . S
C933 N935 1.384 . S
N934 C930 1.427 . S
N934 C931 1.384 . S
N935 C927 1.427 . S
N935 C933 1.384 . S
H936 C942 0.930 . S
H937 C946 0.930 . S
H938 C951 0.929 . S
H939 C949 0.929 . S
H940 C944 0.929 . S
H941 C950 0.929 . S
C942 H936 0.930 . S
C942 C943 1.367 . S
C942 C950 1.378 . S
C943 C942 1.367 . S
C943 C951 1.433 . S
C944 H940 0.929 . S
C944 C946 1.378 . S
C944 C948 1.350 . S
C945 C948 1.463 . S
C945 C950 1.350 . S
C945 N953 1.427 . S
C946 H937 0.930 . S
C946 C944 1.378 . S
C946 C947 1.367 . S
C947 C946 1.367 . S
C947 C949 1.433 . S
C948 C944 1.350 . S
C948 C945 1.463 . S
C948 N952 1.427 . S
C949 H939 0.929 . S
C949 C947 1.433 . S
C949 N952 1.384 . S
C950 H941 0.929 . S
C950 C942 1.378 . S
C950 C945 1.350 . S
C951 H938 0.929 . S
C951 C943 1.433 . S
C951 N953 1.384 . S
N952 C948 1.427 . S
N952 C949 1.384 . S
N953 C945 1.427 . S
N953 C951 1.384 . S
H954 C960 0.930 . S
H955 C964 0.930 . S
H956 C969 0.929 . S
H957 C967 0.929 . S
H958 C962 0.929 . S
H959 C968 0.929 . S
C960 H954 0.930 . S
C960 C961 1.367 . S
C960 C968 1.378 . S
C961 C960 1.367 . S
C961 C969 1.433 . S
C962 H958 0.929 . S
C962 C964 1.378 . S
C962 C966 1.350 . S
C963 C966 1.463 . S
C963 C968 1.350 . S
C963 N971 1.427 . S
C964 H955 0.930 . S
C964 C962 1.378 . S
C964 C965 1.367 . S
C965 C964 1.367 . S
C965 C967 1.433 . S
C966 C962 1.350 . S
C966 C963 1.463 . S
C966 N970 1.427 . S
C967 H957 0.929 . S
C967 C965 1.433 . S
C967 N970 1.384 . S
C968 H959 0.929 . S
C968 C960 1.378 . S
C968 C963 1.350 . S
C969 H956 0.929 . S
C969 C961 1.433 . S
C969 N971 1.384 . S
N970 C966 1.427 . S
N970 C967 1.384 . S
N971 C963 1.427 . S
N971 C969 1.384 . S
H972 C978 0.930 . S
H973 C982 0.930 . S
H974 C987 0.929 . S
H975 C985 0.929 . S
H976 C980 0.929 . S
H977 C986 0.929 . S
C978 H972 0.930 . S
C978 C979 1.367 . S
C978 C986 1.378 . S
C979 C978 1.367 . S
C979 C987 1.433 . S
C980 H976 0.929 . S
C980 C982 1.378 . S
C980 C984 1.350 . S
C981 C984 1.463 . S
C981 C986 1.350 . S
C981 N989 1.427 . S
C982 H973 0.930 . S
C982 C980 1.378 . S
C982 C983 1.367 . S
C983 C982 1.367 . S
C983 C985 1.433 . S
C984 C980 1.350 . S
C984 C981 1.463 . S
C984 N988 1.427 . S
C985 H975 0.929 . S
C985 C983 1.433 . S
C985 N988 1.384 . S
C986 H977 0.929 . S
C986 C978 1.378 . S
C986 C981 1.350 . S
C987 H974 0.929 . S
C987 C979 1.433 . S
C987 N989 1.384 . S
N988 C984 1.427 . S
N988 C985 1.384 . S
N989 C981 1.427 . S
N989 C987 1.384 . S
H990 C996 0.930 . S
H991 C1000 0.930 . S
H992 C1005 0.929 . S
H993 C1003 0.929 . S
H994 C998 0.929 . S
H995 C1004 0.929 . S
C996 H990 0.930 . S
C996 C997 1.367 . S
C996 C1004 1.378 . S
C997 C996 1.367 . S
C997 C1005 1.433 . S
C998 H994 0.929 . S
C998 C1000 1.378 . S
C998 C1002 1.350 . S
C999 C1002 1.463 . S
C999 C1004 1.350 . S
C999 N1007 1.427 . S
C1000 H991 0.930 . S
C1000 C998 1.378 . S
C1000 C1001 1.367 . S
C1001 C1000 1.367 . S
C1001 C1003 1.433 . S
C1002 C998 1.350 . S
C1002 C999 1.463 . S
C1002 N1006 1.427 . S
C1003 H993 0.929 . S
C1003 C1001 1.433 . S
C1003 N1006 1.384 . S
C1004 H995 0.929 . S
C1004 C996 1.378 . S
C1004 C999 1.350 . S
C1005 H992 0.929 . S
C1005 C997 1.433 . S
C1005 N1007 1.384 . S
N1006 C1002 1.427 . S
N1006 C1003 1.384 . S
N1007 C999 1.427 . S
N1007 C1005 1.384 . S
H1008 C1014 0.930 . S
H1009 C1018 0.930 . S
H1010 C1023 0.929 . S
H1011 C1021 0.929 . S
H1012 C1016 0.929 . S
H1013 C1022 0.929 . S
C1014 H1008 0.930 . S
C1014 C1015 1.367 . S
C1014 C1022 1.378 . S
C1015 C1014 1.367 . S
C1015 C1023 1.433 . S
C1016 H1012 0.929 . S
C1016 C1018 1.378 . S
C1016 C1020 1.350 . S
C1017 C1020 1.463 . S
C1017 C1022 1.350 . S
C1017 N1025 1.427 . S
C1018 H1009 0.930 . S
C1018 C1016 1.378 . S
C1018 C1019 1.367 . S
C1019 C1018 1.367 . S
C1019 C1021 1.433 . S
C1020 C1016 1.350 . S
C1020 C1017 1.463 . S
C1020 N1024 1.427 . S
C1021 H1011 0.929 . S
C1021 C1019 1.433 . S
C1021 N1024 1.384 . S
C1022 H1013 0.929 . S
C1022 C1014 1.378 . S
C1022 C1017 1.350 . S
C1023 H1010 0.929 . S
C1023 C1015 1.433 . S
C1023 N1025 1.384 . S
N1024 C1020 1.427 . S
N1024 C1021 1.384 . S
N1025 C1017 1.427 . S
N1025 C1023 1.384 . S
H1026 C1032 0.930 . S
H1027 C1036 0.930 . S
H1028 C1041 0.929 . S
H1029 C1039 0.929 . S
H1030 C1034 0.929 . S
H1031 C1040 0.929 . S
C1032 H1026 0.930 . S
C1032 C1033 1.367 . S
C1032 C1040 1.378 . S
C1033 C1032 1.367 . S
C1033 C1041 1.433 . S
C1034 H1030 0.929 . S
C1034 C1036 1.378 . S
C1034 C1038 1.350 . S
C1035 C1038 1.463 . S
C1035 C1040 1.350 . S
C1035 N1043 1.427 . S
C1036 H1027 0.930 . S
C1036 C1034 1.378 . S
C1036 C1037 1.367 . S
C1037 C1036 1.367 . S
C1037 C1039 1.433 . S
C1038 C1034 1.350 . S
C1038 C1035 1.463 . S
C1038 N1042 1.427 . S
C1039 H1029 0.929 . S
C1039 C1037 1.433 . S
C1039 N1042 1.384 . S
C1040 H1031 0.929 . S
C1040 C1032 1.378 . S
C1040 C1035 1.350 . S
C1041 H1028 0.929 . S
C1041 C1033 1.433 . S
C1041 N1043 1.384 . S
N1042 C1038 1.427 . S
N1042 C1039 1.384 . S
N1043 C1035 1.427 . S
N1043 C1041 1.384 . S
H1044 C1050 0.930 . S
H1045 C1054 0.930 . S
H1046 C1059 0.929 . S
H1047 C1057 0.929 . S
H1048 C1052 0.929 . S
H1049 C1058 0.929 . S
C1050 H1044 0.930 . S
C1050 C1051 1.367 . S
C1050 C1058 1.378 . S
C1051 C1050 1.367 . S
C1051 C1059 1.433 . S
C1052 H1048 0.929 . S
C1052 C1054 1.378 . S
C1052 C1056 1.350 . S
C1053 C1056 1.463 . S
C1053 C1058 1.350 . S
C1053 N1061 1.427 . S
C1054 H1045 0.930 . S
C1054 C1052 1.378 . S
C1054 C1055 1.367 . S
C1055 C1054 1.367 . S
C1055 C1057 1.433 . S
C1056 C1052 1.350 . S
C1056 C1053 1.463 . S
C1056 N1060 1.427 . S
C1057 H1047 0.929 . S
C1057 C1055 1.433 . S
C1057 N1060 1.384 . S
C1058 H1049 0.929 . S
C1058 C1050 1.378 . S
C1058 C1053 1.350 . S
C1059 H1046 0.929 . S
C1059 C1051 1.433 . S
C1059 N1061 1.384 . S
N1060 C1056 1.427 . S
N1060 C1057 1.384 . S
N1061 C1053 1.427 . S
N1061 C1059 1.384 . S
H1062 C1068 0.930 . S
H1063 C1072 0.930 . S
H1064 C1077 0.929 . S
H1065 C1075 0.929 . S
H1066 C1070 0.929 . S
H1067 C1076 0.929 . S
C1068 H1062 0.930 . S
C1068 C1069 1.367 . S
C1068 C1076 1.378 . S
C1069 C1068 1.367 . S
C1069 C1077 1.433 . S
C1070 H1066 0.929 . S
C1070 C1072 1.378 . S
C1070 C1074 1.350 . S
C1071 C1074 1.463 . S
C1071 C1076 1.350 . S
C1071 N1079 1.427 . S
C1072 H1063 0.930 . S
C1072 C1070 1.378 . S
C1072 C1073 1.367 . S
C1073 C1072 1.367 . S
C1073 C1075 1.433 . S
C1074 C1070 1.350 . S
C1074 C1071 1.463 . S
C1074 N1078 1.427 . S
C1075 H1065 0.929 . S
C1075 C1073 1.433 . S
C1075 N1078 1.384 . S
C1076 H1067 0.929 . S
C1076 C1068 1.378 . S
C1076 C1071 1.350 . S
C1077 H1064 0.929 . S
C1077 C1069 1.433 . S
C1077 N1079 1.384 . S
N1078 C1074 1.427 . S
N1078 C1075 1.384 . S
N1079 C1071 1.427 . S
N1079 C1077 1.384 . S
H1080 C1086 0.930 . S
H1081 C1090 0.930 . S
H1082 C1095 0.929 . S
H1083 C1093 0.929 . S
H1084 C1088 0.929 . S
H1085 C1094 0.929 . S
C1086 H1080 0.930 . S
C1086 C1087 1.367 . S
C1086 C1094 1.378 . S
C1087 C1086 1.367 . S
C1087 C1095 1.433 . S
C1088 H1084 0.929 . S
C1088 C1090 1.378 . S
C1088 C1092 1.350 . S
C1089 C1092 1.463 . S
C1089 C1094 1.350 . S
C1089 N1097 1.427 . S
C1090 H1081 0.930 . S
C1090 C1088 1.378 . S
C1090 C1091 1.367 . S
C1091 C1090 1.367 . S
C1091 C1093 1.433 . S
C1092 C1088 1.350 . S
C1092 C1089 1.463 . S
C1092 N1096 1.427 . S
C1093 H1083 0.929 . S
C1093 C1091 1.433 . S
C1093 N1096 1.384 . S
C1094 H1085 0.929 . S
C1094 C1086 1.378 . S
C1094 C1089 1.350 . S
C1095 H1082 0.929 . S
C1095 C1087 1.433 . S
C1095 N1097 1.384 . S
N1096 C1092 1.427 . S
N1096 C1093 1.384 . S
N1097 C1089 1.427 . S
N1097 C1095 1.384 . S
H1098 C1104 0.930 . S
H1099 C1108 0.930 . S
H1100 C1113 0.929 . S
H1101 C1111 0.929 . S
H1102 C1106 0.929 . S
H1103 C1112 0.929 . S
C1104 H1098 0.930 . S
C1104 C1105 1.367 . S
C1104 C1112 1.378 . S
C1105 C1104 1.367 . S
C1105 C1113 1.433 . S
C1106 H1102 0.929 . S
C1106 C1108 1.378 . S
C1106 C1110 1.350 . S
C1107 C1110 1.463 . S
C1107 C1112 1.350 . S
C1107 N1115 1.427 . S
C1108 H1099 0.930 . S
C1108 C1106 1.378 . S
C1108 C1109 1.367 . S
C1109 C1108 1.367 . S
C1109 C1111 1.433 . S
C1110 C1106 1.350 . S
C1110 C1107 1.463 . S
C1110 N1114 1.427 . S
C1111 H1101 0.929 . S
C1111 C1109 1.433 . S
C1111 N1114 1.384 . S
C1112 H1103 0.929 . S
C1112 C1104 1.378 . S
C1112 C1107 1.350 . S
C1113 H1100 0.929 . S
C1113 C1105 1.433 . S
C1113 N1115 1.384 . S
N1114 C1110 1.427 . S
N1114 C1111 1.384 . S
N1115 C1107 1.427 . S
N1115 C1113 1.384 . S
H1116 C1122 0.930 . S
H1117 C1126 0.930 . S
H1118 C1131 0.929 . S
H1119 C1129 0.929 . S
H1120 C1124 0.929 . S
H1121 C1130 0.929 . S
C1122 H1116 0.930 . S
C1122 C1123 1.367 . S
C1122 C1130 1.378 . S
C1123 C1122 1.367 . S
C1123 C1131 1.433 . S
C1124 H1120 0.929 . S
C1124 C1126 1.378 . S
C1124 C1128 1.350 . S
C1125 C1128 1.463 . S
C1125 C1130 1.350 . S
C1125 N1133 1.427 . S
C1126 H1117 0.930 . S
C1126 C1124 1.378 . S
C1126 C1127 1.367 . S
C1127 C1126 1.367 . S
C1127 C1129 1.433 . S
C1128 C1124 1.350 . S
C1128 C1125 1.463 . S
C1128 N1132 1.427 . S
C1129 H1119 0.929 . S
C1129 C1127 1.433 . S
C1129 N1132 1.384 . S
C1130 H1121 0.929 . S
C1130 C1122 1.378 . S
C1130 C1125 1.350 . S
C1131 H1118 0.929 . S
C1131 C1123 1.433 . S
C1131 N1133 1.384 . S
N1132 C1128 1.427 . S
N1132 C1129 1.384 . S
N1133 C1125 1.427 . S
N1133 C1131 1.384 . S
H1134 C1140 0.930 . S
H1135 C1144 0.930 . S
H1136 C1149 0.929 . S
H1137 C1147 0.929 . S
H1138 C1142 0.929 . S
H1139 C1148 0.929 . S
C1140 H1134 0.930 . S
C1140 C1141 1.367 . S
C1140 C1148 1.378 . S
C1141 C1140 1.367 . S
C1141 C1149 1.433 . S
C1142 H1138 0.929 . S
C1142 C1144 1.378 . S
C1142 C1146 1.350 . S
C1143 C1146 1.463 . S
C1143 C1148 1.350 . S
C1143 N1151 1.427 . S
C1144 H1135 0.930 . S
C1144 C1142 1.378 . S
C1144 C1145 1.367 . S
C1145 C1144 1.367 . S
C1145 C1147 1.433 . S
C1146 C1142 1.350 . S
C1146 C1143 1.463 . S
C1146 N1150 1.427 . S
C1147 H1137 0.929 . S
C1147 C1145 1.433 . S
C1147 N1150 1.384 . S
C1148 H1139 0.929 . S
C1148 C1140 1.378 . S
C1148 C1143 1.350 . S
C1149 H1136 0.929 . S
C1149 C1141 1.433 . S
C1149 N1151 1.384 . S
N1150 C1146 1.427 . S
N1150 C1147 1.384 . S
N1151 C1143 1.427 . S
N1151 C1149 1.384 . S
C583 C148 1.342 . S
C587 C4 1.338 . S
C601 C184 1.343 1_554 S
C605 C40 1.338 . S
C619 C220 1.341 . S
C623 C76 1.339 . S
C637 C256 1.338 . S
C641 C112 1.343 . S
C655 C436 1.342 . S
C659 C292 1.338 . S
C673 C472 1.338 . S
C677 C328 1.343 . S
C691 C364 1.343 . S
C695 C508 1.338 . S
C709 C544 1.342 . S
C713 C400 1.341 . S
C727 C3 1.452 . S
C731 C183 1.452 . S
C745 C219 1.456 . S
C749 C39 1.453 . S
C763 C75 1.454 . S
C767 C255 1.456 . S
C781 C147 1.453 . S
C785 C111 1.452 . S
C799 C471 1.452 . S
C803 C291 1.453 . S
C817 C507 1.454 . S
C821 C327 1.453 . S
C835 C363 1.455 . S
C839 C543 1.454 . S
C853 C399 1.454 . S
C857 C435 1.455 . S
C871 C542 1.436 . S
C875 C2 1.437 . S
C889 C434 1.435 . S
C893 C38 1.440 . S
C907 C470 1.445 . S
C911 C74 1.444 . S
C925 C506 1.444 . S
C929 C110 1.438 . S
C943 C326 1.445 . S
C947 C146 1.440 . S
C961 C362 1.437 . S
C965 C182 1.436 . S
C979 C218 1.438 . S
C983 C398 1.436 . S
C997 C254 1.445 . S
C1001 C290 1.441 . S
C1015 C482 1.319 . S
C1019 C86 1.319 . S
C1033 C518 1.315 . S
C1037 C122 1.324 . S
C1051 C554 1.314 . S
C1055 C14 1.325 . S
C1069 C50 1.314 . S
C1073 C446 1.324 . S
C1087 C410 1.315 . S
C1091 C230 1.324 . S
C1105 C266 1.321 . S
C1109 C302 1.317 . S
C1123 C338 1.318 . S
C1127 C158 1.321 . S
C1141 C374 1.319 . S
C1145 C194 1.319 . S
