# Generated by pormake.
# Topology wgc, (5)-cn, num edge types: 1
# Building blocks:
#     Node 0, Type 0, BuildingBlock: BEQFEK_clean_sbu_0, # of connection points: 5
#     Node 1, Type 0, BuildingBlock: BEQFEK_clean_sbu_0, # of connection points: 5
#     Node 2, Type 0, BuildingBlock: BEQFEK_clean_sbu_0, # of connection points: 5
#     Node 3, Type 0, BuildingBlock: BEQFEK_clean_sbu_0, # of connection points: 5
#     Node 4, Type 0, BuildingBlock: BEQFEK_clean_sbu_0, # of connection points: 5
#     Node 5, Type 0, BuildingBlock: BEQFEK_clean_sbu_0, # of connection points: 5
#     Node 6, Type 0, BuildingBlock: BEQFEK_clean_sbu_0, # of connection points: 5
#     Node 7, Type 0, BuildingBlock: BEQFEK_clean_sbu_0, # of connection points: 5
#     Node 8, Type 0, BuildingBlock: BEQFEK_clean_sbu_0, # of connection points: 5
#     Node 9, Type 0, BuildingBlock: BEQFEK_clean_sbu_0, # of connection points: 5
#     Node 10, Type 0, BuildingBlock: BEQFEK_clean_sbu_0, # of connection points: 5
#     Node 11, Type 0, BuildingBlock: BEQFEK_clean_sbu_0, # of connection points: 5
#     Node 12, Type 0, BuildingBlock: BEQFEK_clean_sbu_0, # of connection points: 5
#     Node 13, Type 0, BuildingBlock: BEQFEK_clean_sbu_0, # of connection points: 5
#     Node 14, Type 0, BuildingBlock: BEQFEK_clean_sbu_0, # of connection points: 5
#     Node 15, Type 0, BuildingBlock: BEQFEK_clean_sbu_0, # of connection points: 5
#     Edge 16, Type (0, 0), BuildingBlock: MIFKUJ_clean_linker_0, # of connection points: 2
#     Edge 17, Type (0, 0), BuildingBlock: MIFKUJ_clean_linker_0, # of connection points: 2
#     Edge 18, Type (0, 0), BuildingBlock: MIFKUJ_clean_linker_0, # of connection points: 2
#     Edge 19, Type (0, 0), BuildingBlock: MIFKUJ_clean_linker_0, # of connection points: 2
#     Edge 20, Type (0, 0), BuildingBlock: MIFKUJ_clean_linker_0, # of connection points: 2
#     Edge 21, Type (0, 0), BuildingBlock: MIFKUJ_clean_linker_0, # of connection points: 2
#     Edge 22, Type (0, 0), BuildingBlock: MIFKUJ_clean_linker_0, # of connection points: 2
#     Edge 23, Type (0, 0), BuildingBlock: MIFKUJ_clean_linker_0, # of connection points: 2
#     Edge 24, Type (0, 0), BuildingBlock: MIFKUJ_clean_linker_0, # of connection points: 2
#     Edge 25, Type (0, 0), BuildingBlock: MIFKUJ_clean_linker_0, # of connection points: 2
#     Edge 26, Type (0, 0), BuildingBlock: MIFKUJ_clean_linker_0, # of connection points: 2
#     Edge 27, Type (0, 0), BuildingBlock: MIFKUJ_clean_linker_0, # of connection points: 2
#     Edge 28, Type (0, 0), BuildingBlock: MIFKUJ_clean_linker_0, # of connection points: 2
#     Edge 29, Type (0, 0), BuildingBlock: MIFKUJ_clean_linker_0, # of connection points: 2
#     Edge 30, Type (0, 0), BuildingBlock: MIFKUJ_clean_linker_0, # of connection points: 2
#     Edge 31, Type (0, 0), BuildingBlock: MIFKUJ_clean_linker_0, # of connection points: 2
#     Edge 32, Type (0, 0), BuildingBlock: MIFKUJ_clean_linker_0, # of connection points: 2
#     Edge 33, Type (0, 0), BuildingBlock: MIFKUJ_clean_linker_0, # of connection points: 2
#     Edge 34, Type (0, 0), BuildingBlock: MIFKUJ_clean_linker_0, # of connection points: 2
#     Edge 35, Type (0, 0), BuildingBlock: MIFKUJ_clean_linker_0, # of connection points: 2
#     Edge 36, Type (0, 0), BuildingBlock: MIFKUJ_clean_linker_0, # of connection points: 2
#     Edge 37, Type (0, 0), BuildingBlock: MIFKUJ_clean_linker_0, # of connection points: 2
#     Edge 38, Type (0, 0), BuildingBlock: MIFKUJ_clean_linker_0, # of connection points: 2
#     Edge 39, Type (0, 0), BuildingBlock: MIFKUJ_clean_linker_0, # of connection points: 2
#     Edge 40, Type (0, 0), BuildingBlock: MIFKUJ_clean_linker_0, # of connection points: 2
#     Edge 41, Type (0, 0), BuildingBlock: MIFKUJ_clean_linker_0, # of connection points: 2
#     Edge 42, Type (0, 0), BuildingBlock: MIFKUJ_clean_linker_0, # of connection points: 2
#     Edge 43, Type (0, 0), BuildingBlock: MIFKUJ_clean_linker_0, # of connection points: 2
#     Edge 44, Type (0, 0), BuildingBlock: MIFKUJ_clean_linker_0, # of connection points: 2
#     Edge 45, Type (0, 0), BuildingBlock: MIFKUJ_clean_linker_0, # of connection points: 2
#     Edge 46, Type (0, 0), BuildingBlock: MIFKUJ_clean_linker_0, # of connection points: 2
#     Edge 47, Type (0, 0), BuildingBlock: MIFKUJ_clean_linker_0, # of connection points: 2
#     Edge 48, Type (0, 0), BuildingBlock: MIFKUJ_clean_linker_0, # of connection points: 2
#     Edge 49, Type (0, 0), BuildingBlock: MIFKUJ_clean_linker_0, # of connection points: 2
#     Edge 50, Type (0, 0), BuildingBlock: MIFKUJ_clean_linker_0, # of connection points: 2
#     Edge 51, Type (0, 0), BuildingBlock: MIFKUJ_clean_linker_0, # of connection points: 2
#     Edge 52, Type (0, 0), BuildingBlock: MIFKUJ_clean_linker_0, # of connection points: 2
#     Edge 53, Type (0, 0), BuildingBlock: MIFKUJ_clean_linker_0, # of connection points: 2
#     Edge 54, Type (0, 0), BuildingBlock: MIFKUJ_clean_linker_0, # of connection points: 2
#     Edge 55, Type (0, 0), BuildingBlock: MIFKUJ_clean_linker_0, # of connection points: 2
# Relax obj value: 0.138
# Max RMSD: 0.127
# Mean RMSD: 0.127
data_MOF--net-wgc--node1-BEQFEK_clean_sbu_0--edge1-MIFKUJ_clean_linker_0
_symmetry_space_group_name_H-M    P1
_symmetry_Int_Tables_number       1
_symmetry_cell_setting            triclinic
loop_
_symmetry_equiv_pos_as_xyz
'x, y, z'
_cell_length_a     49.836989
_cell_length_b     49.8218
_cell_length_c     71.168473
_cell_angle_alpha  90.006685
_cell_angle_beta   90.002812
_cell_angle_gamma 90.006729
loop_
_atom_site_label
_atom_site_type_symbol
_atom_site_fract_x
_atom_site_fract_y
_atom_site_fract_z
_atom_type_partial_charge
Co0 Co 0.24034 0.11732 0.01158 0.0
Co1 Co 0.2993 0.09638 0.0084 0.0
C2 C 0.27011 0.11064 0.97438 0.0
O3 O 0.24995 0.11507 0.98486 0.0
O4 O 0.29291 0.10442 0.98125 0.0
C5 C 0.20654 0.15983 0.00259 0.0
O6 O 0.22872 0.16784 0.99432 0.0
C7 C 0.35669 0.0816 0.00269 0.0
C8 C 0.36486 0.06273 0.03022 0.0
C9 C 0.37652 0.06859 0.01304 0.0
N10 N 0.33442 0.08311 0.01335 0.0
N11 N 0.33951 0.07178 0.02974 0.0
C12 C 0.359 0.0935 0.98347 0.0
H13 H 0.34588 0.11141 0.98228 0.0
H14 H 0.38006 0.09922 0.98037 0.0
H15 H 0.35228 0.07849 0.97295 0.0
C16 C 0.26609 0.15508 0.03797 0.0
N17 N 0.2673 0.13477 0.02555 0.0
N18 N 0.29233 0.12673 0.02389 0.0
C19 C 0.30794 0.14196 0.03514 0.0
C20 C 0.29181 0.16047 0.04437 0.0
C21 C 0.24052 0.16748 0.04479 0.0
H22 H 0.2241 0.15247 0.04463 0.0
H23 H 0.23499 0.18432 0.03536 0.0
H24 H 0.24284 0.17548 0.05925 0.0
O25 O 0.23414 0.0805 0.02033 0.0
O26 O 0.27556 0.06579 0.01548 0.0
H27 H 0.3422 0.12244 0.04681 0.0
H28 H 0.34691 0.15775 0.04245 0.0
C29 C 0.3377 0.13905 0.03693 0.0
H30 H 0.34661 0.13413 0.02307 0.0
H31 H 0.32552 0.07009 0.04059 0.0
O32 O 0.20677 0.1381 0.01194 0.0
C33 C 0.25122 0.06154 0.02008 0.0
Co34 Co 0.11861 0.75386 0.98939 0.0
Co35 Co 0.10072 0.69381 0.99278 0.0
C36 C 0.1179 0.72292 0.02645 0.0
O37 O 0.12089 0.74353 0.0161 0.0
O38 O 0.11077 0.70043 0.01948 0.0
C39 C 0.15878 0.79277 0.9955 0.0
O40 O 0.17154 0.77187 0.00236 0.0
C41 C 0.07841 0.63988 0.0005 0.0
C42 C 0.07101 0.62587 0.97148 0.0
C43 C 0.06722 0.619 0.99014 0.0
N44 N 0.08864 0.65798 0.9884 0.0
N45 N 0.08408 0.64943 0.97112 0.0
C46 C 0.07581 0.64471 0.02118 0.0
H47 H 0.07155 0.66622 0.02385 0.0
H48 H 0.09511 0.63966 0.0281 0.0
H49 H 0.0596 0.63234 0.02743 0.0
C50 C 0.15498 0.73062 0.96086 0.0
N51 N 0.13579 0.72819 0.97406 0.0
N52 N 0.12973 0.70266 0.97625 0.0
C53 C 0.14572 0.68793 0.96491 0.0
C54 C 0.16201 0.70517 0.95466 0.0
C55 C 0.165 0.7569 0.95349 0.0
H56 H 0.14919 0.77246 0.95472 0.0
H57 H 0.18265 0.7633 0.96187 0.0
H58 H 0.17122 0.75509 0.93856 0.0
O59 O 0.08071 0.75779 0.98275 0.0
O60 O 0.06821 0.71557 0.98703 0.0
H61 H 0.13466 0.64988 0.95334 0.0
H62 H 0.1681 0.65119 0.96249 0.0
C63 C 0.14715 0.65793 0.96493 0.0
H64 H 0.13988 0.64975 0.97849 0.0
H65 H 0.08841 0.6605 0.95905 0.0
O66 O 0.13583 0.78947 0.98808 0.0
C67 C 0.06258 0.73986 0.98313 0.0
Co68 Co 0.75626 0.87524 0.01041 0.0
Co69 Co 0.69934 0.9018 0.01135 0.0
C70 C 0.72104 0.87921 0.97603 0.0
O71 O 0.74203 0.87206 0.98484 0.0
O72 O 0.70194 0.8916 0.98422 0.0
C73 C 0.79249 0.83198 0.00287 0.0
O74 O 0.77109 0.81962 0.99644 0.0
C75 C 0.64319 0.92094 0.00707 0.0
C76 C 0.63879 0.9433 0.0337 0.0
C77 C 0.62562 0.93739 0.01706 0.0
N78 N 0.66566 0.91777 0.01733 0.0
N79 N 0.66277 0.93106 0.03325 0.0
C80 C 0.63867 0.90763 0.9885 0.0
H81 H 0.64959 0.88825 0.98796 0.0
H82 H 0.61697 0.90397 0.98608 0.0
H83 H 0.64654 0.92073 0.97716 0.0
C84 C 0.73258 0.8429 0.0411 0.0
N85 N 0.73102 0.86212 0.02787 0.0
N86 N 0.70663 0.87227 0.02774 0.0
C87 C 0.69173 0.85945 0.04078 0.0
C88 C 0.70769 0.84042 0.0497 0.0
C89 C 0.75793 0.82853 0.04619 0.0
H90 H 0.77545 0.84193 0.04414 0.0
H91 H 0.76031 0.8108 0.03691 0.0
H92 H 0.75747 0.8216 0.06101 0.0
O93 O 0.76562 0.91297 0.0153 0.0
O94 O 0.72515 0.9313 0.01596 0.0
H95 H 0.66046 0.88216 0.0537 0.0
H96 H 0.65275 0.84706 0.05081 0.0
C97 C 0.66257 0.86466 0.04418 0.0
H98 H 0.65235 0.86936 0.03073 0.0
H99 H 0.67752 0.93232 0.04362 0.0
O100 O 0.79015 0.85502 0.01033 0.0
C101 C 0.75052 0.93335 0.01711 0.0
Co102 Co 0.89029 0.23885 0.98449 0.0
Co103 Co 0.90234 0.3002 0.9888 0.0
C104 C 0.89316 0.26771 0.02225 0.0
O105 O 0.89162 0.24749 0.01144 0.0
O106 O 0.89582 0.29135 0.0157 0.0
C107 C 0.85391 0.19904 0.99391 0.0
O108 O 0.84327 0.21987 0.00244 0.0
C109 C 0.91398 0.357 0.99814 0.0
C110 C 0.92435 0.37271 0.97002 0.0
C111 C 0.92295 0.37981 0.9888 0.0
N112 N 0.91032 0.33737 0.98539 0.0
N113 N 0.9166 0.34695 0.96864 0.0
C114 C 0.90874 0.35381 0.01871 0.0
H115 H 0.92521 0.34192 0.02509 0.0
H116 H 0.88972 0.34266 0.02084 0.0
H117 H 0.90733 0.37355 0.02586 0.0
C118 C 0.85005 0.25947 0.9579 0.0
N119 N 0.86902 0.2635 0.97103 0.0
N120 N 0.87284 0.28944 0.9733 0.0
C121 C 0.85559 0.30278 0.96202 0.0
C122 C 0.84087 0.2842 0.95173 0.0
C123 C 0.84137 0.23231 0.95125 0.0
H124 H 0.85919 0.21927 0.94924 0.0
H125 H 0.82849 0.22301 0.96216 0.0
H126 H 0.82966 0.23336 0.93803 0.0
O127 O 0.92713 0.23869 0.97506 0.0
O128 O 0.93597 0.28157 0.98084 0.0
H129 H 0.86818 0.33911 0.94879 0.0
H130 H 0.83383 0.33924 0.95619 0.0
C131 C 0.85433 0.33266 0.96012 0.0
H132 H 0.86021 0.34245 0.97348 0.0
H133 H 0.91642 0.33559 0.95632 0.0
O134 O 0.87472 0.20244 0.98385 0.0
C135 C 0.94345 0.25832 0.97547 0.0
Co136 Co 0.24264 0.37449 0.24182 0.0
Co137 Co 0.30267 0.39334 0.24245 0.0
C138 C 0.27739 0.3722 0.27685 0.0
O139 O 0.25571 0.36894 0.26767 0.0
O140 O 0.29846 0.38149 0.26903 0.0
C141 C 0.20161 0.33609 0.24895 0.0
O142 O 0.22124 0.32313 0.25728 0.0
C143 C 0.35736 0.41402 0.24908 0.0
C144 C 0.36913 0.42496 0.22012 0.0
C145 C 0.37749 0.42632 0.23864 0.0
N146 N 0.33818 0.40555 0.23714 0.0
N147 N 0.34542 0.41213 0.21989 0.0
C148 C 0.35423 0.41393 0.26999 0.0
H149 H 0.33375 0.42082 0.27375 0.0
H150 H 0.35654 0.39308 0.27523 0.0
H151 H 0.36917 0.42705 0.27698 0.0
C152 C 0.26299 0.34065 0.21093 0.0
N153 N 0.26667 0.35924 0.22438 0.0
N154 N 0.29229 0.36549 0.22538 0.0
C155 C 0.30592 0.35019 0.21297 0.0
C156 C 0.28778 0.33412 0.20326 0.0
C157 C 0.23602 0.33052 0.20499 0.0
H158 H 0.22074 0.34651 0.20667 0.0
H159 H 0.23029 0.3133 0.21403 0.0
H160 H 0.23624 0.32381 0.19012 0.0
O161 O 0.23813 0.41305 0.2377 0.0
O162 O 0.28055 0.42619 0.23883 0.0
H163 H 0.3428 0.3627 0.20036 0.0
H164 H 0.34255 0.32839 0.20799 0.0
C165 C 0.33587 0.349 0.21164 0.0
H166 H 0.34517 0.35512 0.22513 0.0
H167 H 0.3334 0.40929 0.20805 0.0
O168 O 0.20661 0.3581 0.24064 0.0
C169 C 0.25569 0.43151 0.23718 0.0
Co170 Co 0.37677 0.75543 0.76164 0.0
Co171 Co 0.39495 0.69568 0.75695 0.0
C172 C 0.37905 0.7266 0.72383 0.0
O173 O 0.37606 0.74672 0.73461 0.0
O174 O 0.38547 0.70368 0.73037 0.0
C175 C 0.33812 0.79428 0.75326 0.0
O176 O 0.32916 0.77439 0.74289 0.0
C177 C 0.41242 0.64062 0.74712 0.0
C178 C 0.42364 0.62521 0.77516 0.0
C179 C 0.42316 0.61849 0.7563 0.0
N180 N 0.40673 0.6595 0.76004 0.0
N181 N 0.41366 0.65017 0.77674 0.0
C182 C 0.40755 0.64389 0.7265 0.0
H183 H 0.42191 0.65881 0.72077 0.0
H184 H 0.38698 0.65173 0.7242 0.0
H185 H 0.40982 0.6246 0.71888 0.0
C186 C 0.34068 0.73106 0.78949 0.0
N187 N 0.35934 0.72892 0.77595 0.0
N188 N 0.3656 0.70349 0.77352 0.0
C189 C 0.35019 0.68851 0.78512 0.0
C190 C 0.33423 0.70555 0.79579 0.0
C191 C 0.3294 0.75721 0.79621 0.0
H192 H 0.34598 0.77159 0.79886 0.0
H193 H 0.31647 0.76577 0.78503 0.0
H194 H 0.31713 0.75481 0.80909 0.0
O195 O 0.41427 0.75923 0.76938 0.0
O196 O 0.42725 0.71745 0.7636 0.0
H197 H 0.36565 0.65296 0.79789 0.0
H198 H 0.33143 0.6503 0.79048 0.0
C199 C 0.35134 0.65859 0.78663 0.0
H200 H 0.35792 0.64962 0.77314 0.0
H201 H 0.41228 0.66118 0.78917 0.0
O202 O 0.35843 0.79044 0.76373 0.0
C203 C 0.43255 0.74147 0.7685 0.0
Co204 Co 0.75322 0.61279 0.23726 0.0
Co205 Co 0.69237 0.60067 0.24331 0.0
C206 C 0.72565 0.61235 0.27574 0.0
O207 O 0.74534 0.61324 0.26441 0.0
O208 O 0.70173 0.60912 0.26984 0.0
C209 C 0.79316 0.65015 0.24463 0.0
O210 O 0.77256 0.66186 0.25274 0.0
C211 C 0.63693 0.58455 0.25313 0.0
C212 C 0.61944 0.57947 0.22482 0.0
C213 C 0.6138 0.5766 0.24375 0.0
N214 N 0.65531 0.59191 0.24027 0.0
N215 N 0.64471 0.58864 0.22339 0.0
C216 C 0.64175 0.58489 0.27387 0.0
H217 H 0.65629 0.56884 0.27753 0.0
H218 H 0.65075 0.60439 0.27796 0.0
H219 H 0.62289 0.58187 0.28187 0.0
C220 C 0.73128 0.65186 0.21026 0.0
N221 N 0.72803 0.63299 0.22358 0.0
N222 N 0.70227 0.62961 0.22692 0.0
C223 C 0.68835 0.64735 0.21635 0.0
C224 C 0.70627 0.66167 0.20527 0.0
C225 C 0.75797 0.66045 0.2027 0.0
H226 H 0.767 0.6752 0.21252 0.0
H227 H 0.75609 0.67016 0.18875 0.0
H228 H 0.7716 0.64291 0.2017 0.0
O229 O 0.75359 0.57545 0.22905 0.0
O230 O 0.71129 0.56655 0.23647 0.0
H231 H 0.64975 0.63926 0.20459 0.0
H232 H 0.65293 0.67192 0.21477 0.0
C233 C 0.65851 0.65052 0.21656 0.0
H234 H 0.64999 0.64298 0.22994 0.0
H235 H 0.65512 0.59169 0.21086 0.0
O236 O 0.78945 0.62841 0.23564 0.0
C237 C 0.73433 0.55892 0.2308 0.0
Co238 Co 0.61912 0.24678 0.75813 0.0
Co239 Co 0.60317 0.30746 0.75571 0.0
C240 C 0.6235 0.27939 0.72215 0.0
O241 O 0.62527 0.25806 0.73192 0.0
O242 O 0.61545 0.30142 0.72936 0.0
C243 C 0.65611 0.20411 0.75286 0.0
O244 O 0.66996 0.22281 0.74417 0.0
C245 C 0.58335 0.36215 0.74792 0.0
C246 C 0.57457 0.37599 0.77679 0.0
C247 C 0.57211 0.38318 0.75808 0.0
N248 N 0.59232 0.34362 0.76018 0.0
N249 N 0.58699 0.35209 0.77737 0.0
C250 C 0.58182 0.3576 0.72716 0.0
H251 H 0.57648 0.33638 0.72428 0.0
H252 H 0.60182 0.36149 0.72088 0.0
H253 H 0.56681 0.37092 0.72043 0.0
C254 C 0.6545 0.26731 0.78807 0.0
N255 N 0.63563 0.27103 0.77481 0.0
N256 N 0.63038 0.29684 0.77324 0.0
C257 C 0.6465 0.31044 0.78519 0.0
C258 C 0.66209 0.29214 0.79503 0.0
C259 C 0.66441 0.24041 0.79437 0.0
H260 H 0.64793 0.22548 0.79377 0.0
H261 H 0.68074 0.23375 0.78487 0.0
H262 H 0.67241 0.24132 0.80892 0.0
O263 O 0.58048 0.24426 0.76257 0.0
O264 O 0.56928 0.28702 0.7596 0.0
H265 H 0.6365 0.34816 0.79764 0.0
H266 H 0.67016 0.34615 0.78895 0.0
C267 C 0.64907 0.34033 0.786 0.0
H268 H 0.64257 0.34953 0.77257 0.0
H269 H 0.59021 0.34073 0.78948 0.0
O270 O 0.63392 0.21025 0.7605 0.0
C271 C 0.56281 0.26261 0.76224 0.0
Co272 Co 0.74372 0.6261 0.50774 0.0
Co273 Co 0.80322 0.6054 0.50854 0.0
C274 C 0.77984 0.62434 0.47304 0.0
O275 O 0.75805 0.62841 0.48194 0.0
O276 O 0.80074 0.61559 0.4814 0.0
C277 C 0.7042 0.66401 0.49651 0.0
O278 O 0.72327 0.67177 0.48501 0.0
C279 C 0.85782 0.58144 0.50545 0.0
C280 C 0.86557 0.5731 0.53547 0.0
C281 C 0.87625 0.56972 0.51767 0.0
N282 N 0.83749 0.59157 0.51572 0.0
N283 N 0.84227 0.58632 0.5336 0.0
C284 C 0.8575 0.5797 0.48446 0.0
H285 H 0.83657 0.5784 0.47927 0.0
H286 H 0.86678 0.5981 0.47855 0.0
H287 H 0.86889 0.56195 0.47944 0.0
C288 C 0.76415 0.66113 0.5378 0.0
N289 N 0.76788 0.64191 0.5248 0.0
N290 N 0.79336 0.63493 0.52446 0.0
C291 C 0.80685 0.65037 0.53692 0.0
C292 C 0.78867 0.6671 0.54601 0.0
C293 C 0.73765 0.67419 0.54164 0.0
H294 H 0.73138 0.68564 0.52902 0.0
H295 H 0.73857 0.68824 0.5537 0.0
H296 H 0.72228 0.65854 0.54431 0.0
O297 O 0.7372 0.58811 0.51364 0.0
O298 O 0.77933 0.57404 0.51284 0.0
H299 H 0.84036 0.63634 0.55287 0.0
H300 H 0.84473 0.6692 0.54329 0.0
C301 C 0.83645 0.649 0.54034 0.0
H302 H 0.84694 0.64051 0.52797 0.0
H303 H 0.82893 0.59062 0.54449 0.0
O304 O 0.70877 0.64502 0.50801 0.0
C305 C 0.75438 0.56933 0.51475 0.0
Co306 Co 0.62365 0.25992 0.48729 0.0
Co307 Co 0.60238 0.20089 0.48995 0.0
C308 C 0.6159 0.22998 0.52427 0.0
O309 O 0.62083 0.25033 0.51405 0.0
O310 O 0.60958 0.20739 0.51711 0.0
C311 C 0.66334 0.2983 0.49679 0.0
O312 O 0.67362 0.27784 0.50595 0.0
C313 C 0.58457 0.14446 0.49645 0.0
C314 C 0.57231 0.13378 0.46755 0.0
C315 C 0.57347 0.12392 0.48571 0.0
N316 N 0.58968 0.16542 0.48503 0.0
N317 N 0.58219 0.15884 0.46783 0.0
C318 C 0.59082 0.14412 0.517 0.0
H319 H 0.57475 0.15493 0.52469 0.0
H320 H 0.61005 0.15469 0.51963 0.0
H321 H 0.5922 0.12327 0.52239 0.0
C322 C 0.66267 0.2344 0.46167 0.0
N323 N 0.64191 0.23313 0.47372 0.0
N324 N 0.63359 0.20812 0.47507 0.0
C325 C 0.64927 0.19258 0.46406 0.0
C326 C 0.6681 0.20872 0.45519 0.0
C327 C 0.67544 0.26002 0.45528 0.0
H328 H 0.66025 0.27627 0.45471 0.0
H329 H 0.69118 0.26588 0.46552 0.0
H330 H 0.68487 0.25769 0.44125 0.0
O331 O 0.58741 0.26522 0.4775 0.0
O332 O 0.57161 0.22421 0.48236 0.0
H333 H 0.632 0.15805 0.45104 0.0
H334 H 0.66629 0.15372 0.45818 0.0
C335 C 0.64677 0.16278 0.46222 0.0
H336 H 0.63986 0.15386 0.47564 0.0
H337 H 0.58346 0.17171 0.4563 0.0
O338 O 0.64243 0.29478 0.48687 0.0
C339 C 0.56814 0.24852 0.47739 0.0
Co340 Co 0.26074 0.38153 0.50781 0.0
Co341 Co 0.20079 0.40054 0.50939 0.0
C342 C 0.22574 0.38976 0.47319 0.0
O343 O 0.2474 0.38509 0.482 0.0
O344 O 0.20391 0.39478 0.48178 0.0
C345 C 0.31191 0.37264 0.49352 0.0
O346 O 0.30567 0.39514 0.48493 0.0
C347 C 0.14389 0.41726 0.5058 0.0
C348 C 0.13449 0.42668 0.53543 0.0
C349 C 0.12375 0.42691 0.51749 0.0
N350 N 0.16552 0.41162 0.51642 0.0
N351 N 0.15973 0.41739 0.53409 0.0
C352 C 0.14259 0.4129 0.48503 0.0
H353 H 0.15445 0.42873 0.47787 0.0
H354 H 0.15162 0.39319 0.48148 0.0
H355 H 0.1216 0.41343 0.47984 0.0
C356 C 0.24043 0.34176 0.5349 0.0
N357 N 0.23652 0.36234 0.523 0.0
N358 N 0.21103 0.36922 0.52312 0.0
C359 C 0.19771 0.35256 0.53481 0.0
C360 C 0.21593 0.33477 0.54281 0.0
C361 C 0.26754 0.33082 0.53973 0.0
H362 H 0.28284 0.34694 0.53886 0.0
H363 H 0.27291 0.31495 0.52945 0.0
H364 H 0.26779 0.32206 0.55406 0.0
O365 O 0.26644 0.41776 0.51743 0.0
O366 O 0.22418 0.43173 0.5162 0.0
H367 H 0.16301 0.36649 0.5495 0.0
H368 H 0.16056 0.33247 0.54133 0.0
C369 C 0.16797 0.35284 0.5377 0.0
H370 H 0.15766 0.36 0.52484 0.0
H371 H 0.17326 0.41549 0.5452 0.0
O372 O 0.29539 0.36269 0.50521 0.0
C373 C 0.24901 0.43623 0.51922 0.0
Co374 Co 0.37816 0.74524 0.48796 0.0
Co375 Co 0.39374 0.80575 0.492 0.0
C376 C 0.37633 0.77672 0.52515 0.0
O377 O 0.3749 0.75611 0.51461 0.0
O378 O 0.38254 0.79967 0.51848 0.0
C379 C 0.33894 0.70571 0.49448 0.0
O380 O 0.32647 0.7263 0.50202 0.0
C381 C 0.41632 0.86036 0.49807 0.0
C382 C 0.42235 0.87248 0.46849 0.0
C383 C 0.42702 0.88055 0.48681 0.0
N384 N 0.40563 0.84144 0.48678 0.0
N385 N 0.40941 0.84889 0.46916 0.0
C386 C 0.4196 0.85711 0.51884 0.0
H387 H 0.4207 0.83552 0.52257 0.0
H388 H 0.40193 0.86596 0.52601 0.0
H389 H 0.43794 0.86749 0.52388 0.0
C390 C 0.34256 0.76711 0.45862 0.0
N391 N 0.36094 0.77021 0.47229 0.0
N392 N 0.36549 0.79595 0.47497 0.0
C393 C 0.34893 0.8101 0.46366 0.0
C394 C 0.33426 0.79228 0.45274 0.0
C395 C 0.33254 0.74048 0.45187 0.0
H396 H 0.34912 0.72563 0.45189 0.0
H397 H 0.31668 0.7333 0.46158 0.0
H398 H 0.32376 0.7419 0.43759 0.0
O399 O 0.4162 0.74198 0.48173 0.0
O400 O 0.42699 0.78426 0.48772 0.0
H401 H 0.35789 0.84797 0.45101 0.0
H402 H 0.32552 0.84627 0.46175 0.0
C403 C 0.34677 0.84006 0.46332 0.0
H404 H 0.35497 0.84888 0.47642 0.0
H405 H 0.40458 0.83707 0.45755 0.0
O406 O 0.36148 0.7094 0.48655 0.0
C407 C 0.43368 0.76037 0.48344 0.0
Co408 Co 0.74383 0.87351 0.7487 0.0
Co409 Co 0.80072 0.89999 0.74592 0.0
C410 C 0.78214 0.87558 0.78156 0.0
O411 O 0.76022 0.86938 0.77351 0.0
O412 O 0.80082 0.88783 0.77278 0.0
C413 C 0.69269 0.86017 0.76102 0.0
O414 O 0.69751 0.88147 0.77138 0.0
C415 C 0.85841 0.91518 0.74649 0.0
C416 C 0.85883 0.94443 0.72314 0.0
C417 C 0.87499 0.93287 0.73675 0.0
N418 N 0.83369 0.91648 0.73894 0.0
N419 N 0.83415 0.93401 0.72503 0.0
C420 C 0.86584 0.8966 0.76215 0.0
H421 H 0.85272 0.8786 0.76193 0.0
H422 H 0.88717 0.8904 0.761 0.0
H423 H 0.86286 0.90705 0.77576 0.0
C424 C 0.76454 0.84268 0.71643 0.0
N425 N 0.76759 0.86117 0.73001 0.0
N426 N 0.79168 0.87184 0.7288 0.0
C427 C 0.80473 0.86058 0.71416 0.0
C428 C 0.78787 0.84178 0.70575 0.0
C429 C 0.73995 0.8257 0.71425 0.0
H430 H 0.73399 0.81754 0.72813 0.0
H431 H 0.74329 0.80872 0.70444 0.0
H432 H 0.72323 0.83835 0.709 0.0
O433 O 0.73401 0.91164 0.74498 0.0
O434 O 0.77463 0.92957 0.74371 0.0
H435 H 0.83952 0.85685 0.6959 0.0
H436 H 0.84615 0.86908 0.71943 0.0
C437 C 0.8318 0.86947 0.70751 0.0
H438 H 0.83039 0.89043 0.70241 0.0
H439 H 0.81745 0.93904 0.71691 0.0
O440 O 0.71034 0.85248 0.74932 0.0
C441 C 0.74925 0.93199 0.74346 0.0
Co442 Co 0.87163 0.25297 0.25519 0.0
Co443 Co 0.89771 0.19554 0.25576 0.0
C444 C 0.87742 0.21862 0.2202 0.0
O445 O 0.87104 0.23976 0.22916 0.0
O446 O 0.88778 0.1985 0.22859 0.0
C447 C 0.83081 0.28961 0.24413 0.0
O448 O 0.82504 0.27042 0.23214 0.0
C449 C 0.9152 0.13906 0.2511 0.0
C450 C 0.94135 0.13492 0.27606 0.0
C451 C 0.93277 0.12163 0.26009 0.0
N452 N 0.9136 0.16169 0.26137 0.0
N453 N 0.92906 0.15892 0.27633 0.0
C454 C 0.90268 0.13578 0.23215 0.0
H455 H 0.91361 0.14856 0.22193 0.0
H456 H 0.88155 0.14279 0.2326 0.0
H457 H 0.90348 0.11467 0.22726 0.0
C458 C 0.83813 0.22841 0.28472 0.0
N459 N 0.85762 0.22685 0.27169 0.0
N460 N 0.86817 0.20262 0.27197 0.0
C461 C 0.85578 0.18805 0.28539 0.0
C462 C 0.8363 0.20389 0.29382 0.0
C463 C 0.82291 0.25351 0.28915 0.0
H464 H 0.83709 0.27057 0.29052 0.0
H465 H 0.80907 0.25806 0.27736 0.0
H466 H 0.81111 0.25152 0.3023 0.0
O467 O 0.90918 0.26229 0.26151 0.0
O468 O 0.92683 0.22144 0.26085 0.0
H469 H 0.88171 0.15955 0.29843 0.0
H470 H 0.84672 0.15026 0.29888 0.0
C471 C 0.86274 0.15971 0.29029 0.0
H472 H 0.86587 0.14787 0.27727 0.0
H473 H 0.93202 0.17389 0.28638 0.0
O474 O 0.84977 0.28619 0.25585 0.0
C475 C 0.92929 0.24668 0.26293 0.0
Co476 Co 0.25848 0.12106 0.74092 0.0
Co477 Co 0.19927 0.1002 0.74047 0.0
C478 C 0.22345 0.11841 0.77594 0.0
O479 O 0.24498 0.12324 0.76695 0.0
O480 O 0.20264 0.10938 0.76764 0.0
C481 C 0.29494 0.16335 0.74806 0.0
O482 O 0.27317 0.1754 0.75416 0.0
C483 C 0.14281 0.0814 0.74431 0.0
C484 C 0.13673 0.06502 0.71576 0.0
C485 C 0.12449 0.06753 0.73314 0.0
N486 N 0.1648 0.08654 0.73391 0.0
N487 N 0.16092 0.07671 0.71689 0.0
C488 C 0.13961 0.09002 0.76431 0.0
H489 H 0.15012 0.10935 0.76666 0.0
H490 H 0.1181 0.09233 0.768 0.0
H491 H 0.14879 0.07472 0.77364 0.0
C492 C 0.23759 0.15498 0.71017 0.0
N493 N 0.23409 0.13687 0.72397 0.0
N494 N 0.20868 0.12963 0.72455 0.0
C495 C 0.19503 0.14376 0.71148 0.0
C496 C 0.21297 0.16002 0.70186 0.0
C497 C 0.26415 0.16689 0.7049 0.0
H498 H 0.28011 0.15146 0.70594 0.0
H499 H 0.26896 0.18336 0.71482 0.0
H500 H 0.26391 0.17543 0.69051 0.0
O501 O 0.26506 0.08327 0.73448 0.0
O502 O 0.22298 0.0691 0.7354 0.0
H503 H 0.16289 0.12478 0.69678 0.0
H504 H 0.15731 0.15964 0.7017 0.0
C505 C 0.16573 0.14074 0.70746 0.0
H506 H 0.15474 0.13518 0.72043 0.0
H507 H 0.17523 0.07727 0.70619 0.0
O508 O 0.29314 0.13996 0.74106 0.0
C509 C 0.24787 0.06452 0.73314 0.0
Co510 Co 0.11761 0.73743 0.26294 0.0
Co511 Co 0.09379 0.79539 0.25988 0.0
C512 C 0.1125 0.76754 0.2259 0.0
O513 O 0.11798 0.74739 0.23618 0.0
O514 O 0.10358 0.78931 0.23298 0.0
C515 C 0.16035 0.70088 0.25654 0.0
O516 O 0.17101 0.72156 0.24786 0.0
C517 C 0.07339 0.8503 0.25226 0.0
C518 C 0.05426 0.85902 0.27963 0.0
C519 C 0.05787 0.86905 0.2617 0.0
N520 N 0.07877 0.83003 0.26417 0.0
N521 N 0.06749 0.83555 0.28053 0.0
C522 C 0.08056 0.85021 0.23187 0.0
H523 H 0.06874 0.83442 0.22461 0.0
H524 H 0.10211 0.84512 0.23023 0.0
H525 H 0.07636 0.86993 0.22523 0.0
C526 C 0.15234 0.76429 0.29086 0.0
N527 N 0.13271 0.76477 0.2779 0.0
N528 N 0.12358 0.78944 0.2762 0.0
C529 C 0.13756 0.80559 0.28786 0.0
C530 C 0.15624 0.79017 0.29754 0.0
C531 C 0.16553 0.73916 0.29776 0.0
H532 H 0.15118 0.72217 0.29728 0.0
H533 H 0.18281 0.73436 0.28852 0.0
H534 H 0.17296 0.74159 0.31236 0.0
O535 O 0.0804 0.73 0.27001 0.0
O536 O 0.06362 0.77082 0.26622 0.0
H537 H 0.11723 0.8395 0.29939 0.0
H538 H 0.1522 0.84523 0.29449 0.0
C539 C 0.13369 0.83529 0.28932 0.0
H540 H 0.12813 0.84372 0.27544 0.0
H541 H 0.06783 0.82266 0.29208 0.0
O542 O 0.13786 0.70359 0.26472 0.0
C543 C 0.06059 0.74605 0.27006 0.0
H544 H 0.30522 0.12611 0.94653 0.0
H545 H 0.29523 0.12981 0.91266 0.0
H546 H 0.21523 0.10007 0.92257 0.0
H547 H 0.22464 0.09716 0.95614 0.0
H548 H 0.25061 0.07476 0.89124 0.0
H549 H 0.20995 0.15567 0.91556 0.0
H550 H 0.20964 0.19781 0.93372 0.0
H551 H 0.27391 0.22858 0.89976 0.0
H552 H 0.27478 0.1864 0.88154 0.0
H553 H 0.18992 0.09558 0.8021 0.0
H554 H 0.19569 0.09589 0.83635 0.0
H555 H 0.26427 0.14806 0.83056 0.0
H556 H 0.25862 0.14799 0.79655 0.0
H557 H 0.23366 0.16251 0.86043 0.0
H558 H 0.27364 0.08146 0.83575 0.0
H559 H 0.27589 0.03807 0.81916 0.0
H560 H 0.21333 0.00679 0.85441 0.0
H561 H 0.21065 0.05009 0.87117 0.0
C562 C 0.2856 0.12031 0.9414 0.0
C563 C 0.26567 0.11149 0.9539 0.0
C564 C 0.27988 0.12253 0.92216 0.0
C565 C 0.25444 0.11535 0.91528 0.0
C566 C 0.2349 0.1058 0.92768 0.0
C567 C 0.24033 0.10421 0.94683 0.0
C568 C 0.24801 0.11748 0.89511 0.0
C569 C 0.24663 0.09388 0.88449 0.0
C570 C 0.24305 0.14247 0.88644 0.0
C571 C 0.24269 0.16777 0.89738 0.0
C572 C 0.22423 0.17129 0.91212 0.0
C573 C 0.22389 0.19522 0.92238 0.0
C574 C 0.24183 0.21582 0.91795 0.0
C575 C 0.26007 0.21257 0.90321 0.0
C576 C 0.26049 0.18867 0.8929 0.0
C577 C 0.2059 0.1075 0.80817 0.0
C578 C 0.22395 0.12156 0.79662 0.0
C579 C 0.2093 0.10751 0.82771 0.0
C580 C 0.23067 0.12169 0.83596 0.0
C581 C 0.24772 0.13692 0.8245 0.0
C582 C 0.24449 0.13677 0.80504 0.0
C583 C 0.23629 0.11968 0.85637 0.0
C584 C 0.23755 0.14332 0.8671 0.0
C585 C 0.24104 0.09464 0.86519 0.0
C586 C 0.24175 0.06908 0.85456 0.0
C587 C 0.26013 0.06544 0.8398 0.0
C588 C 0.26155 0.04083 0.83042 0.0
C589 C 0.24473 0.0197 0.83572 0.0
C590 C 0.22633 0.02319 0.85032 0.0
C591 C 0.22488 0.04773 0.85978 0.0
H592 H 0.24608 0.00055 0.82862 0.0
H593 H 0.24153 0.23434 0.9259 0.0
H594 H 0.11219 0.68493 0.05431 0.0
H595 H 0.1137 0.69244 0.08833 0.0
H596 H 0.13103 0.77625 0.07898 0.0
H597 H 0.13056 0.76882 0.04527 0.0
H598 H 0.1591 0.76007 0.10713 0.0
H599 H 0.06662 0.75302 0.08946 0.0
H600 H 0.02674 0.73197 0.07518 0.0
H601 H 0.03434 0.66477 0.11258 0.0
H602 H 0.07451 0.68526 0.12691 0.0
H603 H 0.11306 0.80664 0.19844 0.0
H604 H 0.11607 0.79965 0.16425 0.0
H605 H 0.11961 0.71408 0.17288 0.0
H606 H 0.1172 0.72071 0.20668 0.0
H607 H 0.0807 0.7322 0.1454 0.0
H608 H 0.17423 0.74163 0.16284 0.0
H609 H 0.21275 0.76521 0.177 0.0
H610 H 0.20062 0.83178 0.13964 0.0
H611 H 0.16174 0.80874 0.12544 0.0
C612 C 0.11665 0.70486 0.05952 0.0
C613 C 0.12104 0.72627 0.04703 0.0
C614 C 0.11733 0.70919 0.07897 0.0
C615 C 0.12197 0.73506 0.08623 0.0
C616 C 0.12734 0.75615 0.07376 0.0
C617 C 0.12695 0.75182 0.05442 0.0
C618 C 0.12045 0.74056 0.10672 0.0
C619 C 0.1418 0.75421 0.11542 0.0
C620 C 0.09796 0.73287 0.11764 0.0
C621 C 0.07374 0.72054 0.10911 0.0
C622 C 0.0599 0.73366 0.09454 0.0
C623 C 0.03723 0.72185 0.08645 0.0
C624 C 0.02806 0.69701 0.09293 0.0
C625 C 0.0415 0.68398 0.10755 0.0
C626 C 0.06421 0.69569 0.11567 0.0
C627 C 0.11463 0.78639 0.19301 0.0
C628 C 0.115 0.76427 0.20529 0.0
C629 C 0.11635 0.78243 0.17354 0.0
C630 C 0.11802 0.75633 0.16613 0.0
C631 C 0.11828 0.73434 0.17835 0.0
C632 C 0.11703 0.73825 0.19769 0.0
C633 C 0.11931 0.75156 0.14565 0.0
C634 C 0.09791 0.73807 0.13701 0.0
C635 C 0.1415 0.75979 0.13474 0.0
C636 C 0.16489 0.77361 0.14324 0.0
C637 C 0.17961 0.76141 0.15778 0.0
C638 C 0.20154 0.77465 0.16578 0.0
C639 C 0.20907 0.80001 0.15927 0.0
C640 C 0.19473 0.81216 0.1447 0.0
C641 C 0.17275 0.79901 0.13666 0.0
H642 H 0.22607 0.81023 0.16548 0.0
H643 H 0.0105 0.6879 0.08665 0.0
H644 H 0.74019 0.83633 0.95697 0.0
H645 H 0.75063 0.83423 0.92348 0.0
H646 H 0.71464 0.9122 0.91556 0.0
H647 H 0.70307 0.9138 0.94906 0.0
H648 H 0.70654 0.88228 0.88553 0.0
H649 H 0.78287 0.90502 0.92325 0.0
H650 H 0.81449 0.8985 0.94953 0.0
H651 H 0.83968 0.8233 0.92593 0.0
H652 H 0.80791 0.82917 0.89965 0.0
H653 H 0.80986 0.90469 0.80797 0.0
H654 H 0.80157 0.90402 0.84203 0.0
H655 H 0.74897 0.83601 0.83512 0.0
H656 H 0.75694 0.83663 0.80135 0.0
H657 H 0.80322 0.86634 0.87259 0.0
H658 H 0.69032 0.85213 0.85626 0.0
H659 H 0.65867 0.86129 0.83035 0.0
H660 H 0.70815 0.92654 0.81159 0.0
H661 H 0.73984 0.91806 0.83752 0.0
C662 C 0.7338 0.85265 0.94795 0.0
C663 C 0.72098 0.8753 0.95554 0.0
C664 C 0.74001 0.85157 0.92888 0.0
C665 C 0.73426 0.87347 0.91716 0.0
C666 C 0.71952 0.8952 0.9244 0.0
C667 C 0.71278 0.89605 0.9435 0.0
C668 C 0.74526 0.8744 0.89778 0.0
C669 C 0.72766 0.87881 0.88274 0.0
C670 C 0.77301 0.87056 0.89413 0.0
C671 C 0.79288 0.86746 0.90954 0.0
C672 C 0.79512 0.88706 0.92368 0.0
C673 C 0.81304 0.88347 0.93859 0.0
C674 C 0.82904 0.86047 0.93942 0.0
C675 C 0.82726 0.84109 0.92528 0.0
C676 C 0.80932 0.84456 0.91036 0.0
C677 C 0.79729 0.88905 0.81384 0.0
C678 C 0.78372 0.87096 0.80202 0.0
C679 C 0.79251 0.88875 0.83325 0.0
C680 C 0.77419 0.87034 0.84095 0.0
C681 C 0.76281 0.85064 0.82938 0.0
C682 C 0.76745 0.85101 0.81009 0.0
C683 C 0.76432 0.8734 0.86045 0.0
C684 C 0.78214 0.86986 0.87547 0.0
C685 C 0.73688 0.87864 0.86413 0.0
C686 C 0.71755 0.8843 0.84876 0.0
C687 C 0.69435 0.86853 0.84667 0.0
C688 C 0.67642 0.87358 0.83197 0.0
C689 C 0.68142 0.89446 0.81933 0.0
C690 C 0.70434 0.91035 0.82137 0.0
C691 C 0.72229 0.9054 0.83605 0.0
H692 H 0.6675 0.89841 0.80801 0.0
H693 H 0.84283 0.85767 0.95101 0.0
H694 H 0.90571 0.22154 0.04032 0.0
H695 H 0.90202 0.21168 0.07367 0.0
H696 H 0.87383 0.29227 0.08396 0.0
H697 H 0.87853 0.30266 0.05037 0.0
H698 H 0.9072 0.2778 0.11045 0.0
H699 H 0.83129 0.23665 0.08123 0.0
H700 H 0.80786 0.20792 0.05828 0.0
H701 H 0.84771 0.13843 0.08045 0.0
H702 H 0.87206 0.16682 0.10315 0.0
H703 H 0.85192 0.25628 0.19905 0.0
H704 H 0.85319 0.26158 0.16514 0.0
H705 H 0.89786 0.18787 0.15998 0.0
H706 H 0.89685 0.18228 0.1943 0.0
H707 H 0.856 0.19755 0.13114 0.0
H708 H 0.93291 0.24009 0.15957 0.0
H709 H 0.95532 0.26949 0.18261 0.0
H710 H 0.91071 0.33712 0.16206 0.0
H711 H 0.8877 0.30801 0.13908 0.0
C712 C 0.89874 0.23724 0.04966 0.0
C713 C 0.89207 0.26282 0.04271 0.0
C714 C 0.89652 0.2315 0.06874 0.0
C715 C 0.88694 0.25096 0.08127 0.0
C716 C 0.88104 0.27684 0.0745 0.0
C717 C 0.88371 0.28278 0.05534 0.0
C718 C 0.88323 0.24419 0.10142 0.0
C719 C 0.89569 0.26046 0.11493 0.0
C720 C 0.86867 0.22116 0.10729 0.0
C721 C 0.85374 0.20395 0.09379 0.0
C722 C 0.83527 0.21528 0.0811 0.0
C723 C 0.82185 0.19905 0.06811 0.0
C724 C 0.82642 0.17139 0.06783 0.0
C725 C 0.84433 0.15988 0.0806 0.0
C726 C 0.85797 0.17604 0.09353 0.0
C727 C 0.86172 0.24088 0.1908 0.0
C728 C 0.87464 0.219 0.19947 0.0
C729 C 0.86238 0.244 0.17137 0.0
C730 C 0.87595 0.22535 0.16014 0.0
C731 C 0.88736 0.20251 0.1685 0.0
C732 C 0.88678 0.19937 0.18808 0.0
C733 C 0.87992 0.23119 0.13995 0.0
C734 C 0.86752 0.21481 0.12652 0.0
C735 C 0.89432 0.2542 0.1341 0.0
C736 C 0.90842 0.27182 0.14772 0.0
C737 C 0.92773 0.26119 0.16006 0.0
C738 C 0.94056 0.2778 0.17309 0.0
C739 C 0.9344 0.30514 0.17382 0.0
C740 C 0.91544 0.31593 0.16148 0.0
C741 C 0.90252 0.29939 0.14844 0.0
H742 H 0.94435 0.31797 0.18393 0.0
H743 H 0.816 0.15887 0.05776 0.0
H744 H 0.24177 0.3415 0.29622 0.0
H745 H 0.23392 0.34165 0.33002 0.0
H746 H 0.30221 0.39365 0.33787 0.0
H747 H 0.31049 0.39333 0.3039 0.0
H748 H 0.29623 0.35655 0.36695 0.0
H749 H 0.24206 0.421 0.33371 0.0
H750 H 0.21042 0.43554 0.30909 0.0
H751 H 0.15061 0.38181 0.33081 0.0
H752 H 0.18207 0.36665 0.3554 0.0
H753 H 0.26388 0.41404 0.45269 0.0
H754 H 0.27169 0.40999 0.419 0.0
H755 H 0.19998 0.362 0.41357 0.0
H756 H 0.19145 0.36708 0.44751 0.0
H757 H 0.2072 0.39483 0.3834 0.0
H758 H 0.26129 0.33193 0.41786 0.0
H759 H 0.2924 0.32016 0.44354 0.0
H760 H 0.35236 0.3721 0.42003 0.0
H761 H 0.32146 0.38451 0.39434 0.0
C762 C 0.2555 0.35253 0.30515 0.0
C763 C 0.27652 0.36776 0.29738 0.0
C764 C 0.25094 0.35262 0.32447 0.0
C765 C 0.26708 0.36818 0.33636 0.0
C766 C 0.28941 0.38165 0.32888 0.0
C767 C 0.29414 0.38143 0.30948 0.0
C768 C 0.25907 0.37235 0.35619 0.0
C769 C 0.27688 0.36509 0.37056 0.0
C770 C 0.2336 0.38312 0.36087 0.0
C771 C 0.2145 0.3925 0.34628 0.0
C772 C 0.22222 0.41216 0.33316 0.0
C773 C 0.20432 0.42052 0.31922 0.0
C774 C 0.17854 0.40955 0.31836 0.0
C775 C 0.17059 0.39026 0.33148 0.0
C776 C 0.18844 0.38179 0.34543 0.0
C777 C 0.24952 0.40302 0.44424 0.0
C778 C 0.22725 0.39056 0.45259 0.0
C779 C 0.25407 0.40061 0.42504 0.0
C780 C 0.2369 0.38497 0.41391 0.0
C781 C 0.21363 0.37391 0.42199 0.0
C782 C 0.20873 0.37683 0.44129 0.0
C783 C 0.24434 0.37905 0.39418 0.0
C784 C 0.22645 0.38602 0.37981 0.0
C785 C 0.26974 0.36804 0.38952 0.0
C786 C 0.28898 0.35929 0.40424 0.0
C787 C 0.28111 0.34084 0.41816 0.0
C788 C 0.29866 0.33412 0.43274 0.0
C789 C 0.32424 0.34552 0.43346 0.0
C790 C 0.33248 0.36337 0.41947 0.0
C791 C 0.31498 0.37022 0.40487 0.0
H792 H 0.3377 0.34043 0.44483 0.0
H793 H 0.16471 0.41604 0.30755 0.0
H794 H 0.37733 0.68872 0.69565 0.0
H795 H 0.37347 0.69692 0.6618 0.0
H796 H 0.37098 0.78229 0.67201 0.0
H797 H 0.37372 0.77431 0.7056 0.0
H798 H 0.33693 0.77132 0.64615 0.0
H799 H 0.4292 0.74854 0.65704 0.0
H800 H 0.46679 0.72067 0.66831 0.0
H801 H 0.4423 0.65665 0.63172 0.0
H802 H 0.40433 0.68404 0.62041 0.0
H803 H 0.37896 0.8144 0.55351 0.0
H804 H 0.37603 0.80604 0.58747 0.0
H805 H 0.3623 0.72194 0.57685 0.0
H806 H 0.36483 0.72995 0.54322 0.0
H807 H 0.40389 0.73207 0.60253 0.0
H808 H 0.31206 0.75793 0.59093 0.0
H809 H 0.27613 0.78797 0.57975 0.0
H810 H 0.30259 0.84933 0.61787 0.0
H811 H 0.33895 0.81979 0.62908 0.0
C812 C 0.37581 0.7092 0.69066 0.0
C813 C 0.37595 0.73082 0.70334 0.0
C814 C 0.37373 0.71389 0.67131 0.0
C815 C 0.37234 0.74028 0.66431 0.0
C816 C 0.37199 0.76177 0.67701 0.0
C817 C 0.37367 0.75712 0.69627 0.0
C818 C 0.37174 0.74579 0.64379 0.0
C819 C 0.35177 0.76293 0.63666 0.0
C820 C 0.39089 0.73469 0.63132 0.0
C821 C 0.41376 0.71823 0.63803 0.0
C822 C 0.43172 0.72845 0.6515 0.0
C823 C 0.45311 0.71275 0.65788 0.0
C824 C 0.45688 0.68687 0.65078 0.0
C825 C 0.43932 0.67668 0.63724 0.0
C826 C 0.41787 0.69228 0.63082 0.0
C827 C 0.37498 0.79422 0.55841 0.0
C828 C 0.37228 0.77287 0.54561 0.0
C829 C 0.37332 0.78947 0.57779 0.0
C830 C 0.36905 0.76334 0.58461 0.0
C831 C 0.36574 0.74221 0.57187 0.0
C832 C 0.36715 0.74691 0.55261 0.0
C833 C 0.36917 0.75755 0.605 0.0
C834 C 0.38908 0.74038 0.61207 0.0
C835 C 0.35026 0.76898 0.61743 0.0
C836 C 0.32842 0.78676 0.61069 0.0
C837 C 0.31039 0.77793 0.5968 0.0
C838 C 0.28991 0.79484 0.59048 0.0
C839 C 0.28713 0.82057 0.59805 0.0
C840 C 0.3048 0.82942 0.61199 0.0
C841 C 0.32533 0.81259 0.61834 0.0
H842 H 0.27125 0.83363 0.59315 0.0
H843 H 0.47345 0.67475 0.65574 0.0
H844 H 0.74232 0.65107 0.45262 0.0
H845 H 0.73665 0.65126 0.41874 0.0
H846 H 0.81001 0.60637 0.41229 0.0
H847 H 0.81599 0.60601 0.44662 0.0
H848 H 0.79994 0.64901 0.38399 0.0
H849 H 0.75753 0.57156 0.41183 0.0
H850 H 0.72858 0.54871 0.43493 0.0
H851 H 0.66082 0.59452 0.41596 0.0
H852 H 0.68948 0.61797 0.39294 0.0
H853 H 0.77294 0.60143 0.29289 0.0
H854 H 0.78404 0.60534 0.32601 0.0
H855 H 0.70355 0.63252 0.33782 0.0
H856 H 0.69187 0.62743 0.30447 0.0
H857 H 0.71873 0.59906 0.36364 0.0
H858 H 0.75975 0.67611 0.33543 0.0
H859 H 0.78796 0.69999 0.3124 0.0
H860 H 0.8574 0.65729 0.33191 0.0
H861 H 0.82952 0.63281 0.35487 0.0
C862 C 0.75758 0.64156 0.4441 0.0
C863 C 0.77945 0.62817 0.45239 0.0
C864 C 0.75426 0.64174 0.42469 0.0
C865 C 0.77266 0.62848 0.41309 0.0
C866 C 0.79556 0.61665 0.42109 0.0
C867 C 0.79893 0.61645 0.44067 0.0
C868 C 0.76634 0.62509 0.39291 0.0
C869 C 0.78245 0.63778 0.37944 0.0
C870 C 0.74307 0.61105 0.38714 0.0
C871 C 0.7257 0.59668 0.40077 0.0
C872 C 0.7365 0.5769 0.41268 0.0
C873 C 0.72014 0.56383 0.42574 0.0
C874 C 0.69289 0.57021 0.42694 0.0
C875 C 0.68193 0.58962 0.41503 0.0
C876 C 0.69822 0.60279 0.40196 0.0
C877 C 0.75754 0.6083 0.3025 0.0
C878 C 0.73156 0.61441 0.29604 0.0
C879 C 0.76401 0.61069 0.32146 0.0
C880 C 0.7449 0.61994 0.33438 0.0
C881 C 0.71872 0.62556 0.32807 0.0
C882 C 0.71204 0.62267 0.30904 0.0
C883 C 0.75223 0.6231 0.3545 0.0
C884 C 0.73627 0.61033 0.36805 0.0
C885 C 0.77553 0.63727 0.36029 0.0
C886 C 0.79248 0.65244 0.34678 0.0
C887 C 0.78101 0.6717 0.33475 0.0
C888 C 0.79694 0.68535 0.3217 0.0
C889 C 0.82445 0.68011 0.32065 0.0
C890 C 0.83609 0.6613 0.33272 0.0
C891 C 0.82023 0.64755 0.34577 0.0
H892 H 0.83674 0.69065 0.31051 0.0
H893 H 0.68026 0.56007 0.43707 0.0
H894 H 0.60543 0.27563 0.54337 0.0
H895 H 0.60944 0.28368 0.57694 0.0
H896 H 0.63374 0.20138 0.58533 0.0
H897 H 0.62845 0.19283 0.55148 0.0
H898 H 0.60167 0.21623 0.61242 0.0
H899 H 0.67983 0.25503 0.5846 0.0
H900 H 0.70447 0.28303 0.56183 0.0
H901 H 0.6653 0.35354 0.58305 0.0
H902 H 0.64009 0.32592 0.60575 0.0
H903 H 0.64848 0.23848 0.70382 0.0
H904 H 0.65089 0.23105 0.67005 0.0
H905 H 0.61299 0.30757 0.66024 0.0
H906 H 0.6105 0.31534 0.69425 0.0
H907 H 0.65468 0.29475 0.63412 0.0
H908 H 0.57488 0.25457 0.66058 0.0
H909 H 0.5504 0.22597 0.68307 0.0
H910 H 0.5946 0.15707 0.66419 0.0
H911 H 0.61963 0.18537 0.64177 0.0
C912 C 0.61158 0.25918 0.55235 0.0
C913 C 0.61698 0.23367 0.54482 0.0
C914 C 0.61403 0.26387 0.57155 0.0
C915 C 0.62274 0.2434 0.58361 0.0
C916 C 0.62729 0.21758 0.57624 0.0
C917 C 0.62426 0.21269 0.55696 0.0
C918 C 0.62686 0.24918 0.60387 0.0
C919 C 0.61368 0.2331 0.61714 0.0
C920 C 0.64215 0.27154 0.61007 0.0
C921 C 0.65792 0.28835 0.59681 0.0
C922 C 0.67639 0.2765 0.58437 0.0
C923 C 0.69046 0.2923 0.57147 0.0
C924 C 0.68641 0.32004 0.57096 0.0
C925 C 0.6684 0.33205 0.58344 0.0
C926 C 0.65424 0.31633 0.59636 0.0
C927 C 0.64097 0.25398 0.69453 0.0
C928 C 0.6289 0.27736 0.70175 0.0
C929 C 0.64239 0.24966 0.67522 0.0
C930 C 0.63168 0.26852 0.66271 0.0
C931 C 0.62127 0.29272 0.66973 0.0
C932 C 0.61985 0.29712 0.68914 0.0
C933 C 0.62941 0.26186 0.6425 0.0
C934 C 0.64291 0.27777 0.6293 0.0
C935 C 0.61462 0.23923 0.63635 0.0
C936 C 0.5993 0.22213 0.64963 0.0
C937 C 0.5795 0.23335 0.66131 0.0
C938 C 0.56551 0.21719 0.67404 0.0
C939 C 0.57099 0.18973 0.67509 0.0
C940 C 0.5904 0.17835 0.66338 0.0
C941 C 0.60448 0.19444 0.65065 0.0
H942 H 0.56015 0.17725 0.68496 0.0
H943 H 0.69726 0.33223 0.56091 0.0
H944 H 0.19974 0.04253 0.02107 0.0
H945 H 0.18553 0.9957 0.02018 0.0
H946 H 0.26805 0.97024 0.02467 0.0
H947 H 0.28249 0.01707 0.02508 0.0
H948 H 0.24522 0.94593 0.99653 0.0
H949 H 0.22199 0.95992 0.06066 0.0
H950 H 0.20138 0.98257 0.08787 0.0
H951 H 0.12312 0.97071 0.06405 0.0
H952 H 0.14328 0.94832 0.03655 0.0
H953 H 0.20973 0.80683 0.00572 0.0
H954 H 0.22672 0.85204 0.01223 0.0
H955 H 0.14938 0.88538 0.99831 0.0
H956 H 0.13231 0.84038 0.99157 0.0
H957 H 0.17146 0.90406 0.03302 0.0
H958 H 0.19633 0.89241 0.96797 0.0
H959 H 0.21775 0.86909 0.94135 0.0
H960 H 0.2945 0.87578 0.96837 0.0
H961 H 0.27345 0.89882 0.9953 0.0
C962 C 0.21484 0.02699 0.02228 0.0
C963 C 0.24227 0.03354 0.02301 0.0
C964 C 0.20667 0.00018 0.02182 0.0
C965 C 0.22573 0.97942 0.02239 0.0
C966 C 0.25301 0.98592 0.02412 0.0
C967 C 0.26122 0.01271 0.02441 0.0
C968 C 0.21739 0.95113 0.01947 0.0
C969 C 0.22946 0.93663 0.00479 0.0
C970 C 0.19643 0.93914 0.02995 0.0
C971 C 0.18419 0.95264 0.04646 0.0
C972 C 0.2004 0.96234 0.06114 0.0
C973 C 0.18879 0.97509 0.07664 0.0
C974 C 0.16097 0.97813 0.07767 0.0
C975 C 0.14468 0.96837 0.06322 0.0
C976 C 0.15618 0.95561 0.04769 0.0
C977 C 0.19641 0.82381 0.00391 0.0
C978 C 0.16971 0.82007 0.99811 0.0
C979 C 0.20613 0.84957 0.00764 0.0
C980 C 0.18924 0.87194 0.00579 0.0
C981 C 0.16266 0.8683 0.99988 0.0
C982 C 0.15302 0.84261 0.99592 0.0
C983 C 0.19922 0.89919 0.0101 0.0
C984 C 0.18742 0.91341 0.02497 0.0
C985 C 0.22058 0.91086 0.99993 0.0
C986 C 0.23326 0.89705 0.98374 0.0
C987 C 0.21773 0.88868 0.96832 0.0
C988 C 0.22981 0.87556 0.95316 0.0
C989 C 0.25746 0.87088 0.95319 0.0
C990 C 0.27308 0.87938 0.96837 0.0
C991 C 0.26109 0.89248 0.98358 0.0
H992 H 0.26678 0.86072 0.94144 0.0
H993 H 0.15202 0.98801 0.08968 0.0
H994 H 0.01842 0.70712 0.98214 0.0
H995 H 0.97132 0.7208 0.98287 0.0
H996 H 0.99519 0.8039 0.97998 0.0
H997 H 0.04228 0.79053 0.97926 0.0
H998 H 0.9619 0.79226 0.01009 0.0
H999 H 0.96517 0.77549 0.94325 0.0
H1000 H 0.97366 0.74806 0.91502 0.0
H1001 H 0.91593 0.68996 0.93379 0.0
H1002 H 0.90736 0.71688 0.96227 0.0
H1003 H 0.83974 0.85898 0.00192 0.0
H1004 H 0.88437 0.84087 0.99636 0.0
H1005 H 0.8512 0.76108 0.99189 0.0
H1006 H 0.80599 0.77943 0.99665 0.0
H1007 H 0.88849 0.76768 0.96625 0.0
H1008 H 0.88414 0.78269 0.03232 0.0
H1009 H 0.87545 0.80801 0.06147 0.0
H1010 H 0.93515 0.86603 0.04589 0.0
H1011 H 0.94395 0.84126 0.01652 0.0
C1012 C 0.01367 0.7283 0.98134 0.0
C1013 C 0.03415 0.74775 0.98081 0.0
C1014 C 0.98673 0.73605 0.9817 0.0
C1015 C 0.97985 0.76334 0.98152 0.0
C1016 C 0.00016 0.78273 0.98018 0.0
C1017 C 0.02706 0.77502 0.97972 0.0
C1018 C 0.95173 0.77187 0.98439 0.0
C1019 C 0.94588 0.78721 0.00038 0.0
C1020 C 0.93076 0.7642 0.97214 0.0
C1021 C 0.93583 0.74807 0.95498 0.0
C1022 C 0.95446 0.75675 0.94144 0.0
C1023 C 0.95925 0.74132 0.92538 0.0
C1024 C 0.9454 0.71725 0.92264 0.0
C1025 C 0.92667 0.7086 0.93594 0.0
C1026 C 0.92182 0.72395 0.95203 0.0
C1027 C 0.84192 0.83754 0.99987 0.0
C1028 C 0.81945 0.82053 0.99999 0.0
C1029 C 0.86747 0.8272 0.99672 0.0
C1030 C 0.87124 0.79953 0.99415 0.0
C1031 C 0.84877 0.78249 0.99395 0.0
C1032 C 0.82302 0.79294 0.99676 0.0
C1033 C 0.89872 0.78864 0.99177 0.0
C1034 C 0.90446 0.7727 0.97599 0.0
C1035 C 0.91963 0.79537 0.0044 0.0
C1036 C 0.91456 0.81021 0.02215 0.0
C1037 C 0.8953 0.80094 0.03506 0.0
C1038 C 0.89037 0.81518 0.05162 0.0
C1039 C 0.9047 0.83864 0.05551 0.0
C1040 C 0.92406 0.84786 0.04286 0.0
C1041 C 0.92905 0.83371 0.02626 0.0
H1042 H 0.90085 0.84964 0.06834 0.0
H1043 H 0.94913 0.70532 0.9102 0.0
H1044 H 0.72661 0.97901 0.03011 0.0
H1045 H 0.74479 0.02454 0.0295 0.0
H1046 H 0.81925 0.99431 0.00689 0.0
H1047 H 0.80157 0.94862 0.00817 0.0
H1048 H 0.8294 0.03385 0.03005 0.0
H1049 H 0.76874 0.0204 0.97832 0.0
H1050 H 0.72574 0.0083 0.96339 0.0
H1051 H 0.68596 0.07104 0.99398 0.0
H1052 H 0.72869 0.08328 0.00928 0.0
H1053 H 0.87456 0.15097 0.98226 0.0
H1054 H 0.85711 0.10608 0.98903 0.0
H1055 H 0.79088 0.14095 0.01945 0.0
H1056 H 0.80818 0.18587 0.01285 0.0
H1057 H 0.77597 0.10024 0.99394 0.0
H1058 H 0.83983 0.11566 0.0434 0.0
H1059 H 0.88425 0.12762 0.05618 0.0
H1060 H 0.91961 0.06052 0.02759 0.0
H1061 H 0.87554 0.04851 0.01424 0.0
C1062 C 0.747 0.98203 0.02526 0.0
C1063 C 0.76257 0.9603 0.01899 0.0
C1064 C 0.75732 0.00807 0.02485 0.0
C1065 C 0.78313 0.01291 0.0177 0.0
C1066 C 0.79923 0.99107 0.01238 0.0
C1067 C 0.78908 0.96496 0.01309 0.0
C1068 C 0.79278 0.04074 0.01468 0.0
C1069 C 0.81782 0.04829 0.02203 0.0
C1070 C 0.77751 0.05972 0.0044 0.0
C1071 C 0.75185 0.05257 0.99509 0.0
C1072 C 0.75079 0.0315 0.98195 0.0
C1073 C 0.72647 0.02463 0.97341 0.0
C1074 C 0.70312 0.03885 0.97778 0.0
C1075 C 0.70406 0.06002 0.99064 0.0
C1076 C 0.72832 0.06694 0.99924 0.0
C1077 C 0.85621 0.1491 0.9903 0.0
C1078 C 0.84273 0.17196 0.99701 0.0
C1079 C 0.84636 0.12346 0.99423 0.0
C1080 C 0.82287 0.1203 0.00486 0.0
C1081 C 0.80907 0.14305 0.01124 0.0
C1082 C 0.819 0.16867 0.00745 0.0
C1083 C 0.81257 0.0932 0.00921 0.0
C1084 C 0.78743 0.08582 0.00208 0.0
C1085 C 0.82792 0.07432 0.01944 0.0
C1086 C 0.85439 0.08133 0.02767 0.0
C1087 C 0.8571 0.10358 0.0397 0.0
C1088 C 0.88221 0.11035 0.04707 0.0
C1089 C 0.90472 0.09485 0.0427 0.0
C1090 C 0.90216 0.07252 0.03096 0.0
C1091 C 0.87712 0.06573 0.02348 0.0
H1092 H 0.92413 0.10012 0.04843 0.0
H1093 H 0.68431 0.03349 0.97116 0.0
H1094 H 0.15721 0.14818 0.01712 0.0
H1095 H 0.11468 0.17018 0.0099 0.0
H1096 H 0.15601 0.22709 0.97454 0.0
H1097 H 0.19866 0.20495 0.98145 0.0
H1098 H 0.09569 0.22028 0.0149 0.0
H1099 H 0.11517 0.24017 0.93667 0.0
H1100 H 0.14421 0.22343 0.91113 0.0
H1101 H 0.14646 0.14559 0.93696 0.0
H1102 H 0.11715 0.16176 0.9625 0.0
H1103 H 0.98536 0.29269 0.98144 0.0
H1104 H 0.03296 0.28121 0.98216 0.0
H1105 H 0.01462 0.20139 0.9626 0.0
H1106 H 0.96688 0.21255 0.96189 0.0
H1107 H 0.06476 0.22298 0.94858 0.0
H1108 H 0.01543 0.20871 0.00672 0.0
H1109 H 0.9858 0.22347 0.03249 0.0
H1110 H 0.0422 0.28509 0.04737 0.0
H1111 H 0.07196 0.27094 0.02146 0.0
C1112 C 0.15731 0.16551 0.00792 0.0
C1113 C 0.18125 0.17468 0.99972 0.0
C1114 C 0.133 0.1781 0.00386 0.0
C1115 C 0.1322 0.20003 0.99151 0.0
C1116 C 0.15619 0.20995 0.9839 0.0
C1117 C 0.18053 0.19732 0.98793 0.0
C1118 C 0.10602 0.21168 0.98612 0.0
C1119 C 0.08906 0.22108 0.00039 0.0
C1120 C 0.09731 0.21253 0.96718 0.0
C1121 C 0.11417 0.20227 0.95157 0.0
C1122 C 0.12174 0.21944 0.93683 0.0
C1123 C 0.13826 0.21006 0.92237 0.0
C1124 C 0.14721 0.18348 0.92244 0.0
C1125 C 0.13956 0.16619 0.93694 0.0
C1126 C 0.123 0.17546 0.95141 0.0
C1127 C 0.99144 0.27289 0.97681 0.0
C1128 C 0.97227 0.25334 0.97195 0.0
C1129 C 0.01867 0.26642 0.9772 0.0
C1130 C 0.02715 0.24039 0.97265 0.0
C1131 C 0.00839 0.22159 0.96616 0.0
C1132 C 0.98111 0.22797 0.96588 0.0
C1133 C 0.0546 0.23154 0.97737 0.0
C1134 C 0.07169 0.22261 0.96303 0.0
C1135 C 0.06338 0.23076 0.99627 0.0
C1136 C 0.04575 0.23897 0.01205 0.0
C1137 C 0.02141 0.22553 0.01541 0.0
C1138 C 0.00461 0.23377 0.03004 0.0
C1139 C 0.01208 0.25526 0.04153 0.0
C1140 C 0.03641 0.26849 0.03844 0.0
C1141 C 0.05326 0.26036 0.02379 0.0
H1142 H 0.99904 0.26161 0.05285 0.0
H1143 H 0.16003 0.17628 0.91125 0.0
H1144 H 0.13912 0.65297 0.26748 0.0
H1145 H 0.1586 0.6085 0.26372 0.0
H1146 H 0.23003 0.64359 0.23979 0.0
H1147 H 0.21021 0.68834 0.24297 0.0
H1148 H 0.21504 0.60214 0.21964 0.0
H1149 H 0.22949 0.61712 0.2849 0.0
H1150 H 0.21793 0.6296 0.31743 0.0
H1151 H 0.16087 0.56512 0.31994 0.0
H1152 H 0.1718 0.55248 0.28732 0.0
H1153 H 0.28628 0.47595 0.22976 0.0
H1154 H 0.27238 0.52304 0.23192 0.0
H1155 H 0.19187 0.49813 0.24563 0.0
H1156 H 0.20536 0.45114 0.24327 0.0
H1157 H 0.21602 0.53542 0.27139 0.0
H1158 H 0.20093 0.52279 0.20489 0.0
H1159 H 0.21404 0.51061 0.17259 0.0
H1160 H 0.2753 0.57122 0.17325 0.0
H1161 H 0.2628 0.5835 0.20568 0.0
C1162 C 0.15909 0.65131 0.26157 0.0
C1163 C 0.17316 0.67419 0.25556 0.0
C1164 C 0.17026 0.62584 0.2595 0.0
C1165 C 0.19595 0.62271 0.25172 0.0
C1166 C 0.2102 0.64554 0.24587 0.0
C1167 C 0.19889 0.67109 0.24776 0.0
C1168 C 0.20733 0.59547 0.2491 0.0
C1169 C 0.21573 0.58772 0.23105 0.0
C1170 C 0.20792 0.57652 0.26392 0.0
C1171 C 0.20134 0.58398 0.2836 0.0
C1172 C 0.21434 0.60572 0.29234 0.0
C1173 C 0.20792 0.6128 0.3108 0.0
C1174 C 0.18864 0.59819 0.32073 0.0
C1175 C 0.17579 0.57643 0.31223 0.0
C1176 C 0.18212 0.56927 0.29376 0.0
C1177 C 0.26553 0.48051 0.23298 0.0
C1178 C 0.24693 0.45982 0.23639 0.0
C1179 C 0.25765 0.50738 0.23418 0.0
C1180 C 0.23116 0.51392 0.23899 0.0
C1181 C 0.21243 0.49338 0.24194 0.0
C1182 C 0.22016 0.46656 0.24049 0.0
C1183 C 0.22319 0.54214 0.24194 0.0
C1184 C 0.21553 0.55001 0.26007 0.0
C1185 C 0.22361 0.56123 0.22728 0.0
C1186 C 0.23115 0.55384 0.2078 0.0
C1187 C 0.21739 0.53334 0.19822 0.0
C1188 C 0.22466 0.52646 0.17987 0.0
C1189 C 0.24555 0.54007 0.1709 0.0
C1190 C 0.25916 0.56065 0.18024 0.0
C1191 C 0.25198 0.56759 0.1986 0.0
H1192 H 0.25115 0.53473 0.15668 0.0
H1193 H 0.1837 0.60371 0.33503 0.0
H1194 H 0.67985 0.81083 0.74677 0.0
H1195 H 0.63757 0.78647 0.75045 0.0
H1196 H 0.60568 0.85181 0.78342 0.0
H1197 H 0.64804 0.87594 0.78016 0.0
H1198 H 0.59197 0.80566 0.79871 0.0
H1199 H 0.58952 0.84339 0.73656 0.0
H1200 H 0.60607 0.85211 0.70448 0.0
H1201 H 0.60403 0.76769 0.69239 0.0
H1202 H 0.5878 0.75844 0.72451 0.0
H1203 H 0.45127 0.78775 0.78451 0.0
H1204 H 0.49781 0.80311 0.78601 0.0
H1205 H 0.52418 0.7291 0.7606 0.0
H1206 H 0.47773 0.71341 0.75916 0.0
H1207 H 0.5422 0.77548 0.74215 0.0
H1208 H 0.53971 0.73928 0.80437 0.0
H1209 H 0.52155 0.73254 0.83624 0.0
H1210 H 0.53089 0.81658 0.84792 0.0
H1211 H 0.54875 0.82391 0.816 0.0
C1212 C 0.66383 0.81998 0.75481 0.0
C1213 C 0.66722 0.84534 0.76314 0.0
C1214 C 0.63967 0.80606 0.75688 0.0
C1215 C 0.61835 0.81746 0.76703 0.0
C1216 C 0.62187 0.8426 0.77556 0.0
C1217 C 0.64608 0.85641 0.77365 0.0
C1218 C 0.59213 0.80354 0.76846 0.0
C1219 C 0.58099 0.79926 0.78633 0.0
C1220 C 0.57805 0.79469 0.75233 0.0
C1221 C 0.58775 0.8002 0.733 0.0
C1222 C 0.59281 0.82667 0.72711 0.0
C1223 C 0.60209 0.83171 0.70891 0.0
C1224 C 0.60618 0.81045 0.69643 0.0
C1225 C 0.60091 0.78412 0.70209 0.0
C1226 C 0.59165 0.77897 0.72029 0.0
C1227 C 0.46699 0.77455 0.77951 0.0
C1228 C 0.46079 0.74942 0.77162 0.0
C1229 C 0.49357 0.78332 0.78044 0.0
C1230 C 0.51436 0.7672 0.77343 0.0
C1231 C 0.50836 0.74178 0.76609 0.0
C1232 C 0.48182 0.73285 0.76535 0.0
C1233 C 0.542 0.77785 0.77236 0.0
C1234 C 0.55336 0.7816 0.75452 0.0
C1235 C 0.55607 0.7865 0.7885 0.0
C1236 C 0.54536 0.78217 0.80772 0.0
C1237 C 0.53767 0.75637 0.81367 0.0
C1238 C 0.52748 0.75243 0.83176 0.0
C1239 C 0.52501 0.77413 0.84408 0.0
C1240 C 0.53279 0.79979 0.83835 0.0
C1241 C 0.54298 0.80385 0.82027 0.0
H1242 H 0.51712 0.77103 0.85809 0.0
H1243 H 0.61337 0.8144 0.68234 0.0
H1244 H 0.82728 0.32816 0.27126 0.0
H1245 H 0.80623 0.37235 0.26864 0.0
H1246 H 0.78329 0.35449 0.21148 0.0
H1247 H 0.80319 0.30994 0.21435 0.0
H1248 H 0.81839 0.41227 0.24843 0.0
H1249 H 0.72917 0.38972 0.19806 0.0
H1250 H 0.69719 0.35309 0.1915 0.0
H1251 H 0.70721 0.32323 0.24766 0.0
H1252 H 0.73897 0.35986 0.25463 0.0
H1253 H 0.77655 0.53541 0.21261 0.0
H1254 H 0.78901 0.48799 0.21315 0.0
H1255 H 0.71751 0.46975 0.24488 0.0
H1256 H 0.70441 0.51692 0.24378 0.0
H1257 H 0.72776 0.42991 0.22233 0.0
H1258 H 0.77827 0.48092 0.26684 0.0
H1259 H 0.80761 0.51767 0.27766 0.0
H1260 H 0.87041 0.49001 0.24117 0.0
H1261 H 0.84129 0.4533 0.22993 0.0
C1262 C 0.81744 0.33359 0.25823 0.0
C1263 C 0.81681 0.31564 0.24303 0.0
C1264 C 0.80548 0.35885 0.25672 0.0
C1265 C 0.79295 0.36674 0.23991 0.0
C1266 C 0.79223 0.34871 0.22475 0.0
C1267 C 0.80374 0.32327 0.22637 0.0
C1268 C 0.78199 0.39432 0.23791 0.0
C1269 C 0.79853 0.41605 0.24277 0.0
C1270 C 0.75593 0.39938 0.23079 0.0
C1271 C 0.73665 0.3774 0.22679 0.0
C1272 C 0.72447 0.3754 0.20903 0.0
C1273 C 0.7064 0.35462 0.20524 0.0
C1274 C 0.70024 0.3358 0.21914 0.0
C1275 C 0.71208 0.33776 0.23688 0.0
C1276 C 0.73014 0.3585 0.24075 0.0
C1277 C 0.76323 0.52122 0.21939 0.0
C1278 C 0.73968 0.52996 0.22837 0.0
C1279 C 0.77043 0.49415 0.21976 0.0
C1280 C 0.75455 0.47545 0.22949 0.0
C1281 C 0.73016 0.48384 0.23739 0.0
C1282 C 0.72271 0.51085 0.23676 0.0
C1283 C 0.76431 0.44768 0.23264 0.0
C1284 C 0.7476 0.42601 0.22799 0.0
C1285 C 0.78985 0.4426 0.24059 0.0
C1286 C 0.80751 0.46452 0.24742 0.0
C1287 C 0.79828 0.48278 0.26104 0.0
C1288 C 0.81487 0.50359 0.26725 0.0
C1289 C 0.84083 0.50621 0.26007 0.0
C1290 C 0.85028 0.48798 0.2467 0.0
C1291 C 0.83375 0.46715 0.24041 0.0
H1292 H 0.85365 0.52234 0.2649 0.0
H1293 H 0.68626 0.31972 0.21617 0.0
H1294 H 0.30574 0.21635 0.75461 0.0
H1295 H 0.34997 0.23713 0.75888 0.0
H1296 H 0.38781 0.16016 0.75077 0.0
H1297 H 0.34391 0.13934 0.74619 0.0
H1298 H 0.40537 0.19015 0.78344 0.0
H1299 H 0.39007 0.20015 0.71653 0.0
H1300 H 0.36394 0.21502 0.68901 0.0
H1301 H 0.36912 0.29672 0.70788 0.0
H1302 H 0.39492 0.28225 0.73571 0.0
H1303 H 0.5415 0.21229 0.76499 0.0
H1304 H 0.4943 0.19976 0.76493 0.0
H1305 H 0.47174 0.28332 0.76294 0.0
H1306 H 0.51915 0.29613 0.76257 0.0
H1307 H 0.44376 0.25518 0.73797 0.0
H1308 H 0.46282 0.24665 0.8031 0.0
H1309 H 0.48775 0.2325 0.83133 0.0
H1310 H 0.4744 0.14979 0.81718 0.0
H1311 H 0.4497 0.16343 0.7887 0.0
C1312 C 0.32351 0.20391 0.75368 0.0
C1313 C 0.32142 0.17625 0.75005 0.0
C1314 C 0.34868 0.21579 0.75611 0.0
C1315 C 0.37201 0.2001 0.75517 0.0
C1316 C 0.36996 0.17252 0.75159 0.0
C1317 C 0.3449 0.16072 0.74888 0.0
C1318 C 0.39872 0.21226 0.75789 0.0
C1319 C 0.41391 0.20426 0.77348 0.0
C1320 C 0.40927 0.23132 0.74519 0.0
C1321 C 0.39413 0.24008 0.72832 0.0
C1322 C 0.38543 0.22126 0.7149 0.0
C1323 C 0.37072 0.22962 0.69923 0.0
C1324 C 0.36479 0.25679 0.69673 0.0
C1325 C 0.37367 0.27567 0.70986 0.0
C1326 C 0.38835 0.2674 0.72558 0.0
C1327 C 0.52656 0.22808 0.76473 0.0
C1328 C 0.53414 0.25523 0.7638 0.0
C1329 C 0.49954 0.22086 0.76478 0.0
C1330 C 0.47948 0.24062 0.76415 0.0
C1331 C 0.48691 0.26777 0.76346 0.0
C1332 C 0.51401 0.27503 0.76333 0.0
C1333 C 0.45086 0.23262 0.76337 0.0
C1334 C 0.43521 0.24141 0.74815 0.0
C1335 C 0.43977 0.21443 0.77653 0.0
C1336 C 0.45455 0.20609 0.79368 0.0
C1337 C 0.46536 0.22544 0.80593 0.0
C1338 C 0.47942 0.21751 0.82199 0.0
C1339 C 0.4827 0.19026 0.82602 0.0
C1340 C 0.47185 0.17089 0.81403 0.0
C1341 C 0.45778 0.17871 0.79794 0.0
H1342 H 0.4936 0.18416 0.83847 0.0
H1343 H 0.35337 0.26321 0.6846 0.0
H1344 H 0.70348 0.54959 0.51081 0.0
H1345 H 0.68959 0.50265 0.51091 0.0
H1346 H 0.77066 0.47847 0.52388 0.0
H1347 H 0.78488 0.52537 0.52323 0.0
H1348 H 0.75276 0.44928 0.49665 0.0
H1349 H 0.71855 0.47361 0.55658 0.0
H1350 H 0.69375 0.50045 0.57993 0.0
H1351 H 0.61998 0.485 0.5507 0.0
H1352 H 0.64439 0.45837 0.527 0.0
H1353 H 0.71122 0.31245 0.5128 0.0
H1354 H 0.72819 0.35795 0.51842 0.0
H1355 H 0.65698 0.39109 0.49301 0.0
H1356 H 0.64006 0.34584 0.48705 0.0
H1357 H 0.67217 0.41387 0.52921 0.0
H1358 H 0.70913 0.39203 0.46805 0.0
H1359 H 0.73504 0.36411 0.44593 0.0
H1360 H 0.80553 0.3738 0.47996 0.0
H1361 H 0.7799 0.40147 0.50245 0.0
C1362 C 0.71829 0.53433 0.51396 0.0
C1363 C 0.7453 0.54123 0.51696 0.0
C1364 C 0.71029 0.50746 0.51409 0.0
C1365 C 0.72903 0.48698 0.51757 0.0
C1366 C 0.75585 0.4939 0.52113 0.0
C1367 C 0.76393 0.52074 0.5208 0.0
C1368 C 0.72096 0.45835 0.51623 0.0
C1369 C 0.73543 0.44146 0.50408 0.0
C1370 C 0.69815 0.44814 0.52571 0.0
C1371 C 0.68335 0.46417 0.53991 0.0
C1372 C 0.69707 0.47611 0.55504 0.0
C1373 C 0.68307 0.49126 0.56836 0.0
C1374 C 0.65532 0.49448 0.56678 0.0
C1375 C 0.64149 0.48251 0.55189 0.0
C1376 C 0.65539 0.46736 0.53852 0.0
C1377 C 0.69927 0.32943 0.50829 0.0
C1378 C 0.67438 0.32557 0.49939 0.0
C1379 C 0.70897 0.35535 0.51154 0.0
C1380 C 0.69377 0.37775 0.50614 0.0
C1381 C 0.66892 0.37398 0.49732 0.0
C1382 C 0.6594 0.34812 0.49381 0.0
C1383 C 0.70377 0.40524 0.50953 0.0
C1384 C 0.68965 0.4218 0.52202 0.0
C1385 C 0.72709 0.41506 0.50059 0.0
C1386 C 0.74252 0.39854 0.48704 0.0
C1387 C 0.73009 0.38799 0.47091 0.0
C1388 C 0.74473 0.37226 0.45829 0.0
C1389 C 0.77189 0.36711 0.46157 0.0
C1390 C 0.78448 0.37776 0.47746 0.0
C1391 C 0.76991 0.39348 0.49014 0.0
H1392 H 0.7832 0.35494 0.45178 0.0
H1393 H 0.64452 0.50621 0.5771 0.0
H1394 H 0.55367 0.29516 0.45993 0.0
H1395 H 0.50874 0.31457 0.45806 0.0
H1396 H 0.47589 0.24416 0.48484 0.0
H1397 H 0.52061 0.22421 0.48616 0.0
H1398 H 0.44147 0.26279 0.45974 0.0
H1399 H 0.49288 0.30026 0.51039 0.0
H1400 H 0.53184 0.3226 0.52495 0.0
H1401 H 0.51864 0.39223 0.49061 0.0
H1402 H 0.4798 0.37012 0.47565 0.0
H1403 H 0.32746 0.32225 0.5042 0.0
H1404 H 0.36977 0.29962 0.49689 0.0
H1405 H 0.39595 0.36888 0.46548 0.0
H1406 H 0.35375 0.39166 0.47271 0.0
H1407 H 0.43333 0.35136 0.49115 0.0
H1408 H 0.3805 0.31235 0.44097 0.0
H1409 H 0.34137 0.28872 0.42756 0.0
H1410 H 0.35633 0.22129 0.46361 0.0
H1411 H 0.39557 0.24449 0.47719 0.0
C1412 C 0.53681 0.2836 0.4651 0.0
C1413 C 0.54073 0.25833 0.47344 0.0
C1414 C 0.51116 0.29475 0.46409 0.0
C1415 C 0.48908 0.28111 0.47177 0.0
C1416 C 0.49267 0.25511 0.47893 0.0
C1417 C 0.51827 0.24376 0.4797 0.0
C1418 C 0.46277 0.29471 0.47371 0.0
C1419 C 0.43967 0.28207 0.46672 0.0
C1420 C 0.46042 0.31999 0.48268 0.0
C1421 C 0.48362 0.33343 0.49177 0.0
C1422 C 0.4984 0.32026 0.50586 0.0
C1423 C 0.52045 0.33289 0.51419 0.0
C1424 C 0.52776 0.35879 0.50867 0.0
C1425 C 0.51298 0.37215 0.49484 0.0
C1426 C 0.49094 0.35959 0.48644 0.0
C1427 C 0.3422 0.33264 0.49571 0.0
C1428 C 0.33735 0.3588 0.48913 0.0
C1429 C 0.36625 0.31959 0.4914 0.0
C1430 C 0.38584 0.3325 0.4805 0.0
C1431 C 0.38102 0.35856 0.47387 0.0
C1432 C 0.35693 0.37155 0.47805 0.0
C1433 C 0.4121 0.31953 0.47708 0.0
C1434 C 0.43519 0.33224 0.48396 0.0
C1435 C 0.41435 0.29419 0.46827 0.0
C1436 C 0.39075 0.28026 0.46021 0.0
C1437 C 0.37528 0.29258 0.44613 0.0
C1438 C 0.35314 0.27924 0.43847 0.0
C1439 C 0.34626 0.25361 0.44482 0.0
C1440 C 0.36163 0.24117 0.45874 0.0
C1441 C 0.38387 0.25436 0.46637 0.0
H1442 H 0.32909 0.24335 0.43889 0.0
H1443 H 0.54484 0.36853 0.51513 0.0
H1444 H 0.28954 0.69111 0.50762 0.0
H1445 H 0.27314 0.64568 0.51366 0.0
H1446 H 0.34788 0.61305 0.49326 0.0
H1447 H 0.36407 0.65831 0.48667 0.0
H1448 H 0.30814 0.584 0.48096 0.0
H1449 H 0.33403 0.61933 0.54087 0.0
H1450 H 0.3344 0.65198 0.56691 0.0
H1451 H 0.25003 0.63956 0.57553 0.0
H1452 H 0.24907 0.60711 0.54933 0.0
H1453 H 0.30049 0.45501 0.51906 0.0
H1454 H 0.31474 0.50181 0.51779 0.0
H1455 H 0.23282 0.5276 0.52492 0.0
H1456 H 0.21816 0.48072 0.52607 0.0
H1457 H 0.27483 0.55995 0.54453 0.0
H1458 H 0.25064 0.52404 0.48348 0.0
H1459 H 0.25285 0.48968 0.45858 0.0
H1460 H 0.33776 0.50226 0.45335 0.0
H1461 H 0.33612 0.53637 0.47849 0.0
C1462 C 0.30239 0.67424 0.50429 0.0
C1463 C 0.32815 0.67829 0.49677 0.0
C1464 C 0.29306 0.6483 0.50786 0.0
C1465 C 0.30949 0.62599 0.50426 0.0
C1466 C 0.33489 0.62997 0.49621 0.0
C1467 C 0.34412 0.65587 0.49246 0.0
C1468 C 0.30039 0.59847 0.509 0.0
C1469 C 0.30113 0.57876 0.49492 0.0
C1470 C 0.29089 0.59163 0.52716 0.0
C1471 C 0.29143 0.611 0.54301 0.0
C1472 C 0.31551 0.62371 0.54822 0.0
C1473 C 0.31584 0.64216 0.56302 0.0
C1474 C 0.29224 0.6479 0.57283 0.0
C1475 C 0.26828 0.63513 0.56789 0.0
C1476 C 0.26784 0.6167 0.55308 0.0
C1477 C 0.2855 0.47056 0.52082 0.0
C1478 C 0.25811 0.46412 0.52239 0.0
C1479 C 0.29373 0.49729 0.52008 0.0
C1480 C 0.27475 0.518 0.52103 0.0
C1481 C 0.24769 0.51178 0.52414 0.0
C1482 C 0.23938 0.485 0.52471 0.0
C1483 C 0.2828 0.54578 0.51654 0.0
C1484 C 0.2818 0.56541 0.53061 0.0
C1485 C 0.2924 0.55253 0.49845 0.0
C1486 C 0.2933 0.53257 0.48298 0.0
C1487 C 0.26981 0.51935 0.47711 0.0
C1488 C 0.27095 0.49993 0.46295 0.0
C1489 C 0.29544 0.49374 0.45442 0.0
C1490 C 0.31881 0.50705 0.45999 0.0
C1491 C 0.31779 0.52644 0.47418 0.0
H1492 H 0.29629 0.47867 0.44348 0.0
H1493 H 0.29253 0.66219 0.58428 0.0
H1494 H 0.45637 0.71746 0.46552 0.0
H1495 H 0.50342 0.70359 0.46646 0.0
H1496 H 0.52246 0.77277 0.50049 0.0
H1497 H 0.47583 0.7874 0.49876 0.0
H1498 H 0.56176 0.76455 0.47855 0.0
H1499 H 0.51079 0.70831 0.51966 0.0
H1500 H 0.47439 0.67728 0.52859 0.0
H1501 H 0.50316 0.61938 0.48869 0.0
H1502 H 0.53954 0.65022 0.47935 0.0
H1503 H 0.66458 0.66267 0.52299 0.0
H1504 H 0.6196 0.68201 0.52071 0.0
H1505 H 0.63787 0.71125 0.46506 0.0
H1506 H 0.68314 0.69294 0.46759 0.0
H1507 H 0.58007 0.67129 0.49934 0.0
H1508 H 0.60253 0.76664 0.45472 0.0
H1509 H 0.63882 0.79982 0.45064 0.0
H1510 H 0.66733 0.78331 0.50639 0.0
H1511 H 0.63101 0.75032 0.5109 0.0
C1512 C 0.4707 0.72987 0.47297 0.0
C1513 C 0.46241 0.75339 0.48219 0.0
C1514 C 0.49754 0.72186 0.4736 0.0
C1515 C 0.51639 0.73677 0.48395 0.0
C1516 C 0.50832 0.76087 0.49247 0.0
C1517 C 0.48162 0.7692 0.49149 0.0
C1518 C 0.54419 0.72674 0.48662 0.0
C1519 C 0.56576 0.74414 0.48307 0.0
C1520 C 0.54947 0.70034 0.49303 0.0
C1521 C 0.52772 0.68167 0.49869 0.0
C1522 C 0.50925 0.68902 0.51271 0.0
C1523 C 0.48864 0.67146 0.51786 0.0
C1524 C 0.48643 0.6464 0.50918 0.0
C1525 C 0.50487 0.63881 0.49538 0.0
C1526 C 0.52551 0.65631 0.49017 0.0
C1527 C 0.65904 0.67344 0.51034 0.0
C1528 C 0.67736 0.6764 0.49549 0.0
C1529 C 0.63333 0.68442 0.50903 0.0
C1530 C 0.62538 0.69832 0.49278 0.0
C1531 C 0.64368 0.70117 0.47791 0.0
C1532 C 0.66953 0.69059 0.47934 0.0
C1533 C 0.59768 0.70903 0.49114 0.0
C1534 C 0.57611 0.69171 0.49483 0.0
C1535 C 0.59242 0.73581 0.48558 0.0
C1536 C 0.6142 0.7558 0.48306 0.0
C1537 C 0.61648 0.77016 0.46613 0.0
C1538 C 0.63707 0.78893 0.46374 0.0
C1539 C 0.65542 0.7936 0.47822 0.0
C1540 C 0.65317 0.77959 0.49515 0.0
C1541 C 0.63261 0.76083 0.49762 0.0
H1542 H 0.67134 0.80812 0.47633 0.0
H1543 H 0.47045 0.63283 0.51318 0.0
H1544 H 0.69823 0.94769 0.75268 0.0
H1545 H 0.68099 0.99361 0.75428 0.0
H1546 H 0.75674 0.02366 0.73375 0.0
H1547 H 0.77429 0.97802 0.73259 0.0
H1548 H 0.74155 0.05134 0.7632 0.0
H1549 H 0.69911 0.02184 0.70604 0.0
H1550 H 0.67139 0.99205 0.68631 0.0
H1551 H 0.60325 0.00685 0.72175 0.0
H1552 H 0.63067 0.03648 0.74184 0.0
H1553 H 0.70382 0.18455 0.73979 0.0
H1554 H 0.71826 0.13768 0.73865 0.0
H1555 H 0.64407 0.11321 0.76473 0.0
H1556 H 0.6294 0.16 0.76592 0.0
H1557 H 0.65695 0.08251 0.73366 0.0
H1558 H 0.69926 0.11312 0.79017 0.0
H1559 H 0.72689 0.14349 0.80951 0.0
H1560 H 0.79542 0.12688 0.77484 0.0
H1561 H 0.76809 0.09667 0.75512 0.0
C1562 C 0.71107 0.96406 0.74827 0.0
C1563 C 0.73764 0.95924 0.74255 0.0
C1564 C 0.70119 0.9903 0.74917 0.0
C1565 C 0.71755 0.01208 0.74406 0.0
C1566 C 0.74381 0.00719 0.73786 0.0
C1567 C 0.75378 0.98106 0.73714 0.0
C1568 C 0.70785 0.0401 0.74589 0.0
C1569 C 0.72323 0.05822 0.75652 0.0
C1570 C 0.68355 0.0489 0.73764 0.0
C1571 C 0.66702 0.03116 0.72555 0.0
C1572 C 0.67827 0.01858 0.70971 0.0
C1573 C 0.6626 0.00175 0.69845 0.0
C1574 C 0.63559 0.9975 0.70281 0.0
C1575 C 0.62418 0.01013 0.71841 0.0
C1576 C 0.63977 0.02696 0.72973 0.0
C1577 C 0.69063 0.16923 0.74538 0.0
C1578 C 0.66548 0.17599 0.75296 0.0
C1579 C 0.69893 0.14248 0.74475 0.0
C1580 C 0.68225 0.12205 0.75168 0.0
C1581 C 0.65719 0.12872 0.75929 0.0
C1582 C 0.64892 0.15547 0.76004 0.0
C1583 C 0.69086 0.09368 0.75071 0.0
C1584 C 0.67525 0.07553 0.74032 0.0
C1585 C 0.71498 0.08485 0.75913 0.0
C1586 C 0.73155 0.10282 0.77106 0.0
C1587 C 0.72017 0.1161 0.78658 0.0
C1588 C 0.73579 0.13327 0.79762 0.0
C1589 C 0.76287 0.13718 0.79338 0.0
C1590 C 0.77442 0.12386 0.7781 0.0
C1591 C 0.75888 0.10669 0.767 0.0
H1592 H 0.77492 0.15049 0.80194 0.0
H1593 H 0.6235 0.98446 0.69407 0.0
H1594 H 0.18389 0.28934 0.26481 0.0
H1595 H 0.13738 0.27474 0.26889 0.0
H1596 H 0.10967 0.34641 0.24099 0.0
H1597 H 0.15604 0.36122 0.23687 0.0
H1598 H 0.08204 0.33589 0.27397 0.0
H1599 H 0.10902 0.28858 0.21797 0.0
H1600 H 0.13801 0.25882 0.19915 0.0
H1601 H 0.12312 0.19402 0.23754 0.0
H1602 H 0.09433 0.22353 0.25675 0.0
H1603 H 0.94671 0.29764 0.25537 0.0
H1604 H 0.99311 0.31359 0.25528 0.0
H1605 H 0.01965 0.23685 0.27644 0.0
H1606 H 0.9735 0.22055 0.27595 0.0
H1607 H 0.04849 0.24995 0.24778 0.0
H1608 H 0.02081 0.29578 0.30355 0.0
H1609 H 0.99241 0.32505 0.32317 0.0
H1610 H 0.00898 0.39172 0.28674 0.0
H1611 H 0.03721 0.36275 0.26675 0.0
C1612 C 0.16792 0.30192 0.25943 0.0
C1613 C 0.17366 0.32641 0.25048 0.0
C1614 C 0.14137 0.29355 0.26178 0.0
C1615 C 0.12014 0.30949 0.2552 0.0
C1616 C 0.1258 0.33388 0.24621 0.0
C1617 C 0.15232 0.34221 0.24378 0.0
C1618 C 0.09198 0.30079 0.25774 0.0
C1619 C 0.07454 0.31724 0.26809 0.0
C1620 C 0.08253 0.27614 0.25048 0.0
C1621 C 0.09974 0.25835 0.2389 0.0
C1622 C 0.11211 0.26805 0.22248 0.0
C1623 C 0.12847 0.25121 0.21173 0.0
C1624 C 0.13246 0.22457 0.21717 0.0
C1625 C 0.12004 0.21468 0.23335 0.0
C1626 C 0.10368 0.23144 0.24417 0.0
C1627 C 0.96239 0.28436 0.26033 0.0
C1628 C 0.9565 0.25781 0.26557 0.0
C1629 C 0.98892 0.29351 0.26032 0.0
C1630 C 0.00991 0.27644 0.26592 0.0
C1631 C 0.00384 0.25033 0.27196 0.0
C1632 C 0.97743 0.24107 0.27172 0.0
C1633 C 0.03834 0.28498 0.26411 0.0
C1634 C 0.05589 0.26853 0.25381 0.0
C1635 C 0.0479 0.30953 0.27156 0.0
C1636 C 0.03093 0.32702 0.28355 0.0
C1637 C 0.01823 0.31663 0.29963 0.0
C1638 C 0.00219 0.33318 0.31084 0.0
C1639 C 0.99884 0.36021 0.30617 0.0
C1640 C 0.01157 0.37077 0.29032 0.0
C1641 C 0.02761 0.3543 0.27906 0.0
H1642 H 0.98642 0.37299 0.31487 0.0
H1643 H 0.14514 0.21156 0.20883 0.0
H1644 H 0.30299 0.81151 0.72651 0.0
H1645 H 0.28686 0.85726 0.72145 0.0
H1646 H 0.3306 0.88397 0.77028 0.0
H1647 H 0.34704 0.83822 0.77542 0.0
H1648 H 0.27742 0.90472 0.7674 0.0
H1649 H 0.35786 0.89464 0.72992 0.0
H1650 H 0.38609 0.87201 0.70627 0.0
H1651 H 0.32537 0.88456 0.66437 0.0
H1652 H 0.29661 0.90695 0.68786 0.0
H1653 H 0.29948 0.0458 0.73061 0.0
H1654 H 0.31401 0.99891 0.73118 0.0
H1655 H 0.23146 0.97303 0.73021 0.0
H1656 H 0.21667 0.0197 0.72972 0.0
H1657 H 0.30486 0.95206 0.70905 0.0
H1658 H 0.22656 0.92403 0.76492 0.0
H1659 H 0.19703 0.9469 0.78769 0.0
H1660 H 0.25399 0.01117 0.79269 0.0
H1661 H 0.28428 0.98821 0.77059 0.0
C1662 C 0.30896 0.82703 0.73631 0.0
C1663 C 0.3264 0.82132 0.75132 0.0
C1664 C 0.29981 0.85315 0.73334 0.0
C1665 C 0.30779 0.87392 0.74539 0.0
C1666 C 0.32431 0.86814 0.76082 0.0
C1667 C 0.33371 0.84205 0.7637 0.0
C1668 C 0.29963 0.90186 0.74153 0.0
C1669 C 0.28338 0.91507 0.75465 0.0
C1670 C 0.30751 0.91526 0.72489 0.0
C1671 C 0.325 0.90226 0.71068 0.0
C1672 C 0.35046 0.89242 0.71569 0.0
C1673 C 0.36657 0.87966 0.70232 0.0
C1674 C 0.3575 0.87679 0.68384 0.0
C1675 C 0.33236 0.88678 0.67869 0.0
C1676 C 0.31616 0.89953 0.69202 0.0
C1677 C 0.28441 0.03015 0.73017 0.0
C1678 C 0.25691 0.0365 0.73046 0.0
C1679 C 0.29277 0.00339 0.7304 0.0
C1680 C 0.27378 0.98264 0.731 0.0
C1681 C 0.24639 0.98885 0.72995 0.0
C1682 C 0.238 0.01555 0.72971 0.0
C1683 C 0.28245 0.95483 0.73485 0.0
C1684 C 0.29882 0.94166 0.72176 0.0
C1685 C 0.27469 0.94144 0.75154 0.0
C1686 C 0.25753 0.95454 0.7659 0.0
C1687 C 0.23292 0.94288 0.77107 0.0
C1688 C 0.21606 0.95585 0.78388 0.0
C1689 C 0.2236 0.9805 0.79162 0.0
C1690 C 0.24817 0.99206 0.78674 0.0
C1691 C 0.26523 0.97904 0.77411 0.0
H1692 H 0.21041 0.99063 0.80141 0.0
H1693 H 0.36999 0.86688 0.67351 0.0
H1694 H 0.01457 0.77407 0.27744 0.0
H1695 H 0.96852 0.75696 0.27627 0.0
H1696 H 0.9985 0.67709 0.26613 0.0
H1697 H 0.04454 0.69382 0.26756 0.0
H1698 H 0.9617 0.6987 0.23835 0.0
H1699 H 0.97052 0.68634 0.30524 0.0
H1700 H 0.97995 0.70066 0.33774 0.0
H1701 H 0.91672 0.759 0.33449 0.0
H1702 H 0.90717 0.74532 0.30185 0.0
H1703 H 0.84069 0.62595 0.23594 0.0
H1704 H 0.88581 0.64242 0.24252 0.0
H1705 H 0.8526 0.71511 0.26594 0.0
H1706 H 0.80732 0.69833 0.25997 0.0
H1707 H 0.89113 0.69811 0.28751 0.0
H1708 H 0.88225 0.71352 0.2217 0.0
H1709 H 0.87237 0.70253 0.18863 0.0
H1710 H 0.93501 0.64337 0.18875 0.0
H1711 H 0.94503 0.65374 0.22192 0.0
C1712 C 0.01137 0.75277 0.27535 0.0
C1713 C 0.03318 0.73532 0.27246 0.0
C1714 C 0.98509 0.74305 0.27474 0.0
C1715 C 0.98026 0.71583 0.27105 0.0
C1716 C 0.00195 0.69818 0.26899 0.0
C1717 C 0.02821 0.70777 0.26988 0.0
C1718 C 0.95271 0.70629 0.26745 0.0
C1719 C 0.94632 0.69815 0.24914 0.0
C1720 C 0.93257 0.70672 0.2814 0.0
C1721 C 0.93834 0.71502 0.30101 0.0
C1722 C 0.95882 0.70243 0.31137 0.0
C1723 C 0.96414 0.71038 0.32984 0.0
C1724 C 0.949 0.73078 0.33815 0.0
C1725 C 0.92846 0.74323 0.32802 0.0
C1726 C 0.92308 0.73537 0.30954 0.0
C1727 C 0.84298 0.64555 0.24234 0.0
C1728 C 0.82046 0.66093 0.24732 0.0
C1729 C 0.8688 0.65496 0.24607 0.0
C1730 C 0.87261 0.68017 0.25449 0.0
C1731 C 0.85014 0.69562 0.25941 0.0
C1732 C 0.82429 0.68606 0.25589 0.0
C1733 C 0.90006 0.69021 0.25837 0.0
C1734 C 0.90646 0.69859 0.27669 0.0
C1735 C 0.92016 0.69054 0.24432 0.0
C1736 C 0.91421 0.68423 0.22436 0.0
C1737 C 0.89378 0.69802 0.21472 0.0
C1738 C 0.88818 0.69192 0.19595 0.0
C1739 C 0.903 0.67221 0.18661 0.0
C1740 C 0.92352 0.6586 0.19602 0.0
C1741 C 0.92918 0.6646 0.21479 0.0
H1742 H 0.89864 0.66753 0.17208 0.0
H1743 H 0.95314 0.7369 0.35245 0.0
H1744 H 0.4196 0.06634 0.03595 0.0
H1745 H 0.46352 0.04744 0.02932 0.0
H1746 H 0.44014 0.03338 0.97176 0.0
H1747 H 0.3954 0.05129 0.97862 0.0
H1748 H 0.46285 0.99025 0.98536 0.0
H1749 H 0.48887 0.08089 0.98274 0.0
H1750 H 0.49155 0.12855 0.99185 0.0
H1751 H 0.5302 0.10671 0.04355 0.0
H1752 H 0.52739 0.05888 0.03491 0.0
H1753 H 0.60702 0.95098 0.98155 0.0
H1754 H 0.56537 0.97467 0.97396 0.0
H1755 H 0.54484 0.97719 0.03274 0.0
H1756 H 0.58551 0.95231 0.04042 0.0
H1757 H 0.54755 0.02985 0.00932 0.0
H1758 H 0.511 0.93801 0.01241 0.0
H1759 H 0.50891 0.89103 0.00157 0.0
H1760 H 0.49187 0.91776 0.94546 0.0
H1761 H 0.49426 0.96494 0.95595 0.0
C1762 C 0.4239 0.05964 0.02179 0.0
C1763 C 0.40414 0.06074 0.00775 0.0
C1764 C 0.44915 0.04901 0.01795 0.0
C1765 C 0.4554 0.03943 0.99993 0.0
C1766 C 0.43588 0.04095 0.98571 0.0
C1767 C 0.41042 0.05154 0.98959 0.0
C1768 C 0.48152 0.02581 0.99675 0.0
C1769 C 0.48148 0.99922 0.99013 0.0
C1770 C 0.50595 0.03743 0.00286 0.0
C1771 C 0.50783 0.06623 0.00817 0.0
C1772 C 0.4978 0.08622 0.99611 0.0
C1773 C 0.49936 0.11328 0.00119 0.0
C1774 C 0.51102 0.12065 0.01828 0.0
C1775 C 0.52119 0.10097 0.03031 0.0
C1776 C 0.51966 0.07387 0.02531 0.0
C1777 C 0.5932 0.95552 0.99281 0.0
C1778 C 0.5994 0.94914 0.0116 0.0
C1779 C 0.56959 0.96945 0.98844 0.0
C1780 C 0.55219 0.97762 0.00281 0.0
C1781 C 0.55811 0.97102 0.02148 0.0
C1782 C 0.58136 0.95679 0.02582 0.0
C1783 C 0.52834 0.99423 0.99882 0.0
C1784 C 0.52898 0.02133 0.00406 0.0
C1785 C 0.50466 0.98327 0.99113 0.0
C1786 C 0.5032 0.95496 0.98489 0.0
C1787 C 0.50712 0.93386 0.99772 0.0
C1788 C 0.5058 0.90721 0.99165 0.0
C1789 C 0.50037 0.90141 0.97282 0.0
C1790 C 0.49615 0.92227 0.96003 0.0
C1791 C 0.49748 0.94897 0.96603 0.0
H1792 H 0.49934 0.88076 0.96815 0.0
H1793 H 0.5122 0.14161 0.02218 0.0
H1794 H 0.02143 0.60071 0.97435 0.0
H1795 H 0.99516 0.56147 0.98321 0.0
H1796 H 0.04962 0.54571 0.02902 0.0
H1797 H 0.07636 0.58521 0.02001 0.0
H1798 H 0.03962 0.501 0.00737 0.0
H1799 H 0.98769 0.5659 0.03945 0.0
H1800 H 0.9636 0.60861 0.04399 0.0
H1801 H 0.90852 0.58763 0.99999 0.0
H1802 H 0.93251 0.54497 0.99495 0.0
H1803 H 0.95446 0.38801 0.01991 0.0
H1804 H 0.97637 0.42996 0.02923 0.0
H1805 H 0.93756 0.471 0.98328 0.0
H1806 H 0.9152 0.42931 0.97421 0.0
H1807 H 0.94059 0.50281 0.01463 0.0
H1808 H -0.00058 0.44455 0.97805 0.0
H1809 H 0.02402 0.40241 0.97217 0.0
H1810 H 0.06634 0.41181 0.02433 0.0
H1811 H 0.04169 0.45385 0.03062 0.0
C1812 C 0.02771 0.58905 0.98642 0.0
C1813 C 0.05077 0.59612 0.99661 0.0
C1814 C 0.01255 0.56675 0.99157 0.0
C1815 C 0.02017 0.55092 0.00697 0.0
C1816 C 0.04323 0.55787 0.01723 0.0
C1817 C 0.05837 0.58046 0.01215 0.0
C1818 C 0.00486 0.52612 0.01118 0.0
C1819 C 0.01807 0.50138 0.00954 0.0
C1820 C 0.9767 0.52664 0.01375 0.0
C1821 C 0.962 0.55222 0.01678 0.0
C1822 C 0.97054 0.57045 0.03065 0.0
C1823 C 0.95689 0.59466 0.03333 0.0
C1824 C 0.93456 0.60084 0.02228 0.0
C1825 C 0.92581 0.58281 0.00855 0.0
C1826 C 0.93941 0.55858 0.0058 0.0
C1827 C 0.94982 0.40619 0.01225 0.0
C1828 C 0.93284 0.40553 0.99648 0.0
C1829 C 0.96259 0.43007 0.01746 0.0
C1830 C 0.95874 0.45355 0.00686 0.0
C1831 C 0.94074 0.45316 0.9917 0.0
C1832 C 0.92807 0.42933 0.98648 0.0
C1833 C 0.97525 0.47786 0.01015 0.0
C1834 C 0.96224 0.50247 0.01312 0.0
C1835 C 0.00359 0.47726 0.00875 0.0
C1836 C 0.01849 0.45211 0.00492 0.0
C1837 C 0.01383 0.4375 0.98833 0.0
C1838 C 0.02779 0.41366 0.98491 0.0
C1839 C 0.04666 0.40438 0.9979 0.0
C1840 C 0.05167 0.41898 0.0143 0.0
C1841 C 0.03771 0.44281 0.0178 0.0
H1842 H 0.05746 0.38592 0.99523 0.0
H1843 H 0.92402 0.6196 0.02437 0.0
H1844 H 0.56272 0.58711 0.23338 0.0
H1845 H 0.52249 0.56152 0.24139 0.0
H1846 H 0.56943 0.5106 0.27778 0.0
H1847 H 0.60988 0.53616 0.26964 0.0
H1848 H 0.53998 0.482 0.25264 0.0
H1849 H 0.52274 0.55026 0.29712 0.0
H1850 H 0.51867 0.5963 0.30945 0.0
H1851 H 0.45539 0.61268 0.27014 0.0
H1852 H 0.45934 0.56685 0.25736 0.0
H1853 H 0.41492 0.41177 0.265 0.0
H1854 H 0.45526 0.43709 0.27418 0.0
H1855 H 0.43306 0.50055 0.23597 0.0
H1856 H 0.39303 0.47545 0.22682 0.0
H1857 H 0.4515 0.51972 0.27062 0.0
H1858 H 0.47668 0.4554 0.22223 0.0
H1859 H 0.48132 0.40985 0.20905 0.0
H1860 H 0.53026 0.38669 0.25599 0.0
H1861 H 0.52559 0.43206 0.26957 0.0
C1862 C 0.5643 0.57088 0.24345 0.0
C1863 C 0.58924 0.56389 0.25115 0.0
C1864 C 0.54132 0.55633 0.24808 0.0
C1865 C 0.5429 0.53433 0.26037 0.0
C1866 C 0.56773 0.52768 0.26844 0.0
C1867 C 0.59075 0.54244 0.26393 0.0
C1868 C 0.5191 0.51687 0.26301 0.0
C1869 C 0.52078 0.49004 0.25711 0.0
C1870 C 0.49399 0.52746 0.26858 0.0
C1871 C 0.49144 0.5551 0.27621 0.0
C1872 C 0.50808 0.56372 0.291 0.0
C1873 C 0.50577 0.58979 0.29809 0.0
C1874 C 0.4868 0.60742 0.29057 0.0
C1875 C 0.47007 0.599 0.27596 0.0
C1876 C 0.47231 0.57295 0.2688 0.0
C1877 C 0.41853 0.43132 0.25884 0.0
C1878 C 0.4009 0.44178 0.24529 0.0
C1879 C 0.44155 0.44568 0.26402 0.0
C1880 C 0.44707 0.4707 0.25576 0.0
C1881 C 0.42906 0.48138 0.2426 0.0
C1882 C 0.40634 0.46695 0.23729 0.0
C1883 C 0.47236 0.48526 0.2597 0.0
C1884 C 0.47089 0.51153 0.26675 0.0
C1885 C 0.49768 0.47419 0.25518 0.0
C1886 C 0.50047 0.44696 0.24704 0.0
C1887 C 0.48821 0.44051 0.22983 0.0
C1888 C 0.49089 0.41475 0.22227 0.0
C1889 C 0.50599 0.39535 0.23171 0.0
C1890 C 0.51851 0.40171 0.24872 0.0
C1891 C 0.51585 0.42743 0.25635 0.0
H1892 H 0.50806 0.37543 0.22583 0.0
H1893 H 0.48505 0.62759 0.29608 0.0
H1894 H 0.58401 0.41786 0.72925 0.0
H1895 H 0.55815 0.45768 0.71966 0.0
H1896 H 0.49926 0.44021 0.76238 0.0
H1897 H 0.52479 0.40072 0.77188 0.0
H1898 H 0.47606 0.45553 0.72856 0.0
H1899 H 0.54751 0.48433 0.77102 0.0
H1900 H 0.59487 0.48965 0.78038 0.0
H1901 H 0.61074 0.53384 0.72978 0.0
H1902 H 0.56349 0.52846 0.72002 0.0
H1903 H 0.4158 0.56791 0.76889 0.0
H1904 H 0.44019 0.52757 0.75942 0.0
H1905 H 0.48279 0.5732 0.7174 0.0
H1906 H 0.45832 0.61378 0.72694 0.0
H1907 H 0.51641 0.54493 0.74061 0.0
H1908 H 0.44119 0.5255 0.70269 0.0
H1909 H 0.39341 0.5209 0.69438 0.0
H1910 H 0.38393 0.45965 0.73629 0.0
H1911 H 0.43157 0.46415 0.74508 0.0
C1912 C 0.56532 0.42238 0.73633 0.0
C1913 C 0.55629 0.40625 0.75124 0.0
C1914 C 0.55066 0.44511 0.73091 0.0
C1915 C 0.52678 0.45183 0.74031 0.0
C1916 C 0.51751 0.43528 0.75486 0.0
C1917 C 0.53222 0.41286 0.76037 0.0
C1918 C 0.51201 0.47691 0.73611 0.0
C1919 C 0.48484 0.47513 0.73109 0.0
C1920 C 0.52377 0.50246 0.73881 0.0
C1921 C 0.55212 0.50566 0.74467 0.0
C1922 C 0.56117 0.49496 0.76181 0.0
C1923 C 0.58797 0.49803 0.76721 0.0
C1924 C 0.60583 0.51198 0.75565 0.0
C1925 C 0.5969 0.52297 0.73869 0.0
C1926 C 0.57012 0.51991 0.73322 0.0
C1927 C 0.4299 0.56916 0.75733 0.0
C1928 C 0.4349 0.59376 0.74843 0.0
C1929 C 0.44375 0.54612 0.75187 0.0
C1930 C 0.46308 0.54732 0.73755 0.0
C1931 C 0.46773 0.57181 0.72834 0.0
C1932 C 0.45361 0.59487 0.73367 0.0
C1933 C 0.4801 0.52353 0.73381 0.0
C1934 C 0.50772 0.5255 0.73739 0.0
C1935 C 0.46871 0.49815 0.72982 0.0
C1936 C 0.43999 0.49526 0.72459 0.0
C1937 C 0.42889 0.51118 0.71024 0.0
C1938 C 0.40182 0.50857 0.70542 0.0
C1939 C 0.38564 0.49001 0.71481 0.0
C1940 C 0.3965 0.47401 0.72902 0.0
C1941 C 0.42356 0.47655 0.7339 0.0
H1942 H 0.36468 0.48802 0.71106 0.0
H1943 H 0.62657 0.51436 0.75985 0.0
H1944 H 0.91407 0.57792 0.4899 0.0
H1945 H 0.95611 0.553 0.48538 0.0
H1946 H 0.93617 0.50207 0.53236 0.0
H1947 H 0.89431 0.52645 0.53678 0.0
H1948 H 0.98609 0.52362 0.53532 0.0
H1949 H 0.93242 0.47881 0.488 0.0
H1950 H 0.90436 0.477 0.45949 0.0
H1951 H 0.9688 0.51042 0.42697 0.0
H1952 H 0.99713 0.51278 0.45537 0.0
H1953 H 0.07721 0.41917 0.5362 0.0
H1954 H 0.03481 0.44297 0.53174 0.0
H1955 H 0.06838 0.4851 0.48428 0.0
H1956 H 0.1109 0.46107 0.48863 0.0
H1957 H 0.01441 0.47237 0.47891 0.0
H1958 H 0.06884 0.51524 0.5253 0.0
H1959 H 0.09739 0.51763 0.55354 0.0
H1960 H 0.03191 0.48971 0.58753 0.0
H1961 H 0.00307 0.48676 0.55943 0.0
C1962 C 0.91837 0.56099 0.49894 0.0
C1963 C 0.90076 0.55398 0.51358 0.0
C1964 C 0.94244 0.54687 0.49641 0.0
C1965 C 0.94919 0.52565 0.50852 0.0
C1966 C 0.93138 0.51842 0.52289 0.0
C1967 C 0.90748 0.53242 0.5254 0.0
C1968 C 0.97542 0.51176 0.50719 0.0
C1969 C 0.99215 0.51224 0.52303 0.0
C1970 C 0.98377 0.49777 0.49091 0.0
C1971 C 0.96678 0.49627 0.47385 0.0
C1972 C 0.94052 0.486 0.4748 0.0
C1973 C 0.92459 0.48483 0.45866 0.0
C1974 C 0.93476 0.49367 0.44144 0.0
C1975 C 0.96093 0.50363 0.44033 0.0
C1976 C 0.97694 0.50487 0.45644 0.0
C1977 C 0.07534 0.4331 0.52458 0.0
C1978 C 0.09721 0.43813 0.51268 0.0
C1979 C 0.05118 0.44671 0.52206 0.0
C1980 C 0.0486 0.46608 0.50785 0.0
C1981 C 0.06995 0.47018 0.4953 0.0
C1982 C 0.09416 0.45634 0.49774 0.0
C1983 C 0.0245 0.4835 0.50729 0.0
C1984 C 0.00837 0.4839 0.49112 0.0
C1985 C 0.01667 0.49855 0.52324 0.0
C1986 C 0.03386 0.50059 0.54023 0.0
C1987 C 0.06058 0.50945 0.53878 0.0
C1988 C 0.07681 0.51092 0.55476 0.0
C1989 C 0.06648 0.50378 0.57232 0.0
C1990 C 0.03988 0.49522 0.57393 0.0
C1991 C 0.02358 0.49367 0.55797 0.0
H1992 H 0.07908 0.50493 0.58468 0.0
H1993 H 0.9224 0.49274 0.42895 0.0
H1994 H 0.54362 0.11156 0.51711 0.0
H1995 H 0.51933 0.06955 0.52304 0.0
H1996 H 0.55293 0.03566 0.47247 0.0
H1997 H 0.57722 0.07733 0.46657 0.0
H1998 H 0.49839 0.03392 0.473 0.0
H1999 H 0.57177 0.01326 0.51527 0.0
H2000 H 0.60133 0.02145 0.54246 0.0
H2001 H 0.53312 0.02085 0.57931 0.0
H2002 H 0.50309 0.01302 0.55228 0.0
H2003 H 0.47045 0.89933 0.46835 0.0
H2004 H 0.49508 0.94072 0.47406 0.0
H2005 H 0.44542 0.95722 0.52232 0.0
H2006 H 0.4204 0.91536 0.51663 0.0
H2007 H 0.50204 0.97098 0.52698 0.0
H2008 H 0.42909 0.98815 0.48518 0.0
H2009 H 0.39951 0.97945 0.45809 0.0
H2010 H 0.46649 0.98754 0.42056 0.0
H2011 H 0.49657 0.99587 0.44747 0.0
C2012 C 0.54657 0.09481 0.50765 0.0
C2013 C 0.56251 0.09759 0.49146 0.0
C2014 C 0.53253 0.07088 0.51099 0.0
C2015 C 0.53429 0.04952 0.49816 0.0
C2016 C 0.5512 0.05193 0.4825 0.0
C2017 C 0.5651 0.07572 0.47916 0.0
C2018 C 0.51673 0.0256 0.49979 0.0
C2019 C 0.49934 0.02011 0.48477 0.0
C2020 C 0.51711 0.0082 0.5155 0.0
C2021 C 0.53516 0.01289 0.53173 0.0
C2022 C 0.56305 0.01514 0.52914 0.0
C2023 C 0.57989 0.01965 0.54453 0.0
C2024 C 0.5691 0.02176 0.56259 0.0
C2025 C 0.54144 0.01927 0.56531 0.0
C2026 C 0.52451 0.01478 0.54996 0.0
C2027 C 0.46488 0.91157 0.48032 0.0
C2028 C 0.44344 0.90415 0.49202 0.0
C2029 C 0.47905 0.93518 0.48359 0.0
C2030 C 0.47186 0.95215 0.49847 0.0
C2031 C 0.45127 0.94431 0.51078 0.0
C2032 C 0.43706 0.92042 0.50754 0.0
C2033 C 0.48465 0.97892 0.49985 0.0
C2034 C 0.50089 0.98505 0.51538 0.0
C2035 C 0.48319 0.99715 0.48464 0.0
C2036 C 0.46511 0.99248 0.46837 0.0
C2037 C 0.43755 0.98791 0.47117 0.0
C2038 C 0.42069 0.98306 0.45584 0.0
C2039 C 0.43113 0.98291 0.43762 0.0
C2040 C 0.45844 0.98766 0.43469 0.0
C2041 C 0.47539 0.99249 0.44997 0.0
H2042 H 0.41804 0.97914 0.42577 0.0
H2043 H 0.58218 0.02525 0.57449 0.0
H2044 H 0.91085 0.9477 0.71029 0.0
H2045 H 0.95562 0.96586 0.71486 0.0
H2046 H 0.94854 0.9536 0.77468 0.0
H2047 H 0.90288 0.93653 0.77023 0.0
H2048 H 0.96729 0.00185 0.768 0.0
H2049 H 0.99249 0.91517 0.74786 0.0
H2050 H 0.99199 0.87406 0.72859 0.0
H2051 H 0.01676 0.91938 0.6803 0.0
H2052 H 0.01704 0.96085 0.6992 0.0
H2053 H 0.10886 0.0443 0.76674 0.0
H2054 H 0.06791 0.0184 0.77253 0.0
H2055 H 0.04196 0.0334 0.71572 0.0
H2056 H 0.08213 0.06016 0.71002 0.0
H2057 H 0.04429 0.97741 0.72728 0.0
H2058 H 0.01135 0.06486 0.74805 0.0
H2059 H 0.01247 0.105 0.76832 0.0
H2060 H 0.00418 0.05534 0.81728 0.0
H2061 H 0.00339 0.01484 0.7973 0.0
C2062 C 0.91892 0.94848 0.72441 0.0
C2063 C 0.90344 0.94019 0.73985 0.0
C2064 C 0.94466 0.9587 0.727 0.0
C2065 C 0.95573 0.96063 0.74509 0.0
C2066 C 0.94053 0.95199 0.76057 0.0
C2067 C 0.91455 0.94185 0.75798 0.0
C2068 C 0.98234 0.97356 0.7476 0.0
C2069 C 0.98435 0.99605 0.75944 0.0
C2070 C 0.00466 0.96611 0.73644 0.0
C2071 C 0.00468 0.94117 0.72497 0.0
C2072 C 0.99768 0.91641 0.73311 0.0
C2073 C 0.99745 0.89303 0.72225 0.0
C2074 C 0.00431 0.89411 0.70323 0.0
C2075 C 0.01146 0.91857 0.69504 0.0
C2076 C 0.01171 0.94202 0.70583 0.0
C2077 C 0.09399 0.04304 0.75571 0.0
C2078 C 0.09854 0.05478 0.738 0.0
C2079 C 0.07077 0.02789 0.75898 0.0
C2080 C 0.05205 0.02397 0.74452 0.0
C2081 C 0.05627 0.03614 0.72702 0.0
C2082 C 0.0792 0.05147 0.72382 0.0
C2083 C 0.02863 0.00612 0.74701 0.0
C2084 C 0.02738 0.98269 0.73614 0.0
C2085 C 0.00725 0.01248 0.75925 0.0
C2086 C 0.00768 0.03682 0.77121 0.0
C2087 C 0.01005 0.06248 0.76315 0.0
C2088 C 0.01056 0.0853 0.77458 0.0
C2089 C 0.0085 0.08272 0.79408 0.0
C2090 C 0.00584 0.0573 0.80218 0.0
C2091 C 0.00535 0.03442 0.79081 0.0
H2092 H 0.00888 0.1004 0.80291 0.0
H2093 H 0.00411 0.87599 0.69484 0.0
H2094 H 0.98479 0.10768 0.25597 0.0
H2095 H 0.00293 0.06305 0.24917 0.0
H2096 H 0.9225 0.03182 0.24418 0.0
H2097 H 0.90427 0.07674 0.25079 0.0
H2098 H 0.95588 0.00449 0.2701 0.0
H2099 H 0.95846 0.0336 0.20618 0.0
H2100 H 0.96904 0.06443 0.18013 0.0
H2101 H 0.05313 0.05714 0.19219 0.0
H2102 H 0.04306 0.02657 0.21852 0.0
H2103 H 0.0046 0.87476 0.25633 0.0
H2104 H 0.98037 0.91624 0.24907 0.0
H2105 H 0.05571 0.95858 0.24461 0.0
H2106 H 0.07995 0.91659 0.25103 0.0
H2107 H 0.02082 0.97893 0.22035 0.0
H2108 H 0.01963 0.95695 0.28605 0.0
H2109 H 0.01141 0.92843 0.31378 0.0
H2110 H 0.92747 0.92523 0.30036 0.0
H2111 H 0.93526 0.95345 0.27238 0.0
C2112 C 0.97104 0.09137 0.25303 0.0
C2113 C 0.9432 0.09553 0.25369 0.0
C2114 C 0.98138 0.06597 0.24908 0.0
C2115 C 0.96404 0.04423 0.24601 0.0
C2116 C 0.93617 0.04845 0.24633 0.0
C2117 C 0.9258 0.07402 0.25 0.0
C2118 C 0.97521 0.01679 0.24447 0.0
C2119 C 0.96956 0.99862 0.25897 0.0
C2120 C 0.9938 0.00963 0.23031 0.0
C2121 C -3e-05 0.02792 0.21443 0.0
C2122 C 0.9792 0.03874 0.20338 0.0
C2123 C 0.98511 0.05614 0.18854 0.0
C2124 C 0.01174 0.06278 0.18452 0.0
C2125 C 0.03252 0.05198 0.19532 0.0
C2126 C 0.02672 0.03459 0.21019 0.0
C2127 C 0.0159 0.89284 0.25331 0.0
C2128 C 0.04399 0.89276 0.25423 0.0
C2129 C 0.0021 0.91652 0.24928 0.0
C2130 C 0.01619 0.94068 0.24675 0.0
C2131 C 0.04441 0.94021 0.24658 0.0
C2132 C 0.05824 0.91633 0.25025 0.0
C2133 C 0.00156 0.96664 0.24604 0.0
C2134 C 0.00672 0.98458 0.23126 0.0
C2135 C 0.98284 0.9739 0.26016 0.0
C2136 C 0.97808 0.95704 0.27701 0.0
C2137 C -0.00055 0.95 0.28894 0.0
C2138 C 0.99487 0.93391 0.30471 0.0
C2139 C 0.96895 0.92495 0.3088 0.0
C2140 C 0.94754 0.93214 0.29715 0.0
C2141 C 0.95203 0.94818 0.28134 0.0
H2142 H 0.96544 0.91251 0.32102 0.0
H2143 H 0.01627 0.07625 0.17303 0.0
H2144 H 0.2678 0.28352 0.19908 0.0
H2145 H 0.2735 0.25343 0.17217 0.0
H2146 H 0.32657 0.31082 0.14614 0.0
H2147 H 0.32017 0.3414 0.17274 0.0
H2148 H 0.25977 0.26549 0.13528 0.0
H2149 H 0.37385 0.2725 0.12108 0.0
H2150 H 0.41589 0.27914 0.1388 0.0
H2151 H 0.37908 0.24633 0.18828 0.0
H2152 H 0.33698 0.23914 0.1708 0.0
H2153 H 0.28142 0.21387 0.04532 0.0
H2154 H 0.28694 0.24424 0.07213 0.0
H2155 H 0.32312 0.1801 0.10406 0.0
H2156 H 0.31824 0.14993 0.07701 0.0
H2157 H 0.34609 0.22767 0.11271 0.0
H2158 H 0.25574 0.19265 0.10748 0.0
H2159 H 0.21321 0.18375 0.09086 0.0
H2160 H 0.20143 0.26835 0.08282 0.0
H2161 H 0.244 0.27773 0.09928 0.0
C2162 C 0.28062 0.28973 0.18759 0.0
C2163 C 0.29335 0.31487 0.18789 0.0
C2164 C 0.28396 0.2725 0.1723 0.0
C2165 C 0.30045 0.27993 0.1572 0.0
C2166 C 0.31395 0.30463 0.15775 0.0
C2167 C 0.31038 0.32201 0.17297 0.0
C2168 C 0.30224 0.26247 0.14041 0.0
C2169 C 0.27865 0.25725 0.13034 0.0
C2170 C 0.32685 0.2516 0.13408 0.0
C2171 C 0.35218 0.25557 0.14467 0.0
C2172 C 0.37476 0.26663 0.13573 0.0
C2173 C 0.3986 0.27049 0.14573 0.0
C2174 C 0.40013 0.26325 0.16467 0.0
C2175 C 0.37784 0.25204 0.17363 0.0
C2176 C 0.35397 0.24812 0.16369 0.0
C2177 C 0.29106 0.20652 0.05796 0.0
C2178 C 0.29926 0.17966 0.05927 0.0
C2179 C 0.29414 0.22378 0.07325 0.0
C2180 C 0.30491 0.21425 0.09022 0.0
C2181 C 0.3147 0.18784 0.09112 0.0
C2182 C 0.31193 0.17065 0.0757 0.0
C2183 C 0.30364 0.23094 0.10746 0.0
C2184 C 0.32726 0.23604 0.11761 0.0
C2185 C 0.27897 0.24147 0.11406 0.0
C2186 C 0.25312 0.23587 0.10449 0.0
C2187 C 0.24411 0.20934 0.10212 0.0
C2188 C 0.22 0.20421 0.09274 0.0
C2189 C 0.20467 0.22546 0.08574 0.0
C2190 C 0.21334 0.2519 0.08822 0.0
C2191 C 0.23742 0.25714 0.09761 0.0
H2192 H 0.18605 0.22145 0.07843 0.0
H2193 H 0.41859 0.26627 0.17239 0.0
H2194 H 0.34283 0.72037 0.83179 0.0
H2195 H 0.31383 0.71242 0.85896 0.0
H2196 H 0.25926 0.66736 0.82396 0.0
H2197 H 0.28819 0.6759 0.79659 0.0
H2198 H 0.23298 0.70337 0.84486 0.0
H2199 H 0.29795 0.63561 0.8568 0.0
H2200 H 0.34321 0.61635 0.86049 0.0
H2201 H 0.35856 0.6693 0.90686 0.0
H2202 H 0.31354 0.68919 0.90329 0.0
H2203 H 0.15328 0.67253 0.92459 0.0
H2204 H 0.18327 0.66473 0.89785 0.0
H2205 H 0.24321 0.71529 0.92356 0.0
H2206 H 0.21341 0.72274 0.95048 0.0
H2207 H 0.26514 0.66993 0.90656 0.0
H2208 H 0.20267 0.74106 0.89174 0.0
H2209 H 0.15761 0.76078 0.88803 0.0
H2210 H 0.13792 0.70102 0.84677 0.0
H2211 H 0.18277 0.68068 0.85047 0.0
C2212 C 0.32474 0.70857 0.83 0.0
C2213 C 0.31761 0.6987 0.81224 0.0
C2214 C 0.3083 0.70387 0.84551 0.0
C2215 C 0.28452 0.689 0.84356 0.0
C2216 C 0.27758 0.67875 0.8258 0.0
C2217 C 0.2941 0.68349 0.81024 0.0
C2218 C 0.2662 0.68583 0.85985 0.0
C2219 C 0.23985 0.69546 0.85822 0.0
C2220 C 0.27532 0.67602 0.87741 0.0
C2221 C 0.3024 0.66402 0.87969 0.0
C2222 C 0.31104 0.64329 0.8677 0.0
C2223 C 0.33665 0.63224 0.86979 0.0
C2224 C 0.35376 0.64162 0.88388 0.0
C2225 C 0.34528 0.66205 0.89595 0.0
C2226 C 0.3197 0.6732 0.89391 0.0
C2227 C 0.17309 0.68148 0.9247 0.0
C2228 C 0.18107 0.69832 0.93949 0.0
C2229 C 0.1901 0.67716 0.90938 0.0
C2230 C 0.21534 0.68965 0.90866 0.0
C2231 C 0.22381 0.70549 0.92385 0.0
C2232 C 0.20675 0.70989 0.93912 0.0
C2233 C 0.23219 0.68779 0.89156 0.0
C2234 C 0.25823 0.67733 0.89307 0.0
C2235 C 0.22282 0.69682 0.87388 0.0
C2236 C 0.19594 0.70916 0.87155 0.0
C2237 C 0.18865 0.73199 0.88199 0.0
C2238 C 0.16316 0.7433 0.87987 0.0
C2239 C 0.14488 0.73211 0.86721 0.0
C2240 C 0.15208 0.70963 0.8566 0.0
C2241 C 0.17753 0.6982 0.8587 0.0
H2242 H 0.12516 0.7409 0.86558 0.0
H2243 H 0.37358 0.63304 0.88547 0.0
H2244 H 0.68284 0.8535 0.0826 0.0
H2245 H 0.67482 0.82412 0.1097 0.0
H2246 H 0.70919 0.75755 0.07928 0.0
H2247 H 0.71667 0.78673 0.05209 0.0
H2248 H 0.66513 0.74229 0.09954 0.0
H2249 H 0.74666 0.79287 0.10963 0.0
H2250 H 0.77341 0.83431 0.11249 0.0
H2251 H 0.72398 0.86029 0.15844 0.0
H2252 H 0.69667 0.81914 0.15566 0.0
H2253 H 0.71527 0.65381 0.16825 0.0
H2254 H 0.70795 0.68552 0.1425 0.0
H2255 H 0.67599 0.74329 0.18178 0.0
H2256 H 0.68385 0.71152 0.20768 0.0
H2257 H 0.71245 0.76578 0.15865 0.0
H2258 H 0.63459 0.71149 0.15105 0.0
H2259 H 0.60882 0.66947 0.14812 0.0
H2260 H 0.65161 0.64982 0.0976 0.0
H2261 H 0.67795 0.69154 0.10037 0.0
C2262 C 0.68818 0.83248 0.08163 0.0
C2263 C 0.70052 0.82233 0.06538 0.0
C2264 C 0.68376 0.81578 0.09712 0.0
C2265 C 0.6917 0.78872 0.09657 0.0
C2266 C 0.70295 0.77835 0.08002 0.0
C2267 C 0.70739 0.79504 0.06457 0.0
C2268 C 0.68987 0.77152 0.11354 0.0
C2269 C 0.67554 0.74733 0.11245 0.0
C2270 C 0.70292 0.77847 0.13052 0.0
C2271 C 0.71943 0.8031 0.13229 0.0
C2272 C 0.74137 0.80752 0.12025 0.0
C2273 C 0.75665 0.83094 0.12186 0.0
C2274 C 0.75035 0.84996 0.1356 0.0
C2275 C 0.7288 0.84556 0.14778 0.0
C2276 C 0.71342 0.8222 0.1462 0.0
C2277 C 0.70651 0.67323 0.1713 0.0
C2278 C 0.70009 0.68038 0.18981 0.0
C2279 C 0.70216 0.69125 0.15661 0.0
C2280 C 0.69111 0.71668 0.16017 0.0
C2281 C 0.68441 0.72373 0.17871 0.0
C2282 C 0.68876 0.70562 0.19344 0.0
C2283 C 0.68806 0.73625 0.14459 0.0
C2284 C 0.70157 0.76089 0.1459 0.0
C2285 C 0.67431 0.72966 0.1278 0.0
C2286 C 0.65838 0.7046 0.12599 0.0
C2287 C 0.63865 0.69813 0.13938 0.0
C2288 C 0.62391 0.67437 0.13774 0.0
C2289 C 0.6286 0.65697 0.1227 0.0
C2290 C 0.648 0.66332 0.10925 0.0
C2291 C 0.66282 0.68705 0.11083 0.0
H2292 H 0.61717 0.63858 0.12146 0.0
H2293 H 0.76221 0.86808 0.13684 0.0
H2294 H 0.71397 0.27575 0.79582 0.0
H2295 H 0.74554 0.27948 0.82205 0.0
H2296 H 0.68636 0.32334 0.85397 0.0
H2297 H 0.65504 0.32029 0.82741 0.0
H2298 H 0.73566 0.34251 0.86091 0.0
H2299 H 0.69408 0.25581 0.85977 0.0
H2300 H 0.67992 0.21326 0.8451 0.0
H2301 H 0.76226 0.19241 0.83501 0.0
H2302 H 0.77692 0.23507 0.84939 0.0
H2303 H 0.79247 0.30981 0.9512 0.0
H2304 H 0.76252 0.31568 0.92403 0.0
H2305 H 0.82036 0.27569 0.88862 0.0
H2306 H 0.85016 0.26992 0.9157 0.0
H2307 H 0.77037 0.25529 0.88423 0.0
H2308 H 0.81151 0.3428 0.88603 0.0
H2309 H 0.82461 0.38555 0.90088 0.0
H2310 H 0.74175 0.40454 0.91068 0.0
H2311 H 0.72816 0.36169 0.89613 0.0
C2312 C 0.70794 0.28651 0.80836 0.0
C2313 C 0.68212 0.29748 0.8098 0.0
C2314 C 0.72588 0.28858 0.82333 0.0
C2315 C 0.71806 0.30112 0.84014 0.0
C2316 C 0.69276 0.31346 0.84117 0.0
C2317 C 0.67491 0.31172 0.82605 0.0
C2318 C 0.73554 0.29963 0.85699 0.0
C2319 C 0.74302 0.32343 0.86616 0.0
C2320 C 0.74528 0.27473 0.86374 0.0
C2321 C 0.73658 0.24873 0.85553 0.0
C2322 C 0.70917 0.2422 0.85436 0.0
C2323 C 0.70105 0.21807 0.8461 0.0
C2324 C 0.72018 0.20017 0.8391 0.0
C2325 C 0.74748 0.20632 0.84043 0.0
C2326 C 0.7557 0.23046 0.84865 0.0
C2327 C 0.79879 0.30263 0.93753 0.0
C2328 C 0.82341 0.28935 0.93541 0.0
C2329 C 0.78176 0.30597 0.92206 0.0
C2330 C 0.78927 0.29616 0.9043 0.0
C2331 C 0.81414 0.28331 0.9022 0.0
C2332 C 0.83111 0.28004 0.91761 0.0
C2333 C 0.77088 0.29819 0.88799 0.0
C2334 C 0.76306 0.27439 0.87899 0.0
C2335 C 0.76069 0.32305 0.88154 0.0
C2336 C 0.76883 0.34891 0.89016 0.0
C2337 C 0.79609 0.35599 0.89149 0.0
C2338 C 0.8036 0.38026 0.89983 0.0
C2339 C 0.78403 0.39772 0.90676 0.0
C2340 C 0.75689 0.39098 0.90532 0.0
C2341 C 0.74927 0.36671 0.89702 0.0
H2342 H 0.78989 0.4165 0.91322 0.0
H2343 H 0.71385 0.18152 0.83269 0.0
H2344 H 0.76558 0.66319 0.58024 0.0
H2345 H 0.77034 0.69378 0.60691 0.0
H2346 H 0.82798 0.74051 0.57558 0.0
H2347 H 0.82206 0.71059 0.54849 0.0
H2348 H 0.80848 0.70772 0.62932 0.0
H2349 H 0.822 0.80641 0.58759 0.0
H2350 H 0.81016 0.82542 0.55665 0.0
H2351 H 0.74238 0.77244 0.55307 0.0
H2352 H 0.75361 0.7534 0.58407 0.0
H2353 H 0.83031 0.80898 0.69754 0.0
H2354 H 0.8363 0.78107 0.66947 0.0
H2355 H 0.76052 0.80953 0.64781 0.0
H2356 H 0.7555 0.83865 0.6752 0.0
H2357 H 0.79291 0.80519 0.62022 0.0
H2358 H 0.76817 0.7477 0.67163 0.0
H2359 H 0.77254 0.72752 0.70313 0.0
H2360 H 0.84988 0.69598 0.6883 0.0
H2361 H 0.8461 0.71629 0.65677 0.0
C2362 C 0.77926 0.68002 0.57911 0.0
C2363 C 0.79342 0.68466 0.56239 0.0
C2364 C 0.78213 0.69736 0.59437 0.0
C2365 C 0.79935 0.71962 0.59323 0.0
C2366 C 0.8143 0.7237 0.57671 0.0
C2367 C 0.81117 0.70647 0.56133 0.0
C2368 C 0.80063 0.73895 0.60912 0.0
C2369 C 0.80527 0.72906 0.6273 0.0
C2370 C 0.79597 0.76675 0.60659 0.0
C2371 C 0.78887 0.77828 0.58803 0.0
C2372 C 0.80454 0.79889 0.58021 0.0
C2373 C 0.79794 0.80966 0.56266 0.0
C2374 C 0.7756 0.80007 0.55287 0.0
C2375 C 0.75974 0.77978 0.56063 0.0
C2376 C 0.76623 0.76897 0.57818 0.0
C2377 C 0.81529 0.80964 0.68656 0.0
C2378 C 0.79243 0.82588 0.68849 0.0
C2379 C 0.81854 0.79349 0.67063 0.0
C2380 C 0.79864 0.79282 0.65662 0.0
C2381 C 0.77616 0.80963 0.65838 0.0
C2382 C 0.77317 0.82608 0.67411 0.0
C2383 C 0.80047 0.77393 0.64048 0.0
C2384 C 0.79651 0.78391 0.62223 0.0
C2385 C 0.80471 0.74605 0.64303 0.0
C2386 C 0.80699 0.73376 0.66194 0.0
C2387 C 0.78619 0.73661 0.67514 0.0
C2388 C 0.78854 0.72513 0.69299 0.0
C2389 C 0.81151 0.71054 0.69773 0.0
C2390 C 0.83213 0.70734 0.68462 0.0
C2391 C 0.82989 0.71881 0.66676 0.0
H2392 H 0.81329 0.70166 0.71155 0.0
H2393 H 0.77054 0.80842 0.53928 0.0
H2394 H 0.85288 0.19494 0.32955 0.0
H2395 H 0.82472 0.19023 0.35756 0.0
H2396 H 0.75379 0.1935 0.32272 0.0
H2397 H 0.78213 0.19979 0.29491 0.0
H2398 H 0.74634 0.22424 0.35021 0.0
H2399 H 0.77765 0.13391 0.34604 0.0
H2400 H 0.81084 0.09741 0.34335 0.0
H2401 H 0.8466 0.12146 0.3956 0.0
H2402 H 0.81385 0.15836 0.39848 0.0
H2403 H 0.6559 0.18447 0.42218 0.0
H2404 H 0.68578 0.17753 0.39519 0.0
H2405 H 0.7521 0.20939 0.42709 0.0
H2406 H 0.72204 0.21697 0.454 0.0
H2407 H 0.76093 0.15856 0.40163 0.0
H2408 H 0.72949 0.25137 0.40324 0.0
H2409 H 0.69364 0.28529 0.40569 0.0
H2410 H 0.65525 0.25248 0.35679 0.0
H2411 H 0.69064 0.218 0.35429 0.0
C2412 C 0.83127 0.19423 0.32797 0.0
C2413 C 0.8195 0.19755 0.31024 0.0
C2414 C 0.81517 0.19139 0.34392 0.0
C2415 C 0.78702 0.19113 0.34231 0.0
C2416 C 0.77539 0.19366 0.32439 0.0
C2417 C 0.7915 0.19708 0.30851 0.0
C2418 C 0.7697 0.19014 0.35935 0.0
C2419 C 0.74938 0.20952 0.36124 0.0
C2420 C 0.77376 0.1713 0.37403 0.0
C2421 C 0.79343 0.14905 0.37239 0.0
C2422 C 0.79271 0.13154 0.35689 0.0
C2423 C 0.81143 0.11076 0.35534 0.0
C2424 C 0.83085 0.10716 0.36927 0.0
C2425 C 0.83156 0.12429 0.38481 0.0
C2426 C 0.8129 0.14512 0.38642 0.0
C2427 C 0.67698 0.18943 0.42351 0.0
C2428 C 0.68682 0.20122 0.44004 0.0
C2429 C 0.69396 0.18549 0.40815 0.0
C2430 C 0.72106 0.19292 0.40924 0.0
C2431 C 0.73125 0.20338 0.4261 0.0
C2432 C 0.71414 0.2078 0.44135 0.0
C2433 C 0.73794 0.19248 0.39219 0.0
C2434 C 0.75805 0.173 0.3904 0.0
C2435 C 0.73349 0.21089 0.37743 0.0
C2436 C 0.71252 0.23193 0.37871 0.0
C2437 C 0.71327 0.25123 0.39312 0.0
C2438 C 0.69306 0.27058 0.3945 0.0
C2439 C 0.67213 0.271 0.38143 0.0
C2440 C 0.67144 0.25211 0.36692 0.0
C2441 C 0.69157 0.23266 0.36551 0.0
H2442 H 0.6565 0.28599 0.38252 0.0
H2443 H 0.84533 0.09106 0.36804 0.0
H2444 H 0.23113 0.14948 0.66689 0.0
H2445 H 0.22731 0.17802 0.63898 0.0
H2446 H 0.18027 0.23496 0.67067 0.0
H2447 H 0.18396 0.20611 0.69863 0.0
H2448 H 0.16139 0.22855 0.63439 0.0
H2449 H 0.24476 0.24631 0.66506 0.0
H2450 H 0.28806 0.23479 0.67977 0.0
H2451 H 0.31587 0.20167 0.62759 0.0
H2452 H 0.27253 0.21256 0.61264 0.0
H2453 H 0.18765 0.34196 0.57521 0.0
H2454 H 0.18277 0.3104 0.60134 0.0
H2455 H 0.22936 0.25175 0.57093 0.0
H2456 H 0.23386 0.28315 0.54459 0.0
H2457 H 0.24753 0.25949 0.60688 0.0
H2458 H 0.16302 0.24314 0.57631 0.0
H2459 H 0.11955 0.25587 0.56237 0.0
H2460 H 0.09403 0.28859 0.61525 0.0
H2461 H 0.13752 0.2764 0.62944 0.0
C2462 C 0.21973 0.16796 0.66775 0.0
C2463 C 0.20803 0.1759 0.68477 0.0
C2464 C 0.21759 0.18423 0.65189 0.0
C2465 C 0.20387 0.2088 0.65287 0.0
C2466 C 0.19099 0.21611 0.66966 0.0
C2467 C 0.19311 0.19973 0.68557 0.0
C2468 C 0.20446 0.22745 0.63667 0.0
C2469 C 0.18019 0.2356 0.62849 0.0
C2470 C 0.22905 0.23635 0.62889 0.0
C2471 C 0.25528 0.23003 0.63777 0.0
C2472 C 0.26002 0.23638 0.65676 0.0
C2473 C 0.28458 0.22999 0.66513 0.0
C2474 C 0.30468 0.21746 0.65463 0.0
C2475 C 0.30027 0.21135 0.63571 0.0
C2476 C 0.27571 0.21764 0.62728 0.0
C2477 C 0.19629 0.32211 0.57392 0.0
C2478 C 0.21108 0.31492 0.5579 0.0
C2479 C 0.1936 0.30415 0.58888 0.0
C2480 C 0.20562 0.2787 0.58803 0.0
C2481 C 0.21998 0.27132 0.57187 0.0
C2482 C 0.22257 0.28923 0.55688 0.0
C2483 C 0.20446 0.26035 0.60439 0.0
C2484 C 0.22871 0.25238 0.61271 0.0
C2485 C 0.17986 0.25188 0.61237 0.0
C2486 C 0.15364 0.25908 0.60389 0.0
C2487 C 0.14823 0.25325 0.58493 0.0
C2488 C 0.12357 0.26033 0.57699 0.0
C2489 C 0.10407 0.27309 0.5879 0.0
C2490 C 0.10917 0.27873 0.6068 0.0
C2491 C 0.13381 0.27172 0.61481 0.0
H2492 H 0.08499 0.27856 0.58173 0.0
H2493 H 0.32368 0.21254 0.66114 0.0
H2494 H 0.34183 0.78093 0.41601 0.0
H2495 H 0.31077 0.78884 0.38993 0.0
H2496 H 0.25454 0.82562 0.42821 0.0
H2497 H 0.28559 0.81719 0.45443 0.0
H2498 H 0.23039 0.78932 0.40574 0.0
H2499 H 0.28871 0.86394 0.39696 0.0
H2500 H 0.33205 0.88735 0.39377 0.0
H2501 H 0.34981 0.84167 0.34415 0.0
H2502 H 0.30675 0.81767 0.34719 0.0
H2503 H 0.14476 0.81934 0.32895 0.0
H2504 H 0.17466 0.82834 0.35562 0.0
H2505 H 0.23929 0.78815 0.32669 0.0
H2506 H 0.20956 0.77955 0.29995 0.0
H2507 H 0.25676 0.83303 0.34585 0.0
H2508 H 0.20221 0.75446 0.35736 0.0
H2509 H 0.15945 0.72995 0.36043 0.0
H2510 H 0.13531 0.78268 0.40508 0.0
H2511 H 0.1778 0.80779 0.40205 0.0
C2512 C 0.32288 0.79085 0.41876 0.0
C2513 C 0.31596 0.79853 0.43708 0.0
C2514 C 0.30526 0.79554 0.40389 0.0
C2515 C 0.28047 0.80814 0.40708 0.0
C2516 C 0.27363 0.81602 0.42543 0.0
C2517 C 0.29134 0.81134 0.44033 0.0
C2518 C 0.26124 0.8116 0.39136 0.0
C2519 C 0.23593 0.79944 0.3928 0.0
C2520 C 0.26867 0.82435 0.37435 0.0
C2521 C 0.29454 0.83887 0.37238 0.0
C2522 C 0.30193 0.85874 0.38544 0.0
C2523 C 0.32645 0.87214 0.38365 0.0
C2524 C 0.34369 0.86598 0.36878 0.0
C2525 C 0.33643 0.84643 0.35565 0.0
C2526 C 0.31195 0.83294 0.35739 0.0
C2527 C 0.16551 0.81301 0.32816 0.0
C2528 C 0.17491 0.79861 0.31254 0.0
C2529 C 0.18251 0.818 0.34341 0.0
C2530 C 0.20909 0.80863 0.3432 0.0
C2531 C 0.21885 0.79553 0.32714 0.0
C2532 C 0.20185 0.79047 0.31196 0.0
C2533 C 0.22619 0.81042 0.3602 0.0
C2534 C 0.25108 0.82344 0.35895 0.0
C2535 C 0.21845 0.7984 0.37738 0.0
C2536 C 0.19302 0.78319 0.37932 0.0
C2537 C 0.18769 0.76096 0.36773 0.0
C2538 C 0.16352 0.74694 0.36947 0.0
C2539 C 0.14464 0.7548 0.38291 0.0
C2540 C 0.14993 0.77665 0.39465 0.0
C2541 C 0.17405 0.79078 0.39293 0.0
H2542 H 0.12594 0.74392 0.38424 0.0
H2543 H 0.36266 0.87637 0.36742 0.0
loop_
_geom_bond_atom_site_label_1
_geom_bond_atom_site_label_2
_geom_bond_distance
_geom_bond_site_symmetry_2
_ccdc_geom_bond_type
Co0 O3 1.970 1_554 S
Co0 N17 1.989 . S
Co0 O25 1.967 . S
Co0 O32 1.920 . S
Co1 O4 1.966 1_554 S
Co1 N10 2.022 . S
Co1 N18 1.993 . S
Co1 O26 1.941 . S
C2 O3 1.258 . S
C2 O4 1.263 . S
O3 Co0 1.970 1_556 S
O3 C2 1.258 . S
O4 Co1 1.966 1_556 S
O4 C2 1.263 . S
C5 O6 1.235 1_554 S
C5 O32 1.289 . S
O6 C5 1.235 1_556 S
C7 C9 1.400 . S
C7 N10 1.351 . S
C7 C12 1.501 1_554 S
C8 C9 1.387 . S
C8 N11 1.341 . S
C9 C7 1.400 . S
C9 C8 1.387 . S
N10 Co1 2.022 . S
N10 C7 1.351 . S
N10 N11 1.365 . S
N11 C8 1.341 . S
N11 N10 1.365 . S
N11 H31 0.862 . S
C12 C7 1.501 1_556 S
C12 H13 0.961 . S
C12 H14 0.961 . S
C12 H15 0.960 . S
H13 C12 0.961 . S
H14 C12 0.961 . S
H15 C12 0.960 . S
C16 N17 1.342 . S
C16 C20 1.401 . S
C16 C21 1.499 . S
N17 Co0 1.989 . S
N17 C16 1.342 . S
N17 N18 1.388 . S
N18 Co1 1.993 . S
N18 N17 1.388 . S
N18 C19 1.346 . S
C19 N18 1.346 . S
C19 C20 1.396 . S
C19 C29 1.510 . S
C20 C16 1.401 . S
C20 C19 1.396 . S
C21 C16 1.499 . S
C21 H22 0.959 . S
C21 H23 0.960 . S
C21 H24 0.961 . S
H22 C21 0.959 . S
H23 C21 0.960 . S
H24 C21 0.961 . S
O25 Co0 1.967 . S
O25 C33 1.258 . S
O26 Co1 1.941 . S
O26 C33 1.266 . S
H27 C29 0.959 . S
H28 C29 0.961 . S
C29 C19 1.510 . S
C29 H27 0.959 . S
C29 H28 0.961 . S
C29 H30 0.960 . S
H30 C29 0.960 . S
H31 N11 0.862 . S
O32 Co0 1.920 . S
O32 C5 1.289 . S
C33 O25 1.258 . S
C33 O26 1.266 . S
Co34 O37 1.970 1_556 S
Co34 N51 1.989 . S
Co34 O59 1.967 . S
Co34 O66 1.920 . S
Co35 O38 1.966 1_556 S
Co35 N44 2.022 . S
Co35 N52 1.993 . S
Co35 O60 1.941 . S
C36 O37 1.258 . S
C36 O38 1.263 . S
O37 Co34 1.970 1_554 S
O37 C36 1.258 . S
O38 Co35 1.966 1_554 S
O38 C36 1.263 . S
C39 O40 1.235 1_556 S
C39 O66 1.289 . S
O40 C39 1.235 1_554 S
C41 C43 1.400 . S
C41 N44 1.351 . S
C41 C46 1.501 1_556 S
C42 C43 1.387 . S
C42 N45 1.341 . S
C43 C41 1.400 . S
C43 C42 1.387 . S
N44 Co35 2.022 . S
N44 C41 1.351 . S
N44 N45 1.365 . S
N45 C42 1.341 . S
N45 N44 1.365 . S
N45 H65 0.862 . S
C46 C41 1.501 1_554 S
C46 H47 0.961 . S
C46 H48 0.961 . S
C46 H49 0.960 . S
H47 C46 0.961 . S
H48 C46 0.961 . S
H49 C46 0.960 . S
C50 N51 1.342 . S
C50 C54 1.401 . S
C50 C55 1.499 . S
N51 Co34 1.989 . S
N51 C50 1.342 . S
N51 N52 1.388 . S
N52 Co35 1.993 . S
N52 N51 1.388 . S
N52 C53 1.346 . S
C53 N52 1.346 . S
C53 C54 1.396 . S
C53 C63 1.510 . S
C54 C50 1.401 . S
C54 C53 1.396 . S
C55 C50 1.499 . S
C55 H56 0.959 . S
C55 H57 0.960 . S
C55 H58 0.961 . S
H56 C55 0.959 . S
H57 C55 0.960 . S
H58 C55 0.961 . S
O59 Co34 1.967 . S
O59 C67 1.258 . S
O60 Co35 1.941 . S
O60 C67 1.266 . S
H61 C63 0.959 . S
H62 C63 0.961 . S
C63 C53 1.510 . S
C63 H61 0.959 . S
C63 H62 0.961 . S
C63 H64 0.960 . S
H64 C63 0.960 . S
H65 N45 0.862 . S
O66 Co34 1.920 . S
O66 C39 1.289 . S
C67 O59 1.258 . S
C67 O60 1.266 . S
Co68 O71 1.970 1_554 S
Co68 N85 1.989 . S
Co68 O93 1.967 . S
Co68 O100 1.920 . S
Co69 O72 1.966 1_554 S
Co69 N78 2.022 . S
Co69 N86 1.993 . S
Co69 O94 1.941 . S
C70 O71 1.258 . S
C70 O72 1.263 . S
O71 Co68 1.970 1_556 S
O71 C70 1.258 . S
O72 Co69 1.966 1_556 S
O72 C70 1.263 . S
C73 O74 1.235 1_554 S
C73 O100 1.289 . S
O74 C73 1.235 1_556 S
C75 C77 1.400 . S
C75 N78 1.351 . S
C75 C80 1.501 1_554 S
C76 C77 1.387 . S
C76 N79 1.341 . S
C77 C75 1.400 . S
C77 C76 1.387 . S
N78 Co69 2.022 . S
N78 C75 1.351 . S
N78 N79 1.365 . S
N79 C76 1.341 . S
N79 N78 1.365 . S
N79 H99 0.862 . S
C80 C75 1.501 1_556 S
C80 H81 0.961 . S
C80 H82 0.961 . S
C80 H83 0.960 . S
H81 C80 0.961 . S
H82 C80 0.961 . S
H83 C80 0.960 . S
C84 N85 1.342 . S
C84 C88 1.401 . S
C84 C89 1.499 . S
N85 Co68 1.989 . S
N85 C84 1.342 . S
N85 N86 1.388 . S
N86 Co69 1.993 . S
N86 N85 1.388 . S
N86 C87 1.346 . S
C87 N86 1.346 . S
C87 C88 1.396 . S
C87 C97 1.510 . S
C88 C84 1.401 . S
C88 C87 1.396 . S
C89 C84 1.499 . S
C89 H90 0.959 . S
C89 H91 0.960 . S
C89 H92 0.961 . S
H90 C89 0.959 . S
H91 C89 0.960 . S
H92 C89 0.961 . S
O93 Co68 1.967 . S
O93 C101 1.258 . S
O94 Co69 1.941 . S
O94 C101 1.266 . S
H95 C97 0.959 . S
H96 C97 0.961 . S
C97 C87 1.510 . S
C97 H95 0.959 . S
C97 H96 0.961 . S
C97 H98 0.960 . S
H98 C97 0.960 . S
H99 N79 0.862 . S
O100 Co68 1.920 . S
O100 C73 1.289 . S
C101 O93 1.258 . S
C101 O94 1.266 . S
Co102 O105 1.970 1_556 S
Co102 N119 1.989 . S
Co102 O127 1.967 . S
Co102 O134 1.920 . S
Co103 O106 1.966 1_556 S
Co103 N112 2.022 . S
Co103 N120 1.993 . S
Co103 O128 1.941 . S
C104 O105 1.258 . S
C104 O106 1.263 . S
O105 Co102 1.970 1_554 S
O105 C104 1.258 . S
O106 Co103 1.966 1_554 S
O106 C104 1.263 . S
C107 O108 1.235 1_556 S
C107 O134 1.289 . S
O108 C107 1.235 1_554 S
C109 C111 1.400 . S
C109 N112 1.351 . S
C109 C114 1.501 1_556 S
C110 C111 1.387 . S
C110 N113 1.341 . S
C111 C109 1.400 . S
C111 C110 1.387 . S
N112 Co103 2.022 . S
N112 C109 1.351 . S
N112 N113 1.365 . S
N113 C110 1.341 . S
N113 N112 1.365 . S
N113 H133 0.862 . S
C114 C109 1.501 1_554 S
C114 H115 0.961 . S
C114 H116 0.961 . S
C114 H117 0.960 . S
H115 C114 0.961 . S
H116 C114 0.961 . S
H117 C114 0.960 . S
C118 N119 1.342 . S
C118 C122 1.401 . S
C118 C123 1.499 . S
N119 Co102 1.989 . S
N119 C118 1.342 . S
N119 N120 1.388 . S
N120 Co103 1.993 . S
N120 N119 1.388 . S
N120 C121 1.346 . S
C121 N120 1.346 . S
C121 C122 1.396 . S
C121 C131 1.510 . S
C122 C118 1.401 . S
C122 C121 1.396 . S
C123 C118 1.499 . S
C123 H124 0.959 . S
C123 H125 0.960 . S
C123 H126 0.961 . S
H124 C123 0.959 . S
H125 C123 0.960 . S
H126 C123 0.961 . S
O127 Co102 1.967 . S
O127 C135 1.258 . S
O128 Co103 1.941 . S
O128 C135 1.266 . S
H129 C131 0.959 . S
H130 C131 0.961 . S
C131 C121 1.510 . S
C131 H129 0.959 . S
C131 H130 0.961 . S
C131 H132 0.960 . S
H132 C131 0.960 . S
H133 N113 0.862 . S
O134 Co102 1.920 . S
O134 C107 1.289 . S
C135 O127 1.258 . S
C135 O128 1.266 . S
Co136 O139 1.970 . S
Co136 N153 1.989 . S
Co136 O161 1.967 . S
Co136 O168 1.920 . S
Co137 O140 1.966 . S
Co137 N146 2.022 . S
Co137 N154 1.993 . S
Co137 O162 1.941 . S
C138 O139 1.258 . S
C138 O140 1.263 . S
O139 Co136 1.970 . S
O139 C138 1.258 . S
O140 Co137 1.966 . S
O140 C138 1.263 . S
C141 O142 1.235 . S
C141 O168 1.289 . S
O142 C141 1.235 . S
C143 C145 1.400 . S
C143 N146 1.351 . S
C143 C148 1.501 . S
C144 C145 1.387 . S
C144 N147 1.341 . S
C145 C143 1.400 . S
C145 C144 1.387 . S
N146 Co137 2.022 . S
N146 C143 1.351 . S
N146 N147 1.365 . S
N147 C144 1.341 . S
N147 N146 1.365 . S
N147 H167 0.862 . S
C148 C143 1.501 . S
C148 H149 0.961 . S
C148 H150 0.961 . S
C148 H151 0.960 . S
H149 C148 0.961 . S
H150 C148 0.961 . S
H151 C148 0.960 . S
C152 N153 1.342 . S
C152 C156 1.401 . S
C152 C157 1.499 . S
N153 Co136 1.989 . S
N153 C152 1.342 . S
N153 N154 1.388 . S
N154 Co137 1.993 . S
N154 N153 1.388 . S
N154 C155 1.346 . S
C155 N154 1.346 . S
C155 C156 1.396 . S
C155 C165 1.510 . S
C156 C152 1.401 . S
C156 C155 1.396 . S
C157 C152 1.499 . S
C157 H158 0.959 . S
C157 H159 0.960 . S
C157 H160 0.961 . S
H158 C157 0.959 . S
H159 C157 0.960 . S
H160 C157 0.961 . S
O161 Co136 1.967 . S
O161 C169 1.258 . S
O162 Co137 1.941 . S
O162 C169 1.266 . S
H163 C165 0.959 . S
H164 C165 0.961 . S
C165 C155 1.510 . S
C165 H163 0.959 . S
C165 H164 0.961 . S
C165 H166 0.960 . S
H166 C165 0.960 . S
H167 N147 0.862 . S
O168 Co136 1.920 . S
O168 C141 1.289 . S
C169 O161 1.258 . S
C169 O162 1.266 . S
Co170 O173 1.970 . S
Co170 N187 1.989 . S
Co170 O195 1.967 . S
Co170 O202 1.920 . S
Co171 O174 1.966 . S
Co171 N180 2.022 . S
Co171 N188 1.993 . S
Co171 O196 1.941 . S
C172 O173 1.258 . S
C172 O174 1.263 . S
O173 Co170 1.970 . S
O173 C172 1.258 . S
O174 Co171 1.966 . S
O174 C172 1.263 . S
C175 O176 1.235 . S
C175 O202 1.289 . S
O176 C175 1.235 . S
C177 C179 1.400 . S
C177 N180 1.351 . S
C177 C182 1.501 . S
C178 C179 1.387 . S
C178 N181 1.341 . S
C179 C177 1.400 . S
C179 C178 1.387 . S
N180 Co171 2.022 . S
N180 C177 1.351 . S
N180 N181 1.365 . S
N181 C178 1.341 . S
N181 N180 1.365 . S
N181 H201 0.862 . S
C182 C177 1.501 . S
C182 H183 0.961 . S
C182 H184 0.961 . S
C182 H185 0.960 . S
H183 C182 0.961 . S
H184 C182 0.961 . S
H185 C182 0.960 . S
C186 N187 1.342 . S
C186 C190 1.401 . S
C186 C191 1.499 . S
N187 Co170 1.989 . S
N187 C186 1.342 . S
N187 N188 1.388 . S
N188 Co171 1.993 . S
N188 N187 1.388 . S
N188 C189 1.346 . S
C189 N188 1.346 . S
C189 C190 1.396 . S
C189 C199 1.510 . S
C190 C186 1.401 . S
C190 C189 1.396 . S
C191 C186 1.499 . S
C191 H192 0.959 . S
C191 H193 0.960 . S
C191 H194 0.961 . S
H192 C191 0.959 . S
H193 C191 0.960 . S
H194 C191 0.961 . S
O195 Co170 1.967 . S
O195 C203 1.258 . S
O196 Co171 1.941 . S
O196 C203 1.266 . S
H197 C199 0.959 . S
H198 C199 0.961 . S
C199 C189 1.510 . S
C199 H197 0.959 . S
C199 H198 0.961 . S
C199 H200 0.960 . S
H200 C199 0.960 . S
H201 N181 0.862 . S
O202 Co170 1.920 . S
O202 C175 1.289 . S
C203 O195 1.258 . S
C203 O196 1.266 . S
Co204 O207 1.970 . S
Co204 N221 1.989 . S
Co204 O229 1.967 . S
Co204 O236 1.920 . S
Co205 O208 1.966 . S
Co205 N214 2.022 . S
Co205 N222 1.993 . S
Co205 O230 1.941 . S
C206 O207 1.258 . S
C206 O208 1.263 . S
O207 Co204 1.970 . S
O207 C206 1.258 . S
O208 Co205 1.966 . S
O208 C206 1.263 . S
C209 O210 1.235 . S
C209 O236 1.289 . S
O210 C209 1.235 . S
C211 C213 1.400 . S
C211 N214 1.351 . S
C211 C216 1.501 . S
C212 C213 1.387 . S
C212 N215 1.341 . S
C213 C211 1.400 . S
C213 C212 1.387 . S
N214 Co205 2.022 . S
N214 C211 1.351 . S
N214 N215 1.365 . S
N215 C212 1.341 . S
N215 N214 1.365 . S
N215 H235 0.862 . S
C216 C211 1.501 . S
C216 H217 0.961 . S
C216 H218 0.961 . S
C216 H219 0.960 . S
H217 C216 0.961 . S
H218 C216 0.961 . S
H219 C216 0.960 . S
C220 N221 1.342 . S
C220 C224 1.401 . S
C220 C225 1.499 . S
N221 Co204 1.989 . S
N221 C220 1.342 . S
N221 N222 1.388 . S
N222 Co205 1.993 . S
N222 N221 1.388 . S
N222 C223 1.346 . S
C223 N222 1.346 . S
C223 C224 1.396 . S
C223 C233 1.510 . S
C224 C220 1.401 . S
C224 C223 1.396 . S
C225 C220 1.499 . S
C225 H226 0.959 . S
C225 H227 0.960 . S
C225 H228 0.961 . S
H226 C225 0.959 . S
H227 C225 0.960 . S
H228 C225 0.961 . S
O229 Co204 1.967 . S
O229 C237 1.258 . S
O230 Co205 1.941 . S
O230 C237 1.266 . S
H231 C233 0.959 . S
H232 C233 0.961 . S
C233 C223 1.510 . S
C233 H231 0.959 . S
C233 H232 0.961 . S
C233 H234 0.960 . S
H234 C233 0.960 . S
H235 N215 0.862 . S
O236 Co204 1.920 . S
O236 C209 1.289 . S
C237 O229 1.258 . S
C237 O230 1.266 . S
Co238 O241 1.970 . S
Co238 N255 1.989 . S
Co238 O263 1.967 . S
Co238 O270 1.920 . S
Co239 O242 1.966 . S
Co239 N248 2.022 . S
Co239 N256 1.993 . S
Co239 O264 1.941 . S
C240 O241 1.258 . S
C240 O242 1.263 . S
O241 Co238 1.970 . S
O241 C240 1.258 . S
O242 Co239 1.966 . S
O242 C240 1.263 . S
C243 O244 1.235 . S
C243 O270 1.289 . S
O244 C243 1.235 . S
C245 C247 1.400 . S
C245 N248 1.351 . S
C245 C250 1.501 . S
C246 C247 1.387 . S
C246 N249 1.341 . S
C247 C245 1.400 . S
C247 C246 1.387 . S
N248 Co239 2.022 . S
N248 C245 1.351 . S
N248 N249 1.365 . S
N249 C246 1.341 . S
N249 N248 1.365 . S
N249 H269 0.862 . S
C250 C245 1.501 . S
C250 H251 0.961 . S
C250 H252 0.961 . S
C250 H253 0.960 . S
H251 C250 0.961 . S
H252 C250 0.961 . S
H253 C250 0.960 . S
C254 N255 1.342 . S
C254 C258 1.401 . S
C254 C259 1.499 . S
N255 Co238 1.989 . S
N255 C254 1.342 . S
N255 N256 1.388 . S
N256 Co239 1.993 . S
N256 N255 1.388 . S
N256 C257 1.346 . S
C257 N256 1.346 . S
C257 C258 1.396 . S
C257 C267 1.510 . S
C258 C254 1.401 . S
C258 C257 1.396 . S
C259 C254 1.499 . S
C259 H260 0.959 . S
C259 H261 0.960 . S
C259 H262 0.961 . S
H260 C259 0.959 . S
H261 C259 0.960 . S
H262 C259 0.961 . S
O263 Co238 1.967 . S
O263 C271 1.258 . S
O264 Co239 1.941 . S
O264 C271 1.266 . S
H265 C267 0.959 . S
H266 C267 0.961 . S
C267 C257 1.510 . S
C267 H265 0.959 . S
C267 H266 0.961 . S
C267 H268 0.960 . S
H268 C267 0.960 . S
H269 N249 0.862 . S
O270 Co238 1.920 . S
O270 C243 1.289 . S
C271 O263 1.258 . S
C271 O264 1.266 . S
Co272 O275 1.970 . S
Co272 N289 1.989 . S
Co272 O297 1.967 . S
Co272 O304 1.920 . S
Co273 O276 1.966 . S
Co273 N282 2.022 . S
Co273 N290 1.993 . S
Co273 O298 1.941 . S
C274 O275 1.258 . S
C274 O276 1.263 . S
O275 Co272 1.970 . S
O275 C274 1.258 . S
O276 Co273 1.966 . S
O276 C274 1.263 . S
C277 O278 1.235 . S
C277 O304 1.289 . S
O278 C277 1.235 . S
C279 C281 1.400 . S
C279 N282 1.351 . S
C279 C284 1.501 . S
C280 C281 1.387 . S
C280 N283 1.341 . S
C281 C279 1.400 . S
C281 C280 1.387 . S
N282 Co273 2.022 . S
N282 C279 1.351 . S
N282 N283 1.365 . S
N283 C280 1.341 . S
N283 N282 1.365 . S
N283 H303 0.862 . S
C284 C279 1.501 . S
C284 H285 0.961 . S
C284 H286 0.961 . S
C284 H287 0.960 . S
H285 C284 0.961 . S
H286 C284 0.961 . S
H287 C284 0.960 . S
C288 N289 1.342 . S
C288 C292 1.401 . S
C288 C293 1.499 . S
N289 Co272 1.989 . S
N289 C288 1.342 . S
N289 N290 1.388 . S
N290 Co273 1.993 . S
N290 N289 1.388 . S
N290 C291 1.346 . S
C291 N290 1.346 . S
C291 C292 1.396 . S
C291 C301 1.510 . S
C292 C288 1.401 . S
C292 C291 1.396 . S
C293 C288 1.499 . S
C293 H294 0.959 . S
C293 H295 0.960 . S
C293 H296 0.961 . S
H294 C293 0.959 . S
H295 C293 0.960 . S
H296 C293 0.961 . S
O297 Co272 1.967 . S
O297 C305 1.258 . S
O298 Co273 1.941 . S
O298 C305 1.266 . S
H299 C301 0.959 . S
H300 C301 0.961 . S
C301 C291 1.510 . S
C301 H299 0.959 . S
C301 H300 0.961 . S
C301 H302 0.960 . S
H302 C301 0.960 . S
H303 N283 0.862 . S
O304 Co272 1.920 . S
O304 C277 1.289 . S
C305 O297 1.258 . S
C305 O298 1.266 . S
Co306 O309 1.970 . S
Co306 N323 1.989 . S
Co306 O331 1.967 . S
Co306 O338 1.920 . S
Co307 O310 1.966 . S
Co307 N316 2.022 . S
Co307 N324 1.993 . S
Co307 O332 1.941 . S
C308 O309 1.258 . S
C308 O310 1.263 . S
O309 Co306 1.970 . S
O309 C308 1.258 . S
O310 Co307 1.966 . S
O310 C308 1.263 . S
C311 O312 1.235 . S
C311 O338 1.289 . S
O312 C311 1.235 . S
C313 C315 1.400 . S
C313 N316 1.351 . S
C313 C318 1.501 . S
C314 C315 1.387 . S
C314 N317 1.341 . S
C315 C313 1.400 . S
C315 C314 1.387 . S
N316 Co307 2.022 . S
N316 C313 1.351 . S
N316 N317 1.365 . S
N317 C314 1.341 . S
N317 N316 1.365 . S
N317 H337 0.862 . S
C318 C313 1.501 . S
C318 H319 0.961 . S
C318 H320 0.961 . S
C318 H321 0.960 . S
H319 C318 0.961 . S
H320 C318 0.961 . S
H321 C318 0.960 . S
C322 N323 1.342 . S
C322 C326 1.401 . S
C322 C327 1.499 . S
N323 Co306 1.989 . S
N323 C322 1.342 . S
N323 N324 1.388 . S
N324 Co307 1.993 . S
N324 N323 1.388 . S
N324 C325 1.346 . S
C325 N324 1.346 . S
C325 C326 1.396 . S
C325 C335 1.510 . S
C326 C322 1.401 . S
C326 C325 1.396 . S
C327 C322 1.499 . S
C327 H328 0.959 . S
C327 H329 0.960 . S
C327 H330 0.961 . S
H328 C327 0.959 . S
H329 C327 0.960 . S
H330 C327 0.961 . S
O331 Co306 1.967 . S
O331 C339 1.258 . S
O332 Co307 1.941 . S
O332 C339 1.266 . S
H333 C335 0.959 . S
H334 C335 0.961 . S
C335 C325 1.510 . S
C335 H333 0.959 . S
C335 H334 0.961 . S
C335 H336 0.960 . S
H336 C335 0.960 . S
H337 N317 0.862 . S
O338 Co306 1.920 . S
O338 C311 1.289 . S
C339 O331 1.258 . S
C339 O332 1.266 . S
Co340 O343 1.970 . S
Co340 N357 1.989 . S
Co340 O365 1.967 . S
Co340 O372 1.920 . S
Co341 O344 1.966 . S
Co341 N350 2.022 . S
Co341 N358 1.993 . S
Co341 O366 1.941 . S
C342 O343 1.258 . S
C342 O344 1.263 . S
O343 Co340 1.970 . S
O343 C342 1.258 . S
O344 Co341 1.966 . S
O344 C342 1.263 . S
C345 O346 1.235 . S
C345 O372 1.289 . S
O346 C345 1.235 . S
C347 C349 1.400 . S
C347 N350 1.351 . S
C347 C352 1.501 . S
C348 C349 1.387 . S
C348 N351 1.341 . S
C349 C347 1.400 . S
C349 C348 1.387 . S
N350 Co341 2.022 . S
N350 C347 1.351 . S
N350 N351 1.365 . S
N351 C348 1.341 . S
N351 N350 1.365 . S
N351 H371 0.862 . S
C352 C347 1.501 . S
C352 H353 0.961 . S
C352 H354 0.961 . S
C352 H355 0.960 . S
H353 C352 0.961 . S
H354 C352 0.961 . S
H355 C352 0.960 . S
C356 N357 1.342 . S
C356 C360 1.401 . S
C356 C361 1.499 . S
N357 Co340 1.989 . S
N357 C356 1.342 . S
N357 N358 1.388 . S
N358 Co341 1.993 . S
N358 N357 1.388 . S
N358 C359 1.346 . S
C359 N358 1.346 . S
C359 C360 1.396 . S
C359 C369 1.510 . S
C360 C356 1.401 . S
C360 C359 1.396 . S
C361 C356 1.499 . S
C361 H362 0.959 . S
C361 H363 0.960 . S
C361 H364 0.961 . S
H362 C361 0.959 . S
H363 C361 0.960 . S
H364 C361 0.961 . S
O365 Co340 1.967 . S
O365 C373 1.258 . S
O366 Co341 1.941 . S
O366 C373 1.266 . S
H367 C369 0.959 . S
H368 C369 0.961 . S
C369 C359 1.510 . S
C369 H367 0.959 . S
C369 H368 0.961 . S
C369 H370 0.960 . S
H370 C369 0.960 . S
H371 N351 0.862 . S
O372 Co340 1.920 . S
O372 C345 1.289 . S
C373 O365 1.258 . S
C373 O366 1.266 . S
Co374 O377 1.970 . S
Co374 N391 1.989 . S
Co374 O399 1.967 . S
Co374 O406 1.920 . S
Co375 O378 1.966 . S
Co375 N384 2.022 . S
Co375 N392 1.993 . S
Co375 O400 1.941 . S
C376 O377 1.258 . S
C376 O378 1.263 . S
O377 Co374 1.970 . S
O377 C376 1.258 . S
O378 Co375 1.966 . S
O378 C376 1.263 . S
C379 O380 1.235 . S
C379 O406 1.289 . S
O380 C379 1.235 . S
C381 C383 1.400 . S
C381 N384 1.351 . S
C381 C386 1.501 . S
C382 C383 1.387 . S
C382 N385 1.341 . S
C383 C381 1.400 . S
C383 C382 1.387 . S
N384 Co375 2.022 . S
N384 C381 1.351 . S
N384 N385 1.365 . S
N385 C382 1.341 . S
N385 N384 1.365 . S
N385 H405 0.862 . S
C386 C381 1.501 . S
C386 H387 0.961 . S
C386 H388 0.961 . S
C386 H389 0.960 . S
H387 C386 0.961 . S
H388 C386 0.961 . S
H389 C386 0.960 . S
C390 N391 1.342 . S
C390 C394 1.401 . S
C390 C395 1.499 . S
N391 Co374 1.989 . S
N391 C390 1.342 . S
N391 N392 1.388 . S
N392 Co375 1.993 . S
N392 N391 1.388 . S
N392 C393 1.346 . S
C393 N392 1.346 . S
C393 C394 1.396 . S
C393 C403 1.510 . S
C394 C390 1.401 . S
C394 C393 1.396 . S
C395 C390 1.499 . S
C395 H396 0.959 . S
C395 H397 0.960 . S
C395 H398 0.961 . S
H396 C395 0.959 . S
H397 C395 0.960 . S
H398 C395 0.961 . S
O399 Co374 1.967 . S
O399 C407 1.258 . S
O400 Co375 1.941 . S
O400 C407 1.266 . S
H401 C403 0.959 . S
H402 C403 0.961 . S
C403 C393 1.510 . S
C403 H401 0.959 . S
C403 H402 0.961 . S
C403 H404 0.960 . S
H404 C403 0.960 . S
H405 N385 0.862 . S
O406 Co374 1.920 . S
O406 C379 1.289 . S
C407 O399 1.258 . S
C407 O400 1.266 . S
Co408 O411 1.970 . S
Co408 N425 1.989 . S
Co408 O433 1.967 . S
Co408 O440 1.920 . S
Co409 O412 1.966 . S
Co409 N418 2.022 . S
Co409 N426 1.993 . S
Co409 O434 1.941 . S
C410 O411 1.258 . S
C410 O412 1.263 . S
O411 Co408 1.970 . S
O411 C410 1.258 . S
O412 Co409 1.966 . S
O412 C410 1.263 . S
C413 O414 1.235 . S
C413 O440 1.289 . S
O414 C413 1.235 . S
C415 C417 1.400 . S
C415 N418 1.351 . S
C415 C420 1.501 . S
C416 C417 1.387 . S
C416 N419 1.341 . S
C417 C415 1.400 . S
C417 C416 1.387 . S
N418 Co409 2.022 . S
N418 C415 1.351 . S
N418 N419 1.365 . S
N419 C416 1.341 . S
N419 N418 1.365 . S
N419 H439 0.862 . S
C420 C415 1.501 . S
C420 H421 0.961 . S
C420 H422 0.961 . S
C420 H423 0.960 . S
H421 C420 0.961 . S
H422 C420 0.961 . S
H423 C420 0.960 . S
C424 N425 1.342 . S
C424 C428 1.401 . S
C424 C429 1.499 . S
N425 Co408 1.989 . S
N425 C424 1.342 . S
N425 N426 1.388 . S
N426 Co409 1.993 . S
N426 N425 1.388 . S
N426 C427 1.346 . S
C427 N426 1.346 . S
C427 C428 1.396 . S
C427 C437 1.510 . S
C428 C424 1.401 . S
C428 C427 1.396 . S
C429 C424 1.499 . S
C429 H430 0.959 . S
C429 H431 0.960 . S
C429 H432 0.961 . S
H430 C429 0.959 . S
H431 C429 0.960 . S
H432 C429 0.961 . S
O433 Co408 1.967 . S
O433 C441 1.258 . S
O434 Co409 1.941 . S
O434 C441 1.266 . S
H435 C437 0.959 . S
H436 C437 0.961 . S
C437 C427 1.510 . S
C437 H435 0.959 . S
C437 H436 0.961 . S
C437 H438 0.960 . S
H438 C437 0.960 . S
H439 N419 0.862 . S
O440 Co408 1.920 . S
O440 C413 1.289 . S
C441 O433 1.258 . S
C441 O434 1.266 . S
Co442 O445 1.970 . S
Co442 N459 1.989 . S
Co442 O467 1.967 . S
Co442 O474 1.920 . S
Co443 O446 1.966 . S
Co443 N452 2.022 . S
Co443 N460 1.993 . S
Co443 O468 1.941 . S
C444 O445 1.258 . S
C444 O446 1.263 . S
O445 Co442 1.970 . S
O445 C444 1.258 . S
O446 Co443 1.966 . S
O446 C444 1.263 . S
C447 O448 1.235 . S
C447 O474 1.289 . S
O448 C447 1.235 . S
C449 C451 1.400 . S
C449 N452 1.351 . S
C449 C454 1.501 . S
C450 C451 1.387 . S
C450 N453 1.341 . S
C451 C449 1.400 . S
C451 C450 1.387 . S
N452 Co443 2.022 . S
N452 C449 1.351 . S
N452 N453 1.365 . S
N453 C450 1.341 . S
N453 N452 1.365 . S
N453 H473 0.862 . S
C454 C449 1.501 . S
C454 H455 0.961 . S
C454 H456 0.961 . S
C454 H457 0.960 . S
H455 C454 0.961 . S
H456 C454 0.961 . S
H457 C454 0.960 . S
C458 N459 1.342 . S
C458 C462 1.401 . S
C458 C463 1.499 . S
N459 Co442 1.989 . S
N459 C458 1.342 . S
N459 N460 1.388 . S
N460 Co443 1.993 . S
N460 N459 1.388 . S
N460 C461 1.346 . S
C461 N460 1.346 . S
C461 C462 1.396 . S
C461 C471 1.510 . S
C462 C458 1.401 . S
C462 C461 1.396 . S
C463 C458 1.499 . S
C463 H464 0.959 . S
C463 H465 0.960 . S
C463 H466 0.961 . S
H464 C463 0.959 . S
H465 C463 0.960 . S
H466 C463 0.961 . S
O467 Co442 1.967 . S
O467 C475 1.258 . S
O468 Co443 1.941 . S
O468 C475 1.266 . S
H469 C471 0.959 . S
H470 C471 0.961 . S
C471 C461 1.510 . S
C471 H469 0.959 . S
C471 H470 0.961 . S
C471 H472 0.960 . S
H472 C471 0.960 . S
H473 N453 0.862 . S
O474 Co442 1.920 . S
O474 C447 1.289 . S
C475 O467 1.258 . S
C475 O468 1.266 . S
Co476 O479 1.970 . S
Co476 N493 1.989 . S
Co476 O501 1.967 . S
Co476 O508 1.920 . S
Co477 O480 1.966 . S
Co477 N486 2.022 . S
Co477 N494 1.993 . S
Co477 O502 1.941 . S
C478 O479 1.258 . S
C478 O480 1.263 . S
O479 Co476 1.970 . S
O479 C478 1.258 . S
O480 Co477 1.966 . S
O480 C478 1.263 . S
C481 O482 1.235 . S
C481 O508 1.289 . S
O482 C481 1.235 . S
C483 C485 1.400 . S
C483 N486 1.351 . S
C483 C488 1.501 . S
C484 C485 1.387 . S
C484 N487 1.341 . S
C485 C483 1.400 . S
C485 C484 1.387 . S
N486 Co477 2.022 . S
N486 C483 1.351 . S
N486 N487 1.365 . S
N487 C484 1.341 . S
N487 N486 1.365 . S
N487 H507 0.862 . S
C488 C483 1.501 . S
C488 H489 0.961 . S
C488 H490 0.961 . S
C488 H491 0.960 . S
H489 C488 0.961 . S
H490 C488 0.961 . S
H491 C488 0.960 . S
C492 N493 1.342 . S
C492 C496 1.401 . S
C492 C497 1.499 . S
N493 Co476 1.989 . S
N493 C492 1.342 . S
N493 N494 1.388 . S
N494 Co477 1.993 . S
N494 N493 1.388 . S
N494 C495 1.346 . S
C495 N494 1.346 . S
C495 C496 1.396 . S
C495 C505 1.510 . S
C496 C492 1.401 . S
C496 C495 1.396 . S
C497 C492 1.499 . S
C497 H498 0.959 . S
C497 H499 0.960 . S
C497 H500 0.961 . S
H498 C497 0.959 . S
H499 C497 0.960 . S
H500 C497 0.961 . S
O501 Co476 1.967 . S
O501 C509 1.258 . S
O502 Co477 1.941 . S
O502 C509 1.266 . S
H503 C505 0.959 . S
H504 C505 0.961 . S
C505 C495 1.510 . S
C505 H503 0.959 . S
C505 H504 0.961 . S
C505 H506 0.960 . S
H506 C505 0.960 . S
H507 N487 0.862 . S
O508 Co476 1.920 . S
O508 C481 1.289 . S
C509 O501 1.258 . S
C509 O502 1.266 . S
Co510 O513 1.970 . S
Co510 N527 1.989 . S
Co510 O535 1.967 . S
Co510 O542 1.920 . S
Co511 O514 1.966 . S
Co511 N520 2.022 . S
Co511 N528 1.993 . S
Co511 O536 1.941 . S
C512 O513 1.258 . S
C512 O514 1.263 . S
O513 Co510 1.970 . S
O513 C512 1.258 . S
O514 Co511 1.966 . S
O514 C512 1.263 . S
C515 O516 1.235 . S
C515 O542 1.289 . S
O516 C515 1.235 . S
C517 C519 1.400 . S
C517 N520 1.351 . S
C517 C522 1.501 . S
C518 C519 1.387 . S
C518 N521 1.341 . S
C519 C517 1.400 . S
C519 C518 1.387 . S
N520 Co511 2.022 . S
N520 C517 1.351 . S
N520 N521 1.365 . S
N521 C518 1.341 . S
N521 N520 1.365 . S
N521 H541 0.862 . S
C522 C517 1.501 . S
C522 H523 0.961 . S
C522 H524 0.961 . S
C522 H525 0.960 . S
H523 C522 0.961 . S
H524 C522 0.961 . S
H525 C522 0.960 . S
C526 N527 1.342 . S
C526 C530 1.401 . S
C526 C531 1.499 . S
N527 Co510 1.989 . S
N527 C526 1.342 . S
N527 N528 1.388 . S
N528 Co511 1.993 . S
N528 N527 1.388 . S
N528 C529 1.346 . S
C529 N528 1.346 . S
C529 C530 1.396 . S
C529 C539 1.510 . S
C530 C526 1.401 . S
C530 C529 1.396 . S
C531 C526 1.499 . S
C531 H532 0.959 . S
C531 H533 0.960 . S
C531 H534 0.961 . S
H532 C531 0.959 . S
H533 C531 0.960 . S
H534 C531 0.961 . S
O535 Co510 1.967 . S
O535 C543 1.258 . S
O536 Co511 1.941 . S
O536 C543 1.266 . S
H537 C539 0.959 . S
H538 C539 0.961 . S
C539 C529 1.510 . S
C539 H537 0.959 . S
C539 H538 0.961 . S
C539 H540 0.960 . S
H540 C539 0.960 . S
H541 N521 0.862 . S
O542 Co510 1.920 . S
O542 C515 1.289 . S
C543 O535 1.258 . S
C543 O536 1.266 . S
H544 C562 0.951 . S
H545 C564 0.951 . S
H546 C566 0.950 . S
H547 C567 0.950 . S
H548 C569 0.950 . S
H549 C572 0.950 . S
H550 C573 0.950 . S
H551 C575 0.950 . S
H552 C576 0.950 . S
H553 C577 0.951 . S
H554 C579 0.951 . S
H555 C581 0.950 . S
H556 C582 0.950 . S
H557 C584 0.950 . S
H558 C587 0.950 . S
H559 C588 0.950 . S
H560 C590 0.950 1_565 S
H561 C591 0.950 . S
C562 H544 0.951 . S
C562 C563 1.366 . S
C562 C564 1.388 . S
C563 C562 1.366 . S
C563 C567 1.385 . S
C564 H545 0.951 . S
C564 C562 1.388 . S
C564 C565 1.366 . S
C565 C564 1.366 . S
C565 C566 1.414 . S
C565 C568 1.499 . S
C566 H546 0.950 . S
C566 C565 1.414 . S
C566 C567 1.374 . S
C567 H547 0.950 . S
C567 C563 1.385 . S
C567 C566 1.374 . S
C568 C565 1.499 . S
C568 C569 1.373 . S
C568 C570 1.389 . S
C569 H548 0.950 . S
C569 C568 1.373 . S
C569 C585 1.377 . S
C570 C568 1.389 . S
C570 C571 1.524 . S
C570 C584 1.377 . S
C571 C570 1.524 . S
C571 C572 1.397 . S
C571 C576 1.363 . S
C572 H549 0.950 . S
C572 C571 1.397 . S
C572 C573 1.334 . S
C573 H550 0.950 . S
C573 C572 1.334 . S
C573 C574 1.287 . S
C574 C573 1.287 . S
C574 C575 1.524 . S
C574 H593 0.913 . S
C575 H551 0.950 . S
C575 C574 1.524 . S
C575 C576 1.415 . S
C576 H552 0.950 . S
C576 C571 1.363 . S
C576 C575 1.415 . S
C577 H553 0.951 . S
C577 C578 1.366 . S
C577 C579 1.388 . S
C578 C577 1.366 . S
C578 C582 1.385 . S
C579 H554 0.951 . S
C579 C577 1.388 . S
C579 C580 1.366 . S
C580 C579 1.366 . S
C580 C581 1.414 . S
C580 C583 1.499 . S
C581 H555 0.950 . S
C581 C580 1.414 . S
C581 C582 1.374 . S
C582 H556 0.950 . S
C582 C578 1.385 . S
C582 C581 1.374 . S
C583 C580 1.499 . S
C583 C584 1.373 . S
C583 C585 1.389 . S
C584 H557 0.950 . S
C584 C570 1.377 . S
C584 C583 1.373 . S
C585 C569 1.377 . S
C585 C583 1.389 . S
C585 C586 1.524 . S
C586 C585 1.524 . S
C586 C587 1.397 . S
C586 C591 1.363 . S
C587 H558 0.950 . S
C587 C586 1.397 . S
C587 C588 1.334 . S
C588 H559 0.950 . S
C588 C587 1.334 . S
C588 C589 1.287 1_545 S
C589 C588 1.287 1_565 S
C589 C590 1.524 1_565 S
C589 H592 0.999 . S
C590 H560 0.950 1_545 S
C590 C589 1.524 1_545 S
C590 C591 1.415 . S
C591 H561 0.950 . S
C591 C586 1.363 . S
C591 C590 1.415 . S
H592 C589 0.999 . S
H593 C574 0.913 . S
H594 C612 0.951 . S
H595 C614 0.951 . S
H596 C616 0.950 . S
H597 C617 0.950 . S
H598 C619 0.950 . S
H599 C622 0.950 . S
H600 C623 0.950 . S
H601 C625 0.952 1_655 S
H602 C626 0.950 . S
H603 C627 0.951 . S
H604 C629 0.951 . S
H605 C631 0.950 . S
H606 C632 0.950 . S
H607 C634 0.950 . S
H608 C637 0.950 . S
H609 C638 0.950 . S
H610 C640 0.950 . S
H611 C641 0.950 . S
C612 H594 0.951 . S
C612 C613 1.366 . S
C612 C614 1.388 . S
C613 C612 1.366 . S
C613 C617 1.385 . S
C614 H595 0.951 . S
C614 C612 1.388 . S
C614 C615 1.366 . S
C615 C614 1.366 . S
C615 C616 1.414 . S
C615 C618 1.499 . S
C616 H596 0.950 . S
C616 C615 1.414 . S
C616 C617 1.374 . S
C617 H597 0.950 . S
C617 C613 1.385 . S
C617 C616 1.374 . S
C618 C615 1.499 . S
C618 C619 1.373 . S
C618 C620 1.389 . S
C619 H598 0.950 . S
C619 C618 1.373 . S
C619 C635 1.377 . S
C620 C618 1.389 . S
C620 C621 1.524 . S
C620 C634 1.377 . S
C621 C620 1.524 . S
C621 C622 1.397 . S
C621 C626 1.363 . S
C622 H599 0.950 . S
C622 C621 1.397 . S
C622 C623 1.334 . S
C623 H600 0.950 . S
C623 C622 1.334 . S
C623 C624 1.287 1_455 S
C624 C623 1.287 1_655 S
C624 C625 1.524 1_655 S
C624 H643 0.913 . S
C625 H601 0.952 1_455 S
C625 C624 1.524 1_455 S
C625 C626 1.412 . S
C626 H602 0.950 . S
C626 C621 1.363 . S
C626 C625 1.412 . S
C627 H603 0.951 . S
C627 C628 1.366 . S
C627 C629 1.388 . S
C628 C627 1.366 . S
C628 C632 1.385 . S
C629 H604 0.951 . S
C629 C627 1.388 . S
C629 C630 1.366 . S
C630 C629 1.366 . S
C630 C631 1.414 . S
C630 C633 1.499 . S
C631 H605 0.950 . S
C631 C630 1.414 . S
C631 C632 1.374 . S
C632 H606 0.950 . S
C632 C628 1.385 . S
C632 C631 1.374 . S
C633 C630 1.499 . S
C633 C634 1.373 . S
C633 C635 1.389 . S
C634 H607 0.950 . S
C634 C620 1.377 . S
C634 C633 1.373 . S
C635 C619 1.377 . S
C635 C633 1.389 . S
C635 C636 1.524 . S
C636 C635 1.524 . S
C636 C637 1.397 . S
C636 C641 1.363 . S
C637 H608 0.950 . S
C637 C636 1.397 . S
C637 C638 1.334 . S
C638 H609 0.950 . S
C638 C637 1.334 . S
C638 C639 1.287 . S
C639 C638 1.287 . S
C639 C640 1.524 . S
C639 H642 0.999 . S
C640 H610 0.950 . S
C640 C639 1.524 . S
C640 C641 1.415 . S
C641 H611 0.950 . S
C641 C636 1.363 . S
C641 C640 1.415 . S
H642 C639 0.999 . S
H643 C624 0.913 . S
H644 C662 0.951 . S
H645 C664 0.951 . S
H646 C666 0.950 . S
H647 C667 0.950 . S
H648 C669 0.950 . S
H649 C672 0.950 . S
H650 C673 0.950 . S
H651 C675 0.950 . S
H652 C676 0.950 . S
H653 C677 0.951 . S
H654 C679 0.951 . S
H655 C681 0.950 . S
H656 C682 0.950 . S
H657 C684 0.950 . S
H658 C687 0.950 . S
H659 C688 0.950 . S
H660 C690 0.950 . S
H661 C691 0.950 . S
C662 H644 0.951 . S
C662 C663 1.366 . S
C662 C664 1.388 . S
C663 C662 1.366 . S
C663 C667 1.385 . S
C664 H645 0.951 . S
C664 C662 1.388 . S
C664 C665 1.366 . S
C665 C664 1.366 . S
C665 C666 1.414 . S
C665 C668 1.499 . S
C666 H646 0.950 . S
C666 C665 1.414 . S
C666 C667 1.374 . S
C667 H647 0.950 . S
C667 C663 1.385 . S
C667 C666 1.374 . S
C668 C665 1.499 . S
C668 C669 1.373 . S
C668 C670 1.389 . S
C669 H648 0.950 . S
C669 C668 1.373 . S
C669 C685 1.377 . S
C670 C668 1.389 . S
C670 C671 1.524 . S
C670 C684 1.377 . S
C671 C670 1.524 . S
C671 C672 1.397 . S
C671 C676 1.363 . S
C672 H649 0.950 . S
C672 C671 1.397 . S
C672 C673 1.334 . S
C673 H650 0.950 . S
C673 C672 1.334 . S
C673 C674 1.287 . S
C674 C673 1.287 . S
C674 C675 1.524 . S
C674 H693 0.913 . S
C675 H651 0.950 . S
C675 C674 1.524 . S
C675 C676 1.415 . S
C676 H652 0.950 . S
C676 C671 1.363 . S
C676 C675 1.415 . S
C677 H653 0.951 . S
C677 C678 1.366 . S
C677 C679 1.388 . S
C678 C677 1.366 . S
C678 C682 1.385 . S
C679 H654 0.951 . S
C679 C677 1.388 . S
C679 C680 1.366 . S
C680 C679 1.366 . S
C680 C681 1.414 . S
C680 C683 1.499 . S
C681 H655 0.950 . S
C681 C680 1.414 . S
C681 C682 1.374 . S
C682 H656 0.950 . S
C682 C678 1.385 . S
C682 C681 1.374 . S
C683 C680 1.499 . S
C683 C684 1.373 . S
C683 C685 1.389 . S
C684 H657 0.950 . S
C684 C670 1.377 . S
C684 C683 1.373 . S
C685 C669 1.377 . S
C685 C683 1.389 . S
C685 C686 1.524 . S
C686 C685 1.524 . S
C686 C687 1.397 . S
C686 C691 1.363 . S
C687 H658 0.950 . S
C687 C686 1.397 . S
C687 C688 1.334 . S
C688 H659 0.950 . S
C688 C687 1.334 . S
C688 C689 1.287 . S
C689 C688 1.287 . S
C689 C690 1.524 . S
C689 H692 0.999 . S
C690 H660 0.950 . S
C690 C689 1.524 . S
C690 C691 1.415 . S
C691 H661 0.950 . S
C691 C686 1.363 . S
C691 C690 1.415 . S
H692 C689 0.999 . S
H693 C674 0.913 . S
H694 C712 0.951 . S
H695 C714 0.951 . S
H696 C716 0.950 . S
H697 C717 0.950 . S
H698 C719 0.950 . S
H699 C722 0.950 . S
H700 C723 0.950 . S
H701 C725 0.950 . S
H702 C726 0.950 . S
H703 C727 0.951 . S
H704 C729 0.951 . S
H705 C731 0.950 . S
H706 C732 0.950 . S
H707 C734 0.950 . S
H708 C737 0.950 . S
H709 C738 0.950 . S
H710 C740 0.950 . S
H711 C741 0.950 . S
C712 H694 0.951 . S
C712 C713 1.366 . S
C712 C714 1.388 . S
C713 C712 1.366 . S
C713 C717 1.385 . S
C714 H695 0.951 . S
C714 C712 1.388 . S
C714 C715 1.366 . S
C715 C714 1.366 . S
C715 C716 1.414 . S
C715 C718 1.499 . S
C716 H696 0.950 . S
C716 C715 1.414 . S
C716 C717 1.374 . S
C717 H697 0.950 . S
C717 C713 1.385 . S
C717 C716 1.374 . S
C718 C715 1.499 . S
C718 C719 1.373 . S
C718 C720 1.389 . S
C719 H698 0.950 . S
C719 C718 1.373 . S
C719 C735 1.377 . S
C720 C718 1.389 . S
C720 C721 1.524 . S
C720 C734 1.377 . S
C721 C720 1.524 . S
C721 C722 1.397 . S
C721 C726 1.363 . S
C722 H699 0.950 . S
C722 C721 1.397 . S
C722 C723 1.334 . S
C723 H700 0.950 . S
C723 C722 1.334 . S
C723 C724 1.287 . S
C724 C723 1.287 . S
C724 C725 1.524 . S
C724 H743 0.913 . S
C725 H701 0.950 . S
C725 C724 1.524 . S
C725 C726 1.415 . S
C726 H702 0.950 . S
C726 C721 1.363 . S
C726 C725 1.415 . S
C727 H703 0.951 . S
C727 C728 1.366 . S
C727 C729 1.388 . S
C728 C727 1.366 . S
C728 C732 1.385 . S
C729 H704 0.951 . S
C729 C727 1.388 . S
C729 C730 1.366 . S
C730 C729 1.366 . S
C730 C731 1.414 . S
C730 C733 1.499 . S
C731 H705 0.950 . S
C731 C730 1.414 . S
C731 C732 1.374 . S
C732 H706 0.950 . S
C732 C728 1.385 . S
C732 C731 1.374 . S
C733 C730 1.499 . S
C733 C734 1.373 . S
C733 C735 1.389 . S
C734 H707 0.950 . S
C734 C720 1.377 . S
C734 C733 1.373 . S
C735 C719 1.377 . S
C735 C733 1.389 . S
C735 C736 1.524 . S
C736 C735 1.524 . S
C736 C737 1.397 . S
C736 C741 1.363 . S
C737 H708 0.950 . S
C737 C736 1.397 . S
C737 C738 1.334 . S
C738 H709 0.950 . S
C738 C737 1.334 . S
C738 C739 1.287 . S
C739 C738 1.287 . S
C739 C740 1.524 . S
C739 H742 0.999 . S
C740 H710 0.950 . S
C740 C739 1.524 . S
C740 C741 1.415 . S
C741 H711 0.950 . S
C741 C736 1.363 . S
C741 C740 1.415 . S
H742 C739 0.999 . S
H743 C724 0.913 . S
H744 C762 0.951 . S
H745 C764 0.951 . S
H746 C766 0.950 . S
H747 C767 0.950 . S
H748 C769 0.950 . S
H749 C772 0.950 . S
H750 C773 0.950 . S
H751 C775 0.950 . S
H752 C776 0.950 . S
H753 C777 0.951 . S
H754 C779 0.951 . S
H755 C781 0.950 . S
H756 C782 0.950 . S
H757 C784 0.950 . S
H758 C787 0.950 . S
H759 C788 0.950 . S
H760 C790 0.950 . S
H761 C791 0.950 . S
C762 H744 0.951 . S
C762 C763 1.366 . S
C762 C764 1.388 . S
C763 C762 1.366 . S
C763 C767 1.385 . S
C764 H745 0.951 . S
C764 C762 1.388 . S
C764 C765 1.366 . S
C765 C764 1.366 . S
C765 C766 1.414 . S
C765 C768 1.499 . S
C766 H746 0.950 . S
C766 C765 1.414 . S
C766 C767 1.374 . S
C767 H747 0.950 . S
C767 C763 1.385 . S
C767 C766 1.374 . S
C768 C765 1.499 . S
C768 C769 1.373 . S
C768 C770 1.389 . S
C769 H748 0.950 . S
C769 C768 1.373 . S
C769 C785 1.377 . S
C770 C768 1.389 . S
C770 C771 1.524 . S
C770 C784 1.377 . S
C771 C770 1.524 . S
C771 C772 1.397 . S
C771 C776 1.363 . S
C772 H749 0.950 . S
C772 C771 1.397 . S
C772 C773 1.334 . S
C773 H750 0.950 . S
C773 C772 1.334 . S
C773 C774 1.287 . S
C774 C773 1.287 . S
C774 C775 1.524 . S
C774 H793 0.913 . S
C775 H751 0.950 . S
C775 C774 1.524 . S
C775 C776 1.415 . S
C776 H752 0.950 . S
C776 C771 1.363 . S
C776 C775 1.415 . S
C777 H753 0.951 . S
C777 C778 1.366 . S
C777 C779 1.388 . S
C778 C777 1.366 . S
C778 C782 1.385 . S
C779 H754 0.951 . S
C779 C777 1.388 . S
C779 C780 1.366 . S
C780 C779 1.366 . S
C780 C781 1.414 . S
C780 C783 1.499 . S
C781 H755 0.950 . S
C781 C780 1.414 . S
C781 C782 1.374 . S
C782 H756 0.950 . S
C782 C778 1.385 . S
C782 C781 1.374 . S
C783 C780 1.499 . S
C783 C784 1.373 . S
C783 C785 1.389 . S
C784 H757 0.950 . S
C784 C770 1.377 . S
C784 C783 1.373 . S
C785 C769 1.377 . S
C785 C783 1.389 . S
C785 C786 1.524 . S
C786 C785 1.524 . S
C786 C787 1.397 . S
C786 C791 1.363 . S
C787 H758 0.950 . S
C787 C786 1.397 . S
C787 C788 1.334 . S
C788 H759 0.950 . S
C788 C787 1.334 . S
C788 C789 1.287 . S
C789 C788 1.287 . S
C789 C790 1.524 . S
C789 H792 0.999 . S
C790 H760 0.950 . S
C790 C789 1.524 . S
C790 C791 1.415 . S
C791 H761 0.950 . S
C791 C786 1.363 . S
C791 C790 1.415 . S
H792 C789 0.999 . S
H793 C774 0.913 . S
H794 C812 0.951 . S
H795 C814 0.951 . S
H796 C816 0.950 . S
H797 C817 0.950 . S
H798 C819 0.950 . S
H799 C822 0.950 . S
H800 C823 0.950 . S
H801 C825 0.950 . S
H802 C826 0.950 . S
H803 C827 0.951 . S
H804 C829 0.951 . S
H805 C831 0.950 . S
H806 C832 0.950 . S
H807 C834 0.950 . S
H808 C837 0.950 . S
H809 C838 0.950 . S
H810 C840 0.950 . S
H811 C841 0.950 . S
C812 H794 0.951 . S
C812 C813 1.366 . S
C812 C814 1.388 . S
C813 C812 1.366 . S
C813 C817 1.385 . S
C814 H795 0.951 . S
C814 C812 1.388 . S
C814 C815 1.366 . S
C815 C814 1.366 . S
C815 C816 1.414 . S
C815 C818 1.499 . S
C816 H796 0.950 . S
C816 C815 1.414 . S
C816 C817 1.374 . S
C817 H797 0.950 . S
C817 C813 1.385 . S
C817 C816 1.374 . S
C818 C815 1.499 . S
C818 C819 1.373 . S
C818 C820 1.389 . S
C819 H798 0.950 . S
C819 C818 1.373 . S
C819 C835 1.377 . S
C820 C818 1.389 . S
C820 C821 1.524 . S
C820 C834 1.377 . S
C821 C820 1.524 . S
C821 C822 1.397 . S
C821 C826 1.363 . S
C822 H799 0.950 . S
C822 C821 1.397 . S
C822 C823 1.334 . S
C823 H800 0.950 . S
C823 C822 1.334 . S
C823 C824 1.287 . S
C824 C823 1.287 . S
C824 C825 1.524 . S
C824 H843 0.913 . S
C825 H801 0.950 . S
C825 C824 1.524 . S
C825 C826 1.415 . S
C826 H802 0.950 . S
C826 C821 1.363 . S
C826 C825 1.415 . S
C827 H803 0.951 . S
C827 C828 1.366 . S
C827 C829 1.388 . S
C828 C827 1.366 . S
C828 C832 1.385 . S
C829 H804 0.951 . S
C829 C827 1.388 . S
C829 C830 1.366 . S
C830 C829 1.366 . S
C830 C831 1.414 . S
C830 C833 1.499 . S
C831 H805 0.950 . S
C831 C830 1.414 . S
C831 C832 1.374 . S
C832 H806 0.950 . S
C832 C828 1.385 . S
C832 C831 1.374 . S
C833 C830 1.499 . S
C833 C834 1.373 . S
C833 C835 1.389 . S
C834 H807 0.950 . S
C834 C820 1.377 . S
C834 C833 1.373 . S
C835 C819 1.377 . S
C835 C833 1.389 . S
C835 C836 1.524 . S
C836 C835 1.524 . S
C836 C837 1.397 . S
C836 C841 1.363 . S
C837 H808 0.950 . S
C837 C836 1.397 . S
C837 C838 1.334 . S
C838 H809 0.950 . S
C838 C837 1.334 . S
C838 C839 1.287 . S
C839 C838 1.287 . S
C839 C840 1.524 . S
C839 H842 0.999 . S
C840 H810 0.950 . S
C840 C839 1.524 . S
C840 C841 1.415 . S
C841 H811 0.950 . S
C841 C836 1.363 . S
C841 C840 1.415 . S
H842 C839 0.999 . S
H843 C824 0.913 . S
H844 C862 0.951 . S
H845 C864 0.951 . S
H846 C866 0.950 . S
H847 C867 0.950 . S
H848 C869 0.950 . S
H849 C872 0.950 . S
H850 C873 0.950 . S
H851 C875 0.950 . S
H852 C876 0.950 . S
H853 C877 0.951 . S
H854 C879 0.951 . S
H855 C881 0.950 . S
H856 C882 0.950 . S
H857 C884 0.950 . S
H858 C887 0.950 . S
H859 C888 0.950 . S
H860 C890 0.950 . S
H861 C891 0.950 . S
C862 H844 0.951 . S
C862 C863 1.366 . S
C862 C864 1.388 . S
C863 C862 1.366 . S
C863 C867 1.385 . S
C864 H845 0.951 . S
C864 C862 1.388 . S
C864 C865 1.366 . S
C865 C864 1.366 . S
C865 C866 1.414 . S
C865 C868 1.499 . S
C866 H846 0.950 . S
C866 C865 1.414 . S
C866 C867 1.374 . S
C867 H847 0.950 . S
C867 C863 1.385 . S
C867 C866 1.374 . S
C868 C865 1.499 . S
C868 C869 1.373 . S
C868 C870 1.389 . S
C869 H848 0.950 . S
C869 C868 1.373 . S
C869 C885 1.377 . S
C870 C868 1.389 . S
C870 C871 1.524 . S
C870 C884 1.377 . S
C871 C870 1.524 . S
C871 C872 1.397 . S
C871 C876 1.363 . S
C872 H849 0.950 . S
C872 C871 1.397 . S
C872 C873 1.334 . S
C873 H850 0.950 . S
C873 C872 1.334 . S
C873 C874 1.287 . S
C874 C873 1.287 . S
C874 C875 1.524 . S
C874 H893 0.913 . S
C875 H851 0.950 . S
C875 C874 1.524 . S
C875 C876 1.415 . S
C876 H852 0.950 . S
C876 C871 1.363 . S
C876 C875 1.415 . S
C877 H853 0.951 . S
C877 C878 1.366 . S
C877 C879 1.388 . S
C878 C877 1.366 . S
C878 C882 1.385 . S
C879 H854 0.951 . S
C879 C877 1.388 . S
C879 C880 1.366 . S
C880 C879 1.366 . S
C880 C881 1.414 . S
C880 C883 1.499 . S
C881 H855 0.950 . S
C881 C880 1.414 . S
C881 C882 1.374 . S
C882 H856 0.950 . S
C882 C878 1.385 . S
C882 C881 1.374 . S
C883 C880 1.499 . S
C883 C884 1.373 . S
C883 C885 1.389 . S
C884 H857 0.950 . S
C884 C870 1.377 . S
C884 C883 1.373 . S
C885 C869 1.377 . S
C885 C883 1.389 . S
C885 C886 1.524 . S
C886 C885 1.524 . S
C886 C887 1.397 . S
C886 C891 1.363 . S
C887 H858 0.950 . S
C887 C886 1.397 . S
C887 C888 1.334 . S
C888 H859 0.950 . S
C888 C887 1.334 . S
C888 C889 1.287 . S
C889 C888 1.287 . S
C889 C890 1.524 . S
C889 H892 0.999 . S
C890 H860 0.950 . S
C890 C889 1.524 . S
C890 C891 1.415 . S
C891 H861 0.950 . S
C891 C886 1.363 . S
C891 C890 1.415 . S
H892 C889 0.999 . S
H893 C874 0.913 . S
H894 C912 0.951 . S
H895 C914 0.951 . S
H896 C916 0.950 . S
H897 C917 0.950 . S
H898 C919 0.950 . S
H899 C922 0.950 . S
H900 C923 0.950 . S
H901 C925 0.950 . S
H902 C926 0.950 . S
H903 C927 0.951 . S
H904 C929 0.951 . S
H905 C931 0.950 . S
H906 C932 0.950 . S
H907 C934 0.950 . S
H908 C937 0.950 . S
H909 C938 0.950 . S
H910 C940 0.950 . S
H911 C941 0.950 . S
C912 H894 0.951 . S
C912 C913 1.366 . S
C912 C914 1.388 . S
C913 C912 1.366 . S
C913 C917 1.385 . S
C914 H895 0.951 . S
C914 C912 1.388 . S
C914 C915 1.366 . S
C915 C914 1.366 . S
C915 C916 1.414 . S
C915 C918 1.499 . S
C916 H896 0.950 . S
C916 C915 1.414 . S
C916 C917 1.374 . S
C917 H897 0.950 . S
C917 C913 1.385 . S
C917 C916 1.374 . S
C918 C915 1.499 . S
C918 C919 1.373 . S
C918 C920 1.389 . S
C919 H898 0.950 . S
C919 C918 1.373 . S
C919 C935 1.377 . S
C920 C918 1.389 . S
C920 C921 1.524 . S
C920 C934 1.377 . S
C921 C920 1.524 . S
C921 C922 1.397 . S
C921 C926 1.363 . S
C922 H899 0.950 . S
C922 C921 1.397 . S
C922 C923 1.334 . S
C923 H900 0.950 . S
C923 C922 1.334 . S
C923 C924 1.287 . S
C924 C923 1.287 . S
C924 C925 1.524 . S
C924 H943 0.913 . S
C925 H901 0.950 . S
C925 C924 1.524 . S
C925 C926 1.415 . S
C926 H902 0.950 . S
C926 C921 1.363 . S
C926 C925 1.415 . S
C927 H903 0.951 . S
C927 C928 1.366 . S
C927 C929 1.388 . S
C928 C927 1.366 . S
C928 C932 1.385 . S
C929 H904 0.951 . S
C929 C927 1.388 . S
C929 C930 1.366 . S
C930 C929 1.366 . S
C930 C931 1.414 . S
C930 C933 1.499 . S
C931 H905 0.950 . S
C931 C930 1.414 . S
C931 C932 1.374 . S
C932 H906 0.950 . S
C932 C928 1.385 . S
C932 C931 1.374 . S
C933 C930 1.499 . S
C933 C934 1.373 . S
C933 C935 1.389 . S
C934 H907 0.950 . S
C934 C920 1.377 . S
C934 C933 1.373 . S
C935 C919 1.377 . S
C935 C933 1.389 . S
C935 C936 1.524 . S
C936 C935 1.524 . S
C936 C937 1.397 . S
C936 C941 1.363 . S
C937 H908 0.950 . S
C937 C936 1.397 . S
C937 C938 1.334 . S
C938 H909 0.950 . S
C938 C937 1.334 . S
C938 C939 1.287 . S
C939 C938 1.287 . S
C939 C940 1.524 . S
C939 H942 0.999 . S
C940 H910 0.950 . S
C940 C939 1.524 . S
C940 C941 1.415 . S
C941 H911 0.950 . S
C941 C936 1.363 . S
C941 C940 1.415 . S
H942 C939 0.999 . S
H943 C924 0.913 . S
H944 C962 0.951 . S
H945 C964 0.951 . S
H946 C966 0.950 . S
H947 C967 0.949 1_556 S
H948 C969 0.950 . S
H949 C972 0.950 . S
H950 C973 0.950 . S
H951 C975 0.950 . S
H952 C976 0.950 . S
H953 C977 0.951 . S
H954 C979 0.951 . S
H955 C981 0.950 . S
H956 C982 0.950 . S
H957 C984 0.950 . S
H958 C987 0.950 . S
H959 C988 0.950 . S
H960 C990 0.950 . S
H961 C991 0.950 . S
C962 H944 0.951 . S
C962 C963 1.366 . S
C962 C964 1.388 1_545 S
C963 C962 1.366 . S
C963 C967 1.385 . S
C964 H945 0.951 . S
C964 C962 1.388 1_565 S
C964 C965 1.366 . S
C965 C964 1.366 . S
C965 C966 1.414 1_554 S
C965 C968 1.499 . S
C966 H946 0.950 . S
C966 C965 1.414 1_556 S
C966 C967 1.374 1_566 S
C967 H947 0.949 1_554 S
C967 C963 1.385 . S
C967 C966 1.374 1_544 S
C968 C965 1.499 . S
C968 C969 1.373 1_554 S
C968 C970 1.389 . S
C969 H948 0.950 . S
C969 C968 1.373 1_556 S
C969 C985 1.377 . S
C970 C968 1.389 . S
C970 C971 1.524 . S
C970 C984 1.377 . S
C971 C970 1.524 . S
C971 C972 1.397 . S
C971 C976 1.363 . S
C972 H949 0.950 . S
C972 C971 1.397 . S
C972 C973 1.334 . S
C973 H950 0.950 . S
C973 C972 1.334 . S
C973 C974 1.287 . S
C974 C973 1.287 . S
C974 C975 1.524 . S
C974 H993 0.913 . S
C975 H951 0.950 . S
C975 C974 1.524 . S
C975 C976 1.415 . S
C976 H952 0.950 . S
C976 C971 1.363 . S
C976 C975 1.415 . S
C977 H953 0.951 . S
C977 C978 1.366 . S
C977 C979 1.388 . S
C978 C977 1.366 . S
C978 C982 1.385 1_556 S
C979 H954 0.951 . S
C979 C977 1.388 . S
C979 C980 1.359 1_556 S
C980 C979 1.359 1_554 S
C980 C981 1.420 . S
C980 C983 1.500 . S
C981 H955 0.950 . S
C981 C980 1.420 . S
C981 C982 1.374 . S
C982 H956 0.950 . S
C982 C978 1.385 1_554 S
C982 C981 1.374 . S
C983 C980 1.500 . S
C983 C984 1.373 . S
C983 C985 1.389 1_554 S
C984 H957 0.950 . S
C984 C970 1.377 . S
C984 C983 1.373 . S
C985 C969 1.377 . S
C985 C983 1.389 1_556 S
C985 C986 1.524 . S
C986 C985 1.524 . S
C986 C987 1.397 . S
C986 C991 1.363 . S
C987 H958 0.950 . S
C987 C986 1.397 . S
C987 C988 1.334 . S
C988 H959 0.950 . S
C988 C987 1.334 . S
C988 C989 1.287 . S
C989 C988 1.287 . S
C989 C990 1.524 . S
C989 H992 0.999 . S
C990 H960 0.950 . S
C990 C989 1.524 . S
C990 C991 1.415 . S
C991 H961 0.950 . S
C991 C986 1.363 . S
C991 C990 1.415 . S
H992 C989 0.999 . S
H993 C974 0.913 . S
H994 C1012 0.929 1_554 S
H995 C1014 0.951 . S
H996 C1016 0.950 . S
H997 C1017 0.950 . S
H998 C1019 0.950 . S
H999 C1022 0.950 . S
H1000 C1023 0.950 . S
H1001 C1025 0.950 1_554 S
H1002 C1026 0.950 . S
H1003 C1027 0.951 . S
H1004 C1029 0.951 . S
H1005 C1031 0.950 . S
H1006 C1032 0.950 . S
H1007 C1034 0.950 . S
H1008 C1037 0.950 . S
H1009 C1038 0.950 . S
H1010 C1040 0.950 . S
H1011 C1041 0.950 . S
C1012 H994 0.929 1_556 S
C1012 C1013 1.391 . S
C1012 C1014 1.385 1_456 S
C1013 C1012 1.391 . S
C1013 C1017 1.385 . S
C1014 H995 0.951 . S
C1014 C1012 1.385 1_654 S
C1014 C1015 1.366 1_554 S
C1015 C1014 1.366 1_556 S
C1015 C1016 1.414 . S
C1015 C1018 1.499 . S
C1016 H996 0.950 . S
C1016 C1015 1.414 . S
C1016 C1017 1.374 1_655 S
C1017 H997 0.950 . S
C1017 C1013 1.385 . S
C1017 C1016 1.374 1_455 S
C1018 C1015 1.499 . S
C1018 C1019 1.373 . S
C1018 C1020 1.389 . S
C1019 H998 0.950 . S
C1019 C1018 1.373 . S
C1019 C1035 1.377 . S
C1020 C1018 1.389 . S
C1020 C1021 1.524 . S
C1020 C1034 1.377 . S
C1021 C1020 1.524 . S
C1021 C1022 1.397 . S
C1021 C1026 1.363 1_556 S
C1022 H999 0.950 . S
C1022 C1021 1.397 . S
C1022 C1023 1.334 . S
C1023 H1000 0.950 . S
C1023 C1022 1.334 . S
C1023 C1024 1.287 . S
C1024 C1023 1.287 . S
C1024 C1025 1.524 . S
C1024 H1043 0.913 . S
C1025 H1001 0.950 1_556 S
C1025 C1024 1.524 . S
C1025 C1026 1.415 1_556 S
C1026 H1002 0.950 . S
C1026 C1021 1.363 1_554 S
C1026 C1025 1.415 1_554 S
C1027 H1003 0.951 . S
C1027 C1028 1.366 1_556 S
C1027 C1029 1.388 . S
C1028 C1027 1.366 1_554 S
C1028 C1032 1.385 . S
C1029 H1004 0.951 . S
C1029 C1027 1.388 . S
C1029 C1030 1.368 . S
C1030 C1029 1.368 . S
C1030 C1031 1.412 1_556 S
C1030 C1033 1.499 . S
C1031 H1005 0.950 . S
C1031 C1030 1.412 1_554 S
C1031 C1032 1.374 . S
C1032 H1006 0.950 . S
C1032 C1028 1.385 . S
C1032 C1031 1.374 . S
C1033 C1030 1.499 . S
C1033 C1034 1.373 . S
C1033 C1035 1.389 . S
C1034 H1007 0.950 . S
C1034 C1020 1.377 . S
C1034 C1033 1.373 . S
C1035 C1019 1.377 . S
C1035 C1033 1.389 . S
C1035 C1036 1.527 . S
C1036 C1035 1.527 . S
C1036 C1037 1.384 1_556 S
C1036 C1041 1.372 . S
C1037 H1008 0.950 . S
C1037 C1036 1.384 1_554 S
C1037 C1038 1.334 . S
C1038 H1009 0.950 . S
C1038 C1037 1.334 . S
C1038 C1039 1.287 . S
C1039 C1038 1.287 . S
C1039 C1040 1.524 1_554 S
C1039 H1042 0.999 . S
C1040 H1010 0.950 . S
C1040 C1039 1.524 1_556 S
C1040 C1041 1.415 . S
C1041 H1011 0.950 . S
C1041 C1036 1.372 . S
C1041 C1040 1.415 . S
H1042 C1039 0.999 . S
H1043 C1024 0.913 . S
H1044 C1062 0.951 . S
H1045 C1064 0.951 . S
H1046 C1066 0.945 1_545 S
H1047 C1067 0.957 . S
H1048 C1069 0.950 . S
H1049 C1072 0.950 . S
H1050 C1073 0.950 . S
H1051 C1075 0.950 . S
H1052 C1076 0.950 . S
H1053 C1077 0.951 . S
H1054 C1079 0.951 . S
H1055 C1081 0.950 . S
H1056 C1082 0.950 . S
H1057 C1084 0.950 . S
H1058 C1087 0.950 . S
H1059 C1088 0.950 . S
H1060 C1090 0.950 . S
H1061 C1091 0.950 . S
C1062 H1044 0.951 . S
C1062 C1063 1.366 . S
C1062 C1064 1.388 1_565 S
C1063 C1062 1.366 . S
C1063 C1067 1.377 1_554 S
C1064 H1045 0.951 . S
C1064 C1062 1.388 1_545 S
C1064 C1065 1.366 . S
C1065 C1064 1.366 . S
C1065 C1066 1.414 1_544 S
C1065 C1068 1.499 . S
C1066 H1046 0.945 1_565 S
C1066 C1065 1.414 1_566 S
C1066 C1067 1.375 . S
C1067 H1047 0.957 . S
C1067 C1063 1.377 1_556 S
C1067 C1066 1.375 . S
C1068 C1065 1.499 . S
C1068 C1069 1.373 . S
C1068 C1070 1.389 . S
C1069 H1048 0.950 . S
C1069 C1068 1.373 . S
C1069 C1085 1.377 . S
C1070 C1068 1.389 . S
C1070 C1071 1.524 . S
C1070 C1084 1.377 . S
C1071 C1070 1.524 . S
C1071 C1072 1.397 1_554 S
C1071 C1076 1.363 . S
C1072 H1049 0.950 . S
C1072 C1071 1.397 1_556 S
C1072 C1073 1.334 . S
C1073 H1050 0.950 . S
C1073 C1072 1.334 . S
C1073 C1074 1.299 . S
C1074 C1073 1.299 . S
C1074 C1075 1.509 1_556 S
C1074 H1093 0.915 . S
C1075 H1051 0.950 . S
C1075 C1074 1.509 1_554 S
C1075 C1076 1.415 . S
C1076 H1052 0.950 . S
C1076 C1071 1.363 . S
C1076 C1075 1.415 . S
C1077 H1053 0.951 . S
C1077 C1078 1.366 . S
C1077 C1079 1.388 . S
C1078 C1077 1.366 . S
C1078 C1082 1.385 1_556 S
C1079 H1054 0.951 . S
C1079 C1077 1.388 . S
C1079 C1080 1.366 1_556 S
C1080 C1079 1.366 1_554 S
C1080 C1081 1.414 . S
C1080 C1083 1.499 . S
C1081 H1055 0.950 . S
C1081 C1080 1.414 . S
C1081 C1082 1.374 . S
C1082 H1056 0.950 . S
C1082 C1078 1.385 1_554 S
C1082 C1081 1.374 . S
C1083 C1080 1.499 . S
C1083 C1084 1.373 . S
C1083 C1085 1.389 . S
C1084 H1057 0.950 . S
C1084 C1070 1.377 . S
C1084 C1083 1.373 . S
C1085 C1069 1.377 . S
C1085 C1083 1.389 . S
C1085 C1086 1.524 . S
C1086 C1085 1.524 . S
C1086 C1087 1.397 . S
C1086 C1091 1.363 1_554 S
C1087 H1058 0.950 . S
C1087 C1086 1.397 . S
C1087 C1088 1.334 . S
C1088 H1059 0.950 . S
C1088 C1087 1.334 . S
C1088 C1089 1.287 . S
C1089 C1088 1.287 . S
C1089 C1090 1.524 1_554 S
C1089 H1092 0.999 . S
C1090 H1060 0.950 . S
C1090 C1089 1.524 1_556 S
C1090 C1091 1.415 . S
C1091 H1061 0.950 . S
C1091 C1086 1.363 1_556 S
C1091 C1090 1.415 . S
H1092 C1089 0.999 . S
H1093 C1074 0.915 . S
H1094 C1112 0.951 . S
H1095 C1114 0.951 . S
H1096 C1116 0.950 . S
H1097 C1117 0.950 . S
H1098 C1119 0.950 . S
H1099 C1122 0.950 . S
H1100 C1123 0.950 . S
H1101 C1125 0.950 . S
H1102 C1126 0.950 . S
H1103 C1127 0.973 . S
H1104 C1129 0.951 . S
H1105 C1131 0.950 . S
H1106 C1132 0.950 . S
H1107 C1134 0.950 . S
H1108 C1137 0.950 . S
H1109 C1138 0.950 . S
H1110 C1140 0.950 . S
H1111 C1141 0.950 . S
C1112 H1094 0.951 . S
C1112 C1113 1.366 1_556 S
C1112 C1114 1.388 . S
C1113 C1112 1.366 1_554 S
C1113 C1117 1.385 . S
C1114 H1095 0.951 . S
C1114 C1112 1.388 . S
C1114 C1115 1.366 . S
C1115 C1114 1.366 . S
C1115 C1116 1.414 1_556 S
C1115 C1118 1.499 . S
C1116 H1096 0.950 . S
C1116 C1115 1.414 1_554 S
C1116 C1117 1.374 . S
C1117 H1097 0.950 . S
C1117 C1113 1.385 . S
C1117 C1116 1.374 . S
C1118 C1115 1.499 . S
C1118 C1119 1.373 1_556 S
C1118 C1120 1.389 . S
C1119 H1098 0.950 . S
C1119 C1118 1.373 1_554 S
C1119 C1135 1.377 . S
C1120 C1118 1.389 . S
C1120 C1121 1.524 . S
C1120 C1134 1.377 . S
C1121 C1120 1.524 . S
C1121 C1122 1.397 . S
C1121 C1126 1.363 . S
C1122 H1099 0.950 . S
C1122 C1121 1.397 . S
C1122 C1123 1.334 . S
C1123 H1100 0.950 . S
C1123 C1122 1.334 . S
C1123 C1124 1.287 . S
C1124 C1123 1.287 . S
C1124 C1125 1.524 . S
C1124 H1143 0.913 . S
C1125 H1101 0.950 . S
C1125 C1124 1.524 . S
C1125 C1126 1.415 . S
C1126 H1102 0.950 . S
C1126 C1121 1.363 . S
C1126 C1125 1.415 . S
C1127 H1103 0.973 . S
C1127 C1128 1.340 1_554 S
C1127 C1129 1.392 1_655 S
C1128 C1127 1.340 1_556 S
C1128 C1132 1.385 . S
C1129 H1104 0.951 . S
C1129 C1127 1.392 1_455 S
C1129 C1130 1.366 1_554 S
C1130 C1129 1.366 1_556 S
C1130 C1131 1.414 . S
C1130 C1133 1.499 . S
C1131 H1105 0.950 . S
C1131 C1130 1.414 . S
C1131 C1132 1.374 1_455 S
C1132 H1106 0.950 . S
C1132 C1128 1.385 . S
C1132 C1131 1.374 1_655 S
C1133 C1130 1.499 . S
C1133 C1134 1.373 . S
C1133 C1135 1.389 1_556 S
C1134 H1107 0.950 . S
C1134 C1120 1.377 . S
C1134 C1133 1.373 . S
C1135 C1119 1.377 . S
C1135 C1133 1.389 1_554 S
C1135 C1136 1.524 . S
C1136 C1135 1.524 . S
C1136 C1137 1.397 . S
C1136 C1141 1.363 . S
C1137 H1108 0.950 . S
C1137 C1136 1.397 . S
C1137 C1138 1.334 1_455 S
C1138 H1109 0.950 . S
C1138 C1137 1.334 1_655 S
C1138 C1139 1.287 1_655 S
C1139 C1138 1.287 1_455 S
C1139 C1140 1.524 . S
C1139 H1142 0.999 1_455 S
C1140 H1110 0.950 . S
C1140 C1139 1.524 . S
C1140 C1141 1.415 . S
C1141 H1111 0.950 . S
C1141 C1136 1.363 . S
C1141 C1140 1.415 . S
H1142 C1139 0.999 1_655 S
H1143 C1124 0.913 . S
H1144 C1162 0.951 . S
H1145 C1164 0.951 . S
H1146 C1166 0.950 . S
H1147 C1167 0.950 . S
H1148 C1169 0.950 . S
H1149 C1172 0.950 . S
H1150 C1173 0.950 . S
H1151 C1175 0.950 . S
H1152 C1176 0.950 . S
H1153 C1177 0.951 . S
H1154 C1179 0.951 . S
H1155 C1181 0.950 . S
H1156 C1182 0.950 . S
H1157 C1184 0.950 . S
H1158 C1187 0.950 . S
H1159 C1188 0.950 . S
H1160 C1190 0.950 . S
H1161 C1191 0.950 . S
C1162 H1144 0.951 . S
C1162 C1163 1.366 . S
C1162 C1164 1.388 . S
C1163 C1162 1.366 . S
C1163 C1167 1.385 . S
C1164 H1145 0.951 . S
C1164 C1162 1.388 . S
C1164 C1165 1.366 . S
C1165 C1164 1.366 . S
C1165 C1166 1.414 . S
C1165 C1168 1.499 . S
C1166 H1146 0.950 . S
C1166 C1165 1.414 . S
C1166 C1167 1.374 . S
C1167 H1147 0.950 . S
C1167 C1163 1.385 . S
C1167 C1166 1.374 . S
C1168 C1165 1.499 . S
C1168 C1169 1.373 . S
C1168 C1170 1.389 . S
C1169 H1148 0.950 . S
C1169 C1168 1.373 . S
C1169 C1185 1.377 . S
C1170 C1168 1.389 . S
C1170 C1171 1.524 . S
C1170 C1184 1.377 . S
C1171 C1170 1.524 . S
C1171 C1172 1.397 . S
C1171 C1176 1.363 . S
C1172 H1149 0.950 . S
C1172 C1171 1.397 . S
C1172 C1173 1.334 . S
C1173 H1150 0.950 . S
C1173 C1172 1.334 . S
C1173 C1174 1.287 . S
C1174 C1173 1.287 . S
C1174 C1175 1.524 . S
C1174 H1193 0.913 . S
C1175 H1151 0.950 . S
C1175 C1174 1.524 . S
C1175 C1176 1.415 . S
C1176 H1152 0.950 . S
C1176 C1171 1.363 . S
C1176 C1175 1.415 . S
C1177 H1153 0.951 . S
C1177 C1178 1.366 . S
C1177 C1179 1.388 . S
C1178 C1177 1.366 . S
C1178 C1182 1.385 . S
C1179 H1154 0.951 . S
C1179 C1177 1.388 . S
C1179 C1180 1.366 . S
C1180 C1179 1.366 . S
C1180 C1181 1.414 . S
C1180 C1183 1.499 . S
C1181 H1155 0.950 . S
C1181 C1180 1.414 . S
C1181 C1182 1.374 . S
C1182 H1156 0.950 . S
C1182 C1178 1.385 . S
C1182 C1181 1.374 . S
C1183 C1180 1.499 . S
C1183 C1184 1.373 . S
C1183 C1185 1.389 . S
C1184 H1157 0.950 . S
C1184 C1170 1.377 . S
C1184 C1183 1.373 . S
C1185 C1169 1.377 . S
C1185 C1183 1.389 . S
C1185 C1186 1.524 . S
C1186 C1185 1.524 . S
C1186 C1187 1.397 . S
C1186 C1191 1.363 . S
C1187 H1158 0.950 . S
C1187 C1186 1.397 . S
C1187 C1188 1.334 . S
C1188 H1159 0.950 . S
C1188 C1187 1.334 . S
C1188 C1189 1.287 . S
C1189 C1188 1.287 . S
C1189 C1190 1.524 . S
C1189 H1192 0.999 . S
C1190 H1160 0.950 . S
C1190 C1189 1.524 . S
C1190 C1191 1.415 . S
C1191 H1161 0.950 . S
C1191 C1186 1.363 . S
C1191 C1190 1.415 . S
H1192 C1189 0.999 . S
H1193 C1174 0.913 . S
H1194 C1212 0.951 . S
H1195 C1214 0.951 . S
H1196 C1216 0.950 . S
H1197 C1217 0.950 . S
H1198 C1219 0.950 . S
H1199 C1222 0.950 . S
H1200 C1223 0.950 . S
H1201 C1225 0.950 . S
H1202 C1226 0.950 . S
H1203 C1227 0.951 . S
H1204 C1229 0.951 . S
H1205 C1231 0.950 . S
H1206 C1232 0.950 . S
H1207 C1234 0.950 . S
H1208 C1237 0.950 . S
H1209 C1238 0.950 . S
H1210 C1240 0.950 . S
H1211 C1241 0.950 . S
C1212 H1194 0.951 . S
C1212 C1213 1.366 . S
C1212 C1214 1.388 . S
C1213 C1212 1.366 . S
C1213 C1217 1.385 . S
C1214 H1195 0.951 . S
C1214 C1212 1.388 . S
C1214 C1215 1.366 . S
C1215 C1214 1.366 . S
C1215 C1216 1.414 . S
C1215 C1218 1.499 . S
C1216 H1196 0.950 . S
C1216 C1215 1.414 . S
C1216 C1217 1.374 . S
C1217 H1197 0.950 . S
C1217 C1213 1.385 . S
C1217 C1216 1.374 . S
C1218 C1215 1.499 . S
C1218 C1219 1.373 . S
C1218 C1220 1.389 . S
C1219 H1198 0.950 . S
C1219 C1218 1.373 . S
C1219 C1235 1.377 . S
C1220 C1218 1.389 . S
C1220 C1221 1.524 . S
C1220 C1234 1.377 . S
C1221 C1220 1.524 . S
C1221 C1222 1.397 . S
C1221 C1226 1.363 . S
C1222 H1199 0.950 . S
C1222 C1221 1.397 . S
C1222 C1223 1.334 . S
C1223 H1200 0.950 . S
C1223 C1222 1.334 . S
C1223 C1224 1.287 . S
C1224 C1223 1.287 . S
C1224 C1225 1.524 . S
C1224 H1243 0.913 . S
C1225 H1201 0.950 . S
C1225 C1224 1.524 . S
C1225 C1226 1.415 . S
C1226 H1202 0.950 . S
C1226 C1221 1.363 . S
C1226 C1225 1.415 . S
C1227 H1203 0.951 . S
C1227 C1228 1.366 . S
C1227 C1229 1.388 . S
C1228 C1227 1.366 . S
C1228 C1232 1.385 . S
C1229 H1204 0.951 . S
C1229 C1227 1.388 . S
C1229 C1230 1.366 . S
C1230 C1229 1.366 . S
C1230 C1231 1.414 . S
C1230 C1233 1.499 . S
C1231 H1205 0.950 . S
C1231 C1230 1.414 . S
C1231 C1232 1.374 . S
C1232 H1206 0.950 . S
C1232 C1228 1.385 . S
C1232 C1231 1.374 . S
C1233 C1230 1.499 . S
C1233 C1234 1.373 . S
C1233 C1235 1.389 . S
C1234 H1207 0.950 . S
C1234 C1220 1.377 . S
C1234 C1233 1.373 . S
C1235 C1219 1.377 . S
C1235 C1233 1.389 . S
C1235 C1236 1.524 . S
C1236 C1235 1.524 . S
C1236 C1237 1.397 . S
C1236 C1241 1.363 . S
C1237 H1208 0.950 . S
C1237 C1236 1.397 . S
C1237 C1238 1.334 . S
C1238 H1209 0.950 . S
C1238 C1237 1.334 . S
C1238 C1239 1.287 . S
C1239 C1238 1.287 . S
C1239 C1240 1.524 . S
C1239 H1242 0.999 . S
C1240 H1210 0.950 . S
C1240 C1239 1.524 . S
C1240 C1241 1.415 . S
C1241 H1211 0.950 . S
C1241 C1236 1.363 . S
C1241 C1240 1.415 . S
H1242 C1239 0.999 . S
H1243 C1224 0.913 . S
H1244 C1262 0.951 . S
H1245 C1264 0.951 . S
H1246 C1266 0.950 . S
H1247 C1267 0.950 . S
H1248 C1269 0.950 . S
H1249 C1272 0.950 . S
H1250 C1273 0.950 . S
H1251 C1275 0.950 . S
H1252 C1276 0.950 . S
H1253 C1277 0.951 . S
H1254 C1279 0.951 . S
H1255 C1281 0.950 . S
H1256 C1282 0.950 . S
H1257 C1284 0.950 . S
H1258 C1287 0.950 . S
H1259 C1288 0.950 . S
H1260 C1290 0.950 . S
H1261 C1291 0.950 . S
C1262 H1244 0.951 . S
C1262 C1263 1.366 . S
C1262 C1264 1.388 . S
C1263 C1262 1.366 . S
C1263 C1267 1.385 . S
C1264 H1245 0.951 . S
C1264 C1262 1.388 . S
C1264 C1265 1.366 . S
C1265 C1264 1.366 . S
C1265 C1266 1.414 . S
C1265 C1268 1.499 . S
C1266 H1246 0.950 . S
C1266 C1265 1.414 . S
C1266 C1267 1.374 . S
C1267 H1247 0.950 . S
C1267 C1263 1.385 . S
C1267 C1266 1.374 . S
C1268 C1265 1.499 . S
C1268 C1269 1.373 . S
C1268 C1270 1.389 . S
C1269 H1248 0.950 . S
C1269 C1268 1.373 . S
C1269 C1285 1.377 . S
C1270 C1268 1.389 . S
C1270 C1271 1.524 . S
C1270 C1284 1.377 . S
C1271 C1270 1.524 . S
C1271 C1272 1.397 . S
C1271 C1276 1.363 . S
C1272 H1249 0.950 . S
C1272 C1271 1.397 . S
C1272 C1273 1.334 . S
C1273 H1250 0.950 . S
C1273 C1272 1.334 . S
C1273 C1274 1.287 . S
C1274 C1273 1.287 . S
C1274 C1275 1.524 . S
C1274 H1293 0.913 . S
C1275 H1251 0.950 . S
C1275 C1274 1.524 . S
C1275 C1276 1.415 . S
C1276 H1252 0.950 . S
C1276 C1271 1.363 . S
C1276 C1275 1.415 . S
C1277 H1253 0.951 . S
C1277 C1278 1.366 . S
C1277 C1279 1.388 . S
C1278 C1277 1.366 . S
C1278 C1282 1.385 . S
C1279 H1254 0.951 . S
C1279 C1277 1.388 . S
C1279 C1280 1.366 . S
C1280 C1279 1.366 . S
C1280 C1281 1.414 . S
C1280 C1283 1.499 . S
C1281 H1255 0.950 . S
C1281 C1280 1.414 . S
C1281 C1282 1.374 . S
C1282 H1256 0.950 . S
C1282 C1278 1.385 . S
C1282 C1281 1.374 . S
C1283 C1280 1.499 . S
C1283 C1284 1.373 . S
C1283 C1285 1.389 . S
C1284 H1257 0.950 . S
C1284 C1270 1.377 . S
C1284 C1283 1.373 . S
C1285 C1269 1.377 . S
C1285 C1283 1.389 . S
C1285 C1286 1.524 . S
C1286 C1285 1.524 . S
C1286 C1287 1.397 . S
C1286 C1291 1.363 . S
C1287 H1258 0.950 . S
C1287 C1286 1.397 . S
C1287 C1288 1.334 . S
C1288 H1259 0.950 . S
C1288 C1287 1.334 . S
C1288 C1289 1.287 . S
C1289 C1288 1.287 . S
C1289 C1290 1.524 . S
C1289 H1292 0.999 . S
C1290 H1260 0.950 . S
C1290 C1289 1.524 . S
C1290 C1291 1.415 . S
C1291 H1261 0.950 . S
C1291 C1286 1.363 . S
C1291 C1290 1.415 . S
H1292 C1289 0.999 . S
H1293 C1274 0.913 . S
H1294 C1312 0.951 . S
H1295 C1314 0.951 . S
H1296 C1316 0.950 . S
H1297 C1317 0.950 . S
H1298 C1319 0.950 . S
H1299 C1322 0.950 . S
H1300 C1323 0.950 . S
H1301 C1325 0.950 . S
H1302 C1326 0.950 . S
H1303 C1327 0.951 . S
H1304 C1329 0.951 . S
H1305 C1331 0.950 . S
H1306 C1332 0.950 . S
H1307 C1334 0.950 . S
H1308 C1337 0.950 . S
H1309 C1338 0.950 . S
H1310 C1340 0.950 . S
H1311 C1341 0.950 . S
C1312 H1294 0.951 . S
C1312 C1313 1.366 . S
C1312 C1314 1.388 . S
C1313 C1312 1.366 . S
C1313 C1317 1.385 . S
C1314 H1295 0.951 . S
C1314 C1312 1.388 . S
C1314 C1315 1.366 . S
C1315 C1314 1.366 . S
C1315 C1316 1.414 . S
C1315 C1318 1.499 . S
C1316 H1296 0.950 . S
C1316 C1315 1.414 . S
C1316 C1317 1.374 . S
C1317 H1297 0.950 . S
C1317 C1313 1.385 . S
C1317 C1316 1.374 . S
C1318 C1315 1.499 . S
C1318 C1319 1.373 . S
C1318 C1320 1.389 . S
C1319 H1298 0.950 . S
C1319 C1318 1.373 . S
C1319 C1335 1.377 . S
C1320 C1318 1.389 . S
C1320 C1321 1.524 . S
C1320 C1334 1.377 . S
C1321 C1320 1.524 . S
C1321 C1322 1.397 . S
C1321 C1326 1.363 . S
C1322 H1299 0.950 . S
C1322 C1321 1.397 . S
C1322 C1323 1.334 . S
C1323 H1300 0.950 . S
C1323 C1322 1.334 . S
C1323 C1324 1.287 . S
C1324 C1323 1.287 . S
C1324 C1325 1.524 . S
C1324 H1343 0.913 . S
C1325 H1301 0.950 . S
C1325 C1324 1.524 . S
C1325 C1326 1.415 . S
C1326 H1302 0.950 . S
C1326 C1321 1.363 . S
C1326 C1325 1.415 . S
C1327 H1303 0.951 . S
C1327 C1328 1.366 . S
C1327 C1329 1.388 . S
C1328 C1327 1.366 . S
C1328 C1332 1.385 . S
C1329 H1304 0.951 . S
C1329 C1327 1.388 . S
C1329 C1330 1.366 . S
C1330 C1329 1.366 . S
C1330 C1331 1.414 . S
C1330 C1333 1.499 . S
C1331 H1305 0.950 . S
C1331 C1330 1.414 . S
C1331 C1332 1.374 . S
C1332 H1306 0.950 . S
C1332 C1328 1.385 . S
C1332 C1331 1.374 . S
C1333 C1330 1.499 . S
C1333 C1334 1.373 . S
C1333 C1335 1.389 . S
C1334 H1307 0.950 . S
C1334 C1320 1.377 . S
C1334 C1333 1.373 . S
C1335 C1319 1.377 . S
C1335 C1333 1.389 . S
C1335 C1336 1.524 . S
C1336 C1335 1.524 . S
C1336 C1337 1.397 . S
C1336 C1341 1.363 . S
C1337 H1308 0.950 . S
C1337 C1336 1.397 . S
C1337 C1338 1.334 . S
C1338 H1309 0.950 . S
C1338 C1337 1.334 . S
C1338 C1339 1.287 . S
C1339 C1338 1.287 . S
C1339 C1340 1.524 . S
C1339 H1342 0.999 . S
C1340 H1310 0.950 . S
C1340 C1339 1.524 . S
C1340 C1341 1.415 . S
C1341 H1311 0.950 . S
C1341 C1336 1.363 . S
C1341 C1340 1.415 . S
H1342 C1339 0.999 . S
H1343 C1324 0.913 . S
H1344 C1362 0.951 . S
H1345 C1364 0.951 . S
H1346 C1366 0.950 . S
H1347 C1367 0.950 . S
H1348 C1369 0.950 . S
H1349 C1372 0.950 . S
H1350 C1373 0.950 . S
H1351 C1375 0.950 . S
H1352 C1376 0.950 . S
H1353 C1377 0.951 . S
H1354 C1379 0.951 . S
H1355 C1381 0.950 . S
H1356 C1382 0.950 . S
H1357 C1384 0.950 . S
H1358 C1387 0.950 . S
H1359 C1388 0.950 . S
H1360 C1390 0.950 . S
H1361 C1391 0.950 . S
C1362 H1344 0.951 . S
C1362 C1363 1.366 . S
C1362 C1364 1.388 . S
C1363 C1362 1.366 . S
C1363 C1367 1.385 . S
C1364 H1345 0.951 . S
C1364 C1362 1.388 . S
C1364 C1365 1.366 . S
C1365 C1364 1.366 . S
C1365 C1366 1.414 . S
C1365 C1368 1.499 . S
C1366 H1346 0.950 . S
C1366 C1365 1.414 . S
C1366 C1367 1.374 . S
C1367 H1347 0.950 . S
C1367 C1363 1.385 . S
C1367 C1366 1.374 . S
C1368 C1365 1.499 . S
C1368 C1369 1.373 . S
C1368 C1370 1.389 . S
C1369 H1348 0.950 . S
C1369 C1368 1.373 . S
C1369 C1385 1.377 . S
C1370 C1368 1.389 . S
C1370 C1371 1.524 . S
C1370 C1384 1.377 . S
C1371 C1370 1.524 . S
C1371 C1372 1.397 . S
C1371 C1376 1.363 . S
C1372 H1349 0.950 . S
C1372 C1371 1.397 . S
C1372 C1373 1.334 . S
C1373 H1350 0.950 . S
C1373 C1372 1.334 . S
C1373 C1374 1.287 . S
C1374 C1373 1.287 . S
C1374 C1375 1.524 . S
C1374 H1393 0.913 . S
C1375 H1351 0.950 . S
C1375 C1374 1.524 . S
C1375 C1376 1.415 . S
C1376 H1352 0.950 . S
C1376 C1371 1.363 . S
C1376 C1375 1.415 . S
C1377 H1353 0.951 . S
C1377 C1378 1.366 . S
C1377 C1379 1.388 . S
C1378 C1377 1.366 . S
C1378 C1382 1.385 . S
C1379 H1354 0.951 . S
C1379 C1377 1.388 . S
C1379 C1380 1.366 . S
C1380 C1379 1.366 . S
C1380 C1381 1.414 . S
C1380 C1383 1.499 . S
C1381 H1355 0.950 . S
C1381 C1380 1.414 . S
C1381 C1382 1.374 . S
C1382 H1356 0.950 . S
C1382 C1378 1.385 . S
C1382 C1381 1.374 . S
C1383 C1380 1.499 . S
C1383 C1384 1.373 . S
C1383 C1385 1.389 . S
C1384 H1357 0.950 . S
C1384 C1370 1.377 . S
C1384 C1383 1.373 . S
C1385 C1369 1.377 . S
C1385 C1383 1.389 . S
C1385 C1386 1.524 . S
C1386 C1385 1.524 . S
C1386 C1387 1.397 . S
C1386 C1391 1.363 . S
C1387 H1358 0.950 . S
C1387 C1386 1.397 . S
C1387 C1388 1.334 . S
C1388 H1359 0.950 . S
C1388 C1387 1.334 . S
C1388 C1389 1.287 . S
C1389 C1388 1.287 . S
C1389 C1390 1.524 . S
C1389 H1392 0.999 . S
C1390 H1360 0.950 . S
C1390 C1389 1.524 . S
C1390 C1391 1.415 . S
C1391 H1361 0.950 . S
C1391 C1386 1.363 . S
C1391 C1390 1.415 . S
H1392 C1389 0.999 . S
H1393 C1374 0.913 . S
H1394 C1412 0.951 . S
H1395 C1414 0.951 . S
H1396 C1416 0.950 . S
H1397 C1417 0.950 . S
H1398 C1419 0.950 . S
H1399 C1422 0.950 . S
H1400 C1423 0.950 . S
H1401 C1425 0.950 . S
H1402 C1426 0.950 . S
H1403 C1427 0.951 . S
H1404 C1429 0.951 . S
H1405 C1431 0.950 . S
H1406 C1432 0.950 . S
H1407 C1434 0.950 . S
H1408 C1437 0.950 . S
H1409 C1438 0.950 . S
H1410 C1440 0.950 . S
H1411 C1441 0.950 . S
C1412 H1394 0.951 . S
C1412 C1413 1.366 . S
C1412 C1414 1.388 . S
C1413 C1412 1.366 . S
C1413 C1417 1.385 . S
C1414 H1395 0.951 . S
C1414 C1412 1.388 . S
C1414 C1415 1.366 . S
C1415 C1414 1.366 . S
C1415 C1416 1.414 . S
C1415 C1418 1.499 . S
C1416 H1396 0.950 . S
C1416 C1415 1.414 . S
C1416 C1417 1.374 . S
C1417 H1397 0.950 . S
C1417 C1413 1.385 . S
C1417 C1416 1.374 . S
C1418 C1415 1.499 . S
C1418 C1419 1.373 . S
C1418 C1420 1.389 . S
C1419 H1398 0.950 . S
C1419 C1418 1.373 . S
C1419 C1435 1.377 . S
C1420 C1418 1.389 . S
C1420 C1421 1.524 . S
C1420 C1434 1.377 . S
C1421 C1420 1.524 . S
C1421 C1422 1.397 . S
C1421 C1426 1.363 . S
C1422 H1399 0.950 . S
C1422 C1421 1.397 . S
C1422 C1423 1.334 . S
C1423 H1400 0.950 . S
C1423 C1422 1.334 . S
C1423 C1424 1.287 . S
C1424 C1423 1.287 . S
C1424 C1425 1.524 . S
C1424 H1443 0.913 . S
C1425 H1401 0.950 . S
C1425 C1424 1.524 . S
C1425 C1426 1.415 . S
C1426 H1402 0.950 . S
C1426 C1421 1.363 . S
C1426 C1425 1.415 . S
C1427 H1403 0.951 . S
C1427 C1428 1.366 . S
C1427 C1429 1.388 . S
C1428 C1427 1.366 . S
C1428 C1432 1.385 . S
C1429 H1404 0.951 . S
C1429 C1427 1.388 . S
C1429 C1430 1.366 . S
C1430 C1429 1.366 . S
C1430 C1431 1.414 . S
C1430 C1433 1.499 . S
C1431 H1405 0.950 . S
C1431 C1430 1.414 . S
C1431 C1432 1.374 . S
C1432 H1406 0.950 . S
C1432 C1428 1.385 . S
C1432 C1431 1.374 . S
C1433 C1430 1.499 . S
C1433 C1434 1.373 . S
C1433 C1435 1.389 . S
C1434 H1407 0.950 . S
C1434 C1420 1.377 . S
C1434 C1433 1.373 . S
C1435 C1419 1.377 . S
C1435 C1433 1.389 . S
C1435 C1436 1.524 . S
C1436 C1435 1.524 . S
C1436 C1437 1.397 . S
C1436 C1441 1.363 . S
C1437 H1408 0.950 . S
C1437 C1436 1.397 . S
C1437 C1438 1.334 . S
C1438 H1409 0.950 . S
C1438 C1437 1.334 . S
C1438 C1439 1.287 . S
C1439 C1438 1.287 . S
C1439 C1440 1.524 . S
C1439 H1442 0.999 . S
C1440 H1410 0.950 . S
C1440 C1439 1.524 . S
C1440 C1441 1.415 . S
C1441 H1411 0.950 . S
C1441 C1436 1.363 . S
C1441 C1440 1.415 . S
H1442 C1439 0.999 . S
H1443 C1424 0.913 . S
H1444 C1462 0.951 . S
H1445 C1464 0.951 . S
H1446 C1466 0.950 . S
H1447 C1467 0.950 . S
H1448 C1469 0.950 . S
H1449 C1472 0.950 . S
H1450 C1473 0.950 . S
H1451 C1475 0.950 . S
H1452 C1476 0.950 . S
H1453 C1477 0.951 . S
H1454 C1479 0.951 . S
H1455 C1481 0.950 . S
H1456 C1482 0.950 . S
H1457 C1484 0.950 . S
H1458 C1487 0.950 . S
H1459 C1488 0.950 . S
H1460 C1490 0.950 . S
H1461 C1491 0.950 . S
C1462 H1444 0.951 . S
C1462 C1463 1.366 . S
C1462 C1464 1.388 . S
C1463 C1462 1.366 . S
C1463 C1467 1.385 . S
C1464 H1445 0.951 . S
C1464 C1462 1.388 . S
C1464 C1465 1.366 . S
C1465 C1464 1.366 . S
C1465 C1466 1.414 . S
C1465 C1468 1.499 . S
C1466 H1446 0.950 . S
C1466 C1465 1.414 . S
C1466 C1467 1.374 . S
C1467 H1447 0.950 . S
C1467 C1463 1.385 . S
C1467 C1466 1.374 . S
C1468 C1465 1.499 . S
C1468 C1469 1.373 . S
C1468 C1470 1.389 . S
C1469 H1448 0.950 . S
C1469 C1468 1.373 . S
C1469 C1485 1.377 . S
C1470 C1468 1.389 . S
C1470 C1471 1.524 . S
C1470 C1484 1.377 . S
C1471 C1470 1.524 . S
C1471 C1472 1.397 . S
C1471 C1476 1.363 . S
C1472 H1449 0.950 . S
C1472 C1471 1.397 . S
C1472 C1473 1.334 . S
C1473 H1450 0.950 . S
C1473 C1472 1.334 . S
C1473 C1474 1.287 . S
C1474 C1473 1.287 . S
C1474 C1475 1.524 . S
C1474 H1493 0.913 . S
C1475 H1451 0.950 . S
C1475 C1474 1.524 . S
C1475 C1476 1.415 . S
C1476 H1452 0.950 . S
C1476 C1471 1.363 . S
C1476 C1475 1.415 . S
C1477 H1453 0.951 . S
C1477 C1478 1.366 . S
C1477 C1479 1.388 . S
C1478 C1477 1.366 . S
C1478 C1482 1.385 . S
C1479 H1454 0.951 . S
C1479 C1477 1.388 . S
C1479 C1480 1.366 . S
C1480 C1479 1.366 . S
C1480 C1481 1.414 . S
C1480 C1483 1.499 . S
C1481 H1455 0.950 . S
C1481 C1480 1.414 . S
C1481 C1482 1.374 . S
C1482 H1456 0.950 . S
C1482 C1478 1.385 . S
C1482 C1481 1.374 . S
C1483 C1480 1.499 . S
C1483 C1484 1.373 . S
C1483 C1485 1.389 . S
C1484 H1457 0.950 . S
C1484 C1470 1.377 . S
C1484 C1483 1.373 . S
C1485 C1469 1.377 . S
C1485 C1483 1.389 . S
C1485 C1486 1.524 . S
C1486 C1485 1.524 . S
C1486 C1487 1.397 . S
C1486 C1491 1.363 . S
C1487 H1458 0.950 . S
C1487 C1486 1.397 . S
C1487 C1488 1.334 . S
C1488 H1459 0.950 . S
C1488 C1487 1.334 . S
C1488 C1489 1.287 . S
C1489 C1488 1.287 . S
C1489 C1490 1.524 . S
C1489 H1492 0.999 . S
C1490 H1460 0.950 . S
C1490 C1489 1.524 . S
C1490 C1491 1.415 . S
C1491 H1461 0.950 . S
C1491 C1486 1.363 . S
C1491 C1490 1.415 . S
H1492 C1489 0.999 . S
H1493 C1474 0.913 . S
H1494 C1512 0.951 . S
H1495 C1514 0.951 . S
H1496 C1516 0.950 . S
H1497 C1517 0.950 . S
H1498 C1519 0.950 . S
H1499 C1522 0.950 . S
H1500 C1523 0.950 . S
H1501 C1525 0.950 . S
H1502 C1526 0.950 . S
H1503 C1527 0.951 . S
H1504 C1529 0.951 . S
H1505 C1531 0.950 . S
H1506 C1532 0.950 . S
H1507 C1534 0.950 . S
H1508 C1537 0.950 . S
H1509 C1538 0.950 . S
H1510 C1540 0.950 . S
H1511 C1541 0.950 . S
C1512 H1494 0.951 . S
C1512 C1513 1.366 . S
C1512 C1514 1.388 . S
C1513 C1512 1.366 . S
C1513 C1517 1.385 . S
C1514 H1495 0.951 . S
C1514 C1512 1.388 . S
C1514 C1515 1.366 . S
C1515 C1514 1.366 . S
C1515 C1516 1.414 . S
C1515 C1518 1.499 . S
C1516 H1496 0.950 . S
C1516 C1515 1.414 . S
C1516 C1517 1.374 . S
C1517 H1497 0.950 . S
C1517 C1513 1.385 . S
C1517 C1516 1.374 . S
C1518 C1515 1.499 . S
C1518 C1519 1.373 . S
C1518 C1520 1.389 . S
C1519 H1498 0.950 . S
C1519 C1518 1.373 . S
C1519 C1535 1.377 . S
C1520 C1518 1.389 . S
C1520 C1521 1.524 . S
C1520 C1534 1.377 . S
C1521 C1520 1.524 . S
C1521 C1522 1.397 . S
C1521 C1526 1.363 . S
C1522 H1499 0.950 . S
C1522 C1521 1.397 . S
C1522 C1523 1.334 . S
C1523 H1500 0.950 . S
C1523 C1522 1.334 . S
C1523 C1524 1.287 . S
C1524 C1523 1.287 . S
C1524 C1525 1.524 . S
C1524 H1543 0.913 . S
C1525 H1501 0.950 . S
C1525 C1524 1.524 . S
C1525 C1526 1.415 . S
C1526 H1502 0.950 . S
C1526 C1521 1.363 . S
C1526 C1525 1.415 . S
C1527 H1503 0.951 . S
C1527 C1528 1.366 . S
C1527 C1529 1.388 . S
C1528 C1527 1.366 . S
C1528 C1532 1.385 . S
C1529 H1504 0.951 . S
C1529 C1527 1.388 . S
C1529 C1530 1.366 . S
C1530 C1529 1.366 . S
C1530 C1531 1.414 . S
C1530 C1533 1.499 . S
C1531 H1505 0.950 . S
C1531 C1530 1.414 . S
C1531 C1532 1.374 . S
C1532 H1506 0.950 . S
C1532 C1528 1.385 . S
C1532 C1531 1.374 . S
C1533 C1530 1.499 . S
C1533 C1534 1.373 . S
C1533 C1535 1.389 . S
C1534 H1507 0.950 . S
C1534 C1520 1.377 . S
C1534 C1533 1.373 . S
C1535 C1519 1.377 . S
C1535 C1533 1.389 . S
C1535 C1536 1.524 . S
C1536 C1535 1.524 . S
C1536 C1537 1.397 . S
C1536 C1541 1.363 . S
C1537 H1508 0.950 . S
C1537 C1536 1.397 . S
C1537 C1538 1.334 . S
C1538 H1509 0.950 . S
C1538 C1537 1.334 . S
C1538 C1539 1.287 . S
C1539 C1538 1.287 . S
C1539 C1540 1.524 . S
C1539 H1542 0.999 . S
C1540 H1510 0.950 . S
C1540 C1539 1.524 . S
C1540 C1541 1.415 . S
C1541 H1511 0.950 . S
C1541 C1536 1.363 . S
C1541 C1540 1.415 . S
H1542 C1539 0.999 . S
H1543 C1524 0.913 . S
H1544 C1562 0.951 . S
H1545 C1564 0.950 1_545 S
H1546 C1566 0.950 . S
H1547 C1567 0.950 . S
H1548 C1569 0.950 . S
H1549 C1572 0.950 . S
H1550 C1573 0.950 . S
H1551 C1575 0.950 . S
H1552 C1576 0.950 . S
H1553 C1577 0.951 . S
H1554 C1579 0.951 . S
H1555 C1581 0.950 . S
H1556 C1582 0.950 . S
H1557 C1584 0.950 . S
H1558 C1587 0.950 . S
H1559 C1588 0.950 . S
H1560 C1590 0.950 . S
H1561 C1591 0.950 . S
C1562 H1544 0.951 . S
C1562 C1563 1.366 . S
C1562 C1564 1.388 . S
C1563 C1562 1.366 . S
C1563 C1567 1.385 . S
C1564 H1545 0.950 1_565 S
C1564 C1562 1.388 . S
C1564 C1565 1.366 1_565 S
C1565 C1564 1.366 1_545 S
C1565 C1566 1.414 . S
C1565 C1568 1.499 . S
C1566 H1546 0.950 . S
C1566 C1565 1.414 . S
C1566 C1567 1.374 1_545 S
C1567 H1547 0.950 . S
C1567 C1563 1.385 . S
C1567 C1566 1.374 1_565 S
C1568 C1565 1.499 . S
C1568 C1569 1.373 . S
C1568 C1570 1.389 . S
C1569 H1548 0.950 . S
C1569 C1568 1.373 . S
C1569 C1585 1.377 . S
C1570 C1568 1.389 . S
C1570 C1571 1.524 . S
C1570 C1584 1.377 . S
C1571 C1570 1.524 . S
C1571 C1572 1.397 . S
C1571 C1576 1.363 . S
C1572 H1549 0.950 . S
C1572 C1571 1.397 . S
C1572 C1573 1.334 1_545 S
C1573 H1550 0.950 . S
C1573 C1572 1.334 1_565 S
C1573 C1574 1.287 . S
C1574 C1573 1.287 . S
C1574 C1575 1.524 1_565 S
C1574 H1593 0.913 . S
C1575 H1551 0.950 . S
C1575 C1574 1.524 1_545 S
C1575 C1576 1.415 . S
C1576 H1552 0.950 . S
C1576 C1571 1.363 . S
C1576 C1575 1.415 . S
C1577 H1553 0.951 . S
C1577 C1578 1.366 . S
C1577 C1579 1.388 . S
C1578 C1577 1.366 . S
C1578 C1582 1.385 . S
C1579 H1554 0.951 . S
C1579 C1577 1.388 . S
C1579 C1580 1.366 . S
C1580 C1579 1.366 . S
C1580 C1581 1.414 . S
C1580 C1583 1.499 . S
C1581 H1555 0.950 . S
C1581 C1580 1.414 . S
C1581 C1582 1.374 . S
C1582 H1556 0.950 . S
C1582 C1578 1.385 . S
C1582 C1581 1.374 . S
C1583 C1580 1.499 . S
C1583 C1584 1.373 . S
C1583 C1585 1.389 . S
C1584 H1557 0.950 . S
C1584 C1570 1.377 . S
C1584 C1583 1.373 . S
C1585 C1569 1.377 . S
C1585 C1583 1.389 . S
C1585 C1586 1.524 . S
C1586 C1585 1.524 . S
C1586 C1587 1.397 . S
C1586 C1591 1.363 . S
C1587 H1558 0.950 . S
C1587 C1586 1.397 . S
C1587 C1588 1.334 . S
C1588 H1559 0.950 . S
C1588 C1587 1.334 . S
C1588 C1589 1.287 . S
C1589 C1588 1.287 . S
C1589 C1590 1.524 . S
C1589 H1592 0.999 . S
C1590 H1560 0.950 . S
C1590 C1589 1.524 . S
C1590 C1591 1.415 . S
C1591 H1561 0.950 . S
C1591 C1586 1.363 . S
C1591 C1590 1.415 . S
H1592 C1589 0.999 . S
H1593 C1574 0.913 . S
H1594 C1612 0.951 . S
H1595 C1614 0.951 . S
H1596 C1616 0.950 . S
H1597 C1617 0.950 . S
H1598 C1619 0.950 . S
H1599 C1622 0.950 . S
H1600 C1623 0.950 . S
H1601 C1625 0.950 . S
H1602 C1626 0.950 . S
H1603 C1627 0.951 . S
H1604 C1629 0.956 . S
H1605 C1631 0.950 . S
H1606 C1632 0.950 . S
H1607 C1634 0.950 . S
H1608 C1637 0.950 . S
H1609 C1638 0.950 1_655 S
H1610 C1640 0.950 . S
H1611 C1641 0.950 . S
C1612 H1594 0.951 . S
C1612 C1613 1.366 . S
C1612 C1614 1.388 . S
C1613 C1612 1.366 . S
C1613 C1617 1.385 . S
C1614 H1595 0.951 . S
C1614 C1612 1.388 . S
C1614 C1615 1.366 . S
C1615 C1614 1.366 . S
C1615 C1616 1.414 . S
C1615 C1618 1.499 . S
C1616 H1596 0.950 . S
C1616 C1615 1.414 . S
C1616 C1617 1.374 . S
C1617 H1597 0.950 . S
C1617 C1613 1.385 . S
C1617 C1616 1.374 . S
C1618 C1615 1.499 . S
C1618 C1619 1.373 . S
C1618 C1620 1.389 . S
C1619 H1598 0.950 . S
C1619 C1618 1.373 . S
C1619 C1635 1.377 . S
C1620 C1618 1.389 . S
C1620 C1621 1.524 . S
C1620 C1634 1.377 . S
C1621 C1620 1.524 . S
C1621 C1622 1.397 . S
C1621 C1626 1.363 . S
C1622 H1599 0.950 . S
C1622 C1621 1.397 . S
C1622 C1623 1.334 . S
C1623 H1600 0.950 . S
C1623 C1622 1.334 . S
C1623 C1624 1.287 . S
C1624 C1623 1.287 . S
C1624 C1625 1.524 . S
C1624 H1643 0.913 . S
C1625 H1601 0.950 . S
C1625 C1624 1.524 . S
C1625 C1626 1.415 . S
C1626 H1602 0.950 . S
C1626 C1621 1.363 . S
C1626 C1625 1.415 . S
C1627 H1603 0.951 . S
C1627 C1628 1.366 . S
C1627 C1629 1.388 . S
C1628 C1627 1.366 . S
C1628 C1632 1.385 . S
C1629 H1604 0.956 . S
C1629 C1627 1.388 . S
C1629 C1630 1.366 1_655 S
C1630 C1629 1.366 1_455 S
C1630 C1631 1.414 . S
C1630 C1633 1.499 . S
C1631 H1605 0.950 . S
C1631 C1630 1.414 . S
C1631 C1632 1.374 1_455 S
C1632 H1606 0.950 . S
C1632 C1628 1.385 . S
C1632 C1631 1.374 1_655 S
C1633 C1630 1.499 . S
C1633 C1634 1.373 . S
C1633 C1635 1.389 . S
C1634 H1607 0.950 . S
C1634 C1620 1.377 . S
C1634 C1633 1.373 . S
C1635 C1619 1.377 . S
C1635 C1633 1.389 . S
C1635 C1636 1.524 . S
C1636 C1635 1.524 . S
C1636 C1637 1.397 . S
C1636 C1641 1.363 . S
C1637 H1608 0.950 . S
C1637 C1636 1.397 . S
C1637 C1638 1.334 . S
C1638 H1609 0.950 1_455 S
C1638 C1637 1.334 . S
C1638 C1639 1.287 1_455 S
C1639 C1638 1.287 1_655 S
C1639 C1640 1.524 1_655 S
C1639 H1642 0.999 . S
C1640 H1610 0.950 . S
C1640 C1639 1.524 1_455 S
C1640 C1641 1.415 . S
C1641 H1611 0.950 . S
C1641 C1636 1.363 . S
C1641 C1640 1.415 . S
H1642 C1639 0.999 . S
H1643 C1624 0.913 . S
H1644 C1662 0.951 . S
H1645 C1664 0.951 . S
H1646 C1666 0.950 . S
H1647 C1667 0.950 . S
H1648 C1669 0.950 . S
H1649 C1672 0.950 . S
H1650 C1673 0.950 . S
H1651 C1675 0.950 . S
H1652 C1676 0.950 . S
H1653 C1677 0.951 . S
H1654 C1679 0.952 . S
H1655 C1681 0.950 . S
H1656 C1682 0.950 . S
H1657 C1684 0.950 . S
H1658 C1687 0.950 . S
H1659 C1688 0.950 . S
H1660 C1690 0.950 . S
H1661 C1691 0.950 . S
C1662 H1644 0.951 . S
C1662 C1663 1.366 . S
C1662 C1664 1.388 . S
C1663 C1662 1.366 . S
C1663 C1667 1.385 . S
C1664 H1645 0.951 . S
C1664 C1662 1.388 . S
C1664 C1665 1.366 . S
C1665 C1664 1.366 . S
C1665 C1666 1.414 . S
C1665 C1668 1.499 . S
C1666 H1646 0.950 . S
C1666 C1665 1.414 . S
C1666 C1667 1.374 . S
C1667 H1647 0.950 . S
C1667 C1663 1.385 . S
C1667 C1666 1.374 . S
C1668 C1665 1.499 . S
C1668 C1669 1.373 . S
C1668 C1670 1.389 . S
C1669 H1648 0.950 . S
C1669 C1668 1.373 . S
C1669 C1685 1.377 . S
C1670 C1668 1.389 . S
C1670 C1671 1.524 . S
C1670 C1684 1.377 . S
C1671 C1670 1.524 . S
C1671 C1672 1.397 . S
C1671 C1676 1.363 . S
C1672 H1649 0.950 . S
C1672 C1671 1.397 . S
C1672 C1673 1.334 . S
C1673 H1650 0.950 . S
C1673 C1672 1.334 . S
C1673 C1674 1.287 . S
C1674 C1673 1.287 . S
C1674 C1675 1.524 . S
C1674 H1693 0.913 . S
C1675 H1651 0.950 . S
C1675 C1674 1.524 . S
C1675 C1676 1.415 . S
C1676 H1652 0.950 . S
C1676 C1671 1.363 . S
C1676 C1675 1.415 . S
C1677 H1653 0.951 . S
C1677 C1678 1.366 . S
C1677 C1679 1.384 1_545 S
C1678 C1677 1.366 . S
C1678 C1682 1.385 . S
C1679 H1654 0.952 . S
C1679 C1677 1.384 1_565 S
C1679 C1680 1.368 . S
C1680 C1679 1.368 . S
C1680 C1681 1.414 . S
C1680 C1683 1.499 . S
C1681 H1655 0.950 . S
C1681 C1680 1.414 . S
C1681 C1682 1.374 1_565 S
C1682 H1656 0.950 . S
C1682 C1678 1.385 . S
C1682 C1681 1.374 1_545 S
C1683 C1680 1.499 . S
C1683 C1684 1.373 . S
C1683 C1685 1.389 . S
C1684 H1657 0.950 . S
C1684 C1670 1.377 . S
C1684 C1683 1.373 . S
C1685 C1669 1.377 . S
C1685 C1683 1.389 . S
C1685 C1686 1.524 . S
C1686 C1685 1.524 . S
C1686 C1687 1.397 . S
C1686 C1691 1.363 . S
C1687 H1658 0.950 . S
C1687 C1686 1.397 . S
C1687 C1688 1.334 . S
C1688 H1659 0.950 . S
C1688 C1687 1.334 . S
C1688 C1689 1.287 . S
C1689 C1688 1.287 . S
C1689 C1690 1.524 . S
C1689 H1692 0.999 . S
C1690 H1660 0.950 . S
C1690 C1689 1.524 . S
C1690 C1691 1.415 . S
C1691 H1661 0.950 . S
C1691 C1686 1.363 . S
C1691 C1690 1.415 . S
H1692 C1689 0.999 . S
H1693 C1674 0.913 . S
H1694 C1712 0.951 . S
H1695 C1714 0.951 . S
H1696 C1716 0.950 . S
H1697 C1717 0.950 . S
H1698 C1719 0.950 . S
H1699 C1722 0.950 . S
H1700 C1723 0.950 . S
H1701 C1725 0.950 . S
H1702 C1726 0.950 . S
H1703 C1727 0.951 . S
H1704 C1729 0.951 . S
H1705 C1731 0.950 . S
H1706 C1732 0.950 . S
H1707 C1734 0.950 . S
H1708 C1737 0.950 . S
H1709 C1738 0.950 . S
H1710 C1740 0.950 . S
H1711 C1741 0.950 . S
C1712 H1694 0.951 . S
C1712 C1713 1.366 . S
C1712 C1714 1.388 1_455 S
C1713 C1712 1.366 . S
C1713 C1717 1.385 . S
C1714 H1695 0.951 . S
C1714 C1712 1.388 1_655 S
C1714 C1715 1.366 . S
C1715 C1714 1.366 . S
C1715 C1716 1.414 1_655 S
C1715 C1718 1.499 . S
C1716 H1696 0.950 . S
C1716 C1715 1.414 1_455 S
C1716 C1717 1.374 . S
C1717 H1697 0.950 . S
C1717 C1713 1.385 . S
C1717 C1716 1.374 . S
C1718 C1715 1.499 . S
C1718 C1719 1.373 . S
C1718 C1720 1.389 . S
C1719 H1698 0.950 . S
C1719 C1718 1.373 . S
C1719 C1735 1.377 . S
C1720 C1718 1.389 . S
C1720 C1721 1.524 . S
C1720 C1734 1.377 . S
C1721 C1720 1.524 . S
C1721 C1722 1.397 . S
C1721 C1726 1.363 . S
C1722 H1699 0.950 . S
C1722 C1721 1.397 . S
C1722 C1723 1.334 . S
C1723 H1700 0.950 . S
C1723 C1722 1.334 . S
C1723 C1724 1.287 . S
C1724 C1723 1.287 . S
C1724 C1725 1.524 . S
C1724 H1743 0.913 . S
C1725 H1701 0.950 . S
C1725 C1724 1.524 . S
C1725 C1726 1.415 . S
C1726 H1702 0.950 . S
C1726 C1721 1.363 . S
C1726 C1725 1.415 . S
C1727 H1703 0.951 . S
C1727 C1728 1.366 . S
C1727 C1729 1.388 . S
C1728 C1727 1.366 . S
C1728 C1732 1.385 . S
C1729 H1704 0.951 . S
C1729 C1727 1.388 . S
C1729 C1730 1.366 . S
C1730 C1729 1.366 . S
C1730 C1731 1.414 . S
C1730 C1733 1.499 . S
C1731 H1705 0.950 . S
C1731 C1730 1.414 . S
C1731 C1732 1.374 . S
C1732 H1706 0.950 . S
C1732 C1728 1.385 . S
C1732 C1731 1.374 . S
C1733 C1730 1.499 . S
C1733 C1734 1.373 . S
C1733 C1735 1.389 . S
C1734 H1707 0.950 . S
C1734 C1720 1.377 . S
C1734 C1733 1.373 . S
C1735 C1719 1.377 . S
C1735 C1733 1.389 . S
C1735 C1736 1.524 . S
C1736 C1735 1.524 . S
C1736 C1737 1.397 . S
C1736 C1741 1.363 . S
C1737 H1708 0.950 . S
C1737 C1736 1.397 . S
C1737 C1738 1.334 . S
C1738 H1709 0.950 . S
C1738 C1737 1.334 . S
C1738 C1739 1.287 . S
C1739 C1738 1.287 . S
C1739 C1740 1.524 . S
C1739 H1742 0.999 . S
C1740 H1710 0.950 . S
C1740 C1739 1.524 . S
C1740 C1741 1.415 . S
C1741 H1711 0.950 . S
C1741 C1736 1.363 . S
C1741 C1740 1.415 . S
H1742 C1739 0.999 . S
H1743 C1724 0.913 . S
H1744 C1762 0.951 . S
H1745 C1764 0.951 . S
H1746 C1766 0.950 . S
H1747 C1767 0.950 . S
H1748 C1769 0.950 1_556 S
H1749 C1772 0.950 . S
H1750 C1773 0.950 . S
H1751 C1775 0.950 . S
H1752 C1776 0.950 . S
H1753 C1777 0.951 . S
H1754 C1779 0.951 . S
H1755 C1781 0.950 . S
H1756 C1782 0.950 . S
H1757 C1784 0.950 . S
H1758 C1787 0.950 . S
H1759 C1788 0.950 . S
H1760 C1790 0.950 . S
H1761 C1791 0.950 . S
C1762 H1744 0.951 . S
C1762 C1763 1.366 . S
C1762 C1764 1.388 . S
C1763 C1762 1.366 . S
C1763 C1767 1.385 1_554 S
C1764 H1745 0.951 . S
C1764 C1762 1.388 . S
C1764 C1765 1.366 . S
C1765 C1764 1.366 . S
C1765 C1766 1.414 1_554 S
C1765 C1768 1.499 . S
C1766 H1746 0.950 . S
C1766 C1765 1.414 1_556 S
C1766 C1767 1.374 . S
C1767 H1747 0.950 . S
C1767 C1763 1.385 1_556 S
C1767 C1766 1.374 . S
C1768 C1765 1.499 . S
C1768 C1769 1.373 1_545 S
C1768 C1770 1.389 . S
C1769 H1748 0.950 1_554 S
C1769 C1768 1.373 1_565 S
C1769 C1785 1.377 . S
C1770 C1768 1.389 . S
C1770 C1771 1.524 . S
C1770 C1784 1.377 . S
C1771 C1770 1.524 . S
C1771 C1772 1.397 . S
C1771 C1776 1.363 . S
C1772 H1749 0.950 . S
C1772 C1771 1.397 . S
C1772 C1773 1.334 . S
C1773 H1750 0.950 . S
C1773 C1772 1.334 . S
C1773 C1774 1.287 . S
C1774 C1773 1.287 . S
C1774 C1775 1.524 . S
C1774 H1793 0.913 . S
C1775 H1751 0.950 . S
C1775 C1774 1.524 . S
C1775 C1776 1.415 . S
C1776 H1752 0.950 . S
C1776 C1771 1.363 . S
C1776 C1775 1.415 . S
C1777 H1753 0.951 . S
C1777 C1778 1.366 1_556 S
C1777 C1779 1.388 . S
C1778 C1777 1.366 1_554 S
C1778 C1782 1.385 . S
C1779 H1754 0.951 . S
C1779 C1777 1.388 . S
C1779 C1780 1.366 1_556 S
C1780 C1779 1.366 1_554 S
C1780 C1781 1.414 . S
C1780 C1783 1.499 . S
C1781 H1755 0.950 . S
C1781 C1780 1.414 . S
C1781 C1782 1.374 . S
C1782 H1756 0.950 . S
C1782 C1778 1.385 . S
C1782 C1781 1.374 . S
C1783 C1780 1.499 . S
C1783 C1784 1.373 1_565 S
C1783 C1785 1.389 . S
C1784 H1757 0.950 . S
C1784 C1770 1.377 . S
C1784 C1783 1.373 1_545 S
C1785 C1769 1.377 . S
C1785 C1783 1.389 . S
C1785 C1786 1.524 1_554 S
C1786 C1785 1.524 1_556 S
C1786 C1787 1.397 1_556 S
C1786 C1791 1.363 . S
C1787 H1758 0.950 . S
C1787 C1786 1.397 1_554 S
C1787 C1788 1.334 . S
C1788 H1759 0.950 . S
C1788 C1787 1.334 . S
C1788 C1789 1.287 1_554 S
C1789 C1788 1.287 1_556 S
C1789 C1790 1.524 . S
C1789 H1792 0.999 . S
C1790 H1760 0.950 . S
C1790 C1789 1.524 . S
C1790 C1791 1.415 . S
C1791 H1761 0.950 . S
C1791 C1786 1.363 . S
C1791 C1790 1.415 . S
H1792 C1789 0.999 . S
H1793 C1774 0.913 . S
H1794 C1812 0.951 . S
H1795 C1814 0.972 . S
H1796 C1816 0.950 . S
H1797 C1817 0.950 . S
H1798 C1819 0.950 . S
H1799 C1822 0.950 1_455 S
H1800 C1823 0.950 . S
H1801 C1825 0.950 . S
H1802 C1826 0.950 1_556 S
H1803 C1827 0.951 . S
H1804 C1829 0.972 . S
H1805 C1831 0.950 . S
H1806 C1832 0.950 . S
H1807 C1834 0.950 1_554 S
H1808 C1837 0.950 1_655 S
H1809 C1838 0.950 . S
H1810 C1840 0.950 . S
H1811 C1841 0.950 . S
C1812 H1794 0.951 . S
C1812 C1813 1.366 . S
C1812 C1814 1.388 . S
C1813 C1812 1.366 . S
C1813 C1817 1.385 . S
C1814 H1795 0.972 . S
C1814 C1812 1.388 . S
C1814 C1815 1.366 . S
C1815 C1814 1.366 . S
C1815 C1816 1.414 . S
C1815 C1818 1.499 . S
C1816 H1796 0.950 . S
C1816 C1815 1.414 . S
C1816 C1817 1.374 . S
C1817 H1797 0.950 . S
C1817 C1813 1.385 . S
C1817 C1816 1.374 . S
C1818 C1815 1.499 . S
C1818 C1819 1.373 . S
C1818 C1820 1.389 1_455 S
C1819 H1798 0.950 . S
C1819 C1818 1.373 . S
C1819 C1835 1.377 . S
C1820 C1818 1.389 1_655 S
C1820 C1821 1.524 1_556 S
C1820 C1834 1.377 . S
C1821 C1820 1.524 1_554 S
C1821 C1822 1.397 . S
C1821 C1826 1.363 . S
C1822 H1799 0.950 1_655 S
C1822 C1821 1.397 . S
C1822 C1823 1.334 . S
C1823 H1800 0.950 . S
C1823 C1822 1.334 . S
C1823 C1824 1.287 . S
C1824 C1823 1.287 . S
C1824 C1825 1.524 . S
C1824 H1843 0.913 . S
C1825 H1801 0.950 . S
C1825 C1824 1.524 . S
C1825 C1826 1.415 . S
C1826 H1802 0.950 1_554 S
C1826 C1821 1.363 . S
C1826 C1825 1.415 . S
C1827 H1803 0.951 . S
C1827 C1828 1.366 . S
C1827 C1829 1.388 . S
C1828 C1827 1.366 . S
C1828 C1832 1.385 . S
C1829 H1804 0.972 . S
C1829 C1827 1.388 . S
C1829 C1830 1.366 . S
C1830 C1829 1.366 . S
C1830 C1831 1.414 . S
C1830 C1833 1.499 . S
C1831 H1805 0.950 . S
C1831 C1830 1.414 . S
C1831 C1832 1.374 . S
C1832 H1806 0.950 . S
C1832 C1828 1.385 . S
C1832 C1831 1.374 . S
C1833 C1830 1.499 . S
C1833 C1834 1.373 . S
C1833 C1835 1.389 1_655 S
C1834 H1807 0.950 1_556 S
C1834 C1820 1.377 . S
C1834 C1833 1.373 . S
C1835 C1819 1.377 . S
C1835 C1833 1.389 1_455 S
C1835 C1836 1.524 . S
C1836 C1835 1.524 . S
C1836 C1837 1.397 . S
C1836 C1841 1.363 . S
C1837 H1808 0.950 1_455 S
C1837 C1836 1.397 . S
C1837 C1838 1.334 . S
C1838 H1809 0.950 . S
C1838 C1837 1.334 . S
C1838 C1839 1.287 . S
C1839 C1838 1.287 . S
C1839 C1840 1.524 . S
C1839 H1842 0.999 . S
C1840 H1810 0.950 . S
C1840 C1839 1.524 . S
C1840 C1841 1.415 . S
C1841 H1811 0.950 . S
C1841 C1836 1.363 . S
C1841 C1840 1.415 . S
H1842 C1839 0.999 . S
H1843 C1824 0.913 . S
H1844 C1862 0.951 . S
H1845 C1864 0.951 . S
H1846 C1866 0.950 . S
H1847 C1867 0.950 . S
H1848 C1869 0.950 . S
H1849 C1872 0.950 . S
H1850 C1873 0.950 . S
H1851 C1875 0.950 . S
H1852 C1876 0.950 . S
H1853 C1877 0.951 . S
H1854 C1879 0.951 . S
H1855 C1881 0.950 . S
H1856 C1882 0.950 . S
H1857 C1884 0.950 . S
H1858 C1887 0.950 . S
H1859 C1888 0.950 . S
H1860 C1890 0.950 . S
H1861 C1891 0.950 . S
C1862 H1844 0.951 . S
C1862 C1863 1.366 . S
C1862 C1864 1.388 . S
C1863 C1862 1.366 . S
C1863 C1867 1.385 . S
C1864 H1845 0.951 . S
C1864 C1862 1.388 . S
C1864 C1865 1.366 . S
C1865 C1864 1.366 . S
C1865 C1866 1.414 . S
C1865 C1868 1.499 . S
C1866 H1846 0.950 . S
C1866 C1865 1.414 . S
C1866 C1867 1.374 . S
C1867 H1847 0.950 . S
C1867 C1863 1.385 . S
C1867 C1866 1.374 . S
C1868 C1865 1.499 . S
C1868 C1869 1.373 . S
C1868 C1870 1.389 . S
C1869 H1848 0.950 . S
C1869 C1868 1.373 . S
C1869 C1885 1.377 . S
C1870 C1868 1.389 . S
C1870 C1871 1.524 . S
C1870 C1884 1.377 . S
C1871 C1870 1.524 . S
C1871 C1872 1.397 . S
C1871 C1876 1.363 . S
C1872 H1849 0.950 . S
C1872 C1871 1.397 . S
C1872 C1873 1.334 . S
C1873 H1850 0.950 . S
C1873 C1872 1.334 . S
C1873 C1874 1.287 . S
C1874 C1873 1.287 . S
C1874 C1875 1.524 . S
C1874 H1893 0.913 . S
C1875 H1851 0.950 . S
C1875 C1874 1.524 . S
C1875 C1876 1.415 . S
C1876 H1852 0.950 . S
C1876 C1871 1.363 . S
C1876 C1875 1.415 . S
C1877 H1853 0.951 . S
C1877 C1878 1.366 . S
C1877 C1879 1.388 . S
C1878 C1877 1.366 . S
C1878 C1882 1.385 . S
C1879 H1854 0.951 . S
C1879 C1877 1.388 . S
C1879 C1880 1.366 . S
C1880 C1879 1.366 . S
C1880 C1881 1.414 . S
C1880 C1883 1.499 . S
C1881 H1855 0.950 . S
C1881 C1880 1.414 . S
C1881 C1882 1.374 . S
C1882 H1856 0.950 . S
C1882 C1878 1.385 . S
C1882 C1881 1.374 . S
C1883 C1880 1.499 . S
C1883 C1884 1.373 . S
C1883 C1885 1.389 . S
C1884 H1857 0.950 . S
C1884 C1870 1.377 . S
C1884 C1883 1.373 . S
C1885 C1869 1.377 . S
C1885 C1883 1.389 . S
C1885 C1886 1.524 . S
C1886 C1885 1.524 . S
C1886 C1887 1.397 . S
C1886 C1891 1.363 . S
C1887 H1858 0.950 . S
C1887 C1886 1.397 . S
C1887 C1888 1.334 . S
C1888 H1859 0.950 . S
C1888 C1887 1.334 . S
C1888 C1889 1.287 . S
C1889 C1888 1.287 . S
C1889 C1890 1.524 . S
C1889 H1892 0.999 . S
C1890 H1860 0.950 . S
C1890 C1889 1.524 . S
C1890 C1891 1.415 . S
C1891 H1861 0.950 . S
C1891 C1886 1.363 . S
C1891 C1890 1.415 . S
H1892 C1889 0.999 . S
H1893 C1874 0.913 . S
H1894 C1912 0.951 . S
H1895 C1914 0.951 . S
H1896 C1916 0.950 . S
H1897 C1917 0.950 . S
H1898 C1919 0.950 . S
H1899 C1922 0.950 . S
H1900 C1923 0.950 . S
H1901 C1925 0.950 . S
H1902 C1926 0.950 . S
H1903 C1927 0.951 . S
H1904 C1929 0.951 . S
H1905 C1931 0.950 . S
H1906 C1932 0.950 . S
H1907 C1934 0.950 . S
H1908 C1937 0.950 . S
H1909 C1938 0.950 . S
H1910 C1940 0.950 . S
H1911 C1941 0.950 . S
C1912 H1894 0.951 . S
C1912 C1913 1.366 . S
C1912 C1914 1.388 . S
C1913 C1912 1.366 . S
C1913 C1917 1.385 . S
C1914 H1895 0.951 . S
C1914 C1912 1.388 . S
C1914 C1915 1.366 . S
C1915 C1914 1.366 . S
C1915 C1916 1.414 . S
C1915 C1918 1.499 . S
C1916 H1896 0.950 . S
C1916 C1915 1.414 . S
C1916 C1917 1.374 . S
C1917 H1897 0.950 . S
C1917 C1913 1.385 . S
C1917 C1916 1.374 . S
C1918 C1915 1.499 . S
C1918 C1919 1.373 . S
C1918 C1920 1.389 . S
C1919 H1898 0.950 . S
C1919 C1918 1.373 . S
C1919 C1935 1.377 . S
C1920 C1918 1.389 . S
C1920 C1921 1.524 . S
C1920 C1934 1.377 . S
C1921 C1920 1.524 . S
C1921 C1922 1.397 . S
C1921 C1926 1.363 . S
C1922 H1899 0.950 . S
C1922 C1921 1.397 . S
C1922 C1923 1.334 . S
C1923 H1900 0.950 . S
C1923 C1922 1.334 . S
C1923 C1924 1.287 . S
C1924 C1923 1.287 . S
C1924 C1925 1.524 . S
C1924 H1943 0.913 . S
C1925 H1901 0.950 . S
C1925 C1924 1.524 . S
C1925 C1926 1.415 . S
C1926 H1902 0.950 . S
C1926 C1921 1.363 . S
C1926 C1925 1.415 . S
C1927 H1903 0.951 . S
C1927 C1928 1.366 . S
C1927 C1929 1.388 . S
C1928 C1927 1.366 . S
C1928 C1932 1.385 . S
C1929 H1904 0.951 . S
C1929 C1927 1.388 . S
C1929 C1930 1.366 . S
C1930 C1929 1.366 . S
C1930 C1931 1.414 . S
C1930 C1933 1.499 . S
C1931 H1905 0.950 . S
C1931 C1930 1.414 . S
C1931 C1932 1.374 . S
C1932 H1906 0.950 . S
C1932 C1928 1.385 . S
C1932 C1931 1.374 . S
C1933 C1930 1.499 . S
C1933 C1934 1.373 . S
C1933 C1935 1.389 . S
C1934 H1907 0.950 . S
C1934 C1920 1.377 . S
C1934 C1933 1.373 . S
C1935 C1919 1.377 . S
C1935 C1933 1.389 . S
C1935 C1936 1.524 . S
C1936 C1935 1.524 . S
C1936 C1937 1.397 . S
C1936 C1941 1.363 . S
C1937 H1908 0.950 . S
C1937 C1936 1.397 . S
C1937 C1938 1.334 . S
C1938 H1909 0.950 . S
C1938 C1937 1.334 . S
C1938 C1939 1.287 . S
C1939 C1938 1.287 . S
C1939 C1940 1.524 . S
C1939 H1942 0.999 . S
C1940 H1910 0.950 . S
C1940 C1939 1.524 . S
C1940 C1941 1.415 . S
C1941 H1911 0.950 . S
C1941 C1936 1.363 . S
C1941 C1940 1.415 . S
H1942 C1939 0.999 . S
H1943 C1924 0.913 . S
H1944 C1962 0.951 . S
H1945 C1964 0.951 . S
H1946 C1966 0.950 . S
H1947 C1967 0.950 . S
H1948 C1969 0.950 . S
H1949 C1972 0.950 . S
H1950 C1973 0.950 . S
H1951 C1975 0.950 . S
H1952 C1976 0.950 1_455 S
H1953 C1977 0.951 . S
H1954 C1979 0.951 . S
H1955 C1981 0.950 . S
H1956 C1982 0.950 . S
H1957 C1984 0.950 . S
H1958 C1987 0.950 . S
H1959 C1988 0.950 . S
H1960 C1990 0.950 . S
H1961 C1991 0.950 1_655 S
C1962 H1944 0.951 . S
C1962 C1963 1.366 . S
C1962 C1964 1.388 . S
C1963 C1962 1.366 . S
C1963 C1967 1.385 . S
C1964 H1945 0.951 . S
C1964 C1962 1.388 . S
C1964 C1965 1.366 . S
C1965 C1964 1.366 . S
C1965 C1966 1.414 . S
C1965 C1968 1.499 . S
C1966 H1946 0.950 . S
C1966 C1965 1.414 . S
C1966 C1967 1.374 . S
C1967 H1947 0.950 . S
C1967 C1963 1.385 . S
C1967 C1966 1.374 . S
C1968 C1965 1.499 . S
C1968 C1969 1.373 . S
C1968 C1970 1.389 . S
C1969 H1948 0.950 . S
C1969 C1968 1.373 . S
C1969 C1985 1.377 1_655 S
C1970 C1968 1.389 . S
C1970 C1971 1.524 . S
C1970 C1984 1.377 1_655 S
C1971 C1970 1.524 . S
C1971 C1972 1.397 . S
C1971 C1976 1.363 . S
C1972 H1949 0.950 . S
C1972 C1971 1.397 . S
C1972 C1973 1.334 . S
C1973 H1950 0.950 . S
C1973 C1972 1.334 . S
C1973 C1974 1.287 . S
C1974 C1973 1.287 . S
C1974 C1975 1.524 . S
C1974 H1993 0.913 . S
C1975 H1951 0.950 . S
C1975 C1974 1.524 . S
C1975 C1976 1.415 . S
C1976 H1952 0.950 1_655 S
C1976 C1971 1.363 . S
C1976 C1975 1.415 . S
C1977 H1953 0.951 . S
C1977 C1978 1.366 . S
C1977 C1979 1.388 . S
C1978 C1977 1.366 . S
C1978 C1982 1.385 . S
C1979 H1954 0.951 . S
C1979 C1977 1.388 . S
C1979 C1980 1.366 . S
C1980 C1979 1.366 . S
C1980 C1981 1.414 . S
C1980 C1983 1.499 . S
C1981 H1955 0.950 . S
C1981 C1980 1.414 . S
C1981 C1982 1.374 . S
C1982 H1956 0.950 . S
C1982 C1978 1.385 . S
C1982 C1981 1.374 . S
C1983 C1980 1.499 . S
C1983 C1984 1.373 . S
C1983 C1985 1.389 . S
C1984 H1957 0.950 . S
C1984 C1970 1.377 1_455 S
C1984 C1983 1.373 . S
C1985 C1969 1.377 1_455 S
C1985 C1983 1.389 . S
C1985 C1986 1.524 . S
C1986 C1985 1.524 . S
C1986 C1987 1.397 . S
C1986 C1991 1.363 . S
C1987 H1958 0.950 . S
C1987 C1986 1.397 . S
C1987 C1988 1.334 . S
C1988 H1959 0.950 . S
C1988 C1987 1.334 . S
C1988 C1989 1.287 . S
C1989 C1988 1.287 . S
C1989 C1990 1.524 . S
C1989 H1992 0.999 . S
C1990 H1960 0.950 . S
C1990 C1989 1.524 . S
C1990 C1991 1.415 . S
C1991 H1961 0.950 1_455 S
C1991 C1986 1.363 . S
C1991 C1990 1.415 . S
H1992 C1989 0.999 . S
H1993 C1974 0.913 . S
H1994 C2012 0.951 . S
H1995 C2014 0.951 . S
H1996 C2016 0.950 . S
H1997 C2017 0.950 . S
H1998 C2019 0.950 . S
H1999 C2022 0.950 . S
H2000 C2023 0.950 . S
H2001 C2025 0.950 . S
H2002 C2026 0.950 . S
H2003 C2027 0.951 . S
H2004 C2029 0.951 . S
H2005 C2031 0.950 . S
H2006 C2032 0.950 . S
H2007 C2034 0.950 . S
H2008 C2037 0.950 . S
H2009 C2038 0.950 . S
H2010 C2040 0.950 . S
H2011 C2041 0.950 . S
C2012 H1994 0.951 . S
C2012 C2013 1.366 . S
C2012 C2014 1.388 . S
C2013 C2012 1.366 . S
C2013 C2017 1.385 . S
C2014 H1995 0.951 . S
C2014 C2012 1.388 . S
C2014 C2015 1.366 . S
C2015 C2014 1.366 . S
C2015 C2016 1.414 . S
C2015 C2018 1.499 . S
C2016 H1996 0.950 . S
C2016 C2015 1.414 . S
C2016 C2017 1.374 . S
C2017 H1997 0.950 . S
C2017 C2013 1.385 . S
C2017 C2016 1.374 . S
C2018 C2015 1.499 . S
C2018 C2019 1.373 . S
C2018 C2020 1.389 . S
C2019 H1998 0.950 . S
C2019 C2018 1.373 . S
C2019 C2035 1.377 1_545 S
C2020 C2018 1.389 . S
C2020 C2021 1.524 . S
C2020 C2034 1.377 1_545 S
C2021 C2020 1.524 . S
C2021 C2022 1.397 . S
C2021 C2026 1.363 . S
C2022 H1999 0.950 . S
C2022 C2021 1.397 . S
C2022 C2023 1.334 . S
C2023 H2000 0.950 . S
C2023 C2022 1.334 . S
C2023 C2024 1.287 . S
C2024 C2023 1.287 . S
C2024 C2025 1.524 . S
C2024 H2043 0.913 . S
C2025 H2001 0.950 . S
C2025 C2024 1.524 . S
C2025 C2026 1.415 . S
C2026 H2002 0.950 . S
C2026 C2021 1.363 . S
C2026 C2025 1.415 . S
C2027 H2003 0.951 . S
C2027 C2028 1.366 . S
C2027 C2029 1.388 . S
C2028 C2027 1.366 . S
C2028 C2032 1.385 . S
C2029 H2004 0.951 . S
C2029 C2027 1.388 . S
C2029 C2030 1.366 . S
C2030 C2029 1.366 . S
C2030 C2031 1.414 . S
C2030 C2033 1.499 . S
C2031 H2005 0.950 . S
C2031 C2030 1.414 . S
C2031 C2032 1.374 . S
C2032 H2006 0.950 . S
C2032 C2028 1.385 . S
C2032 C2031 1.374 . S
C2033 C2030 1.499 . S
C2033 C2034 1.373 . S
C2033 C2035 1.389 . S
C2034 H2007 0.950 . S
C2034 C2020 1.377 1_565 S
C2034 C2033 1.373 . S
C2035 C2019 1.377 1_565 S
C2035 C2033 1.389 . S
C2035 C2036 1.524 . S
C2036 C2035 1.524 . S
C2036 C2037 1.397 . S
C2036 C2041 1.363 . S
C2037 H2008 0.950 . S
C2037 C2036 1.397 . S
C2037 C2038 1.334 . S
C2038 H2009 0.950 . S
C2038 C2037 1.334 . S
C2038 C2039 1.287 . S
C2039 C2038 1.287 . S
C2039 C2040 1.524 . S
C2039 H2042 0.999 . S
C2040 H2010 0.950 . S
C2040 C2039 1.524 . S
C2040 C2041 1.415 . S
C2041 H2011 0.950 . S
C2041 C2036 1.363 . S
C2041 C2040 1.415 . S
H2042 C2039 0.999 . S
H2043 C2024 0.913 . S
H2044 C2062 0.951 . S
H2045 C2064 0.951 . S
H2046 C2066 0.950 . S
H2047 C2067 0.950 . S
H2048 C2069 0.950 . S
H2049 C2072 0.950 . S
H2050 C2073 0.950 . S
H2051 C2075 0.950 . S
H2052 C2076 0.950 . S
H2053 C2077 0.951 . S
H2054 C2079 0.951 . S
H2055 C2081 0.950 . S
H2056 C2082 0.950 . S
H2057 C2084 0.950 . S
H2058 C2087 0.950 . S
H2059 C2088 0.950 . S
H2060 C2090 0.950 . S
H2061 C2091 0.950 . S
C2062 H2044 0.951 . S
C2062 C2063 1.366 . S
C2062 C2064 1.388 . S
C2063 C2062 1.366 . S
C2063 C2067 1.385 . S
C2064 H2045 0.951 . S
C2064 C2062 1.388 . S
C2064 C2065 1.366 . S
C2065 C2064 1.366 . S
C2065 C2066 1.414 . S
C2065 C2068 1.499 . S
C2066 H2046 0.950 . S
C2066 C2065 1.414 . S
C2066 C2067 1.374 . S
C2067 H2047 0.950 . S
C2067 C2063 1.385 . S
C2067 C2066 1.374 . S
C2068 C2065 1.499 . S
C2068 C2069 1.370 1_565 S
C2068 C2070 1.389 . S
C2069 H2048 0.950 . S
C2069 C2068 1.370 1_545 S
C2069 C2085 1.380 1_655 S
C2070 C2068 1.389 . S
C2070 C2071 1.524 . S
C2070 C2084 1.380 1_655 S
C2071 C2070 1.524 . S
C2071 C2072 1.397 . S
C2071 C2076 1.363 . S
C2072 H2049 0.950 . S
C2072 C2071 1.397 . S
C2072 C2073 1.334 . S
C2073 H2050 0.950 . S
C2073 C2072 1.334 . S
C2073 C2074 1.287 . S
C2074 C2073 1.287 . S
C2074 C2075 1.524 . S
C2074 H2093 0.913 . S
C2075 H2051 0.950 . S
C2075 C2074 1.524 . S
C2075 C2076 1.415 . S
C2076 H2052 0.950 . S
C2076 C2071 1.363 . S
C2076 C2075 1.415 . S
C2077 H2053 0.951 . S
C2077 C2078 1.366 . S
C2077 C2079 1.388 . S
C2078 C2077 1.366 . S
C2078 C2082 1.385 . S
C2079 H2054 0.951 . S
C2079 C2077 1.388 . S
C2079 C2080 1.366 . S
C2080 C2079 1.366 . S
C2080 C2081 1.414 . S
C2080 C2083 1.499 . S
C2081 H2055 0.950 . S
C2081 C2080 1.414 . S
C2081 C2082 1.374 . S
C2082 H2056 0.950 . S
C2082 C2078 1.385 . S
C2082 C2081 1.374 . S
C2083 C2080 1.499 . S
C2083 C2084 1.370 1_545 S
C2083 C2085 1.389 . S
C2084 H2057 0.950 . S
C2084 C2070 1.380 1_455 S
C2084 C2083 1.370 1_565 S
C2085 C2069 1.380 1_455 S
C2085 C2083 1.389 . S
C2085 C2086 1.524 . S
C2086 C2085 1.524 . S
C2086 C2087 1.397 . S
C2086 C2091 1.363 . S
C2087 H2058 0.950 . S
C2087 C2086 1.397 . S
C2087 C2088 1.334 . S
C2088 H2059 0.950 . S
C2088 C2087 1.334 . S
C2088 C2089 1.287 . S
C2089 C2088 1.287 . S
C2089 C2090 1.524 . S
C2089 H2092 0.999 . S
C2090 H2060 0.950 . S
C2090 C2089 1.524 . S
C2090 C2091 1.415 . S
C2091 H2061 0.950 . S
C2091 C2086 1.363 . S
C2091 C2090 1.415 . S
H2092 C2089 0.999 . S
H2093 C2074 0.913 . S
H2094 C2112 0.951 . S
H2095 C2114 0.959 . S
H2096 C2116 0.950 . S
H2097 C2117 0.950 . S
H2098 C2119 0.950 . S
H2099 C2122 0.950 . S
H2100 C2123 0.950 . S
H2101 C2125 0.950 . S
H2102 C2126 0.950 . S
H2103 C2127 0.951 . S
H2104 C2129 0.959 . S
H2105 C2131 0.950 . S
H2106 C2132 0.950 . S
H2107 C2134 0.950 . S
H2108 C2137 0.950 . S
H2109 C2138 0.950 . S
H2110 C2140 0.950 . S
H2111 C2141 0.950 . S
C2112 H2094 0.951 . S
C2112 C2113 1.366 . S
C2112 C2114 1.388 . S
C2113 C2112 1.366 . S
C2113 C2117 1.385 . S
C2114 H2095 0.959 . S
C2114 C2112 1.388 . S
C2114 C2115 1.366 . S
C2115 C2114 1.366 . S
C2115 C2116 1.414 . S
C2115 C2118 1.499 . S
C2116 H2096 0.950 . S
C2116 C2115 1.414 . S
C2116 C2117 1.374 . S
C2117 H2097 0.950 . S
C2117 C2113 1.385 . S
C2117 C2116 1.374 . S
C2118 C2115 1.499 . S
C2118 C2119 1.373 . S
C2118 C2120 1.389 1_655 S
C2119 H2098 0.950 . S
C2119 C2118 1.373 . S
C2119 C2135 1.377 1_545 S
C2120 C2118 1.389 1_455 S
C2120 C2121 1.524 . S
C2120 C2134 1.377 1_545 S
C2121 C2120 1.524 . S
C2121 C2122 1.397 1_455 S
C2121 C2126 1.363 . S
C2122 H2099 0.950 . S
C2122 C2121 1.397 1_655 S
C2122 C2123 1.334 . S
C2123 H2100 0.950 . S
C2123 C2122 1.334 . S
C2123 C2124 1.287 1_655 S
C2124 C2123 1.287 1_455 S
C2124 C2125 1.524 . S
C2124 H2143 0.913 . S
C2125 H2101 0.950 . S
C2125 C2124 1.524 . S
C2125 C2126 1.415 . S
C2126 H2102 0.950 . S
C2126 C2121 1.363 . S
C2126 C2125 1.415 . S
C2127 H2103 0.951 . S
C2127 C2128 1.366 . S
C2127 C2129 1.388 . S
C2128 C2127 1.366 . S
C2128 C2132 1.385 . S
C2129 H2104 0.959 . S
C2129 C2127 1.388 . S
C2129 C2130 1.366 . S
C2130 C2129 1.366 . S
C2130 C2131 1.414 . S
C2130 C2133 1.499 . S
C2131 H2105 0.950 . S
C2131 C2130 1.414 . S
C2131 C2132 1.374 . S
C2132 H2106 0.950 . S
C2132 C2128 1.385 . S
C2132 C2131 1.374 . S
C2133 C2130 1.499 . S
C2133 C2134 1.373 . S
C2133 C2135 1.389 1_455 S
C2134 H2107 0.950 . S
C2134 C2120 1.377 1_565 S
C2134 C2133 1.373 . S
C2135 C2119 1.377 1_565 S
C2135 C2133 1.389 1_655 S
C2135 C2136 1.524 . S
C2136 C2135 1.524 . S
C2136 C2137 1.397 1_655 S
C2136 C2141 1.363 . S
C2137 H2108 0.950 . S
C2137 C2136 1.397 1_455 S
C2137 C2138 1.334 . S
C2138 H2109 0.950 . S
C2138 C2137 1.334 . S
C2138 C2139 1.287 1_455 S
C2139 C2138 1.287 1_655 S
C2139 C2140 1.524 . S
C2139 H2142 0.999 . S
C2140 H2110 0.950 . S
C2140 C2139 1.524 . S
C2140 C2141 1.415 . S
C2141 H2111 0.950 . S
C2141 C2136 1.363 . S
C2141 C2140 1.415 . S
H2142 C2139 0.999 . S
H2143 C2124 0.913 . S
H2144 C2162 0.951 . S
H2145 C2164 0.951 . S
H2146 C2166 0.950 . S
H2147 C2167 0.950 . S
H2148 C2169 0.950 . S
H2149 C2172 0.950 . S
H2150 C2173 0.950 . S
H2151 C2175 0.950 . S
H2152 C2176 0.950 . S
H2153 C2177 0.951 . S
H2154 C2179 0.951 . S
H2155 C2181 0.950 . S
H2156 C2182 0.950 . S
H2157 C2184 0.950 . S
H2158 C2187 0.950 . S
H2159 C2188 0.950 . S
H2160 C2190 0.950 . S
H2161 C2191 0.950 . S
C2162 H2144 0.951 . S
C2162 C2163 1.366 . S
C2162 C2164 1.388 . S
C2163 C2162 1.366 . S
C2163 C2167 1.385 . S
C2164 H2145 0.951 . S
C2164 C2162 1.388 . S
C2164 C2165 1.366 . S
C2165 C2164 1.366 . S
C2165 C2166 1.414 . S
C2165 C2168 1.499 . S
C2166 H2146 0.950 . S
C2166 C2165 1.414 . S
C2166 C2167 1.374 . S
C2167 H2147 0.950 . S
C2167 C2163 1.385 . S
C2167 C2166 1.374 . S
C2168 C2165 1.499 . S
C2168 C2169 1.373 . S
C2168 C2170 1.389 . S
C2169 H2148 0.950 . S
C2169 C2168 1.373 . S
C2169 C2185 1.377 . S
C2170 C2168 1.389 . S
C2170 C2171 1.524 . S
C2170 C2184 1.377 . S
C2171 C2170 1.524 . S
C2171 C2172 1.397 . S
C2171 C2176 1.363 . S
C2172 H2149 0.950 . S
C2172 C2171 1.397 . S
C2172 C2173 1.334 . S
C2173 H2150 0.950 . S
C2173 C2172 1.334 . S
C2173 C2174 1.287 . S
C2174 C2173 1.287 . S
C2174 C2175 1.524 . S
C2174 H2193 0.913 . S
C2175 H2151 0.950 . S
C2175 C2174 1.524 . S
C2175 C2176 1.415 . S
C2176 H2152 0.950 . S
C2176 C2171 1.363 . S
C2176 C2175 1.415 . S
C2177 H2153 0.951 . S
C2177 C2178 1.366 . S
C2177 C2179 1.388 . S
C2178 C2177 1.366 . S
C2178 C2182 1.385 . S
C2179 H2154 0.951 . S
C2179 C2177 1.388 . S
C2179 C2180 1.366 . S
C2180 C2179 1.366 . S
C2180 C2181 1.414 . S
C2180 C2183 1.499 . S
C2181 H2155 0.950 . S
C2181 C2180 1.414 . S
C2181 C2182 1.374 . S
C2182 H2156 0.950 . S
C2182 C2178 1.385 . S
C2182 C2181 1.374 . S
C2183 C2180 1.499 . S
C2183 C2184 1.373 . S
C2183 C2185 1.389 . S
C2184 H2157 0.950 . S
C2184 C2170 1.377 . S
C2184 C2183 1.373 . S
C2185 C2169 1.377 . S
C2185 C2183 1.389 . S
C2185 C2186 1.524 . S
C2186 C2185 1.524 . S
C2186 C2187 1.397 . S
C2186 C2191 1.363 . S
C2187 H2158 0.950 . S
C2187 C2186 1.397 . S
C2187 C2188 1.334 . S
C2188 H2159 0.950 . S
C2188 C2187 1.334 . S
C2188 C2189 1.287 . S
C2189 C2188 1.287 . S
C2189 C2190 1.524 . S
C2189 H2192 0.999 . S
C2190 H2160 0.950 . S
C2190 C2189 1.524 . S
C2190 C2191 1.415 . S
C2191 H2161 0.950 . S
C2191 C2186 1.363 . S
C2191 C2190 1.415 . S
H2192 C2189 0.999 . S
H2193 C2174 0.913 . S
H2194 C2212 0.951 . S
H2195 C2214 0.951 . S
H2196 C2216 0.950 . S
H2197 C2217 0.950 . S
H2198 C2219 0.950 . S
H2199 C2222 0.950 . S
H2200 C2223 0.950 . S
H2201 C2225 0.950 . S
H2202 C2226 0.950 . S
H2203 C2227 0.951 . S
H2204 C2229 0.951 . S
H2205 C2231 0.950 . S
H2206 C2232 0.950 . S
H2207 C2234 0.950 . S
H2208 C2237 0.950 . S
H2209 C2238 0.950 . S
H2210 C2240 0.950 . S
H2211 C2241 0.950 . S
C2212 H2194 0.951 . S
C2212 C2213 1.366 . S
C2212 C2214 1.388 . S
C2213 C2212 1.366 . S
C2213 C2217 1.385 . S
C2214 H2195 0.951 . S
C2214 C2212 1.388 . S
C2214 C2215 1.366 . S
C2215 C2214 1.366 . S
C2215 C2216 1.414 . S
C2215 C2218 1.499 . S
C2216 H2196 0.950 . S
C2216 C2215 1.414 . S
C2216 C2217 1.374 . S
C2217 H2197 0.950 . S
C2217 C2213 1.385 . S
C2217 C2216 1.374 . S
C2218 C2215 1.499 . S
C2218 C2219 1.373 . S
C2218 C2220 1.389 . S
C2219 H2198 0.950 . S
C2219 C2218 1.373 . S
C2219 C2235 1.377 . S
C2220 C2218 1.389 . S
C2220 C2221 1.524 . S
C2220 C2234 1.377 . S
C2221 C2220 1.524 . S
C2221 C2222 1.397 . S
C2221 C2226 1.363 . S
C2222 H2199 0.950 . S
C2222 C2221 1.397 . S
C2222 C2223 1.334 . S
C2223 H2200 0.950 . S
C2223 C2222 1.334 . S
C2223 C2224 1.287 . S
C2224 C2223 1.287 . S
C2224 C2225 1.524 . S
C2224 H2243 0.913 . S
C2225 H2201 0.950 . S
C2225 C2224 1.524 . S
C2225 C2226 1.415 . S
C2226 H2202 0.950 . S
C2226 C2221 1.363 . S
C2226 C2225 1.415 . S
C2227 H2203 0.951 . S
C2227 C2228 1.366 . S
C2227 C2229 1.388 . S
C2228 C2227 1.366 . S
C2228 C2232 1.385 . S
C2229 H2204 0.951 . S
C2229 C2227 1.388 . S
C2229 C2230 1.366 . S
C2230 C2229 1.366 . S
C2230 C2231 1.414 . S
C2230 C2233 1.499 . S
C2231 H2205 0.950 . S
C2231 C2230 1.414 . S
C2231 C2232 1.374 . S
C2232 H2206 0.950 . S
C2232 C2228 1.385 . S
C2232 C2231 1.374 . S
C2233 C2230 1.499 . S
C2233 C2234 1.373 . S
C2233 C2235 1.389 . S
C2234 H2207 0.950 . S
C2234 C2220 1.377 . S
C2234 C2233 1.373 . S
C2235 C2219 1.377 . S
C2235 C2233 1.389 . S
C2235 C2236 1.524 . S
C2236 C2235 1.524 . S
C2236 C2237 1.397 . S
C2236 C2241 1.363 . S
C2237 H2208 0.950 . S
C2237 C2236 1.397 . S
C2237 C2238 1.334 . S
C2238 H2209 0.950 . S
C2238 C2237 1.334 . S
C2238 C2239 1.287 . S
C2239 C2238 1.287 . S
C2239 C2240 1.524 . S
C2239 H2242 0.999 . S
C2240 H2210 0.950 . S
C2240 C2239 1.524 . S
C2240 C2241 1.415 . S
C2241 H2211 0.950 . S
C2241 C2236 1.363 . S
C2241 C2240 1.415 . S
H2242 C2239 0.999 . S
H2243 C2224 0.913 . S
H2244 C2262 0.951 . S
H2245 C2264 0.951 . S
H2246 C2266 0.950 . S
H2247 C2267 0.950 . S
H2248 C2269 0.950 . S
H2249 C2272 0.950 . S
H2250 C2273 0.950 . S
H2251 C2275 0.950 . S
H2252 C2276 0.950 . S
H2253 C2277 0.951 . S
H2254 C2279 0.951 . S
H2255 C2281 0.950 . S
H2256 C2282 0.950 . S
H2257 C2284 0.950 . S
H2258 C2287 0.950 . S
H2259 C2288 0.950 . S
H2260 C2290 0.950 . S
H2261 C2291 0.950 . S
C2262 H2244 0.951 . S
C2262 C2263 1.366 . S
C2262 C2264 1.388 . S
C2263 C2262 1.366 . S
C2263 C2267 1.385 . S
C2264 H2245 0.951 . S
C2264 C2262 1.388 . S
C2264 C2265 1.366 . S
C2265 C2264 1.366 . S
C2265 C2266 1.414 . S
C2265 C2268 1.499 . S
C2266 H2246 0.950 . S
C2266 C2265 1.414 . S
C2266 C2267 1.374 . S
C2267 H2247 0.950 . S
C2267 C2263 1.385 . S
C2267 C2266 1.374 . S
C2268 C2265 1.499 . S
C2268 C2269 1.373 . S
C2268 C2270 1.389 . S
C2269 H2248 0.950 . S
C2269 C2268 1.373 . S
C2269 C2285 1.377 . S
C2270 C2268 1.389 . S
C2270 C2271 1.524 . S
C2270 C2284 1.377 . S
C2271 C2270 1.524 . S
C2271 C2272 1.397 . S
C2271 C2276 1.363 . S
C2272 H2249 0.950 . S
C2272 C2271 1.397 . S
C2272 C2273 1.334 . S
C2273 H2250 0.950 . S
C2273 C2272 1.334 . S
C2273 C2274 1.287 . S
C2274 C2273 1.287 . S
C2274 C2275 1.524 . S
C2274 H2293 0.913 . S
C2275 H2251 0.950 . S
C2275 C2274 1.524 . S
C2275 C2276 1.415 . S
C2276 H2252 0.950 . S
C2276 C2271 1.363 . S
C2276 C2275 1.415 . S
C2277 H2253 0.951 . S
C2277 C2278 1.366 . S
C2277 C2279 1.388 . S
C2278 C2277 1.366 . S
C2278 C2282 1.385 . S
C2279 H2254 0.951 . S
C2279 C2277 1.388 . S
C2279 C2280 1.366 . S
C2280 C2279 1.366 . S
C2280 C2281 1.414 . S
C2280 C2283 1.499 . S
C2281 H2255 0.950 . S
C2281 C2280 1.414 . S
C2281 C2282 1.374 . S
C2282 H2256 0.950 . S
C2282 C2278 1.385 . S
C2282 C2281 1.374 . S
C2283 C2280 1.499 . S
C2283 C2284 1.373 . S
C2283 C2285 1.389 . S
C2284 H2257 0.950 . S
C2284 C2270 1.377 . S
C2284 C2283 1.373 . S
C2285 C2269 1.377 . S
C2285 C2283 1.389 . S
C2285 C2286 1.524 . S
C2286 C2285 1.524 . S
C2286 C2287 1.397 . S
C2286 C2291 1.363 . S
C2287 H2258 0.950 . S
C2287 C2286 1.397 . S
C2287 C2288 1.334 . S
C2288 H2259 0.950 . S
C2288 C2287 1.334 . S
C2288 C2289 1.287 . S
C2289 C2288 1.287 . S
C2289 C2290 1.524 . S
C2289 H2292 0.999 . S
C2290 H2260 0.950 . S
C2290 C2289 1.524 . S
C2290 C2291 1.415 . S
C2291 H2261 0.950 . S
C2291 C2286 1.363 . S
C2291 C2290 1.415 . S
H2292 C2289 0.999 . S
H2293 C2274 0.913 . S
H2294 C2312 0.951 . S
H2295 C2314 0.951 . S
H2296 C2316 0.950 . S
H2297 C2317 0.950 . S
H2298 C2319 0.950 . S
H2299 C2322 0.950 . S
H2300 C2323 0.950 . S
H2301 C2325 0.950 . S
H2302 C2326 0.950 . S
H2303 C2327 0.951 . S
H2304 C2329 0.951 . S
H2305 C2331 0.950 . S
H2306 C2332 0.950 . S
H2307 C2334 0.950 . S
H2308 C2337 0.950 . S
H2309 C2338 0.950 . S
H2310 C2340 0.950 . S
H2311 C2341 0.950 . S
C2312 H2294 0.951 . S
C2312 C2313 1.366 . S
C2312 C2314 1.388 . S
C2313 C2312 1.366 . S
C2313 C2317 1.385 . S
C2314 H2295 0.951 . S
C2314 C2312 1.388 . S
C2314 C2315 1.366 . S
C2315 C2314 1.366 . S
C2315 C2316 1.414 . S
C2315 C2318 1.499 . S
C2316 H2296 0.950 . S
C2316 C2315 1.414 . S
C2316 C2317 1.374 . S
C2317 H2297 0.950 . S
C2317 C2313 1.385 . S
C2317 C2316 1.374 . S
C2318 C2315 1.499 . S
C2318 C2319 1.373 . S
C2318 C2320 1.389 . S
C2319 H2298 0.950 . S
C2319 C2318 1.373 . S
C2319 C2335 1.377 . S
C2320 C2318 1.389 . S
C2320 C2321 1.524 . S
C2320 C2334 1.377 . S
C2321 C2320 1.524 . S
C2321 C2322 1.397 . S
C2321 C2326 1.363 . S
C2322 H2299 0.950 . S
C2322 C2321 1.397 . S
C2322 C2323 1.334 . S
C2323 H2300 0.950 . S
C2323 C2322 1.334 . S
C2323 C2324 1.287 . S
C2324 C2323 1.287 . S
C2324 C2325 1.524 . S
C2324 H2343 0.913 . S
C2325 H2301 0.950 . S
C2325 C2324 1.524 . S
C2325 C2326 1.415 . S
C2326 H2302 0.950 . S
C2326 C2321 1.363 . S
C2326 C2325 1.415 . S
C2327 H2303 0.951 . S
C2327 C2328 1.366 . S
C2327 C2329 1.388 . S
C2328 C2327 1.366 . S
C2328 C2332 1.385 . S
C2329 H2304 0.951 . S
C2329 C2327 1.388 . S
C2329 C2330 1.366 . S
C2330 C2329 1.366 . S
C2330 C2331 1.414 . S
C2330 C2333 1.499 . S
C2331 H2305 0.950 . S
C2331 C2330 1.414 . S
C2331 C2332 1.374 . S
C2332 H2306 0.950 . S
C2332 C2328 1.385 . S
C2332 C2331 1.374 . S
C2333 C2330 1.499 . S
C2333 C2334 1.373 . S
C2333 C2335 1.389 . S
C2334 H2307 0.950 . S
C2334 C2320 1.377 . S
C2334 C2333 1.373 . S
C2335 C2319 1.377 . S
C2335 C2333 1.389 . S
C2335 C2336 1.524 . S
C2336 C2335 1.524 . S
C2336 C2337 1.397 . S
C2336 C2341 1.363 . S
C2337 H2308 0.950 . S
C2337 C2336 1.397 . S
C2337 C2338 1.334 . S
C2338 H2309 0.950 . S
C2338 C2337 1.334 . S
C2338 C2339 1.287 . S
C2339 C2338 1.287 . S
C2339 C2340 1.524 . S
C2339 H2342 0.999 . S
C2340 H2310 0.950 . S
C2340 C2339 1.524 . S
C2340 C2341 1.415 . S
C2341 H2311 0.950 . S
C2341 C2336 1.363 . S
C2341 C2340 1.415 . S
H2342 C2339 0.999 . S
H2343 C2324 0.913 . S
H2344 C2362 0.951 . S
H2345 C2364 0.951 . S
H2346 C2366 0.950 . S
H2347 C2367 0.950 . S
H2348 C2369 0.950 . S
H2349 C2372 0.950 . S
H2350 C2373 0.950 . S
H2351 C2375 0.950 . S
H2352 C2376 0.950 . S
H2353 C2377 0.951 . S
H2354 C2379 0.951 . S
H2355 C2381 0.950 . S
H2356 C2382 0.950 . S
H2357 C2384 0.950 . S
H2358 C2387 0.950 . S
H2359 C2388 0.950 . S
H2360 C2390 0.950 . S
H2361 C2391 0.950 . S
C2362 H2344 0.951 . S
C2362 C2363 1.366 . S
C2362 C2364 1.388 . S
C2363 C2362 1.366 . S
C2363 C2367 1.385 . S
C2364 H2345 0.951 . S
C2364 C2362 1.388 . S
C2364 C2365 1.366 . S
C2365 C2364 1.366 . S
C2365 C2366 1.414 . S
C2365 C2368 1.499 . S
C2366 H2346 0.950 . S
C2366 C2365 1.414 . S
C2366 C2367 1.374 . S
C2367 H2347 0.950 . S
C2367 C2363 1.385 . S
C2367 C2366 1.374 . S
C2368 C2365 1.499 . S
C2368 C2369 1.373 . S
C2368 C2370 1.389 . S
C2369 H2348 0.950 . S
C2369 C2368 1.373 . S
C2369 C2385 1.377 . S
C2370 C2368 1.389 . S
C2370 C2371 1.524 . S
C2370 C2384 1.377 . S
C2371 C2370 1.524 . S
C2371 C2372 1.397 . S
C2371 C2376 1.363 . S
C2372 H2349 0.950 . S
C2372 C2371 1.397 . S
C2372 C2373 1.334 . S
C2373 H2350 0.950 . S
C2373 C2372 1.334 . S
C2373 C2374 1.287 . S
C2374 C2373 1.287 . S
C2374 C2375 1.524 . S
C2374 H2393 0.913 . S
C2375 H2351 0.950 . S
C2375 C2374 1.524 . S
C2375 C2376 1.415 . S
C2376 H2352 0.950 . S
C2376 C2371 1.363 . S
C2376 C2375 1.415 . S
C2377 H2353 0.951 . S
C2377 C2378 1.366 . S
C2377 C2379 1.388 . S
C2378 C2377 1.366 . S
C2378 C2382 1.385 . S
C2379 H2354 0.951 . S
C2379 C2377 1.388 . S
C2379 C2380 1.366 . S
C2380 C2379 1.366 . S
C2380 C2381 1.414 . S
C2380 C2383 1.499 . S
C2381 H2355 0.950 . S
C2381 C2380 1.414 . S
C2381 C2382 1.374 . S
C2382 H2356 0.950 . S
C2382 C2378 1.385 . S
C2382 C2381 1.374 . S
C2383 C2380 1.499 . S
C2383 C2384 1.373 . S
C2383 C2385 1.389 . S
C2384 H2357 0.950 . S
C2384 C2370 1.377 . S
C2384 C2383 1.373 . S
C2385 C2369 1.377 . S
C2385 C2383 1.389 . S
C2385 C2386 1.524 . S
C2386 C2385 1.524 . S
C2386 C2387 1.397 . S
C2386 C2391 1.363 . S
C2387 H2358 0.950 . S
C2387 C2386 1.397 . S
C2387 C2388 1.334 . S
C2388 H2359 0.950 . S
C2388 C2387 1.334 . S
C2388 C2389 1.287 . S
C2389 C2388 1.287 . S
C2389 C2390 1.524 . S
C2389 H2392 0.999 . S
C2390 H2360 0.950 . S
C2390 C2389 1.524 . S
C2390 C2391 1.415 . S
C2391 H2361 0.950 . S
C2391 C2386 1.363 . S
C2391 C2390 1.415 . S
H2392 C2389 0.999 . S
H2393 C2374 0.913 . S
H2394 C2412 0.951 . S
H2395 C2414 0.951 . S
H2396 C2416 0.950 . S
H2397 C2417 0.950 . S
H2398 C2419 0.950 . S
H2399 C2422 0.950 . S
H2400 C2423 0.950 . S
H2401 C2425 0.950 . S
H2402 C2426 0.950 . S
H2403 C2427 0.951 . S
H2404 C2429 0.951 . S
H2405 C2431 0.950 . S
H2406 C2432 0.950 . S
H2407 C2434 0.950 . S
H2408 C2437 0.950 . S
H2409 C2438 0.950 . S
H2410 C2440 0.950 . S
H2411 C2441 0.950 . S
C2412 H2394 0.951 . S
C2412 C2413 1.366 . S
C2412 C2414 1.388 . S
C2413 C2412 1.366 . S
C2413 C2417 1.385 . S
C2414 H2395 0.951 . S
C2414 C2412 1.388 . S
C2414 C2415 1.366 . S
C2415 C2414 1.366 . S
C2415 C2416 1.414 . S
C2415 C2418 1.499 . S
C2416 H2396 0.950 . S
C2416 C2415 1.414 . S
C2416 C2417 1.374 . S
C2417 H2397 0.950 . S
C2417 C2413 1.385 . S
C2417 C2416 1.374 . S
C2418 C2415 1.499 . S
C2418 C2419 1.373 . S
C2418 C2420 1.389 . S
C2419 H2398 0.950 . S
C2419 C2418 1.373 . S
C2419 C2435 1.377 . S
C2420 C2418 1.389 . S
C2420 C2421 1.524 . S
C2420 C2434 1.377 . S
C2421 C2420 1.524 . S
C2421 C2422 1.397 . S
C2421 C2426 1.363 . S
C2422 H2399 0.950 . S
C2422 C2421 1.397 . S
C2422 C2423 1.334 . S
C2423 H2400 0.950 . S
C2423 C2422 1.334 . S
C2423 C2424 1.287 . S
C2424 C2423 1.287 . S
C2424 C2425 1.524 . S
C2424 H2443 0.913 . S
C2425 H2401 0.950 . S
C2425 C2424 1.524 . S
C2425 C2426 1.415 . S
C2426 H2402 0.950 . S
C2426 C2421 1.363 . S
C2426 C2425 1.415 . S
C2427 H2403 0.951 . S
C2427 C2428 1.366 . S
C2427 C2429 1.388 . S
C2428 C2427 1.366 . S
C2428 C2432 1.385 . S
C2429 H2404 0.951 . S
C2429 C2427 1.388 . S
C2429 C2430 1.366 . S
C2430 C2429 1.366 . S
C2430 C2431 1.414 . S
C2430 C2433 1.499 . S
C2431 H2405 0.950 . S
C2431 C2430 1.414 . S
C2431 C2432 1.374 . S
C2432 H2406 0.950 . S
C2432 C2428 1.385 . S
C2432 C2431 1.374 . S
C2433 C2430 1.499 . S
C2433 C2434 1.373 . S
C2433 C2435 1.389 . S
C2434 H2407 0.950 . S
C2434 C2420 1.377 . S
C2434 C2433 1.373 . S
C2435 C2419 1.377 . S
C2435 C2433 1.389 . S
C2435 C2436 1.524 . S
C2436 C2435 1.524 . S
C2436 C2437 1.397 . S
C2436 C2441 1.363 . S
C2437 H2408 0.950 . S
C2437 C2436 1.397 . S
C2437 C2438 1.334 . S
C2438 H2409 0.950 . S
C2438 C2437 1.334 . S
C2438 C2439 1.287 . S
C2439 C2438 1.287 . S
C2439 C2440 1.524 . S
C2439 H2442 0.999 . S
C2440 H2410 0.950 . S
C2440 C2439 1.524 . S
C2440 C2441 1.415 . S
C2441 H2411 0.950 . S
C2441 C2436 1.363 . S
C2441 C2440 1.415 . S
H2442 C2439 0.999 . S
H2443 C2424 0.913 . S
H2444 C2462 0.951 . S
H2445 C2464 0.951 . S
H2446 C2466 0.950 . S
H2447 C2467 0.950 . S
H2448 C2469 0.950 . S
H2449 C2472 0.950 . S
H2450 C2473 0.950 . S
H2451 C2475 0.950 . S
H2452 C2476 0.950 . S
H2453 C2477 0.951 . S
H2454 C2479 0.951 . S
H2455 C2481 0.950 . S
H2456 C2482 0.950 . S
H2457 C2484 0.950 . S
H2458 C2487 0.950 . S
H2459 C2488 0.950 . S
H2460 C2490 0.950 . S
H2461 C2491 0.950 . S
C2462 H2444 0.951 . S
C2462 C2463 1.366 . S
C2462 C2464 1.388 . S
C2463 C2462 1.366 . S
C2463 C2467 1.385 . S
C2464 H2445 0.951 . S
C2464 C2462 1.388 . S
C2464 C2465 1.366 . S
C2465 C2464 1.366 . S
C2465 C2466 1.414 . S
C2465 C2468 1.499 . S
C2466 H2446 0.950 . S
C2466 C2465 1.414 . S
C2466 C2467 1.374 . S
C2467 H2447 0.950 . S
C2467 C2463 1.385 . S
C2467 C2466 1.374 . S
C2468 C2465 1.499 . S
C2468 C2469 1.373 . S
C2468 C2470 1.389 . S
C2469 H2448 0.950 . S
C2469 C2468 1.373 . S
C2469 C2485 1.377 . S
C2470 C2468 1.389 . S
C2470 C2471 1.524 . S
C2470 C2484 1.377 . S
C2471 C2470 1.524 . S
C2471 C2472 1.397 . S
C2471 C2476 1.363 . S
C2472 H2449 0.950 . S
C2472 C2471 1.397 . S
C2472 C2473 1.334 . S
C2473 H2450 0.950 . S
C2473 C2472 1.334 . S
C2473 C2474 1.287 . S
C2474 C2473 1.287 . S
C2474 C2475 1.524 . S
C2474 H2493 0.913 . S
C2475 H2451 0.950 . S
C2475 C2474 1.524 . S
C2475 C2476 1.415 . S
C2476 H2452 0.950 . S
C2476 C2471 1.363 . S
C2476 C2475 1.415 . S
C2477 H2453 0.951 . S
C2477 C2478 1.366 . S
C2477 C2479 1.388 . S
C2478 C2477 1.366 . S
C2478 C2482 1.385 . S
C2479 H2454 0.951 . S
C2479 C2477 1.388 . S
C2479 C2480 1.366 . S
C2480 C2479 1.366 . S
C2480 C2481 1.414 . S
C2480 C2483 1.499 . S
C2481 H2455 0.950 . S
C2481 C2480 1.414 . S
C2481 C2482 1.374 . S
C2482 H2456 0.950 . S
C2482 C2478 1.385 . S
C2482 C2481 1.374 . S
C2483 C2480 1.499 . S
C2483 C2484 1.373 . S
C2483 C2485 1.389 . S
C2484 H2457 0.950 . S
C2484 C2470 1.377 . S
C2484 C2483 1.373 . S
C2485 C2469 1.377 . S
C2485 C2483 1.389 . S
C2485 C2486 1.524 . S
C2486 C2485 1.524 . S
C2486 C2487 1.397 . S
C2486 C2491 1.363 . S
C2487 H2458 0.950 . S
C2487 C2486 1.397 . S
C2487 C2488 1.334 . S
C2488 H2459 0.950 . S
C2488 C2487 1.334 . S
C2488 C2489 1.287 . S
C2489 C2488 1.287 . S
C2489 C2490 1.524 . S
C2489 H2492 0.999 . S
C2490 H2460 0.950 . S
C2490 C2489 1.524 . S
C2490 C2491 1.415 . S
C2491 H2461 0.950 . S
C2491 C2486 1.363 . S
C2491 C2490 1.415 . S
H2492 C2489 0.999 . S
H2493 C2474 0.913 . S
H2494 C2512 0.951 . S
H2495 C2514 0.951 . S
H2496 C2516 0.950 . S
H2497 C2517 0.950 . S
H2498 C2519 0.950 . S
H2499 C2522 0.950 . S
H2500 C2523 0.950 . S
H2501 C2525 0.950 . S
H2502 C2526 0.950 . S
H2503 C2527 0.951 . S
H2504 C2529 0.951 . S
H2505 C2531 0.950 . S
H2506 C2532 0.950 . S
H2507 C2534 0.950 . S
H2508 C2537 0.950 . S
H2509 C2538 0.950 . S
H2510 C2540 0.950 . S
H2511 C2541 0.950 . S
C2512 H2494 0.951 . S
C2512 C2513 1.366 . S
C2512 C2514 1.388 . S
C2513 C2512 1.366 . S
C2513 C2517 1.385 . S
C2514 H2495 0.951 . S
C2514 C2512 1.388 . S
C2514 C2515 1.366 . S
C2515 C2514 1.366 . S
C2515 C2516 1.414 . S
C2515 C2518 1.499 . S
C2516 H2496 0.950 . S
C2516 C2515 1.414 . S
C2516 C2517 1.374 . S
C2517 H2497 0.950 . S
C2517 C2513 1.385 . S
C2517 C2516 1.374 . S
C2518 C2515 1.499 . S
C2518 C2519 1.373 . S
C2518 C2520 1.389 . S
C2519 H2498 0.950 . S
C2519 C2518 1.373 . S
C2519 C2535 1.377 . S
C2520 C2518 1.389 . S
C2520 C2521 1.524 . S
C2520 C2534 1.377 . S
C2521 C2520 1.524 . S
C2521 C2522 1.397 . S
C2521 C2526 1.363 . S
C2522 H2499 0.950 . S
C2522 C2521 1.397 . S
C2522 C2523 1.334 . S
C2523 H2500 0.950 . S
C2523 C2522 1.334 . S
C2523 C2524 1.287 . S
C2524 C2523 1.287 . S
C2524 C2525 1.524 . S
C2524 H2543 0.913 . S
C2525 H2501 0.950 . S
C2525 C2524 1.524 . S
C2525 C2526 1.415 . S
C2526 H2502 0.950 . S
C2526 C2521 1.363 . S
C2526 C2525 1.415 . S
C2527 H2503 0.951 . S
C2527 C2528 1.366 . S
C2527 C2529 1.388 . S
C2528 C2527 1.366 . S
C2528 C2532 1.385 . S
C2529 H2504 0.951 . S
C2529 C2527 1.388 . S
C2529 C2530 1.366 . S
C2530 C2529 1.366 . S
C2530 C2531 1.414 . S
C2530 C2533 1.499 . S
C2531 H2505 0.950 . S
C2531 C2530 1.414 . S
C2531 C2532 1.374 . S
C2532 H2506 0.950 . S
C2532 C2528 1.385 . S
C2532 C2531 1.374 . S
C2533 C2530 1.499 . S
C2533 C2534 1.373 . S
C2533 C2535 1.389 . S
C2534 H2507 0.950 . S
C2534 C2520 1.377 . S
C2534 C2533 1.373 . S
C2535 C2519 1.377 . S
C2535 C2533 1.389 . S
C2535 C2536 1.524 . S
C2536 C2535 1.524 . S
C2536 C2537 1.397 . S
C2536 C2541 1.363 . S
C2537 H2508 0.950 . S
C2537 C2536 1.397 . S
C2537 C2538 1.334 . S
C2538 H2509 0.950 . S
C2538 C2537 1.334 . S
C2538 C2539 1.287 . S
C2539 C2538 1.287 . S
C2539 C2540 1.524 . S
C2539 H2542 0.999 . S
C2540 H2510 0.950 . S
C2540 C2539 1.524 . S
C2540 C2541 1.415 . S
C2541 H2511 0.950 . S
C2541 C2536 1.363 . S
C2541 C2540 1.415 . S
H2542 C2539 0.999 . S
H2543 C2524 0.913 . S
C563 C2 1.469 . S
C578 C478 1.469 . S
C613 C36 1.469 . S
C628 C512 1.469 . S
C663 C70 1.470 . S
C678 C410 1.470 . S
C713 C104 1.470 . S
C728 C444 1.470 . S
C763 C138 1.470 . S
C778 C342 1.470 . S
C813 C172 1.469 . S
C828 C376 1.469 . S
C863 C274 1.470 . S
C878 C206 1.470 . S
C913 C308 1.470 . S
C928 C240 1.470 . S
C963 C33 0.753 . S
C978 C39 0.753 . S
C1013 C67 0.754 . S
C1028 C73 0.753 . S
C1063 C101 0.754 . S
C1078 C107 0.753 . S
C1113 C5 0.754 . S
C1128 C135 0.754 . S
C1163 C515 0.753 . S
C1178 C169 0.753 . S
C1213 C413 0.753 . S
C1228 C203 0.754 . S
C1263 C447 0.754 . S
C1278 C237 0.754 . S
C1313 C481 0.753 . S
C1328 C271 0.753 . S
C1363 C305 0.753 . S
C1378 C311 0.753 . S
C1413 C339 0.754 . S
C1428 C345 0.754 . S
C1463 C379 0.754 . S
C1478 C373 0.754 . S
C1513 C407 0.753 . S
C1528 C277 0.754 . S
C1563 C441 0.753 . S
C1578 C243 0.754 . S
C1613 C141 0.754 . S
C1628 C475 0.753 . S
C1663 C175 0.754 . S
C1678 C509 0.754 . S
C1713 C543 0.753 . S
C1728 C209 0.753 . S
C1763 C9 1.503 . S
C1778 C77 1.503 . S
C1813 C43 1.504 . S
C1828 C111 1.504 . S
C1863 C213 1.503 . S
C1878 C145 1.504 . S
C1913 C247 1.504 . S
C1928 C179 1.503 . S
C1963 C281 1.503 . S
C1978 C349 1.504 . S
C2013 C315 1.503 . S
C2028 C383 1.503 . S
C2063 C417 1.503 . S
C2078 C485 1.503 . S
C2113 C451 1.503 . S
C2128 C519 1.504 . S
C2163 C156 2.069 . S
C2178 C20 2.069 . S
C2213 C190 2.069 . S
C2228 C54 2.069 . S
C2263 C88 2.069 . S
C2278 C224 2.069 . S
C2313 C258 2.069 . S
C2328 C122 2.069 . S
C2363 C292 2.069 . S
C2378 C428 2.069 . S
C2413 C462 2.069 . S
C2428 C326 2.069 . S
C2463 C496 2.069 . S
C2478 C360 2.069 . S
C2513 C394 2.069 . S
C2528 C530 2.069 . S
