# Generated by pormake.
# Topology wjf, (4)-cn, num edge types: 1
# Building blocks:
#     Node 0, Type 0, BuildingBlock: ICAMEG_clean_sbu_1, # of connection points: 4
#     Node 1, Type 0, BuildingBlock: ICAMEG_clean_sbu_1, # of connection points: 4
#     Node 2, Type 0, BuildingBlock: ICAMEG_clean_sbu_1, # of connection points: 4
#     Node 3, Type 0, BuildingBlock: ICAMEG_clean_sbu_1, # of connection points: 4
#     Node 4, Type 0, BuildingBlock: ICAMEG_clean_sbu_1, # of connection points: 4
#     Node 5, Type 0, BuildingBlock: ICAMEG_clean_sbu_1, # of connection points: 4
#     Node 6, Type 0, BuildingBlock: ICAMEG_clean_sbu_1, # of connection points: 4
#     Node 7, Type 0, BuildingBlock: ICAMEG_clean_sbu_1, # of connection points: 4
#     Node 8, Type 0, BuildingBlock: ICAMEG_clean_sbu_1, # of connection points: 4
#     Node 9, Type 0, BuildingBlock: ICAMEG_clean_sbu_1, # of connection points: 4
#     Node 10, Type 0, BuildingBlock: ICAMEG_clean_sbu_1, # of connection points: 4
#     Node 11, Type 0, BuildingBlock: ICAMEG_clean_sbu_1, # of connection points: 4
#     Edge 12, Type (0, 0), BuildingBlock: TEMPAE_clean_linker_10, # of connection points: 2
#     Edge 13, Type (0, 0), BuildingBlock: TEMPAE_clean_linker_10, # of connection points: 2
#     Edge 14, Type (0, 0), BuildingBlock: TEMPAE_clean_linker_10, # of connection points: 2
#     Edge 15, Type (0, 0), BuildingBlock: TEMPAE_clean_linker_10, # of connection points: 2
#     Edge 16, Type (0, 0), BuildingBlock: TEMPAE_clean_linker_10, # of connection points: 2
#     Edge 17, Type (0, 0), BuildingBlock: TEMPAE_clean_linker_10, # of connection points: 2
#     Edge 18, Type (0, 0), BuildingBlock: TEMPAE_clean_linker_10, # of connection points: 2
#     Edge 19, Type (0, 0), BuildingBlock: TEMPAE_clean_linker_10, # of connection points: 2
#     Edge 20, Type (0, 0), BuildingBlock: TEMPAE_clean_linker_10, # of connection points: 2
#     Edge 21, Type (0, 0), BuildingBlock: TEMPAE_clean_linker_10, # of connection points: 2
#     Edge 22, Type (0, 0), BuildingBlock: TEMPAE_clean_linker_10, # of connection points: 2
#     Edge 23, Type (0, 0), BuildingBlock: TEMPAE_clean_linker_10, # of connection points: 2
#     Edge 24, Type (0, 0), BuildingBlock: TEMPAE_clean_linker_10, # of connection points: 2
#     Edge 25, Type (0, 0), BuildingBlock: TEMPAE_clean_linker_10, # of connection points: 2
#     Edge 26, Type (0, 0), BuildingBlock: TEMPAE_clean_linker_10, # of connection points: 2
#     Edge 27, Type (0, 0), BuildingBlock: TEMPAE_clean_linker_10, # of connection points: 2
#     Edge 28, Type (0, 0), BuildingBlock: TEMPAE_clean_linker_10, # of connection points: 2
#     Edge 29, Type (0, 0), BuildingBlock: TEMPAE_clean_linker_10, # of connection points: 2
#     Edge 30, Type (0, 0), BuildingBlock: TEMPAE_clean_linker_10, # of connection points: 2
#     Edge 31, Type (0, 0), BuildingBlock: TEMPAE_clean_linker_10, # of connection points: 2
#     Edge 32, Type (0, 0), BuildingBlock: TEMPAE_clean_linker_10, # of connection points: 2
#     Edge 33, Type (0, 0), BuildingBlock: TEMPAE_clean_linker_10, # of connection points: 2
#     Edge 34, Type (0, 0), BuildingBlock: TEMPAE_clean_linker_10, # of connection points: 2
#     Edge 35, Type (0, 0), BuildingBlock: TEMPAE_clean_linker_10, # of connection points: 2
# Relax obj value: 0.055
# Max RMSD: 0.073
# Mean RMSD: 0.073
data_MOF--net-wjf--node1-ICAMEG_clean_sbu_1--edge1-TEMPAE_clean_linker_10
_symmetry_space_group_name_H-M    P1
_symmetry_Int_Tables_number       1
_symmetry_cell_setting            triclinic
loop_
_symmetry_equiv_pos_as_xyz
'x, y, z'
_cell_length_a     55.155219
_cell_length_b     55.16629
_cell_length_c     30.484445
_cell_angle_alpha  89.987429
_cell_angle_beta   90.00748
_cell_angle_gamma 119.98442
loop_
_atom_site_label
_atom_site_type_symbol
_atom_site_fract_x
_atom_site_fract_y
_atom_site_fract_z
_atom_type_partial_charge
Co0 Co 0.35249 0.36866 0.07819 0.0
Co1 Co 0.34043 0.42134 0.04321 0.0
O2 O 0.33275 0.38974 0.08109 0.0
C3 C 0.36269 0.38994 0.16879 0.0
O4 O 0.36884 0.4144 0.15257 0.0
C5 C 0.28047 0.38175 0.02563 0.0
O6 O 0.28707 0.3624 0.01739 0.0
O7 O 0.34055 0.40063 0.9897 0.0
O8 O 0.35064 0.36796 0.013 0.0
H9 H 0.38942 0.49104 0.92243 0.0
H10 H 0.30187 0.34869 0.13343 0.0
O11 O 0.3549 0.36897 0.14352 0.0
H12 H 0.27944 0.27239 0.02833 0.0
H13 H 0.37416 0.29442 0.12752 0.0
H14 H 0.39775 0.37111 0.02255 0.0
H15 H 0.32575 0.31528 0.02736 0.0
H16 H 0.34922 0.3211 0.12958 0.0
O17 O 0.29928 0.40634 0.03659 0.0
H18 H 0.3801 0.45142 0.97069 0.0
H19 H 0.31547 0.4582 0.03507 0.0
H20 H 0.42302 0.34479 0.01902 0.0
H21 H 0.25537 0.30604 0.13591 0.0
H22 H 0.41127 0.30614 0.0718 0.0
H23 H 0.24389 0.26755 0.08298 0.0
O24 O 0.38964 0.40374 0.07618 0.0
H25 H 0.30317 0.43331 0.18709 0.0
H26 H 0.37913 0.47841 0.07832 0.0
H27 H 0.38049 0.50417 0.14525 0.0
H28 H 0.3423 0.48161 0.20017 0.0
H29 H 0.30276 0.4082 0.11988 0.0
H30 H 0.32392 0.49777 0.98727 0.0
H31 H 0.3612 0.5145 0.93057 0.0
O32 O 0.38149 0.43694 0.04923 0.0
C33 C 0.34574 0.38085 0.9827 0.0
C34 C 0.37318 0.48401 0.94711 0.0
C35 C 0.33639 0.48776 0.98346 0.0
N36 N 0.34744 0.45267 0.00589 0.0
C37 C 0.36787 0.46164 0.97462 0.0
C38 C 0.33167 0.46531 0.01038 0.0
C39 C 0.35732 0.49714 0.95167 0.0
C40 C 0.29707 0.33196 0.11048 0.0
N41 N 0.31647 0.33448 0.08023 0.0
C42 C 0.27069 0.30789 0.11196 0.0
C43 C 0.26425 0.28632 0.08222 0.0
C44 C 0.28418 0.28903 0.05152 0.0
C45 C 0.31033 0.31341 0.05099 0.0
C46 C 0.37943 0.31118 0.1043 0.0
C47 C 0.39239 0.3542 0.04543 0.0
C48 C 0.36543 0.32641 0.10538 0.0
N49 N 0.37189 0.3475 0.07601 0.0
C50 C 0.40683 0.33942 0.04336 0.0
C51 C 0.40024 0.31776 0.07301 0.0
C52 C 0.39793 0.42863 0.06295 0.0
C53 C 0.31989 0.44339 0.16334 0.0
C54 C 0.36246 0.46843 0.1021 0.0
C55 C 0.36332 0.48314 0.1399 0.0
C56 C 0.34187 0.47047 0.17069 0.0
N57 N 0.3408 0.44188 0.0951 0.0
C58 C 0.31971 0.42932 0.12515 0.0
Co59 Co 0.98317 0.35044 0.41234 0.0
Co60 Co 0.9183 0.3382 0.37772 0.0
O61 O 0.94236 0.33066 0.41552 0.0
C62 C 0.97237 0.36061 0.50311 0.0
O63 O 0.95403 0.36681 0.48713 0.0
C64 C 0.89789 0.27815 0.36106 0.0
O65 O 0.92383 0.28468 0.35291 0.0
O66 O 0.93891 0.33806 0.32409 0.0
O67 O 0.98186 0.34868 0.34715 0.0
H68 H 0.89709 0.38659 0.25656 0.0
H69 H 0.95278 0.29977 0.46754 0.0
O70 O 0.98544 0.35278 0.47764 0.0
H71 H 0.00646 0.27757 0.36163 0.0
H72 H 0.07926 0.37222 0.46078 0.0
H73 H 0.02575 0.39581 0.3566 0.0
H74 H 0.00975 0.32383 0.36098 0.0
H75 H 0.02765 0.3472 0.46321 0.0
O76 O 0.89214 0.29705 0.37159 0.0
H77 H 0.92759 0.37749 0.30471 0.0
H78 H 0.85646 0.31328 0.37023 0.0
H79 H 0.07733 0.42115 0.3527 0.0
H80 H 0.94906 0.25332 0.4697 0.0
H81 H 0.10443 0.4094 0.40508 0.0
H82 H 0.97595 0.24194 0.41636 0.0
O83 O 0.9851 0.38753 0.41057 0.0
H84 H 0.86965 0.30163 0.52219 0.0
H85 H 0.90012 0.37711 0.41262 0.0
H86 H 0.876 0.3788 0.47968 0.0
H87 H 0.86056 0.34085 0.53501 0.0
H88 H 0.89406 0.30089 0.45485 0.0
H89 H 0.82515 0.32152 0.32254 0.0
H90 H 0.84545 0.35849 0.26533 0.0
O91 O 0.94381 0.37929 0.3832 0.0
C92 C 0.96395 0.34352 0.31694 0.0
C93 C 0.88798 0.3705 0.28147 0.0
C94 C 0.84761 0.33395 0.31847 0.0
N95 N 0.89383 0.34506 0.34049 0.0
C96 C 0.90516 0.36531 0.30893 0.0
C97 C 0.86544 0.32934 0.34532 0.0
C98 C 0.85902 0.3547 0.28638 0.0
C99 C 0.96467 0.29502 0.44441 0.0
N100 N 0.98143 0.31447 0.41412 0.0
C101 C 0.96243 0.26867 0.44571 0.0
C102 C 0.9775 0.26229 0.41575 0.0
C103 C 0.9946 0.28226 0.385 0.0
C104 C 0.9963 0.30838 0.38465 0.0
C105 C 0.06769 0.37749 0.43773 0.0
C106 C 0.0374 0.39045 0.37931 0.0
C107 C 0.03847 0.36345 0.43902 0.0
N108 N 0.02372 0.36991 0.40987 0.0
C109 C 0.0666 0.40493 0.37703 0.0
C110 C 0.08179 0.39835 0.40646 0.0
C111 C 0.96851 0.39576 0.39706 0.0
C112 C 0.87621 0.31825 0.49827 0.0
C113 C 0.89351 0.36054 0.43658 0.0
C114 C 0.87982 0.36159 0.47445 0.0
C115 C 0.87115 0.34028 0.50547 0.0
N116 N 0.89837 0.33884 0.42973 0.0
C117 C 0.88994 0.31788 0.45999 0.0
Co118 Co 0.6279 0.98146 0.746 0.0
Co119 Co 0.57795 0.91639 0.7097 0.0
O120 O 0.61004 0.94072 0.74622 0.0
C121 C 0.61409 0.96695 0.8387 0.0
O122 O 0.58896 0.94816 0.8254 0.0
C123 C 0.6183 0.89772 0.68705 0.0
O124 O 0.63663 0.92373 0.67704 0.0
O125 O 0.59759 0.938 0.65625 0.0
O126 O 0.6231 0.98211 0.68132 0.0
H127 H 0.50573 0.8946 0.59268 0.0
H128 H 0.65661 0.95418 0.78783 0.0
O129 O 0.63287 0.98185 0.81084 0.0
H130 H 0.72038 0.01376 0.67091 0.0
H131 H 0.70029 0.07847 0.79368 0.0
H132 H 0.61628 0.02284 0.703 0.0
H133 H 0.6756 0.01241 0.68415 0.0
H134 H 0.67763 0.02697 0.79167 0.0
O135 O 0.59399 0.89133 0.7007 0.0
H136 H 0.54596 0.92535 0.6396 0.0
H137 H 0.54238 0.85447 0.70085 0.0
H138 H 0.6384 0.07429 0.70372 0.0
H139 H 0.7013 0.95507 0.77595 0.0
H140 H 0.68072 0.10246 0.74932 0.0
H141 H 0.73349 0.98498 0.71705 0.0
O142 O 0.5913 0.97958 0.75485 0.0
H143 H 0.56991 0.8662 0.85124 0.0
H144 H 0.52115 0.89608 0.74779 0.0
H145 H 0.49695 0.87053 0.81497 0.0
H146 H 0.52134 0.85537 0.86721 0.0
H147 H 0.59345 0.89207 0.7839 0.0
H148 H 0.50229 0.82293 0.65428 0.0
H149 H 0.48362 0.84298 0.59988 0.0
O150 O 0.56106 0.9408 0.71817 0.0
C151 C 0.61282 0.9643 0.65033 0.0
C152 C 0.5136 0.88561 0.61638 0.0
C153 C 0.5117 0.84539 0.65092 0.0
N154 N 0.5463 0.89172 0.67323 0.0
C155 C 0.53632 0.90291 0.64313 0.0
C156 C 0.53443 0.86334 0.67713 0.0
C157 C 0.50123 0.85665 0.62041 0.0
C158 C 0.67064 0.96743 0.7624 0.0
N159 N 0.66359 0.98333 0.73689 0.0
C160 C 0.69586 0.96777 0.75572 0.0
C161 C 0.7139 0.98453 0.72262 0.0
C162 C 0.70654 0.00067 0.69671 0.0
C163 C 0.68114 0.99978 0.70431 0.0
C164 C 0.68191 0.06643 0.77357 0.0
C165 C 0.63482 0.03497 0.72262 0.0
C166 C 0.66897 0.03727 0.77234 0.0
N167 N 0.64584 0.02195 0.74685 0.0
C168 C 0.6472 0.06409 0.72303 0.0
C169 C 0.67092 0.07988 0.74867 0.0
C170 C 0.56721 0.96337 0.73853 0.0
C171 C 0.55904 0.87263 0.82868 0.0
C172 C 0.53195 0.88964 0.77043 0.0
C173 C 0.51811 0.87512 0.80837 0.0
C174 C 0.5318 0.8666 0.83765 0.0
N175 N 0.55866 0.89547 0.76185 0.0
C176 C 0.57222 0.88718 0.7904 0.0
Co177 Co 0.6492 0.63166 0.07754 0.0
Co178 Co 0.66131 0.57941 0.04072 0.0
O179 O 0.66913 0.61076 0.07922 0.0
C180 C 0.64012 0.61032 0.16808 0.0
O181 O 0.6336 0.58582 0.15155 0.0
C182 C 0.72124 0.619 0.02262 0.0
O183 O 0.71466 0.63833 0.014 0.0
O184 O 0.66103 0.60049 0.9878 0.0
O185 O 0.65021 0.6324 0.01229 0.0
H186 H 0.61204 0.51062 0.91898 0.0
H187 H 0.70056 0.65186 0.13109 0.0
O188 O 0.64765 0.63132 0.14295 0.0
H189 H 0.72125 0.72811 0.02671 0.0
H190 H 0.62764 0.70549 0.12947 0.0
H191 H 0.60313 0.62898 0.02377 0.0
H192 H 0.67507 0.68505 0.02672 0.0
H193 H 0.65285 0.67906 0.12985 0.0
O194 O 0.70244 0.59445 0.03378 0.0
H195 H 0.62146 0.54987 0.96816 0.0
H196 H 0.68625 0.5426 0.0311 0.0
H197 H 0.57757 0.65505 0.02193 0.0
H198 H 0.74695 0.69467 0.13256 0.0
H199 H 0.58978 0.6936 0.07508 0.0
H200 H 0.75756 0.73314 0.07999 0.0
O201 O 0.61215 0.59647 0.07629 0.0
H202 H 0.69898 0.56641 0.18349 0.0
H203 H 0.62272 0.52208 0.07504 0.0
H204 H 0.62157 0.49583 0.14125 0.0
H205 H 0.65992 0.518 0.196 0.0
H206 H 0.69918 0.59201 0.11702 0.0
H207 H 0.67769 0.50341 0.98235 0.0
H208 H 0.64028 0.48711 0.92591 0.0
O209 O 0.62025 0.56375 0.04715 0.0
C210 C 0.65528 0.61995 0.98147 0.0
C211 C 0.62833 0.51746 0.94355 0.0
C212 C 0.66521 0.51344 0.97907 0.0
N213 N 0.6542 0.54835 0.0027 0.0
C214 C 0.6337 0.53962 0.97158 0.0
C215 C 0.66999 0.53568 0.00652 0.0
C216 C 0.64421 0.5043 0.94742 0.0
C217 C 0.70498 0.66859 0.1083 0.0
N218 N 0.68515 0.66596 0.07881 0.0
C219 C 0.7313 0.69274 0.10921 0.0
C220 C 0.73725 0.7143 0.07967 0.0
C221 C 0.71689 0.71149 0.04974 0.0
C222 C 0.69082 0.68701 0.04976 0.0
C223 C 0.62216 0.68877 0.10609 0.0
C224 C 0.60869 0.64586 0.0468 0.0
C225 C 0.63632 0.67369 0.10622 0.0
N226 N 0.6296 0.65264 0.07664 0.0
C227 C 0.59408 0.66049 0.04569 0.0
C228 C 0.60093 0.6821 0.07555 0.0
C229 C 0.60385 0.57177 0.06212 0.0
C230 C 0.68219 0.5565 0.15981 0.0
C231 C 0.63946 0.5319 0.09876 0.0
C232 C 0.63872 0.51691 0.13615 0.0
C233 C 0.66025 0.52935 0.16684 0.0
N234 N 0.66108 0.55851 0.09207 0.0
C235 C 0.68225 0.57085 0.12203 0.0
Co236 Co 0.01704 0.64721 0.40967 0.0
Co237 Co 0.08262 0.65926 0.37946 0.0
O238 O 0.05774 0.66675 0.41533 0.0
C239 C 0.02568 0.63573 0.50085 0.0
O240 O 0.0446 0.63007 0.48581 0.0
C241 C 0.1032 0.71921 0.36185 0.0
O242 O 0.07734 0.71259 0.35275 0.0
O243 O 0.06312 0.65932 0.32436 0.0
O244 O 0.02011 0.65017 0.34469 0.0
H245 H 0.10647 0.61077 0.26187 0.0
H246 H 0.04627 0.69694 0.46712 0.0
O247 O 0.01306 0.64375 0.47478 0.0
H248 H 0.99548 0.72125 0.35871 0.0
H249 H 0.91991 0.62518 0.45225 0.0
H250 H 0.97581 0.60302 0.35089 0.0
H251 H 0.99194 0.67488 0.35731 0.0
H252 H 0.9714 0.64986 0.45804 0.0
O253 O 0.10886 0.70042 0.3735 0.0
H254 H 0.07493 0.6199 0.30739 0.0
H255 H 0.14459 0.68428 0.37539 0.0
H256 H 0.92439 0.57804 0.34362 0.0
H257 H 0.05018 0.74347 0.47007 0.0
H258 H 0.89608 0.58907 0.39457 0.0
H259 H 0.02475 0.7559 0.41548 0.0
O260 O 0.01485 0.61001 0.4074 0.0
H261 H 0.12811 0.696 0.52591 0.0
H262 H 0.10013 0.62045 0.41714 0.0
H263 H 0.12274 0.61884 0.48601 0.0
H264 H 0.13692 0.65682 0.54095 0.0
H265 H 0.10521 0.69668 0.45676 0.0
H266 H 0.17693 0.67601 0.33036 0.0
H267 H 0.15788 0.63895 0.27323 0.0
O268 O 0.05707 0.61819 0.38471 0.0
C269 C 0.03858 0.65487 0.31568 0.0
C270 C 0.11502 0.62691 0.28675 0.0
C271 C 0.15456 0.66356 0.32515 0.0
N272 N 0.10789 0.65242 0.34425 0.0
C273 C 0.09726 0.63212 0.31271 0.0
C274 C 0.13616 0.66818 0.35049 0.0
C275 C 0.14386 0.64275 0.29311 0.0
C276 C 0.03501 0.70216 0.44343 0.0
N277 N 0.01893 0.68326 0.41202 0.0
C278 C 0.03736 0.72855 0.44519 0.0
C279 C 0.0231 0.73552 0.41452 0.0
C280 C 0.0067 0.7161 0.38263 0.0
C281 C 0.00487 0.68992 0.38186 0.0
C282 C 0.93201 0.62022 0.42981 0.0
C283 C 0.96364 0.60806 0.37298 0.0
C284 C 0.96117 0.63407 0.43301 0.0
N285 N 0.97659 0.62801 0.40462 0.0
C286 C 0.93453 0.59379 0.3688 0.0
C287 C 0.91866 0.59997 0.39743 0.0
C288 C 0.03182 0.60173 0.39618 0.0
C289 C 0.1221 0.67937 0.50217 0.0
C290 C 0.1062 0.63704 0.44091 0.0
C291 C 0.11904 0.63604 0.47981 0.0
C292 C 0.127 0.65736 0.51062 0.0
N293 N 0.10149 0.65872 0.43285 0.0
C294 C 0.10924 0.67971 0.46288 0.0
Co295 Co 0.36782 0.01789 0.74617 0.0
Co296 Co 0.42224 0.08085 0.70902 0.0
O297 O 0.38989 0.05867 0.74652 0.0
C298 C 0.38749 0.03114 0.83724 0.0
O299 O 0.41239 0.04845 0.82129 0.0
C300 C 0.38436 0.10248 0.68623 0.0
O301 O 0.3647 0.07662 0.67827 0.0
O302 O 0.40176 0.05914 0.65603 0.0
O303 O 0.36846 0.01722 0.68102 0.0
H304 H 0.49265 0.09627 0.59192 0.0
H305 H 0.34812 0.05106 0.79546 0.0
O306 O 0.36684 0.01763 0.81152 0.0
H307 H 0.27363 0.99632 0.68806 0.0
H308 H 0.29063 0.92444 0.79887 0.0
H309 H 0.3698 0.97277 0.69626 0.0
H310 H 0.31562 0.99141 0.69238 0.0
H311 H 0.31858 0.976 0.79748 0.0
O312 O 0.40858 0.10782 0.69871 0.0
H313 H 0.45208 0.06814 0.63987 0.0
H314 H 0.46091 0.14214 0.69783 0.0
H315 H 0.34223 0.92118 0.69623 0.0
H316 H 0.30636 0.05646 0.79258 0.0
H317 H 0.30234 0.89668 0.74784 0.0
H318 H 0.26879 0.02902 0.73847 0.0
O319 O 0.40221 0.01459 0.7482 0.0
H320 H 0.43428 0.13419 0.84861 0.0
H321 H 0.47845 0.0982 0.74693 0.0
H322 H 0.50391 0.1238 0.81334 0.0
H323 H 0.48182 0.14203 0.86468 0.0
H324 H 0.40945 0.10824 0.78204 0.0
H325 H 0.50146 0.1711 0.65024 0.0
H326 H 0.51765 0.14815 0.59694 0.0
O327 O 0.43644 0.05445 0.71882 0.0
C328 C 0.38191 0.0341 0.64997 0.0
C329 C 0.48587 0.10652 0.61513 0.0
C330 C 0.49079 0.14851 0.64782 0.0
N331 N 0.45432 0.10347 0.6719 0.0
C332 C 0.46297 0.09069 0.64247 0.0
C333 C 0.46779 0.13201 0.67463 0.0
C334 C 0.49986 0.13562 0.61793 0.0
C335 C 0.33176 0.03891 0.77204 0.0
N336 N 0.33429 0.02093 0.74413 0.0
C337 C 0.30821 0.04212 0.77047 0.0
C338 C 0.28715 0.02674 0.74007 0.0
C339 C 0.28987 0.00841 0.71175 0.0
C340 C 0.31373 0.00578 0.71423 0.0
C341 C 0.30793 0.93487 0.77617 0.0
C342 C 0.35234 0.96226 0.71859 0.0
C343 C 0.32386 0.96405 0.77531 0.0
N344 N 0.34566 0.97737 0.74659 0.0
C345 C 0.33687 0.93304 0.71853 0.0
C346 C 0.3145 0.91931 0.74752 0.0
C347 C 0.42731 0.03007 0.7349 0.0
C348 C 0.44416 0.12641 0.82642 0.0
C349 C 0.46867 0.10601 0.76916 0.0
C350 C 0.48321 0.12054 0.80667 0.0
C351 C 0.47082 0.13077 0.83545 0.0
N352 N 0.44255 0.10186 0.7605 0.0
C353 C 0.43025 0.11181 0.78858 0.0
Co354 Co 0.63341 0.64798 0.57947 0.0
Co355 Co 0.58065 0.66168 0.60754 0.0
O356 O 0.61293 0.66811 0.57232 0.0
C357 C 0.61355 0.63584 0.48825 0.0
O358 O 0.58906 0.63071 0.50294 0.0
C359 C 0.62075 0.72175 0.62307 0.0
O360 O 0.6397 0.71493 0.63324 0.0
O361 O 0.59991 0.66215 0.66322 0.0
O362 O 0.6331 0.65168 0.64431 0.0
H363 H 0.5078 0.61586 0.72526 0.0
H364 H 0.65501 0.69716 0.52055 0.0
O365 O 0.63408 0.64377 0.51451 0.0
H366 H 0.72933 0.72125 0.63031 0.0
H367 H 0.70731 0.62356 0.54016 0.0
H368 H 0.6293 0.60406 0.64008 0.0
H369 H 0.68595 0.67535 0.63233 0.0
H370 H 0.68136 0.64902 0.53246 0.0
O371 O 0.5962 0.70301 0.61178 0.0
H372 H 0.54832 0.62359 0.68056 0.0
H373 H 0.54459 0.68776 0.60917 0.0
H374 H 0.65488 0.57832 0.64925 0.0
H375 H 0.69818 0.7432 0.51695 0.0
H376 H 0.69419 0.58802 0.59903 0.0
H377 H 0.73567 0.75553 0.57222 0.0
O378 O 0.59797 0.61117 0.58226 0.0
H379 H 0.57302 0.69673 0.45892 0.0
H380 H 0.52422 0.62306 0.57014 0.0
H381 H 0.50034 0.62086 0.5006 0.0
H382 H 0.52477 0.65789 0.44442 0.0
H383 H 0.59622 0.69801 0.52876 0.0
H384 H 0.50416 0.6809 0.65333 0.0
H385 H 0.48543 0.64466 0.71175 0.0
O386 O 0.56448 0.62044 0.60396 0.0
C387 C 0.61958 0.65721 0.67268 0.0
C388 C 0.51571 0.63166 0.69981 0.0
C389 C 0.51369 0.66819 0.65948 0.0
N390 N 0.54867 0.65593 0.64208 0.0
C391 C 0.5386 0.63607 0.67432 0.0
C392 C 0.53662 0.67201 0.63464 0.0
C393 C 0.50319 0.64784 0.69224 0.0
C394 C 0.67131 0.70232 0.54453 0.0
N395 N 0.66797 0.68362 0.57666 0.0
C396 C 0.69568 0.72844 0.54241 0.0
C397 C 0.71669 0.73535 0.57346 0.0
C398 C 0.71314 0.71614 0.60608 0.0
C399 C 0.68849 0.69023 0.60719 0.0
C400 C 0.69026 0.61919 0.56228 0.0
C401 C 0.64651 0.60852 0.61829 0.0
C402 C 0.67544 0.63348 0.55801 0.0
N403 N 0.65398 0.62816 0.586 0.0
C404 C 0.66085 0.59382 0.62355 0.0
C405 C 0.68289 0.59925 0.59534 0.0
C406 C 0.57283 0.60349 0.59333 0.0
C407 C 0.56213 0.68052 0.48319 0.0
C408 C 0.535 0.63924 0.54584 0.0
C409 C 0.52136 0.6379 0.50655 0.0
C410 C 0.53507 0.6587 0.47505 0.0
N411 N 0.56154 0.66073 0.55359 0.0
C412 C 0.57512 0.68119 0.52287 0.0
Co413 Co 0.98421 0.63141 0.91142 0.0
Co414 Co 0.91949 0.579 0.94676 0.0
O415 O 0.94341 0.61045 0.90867 0.0
C416 C 0.97298 0.61023 0.82081 0.0
O417 O 0.95481 0.58572 0.83707 0.0
C418 C 0.89909 0.61864 0.96372 0.0
O419 O 0.92497 0.63795 0.97243 0.0
O420 O 0.9403 0.59993 0.00013 0.0
O421 O 0.98322 0.63199 0.97663 0.0
H422 H 0.89871 0.50988 0.06849 0.0
H423 H 0.95363 0.65167 0.85657 0.0
O424 O 0.98615 0.63119 0.84608 0.0
H425 H 0.00781 0.72767 0.962 0.0
H426 H 0.08009 0.7055 0.86185 0.0
H427 H 0.02705 0.62869 0.96665 0.0
H428 H 0.01104 0.68466 0.96259 0.0
H429 H 0.02847 0.67896 0.86002 0.0
O430 O 0.89335 0.59404 0.95286 0.0
H431 H 0.92904 0.54927 0.01989 0.0
H432 H 0.85767 0.54217 0.95484 0.0
H433 H 0.07865 0.65488 0.96994 0.0
H434 H 0.94997 0.69443 0.85449 0.0
H435 H 0.10551 0.69358 0.91725 0.0
H436 H 0.97712 0.73277 0.90758 0.0
O437 O 0.98612 0.59624 0.91315 0.0
H438 H 0.87033 0.56642 0.80262 0.0
H439 H 0.90117 0.52179 0.91234 0.0
H440 H 0.8768 0.49574 0.84559 0.0
H441 H 0.86117 0.51806 0.7902 0.0
H442 H 0.895 0.59182 0.86965 0.0
H443 H 0.82653 0.50283 0.00298 0.0
H444 H 0.84704 0.48637 0.06019 0.0
O445 O 0.94498 0.56338 0.94123 0.0
C446 C 0.96541 0.61941 0.00702 0.0
C447 C 0.88952 0.51678 0.04358 0.0
C448 C 0.84901 0.51286 0.00685 0.0
N449 N 0.89515 0.54784 0.98432 0.0
C450 C 0.90659 0.53902 0.01588 0.0
C451 C 0.86674 0.53517 0.97974 0.0
C452 C 0.86053 0.50363 0.03894 0.0
C453 C 0.96564 0.66834 0.8796 0.0
N454 N 0.98251 0.66567 0.9097 0.0
C455 C 0.96343 0.69247 0.87834 0.0
C456 C 0.97865 0.71396 0.90817 0.0
C457 C 0.99585 0.7111 0.93873 0.0
C458 C 0.99751 0.68666 0.93904 0.0
C459 C 0.06862 0.68871 0.88503 0.0
C460 C 0.0386 0.64564 0.94381 0.0
C461 C 0.0394 0.67357 0.88408 0.0
N462 N 0.02478 0.65244 0.91341 0.0
C463 C 0.06781 0.66033 0.94574 0.0
C464 C 0.08287 0.68202 0.91614 0.0
C465 C 0.96959 0.5715 0.92703 0.0
C466 C 0.87697 0.55644 0.82658 0.0
C467 C 0.89449 0.53167 0.88835 0.0
C468 C 0.88065 0.5168 0.85065 0.0
C469 C 0.87187 0.52932 0.8196 0.0
N470 N 0.89937 0.55825 0.89499 0.0
C471 C 0.89084 0.57068 0.86468 0.0
Co472 Co 0.34961 0.98431 0.24819 0.0
Co473 Co 0.33964 0.91889 0.27428 0.0
O474 O 0.33081 0.94376 0.24099 0.0
C475 C 0.36024 0.97709 0.15616 0.0
O476 O 0.36622 0.95814 0.16998 0.0
C477 C 0.27993 0.89726 0.2952 0.0
O478 O 0.28641 0.92295 0.30522 0.0
O479 O 0.34033 0.93746 0.33077 0.0
O480 O 0.34748 0.98019 0.31301 0.0
H481 H 0.39147 0.89479 0.38564 0.0
H482 H 0.29935 0.9551 0.19177 0.0
O483 O 0.3523 0.98927 0.18322 0.0
H484 H 0.27465 0.00269 0.30537 0.0
H485 H 0.36894 0.08129 0.21087 0.0
H486 H 0.39395 0.02525 0.3071 0.0
H487 H 0.32154 0.00742 0.30408 0.0
H488 H 0.34522 0.02995 0.20309 0.0
O489 O 0.29871 0.89201 0.28185 0.0
H490 H 0.38065 0.92638 0.34349 0.0
H491 H 0.31573 0.85704 0.27571 0.0
H492 H 0.418 0.07651 0.31632 0.0
H493 H 0.25228 0.95002 0.1915 0.0
H494 H 0.40554 0.10489 0.26796 0.0
H495 H 0.23966 0.97384 0.24871 0.0
O496 O 0.38727 0.98748 0.24837 0.0
H497 H 0.30039 0.87495 0.12782 0.0
H498 H 0.37843 0.90298 0.23186 0.0
H499 H 0.37911 0.88156 0.16119 0.0
H500 H 0.33988 0.86738 0.10862 0.0
H501 H 0.30067 0.89666 0.19869 0.0
H502 H 0.32567 0.82465 0.31738 0.0
H503 H 0.36387 0.84351 0.37267 0.0
O504 O 0.38051 0.94516 0.26746 0.0
C505 C 0.34403 0.96153 0.34092 0.0
C506 C 0.37484 0.88632 0.36153 0.0
C507 C 0.33789 0.84696 0.32326 0.0
N508 N 0.34777 0.8936 0.30691 0.0
C509 C 0.36868 0.90412 0.33747 0.0
C510 C 0.33232 0.86539 0.29983 0.0
C511 C 0.35933 0.85755 0.35427 0.0
C512 C 0.29405 0.96567 0.21659 0.0
N513 N 0.31314 0.98151 0.24794 0.0
C514 C 0.26735 0.96266 0.21635 0.0
C515 C 0.26027 0.97601 0.24848 0.0
C516 C 0.27989 0.99218 0.2803 0.0
C517 C 0.30636 0.99469 0.27953 0.0
C518 C 0.37453 0.06915 0.23219 0.0
C519 C 0.38828 0.03745 0.28614 0.0
C520 C 0.36122 0.04009 0.22786 0.0
N521 N 0.36806 0.02462 0.25484 0.0
C522 C 0.40203 0.06647 0.29142 0.0
C523 C 0.39505 0.08238 0.26424 0.0
C524 C 0.39631 0.97079 0.25723 0.0
C525 C 0.31757 0.88097 0.1505 0.0
C526 C 0.36129 0.89689 0.20914 0.0
C527 C 0.36177 0.88473 0.1692 0.0
C528 C 0.33975 0.87676 0.13973 0.0
N529 N 0.33945 0.90093 0.21948 0.0
C530 C 0.31778 0.89316 0.19076 0.0
Co531 Co 0.3689 0.35241 0.57992 0.0
Co532 Co 0.42237 0.34044 0.61079 0.0
O533 O 0.3903 0.33313 0.57429 0.0
C534 C 0.38948 0.36451 0.48902 0.0
O535 O 0.4141 0.37052 0.5044 0.0
C536 C 0.38335 0.28012 0.62614 0.0
O537 O 0.36389 0.28633 0.63584 0.0
O538 O 0.40208 0.33937 0.66556 0.0
O539 O 0.36877 0.34925 0.64492 0.0
H540 H 0.49319 0.3877 0.73079 0.0
H541 H 0.34894 0.30295 0.522 0.0
O542 O 0.36865 0.3561 0.51481 0.0
H543 H 0.27329 0.27775 0.62966 0.0
H544 H 0.29357 0.37399 0.5368 0.0
H545 H 0.37128 0.39623 0.63898 0.0
H546 H 0.31592 0.32424 0.6317 0.0
H547 H 0.32071 0.34964 0.53109 0.0
O548 O 0.40779 0.29927 0.61521 0.0
H549 H 0.45295 0.37888 0.6844 0.0
H550 H 0.45976 0.31591 0.61466 0.0
H551 H 0.3445 0.42088 0.64617 0.0
H552 H 0.30654 0.25631 0.51842 0.0
H553 H 0.30533 0.4098 0.59481 0.0
H554 H 0.26838 0.24342 0.57263 0.0
O555 O 0.40378 0.38969 0.58271 0.0
H556 H 0.43332 0.30626 0.46338 0.0
H557 H 0.47896 0.38023 0.57509 0.0
H558 H 0.50413 0.38317 0.50664 0.0
H559 H 0.48129 0.34599 0.45023 0.0
H560 H 0.40881 0.30426 0.53214 0.0
H561 H 0.49994 0.32388 0.66053 0.0
H562 H 0.51698 0.36008 0.71898 0.0
O563 O 0.43755 0.38153 0.60699 0.0
C564 C 0.38211 0.34404 0.67406 0.0
C565 C 0.48603 0.37194 0.70533 0.0
C566 C 0.48979 0.33609 0.66594 0.0
N567 N 0.45417 0.34708 0.64664 0.0
C568 C 0.4633 0.36691 0.67888 0.0
C569 C 0.46699 0.33163 0.64013 0.0
C570 C 0.49934 0.35641 0.69872 0.0
C571 C 0.33235 0.29754 0.54553 0.0
N572 N 0.33491 0.31627 0.57709 0.0
C573 C 0.30842 0.27109 0.54341 0.0
C574 C 0.28704 0.26386 0.57387 0.0
C575 C 0.28978 0.2831 0.6059 0.0
C576 C 0.31402 0.30935 0.60703 0.0
C577 C 0.31055 0.37897 0.55941 0.0
C578 C 0.35415 0.39117 0.6167 0.0
C579 C 0.32604 0.3653 0.55627 0.0
N580 N 0.34742 0.37138 0.58488 0.0
C581 C 0.33911 0.40525 0.62084 0.0
C582 C 0.31716 0.39905 0.59198 0.0
C583 C 0.42883 0.39798 0.59507 0.0
C584 C 0.44352 0.32254 0.48777 0.0
C585 C 0.46887 0.36398 0.55068 0.0
C586 C 0.48324 0.36574 0.51201 0.0
C587 C 0.47042 0.34486 0.48038 0.0
N588 N 0.44249 0.34201 0.55769 0.0
C589 C 0.42979 0.32146 0.52684 0.0
Co590 Co 0.01635 0.36746 0.9141 0.0
Co591 Co 0.08202 0.42036 0.94514 0.0
O592 O 0.05708 0.38821 0.90897 0.0
C593 C 0.02555 0.38767 0.82293 0.0
O594 O 0.04444 0.41221 0.83811 0.0
C595 C 0.10222 0.38065 0.96311 0.0
O596 O 0.07642 0.36163 0.97294 0.0
O597 O 0.06219 0.40074 -0.0 0.0
O598 O 0.01904 0.36749 0.97913 0.0
H599 H 0.10604 0.49243 0.06321 0.0
H600 H 0.04548 0.34649 0.85734 0.0
O601 O 0.01275 0.36702 0.84893 0.0
H602 H 0.99334 0.27147 0.96524 0.0
H603 H 0.91911 0.29329 0.87029 0.0
H604 H 0.97511 0.37098 0.97215 0.0
H605 H 0.99038 0.31463 0.9663 0.0
H606 H 0.97065 0.31953 0.86526 0.0
O607 O 0.10796 0.40506 0.95111 0.0
H608 H 0.07442 0.45208 0.01724 0.0
H609 H 0.14404 0.45677 0.94989 0.0
H610 H 0.92363 0.3451 0.97865 0.0
H611 H 0.04883 0.30355 0.85473 0.0
H612 H 0.89529 0.30595 0.92745 0.0
H613 H 0.0227 0.26571 0.90906 0.0
O614 O 0.01462 0.40273 0.91613 0.0
H615 H 0.12796 0.42917 0.79908 0.0
H616 H 0.1002 0.47691 0.9079 0.0
H617 H 0.12328 0.50129 0.83936 0.0
H618 H 0.13735 0.4774 0.7844 0.0
H619 H 0.1046 0.40546 0.86788 0.0
H620 H 0.17645 0.49704 -0.00462 0.0
H621 H 0.15748 0.5152 0.05241 0.0
O622 O 0.0568 0.43628 0.93978 0.0
C623 C 0.03745 0.38094 0.00838 0.0
C624 C 0.11457 0.48477 0.03838 0.0
C625 C 0.15408 0.48733 0.00035 0.0
N626 N 0.10735 0.45223 0.98069 0.0
C627 C 0.09676 0.46198 0.01216 0.0
C628 C 0.13563 0.46449 0.97475 0.0
C629 C 0.14342 0.49752 0.03233 0.0
C630 C 0.03393 0.33004 0.88093 0.0
N631 N 0.01781 0.33307 0.91201 0.0
C632 C 0.03596 0.30581 0.87936 0.0
C633 C 0.02132 0.2846 0.90988 0.0
C634 C 0.00486 0.28783 0.94143 0.0
C635 C 0.00336 0.31236 0.94202 0.0
C636 C 0.93124 0.31027 0.89284 0.0
C637 C 0.96291 0.35384 0.94995 0.0
C638 C 0.96042 0.32525 0.89007 0.0
N639 N 0.97586 0.34663 0.91859 0.0
C640 C 0.93378 0.33932 0.9537 0.0
C641 C 0.91788 0.31738 0.92493 0.0
C642 C 0.0317 0.42785 0.92777 0.0
C643 C 0.12199 0.43982 0.82282 0.0
C644 C 0.10622 0.46636 0.88412 0.0
C645 C 0.11933 0.48029 0.8454 0.0
C646 C 0.12723 0.46687 0.81459 0.0
N647 N 0.10119 0.43984 0.89198 0.0
C648 C 0.10887 0.42655 0.86192 0.0
Co649 Co 0.64378 0.0155 0.24885 0.0
Co650 Co 0.66109 0.08264 0.27698 0.0
O651 O 0.66735 0.05604 0.24376 0.0
C652 C 0.64254 0.0257 0.15483 0.0
O653 O 0.63722 0.04553 0.16612 0.0
C654 C 0.72024 0.10107 0.29816 0.0
O655 O 0.71222 0.07542 0.31096 0.0
O656 O 0.6598 0.06354 0.33306 0.0
O657 O 0.63998 0.01825 0.31333 0.0
H658 H 0.61454 0.1119 0.39015 0.0
H659 H 0.69864 0.03945 0.20394 0.0
O660 O 0.64666 0.01176 0.18423 0.0
H661 H 0.70427 0.98518 0.32814 0.0
H662 H 0.61596 0.91581 0.21333 0.0
H663 H 0.59171 0.97724 0.29707 0.0
H664 H 0.66112 0.98698 0.31454 0.0
H665 H 0.64563 0.96716 0.20884 0.0
O666 O 0.70248 0.10734 0.28334 0.0
H667 H 0.62211 0.07822 0.34762 0.0
H668 H 0.68876 0.1449 0.27795 0.0
H669 H 0.5616 0.92601 0.30282 0.0
H670 H 0.74213 0.03801 0.21611 0.0
H671 H 0.57367 0.89493 0.26074 0.0
H672 H 0.74515 0.01079 0.27867 0.0
O673 O 0.60935 0.01783 0.23962 0.0
H674 H 0.70077 0.125 0.12987 0.0
H675 H 0.6247 0.10209 0.23576 0.0
H676 H 0.6251 0.12431 0.16535 0.0
H677 H 0.66336 0.13594 0.11186 0.0
H678 H 0.69941 0.1025 0.20047 0.0
H679 H 0.68212 0.17933 0.32005 0.0
H680 H 0.64468 0.16287 0.37645 0.0
O681 O 0.61953 0.05863 0.27122 0.0
C682 C 0.64843 0.03755 0.34204 0.0
C683 C 0.63085 0.11933 0.36554 0.0
C684 C 0.6688 0.15717 0.32623 0.0
N685 N 0.65564 0.10957 0.31002 0.0
C686 C 0.63517 0.10035 0.34125 0.0
C687 C 0.6725 0.13759 0.30256 0.0
C688 C 0.64779 0.14792 0.35787 0.0
C689 C 0.69972 0.02735 0.23098 0.0
N690 N 0.67733 0.01319 0.25832 0.0
C691 C 0.72443 0.0267 0.23781 0.0
C692 C 0.72612 0.01145 0.27296 0.0
C693 C 0.7032 0.99708 0.30074 0.0
C694 C 0.67884 0.99823 0.29291 0.0
C695 C 0.61052 0.92913 0.23191 0.0
C696 C 0.59721 0.96385 0.27891 0.0
C697 C 0.62721 0.95822 0.22944 0.0
N698 N 0.62054 0.97516 0.25299 0.0
C699 C 0.58003 0.93486 0.28218 0.0
C700 C 0.5868 0.91743 0.25852 0.0
C701 C 0.60234 0.0352 0.25374 0.0
C702 C 0.68403 0.1201 0.15296 0.0
C703 C 0.64138 0.10701 0.2126 0.0
C704 C 0.64153 0.11965 0.17283 0.0
C705 C 0.66301 0.12619 0.14284 0.0
N706 N 0.66208 0.1011 0.22228 0.0
C707 C 0.68322 0.10747 0.19307 0.0
C708 C 0.37555 0.40962 0.24474 0.0
C709 C 0.36626 0.38678 0.21612 0.0
C710 C 0.37992 0.4069 0.28941 0.0
C711 C 0.37487 0.38073 0.30567 0.0
C712 C 0.36539 0.3576 0.27699 0.0
C713 C 0.36116 0.36089 0.23261 0.0
C714 C 0.38995 0.43198 0.31918 0.0
C715 C 0.35975 0.32935 0.29318 0.0
C716 C 0.40831 0.37735 0.41264 0.0
C717 C 0.38592 0.36861 0.44204 0.0
C718 C 0.40513 0.38172 0.36816 0.0
C719 C 0.37897 0.37727 0.35288 0.0
C720 C 0.35635 0.36858 0.38243 0.0
C721 C 0.36008 0.36431 0.42663 0.0
C722 C 0.42967 0.3909 0.33745 0.0
C723 C 0.32814 0.36363 0.36732 0.0
H724 H 0.37956 0.42969 0.23224 0.0
H725 H 0.35401 0.34311 0.21076 0.0
H726 H 0.37461 0.42727 0.34597 0.0
H727 H 0.41006 0.4368 0.33472 0.0
H728 H 0.39299 0.45087 0.30135 0.0
H729 H 0.35274 0.31357 0.26648 0.0
H730 H 0.37895 0.33127 0.30821 0.0
H731 H 0.34338 0.32154 0.31899 0.0
H732 H 0.42834 0.38074 0.42432 0.0
H733 H 0.34268 0.35765 0.44913 0.0
H734 H 0.43448 0.41077 0.32106 0.0
H735 H 0.4243 0.37499 0.31135 0.0
H736 H 0.44876 0.39401 0.3547 0.0
H737 H 0.33044 0.38279 0.35155 0.0
H738 H 0.31294 0.35764 0.39474 0.0
H739 H 0.31935 0.34674 0.34236 0.0
C740 C 0.9659 0.37354 0.5792 0.0
C741 C 0.97931 0.3642 0.55037 0.0
C742 C 0.97319 0.37794 0.62379 0.0
C743 C 0.99437 0.37288 0.63974 0.0
C744 C 0.00788 0.36335 0.61084 0.0
C745 C 1.00016 0.35908 0.56654 0.0
C746 C 0.95829 0.38802 0.65381 0.0
C747 C 0.03054 0.35768 0.62669 0.0
C748 C 0.03155 0.40636 0.74644 0.0
C749 C 0.01793 0.38402 0.77594 0.0
C750 C 0.02389 0.40314 0.702 0.0
C751 C 0.00213 0.37698 0.68687 0.0
C752 C 0.98827 0.3544 0.71649 0.0
C753 C 0.99637 0.35818 0.76064 0.0
C754 C 0.03917 0.42765 0.67121 0.0
C755 C 0.96498 0.32619 0.70152 0.0
H756 H 0.94979 0.37755 0.56694 0.0
H757 H 0.01068 0.35189 0.54452 0.0
H758 H 0.94776 0.3727 0.68066 0.0
H759 H 0.97366 0.40812 0.66925 0.0
H760 H 0.94238 0.39108 0.6362 0.0
H761 H 0.0392 0.35065 0.59984 0.0
H762 H 0.0479 0.37689 0.64158 0.0
H763 H 0.0221 0.34134 0.65254 0.0
H764 H 0.04819 0.4264 0.75803 0.0
H765 H 0.98566 0.34081 0.7832 0.0
H766 H 0.02407 0.43253 0.65509 0.0
H767 H 0.04954 0.42222 0.64492 0.0
H768 H 0.05527 0.44672 0.68833 0.0
H769 H 0.94803 0.32849 0.68602 0.0
H770 H 0.9559 0.31098 0.72896 0.0
H771 H 0.97297 0.31741 0.67636 0.0
C772 C 0.59835 0.96041 0.91683 0.0
C773 C 0.61995 0.97309 0.88591 0.0
C774 C 0.60309 0.96834 0.96109 0.0
C775 C 0.63009 0.9893 0.97464 0.0
C776 C 0.65224 0.00134 0.94393 0.0
C777 C 0.6469 0.99311 0.89989 0.0
C778 C 0.57898 0.95501 0.99305 0.0
C779 C 0.68137 0.02358 0.95729 0.0
C780 C 0.63409 0.031 0.07585 0.0
C781 C 0.64132 0.01774 0.10829 0.0
C782 C 0.63072 0.02215 0.03206 0.0
C783 C 0.63481 0.99959 0.02051 0.0
C784 C 0.64284 0.9866 0.05285 0.0
C785 C 0.64599 0.99582 0.09641 0.0
C786 C 0.6222 0.03655 -0.00167 0.0
C787 C 0.64755 0.9626 0.04161 0.0
H788 H 0.5775 0.94488 0.90629 0.0
H789 H 0.66377 0.00287 0.87623 0.0
H790 H 0.58464 0.94633 0.02155 0.0
H791 H 0.57434 0.97109 0.00583 0.0
H792 H 0.55968 0.93795 0.97777 0.0
H793 H 0.69666 0.02946 0.93003 0.0
H794 H 0.68105 0.0426 0.96824 0.0
H795 H 0.68875 0.0162 0.98539 0.0
H796 H 0.6305 0.04798 0.08476 0.0
H797 H 0.65167 0.9855 0.12128 0.0
H798 H 0.60165 0.0213 0.98396 0.0
H799 H 0.63762 0.04466 0.97113 0.0
H800 H 0.62056 0.05423 0.01248 0.0
H801 H 0.62781 0.94464 0.02926 0.0
H802 H 0.65482 0.95552 0.07029 0.0
H803 H 0.6633 0.96886 0.01502 0.0
C804 C 0.64366 0.63967 0.23267 0.0
C805 C 0.63712 0.61347 0.2156 0.0
C806 C 0.6397 0.64294 0.27717 0.0
C807 C 0.62897 0.61946 0.30535 0.0
C808 C 0.62262 0.593 0.28854 0.0
C809 C 0.62679 0.59031 0.24378 0.0
C810 C 0.6468 0.67151 0.29396 0.0
C811 C 0.61123 0.56753 0.31776 0.0
C812 C 0.64275 0.63446 0.42682 0.0
C813 C 0.61728 0.63151 0.44145 0.0
C814 C 0.64666 0.63012 0.38273 0.0
C815 C 0.62461 0.62277 0.3525 0.0
C816 C 0.5988 0.61961 0.36701 0.0
C817 C 0.59543 0.624 0.41139 0.0
C818 C 0.67447 0.63366 0.36844 0.0
C819 C 0.57486 0.61188 0.33557 0.0
H820 H 0.65169 0.6577 0.21117 0.0
H821 H 0.62168 0.57 0.23083 0.0
H822 H 0.62791 0.67064 0.30839 0.0
H823 H 0.66272 0.67818 0.32036 0.0
H824 H 0.65501 0.68765 0.26771 0.0
H825 H 0.60763 0.54854 0.29967 0.0
H826 H 0.626 0.57135 0.3451 0.0
H827 H 0.59115 0.56341 0.33259 0.0
H828 H 0.65973 0.64013 0.44986 0.0
H829 H 0.57569 0.62166 0.42246 0.0
H830 H 0.68436 0.65079 0.34399 0.0
H831 H 0.6713 0.61427 0.35229 0.0
H832 H 0.68916 0.63857 0.39635 0.0
H833 H 0.5813 0.6282 0.30987 0.0
H834 H 0.55592 0.60954 0.3523 0.0
H835 H 0.56932 0.59193 0.31875 0.0
C836 C 0.96667 0.59041 0.74504 0.0
C837 C 0.97961 0.61343 0.77345 0.0
C838 C 0.97382 0.59317 0.7004 0.0
C839 C 0.99434 0.61956 0.68395 0.0
C840 C 0.00731 0.64289 0.71239 0.0
C841 C 0.99977 0.63955 0.75677 0.0
C842 C 0.9595 0.56788 0.67088 0.0
C843 C 0.02924 0.67138 0.69598 0.0
C844 C 0.03203 0.62374 0.5776 0.0
C845 C 0.0179 0.63166 0.54777 0.0
C846 C 0.02437 0.6194 0.62204 0.0
C847 C 0.00205 0.62301 0.63681 0.0
C848 C 0.98762 0.63085 0.60682 0.0
C849 C 0.99576 0.63514 0.56269 0.0
C850 C 0.04028 0.61114 0.65323 0.0
C851 C 0.96369 0.63489 0.6214 0.0
H852 H 0.9511 0.57017 0.7577 0.0
H853 H 0.0099 0.65747 0.77846 0.0
H854 H 0.94864 0.57201 0.64375 0.0
H855 H 0.97529 0.5636 0.65579 0.0
H856 H 0.94397 0.54886 0.6888 0.0
H857 H 0.03745 0.68733 0.72249 0.0
H858 H 0.047 0.67013 0.68135 0.0
H859 H 0.02029 0.67854 0.66982 0.0
H860 H 0.04914 0.62099 0.5663 0.0
H861 H 0.98462 0.64114 0.53984 0.0
H862 H 0.02566 0.59117 0.66978 0.0
H863 H 0.05032 0.62727 0.67916 0.0
H864 H 0.05673 0.60862 0.63634 0.0
H865 H 0.9472 0.61553 0.63727 0.0
H866 H 0.95416 0.64027 0.59368 0.0
H867 H 0.9712 0.65187 0.64615 0.0
C868 C 0.37165 0.97156 0.07879 0.0
C869 C 0.36405 0.98546 0.10955 0.0
C870 C 0.37597 0.97985 0.03467 0.0
C871 C 0.37267 0.00259 0.02116 0.0
C872 C 0.36507 0.01674 0.05205 0.0
C873 C 0.36078 0.00796 0.09588 0.0
C874 C 0.38392 0.9642 0.00246 0.0
C875 C 0.3614 0.0411 0.03878 0.0
C876 C 0.40635 0.03819 0.91369 0.0
C877 C 0.38357 0.02539 0.88479 0.0
C878 C 0.40305 0.03124 0.95841 0.0
C879 C 0.37638 0.01105 0.9744 0.0
C880 C 0.35322 0.99854 0.94558 0.0
C881 C 0.35708 0.00589 0.90115 0.0
C882 C 0.42817 0.0451 0.98838 0.0
C883 C 0.32444 0.97698 0.96152 0.0
H884 H 0.3742 0.95417 0.08913 0.0
H885 H 0.35503 0.0189 0.11949 0.0
H886 H 0.36787 0.95489 0.97626 0.0
H887 H 0.40408 0.97886 0.9864 0.0
H888 H 0.386 0.9472 0.01839 0.0
H889 H 0.35604 0.05023 0.06706 0.0
H890 H 0.38092 0.05773 0.02348 0.0
H891 H 0.34455 0.03421 0.01389 0.0
H892 H 0.42686 0.0533 0.90129 0.0
H893 H 0.33933 0.99595 0.87908 0.0
H894 H 0.43252 0.02908 0.00236 0.0
H895 H 0.42381 0.05526 0.01627 0.0
H896 H 0.44723 0.06109 0.97109 0.0
H897 H 0.32503 0.9586 0.97497 0.0
H898 H 0.3085 0.96971 0.93501 0.0
H899 H 0.3177 0.9858 0.98847 0.0
C900 C 0.15045 0.39069 0.9458 0.0
C901 C 0.1254 0.37483 0.96894 0.0
C902 C 0.1739 0.38789 0.95424 0.0
C903 C 0.17245 0.36918 0.9873 0.0
C904 C 0.14686 0.35226 0.00956 0.0
C905 C 0.12349 0.35509 -0.00022 0.0
C906 C 0.20061 0.40593 0.92913 0.0
C907 C 0.14461 0.33236 0.04541 0.0
C908 C 0.23313 0.35494 0.9908 0.0
C909 C 0.25148 0.37594 0.01961 0.0
C910 C 0.20676 0.35171 0.98102 0.0
C911 C 0.19849 0.36957 0.00119 0.0
C912 C 0.21636 0.38972 0.03218 0.0
C913 C 0.24272 0.39283 0.04069 0.0
C914 C 0.18844 0.33024 0.94741 0.0
C915 C 0.20813 0.40884 0.05504 0.0
H916 H 0.15189 0.40575 0.92156 0.0
H917 H 0.10417 0.34287 0.01784 0.0
H918 H 0.21658 0.42168 0.9515 0.0
H919 H 0.20917 0.39298 0.91598 0.0
H920 H 0.19743 0.41714 0.90143 0.0
H921 H 0.12263 0.31854 0.05613 0.0
H922 H 0.15334 0.31914 0.03428 0.0
H923 H 0.1571 0.34453 0.07417 0.0
H924 H 0.23988 0.3419 0.97436 0.0
H925 H 0.25673 0.40888 0.06339 0.0
H926 H 0.18737 0.34107 0.91741 0.0
H927 H 0.16677 0.31743 0.95997 0.0
H928 H 0.19651 0.31609 0.93819 0.0
H929 H 0.20725 0.4234 0.03083 0.0
H930 H 0.22315 0.42142 0.08131 0.0
H931 H 0.18697 0.39648 0.0697 0.0
C932 C 0.84877 0.24081 0.37531 0.0
C933 C 0.87467 0.24913 0.35541 0.0
C934 C 0.82551 0.21446 0.36689 0.0
C935 C 0.82808 0.1961 0.33727 0.0
C936 C 0.85446 0.20389 0.31848 0.0
C937 C 0.87757 0.23031 0.32806 0.0
C938 C 0.79786 0.2068 0.3882 0.0
C939 C 0.85794 0.18499 0.28645 0.0
C940 C 0.76652 0.1217 0.33649 0.0
C941 C 0.74949 0.12369 0.3042 0.0
C942 C 0.79288 0.14478 0.34646 0.0
C943 C 0.80247 0.17014 0.32305 0.0
C944 C 0.78605 0.17159 0.28856 0.0
C945 C 0.75968 0.14843 0.27981 0.0
C946 C 0.80967 0.14252 0.38371 0.0
C947 C 0.79569 0.19808 0.2623 0.0
H948 H 0.84651 0.25517 0.39693 0.0
H949 H 0.89757 0.23668 0.31256 0.0
H950 H 0.78292 0.20581 0.3629 0.0
H951 H 0.7886 0.18581 0.40361 0.0
H952 H 0.80001 0.22219 0.41361 0.0
H953 H 0.88029 0.19261 0.2787 0.0
H954 H 0.84846 0.16341 0.29968 0.0
H955 H 0.84684 0.18386 0.2555 0.0
H956 H 0.75868 0.10262 0.35549 0.0
H957 H 0.7467 0.14993 0.25444 0.0
H958 H 0.80958 0.15526 0.41181 0.0
H959 H 0.8318 0.15094 0.37379 0.0
H960 H 0.80105 0.12057 0.39496 0.0
H961 H 0.79585 0.21448 0.28356 0.0
H962 H 0.78189 0.19483 0.23371 0.0
H963 H 0.81736 0.20609 0.25029 0.0
C964 C 0.64495 0.87795 0.6493 0.0
C965 C 0.62478 0.87507 0.68006 0.0
C966 C 0.64861 0.85515 0.63883 0.0
C967 C 0.632 0.82915 0.66017 0.0
C968 C 0.61276 0.82669 0.69303 0.0
C969 C 0.60923 0.8496 0.7023 0.0
C970 C 0.66912 0.85847 0.60332 0.0
C971 C 0.59495 0.79948 0.71709 0.0
C972 C 0.61005 0.75953 0.60602 0.0
C973 C 0.62673 0.75087 0.62801 0.0
C974 C 0.61287 0.78581 0.6142 0.0
C975 C 0.63255 0.80368 0.64572 0.0
C976 C 0.65042 0.79564 0.66648 0.0
C977 C 0.64744 0.76933 0.65709 0.0
C978 C 0.59373 0.79378 0.59076 0.0
C979 C 0.67147 0.81401 0.70054 0.0
H980 H 0.65696 0.8976 0.63197 0.0
H981 H 0.59384 0.84739 0.7265 0.0
H982 H 0.68262 0.85004 0.61435 0.0
H983 H 0.65746 0.8463 0.57401 0.0
H984 H 0.68264 0.88069 0.59351 0.0
H985 H 0.58299 0.80181 0.7445 0.0
H986 H 0.57985 0.78356 0.69395 0.0
H987 H 0.60822 0.79135 0.73047 0.0
H988 H 0.59424 0.74545 0.58307 0.0
H989 H 0.66036 0.76268 0.67421 0.0
H990 H 0.60595 0.81517 0.57687 0.0
H991 H 0.57853 0.79393 0.61445 0.0
H992 H 0.58184 0.779 0.56383 0.0
H993 H 0.68381 0.83588 0.68858 0.0
H994 H 0.68608 0.80646 0.70952 0.0
H995 H 0.66027 0.81433 0.73058 0.0
C996 C 0.75918 0.60859 0.03973 0.0
C997 C 0.75025 0.62481 0.01702 0.0
C998 C 0.78553 0.61155 0.03172 0.0
C999 C 0.80317 0.6308 -0.00047 0.0
C1000 C 0.79472 0.64803 0.97767 0.0
C1001 C 0.76838 0.64501 0.98702 0.0
C1002 C 0.79396 0.59316 0.0564 0.0
C1003 C 0.81277 0.6685 0.94272 0.0
C1004 C 0.87813 0.64512 -0.00174 0.0
C1005 C 0.8759 0.6245 0.96901 0.0
C1006 C 0.85486 0.64827 0.00741 0.0
C1007 C 0.82906 0.63073 0.98613 0.0
C1008 C 0.82726 0.61103 0.95463 0.0
C1009 C 0.85061 0.60797 0.9468 0.0
C1010 C 0.85748 0.66923 0.0416 0.0
C1011 C 0.80029 0.59228 0.93057 0.0
H1012 H 0.74532 0.59316 0.06334 0.0
H1013 H 0.76147 0.65752 0.96932 0.0
H1014 H 0.79459 0.57783 0.03353 0.0
H1015 H 0.81526 0.60594 0.07038 0.0
H1016 H 0.7792 0.58143 0.08344 0.0
H1017 H 0.80466 0.68241 0.93225 0.0
H1018 H 0.83456 0.68161 0.95462 0.0
H1019 H 0.81353 0.65681 0.91363 0.0
H1020 H 0.89764 0.65788 0.01557 0.0
H1021 H 0.84891 0.59222 0.92375 0.0
H1022 H 0.84525 0.65795 0.0711 0.0
H1023 H 0.84869 0.68214 0.02921 0.0
H1024 H 0.87957 0.68332 0.05158 0.0
H1025 H 0.78452 0.57726 0.95396 0.0
H1026 H 0.80318 0.58021 0.90394 0.0
H1027 H 0.79165 0.60485 0.91616 0.0
C1028 C 0.1239 0.76628 0.32617 0.0
C1029 C 0.12645 0.74812 0.35552 0.0
C1030 C 0.14711 0.79249 0.31596 0.0
C1031 C 0.17322 0.80079 0.33623 0.0
C1032 C 0.17542 0.78314 0.36774 0.0
C1033 C 0.15208 0.75691 0.37669 0.0
C1034 C 0.14404 0.8106 0.28181 0.0
C1035 C 0.20274 0.79142 0.39071 0.0
C1036 C 0.24215 0.84848 0.27988 0.0
C1037 C 0.25123 0.87378 0.3022 0.0
C1038 C 0.21607 0.82499 0.28906 0.0
C1039 C 0.19889 0.82668 0.32201 0.0
C1040 C 0.2075 0.85246 0.3436 0.0
C1041 C 0.23352 0.87584 0.33311 0.0
C1042 C 0.20743 0.79804 0.26468 0.0
C1043 C 0.18993 0.85496 0.37934 0.0
H1044 H 0.10413 0.7595 0.30963 0.0
H1045 H 0.15406 0.74304 0.39978 0.0
H1046 H 0.15289 0.83235 0.29397 0.0
H1047 H 0.15601 0.81146 0.25201 0.0
H1048 H 0.12185 0.8025 0.27238 0.0
H1049 H 0.20026 0.7766 0.41734 0.0
H1050 H 0.21814 0.79203 0.36668 0.0
H1051 H 0.21163 0.8127 0.40491 0.0
H1052 H 0.25567 0.8469 0.2556 0.0
H1053 H 0.24052 0.89536 0.35054 0.0
H1054 H 0.18595 0.78939 0.25139 0.0
H1055 H 0.20716 0.78227 0.28758 0.0
H1056 H 0.22186 0.80095 0.23718 0.0
H1057 H 0.16801 0.84634 0.36814 0.0
H1058 H 0.19821 0.87699 0.38988 0.0
H1059 H 0.1895 0.8425 0.40822 0.0
C1060 C 0.359 0.12373 0.64885 0.0
C1061 C 0.37912 0.12594 0.67917 0.0
C1062 C 0.35601 0.14699 0.6389 0.0
C1063 C 0.37317 0.17277 0.6605 0.0
C1064 C 0.39251 0.17463 0.69273 0.0
C1065 C 0.39546 0.15129 0.70131 0.0
C1066 C 0.3355 0.14434 0.60384 0.0
C1067 C 0.41082 0.20157 0.71714 0.0
C1068 C 0.39473 0.24291 0.6083 0.0
C1069 C 0.37792 0.25119 0.63086 0.0
C1070 C 0.39217 0.21667 0.61582 0.0
C1071 C 0.37271 0.19849 0.64732 0.0
C1072 C 0.35486 0.20626 0.66891 0.0
C1073 C 0.35751 0.23248 0.66008 0.0
C1074 C 0.4112 0.20897 0.59144 0.0
C1075 C 0.33413 0.1876 0.70311 0.0
H1076 H 0.34641 0.10417 0.63157 0.0
H1077 H 0.41083 0.15297 0.72515 0.0
H1078 H 0.32194 0.15246 0.61592 0.0
H1079 H 0.34713 0.15718 0.57501 0.0
H1080 H 0.32202 0.12235 0.59294 0.0
H1081 H 0.42291 0.19881 0.7439 0.0
H1082 H 0.42581 0.2176 0.69403 0.0
H1083 H 0.39788 0.20981 0.73146 0.0
H1084 H 0.41032 0.25721 0.58529 0.0
H1085 H 0.34453 0.23887 0.67766 0.0
H1086 H 0.39892 0.18772 0.57707 0.0
H1087 H 0.42651 0.20856 0.61461 0.0
H1088 H 0.42296 0.22403 0.56474 0.0
H1089 H 0.32142 0.16593 0.69054 0.0
H1090 H 0.31983 0.19526 0.71348 0.0
H1091 H 0.3456 0.18669 0.7324 0.0
C1092 C 0.3477 0.33932 0.73126 0.0
C1093 C 0.37475 0.34504 0.72031 0.0
C1094 C 0.34109 0.34308 0.77416 0.0
C1095 C 0.36223 0.35343 0.80662 0.0
C1096 C 0.38941 0.35857 0.79607 0.0
C1097 C 0.39526 0.35397 0.75307 0.0
C1098 C 0.31167 0.33664 0.78445 0.0
C1099 C 0.41261 0.37 0.82973 0.0
C1100 C 0.35484 0.39271 0.90308 0.0
C1101 C 0.3475 0.37307 0.93693 0.0
C1102 C 0.35957 0.38652 0.86038 0.0
C1103 C 0.35621 0.35984 0.85122 0.0
C1104 C 0.3477 0.33955 0.88486 0.0
C1105 C 0.34375 0.34652 0.92742 0.0
C1106 C 0.36901 0.40883 0.82542 0.0
C1107 C 0.34322 0.31065 0.87607 0.0
H1108 H 0.33171 0.33215 0.70614 0.0
H1109 H 0.41624 0.35858 0.74471 0.0
H1110 H 0.30344 0.32256 0.81333 0.0
H1111 H 0.31177 0.35623 0.79296 0.0
H1112 H 0.29717 0.32661 0.75641 0.0
H1113 H 0.43239 0.37222 0.81651 0.0
H1114 H 0.4167 0.39082 0.8411 0.0
H1115 H 0.40626 0.35609 0.85883 0.0
H1116 H 0.35795 0.41331 0.91027 0.0
H1117 H 0.33788 0.33118 0.95335 0.0
H1118 H 0.35429 0.40111 0.7973 0.0
H1119 H 0.38987 0.41377 0.81281 0.0
H1120 H 0.37043 0.42843 0.83784 0.0
H1121 H 0.32847 0.30083 0.8483 0.0
H1122 H 0.33481 0.29674 0.90516 0.0
H1123 H 0.36331 0.31213 0.8665 0.0
C1124 C 0.96068 0.3522 0.23727 0.0
C1125 C 0.97348 0.34546 0.27112 0.0
C1126 C 0.97158 0.3572 0.19455 0.0
C1127 C 0.99544 0.35475 0.18537 0.0
C1128 C 0.00777 0.34686 0.219 0.0
C1129 C 0.99682 0.3426 0.26158 0.0
C1130 C 0.9581 0.36596 0.15958 0.0
C1131 C 0.0328 0.34337 0.2102 0.0
C1132 C 0.00808 0.34645 0.06561 0.0
C1133 C 0.02891 0.37369 0.05455 0.0
C1134 C 0.99763 0.33976 0.10845 0.0
C1135 C 0.00781 0.36101 0.14073 0.0
C1136 C 0.02929 0.38843 0.13003 0.0
C1137 C 0.03985 0.39437 0.08709 0.0
C1138 C 0.97527 0.31011 0.11892 0.0
C1139 C 0.04039 0.41173 0.16349 0.0
H1140 H 0.94276 0.35461 0.24447 0.0
H1141 H 0.00673 0.33724 0.28749 0.0
H1142 H 0.97352 0.38698 0.14691 0.0
H1143 H 0.9515 0.35123 0.1315 0.0
H1144 H 0.93954 0.36669 0.17202 0.0
H1145 H 0.03878 0.3354 0.23932 0.0
H1146 H 0.02831 0.32867 0.18251 0.0
H1147 H 0.05098 0.36375 0.2005 0.0
H1148 H 0.99978 0.33034 0.04065 0.0
H1149 H 0.0558 0.41549 0.07858 0.0
H1150 H 0.9555 0.3096 0.12765 0.0
H1151 H 0.98159 0.30225 0.14772 0.0
H1152 H 0.97109 0.29566 0.09091 0.0
H1153 H 0.02318 0.41511 0.17481 0.0
H1154 H 0.05748 0.43175 0.15011 0.0
H1155 H 0.04838 0.40589 0.19265 0.0
C1156 C 0.62475 0.96174 0.57225 0.0
C1157 C 0.61837 0.97523 0.60532 0.0
C1158 C 0.631 0.97282 0.52963 0.0
C1159 C 0.62981 0.99733 0.51985 0.0
C1160 C 0.62293 0.01072 0.55315 0.0
C1161 C 0.61773 0.99974 0.59571 0.0
C1162 C 0.63897 0.95842 0.49514 0.0
C1163 C 0.62051 0.03631 0.54366 0.0
C1164 C 0.66579 0.04004 0.41817 0.0
C1165 C 0.64374 0.02874 0.38802 0.0
C1166 C 0.66169 0.02973 0.46126 0.0
C1167 C 0.63471 0.00839 0.47443 0.0
C1168 C 0.61224 0.99762 0.44421 0.0
C1169 C 0.61717 0.00761 0.40107 0.0
C1170 C 0.68627 0.04115 0.49232 0.0
C1171 C 0.58299 0.97557 0.45741 0.0
H1172 H 0.62547 0.94292 0.58 0.0
H1173 H 0.61253 0.00998 0.62136 0.0
H1174 H 0.62318 0.95047 0.46847 0.0
H1175 H 0.65936 0.97358 0.4802 0.0
H1176 H 0.64058 0.94059 0.50876 0.0
H1177 H 0.61474 0.04406 0.57326 0.0
H1178 H 0.64061 0.0534 0.53072 0.0
H1179 H 0.6044 0.03135 0.51802 0.0
H1180 H 0.68638 0.05619 0.40758 0.0
H1181 H 0.60018 0.99907 0.37747 0.0
H1182 H 0.6894 0.02387 0.50413 0.0
H1183 H 0.68205 0.05044 0.52153 0.0
H1184 H 0.70596 0.05734 0.47668 0.0
H1185 H 0.58279 0.95612 0.46723 0.0
H1186 H 0.56762 0.97048 0.43046 0.0
H1187 H 0.57606 0.98284 0.48622 0.0
C1188 C 0.65374 0.6635 0.73122 0.0
C1189 C 0.62643 0.65635 0.71919 0.0
C1190 C 0.66004 0.65974 0.77432 0.0
C1191 C 0.63834 0.6479 0.80582 0.0
C1192 C 0.61085 0.64135 0.79418 0.0
C1193 C 0.6053 0.646 0.75102 0.0
C1194 C 0.68975 0.66772 0.78581 0.0
C1195 C 0.58708 0.62832 0.82676 0.0
C1196 C 0.64715 0.60894 0.90144 0.0
C1197 C 0.65311 0.6279 0.93594 0.0
C1198 C 0.64233 0.61522 0.85886 0.0
C1199 C 0.64415 0.64134 0.85047 0.0
C1200 C 0.65113 0.66095 0.88481 0.0
C1201 C 0.65523 0.65387 0.92722 0.0
C1202 C 0.63454 0.59361 0.82312 0.0
C1203 C 0.65393 0.68927 0.87687 0.0
H1204 H 0.67018 0.67179 0.70676 0.0
H1205 H 0.58413 0.64026 0.74172 0.0
H1206 H 0.69678 0.68136 0.81526 0.0
H1207 H 0.69079 0.64865 0.79389 0.0
H1208 H 0.70456 0.67882 0.75851 0.0
H1209 H 0.56714 0.6253 0.81287 0.0
H1210 H 0.58387 0.60766 0.83736 0.0
H1211 H 0.59228 0.6416 0.85648 0.0
H1212 H 0.6453 0.58876 0.90797 0.0
H1213 H 0.65995 0.66869 0.95363 0.0
H1214 H 0.64975 0.6024 0.79573 0.0
H1215 H 0.61365 0.58786 0.80963 0.0
H1216 H 0.63396 0.5743 0.83509 0.0
H1217 H 0.66904 0.70025 0.84994 0.0
H1218 H 0.66105 0.70271 0.90659 0.0
H1219 H 0.63349 0.68665 0.86645 0.0
C1220 C 0.04094 0.64362 0.23709 0.0
C1221 C 0.03034 0.65385 0.26941 0.0
C1222 C 0.03055 0.63921 0.19407 0.0
C1223 C 0.00959 0.64585 0.18307 0.0
C1224 C 0.99981 0.65746 0.21511 0.0
C1225 C 0.01009 0.66102 0.25804 0.0
C1226 C 0.04119 0.62642 0.16088 0.0
C1227 C 0.97803 0.66551 0.20431 0.0
C1228 C 0.99887 0.65302 0.06202 0.0
C1229 C 0.97512 0.62708 0.05276 0.0
C1230 C 0.00989 0.65973 0.10455 0.0
C1231 C 0.9972 0.63977 0.13844 0.0
C1232 C 0.97295 0.61373 0.12955 0.0
C1233 C 0.962 0.60782 0.08686 0.0
C1234 C 0.03537 0.68797 0.11305 0.0
C1235 C 0.95907 0.59177 0.16481 0.0
H1236 H 0.05646 0.63789 0.24586 0.0
H1237 H 0.00207 0.66922 0.28285 0.0
H1238 H 0.02369 0.60596 0.14977 0.0
H1239 H 0.0494 0.64006 0.13154 0.0
H1240 H 0.05802 0.62311 0.17441 0.0
H1241 H 0.97426 0.67624 0.2321 0.0
H1242 H 0.98466 0.67952 0.17529 0.0
H1243 H 0.95797 0.64652 0.19581 0.0
H1244 H 0.00905 0.66808 0.03592 0.0
H1245 H 0.94376 0.58768 0.07991 0.0
H1246 H 0.05323 0.68527 0.12292 0.0
H1247 H 0.03125 0.69861 0.14053 0.0
H1248 H 0.04163 0.70178 0.08373 0.0
H1249 H 0.97414 0.58576 0.17775 0.0
H1250 H 0.94027 0.57265 0.15254 0.0
H1251 H 0.95276 0.60034 0.19265 0.0
C1252 C 0.3375 0.98819 0.40106 0.0
C1253 C 0.34567 0.96904 0.38761 0.0
C1254 C 0.34173 0.99804 0.44428 0.0
C1255 C 0.35498 0.98892 0.47444 0.0
C1256 C 0.36263 0.96902 0.46138 0.0
C1257 C 0.35757 0.95904 0.41811 0.0
C1258 C 0.33265 0.01872 0.45734 0.0
C1259 C 0.37714 0.95911 0.49257 0.0
C1260 C 0.39315 0.03705 0.56997 0.0
C1261 C 0.37447 0.02347 0.6046 0.0
C1262 C 0.38712 0.02592 0.52742 0.0
C1263 C 0.3616 0.00091 0.51927 0.0
C1264 C 0.3424 0.98744 0.55382 0.0
C1265 C 0.34917 0.99875 0.59614 0.0
C1266 C 0.40824 0.04066 0.49134 0.0
C1267 C 0.31477 0.96101 0.54615 0.0
H1268 H 0.32802 0.99572 0.37763 0.0
H1269 H 0.36409 0.94439 0.40766 0.0
H1270 H 0.31924 0.01123 0.48702 0.0
H1271 H 0.35127 0.03911 0.46569 0.0
H1272 H 0.3209 0.02216 0.43079 0.0
H1273 H 0.38089 0.94289 0.47768 0.0
H1274 H 0.39757 0.9771 0.50266 0.0
H1275 H 0.36447 0.95038 0.52275 0.0
H1276 H 0.41283 0.05603 0.57627 0.0
H1277 H 0.33459 0.98809 0.62264 0.0
H1278 H 0.39871 0.04681 0.46468 0.0
H1279 H 0.41463 0.02624 0.47688 0.0
H1280 H 0.42726 0.0597 0.50328 0.0
H1281 H 0.30272 0.96464 0.52038 0.0
H1282 H 0.3018 0.9536 0.57636 0.0
H1283 H 0.31846 0.94414 0.53419 0.0
C1284 C 0.44643 0.44548 0.0914 0.0
C1285 C 0.42821 0.44937 0.06403 0.0
C1286 C 0.47506 0.4655 0.0932 0.0
C1287 C 0.48573 0.48965 0.06636 0.0
C1288 C 0.46747 0.49357 0.03849 0.0
C1289 C 0.43892 0.47353 0.03796 0.0
C1290 C 0.49387 0.46086 0.12382 0.0
C1291 C 0.47814 0.51877 0.00875 0.0
C1292 C 0.55558 0.55434 0.09202 0.0
C1293 C 0.57361 0.55092 0.06351 0.0
C1294 C 0.52699 0.53422 0.09404 0.0
C1295 C 0.51615 0.51048 0.06629 0.0
C1296 C 0.53422 0.50702 0.03731 0.0
C1297 C 0.56275 0.52714 0.03657 0.0
C1298 C 0.50838 0.53836 0.12584 0.0
C1299 C 0.52337 0.48227 0.0066 0.0
H1300 H 0.43824 0.42699 0.11193 0.0
H1301 H 0.42503 0.47666 0.01658 0.0
H1302 H 0.51013 0.45926 0.10472 0.0
H1303 H 0.50487 0.47899 0.14629 0.0
H1304 H 0.48211 0.44155 0.14376 0.0
H1305 H 0.46115 0.51868 0.98901 0.0
H1306 H 0.48841 0.53828 0.02844 0.0
H1307 H 0.49414 0.51935 0.98603 0.0
H1308 H 0.56389 0.57253 0.11322 0.0
H1309 H 0.5765 0.52438 0.01432 0.0
H1310 H 0.49751 0.51986 0.14764 0.0
H1311 H 0.49202 0.54029 0.10762 0.0
H1312 H 0.52028 0.55733 0.14645 0.0
H1313 H 0.51319 0.46248 0.02559 0.0
H1314 H 0.54024 0.48266 0.98616 0.0
H1315 H 0.50726 0.48205 0.98453 0.0
C1316 C 0.03593 0.56074 0.37193 0.0
C1317 C 0.02212 0.57143 0.39715 0.0
C1318 C 0.02733 0.53217 0.37251 0.0
C1319 C 0.00472 0.51389 0.39967 0.0
C1320 C 0.99087 0.52456 0.42564 0.0
C1321 C 0.99955 0.5532 0.42373 0.0
C1322 C 0.04226 0.52151 0.34363 0.0
C1323 C 0.96696 0.50573 0.45555 0.0
C1324 C 0.96546 0.43685 0.37013 0.0
C1325 C 0.97802 0.42601 0.39791 0.0
C1326 C 0.97395 0.4654 0.37042 0.0
C1327 C 0.99514 0.48349 0.39985 0.0
C1328 C 0.00767 0.47265 0.42843 0.0
C1329 C 0.99916 0.44405 0.42679 0.0
C1330 C 0.96051 0.47625 0.33877 0.0
C1331 C 0.03 0.49126 0.46078 0.0
H1332 H 0.05332 0.57467 0.35117 0.0
H1333 H 0.98899 0.5614 0.44362 0.0
H1334 H 0.05127 0.51128 0.36395 0.0
H1335 H 0.02714 0.50549 0.32064 0.0
H1336 H 0.05937 0.53849 0.32422 0.0
H1337 H 0.9591 0.51748 0.47483 0.0
H1338 H 0.9494 0.48948 0.43597 0.0
H1339 H 0.97377 0.49473 0.47862 0.0
H1340 H 0.94919 0.42307 0.34759 0.0
H1341 H 0.00874 0.43572 0.44864 0.0
H1342 H 0.97671 0.49239 0.31712 0.0
H1343 H 0.95059 0.48641 0.35705 0.0
H1344 H 0.94435 0.4594 0.31793 0.0
H1345 H 0.04852 0.50762 0.44299 0.0
H1346 H 0.03681 0.47937 0.48196 0.0
H1347 H 0.02209 0.50214 0.482 0.0
C1348 C 0.52169 0.95878 0.71494 0.0
C1349 C 0.5454 0.97144 0.74209 0.0
C1350 C 0.50164 0.9673 0.71585 0.0
C1351 C 0.50511 0.9887 0.74514 0.0
C1352 C 0.52845 0.0009 0.77376 0.0
C1353 C 0.54846 0.99229 0.77164 0.0
C1354 C 0.47726 0.95408 0.68435 0.0
C1355 C 0.5326 0.02347 0.80591 0.0
C1356 C 0.47195 0.03204 0.71353 0.0
C1357 C 0.44716 0.01946 0.73822 0.0
C1358 C 0.49096 0.02224 0.71562 0.0
C1359 C 0.48531 0.99957 0.74365 0.0
C1360 C 0.46056 0.987 0.76921 0.0
C1361 C 0.44162 0.99695 0.7659 0.0
C1362 C 0.51692 0.03593 0.68733 0.0
C1363 C 0.45409 0.96307 0.79998 0.0
H1364 H 0.51913 0.94268 0.69195 0.0
H1365 H 0.56657 0.002 0.79303 0.0
H1366 H 0.45721 0.94563 0.70246 0.0
H1367 H 0.47838 0.97017 0.66128 0.0
H1368 H 0.47696 0.93687 0.66498 0.0
H1369 H 0.55053 0.02914 0.82835 0.0
H1370 H 0.53645 0.04252 0.78783 0.0
H1371 H 0.51341 0.01652 0.82585 0.0
H1372 H 0.4764 0.04938 0.69193 0.0
H1373 H 0.42262 0.98726 0.78535 0.0
H1374 H 0.51721 0.0202 0.66501 0.0
H1375 H 0.5359 0.04431 0.70817 0.0
H1376 H 0.51817 0.05332 0.66722 0.0
H1377 H 0.45201 0.94492 0.78114 0.0
H1378 H 0.43448 0.95629 0.81878 0.0
H1379 H 0.47159 0.96931 0.82348 0.0
C1380 C 0.55553 0.55458 0.56683 0.0
C1381 C 0.55184 0.57331 0.59318 0.0
C1382 C 0.5352 0.52605 0.56563 0.0
C1383 C 0.51097 0.516 0.59215 0.0
C1384 C 0.50729 0.53477 0.61911 0.0
C1385 C 0.52761 0.56323 0.61894 0.0
C1386 C 0.53958 0.50669 0.5359 0.0
C1387 C 0.48203 0.52476 0.64856 0.0
C1388 C 0.4461 0.44637 0.56616 0.0
C1389 C 0.44934 0.42828 0.59474 0.0
C1390 C 0.46625 0.47495 0.56444 0.0
C1391 C 0.48977 0.4857 0.59267 0.0
C1392 C 0.49288 0.46758 0.62204 0.0
C1393 C 0.47279 0.43905 0.62237 0.0
C1394 C 0.46252 0.49359 0.53215 0.0
C1395 C 0.51734 0.47835 0.65335 0.0
H1396 H 0.57408 0.56231 0.54653 0.0
H1397 H 0.52467 0.57756 0.63953 0.0
H1398 H 0.54078 0.49044 0.55567 0.0
H1399 H 0.52151 0.49571 0.5133 0.0
H1400 H 0.55902 0.518 0.51609 0.0
H1401 H 0.48241 0.54208 0.66772 0.0
H1402 H 0.46258 0.51461 0.62873 0.0
H1403 H 0.48107 0.50882 0.6718 0.0
H1404 H 0.42815 0.43807 0.54444 0.0
H1405 H 0.47534 0.4252 0.6447 0.0
H1406 H 0.48102 0.50396 0.51024 0.0
H1407 H 0.46104 0.51036 0.5499 0.0
H1408 H 0.44346 0.48183 0.51167 0.0
H1409 H 0.53729 0.48797 0.63475 0.0
H1410 H 0.51641 0.46155 0.67461 0.0
H1411 H 0.51777 0.4949 0.67459 0.0
C1412 C 1.00013 0.55372 0.89721 0.0
C1413 C 0.97905 0.55071 0.92618 0.0
C1414 C 0.00856 0.53356 0.89554 0.0
C1415 C 0.99601 0.51022 0.92415 0.0
C1416 C 0.97491 0.50723 0.95369 0.0
C1417 C 0.9665 0.52735 0.95403 0.0
C1418 C 0.0308 0.53716 0.86309 0.0
C1419 C 0.96144 0.48295 0.98536 0.0
C1420 C 0.99982 0.4446 0.90013 0.0
C1421 C 0.02233 0.44871 0.9267 0.0
C1422 C 0.99138 0.46475 0.89823 0.0
C1423 C 0.00542 0.48924 0.92418 0.0
C1424 C 0.028 0.49338 0.95127 0.0
C1425 C 0.03634 0.47321 0.95187 0.0
C1426 C 0.96749 0.45986 0.86841 0.0
C1427 C 0.04313 0.51895 0.98011 0.0
H1428 H 0.0097 0.57159 0.87532 0.0
H1429 H 0.95029 0.52494 0.97665 0.0
H1430 H 0.04928 0.53915 0.88079 0.0
H1431 H 0.02276 0.5184 0.84178 0.0
H1432 H 0.03771 0.55591 0.842 0.0
H1433 H 0.9454 0.48377 0.00636 0.0
H1434 H 0.95136 0.46288 0.96708 0.0
H1435 H 0.97765 0.4829 0.00686 0.0
H1436 H 0.98909 0.42584 0.88027 0.0
H1437 H 0.05368 0.47651 0.97261 0.0
H1438 H 0.97437 0.47772 0.84542 0.0
H1439 H 0.95 0.45863 0.88808 0.0
H1440 H 0.95953 0.44029 0.84903 0.0
H1441 H 0.05216 0.5382 0.95979 0.0
H1442 H 0.06026 0.51898 -0.00067 0.0
H1443 H 0.02814 0.51996 0.00327 0.0
C1444 C 0.55453 0.00725 0.22098 0.0
C1445 C 0.57259 0.02756 0.25095 0.0
C1446 C 0.52603 0.99913 0.21932 0.0
C1447 C 0.51528 0.01117 0.24898 0.0
C1448 C 0.53348 0.03194 0.27888 0.0
C1449 C 0.56196 0.04009 0.2792 0.0
C1450 C 0.50734 0.9773 0.18639 0.0
C1451 C 0.5227 0.04488 0.3116 0.0
C1452 C 0.44421 0.00465 0.22897 0.0
C1453 C 0.42677 0.98142 0.25505 0.0
C1454 C 0.47305 0.01435 0.22607 0.0
C1455 C 0.48472 0.00086 0.25058 0.0
C1456 C 0.46725 0.9776 0.27729 0.0
C1457 C 0.43847 0.96798 0.27881 0.0
C1458 C 0.49098 0.03887 0.19656 0.0
C1459 C 0.47898 0.96298 0.3046 0.0
H1460 H 0.56268 0.99769 0.19877 0.0
H1461 H 0.57576 0.05571 0.30258 0.0
H1462 H 0.49185 0.95807 0.20377 0.0
H1463 H 0.49545 0.98498 0.16716 0.0
H1464 H 0.51935 0.97168 0.16333 0.0
H1465 H 0.53977 0.06147 0.3316 0.0
H1466 H 0.51146 0.05407 0.29443 0.0
H1467 H 0.50749 0.02845 0.33401 0.0
H1468 H 0.43523 0.01494 0.21021 0.0
H1469 H 0.42516 0.9501 0.29918 0.0
H1470 H 0.50192 0.03279 0.17218 0.0
H1471 H 0.5073 0.05635 0.21617 0.0
H1472 H 0.47854 0.04654 0.17876 0.0
H1473 H 0.4892 0.95452 0.28308 0.0
H1474 H 0.46259 0.9455 0.32426 0.0
H1475 H 0.49523 0.97815 0.32727 0.0
loop_
_geom_bond_atom_site_label_1
_geom_bond_atom_site_label_2
_geom_bond_distance
_geom_bond_site_symmetry_2
_ccdc_geom_bond_type
Co0 O2 2.143 . S
Co0 O8 2.074 . S
Co0 O11 2.093 . S
Co0 O24 2.097 . S
Co0 N41 2.151 . S
Co0 N49 2.214 . S
Co1 O2 2.160 . S
Co1 O7 2.058 1_554 S
Co1 O17 2.057 . S
Co1 O32 2.037 . S
Co1 N36 2.145 1_554 S
Co1 N57 2.257 . S
O2 Co0 2.143 . S
O2 Co1 2.160 . S
C3 O4 1.278 . S
C3 O11 1.224 . S
O4 C3 1.278 . S
C5 O6 1.245 . S
C5 O17 1.232 . S
O6 C5 1.245 . S
O7 Co1 2.058 1_556 S
O7 C33 1.269 . S
O8 Co0 2.074 . S
O8 C33 1.257 1_554 S
H9 C34 0.930 . S
H10 C40 0.930 . S
O11 Co0 2.093 . S
O11 C3 1.224 . S
H12 C44 0.929 . S
H13 C46 0.930 . S
H14 C47 0.930 . S
H15 C45 0.929 . S
H16 C48 0.928 . S
O17 Co1 2.057 . S
O17 C5 1.232 . S
H18 C37 0.929 . S
H19 C38 0.929 . S
H20 C50 0.931 . S
H21 C42 0.929 . S
H22 C51 0.930 . S
H23 C43 0.931 . S
O24 Co0 2.097 . S
O24 C52 1.214 . S
H25 C53 0.929 . S
H26 C54 0.929 . S
H27 C55 0.930 . S
H28 C56 0.929 . S
H29 C58 0.930 . S
H30 C35 0.930 . S
H31 C39 0.930 . S
O32 Co1 2.037 . S
O32 C52 1.234 . S
C33 O7 1.269 . S
C33 O8 1.257 1_556 S
C34 H9 0.930 . S
C34 C37 1.388 . S
C34 C39 1.418 . S
C35 H30 0.930 . S
C35 C38 1.404 . S
C35 C39 1.353 . S
N36 Co1 2.145 1_556 S
N36 C37 1.397 . S
N36 C38 1.334 . S
C37 H18 0.929 . S
C37 C34 1.388 . S
C37 N36 1.397 . S
C38 H19 0.929 . S
C38 C35 1.404 . S
C38 N36 1.334 . S
C39 H31 0.930 . S
C39 C34 1.418 . S
C39 C35 1.353 . S
C40 H10 0.930 . S
C40 N41 1.330 . S
C40 C42 1.446 . S
N41 Co0 2.151 . S
N41 C40 1.330 . S
N41 C45 1.418 . S
C42 H21 0.929 . S
C42 C40 1.446 . S
C42 C43 1.332 . S
C43 H23 0.931 . S
C43 C42 1.332 . S
C43 C44 1.267 . S
C44 H12 0.929 . S
C44 C43 1.267 . S
C44 C45 1.251 . S
C45 H15 0.929 . S
C45 N41 1.418 . S
C45 C44 1.251 . S
C46 H13 0.930 . S
C46 C48 1.406 . S
C46 C51 1.261 . S
C47 H14 0.930 . S
C47 N49 1.325 . S
C47 C50 1.357 . S
C48 H16 0.928 . S
C48 C46 1.406 . S
C48 N49 1.261 . S
N49 Co0 2.214 . S
N49 C47 1.325 . S
N49 C48 1.261 . S
C50 H20 0.931 . S
C50 C47 1.357 . S
C50 C51 1.312 . S
C51 H22 0.930 . S
C51 C46 1.261 . S
C51 C50 1.312 . S
C52 O24 1.214 . S
C52 O32 1.234 . S
C53 H25 0.929 . S
C53 C56 1.391 . S
C53 C58 1.391 . S
C54 H26 0.929 . S
C54 C55 1.390 . S
C54 N57 1.391 . S
C55 H27 0.930 . S
C55 C54 1.390 . S
C55 C56 1.392 . S
C56 H28 0.929 . S
C56 C53 1.391 . S
C56 C55 1.392 . S
N57 Co1 2.257 . S
N57 C54 1.391 . S
N57 C58 1.388 . S
C58 H29 0.930 . S
C58 C53 1.391 . S
C58 N57 1.388 . S
Co59 O61 2.143 . S
Co59 O67 2.074 . S
Co59 O70 2.093 . S
Co59 O83 2.097 . S
Co59 N100 2.151 1_655 S
Co59 N108 2.214 1_655 S
Co60 O61 2.160 . S
Co60 O66 2.058 . S
Co60 O76 2.057 . S
Co60 O91 2.037 . S
Co60 N95 2.145 . S
Co60 N116 2.257 . S
O61 Co59 2.143 . S
O61 Co60 2.160 . S
C62 O63 1.278 . S
C62 O70 1.232 . S
O63 C62 1.278 . S
C64 O65 1.245 . S
C64 O76 1.232 . S
O65 C64 1.245 . S
O66 Co60 2.058 . S
O66 C92 1.269 . S
O67 Co59 2.074 . S
O67 C92 1.257 . S
H68 C93 0.930 . S
H69 C99 0.930 1_655 S
O70 Co59 2.093 . S
O70 C62 1.232 . S
H71 C103 0.929 . S
H72 C105 0.930 . S
H73 C106 0.930 . S
H74 C104 0.929 . S
H75 C107 0.928 . S
O76 Co60 2.057 . S
O76 C64 1.232 . S
H77 C96 0.929 . S
H78 C97 0.929 . S
H79 C109 0.931 . S
H80 C101 0.929 . S
H81 C110 0.930 . S
H82 C102 0.931 . S
O83 Co59 2.097 . S
O83 C111 1.214 . S
H84 C112 0.929 . S
H85 C113 0.929 . S
H86 C114 0.930 . S
H87 C115 0.929 . S
H88 C117 0.930 . S
H89 C94 0.930 . S
H90 C98 0.930 . S
O91 Co60 2.037 . S
O91 C111 1.234 . S
C92 O66 1.269 . S
C92 O67 1.257 . S
C93 H68 0.930 . S
C93 C96 1.388 . S
C93 C98 1.418 . S
C94 H89 0.930 . S
C94 C97 1.404 . S
C94 C98 1.353 . S
N95 Co60 2.145 . S
N95 C96 1.397 . S
N95 C97 1.334 . S
C96 H77 0.929 . S
C96 C93 1.388 . S
C96 N95 1.397 . S
C97 H78 0.929 . S
C97 C94 1.404 . S
C97 N95 1.334 . S
C98 H90 0.930 . S
C98 C93 1.418 . S
C98 C94 1.353 . S
C99 H69 0.930 1_455 S
C99 N100 1.330 . S
C99 C101 1.446 . S
N100 Co59 2.151 1_455 S
N100 C99 1.330 . S
N100 C104 1.418 . S
C101 H80 0.929 . S
C101 C99 1.446 . S
C101 C102 1.332 . S
C102 H82 0.931 . S
C102 C101 1.332 . S
C102 C103 1.267 . S
C103 H71 0.929 . S
C103 C102 1.267 . S
C103 C104 1.251 . S
C104 H74 0.929 . S
C104 N100 1.418 . S
C104 C103 1.251 . S
C105 H72 0.930 . S
C105 C107 1.406 . S
C105 C110 1.261 . S
C106 H73 0.930 . S
C106 N108 1.325 . S
C106 C109 1.357 . S
C107 H75 0.928 . S
C107 C105 1.406 . S
C107 N108 1.261 . S
N108 Co59 2.214 1_455 S
N108 C106 1.325 . S
N108 C107 1.261 . S
C109 H79 0.931 . S
C109 C106 1.357 . S
C109 C110 1.312 . S
C110 H81 0.930 . S
C110 C105 1.261 . S
C110 C109 1.312 . S
C111 O83 1.214 . S
C111 O91 1.234 . S
C112 H84 0.929 . S
C112 C115 1.391 . S
C112 C117 1.391 . S
C113 H85 0.929 . S
C113 C114 1.390 . S
C113 N116 1.391 . S
C114 H86 0.930 . S
C114 C113 1.390 . S
C114 C115 1.392 . S
C115 H87 0.929 . S
C115 C112 1.391 . S
C115 C114 1.392 . S
N116 Co60 2.257 . S
N116 C113 1.391 . S
N116 C117 1.388 . S
C117 H88 0.930 . S
C117 C112 1.391 . S
C117 N116 1.388 . S
Co118 O120 2.143 . S
Co118 O126 2.074 . S
Co118 O129 2.092 . S
Co118 O142 2.097 . S
Co118 N159 2.151 1_565 S
Co118 N167 2.214 1_565 S
Co119 O120 2.160 . S
Co119 O125 2.058 . S
Co119 O135 2.057 . S
Co119 O150 2.037 . S
Co119 N154 2.145 . S
Co119 N175 2.257 . S
O120 Co118 2.143 . S
O120 Co119 2.160 . S
C121 O122 1.278 . S
C121 O129 1.233 . S
O122 C121 1.278 . S
C123 O124 1.245 . S
C123 O135 1.232 . S
O124 C123 1.245 . S
O125 Co119 2.058 . S
O125 C151 1.269 . S
O126 Co118 2.074 . S
O126 C151 1.257 . S
H127 C152 0.930 . S
H128 C158 0.930 1_565 S
O129 Co118 2.092 . S
O129 C121 1.233 . S
H130 C162 0.929 . S
H131 C164 0.930 . S
H132 C165 0.930 . S
H133 C163 0.929 . S
H134 C166 0.928 . S
O135 Co119 2.057 . S
O135 C123 1.232 . S
H136 C155 0.929 . S
H137 C156 0.929 . S
H138 C168 0.931 . S
H139 C160 0.929 . S
H140 C169 0.930 . S
H141 C161 0.931 . S
O142 Co118 2.097 . S
O142 C170 1.214 . S
H143 C171 0.929 . S
H144 C172 0.929 . S
H145 C173 0.930 . S
H146 C174 0.929 . S
H147 C176 0.930 . S
H148 C153 0.930 . S
H149 C157 0.930 . S
O150 Co119 2.037 . S
O150 C170 1.234 . S
C151 O125 1.269 . S
C151 O126 1.257 . S
C152 H127 0.930 . S
C152 C155 1.388 . S
C152 C157 1.418 . S
C153 H148 0.930 . S
C153 C156 1.404 . S
C153 C157 1.353 . S
N154 Co119 2.145 . S
N154 C155 1.397 . S
N154 C156 1.334 . S
C155 H136 0.929 . S
C155 C152 1.388 . S
C155 N154 1.397 . S
C156 H137 0.929 . S
C156 C153 1.404 . S
C156 N154 1.334 . S
C157 H149 0.930 . S
C157 C152 1.418 . S
C157 C153 1.353 . S
C158 H128 0.930 1_545 S
C158 N159 1.330 . S
C158 C160 1.446 . S
N159 Co118 2.151 1_545 S
N159 C158 1.330 . S
N159 C163 1.418 . S
C160 H139 0.929 . S
C160 C158 1.446 . S
C160 C161 1.332 . S
C161 H141 0.931 . S
C161 C160 1.332 . S
C161 C162 1.267 . S
C162 H130 0.929 . S
C162 C161 1.267 . S
C162 C163 1.251 . S
C163 H133 0.929 . S
C163 N159 1.418 . S
C163 C162 1.251 . S
C164 H131 0.930 . S
C164 C166 1.406 . S
C164 C169 1.261 . S
C165 H132 0.930 . S
C165 N167 1.325 . S
C165 C168 1.357 . S
C166 H134 0.928 . S
C166 C164 1.406 . S
C166 N167 1.261 . S
N167 Co118 2.214 1_545 S
N167 C165 1.325 . S
N167 C166 1.261 . S
C168 H138 0.931 . S
C168 C165 1.357 . S
C168 C169 1.312 . S
C169 H140 0.930 . S
C169 C164 1.261 . S
C169 C168 1.312 . S
C170 O142 1.214 . S
C170 O150 1.234 . S
C171 H143 0.929 . S
C171 C174 1.391 . S
C171 C176 1.391 . S
C172 H144 0.929 . S
C172 C173 1.390 . S
C172 N175 1.391 . S
C173 H145 0.930 . S
C173 C172 1.390 . S
C173 C174 1.392 . S
C174 H146 0.929 . S
C174 C171 1.391 . S
C174 C173 1.392 . S
N175 Co119 2.257 . S
N175 C172 1.391 . S
N175 C176 1.388 . S
C176 H147 0.930 . S
C176 C171 1.391 . S
C176 N175 1.388 . S
Co177 O179 2.143 . S
Co177 O185 2.074 . S
Co177 O188 2.093 . S
Co177 O201 2.097 . S
Co177 N218 2.151 . S
Co177 N226 2.214 . S
Co178 O179 2.160 . S
Co178 O184 2.058 1_554 S
Co178 O194 2.057 . S
Co178 O209 2.037 . S
Co178 N213 2.145 1_554 S
Co178 N234 2.257 . S
O179 Co177 2.143 . S
O179 Co178 2.160 . S
C180 O181 1.278 . S
C180 O188 1.224 . S
O181 C180 1.278 . S
C182 O183 1.245 . S
C182 O194 1.232 . S
O183 C182 1.245 . S
O184 Co178 2.058 1_556 S
O184 C210 1.269 . S
O185 Co177 2.074 . S
O185 C210 1.257 1_554 S
H186 C211 0.930 . S
H187 C217 0.930 . S
O188 Co177 2.093 . S
O188 C180 1.224 . S
H189 C221 0.929 . S
H190 C223 0.930 . S
H191 C224 0.930 . S
H192 C222 0.929 . S
H193 C225 0.928 . S
O194 Co178 2.057 . S
O194 C182 1.232 . S
H195 C214 0.929 . S
H196 C215 0.929 . S
H197 C227 0.931 . S
H198 C219 0.929 . S
H199 C228 0.930 . S
H200 C220 0.931 . S
O201 Co177 2.097 . S
O201 C229 1.214 . S
H202 C230 0.929 . S
H203 C231 0.929 . S
H204 C232 0.930 . S
H205 C233 0.929 . S
H206 C235 0.930 . S
H207 C212 0.930 . S
H208 C216 0.930 . S
O209 Co178 2.037 . S
O209 C229 1.234 . S
C210 O184 1.269 . S
C210 O185 1.257 1_556 S
C211 H186 0.930 . S
C211 C214 1.388 . S
C211 C216 1.418 . S
C212 H207 0.930 . S
C212 C215 1.404 . S
C212 C216 1.353 . S
N213 Co178 2.145 1_556 S
N213 C214 1.397 . S
N213 C215 1.334 . S
C214 H195 0.929 . S
C214 C211 1.388 . S
C214 N213 1.397 . S
C215 H196 0.929 . S
C215 C212 1.404 . S
C215 N213 1.334 . S
C216 H208 0.930 . S
C216 C211 1.418 . S
C216 C212 1.353 . S
C217 H187 0.930 . S
C217 N218 1.330 . S
C217 C219 1.446 . S
N218 Co177 2.151 . S
N218 C217 1.330 . S
N218 C222 1.418 . S
C219 H198 0.929 . S
C219 C217 1.446 . S
C219 C220 1.332 . S
C220 H200 0.931 . S
C220 C219 1.332 . S
C220 C221 1.267 . S
C221 H189 0.929 . S
C221 C220 1.267 . S
C221 C222 1.251 . S
C222 H192 0.929 . S
C222 N218 1.418 . S
C222 C221 1.251 . S
C223 H190 0.930 . S
C223 C225 1.406 . S
C223 C228 1.261 . S
C224 H191 0.930 . S
C224 N226 1.325 . S
C224 C227 1.357 . S
C225 H193 0.928 . S
C225 C223 1.406 . S
C225 N226 1.261 . S
N226 Co177 2.214 . S
N226 C224 1.325 . S
N226 C225 1.261 . S
C227 H197 0.931 . S
C227 C224 1.357 . S
C227 C228 1.312 . S
C228 H199 0.930 . S
C228 C223 1.261 . S
C228 C227 1.312 . S
C229 O201 1.214 . S
C229 O209 1.234 . S
C230 H202 0.929 . S
C230 C233 1.391 . S
C230 C235 1.391 . S
C231 H203 0.929 . S
C231 C232 1.390 . S
C231 N234 1.391 . S
C232 H204 0.930 . S
C232 C231 1.390 . S
C232 C233 1.392 . S
C233 H205 0.929 . S
C233 C230 1.391 . S
C233 C232 1.392 . S
N234 Co178 2.257 . S
N234 C231 1.391 . S
N234 C235 1.388 . S
C235 H206 0.930 . S
C235 C230 1.391 . S
C235 N234 1.388 . S
Co236 O238 2.143 . S
Co236 O244 2.074 . S
Co236 O247 2.093 . S
Co236 O260 2.097 . S
Co236 N277 2.151 1_455 S
Co236 N285 2.214 1_455 S
Co237 O238 2.160 . S
Co237 O243 2.058 . S
Co237 O253 2.057 . S
Co237 O268 2.037 . S
Co237 N272 2.145 . S
Co237 N293 2.257 . S
O238 Co236 2.143 . S
O238 Co237 2.160 . S
C239 O240 1.278 . S
C239 O247 1.232 . S
O240 C239 1.278 . S
C241 O242 1.245 . S
C241 O253 1.232 . S
O242 C241 1.245 . S
O243 Co237 2.058 . S
O243 C269 1.269 . S
O244 Co236 2.074 . S
O244 C269 1.257 . S
H245 C270 0.930 . S
H246 C276 0.930 1_455 S
O247 Co236 2.093 . S
O247 C239 1.232 . S
H248 C280 0.929 . S
H249 C282 0.930 . S
H250 C283 0.930 . S
H251 C281 0.929 . S
H252 C284 0.928 . S
O253 Co237 2.057 . S
O253 C241 1.232 . S
H254 C273 0.929 . S
H255 C274 0.929 . S
H256 C286 0.931 . S
H257 C278 0.929 . S
H258 C287 0.930 . S
H259 C279 0.931 . S
O260 Co236 2.097 . S
O260 C288 1.214 . S
H261 C289 0.929 . S
H262 C290 0.929 . S
H263 C291 0.930 . S
H264 C292 0.929 . S
H265 C294 0.930 . S
H266 C271 0.930 . S
H267 C275 0.930 . S
O268 Co237 2.037 . S
O268 C288 1.234 . S
C269 O243 1.269 . S
C269 O244 1.257 . S
C270 H245 0.930 . S
C270 C273 1.388 . S
C270 C275 1.418 . S
C271 H266 0.930 . S
C271 C274 1.404 . S
C271 C275 1.353 . S
N272 Co237 2.145 . S
N272 C273 1.397 . S
N272 C274 1.334 . S
C273 H254 0.929 . S
C273 C270 1.388 . S
C273 N272 1.397 . S
C274 H255 0.929 . S
C274 C271 1.404 . S
C274 N272 1.334 . S
C275 H267 0.930 . S
C275 C270 1.418 . S
C275 C271 1.353 . S
C276 H246 0.930 1_655 S
C276 N277 1.330 . S
C276 C278 1.446 . S
N277 Co236 2.151 1_655 S
N277 C276 1.330 . S
N277 C281 1.418 . S
C278 H257 0.929 . S
C278 C276 1.446 . S
C278 C279 1.332 . S
C279 H259 0.931 . S
C279 C278 1.332 . S
C279 C280 1.267 . S
C280 H248 0.929 . S
C280 C279 1.267 . S
C280 C281 1.251 . S
C281 H251 0.929 . S
C281 N277 1.418 . S
C281 C280 1.251 . S
C282 H249 0.930 . S
C282 C284 1.406 . S
C282 C287 1.261 . S
C283 H250 0.930 . S
C283 N285 1.325 . S
C283 C286 1.357 . S
C284 H252 0.928 . S
C284 C282 1.406 . S
C284 N285 1.261 . S
N285 Co236 2.214 1_655 S
N285 C283 1.325 . S
N285 C284 1.261 . S
C286 H256 0.931 . S
C286 C283 1.357 . S
C286 C287 1.312 . S
C287 H258 0.930 . S
C287 C282 1.261 . S
C287 C286 1.312 . S
C288 O260 1.214 . S
C288 O268 1.234 . S
C289 H261 0.929 . S
C289 C292 1.391 . S
C289 C294 1.391 . S
C290 H262 0.929 . S
C290 C291 1.390 . S
C290 N293 1.391 . S
C291 H263 0.930 . S
C291 C290 1.390 . S
C291 C292 1.392 . S
C292 H264 0.929 . S
C292 C289 1.391 . S
C292 C291 1.392 . S
N293 Co237 2.257 . S
N293 C290 1.391 . S
N293 C294 1.388 . S
C294 H265 0.930 . S
C294 C289 1.391 . S
C294 N293 1.388 . S
Co295 O297 2.143 . S
Co295 O303 2.074 . S
Co295 O306 2.092 . S
Co295 O319 2.097 . S
Co295 N336 2.151 1_545 S
Co295 N344 2.214 1_545 S
Co296 O297 2.160 . S
Co296 O302 2.058 . S
Co296 O312 2.057 . S
Co296 O327 2.037 . S
Co296 N331 2.145 . S
Co296 N352 2.257 . S
O297 Co295 2.143 . S
O297 Co296 2.160 . S
C298 O299 1.278 . S
C298 O306 1.233 . S
O299 C298 1.278 . S
C300 O301 1.245 . S
C300 O312 1.232 . S
O301 C300 1.245 . S
O302 Co296 2.058 . S
O302 C328 1.269 . S
O303 Co295 2.074 . S
O303 C328 1.257 . S
H304 C329 0.930 . S
H305 C335 0.930 1_545 S
O306 Co295 2.092 . S
O306 C298 1.233 . S
H307 C339 0.929 . S
H308 C341 0.930 . S
H309 C342 0.930 . S
H310 C340 0.929 . S
H311 C343 0.928 . S
O312 Co296 2.057 . S
O312 C300 1.232 . S
H313 C332 0.929 . S
H314 C333 0.929 . S
H315 C345 0.931 . S
H316 C337 0.929 . S
H317 C346 0.930 . S
H318 C338 0.931 . S
O319 Co295 2.097 . S
O319 C347 1.214 . S
H320 C348 0.929 . S
H321 C349 0.929 . S
H322 C350 0.930 . S
H323 C351 0.929 . S
H324 C353 0.930 . S
H325 C330 0.930 . S
H326 C334 0.930 . S
O327 Co296 2.037 . S
O327 C347 1.234 . S
C328 O302 1.269 . S
C328 O303 1.257 . S
C329 H304 0.930 . S
C329 C332 1.388 . S
C329 C334 1.418 . S
C330 H325 0.930 . S
C330 C333 1.404 . S
C330 C334 1.353 . S
N331 Co296 2.145 . S
N331 C332 1.397 . S
N331 C333 1.334 . S
C332 H313 0.929 . S
C332 C329 1.388 . S
C332 N331 1.397 . S
C333 H314 0.929 . S
C333 C330 1.404 . S
C333 N331 1.334 . S
C334 H326 0.930 . S
C334 C329 1.418 . S
C334 C330 1.353 . S
C335 H305 0.930 1_565 S
C335 N336 1.330 . S
C335 C337 1.446 . S
N336 Co295 2.151 1_565 S
N336 C335 1.330 . S
N336 C340 1.418 . S
C337 H316 0.929 . S
C337 C335 1.446 . S
C337 C338 1.332 . S
C338 H318 0.931 . S
C338 C337 1.332 . S
C338 C339 1.267 . S
C339 H307 0.929 . S
C339 C338 1.267 . S
C339 C340 1.251 . S
C340 H310 0.929 . S
C340 N336 1.418 . S
C340 C339 1.251 . S
C341 H308 0.930 . S
C341 C343 1.406 . S
C341 C346 1.261 . S
C342 H309 0.930 . S
C342 N344 1.325 . S
C342 C345 1.357 . S
C343 H311 0.928 . S
C343 C341 1.406 . S
C343 N344 1.261 . S
N344 Co295 2.214 1_565 S
N344 C342 1.325 . S
N344 C343 1.261 . S
C345 H315 0.931 . S
C345 C342 1.357 . S
C345 C346 1.312 . S
C346 H317 0.930 . S
C346 C341 1.261 . S
C346 C345 1.312 . S
C347 O319 1.214 . S
C347 O327 1.234 . S
C348 H320 0.929 . S
C348 C351 1.391 . S
C348 C353 1.391 . S
C349 H321 0.929 . S
C349 C350 1.390 . S
C349 N352 1.391 . S
C350 H322 0.930 . S
C350 C349 1.390 . S
C350 C351 1.392 . S
C351 H323 0.929 . S
C351 C348 1.391 . S
C351 C350 1.392 . S
N352 Co296 2.257 . S
N352 C349 1.391 . S
N352 C353 1.388 . S
C353 H324 0.930 . S
C353 C348 1.391 . S
C353 N352 1.388 . S
Co354 O356 2.143 . S
Co354 O362 2.074 . S
Co354 O365 2.093 . S
Co354 O378 2.097 . S
Co354 N395 2.151 . S
Co354 N403 2.214 . S
Co355 O356 2.160 . S
Co355 O361 2.058 . S
Co355 O371 2.057 . S
Co355 O386 2.037 . S
Co355 N390 2.145 . S
Co355 N411 2.257 . S
O356 Co354 2.143 . S
O356 Co355 2.160 . S
C357 O358 1.278 . S
C357 O365 1.224 . S
O358 C357 1.278 . S
C359 O360 1.245 . S
C359 O371 1.232 . S
O360 C359 1.245 . S
O361 Co355 2.058 . S
O361 C387 1.269 . S
O362 Co354 2.074 . S
O362 C387 1.257 . S
H363 C388 0.930 . S
H364 C394 0.930 . S
O365 Co354 2.093 . S
O365 C357 1.224 . S
H366 C398 0.929 . S
H367 C400 0.930 . S
H368 C401 0.930 . S
H369 C399 0.929 . S
H370 C402 0.928 . S
O371 Co355 2.057 . S
O371 C359 1.232 . S
H372 C391 0.929 . S
H373 C392 0.929 . S
H374 C404 0.931 . S
H375 C396 0.929 . S
H376 C405 0.930 . S
H377 C397 0.931 . S
O378 Co354 2.097 . S
O378 C406 1.214 . S
H379 C407 0.929 . S
H380 C408 0.929 . S
H381 C409 0.930 . S
H382 C410 0.929 . S
H383 C412 0.930 . S
H384 C389 0.930 . S
H385 C393 0.930 . S
O386 Co355 2.037 . S
O386 C406 1.234 . S
C387 O361 1.269 . S
C387 O362 1.257 . S
C388 H363 0.930 . S
C388 C391 1.388 . S
C388 C393 1.418 . S
C389 H384 0.930 . S
C389 C392 1.404 . S
C389 C393 1.353 . S
N390 Co355 2.145 . S
N390 C391 1.397 . S
N390 C392 1.334 . S
C391 H372 0.929 . S
C391 C388 1.388 . S
C391 N390 1.397 . S
C392 H373 0.929 . S
C392 C389 1.404 . S
C392 N390 1.334 . S
C393 H385 0.930 . S
C393 C388 1.418 . S
C393 C389 1.353 . S
C394 H364 0.930 . S
C394 N395 1.330 . S
C394 C396 1.446 . S
N395 Co354 2.151 . S
N395 C394 1.330 . S
N395 C399 1.418 . S
C396 H375 0.929 . S
C396 C394 1.446 . S
C396 C397 1.332 . S
C397 H377 0.931 . S
C397 C396 1.332 . S
C397 C398 1.267 . S
C398 H366 0.929 . S
C398 C397 1.267 . S
C398 C399 1.251 . S
C399 H369 0.929 . S
C399 N395 1.418 . S
C399 C398 1.251 . S
C400 H367 0.930 . S
C400 C402 1.406 . S
C400 C405 1.261 . S
C401 H368 0.930 . S
C401 N403 1.325 . S
C401 C404 1.357 . S
C402 H370 0.928 . S
C402 C400 1.406 . S
C402 N403 1.261 . S
N403 Co354 2.214 . S
N403 C401 1.325 . S
N403 C402 1.261 . S
C404 H374 0.931 . S
C404 C401 1.357 . S
C404 C405 1.312 . S
C405 H376 0.930 . S
C405 C400 1.261 . S
C405 C404 1.312 . S
C406 O378 1.214 . S
C406 O386 1.234 . S
C407 H379 0.929 . S
C407 C410 1.391 . S
C407 C412 1.391 . S
C408 H380 0.929 . S
C408 C409 1.390 . S
C408 N411 1.391 . S
C409 H381 0.930 . S
C409 C408 1.390 . S
C409 C410 1.392 . S
C410 H382 0.929 . S
C410 C407 1.391 . S
C410 C409 1.392 . S
N411 Co355 2.257 . S
N411 C408 1.391 . S
N411 C412 1.388 . S
C412 H383 0.930 . S
C412 C407 1.391 . S
C412 N411 1.388 . S
Co413 O415 2.143 . S
Co413 O421 2.074 . S
Co413 O424 2.092 . S
Co413 O437 2.097 . S
Co413 N454 2.151 1_655 S
Co413 N462 2.214 1_655 S
Co414 O415 2.160 . S
Co414 O420 2.058 1_556 S
Co414 O430 2.057 . S
Co414 O445 2.037 . S
Co414 N449 2.145 1_556 S
Co414 N470 2.257 . S
O415 Co413 2.143 . S
O415 Co414 2.160 . S
C416 O417 1.278 . S
C416 O424 1.233 . S
O417 C416 1.278 . S
C418 O419 1.245 . S
C418 O430 1.232 . S
O419 C418 1.245 . S
O420 Co414 2.058 1_554 S
O420 C446 1.269 . S
O421 Co413 2.074 . S
O421 C446 1.257 1_556 S
H422 C447 0.930 . S
H423 C453 0.930 1_655 S
O424 Co413 2.092 . S
O424 C416 1.233 . S
H425 C457 0.929 . S
H426 C459 0.930 . S
H427 C460 0.930 . S
H428 C458 0.929 . S
H429 C461 0.928 . S
O430 Co414 2.057 . S
O430 C418 1.232 . S
H431 C450 0.929 . S
H432 C451 0.929 . S
H433 C463 0.931 . S
H434 C455 0.929 . S
H435 C464 0.930 . S
H436 C456 0.931 . S
O437 Co413 2.097 . S
O437 C465 1.214 . S
H438 C466 0.929 . S
H439 C467 0.929 . S
H440 C468 0.930 . S
H441 C469 0.929 . S
H442 C471 0.930 . S
H443 C448 0.930 . S
H444 C452 0.930 . S
O445 Co414 2.037 . S
O445 C465 1.234 . S
C446 O420 1.269 . S
C446 O421 1.257 1_554 S
C447 H422 0.930 . S
C447 C450 1.388 . S
C447 C452 1.418 . S
C448 H443 0.930 . S
C448 C451 1.404 . S
C448 C452 1.353 . S
N449 Co414 2.145 1_554 S
N449 C450 1.397 . S
N449 C451 1.334 . S
C450 H431 0.929 . S
C450 C447 1.388 . S
C450 N449 1.397 . S
C451 H432 0.929 . S
C451 C448 1.404 . S
C451 N449 1.334 . S
C452 H444 0.930 . S
C452 C447 1.418 . S
C452 C448 1.353 . S
C453 H423 0.930 1_455 S
C453 N454 1.330 . S
C453 C455 1.446 . S
N454 Co413 2.151 1_455 S
N454 C453 1.330 . S
N454 C458 1.418 . S
C455 H434 0.929 . S
C455 C453 1.446 . S
C455 C456 1.332 . S
C456 H436 0.931 . S
C456 C455 1.332 . S
C456 C457 1.267 . S
C457 H425 0.929 . S
C457 C456 1.267 . S
C457 C458 1.251 . S
C458 H428 0.929 . S
C458 N454 1.418 . S
C458 C457 1.251 . S
C459 H426 0.930 . S
C459 C461 1.406 . S
C459 C464 1.261 . S
C460 H427 0.930 . S
C460 N462 1.325 . S
C460 C463 1.357 . S
C461 H429 0.928 . S
C461 C459 1.406 . S
C461 N462 1.261 . S
N462 Co413 2.214 1_455 S
N462 C460 1.325 . S
N462 C461 1.261 . S
C463 H433 0.931 . S
C463 C460 1.357 . S
C463 C464 1.312 . S
C464 H435 0.930 . S
C464 C459 1.261 . S
C464 C463 1.312 . S
C465 O437 1.214 . S
C465 O445 1.234 . S
C466 H438 0.929 . S
C466 C469 1.391 . S
C466 C471 1.391 . S
C467 H439 0.929 . S
C467 C468 1.390 . S
C467 N470 1.391 . S
C468 H440 0.930 . S
C468 C467 1.390 . S
C468 C469 1.392 . S
C469 H441 0.929 . S
C469 C466 1.391 . S
C469 C468 1.392 . S
N470 Co414 2.257 . S
N470 C467 1.391 . S
N470 C471 1.388 . S
C471 H442 0.930 . S
C471 C466 1.391 . S
C471 N470 1.388 . S
Co472 O474 2.143 . S
Co472 O480 2.074 . S
Co472 O483 2.093 . S
Co472 O496 2.097 . S
Co472 N513 2.151 1_565 S
Co472 N521 2.214 1_565 S
Co473 O474 2.160 . S
Co473 O479 2.058 . S
Co473 O489 2.057 . S
Co473 O504 2.037 . S
Co473 N508 2.145 . S
Co473 N529 2.257 . S
O474 Co472 2.143 . S
O474 Co473 2.160 . S
C475 O476 1.278 . S
C475 O483 1.232 . S
O476 C475 1.278 . S
C477 O478 1.245 . S
C477 O489 1.232 . S
O478 C477 1.245 . S
O479 Co473 2.058 . S
O479 C505 1.269 . S
O480 Co472 2.074 . S
O480 C505 1.257 . S
H481 C506 0.930 . S
H482 C512 0.930 1_565 S
O483 Co472 2.093 . S
O483 C475 1.232 . S
H484 C516 0.929 . S
H485 C518 0.930 . S
H486 C519 0.930 . S
H487 C517 0.929 . S
H488 C520 0.928 . S
O489 Co473 2.057 . S
O489 C477 1.232 . S
H490 C509 0.929 . S
H491 C510 0.929 . S
H492 C522 0.931 . S
H493 C514 0.929 . S
H494 C523 0.930 . S
H495 C515 0.931 . S
O496 Co472 2.097 . S
O496 C524 1.214 . S
H497 C525 0.929 . S
H498 C526 0.929 . S
H499 C527 0.930 . S
H500 C528 0.929 . S
H501 C530 0.930 . S
H502 C507 0.930 . S
H503 C511 0.930 . S
O504 Co473 2.037 . S
O504 C524 1.234 . S
C505 O479 1.269 . S
C505 O480 1.257 . S
C506 H481 0.930 . S
C506 C509 1.388 . S
C506 C511 1.418 . S
C507 H502 0.930 . S
C507 C510 1.404 . S
C507 C511 1.353 . S
N508 Co473 2.145 . S
N508 C509 1.397 . S
N508 C510 1.334 . S
C509 H490 0.929 . S
C509 C506 1.388 . S
C509 N508 1.397 . S
C510 H491 0.929 . S
C510 C507 1.404 . S
C510 N508 1.334 . S
C511 H503 0.930 . S
C511 C506 1.418 . S
C511 C507 1.353 . S
C512 H482 0.930 1_545 S
C512 N513 1.330 . S
C512 C514 1.446 . S
N513 Co472 2.151 1_545 S
N513 C512 1.330 . S
N513 C517 1.418 . S
C514 H493 0.929 . S
C514 C512 1.446 . S
C514 C515 1.332 . S
C515 H495 0.931 . S
C515 C514 1.332 . S
C515 C516 1.267 . S
C516 H484 0.929 . S
C516 C515 1.267 . S
C516 C517 1.251 . S
C517 H487 0.929 . S
C517 N513 1.418 . S
C517 C516 1.251 . S
C518 H485 0.930 . S
C518 C520 1.406 . S
C518 C523 1.261 . S
C519 H486 0.930 . S
C519 N521 1.325 . S
C519 C522 1.357 . S
C520 H488 0.928 . S
C520 C518 1.406 . S
C520 N521 1.261 . S
N521 Co472 2.214 1_545 S
N521 C519 1.325 . S
N521 C520 1.261 . S
C522 H492 0.931 . S
C522 C519 1.357 . S
C522 C523 1.312 . S
C523 H494 0.930 . S
C523 C518 1.261 . S
C523 C522 1.312 . S
C524 O496 1.214 . S
C524 O504 1.234 . S
C525 H497 0.929 . S
C525 C528 1.391 . S
C525 C530 1.391 . S
C526 H498 0.929 . S
C526 C527 1.390 . S
C526 N529 1.391 . S
C527 H499 0.930 . S
C527 C526 1.390 . S
C527 C528 1.392 . S
C528 H500 0.929 . S
C528 C525 1.391 . S
C528 C527 1.392 . S
N529 Co473 2.257 . S
N529 C526 1.391 . S
N529 C530 1.388 . S
C530 H501 0.930 . S
C530 C525 1.391 . S
C530 N529 1.388 . S
Co531 O533 2.143 . S
Co531 O539 2.074 . S
Co531 O542 2.093 . S
Co531 O555 2.097 . S
Co531 N572 2.151 . S
Co531 N580 2.214 . S
Co532 O533 2.160 . S
Co532 O538 2.058 . S
Co532 O548 2.057 . S
Co532 O563 2.037 . S
Co532 N567 2.145 . S
Co532 N588 2.257 . S
O533 Co531 2.143 . S
O533 Co532 2.160 . S
C534 O535 1.278 . S
C534 O542 1.224 . S
O535 C534 1.278 . S
C536 O537 1.245 . S
C536 O548 1.232 . S
O537 C536 1.245 . S
O538 Co532 2.058 . S
O538 C564 1.269 . S
O539 Co531 2.074 . S
O539 C564 1.257 . S
H540 C565 0.930 . S
H541 C571 0.930 . S
O542 Co531 2.093 . S
O542 C534 1.224 . S
H543 C575 0.929 . S
H544 C577 0.930 . S
H545 C578 0.930 . S
H546 C576 0.929 . S
H547 C579 0.928 . S
O548 Co532 2.057 . S
O548 C536 1.232 . S
H549 C568 0.929 . S
H550 C569 0.929 . S
H551 C581 0.931 . S
H552 C573 0.929 . S
H553 C582 0.930 . S
H554 C574 0.931 . S
O555 Co531 2.097 . S
O555 C583 1.214 . S
H556 C584 0.929 . S
H557 C585 0.929 . S
H558 C586 0.930 . S
H559 C587 0.929 . S
H560 C589 0.930 . S
H561 C566 0.930 . S
H562 C570 0.930 . S
O563 Co532 2.037 . S
O563 C583 1.234 . S
C564 O538 1.269 . S
C564 O539 1.257 . S
C565 H540 0.930 . S
C565 C568 1.388 . S
C565 C570 1.418 . S
C566 H561 0.930 . S
C566 C569 1.404 . S
C566 C570 1.353 . S
N567 Co532 2.145 . S
N567 C568 1.397 . S
N567 C569 1.334 . S
C568 H549 0.929 . S
C568 C565 1.388 . S
C568 N567 1.397 . S
C569 H550 0.929 . S
C569 C566 1.404 . S
C569 N567 1.334 . S
C570 H562 0.930 . S
C570 C565 1.418 . S
C570 C566 1.353 . S
C571 H541 0.930 . S
C571 N572 1.330 . S
C571 C573 1.446 . S
N572 Co531 2.151 . S
N572 C571 1.330 . S
N572 C576 1.418 . S
C573 H552 0.929 . S
C573 C571 1.446 . S
C573 C574 1.332 . S
C574 H554 0.931 . S
C574 C573 1.332 . S
C574 C575 1.267 . S
C575 H543 0.929 . S
C575 C574 1.267 . S
C575 C576 1.251 . S
C576 H546 0.929 . S
C576 N572 1.418 . S
C576 C575 1.251 . S
C577 H544 0.930 . S
C577 C579 1.406 . S
C577 C582 1.261 . S
C578 H545 0.930 . S
C578 N580 1.325 . S
C578 C581 1.357 . S
C579 H547 0.928 . S
C579 C577 1.406 . S
C579 N580 1.261 . S
N580 Co531 2.214 . S
N580 C578 1.325 . S
N580 C579 1.261 . S
C581 H551 0.931 . S
C581 C578 1.357 . S
C581 C582 1.312 . S
C582 H553 0.930 . S
C582 C577 1.261 . S
C582 C581 1.312 . S
C583 O555 1.214 . S
C583 O563 1.234 . S
C584 H556 0.929 . S
C584 C587 1.391 . S
C584 C589 1.391 . S
C585 H557 0.929 . S
C585 C586 1.390 . S
C585 N588 1.391 . S
C586 H558 0.930 . S
C586 C585 1.390 . S
C586 C587 1.392 . S
C587 H559 0.929 . S
C587 C584 1.391 . S
C587 C586 1.392 . S
N588 Co532 2.257 . S
N588 C585 1.391 . S
N588 C589 1.388 . S
C589 H560 0.930 . S
C589 C584 1.391 . S
C589 N588 1.388 . S
Co590 O592 2.143 . S
Co590 O598 2.074 . S
Co590 O601 2.092 . S
Co590 O614 2.097 . S
Co590 N631 2.151 1_455 S
Co590 N639 2.214 1_455 S
Co591 O592 2.160 . S
Co591 O597 2.058 1_556 S
Co591 O607 2.057 . S
Co591 O622 2.037 . S
Co591 N626 2.145 1_556 S
Co591 N647 2.257 . S
O592 Co590 2.143 . S
O592 Co591 2.160 . S
C593 O594 1.278 . S
C593 O601 1.233 . S
O594 C593 1.278 . S
C595 O596 1.245 . S
C595 O607 1.232 . S
O596 C595 1.245 . S
O597 Co591 2.058 1_554 S
O597 C623 1.269 . S
O598 Co590 2.074 . S
O598 C623 1.257 1_556 S
H599 C624 0.930 . S
H600 C630 0.930 1_455 S
O601 Co590 2.092 . S
O601 C593 1.233 . S
H602 C634 0.929 . S
H603 C636 0.930 . S
H604 C637 0.930 . S
H605 C635 0.929 . S
H606 C638 0.928 . S
O607 Co591 2.057 . S
O607 C595 1.232 . S
H608 C627 0.929 . S
H609 C628 0.929 . S
H610 C640 0.931 . S
H611 C632 0.929 . S
H612 C641 0.930 . S
H613 C633 0.931 . S
O614 Co590 2.097 . S
O614 C642 1.214 . S
H615 C643 0.929 . S
H616 C644 0.929 . S
H617 C645 0.930 . S
H618 C646 0.929 . S
H619 C648 0.930 . S
H620 C625 0.930 . S
H621 C629 0.930 . S
O622 Co591 2.037 . S
O622 C642 1.234 . S
C623 O597 1.269 . S
C623 O598 1.257 1_554 S
C624 H599 0.930 . S
C624 C627 1.388 . S
C624 C629 1.418 . S
C625 H620 0.930 . S
C625 C628 1.404 . S
C625 C629 1.353 . S
N626 Co591 2.145 1_554 S
N626 C627 1.397 . S
N626 C628 1.334 . S
C627 H608 0.929 . S
C627 C624 1.388 . S
C627 N626 1.397 . S
C628 H609 0.929 . S
C628 C625 1.404 . S
C628 N626 1.334 . S
C629 H621 0.930 . S
C629 C624 1.418 . S
C629 C625 1.353 . S
C630 H600 0.930 1_655 S
C630 N631 1.330 . S
C630 C632 1.446 . S
N631 Co590 2.151 1_655 S
N631 C630 1.330 . S
N631 C635 1.418 . S
C632 H611 0.929 . S
C632 C630 1.446 . S
C632 C633 1.332 . S
C633 H613 0.931 . S
C633 C632 1.332 . S
C633 C634 1.267 . S
C634 H602 0.929 . S
C634 C633 1.267 . S
C634 C635 1.251 . S
C635 H605 0.929 . S
C635 N631 1.418 . S
C635 C634 1.251 . S
C636 H603 0.930 . S
C636 C638 1.406 . S
C636 C641 1.261 . S
C637 H604 0.930 . S
C637 N639 1.325 . S
C637 C640 1.357 . S
C638 H606 0.928 . S
C638 C636 1.406 . S
C638 N639 1.261 . S
N639 Co590 2.214 1_655 S
N639 C637 1.325 . S
N639 C638 1.261 . S
C640 H610 0.931 . S
C640 C637 1.357 . S
C640 C641 1.312 . S
C641 H612 0.930 . S
C641 C636 1.261 . S
C641 C640 1.312 . S
C642 O614 1.214 . S
C642 O622 1.234 . S
C643 H615 0.929 . S
C643 C646 1.391 . S
C643 C648 1.391 . S
C644 H616 0.929 . S
C644 C645 1.390 . S
C644 N647 1.391 . S
C645 H617 0.930 . S
C645 C644 1.390 . S
C645 C646 1.392 . S
C646 H618 0.929 . S
C646 C643 1.391 . S
C646 C645 1.392 . S
N647 Co591 2.257 . S
N647 C644 1.391 . S
N647 C648 1.388 . S
C648 H619 0.930 . S
C648 C643 1.391 . S
C648 N647 1.388 . S
Co649 O651 2.143 . S
Co649 O657 2.074 . S
Co649 O660 2.093 . S
Co649 O673 2.097 . S
Co649 N690 2.151 1_545 S
Co649 N698 2.214 1_545 S
Co650 O651 2.160 . S
Co650 O656 2.058 . S
Co650 O666 2.057 . S
Co650 O681 2.037 . S
Co650 N685 2.145 . S
Co650 N706 2.257 . S
O651 Co649 2.143 . S
O651 Co650 2.160 . S
C652 O653 1.278 . S
C652 O660 1.232 . S
O653 C652 1.278 . S
C654 O655 1.245 . S
C654 O666 1.232 . S
O655 C654 1.245 . S
O656 Co650 2.058 . S
O656 C682 1.269 . S
O657 Co649 2.074 . S
O657 C682 1.257 . S
H658 C683 0.930 . S
H659 C689 0.930 1_545 S
O660 Co649 2.093 . S
O660 C652 1.232 . S
H661 C693 0.929 . S
H662 C695 0.930 . S
H663 C696 0.930 . S
H664 C694 0.929 . S
H665 C697 0.928 . S
O666 Co650 2.057 . S
O666 C654 1.232 . S
H667 C686 0.929 . S
H668 C687 0.929 . S
H669 C699 0.931 . S
H670 C691 0.929 . S
H671 C700 0.930 . S
H672 C692 0.931 . S
O673 Co649 2.097 . S
O673 C701 1.214 . S
H674 C702 0.929 . S
H675 C703 0.929 . S
H676 C704 0.930 . S
H677 C705 0.929 . S
H678 C707 0.930 . S
H679 C684 0.930 . S
H680 C688 0.930 . S
O681 Co650 2.037 . S
O681 C701 1.234 . S
C682 O656 1.269 . S
C682 O657 1.257 . S
C683 H658 0.930 . S
C683 C686 1.388 . S
C683 C688 1.418 . S
C684 H679 0.930 . S
C684 C687 1.404 . S
C684 C688 1.353 . S
N685 Co650 2.145 . S
N685 C686 1.397 . S
N685 C687 1.334 . S
C686 H667 0.929 . S
C686 C683 1.388 . S
C686 N685 1.397 . S
C687 H668 0.929 . S
C687 C684 1.404 . S
C687 N685 1.334 . S
C688 H680 0.930 . S
C688 C683 1.418 . S
C688 C684 1.353 . S
C689 H659 0.930 1_565 S
C689 N690 1.330 . S
C689 C691 1.446 . S
N690 Co649 2.151 1_565 S
N690 C689 1.330 . S
N690 C694 1.418 . S
C691 H670 0.929 . S
C691 C689 1.446 . S
C691 C692 1.332 . S
C692 H672 0.931 . S
C692 C691 1.332 . S
C692 C693 1.267 . S
C693 H661 0.929 . S
C693 C692 1.267 . S
C693 C694 1.251 . S
C694 H664 0.929 . S
C694 N690 1.418 . S
C694 C693 1.251 . S
C695 H662 0.930 . S
C695 C697 1.406 . S
C695 C700 1.261 . S
C696 H663 0.930 . S
C696 N698 1.325 . S
C696 C699 1.357 . S
C697 H665 0.928 . S
C697 C695 1.406 . S
C697 N698 1.261 . S
N698 Co649 2.214 1_565 S
N698 C696 1.325 . S
N698 C697 1.261 . S
C699 H669 0.931 . S
C699 C696 1.357 . S
C699 C700 1.312 . S
C700 H671 0.930 . S
C700 C695 1.261 . S
C700 C699 1.312 . S
C701 O673 1.214 . S
C701 O681 1.234 . S
C702 H674 0.929 . S
C702 C705 1.391 . S
C702 C707 1.391 . S
C703 H675 0.929 . S
C703 C704 1.390 . S
C703 N706 1.391 . S
C704 H676 0.930 . S
C704 C703 1.390 . S
C704 C705 1.392 . S
C705 H677 0.929 . S
C705 C702 1.391 . S
C705 C704 1.392 . S
N706 Co650 2.257 . S
N706 C703 1.391 . S
N706 C707 1.388 . S
C707 H678 0.930 . S
C707 C702 1.391 . S
C707 N706 1.388 . S
C708 C709 1.391 . S
C708 C710 1.394 . S
C708 H724 0.931 . S
C709 C708 1.391 . S
C709 C713 1.376 . S
C710 C708 1.394 . S
C710 C711 1.369 . S
C710 C714 1.531 . S
C711 C710 1.369 . S
C711 C712 1.410 . S
C711 C719 1.503 . S
C712 C711 1.410 . S
C712 C713 1.392 . S
C712 C715 1.511 . S
C713 C709 1.376 . S
C713 C712 1.392 . S
C713 H725 0.929 . S
C714 C710 1.531 . S
C714 H726 0.960 . S
C714 H727 0.962 . S
C714 H728 0.960 . S
C715 C712 1.511 . S
C715 H729 0.961 . S
C715 H730 0.961 . S
C715 H731 0.961 . S
C716 C717 1.370 . S
C716 C718 1.363 . S
C716 H732 0.931 . S
C717 C716 1.370 . S
C717 C721 1.408 . S
C718 C716 1.363 . S
C718 C719 1.370 . S
C718 C722 1.524 . S
C719 C711 1.503 . S
C719 C718 1.370 . S
C719 C720 1.403 . S
C720 C719 1.403 . S
C720 C721 1.404 . S
C720 C723 1.539 . S
C721 C717 1.408 . S
C721 C720 1.404 . S
C721 H733 0.930 . S
C722 C718 1.524 . S
C722 H734 0.956 . S
C722 H735 0.961 . S
C722 H736 0.961 . S
C723 C720 1.539 . S
C723 H737 0.958 . S
C723 H738 0.961 . S
C723 H739 0.960 . S
H724 C708 0.931 . S
H725 C713 0.929 . S
H726 C714 0.960 . S
H727 C714 0.962 . S
H728 C714 0.960 . S
H729 C715 0.961 . S
H730 C715 0.961 . S
H731 C715 0.961 . S
H732 C716 0.931 . S
H733 C721 0.930 . S
H734 C722 0.956 . S
H735 C722 0.961 . S
H736 C722 0.961 . S
H737 C723 0.958 . S
H738 C723 0.961 . S
H739 C723 0.960 . S
C740 C741 1.391 . S
C740 C742 1.394 . S
C740 H756 0.931 . S
C741 C740 1.391 . S
C741 C745 1.376 1_655 S
C742 C740 1.394 . S
C742 C743 1.369 . S
C742 C746 1.531 . S
C743 C742 1.369 . S
C743 C744 1.410 1_655 S
C743 C751 1.503 1_655 S
C744 C743 1.410 1_455 S
C744 C745 1.392 . S
C744 C747 1.511 . S
C745 C741 1.376 1_455 S
C745 C744 1.392 . S
C745 H757 0.929 . S
C746 C742 1.531 . S
C746 H758 0.960 . S
C746 H759 0.962 . S
C746 H760 0.960 . S
C747 C744 1.511 . S
C747 H761 0.961 . S
C747 H762 0.961 . S
C747 H763 0.961 . S
C748 C749 1.370 . S
C748 C750 1.363 . S
C748 H764 0.931 . S
C749 C748 1.370 . S
C749 C753 1.408 . S
C750 C748 1.363 . S
C750 C751 1.370 . S
C750 C754 1.524 . S
C751 C743 1.503 1_455 S
C751 C750 1.370 . S
C751 C752 1.403 . S
C752 C751 1.403 . S
C752 C753 1.404 . S
C752 C755 1.539 . S
C753 C749 1.408 . S
C753 C752 1.404 . S
C753 H765 0.930 . S
C754 C750 1.524 . S
C754 H766 0.956 1_455 S
C754 H767 0.961 . S
C754 H768 0.961 . S
C755 C752 1.539 . S
C755 H769 0.958 1_455 S
C755 H770 0.961 . S
C755 H771 0.960 . S
H756 C740 0.931 . S
H757 C745 0.929 . S
H758 C746 0.960 . S
H759 C746 0.962 . S
H760 C746 0.960 . S
H761 C747 0.961 . S
H762 C747 0.961 . S
H763 C747 0.961 . S
H764 C748 0.931 . S
H765 C753 0.930 . S
H766 C754 0.956 1_655 S
H767 C754 0.961 . S
H768 C754 0.961 . S
H769 C755 0.958 1_655 S
H770 C755 0.961 . S
H771 C755 0.960 . S
C772 C773 1.391 . S
C772 C774 1.394 . S
C772 H788 0.931 . S
C773 C772 1.391 . S
C773 C777 1.376 . S
C774 C772 1.394 . S
C774 C775 1.369 . S
C774 C778 1.531 . S
C775 C774 1.369 . S
C775 C776 1.410 1_565 S
C775 C783 1.513 1_556 S
C776 C775 1.410 1_545 S
C776 C777 1.392 1_545 S
C776 C779 1.511 . S
C777 C773 1.376 . S
C777 C776 1.392 1_565 S
C777 H789 0.929 1_565 S
C778 C774 1.531 . S
C778 H790 0.960 1_556 S
C778 H791 0.962 . S
C778 H792 0.960 . S
C779 C776 1.511 . S
C779 H793 0.961 . S
C779 H794 0.961 . S
C779 H795 0.961 . S
C780 C781 1.370 . S
C780 C782 1.363 . S
C780 H796 0.931 . S
C781 C780 1.370 . S
C781 C785 1.408 1_545 S
C782 C780 1.363 . S
C782 C783 1.332 1_545 S
C782 C786 1.524 . S
C783 C775 1.513 1_554 S
C783 C782 1.332 1_565 S
C783 C784 1.432 . S
C784 C783 1.432 . S
C784 C785 1.404 . S
C784 C787 1.539 . S
C785 C781 1.408 1_565 S
C785 C784 1.404 . S
C785 H797 0.930 . S
C786 C782 1.524 . S
C786 H798 0.956 1_554 S
C786 H799 0.961 1_554 S
C786 H800 0.961 . S
C787 C784 1.539 . S
C787 H801 0.958 . S
C787 H802 0.961 . S
C787 H803 0.960 . S
H788 C772 0.931 . S
H789 C777 0.929 1_545 S
H790 C778 0.960 1_554 S
H791 C778 0.962 . S
H792 C778 0.960 . S
H793 C779 0.961 . S
H794 C779 0.961 . S
H795 C779 0.961 . S
H796 C780 0.931 . S
H797 C785 0.930 . S
H798 C786 0.956 1_556 S
H799 C786 0.961 1_556 S
H800 C786 0.961 . S
H801 C787 0.958 . S
H802 C787 0.961 . S
H803 C787 0.960 . S
C804 C805 1.391 . S
C804 C806 1.394 . S
C804 H820 0.931 . S
C805 C804 1.391 . S
C805 C809 1.376 . S
C806 C804 1.394 . S
C806 C807 1.369 . S
C806 C810 1.531 . S
C807 C806 1.369 . S
C807 C808 1.410 . S
C807 C815 1.503 . S
C808 C807 1.410 . S
C808 C809 1.392 . S
C808 C811 1.511 . S
C809 C805 1.376 . S
C809 C808 1.392 . S
C809 H821 0.929 . S
C810 C806 1.531 . S
C810 H822 0.960 . S
C810 H823 0.962 . S
C810 H824 0.960 . S
C811 C808 1.511 . S
C811 H825 0.961 . S
C811 H826 0.961 . S
C811 H827 0.961 . S
C812 C813 1.370 . S
C812 C814 1.363 . S
C812 H828 0.931 . S
C813 C812 1.370 . S
C813 C817 1.408 . S
C814 C812 1.363 . S
C814 C815 1.370 . S
C814 C818 1.524 . S
C815 C807 1.503 . S
C815 C814 1.370 . S
C815 C816 1.403 . S
C816 C815 1.403 . S
C816 C817 1.404 . S
C816 C819 1.539 . S
C817 C813 1.408 . S
C817 C816 1.404 . S
C817 H829 0.930 . S
C818 C814 1.524 . S
C818 H830 0.956 . S
C818 H831 0.961 . S
C818 H832 0.961 . S
C819 C816 1.539 . S
C819 H833 0.958 . S
C819 H834 0.961 . S
C819 H835 0.960 . S
H820 C804 0.931 . S
H821 C809 0.929 . S
H822 C810 0.960 . S
H823 C810 0.962 . S
H824 C810 0.960 . S
H825 C811 0.961 . S
H826 C811 0.961 . S
H827 C811 0.961 . S
H828 C812 0.931 . S
H829 C817 0.930 . S
H830 C818 0.956 . S
H831 C818 0.961 . S
H832 C818 0.961 . S
H833 C819 0.958 . S
H834 C819 0.961 . S
H835 C819 0.960 . S
C836 C837 1.391 . S
C836 C838 1.394 . S
C836 H852 0.931 . S
C837 C836 1.391 . S
C837 C841 1.376 . S
C838 C836 1.394 . S
C838 C839 1.369 . S
C838 C842 1.531 1_655 S
C839 C838 1.369 . S
C839 C840 1.410 . S
C839 C847 1.503 . S
C840 C839 1.410 . S
C840 C841 1.392 . S
C840 C843 1.511 . S
C841 C837 1.376 . S
C841 C840 1.392 . S
C841 H853 0.929 . S
C842 C838 1.531 1_455 S
C842 H854 0.951 1_455 S
C842 H855 0.962 . S
C842 H856 0.961 1_455 S
C843 C840 1.511 . S
C843 H857 0.961 . S
C843 H858 0.961 . S
C843 H859 0.961 . S
C844 C845 1.370 . S
C844 C846 1.363 . S
C844 H860 0.931 . S
C845 C844 1.370 . S
C845 C849 1.408 1_455 S
C846 C844 1.363 . S
C846 C847 1.370 1_455 S
C846 C850 1.524 . S
C847 C839 1.503 . S
C847 C846 1.370 1_655 S
C847 C848 1.403 . S
C848 C847 1.403 . S
C848 C849 1.404 . S
C848 C851 1.539 . S
C849 C845 1.408 1_655 S
C849 C848 1.404 . S
C849 H861 0.930 . S
C850 C846 1.524 . S
C850 H862 0.956 . S
C850 H863 0.961 . S
C850 H864 0.961 . S
C851 C848 1.539 . S
C851 H865 0.958 . S
C851 H866 0.961 . S
C851 H867 0.960 . S
H852 C836 0.931 . S
H853 C841 0.929 . S
H854 C842 0.951 1_655 S
H855 C842 0.962 . S
H856 C842 0.961 1_655 S
H857 C843 0.961 . S
H858 C843 0.961 . S
H859 C843 0.961 . S
H860 C844 0.931 . S
H861 C849 0.930 . S
H862 C850 0.956 . S
H863 C850 0.961 . S
H864 C850 0.961 . S
H865 C851 0.958 . S
H866 C851 0.961 . S
H867 C851 0.960 . S
C868 C869 1.391 . S
C868 C870 1.394 . S
C868 H884 0.931 . S
C869 C868 1.391 . S
C869 C873 1.376 1_565 S
C870 C868 1.394 . S
C870 C871 1.369 . S
C870 C874 1.531 . S
C871 C870 1.369 . S
C871 C872 1.410 1_565 S
C871 C879 1.503 1_564 S
C872 C871 1.410 1_545 S
C872 C873 1.392 . S
C872 C875 1.511 . S
C873 C869 1.376 1_545 S
C873 C872 1.392 . S
C873 H885 0.929 . S
C874 C870 1.531 . S
C874 H886 0.960 1_554 S
C874 H887 0.962 1_554 S
C874 H888 0.960 . S
C875 C872 1.511 . S
C875 H889 0.961 . S
C875 H890 0.961 . S
C875 H891 0.961 . S
C876 C877 1.370 . S
C876 C878 1.363 . S
C876 H892 0.931 . S
C877 C876 1.370 . S
C877 C881 1.408 . S
C878 C876 1.363 . S
C878 C879 1.370 . S
C878 C882 1.524 . S
C879 C871 1.503 1_546 S
C879 C878 1.370 . S
C879 C880 1.403 . S
C880 C879 1.403 . S
C880 C881 1.404 . S
C880 C883 1.539 1_545 S
C881 C877 1.408 . S
C881 C880 1.404 . S
C881 H893 0.930 . S
C882 C878 1.524 . S
C882 H894 0.956 1_545 S
C882 H895 0.961 1_556 S
C882 H896 0.961 . S
C883 C880 1.539 1_565 S
C883 H897 0.958 . S
C883 H898 0.961 1_565 S
C883 H899 0.948 1_566 S
H884 C868 0.931 . S
H885 C873 0.929 . S
H886 C874 0.960 1_556 S
H887 C874 0.962 1_556 S
H888 C874 0.960 . S
H889 C875 0.961 . S
H890 C875 0.961 . S
H891 C875 0.961 . S
H892 C876 0.931 . S
H893 C881 0.930 . S
H894 C882 0.956 1_565 S
H895 C882 0.961 1_554 S
H896 C882 0.961 . S
H897 C883 0.958 . S
H898 C883 0.961 1_545 S
H899 C883 0.948 1_544 S
C900 C901 1.391 . S
C900 C902 1.394 . S
C900 H916 0.931 . S
C901 C900 1.391 . S
C901 C905 1.376 1_556 S
C902 C900 1.394 . S
C902 C903 1.369 . S
C902 C906 1.531 . S
C903 C902 1.369 . S
C903 C904 1.410 1_556 S
C903 C911 1.503 1_556 S
C904 C903 1.410 1_554 S
C904 C905 1.392 . S
C904 C907 1.511 . S
C905 C901 1.376 1_554 S
C905 C904 1.392 . S
C905 H917 0.929 . S
C906 C902 1.531 . S
C906 H918 0.960 . S
C906 H919 0.962 . S
C906 H920 0.960 . S
C907 C904 1.511 . S
C907 H921 0.961 . S
C907 H922 0.961 . S
C907 H923 0.961 . S
C908 C909 1.370 . S
C908 C910 1.363 . S
C908 H924 0.931 . S
C909 C908 1.370 . S
C909 C913 1.408 . S
C910 C908 1.363 . S
C910 C911 1.370 . S
C910 C914 1.524 . S
C911 C903 1.503 1_554 S
C911 C910 1.370 . S
C911 C912 1.403 . S
C912 C911 1.403 . S
C912 C913 1.404 . S
C912 C915 1.539 . S
C913 C909 1.408 . S
C913 C912 1.404 . S
C913 H925 0.930 . S
C914 C910 1.524 . S
C914 H926 0.956 1_554 S
C914 H927 0.961 . S
C914 H928 0.961 . S
C915 C912 1.539 . S
C915 H929 0.958 1_554 S
C915 H930 0.961 . S
C915 H931 0.960 . S
H916 C900 0.931 . S
H917 C905 0.929 . S
H918 C906 0.960 . S
H919 C906 0.962 . S
H920 C906 0.960 . S
H921 C907 0.961 . S
H922 C907 0.961 . S
H923 C907 0.961 . S
H924 C908 0.931 . S
H925 C913 0.930 . S
H926 C914 0.956 1_556 S
H927 C914 0.961 . S
H928 C914 0.961 . S
H929 C915 0.958 1_556 S
H930 C915 0.961 . S
H931 C915 0.960 . S
C932 C933 1.391 . S
C932 C934 1.394 . S
C932 H948 0.931 . S
C933 C932 1.391 . S
C933 C937 1.376 . S
C934 C932 1.394 . S
C934 C935 1.369 . S
C934 C938 1.531 . S
C935 C934 1.369 . S
C935 C936 1.410 . S
C935 C943 1.503 . S
C936 C935 1.410 . S
C936 C937 1.392 . S
C936 C939 1.511 . S
C937 C933 1.376 . S
C937 C936 1.392 . S
C937 H949 0.929 . S
C938 C934 1.531 . S
C938 H950 0.960 . S
C938 H951 0.962 . S
C938 H952 0.960 . S
C939 C936 1.511 . S
C939 H953 0.961 . S
C939 H954 0.961 . S
C939 H955 0.961 . S
C940 C941 1.370 . S
C940 C942 1.363 . S
C940 H956 0.931 . S
C941 C940 1.370 . S
C941 C945 1.408 . S
C942 C940 1.363 . S
C942 C943 1.370 . S
C942 C946 1.524 . S
C943 C935 1.503 . S
C943 C942 1.370 . S
C943 C944 1.403 . S
C944 C943 1.403 . S
C944 C945 1.404 . S
C944 C947 1.539 . S
C945 C941 1.408 . S
C945 C944 1.404 . S
C945 H957 0.930 . S
C946 C942 1.524 . S
C946 H958 0.956 . S
C946 H959 0.961 . S
C946 H960 0.961 . S
C947 C944 1.539 . S
C947 H961 0.958 . S
C947 H962 0.961 . S
C947 H963 0.960 . S
H948 C932 0.931 . S
H949 C937 0.929 . S
H950 C938 0.960 . S
H951 C938 0.962 . S
H952 C938 0.960 . S
H953 C939 0.961 . S
H954 C939 0.961 . S
H955 C939 0.961 . S
H956 C940 0.931 . S
H957 C945 0.930 . S
H958 C946 0.956 . S
H959 C946 0.961 . S
H960 C946 0.961 . S
H961 C947 0.958 . S
H962 C947 0.961 . S
H963 C947 0.960 . S
C964 C965 1.391 . S
C964 C966 1.394 . S
C964 H980 0.931 . S
C965 C964 1.391 . S
C965 C969 1.376 . S
C966 C964 1.394 . S
C966 C967 1.369 . S
C966 C970 1.531 . S
C967 C966 1.369 . S
C967 C968 1.410 . S
C967 C975 1.503 . S
C968 C967 1.410 . S
C968 C969 1.392 . S
C968 C971 1.511 . S
C969 C965 1.376 . S
C969 C968 1.392 . S
C969 H981 0.929 . S
C970 C966 1.531 . S
C970 H982 0.960 . S
C970 H983 0.962 . S
C970 H984 0.960 . S
C971 C968 1.511 . S
C971 H985 0.961 . S
C971 H986 0.961 . S
C971 H987 0.961 . S
C972 C973 1.370 . S
C972 C974 1.363 . S
C972 H988 0.931 . S
C973 C972 1.370 . S
C973 C977 1.408 . S
C974 C972 1.363 . S
C974 C975 1.370 . S
C974 C978 1.524 . S
C975 C967 1.503 . S
C975 C974 1.370 . S
C975 C976 1.403 . S
C976 C975 1.403 . S
C976 C977 1.404 . S
C976 C979 1.539 . S
C977 C973 1.408 . S
C977 C976 1.404 . S
C977 H989 0.930 . S
C978 C974 1.524 . S
C978 H990 0.956 . S
C978 H991 0.961 . S
C978 H992 0.961 . S
C979 C976 1.539 . S
C979 H993 0.958 . S
C979 H994 0.961 . S
C979 H995 0.960 . S
H980 C964 0.931 . S
H981 C969 0.929 . S
H982 C970 0.960 . S
H983 C970 0.962 . S
H984 C970 0.960 . S
H985 C971 0.961 . S
H986 C971 0.961 . S
H987 C971 0.961 . S
H988 C972 0.931 . S
H989 C977 0.930 . S
H990 C978 0.956 . S
H991 C978 0.961 . S
H992 C978 0.961 . S
H993 C979 0.958 . S
H994 C979 0.961 . S
H995 C979 0.960 . S
C996 C997 1.391 . S
C996 C998 1.394 . S
C996 H1012 0.931 . S
C997 C996 1.391 . S
C997 C1001 1.376 1_554 S
C998 C996 1.394 . S
C998 C999 1.369 . S
C998 C1002 1.531 . S
C999 C998 1.369 . S
C999 C1000 1.410 1_554 S
C999 C1007 1.503 1_554 S
C1000 C999 1.410 1_556 S
C1000 C1001 1.392 . S
C1000 C1003 1.511 . S
C1001 C997 1.376 1_556 S
C1001 C1000 1.392 . S
C1001 H1013 0.929 . S
C1002 C998 1.531 . S
C1002 H1014 0.960 . S
C1002 H1015 0.962 . S
C1002 H1016 0.960 . S
C1003 C1000 1.511 . S
C1003 H1017 0.961 . S
C1003 H1018 0.961 . S
C1003 H1019 0.961 . S
C1004 C1005 1.370 . S
C1004 C1006 1.363 . S
C1004 H1020 0.931 . S
C1005 C1004 1.370 . S
C1005 C1009 1.408 . S
C1006 C1004 1.363 . S
C1006 C1007 1.370 . S
C1006 C1010 1.524 1_556 S
C1007 C999 1.503 1_556 S
C1007 C1006 1.370 . S
C1007 C1008 1.403 . S
C1008 C1007 1.403 . S
C1008 C1009 1.404 . S
C1008 C1011 1.539 . S
C1009 C1005 1.408 . S
C1009 C1008 1.404 . S
C1009 H1021 0.930 . S
C1010 C1006 1.524 1_554 S
C1010 H1022 0.956 . S
C1010 H1023 0.961 . S
C1010 H1024 0.961 . S
C1011 C1008 1.539 . S
C1011 H1025 0.958 . S
C1011 H1026 0.961 . S
C1011 H1027 0.960 . S
H1012 C996 0.931 . S
H1013 C1001 0.929 . S
H1014 C1002 0.960 . S
H1015 C1002 0.962 . S
H1016 C1002 0.960 . S
H1017 C1003 0.961 . S
H1018 C1003 0.961 . S
H1019 C1003 0.961 . S
H1020 C1004 0.931 . S
H1021 C1009 0.930 . S
H1022 C1010 0.956 . S
H1023 C1010 0.961 . S
H1024 C1010 0.961 . S
H1025 C1011 0.958 . S
H1026 C1011 0.961 . S
H1027 C1011 0.960 . S
C1028 C1029 1.391 . S
C1028 C1030 1.394 . S
C1028 H1044 0.931 . S
C1029 C1028 1.391 . S
C1029 C1033 1.376 . S
C1030 C1028 1.394 . S
C1030 C1031 1.369 . S
C1030 C1034 1.531 . S
C1031 C1030 1.369 . S
C1031 C1032 1.410 . S
C1031 C1039 1.503 . S
C1032 C1031 1.410 . S
C1032 C1033 1.392 . S
C1032 C1035 1.511 . S
C1033 C1029 1.376 . S
C1033 C1032 1.392 . S
C1033 H1045 0.929 . S
C1034 C1030 1.531 . S
C1034 H1046 0.960 . S
C1034 H1047 0.962 . S
C1034 H1048 0.960 . S
C1035 C1032 1.511 . S
C1035 H1049 0.961 . S
C1035 H1050 0.961 . S
C1035 H1051 0.961 . S
C1036 C1037 1.370 . S
C1036 C1038 1.363 . S
C1036 H1052 0.931 . S
C1037 C1036 1.370 . S
C1037 C1041 1.408 . S
C1038 C1036 1.363 . S
C1038 C1039 1.370 . S
C1038 C1042 1.524 . S
C1039 C1031 1.503 . S
C1039 C1038 1.370 . S
C1039 C1040 1.403 . S
C1040 C1039 1.403 . S
C1040 C1041 1.404 . S
C1040 C1043 1.539 . S
C1041 C1037 1.408 . S
C1041 C1040 1.404 . S
C1041 H1053 0.930 . S
C1042 C1038 1.524 . S
C1042 H1054 0.956 . S
C1042 H1055 0.961 . S
C1042 H1056 0.961 . S
C1043 C1040 1.539 . S
C1043 H1057 0.958 . S
C1043 H1058 0.961 . S
C1043 H1059 0.960 . S
H1044 C1028 0.931 . S
H1045 C1033 0.929 . S
H1046 C1034 0.960 . S
H1047 C1034 0.962 . S
H1048 C1034 0.960 . S
H1049 C1035 0.961 . S
H1050 C1035 0.961 . S
H1051 C1035 0.961 . S
H1052 C1036 0.931 . S
H1053 C1041 0.930 . S
H1054 C1042 0.956 . S
H1055 C1042 0.961 . S
H1056 C1042 0.961 . S
H1057 C1043 0.958 . S
H1058 C1043 0.961 . S
H1059 C1043 0.960 . S
C1060 C1061 1.391 . S
C1060 C1062 1.394 . S
C1060 H1076 0.931 . S
C1061 C1060 1.391 . S
C1061 C1065 1.376 . S
C1062 C1060 1.394 . S
C1062 C1063 1.369 . S
C1062 C1066 1.531 . S
C1063 C1062 1.369 . S
C1063 C1064 1.410 . S
C1063 C1071 1.503 . S
C1064 C1063 1.410 . S
C1064 C1065 1.392 . S
C1064 C1067 1.511 . S
C1065 C1061 1.376 . S
C1065 C1064 1.392 . S
C1065 H1077 0.929 . S
C1066 C1062 1.531 . S
C1066 H1078 0.960 . S
C1066 H1079 0.962 . S
C1066 H1080 0.960 . S
C1067 C1064 1.511 . S
C1067 H1081 0.961 . S
C1067 H1082 0.961 . S
C1067 H1083 0.961 . S
C1068 C1069 1.370 . S
C1068 C1070 1.363 . S
C1068 H1084 0.931 . S
C1069 C1068 1.370 . S
C1069 C1073 1.408 . S
C1070 C1068 1.363 . S
C1070 C1071 1.370 . S
C1070 C1074 1.524 . S
C1071 C1063 1.503 . S
C1071 C1070 1.370 . S
C1071 C1072 1.403 . S
C1072 C1071 1.403 . S
C1072 C1073 1.404 . S
C1072 C1075 1.539 . S
C1073 C1069 1.408 . S
C1073 C1072 1.404 . S
C1073 H1085 0.930 . S
C1074 C1070 1.524 . S
C1074 H1086 0.956 . S
C1074 H1087 0.961 . S
C1074 H1088 0.961 . S
C1075 C1072 1.539 . S
C1075 H1089 0.958 . S
C1075 H1090 0.961 . S
C1075 H1091 0.960 . S
H1076 C1060 0.931 . S
H1077 C1065 0.929 . S
H1078 C1066 0.960 . S
H1079 C1066 0.962 . S
H1080 C1066 0.960 . S
H1081 C1067 0.961 . S
H1082 C1067 0.961 . S
H1083 C1067 0.961 . S
H1084 C1068 0.931 . S
H1085 C1073 0.930 . S
H1086 C1074 0.956 . S
H1087 C1074 0.961 . S
H1088 C1074 0.961 . S
H1089 C1075 0.958 . S
H1090 C1075 0.961 . S
H1091 C1075 0.960 . S
C1092 C1093 1.391 . S
C1092 C1094 1.394 . S
C1092 H1108 0.931 . S
C1093 C1092 1.391 . S
C1093 C1097 1.376 . S
C1094 C1092 1.394 . S
C1094 C1095 1.369 . S
C1094 C1098 1.531 . S
C1095 C1094 1.369 . S
C1095 C1096 1.410 . S
C1095 C1103 1.503 . S
C1096 C1095 1.410 . S
C1096 C1097 1.392 . S
C1096 C1099 1.511 . S
C1097 C1093 1.376 . S
C1097 C1096 1.392 . S
C1097 H1109 0.929 . S
C1098 C1094 1.531 . S
C1098 H1110 0.960 . S
C1098 H1111 0.962 . S
C1098 H1112 0.960 . S
C1099 C1096 1.511 . S
C1099 H1113 0.961 . S
C1099 H1114 0.961 . S
C1099 H1115 0.961 . S
C1100 C1101 1.370 . S
C1100 C1102 1.363 . S
C1100 H1116 0.931 . S
C1101 C1100 1.370 . S
C1101 C1105 1.408 . S
C1102 C1100 1.363 . S
C1102 C1103 1.370 . S
C1102 C1106 1.524 . S
C1103 C1095 1.503 . S
C1103 C1102 1.370 . S
C1103 C1104 1.403 . S
C1104 C1103 1.403 . S
C1104 C1105 1.404 . S
C1104 C1107 1.539 . S
C1105 C1101 1.408 . S
C1105 C1104 1.404 . S
C1105 H1117 0.930 . S
C1106 C1102 1.524 . S
C1106 H1118 0.956 . S
C1106 H1119 0.961 . S
C1106 H1120 0.961 . S
C1107 C1104 1.539 . S
C1107 H1121 0.958 . S
C1107 H1122 0.961 . S
C1107 H1123 0.960 . S
H1108 C1092 0.931 . S
H1109 C1097 0.929 . S
H1110 C1098 0.960 . S
H1111 C1098 0.962 . S
H1112 C1098 0.960 . S
H1113 C1099 0.961 . S
H1114 C1099 0.961 . S
H1115 C1099 0.961 . S
H1116 C1100 0.931 . S
H1117 C1105 0.930 . S
H1118 C1106 0.956 . S
H1119 C1106 0.961 . S
H1120 C1106 0.961 . S
H1121 C1107 0.958 . S
H1122 C1107 0.961 . S
H1123 C1107 0.960 . S
C1124 C1125 1.391 . S
C1124 C1126 1.394 . S
C1124 H1140 0.931 . S
C1125 C1124 1.391 . S
C1125 C1129 1.376 1_655 S
C1126 C1124 1.394 . S
C1126 C1127 1.394 . S
C1126 C1130 1.531 . S
C1127 C1126 1.394 . S
C1127 C1128 1.388 1_655 S
C1127 C1135 1.499 1_655 S
C1128 C1127 1.388 1_455 S
C1128 C1129 1.392 . S
C1128 C1131 1.511 . S
C1129 C1125 1.376 1_455 S
C1129 C1128 1.392 . S
C1129 H1141 0.929 . S
C1130 C1126 1.531 . S
C1130 H1142 0.960 . S
C1130 H1143 0.962 . S
C1130 H1144 0.960 . S
C1131 C1128 1.511 . S
C1131 H1145 0.961 . S
C1131 H1146 0.961 . S
C1131 H1147 0.961 . S
C1132 C1133 1.370 . S
C1132 C1134 1.358 1_455 S
C1132 H1148 0.939 1_455 S
C1133 C1132 1.370 . S
C1133 C1137 1.408 . S
C1134 C1132 1.358 1_655 S
C1134 C1135 1.370 1_655 S
C1134 C1138 1.524 . S
C1135 C1127 1.499 1_455 S
C1135 C1134 1.370 1_455 S
C1135 C1136 1.403 . S
C1136 C1135 1.403 . S
C1136 C1137 1.404 . S
C1136 C1139 1.539 . S
C1137 C1133 1.408 . S
C1137 C1136 1.404 . S
C1137 H1149 0.930 . S
C1138 C1134 1.524 . S
C1138 H1150 0.956 . S
C1138 H1151 0.961 . S
C1138 H1152 0.961 . S
C1139 C1136 1.539 . S
C1139 H1153 0.958 . S
C1139 H1154 0.961 . S
C1139 H1155 0.960 . S
H1140 C1124 0.931 . S
H1141 C1129 0.929 . S
H1142 C1130 0.960 . S
H1143 C1130 0.962 . S
H1144 C1130 0.960 . S
H1145 C1131 0.961 . S
H1146 C1131 0.961 . S
H1147 C1131 0.961 . S
H1148 C1132 0.939 1_655 S
H1149 C1137 0.930 . S
H1150 C1138 0.956 . S
H1151 C1138 0.961 . S
H1152 C1138 0.961 . S
H1153 C1139 0.958 . S
H1154 C1139 0.961 . S
H1155 C1139 0.960 . S
C1156 C1157 1.391 . S
C1156 C1158 1.394 . S
C1156 H1172 0.931 . S
C1157 C1156 1.391 . S
C1157 C1161 1.376 1_565 S
C1158 C1156 1.394 . S
C1158 C1159 1.369 . S
C1158 C1162 1.531 . S
C1159 C1158 1.369 . S
C1159 C1160 1.410 1_565 S
C1159 C1167 1.503 . S
C1160 C1159 1.410 1_545 S
C1160 C1161 1.392 . S
C1160 C1163 1.511 . S
C1161 C1157 1.376 1_545 S
C1161 C1160 1.392 . S
C1161 H1173 0.929 . S
C1162 C1158 1.531 . S
C1162 H1174 0.960 . S
C1162 H1175 0.962 . S
C1162 H1176 0.960 . S
C1163 C1160 1.511 . S
C1163 H1177 0.961 . S
C1163 H1178 0.961 . S
C1163 H1179 0.961 . S
C1164 C1165 1.370 . S
C1164 C1166 1.363 . S
C1164 H1180 0.931 . S
C1165 C1164 1.370 . S
C1165 C1169 1.408 1_545 S
C1166 C1164 1.363 . S
C1166 C1167 1.370 1_545 S
C1166 C1170 1.524 . S
C1167 C1159 1.503 . S
C1167 C1166 1.370 1_565 S
C1167 C1168 1.403 . S
C1168 C1167 1.403 . S
C1168 C1169 1.404 . S
C1168 C1171 1.539 . S
C1169 C1165 1.408 1_565 S
C1169 C1168 1.404 . S
C1169 H1181 0.930 . S
C1170 C1166 1.524 . S
C1170 H1182 0.956 . S
C1170 H1183 0.961 . S
C1170 H1184 0.961 . S
C1171 C1168 1.539 . S
C1171 H1185 0.958 . S
C1171 H1186 0.961 . S
C1171 H1187 0.960 . S
H1172 C1156 0.931 . S
H1173 C1161 0.929 . S
H1174 C1162 0.960 . S
H1175 C1162 0.962 . S
H1176 C1162 0.960 . S
H1177 C1163 0.961 . S
H1178 C1163 0.961 . S
H1179 C1163 0.961 . S
H1180 C1164 0.931 . S
H1181 C1169 0.930 . S
H1182 C1170 0.956 . S
H1183 C1170 0.961 . S
H1184 C1170 0.961 . S
H1185 C1171 0.958 . S
H1186 C1171 0.961 . S
H1187 C1171 0.960 . S
C1188 C1189 1.391 . S
C1188 C1190 1.394 . S
C1188 H1204 0.931 . S
C1189 C1188 1.391 . S
C1189 C1193 1.376 . S
C1190 C1188 1.394 . S
C1190 C1191 1.369 . S
C1190 C1194 1.531 . S
C1191 C1190 1.369 . S
C1191 C1192 1.410 . S
C1191 C1199 1.503 . S
C1192 C1191 1.410 . S
C1192 C1193 1.392 . S
C1192 C1195 1.511 . S
C1193 C1189 1.376 . S
C1193 C1192 1.392 . S
C1193 H1205 0.929 . S
C1194 C1190 1.531 . S
C1194 H1206 0.960 . S
C1194 H1207 0.962 . S
C1194 H1208 0.960 . S
C1195 C1192 1.511 . S
C1195 H1209 0.961 . S
C1195 H1210 0.961 . S
C1195 H1211 0.961 . S
C1196 C1197 1.370 . S
C1196 C1198 1.363 . S
C1196 H1212 0.931 . S
C1197 C1196 1.370 . S
C1197 C1201 1.408 . S
C1198 C1196 1.363 . S
C1198 C1199 1.370 . S
C1198 C1202 1.524 . S
C1199 C1191 1.503 . S
C1199 C1198 1.370 . S
C1199 C1200 1.403 . S
C1200 C1199 1.403 . S
C1200 C1201 1.404 . S
C1200 C1203 1.539 . S
C1201 C1197 1.408 . S
C1201 C1200 1.404 . S
C1201 H1213 0.930 . S
C1202 C1198 1.524 . S
C1202 H1214 0.956 . S
C1202 H1215 0.961 . S
C1202 H1216 0.961 . S
C1203 C1200 1.539 . S
C1203 H1217 0.958 . S
C1203 H1218 0.961 . S
C1203 H1219 0.960 . S
H1204 C1188 0.931 . S
H1205 C1193 0.929 . S
H1206 C1194 0.960 . S
H1207 C1194 0.962 . S
H1208 C1194 0.960 . S
H1209 C1195 0.961 . S
H1210 C1195 0.961 . S
H1211 C1195 0.961 . S
H1212 C1196 0.931 . S
H1213 C1201 0.930 . S
H1214 C1202 0.956 . S
H1215 C1202 0.961 . S
H1216 C1202 0.961 . S
H1217 C1203 0.958 . S
H1218 C1203 0.961 . S
H1219 C1203 0.960 . S
C1220 C1221 1.391 . S
C1220 C1222 1.394 . S
C1220 H1236 0.931 . S
C1221 C1220 1.391 . S
C1221 C1225 1.356 1_455 S
C1222 C1220 1.394 . S
C1222 C1223 1.369 1_455 S
C1222 C1226 1.531 . S
C1223 C1222 1.369 1_655 S
C1223 C1224 1.410 . S
C1223 C1231 1.503 . S
C1224 C1223 1.410 . S
C1224 C1225 1.398 . S
C1224 C1227 1.511 . S
C1225 C1221 1.356 1_655 S
C1225 C1224 1.398 . S
C1225 H1237 0.943 . S
C1226 C1222 1.531 . S
C1226 H1238 0.960 1_455 S
C1226 H1239 0.962 . S
C1226 H1240 0.960 . S
C1227 C1224 1.511 . S
C1227 H1241 0.961 . S
C1227 H1242 0.961 . S
C1227 H1243 0.961 . S
C1228 C1229 1.370 1_455 S
C1228 C1230 1.363 . S
C1228 H1244 0.931 . S
C1229 C1228 1.370 1_655 S
C1229 C1233 1.408 . S
C1230 C1228 1.363 . S
C1230 C1231 1.370 1_455 S
C1230 C1234 1.524 . S
C1231 C1223 1.503 . S
C1231 C1230 1.370 1_655 S
C1231 C1232 1.403 . S
C1232 C1231 1.403 . S
C1232 C1233 1.404 . S
C1232 C1235 1.539 . S
C1233 C1229 1.408 . S
C1233 C1232 1.404 . S
C1233 H1245 0.930 . S
C1234 C1230 1.524 . S
C1234 H1246 0.956 . S
C1234 H1247 0.961 . S
C1234 H1248 0.961 . S
C1235 C1232 1.539 . S
C1235 H1249 0.958 . S
C1235 H1250 0.961 . S
C1235 H1251 0.960 . S
H1236 C1220 0.931 . S
H1237 C1225 0.943 . S
H1238 C1226 0.960 1_655 S
H1239 C1226 0.962 . S
H1240 C1226 0.960 . S
H1241 C1227 0.961 . S
H1242 C1227 0.961 . S
H1243 C1227 0.961 . S
H1244 C1228 0.931 . S
H1245 C1233 0.930 . S
H1246 C1234 0.956 . S
H1247 C1234 0.961 . S
H1248 C1234 0.961 . S
H1249 C1235 0.958 . S
H1250 C1235 0.961 . S
H1251 C1235 0.960 . S
C1252 C1253 1.391 . S
C1252 C1254 1.394 . S
C1252 H1268 0.931 . S
C1253 C1252 1.391 . S
C1253 C1257 1.376 . S
C1254 C1252 1.394 . S
C1254 C1255 1.369 . S
C1254 C1258 1.531 . S
C1255 C1254 1.369 . S
C1255 C1256 1.410 . S
C1255 C1263 1.503 . S
C1256 C1255 1.410 . S
C1256 C1257 1.392 . S
C1256 C1259 1.511 1_565 S
C1257 C1253 1.376 . S
C1257 C1256 1.392 . S
C1257 H1269 0.929 . S
C1258 C1254 1.531 . S
C1258 H1270 0.960 . S
C1258 H1271 0.962 . S
C1258 H1272 0.960 . S
C1259 C1256 1.511 1_545 S
C1259 H1273 0.961 . S
C1259 H1274 0.961 . S
C1259 H1275 0.961 1_545 S
C1260 C1261 1.370 . S
C1260 C1262 1.363 . S
C1260 H1276 0.931 . S
C1261 C1260 1.370 . S
C1261 C1265 1.408 1_545 S
C1262 C1260 1.363 . S
C1262 C1263 1.370 1_545 S
C1262 C1266 1.524 . S
C1263 C1255 1.503 . S
C1263 C1262 1.370 1_565 S
C1263 C1264 1.403 . S
C1264 C1263 1.403 . S
C1264 C1265 1.404 . S
C1264 C1267 1.539 . S
C1265 C1261 1.408 1_565 S
C1265 C1264 1.404 . S
C1265 H1277 0.930 . S
C1266 C1262 1.524 . S
C1266 H1278 0.956 . S
C1266 H1279 0.961 . S
C1266 H1280 0.961 . S
C1267 C1264 1.539 . S
C1267 H1281 0.958 . S
C1267 H1282 0.961 . S
C1267 H1283 0.960 . S
H1268 C1252 0.931 . S
H1269 C1257 0.929 . S
H1270 C1258 0.960 . S
H1271 C1258 0.962 . S
H1272 C1258 0.960 . S
H1273 C1259 0.961 . S
H1274 C1259 0.961 . S
H1275 C1259 0.961 1_565 S
H1276 C1260 0.931 . S
H1277 C1265 0.930 . S
H1278 C1266 0.956 . S
H1279 C1266 0.961 . S
H1280 C1266 0.961 . S
H1281 C1267 0.958 . S
H1282 C1267 0.961 . S
H1283 C1267 0.960 . S
C1284 C1285 1.391 . S
C1284 C1286 1.394 . S
C1284 H1300 0.931 . S
C1285 C1284 1.391 . S
C1285 C1289 1.376 . S
C1286 C1284 1.394 . S
C1286 C1287 1.369 . S
C1286 C1290 1.531 . S
C1287 C1286 1.369 . S
C1287 C1288 1.410 . S
C1287 C1295 1.503 . S
C1288 C1287 1.410 . S
C1288 C1289 1.392 . S
C1288 C1291 1.511 . S
C1289 C1285 1.376 . S
C1289 C1288 1.392 . S
C1289 H1301 0.929 . S
C1290 C1286 1.531 . S
C1290 H1302 0.960 . S
C1290 H1303 0.962 . S
C1290 H1304 0.960 . S
C1291 C1288 1.511 . S
C1291 H1305 0.961 . S
C1291 H1306 0.961 . S
C1291 H1307 0.961 1_554 S
C1292 C1293 1.370 . S
C1292 C1294 1.363 . S
C1292 H1308 0.931 . S
C1293 C1292 1.370 . S
C1293 C1297 1.408 . S
C1294 C1292 1.363 . S
C1294 C1295 1.370 . S
C1294 C1298 1.524 . S
C1295 C1287 1.503 . S
C1295 C1294 1.370 . S
C1295 C1296 1.403 . S
C1296 C1295 1.403 . S
C1296 C1297 1.404 . S
C1296 C1299 1.539 1_554 S
C1297 C1293 1.408 . S
C1297 C1296 1.404 . S
C1297 H1309 0.930 1_554 S
C1298 C1294 1.524 . S
C1298 H1310 0.956 . S
C1298 H1311 0.961 . S
C1298 H1312 0.961 . S
C1299 C1296 1.539 1_556 S
C1299 H1313 0.958 . S
C1299 H1314 0.961 . S
C1299 H1315 0.960 . S
H1300 C1284 0.931 . S
H1301 C1289 0.929 . S
H1302 C1290 0.960 . S
H1303 C1290 0.962 . S
H1304 C1290 0.960 . S
H1305 C1291 0.961 . S
H1306 C1291 0.961 . S
H1307 C1291 0.961 1_556 S
H1308 C1292 0.931 . S
H1309 C1297 0.930 1_556 S
H1310 C1298 0.956 . S
H1311 C1298 0.961 . S
H1312 C1298 0.961 . S
H1313 C1299 0.958 . S
H1314 C1299 0.961 . S
H1315 C1299 0.960 . S
C1316 C1317 1.391 . S
C1316 C1318 1.394 . S
C1316 H1332 0.931 . S
C1317 C1316 1.391 . S
C1317 C1321 1.376 1_455 S
C1318 C1316 1.394 . S
C1318 C1319 1.369 . S
C1318 C1322 1.531 . S
C1319 C1318 1.369 . S
C1319 C1320 1.410 1_455 S
C1319 C1327 1.503 1_455 S
C1320 C1319 1.410 1_655 S
C1320 C1321 1.392 . S
C1320 C1323 1.511 . S
C1321 C1317 1.376 1_655 S
C1321 C1320 1.392 . S
C1321 H1333 0.929 . S
C1322 C1318 1.531 . S
C1322 H1334 0.960 . S
C1322 H1335 0.962 . S
C1322 H1336 0.960 . S
C1323 C1320 1.511 . S
C1323 H1337 0.961 . S
C1323 H1338 0.961 . S
C1323 H1339 0.961 . S
C1324 C1325 1.370 . S
C1324 C1326 1.363 . S
C1324 H1340 0.931 . S
C1325 C1324 1.370 . S
C1325 C1329 1.408 . S
C1326 C1324 1.363 . S
C1326 C1327 1.370 . S
C1326 C1330 1.524 . S
C1327 C1319 1.503 1_655 S
C1327 C1326 1.370 . S
C1327 C1328 1.403 . S
C1328 C1327 1.403 . S
C1328 C1329 1.404 . S
C1328 C1331 1.539 . S
C1329 C1325 1.408 . S
C1329 C1328 1.404 . S
C1329 H1341 0.930 . S
C1330 C1326 1.524 . S
C1330 H1342 0.956 1_655 S
C1330 H1343 0.961 . S
C1330 H1344 0.961 . S
C1331 C1328 1.539 . S
C1331 H1345 0.958 1_655 S
C1331 H1346 0.961 . S
C1331 H1347 0.960 . S
H1332 C1316 0.931 . S
H1333 C1321 0.929 . S
H1334 C1322 0.960 . S
H1335 C1322 0.962 . S
H1336 C1322 0.960 . S
H1337 C1323 0.961 . S
H1338 C1323 0.961 . S
H1339 C1323 0.961 . S
H1340 C1324 0.931 . S
H1341 C1329 0.930 . S
H1342 C1330 0.956 1_455 S
H1343 C1330 0.961 . S
H1344 C1330 0.961 . S
H1345 C1331 0.958 1_455 S
H1346 C1331 0.961 . S
H1347 C1331 0.960 . S
C1348 C1349 1.391 . S
C1348 C1350 1.394 . S
C1348 H1364 0.931 . S
C1349 C1348 1.391 . S
C1349 C1353 1.376 . S
C1350 C1348 1.394 . S
C1350 C1351 1.369 . S
C1350 C1354 1.531 1_565 S
C1351 C1350 1.369 . S
C1351 C1352 1.410 . S
C1351 C1359 1.503 . S
C1352 C1351 1.410 . S
C1352 C1353 1.392 . S
C1352 C1355 1.511 . S
C1353 C1349 1.376 . S
C1353 C1352 1.392 . S
C1353 H1365 0.929 . S
C1354 C1350 1.531 1_545 S
C1354 H1366 0.960 . S
C1354 H1367 0.962 . S
C1354 H1368 0.960 . S
C1355 C1352 1.511 . S
C1355 H1369 0.961 . S
C1355 H1370 0.961 . S
C1355 H1371 0.961 . S
C1356 C1357 1.370 . S
C1356 C1358 1.363 . S
C1356 H1372 0.931 . S
C1357 C1356 1.370 . S
C1357 C1361 1.408 1_545 S
C1358 C1356 1.363 . S
C1358 C1359 1.370 1_545 S
C1358 C1362 1.524 . S
C1359 C1351 1.503 . S
C1359 C1358 1.370 1_565 S
C1359 C1360 1.403 . S
C1360 C1359 1.403 . S
C1360 C1361 1.404 . S
C1360 C1363 1.539 . S
C1361 C1357 1.408 1_565 S
C1361 C1360 1.404 . S
C1361 H1373 0.930 . S
C1362 C1358 1.524 . S
C1362 H1374 0.956 . S
C1362 H1375 0.961 . S
C1362 H1376 0.961 . S
C1363 C1360 1.539 . S
C1363 H1377 0.958 . S
C1363 H1378 0.961 . S
C1363 H1379 0.960 . S
H1364 C1348 0.931 . S
H1365 C1353 0.929 . S
H1366 C1354 0.960 . S
H1367 C1354 0.962 . S
H1368 C1354 0.960 . S
H1369 C1355 0.961 . S
H1370 C1355 0.961 . S
H1371 C1355 0.961 . S
H1372 C1356 0.931 . S
H1373 C1361 0.930 . S
H1374 C1362 0.956 . S
H1375 C1362 0.961 . S
H1376 C1362 0.961 . S
H1377 C1363 0.958 . S
H1378 C1363 0.961 . S
H1379 C1363 0.960 . S
C1380 C1381 1.391 . S
C1380 C1382 1.394 . S
C1380 H1396 0.931 . S
C1381 C1380 1.391 . S
C1381 C1385 1.376 . S
C1382 C1380 1.394 . S
C1382 C1383 1.369 . S
C1382 C1386 1.531 . S
C1383 C1382 1.369 . S
C1383 C1384 1.410 . S
C1383 C1391 1.503 . S
C1384 C1383 1.410 . S
C1384 C1385 1.392 . S
C1384 C1387 1.511 . S
C1385 C1381 1.376 . S
C1385 C1384 1.392 . S
C1385 H1397 0.929 . S
C1386 C1382 1.531 . S
C1386 H1398 0.960 . S
C1386 H1399 0.962 . S
C1386 H1400 0.960 . S
C1387 C1384 1.511 . S
C1387 H1401 0.961 . S
C1387 H1402 0.961 . S
C1387 H1403 0.961 . S
C1388 C1389 1.370 . S
C1388 C1390 1.363 . S
C1388 H1404 0.931 . S
C1389 C1388 1.370 . S
C1389 C1393 1.408 . S
C1390 C1388 1.363 . S
C1390 C1391 1.370 . S
C1390 C1394 1.524 . S
C1391 C1383 1.503 . S
C1391 C1390 1.370 . S
C1391 C1392 1.403 . S
C1392 C1391 1.403 . S
C1392 C1393 1.404 . S
C1392 C1395 1.539 . S
C1393 C1389 1.408 . S
C1393 C1392 1.404 . S
C1393 H1405 0.930 . S
C1394 C1390 1.524 . S
C1394 H1406 0.956 . S
C1394 H1407 0.961 . S
C1394 H1408 0.961 . S
C1395 C1392 1.539 . S
C1395 H1409 0.958 . S
C1395 H1410 0.961 . S
C1395 H1411 0.960 . S
H1396 C1380 0.931 . S
H1397 C1385 0.929 . S
H1398 C1386 0.960 . S
H1399 C1386 0.962 . S
H1400 C1386 0.960 . S
H1401 C1387 0.961 . S
H1402 C1387 0.961 . S
H1403 C1387 0.961 . S
H1404 C1388 0.931 . S
H1405 C1393 0.930 . S
H1406 C1394 0.956 . S
H1407 C1394 0.961 . S
H1408 C1394 0.961 . S
H1409 C1395 0.958 . S
H1410 C1395 0.961 . S
H1411 C1395 0.960 . S
C1412 C1413 1.391 1_455 S
C1412 C1414 1.394 . S
C1412 H1428 0.931 . S
C1413 C1412 1.391 1_655 S
C1413 C1417 1.376 . S
C1414 C1412 1.394 . S
C1414 C1415 1.373 . S
C1414 C1418 1.531 . S
C1415 C1414 1.373 . S
C1415 C1416 1.393 1_455 S
C1415 C1423 1.515 . S
C1416 C1415 1.393 1_655 S
C1416 C1417 1.392 . S
C1416 C1419 1.511 1_556 S
C1417 C1413 1.376 . S
C1417 C1416 1.392 . S
C1417 H1429 0.929 . S
C1418 C1414 1.531 . S
C1418 H1430 0.960 . S
C1418 H1431 0.962 . S
C1418 H1432 0.960 . S
C1419 C1416 1.511 1_554 S
C1419 H1433 0.961 . S
C1419 H1434 0.961 1_554 S
C1419 H1435 0.961 . S
C1420 C1421 1.397 . S
C1420 C1422 1.338 1_455 S
C1420 H1436 0.931 1_455 S
C1421 C1420 1.397 . S
C1421 C1425 1.408 . S
C1422 C1420 1.338 1_655 S
C1422 C1423 1.370 1_655 S
C1422 C1426 1.524 . S
C1423 C1415 1.515 . S
C1423 C1422 1.370 1_455 S
C1423 C1424 1.403 . S
C1424 C1423 1.403 . S
C1424 C1425 1.404 . S
C1424 C1427 1.539 1_556 S
C1425 C1421 1.408 . S
C1425 C1424 1.404 . S
C1425 H1437 0.930 1_556 S
C1426 C1422 1.524 . S
C1426 H1438 0.956 . S
C1426 H1439 0.961 . S
C1426 H1440 0.961 . S
C1427 C1424 1.539 1_554 S
C1427 H1441 0.958 . S
C1427 H1442 0.961 . S
C1427 H1443 0.960 . S
H1428 C1412 0.931 . S
H1429 C1417 0.929 . S
H1430 C1418 0.960 . S
H1431 C1418 0.962 . S
H1432 C1418 0.960 . S
H1433 C1419 0.961 . S
H1434 C1419 0.961 1_556 S
H1435 C1419 0.961 . S
H1436 C1420 0.931 1_655 S
H1437 C1425 0.930 1_554 S
H1438 C1426 0.956 . S
H1439 C1426 0.961 . S
H1440 C1426 0.961 . S
H1441 C1427 0.958 . S
H1442 C1427 0.961 . S
H1443 C1427 0.960 . S
C1444 C1445 1.391 1_565 S
C1444 C1446 1.394 . S
C1444 H1460 0.931 . S
C1445 C1444 1.391 1_545 S
C1445 C1449 1.376 . S
C1446 C1444 1.394 . S
C1446 C1447 1.369 1_565 S
C1446 C1450 1.531 . S
C1447 C1446 1.369 1_545 S
C1447 C1448 1.410 . S
C1447 C1455 1.503 1_545 S
C1448 C1447 1.410 . S
C1448 C1449 1.392 . S
C1448 C1451 1.511 . S
C1449 C1445 1.376 . S
C1449 C1448 1.392 . S
C1449 H1461 0.929 . S
C1450 C1446 1.531 . S
C1450 H1462 0.960 . S
C1450 H1463 0.962 . S
C1450 H1464 0.960 . S
C1451 C1448 1.511 . S
C1451 H1465 0.961 . S
C1451 H1466 0.961 . S
C1451 H1467 0.961 . S
C1452 C1453 1.370 . S
C1452 C1454 1.358 . S
C1452 H1468 0.931 . S
C1453 C1452 1.370 . S
C1453 C1457 1.408 . S
C1454 C1452 1.358 . S
C1454 C1455 1.377 . S
C1454 C1458 1.523 1_565 S
C1455 C1447 1.503 1_565 S
C1455 C1454 1.377 . S
C1455 C1456 1.403 . S
C1456 C1455 1.403 . S
C1456 C1457 1.404 . S
C1456 C1459 1.539 . S
C1457 C1453 1.408 . S
C1457 C1456 1.404 . S
C1457 H1469 0.930 . S
C1458 C1454 1.523 1_545 S
C1458 H1470 0.956 1_545 S
C1458 H1471 0.961 . S
C1458 H1472 0.961 . S
C1459 C1456 1.539 . S
C1459 H1473 0.958 . S
C1459 H1474 0.961 . S
C1459 H1475 0.960 . S
H1460 C1444 0.931 . S
H1461 C1449 0.929 . S
H1462 C1450 0.960 . S
H1463 C1450 0.962 . S
H1464 C1450 0.960 . S
H1465 C1451 0.961 . S
H1466 C1451 0.961 . S
H1467 C1451 0.961 . S
H1468 C1452 0.931 . S
H1469 C1457 0.930 . S
H1470 C1458 0.956 1_565 S
H1471 C1458 0.961 . S
H1472 C1458 0.961 . S
H1473 C1459 0.958 . S
H1474 C1459 0.961 . S
H1475 C1459 0.960 . S
C709 C3 1.598 . S
C717 C534 1.591 . S
C741 C62 1.601 . S
C749 C593 1.593 . S
C773 C121 1.594 . S
C781 C652 1.589 . S
C805 C180 1.582 . S
C813 C357 1.586 . S
C837 C416 1.577 . S
C845 C239 1.581 . S
C869 C475 1.601 . S
C877 C298 1.593 . S
C901 C595 1.591 . S
C909 C5 1.596 . S
C933 C64 1.579 . S
C941 C654 1.601 . S
C965 C123 1.600 . S
C973 C359 1.594 . S
C997 C182 1.586 . S
C1005 C418 1.598 . S
C1029 C241 1.604 . S
C1037 C477 1.591 . S
C1061 C300 1.592 . S
C1069 C536 1.597 . S
C1093 C564 0.857 . S
C1101 C33 0.889 . S
C1125 C92 0.871 . S
C1133 C623 0.866 . S
C1157 C151 0.846 . S
C1165 C682 0.880 . S
C1189 C387 0.856 . S
C1197 C210 0.889 . S
C1221 C269 0.897 . S
C1229 C446 0.866 . S
C1253 C505 0.846 . S
C1261 C328 0.884 . S
C1285 C52 1.598 . S
C1293 C229 1.597 . S
C1317 C288 1.585 . S
C1325 C111 1.592 . S
C1349 C170 1.588 . S
C1357 C347 1.597 . S
C1381 C406 1.599 . S
C1389 C583 1.596 . S
C1413 C465 1.598 . S
C1421 C642 1.596 . S
C1445 C701 1.598 . S
C1453 C524 1.597 . S
