# Generated by pormake.
# Topology utg, (3)-cn, num edge types: 1
# Building blocks:
#     Node 0, Type 0, BuildingBlock: OLANEW_clean_sbu_2, # of connection points: 3
#     Node 1, Type 0, BuildingBlock: OLANEW_clean_sbu_2, # of connection points: 3
#     Node 2, Type 0, BuildingBlock: OLANEW_clean_sbu_2, # of connection points: 3
#     Node 3, Type 0, BuildingBlock: OLANEW_clean_sbu_2, # of connection points: 3
#     Node 4, Type 0, BuildingBlock: OLANEW_clean_sbu_2, # of connection points: 3
#     Node 5, Type 0, BuildingBlock: OLANEW_clean_sbu_2, # of connection points: 3
#     Node 6, Type 0, BuildingBlock: OLANEW_clean_sbu_2, # of connection points: 3
#     Node 7, Type 0, BuildingBlock: OLANEW_clean_sbu_2, # of connection points: 3
#     Node 8, Type 0, BuildingBlock: OLANEW_clean_sbu_2, # of connection points: 3
#     Node 9, Type 0, BuildingBlock: OLANEW_clean_sbu_2, # of connection points: 3
#     Node 10, Type 0, BuildingBlock: OLANEW_clean_sbu_2, # of connection points: 3
#     Node 11, Type 0, BuildingBlock: OLANEW_clean_sbu_2, # of connection points: 3
#     Node 12, Type 0, BuildingBlock: OLANEW_clean_sbu_2, # of connection points: 3
#     Node 13, Type 0, BuildingBlock: OLANEW_clean_sbu_2, # of connection points: 3
#     Node 14, Type 0, BuildingBlock: OLANEW_clean_sbu_2, # of connection points: 3
#     Node 15, Type 0, BuildingBlock: OLANEW_clean_sbu_2, # of connection points: 3
#     Edge 16, Type (0, 0), BuildingBlock: CIFDUS_clean_linker_0, # of connection points: 2
#     Edge 17, Type (0, 0), BuildingBlock: CIFDUS_clean_linker_0, # of connection points: 2
#     Edge 18, Type (0, 0), BuildingBlock: CIFDUS_clean_linker_0, # of connection points: 2
#     Edge 19, Type (0, 0), BuildingBlock: CIFDUS_clean_linker_0, # of connection points: 2
#     Edge 20, Type (0, 0), BuildingBlock: CIFDUS_clean_linker_0, # of connection points: 2
#     Edge 21, Type (0, 0), BuildingBlock: CIFDUS_clean_linker_0, # of connection points: 2
#     Edge 22, Type (0, 0), BuildingBlock: CIFDUS_clean_linker_0, # of connection points: 2
#     Edge 23, Type (0, 0), BuildingBlock: CIFDUS_clean_linker_0, # of connection points: 2
#     Edge 24, Type (0, 0), BuildingBlock: CIFDUS_clean_linker_0, # of connection points: 2
#     Edge 25, Type (0, 0), BuildingBlock: CIFDUS_clean_linker_0, # of connection points: 2
#     Edge 26, Type (0, 0), BuildingBlock: CIFDUS_clean_linker_0, # of connection points: 2
#     Edge 27, Type (0, 0), BuildingBlock: CIFDUS_clean_linker_0, # of connection points: 2
#     Edge 28, Type (0, 0), BuildingBlock: CIFDUS_clean_linker_0, # of connection points: 2
#     Edge 29, Type (0, 0), BuildingBlock: CIFDUS_clean_linker_0, # of connection points: 2
#     Edge 30, Type (0, 0), BuildingBlock: CIFDUS_clean_linker_0, # of connection points: 2
#     Edge 31, Type (0, 0), BuildingBlock: CIFDUS_clean_linker_0, # of connection points: 2
#     Edge 32, Type (0, 0), BuildingBlock: CIFDUS_clean_linker_0, # of connection points: 2
#     Edge 33, Type (0, 0), BuildingBlock: CIFDUS_clean_linker_0, # of connection points: 2
#     Edge 34, Type (0, 0), BuildingBlock: CIFDUS_clean_linker_0, # of connection points: 2
#     Edge 35, Type (0, 0), BuildingBlock: CIFDUS_clean_linker_0, # of connection points: 2
#     Edge 36, Type (0, 0), BuildingBlock: CIFDUS_clean_linker_0, # of connection points: 2
#     Edge 37, Type (0, 0), BuildingBlock: CIFDUS_clean_linker_0, # of connection points: 2
#     Edge 38, Type (0, 0), BuildingBlock: CIFDUS_clean_linker_0, # of connection points: 2
#     Edge 39, Type (0, 0), BuildingBlock: CIFDUS_clean_linker_0, # of connection points: 2
# Relax obj value: 0.002
# Max RMSD: 0.037
# Mean RMSD: 0.037
data_MOF--net-utg--node1-OLANEW_clean_sbu_2--edge1-CIFDUS_clean_linker_0
_symmetry_space_group_name_H-M    P1
_symmetry_Int_Tables_number       1
_symmetry_cell_setting            triclinic
loop_
_symmetry_equiv_pos_as_xyz
'x, y, z'
_cell_length_a     38.672614
_cell_length_b     38.447782
_cell_length_c     76.633835
_cell_angle_alpha  90.108628
_cell_angle_beta   89.825549
_cell_angle_gamma 90.033258
loop_
_atom_site_label
_atom_site_type_symbol
_atom_site_fract_x
_atom_site_fract_y
_atom_site_fract_z
_atom_type_partial_charge
O0 O 0.08773 0.18119 0.1513 0.0
Cd1 Cd 0.08566 0.15559 0.18052 0.0
O2 O 0.1269 0.14498 0.14105 0.0
Cd3 Cd 0.14032 0.12791 0.1672 0.0
O4 O 0.1688 0.14343 0.1904 0.0
C5 C 0.19385 0.16404 0.18744 0.0
O6 O 0.201 0.17233 0.1712 0.0
C7 C 0.10564 0.16969 0.13859 0.0
C8 C 0.04947 0.09267 0.1806 0.0
O9 O 0.03354 0.12179 0.1819 0.0
O10 O 0.0825 0.09328 0.17934 0.0
O11 O 0.8277 0.58475 0.40235 0.0
Cd12 Cd 0.86198 0.59478 0.42867 0.0
O13 O 0.79984 0.63401 0.40644 0.0
Cd14 Cd 0.82632 0.65264 0.42966 0.0
O15 O 0.81522 0.68947 0.45049 0.0
C16 C 0.82159 0.6843 0.46652 0.0
O17 O 0.83827 0.65603 0.47114 0.0
C18 C 0.8045 0.60624 0.39774 0.0
C19 C 0.92514 0.55984 0.42826 0.0
O20 O 0.89748 0.54475 0.43354 0.0
O21 O 0.92288 0.59142 0.42305 0.0
O22 O 0.40428 0.34068 0.6621 0.0
Cd23 Cd 0.40074 0.36401 0.69179 0.0
O24 O 0.36258 0.37391 0.65207 0.0
Cd25 Cd 0.34385 0.3846 0.67834 0.0
O26 O 0.31056 0.35805 0.69708 0.0
C27 C 0.2916 0.33464 0.6903 0.0
O28 O 0.29297 0.32994 0.67332 0.0
C29 C 0.38653 0.35189 0.64935 0.0
C30 C 0.43343 0.42869 0.69417 0.0
O31 O 0.45046 0.40038 0.69611 0.0
O32 O 0.40091 0.42641 0.69119 0.0
O33 O 0.67449 0.92095 0.90382 0.0
Cd34 Cd 0.64296 0.91515 0.93138 0.0
O35 O 0.71049 0.87891 0.91072 0.0
Cd36 Cd 0.68779 0.86368 0.93558 0.0
O37 O 0.69484 0.82769 0.9572 0.0
C38 C 0.71148 0.80021 0.95332 0.0
O39 O 0.72105 0.79537 0.93702 0.0
C40 C 0.70067 0.90231 0.90016 0.0
C41 C 0.58213 0.95417 0.93164 0.0
O42 O 0.61114 0.96786 0.9359 0.0
O43 O 0.58187 0.92198 0.92725 0.0
O44 O 0.08358 0.32402 0.05375 0.0
Cd45 Cd 0.09078 0.35762 0.02691 0.0
O46 O 0.12123 0.28491 0.04484 0.0
Cd47 Cd 0.13732 0.30954 0.02059 0.0
O48 O 0.1731 0.30338 -0.0012 0.0
C49 C 0.20033 0.28632 0.00236 0.0
O50 O 0.20512 0.27595 0.0185 0.0
C51 C 0.09969 0.29564 0.05618 0.0
C52 C 0.04954 0.41715 0.02638 0.0
O53 O 0.0376 0.38759 0.0215 0.0
O54 O 0.08099 0.41856 0.03157 0.0
O55 O 0.68296 0.58722 0.30563 0.0
Cd56 Cd 0.65603 0.58452 0.2768 0.0
O57 O 0.65045 0.6304 0.31495 0.0
Cd58 Cd 0.63311 0.64327 0.28879 0.0
O59 O 0.64896 0.67544 0.26685 0.0
C60 C 0.6492 0.66528 0.25108 0.0
O61 O 0.63711 0.63426 0.24724 0.0
C62 C 0.67343 0.6075 0.31786 0.0
C63 C 0.591 0.55289 0.27793 0.0
O64 O 0.61863 0.5347 0.2765 0.0
O65 O 0.5941 0.58603 0.27881 0.0
O66 O 0.42325 0.20521 0.56234 0.0
Cd67 Cd 0.41934 0.17129 0.53539 0.0
O68 O 0.38431 0.2428 0.55339 0.0
Cd69 Cd 0.37048 0.21698 0.52908 0.0
O70 O 0.3355 0.2157 0.50686 0.0
C71 C 0.30556 0.22816 0.5097 0.0
O72 O 0.29783 0.23887 0.52553 0.0
C73 C 0.40584 0.23283 0.56482 0.0
C74 C 0.45527 0.10856 0.53766 0.0
O75 O 0.47071 0.13677 0.53333 0.0
O76 O 0.42277 0.11 0.54094 0.0
O77 O 0.80532 0.91216 0.80202 0.0
Cd78 Cd 0.8308 0.91439 0.77281 0.0
O79 O 0.83856 0.86899 0.81042 0.0
Cd80 Cd 0.85042 0.85417 0.78364 0.0
O81 O 0.82845 0.81786 0.76476 0.0
C82 C 0.80423 0.79919 0.77099 0.0
O83 O 0.79567 0.80322 0.78748 0.0
C84 C 0.81626 0.89224 0.81402 0.0
C85 C 0.89027 0.95571 0.77311 0.0
O86 O 0.86024 0.96914 0.77104 0.0
O87 O 0.89227 0.92262 0.77485 0.0
O88 O 0.58426 0.68859 0.66984 0.0
Cd89 Cd 0.58589 0.66275 0.69896 0.0
O90 O 0.62941 0.65892 0.66067 0.0
Cd91 Cd 0.64612 0.64665 0.68704 0.0
O92 O 0.68119 0.66714 0.70678 0.0
C93 C 0.67264 0.67176 0.72262 0.0
O94 O 0.64186 0.66178 0.72792 0.0
C95 C 0.60443 0.67944 0.65753 0.0
C96 C 0.5536 0.59773 0.69876 0.0
O97 O 0.53622 0.62568 0.70126 0.0
O98 O 0.58635 0.60048 0.69653 0.0
O99 O 0.30815 0.08028 0.90086 0.0
Cd100 Cd 0.33286 0.07843 0.93022 0.0
O101 O 0.34556 0.11852 0.89084 0.0
Cd102 Cd 0.36194 0.13219 0.9171 0.0
O103 O 0.3465 0.16149 0.94018 0.0
C104 C 0.32663 0.18706 0.9371 0.0
O105 O 0.31892 0.19422 0.92081 0.0
C106 C 0.32052 0.09771 0.8882 0.0
C107 C 0.39359 0.03914 0.93081 0.0
O108 O 0.36392 0.02464 0.93247 0.0
O109 O 0.39458 0.07224 0.92897 0.0
O110 O 0.89786 0.83294 0.14999 0.0
Cd111 Cd 0.88522 0.86695 0.17625 0.0
O112 O 0.86203 0.79141 0.15799 0.0
Cd113 Cd 0.8403 0.81535 0.18131 0.0
O114 O 0.7996 0.80382 0.20015 0.0
C115 C 0.77756 0.78171 0.1948 0.0
O116 O 0.78048 0.76966 0.1788 0.0
C117 C 0.8842 0.80334 0.1473 0.0
C118 C 0.92105 0.92997 0.1767 0.0
O119 O 0.93507 0.90194 0.18228 0.0
O120 O 0.89005 0.92822 0.17089 0.0
O121 O 0.17899 0.39896 0.40273 0.0
Cd122 Cd 0.15331 0.40011 0.43197 0.0
O123 O 0.14448 0.35834 0.39245 0.0
Cd124 Cd 0.12786 0.34463 0.41868 0.0
O125 O 0.14572 0.32054 0.44269 0.0
C126 C 0.16972 0.29837 0.44052 0.0
O127 O 0.17982 0.29109 0.42453 0.0
C128 C 0.16833 0.38061 0.39001 0.0
C129 C 0.08984 0.43475 0.43196 0.0
O130 O 0.11833 0.45155 0.43336 0.0
O131 O 0.09132 0.40155 0.43068 0.0
O132 O 0.56273 0.82106 0.56899 0.0
Cd133 Cd 0.56709 0.85275 0.54143 0.0
O134 O 0.61107 0.79295 0.56338 0.0
Cd135 Cd 0.62606 0.81842 0.53918 0.0
O136 O 0.66554 0.81162 0.51916 0.0
C137 C 0.69246 0.79576 0.52435 0.0
O138 O 0.69467 0.78716 0.54089 0.0
C139 C 0.58502 0.79828 0.57316 0.0
C140 C 0.53072 0.91537 0.54169 0.0
O141 O 0.51556 0.88659 0.53811 0.0
O142 O 0.56307 0.91451 0.54526 0.0
O143 O 0.16797 0.08141 0.80274 0.0
Cd144 Cd 0.13427 0.09052 0.77616 0.0
O145 O 0.20807 0.11856 0.79442 0.0
Cd146 Cd 0.18397 0.13897 0.77093 0.0
O147 O 0.19227 0.18195 0.75288 0.0
C148 C 0.19112 0.17894 0.73639 0.0
O149 O 0.18221 0.14892 0.72951 0.0
C150 C 0.1968 0.09643 0.80535 0.0
C151 C 0.07519 0.0487 0.77509 0.0
O152 O 0.1046 0.03712 0.76998 0.0
O153 O 0.07368 0.08006 0.78074 0.0
O154 O 0.91173 0.6891 0.05285 0.0
Cd155 Cd 0.91706 0.66315 0.02378 0.0
O156 O 0.87489 0.64999 0.06255 0.0
Cd157 Cd 0.86354 0.6328 0.03613 0.0
O158 O 0.83474 0.64964 0.01328 0.0
C159 C 0.81003 0.67036 0.01674 0.0
O160 O 0.80355 0.67798 0.03315 0.0
C161 C 0.89418 0.67621 0.06533 0.0
C162 C 0.95824 0.60351 0.02466 0.0
O163 O 0.97175 0.63378 0.02301 0.0
O164 O 0.92524 0.6014 0.02577 0.0
O165 O 0.32181 0.40963 0.30533 0.0
Cd166 Cd 0.35584 0.40333 0.27854 0.0
O167 O 0.28431 0.37059 0.29625 0.0
Cd168 Cd 0.30966 0.35559 0.27199 0.0
O169 O 0.30487 0.31994 0.25002 0.0
C170 C 0.28856 0.29203 0.25344 0.0
O171 O 0.27812 0.2866 0.26954 0.0
C172 C 0.29407 0.39247 0.30767 0.0
C173 C 0.42046 0.43547 0.28032 0.0
O174 O 0.39351 0.45251 0.27573 0.0
O175 O 0.41679 0.40327 0.28422 0.0
H176 H 0.248 0.23468 0.25634 0.0
H177 H 0.30532 0.29546 0.21877 0.0
H178 H 0.28306 0.25918 0.19514 0.0
H179 H 0.24398 0.21324 0.18501 0.0
H180 H 0.1851 0.15377 0.2225 0.0
H181 H 0.2116 0.18644 0.24634 0.0
C182 C 0.25593 0.23982 0.24301 0.0
C183 C 0.27807 0.26795 0.23933 0.0
C184 C 0.24261 0.21923 0.22947 0.0
C185 C 0.28816 0.27412 0.22197 0.0
C186 C 0.27539 0.25342 0.20844 0.0
C187 C 0.23715 0.20715 0.1984 0.0
C188 C 0.21236 0.18128 0.20195 0.0
C189 C 0.25207 0.22637 0.21202 0.0
C190 C 0.20395 0.17368 0.21939 0.0
C191 C 0.21906 0.19238 0.23303 0.0
H192 H 0.74672 0.75294 0.53083 0.0
H193 H 0.69681 0.80992 0.48945 0.0
H194 H 0.73553 0.78317 0.46808 0.0
H195 H 0.77925 0.73944 0.46089 0.0
H196 H 0.82717 0.68018 0.50206 0.0
H197 H 0.79375 0.71243 0.52382 0.0
C198 C 0.74456 0.75988 0.51717 0.0
C199 C 0.71863 0.78311 0.51173 0.0
C200 C 0.7664 0.74385 0.50491 0.0
C201 C 0.71634 0.7919 0.49398 0.0
C202 C 0.73844 0.77658 0.48174 0.0
C203 C 0.78278 0.73382 0.47463 0.0
C204 C 0.80541 0.70711 0.47982 0.0
C205 C 0.76292 0.75186 0.48702 0.0
C206 C 0.80976 0.70041 0.49769 0.0
C207 C 0.79058 0.71877 0.51015 0.0
H208 H 0.25294 0.2797 0.67957 0.0
H209 H 0.28302 0.3365 0.72576 0.0
H210 H 0.25201 0.2947 0.74399 0.0
H211 H 0.21985 0.24004 0.7469 0.0
H212 H 0.19154 0.18217 0.70075 0.0
H213 H 0.21816 0.2267 0.6824 0.0
C214 C 0.25252 0.28316 0.69362 0.0
C215 C 0.27052 0.31109 0.70129 0.0
C216 C 0.23505 0.25879 0.70403 0.0
C217 C 0.26955 0.31517 0.71952 0.0
C218 C 0.25184 0.29125 0.72995 0.0
C219 C 0.21915 0.23728 0.73282 0.0
C220 C 0.2039 0.20764 0.72523 0.0
C221 C 0.23501 0.26266 0.72237 0.0
C222 C 0.20323 0.2046 0.70695 0.0
C223 C 0.21851 0.23002 0.69645 0.0
H224 H 0.7526 0.74352 0.94931 0.0
H225 H 0.69663 0.8024 -0.01177 0.0
H226 H 0.72033 0.76551 0.01117 0.0
H227 H 0.76004 0.7194 0.02031 0.0
H228 H 0.81747 0.66175 -0.01853 0.0
H229 H 0.78983 0.69525 0.95833 0.0
C230 C 0.7453 0.74813 0.96279 0.0
C231 C 0.72307 0.77588 0.96705 0.0
C232 C 0.75942 0.72717 0.97593 0.0
C233 C 0.71382 0.78136 -0.01541 0.0
C234 C 0.72741 0.7603 -0.00227 0.0
C235 C 0.76633 0.71391 0.00678 0.0
C236 C 0.79102 0.68827 0.00264 0.0
C237 C 0.75073 0.73358 -0.00643 0.0
C238 C 0.79871 0.68144 -0.01497 0.0
C239 C 0.78295 0.70063 0.97179 0.0
H240 H 0.25622 0.24415 0.00559 0.0
H241 H 0.19807 0.3027 0.96765 0.0
H242 H 0.23407 0.27909 0.94423 0.0
H243 H 0.27898 0.23856 0.93437 0.0
H244 H 0.3358 0.17849 0.97222 0.0
H245 H 0.30346 0.20624 -0.00413 0.0
C246 C 0.25159 0.25205 -0.00778 0.0
C247 C 0.22428 0.27495 -0.01162 0.0
C248 C 0.27201 0.23796 0.9788 0.0
C249 C 0.21878 0.28497 0.97098 0.0
C250 C 0.23931 0.27143 0.95757 0.0
C251 C 0.28456 0.23173 0.9478 0.0
C252 C 0.30959 0.20625 0.9515 0.0
C253 C 0.26553 0.24739 0.9613 0.0
C254 C 0.31655 0.19787 0.96899 0.0
C255 C 0.29803 0.21369 -0.01748 0.0
H256 H 0.68399 0.72591 0.25601 0.0
H257 H 0.65515 0.65201 0.21611 0.0
H258 H 0.69031 0.68344 0.1948 0.0
H259 H 0.73273 0.72899 0.18814 0.0
H260 H 0.76336 0.80137 0.22839 0.0
H261 H 0.72373 0.77346 0.24892 0.0
C262 C 0.68504 0.71683 0.24261 0.0
C263 C 0.66715 0.68645 0.23771 0.0
C264 C 0.70581 0.73461 0.23052 0.0
C265 C 0.66879 0.67519 0.22027 0.0
C266 C 0.68896 0.69311 0.20808 0.0
C267 C 0.73053 0.73892 0.20135 0.0
C268 C 0.75122 0.76707 0.20676 0.0
C269 C 0.70814 0.7224 0.21316 0.0
C270 C 0.74792 0.77962 0.22391 0.0
C271 C 0.72529 0.76365 0.23567 0.0
H272 H 0.2433 0.2607 0.51119 0.0
H273 H 0.31306 0.20903 0.4755 0.0
H274 H 0.27545 0.22392 0.45109 0.0
H275 H 0.22528 0.2553 0.43969 0.0
H276 H 0.15656 0.30871 0.47525 0.0
H277 H 0.19121 0.28914 0.49995 0.0
C278 C 0.25016 0.25237 0.4981 0.0
C279 C 0.28113 0.23403 0.49517 0.0
C280 C 0.22871 0.26149 0.4841 0.0
C281 C 0.28949 0.22336 0.47812 0.0
C282 C 0.26802 0.2319 0.46415 0.0
C283 C 0.21764 0.26243 0.45285 0.0
C284 C 0.18852 0.2837 0.45559 0.0
C285 C 0.23795 0.25155 0.46695 0.0
C286 C 0.17896 0.29252 0.47275 0.0
C287 C 0.19879 0.28139 0.48688 0.0
H288 H 0.74908 0.75965 0.78036 0.0
H289 H 0.81588 0.78293 0.73666 0.0
H290 H 0.78223 0.74375 0.71816 0.0
H291 H 0.73243 0.70504 0.71409 0.0
H292 H 0.66468 0.68322 0.75761 0.0
H293 H 0.70041 0.71956 0.77653 0.0
C294 C 0.75644 0.75607 0.76681 0.0
C295 C 0.7849 0.77435 0.7599 0.0
C296 C 0.73681 0.7338 0.75622 0.0
C297 C 0.79403 0.76931 0.74231 0.0
C298 C 0.77481 0.7469 0.73172 0.0
C299 C 0.7256 0.70795 0.72775 0.0
C300 C 0.69582 0.69147 0.7344 0.0
C301 C 0.74594 0.7293 0.73849 0.0
C302 C 0.68737 0.69566 0.75213 0.0
C303 C 0.70776 0.71649 0.76296 0.0
H304 H 0.07116 0.22914 0.13014 0.0
H305 H 0.13683 0.1492 0.10829 0.0
H306 H 0.13932 0.18054 0.08071 0.0
H307 H 0.12589 0.23196 0.06342 0.0
H308 H 0.06121 0.3128 0.08511 0.0
H309 H 0.05525 0.2796 0.11215 0.0
C310 C 0.0857 0.21835 0.11929 0.0
C311 C 0.10393 0.18692 0.12134 0.0
C312 C 0.08745 0.23676 0.10349 0.0
C313 C 0.12267 0.17338 0.10713 0.0
C314 C 0.12419 0.19133 0.09134 0.0
C315 C 0.11035 0.24237 0.07401 0.0
C316 C 0.09427 0.275 0.07227 0.0
C317 C 0.1072 0.2233 0.0895 0.0
C318 C 0.07399 0.28783 0.08611 0.0
C319 C 0.07059 0.26886 0.10158 0.0
H320 H 0.72891 0.56793 0.32733 0.0
H321 H 0.6588 0.64667 0.34662 0.0
H322 H 0.69269 0.65206 0.3732 0.0
H323 H 0.74399 0.63754 0.39005 0.0
H324 H 0.81468 0.55904 0.37127 0.0
H325 H 0.77864 0.55039 0.34537 0.0
C326 C 0.72078 0.58594 0.33744 0.0
C327 C 0.69146 0.60707 0.33488 0.0
C328 C 0.74064 0.58923 0.35268 0.0
C329 C 0.6813 0.63021 0.34816 0.0
C330 C 0.70074 0.63342 0.36337 0.0
C331 C 0.75158 0.61848 0.38032 0.0
C332 C 0.78223 0.5993 0.38246 0.0
C333 C 0.7308 0.61363 0.36558 0.0
C334 C 0.7913 0.57427 0.36987 0.0
C335 C 0.77072 0.56935 0.35507 0.0
H336 H 0.37593 0.29472 0.57265 0.0
H337 H 0.44412 0.21661 0.59376 0.0
H338 H 0.44665 0.24843 0.62138 0.0
H339 H 0.4262 0.29623 0.64012 0.0
H340 H 0.35681 0.37326 0.61895 0.0
H341 H 0.35844 0.34413 0.59067 0.0
C342 C 0.39153 0.28466 0.58324 0.0
C343 C 0.40954 0.25311 0.58117 0.0
C344 C 0.39266 0.30289 0.59908 0.0
C345 C 0.42986 0.24073 0.59501 0.0
C346 C 0.4313 0.2589 0.61082 0.0
C347 C 0.4118 0.30695 0.62926 0.0
C348 C 0.39124 0.33679 0.63171 0.0
C349 C 0.41236 0.28972 0.61308 0.0
C350 C 0.37272 0.35025 0.61748 0.0
C351 C 0.37354 0.33356 0.6013 0.0
H352 H 0.76043 0.87099 0.89042 0.0
H353 H 0.68406 0.94458 0.87259 0.0
H354 H 0.71462 0.94989 0.84472 0.0
H355 H 0.76131 0.93113 0.82492 0.0
H356 H 0.83678 0.85673 0.84296 0.0
H357 H 0.80832 0.85457 0.87135 0.0
C358 C 0.75043 0.88832 0.88049 0.0
C359 C 0.7198 0.90713 0.88356 0.0
C360 C 0.76799 0.89112 0.86453 0.0
C361 C 0.70749 0.92968 0.87056 0.0
C362 C 0.72495 0.93272 0.85462 0.0
C363 C 0.77178 0.91474 0.83512 0.0
C364 C 0.80107 0.89399 0.83175 0.0
C365 C 0.755 0.91324 0.85139 0.0
C366 C 0.81422 0.87287 0.84514 0.0
C367 C 0.79792 0.87154 0.86138 0.0
H368 H 0.56054 0.73112 0.64733 0.0
H369 H 0.64107 0.66301 0.62823 0.0
H370 H 0.64083 0.69297 0.60027 0.0
H371 H 0.6208 0.7406 0.58199 0.0
H372 H 0.54073 0.80952 0.60069 0.0
H373 H 0.53769 0.77696 0.62809 0.0
C374 C 0.57774 0.72255 0.63699 0.0
C375 C 0.60099 0.695 0.63996 0.0
C376 C 0.5778 0.7402 0.62094 0.0
C377 C 0.62305 0.68423 0.62637 0.0
C378 C 0.62302 0.70141 0.61037 0.0
C379 C 0.60258 0.74854 0.59202 0.0
C380 C 0.58132 0.77772 0.58937 0.0
C381 C 0.60103 0.72983 0.60766 0.0
C382 C 0.55751 0.78726 0.60242 0.0
C383 C 0.55579 0.76867 0.61809 0.0
H384 H 0.26077 0.06451 0.8793 0.0
H385 H 0.34285 0.12797 0.85803 0.0
H386 H 0.31254 0.13127 0.83025 0.0
H387 H 0.26125 0.1197 0.81273 0.0
H388 H 0.1782 0.05744 0.83386 0.0
H389 H 0.21059 0.04997 0.86098 0.0
C390 C 0.27225 0.07871 0.86853 0.0
C391 C 0.30397 0.09616 0.87082 0.0
C392 C 0.25442 0.08096 0.85262 0.0
C393 C 0.31842 0.11444 0.8567 0.0
C394 C 0.30107 0.11642 0.8408 0.0
C395 C 0.2502 0.10432 0.82321 0.0
C396 C 0.21716 0.08944 0.82131 0.0
C397 C 0.26878 0.10038 0.83875 0.0
C398 C 0.20351 0.06931 0.83499 0.0
C399 C 0.222 0.06507 0.85051 0.0
H400 H 0.86423 0.73741 0.13997 0.0
H401 H 0.92399 0.82284 0.11924 0.0
H402 H 0.93475 0.78971 0.09248 0.0
H403 H 0.92387 0.738 0.07431 0.0
H404 H 0.86292 0.65346 0.09516 0.0
H405 H 0.85626 0.68475 0.12264 0.0
C406 C 0.87977 0.74883 0.12966 0.0
C407 C 0.893 0.78273 0.13155 0.0
C408 C 0.88562 0.7298 0.11432 0.0
C409 C 0.91337 0.79687 0.1181 0.0
C410 C 0.91949 0.77795 0.10279 0.0
C411 C 0.90948 0.72621 0.08493 0.0
C412 C 0.89373 0.69349 0.08261 0.0
C413 C 0.90529 0.74459 0.10066 0.0
C414 C 0.87517 0.67865 0.09653 0.0
C415 C 0.87127 0.69656 0.11226 0.0
H416 H 0.22605 0.41778 0.38162 0.0
H417 H 0.14954 0.34861 0.35966 0.0
H418 H 0.18102 0.34771 0.33206 0.0
H419 H 0.23174 0.36352 0.31481 0.0
H420 H 0.30921 0.43167 0.33664 0.0
H421 H 0.27568 0.43606 0.36368 0.0
C422 C 0.21603 0.4028 0.37074 0.0
C423 C 0.18554 0.38313 0.37277 0.0
C424 C 0.23454 0.40198 0.35495 0.0
C425 C 0.17299 0.36387 0.35852 0.0
C426 C 0.19102 0.36326 0.34273 0.0
C427 C 0.24133 0.37948 0.32543 0.0
C428 C 0.27313 0.39701 0.32373 0.0
C429 C 0.2221 0.38171 0.34091 0.0
C430 C 0.2849 0.4178 0.3376 0.0
C431 C 0.26575 0.42029 0.35308 0.0
H432 H 0.98042 0.08305 0.17605 0.0
H433 H 0.07568 0.02737 0.18475 0.0
H434 H 0.0443 0.97223 0.18459 0.0
H435 H 0.98986 0.93978 0.18189 0.0
H436 H 0.89493 0.99523 0.17203 0.0
H437 H 0.92614 0.05048 0.17271 0.0
C438 C 0.9943 0.05886 0.17795 0.0
C439 C 0.03031 0.05934 0.18048 0.0
C440 C 0.97616 0.02719 0.17761 0.0
C441 C 0.04796 0.02774 0.18277 0.0
C442 C 0.03003 0.99618 0.18269 0.0
C443 C 0.97598 0.96395 0.17993 0.0
C444 C 0.9401 0.96338 0.17698 0.0
C445 C 0.99415 0.99559 0.18012 0.0
C446 C 0.92256 0.99492 0.1743 0.0
C447 C 0.94037 0.02654 0.17471 0.0
H448 H 0.07866 0.50397 0.42761 0.0
H449 H 0.02548 0.40659 0.43571 0.0
H450 H 0.96989 0.43671 0.43542 0.0
H451 H 0.93638 0.49069 0.43289 0.0
H452 H 0.98944 0.58778 0.42374 0.0
H453 H 0.04506 0.55776 0.42438 0.0
C454 C 0.05492 0.48935 0.42936 0.0
C455 C 0.05623 0.45312 0.43176 0.0
C456 C 0.02301 0.50677 0.42896 0.0
C457 C 0.0252 0.4345 0.43383 0.0
C458 C 0.99339 0.4517 0.43368 0.0
C459 C 0.96011 0.50529 0.43105 0.0
C460 C 0.95875 0.54144 0.42833 0.0
C461 C 0.99199 0.48782 0.43126 0.0
C462 C 0.98973 0.55993 0.42583 0.0
C463 C 0.02157 0.5428 0.42623 0.0
H464 H 0.48452 0.58457 0.69811 0.0
H465 H 0.58394 0.53359 0.69818 0.0
H466 H 0.55556 0.47686 0.69706 0.0
H467 H 0.50253 0.4417 0.69582 0.0
H468 H 0.4032 0.49282 0.69491 0.0
H469 H 0.43156 0.54947 0.6966 0.0
C470 C 0.5 0.56105 0.69794 0.0
C471 C 0.53631 0.56335 0.69828 0.0
C472 C 0.48353 0.52851 0.69711 0.0
C473 C 0.55595 0.5326 0.69792 0.0
C474 C 0.53974 0.50012 0.69729 0.0
C475 C 0.48707 0.46522 0.69603 0.0
C476 C 0.45078 0.46298 0.69527 0.0
C477 C 0.50356 0.49777 0.69685 0.0
C478 C 0.43117 0.49376 0.69546 0.0
C479 C 0.44736 0.52619 0.69644 0.0
H480 H 0.45971 0.06277 0.933 0.0
H481 H 0.39962 0.9685 0.9288 0.0
H482 H 0.4526 0.93396 0.92846 0.0
H483 H 0.51602 0.9305 0.92927 0.0
H484 H 0.57598 0.02466 0.93443 0.0
H485 H 0.52303 0.05922 0.93448 0.0
C486 C 0.4582 0.03467 0.932 0.0
C487 C 0.42575 0.01827 0.93087 0.0
C488 C 0.48874 0.01493 0.93198 0.0
C489 C 0.42425 0.9818 0.92971 0.0
C490 C 0.45454 0.96201 0.92949 0.0
C491 C 0.51751 0.95858 0.93038 0.0
C492 C 0.54992 0.97496 0.93178 0.0
C493 C 0.48693 0.9783 0.93059 0.0
C494 C 0.55137 0.01137 0.93335 0.0
C495 C 0.5211 0.03118 0.93336 0.0
H496 H 0.93736 0.53613 0.02242 0.0
H497 H 0.02833 0.60009 0.0284 0.0
H498 H 0.06448 0.54812 0.02984 0.0
H499 H 0.07032 0.48449 0.0293 0.0
H500 H 0.97958 0.42064 0.02226 0.0
H501 H 0.94332 0.47258 0.02135 0.0
C502 C 0.96509 0.53871 0.02406 0.0
C503 C 0.98009 0.57195 0.02534 0.0
C504 C 0.98579 0.50873 0.02469 0.0
C505 C 0.01611 0.57482 0.02734 0.0
C506 C 0.03681 0.54511 0.0282 0.0
C507 C 0.0426 0.48193 0.02762 0.0
C508 C 0.02768 0.44873 0.02591 0.0
C509 C 0.02194 0.51193 0.02688 0.0
C510 C 0.99175 0.44589 0.02359 0.0
C511 C 0.97097 0.47558 0.02308 0.0
H512 H 0.57647 0.4841 0.2818 0.0
H513 H 0.52799 0.5843 0.27525 0.0
H514 H 0.47104 0.55688 0.27551 0.0
H515 H 0.43499 0.5044 0.27721 0.0
H516 H 0.48333 0.40434 0.28453 0.0
H517 H 0.54029 0.43179 0.28441 0.0
C518 C 0.55344 0.49994 0.28042 0.0
C519 C 0.55652 0.53618 0.27842 0.0
C520 C 0.52073 0.48404 0.28073 0.0
C521 C 0.52639 0.55635 0.2768 0.0
C522 C 0.49379 0.54069 0.27693 0.0
C523 C 0.45798 0.48858 0.2788 0.0
C524 C 0.45488 0.45235 0.2808 0.0
C525 C 0.49065 0.50455 0.27883 0.0
C526 C 0.48494 0.43229 0.28297 0.0
C527 C 0.51756 0.44795 0.28287 0.0
H528 H 0.42845 0.04328 0.53959 0.0
H529 H 0.52518 0.09926 0.53809 0.0
H530 H 0.55701 0.04454 0.53973 0.0
H531 H 0.55744 0.98074 0.54124 0.0
H532 H 0.46077 0.9246 0.54145 0.0
H533 H 0.42889 0.9794 0.54069 0.0
C534 C 0.45649 0.04351 0.53968 0.0
C535 C 0.4744 0.07531 0.53876 0.0
C536 C 0.47466 0.01191 0.54038 0.0
C537 C 0.51075 0.07514 0.53874 0.0
C538 C 0.52899 0.04386 0.53971 0.0
C539 C 0.52939 0.9805 0.5412 0.0
C540 C 0.51152 0.94864 0.54146 0.0
C541 C 0.51122 0.01209 0.54049 0.0
C542 C 0.47517 0.94877 0.54123 0.0
C543 C 0.45691 0.9801 0.54081 0.0
H544 H 0.95744 0.93501 0.7709 0.0
H545 H 0.8934 0.02625 0.77657 0.0
H546 H 0.94487 0.06294 0.77802 0.0
H547 H 0.00809 0.0692 0.77772 0.0
H548 H 0.07212 0.97828 0.77085 0.0
H549 H 0.02067 0.94144 0.76984 0.0
C550 C 0.95475 0.96292 0.77246 0.0
C551 C 0.92161 0.97783 0.77367 0.0
C552 C 0.98446 0.98395 0.77308 0.0
C553 C 0.91858 0.01408 0.77556 0.0
C554 C 0.94801 0.03511 0.77643 0.0
C555 C 0.01079 0.04131 0.77604 0.0
C556 C 0.04391 0.02651 0.77444 0.0
C557 C 0.98108 0.02033 0.77522 0.0
C558 C 0.04694 0.99036 0.7721 0.0
C559 C 0.01753 0.96925 0.77154 0.0
loop_
_geom_bond_atom_site_label_1
_geom_bond_atom_site_label_2
_geom_bond_distance
_geom_bond_site_symmetry_2
_ccdc_geom_bond_type
O0 Cd1 2.300 . S
O0 C7 1.275 . S
Cd1 O0 2.300 . S
Cd1 O9 2.381 . S
Cd1 O10 2.378 . S
O2 Cd3 2.385 . S
O2 C7 1.255 . S
Cd3 O2 2.385 . S
Cd3 O4 2.317 . S
O4 Cd3 2.317 . S
O4 C5 1.232 . S
C5 O4 1.232 . S
C5 O6 1.218 . S
O6 C5 1.218 . S
C7 O0 1.275 . S
C7 O2 1.255 . S
C8 O9 1.258 . S
C8 O10 1.256 . S
O9 Cd1 2.381 . S
O9 C8 1.258 . S
O10 Cd1 2.378 . S
O10 C8 1.256 . S
O11 Cd12 2.300 . S
O11 C18 1.275 . S
Cd12 O11 2.300 . S
Cd12 O20 2.381 . S
Cd12 O21 2.378 . S
O13 Cd14 2.385 . S
O13 C18 1.255 . S
Cd14 O13 2.385 . S
Cd14 O15 2.317 . S
O15 Cd14 2.317 . S
O15 C16 1.232 . S
C16 O15 1.232 . S
C16 O17 1.218 . S
O17 C16 1.218 . S
C18 O11 1.275 . S
C18 O13 1.255 . S
C19 O20 1.258 . S
C19 O21 1.256 . S
O20 Cd12 2.381 . S
O20 C19 1.258 . S
O21 Cd12 2.378 . S
O21 C19 1.256 . S
O22 Cd23 2.300 . S
O22 C29 1.275 . S
Cd23 O22 2.300 . S
Cd23 O31 2.381 . S
Cd23 O32 2.378 . S
O24 Cd25 2.385 . S
O24 C29 1.255 . S
Cd25 O24 2.385 . S
Cd25 O26 2.317 . S
O26 Cd25 2.317 . S
O26 C27 1.232 . S
C27 O26 1.232 . S
C27 O28 1.218 . S
O28 C27 1.218 . S
C29 O22 1.275 . S
C29 O24 1.255 . S
C30 O31 1.258 . S
C30 O32 1.256 . S
O31 Cd23 2.381 . S
O31 C30 1.258 . S
O32 Cd23 2.378 . S
O32 C30 1.256 . S
O33 Cd34 2.300 . S
O33 C40 1.275 . S
Cd34 O33 2.300 . S
Cd34 O42 2.381 . S
Cd34 O43 2.378 . S
O35 Cd36 2.385 . S
O35 C40 1.255 . S
Cd36 O35 2.385 . S
Cd36 O37 2.317 . S
O37 Cd36 2.317 . S
O37 C38 1.232 . S
C38 O37 1.232 . S
C38 O39 1.218 . S
O39 C38 1.218 . S
C40 O33 1.275 . S
C40 O35 1.255 . S
C41 O42 1.258 . S
C41 O43 1.256 . S
O42 Cd34 2.381 . S
O42 C41 1.258 . S
O43 Cd34 2.378 . S
O43 C41 1.256 . S
O44 Cd45 2.300 . S
O44 C51 1.275 . S
Cd45 O44 2.300 . S
Cd45 O53 2.381 . S
Cd45 O54 2.378 . S
O46 Cd47 2.385 . S
O46 C51 1.255 . S
Cd47 O46 2.385 . S
Cd47 O48 2.317 . S
O48 Cd47 2.317 . S
O48 C49 1.232 . S
C49 O48 1.232 . S
C49 O50 1.218 . S
O50 C49 1.218 . S
C51 O44 1.275 . S
C51 O46 1.255 . S
C52 O53 1.258 . S
C52 O54 1.256 . S
O53 Cd45 2.381 . S
O53 C52 1.258 . S
O54 Cd45 2.378 . S
O54 C52 1.256 . S
O55 Cd56 2.300 . S
O55 C62 1.275 . S
Cd56 O55 2.300 . S
Cd56 O64 2.381 . S
Cd56 O65 2.378 . S
O57 Cd58 2.385 . S
O57 C62 1.255 . S
Cd58 O57 2.385 . S
Cd58 O59 2.317 . S
O59 Cd58 2.317 . S
O59 C60 1.232 . S
C60 O59 1.232 . S
C60 O61 1.218 . S
O61 C60 1.218 . S
C62 O55 1.275 . S
C62 O57 1.255 . S
C63 O64 1.258 . S
C63 O65 1.256 . S
O64 Cd56 2.381 . S
O64 C63 1.258 . S
O65 Cd56 2.378 . S
O65 C63 1.256 . S
O66 Cd67 2.300 . S
O66 C73 1.275 . S
Cd67 O66 2.300 . S
Cd67 O75 2.381 . S
Cd67 O76 2.378 . S
O68 Cd69 2.385 . S
O68 C73 1.255 . S
Cd69 O68 2.385 . S
Cd69 O70 2.317 . S
O70 Cd69 2.317 . S
O70 C71 1.232 . S
C71 O70 1.232 . S
C71 O72 1.218 . S
O72 C71 1.218 . S
C73 O66 1.275 . S
C73 O68 1.255 . S
C74 O75 1.258 . S
C74 O76 1.256 . S
O75 Cd67 2.381 . S
O75 C74 1.258 . S
O76 Cd67 2.378 . S
O76 C74 1.256 . S
O77 Cd78 2.300 . S
O77 C84 1.275 . S
Cd78 O77 2.300 . S
Cd78 O86 2.381 . S
Cd78 O87 2.378 . S
O79 Cd80 2.385 . S
O79 C84 1.255 . S
Cd80 O79 2.385 . S
Cd80 O81 2.317 . S
O81 Cd80 2.317 . S
O81 C82 1.232 . S
C82 O81 1.232 . S
C82 O83 1.218 . S
O83 C82 1.218 . S
C84 O77 1.275 . S
C84 O79 1.255 . S
C85 O86 1.258 . S
C85 O87 1.256 . S
O86 Cd78 2.381 . S
O86 C85 1.258 . S
O87 Cd78 2.378 . S
O87 C85 1.256 . S
O88 Cd89 2.300 . S
O88 C95 1.275 . S
Cd89 O88 2.300 . S
Cd89 O97 2.381 . S
Cd89 O98 2.378 . S
O90 Cd91 2.385 . S
O90 C95 1.255 . S
Cd91 O90 2.385 . S
Cd91 O92 2.317 . S
O92 Cd91 2.317 . S
O92 C93 1.232 . S
C93 O92 1.232 . S
C93 O94 1.218 . S
O94 C93 1.218 . S
C95 O88 1.275 . S
C95 O90 1.255 . S
C96 O97 1.258 . S
C96 O98 1.256 . S
O97 Cd89 2.381 . S
O97 C96 1.258 . S
O98 Cd89 2.378 . S
O98 C96 1.256 . S
O99 Cd100 2.300 . S
O99 C106 1.275 . S
Cd100 O99 2.300 . S
Cd100 O108 2.381 . S
Cd100 O109 2.378 . S
O101 Cd102 2.385 . S
O101 C106 1.255 . S
Cd102 O101 2.385 . S
Cd102 O103 2.317 . S
O103 Cd102 2.317 . S
O103 C104 1.232 . S
C104 O103 1.232 . S
C104 O105 1.218 . S
O105 C104 1.218 . S
C106 O99 1.275 . S
C106 O101 1.255 . S
C107 O108 1.258 . S
C107 O109 1.256 . S
O108 Cd100 2.381 . S
O108 C107 1.258 . S
O109 Cd100 2.378 . S
O109 C107 1.256 . S
O110 Cd111 2.300 . S
O110 C117 1.275 . S
Cd111 O110 2.300 . S
Cd111 O119 2.381 . S
Cd111 O120 2.378 . S
O112 Cd113 2.385 . S
O112 C117 1.255 . S
Cd113 O112 2.385 . S
Cd113 O114 2.317 . S
O114 Cd113 2.317 . S
O114 C115 1.232 . S
C115 O114 1.232 . S
C115 O116 1.218 . S
O116 C115 1.218 . S
C117 O110 1.275 . S
C117 O112 1.255 . S
C118 O119 1.258 . S
C118 O120 1.256 . S
O119 Cd111 2.381 . S
O119 C118 1.258 . S
O120 Cd111 2.378 . S
O120 C118 1.256 . S
O121 Cd122 2.300 . S
O121 C128 1.275 . S
Cd122 O121 2.300 . S
Cd122 O130 2.381 . S
Cd122 O131 2.378 . S
O123 Cd124 2.385 . S
O123 C128 1.255 . S
Cd124 O123 2.385 . S
Cd124 O125 2.317 . S
O125 Cd124 2.317 . S
O125 C126 1.232 . S
C126 O125 1.232 . S
C126 O127 1.218 . S
O127 C126 1.218 . S
C128 O121 1.275 . S
C128 O123 1.255 . S
C129 O130 1.258 . S
C129 O131 1.256 . S
O130 Cd122 2.381 . S
O130 C129 1.258 . S
O131 Cd122 2.378 . S
O131 C129 1.256 . S
O132 Cd133 2.300 . S
O132 C139 1.275 . S
Cd133 O132 2.300 . S
Cd133 O141 2.381 . S
Cd133 O142 2.378 . S
O134 Cd135 2.385 . S
O134 C139 1.255 . S
Cd135 O134 2.385 . S
Cd135 O136 2.317 . S
O136 Cd135 2.317 . S
O136 C137 1.232 . S
C137 O136 1.232 . S
C137 O138 1.218 . S
O138 C137 1.218 . S
C139 O132 1.275 . S
C139 O134 1.255 . S
C140 O141 1.258 . S
C140 O142 1.256 . S
O141 Cd133 2.381 . S
O141 C140 1.258 . S
O142 Cd133 2.378 . S
O142 C140 1.256 . S
O143 Cd144 2.300 . S
O143 C150 1.275 . S
Cd144 O143 2.300 . S
Cd144 O152 2.381 . S
Cd144 O153 2.378 . S
O145 Cd146 2.385 . S
O145 C150 1.255 . S
Cd146 O145 2.385 . S
Cd146 O147 2.317 . S
O147 Cd146 2.317 . S
O147 C148 1.232 . S
C148 O147 1.232 . S
C148 O149 1.218 . S
O149 C148 1.218 . S
C150 O143 1.275 . S
C150 O145 1.255 . S
C151 O152 1.258 . S
C151 O153 1.256 . S
O152 Cd144 2.381 . S
O152 C151 1.258 . S
O153 Cd144 2.378 . S
O153 C151 1.256 . S
O154 Cd155 2.300 . S
O154 C161 1.275 . S
Cd155 O154 2.300 . S
Cd155 O163 2.381 . S
Cd155 O164 2.378 . S
O156 Cd157 2.385 . S
O156 C161 1.255 . S
Cd157 O156 2.385 . S
Cd157 O158 2.317 . S
O158 Cd157 2.317 . S
O158 C159 1.232 . S
C159 O158 1.232 . S
C159 O160 1.218 . S
O160 C159 1.218 . S
C161 O154 1.275 . S
C161 O156 1.255 . S
C162 O163 1.258 . S
C162 O164 1.256 . S
O163 Cd155 2.381 . S
O163 C162 1.258 . S
O164 Cd155 2.378 . S
O164 C162 1.256 . S
O165 Cd166 2.300 . S
O165 C172 1.275 . S
Cd166 O165 2.300 . S
Cd166 O174 2.381 . S
Cd166 O175 2.378 . S
O167 Cd168 2.385 . S
O167 C172 1.255 . S
Cd168 O167 2.385 . S
Cd168 O169 2.317 . S
O169 Cd168 2.317 . S
O169 C170 1.232 . S
C170 O169 1.232 . S
C170 O171 1.218 . S
O171 C170 1.218 . S
C172 O165 1.275 . S
C172 O167 1.255 . S
C173 O174 1.258 . S
C173 O175 1.256 . S
O174 Cd166 2.381 . S
O174 C173 1.258 . S
O175 Cd166 2.378 . S
O175 C173 1.256 . S
H176 C182 0.930 . S
H177 C185 0.930 . S
H178 C186 0.930 . S
H179 C187 0.930 . S
H180 C190 0.930 . S
H181 C191 0.930 . S
C182 H176 0.930 . S
C182 C183 1.355 . S
C182 C184 1.415 . S
C183 C182 1.355 . S
C183 C185 1.419 . S
C184 C182 1.415 . S
C184 C189 1.425 . S
C184 C191 1.409 . S
C185 H177 0.930 . S
C185 C183 1.419 . S
C185 C186 1.362 . S
C186 H178 0.930 . S
C186 C185 1.362 . S
C186 C189 1.409 . S
C187 H179 0.930 . S
C187 C188 1.355 . S
C187 C189 1.415 . S
C188 C187 1.355 . S
C188 C190 1.419 . S
C189 C184 1.425 . S
C189 C186 1.409 . S
C189 C187 1.415 . S
C190 H180 0.930 . S
C190 C188 1.419 . S
C190 C191 1.362 . S
C191 H181 0.930 . S
C191 C184 1.409 . S
C191 C190 1.362 . S
H192 C198 0.930 . S
H193 C201 0.930 . S
H194 C202 0.930 . S
H195 C203 0.930 . S
H196 C206 0.930 . S
H197 C207 0.930 . S
C198 H192 0.930 . S
C198 C199 1.355 . S
C198 C200 1.415 . S
C199 C198 1.355 . S
C199 C201 1.419 . S
C200 C198 1.415 . S
C200 C205 1.425 . S
C200 C207 1.409 . S
C201 H193 0.930 . S
C201 C199 1.419 . S
C201 C202 1.362 . S
C202 H194 0.930 . S
C202 C201 1.362 . S
C202 C205 1.409 . S
C203 H195 0.930 . S
C203 C204 1.355 . S
C203 C205 1.415 . S
C204 C203 1.355 . S
C204 C206 1.419 . S
C205 C200 1.425 . S
C205 C202 1.409 . S
C205 C203 1.415 . S
C206 H196 0.930 . S
C206 C204 1.419 . S
C206 C207 1.362 . S
C207 H197 0.930 . S
C207 C200 1.409 . S
C207 C206 1.362 . S
H208 C214 0.930 . S
H209 C217 0.930 . S
H210 C218 0.930 . S
H211 C219 0.930 . S
H212 C222 0.930 . S
H213 C223 0.930 . S
C214 H208 0.930 . S
C214 C215 1.355 . S
C214 C216 1.415 . S
C215 C214 1.355 . S
C215 C217 1.419 . S
C216 C214 1.415 . S
C216 C221 1.425 . S
C216 C223 1.409 . S
C217 H209 0.930 . S
C217 C215 1.419 . S
C217 C218 1.362 . S
C218 H210 0.930 . S
C218 C217 1.362 . S
C218 C221 1.409 . S
C219 H211 0.930 . S
C219 C220 1.355 . S
C219 C221 1.415 . S
C220 C219 1.355 . S
C220 C222 1.419 . S
C221 C216 1.425 . S
C221 C218 1.409 . S
C221 C219 1.415 . S
C222 H212 0.930 . S
C222 C220 1.419 . S
C222 C223 1.362 . S
C223 H213 0.930 . S
C223 C216 1.409 . S
C223 C222 1.362 . S
H224 C230 0.930 . S
H225 C233 0.930 . S
H226 C234 0.930 . S
H227 C235 0.930 . S
H228 C238 0.930 . S
H229 C239 0.930 . S
C230 H224 0.930 . S
C230 C231 1.355 . S
C230 C232 1.415 . S
C231 C230 1.355 . S
C231 C233 1.419 . S
C232 C230 1.415 . S
C232 C237 1.425 1_556 S
C232 C239 1.409 . S
C233 H225 0.930 . S
C233 C231 1.419 . S
C233 C234 1.362 1_556 S
C234 H226 0.930 . S
C234 C233 1.362 1_554 S
C234 C237 1.409 . S
C235 H227 0.930 . S
C235 C236 1.355 . S
C235 C237 1.415 . S
C236 C235 1.355 . S
C236 C238 1.419 . S
C237 C232 1.425 1_554 S
C237 C234 1.409 . S
C237 C235 1.415 . S
C238 H228 0.930 . S
C238 C236 1.419 . S
C238 C239 1.362 1_554 S
C239 H229 0.930 . S
C239 C232 1.409 . S
C239 C238 1.362 1_556 S
H240 C246 0.930 . S
H241 C249 0.930 . S
H242 C250 0.930 . S
H243 C251 0.930 . S
H244 C254 0.930 . S
H245 C255 0.930 . S
C246 H240 0.930 . S
C246 C247 1.355 . S
C246 C248 1.415 . S
C247 C246 1.355 . S
C247 C249 1.419 . S
C248 C246 1.415 . S
C248 C253 1.425 1_554 S
C248 C255 1.409 . S
C249 H241 0.930 . S
C249 C247 1.419 . S
C249 C250 1.362 1_554 S
C250 H242 0.930 . S
C250 C249 1.362 1_556 S
C250 C253 1.409 . S
C251 H243 0.930 . S
C251 C252 1.355 . S
C251 C253 1.415 . S
C252 C251 1.355 . S
C252 C254 1.419 . S
C253 C248 1.425 1_556 S
C253 C250 1.409 . S
C253 C251 1.415 . S
C254 H244 0.930 . S
C254 C252 1.419 . S
C254 C255 1.362 1_556 S
C255 H245 0.930 . S
C255 C248 1.409 . S
C255 C254 1.362 1_554 S
H256 C262 0.930 . S
H257 C265 0.930 . S
H258 C266 0.930 . S
H259 C267 0.930 . S
H260 C270 0.930 . S
H261 C271 0.930 . S
C262 H256 0.930 . S
C262 C263 1.355 . S
C262 C264 1.415 . S
C263 C262 1.355 . S
C263 C265 1.419 . S
C264 C262 1.415 . S
C264 C269 1.425 . S
C264 C271 1.409 . S
C265 H257 0.930 . S
C265 C263 1.419 . S
C265 C266 1.362 . S
C266 H258 0.930 . S
C266 C265 1.362 . S
C266 C269 1.409 . S
C267 H259 0.930 . S
C267 C268 1.355 . S
C267 C269 1.415 . S
C268 C267 1.355 . S
C268 C270 1.419 . S
C269 C264 1.425 . S
C269 C266 1.409 . S
C269 C267 1.415 . S
C270 H260 0.930 . S
C270 C268 1.419 . S
C270 C271 1.362 . S
C271 H261 0.930 . S
C271 C264 1.409 . S
C271 C270 1.362 . S
H272 C278 0.930 . S
H273 C281 0.930 . S
H274 C282 0.930 . S
H275 C283 0.930 . S
H276 C286 0.930 . S
H277 C287 0.930 . S
C278 H272 0.930 . S
C278 C279 1.355 . S
C278 C280 1.415 . S
C279 C278 1.355 . S
C279 C281 1.419 . S
C280 C278 1.415 . S
C280 C285 1.425 . S
C280 C287 1.409 . S
C281 H273 0.930 . S
C281 C279 1.419 . S
C281 C282 1.362 . S
C282 H274 0.930 . S
C282 C281 1.362 . S
C282 C285 1.409 . S
C283 H275 0.930 . S
C283 C284 1.355 . S
C283 C285 1.415 . S
C284 C283 1.355 . S
C284 C286 1.419 . S
C285 C280 1.425 . S
C285 C282 1.409 . S
C285 C283 1.415 . S
C286 H276 0.930 . S
C286 C284 1.419 . S
C286 C287 1.362 . S
C287 H277 0.930 . S
C287 C280 1.409 . S
C287 C286 1.362 . S
H288 C294 0.930 . S
H289 C297 0.930 . S
H290 C298 0.930 . S
H291 C299 0.930 . S
H292 C302 0.930 . S
H293 C303 0.930 . S
C294 H288 0.930 . S
C294 C295 1.355 . S
C294 C296 1.415 . S
C295 C294 1.355 . S
C295 C297 1.419 . S
C296 C294 1.415 . S
C296 C301 1.425 . S
C296 C303 1.409 . S
C297 H289 0.930 . S
C297 C295 1.419 . S
C297 C298 1.362 . S
C298 H290 0.930 . S
C298 C297 1.362 . S
C298 C301 1.409 . S
C299 H291 0.930 . S
C299 C300 1.355 . S
C299 C301 1.415 . S
C300 C299 1.355 . S
C300 C302 1.419 . S
C301 C296 1.425 . S
C301 C298 1.409 . S
C301 C299 1.415 . S
C302 H292 0.930 . S
C302 C300 1.419 . S
C302 C303 1.362 . S
C303 H293 0.930 . S
C303 C296 1.409 . S
C303 C302 1.362 . S
H304 C310 0.930 . S
H305 C313 0.930 . S
H306 C314 0.930 . S
H307 C315 0.930 . S
H308 C318 0.930 . S
H309 C319 0.930 . S
C310 H304 0.930 . S
C310 C311 1.355 . S
C310 C312 1.415 . S
C311 C310 1.355 . S
C311 C313 1.419 . S
C312 C310 1.415 . S
C312 C317 1.425 . S
C312 C319 1.409 . S
C313 H305 0.930 . S
C313 C311 1.419 . S
C313 C314 1.362 . S
C314 H306 0.930 . S
C314 C313 1.362 . S
C314 C317 1.409 . S
C315 H307 0.930 . S
C315 C316 1.355 . S
C315 C317 1.415 . S
C316 C315 1.355 . S
C316 C318 1.419 . S
C317 C312 1.425 . S
C317 C314 1.409 . S
C317 C315 1.415 . S
C318 H308 0.930 . S
C318 C316 1.419 . S
C318 C319 1.362 . S
C319 H309 0.930 . S
C319 C312 1.409 . S
C319 C318 1.362 . S
H320 C326 0.930 . S
H321 C329 0.930 . S
H322 C330 0.930 . S
H323 C331 0.930 . S
H324 C334 0.930 . S
H325 C335 0.930 . S
C326 H320 0.930 . S
C326 C327 1.355 . S
C326 C328 1.415 . S
C327 C326 1.355 . S
C327 C329 1.419 . S
C328 C326 1.415 . S
C328 C333 1.425 . S
C328 C335 1.409 . S
C329 H321 0.930 . S
C329 C327 1.419 . S
C329 C330 1.362 . S
C330 H322 0.930 . S
C330 C329 1.362 . S
C330 C333 1.409 . S
C331 H323 0.930 . S
C331 C332 1.355 . S
C331 C333 1.415 . S
C332 C331 1.355 . S
C332 C334 1.419 . S
C333 C328 1.425 . S
C333 C330 1.409 . S
C333 C331 1.415 . S
C334 H324 0.930 . S
C334 C332 1.419 . S
C334 C335 1.362 . S
C335 H325 0.930 . S
C335 C328 1.409 . S
C335 C334 1.362 . S
H336 C342 0.930 . S
H337 C345 0.930 . S
H338 C346 0.930 . S
H339 C347 0.930 . S
H340 C350 0.930 . S
H341 C351 0.930 . S
C342 H336 0.930 . S
C342 C343 1.355 . S
C342 C344 1.415 . S
C343 C342 1.355 . S
C343 C345 1.419 . S
C344 C342 1.415 . S
C344 C349 1.425 . S
C344 C351 1.409 . S
C345 H337 0.930 . S
C345 C343 1.419 . S
C345 C346 1.362 . S
C346 H338 0.930 . S
C346 C345 1.362 . S
C346 C349 1.409 . S
C347 H339 0.930 . S
C347 C348 1.355 . S
C347 C349 1.415 . S
C348 C347 1.355 . S
C348 C350 1.419 . S
C349 C344 1.425 . S
C349 C346 1.409 . S
C349 C347 1.415 . S
C350 H340 0.930 . S
C350 C348 1.419 . S
C350 C351 1.362 . S
C351 H341 0.930 . S
C351 C344 1.409 . S
C351 C350 1.362 . S
H352 C358 0.930 . S
H353 C361 0.930 . S
H354 C362 0.930 . S
H355 C363 0.930 . S
H356 C366 0.930 . S
H357 C367 0.930 . S
C358 H352 0.930 . S
C358 C359 1.355 . S
C358 C360 1.415 . S
C359 C358 1.355 . S
C359 C361 1.419 . S
C360 C358 1.415 . S
C360 C365 1.425 . S
C360 C367 1.409 . S
C361 H353 0.930 . S
C361 C359 1.419 . S
C361 C362 1.362 . S
C362 H354 0.930 . S
C362 C361 1.362 . S
C362 C365 1.409 . S
C363 H355 0.930 . S
C363 C364 1.355 . S
C363 C365 1.415 . S
C364 C363 1.355 . S
C364 C366 1.419 . S
C365 C360 1.425 . S
C365 C362 1.409 . S
C365 C363 1.415 . S
C366 H356 0.930 . S
C366 C364 1.419 . S
C366 C367 1.362 . S
C367 H357 0.930 . S
C367 C360 1.409 . S
C367 C366 1.362 . S
H368 C374 0.930 . S
H369 C377 0.930 . S
H370 C378 0.930 . S
H371 C379 0.930 . S
H372 C382 0.930 . S
H373 C383 0.930 . S
C374 H368 0.930 . S
C374 C375 1.355 . S
C374 C376 1.415 . S
C375 C374 1.355 . S
C375 C377 1.419 . S
C376 C374 1.415 . S
C376 C381 1.425 . S
C376 C383 1.409 . S
C377 H369 0.930 . S
C377 C375 1.419 . S
C377 C378 1.362 . S
C378 H370 0.930 . S
C378 C377 1.362 . S
C378 C381 1.409 . S
C379 H371 0.930 . S
C379 C380 1.355 . S
C379 C381 1.415 . S
C380 C379 1.355 . S
C380 C382 1.419 . S
C381 C376 1.425 . S
C381 C378 1.409 . S
C381 C379 1.415 . S
C382 H372 0.930 . S
C382 C380 1.419 . S
C382 C383 1.362 . S
C383 H373 0.930 . S
C383 C376 1.409 . S
C383 C382 1.362 . S
H384 C390 0.930 . S
H385 C393 0.930 . S
H386 C394 0.930 . S
H387 C395 0.930 . S
H388 C398 0.930 . S
H389 C399 0.930 . S
C390 H384 0.930 . S
C390 C391 1.355 . S
C390 C392 1.415 . S
C391 C390 1.355 . S
C391 C393 1.419 . S
C392 C390 1.415 . S
C392 C397 1.425 . S
C392 C399 1.409 . S
C393 H385 0.930 . S
C393 C391 1.419 . S
C393 C394 1.362 . S
C394 H386 0.930 . S
C394 C393 1.362 . S
C394 C397 1.409 . S
C395 H387 0.930 . S
C395 C396 1.355 . S
C395 C397 1.415 . S
C396 C395 1.355 . S
C396 C398 1.419 . S
C397 C392 1.425 . S
C397 C394 1.409 . S
C397 C395 1.415 . S
C398 H388 0.930 . S
C398 C396 1.419 . S
C398 C399 1.362 . S
C399 H389 0.930 . S
C399 C392 1.409 . S
C399 C398 1.362 . S
H400 C406 0.930 . S
H401 C409 0.930 . S
H402 C410 0.930 . S
H403 C411 0.930 . S
H404 C414 0.930 . S
H405 C415 0.930 . S
C406 H400 0.930 . S
C406 C407 1.355 . S
C406 C408 1.415 . S
C407 C406 1.355 . S
C407 C409 1.419 . S
C408 C406 1.415 . S
C408 C413 1.425 . S
C408 C415 1.409 . S
C409 H401 0.930 . S
C409 C407 1.419 . S
C409 C410 1.362 . S
C410 H402 0.930 . S
C410 C409 1.362 . S
C410 C413 1.409 . S
C411 H403 0.930 . S
C411 C412 1.355 . S
C411 C413 1.415 . S
C412 C411 1.355 . S
C412 C414 1.419 . S
C413 C408 1.425 . S
C413 C410 1.409 . S
C413 C411 1.415 . S
C414 H404 0.930 . S
C414 C412 1.419 . S
C414 C415 1.362 . S
C415 H405 0.930 . S
C415 C408 1.409 . S
C415 C414 1.362 . S
H416 C422 0.930 . S
H417 C425 0.930 . S
H418 C426 0.930 . S
H419 C427 0.930 . S
H420 C430 0.930 . S
H421 C431 0.930 . S
C422 H416 0.930 . S
C422 C423 1.355 . S
C422 C424 1.415 . S
C423 C422 1.355 . S
C423 C425 1.419 . S
C424 C422 1.415 . S
C424 C429 1.425 . S
C424 C431 1.409 . S
C425 H417 0.930 . S
C425 C423 1.419 . S
C425 C426 1.362 . S
C426 H418 0.930 . S
C426 C425 1.362 . S
C426 C429 1.409 . S
C427 H419 0.930 . S
C427 C428 1.355 . S
C427 C429 1.415 . S
C428 C427 1.355 . S
C428 C430 1.419 . S
C429 C424 1.425 . S
C429 C426 1.409 . S
C429 C427 1.415 . S
C430 H420 0.930 . S
C430 C428 1.419 . S
C430 C431 1.362 . S
C431 H421 0.930 . S
C431 C424 1.409 . S
C431 C430 1.362 . S
H432 C438 0.930 . S
H433 C441 0.930 1_565 S
H434 C442 0.930 . S
H435 C443 0.930 . S
H436 C446 0.930 1_545 S
H437 C447 0.930 . S
C438 H432 0.930 . S
C438 C439 1.355 . S
C438 C440 1.415 1_455 S
C439 C438 1.355 . S
C439 C441 1.419 . S
C440 C438 1.415 1_655 S
C440 C445 1.425 1_645 S
C440 C447 1.409 . S
C441 H433 0.930 1_545 S
C441 C439 1.419 . S
C441 C442 1.362 1_545 S
C442 H434 0.930 . S
C442 C441 1.362 1_565 S
C442 C445 1.409 . S
C443 H435 0.930 . S
C443 C444 1.355 . S
C443 C445 1.415 1_655 S
C444 C443 1.355 . S
C444 C446 1.419 . S
C445 C440 1.425 1_465 S
C445 C442 1.409 . S
C445 C443 1.415 1_455 S
C446 H436 0.930 1_565 S
C446 C444 1.419 . S
C446 C447 1.362 1_565 S
C447 H437 0.930 . S
C447 C440 1.409 . S
C447 C446 1.362 1_545 S
H448 C454 0.930 . S
H449 C457 0.930 . S
H450 C458 0.930 . S
H451 C459 0.930 . S
H452 C462 0.930 . S
H453 C463 0.930 . S
C454 H448 0.930 . S
C454 C455 1.355 . S
C454 C456 1.415 . S
C455 C454 1.355 . S
C455 C457 1.419 . S
C456 C454 1.415 . S
C456 C461 1.425 1_455 S
C456 C463 1.409 . S
C457 H449 0.930 . S
C457 C455 1.419 . S
C457 C458 1.362 1_455 S
C458 H450 0.930 . S
C458 C457 1.362 1_655 S
C458 C461 1.409 . S
C459 H451 0.930 . S
C459 C460 1.355 . S
C459 C461 1.415 . S
C460 C459 1.355 . S
C460 C462 1.419 . S
C461 C456 1.425 1_655 S
C461 C458 1.409 . S
C461 C459 1.415 . S
C462 H452 0.930 . S
C462 C460 1.419 . S
C462 C463 1.362 1_655 S
C463 H453 0.930 . S
C463 C456 1.409 . S
C463 C462 1.362 1_455 S
H464 C470 0.930 . S
H465 C473 0.930 . S
H466 C474 0.930 . S
H467 C475 0.930 . S
H468 C478 0.930 . S
H469 C479 0.930 . S
C470 H464 0.930 . S
C470 C471 1.355 . S
C470 C472 1.415 . S
C471 C470 1.355 . S
C471 C473 1.419 . S
C472 C470 1.415 . S
C472 C477 1.425 . S
C472 C479 1.409 . S
C473 H465 0.930 . S
C473 C471 1.419 . S
C473 C474 1.362 . S
C474 H466 0.930 . S
C474 C473 1.362 . S
C474 C477 1.409 . S
C475 H467 0.930 . S
C475 C476 1.355 . S
C475 C477 1.415 . S
C476 C475 1.355 . S
C476 C478 1.419 . S
C477 C472 1.425 . S
C477 C474 1.409 . S
C477 C475 1.415 . S
C478 H468 0.930 . S
C478 C476 1.419 . S
C478 C479 1.362 . S
C479 H469 0.930 . S
C479 C472 1.409 . S
C479 C478 1.362 . S
H480 C486 0.930 . S
H481 C489 0.930 . S
H482 C490 0.930 . S
H483 C491 0.930 . S
H484 C494 0.930 . S
H485 C495 0.930 . S
C486 H480 0.930 . S
C486 C487 1.355 . S
C486 C488 1.415 . S
C487 C486 1.355 . S
C487 C489 1.419 . S
C488 C486 1.415 . S
C488 C493 1.425 1_545 S
C488 C495 1.409 . S
C489 H481 0.930 . S
C489 C487 1.419 . S
C489 C490 1.362 1_545 S
C490 H482 0.930 . S
C490 C489 1.362 1_565 S
C490 C493 1.409 . S
C491 H483 0.930 . S
C491 C492 1.355 . S
C491 C493 1.415 . S
C492 C491 1.355 . S
C492 C494 1.419 . S
C493 C488 1.425 1_565 S
C493 C490 1.409 . S
C493 C491 1.415 . S
C494 H484 0.930 . S
C494 C492 1.419 . S
C494 C495 1.362 1_565 S
C495 H485 0.930 . S
C495 C488 1.409 . S
C495 C494 1.362 1_545 S
H496 C502 0.930 . S
H497 C505 0.930 . S
H498 C506 0.930 . S
H499 C507 0.930 . S
H500 C510 0.930 . S
H501 C511 0.930 . S
C502 H496 0.930 . S
C502 C503 1.355 . S
C502 C504 1.415 . S
C503 C502 1.355 . S
C503 C505 1.419 . S
C504 C502 1.415 . S
C504 C509 1.425 1_655 S
C504 C511 1.409 . S
C505 H497 0.930 . S
C505 C503 1.419 . S
C505 C506 1.362 1_655 S
C506 H498 0.930 . S
C506 C505 1.362 1_455 S
C506 C509 1.409 . S
C507 H499 0.930 . S
C507 C508 1.355 . S
C507 C509 1.415 . S
C508 C507 1.355 . S
C508 C510 1.419 . S
C509 C504 1.425 1_455 S
C509 C506 1.409 . S
C509 C507 1.415 . S
C510 H500 0.930 . S
C510 C508 1.419 . S
C510 C511 1.362 1_455 S
C511 H501 0.930 . S
C511 C504 1.409 . S
C511 C510 1.362 1_655 S
H512 C518 0.930 . S
H513 C521 0.930 . S
H514 C522 0.930 . S
H515 C523 0.930 . S
H516 C526 0.930 . S
H517 C527 0.930 . S
C518 H512 0.930 . S
C518 C519 1.355 . S
C518 C520 1.415 . S
C519 C518 1.355 . S
C519 C521 1.419 . S
C520 C518 1.415 . S
C520 C525 1.425 . S
C520 C527 1.409 . S
C521 H513 0.930 . S
C521 C519 1.419 . S
C521 C522 1.362 . S
C522 H514 0.930 . S
C522 C521 1.362 . S
C522 C525 1.409 . S
C523 H515 0.930 . S
C523 C524 1.355 . S
C523 C525 1.415 . S
C524 C523 1.355 . S
C524 C526 1.419 . S
C525 C520 1.425 . S
C525 C522 1.409 . S
C525 C523 1.415 . S
C526 H516 0.930 . S
C526 C524 1.419 . S
C526 C527 1.362 . S
C527 H517 0.930 . S
C527 C520 1.409 . S
C527 C526 1.362 . S
H528 C534 0.930 1_565 S
H529 C537 0.930 . S
H530 C538 0.930 . S
H531 C539 0.930 1_545 S
H532 C542 0.930 . S
H533 C543 0.930 . S
C534 H528 0.930 1_545 S
C534 C535 1.355 . S
C534 C536 1.415 1_545 S
C535 C534 1.355 . S
C535 C537 1.419 . S
C536 C534 1.415 1_565 S
C536 C541 1.425 1_565 S
C536 C543 1.409 . S
C537 H529 0.930 . S
C537 C535 1.419 . S
C537 C538 1.362 . S
C538 H530 0.930 . S
C538 C537 1.362 . S
C538 C541 1.409 . S
C539 H531 0.930 1_565 S
C539 C540 1.355 . S
C539 C541 1.415 1_565 S
C540 C539 1.355 . S
C540 C542 1.419 . S
C541 C536 1.425 1_545 S
C541 C538 1.409 . S
C541 C539 1.415 1_545 S
C542 H532 0.930 . S
C542 C540 1.419 . S
C542 C543 1.362 . S
C543 H533 0.930 . S
C543 C536 1.409 . S
C543 C542 1.362 . S
H544 C550 0.930 . S
H545 C553 0.930 . S
H546 C554 0.930 . S
H547 C555 0.930 . S
H548 C558 0.930 . S
H549 C559 0.930 . S
C550 H544 0.930 . S
C550 C551 1.355 . S
C550 C552 1.415 1_655 S
C551 C550 1.355 . S
C551 C553 1.419 . S
C552 C550 1.415 1_455 S
C552 C557 1.425 1_465 S
C552 C559 1.409 . S
C553 H545 0.930 . S
C553 C551 1.419 . S
C553 C554 1.362 1_565 S
C554 H546 0.930 . S
C554 C553 1.362 1_545 S
C554 C557 1.409 . S
C555 H547 0.930 . S
C555 C556 1.355 . S
C555 C557 1.415 1_455 S
C556 C555 1.355 . S
C556 C558 1.419 . S
C557 C552 1.425 1_645 S
C557 C554 1.409 . S
C557 C555 1.415 1_655 S
C558 H548 0.930 . S
C558 C556 1.419 . S
C558 C559 1.362 1_545 S
C559 H549 0.930 . S
C559 C552 1.409 . S
C559 C558 1.362 1_565 S
C183 C170 1.347 . S
C188 C5 1.433 . S
C199 C137 1.322 . S
C204 C16 1.374 . S
C215 C27 1.322 . S
C220 C148 1.405 . S
C231 C38 1.387 . S
C236 C159 1.436 . S
C247 C49 1.428 . S
C252 C104 1.406 . S
C263 C60 1.399 . S
C268 C115 1.321 . S
C279 C71 1.430 . S
C284 C126 1.403 . S
C295 C82 1.334 . S
C300 C93 1.423 . S
C311 C7 1.510 . S
C316 C51 1.507 . S
C327 C62 1.531 . S
C332 C18 1.522 . S
C343 C73 1.541 . S
C348 C29 1.547 . S
C359 C40 1.546 . S
C364 C84 1.550 . S
C375 C95 1.523 . S
C380 C139 1.515 . S
C391 C106 1.545 . S
C396 C150 1.538 . S
C407 C117 1.530 . S
C412 C161 1.539 . S
C423 C128 1.510 . S
C428 C172 1.507 . S
C439 C8 1.583 . S
C444 C118 1.580 . S
C455 C129 1.579 . S
C460 C19 1.585 . S
C471 C96 1.587 . S
C476 C30 1.571 . S
C487 C107 1.572 . S
C492 C41 1.571 . S
C503 C162 1.566 . S
C508 C52 1.579 . S
C519 C63 1.583 . S
C524 C173 1.581 . S
C535 C74 1.568 . S
C540 C140 1.575 . S
C551 C85 1.566 . S
C556 C151 1.582 . S
