# Generated by pormake.
# Topology ure, (4)-cn, num edge types: 1
# Building blocks:
#     Node 0, Type 0, BuildingBlock: AZAVOO_clean_sbu_0, # of connection points: 4
#     Node 1, Type 0, BuildingBlock: AZAVOO_clean_sbu_0, # of connection points: 4
#     Node 2, Type 0, BuildingBlock: AZAVOO_clean_sbu_0, # of connection points: 4
#     Node 3, Type 0, BuildingBlock: AZAVOO_clean_sbu_0, # of connection points: 4
#     Node 4, Type 0, BuildingBlock: AZAVOO_clean_sbu_0, # of connection points: 4
#     Node 5, Type 0, BuildingBlock: AZAVOO_clean_sbu_0, # of connection points: 4
#     Node 6, Type 0, BuildingBlock: AZAVOO_clean_sbu_0, # of connection points: 4
#     Node 7, Type 0, BuildingBlock: AZAVOO_clean_sbu_0, # of connection points: 4
#     Node 8, Type 0, BuildingBlock: AZAVOO_clean_sbu_0, # of connection points: 4
#     Node 9, Type 0, BuildingBlock: AZAVOO_clean_sbu_0, # of connection points: 4
#     Node 10, Type 0, BuildingBlock: AZAVOO_clean_sbu_0, # of connection points: 4
#     Node 11, Type 0, BuildingBlock: AZAVOO_clean_sbu_0, # of connection points: 4
#     Node 12, Type 0, BuildingBlock: AZAVOO_clean_sbu_0, # of connection points: 4
#     Node 13, Type 0, BuildingBlock: AZAVOO_clean_sbu_0, # of connection points: 4
#     Node 14, Type 0, BuildingBlock: AZAVOO_clean_sbu_0, # of connection points: 4
#     Node 15, Type 0, BuildingBlock: AZAVOO_clean_sbu_0, # of connection points: 4
#     Edge 16, Type (0, 0), BuildingBlock: OJICUG_clean_linker_0, # of connection points: 2
#     Edge 17, Type (0, 0), BuildingBlock: OJICUG_clean_linker_0, # of connection points: 2
#     Edge 18, Type (0, 0), BuildingBlock: OJICUG_clean_linker_0, # of connection points: 2
#     Edge 19, Type (0, 0), BuildingBlock: OJICUG_clean_linker_0, # of connection points: 2
#     Edge 20, Type (0, 0), BuildingBlock: OJICUG_clean_linker_0, # of connection points: 2
#     Edge 21, Type (0, 0), BuildingBlock: OJICUG_clean_linker_0, # of connection points: 2
#     Edge 22, Type (0, 0), BuildingBlock: OJICUG_clean_linker_0, # of connection points: 2
#     Edge 23, Type (0, 0), BuildingBlock: OJICUG_clean_linker_0, # of connection points: 2
#     Edge 24, Type (0, 0), BuildingBlock: OJICUG_clean_linker_0, # of connection points: 2
#     Edge 25, Type (0, 0), BuildingBlock: OJICUG_clean_linker_0, # of connection points: 2
#     Edge 26, Type (0, 0), BuildingBlock: OJICUG_clean_linker_0, # of connection points: 2
#     Edge 27, Type (0, 0), BuildingBlock: OJICUG_clean_linker_0, # of connection points: 2
#     Edge 28, Type (0, 0), BuildingBlock: OJICUG_clean_linker_0, # of connection points: 2
#     Edge 29, Type (0, 0), BuildingBlock: OJICUG_clean_linker_0, # of connection points: 2
#     Edge 30, Type (0, 0), BuildingBlock: OJICUG_clean_linker_0, # of connection points: 2
#     Edge 31, Type (0, 0), BuildingBlock: OJICUG_clean_linker_0, # of connection points: 2
#     Edge 32, Type (0, 0), BuildingBlock: OJICUG_clean_linker_0, # of connection points: 2
#     Edge 33, Type (0, 0), BuildingBlock: OJICUG_clean_linker_0, # of connection points: 2
#     Edge 34, Type (0, 0), BuildingBlock: OJICUG_clean_linker_0, # of connection points: 2
#     Edge 35, Type (0, 0), BuildingBlock: OJICUG_clean_linker_0, # of connection points: 2
#     Edge 36, Type (0, 0), BuildingBlock: OJICUG_clean_linker_0, # of connection points: 2
#     Edge 37, Type (0, 0), BuildingBlock: OJICUG_clean_linker_0, # of connection points: 2
#     Edge 38, Type (0, 0), BuildingBlock: OJICUG_clean_linker_0, # of connection points: 2
#     Edge 39, Type (0, 0), BuildingBlock: OJICUG_clean_linker_0, # of connection points: 2
#     Edge 40, Type (0, 0), BuildingBlock: OJICUG_clean_linker_0, # of connection points: 2
#     Edge 41, Type (0, 0), BuildingBlock: OJICUG_clean_linker_0, # of connection points: 2
#     Edge 42, Type (0, 0), BuildingBlock: OJICUG_clean_linker_0, # of connection points: 2
#     Edge 43, Type (0, 0), BuildingBlock: OJICUG_clean_linker_0, # of connection points: 2
#     Edge 44, Type (0, 0), BuildingBlock: OJICUG_clean_linker_0, # of connection points: 2
#     Edge 45, Type (0, 0), BuildingBlock: OJICUG_clean_linker_0, # of connection points: 2
#     Edge 46, Type (0, 0), BuildingBlock: OJICUG_clean_linker_0, # of connection points: 2
#     Edge 47, Type (0, 0), BuildingBlock: OJICUG_clean_linker_0, # of connection points: 2
# Relax obj value: 0.097
# Max RMSD: 0.075
# Mean RMSD: 0.072
data_MOF--net-ure--node1-AZAVOO_clean_sbu_0--edge1-OJICUG_clean_linker_0
_symmetry_space_group_name_H-M    P1
_symmetry_Int_Tables_number       1
_symmetry_cell_setting            triclinic
loop_
_symmetry_equiv_pos_as_xyz
'x, y, z'
_cell_length_a     23.597589
_cell_length_b     23.548772
_cell_length_c     23.966294
_cell_angle_alpha  90.75882
_cell_angle_beta   90.328243
_cell_angle_gamma 91.617142
loop_
_atom_site_label
_atom_site_type_symbol
_atom_site_fract_x
_atom_site_fract_y
_atom_site_fract_z
_atom_type_partial_charge
Mg0 Mg 0.26069 0.21231 0.28863 0.0
O1 O 0.23955 0.30724 0.27933 0.0
O2 O 0.28317 0.35494 0.34924 0.0
Mg3 Mg 0.33814 0.2942 0.39717 0.0
C4 C 0.25079 0.35329 0.30645 0.0
C5 C 0.17804 0.1529 0.20903 0.0
O6 O 0.16715 0.12938 0.25735 0.0
O7 O 0.34688 0.22992 0.24698 0.0
O8 O 0.38838 0.27865 0.31769 0.0
O9 O 0.19407 0.19826 0.35599 0.0
O10 O 0.28339 0.2229 0.37133 0.0
C11 C 0.38922 0.25766 0.26836 0.0
C12 C 0.23445 0.21065 0.39119 0.0
O13 O 0.21643 0.19166 0.20661 0.0
Mg14 Mg 0.91364 0.96063 0.47777 0.0
O15 O 0.92953 0.0536 0.44845 0.0
O16 O 0.86135 0.10644 0.48572 0.0
Mg17 Mg 0.80189 0.05091 0.53771 0.0
C18 C 0.90559 0.10125 0.45597 0.0
C19 C 0.00289 0.88849 0.41214 0.0
O20 O 0.95509 0.86253 0.39711 0.0
O21 O 0.94971 0.98773 0.56404 0.0
O22 O 0.87515 0.03462 0.59689 0.0
O23 O 0.84865 0.93801 0.40952 0.0
O24 O 0.82786 0.97704 0.49019 0.0
C25 C 0.92447 0.01456 0.60304 0.0
C26 C 0.81088 0.95843 0.44248 0.0
O27 O 0.00088 0.93172 0.44473 0.0
Mg28 Mg 0.25025 0.78711 0.82342 0.0
O29 O 0.26073 0.68949 0.81387 0.0
O30 O 0.20054 0.64903 0.87444 0.0
Mg31 Mg 0.15693 0.71649 0.92562 0.0
C32 C 0.23719 0.64564 0.83581 0.0
C33 C 0.33212 0.83993 0.73031 0.0
O34 O 0.35085 0.87119 0.77272 0.0
O35 O 0.16494 0.77835 0.77825 0.0
O36 O 0.11157 0.73738 0.84438 0.0
O37 O 0.31597 0.79422 0.8922 0.0
O38 O 0.2256 0.77767 0.90748 0.0
C39 C 0.11789 0.75747 0.79553 0.0
C40 C 0.27598 0.78338 0.92752 0.0
O41 O 0.294 0.8017 0.73873 0.0
Mg42 Mg 0.51621 0.9337 0.94574 0.0
O43 O 0.48406 0.93737 0.03776 0.0
O44 O 0.52727 0.86868 0.08405 0.0
Mg45 Mg 0.58981 0.82604 0.02686 0.0
C46 C 0.49254 0.90909 0.0822 0.0
C47 C 0.42979 0.01752 0.8937 0.0
O48 O 0.40887 0.96854 0.87502 0.0
O49 O 0.59933 0.98022 0.97138 0.0
O50 O 0.63963 0.91064 0.01791 0.0
O51 O 0.45329 0.86416 0.92041 0.0
O52 O 0.53774 0.84745 0.95448 0.0
C53 C 0.64106 0.96096 -0.0012 0.0
C54 C 0.48998 0.82756 0.9357 0.0
O55 O 0.47345 0.01787 0.92525 0.0
Mg56 Mg 0.30507 0.70826 0.29118 0.0
O57 O 0.30098 0.73182 0.19694 0.0
O58 O 0.37023 0.68532 0.15394 0.0
Mg59 Mg 0.41388 0.62856 0.21582 0.0
C60 C 0.32942 0.71965 0.1532 0.0
C61 C 0.21745 0.79359 0.34318 0.0
O62 O 0.26488 0.81303 0.36628 0.0
O63 O 0.26086 0.62204 0.27199 0.0
O64 O 0.33049 0.57716 0.22842 0.0
O65 O 0.37303 0.77489 0.30926 0.0
O66 O 0.39191 0.68771 0.28331 0.0
C67 C 0.28008 0.57803 0.24758 0.0
C68 C 0.41058 0.738 0.29633 0.0
O69 O 0.21945 0.75147 0.30921 0.0
Mg70 Mg 0.43848 -0.01049 0.41171 0.0
O71 O 0.53536 0.97157 0.40945 0.0
O72 O 0.57286 0.02918 0.34487 0.0
Mg73 Mg 0.50434 0.08077 0.30508 0.0
C74 C 0.57776 -0.0087 0.38194 0.0
C75 C 0.39073 0.90563 0.50473 0.0
O76 O 0.35796 0.88814 0.46307 0.0
O77 O 0.45849 0.07277 0.45886 0.0
O78 O 0.49723 0.12463 0.39059 0.0
O79 O 0.41913 0.92602 0.34259 0.0
O80 O 0.44101 0.01558 0.32768 0.0
C81 C 0.48198 0.11849 0.44127 0.0
C82 C 0.43003 0.96579 0.3072 0.0
O83 O 0.4286 0.94402 0.49597 0.0
Mg84 Mg 0.26442 0.30859 0.74052 0.0
O85 O 0.17102 0.29372 0.76927 0.0
O86 O 0.1181 0.3564 0.72426 0.0
Mg87 Mg 0.17401 0.40851 0.66608 0.0
C88 C 0.12325 0.3158 0.75844 0.0
C89 C 0.33667 0.22674 0.81229 0.0
O90 O 0.36407 0.27535 0.82145 0.0
O91 O 0.24155 0.26256 0.65937 0.0
O92 O 0.18889 0.32614 0.61546 0.0
O93 O 0.28418 0.37846 0.80294 0.0
O94 O 0.24702 0.39244 0.7199 0.0
C95 C 0.21211 0.27779 0.6176 0.0
C96 C 0.26431 0.41333 0.76696 0.0
O97 O 0.29258 0.22599 0.78132 0.0
Mg98 Mg 0.00474 0.9754 0.93361 0.0
O99 O 0.91198 -0.00192 0.95519 0.0
O100 O 0.85599 0.95139 0.89325 0.0
Mg101 Mg 0.90935 0.89516 0.83809 0.0
C102 C 0.86306 0.98572 0.93442 0.0
C103 C 0.07038 0.06125 0.00962 0.0
O104 O 0.086 0.07909 0.96017 0.0
O105 O -0.00746 0.88991 0.97793 0.0
O106 O 0.93517 0.84697 0.915 0.0
O107 O 0.0114 0.04163 0.86549 0.0
O108 O 0.98169 0.95279 0.85286 0.0
C109 C 0.96234 0.84712 0.96107 0.0
C110 C -0.00861 0.00204 0.8324 0.0
O111 O 0.03592 0.01905 0.01293 0.0
Mg112 Mg 0.79103 0.20346 0.78553 0.0
O113 O 0.78922 0.22929 0.69154 0.0
O114 O 0.85983 0.18406 0.64957 0.0
Mg115 Mg 0.90216 0.12626 0.71141 0.0
C116 C 0.81901 0.21835 0.64835 0.0
C117 C 0.70421 0.28792 0.83746 0.0
O118 O 0.75205 0.30616 0.86062 0.0
O119 O 0.7478 0.11678 0.76479 0.0
O120 O 0.81929 0.07382 0.72249 0.0
O121 O 0.85835 0.27008 0.80657 0.0
O122 O 0.87791 0.1833 0.77977 0.0
C123 C 0.76855 0.07327 0.74075 0.0
C124 C 0.8962 0.23321 0.79456 0.0
O125 O 0.70534 0.2463 0.80286 0.0
Mg126 Mg 0.93169 0.49175 0.90289 0.0
O127 O 0.02882 0.47652 0.90545 0.0
O128 O 0.06853 0.53363 0.84166 0.0
Mg129 Mg 0.00058 0.58254 0.79743 0.0
C130 C 0.07218 0.49656 0.87968 0.0
C131 C 0.8842 0.40766 -0.00267 0.0
O132 O 0.8541 0.38624 0.95541 0.0
O133 O 0.94664 0.57683 0.94841 0.0
O134 O 0.98753 0.62839 0.88105 0.0
O135 O 0.91827 0.42628 0.83424 0.0
O136 O 0.93758 0.51623 0.81849 0.0
C137 C 0.96948 0.62292 0.93088 0.0
C138 C 0.92935 0.46577 0.79859 0.0
O139 O 0.91976 0.44814 -0.01184 0.0
Mg140 Mg 0.77838 0.81398 0.23443 0.0
O141 O 0.68456 0.79763 0.26177 0.0
O142 O 0.63302 0.86533 0.22264 0.0
Mg143 Mg 0.68965 0.92291 0.16975 0.0
C144 C 0.63721 0.82139 0.25282 0.0
C145 C 0.84985 0.72929 0.30341 0.0
O146 O 0.87517 0.77824 0.31599 0.0
O147 O 0.75495 0.77407 0.14892 0.0
O148 O 0.70713 0.84642 0.11397 0.0
O149 O 0.79734 0.88046 0.3022 0.0
O150 O 0.76176 0.89946 0.21989 0.0
C151 C 0.72845 0.79739 0.10891 0.0
C152 C 0.77794 0.91743 0.26813 0.0
O153 O 0.80697 0.72882 0.2707 0.0
Mg154 Mg 0.02492 0.43323 0.43931 0.0
O155 O -0.00879 0.43769 0.53085 0.0
O156 O 0.03119 0.36679 0.57657 0.0
Mg157 Mg 0.09109 0.32104 0.51929 0.0
C158 C -0.00178 0.40862 0.57505 0.0
C159 C 0.94436 0.51976 0.38376 0.0
O160 O 0.92521 0.47104 0.36282 0.0
O161 O 0.11105 0.47399 0.4674 0.0
O162 O 0.14765 0.40053 0.51171 0.0
O163 O 0.95863 0.36655 0.41286 0.0
O164 O 0.04193 0.34603 0.44688 0.0
C165 C 0.15172 0.45134 0.49401 0.0
C166 C -0.00645 0.32821 0.42797 0.0
O167 O 0.9857 0.5196 0.41832 0.0
Mg168 Mg 0.4064 0.45908 0.97808 0.0
O169 O 0.42484 0.55221 0.95073 0.0
O170 O 0.36022 0.60589 -0.00708 0.0
Mg171 Mg 0.29867 0.55055 0.04278 0.0
C172 C 0.40332 0.60042 0.96163 0.0
C173 C 0.49258 0.38547 0.91051 0.0
O174 O 0.44408 0.36038 0.89636 0.0
O175 O 0.44465 0.48346 0.06382 0.0
O176 O 0.37212 0.53064 0.10071 0.0
O177 O 0.34048 0.43951 0.9104 0.0
O178 O 0.32141 0.47772 -0.00807 0.0
C179 C 0.42122 0.50949 0.10441 0.0
C180 C 0.30356 0.46038 0.94402 0.0
O181 O 0.49205 0.42859 0.94332 0.0
Mg182 Mg 0.76628 0.70726 0.78709 0.0
O183 O 0.74188 0.80157 0.77617 0.0
O184 O 0.78088 0.85161 0.84705 0.0
Mg185 Mg 0.8355 0.79292 0.89758 0.0
C186 C 0.75026 0.8483 0.80312 0.0
C187 C 0.67801 0.66141 0.70316 0.0
O188 O 0.65248 0.65312 0.75102 0.0
O189 O 0.85282 0.7282 0.74889 0.0
O190 O 0.88946 0.78012 0.81997 0.0
O191 O 0.69709 0.69226 0.8508 0.0
O192 O 0.7851 0.71885 0.871 0.0
C193 C 0.89286 0.75862 0.77098 0.0
C194 C 0.73505 0.70645 0.88785 0.0
O195 O 0.7269 0.68532 0.70301 0.0
Mg196 Mg 0.74636 0.29027 0.31843 0.0
O197 O 0.76128 0.19293 0.31136 0.0
O198 O 0.70322 0.15167 0.37331 0.0
Mg199 Mg 0.65556 0.21835 0.42132 0.0
C200 C 0.74028 0.14879 0.33505 0.0
C201 C 0.82531 0.34558 0.22416 0.0
O202 O 0.84085 0.37964 0.26569 0.0
O203 O 0.66094 0.27762 0.27297 0.0
O204 O 0.60931 0.2353 0.33951 0.0
O205 O 0.81128 0.30071 0.38833 0.0
O206 O 0.72125 0.2819 0.40247 0.0
C207 C 0.61467 0.25495 0.29039 0.0
C208 C 0.77116 0.28896 0.4232 0.0
O209 O 0.79018 0.30477 0.23347 0.0
Mg210 Mg 0.51727 0.47008 0.43057 0.0
O211 O 0.42427 0.48991 0.45325 0.0
O212 O 0.36878 0.43953 0.39372 0.0
Mg213 Mg 0.42357 0.38429 0.33901 0.0
C214 C 0.37543 0.47525 0.43378 0.0
C215 C 0.587 0.55397 0.50375 0.0
O216 O 0.61015 0.56268 0.45476 0.0
O217 O 0.509 0.38547 0.47718 0.0
O218 O 0.45155 0.33848 0.41685 0.0
O219 O 0.5196 0.53538 0.36198 0.0
O220 O 0.49372 0.44514 0.35075 0.0
C221 C 0.47984 0.34123 0.46233 0.0
C222 C 0.50023 0.4947 0.32981 0.0
O223 O 0.54692 0.51724 0.50798 0.0
C224 C 0.1065 0.08858 0.16157 0.0
C225 C 0.14811 0.13222 0.15816 0.0
H226 H 0.04914 0.03215 0.11742 0.0
C227 C 0.16198 0.15436 0.10566 0.0
H228 H 0.09464 0.07078 0.20143 0.0
C229 C 0.13582 0.13215 0.05738 0.0
C230 C 0.09531 0.08743 0.06073 0.0
H231 H 0.19374 0.18816 0.10172 0.0
H232 H 0.14808 0.1494 0.0174 0.0
C233 C 0.08036 0.06643 0.11338 0.0
C234 C 0.10994 0.88989 0.41169 0.0
C235 C 0.05798 0.86586 0.39278 0.0
H236 H 0.20056 0.88617 0.41098 0.0
C237 C 0.05903 0.8187 0.35598 0.0
H238 H 0.11089 0.92615 0.43999 0.0
C239 C 0.11055 0.79577 0.33913 0.0
C240 C 0.16249 0.81922 0.35877 0.0
H241 H 0.01992 0.799 0.34043 0.0
H242 H 0.10958 0.75915 0.31128 0.0
C243 C 0.16146 0.86683 0.395 0.0
C244 C 0.33872 0.84179 0.57175 0.0
C245 C 0.37978 0.88502 0.56225 0.0
H246 H 0.29191 0.79326 0.63184 0.0
C247 C 0.40772 0.91057 0.60858 0.0
H248 H 0.31648 0.82101 0.53714 0.0
C249 C 0.3934 0.89482 0.66303 0.0
C250 C 0.35103 0.85287 0.67256 0.0
H251 H 0.4396 0.94396 0.60291 0.0
H252 H 0.41477 0.91645 0.69768 0.0
C253 C 0.32465 0.8258 0.62617 0.0
C254 C 0.3553 0.07013 0.84183 0.0
C255 C 0.4044 0.07137 0.87552 0.0
H256 H 0.29528 0.11783 0.79578 0.0
C257 C 0.42978 0.12434 0.88985 0.0
H258 H 0.33453 0.03013 0.83001 0.0
C259 C 0.40728 0.17473 0.87001 0.0
C260 C 0.35874 0.1734 0.83552 0.0
H261 H 0.4676 0.12692 0.91568 0.0
H262 H 0.42842 0.21472 0.88124 0.0
C263 C 0.3327 0.1205 0.82217 0.0
C264 C 0.59737 0.29139 0.83522 0.0
C265 C 0.64992 0.31424 0.85388 0.0
H266 H 0.50686 0.29571 0.83838 0.0
C267 C 0.65022 0.36186 0.89012 0.0
H268 H 0.59544 0.25475 0.8074 0.0
C269 C 0.5994 0.38553 0.90784 0.0
C270 C 0.54684 0.3621 0.88997 0.0
H271 H 0.68983 0.38075 0.90534 0.0
H272 H 0.60138 0.42179 0.93613 0.0
C273 C 0.54651 0.31493 0.85312 0.0
C274 C 0.83452 0.3431 0.06554 0.0
C275 C 0.87304 0.38846 0.05536 0.0
H276 H 0.7897 0.2936 0.12637 0.0
C277 C 0.89837 0.41716 0.10139 0.0
H278 H 0.8143 0.31987 0.03119 0.0
C279 C 0.88403 0.40223 0.15608 0.0
C280 C 0.84425 0.35797 0.16623 0.0
H281 H 0.92826 0.45225 0.09525 0.0
H282 H 0.90339 0.42621 0.1904 0.0
C283 C 0.82044 0.32794 0.12024 0.0
C284 C 0.87176 0.57225 0.32904 0.0
C285 C 0.91904 0.57366 0.36527 0.0
H286 H 0.81274 0.61974 0.28142 0.0
C287 C 0.94233 0.6268 0.38208 0.0
H288 H 0.85257 0.53213 0.31523 0.0
C289 C 0.91946 0.67717 0.36245 0.0
C290 C 0.8726 0.67569 0.32567 0.0
H291 H 0.97871 0.62954 0.40984 0.0
H292 H 0.93893 0.71731 0.37582 0.0
C293 C 0.84879 0.62257 0.3096 0.0
C294 C 0.58013 0.57898 0.60484 0.0
C295 C 0.60842 0.58487 0.55376 0.0
H296 H 0.57961 0.59913 0.69192 0.0
C297 C 0.65801 0.61916 0.55141 0.0
H298 H 0.54153 0.55322 0.60789 0.0
C299 C 0.67999 0.64545 0.59975 0.0
C300 C 0.65255 0.63809 0.65114 0.0
H301 H 0.68059 0.62468 0.51255 0.0
H302 H 0.71902 0.67057 0.597 0.0
C303 C 0.60189 0.60545 0.653 0.0
C304 C 0.17203 0.21796 0.47614 0.0
C305 C 0.22598 0.21576 0.45202 0.0
H306 H 0.12531 0.23533 0.55119 0.0
C307 C 0.27409 0.22188 0.48662 0.0
H308 H 0.13424 0.21152 0.45078 0.0
C309 C 0.269 0.23651 0.54267 0.0
C310 C 0.21547 0.24496 0.56536 0.0
H311 H 0.31607 0.21841 0.46954 0.0
H312 H 0.30711 0.24561 0.56703 0.0
C313 C 0.16692 0.2321 0.53295 0.0
C314 C 0.0124 0.03608 0.73539 0.0
C315 C 0.97453 0.01236 0.77444 0.0
H316 H 0.02672 0.05492 0.64849 0.0
C317 C 0.92198 -0.00985 0.75617 0.0
H318 H 0.05352 0.05296 0.74871 0.0
C319 C 0.90832 0.98873 0.69997 0.0
C320 C 0.94538 0.01214 0.66065 0.0
H321 H 0.89114 0.97357 0.78527 0.0
H322 H 0.86813 0.96958 0.68707 0.0
C323 C -0.00225 0.03609 0.67835 0.0
C324 C 0.24485 0.75635 0.02456 0.0
C325 C 0.28819 0.77309 -0.01249 0.0
H326 H 0.22383 0.72735 0.10682 0.0
C327 C 0.3438 0.77887 0.00824 0.0
H328 H 0.20115 0.7532 0.01083 0.0
C329 C 0.35691 0.76307 0.0627 0.0
C330 C 0.31407 0.74368 0.09872 0.0
H331 H 0.37732 0.79506 0.98216 0.0
H332 H 0.40074 0.76549 0.07653 0.0
C333 C 0.25765 0.74215 0.0798 0.0
C334 C 0.4295 0.89731 0.22595 0.0
C335 C 0.43677 0.95316 0.24659 0.0
H336 H 0.4424 0.8393 0.15779 0.0
C337 C 0.45356 -0.00399 0.20915 0.0
H338 H 0.41355 0.86393 0.25249 0.0
C339 C 0.46751 0.98237 0.15385 0.0
C340 C 0.46553 0.92559 0.13524 0.0
H341 H 0.45768 0.03987 0.22283 0.0
H342 H 0.48324 0.01571 0.12681 0.0
C343 C 0.44499 0.88339 0.17134 0.0
C344 C 0.473 0.20525 0.24019 0.0
C345 C 0.4452 0.25708 0.24206 0.0
H346 H 0.55169 0.1642 0.25397 0.0
C347 C 0.47759 0.3081 0.24122 0.0
H348 H 0.44891 0.16541 0.24145 0.0
C349 C 0.53644 0.30737 0.24812 0.0
C350 C 0.56297 0.25558 0.25614 0.0
H351 H 0.45688 0.34857 0.24273 0.0
H352 H 0.55969 0.34725 0.25481 0.0
C353 C 0.53172 0.20453 0.24788 0.0
C354 C 0.93057 0.24674 0.39509 0.0
C355 C 0.97682 0.26688 0.42756 0.0
H356 H 0.86938 0.17894 0.38066 0.0
C357 C 0.00486 0.22829 0.46158 0.0
H358 H 0.91001 0.27468 0.36637 0.0
C359 C 0.98429 0.17233 0.46662 0.0
C360 C 0.93464 0.15417 0.43854 0.0
H361 H 0.04103 0.24162 0.48648 0.0
H362 H 0.0049 0.14449 0.49559 0.0
C363 C 0.90827 0.19153 0.40209 0.0
C364 C 0.98103 0.81199 0.74891 0.0
C365 C 0.94943 0.76052 0.74613 0.0
H366 H 0.06245 0.85123 0.76561 0.0
C367 C 0.97787 0.70928 0.74086 0.0
H368 H 0.95975 0.852 0.75292 0.0
C369 C 0.03648 0.70882 0.74902 0.0
C370 C 0.06684 0.75969 0.76086 0.0
H371 H 0.95429 0.66912 0.73913 0.0
H372 H 0.05693 0.66841 0.75276 0.0
C373 C 0.03977 0.81158 0.75611 0.0
C374 C 0.47828 0.67389 0.98036 0.0
C375 C 0.43391 0.65302 0.94595 0.0
H376 H 0.53069 0.74557 0.00455 0.0
C377 C 0.41283 0.68765 0.90395 0.0
H378 H 0.49443 0.6481 0.01368 0.0
C379 C 0.43451 0.74321 0.8979 0.0
C380 C 0.47556 0.76584 0.93541 0.0
H381 H 0.37805 0.67272 0.87748 0.0
H382 H 0.41725 0.76949 0.8656 0.0
C383 C 0.49894 0.72984 0.97518 0.0
C384 C 0.54551 0.82865 0.30281 0.0
C385 C 0.58388 0.79529 0.27348 0.0
H386 H 0.4627 0.83372 0.33767 0.0
C387 C 0.56698 0.73994 0.25672 0.0
H388 H 0.55713 0.87167 0.3157 0.0
C389 C 0.51117 0.71994 0.26574 0.0
C390 C 0.47175 0.75473 0.2925 0.0
H391 H 0.59574 0.71355 0.23356 0.0
H392 H 0.49865 0.6782 0.25003 0.0
C393 C 0.49089 0.80761 0.31399 0.0
C394 C 0.4367 0.19517 0.49443 0.0
C395 C 0.48645 0.16919 0.47749 0.0
H396 H 0.39606 0.27479 0.50545 0.0
C397 C 0.53768 0.20076 0.47866 0.0
H398 H 0.39699 0.17104 0.49466 0.0
C399 C 0.53755 0.25977 0.48575 0.0
C400 C 0.4858 0.28711 0.49109 0.0
H401 H 0.57648 0.18043 0.46724 0.0
H402 H 0.57633 0.28411 0.4781 0.0
C403 C 0.4363 0.25428 0.50092 0.0
C404 C 0.05349 0.2347 0.76048 0.0
C405 C 0.07039 0.28932 0.77935 0.0
H406 H 0.98502 0.1739 0.74998 0.0
C407 C 0.03175 0.32201 0.8091 0.0
H408 H 0.0825 0.20894 0.73691 0.0
C409 C 0.97648 0.30124 0.81791 0.0
C410 C 0.95754 0.24939 0.79386 0.0
H411 H 0.04355 0.36445 0.82366 0.0
H412 H 0.94757 0.32699 0.84125 0.0
C413 C -0.0026 0.21496 0.76742 0.0
C414 C 0.02013 0.76513 0.98093 0.0
C415 C 0.96777 0.79126 -0.01346 0.0
H416 H 0.06131 0.68833 0.95825 0.0
C417 C 0.91835 0.75708 -0.00764 0.0
H418 H 0.05872 0.79055 0.97587 0.0
C419 C 0.91994 0.69853 0.98227 0.0
C420 C 0.971 0.6742 0.96636 0.0
H421 H 0.87748 0.77648 -0.00328 0.0
H422 H 0.88036 0.67413 0.97947 0.0
C423 C 0.02159 0.70678 0.97008 0.0
C424 C 0.25248 0.42193 0.22858 0.0
C425 C 0.23532 0.40833 0.28289 0.0
H426 H 0.27824 0.48868 0.17331 0.0
C427 C 0.21685 0.45185 0.31836 0.0
H428 H 0.26674 0.3891 0.20029 0.0
C429 C 0.22267 0.50872 0.30249 0.0
C430 C 0.24931 0.52263 0.25213 0.0
H431 H 0.20249 0.44205 0.36006 0.0
H432 H 0.21266 0.54181 0.33222 0.0
C433 C 0.2595 0.47889 0.21333 0.0
C434 C 0.71463 0.00226 0.79686 0.0
C435 C 0.74002 0.01672 0.746 0.0
H436 H 0.69915 0.93603 0.85607 0.0
C437 C 0.75249 0.97289 0.70797 0.0
H438 H 0.70296 0.03519 0.82609 0.0
C439 C 0.74862 0.91599 0.72426 0.0
C440 C 0.73262 0.90244 0.77893 0.0
H441 H 0.77065 0.98289 0.66775 0.0
H442 H 0.76435 0.88352 0.69638 0.0
C443 C 0.71233 0.94558 0.8139 0.0
C444 C 0.21079 0.42318 0.90453 0.0
C445 C 0.244 0.46819 0.92761 0.0
H446 H 0.12916 0.39643 0.87157 0.0
C447 C 0.219 0.52056 0.93797 0.0
H448 H 0.2288 0.3819 0.8978 0.0
C449 C 0.16235 0.52846 0.92398 0.0
C450 C 0.12948 0.48415 0.89965 0.0
H451 H 0.24363 0.55599 0.95552 0.0
H452 H 0.14423 0.56961 0.93144 0.0
C453 C 0.15373 0.43111 0.89053 0.0
C454 C 0.7081 0.05761 0.29166 0.0
C455 C 0.75283 0.0917 0.31352 0.0
H456 H 0.68097 0.97542 0.26116 0.0
C457 C 0.80664 0.06851 0.31959 0.0
H458 H 0.66617 0.07462 0.287 0.0
C459 C 0.81497 0.01135 0.30539 0.0
C460 C 0.76973 0.97709 0.2846 0.0
H461 H 0.84164 0.09379 0.33673 0.0
H462 H 0.85667 -0.00601 0.31046 0.0
C463 C 0.71655 0.00099 0.27693 0.0
C464 C 0.79822 0.97854 0.01485 0.0
C465 C 0.81137 0.00305 0.96338 0.0
H466 H 0.73219 0.94771 0.06815 0.0
C467 C 0.76839 0.029 0.9331 0.0
H468 H 0.83069 0.95807 0.03889 0.0
C469 C 0.71177 0.02334 0.94995 0.0
C470 C 0.69758 -0.00981 -0.00357 0.0
H471 H 0.77809 0.04878 0.89363 0.0
H472 H 0.67892 0.03875 0.92283 0.0
C473 C 0.74164 0.97226 0.03135 0.0
C474 C 0.29941 0.56274 0.81919 0.0
C475 C 0.24717 0.58876 0.81235 0.0
H476 H 0.34564 0.48593 0.80979 0.0
C477 C 0.20166 0.55778 0.78766 0.0
H478 H 0.33485 0.58569 0.83858 0.0
C479 C 0.20773 0.50111 0.77126 0.0
C480 C 0.25912 0.4742 0.78043 0.0
H481 H 0.16094 0.57718 0.78222 0.0
H482 H 0.17158 0.4777 0.75363 0.0
C483 C 0.30525 0.50567 0.80348 0.0
C484 C 0.25234 0.45414 0.52685 0.0
C485 C 0.20945 0.47818 0.49436 0.0
H486 H 0.34057 0.436 0.53309 0.0
C487 C 0.22539 0.51664 0.45258 0.0
H488 H 0.24166 0.42528 0.56026 0.0
C489 C 0.28234 0.52202 0.43651 0.0
C490 C 0.32389 0.49094 0.46371 0.0
H491 H 0.1934 0.53696 0.42792 0.0
H492 H 0.29316 0.54606 0.39967 0.0
C493 C 0.30919 0.46051 0.51157 0.0
C494 C 0.71333 0.7823 0.95325 0.0
C495 C 0.72017 0.72433 0.94421 0.0
H496 H 0.71869 0.8506 0.01127 0.0
C497 C 0.72861 0.68867 -0.01007 0.0
H498 H 0.70897 0.81078 0.9185 0.0
C499 C 0.73005 0.7114 0.04444 0.0
C500 C 0.72498 0.77019 0.05307 0.0
H501 H 0.7364 0.64398 0.9833 0.0
H502 H 0.73671 0.68356 0.07933 0.0
C503 C 0.71774 0.80506 0.00669 0.0
C504 C 0.42788 0.4798 0.25641 0.0
C505 C 0.48019 0.50427 0.27272 0.0
H506 H 0.37146 0.45857 0.18937 0.0
C507 C 0.51466 0.53111 0.23266 0.0
H508 H 0.39946 0.46084 0.28643 0.0
C509 C 0.49701 0.53201 0.17653 0.0
C510 C 0.44498 0.50597 0.16075 0.0
H511 H 0.55545 0.54997 0.24446 0.0
H512 H 0.52333 0.55328 0.14591 0.0
C513 C 0.4112 0.4795 0.20098 0.0
C514 C 0.83831 0.27926 0.50421 0.0
C515 C 0.78263 0.27767 0.48321 0.0
H516 H 0.8936 0.26072 0.57249 0.0
C517 C 0.73813 0.26321 0.51987 0.0
H518 H 0.87313 0.29333 0.4785 0.0
C519 C 0.74952 0.247 0.57486 0.0
C520 C 0.80567 0.24418 0.594 0.0
H521 H 0.69446 0.2634 0.50598 0.0
H522 H 0.71463 0.23408 0.60144 0.0
C523 C 0.84988 0.2615 0.55847 0.0
C524 C 0.97059 0.48182 0.64605 0.0
C525 C 0.97073 0.4249 0.62798 0.0
H526 H 0.95728 0.53958 0.71413 0.0
C527 C 0.95099 0.38243 0.66427 0.0
H528 H 0.98559 0.51537 0.6189 0.0
C529 C 0.93407 0.3963 0.71845 0.0
C530 C 0.93878 0.45254 0.73849 0.0
H531 H 0.94986 0.3382 0.6511 0.0
H532 H 0.91864 0.36267 0.745 0.0
C533 C 0.95504 0.4955 0.70092 0.0
C534 C 0.71786 0.91927 0.40484 0.0
C535 C 0.75133 0.9653 0.42554 0.0
H536 H 0.63529 0.89067 0.37578 0.0
C537 C 0.72629 0.0179 0.43434 0.0
H538 H 0.73605 0.87793 0.39899 0.0
C539 C 0.66925 0.02491 0.42174 0.0
C540 C 0.63585 0.9795 0.40023 0.0
H541 H 0.75113 0.05418 0.4497 0.0
H542 H 0.6512 0.06629 0.42807 0.0
C543 C 0.66022 0.92628 0.39237 0.0
loop_
_geom_bond_atom_site_label_1
_geom_bond_atom_site_label_2
_geom_bond_distance
_geom_bond_site_symmetry_2
_ccdc_geom_bond_type
Mg0 O1 2.028 . S
Mg0 O7 1.986 . S
Mg0 O9 2.114 . S
Mg0 O10 2.251 . S
Mg0 O13 2.010 . S
O1 Mg0 2.028 . S
O1 C4 1.250 . S
O2 Mg3 2.028 . S
O2 C4 1.248 . S
Mg3 O2 2.028 . S
Mg3 O8 2.032 . S
Mg3 O10 2.079 . S
C4 O1 1.250 . S
C4 O2 1.248 . S
C5 O6 1.264 . S
C5 O13 1.249 . S
O6 C5 1.264 . S
O7 Mg0 1.986 . S
O7 C11 1.246 . S
O8 Mg3 2.032 . S
O8 C11 1.259 . S
O9 Mg0 2.114 . S
O9 C12 1.252 . S
O10 Mg0 2.251 . S
O10 Mg3 2.079 . S
O10 C12 1.273 . S
C11 O7 1.246 . S
C11 O8 1.259 . S
C12 O9 1.252 . S
C12 O10 1.273 . S
O13 Mg0 2.010 . S
O13 C5 1.249 . S
Mg14 O15 2.028 1_565 S
Mg14 O21 1.986 . S
Mg14 O23 2.114 . S
Mg14 O24 2.251 1_565 S
Mg14 O27 2.010 1_655 S
O15 Mg14 2.028 1_545 S
O15 C18 1.250 . S
O16 Mg17 2.028 . S
O16 C18 1.248 . S
Mg17 O16 2.028 . S
Mg17 O22 2.032 . S
Mg17 O24 2.079 . S
C18 O15 1.250 . S
C18 O16 1.248 . S
C19 O20 1.264 . S
C19 O27 1.249 . S
O20 C19 1.264 . S
O21 Mg14 1.986 . S
O21 C25 1.246 1_565 S
O22 Mg17 2.032 . S
O22 C25 1.259 . S
O23 Mg14 2.114 . S
O23 C26 1.252 1_565 S
O24 Mg14 2.251 1_545 S
O24 Mg17 2.079 . S
O24 C26 1.273 . S
C25 O21 1.246 1_545 S
C25 O22 1.259 . S
C26 O23 1.252 1_545 S
C26 O24 1.273 . S
O27 Mg14 2.010 1_455 S
O27 C19 1.249 . S
Mg28 O29 2.028 . S
Mg28 O35 1.986 . S
Mg28 O37 2.114 . S
Mg28 O38 2.251 . S
Mg28 O41 2.010 . S
O29 Mg28 2.028 . S
O29 C32 1.250 . S
O30 Mg31 2.028 . S
O30 C32 1.248 . S
Mg31 O30 2.028 . S
Mg31 O36 2.032 . S
Mg31 O38 2.079 . S
C32 O29 1.250 . S
C32 O30 1.248 . S
C33 O34 1.264 . S
C33 O41 1.249 . S
O34 C33 1.264 . S
O35 Mg28 1.986 . S
O35 C39 1.246 . S
O36 Mg31 2.032 . S
O36 C39 1.259 . S
O37 Mg28 2.114 . S
O37 C40 1.252 . S
O38 Mg28 2.251 . S
O38 Mg31 2.079 . S
O38 C40 1.273 . S
C39 O35 1.246 . S
C39 O36 1.259 . S
C40 O37 1.252 . S
C40 O38 1.273 . S
O41 Mg28 2.010 . S
O41 C33 1.249 . S
Mg42 O43 2.028 1_556 S
Mg42 O49 1.986 . S
Mg42 O51 2.114 . S
Mg42 O52 2.251 1_556 S
Mg42 O55 2.010 1_565 S
O43 Mg42 2.028 1_554 S
O43 C46 1.250 . S
O44 Mg45 2.028 . S
O44 C46 1.248 . S
Mg45 O44 2.028 . S
Mg45 O50 2.032 . S
Mg45 O52 2.079 . S
C46 O43 1.250 . S
C46 O44 1.248 . S
C47 O48 1.264 . S
C47 O55 1.249 . S
O48 C47 1.264 . S
O49 Mg42 1.986 . S
O49 C53 1.246 1_556 S
O50 Mg45 2.032 . S
O50 C53 1.259 . S
O51 Mg42 2.114 . S
O51 C54 1.252 1_556 S
O52 Mg42 2.251 1_554 S
O52 Mg45 2.079 . S
O52 C54 1.273 . S
C53 O49 1.246 1_554 S
C53 O50 1.259 . S
C54 O51 1.252 1_554 S
C54 O52 1.273 . S
O55 Mg42 2.010 1_545 S
O55 C47 1.249 . S
Mg56 O57 2.028 . S
Mg56 O63 1.986 . S
Mg56 O65 2.114 . S
Mg56 O66 2.251 . S
Mg56 O69 2.010 . S
O57 Mg56 2.028 . S
O57 C60 1.250 . S
O58 Mg59 2.028 . S
O58 C60 1.248 . S
Mg59 O58 2.028 . S
Mg59 O64 2.032 . S
Mg59 O66 2.079 . S
C60 O57 1.250 . S
C60 O58 1.248 . S
C61 O62 1.264 . S
C61 O69 1.249 . S
O62 C61 1.264 . S
O63 Mg56 1.986 . S
O63 C67 1.246 . S
O64 Mg59 2.032 . S
O64 C67 1.259 . S
O65 Mg56 2.114 . S
O65 C68 1.252 . S
O66 Mg56 2.251 . S
O66 Mg59 2.079 . S
O66 C68 1.273 . S
C67 O63 1.246 . S
C67 O64 1.259 . S
C68 O65 1.252 . S
C68 O66 1.273 . S
O69 Mg56 2.010 . S
O69 C61 1.249 . S
Mg70 O71 2.028 1_545 S
Mg70 O77 1.986 . S
Mg70 O79 2.114 1_545 S
Mg70 O80 2.251 . S
Mg70 O83 2.010 1_545 S
O71 Mg70 2.028 1_565 S
O71 C74 1.250 1_565 S
O72 Mg73 2.028 . S
O72 C74 1.248 . S
Mg73 O72 2.028 . S
Mg73 O78 2.032 . S
Mg73 O80 2.079 . S
C74 O71 1.250 1_545 S
C74 O72 1.248 . S
C75 O76 1.264 . S
C75 O83 1.249 . S
O76 C75 1.264 . S
O77 Mg70 1.986 . S
O77 C81 1.246 . S
O78 Mg73 2.032 . S
O78 C81 1.259 . S
O79 Mg70 2.114 1_565 S
O79 C82 1.252 . S
O80 Mg70 2.251 . S
O80 Mg73 2.079 . S
O80 C82 1.273 1_545 S
C81 O77 1.246 . S
C81 O78 1.259 . S
C82 O79 1.252 . S
C82 O80 1.273 1_565 S
O83 Mg70 2.010 1_565 S
O83 C75 1.249 . S
Mg84 O85 2.028 . S
Mg84 O91 1.986 . S
Mg84 O93 2.114 . S
Mg84 O94 2.251 . S
Mg84 O97 2.010 . S
O85 Mg84 2.028 . S
O85 C88 1.250 . S
O86 Mg87 2.028 . S
O86 C88 1.248 . S
Mg87 O86 2.028 . S
Mg87 O92 2.032 . S
Mg87 O94 2.079 . S
C88 O85 1.250 . S
C88 O86 1.248 . S
C89 O90 1.264 . S
C89 O97 1.249 . S
O90 C89 1.264 . S
O91 Mg84 1.986 . S
O91 C95 1.246 . S
O92 Mg87 2.032 . S
O92 C95 1.259 . S
O93 Mg84 2.114 . S
O93 C96 1.252 . S
O94 Mg84 2.251 . S
O94 Mg87 2.079 . S
O94 C96 1.273 . S
C95 O91 1.246 . S
C95 O92 1.259 . S
C96 O93 1.252 . S
C96 O94 1.273 . S
O97 Mg84 2.010 . S
O97 C89 1.249 . S
Mg98 O99 2.021 1_455 S
Mg98 O105 1.987 . S
Mg98 O107 2.113 1_465 S
Mg98 O108 2.248 1_455 S
Mg98 O111 2.015 1_566 S
O99 Mg98 2.021 1_655 S
O99 C102 1.250 . S
O100 Mg101 2.028 . S
O100 C102 1.248 . S
Mg101 O100 2.028 . S
Mg101 O106 2.032 . S
Mg101 O108 2.079 . S
C102 O99 1.250 . S
C102 O100 1.248 . S
C103 O104 1.264 . S
C103 O111 1.249 . S
O104 C103 1.264 . S
O105 Mg98 1.987 . S
O105 C109 1.246 1_455 S
O106 Mg101 2.032 . S
O106 C109 1.259 . S
O107 Mg98 2.113 1_645 S
O107 C110 1.252 . S
O108 Mg98 2.248 1_655 S
O108 Mg101 2.079 . S
O108 C110 1.273 1_565 S
C109 O105 1.246 1_655 S
C109 O106 1.259 . S
C110 O107 1.252 . S
C110 O108 1.273 1_545 S
O111 Mg98 2.015 1_544 S
O111 C103 1.249 . S
Mg112 O113 2.028 . S
Mg112 O119 1.986 . S
Mg112 O121 2.114 . S
Mg112 O122 2.251 . S
Mg112 O125 2.010 . S
O113 Mg112 2.028 . S
O113 C116 1.250 . S
O114 Mg115 2.028 . S
O114 C116 1.248 . S
Mg115 O114 2.028 . S
Mg115 O120 2.032 . S
Mg115 O122 2.079 . S
C116 O113 1.250 . S
C116 O114 1.248 . S
C117 O118 1.264 . S
C117 O125 1.249 . S
O118 C117 1.264 . S
O119 Mg112 1.986 . S
O119 C123 1.246 . S
O120 Mg115 2.032 . S
O120 C123 1.259 . S
O121 Mg112 2.114 . S
O121 C124 1.252 . S
O122 Mg112 2.251 . S
O122 Mg115 2.079 . S
O122 C124 1.273 . S
C123 O119 1.246 . S
C123 O120 1.259 . S
C124 O121 1.252 . S
C124 O122 1.273 . S
O125 Mg112 2.010 . S
O125 C117 1.249 . S
Mg126 O127 2.028 1_655 S
Mg126 O133 1.986 . S
Mg126 O135 2.114 . S
Mg126 O136 2.251 1_655 S
Mg126 O139 2.010 1_556 S
O127 Mg126 2.028 1_455 S
O127 C130 1.250 . S
O128 Mg129 2.028 . S
O128 C130 1.248 . S
Mg129 O128 2.028 . S
Mg129 O134 2.032 . S
Mg129 O136 2.079 . S
C130 O127 1.250 . S
C130 O128 1.248 . S
C131 O132 1.264 . S
C131 O139 1.249 . S
O132 C131 1.264 . S
O133 Mg126 1.986 . S
O133 C137 1.246 1_655 S
O134 Mg129 2.032 . S
O134 C137 1.259 . S
O135 Mg126 2.114 . S
O135 C138 1.252 1_655 S
O136 Mg126 2.251 1_455 S
O136 Mg129 2.079 . S
O136 C138 1.273 . S
C137 O133 1.246 1_455 S
C137 O134 1.259 . S
C138 O135 1.252 1_455 S
C138 O136 1.273 . S
O139 Mg126 2.010 1_554 S
O139 C131 1.249 . S
Mg140 O141 2.028 . S
Mg140 O147 1.986 . S
Mg140 O149 2.114 . S
Mg140 O150 2.251 . S
Mg140 O153 2.010 . S
O141 Mg140 2.028 . S
O141 C144 1.250 . S
O142 Mg143 2.028 . S
O142 C144 1.248 . S
Mg143 O142 2.028 . S
Mg143 O148 2.032 . S
Mg143 O150 2.079 . S
C144 O141 1.250 . S
C144 O142 1.248 . S
C145 O146 1.264 . S
C145 O153 1.249 . S
O146 C145 1.264 . S
O147 Mg140 1.986 . S
O147 C151 1.246 . S
O148 Mg143 2.032 . S
O148 C151 1.259 . S
O149 Mg140 2.114 . S
O149 C152 1.252 . S
O150 Mg140 2.251 . S
O150 Mg143 2.079 . S
O150 C152 1.273 . S
C151 O147 1.246 . S
C151 O148 1.259 . S
C152 O149 1.252 . S
C152 O150 1.273 . S
O153 Mg140 2.010 . S
O153 C145 1.249 . S
Mg154 O155 2.028 . S
Mg154 O161 1.986 . S
Mg154 O163 2.114 1_455 S
Mg154 O164 2.251 . S
Mg154 O167 2.010 1_455 S
O155 Mg154 2.028 . S
O155 C158 1.250 . S
O156 Mg157 2.028 . S
O156 C158 1.248 . S
Mg157 O156 2.028 . S
Mg157 O162 2.032 . S
Mg157 O164 2.079 . S
C158 O155 1.250 . S
C158 O156 1.248 . S
C159 O160 1.264 . S
C159 O167 1.249 . S
O160 C159 1.264 . S
O161 Mg154 1.986 . S
O161 C165 1.246 . S
O162 Mg157 2.032 . S
O162 C165 1.259 . S
O163 Mg154 2.114 1_655 S
O163 C166 1.252 . S
O164 Mg154 2.251 . S
O164 Mg157 2.079 . S
O164 C166 1.273 1_455 S
C165 O161 1.246 . S
C165 O162 1.259 . S
C166 O163 1.252 . S
C166 O164 1.273 1_655 S
O167 Mg154 2.010 1_655 S
O167 C159 1.249 . S
Mg168 O169 2.028 1_554 S
Mg168 O175 1.986 . S
Mg168 O177 2.114 1_554 S
Mg168 O178 2.251 . S
Mg168 O181 2.010 1_554 S
O169 Mg168 2.028 1_556 S
O169 C172 1.250 1_556 S
O170 Mg171 2.028 . S
O170 C172 1.248 . S
Mg171 O170 2.028 . S
Mg171 O176 2.032 . S
Mg171 O178 2.079 . S
C172 O169 1.250 1_554 S
C172 O170 1.248 . S
C173 O174 1.264 . S
C173 O181 1.249 . S
O174 C173 1.264 . S
O175 Mg168 1.986 . S
O175 C179 1.246 . S
O176 Mg171 2.032 . S
O176 C179 1.259 . S
O177 Mg168 2.114 1_556 S
O177 C180 1.252 . S
O178 Mg168 2.251 . S
O178 Mg171 2.079 . S
O178 C180 1.273 1_554 S
C179 O175 1.246 . S
C179 O176 1.259 . S
C180 O177 1.252 . S
C180 O178 1.273 1_556 S
O181 Mg168 2.010 1_556 S
O181 C173 1.249 . S
Mg182 O183 2.028 . S
Mg182 O189 1.986 . S
Mg182 O191 2.114 . S
Mg182 O192 2.251 . S
Mg182 O195 2.010 . S
O183 Mg182 2.028 . S
O183 C186 1.250 . S
O184 Mg185 2.028 . S
O184 C186 1.248 . S
Mg185 O184 2.028 . S
Mg185 O190 2.032 . S
Mg185 O192 2.079 . S
C186 O183 1.250 . S
C186 O184 1.248 . S
C187 O188 1.264 . S
C187 O195 1.249 . S
O188 C187 1.264 . S
O189 Mg182 1.986 . S
O189 C193 1.246 . S
O190 Mg185 2.032 . S
O190 C193 1.259 . S
O191 Mg182 2.114 . S
O191 C194 1.252 . S
O192 Mg182 2.251 . S
O192 Mg185 2.079 . S
O192 C194 1.273 . S
C193 O189 1.246 . S
C193 O190 1.259 . S
C194 O191 1.252 . S
C194 O192 1.273 . S
O195 Mg182 2.010 . S
O195 C187 1.249 . S
Mg196 O197 2.028 . S
Mg196 O203 1.986 . S
Mg196 O205 2.114 . S
Mg196 O206 2.251 . S
Mg196 O209 2.010 . S
O197 Mg196 2.028 . S
O197 C200 1.250 . S
O198 Mg199 2.028 . S
O198 C200 1.248 . S
Mg199 O198 2.028 . S
Mg199 O204 2.032 . S
Mg199 O206 2.079 . S
C200 O197 1.250 . S
C200 O198 1.248 . S
C201 O202 1.264 . S
C201 O209 1.249 . S
O202 C201 1.264 . S
O203 Mg196 1.986 . S
O203 C207 1.246 . S
O204 Mg199 2.032 . S
O204 C207 1.259 . S
O205 Mg196 2.114 . S
O205 C208 1.252 . S
O206 Mg196 2.251 . S
O206 Mg199 2.079 . S
O206 C208 1.273 . S
C207 O203 1.246 . S
C207 O204 1.259 . S
C208 O205 1.252 . S
C208 O206 1.273 . S
O209 Mg196 2.010 . S
O209 C201 1.249 . S
Mg210 O211 2.028 . S
Mg210 O217 1.986 . S
Mg210 O219 2.114 . S
Mg210 O220 2.251 . S
Mg210 O223 2.010 . S
O211 Mg210 2.028 . S
O211 C214 1.250 . S
O212 Mg213 2.028 . S
O212 C214 1.248 . S
Mg213 O212 2.028 . S
Mg213 O218 2.032 . S
Mg213 O220 2.079 . S
C214 O211 1.250 . S
C214 O212 1.248 . S
C215 O216 1.264 . S
C215 O223 1.249 . S
O216 C215 1.264 . S
O217 Mg210 1.986 . S
O217 C221 1.246 . S
O218 Mg213 2.032 . S
O218 C221 1.259 . S
O219 Mg210 2.114 . S
O219 C222 1.252 . S
O220 Mg210 2.251 . S
O220 Mg213 2.079 . S
O220 C222 1.273 . S
C221 O217 1.246 . S
C221 O218 1.259 . S
C222 O219 1.252 . S
C222 O220 1.273 . S
O223 Mg210 2.010 . S
O223 C215 1.249 . S
C224 C225 1.387 . S
C224 H228 0.950 . S
C224 C233 1.390 . S
C225 C224 1.387 . S
C225 C227 1.387 . S
H226 C233 0.950 . S
C227 C225 1.387 . S
C227 C229 1.390 . S
C227 H231 0.950 . S
H228 C224 0.950 . S
C229 C227 1.390 . S
C229 C230 1.387 . S
C229 H232 0.950 . S
C230 C229 1.387 . S
C230 C233 1.387 . S
H231 C227 0.950 . S
H232 C229 0.950 . S
C233 C224 1.390 . S
C233 H226 0.950 . S
C233 C230 1.387 . S
C234 C235 1.387 . S
C234 H238 0.950 . S
C234 C243 1.390 . S
C235 C234 1.387 . S
C235 C237 1.387 . S
H236 C243 0.950 . S
C237 C235 1.387 . S
C237 C239 1.390 . S
C237 H241 0.950 . S
H238 C234 0.950 . S
C239 C237 1.390 . S
C239 C240 1.387 . S
C239 H242 0.950 . S
C240 C239 1.387 . S
C240 C243 1.387 . S
H241 C237 0.950 . S
H242 C239 0.950 . S
C243 C234 1.390 . S
C243 H236 0.950 . S
C243 C240 1.387 . S
C244 C245 1.387 . S
C244 H248 0.950 . S
C244 C253 1.390 . S
C245 C244 1.387 . S
C245 C247 1.387 . S
H246 C253 0.950 . S
C247 C245 1.387 . S
C247 C249 1.390 . S
C247 H251 0.950 . S
H248 C244 0.950 . S
C249 C247 1.390 . S
C249 C250 1.387 . S
C249 H252 0.950 . S
C250 C249 1.387 . S
C250 C253 1.387 . S
H251 C247 0.950 . S
H252 C249 0.950 . S
C253 C244 1.390 . S
C253 H246 0.950 . S
C253 C250 1.387 . S
C254 C255 1.387 . S
C254 H258 0.950 . S
C254 C263 1.390 . S
C255 C254 1.387 . S
C255 C257 1.387 . S
H256 C263 0.950 . S
C257 C255 1.387 . S
C257 C259 1.390 . S
C257 H261 0.950 . S
H258 C254 0.950 . S
C259 C257 1.390 . S
C259 C260 1.387 . S
C259 H262 0.950 . S
C260 C259 1.387 . S
C260 C263 1.387 . S
H261 C257 0.950 . S
H262 C259 0.950 . S
C263 C254 1.390 . S
C263 H256 0.950 . S
C263 C260 1.387 . S
C264 C265 1.387 . S
C264 H268 0.950 . S
C264 C273 1.390 . S
C265 C264 1.387 . S
C265 C267 1.387 . S
H266 C273 0.950 . S
C267 C265 1.387 . S
C267 C269 1.390 . S
C267 H271 0.950 . S
H268 C264 0.950 . S
C269 C267 1.390 . S
C269 C270 1.387 . S
C269 H272 0.950 . S
C270 C269 1.387 . S
C270 C273 1.387 . S
H271 C267 0.950 . S
H272 C269 0.950 . S
C273 C264 1.390 . S
C273 H266 0.950 . S
C273 C270 1.387 . S
C274 C275 1.387 . S
C274 H278 0.950 . S
C274 C283 1.390 . S
C275 C274 1.387 . S
C275 C277 1.387 . S
H276 C283 0.950 . S
C277 C275 1.387 . S
C277 C279 1.390 . S
C277 H281 0.950 . S
H278 C274 0.950 . S
C279 C277 1.390 . S
C279 C280 1.387 . S
C279 H282 0.950 . S
C280 C279 1.387 . S
C280 C283 1.387 . S
H281 C277 0.950 . S
H282 C279 0.950 . S
C283 C274 1.390 . S
C283 H276 0.950 . S
C283 C280 1.387 . S
C284 C285 1.387 . S
C284 H288 0.950 . S
C284 C293 1.390 . S
C285 C284 1.387 . S
C285 C287 1.387 . S
H286 C293 0.950 . S
C287 C285 1.387 . S
C287 C289 1.390 . S
C287 H291 0.950 . S
H288 C284 0.950 . S
C289 C287 1.390 . S
C289 C290 1.387 . S
C289 H292 0.950 . S
C290 C289 1.387 . S
C290 C293 1.387 . S
H291 C287 0.950 . S
H292 C289 0.950 . S
C293 C284 1.390 . S
C293 H286 0.950 . S
C293 C290 1.387 . S
C294 C295 1.387 . S
C294 H298 0.950 . S
C294 C303 1.390 . S
C295 C294 1.387 . S
C295 C297 1.387 . S
H296 C303 0.950 . S
C297 C295 1.387 . S
C297 C299 1.390 . S
C297 H301 0.950 . S
H298 C294 0.950 . S
C299 C297 1.390 . S
C299 C300 1.387 . S
C299 H302 0.950 . S
C300 C299 1.387 . S
C300 C303 1.387 . S
H301 C297 0.950 . S
H302 C299 0.950 . S
C303 C294 1.390 . S
C303 H296 0.950 . S
C303 C300 1.387 . S
C304 C305 1.387 . S
C304 H308 0.950 . S
C304 C313 1.390 . S
C305 C304 1.387 . S
C305 C307 1.387 . S
H306 C313 0.950 . S
C307 C305 1.387 . S
C307 C309 1.390 . S
C307 H311 0.950 . S
H308 C304 0.950 . S
C309 C307 1.390 . S
C309 C310 1.387 . S
C309 H312 0.950 . S
C310 C309 1.387 . S
C310 C313 1.387 . S
H311 C307 0.950 . S
H312 C309 0.950 . S
C313 C304 1.390 . S
C313 H306 0.950 . S
C313 C310 1.387 . S
C314 C315 1.387 1_455 S
C314 H318 0.950 . S
C314 C323 1.391 . S
C315 C314 1.387 1_655 S
C315 C317 1.387 . S
H316 C323 0.949 1_565 S
C317 C315 1.387 . S
C317 C319 1.390 1_545 S
C317 H321 0.950 . S
H318 C314 0.950 . S
C319 C317 1.390 1_565 S
C319 C320 1.387 . S
C319 H322 0.950 . S
C320 C319 1.387 . S
C320 C323 1.387 1_665 S
H321 C317 0.950 . S
H322 C319 0.950 . S
C323 C314 1.391 . S
C323 H316 0.949 1_545 S
C323 C320 1.387 1_445 S
C324 C325 1.387 . S
C324 H328 0.950 . S
C324 C333 1.390 1_556 S
C325 C324 1.387 . S
C325 C327 1.387 . S
H326 C333 0.950 . S
C327 C325 1.387 . S
C327 C329 1.390 1_556 S
C327 H331 0.950 . S
H328 C324 0.950 . S
C329 C327 1.390 1_554 S
C329 C330 1.387 . S
C329 H332 0.950 . S
C330 C329 1.387 . S
C330 C333 1.387 . S
H331 C327 0.950 . S
H332 C329 0.950 . S
C333 C324 1.390 1_554 S
C333 H326 0.950 . S
C333 C330 1.387 . S
C334 C335 1.387 . S
C334 H338 0.950 1_565 S
C334 C343 1.390 1_565 S
C335 C334 1.387 . S
C335 C337 1.387 . S
H336 C343 0.950 . S
C337 C335 1.387 . S
C337 C339 1.390 . S
C337 H341 0.950 . S
H338 C334 0.950 1_545 S
C339 C337 1.390 . S
C339 C340 1.387 . S
C339 H342 0.950 . S
C340 C339 1.387 . S
C340 C343 1.387 1_565 S
H341 C337 0.950 . S
H342 C339 0.950 . S
C343 C334 1.390 1_545 S
C343 H336 0.950 . S
C343 C340 1.387 1_545 S
C344 C345 1.387 . S
C344 H348 0.950 . S
C344 C353 1.390 . S
C345 C344 1.387 . S
C345 C347 1.387 . S
H346 C353 0.950 . S
C347 C345 1.387 . S
C347 C349 1.390 . S
C347 H351 0.950 . S
H348 C344 0.950 . S
C349 C347 1.390 . S
C349 C350 1.387 . S
C349 H352 0.950 . S
C350 C349 1.387 . S
C350 C353 1.387 . S
H351 C347 0.950 . S
H352 C349 0.950 . S
C353 C344 1.390 . S
C353 H346 0.950 . S
C353 C350 1.387 . S
C354 C355 1.387 . S
C354 H358 0.950 . S
C354 C363 1.390 . S
C355 C354 1.387 . S
C355 C357 1.386 1_655 S
H356 C363 0.950 . S
C357 C355 1.386 1_455 S
C357 C359 1.391 . S
C357 H361 0.951 . S
H358 C354 0.950 . S
C359 C357 1.391 . S
C359 C360 1.387 1_455 S
C359 H362 0.950 . S
C360 C359 1.387 1_655 S
C360 C363 1.387 . S
H361 C357 0.951 . S
H362 C359 0.950 . S
C363 C354 1.390 . S
C363 H356 0.950 . S
C363 C360 1.387 . S
C364 C365 1.387 . S
C364 H368 0.950 . S
C364 C373 1.390 1_655 S
C365 C364 1.387 . S
C365 C367 1.387 . S
H366 C373 0.950 . S
C367 C365 1.387 . S
C367 C369 1.390 1_655 S
C367 H371 0.950 . S
H368 C364 0.950 . S
C369 C367 1.390 1_455 S
C369 C370 1.387 . S
C369 H372 0.950 . S
C370 C369 1.387 . S
C370 C373 1.387 . S
H371 C367 0.950 . S
H372 C369 0.950 . S
C373 C364 1.390 1_455 S
C373 H366 0.950 . S
C373 C370 1.387 . S
C374 C375 1.387 1_554 S
C374 H378 0.950 . S
C374 C383 1.390 . S
C375 C374 1.387 1_556 S
C375 C377 1.387 . S
H376 C383 0.950 . S
C377 C375 1.387 . S
C377 C379 1.390 . S
C377 H381 0.950 . S
H378 C374 0.950 . S
C379 C377 1.390 . S
C379 C380 1.387 1_556 S
C379 H382 0.950 . S
C380 C379 1.387 1_554 S
C380 C383 1.387 . S
H381 C377 0.950 . S
H382 C379 0.950 . S
C383 C374 1.390 . S
C383 H376 0.950 . S
C383 C380 1.387 . S
C384 C385 1.387 . S
C384 H388 0.950 . S
C384 C393 1.390 . S
C385 C384 1.387 . S
C385 C387 1.387 . S
H386 C393 0.950 . S
C387 C385 1.387 . S
C387 C389 1.390 . S
C387 H391 0.950 . S
H388 C384 0.950 . S
C389 C387 1.390 . S
C389 C390 1.387 . S
C389 H392 0.950 . S
C390 C389 1.387 . S
C390 C393 1.387 . S
H391 C387 0.950 . S
H392 C389 0.950 . S
C393 C384 1.390 . S
C393 H386 0.950 . S
C393 C390 1.387 . S
C394 C395 1.387 . S
C394 H398 0.950 . S
C394 C403 1.390 . S
C395 C394 1.387 . S
C395 C397 1.387 . S
H396 C403 0.950 . S
C397 C395 1.387 . S
C397 C399 1.390 . S
C397 H401 0.950 . S
H398 C394 0.950 . S
C399 C397 1.390 . S
C399 C400 1.387 . S
C399 H402 0.950 . S
C400 C399 1.387 . S
C400 C403 1.387 . S
H401 C397 0.950 . S
H402 C399 0.950 . S
C403 C394 1.390 . S
C403 H396 0.950 . S
C403 C400 1.387 . S
C404 C405 1.387 . S
C404 H408 0.950 . S
C404 C413 1.390 1_455 S
C405 C404 1.387 . S
C405 C407 1.387 . S
H406 C413 0.950 . S
C407 C405 1.387 . S
C407 C409 1.390 1_455 S
C407 H411 0.950 . S
H408 C404 0.950 . S
C409 C407 1.390 1_655 S
C409 C410 1.387 . S
C409 H412 0.950 . S
C410 C409 1.387 . S
C410 C413 1.387 . S
H411 C407 0.950 . S
H412 C409 0.950 . S
C413 C404 1.390 1_655 S
C413 H406 0.950 . S
C413 C410 1.387 . S
C414 C415 1.387 1_455 S
C414 H418 0.950 . S
C414 C423 1.390 . S
C415 C414 1.387 1_655 S
C415 C417 1.387 1_556 S
H416 C423 0.950 . S
C417 C415 1.387 1_554 S
C417 C419 1.390 . S
C417 H421 0.950 . S
H418 C414 0.950 . S
C419 C417 1.390 . S
C419 C420 1.387 1_554 S
C419 H422 0.950 . S
C420 C419 1.387 1_556 S
C420 C423 1.387 1_655 S
H421 C417 0.950 . S
H422 C419 0.950 . S
C423 C414 1.390 . S
C423 H416 0.950 . S
C423 C420 1.387 1_455 S
C424 C425 1.387 . S
C424 H428 0.950 . S
C424 C433 1.390 . S
C425 C424 1.387 . S
C425 C427 1.387 . S
H426 C433 0.950 . S
C427 C425 1.387 . S
C427 C429 1.390 . S
C427 H431 0.950 . S
H428 C424 0.950 . S
C429 C427 1.390 . S
C429 C430 1.387 . S
C429 H432 0.950 . S
C430 C429 1.387 . S
C430 C433 1.387 . S
H431 C427 0.950 . S
H432 C429 0.950 . S
C433 C424 1.390 . S
C433 H426 0.950 . S
C433 C430 1.387 . S
C434 C435 1.387 . S
C434 H438 0.950 . S
C434 C443 1.390 1_545 S
C435 C434 1.387 . S
C435 C437 1.387 . S
H436 C443 0.950 . S
C437 C435 1.387 . S
C437 C439 1.390 1_545 S
C437 H441 0.950 . S
H438 C434 0.950 . S
C439 C437 1.390 1_565 S
C439 C440 1.387 . S
C439 H442 0.950 . S
C440 C439 1.387 . S
C440 C443 1.387 . S
H441 C437 0.950 . S
H442 C439 0.950 . S
C443 C434 1.390 1_565 S
C443 H436 0.950 . S
C443 C440 1.387 . S
C444 C445 1.387 . S
C444 H448 0.950 . S
C444 C453 1.390 . S
C445 C444 1.387 . S
C445 C447 1.387 . S
H446 C453 0.950 . S
C447 C445 1.387 . S
C447 C449 1.390 . S
C447 H451 0.950 . S
H448 C444 0.950 . S
C449 C447 1.390 . S
C449 C450 1.387 . S
C449 H452 0.950 1_556 S
C450 C449 1.387 . S
C450 C453 1.387 . S
H451 C447 0.950 . S
H452 C449 0.950 1_554 S
C453 C444 1.390 . S
C453 H446 0.950 . S
C453 C450 1.387 . S
C454 C455 1.387 . S
C454 H458 0.950 . S
C454 C463 1.390 1_545 S
C455 C454 1.387 . S
C455 C457 1.387 . S
H456 C463 0.950 . S
C457 C455 1.387 . S
C457 C459 1.390 1_545 S
C457 H461 0.950 . S
H458 C454 0.950 . S
C459 C457 1.390 1_565 S
C459 C460 1.387 . S
C459 H462 0.950 . S
C460 C459 1.387 . S
C460 C463 1.387 . S
H461 C457 0.950 . S
H462 C459 0.950 . S
C463 C454 1.390 1_565 S
C463 H456 0.950 . S
C463 C460 1.387 . S
C464 C465 1.387 1_554 S
C464 H468 0.950 . S
C464 C473 1.390 . S
C465 C464 1.387 1_556 S
C465 C467 1.387 1_565 S
H466 C473 0.950 . S
C467 C465 1.387 1_545 S
C467 C469 1.390 . S
C467 H471 0.950 . S
H468 C464 0.950 . S
C469 C467 1.390 . S
C469 C470 1.387 1_545 S
C469 H472 0.950 . S
C470 C469 1.387 1_565 S
C470 C473 1.387 1_556 S
H471 C467 0.950 . S
H472 C469 0.950 . S
C473 C464 1.390 . S
C473 H466 0.950 . S
C473 C470 1.387 1_554 S
C474 C475 1.387 . S
C474 H478 0.950 . S
C474 C483 1.390 . S
C475 C474 1.387 . S
C475 C477 1.387 . S
H476 C483 0.950 . S
C477 C475 1.387 . S
C477 C479 1.390 . S
C477 H481 0.950 . S
H478 C474 0.950 . S
C479 C477 1.390 . S
C479 C480 1.387 . S
C479 H482 0.950 . S
C480 C479 1.387 . S
C480 C483 1.387 . S
H481 C477 0.950 . S
H482 C479 0.950 . S
C483 C474 1.390 . S
C483 H476 0.950 . S
C483 C480 1.387 . S
C484 C485 1.387 . S
C484 H488 0.950 . S
C484 C493 1.390 . S
C485 C484 1.387 . S
C485 C487 1.387 . S
H486 C493 0.950 . S
C487 C485 1.387 . S
C487 C489 1.390 . S
C487 H491 0.950 . S
H488 C484 0.950 . S
C489 C487 1.390 . S
C489 C490 1.387 . S
C489 H492 0.950 . S
C490 C489 1.387 . S
C490 C493 1.387 . S
H491 C487 0.950 . S
H492 C489 0.950 . S
C493 C484 1.390 . S
C493 H486 0.950 . S
C493 C490 1.387 . S
C494 C495 1.387 . S
C494 H498 0.950 . S
C494 C503 1.390 1_556 S
C495 C494 1.387 . S
C495 C497 1.387 . S
H496 C503 0.950 . S
C497 C495 1.387 . S
C497 C499 1.390 1_556 S
C497 H501 0.950 . S
H498 C494 0.950 . S
C499 C497 1.390 1_554 S
C499 C500 1.387 . S
C499 H502 0.950 . S
C500 C499 1.387 . S
C500 C503 1.387 . S
H501 C497 0.950 . S
H502 C499 0.950 . S
C503 C494 1.390 1_554 S
C503 H496 0.950 . S
C503 C500 1.387 . S
C504 C505 1.387 . S
C504 H508 0.950 . S
C504 C513 1.390 . S
C505 C504 1.387 . S
C505 C507 1.387 . S
H506 C513 0.950 . S
C507 C505 1.387 . S
C507 C509 1.390 . S
C507 H511 0.950 . S
H508 C504 0.950 . S
C509 C507 1.390 . S
C509 C510 1.387 . S
C509 H512 0.950 . S
C510 C509 1.387 . S
C510 C513 1.387 . S
H511 C507 0.950 . S
H512 C509 0.950 . S
C513 C504 1.390 . S
C513 H506 0.950 . S
C513 C510 1.387 . S
C514 C515 1.387 . S
C514 H518 0.950 . S
C514 C523 1.390 . S
C515 C514 1.387 . S
C515 C517 1.387 . S
H516 C523 0.950 . S
C517 C515 1.387 . S
C517 C519 1.390 . S
C517 H521 0.950 . S
H518 C514 0.950 . S
C519 C517 1.390 . S
C519 C520 1.387 . S
C519 H522 0.950 . S
C520 C519 1.387 . S
C520 C523 1.387 . S
H521 C517 0.950 . S
H522 C519 0.950 . S
C523 C514 1.390 . S
C523 H516 0.950 . S
C523 C520 1.387 . S
C524 C525 1.387 . S
C524 H528 0.950 . S
C524 C533 1.390 . S
C525 C524 1.387 . S
C525 C527 1.387 1_455 S
H526 C533 0.950 . S
C527 C525 1.387 1_655 S
C527 C529 1.390 . S
C527 H531 0.950 . S
H528 C524 0.950 . S
C529 C527 1.390 . S
C529 C530 1.387 1_655 S
C529 H532 0.950 . S
C530 C529 1.387 1_455 S
C530 C533 1.387 . S
H531 C527 0.950 . S
H532 C529 0.950 . S
C533 C524 1.390 . S
C533 H526 0.950 . S
C533 C530 1.387 . S
C534 C535 1.387 1_565 S
C534 H538 0.950 . S
C534 C543 1.390 . S
C535 C534 1.387 1_545 S
C535 C537 1.387 . S
H536 C543 0.950 . S
C537 C535 1.387 . S
C537 C539 1.390 . S
C537 H541 0.950 . S
H538 C534 0.950 . S
C539 C537 1.390 . S
C539 C540 1.387 1_545 S
C539 H542 0.950 . S
C540 C539 1.387 1_565 S
C540 C543 1.387 . S
H541 C537 0.950 . S
H542 C539 0.950 . S
C543 C534 1.390 . S
C543 H536 0.950 . S
C543 C540 1.387 . S
C225 C5 1.288 . S
C230 C103 1.290 . S
C235 C19 1.409 . S
C240 C61 1.431 . S
C245 C75 1.406 . S
C250 C33 1.411 . S
C255 C47 1.434 . S
C260 C89 1.413 . S
C265 C117 1.436 . S
C270 C173 1.411 . S
C275 C131 1.406 . S
C280 C201 1.410 . S
C285 C159 1.431 . S
C290 C145 1.413 . S
C295 C215 1.290 . S
C300 C187 1.285 . S
C305 C12 1.267 . S
C310 C95 1.219 . S
C315 C110 1.267 . S
C320 C25 1.219 1_565 S
C325 C40 1.383 . S
C330 C60 1.298 . S
C335 C82 1.385 . S
C340 C46 1.301 . S
C345 C11 1.203 . S
C350 C207 1.216 . S
C355 C166 1.362 . S
C360 C18 1.270 . S
C365 C193 1.207 . S
C370 C39 1.216 . S
C375 C172 1.266 1_556 S
C380 C54 1.360 . S
C385 C144 1.270 . S
C390 C68 1.362 . S
C395 C81 1.218 . S
C400 C221 1.207 . S
C405 C88 1.266 . S
C410 C124 1.362 . S
C415 C109 1.203 . S
C420 C137 1.216 1_655 S
C425 C4 1.242 . S
C430 C67 1.288 . S
C435 C123 1.285 . S
C440 C186 1.241 . S
C445 C180 1.330 . S
C450 C130 1.244 . S
C455 C200 1.242 . S
C460 C152 1.329 . S
C465 C102 1.240 . S
C470 C53 1.286 1_556 S
C475 C32 1.242 . S
C480 C96 1.330 . S
C485 C165 1.285 . S
C490 C214 1.241 . S
C495 C194 1.264 . S
C500 C151 1.216 . S
C505 C222 1.264 . S
C510 C179 1.216 . S
C515 C208 1.385 . S
C520 C116 1.302 . S
C525 C158 1.299 . S
C530 C138 1.383 . S
C535 C26 1.330 . S
C540 C74 1.243 1_565 S
