# Generated by pormake.
# Topology umy, (4)-cn, num edge types: 1
# Building blocks:
#     Node 0, Type 0, BuildingBlock: ICAMEG_clean_sbu_1, # of connection points: 4
#     Node 1, Type 0, BuildingBlock: ICAMEG_clean_sbu_1, # of connection points: 4
#     Node 2, Type 0, BuildingBlock: ICAMEG_clean_sbu_1, # of connection points: 4
#     Node 3, Type 0, BuildingBlock: ICAMEG_clean_sbu_1, # of connection points: 4
#     Node 4, Type 0, BuildingBlock: ICAMEG_clean_sbu_1, # of connection points: 4
#     Node 5, Type 0, BuildingBlock: ICAMEG_clean_sbu_1, # of connection points: 4
#     Node 6, Type 0, BuildingBlock: ICAMEG_clean_sbu_1, # of connection points: 4
#     Node 7, Type 0, BuildingBlock: ICAMEG_clean_sbu_1, # of connection points: 4
#     Node 8, Type 0, BuildingBlock: ICAMEG_clean_sbu_1, # of connection points: 4
#     Node 9, Type 0, BuildingBlock: ICAMEG_clean_sbu_1, # of connection points: 4
#     Node 10, Type 0, BuildingBlock: ICAMEG_clean_sbu_1, # of connection points: 4
#     Node 11, Type 0, BuildingBlock: ICAMEG_clean_sbu_1, # of connection points: 4
#     Edge 12, Type (0, 0), BuildingBlock: UVAHIK_clean_linker_0, # of connection points: 2
#     Edge 13, Type (0, 0), BuildingBlock: UVAHIK_clean_linker_0, # of connection points: 2
#     Edge 14, Type (0, 0), BuildingBlock: UVAHIK_clean_linker_0, # of connection points: 2
#     Edge 15, Type (0, 0), BuildingBlock: UVAHIK_clean_linker_0, # of connection points: 2
#     Edge 16, Type (0, 0), BuildingBlock: UVAHIK_clean_linker_0, # of connection points: 2
#     Edge 17, Type (0, 0), BuildingBlock: UVAHIK_clean_linker_0, # of connection points: 2
#     Edge 18, Type (0, 0), BuildingBlock: UVAHIK_clean_linker_0, # of connection points: 2
#     Edge 19, Type (0, 0), BuildingBlock: UVAHIK_clean_linker_0, # of connection points: 2
#     Edge 20, Type (0, 0), BuildingBlock: UVAHIK_clean_linker_0, # of connection points: 2
#     Edge 21, Type (0, 0), BuildingBlock: UVAHIK_clean_linker_0, # of connection points: 2
#     Edge 22, Type (0, 0), BuildingBlock: UVAHIK_clean_linker_0, # of connection points: 2
#     Edge 23, Type (0, 0), BuildingBlock: UVAHIK_clean_linker_0, # of connection points: 2
#     Edge 24, Type (0, 0), BuildingBlock: UVAHIK_clean_linker_0, # of connection points: 2
#     Edge 25, Type (0, 0), BuildingBlock: UVAHIK_clean_linker_0, # of connection points: 2
#     Edge 26, Type (0, 0), BuildingBlock: UVAHIK_clean_linker_0, # of connection points: 2
#     Edge 27, Type (0, 0), BuildingBlock: UVAHIK_clean_linker_0, # of connection points: 2
#     Edge 28, Type (0, 0), BuildingBlock: UVAHIK_clean_linker_0, # of connection points: 2
#     Edge 29, Type (0, 0), BuildingBlock: UVAHIK_clean_linker_0, # of connection points: 2
#     Edge 30, Type (0, 0), BuildingBlock: UVAHIK_clean_linker_0, # of connection points: 2
#     Edge 31, Type (0, 0), BuildingBlock: UVAHIK_clean_linker_0, # of connection points: 2
#     Edge 32, Type (0, 0), BuildingBlock: UVAHIK_clean_linker_0, # of connection points: 2
#     Edge 33, Type (0, 0), BuildingBlock: UVAHIK_clean_linker_0, # of connection points: 2
#     Edge 34, Type (0, 0), BuildingBlock: UVAHIK_clean_linker_0, # of connection points: 2
#     Edge 35, Type (0, 0), BuildingBlock: UVAHIK_clean_linker_0, # of connection points: 2
# Relax obj value: 0.082
# Max RMSD: 0.107
# Mean RMSD: 0.107
data_MOF--net-umy--node1-ICAMEG_clean_sbu_1--edge1-UVAHIK_clean_linker_0
_symmetry_space_group_name_H-M    P1
_symmetry_Int_Tables_number       1
_symmetry_cell_setting            triclinic
loop_
_symmetry_equiv_pos_as_xyz
'x, y, z'
_cell_length_a     51.481778
_cell_length_b     51.49767
_cell_length_c     72.427097
_cell_angle_alpha  90.014939
_cell_angle_beta   89.991059
_cell_angle_gamma 120.00242
loop_
_atom_site_label
_atom_site_type_symbol
_atom_site_fract_x
_atom_site_fract_y
_atom_site_fract_z
_atom_type_partial_charge
Co0 Co 0.05852 0.31866 0.13793 0.0
Co1 Co 0.06587 0.37868 0.16303 0.0
O2 O 0.06958 0.36079 0.14003 0.0
C3 C 0.1211 0.34704 0.1232 0.0
O4 O 0.13085 0.36115 0.139 0.0
C5 C 0.03622 0.39711 0.13481 0.0
O6 O 0.02343 0.36977 0.12814 0.0
O7 O 0.02308 0.34678 0.1658 0.0
O8 O 0.02368 0.30611 0.15521 0.0
H9 H 0.03568 0.37768 0.22913 0.0
H10 H 0.067 0.35367 0.10375 0.0
O11 O 0.09304 0.33003 0.12045 0.0
H12 H 0.96226 0.27069 0.10154 0.0
H13 H 0.04293 0.2269 0.10361 0.0
H14 H 0.03903 0.26823 0.16432 0.0
H15 H 0.9951 0.27531 0.12762 0.0
H16 H 0.05588 0.27975 0.10663 0.0
O17 O 0.05351 0.4042 0.14876 0.0
H18 H 0.04089 0.35541 0.20021 0.0
H19 H 0.08264 0.44085 0.17433 0.0
H20 H 0.02564 0.21519 0.16189 0.0
H21 H 0.03504 0.34969 0.07729 0.0
H22 H 0.02756 0.19421 0.13136 0.0
H23 H 0.98223 0.30802 0.07611 0.0
O24 O 0.08446 0.32259 0.1594 0.0
H25 H 0.15612 0.45607 0.12839 0.0
H26 H 0.11876 0.40535 0.18829 0.0
H27 H 0.17223 0.44342 0.18495 0.0
H28 H 0.19121 0.46912 0.15484 0.0
H29 H 0.10286 0.41768 0.1323 0.0
H30 H 0.07768 0.46402 0.20293 0.0
H31 H 0.05416 0.43238 0.23061 0.0
O32 O 0.07834 0.35407 0.178 0.0
C33 C 0.01119 0.31841 0.16408 0.0
C34 C 0.04606 0.39173 0.21718 0.0
C35 C 0.06959 0.44017 0.20246 0.0
N36 N 0.06224 0.39683 0.18564 0.0
C37 C 0.04915 0.37925 0.20078 0.0
C38 C 0.07228 0.42691 0.18629 0.0
C39 C 0.0564 0.42241 0.21799 0.0
C40 C 0.04413 0.33529 0.10323 0.0
N41 N 0.03295 0.31471 0.11719 0.0
C42 C 0.02611 0.33324 0.08826 0.0
C43 C 0.99646 0.30988 0.08762 0.0
C44 C 0.98523 0.28895 0.1019 0.0
C45 C 1.0039 0.29174 0.11667 0.0
C46 C 0.04196 0.23577 0.11698 0.0
C47 C 0.03975 0.25922 0.15097 0.0
C48 C 0.04933 0.26569 0.11879 0.0
N49 N 0.048 0.277 0.13562 0.0
C50 C 0.03222 0.22919 0.14969 0.0
C51 C 0.03333 0.21744 0.13256 0.0
C52 C 0.08722 0.33534 0.17496 0.0
C53 C 0.14809 0.4451 0.1416 0.0
C54 C 0.12685 0.41639 0.17513 0.0
C55 C 0.15715 0.43797 0.17333 0.0
C56 C 0.16778 0.45239 0.15644 0.0
N57 N 0.10766 0.40945 0.16053 0.0
C58 C 0.11794 0.42343 0.14391 0.0
Co59 Co 0.74614 0.05486 0.30461 0.0
Co60 Co 0.69158 0.06196 0.32752 0.0
O61 O 0.71447 0.06531 0.30511 0.0
C62 C 0.77788 0.11617 0.28803 0.0
O63 O 0.76908 0.1258 0.30218 0.0
C64 C 0.64486 0.03189 0.29847 0.0
O65 O 0.65978 0.01917 0.2923 0.0
O66 O 0.68067 0.01926 0.33087 0.0
O67 O 0.72332 0.0208 0.32232 0.0
H68 H 0.65882 0.03281 0.39329 0.0
H69 H 0.72099 0.06101 0.26919 0.0
O70 O 0.77001 0.08849 0.28679 0.0
H71 H 0.70104 0.95686 0.27012 0.0
H72 H 0.82482 0.03873 0.27403 0.0
H73 H 0.77629 0.03762 0.33297 0.0
H74 H 0.72759 0.99119 0.29597 0.0
H75 H 0.78426 0.05101 0.27491 0.0
O76 O 0.65444 0.0493 0.31239 0.0
H77 H 0.68787 0.0376 0.36517 0.0
H78 H 0.64556 0.07885 0.33702 0.0
H79 H 0.81657 0.02494 0.33269 0.0
H80 H 0.69468 0.02755 0.24292 0.0
H81 H 0.84114 0.02545 0.30306 0.0
H82 H 0.68446 0.97503 0.24332 0.0
O83 O 0.76686 0.08224 0.32578 0.0
H84 H 0.70587 0.15142 0.29135 0.0
H85 H 0.71646 0.11531 0.35239 0.0
H86 H 0.7319 0.16865 0.34834 0.0
H87 H 0.72659 0.18701 0.31765 0.0
H88 H 0.69094 0.09829 0.29597 0.0
H89 H 0.61588 0.0743 0.36481 0.0
H90 H 0.6225 0.05124 0.39323 0.0
O91 O 0.7278 0.0747 0.34341 0.0
C92 C 0.69778 0.00794 0.33035 0.0
C93 C 0.65579 0.04298 0.38101 0.0
C94 C 0.63166 0.06623 0.36502 0.0
N95 N 0.66857 0.05866 0.3495 0.0
C96 C 0.67224 0.04583 0.36506 0.0
C97 C 0.64849 0.06867 0.34931 0.0
C98 C 0.6354 0.0533 0.38096 0.0
C99 C 0.71688 0.03827 0.26937 0.0
N100 N 0.72585 0.02808 0.28408 0.0
C101 C 0.70186 0.01939 0.2545 0.0
C102 C 0.69608 0.98991 0.25475 0.0
C103 C 0.70535 0.9797 0.26979 0.0
C104 C 0.72027 0.9992 0.28443 0.0
C105 C 0.81426 0.03839 0.28702 0.0
C106 C 0.78676 0.03774 0.32001 0.0
C107 C 0.79133 0.04539 0.28762 0.0
N108 N 0.77779 0.04485 0.30396 0.0
C109 C 0.8096 0.03061 0.31994 0.0
C110 C 0.8234 0.03093 0.30332 0.0
C111 C 0.75573 0.08448 0.34102 0.0
C112 C 0.7082 0.14367 0.3048 0.0
C113 C 0.71413 0.12313 0.33898 0.0
C114 C 0.72286 0.15335 0.33678 0.0
C115 C 0.71986 0.16363 0.31956 0.0
N116 N 0.70264 0.10366 0.32445 0.0
C117 C 0.69967 0.11359 0.30752 0.0
Co118 Co 0.69347 0.74366 0.47262 0.0
Co119 Co 0.63185 0.68928 0.49563 0.0
O120 O 0.65132 0.71209 0.47319 0.0
C121 C 0.664 0.77551 0.45599 0.0
O122 O 0.64552 0.76679 0.47011 0.0
C123 C 0.61499 0.6425 0.46661 0.0
O124 O 0.64265 0.65732 0.46045 0.0
O125 O 0.6636 0.67827 0.49892 0.0
O126 O 0.7047 0.72085 0.49032 0.0
H127 H 0.62845 0.65664 0.5614 0.0
H128 H 0.66198 0.71845 0.43725 0.0
O129 O 0.68375 0.76755 0.4548 0.0
H130 H 0.74602 0.69821 0.43809 0.0
H131 H 0.7883 0.82202 0.44191 0.0
H132 H 0.74097 0.77381 0.50092 0.0
H133 H 0.73846 0.72493 0.46393 0.0
H134 H 0.73542 0.78158 0.44286 0.0
O135 O 0.60723 0.65215 0.48053 0.0
H136 H 0.65264 0.68557 0.53323 0.0
H137 H 0.56894 0.64342 0.50523 0.0
H138 H 0.79399 0.81398 0.50057 0.0
H139 H 0.66892 0.69198 0.411 0.0
H140 H 0.81799 0.83838 0.47091 0.0
H141 H 0.71114 0.68161 0.41135 0.0
O142 O 0.68695 0.76449 0.49378 0.0
H143 H 0.55663 0.70373 0.4596 0.0
H144 H 0.60362 0.71434 0.52056 0.0
H145 H 0.56578 0.7299 0.51658 0.0
H146 H 0.54196 0.72458 0.48593 0.0
H147 H 0.59476 0.68868 0.46415 0.0
H148 H 0.54387 0.61385 0.53306 0.0
H149 H 0.57367 0.62046 0.56143 0.0
O150 O 0.65549 0.72551 0.51148 0.0
C151 C 0.69203 0.69534 0.49837 0.0
C152 C 0.61521 0.65362 0.54915 0.0
C153 C 0.56775 0.62958 0.53323 0.0
N154 N 0.61221 0.66635 0.51764 0.0
C155 C 0.62877 0.67001 0.53316 0.0
C156 C 0.58208 0.64634 0.5175 0.0
C157 C 0.58448 0.63331 0.54915 0.0
C158 C 0.68058 0.71428 0.43741 0.0
N159 N 0.69981 0.72326 0.45209 0.0
C160 C 0.68432 0.69917 0.42255 0.0
C161 C 0.70797 0.69331 0.42277 0.0
C162 C 0.72753 0.70259 0.43778 0.0
C163 C 0.72307 0.7176 0.45241 0.0
C164 C 0.7781 0.81153 0.45492 0.0
C165 C 0.7513 0.78421 0.48794 0.0
C166 C 0.74815 0.78867 0.45555 0.0
N167 N 0.73517 0.77522 0.47192 0.0
C168 C 0.78131 0.80699 0.48784 0.0
C169 C 0.79475 0.82069 0.47119 0.0
C170 C 0.67367 0.75342 0.50906 0.0
C171 C 0.56677 0.70606 0.47304 0.0
C172 C 0.5934 0.712 0.50716 0.0
C173 C 0.57195 0.7208 0.50501 0.0
C174 C 0.55858 0.7178 0.48781 0.0
N175 N 0.60126 0.70044 0.49262 0.0
C176 C 0.58829 0.69747 0.47571 0.0
Co177 Co 0.95351 0.69144 0.63965 0.0
Co178 Co 0.94598 0.62955 0.66244 0.0
O179 O 0.94257 0.64917 0.64009 0.0
C180 C 0.89201 0.66227 0.62331 0.0
O181 O 0.88241 0.64375 0.6374 0.0
C182 C 0.97487 0.61193 0.63307 0.0
O183 O 0.98743 0.63934 0.62654 0.0
O184 O 0.98888 0.66097 0.66548 0.0
O185 O 0.98775 0.70237 0.65718 0.0
H186 H 0.97621 0.62601 0.72795 0.0
H187 H 0.94652 0.66006 0.60413 0.0
O188 O 0.91972 0.68199 0.62202 0.0
H189 H 0.05115 0.74341 0.60473 0.0
H190 H 0.97034 0.78656 0.60923 0.0
H191 H 0.97155 0.73892 0.66803 0.0
H192 H 0.01728 0.73599 0.63078 0.0
H193 H 0.95751 0.73358 0.61004 0.0
O194 O 0.95797 0.60462 0.64722 0.0
H195 H 0.97127 0.65029 0.69989 0.0
H196 H 0.92841 0.5665 0.67201 0.0
H197 H 0.9848 0.79204 0.66783 0.0
H198 H 0.97952 0.66689 0.57767 0.0
H199 H 0.98423 0.8162 0.63827 0.0
H200 H 0.03229 0.70875 0.5779 0.0
O201 O 0.92646 0.68509 0.66095 0.0
H202 H 0.85546 0.55487 0.62681 0.0
H203 H 0.89302 0.60177 0.68766 0.0
H204 H 0.83944 0.56431 0.68393 0.0
H205 H 0.82035 0.54054 0.65334 0.0
H206 H 0.90884 0.59264 0.6311 0.0
H207 H 0.93308 0.54134 0.69973 0.0
H208 H 0.95703 0.57113 0.72799 0.0
O209 O 0.93392 0.65344 0.67847 0.0
C210 C 1.0005 0.68943 0.66501 0.0
C211 C 0.96564 0.61277 0.71575 0.0
C212 C 0.94148 0.56526 0.6999 0.0
N213 N 0.94938 0.60982 0.68437 0.0
C214 C 0.96271 0.62638 0.69983 0.0
C215 C 0.93896 0.57964 0.68423 0.0
C216 C 0.95491 0.58198 0.71575 0.0
C217 C 0.96937 0.67851 0.60424 0.0
N218 N 0.97994 0.69762 0.61897 0.0
C219 C 0.98799 0.68218 0.58926 0.0
C220 C 0.0176 0.70564 0.58941 0.0
C221 C 0.02821 0.72507 0.60447 0.0
C222 C 0.00896 0.72068 0.61922 0.0
C223 C 0.97071 0.7763 0.62219 0.0
C224 C 0.97141 0.74931 0.6551 0.0
C225 C 0.9634 0.74628 0.62275 0.0
N226 N 0.96396 0.73322 0.63905 0.0
C227 C 0.97886 0.77938 0.65508 0.0
C228 C 0.97851 0.79292 0.63849 0.0
C229 C 0.92433 0.67176 0.67618 0.0
C230 C 0.86353 0.565 0.64022 0.0
C231 C 0.88488 0.59158 0.67429 0.0
C232 C 0.85453 0.57034 0.67227 0.0
C233 C 0.84383 0.557 0.65511 0.0
N234 N 0.90408 0.59925 0.65963 0.0
C235 C 0.89375 0.5863 0.64275 0.0
Co236 Co 0.2658 0.95121 0.80501 0.0
Co237 Co 0.31917 0.94269 0.82843 0.0
O238 O 0.29692 0.93999 0.80585 0.0
C239 C 0.23401 0.88985 0.7887 0.0
O240 O 0.2431 0.88063 0.8029 0.0
C241 C 0.36661 0.97257 0.79972 0.0
O242 O 0.35192 0.98534 0.79323 0.0
O243 O 0.33055 0.98546 0.83191 0.0
O244 O 0.28886 0.98531 0.82268 0.0
H245 H 0.3507 0.97084 0.89446 0.0
H246 H 0.29088 0.94411 0.76981 0.0
O247 O 0.24169 0.91746 0.78728 0.0
H248 H 0.31303 0.04899 0.77024 0.0
H249 H 0.18869 0.96879 0.77359 0.0
H250 H 0.23592 0.96948 0.83296 0.0
H251 H 0.28573 0.0151 0.79612 0.0
H252 H 0.22856 0.95558 0.77494 0.0
O253 O 0.35662 0.9552 0.81364 0.0
H254 H 0.32244 0.96679 0.86609 0.0
H255 H 0.36434 0.92482 0.83829 0.0
H256 H 0.19631 0.9831 0.83222 0.0
H257 H 0.31793 0.97713 0.74353 0.0
H258 H 0.1724 0.9828 0.80237 0.0
H259 H 0.32926 0.03002 0.74368 0.0
O260 O 0.24442 0.92417 0.82616 0.0
H261 H 0.30469 0.8534 0.79195 0.0
H262 H 0.29313 0.88892 0.85298 0.0
H263 H 0.27716 0.83549 0.84868 0.0
H264 H 0.28296 0.81743 0.81799 0.0
H265 H 0.32012 0.90661 0.79682 0.0
H266 H 0.39323 0.92862 0.86632 0.0
H267 H 0.38641 0.95166 0.89469 0.0
O268 O 0.28264 0.93006 0.84402 0.0
C269 C 0.31412 0.99751 0.83103 0.0
C270 C 0.3538 0.96066 0.8822 0.0
C271 C 0.3777 0.937 0.8664 0.0
N272 N 0.34155 0.94538 0.85059 0.0
C273 C 0.33779 0.95823 0.86611 0.0
C274 C 0.36132 0.93497 0.85056 0.0
C275 C 0.37385 0.94993 0.88232 0.0
C276 C 0.29547 0.96701 0.76988 0.0
N277 N 0.28669 0.97764 0.78446 0.0
C278 C 0.31091 0.98564 0.755 0.0
C279 C 0.31731 0.01532 0.75511 0.0
C280 C 0.30824 0.026 0.77002 0.0
C281 C 0.29289 0.00673 0.78467 0.0
C282 C 0.19897 0.96905 0.78668 0.0
C283 C 0.22574 0.96946 0.81991 0.0
C284 C 0.22151 0.96153 0.78753 0.0
N285 N 0.2347 0.96196 0.804 0.0
C286 C 0.20327 0.97712 0.81958 0.0
C287 C 0.18985 0.97692 0.80283 0.0
C288 C 0.25491 0.92106 0.84142 0.0
C289 C 0.30215 0.86102 0.8054 0.0
C290 C 0.29567 0.88123 0.83957 0.0
C291 C 0.28664 0.85096 0.83723 0.0
C292 C 0.28991 0.84084 0.82001 0.0
N293 N 0.30771 0.9009 0.82518 0.0
C294 C 0.31096 0.89114 0.80826 0.0
Co295 Co 0.31665 0.26082 0.97177 0.0
Co296 Co 0.37712 0.31778 0.99387 0.0
O297 O 0.35823 0.29382 0.9717 0.0
C298 C 0.34797 0.23105 0.9549 0.0
O299 O 0.36677 0.24076 0.96886 0.0
C300 C 0.39333 0.36329 0.96398 0.0
O301 O 0.366 0.34753 0.95742 0.0
O302 O 0.34433 0.32747 0.99635 0.0
O303 O 0.30446 0.28272 0.98967 0.0
H304 H 0.37857 0.35284 0.05882 0.0
H305 H 0.34592 0.28597 0.93582 0.0
O306 O 0.32731 0.23777 0.95383 0.0
H307 H 0.2587 0.30118 0.93811 0.0
H308 H 0.2225 0.17881 0.94246 0.0
H309 H 0.27088 0.2291 1.00081 0.0
H310 H 0.26917 0.27646 0.96387 0.0
H311 H 0.27449 0.22116 0.94262 0.0
O312 O 0.40103 0.35454 0.97834 0.0
H313 H 0.35535 0.32239 0.03098 0.0
H314 H 0.43943 0.36534 1.0034 0.0
H315 H 0.21876 0.18701 1.00127 0.0
H316 H 0.33605 0.31046 0.90964 0.0
H317 H 0.19423 0.16155 0.97193 0.0
H318 H 0.29222 0.31829 0.91071 0.0
O319 O 0.32545 0.24163 0.99284 0.0
H320 H 0.45444 0.30485 0.9592 0.0
H321 H 0.40675 0.29547 0.01978 0.0
H322 H 0.4459 0.28151 0.01666 0.0
H323 H 0.47008 0.28622 0.98621 0.0
H324 H 0.41499 0.31832 0.96289 0.0
H325 H 0.46352 0.39642 0.03091 0.0
H326 H 0.43305 0.39018 0.05891 0.0
O327 O 0.35434 0.28198 0.01028 0.0
C328 C 0.31618 0.30893 0.99677 0.0
C329 C 0.39211 0.3557 0.04673 0.0
C330 C 0.43978 0.38019 0.03106 0.0
N331 N 0.39604 0.3419 0.01563 0.0
C332 C 0.37909 0.33846 0.03094 0.0
C333 C 0.42599 0.36256 0.01551 0.0
C334 C 0.42267 0.37667 0.04676 0.0
C335 C 0.32663 0.28903 0.9363 0.0
N336 N 0.30812 0.27974 0.95133 0.0
C337 C 0.32123 0.30303 0.92147 0.0
C338 C 0.29667 0.30746 0.9221 0.0
C339 C 0.27787 0.2979 0.93748 0.0
C340 C 0.28399 0.28402 0.95206 0.0
C341 C 0.23292 0.18977 0.95533 0.0
C342 C 0.2603 0.21827 0.98798 0.0
C343 C 0.26237 0.21373 0.95551 0.0
N344 N 0.27562 0.22777 0.9717 0.0
C345 C 0.23081 0.19439 0.98833 0.0
C346 C 0.21707 0.1801 0.97187 0.0
C347 C 0.33798 0.25369 0.00812 0.0
C348 C 0.44415 0.3028 0.97256 0.0
C349 C 0.41711 0.29753 0.00646 0.0
C350 C 0.43931 0.28964 0.0048 0.0
C351 C 0.45288 0.2923 0.98771 0.0
N352 N 0.40872 0.30787 0.99154 0.0
C353 C 0.42188 0.3105 0.97474 0.0
Co354 Co 0.69538 0.95468 0.70207 0.0
Co355 Co 0.63398 0.94719 0.67858 0.0
O356 O 0.65323 0.94407 0.70118 0.0
C357 C 0.66558 0.89334 0.71857 0.0
O358 O 0.64735 0.88378 0.70433 0.0
C359 C 0.61698 0.97738 0.70735 0.0
O360 O 0.64456 0.99012 0.71364 0.0
O361 O 0.66584 0.98986 0.67512 0.0
O362 O 0.70687 0.98872 0.68432 0.0
H363 H 0.63119 0.97559 0.61253 0.0
H364 H 0.66333 0.94831 0.73722 0.0
O365 O 0.68535 0.92102 0.71991 0.0
H366 H 0.74721 0.05265 0.73664 0.0
H367 H 0.78968 0.97117 0.73352 0.0
H368 H 0.74337 0.97209 0.6741 0.0
H369 H 0.74012 0.01842 0.71086 0.0
H370 H 0.73681 0.95869 0.73216 0.0
O371 O 0.60934 0.96002 0.69341 0.0
H372 H 0.65509 0.97109 0.64091 0.0
H373 H 0.57119 0.93027 0.66869 0.0
H374 H 0.7964 0.98498 0.67485 0.0
H375 H 0.6698 0.98167 0.76341 0.0
H376 H 0.81989 0.98456 0.70472 0.0
H377 H 0.71194 0.03429 0.76318 0.0
O378 O 0.68925 0.92737 0.68097 0.0
H379 H 0.55831 0.85815 0.71487 0.0
H380 H 0.6057 0.89356 0.65392 0.0
H381 H 0.56769 0.84028 0.6581 0.0
H382 H 0.54367 0.82227 0.68875 0.0
H383 H 0.59663 0.91121 0.71013 0.0
H384 H 0.54641 0.93453 0.64064 0.0
H385 H 0.57645 0.95723 0.61228 0.0
O386 O 0.65758 0.93417 0.66301 0.0
C387 C 0.69427 1.00136 0.67596 0.0
C388 C 0.61784 0.96557 0.62478 0.0
C389 C 0.57027 0.94257 0.64057 0.0
N390 N 0.61454 0.95025 0.6564 0.0
C391 C 0.63124 0.96289 0.64088 0.0
C392 C 0.58444 0.94028 0.65642 0.0
C393 C 0.58713 0.9553 0.62466 0.0
C394 C 0.68189 0.97109 0.73712 0.0
N395 N 0.70134 0.98138 0.72255 0.0
C396 C 0.68536 0.98991 0.75194 0.0
C397 C 0.70898 0.01945 0.75179 0.0
C398 C 0.72876 0.02977 0.73689 0.0
C399 C 0.72456 0.01032 0.7223 0.0
C400 C 0.77971 0.97147 0.72042 0.0
C401 C 0.75348 0.97201 0.68717 0.0
C402 C 0.74976 0.96436 0.71956 0.0
N403 N 0.73707 0.96485 0.70308 0.0
C404 C 0.78349 0.97926 0.6875 0.0
C405 C 0.79665 0.97899 0.70426 0.0
C406 C 0.67588 0.92463 0.66566 0.0
C407 C 0.56854 0.86575 0.70144 0.0
C408 C 0.5954 0.8859 0.66731 0.0
C409 C 0.57385 0.85571 0.66958 0.0
C410 C 0.56037 0.84562 0.68678 0.0
N411 N 0.60325 0.90552 0.68175 0.0
C412 C 0.59016 0.89579 0.69865 0.0
Co413 Co 0.74369 0.69195 0.8692 0.0
Co414 Co 0.69034 0.63113 0.845 0.0
O415 O 0.71218 0.6498 0.86786 0.0
C416 C 0.77474 0.6616 0.88552 0.0
O417 O 0.76598 0.64361 0.87116 0.0
C418 C 0.64231 0.61284 0.87344 0.0
O419 O 0.657 0.64 0.88038 0.0
O420 O 0.67947 0.66298 0.84179 0.0
O421 O 0.72141 0.70383 0.85148 0.0
H422 H 0.66056 0.63019 0.77881 0.0
H423 H 0.71743 0.65902 0.90402 0.0
O424 O 0.76707 0.68152 0.88702 0.0
H425 H 0.69672 0.74273 0.90406 0.0
H426 H 0.82077 0.78546 0.90169 0.0
H427 H 0.77472 0.74067 0.84175 0.0
H428 H 0.72435 0.73633 0.87829 0.0
H429 H 0.78048 0.73261 0.89976 0.0
O430 O 0.6525 0.60596 0.85939 0.0
H431 H 0.68828 0.6533 0.80753 0.0
H432 H 0.64491 0.56859 0.83432 0.0
H433 H 0.81475 0.79369 0.84307 0.0
H434 H 0.69004 0.66478 0.93019 0.0
H435 H 0.83807 0.81641 0.87321 0.0
H436 H 0.67943 0.70683 0.93027 0.0
O437 O 0.76535 0.68644 0.84813 0.0
H438 H 0.70316 0.55462 0.88068 0.0
H439 H 0.71644 0.60372 0.82021 0.0
H440 H 0.73181 0.56574 0.82414 0.0
H441 H 0.72515 0.54086 0.85454 0.0
H442 H 0.68834 0.59293 0.8762 0.0
H443 H 0.61655 0.5446 0.80593 0.0
H444 H 0.62438 0.57545 0.77789 0.0
O445 O 0.72727 0.65523 0.82978 0.0
C446 C 0.69632 0.69138 0.84293 0.0
C447 C 0.65702 0.6165 0.79092 0.0
C448 C 0.63228 0.56847 0.80615 0.0
N449 N 0.66838 0.61231 0.82255 0.0
C450 C 0.67271 0.62945 0.80721 0.0
C451 C 0.64836 0.5822 0.8222 0.0
C452 C 0.6367 0.58578 0.79042 0.0
C453 C 0.71315 0.67754 0.90405 0.0
N454 N 0.72251 0.69733 0.88966 0.0
C455 C 0.69752 0.68062 0.91887 0.0
C456 C 0.69153 0.70418 0.91889 0.0
C457 C 0.70119 0.72431 0.90417 0.0
C458 C 0.71672 0.7205 0.88958 0.0
C459 C 0.81075 0.77583 0.88848 0.0
C460 C 0.78464 0.75044 0.85493 0.0
C461 C 0.78798 0.74589 0.8873 0.0
N462 N 0.77513 0.73362 0.87067 0.0
C463 C 0.80735 0.78046 0.85558 0.0
C464 C 0.82044 0.79318 0.8725 0.0
C465 C 0.75504 0.67347 0.83268 0.0
C466 C 0.70608 0.56523 0.86735 0.0
C467 C 0.71352 0.59305 0.8335 0.0
C468 C 0.72221 0.57151 0.83563 0.0
C469 C 0.71845 0.55755 0.85269 0.0
N470 N 0.70133 0.60041 0.84794 0.0
C471 C 0.69761 0.58684 0.86471 0.0
Co472 Co 0.05487 0.7437 0.03478 0.0
Co473 Co 0.0621 0.68891 0.01232 0.0
O474 O 0.06562 0.71223 0.03453 0.0
C475 C 0.11634 0.77582 0.05114 0.0
O476 O 0.12582 0.76664 0.03711 0.0
C477 C 0.03295 0.64292 0.04185 0.0
O478 O 0.0202 0.65782 0.04799 0.0
O479 O 0.01926 0.6776 0.00921 0.0
O480 O 0.02061 0.72034 0.01726 0.0
H481 H 0.03182 0.65442 0.9469 0.0
H482 H 0.06163 0.7195 0.07042 0.0
O483 O 0.08869 0.76807 0.05239 0.0
H484 H 0.9572 0.69882 0.06963 0.0
H485 H 0.0385 0.82262 0.06474 0.0
H486 H 0.03708 0.77302 0.00619 0.0
H487 H 0.99117 0.72493 0.04356 0.0
H488 H 0.05109 0.78228 0.06418 0.0
O489 O 0.05 0.65221 0.02776 0.0
H490 H 0.03692 0.68407 0.9748 0.0
H491 H 0.07932 0.64305 1.00309 0.0
H492 H 0.02408 0.81308 0.00616 0.0
H493 H 0.02852 0.69366 0.0969 0.0
H494 H 0.02475 0.83818 0.03559 0.0
H495 H 0.97586 0.68307 0.09657 0.0
O496 O 0.082 0.76406 0.01346 0.0
H497 H 0.15251 0.70478 0.04809 0.0
H498 H 0.11503 0.71353 0.98709 0.0
H499 H 0.16855 0.72944 0.99085 0.0
H500 H 0.1876 0.72506 0.02153 0.0
H501 H 0.09919 0.68938 0.04375 0.0
H502 H 0.07447 0.61278 0.97554 0.0
H503 H 0.05068 0.61845 0.94716 0.0
O504 O 0.07431 0.72469 0.9961 0.0
C505 C 0.00776 0.69455 0.00954 0.0
C506 C 0.04231 0.65181 0.95917 0.0
C507 C 0.06621 0.62841 0.97525 0.0
N508 N 0.05859 0.66546 0.99052 0.0
C509 C 0.04534 0.6686 0.97499 0.0
C510 C 0.06883 0.64557 0.99082 0.0
C511 C 0.05287 0.63161 0.95933 0.0
C512 C 0.03883 0.71524 0.07027 0.0
N513 N 0.02837 0.72375 0.05548 0.0
C514 C 0.02015 0.70048 0.08526 0.0
C515 C 0.99059 0.6945 0.08505 0.0
C516 C 0.98009 0.7033 0.06993 0.0
C517 C 0.9994 0.71796 0.05517 0.0
C518 C 0.03809 0.81182 0.05184 0.0
C519 C 0.03726 0.78373 0.01907 0.0
C520 C 0.04526 0.78902 0.05142 0.0
N521 N 0.04463 0.77518 0.03518 0.0
C522 C 0.02995 0.80644 0.01896 0.0
C523 C 0.03036 0.82054 0.03547 0.0
C524 C 0.08409 0.75266 0.99829 0.0
C525 C 0.14446 0.70671 0.03464 0.0
C526 C 0.12315 0.7116 1.00049 0.0
C527 C 0.15347 0.7206 1.00253 0.0
C528 C 0.16414 0.71812 0.01974 0.0
N529 N 0.10396 0.70036 0.01517 0.0
C530 C 0.11427 0.6979 0.03209 0.0
Co531 Co 0.31775 0.05482 0.20217 0.0
Co532 Co 0.37874 0.06187 0.17837 0.0
O533 O 0.35984 0.06515 0.20111 0.0
C534 C 0.34826 0.11612 0.21866 0.0
O535 O 0.36647 0.12535 0.20441 0.0
C536 C 0.39629 0.03185 0.20702 0.0
O537 O 0.36909 0.01965 0.21386 0.0
O538 O 0.34669 0.01926 0.17504 0.0
O539 O 0.30588 0.02072 0.1844 0.0
H540 H 0.38038 0.03312 0.11225 0.0
H541 H 0.35001 0.06104 0.23722 0.0
O542 O 0.32816 0.08857 0.22004 0.0
H543 H 0.26571 0.95691 0.23676 0.0
H544 H 0.22398 0.03898 0.23405 0.0
H545 H 0.26954 0.03767 0.17441 0.0
H546 H 0.27283 0.99117 0.21101 0.0
H547 H 0.27674 0.05113 0.23247 0.0
O548 O 0.40346 0.04887 0.19294 0.0
H549 H 0.35699 0.03784 0.1408 0.0
H550 H 0.44132 0.07854 0.16807 0.0
H551 H 0.21662 0.0251 0.17539 0.0
H552 H 0.34351 0.02764 0.26338 0.0
H553 H 0.1935 0.02572 0.20537 0.0
H554 H 0.30116 0.97512 0.26322 0.0
O555 O 0.32384 0.08218 0.18112 0.0
H556 H 0.45521 0.15079 0.21441 0.0
H557 H 0.40688 0.11545 0.15368 0.0
H558 H 0.44513 0.16867 0.15776 0.0
H559 H 0.46962 0.18665 0.18829 0.0
H560 H 0.41664 0.09779 0.20976 0.0
H561 H 0.46559 0.07406 0.13984 0.0
H562 H 0.43508 0.05131 0.11164 0.0
O563 O 0.35508 0.07501 0.16299 0.0
C564 C 0.31828 0.00793 0.17598 0.0
C565 C 0.39394 0.04316 0.12442 0.0
C566 C 0.44175 0.06609 0.13992 0.0
N567 N 0.39778 0.05863 0.15605 0.0
C568 C 0.38082 0.04596 0.14062 0.0
C569 C 0.42786 0.06851 0.15588 0.0
C570 C 0.42462 0.05334 0.1241 0.0
C571 C 0.33136 0.0383 0.23715 0.0
N572 N 0.31181 0.02808 0.22262 0.0
C573 C 0.32787 0.01946 0.25196 0.0
C574 C 0.30414 0.98998 0.25184 0.0
C575 C 0.28426 0.97973 0.23699 0.0
C576 C 0.28848 0.9992 0.22241 0.0
C577 C 0.23378 0.03859 0.22091 0.0
C578 C 0.25959 0.03783 0.18752 0.0
C579 C 0.26367 0.04552 0.21991 0.0
N580 N 0.27615 0.04492 0.20337 0.0
C581 C 0.22964 0.03077 0.18798 0.0
C582 C 0.21669 0.03114 0.20481 0.0
C583 C 0.33699 0.08476 0.16574 0.0
C584 C 0.44477 0.1432 0.20102 0.0
C585 C 0.41739 0.12309 0.16702 0.0
C586 C 0.43908 0.15326 0.16923 0.0
C587 C 0.45282 0.16332 0.18637 0.0
N588 N 0.40966 0.10348 0.18145 0.0
C589 C 0.42301 0.1132 0.19829 0.0
Co590 Co 0.26632 0.31467 0.36779 0.0
Co591 Co 0.32072 0.37624 0.34476 0.0
O592 O 0.29772 0.35692 0.36716 0.0
C593 C 0.23447 0.34449 0.38374 0.0
O594 O 0.24377 0.3628 0.36954 0.0
C595 C 0.36726 0.39429 0.37415 0.0
O596 O 0.35238 0.36702 0.38088 0.0
O597 O 0.33213 0.34476 0.34195 0.0
O598 O 0.2896 0.30344 0.3504 0.0
H599 H 0.35441 0.37886 0.27931 0.0
H600 H 0.29073 0.34651 0.40318 0.0
O601 O 0.24202 0.32448 0.38526 0.0
H602 H 0.31185 0.26308 0.40322 0.0
H603 H 0.18788 0.22007 0.39864 0.0
H604 H 0.23683 0.26677 0.33966 0.0
H605 H 0.28546 0.2702 0.37702 0.0
H606 H 0.22809 0.27303 0.39757 0.0
O607 O 0.35767 0.40135 0.3599 0.0
H608 H 0.32518 0.35498 0.30744 0.0
H609 H 0.36625 0.43915 0.3349 0.0
H610 H 0.1969 0.21367 0.34013 0.0
H611 H 0.31686 0.33999 0.42978 0.0
H612 H 0.17212 0.18998 0.36978 0.0
H613 H 0.32767 0.29808 0.42987 0.0
O614 O 0.24563 0.32074 0.34638 0.0
H615 H 0.30507 0.45146 0.37988 0.0
H616 H 0.29555 0.40372 0.31931 0.0
H617 H 0.27949 0.44126 0.32276 0.0
H618 H 0.28426 0.46545 0.35321 0.0
H619 H 0.32061 0.4136 0.37585 0.0
H620 H 0.39609 0.46391 0.3071 0.0
H621 H 0.39018 0.43373 0.27902 0.0
O622 O 0.28474 0.35217 0.32878 0.0
C623 C 0.31529 0.31631 0.34254 0.0
C624 C 0.35712 0.39228 0.29144 0.0
C625 C 0.38054 0.44 0.30704 0.0
N626 N 0.34383 0.39566 0.32276 0.0
C627 C 0.34056 0.37889 0.3074 0.0
C628 C 0.36363 0.42583 0.32276 0.0
C629 C 0.37721 0.42305 0.29129 0.0
C630 C 0.29509 0.32805 0.40321 0.0
N631 N 0.28654 0.30874 0.38858 0.0
C632 C 0.31001 0.32455 0.41827 0.0
C633 C 0.31612 0.30106 0.4183 0.0
C634 C 0.30728 0.28143 0.40333 0.0
C635 C 0.29245 0.28565 0.3885 0.0
C636 C 0.19854 0.23013 0.38564 0.0
C637 C 0.22627 0.25658 0.35263 0.0
C638 C 0.22127 0.26012 0.38494 0.0
N639 N 0.23493 0.27292 0.36859 0.0
C640 C 0.20362 0.22652 0.3528 0.0
C641 C 0.18971 0.21325 0.36944 0.0
C642 C 0.25683 0.33389 0.3311 0.0
C643 C 0.30297 0.44115 0.36652 0.0
C644 C 0.29764 0.41409 0.33261 0.0
C645 C 0.28856 0.43538 0.33448 0.0
C646 C 0.29126 0.44896 0.35156 0.0
N647 N 0.30917 0.40661 0.34735 0.0
C648 C 0.31185 0.41979 0.36414 0.0
Co649 Co 0.95601 0.26533 0.53398 0.0
Co650 Co 0.94773 0.319 0.51084 0.0
O651 O 0.94495 0.29655 0.53333 0.0
C652 C 0.89477 0.23333 0.55063 0.0
O653 O 0.88506 0.24206 0.5365 0.0
C654 C 0.97774 0.36607 0.53969 0.0
O655 O 0.9908 0.35146 0.54582 0.0
O656 O 0.99051 0.3303 0.50731 0.0
O657 O 0.98993 0.28827 0.5162 0.0
H658 H 0.97591 0.35103 0.44488 0.0
H659 H 0.94951 0.29051 0.56931 0.0
O660 O 0.92248 0.24132 0.55186 0.0
H661 H 0.05422 0.31203 0.56832 0.0
H662 H 0.97354 0.18787 0.56494 0.0
H663 H 0.97368 0.23532 0.50578 0.0
H664 H 0.01994 0.28487 0.54256 0.0
H665 H 0.96058 0.22793 0.56386 0.0
O666 O 0.96024 0.35626 0.52582 0.0
H667 H 0.97176 0.32248 0.47313 0.0
H668 H 0.93008 0.36441 0.50124 0.0
H669 H 0.98704 0.19552 0.50625 0.0
H670 H 0.98292 0.31743 0.59547 0.0
H671 H 0.98702 0.17151 0.536 0.0
H672 H 0.03573 0.32845 0.59504 0.0
O673 O 0.92866 0.24413 0.51291 0.0
H674 H 0.85841 0.30433 0.54739 0.0
H675 H 0.89401 0.29336 0.48625 0.0
H676 H 0.84059 0.2775 0.49054 0.0
H677 H 0.82248 0.283 0.52129 0.0
H678 H 0.9116 0.31966 0.54253 0.0
H679 H 0.93398 0.39359 0.47333 0.0
H680 H 0.95694 0.3869 0.44487 0.0
O681 O 0.93503 0.28259 0.49511 0.0
C682 C 1.00231 0.31363 0.50798 0.0
C683 C 0.96578 0.35408 0.45718 0.0
C684 C 0.94229 0.37799 0.47315 0.0
N685 N 0.9505 0.3416 0.48877 0.0
C686 C 0.96329 0.33791 0.4732 0.0
C687 C 0.9402 0.36145 0.48893 0.0
C688 C 0.95516 0.37422 0.45719 0.0
C689 C 0.97237 0.29496 0.56912 0.0
N690 N 0.98274 0.28609 0.55445 0.0
C691 C 0.99122 0.31033 0.58393 0.0
C692 C 0.02086 0.31655 0.58366 0.0
C693 C 0.03126 0.30738 0.56866 0.0
C694 C 0.01178 0.29211 0.55408 0.0
C695 C 0.97368 0.1982 0.5519 0.0
C696 C 0.97378 0.22509 0.51879 0.0
C697 C 0.96629 0.22084 0.5512 0.0
N698 N 0.96657 0.23409 0.53479 0.0
C699 C 0.98129 0.20252 0.51896 0.0
C700 C 0.98125 0.18903 0.53566 0.0
C701 C 0.92573 0.25479 0.49767 0.0
C702 C 0.86604 0.30191 0.53391 0.0
C703 C 0.8863 0.29577 0.49968 0.0
C704 C 0.85603 0.2868 0.50202 0.0
C705 C 0.84589 0.2899 0.51927 0.0
N706 N 0.90594 0.30759 0.5141 0.0
C707 C 0.89616 0.31067 0.53106 0.0
C708 C 0.02203 0.61183 0.0706 0.0
C709 C 0.02885 0.61586 0.05165 0.0
C710 C 0.02036 0.58726 0.08002 0.0
C711 C 0.00625 0.51089 0.07436 0.0
H712 H 0.05891 0.52744 0.11634 0.0
C713 C 0.0246 0.41847 0.10693 0.0
C714 C 0.03179 0.42042 0.12576 0.0
C715 C 0.02245 0.44162 0.0982 0.0
C716 C 0.04351 0.52213 0.10492 0.0
H717 H 0.0383 0.59682 0.02762 0.0
H718 H 0.03436 0.55345 0.04397 0.0
H719 H 0.05703 0.56849 0.10098 0.0
H720 H 0.0412 0.44753 0.15041 0.0
H721 H 0.03582 0.48692 0.13559 0.0
H722 H 0.99189 0.46454 0.07848 0.0
C723 C 0.0307 0.56948 0.05154 0.0
C724 C 0.04263 0.54582 0.09606 0.0
C725 C 0.03306 0.59436 0.04223 0.0
C726 C 0.03591 0.44553 0.13581 0.0
C727 C 0.0331 0.46831 0.12721 0.0
C728 C 0.00661 0.48707 0.08346 0.0
C729 C 0.02474 0.56589 0.07057 0.0
C730 C 0.02423 0.54048 0.08059 0.0
C731 C 0.0268 0.46702 0.10819 0.0
C732 C 0.02548 0.49231 0.0988 0.0
H733 H 0.01884 0.62811 0.07825 0.0
H734 H 0.01567 0.58494 0.09469 0.0
H735 H 0.99171 0.50617 0.06251 0.0
H736 H 0.02158 0.3995 0.09878 0.0
H737 H 0.01811 0.43982 0.0835 0.0
C738 C 0.61275 0.01972 0.27009 0.0
C739 C 0.61741 0.02728 0.28892 0.0
C740 C 0.58778 0.01754 0.26088 0.0
C741 C 0.5115 1.00363 0.26732 0.0
H742 H 0.52653 0.05408 0.22439 0.0
C743 C 0.41813 0.02089 0.23496 0.0
C744 C 0.41951 0.02721 0.21601 0.0
C745 C 0.44145 0.01889 0.2436 0.0
C746 C 0.52163 0.03927 0.23608 0.0
H747 H 0.59908 0.03752 0.31299 0.0
H748 H 0.55505 0.03275 0.29702 0.0
H749 H 0.56812 0.0529 0.23951 0.0
H750 H 0.44568 0.03507 0.19109 0.0
H751 H 0.4853 0.02993 0.20577 0.0
H752 H 0.465 0.9892 0.26373 0.0
C753 C 0.57088 0.02887 0.28937 0.0
C754 C 0.54563 0.0388 0.24481 0.0
C755 C 0.59615 0.03172 0.29846 0.0
C756 C 0.44414 0.03049 0.20577 0.0
C757 C 0.46707 0.02782 0.21428 0.0
C758 C 0.48735 1.00358 0.25836 0.0
C759 C 0.56665 0.02217 0.27043 0.0
C760 C 0.54086 0.0212 0.26061 0.0
C761 C 0.46644 0.02254 0.23341 0.0
C762 C 0.49203 0.02163 0.24268 0.0
H763 H 0.62882 0.01632 0.26235 0.0
H764 H 0.58498 0.01228 0.24628 0.0
H765 H 0.5072 0.98972 0.27943 0.0
H766 H 0.39954 0.01852 0.24324 0.0
H767 H 0.44015 0.0153 0.25837 0.0
C768 C 0.59503 0.61044 0.43821 0.0
C769 C 0.59208 0.61512 0.45703 0.0
C770 C 0.5722 0.58555 0.42897 0.0
C771 C 0.50957 0.50943 0.4353 0.0
H772 H 0.47465 0.5247 0.39221 0.0
C773 C 0.39942 0.41618 0.40235 0.0
C774 C 0.39481 0.41764 0.38337 0.0
C775 C 0.42453 0.4395 0.41115 0.0
C776 C 0.48441 0.51973 0.40395 0.0
H777 H 0.56337 0.59692 0.48105 0.0
H778 H 0.52402 0.55302 0.46503 0.0
H779 H 0.51732 0.56617 0.40748 0.0
H780 H 0.4135 0.44398 0.35855 0.0
H781 H 0.45789 0.48361 0.37351 0.0
H782 H 0.47746 0.46298 0.43161 0.0
C783 C 0.5438 0.56877 0.4574 0.0
C784 C 0.50884 0.54367 0.41277 0.0
C785 C 0.56627 0.59396 0.46653 0.0
C786 C 0.41627 0.44238 0.37326 0.0
C787 C 0.44166 0.46531 0.38194 0.0
C788 C 0.48552 0.48534 0.42627 0.0
C789 C 0.54634 0.56452 0.43848 0.0
C790 C 0.52149 0.53881 0.42861 0.0
C791 C 0.44599 0.46457 0.4011 0.0
C792 C 0.47235 0.49011 0.41052 0.0
H793 H 0.61458 0.62643 0.43051 0.0
H794 H 0.5747 0.58272 0.41438 0.0
H795 H 0.51905 0.50507 0.44746 0.0
H796 H 0.38311 0.39749 0.41053 0.0
H797 H 0.42658 0.43812 0.42594 0.0
C798 C 0.97581 0.56385 0.63373 0.0
C799 C 0.97926 0.58877 0.62376 0.0
C800 C 0.97855 0.54115 0.62495 0.0
C801 C 1.00355 0.52221 0.58066 0.0
H802 H 0.9546 0.44098 0.59885 0.0
C803 C 0.97707 0.41436 0.53988 0.0
C804 C 0.98191 0.39329 0.54933 0.0
C805 C 0.97943 0.43934 0.54909 0.0
C806 C 0.96858 0.4636 0.59373 0.0
H807 H 0.98826 0.60946 0.59674 0.0
H808 H 0.99157 0.56923 0.58116 0.0
H809 H 0.95273 0.48199 0.61428 0.0
H810 H 0.99306 0.38191 0.57584 0.0
H811 H 0.99624 0.42522 0.59211 0.0
H812 H 0.01799 0.50306 0.55947 0.0
C813 C 0.9878 0.56754 0.59592 0.0
C814 C 0.96772 0.48727 0.60264 0.0
C815 C 0.98574 0.59063 0.60482 0.0
C816 C 0.98938 0.39785 0.56818 0.0
C817 C 0.99106 0.42251 0.5775 0.0
C818 C 1.00388 0.49839 0.57153 0.0
C819 C 0.98407 0.5423 0.60583 0.0
C820 C 0.98525 0.51703 0.5963 0.0
C821 C 0.98602 0.44344 0.56804 0.0
C822 C 0.98646 0.46887 0.578 0.0
H823 H 0.97111 0.56194 0.6484 0.0
H824 H 0.97635 0.52271 0.63328 0.0
H825 H 0.01785 0.5447 0.57549 0.0
H826 H 0.97132 0.41148 0.52535 0.0
H827 H 0.97527 0.45503 0.54152 0.0
C828 C 0.56822 0.97713 0.70738 0.0
C829 C 0.59393 0.9816 0.71694 0.0
C830 C 0.54552 0.9794 0.71655 0.0
C831 C 0.5096 0.96743 0.76096 0.0
H832 H 0.47827 0.01735 0.7431 0.0
C833 C 0.41562 0.97348 0.80063 0.0
C834 C 0.3944 0.97726 0.7906 0.0
C835 C 0.44129 0.97649 0.792 0.0
C836 C 0.48631 1.00286 0.74816 0.0
H837 H 0.616 0.99201 0.74359 0.0
H838 H 0.5757 0.99503 0.75978 0.0
H839 H 0.52036 0.01788 0.72722 0.0
H840 H 0.38339 0.98713 0.76362 0.0
H841 H 0.42733 0.99093 0.74828 0.0
H842 H 0.4749 0.95101 0.78123 0.0
C843 C 0.57347 0.99021 0.74511 0.0
C844 C 0.51064 1.00342 0.73911 0.0
C845 C 0.59655 0.98863 0.73585 0.0
C846 C 0.39951 0.98435 0.77175 0.0
C847 C 0.42489 0.98669 0.76299 0.0
C848 C 0.48488 0.96635 0.76977 0.0
C849 C 0.5477 0.98552 0.73555 0.0
C850 C 0.52255 0.98576 0.74545 0.0
C851 C 0.44614 0.98263 0.77296 0.0
C852 C 0.47282 0.9841 0.76356 0.0
H853 H 0.56558 0.97171 0.69279 0.0
H854 H 0.52581 0.9755 0.70888 0.0
H855 H 0.51808 0.95326 0.76596 0.0
H856 H 0.41246 0.9683 0.81524 0.0
H857 H 0.45732 0.97402 0.80038 0.0
C858 C 0.44118 0.41266 0.96411 0.0
C859 C 0.41606 0.39078 0.9544 0.0
C860 C 0.46358 0.43794 0.95503 0.0
C861 C 0.50005 0.46277 0.91069 0.0
H862 H 0.5296 0.54344 0.92911 0.0
C863 C 0.59352 0.56455 0.87196 0.0
C864 C 0.6144 0.58938 0.88227 0.0
C865 C 0.56786 0.54147 0.88033 0.0
C866 C 0.52205 0.52109 0.92389 0.0
H867 H 0.39472 0.37833 0.92754 0.0
H868 H 0.4345 0.42225 0.91152 0.0
H869 H 0.48774 0.50113 0.94461 0.0
H870 H 0.62475 0.60952 0.90947 0.0
H871 H 0.58078 0.56868 0.92435 0.0
H872 H 0.53501 0.48203 0.89061 0.0
C873 C 0.43651 0.41989 0.92623 0.0
C874 C 0.49784 0.49687 0.93272 0.0
C875 C 0.41372 0.39487 0.93541 0.0
C876 C 0.60891 0.59078 0.90113 0.0
C877 C 0.58352 0.56733 0.90963 0.0
C878 C 0.52462 0.48686 0.90207 0.0
C879 C 0.46171 0.44161 0.93595 0.0
C880 C 0.4866 0.46748 0.9262 0.0
C881 C 0.56265 0.54217 0.89938 0.0
C882 C 0.53605 0.51647 0.90851 0.0
H883 H 0.4436 0.41018 0.97876 0.0
H884 H 0.48283 0.45422 0.96283 0.0
H885 H 0.49211 0.44029 0.90553 0.0
H886 H 0.59697 0.56297 0.85734 0.0
H887 H 0.55211 0.52308 0.87177 0.0
C888 C 0.17173 0.35548 0.11386 0.0
C889 C 0.14265 0.34886 0.10894 0.0
C890 C 0.19108 0.3544 0.10066 0.0
C891 C 0.18967 0.32335 0.0536 0.0
H892 H 0.276 0.36977 0.05913 0.0
C893 C 0.267 0.2942 0.01203 0.0
C894 C 0.29626 0.31672 0.00742 0.0
C895 C 0.2488 0.30045 0.02333 0.0
C896 C 0.25197 0.35692 0.05712 0.0
H897 H 0.1116 0.33739 0.08614 0.0
H898 H 0.14567 0.33716 0.06295 0.0
H899 H 0.24414 0.37798 0.08022 0.0
H900 H 0.32894 0.36386 0.0108 0.0
H901 H 0.29669 0.37516 0.02984 0.0
H902 H 0.19741 0.30336 0.02998 0.0
C903 C 0.15333 0.34189 0.07712 0.0
C904 C 0.23354 0.36126 0.06951 0.0
C905 C 0.13378 0.3423 0.0904 0.0
C906 C 0.30654 0.34594 0.01407 0.0
C907 C 0.28808 0.35233 0.02518 0.0
C908 C 0.20806 0.31944 0.04102 0.0
C909 C 0.1821 0.34726 0.08207 0.0
C910 C 0.20203 0.34419 0.06815 0.0
C911 C 0.25899 0.32958 0.03016 0.0
C912 C 0.23952 0.3357 0.04276 0.0
H913 H 0.17916 0.36037 0.12808 0.0
H914 H 0.21272 0.35821 0.10524 0.0
H915 H 0.16563 0.30934 0.05206 0.0
H916 H 0.25828 0.27135 0.00737 0.0
H917 H 0.22697 0.28204 0.02709 0.0
C918 C 0.81008 0.16862 0.27565 0.0
C919 C 0.79858 0.13754 0.27394 0.0
C920 C 0.83107 0.18866 0.26289 0.0
C921 C 0.88749 0.19363 0.22912 0.0
H922 H 0.88661 0.26419 0.21135 0.0
C923 C 0.96869 0.26715 0.17208 0.0
C924 C 0.98296 0.29847 0.17429 0.0
C925 C 0.94448 0.24801 0.18329 0.0
C926 C 0.88734 0.24473 0.2163 0.0
H927 H 0.7995 0.10321 0.25702 0.0
H928 H 0.83563 0.13791 0.23486 0.0
H929 H 0.84782 0.2301 0.23283 0.0
H930 H 0.98186 0.33407 0.18969 0.0
H931 H 0.93982 0.30062 0.20937 0.0
H932 H 0.92703 0.20819 0.21285 0.0
C933 C 0.82893 0.14695 0.24622 0.0
C934 C 0.86508 0.22517 0.22864 0.0
C935 C 0.808 0.12698 0.25891 0.0
C936 C 0.97147 0.31011 0.18753 0.0
C937 C 0.94725 0.29089 0.19882 0.0
C938 C 0.90968 0.21312 0.21686 0.0
C939 C 0.8411 0.17809 0.24815 0.0
C940 C 0.86479 0.19926 0.23514 0.0
C941 C 0.93385 0.25955 0.19712 0.0
C942 C 0.90988 0.23887 0.21018 0.0
H943 H 0.80333 0.17756 0.28704 0.0
H944 H 0.84009 0.21249 0.2649 0.0
H945 H 0.88844 0.1743 0.23413 0.0
H946 H 0.97666 0.25727 0.16197 0.0
H947 H 0.93433 0.22404 0.18126 0.0
C948 C 0.64373 0.80758 0.44336 0.0
C949 C 0.66351 0.79626 0.44188 0.0
C950 C 0.64489 0.82865 0.43059 0.0
C951 C 0.69719 0.88571 0.39753 0.0
H952 H 0.62616 0.88401 0.37815 0.0
C953 C 0.70673 0.96607 0.33957 0.0
C954 C 0.68927 0.98002 0.34096 0.0
C955 C 0.70135 0.94211 0.35109 0.0
C956 C 0.64623 0.88498 0.38357 0.0
H957 H 0.69931 0.79758 0.42532 0.0
H958 H 0.70112 0.83387 0.40316 0.0
H959 H 0.62091 0.8453 0.3999 0.0
H960 H 0.65154 0.97865 0.35523 0.0
H961 H 0.6424 0.93703 0.37551 0.0
H962 H 0.72258 0.92539 0.38149 0.0
C963 C 0.68505 0.82694 0.41435 0.0
C964 C 0.64321 0.86277 0.39604 0.0
C965 C 0.68388 0.80593 0.42704 0.0
C966 C 0.66544 0.96848 0.35372 0.0
C967 C 0.66014 0.94452 0.36535 0.0
C968 C 0.7002 0.90786 0.38515 0.0
C969 C 0.6659 0.83894 0.41608 0.0
C970 C 0.66869 0.86273 0.40307 0.0
C971 C 0.67847 0.93144 0.36446 0.0
C972 C 0.6748 0.90772 0.37785 0.0
H973 H 0.62774 0.80063 0.4546 0.0
H974 H 0.62991 0.83751 0.43241 0.0
H975 H 0.71733 0.88685 0.40297 0.0
H976 H 0.72514 0.97408 0.32985 0.0
H977 H 0.71547 0.93218 0.34966 0.0
C978 C 0.69928 0.6631 0.52175 0.0
C979 C 0.71149 0.68684 0.50893 0.0
C980 C 0.71803 0.65786 0.53335 0.0
C981 C 0.79488 0.69806 0.55295 0.0
H982 H 0.77851 0.61892 0.56771 0.0
C983 C 0.88109 0.68216 0.5945 0.0
C984 C 0.87059 0.66178 0.60932 0.0
C985 C 0.8611 0.68326 0.5819 0.0
C986 C 0.78324 0.64118 0.56386 0.0
H987 H 0.75324 0.72259 0.49769 0.0
H988 H 0.78561 0.71304 0.51744 0.0
H989 H 0.74477 0.62398 0.54609 0.0
H990 H 0.83062 0.62594 0.62213 0.0
H991 H 0.79562 0.62799 0.60012 0.0
H992 H 0.83319 0.71534 0.57065 0.0
C993 C 0.76156 0.69894 0.51894 0.0
C994 C 0.76389 0.64409 0.55145 0.0
C995 C 0.7429 0.70426 0.50746 0.0
C996 C 0.83952 0.64194 0.61091 0.0
C997 C 0.81944 0.64303 0.59823 0.0
C998 C 0.81417 0.69515 0.56527 0.0
C999 C 0.74944 0.67617 0.53237 0.0
C1000 C 0.7696 0.6726 0.54572 0.0
C1001 C 0.82997 0.66403 0.58372 0.0
C1002 C 0.80879 0.66671 0.57081 0.0
H1003 H 0.67522 0.64923 0.52333 0.0
H1004 H 0.70785 0.6402 0.54356 0.0
H1005 H 0.79964 0.7204 0.54928 0.0
H1006 H 0.90485 0.69764 0.5927 0.0
H1007 H 0.87009 0.69933 0.57071 0.0
C1008 C 0.04294 0.74001 0.67427 0.0
C1009 C 0.02883 0.70854 0.67534 0.0
C1010 C 0.06773 0.75823 0.68536 0.0
C1011 C 0.10345 0.75754 0.72937 0.0
H1012 H 0.16884 0.83287 0.71132 0.0
C1013 C 0.20356 0.83728 0.77622 0.0
C1014 C 0.21351 0.86809 0.7747 0.0
C1015 C 0.18313 0.81678 0.76342 0.0
C1016 C 0.15065 0.81203 0.71665 0.0
H1017 H 0.03056 0.67173 0.68871 0.0
H1018 H 0.07394 0.70361 0.70802 0.0
H1019 H 0.12989 0.79897 0.69005 0.0
H1020 H 0.20993 0.90143 0.7583 0.0
H1021 H 0.17429 0.86587 0.73626 0.0
H1022 H 0.12389 0.77085 0.75605 0.0
C1023 C 0.06555 0.71413 0.69867 0.0
C1024 C 0.1283 0.79254 0.70442 0.0
C1025 C 0.0408 0.69584 0.68747 0.0
C1026 C 0.20287 0.87791 0.75991 0.0
C1027 C 0.1825 0.85746 0.74716 0.0
C1028 C 0.12579 0.77707 0.74162 0.0
C1029 C 0.07911 0.74557 0.69792 0.0
C1030 C 0.10417 0.76521 0.71065 0.0
C1031 C 0.17217 0.82658 0.74877 0.0
C1032 C 0.14949 0.80479 0.73549 0.0
H1033 H 0.03442 0.75071 0.66517 0.0
H1034 H 0.07732 0.78231 0.68453 0.0
H1035 H 0.08503 0.73688 0.73472 0.0
H1036 H 0.21133 0.82891 0.78738 0.0
H1037 H 0.17599 0.79324 0.76499 0.0
C1038 C 0.3063 0.0402 0.84021 0.0
C1039 C 0.32337 0.02579 0.84143 0.0
C1040 C 0.31295 0.065 0.85132 0.0
C1041 C 0.34927 0.10048 0.89547 0.0
H1042 H 0.34 0.16622 0.87736 0.0
C1043 C 0.37034 0.20089 0.94225 0.0
C1044 C 0.34941 0.21077 0.9408 0.0
C1045 C 0.37038 0.18047 0.92943 0.0
C1046 C 0.34248 0.14794 0.8827 0.0
H1047 H 0.36148 0.02699 0.85507 0.0
H1048 H 0.37316 0.0704 0.87436 0.0
H1049 H 0.33464 0.12712 0.85611 0.0
H1050 H 0.31242 0.20718 0.92445 0.0
H1051 H 0.31233 0.17162 0.90236 0.0
H1052 H 0.35658 0.12101 0.92213 0.0
C1053 C 0.3544 0.06223 0.86491 0.0
C1054 C 0.33942 0.12549 0.87049 0.0
C1055 C 0.34783 0.03745 0.85372 0.0
C1056 C 0.32892 0.20016 0.92603 0.0
C1057 C 0.32899 0.17983 0.91323 0.0
C1058 C 0.3523 0.12293 0.9077 0.0
C1059 C 0.33681 0.0761 0.86402 0.0
C1060 C 0.34237 0.10123 0.87674 0.0
C1061 C 0.34955 0.16951 0.91481 0.0
C1062 C 0.34852 0.14675 0.90154 0.0
H1063 H 0.28725 0.03192 0.83098 0.0
H1064 H 0.29868 0.07483 0.85038 0.0
H1065 H 0.35132 0.08196 0.90085 0.0
H1066 H 0.38649 0.20863 0.95342 0.0
H1067 H 0.38678 0.17331 0.93097 0.0
C1068 C 0.7053 0.7425 0.83442 0.0
C1069 C 0.68807 0.71115 0.83249 0.0
C1070 C 0.70022 0.76147 0.82307 0.0
C1071 C 0.64615 0.7645 0.79017 0.0
H1072 H 0.71771 0.83459 0.77201 0.0
C1073 C 0.64509 0.84081 0.73089 0.0
C1074 C 0.66477 0.87188 0.73264 0.0
C1075 C 0.64597 0.82068 0.74359 0.0
C1076 C 0.69744 0.81535 0.77711 0.0
H1077 H 0.65106 0.6753 0.81743 0.0
H1078 H 0.64245 0.70848 0.79748 0.0
H1079 H 0.72242 0.80069 0.79326 0.0
H1080 H 0.70013 0.90606 0.74958 0.0
H1081 H 0.70143 0.87119 0.77165 0.0
H1082 H 0.62125 0.77924 0.77374 0.0
C1083 C 0.65976 0.71837 0.80792 0.0
C1084 C 0.70013 0.79586 0.78936 0.0
C1085 C 0.66477 0.6993 0.81936 0.0
C1086 C 0.68477 0.88231 0.74766 0.0
C1087 C 0.68566 0.86225 0.7603 0.0
C1088 C 0.64345 0.78405 0.77784 0.0
C1089 C 0.67788 0.74974 0.80936 0.0
C1090 C 0.67456 0.77025 0.79618 0.0
C1091 C 0.6666 0.83113 0.75831 0.0
C1092 C 0.66908 0.80986 0.77124 0.0
H1093 H 0.72331 0.75255 0.84443 0.0
H1094 H 0.71416 0.78547 0.82491 0.0
H1095 H 0.62595 0.74515 0.79523 0.0
H1096 H 0.62938 0.83197 0.7195 0.0
H1097 H 0.63107 0.79687 0.74156 0.0
C1098 C 0.80505 0.63932 0.89804 0.0
C1099 C 0.79502 0.66012 0.89961 0.0
C1100 C 0.82538 0.63916 0.91088 0.0
C1101 C 0.85758 0.66669 0.95778 0.0
H1102 H 0.92336 0.65734 0.93977 0.0
C1103 C 0.96536 0.70271 1.00018 0.0
C1104 C 0.97944 0.68532 0.99918 0.0
C1105 C 0.94057 0.69609 0.98908 0.0
C1106 C 0.9049 0.65953 0.94511 0.0
H1107 H 0.79831 0.69679 0.91616 0.0
H1108 H 0.83379 0.69674 0.93826 0.0
H1109 H 0.88453 0.6524 0.91841 0.0
H1110 H 0.97768 0.64667 0.98592 0.0
H1111 H 0.93433 0.63511 0.96657 0.0
H1112 H 0.87831 0.67445 0.9844 0.0
C1113 C 0.82571 0.68022 0.9273 0.0
C1114 C 0.88257 0.65669 0.93283 0.0
C1115 C 0.80544 0.68038 0.9145 0.0
C1116 C 0.96746 0.66057 0.98711 0.0
C1117 C 0.94273 0.65407 0.97589 0.0
C1118 C 0.87994 0.66961 0.97003 0.0
C1119 C 0.83616 0.65976 0.92563 0.0
C1120 C 0.85881 0.66064 0.93894 0.0
C1121 C 0.92918 0.67197 0.97657 0.0
C1122 C 0.90412 0.66648 0.96382 0.0
H1123 H 0.79745 0.62333 0.88679 0.0
H1124 H 0.8326 0.62282 0.90926 0.0
H1125 H 0.83935 0.66927 0.9631 0.0
H1126 H 0.9739 0.72199 0.00924 0.0
H1127 H 0.93099 0.71059 0.98985 0.0
C1128 C 0.31038 0.96843 0.15243 0.0
C1129 C 0.2985 0.98004 0.16543 0.0
C1130 C 0.29135 0.94449 0.14089 0.0
C1131 C 0.21424 0.90819 0.12175 0.0
H1132 H 0.23006 0.8452 0.10659 0.0
C1133 C 0.12746 0.80664 0.07998 0.0
C1134 C 0.13784 0.79666 0.06514 0.0
C1135 C 0.14755 0.82761 0.0926 0.0
C1136 C 0.22548 0.8628 0.11055 0.0
H1137 H 0.25704 0.97427 0.17704 0.0
H1138 H 0.22417 0.93244 0.15734 0.0
H1139 H 0.26413 0.88383 0.12819 0.0
H1140 H 0.17767 0.8005 0.05229 0.0
H1141 H 0.21283 0.83734 0.07433 0.0
H1142 H 0.17577 0.88742 0.10416 0.0
C1143 C 0.24818 0.94228 0.15568 0.0
C1144 C 0.24502 0.88495 0.12295 0.0
C1145 C 0.26713 0.9662 0.16713 0.0
C1146 C 0.16887 0.80768 0.06354 0.0
C1147 C 0.18903 0.82872 0.07623 0.0
C1148 C 0.19476 0.88611 0.10943 0.0
C1149 C 0.25998 0.93153 0.14209 0.0
C1150 C 0.23953 0.90785 0.12881 0.0
C1151 C 0.17864 0.83928 0.09078 0.0
C1152 C 0.19996 0.86298 0.10374 0.0
H1153 H 0.3344 0.97851 0.15068 0.0
H1154 H 0.30127 0.93693 0.13055 0.0
H1155 H 0.20964 0.92584 0.12554 0.0
H1156 H 0.10373 0.79852 0.08178 0.0
H1157 H 0.13865 0.83474 0.10382 0.0
C1158 C 0.32934 0.12797 0.2476 0.0
C1159 C 0.34972 0.13784 0.23277 0.0
C1160 C 0.32946 0.14837 0.26041 0.0
C1161 C 0.34291 0.19369 0.29095 0.0
H1162 H 0.35248 0.26888 0.27297 0.0
C1163 C 0.30709 0.26567 0.33334 0.0
C1164 C 0.32451 0.29713 0.33228 0.0
C1165 C 0.31367 0.24743 0.32227 0.0
C1166 C 0.35023 0.2482 0.2783 0.0
H1167 H 0.38669 0.17706 0.22008 0.0
H1168 H 0.38713 0.21266 0.24258 0.0
H1169 H 0.35747 0.23501 0.25161 0.0
H1170 H 0.36318 0.33392 0.31897 0.0
H1171 H 0.37467 0.30202 0.2997 0.0
H1172 H 0.33507 0.20663 0.31756 0.0
C1173 C 0.37073 0.18911 0.24414 0.0
C1174 C 0.3531 0.22873 0.26603 0.0
C1175 C 0.3706 0.16865 0.23128 0.0
C1176 C 0.34925 0.30981 0.3202 0.0
C1177 C 0.35572 0.29152 0.30902 0.0
C1178 C 0.33997 0.21311 0.3032 0.0
C1179 C 0.35 0.17926 0.25882 0.0
C1180 C 0.34907 0.201 0.27213 0.0
C1181 C 0.33777 0.26008 0.30975 0.0
C1182 C 0.3432 0.24046 0.297 0.0
H1183 H 0.31286 0.10445 0.2492 0.0
H1184 H 0.31285 0.13992 0.27132 0.0
H1185 H 0.34026 0.17284 0.29626 0.0
H1186 H 0.28782 0.255 0.34242 0.0
H1187 H 0.29914 0.22335 0.32308 0.0
C1188 C 0.20401 0.36676 0.39602 0.0
C1189 C 0.214 0.34595 0.39769 0.0
C1190 C 0.18367 0.36704 0.40881 0.0
C1191 C 0.15179 0.34032 0.45581 0.0
H1192 H 0.08577 0.34919 0.43774 0.0
C1193 C 0.04475 0.30547 0.49871 0.0
C1194 C 0.03046 0.32265 0.49748 0.0
C1195 C 0.06936 0.31181 0.48751 0.0
C1196 C 0.1043 0.34714 0.44309 0.0
H1197 H 0.21061 0.30936 0.41436 0.0
H1198 H 0.17514 0.30966 0.43639 0.0
H1199 H 0.12439 0.3537 0.41633 0.0
H1200 H 0.0317 0.36066 0.48368 0.0
H1201 H 0.07479 0.37179 0.46419 0.0
H1202 H 0.13141 0.33322 0.4825 0.0
C1203 C 0.18324 0.32606 0.42537 0.0
C1204 C 0.1265 0.34973 0.43079 0.0
C1205 C 0.2035 0.32577 0.41262 0.0
C1206 C 0.04208 0.34693 0.48506 0.0
C1207 C 0.06667 0.35318 0.47376 0.0
C1208 C 0.12959 0.33769 0.46809 0.0
C1209 C 0.17287 0.34657 0.42361 0.0
C1210 C 0.15034 0.34593 0.43693 0.0
C1211 C 0.08041 0.33546 0.47468 0.0
C1212 C 0.10531 0.34065 0.46187 0.0
H1213 H 0.21167 0.38269 0.38474 0.0
H1214 H 0.17648 0.38339 0.40712 0.0
H1215 H 0.1701 0.33786 0.46114 0.0
H1216 H 0.03649 0.28654 0.50804 0.0
H1217 H 0.07908 0.29745 0.48848 0.0
C1218 C 0.84235 0.20134 0.56316 0.0
C1219 C 0.87343 0.21262 0.56473 0.0
C1220 C 0.82232 0.18036 0.57592 0.0
C1221 C 0.81718 0.12348 0.6093 0.0
H1222 H 0.74745 0.12517 0.62796 0.0
C1223 C 0.74525 0.04336 0.66708 0.0
C1224 C 0.71386 0.02927 0.66539 0.0
C1225 C 0.76404 0.06729 0.6556 0.0
C1226 C 0.76667 0.12421 0.62275 0.0
H1227 H 0.90776 0.21127 0.58141 0.0
H1228 H 0.87308 0.17513 0.60358 0.0
H1229 H 0.78131 0.16381 0.6063 0.0
H1230 H 0.67776 0.03039 0.65062 0.0
H1231 H 0.71063 0.072 0.63044 0.0
H1232 H 0.80262 0.08389 0.62548 0.0
C1233 C 0.86404 0.18203 0.59233 0.0
C1234 C 0.78609 0.14638 0.61032 0.0
C1235 C 0.88399 0.20296 0.57963 0.0
C1236 C 0.7018 0.04067 0.65237 0.0
C1237 C 0.72069 0.06462 0.6408 0.0
C1238 C 0.79782 0.10138 0.62164 0.0
C1239 C 0.8329 0.17009 0.59052 0.0
C1240 C 0.81174 0.14641 0.60353 0.0
C1241 C 0.75208 0.07782 0.64199 0.0
C1242 C 0.7724 0.10151 0.62867 0.0
H1243 H 0.83341 0.20828 0.55187 0.0
H1244 H 0.7985 0.17153 0.57403 0.0
H1245 H 0.83628 0.12232 0.60405 0.0
H1246 H 0.75547 0.03546 0.677 0.0
H1247 H 0.78808 0.07731 0.65726 0.0
C1248 C 0.20738 0.32183 0.31718 0.0
C1249 C 0.23696 0.32782 0.31502 0.0
C1250 C 0.18973 0.31863 0.30168 0.0
C1251 C 0.19755 0.33662 0.25129 0.0
H1252 H 0.11087 0.28746 0.25194 0.0
C1253 C 0.12359 0.3205 0.18719 0.0
C1254 C 0.1017 0.32866 0.19043 0.0
C1255 C 0.13888 0.31673 0.20201 0.0
C1256 C 0.13509 0.30118 0.25159 0.0
H1257 H 0.27072 0.3334 0.29504 0.0
H1258 H 0.23972 0.32632 0.26817 0.0
H1259 H 0.13986 0.28719 0.27857 0.0
H1260 H 0.0777 0.33789 0.21168 0.0
H1261 H 0.10385 0.33056 0.23745 0.0
H1262 H 0.1926 0.35012 0.22414 0.0
C1263 C 0.23036 0.32544 0.28169 0.0
C1264 C 0.15174 0.30127 0.2669 0.0
C1265 C 0.24813 0.32928 0.29713 0.0
C1266 C 0.09458 0.33179 0.20874 0.0
C1267 C 0.10939 0.32741 0.22351 0.0
C1268 C 0.18094 0.33606 0.23589 0.0
C1269 C 0.20113 0.32076 0.28368 0.0
C1270 C 0.18323 0.31929 0.26707 0.0
C1271 C 0.13202 0.32035 0.22029 0.0
C1272 C 0.14956 0.31865 0.23598 0.0
H1273 H 0.19828 0.32075 0.33083 0.0
H1274 H 0.16753 0.31545 0.30386 0.0
H1275 H 0.22162 0.35137 0.25094 0.0
H1276 H 0.12959 0.31804 0.17323 0.0
H1277 H 0.15624 0.31123 0.1992 0.0
C1278 C 0.88927 0.20402 0.48489 0.0
C1279 C 0.91089 0.23425 0.48196 0.0
C1280 C 0.87391 0.18541 0.46991 0.0
C1281 C 0.87756 0.1752 0.42019 0.0
H1282 H 0.79092 0.13752 0.42113 0.0
C1283 C 0.80501 0.12266 0.35475 0.0
C1284 C 0.77567 0.09867 0.35702 0.0
C1285 C 0.82267 0.13741 0.3702 0.0
C1286 C 0.81503 0.14723 0.42069 0.0
H1287 H 0.93426 0.26834 0.46106 0.0
H1288 H 0.90798 0.23564 0.43499 0.0
H1289 H 0.81986 0.16522 0.44797 0.0
H1290 H 0.74239 0.07009 0.3771 0.0
H1291 H 0.77343 0.09452 0.40387 0.0
H1292 H 0.87292 0.15684 0.39309 0.0
C1293 C 0.90272 0.22647 0.44883 0.0
C1294 C 0.83159 0.16325 0.43611 0.0
C1295 C 0.91758 0.2452 0.46377 0.0
C1296 C 0.76478 0.08887 0.37494 0.0
C1297 C 0.78257 0.1031 0.39032 0.0
C1298 C 0.86097 0.15867 0.40486 0.0
C1299 C 0.88043 0.19655 0.45176 0.0
C1300 C 0.863 0.17764 0.43593 0.0
C1301 C 0.81154 0.12804 0.38823 0.0
C1302 C 0.82944 0.14468 0.40481 0.0
H1303 H 0.8836 0.19501 0.49875 0.0
H1304 H 0.85682 0.16237 0.4725 0.0
H1305 H 0.9018 0.18604 0.41977 0.0
H1306 H 0.81388 0.13073 0.34107 0.0
H1307 H 0.84466 0.15671 0.36794 0.0
C1308 C 0.67762 0.91659 0.63178 0.0
C1309 C 0.68152 0.90969 0.65 0.0
C1310 C 0.68132 0.90157 0.61687 0.0
C1311 C 0.67223 0.82995 0.60421 0.0
H1312 H 0.72017 0.87076 0.56116 0.0
C1313 C 0.67844 0.76245 0.54298 0.0
C1314 C 0.67965 0.7734 0.52507 0.0
C1315 C 0.68232 0.78033 0.55837 0.0
C1316 C 0.70633 0.85896 0.57294 0.0
H1317 H 0.69272 0.8819 0.66685 0.0
H1318 H 0.69831 0.85487 0.64063 0.0
H1319 H 0.72044 0.89991 0.58786 0.0
H1320 H 0.68628 0.8118 0.50914 0.0
H1321 H 0.69162 0.84274 0.53603 0.0
H1322 H 0.65666 0.78919 0.58922 0.0
C1323 C 0.69275 0.87223 0.63801 0.0
C1324 C 0.70672 0.87569 0.58828 0.0
C1325 C 0.68966 0.88773 0.65297 0.0
C1326 C 0.68539 0.80287 0.52281 0.0
C1327 C 0.68861 0.82062 0.53827 0.0
C1328 C 0.67136 0.81325 0.58878 0.0
C1329 C 0.68845 0.87894 0.61984 0.0
C1330 C 0.68963 0.86132 0.60403 0.0
C1331 C 0.68677 0.80945 0.5563 0.0
C1332 C 0.68838 0.82747 0.57289 0.0
H1333 H 0.67152 0.93353 0.62904 0.0
H1334 H 0.67766 0.907 0.60301 0.0
H1335 H 0.65846 0.81837 0.61607 0.0
H1336 H 0.67454 0.73996 0.54514 0.0
H1337 H 0.68167 0.77113 0.57191 0.0
C1338 C 0.88713 0.68409 0.69013 0.0
C1339 C 0.9105 0.67777 0.69229 0.0
C1340 C 0.87275 0.68739 0.70563 0.0
C1341 C 0.86236 0.66936 0.75603 0.0
H1342 H 0.826 0.71956 0.75544 0.0
C1343 C 0.80588 0.68719 0.82027 0.0
C1344 C 0.77593 0.67949 0.81714 0.0
C1345 C 0.82468 0.69045 0.80539 0.0
C1346 C 0.83617 0.70554 0.75577 0.0
H1347 H 0.93835 0.67169 0.71226 0.0
H1348 H 0.91455 0.67893 0.73914 0.0
H1349 H 0.85489 0.71927 0.72876 0.0
H1350 H 0.7426 0.67051 0.796 0.0
H1351 H 0.77564 0.67696 0.77012 0.0
H1352 H 0.84397 0.65615 0.78322 0.0
C1353 C 0.90618 0.67999 0.72562 0.0
C1354 C 0.85251 0.70513 0.74044 0.0
C1355 C 0.92004 0.67605 0.71017 0.0
C1356 C 0.76552 0.67626 0.79886 0.0
C1357 C 0.78445 0.68014 0.78403 0.0
C1358 C 0.84653 0.67024 0.77146 0.0
C1359 C 0.88187 0.68504 0.72363 0.0
C1360 C 0.86557 0.68675 0.74025 0.0
C1361 C 0.81403 0.68677 0.78715 0.0
C1362 C 0.83299 0.68804 0.77139 0.0
H1363 H 0.87926 0.68539 0.67647 0.0
H1364 H 0.85391 0.69086 0.70345 0.0
H1365 H 0.87135 0.65434 0.75637 0.0
H1366 H 0.81447 0.68972 0.8342 0.0
H1367 H 0.84746 0.69563 0.80812 0.0
C1368 C 0.24506 0.91304 0.8753 0.0
C1369 C 0.23424 0.90633 0.85708 0.0
C1370 C 0.22618 0.89829 0.8902 0.0
C1371 C 0.16283 0.82738 0.90296 0.0
H1372 H 0.15606 0.86908 0.94565 0.0
C1373 C 0.08846 0.76113 0.9643 0.0
C1374 C 0.09819 0.77234 0.98218 0.0
C1375 C 0.10263 0.77872 0.94884 0.0
C1376 C 0.15798 0.85702 0.93398 0.0
H1377 H 0.19507 0.8791 0.8402 0.0
H1378 H 0.16218 0.85249 0.8664 0.0
H1379 H 0.1854 0.89771 0.91896 0.0
H1380 H 0.1301 0.81088 0.99796 0.0
H1381 H 0.15599 0.84128 0.97097 0.0
H1382 H 0.13709 0.78686 0.91807 0.0
C1383 C 0.18524 0.86953 0.86903 0.0
C1384 C 0.17459 0.87347 0.91864 0.0
C1385 C 0.20399 0.88479 0.85409 0.0
C1386 C 0.12207 0.80176 0.98432 0.0
C1387 C 0.13677 0.81921 0.9688 0.0
C1388 C 0.14674 0.81096 0.9184 0.0
C1389 C 0.19624 0.87608 0.88721 0.0
C1390 C 0.17719 0.85878 0.90302 0.0
C1391 C 0.12746 0.80779 0.95081 0.0
C1392 C 0.14407 0.82551 0.93418 0.0
H1393 H 0.26822 0.92966 0.87805 0.0
H1394 H 0.23526 0.90357 0.90407 0.0
H1395 H 0.16491 0.81556 0.89118 0.0
H1396 H 0.06977 0.73865 0.96224 0.0
H1397 H 0.09411 0.76934 0.93533 0.0
C1398 C 0.33469 0.09242 0.13189 0.0
C1399 C 0.33132 0.09972 0.15011 0.0
C1400 C 0.33106 0.10747 0.11698 0.0
C1401 C 0.34114 0.1794 0.10404 0.0
H1402 H 0.29232 0.13821 0.06136 0.0
C1403 C 0.33479 0.246 0.04222 0.0
C1404 C 0.333 0.23445 0.0244 0.0
C1405 C 0.33126 0.22858 0.05779 0.0
C1406 C 0.30641 0.15011 0.07303 0.0
H1407 H 0.32114 0.12825 0.167 0.0
H1408 H 0.31565 0.15532 0.14076 0.0
H1409 H 0.2919 0.10936 0.08823 0.0
H1410 H 0.32584 0.19548 0.00888 0.0
H1411 H 0.32106 0.16536 0.03605 0.0
H1412 H 0.35705 0.21994 0.08876 0.0
C1413 C 0.32076 0.13763 0.13814 0.0
C1414 C 0.30592 0.13355 0.08847 0.0
C1415 C 0.32378 0.12211 0.1531 0.0
C1416 C 0.3272 0.2049 0.02246 0.0
C1417 C 0.32427 0.1876 0.03808 0.0
C1418 C 0.34208 0.19592 0.08851 0.0
C1419 C 0.32453 0.13052 0.11995 0.0
C1420 C 0.32335 0.14805 0.10409 0.0
C1421 C 0.3265 0.1993 0.05599 0.0
C1422 C 0.32479 0.18154 0.07273 0.0
H1423 H 0.34033 0.07515 0.12913 0.0
H1424 H 0.33431 0.10172 0.10311 0.0
H1425 H 0.35516 0.19106 0.11581 0.0
H1426 H 0.33878 0.26856 0.04417 0.0
H1427 H 0.33228 0.23818 0.07125 0.0
loop_
_geom_bond_atom_site_label_1
_geom_bond_atom_site_label_2
_geom_bond_distance
_geom_bond_site_symmetry_2
_ccdc_geom_bond_type
Co0 O2 2.143 . S
Co0 O8 2.074 . S
Co0 O11 2.093 . S
Co0 O24 2.097 . S
Co0 N41 2.151 . S
Co0 N49 2.214 . S
Co1 O2 2.160 . S
Co1 O7 2.058 . S
Co1 O17 2.057 . S
Co1 O32 2.037 . S
Co1 N36 2.145 . S
Co1 N57 2.257 . S
O2 Co0 2.143 . S
O2 Co1 2.160 . S
C3 O4 1.278 . S
C3 O11 1.224 . S
O4 C3 1.278 . S
C5 O6 1.245 . S
C5 O17 1.232 . S
O6 C5 1.245 . S
O7 Co1 2.058 . S
O7 C33 1.269 . S
O8 Co0 2.074 . S
O8 C33 1.257 . S
H9 C34 0.930 . S
H10 C40 0.930 . S
O11 Co0 2.093 . S
O11 C3 1.224 . S
H12 C44 0.929 . S
H13 C46 0.930 . S
H14 C47 0.930 . S
H15 C45 0.929 . S
H16 C48 0.928 . S
O17 Co1 2.057 . S
O17 C5 1.232 . S
H18 C37 0.929 . S
H19 C38 0.929 . S
H20 C50 0.931 . S
H21 C42 0.929 . S
H22 C51 0.930 . S
H23 C43 0.931 1_655 S
O24 Co0 2.097 . S
O24 C52 1.214 . S
H25 C53 0.929 . S
H26 C54 0.929 . S
H27 C55 0.930 . S
H28 C56 0.929 . S
H29 C58 0.930 . S
H30 C35 0.930 . S
H31 C39 0.930 . S
O32 Co1 2.037 . S
O32 C52 1.234 . S
C33 O7 1.269 . S
C33 O8 1.257 . S
C34 H9 0.930 . S
C34 C37 1.388 . S
C34 C39 1.418 . S
C35 H30 0.930 . S
C35 C38 1.404 . S
C35 C39 1.353 . S
N36 Co1 2.145 . S
N36 C37 1.397 . S
N36 C38 1.334 . S
C37 H18 0.929 . S
C37 C34 1.388 . S
C37 N36 1.397 . S
C38 H19 0.929 . S
C38 C35 1.404 . S
C38 N36 1.334 . S
C39 H31 0.930 . S
C39 C34 1.418 . S
C39 C35 1.353 . S
C40 H10 0.930 . S
C40 N41 1.330 . S
C40 C42 1.446 . S
N41 Co0 2.151 . S
N41 C40 1.330 . S
N41 C45 1.418 . S
C42 H21 0.929 . S
C42 C40 1.446 . S
C42 C43 1.332 . S
C43 H23 0.931 1_455 S
C43 C42 1.332 . S
C43 C44 1.267 1_455 S
C44 H12 0.929 . S
C44 C43 1.267 1_655 S
C44 C45 1.251 1_655 S
C45 H15 0.929 . S
C45 N41 1.418 . S
C45 C44 1.251 1_455 S
C46 H13 0.930 . S
C46 C48 1.406 . S
C46 C51 1.261 . S
C47 H14 0.930 . S
C47 N49 1.325 . S
C47 C50 1.357 . S
C48 H16 0.928 . S
C48 C46 1.406 . S
C48 N49 1.261 . S
N49 Co0 2.214 . S
N49 C47 1.325 . S
N49 C48 1.261 . S
C50 H20 0.931 . S
C50 C47 1.357 . S
C50 C51 1.312 . S
C51 H22 0.930 . S
C51 C46 1.261 . S
C51 C50 1.312 . S
C52 O24 1.214 . S
C52 O32 1.234 . S
C53 H25 0.929 . S
C53 C56 1.391 . S
C53 C58 1.391 . S
C54 H26 0.929 . S
C54 C55 1.390 . S
C54 N57 1.391 . S
C55 H27 0.930 . S
C55 C54 1.390 . S
C55 C56 1.392 . S
C56 H28 0.929 . S
C56 C53 1.391 . S
C56 C55 1.392 . S
N57 Co1 2.257 . S
N57 C54 1.391 . S
N57 C58 1.388 . S
C58 H29 0.930 . S
C58 C53 1.391 . S
C58 N57 1.388 . S
Co59 O61 2.143 . S
Co59 O67 2.074 . S
Co59 O70 2.093 . S
Co59 O83 2.097 . S
Co59 N100 2.151 . S
Co59 N108 2.214 . S
Co60 O61 2.160 . S
Co60 O66 2.058 . S
Co60 O76 2.057 . S
Co60 O91 2.037 . S
Co60 N95 2.145 . S
Co60 N116 2.257 . S
O61 Co59 2.143 . S
O61 Co60 2.160 . S
C62 O63 1.278 . S
C62 O70 1.224 . S
O63 C62 1.278 . S
C64 O65 1.245 . S
C64 O76 1.232 . S
O65 C64 1.245 . S
O66 Co60 2.058 . S
O66 C92 1.269 . S
O67 Co59 2.074 . S
O67 C92 1.257 . S
H68 C93 0.930 . S
H69 C99 0.930 . S
O70 Co59 2.093 . S
O70 C62 1.224 . S
H71 C103 0.929 . S
H72 C105 0.930 . S
H73 C106 0.930 . S
H74 C104 0.929 . S
H75 C107 0.928 . S
O76 Co60 2.057 . S
O76 C64 1.232 . S
H77 C96 0.929 . S
H78 C97 0.929 . S
H79 C109 0.931 . S
H80 C101 0.929 . S
H81 C110 0.930 . S
H82 C102 0.931 1_565 S
O83 Co59 2.097 . S
O83 C111 1.214 . S
H84 C112 0.929 . S
H85 C113 0.929 . S
H86 C114 0.930 . S
H87 C115 0.929 . S
H88 C117 0.930 . S
H89 C94 0.930 . S
H90 C98 0.930 . S
O91 Co60 2.037 . S
O91 C111 1.234 . S
C92 O66 1.269 . S
C92 O67 1.257 . S
C93 H68 0.930 . S
C93 C96 1.388 . S
C93 C98 1.418 . S
C94 H89 0.930 . S
C94 C97 1.404 . S
C94 C98 1.353 . S
N95 Co60 2.145 . S
N95 C96 1.397 . S
N95 C97 1.334 . S
C96 H77 0.929 . S
C96 C93 1.388 . S
C96 N95 1.397 . S
C97 H78 0.929 . S
C97 C94 1.404 . S
C97 N95 1.334 . S
C98 H90 0.930 . S
C98 C93 1.418 . S
C98 C94 1.353 . S
C99 H69 0.930 . S
C99 N100 1.330 . S
C99 C101 1.446 . S
N100 Co59 2.151 . S
N100 C99 1.330 . S
N100 C104 1.418 . S
C101 H80 0.929 . S
C101 C99 1.446 . S
C101 C102 1.332 . S
C102 H82 0.931 1_545 S
C102 C101 1.332 . S
C102 C103 1.267 1_545 S
C103 H71 0.929 . S
C103 C102 1.267 1_565 S
C103 C104 1.251 1_565 S
C104 H74 0.929 . S
C104 N100 1.418 . S
C104 C103 1.251 1_545 S
C105 H72 0.930 . S
C105 C107 1.406 . S
C105 C110 1.261 . S
C106 H73 0.930 . S
C106 N108 1.325 . S
C106 C109 1.357 . S
C107 H75 0.928 . S
C107 C105 1.406 . S
C107 N108 1.261 . S
N108 Co59 2.214 . S
N108 C106 1.325 . S
N108 C107 1.261 . S
C109 H79 0.931 . S
C109 C106 1.357 . S
C109 C110 1.312 . S
C110 H81 0.930 . S
C110 C105 1.261 . S
C110 C109 1.312 . S
C111 O83 1.214 . S
C111 O91 1.234 . S
C112 H84 0.929 . S
C112 C115 1.391 . S
C112 C117 1.391 . S
C113 H85 0.929 . S
C113 C114 1.390 . S
C113 N116 1.391 . S
C114 H86 0.930 . S
C114 C113 1.390 . S
C114 C115 1.392 . S
C115 H87 0.929 . S
C115 C112 1.391 . S
C115 C114 1.392 . S
N116 Co60 2.257 . S
N116 C113 1.391 . S
N116 C117 1.388 . S
C117 H88 0.930 . S
C117 C112 1.391 . S
C117 N116 1.388 . S
Co118 O120 2.143 . S
Co118 O126 2.074 . S
Co118 O129 2.093 . S
Co118 O142 2.097 . S
Co118 N159 2.151 . S
Co118 N167 2.214 . S
Co119 O120 2.160 . S
Co119 O125 2.058 . S
Co119 O135 2.057 . S
Co119 O150 2.037 . S
Co119 N154 2.145 . S
Co119 N175 2.257 . S
O120 Co118 2.143 . S
O120 Co119 2.160 . S
C121 O122 1.278 . S
C121 O129 1.224 . S
O122 C121 1.278 . S
C123 O124 1.245 . S
C123 O135 1.232 . S
O124 C123 1.245 . S
O125 Co119 2.058 . S
O125 C151 1.269 . S
O126 Co118 2.074 . S
O126 C151 1.257 . S
H127 C152 0.930 . S
H128 C158 0.930 . S
O129 Co118 2.093 . S
O129 C121 1.224 . S
H130 C162 0.929 . S
H131 C164 0.930 . S
H132 C165 0.930 . S
H133 C163 0.929 . S
H134 C166 0.928 . S
O135 Co119 2.057 . S
O135 C123 1.232 . S
H136 C155 0.929 . S
H137 C156 0.929 . S
H138 C168 0.931 . S
H139 C160 0.929 . S
H140 C169 0.930 . S
H141 C161 0.931 . S
O142 Co118 2.097 . S
O142 C170 1.214 . S
H143 C171 0.929 . S
H144 C172 0.929 . S
H145 C173 0.930 . S
H146 C174 0.929 . S
H147 C176 0.930 . S
H148 C153 0.930 . S
H149 C157 0.930 . S
O150 Co119 2.037 . S
O150 C170 1.234 . S
C151 O125 1.269 . S
C151 O126 1.257 . S
C152 H127 0.930 . S
C152 C155 1.388 . S
C152 C157 1.418 . S
C153 H148 0.930 . S
C153 C156 1.404 . S
C153 C157 1.353 . S
N154 Co119 2.145 . S
N154 C155 1.397 . S
N154 C156 1.334 . S
C155 H136 0.929 . S
C155 C152 1.388 . S
C155 N154 1.397 . S
C156 H137 0.929 . S
C156 C153 1.404 . S
C156 N154 1.334 . S
C157 H149 0.930 . S
C157 C152 1.418 . S
C157 C153 1.353 . S
C158 H128 0.930 . S
C158 N159 1.330 . S
C158 C160 1.446 . S
N159 Co118 2.151 . S
N159 C158 1.330 . S
N159 C163 1.418 . S
C160 H139 0.929 . S
C160 C158 1.446 . S
C160 C161 1.332 . S
C161 H141 0.931 . S
C161 C160 1.332 . S
C161 C162 1.267 . S
C162 H130 0.929 . S
C162 C161 1.267 . S
C162 C163 1.251 . S
C163 H133 0.929 . S
C163 N159 1.418 . S
C163 C162 1.251 . S
C164 H131 0.930 . S
C164 C166 1.406 . S
C164 C169 1.261 . S
C165 H132 0.930 . S
C165 N167 1.325 . S
C165 C168 1.357 . S
C166 H134 0.928 . S
C166 C164 1.406 . S
C166 N167 1.261 . S
N167 Co118 2.214 . S
N167 C165 1.325 . S
N167 C166 1.261 . S
C168 H138 0.931 . S
C168 C165 1.357 . S
C168 C169 1.312 . S
C169 H140 0.930 . S
C169 C164 1.261 . S
C169 C168 1.312 . S
C170 O142 1.214 . S
C170 O150 1.234 . S
C171 H143 0.929 . S
C171 C174 1.391 . S
C171 C176 1.391 . S
C172 H144 0.929 . S
C172 C173 1.390 . S
C172 N175 1.391 . S
C173 H145 0.930 . S
C173 C172 1.390 . S
C173 C174 1.392 . S
C174 H146 0.929 . S
C174 C171 1.391 . S
C174 C173 1.392 . S
N175 Co119 2.257 . S
N175 C172 1.391 . S
N175 C176 1.388 . S
C176 H147 0.930 . S
C176 C171 1.391 . S
C176 N175 1.388 . S
Co177 O179 2.143 . S
Co177 O185 2.074 . S
Co177 O188 2.093 . S
Co177 O201 2.097 . S
Co177 N218 2.151 . S
Co177 N226 2.214 . S
Co178 O179 2.160 . S
Co178 O184 2.058 . S
Co178 O194 2.057 . S
Co178 O209 2.037 . S
Co178 N213 2.145 . S
Co178 N234 2.257 . S
O179 Co177 2.143 . S
O179 Co178 2.160 . S
C180 O181 1.278 . S
C180 O188 1.224 . S
O181 C180 1.278 . S
C182 O183 1.245 . S
C182 O194 1.232 . S
O183 C182 1.245 . S
O184 Co178 2.058 . S
O184 C210 1.269 . S
O185 Co177 2.074 . S
O185 C210 1.257 . S
H186 C211 0.930 . S
H187 C217 0.930 . S
O188 Co177 2.093 . S
O188 C180 1.224 . S
H189 C221 0.929 . S
H190 C223 0.930 . S
H191 C224 0.930 . S
H192 C222 0.929 . S
H193 C225 0.928 . S
O194 Co178 2.057 . S
O194 C182 1.232 . S
H195 C214 0.929 . S
H196 C215 0.929 . S
H197 C227 0.931 . S
H198 C219 0.929 . S
H199 C228 0.930 . S
H200 C220 0.931 1_455 S
O201 Co177 2.097 . S
O201 C229 1.214 . S
H202 C230 0.929 . S
H203 C231 0.929 . S
H204 C232 0.930 . S
H205 C233 0.929 . S
H206 C235 0.930 . S
H207 C212 0.930 . S
H208 C216 0.930 . S
O209 Co178 2.037 . S
O209 C229 1.234 . S
C210 O184 1.269 . S
C210 O185 1.257 . S
C211 H186 0.930 . S
C211 C214 1.388 . S
C211 C216 1.418 . S
C212 H207 0.930 . S
C212 C215 1.404 . S
C212 C216 1.353 . S
N213 Co178 2.145 . S
N213 C214 1.397 . S
N213 C215 1.334 . S
C214 H195 0.929 . S
C214 C211 1.388 . S
C214 N213 1.397 . S
C215 H196 0.929 . S
C215 C212 1.404 . S
C215 N213 1.334 . S
C216 H208 0.930 . S
C216 C211 1.418 . S
C216 C212 1.353 . S
C217 H187 0.930 . S
C217 N218 1.330 . S
C217 C219 1.446 . S
N218 Co177 2.151 . S
N218 C217 1.330 . S
N218 C222 1.418 . S
C219 H198 0.929 . S
C219 C217 1.446 . S
C219 C220 1.332 . S
C220 H200 0.931 1_655 S
C220 C219 1.332 . S
C220 C221 1.267 1_655 S
C221 H189 0.929 . S
C221 C220 1.267 1_455 S
C221 C222 1.251 1_455 S
C222 H192 0.929 . S
C222 N218 1.418 . S
C222 C221 1.251 1_655 S
C223 H190 0.930 . S
C223 C225 1.406 . S
C223 C228 1.261 . S
C224 H191 0.930 . S
C224 N226 1.325 . S
C224 C227 1.357 . S
C225 H193 0.928 . S
C225 C223 1.406 . S
C225 N226 1.261 . S
N226 Co177 2.214 . S
N226 C224 1.325 . S
N226 C225 1.261 . S
C227 H197 0.931 . S
C227 C224 1.357 . S
C227 C228 1.312 . S
C228 H199 0.930 . S
C228 C223 1.261 . S
C228 C227 1.312 . S
C229 O201 1.214 . S
C229 O209 1.234 . S
C230 H202 0.929 . S
C230 C233 1.391 . S
C230 C235 1.391 . S
C231 H203 0.929 . S
C231 C232 1.390 . S
C231 N234 1.391 . S
C232 H204 0.930 . S
C232 C231 1.390 . S
C232 C233 1.392 . S
C233 H205 0.929 . S
C233 C230 1.391 . S
C233 C232 1.392 . S
N234 Co178 2.257 . S
N234 C231 1.391 . S
N234 C235 1.388 . S
C235 H206 0.930 . S
C235 C230 1.391 . S
C235 N234 1.388 . S
Co236 O238 2.143 . S
Co236 O244 2.074 . S
Co236 O247 2.093 . S
Co236 O260 2.097 . S
Co236 N277 2.151 . S
Co236 N285 2.214 . S
Co237 O238 2.160 . S
Co237 O243 2.058 . S
Co237 O253 2.057 . S
Co237 O268 2.037 . S
Co237 N272 2.145 . S
Co237 N293 2.257 . S
O238 Co236 2.143 . S
O238 Co237 2.160 . S
C239 O240 1.278 . S
C239 O247 1.224 . S
O240 C239 1.278 . S
C241 O242 1.245 . S
C241 O253 1.232 . S
O242 C241 1.245 . S
O243 Co237 2.058 . S
O243 C269 1.269 . S
O244 Co236 2.074 . S
O244 C269 1.257 . S
H245 C270 0.930 . S
H246 C276 0.930 . S
O247 Co236 2.093 . S
O247 C239 1.224 . S
H248 C280 0.929 . S
H249 C282 0.930 . S
H250 C283 0.930 . S
H251 C281 0.929 . S
H252 C284 0.928 . S
O253 Co237 2.057 . S
O253 C241 1.232 . S
H254 C273 0.929 . S
H255 C274 0.929 . S
H256 C286 0.931 . S
H257 C278 0.929 . S
H258 C287 0.930 . S
H259 C279 0.931 1_545 S
O260 Co236 2.097 . S
O260 C288 1.214 . S
H261 C289 0.929 . S
H262 C290 0.929 . S
H263 C291 0.930 . S
H264 C292 0.929 . S
H265 C294 0.930 . S
H266 C271 0.930 . S
H267 C275 0.930 . S
O268 Co237 2.037 . S
O268 C288 1.234 . S
C269 O243 1.269 . S
C269 O244 1.257 . S
C270 H245 0.930 . S
C270 C273 1.388 . S
C270 C275 1.418 . S
C271 H266 0.930 . S
C271 C274 1.404 . S
C271 C275 1.353 . S
N272 Co237 2.145 . S
N272 C273 1.397 . S
N272 C274 1.334 . S
C273 H254 0.929 . S
C273 C270 1.388 . S
C273 N272 1.397 . S
C274 H255 0.929 . S
C274 C271 1.404 . S
C274 N272 1.334 . S
C275 H267 0.930 . S
C275 C270 1.418 . S
C275 C271 1.353 . S
C276 H246 0.930 . S
C276 N277 1.330 . S
C276 C278 1.446 . S
N277 Co236 2.151 . S
N277 C276 1.330 . S
N277 C281 1.418 . S
C278 H257 0.929 . S
C278 C276 1.446 . S
C278 C279 1.332 . S
C279 H259 0.931 1_565 S
C279 C278 1.332 . S
C279 C280 1.267 1_565 S
C280 H248 0.929 . S
C280 C279 1.267 1_545 S
C280 C281 1.251 1_545 S
C281 H251 0.929 . S
C281 N277 1.418 . S
C281 C280 1.251 1_565 S
C282 H249 0.930 . S
C282 C284 1.406 . S
C282 C287 1.261 . S
C283 H250 0.930 . S
C283 N285 1.325 . S
C283 C286 1.357 . S
C284 H252 0.928 . S
C284 C282 1.406 . S
C284 N285 1.261 . S
N285 Co236 2.214 . S
N285 C283 1.325 . S
N285 C284 1.261 . S
C286 H256 0.931 . S
C286 C283 1.357 . S
C286 C287 1.312 . S
C287 H258 0.930 . S
C287 C282 1.261 . S
C287 C286 1.312 . S
C288 O260 1.214 . S
C288 O268 1.234 . S
C289 H261 0.929 . S
C289 C292 1.391 . S
C289 C294 1.391 . S
C290 H262 0.929 . S
C290 C291 1.390 . S
C290 N293 1.391 . S
C291 H263 0.930 . S
C291 C290 1.390 . S
C291 C292 1.392 . S
C292 H264 0.929 . S
C292 C289 1.391 . S
C292 C291 1.392 . S
N293 Co237 2.257 . S
N293 C290 1.391 . S
N293 C294 1.388 . S
C294 H265 0.930 . S
C294 C289 1.391 . S
C294 N293 1.388 . S
Co295 O297 2.143 . S
Co295 O303 2.074 . S
Co295 O306 2.093 . S
Co295 O319 2.097 . S
Co295 N336 2.151 . S
Co295 N344 2.214 . S
Co296 O297 2.160 . S
Co296 O302 2.058 . S
Co296 O312 2.057 . S
Co296 O327 2.041 1_556 S
Co296 N331 2.145 1_556 S
Co296 N352 2.257 . S
O297 Co295 2.143 . S
O297 Co296 2.160 . S
C298 O299 1.278 . S
C298 O306 1.224 . S
O299 C298 1.278 . S
C300 O301 1.245 . S
C300 O312 1.232 . S
O301 C300 1.245 . S
O302 Co296 2.058 . S
O302 C328 1.269 . S
O303 Co295 2.074 . S
O303 C328 1.257 . S
H304 C329 0.930 . S
H305 C335 0.930 . S
O306 Co295 2.093 . S
O306 C298 1.224 . S
H307 C339 0.929 . S
H308 C341 0.930 . S
H309 C342 0.934 . S
H310 C340 0.929 . S
H311 C343 0.928 . S
O312 Co296 2.057 . S
O312 C300 1.232 . S
H313 C332 0.929 . S
H314 C333 0.950 . S
H315 C345 0.877 1_554 S
H316 C337 0.929 . S
H317 C346 0.930 . S
H318 C338 0.931 . S
O319 Co295 2.097 . S
O319 C347 1.216 . S
H320 C348 0.929 . S
H321 C349 0.929 1_554 S
H322 C350 0.971 . S
H323 C351 0.929 . S
H324 C353 0.930 . S
H325 C330 0.930 . S
H326 C334 0.930 . S
O327 Co296 2.041 1_554 S
O327 C347 1.234 1_554 S
C328 O302 1.269 . S
C328 O303 1.257 . S
C329 H304 0.930 . S
C329 C332 1.388 . S
C329 C334 1.418 . S
C330 H325 0.930 . S
C330 C333 1.388 1_554 S
C330 C334 1.353 . S
N331 Co296 2.145 1_554 S
N331 C332 1.397 . S
N331 C333 1.330 1_554 S
C332 H313 0.929 . S
C332 C329 1.388 . S
C332 N331 1.397 . S
C333 H314 0.950 . S
C333 C330 1.388 1_556 S
C333 N331 1.330 1_556 S
C334 H326 0.930 . S
C334 C329 1.418 . S
C334 C330 1.353 . S
C335 H305 0.930 . S
C335 N336 1.330 . S
C335 C337 1.446 . S
N336 Co295 2.151 . S
N336 C335 1.330 . S
N336 C340 1.418 . S
C337 H316 0.929 . S
C337 C335 1.446 . S
C337 C338 1.332 . S
C338 H318 0.931 . S
C338 C337 1.332 . S
C338 C339 1.267 . S
C339 H307 0.929 . S
C339 C338 1.267 . S
C339 C340 1.251 . S
C340 H310 0.929 . S
C340 N336 1.418 . S
C340 C339 1.251 . S
C341 H308 0.930 . S
C341 C343 1.406 . S
C341 C346 1.261 . S
C342 H309 0.934 . S
C342 N344 1.325 . S
C342 C345 1.380 . S
C343 H311 0.928 . S
C343 C341 1.406 . S
C343 N344 1.261 . S
N344 Co295 2.214 . S
N344 C342 1.325 . S
N344 C343 1.261 . S
C345 H315 0.877 1_556 S
C345 C342 1.380 . S
C345 C346 1.349 . S
C346 H317 0.930 . S
C346 C341 1.261 . S
C346 C345 1.349 . S
C347 O319 1.216 . S
C347 O327 1.234 1_556 S
C348 H320 0.929 . S
C348 C351 1.391 . S
C348 C353 1.391 . S
C349 H321 0.929 1_556 S
C349 C350 1.390 . S
C349 N352 1.391 . S
C350 H322 0.971 . S
C350 C349 1.390 . S
C350 C351 1.392 . S
C351 H323 0.929 . S
C351 C348 1.391 . S
C351 C350 1.392 . S
N352 Co296 2.257 . S
N352 C349 1.391 . S
N352 C353 1.388 . S
C353 H324 0.930 . S
C353 C348 1.391 . S
C353 N352 1.388 . S
Co354 O356 2.143 . S
Co354 O362 2.074 . S
Co354 O365 2.093 . S
Co354 O378 2.097 . S
Co354 N395 2.151 . S
Co354 N403 2.214 . S
Co355 O356 2.160 . S
Co355 O361 2.058 . S
Co355 O371 2.057 . S
Co355 O386 2.037 . S
Co355 N390 2.145 . S
Co355 N411 2.257 . S
O356 Co354 2.143 . S
O356 Co355 2.160 . S
C357 O358 1.278 . S
C357 O365 1.224 . S
O358 C357 1.278 . S
C359 O360 1.245 . S
C359 O371 1.232 . S
O360 C359 1.245 . S
O361 Co355 2.058 . S
O361 C387 1.269 . S
O362 Co354 2.074 . S
O362 C387 1.257 . S
H363 C388 0.930 . S
H364 C394 0.930 . S
O365 Co354 2.093 . S
O365 C357 1.224 . S
H366 C398 0.929 . S
H367 C400 0.930 . S
H368 C401 0.930 . S
H369 C399 0.929 . S
H370 C402 0.928 . S
O371 Co355 2.057 . S
O371 C359 1.232 . S
H372 C391 0.929 . S
H373 C392 0.929 . S
H374 C404 0.931 . S
H375 C396 0.929 . S
H376 C405 0.930 . S
H377 C397 0.931 1_545 S
O378 Co354 2.097 . S
O378 C406 1.214 . S
H379 C407 0.929 . S
H380 C408 0.929 . S
H381 C409 0.930 . S
H382 C410 0.929 . S
H383 C412 0.930 . S
H384 C389 0.930 . S
H385 C393 0.930 . S
O386 Co355 2.037 . S
O386 C406 1.234 . S
C387 O361 1.269 . S
C387 O362 1.257 . S
C388 H363 0.930 . S
C388 C391 1.388 . S
C388 C393 1.418 . S
C389 H384 0.930 . S
C389 C392 1.404 . S
C389 C393 1.353 . S
N390 Co355 2.145 . S
N390 C391 1.397 . S
N390 C392 1.334 . S
C391 H372 0.929 . S
C391 C388 1.388 . S
C391 N390 1.397 . S
C392 H373 0.929 . S
C392 C389 1.404 . S
C392 N390 1.334 . S
C393 H385 0.930 . S
C393 C388 1.418 . S
C393 C389 1.353 . S
C394 H364 0.930 . S
C394 N395 1.330 . S
C394 C396 1.446 . S
N395 Co354 2.151 . S
N395 C394 1.330 . S
N395 C399 1.418 . S
C396 H375 0.929 . S
C396 C394 1.446 . S
C396 C397 1.332 . S
C397 H377 0.931 1_565 S
C397 C396 1.332 . S
C397 C398 1.267 1_565 S
C398 H366 0.929 . S
C398 C397 1.267 1_545 S
C398 C399 1.251 1_545 S
C399 H369 0.929 . S
C399 N395 1.418 . S
C399 C398 1.251 1_565 S
C400 H367 0.930 . S
C400 C402 1.406 . S
C400 C405 1.261 . S
C401 H368 0.930 . S
C401 N403 1.325 . S
C401 C404 1.357 . S
C402 H370 0.928 . S
C402 C400 1.406 . S
C402 N403 1.261 . S
N403 Co354 2.214 . S
N403 C401 1.325 . S
N403 C402 1.261 . S
C404 H374 0.931 . S
C404 C401 1.357 . S
C404 C405 1.312 . S
C405 H376 0.930 . S
C405 C400 1.261 . S
C405 C404 1.312 . S
C406 O378 1.214 . S
C406 O386 1.234 . S
C407 H379 0.929 . S
C407 C410 1.391 . S
C407 C412 1.391 . S
C408 H380 0.929 . S
C408 C409 1.390 . S
C408 N411 1.391 . S
C409 H381 0.930 . S
C409 C408 1.390 . S
C409 C410 1.392 . S
C410 H382 0.929 . S
C410 C407 1.391 . S
C410 C409 1.392 . S
N411 Co355 2.257 . S
N411 C408 1.391 . S
N411 C412 1.388 . S
C412 H383 0.930 . S
C412 C407 1.391 . S
C412 N411 1.388 . S
Co413 O415 2.143 . S
Co413 O421 2.074 . S
Co413 O424 2.093 . S
Co413 O437 2.097 . S
Co413 N454 2.151 . S
Co413 N462 2.214 . S
Co414 O415 2.160 . S
Co414 O420 2.058 . S
Co414 O430 2.057 . S
Co414 O445 2.037 . S
Co414 N449 2.145 . S
Co414 N470 2.257 . S
O415 Co413 2.143 . S
O415 Co414 2.160 . S
C416 O417 1.278 . S
C416 O424 1.224 . S
O417 C416 1.278 . S
C418 O419 1.245 . S
C418 O430 1.232 . S
O419 C418 1.245 . S
O420 Co414 2.058 . S
O420 C446 1.269 . S
O421 Co413 2.074 . S
O421 C446 1.257 . S
H422 C447 0.930 . S
H423 C453 0.930 . S
O424 Co413 2.093 . S
O424 C416 1.224 . S
H425 C457 0.929 . S
H426 C459 0.930 . S
H427 C460 0.930 . S
H428 C458 0.929 . S
H429 C461 0.928 . S
O430 Co414 2.057 . S
O430 C418 1.232 . S
H431 C450 0.929 . S
H432 C451 0.929 . S
H433 C463 0.931 . S
H434 C455 0.929 . S
H435 C464 0.930 . S
H436 C456 0.931 . S
O437 Co413 2.097 . S
O437 C465 1.214 . S
H438 C466 0.929 . S
H439 C467 0.929 . S
H440 C468 0.930 . S
H441 C469 0.929 . S
H442 C471 0.930 . S
H443 C448 0.930 . S
H444 C452 0.930 . S
O445 Co414 2.037 . S
O445 C465 1.234 . S
C446 O420 1.269 . S
C446 O421 1.257 . S
C447 H422 0.930 . S
C447 C450 1.388 . S
C447 C452 1.418 . S
C448 H443 0.930 . S
C448 C451 1.404 . S
C448 C452 1.353 . S
N449 Co414 2.145 . S
N449 C450 1.397 . S
N449 C451 1.334 . S
C450 H431 0.929 . S
C450 C447 1.388 . S
C450 N449 1.397 . S
C451 H432 0.929 . S
C451 C448 1.404 . S
C451 N449 1.334 . S
C452 H444 0.930 . S
C452 C447 1.418 . S
C452 C448 1.353 . S
C453 H423 0.930 . S
C453 N454 1.330 . S
C453 C455 1.446 . S
N454 Co413 2.151 . S
N454 C453 1.330 . S
N454 C458 1.418 . S
C455 H434 0.929 . S
C455 C453 1.446 . S
C455 C456 1.332 . S
C456 H436 0.931 . S
C456 C455 1.332 . S
C456 C457 1.267 . S
C457 H425 0.929 . S
C457 C456 1.267 . S
C457 C458 1.251 . S
C458 H428 0.929 . S
C458 N454 1.418 . S
C458 C457 1.251 . S
C459 H426 0.930 . S
C459 C461 1.406 . S
C459 C464 1.261 . S
C460 H427 0.930 . S
C460 N462 1.325 . S
C460 C463 1.357 . S
C461 H429 0.928 . S
C461 C459 1.406 . S
C461 N462 1.261 . S
N462 Co413 2.214 . S
N462 C460 1.325 . S
N462 C461 1.261 . S
C463 H433 0.931 . S
C463 C460 1.357 . S
C463 C464 1.312 . S
C464 H435 0.930 . S
C464 C459 1.261 . S
C464 C463 1.312 . S
C465 O437 1.214 . S
C465 O445 1.234 . S
C466 H438 0.929 . S
C466 C469 1.391 . S
C466 C471 1.391 . S
C467 H439 0.929 . S
C467 C468 1.390 . S
C467 N470 1.391 . S
C468 H440 0.930 . S
C468 C467 1.390 . S
C468 C469 1.392 . S
C469 H441 0.929 . S
C469 C466 1.391 . S
C469 C468 1.392 . S
N470 Co414 2.257 . S
N470 C467 1.391 . S
N470 C471 1.388 . S
C471 H442 0.930 . S
C471 C466 1.391 . S
C471 N470 1.388 . S
Co472 O474 2.143 . S
Co472 O480 2.074 . S
Co472 O483 2.093 . S
Co472 O496 2.097 . S
Co472 N513 2.151 . S
Co472 N521 2.214 . S
Co473 O474 2.160 . S
Co473 O479 2.058 . S
Co473 O489 2.057 . S
Co473 O504 2.041 1_554 S
Co473 N508 2.145 1_554 S
Co473 N529 2.257 . S
O474 Co472 2.143 . S
O474 Co473 2.160 . S
C475 O476 1.278 . S
C475 O483 1.224 . S
O476 C475 1.278 . S
C477 O478 1.245 . S
C477 O489 1.232 . S
O478 C477 1.245 . S
O479 Co473 2.058 . S
O479 C505 1.269 . S
O480 Co472 2.074 . S
O480 C505 1.257 . S
H481 C506 0.930 . S
H482 C512 0.930 . S
O483 Co472 2.093 . S
O483 C475 1.224 . S
H484 C516 0.929 . S
H485 C518 0.930 . S
H486 C519 0.934 . S
H487 C517 0.929 . S
H488 C520 0.928 . S
O489 Co473 2.057 . S
O489 C477 1.232 . S
H490 C509 0.929 . S
H491 C510 0.950 . S
H492 C522 0.877 1_556 S
H493 C514 0.929 . S
H494 C523 0.930 . S
H495 C515 0.931 1_655 S
O496 Co472 2.097 . S
O496 C524 1.216 . S
H497 C525 0.929 . S
H498 C526 0.929 1_556 S
H499 C527 0.971 . S
H500 C528 0.929 . S
H501 C530 0.930 . S
H502 C507 0.930 . S
H503 C511 0.930 . S
O504 Co473 2.041 1_556 S
O504 C524 1.234 1_556 S
C505 O479 1.269 . S
C505 O480 1.257 . S
C506 H481 0.930 . S
C506 C509 1.388 . S
C506 C511 1.418 . S
C507 H502 0.930 . S
C507 C510 1.388 1_556 S
C507 C511 1.353 . S
N508 Co473 2.145 1_556 S
N508 C509 1.397 . S
N508 C510 1.330 1_556 S
C509 H490 0.929 . S
C509 C506 1.388 . S
C509 N508 1.397 . S
C510 H491 0.950 . S
C510 C507 1.388 1_554 S
C510 N508 1.330 1_554 S
C511 H503 0.930 . S
C511 C506 1.418 . S
C511 C507 1.353 . S
C512 H482 0.930 . S
C512 N513 1.330 . S
C512 C514 1.446 . S
N513 Co472 2.151 . S
N513 C512 1.330 . S
N513 C517 1.418 . S
C514 H493 0.929 . S
C514 C512 1.446 . S
C514 C515 1.332 . S
C515 H495 0.931 1_455 S
C515 C514 1.332 . S
C515 C516 1.267 1_455 S
C516 H484 0.929 . S
C516 C515 1.267 1_655 S
C516 C517 1.251 1_655 S
C517 H487 0.929 . S
C517 N513 1.418 . S
C517 C516 1.251 1_455 S
C518 H485 0.930 . S
C518 C520 1.406 . S
C518 C523 1.261 . S
C519 H486 0.934 . S
C519 N521 1.325 . S
C519 C522 1.380 . S
C520 H488 0.928 . S
C520 C518 1.406 . S
C520 N521 1.261 . S
N521 Co472 2.214 . S
N521 C519 1.325 . S
N521 C520 1.261 . S
C522 H492 0.877 1_554 S
C522 C519 1.380 . S
C522 C523 1.348 . S
C523 H494 0.930 . S
C523 C518 1.261 . S
C523 C522 1.348 . S
C524 O496 1.216 . S
C524 O504 1.234 1_554 S
C525 H497 0.929 . S
C525 C528 1.391 . S
C525 C530 1.391 . S
C526 H498 0.929 1_554 S
C526 C527 1.390 . S
C526 N529 1.391 . S
C527 H499 0.971 . S
C527 C526 1.390 . S
C527 C528 1.392 . S
C528 H500 0.929 . S
C528 C525 1.391 . S
C528 C527 1.392 . S
N529 Co473 2.257 . S
N529 C526 1.391 . S
N529 C530 1.388 . S
C530 H501 0.930 . S
C530 C525 1.391 . S
C530 N529 1.388 . S
Co531 O533 2.143 . S
Co531 O539 2.074 . S
Co531 O542 2.093 . S
Co531 O555 2.097 . S
Co531 N572 2.151 . S
Co531 N580 2.214 . S
Co532 O533 2.160 . S
Co532 O538 2.058 . S
Co532 O548 2.057 . S
Co532 O563 2.037 . S
Co532 N567 2.145 . S
Co532 N588 2.257 . S
O533 Co531 2.143 . S
O533 Co532 2.160 . S
C534 O535 1.278 . S
C534 O542 1.224 . S
O535 C534 1.278 . S
C536 O537 1.245 . S
C536 O548 1.232 . S
O537 C536 1.245 . S
O538 Co532 2.058 . S
O538 C564 1.269 . S
O539 Co531 2.074 . S
O539 C564 1.257 . S
H540 C565 0.930 . S
H541 C571 0.930 . S
O542 Co531 2.093 . S
O542 C534 1.224 . S
H543 C575 0.929 . S
H544 C577 0.930 . S
H545 C578 0.930 . S
H546 C576 0.929 . S
H547 C579 0.928 . S
O548 Co532 2.057 . S
O548 C536 1.232 . S
H549 C568 0.929 . S
H550 C569 0.929 . S
H551 C581 0.931 . S
H552 C573 0.929 . S
H553 C582 0.930 . S
H554 C574 0.931 1_565 S
O555 Co531 2.097 . S
O555 C583 1.214 . S
H556 C584 0.929 . S
H557 C585 0.929 . S
H558 C586 0.930 . S
H559 C587 0.929 . S
H560 C589 0.930 . S
H561 C566 0.930 . S
H562 C570 0.930 . S
O563 Co532 2.037 . S
O563 C583 1.234 . S
C564 O538 1.269 . S
C564 O539 1.257 . S
C565 H540 0.930 . S
C565 C568 1.388 . S
C565 C570 1.418 . S
C566 H561 0.930 . S
C566 C569 1.404 . S
C566 C570 1.353 . S
N567 Co532 2.145 . S
N567 C568 1.397 . S
N567 C569 1.334 . S
C568 H549 0.929 . S
C568 C565 1.388 . S
C568 N567 1.397 . S
C569 H550 0.929 . S
C569 C566 1.404 . S
C569 N567 1.334 . S
C570 H562 0.930 . S
C570 C565 1.418 . S
C570 C566 1.353 . S
C571 H541 0.930 . S
C571 N572 1.330 . S
C571 C573 1.446 . S
N572 Co531 2.151 . S
N572 C571 1.330 . S
N572 C576 1.418 . S
C573 H552 0.929 . S
C573 C571 1.446 . S
C573 C574 1.332 . S
C574 H554 0.931 1_545 S
C574 C573 1.332 . S
C574 C575 1.267 1_545 S
C575 H543 0.929 . S
C575 C574 1.267 1_565 S
C575 C576 1.251 1_565 S
C576 H546 0.929 . S
C576 N572 1.418 . S
C576 C575 1.251 1_545 S
C577 H544 0.930 . S
C577 C579 1.406 . S
C577 C582 1.261 . S
C578 H545 0.930 . S
C578 N580 1.325 . S
C578 C581 1.357 . S
C579 H547 0.928 . S
C579 C577 1.406 . S
C579 N580 1.261 . S
N580 Co531 2.214 . S
N580 C578 1.325 . S
N580 C579 1.261 . S
C581 H551 0.931 . S
C581 C578 1.357 . S
C581 C582 1.312 . S
C582 H553 0.930 . S
C582 C577 1.261 . S
C582 C581 1.312 . S
C583 O555 1.214 . S
C583 O563 1.234 . S
C584 H556 0.929 . S
C584 C587 1.391 . S
C584 C589 1.391 . S
C585 H557 0.929 . S
C585 C586 1.390 . S
C585 N588 1.391 . S
C586 H558 0.930 . S
C586 C585 1.390 . S
C586 C587 1.392 . S
C587 H559 0.929 . S
C587 C584 1.391 . S
C587 C586 1.392 . S
N588 Co532 2.257 . S
N588 C585 1.391 . S
N588 C589 1.388 . S
C589 H560 0.930 . S
C589 C584 1.391 . S
C589 N588 1.388 . S
Co590 O592 2.143 . S
Co590 O598 2.074 . S
Co590 O601 2.093 . S
Co590 O614 2.097 . S
Co590 N631 2.151 . S
Co590 N639 2.214 . S
Co591 O592 2.160 . S
Co591 O597 2.058 . S
Co591 O607 2.057 . S
Co591 O622 2.037 . S
Co591 N626 2.145 . S
Co591 N647 2.257 . S
O592 Co590 2.143 . S
O592 Co591 2.160 . S
C593 O594 1.278 . S
C593 O601 1.224 . S
O594 C593 1.278 . S
C595 O596 1.245 . S
C595 O607 1.232 . S
O596 C595 1.245 . S
O597 Co591 2.058 . S
O597 C623 1.269 . S
O598 Co590 2.074 . S
O598 C623 1.257 . S
H599 C624 0.930 . S
H600 C630 0.930 . S
O601 Co590 2.093 . S
O601 C593 1.224 . S
H602 C634 0.929 . S
H603 C636 0.930 . S
H604 C637 0.930 . S
H605 C635 0.929 . S
H606 C638 0.928 . S
O607 Co591 2.057 . S
O607 C595 1.232 . S
H608 C627 0.929 . S
H609 C628 0.929 . S
H610 C640 0.931 . S
H611 C632 0.929 . S
H612 C641 0.930 . S
H613 C633 0.931 . S
O614 Co590 2.097 . S
O614 C642 1.214 . S
H615 C643 0.929 . S
H616 C644 0.929 . S
H617 C645 0.930 . S
H618 C646 0.929 . S
H619 C648 0.930 . S
H620 C625 0.930 . S
H621 C629 0.930 . S
O622 Co591 2.037 . S
O622 C642 1.234 . S
C623 O597 1.269 . S
C623 O598 1.257 . S
C624 H599 0.930 . S
C624 C627 1.388 . S
C624 C629 1.418 . S
C625 H620 0.930 . S
C625 C628 1.404 . S
C625 C629 1.353 . S
N626 Co591 2.145 . S
N626 C627 1.397 . S
N626 C628 1.334 . S
C627 H608 0.929 . S
C627 C624 1.388 . S
C627 N626 1.397 . S
C628 H609 0.929 . S
C628 C625 1.404 . S
C628 N626 1.334 . S
C629 H621 0.930 . S
C629 C624 1.418 . S
C629 C625 1.353 . S
C630 H600 0.930 . S
C630 N631 1.330 . S
C630 C632 1.446 . S
N631 Co590 2.151 . S
N631 C630 1.330 . S
N631 C635 1.418 . S
C632 H611 0.929 . S
C632 C630 1.446 . S
C632 C633 1.332 . S
C633 H613 0.931 . S
C633 C632 1.332 . S
C633 C634 1.267 . S
C634 H602 0.929 . S
C634 C633 1.267 . S
C634 C635 1.251 . S
C635 H605 0.929 . S
C635 N631 1.418 . S
C635 C634 1.251 . S
C636 H603 0.930 . S
C636 C638 1.406 . S
C636 C641 1.261 . S
C637 H604 0.930 . S
C637 N639 1.325 . S
C637 C640 1.357 . S
C638 H606 0.928 . S
C638 C636 1.406 . S
C638 N639 1.261 . S
N639 Co590 2.214 . S
N639 C637 1.325 . S
N639 C638 1.261 . S
C640 H610 0.931 . S
C640 C637 1.357 . S
C640 C641 1.312 . S
C641 H612 0.930 . S
C641 C636 1.261 . S
C641 C640 1.312 . S
C642 O614 1.214 . S
C642 O622 1.234 . S
C643 H615 0.929 . S
C643 C646 1.391 . S
C643 C648 1.391 . S
C644 H616 0.929 . S
C644 C645 1.390 . S
C644 N647 1.391 . S
C645 H617 0.930 . S
C645 C644 1.390 . S
C645 C646 1.392 . S
C646 H618 0.929 . S
C646 C643 1.391 . S
C646 C645 1.392 . S
N647 Co591 2.257 . S
N647 C644 1.391 . S
N647 C648 1.388 . S
C648 H619 0.930 . S
C648 C643 1.391 . S
C648 N647 1.388 . S
Co649 O651 2.143 . S
Co649 O657 2.074 . S
Co649 O660 2.093 . S
Co649 O673 2.097 . S
Co649 N690 2.151 . S
Co649 N698 2.214 . S
Co650 O651 2.160 . S
Co650 O656 2.058 . S
Co650 O666 2.057 . S
Co650 O681 2.037 . S
Co650 N685 2.145 . S
Co650 N706 2.257 . S
O651 Co649 2.143 . S
O651 Co650 2.160 . S
C652 O653 1.278 . S
C652 O660 1.224 . S
O653 C652 1.278 . S
C654 O655 1.245 . S
C654 O666 1.232 . S
O655 C654 1.245 . S
O656 Co650 2.058 . S
O656 C682 1.269 . S
O657 Co649 2.074 . S
O657 C682 1.257 . S
H658 C683 0.930 . S
H659 C689 0.930 . S
O660 Co649 2.093 . S
O660 C652 1.224 . S
H661 C693 0.929 . S
H662 C695 0.930 . S
H663 C696 0.930 . S
H664 C694 0.929 . S
H665 C697 0.928 . S
O666 Co650 2.057 . S
O666 C654 1.232 . S
H667 C686 0.929 . S
H668 C687 0.929 . S
H669 C699 0.931 . S
H670 C691 0.929 . S
H671 C700 0.930 . S
H672 C692 0.931 1_455 S
O673 Co649 2.097 . S
O673 C701 1.214 . S
H674 C702 0.929 . S
H675 C703 0.929 . S
H676 C704 0.930 . S
H677 C705 0.929 . S
H678 C707 0.930 . S
H679 C684 0.930 . S
H680 C688 0.930 . S
O681 Co650 2.037 . S
O681 C701 1.234 . S
C682 O656 1.269 . S
C682 O657 1.257 . S
C683 H658 0.930 . S
C683 C686 1.388 . S
C683 C688 1.418 . S
C684 H679 0.930 . S
C684 C687 1.404 . S
C684 C688 1.353 . S
N685 Co650 2.145 . S
N685 C686 1.397 . S
N685 C687 1.334 . S
C686 H667 0.929 . S
C686 C683 1.388 . S
C686 N685 1.397 . S
C687 H668 0.929 . S
C687 C684 1.404 . S
C687 N685 1.334 . S
C688 H680 0.930 . S
C688 C683 1.418 . S
C688 C684 1.353 . S
C689 H659 0.930 . S
C689 N690 1.330 . S
C689 C691 1.446 . S
N690 Co649 2.151 . S
N690 C689 1.330 . S
N690 C694 1.418 . S
C691 H670 0.929 . S
C691 C689 1.446 . S
C691 C692 1.332 . S
C692 H672 0.931 1_655 S
C692 C691 1.332 . S
C692 C693 1.267 1_655 S
C693 H661 0.929 . S
C693 C692 1.267 1_455 S
C693 C694 1.251 1_455 S
C694 H664 0.929 . S
C694 N690 1.418 . S
C694 C693 1.251 1_655 S
C695 H662 0.930 . S
C695 C697 1.406 . S
C695 C700 1.261 . S
C696 H663 0.930 . S
C696 N698 1.325 . S
C696 C699 1.357 . S
C697 H665 0.928 . S
C697 C695 1.406 . S
C697 N698 1.261 . S
N698 Co649 2.214 . S
N698 C696 1.325 . S
N698 C697 1.261 . S
C699 H669 0.931 . S
C699 C696 1.357 . S
C699 C700 1.312 . S
C700 H671 0.930 . S
C700 C695 1.261 . S
C700 C699 1.312 . S
C701 O673 1.214 . S
C701 O681 1.234 . S
C702 H674 0.929 . S
C702 C705 1.391 . S
C702 C707 1.391 . S
C703 H675 0.929 . S
C703 C704 1.390 . S
C703 N706 1.391 . S
C704 H676 0.930 . S
C704 C703 1.390 . S
C704 C705 1.392 . S
C705 H677 0.929 . S
C705 C702 1.391 . S
C705 C704 1.392 . S
N706 Co650 2.257 . S
N706 C703 1.391 . S
N706 C707 1.388 . S
C707 H678 0.930 . S
C707 C702 1.391 . S
C707 N706 1.388 . S
C708 C709 1.349 . S
C708 C710 1.327 . S
C708 H733 0.950 . S
C709 C708 1.349 . S
C709 C725 1.349 . S
C710 C708 1.327 . S
C710 C729 1.429 . S
C710 H734 0.950 . S
C711 C728 1.574 . S
C711 C730 1.368 . S
C711 H735 0.949 . S
H712 C716 0.949 . S
C713 C714 1.349 . S
C713 C715 1.327 . S
C713 H736 0.950 . S
C714 C713 1.349 . S
C714 C726 1.349 . S
C715 C713 1.327 . S
C715 C731 1.429 . S
C715 H737 0.950 . S
C716 H712 0.949 . S
C716 C724 1.574 . S
C716 C732 1.368 . S
H717 C725 0.950 . S
H718 C723 0.950 . S
H719 C724 0.949 . S
H720 C726 0.950 . S
H721 C727 0.950 . S
H722 C728 0.949 . S
C723 H718 0.950 . S
C723 C725 1.327 . S
C723 C729 1.429 . S
C724 C716 1.574 . S
C724 H719 0.949 . S
C724 C730 1.368 . S
C725 C709 1.349 . S
C725 H717 0.950 . S
C725 C723 1.327 . S
C726 C714 1.349 . S
C726 H720 0.950 . S
C726 C727 1.327 . S
C727 H721 0.950 . S
C727 C726 1.327 . S
C727 C731 1.429 . S
C728 C711 1.574 . S
C728 H722 0.949 . S
C728 C732 1.368 . S
C729 C710 1.429 . S
C729 C723 1.429 . S
C729 C730 1.523 . S
C730 C711 1.368 . S
C730 C724 1.368 . S
C730 C729 1.523 . S
C731 C715 1.429 . S
C731 C727 1.429 . S
C731 C732 1.523 . S
C732 C716 1.368 . S
C732 C728 1.368 . S
C732 C731 1.523 . S
H733 C708 0.950 . S
H734 C710 0.950 . S
H735 C711 0.949 . S
H736 C713 0.950 . S
H737 C715 0.950 . S
C738 C739 1.349 . S
C738 C740 1.327 . S
C738 H763 0.950 . S
C739 C738 1.349 . S
C739 C755 1.349 . S
C740 C738 1.327 . S
C740 C759 1.429 . S
C740 H764 0.950 . S
C741 C758 1.574 . S
C741 C760 1.368 . S
C741 H765 0.949 . S
H742 C746 0.949 . S
C743 C744 1.349 . S
C743 C745 1.327 . S
C743 H766 0.950 . S
C744 C743 1.349 . S
C744 C756 1.349 . S
C745 C743 1.327 . S
C745 C761 1.429 . S
C745 H767 0.950 . S
C746 H742 0.949 . S
C746 C754 1.574 . S
C746 C762 1.368 . S
H747 C755 0.950 . S
H748 C753 0.950 . S
H749 C754 0.949 . S
H750 C756 0.950 . S
H751 C757 0.950 . S
H752 C758 0.949 . S
C753 H748 0.950 . S
C753 C755 1.327 . S
C753 C759 1.429 . S
C754 C746 1.574 . S
C754 H749 0.949 . S
C754 C760 1.368 . S
C755 C739 1.349 . S
C755 H747 0.950 . S
C755 C753 1.327 . S
C756 C744 1.349 . S
C756 H750 0.950 . S
C756 C757 1.327 . S
C757 H751 0.950 . S
C757 C756 1.327 . S
C757 C761 1.429 . S
C758 C741 1.574 . S
C758 H752 0.949 . S
C758 C762 1.368 . S
C759 C740 1.429 . S
C759 C753 1.429 . S
C759 C760 1.523 . S
C760 C741 1.368 . S
C760 C754 1.368 . S
C760 C759 1.523 . S
C761 C745 1.429 . S
C761 C757 1.429 . S
C761 C762 1.523 . S
C762 C746 1.368 . S
C762 C758 1.368 . S
C762 C761 1.523 . S
H763 C738 0.950 . S
H764 C740 0.950 . S
H765 C741 0.949 . S
H766 C743 0.950 . S
H767 C745 0.950 . S
C768 C769 1.349 . S
C768 C770 1.327 . S
C768 H793 0.950 . S
C769 C768 1.349 . S
C769 C785 1.349 . S
C770 C768 1.327 . S
C770 C789 1.429 . S
C770 H794 0.950 . S
C771 C788 1.574 . S
C771 C790 1.368 . S
C771 H795 0.949 . S
H772 C776 0.949 . S
C773 C774 1.349 . S
C773 C775 1.327 . S
C773 H796 0.950 . S
C774 C773 1.349 . S
C774 C786 1.349 . S
C775 C773 1.327 . S
C775 C791 1.429 . S
C775 H797 0.950 . S
C776 H772 0.949 . S
C776 C784 1.574 . S
C776 C792 1.368 . S
H777 C785 0.950 . S
H778 C783 0.950 . S
H779 C784 0.949 . S
H780 C786 0.950 . S
H781 C787 0.950 . S
H782 C788 0.949 . S
C783 H778 0.950 . S
C783 C785 1.327 . S
C783 C789 1.429 . S
C784 C776 1.574 . S
C784 H779 0.949 . S
C784 C790 1.368 . S
C785 C769 1.349 . S
C785 H777 0.950 . S
C785 C783 1.327 . S
C786 C774 1.349 . S
C786 H780 0.950 . S
C786 C787 1.327 . S
C787 H781 0.950 . S
C787 C786 1.327 . S
C787 C791 1.429 . S
C788 C771 1.574 . S
C788 H782 0.949 . S
C788 C792 1.368 . S
C789 C770 1.429 . S
C789 C783 1.429 . S
C789 C790 1.523 . S
C790 C771 1.368 . S
C790 C784 1.368 . S
C790 C789 1.523 . S
C791 C775 1.429 . S
C791 C787 1.429 . S
C791 C792 1.523 . S
C792 C776 1.368 . S
C792 C788 1.368 . S
C792 C791 1.523 . S
H793 C768 0.950 . S
H794 C770 0.950 . S
H795 C771 0.949 . S
H796 C773 0.950 . S
H797 C775 0.950 . S
C798 C799 1.349 . S
C798 C800 1.327 . S
C798 H823 0.950 . S
C799 C798 1.349 . S
C799 C815 1.349 . S
C800 C798 1.327 . S
C800 C819 1.429 . S
C800 H824 0.950 . S
C801 C818 1.574 . S
C801 C820 1.368 . S
C801 H825 0.949 . S
H802 C806 0.949 . S
C803 C804 1.349 . S
C803 C805 1.327 . S
C803 H826 0.950 . S
C804 C803 1.349 . S
C804 C816 1.349 . S
C805 C803 1.327 . S
C805 C821 1.429 . S
C805 H827 0.950 . S
C806 H802 0.949 . S
C806 C814 1.574 . S
C806 C822 1.368 . S
H807 C815 0.950 . S
H808 C813 0.950 . S
H809 C814 0.949 . S
H810 C816 0.950 . S
H811 C817 0.950 . S
H812 C818 0.949 . S
C813 H808 0.950 . S
C813 C815 1.327 . S
C813 C819 1.429 . S
C814 C806 1.574 . S
C814 H809 0.949 . S
C814 C820 1.368 . S
C815 C799 1.349 . S
C815 H807 0.950 . S
C815 C813 1.327 . S
C816 C804 1.349 . S
C816 H810 0.950 . S
C816 C817 1.327 . S
C817 H811 0.950 . S
C817 C816 1.327 . S
C817 C821 1.429 . S
C818 C801 1.574 . S
C818 H812 0.949 . S
C818 C822 1.368 . S
C819 C800 1.429 . S
C819 C813 1.429 . S
C819 C820 1.523 . S
C820 C801 1.368 . S
C820 C814 1.368 . S
C820 C819 1.523 . S
C821 C805 1.429 . S
C821 C817 1.429 . S
C821 C822 1.523 . S
C822 C806 1.368 . S
C822 C818 1.368 . S
C822 C821 1.523 . S
H823 C798 0.950 . S
H824 C800 0.950 . S
H825 C801 0.949 . S
H826 C803 0.950 . S
H827 C805 0.950 . S
C828 C829 1.349 . S
C828 C830 1.327 . S
C828 H853 0.950 . S
C829 C828 1.349 . S
C829 C845 1.349 . S
C830 C828 1.327 . S
C830 C849 1.429 . S
C830 H854 0.950 . S
C831 C848 1.574 . S
C831 C850 1.368 . S
C831 H855 0.949 . S
H832 C836 0.949 . S
C833 C834 1.349 . S
C833 C835 1.327 . S
C833 H856 0.950 . S
C834 C833 1.349 . S
C834 C846 1.349 . S
C835 C833 1.327 . S
C835 C851 1.429 . S
C835 H857 0.950 . S
C836 H832 0.949 . S
C836 C844 1.574 . S
C836 C852 1.368 . S
H837 C845 0.950 . S
H838 C843 0.950 . S
H839 C844 0.949 . S
H840 C846 0.950 . S
H841 C847 0.950 . S
H842 C848 0.949 . S
C843 H838 0.950 . S
C843 C845 1.327 . S
C843 C849 1.429 . S
C844 C836 1.574 . S
C844 H839 0.949 . S
C844 C850 1.368 . S
C845 C829 1.349 . S
C845 H837 0.950 . S
C845 C843 1.327 . S
C846 C834 1.349 . S
C846 H840 0.950 . S
C846 C847 1.327 . S
C847 H841 0.950 . S
C847 C846 1.327 . S
C847 C851 1.429 . S
C848 C831 1.574 . S
C848 H842 0.949 . S
C848 C852 1.368 . S
C849 C830 1.429 . S
C849 C843 1.429 . S
C849 C850 1.523 . S
C850 C831 1.368 . S
C850 C844 1.368 . S
C850 C849 1.523 . S
C851 C835 1.429 . S
C851 C847 1.429 . S
C851 C852 1.523 . S
C852 C836 1.368 . S
C852 C848 1.368 . S
C852 C851 1.523 . S
H853 C828 0.950 . S
H854 C830 0.950 . S
H855 C831 0.949 . S
H856 C833 0.950 . S
H857 C835 0.950 . S
C858 C859 1.349 . S
C858 C860 1.327 . S
C858 H883 0.950 . S
C859 C858 1.349 . S
C859 C875 1.349 . S
C860 C858 1.327 . S
C860 C879 1.429 . S
C860 H884 0.950 . S
C861 C878 1.574 . S
C861 C880 1.368 . S
C861 H885 0.949 . S
H862 C866 0.949 . S
C863 C864 1.349 . S
C863 C865 1.327 . S
C863 H886 0.950 . S
C864 C863 1.349 . S
C864 C876 1.349 . S
C865 C863 1.327 . S
C865 C881 1.429 . S
C865 H887 0.950 . S
C866 H862 0.949 . S
C866 C874 1.574 . S
C866 C882 1.368 . S
H867 C875 0.950 . S
H868 C873 0.950 . S
H869 C874 0.949 . S
H870 C876 0.950 . S
H871 C877 0.950 . S
H872 C878 0.949 . S
C873 H868 0.950 . S
C873 C875 1.327 . S
C873 C879 1.429 . S
C874 C866 1.574 . S
C874 H869 0.949 . S
C874 C880 1.368 . S
C875 C859 1.349 . S
C875 H867 0.950 . S
C875 C873 1.327 . S
C876 C864 1.349 . S
C876 H870 0.950 . S
C876 C877 1.327 . S
C877 H871 0.950 . S
C877 C876 1.327 . S
C877 C881 1.429 . S
C878 C861 1.574 . S
C878 H872 0.949 . S
C878 C882 1.368 . S
C879 C860 1.429 . S
C879 C873 1.429 . S
C879 C880 1.523 . S
C880 C861 1.368 . S
C880 C874 1.368 . S
C880 C879 1.523 . S
C881 C865 1.429 . S
C881 C877 1.429 . S
C881 C882 1.523 . S
C882 C866 1.368 . S
C882 C878 1.368 . S
C882 C881 1.523 . S
H883 C858 0.950 . S
H884 C860 0.950 . S
H885 C861 0.949 . S
H886 C863 0.950 . S
H887 C865 0.950 . S
C888 C889 1.349 . S
C888 C890 1.327 . S
C888 H913 0.950 . S
C889 C888 1.349 . S
C889 C905 1.349 . S
C890 C888 1.327 . S
C890 C909 1.429 . S
C890 H914 0.950 . S
C891 C908 1.574 . S
C891 C910 1.368 . S
C891 H915 0.949 . S
H892 C896 0.949 . S
C893 C894 1.332 1_554 S
C893 C895 1.327 . S
C893 H916 0.950 . S
C894 C893 1.332 1_556 S
C894 C906 1.348 1_556 S
C895 C893 1.327 . S
C895 C911 1.429 . S
C895 H917 0.950 . S
C896 H892 0.949 . S
C896 C904 1.574 . S
C896 C912 1.368 . S
H897 C905 0.950 . S
H898 C903 0.950 . S
H899 C904 0.949 . S
H900 C906 0.948 1_556 S
H901 C907 0.950 . S
H902 C908 0.949 . S
C903 H898 0.950 . S
C903 C905 1.327 . S
C903 C909 1.429 . S
C904 C896 1.574 . S
C904 H899 0.949 . S
C904 C910 1.368 . S
C905 C889 1.349 . S
C905 H897 0.950 . S
C905 C903 1.327 . S
C906 C894 1.348 1_554 S
C906 H900 0.948 1_554 S
C906 C907 1.329 . S
C907 H901 0.950 . S
C907 C906 1.329 . S
C907 C911 1.429 . S
C908 C891 1.574 . S
C908 H902 0.949 . S
C908 C912 1.368 . S
C909 C890 1.429 . S
C909 C903 1.429 . S
C909 C910 1.523 . S
C910 C891 1.368 . S
C910 C904 1.368 . S
C910 C909 1.523 . S
C911 C895 1.429 . S
C911 C907 1.429 . S
C911 C912 1.523 . S
C912 C896 1.368 . S
C912 C908 1.368 . S
C912 C911 1.523 . S
H913 C888 0.950 . S
H914 C890 0.950 . S
H915 C891 0.949 . S
H916 C893 0.950 . S
H917 C895 0.950 . S
C918 C919 1.349 . S
C918 C920 1.327 . S
C918 H943 0.950 . S
C919 C918 1.349 . S
C919 C935 1.349 . S
C920 C918 1.327 . S
C920 C939 1.429 . S
C920 H944 0.950 . S
C921 C938 1.574 . S
C921 C940 1.368 . S
C921 H945 0.949 . S
H922 C926 0.949 . S
C923 C924 1.343 1_455 S
C923 C925 1.320 1_455 S
C923 H946 0.963 . S
C924 C923 1.343 1_655 S
C924 C936 1.349 . S
C925 C923 1.320 1_655 S
C925 C941 1.429 . S
C925 H947 0.950 . S
C926 H922 0.949 . S
C926 C934 1.574 . S
C926 C942 1.368 . S
H927 C935 0.950 . S
H928 C933 0.950 . S
H929 C934 0.949 . S
H930 C936 0.950 . S
H931 C937 0.950 . S
H932 C938 0.949 . S
C933 H928 0.950 . S
C933 C935 1.327 . S
C933 C939 1.429 . S
C934 C926 1.574 . S
C934 H929 0.949 . S
C934 C940 1.368 . S
C935 C919 1.349 . S
C935 H927 0.950 . S
C935 C933 1.327 . S
C936 C924 1.349 . S
C936 H930 0.950 . S
C936 C937 1.327 . S
C937 H931 0.950 . S
C937 C936 1.327 . S
C937 C941 1.429 . S
C938 C921 1.574 . S
C938 H932 0.949 . S
C938 C942 1.368 . S
C939 C920 1.429 . S
C939 C933 1.429 . S
C939 C940 1.523 . S
C940 C921 1.368 . S
C940 C934 1.368 . S
C940 C939 1.523 . S
C941 C925 1.429 . S
C941 C937 1.429 . S
C941 C942 1.523 . S
C942 C926 1.368 . S
C942 C938 1.368 . S
C942 C941 1.523 . S
H943 C918 0.950 . S
H944 C920 0.950 . S
H945 C921 0.949 . S
H946 C923 0.963 . S
H947 C925 0.950 . S
C948 C949 1.349 . S
C948 C950 1.327 . S
C948 H973 0.950 . S
C949 C948 1.349 . S
C949 C965 1.349 . S
C950 C948 1.327 . S
C950 C969 1.429 . S
C950 H974 0.950 . S
C951 C968 1.574 . S
C951 C970 1.368 . S
C951 H975 0.949 . S
H952 C956 0.949 . S
C953 C954 1.349 . S
C953 C955 1.327 . S
C953 H976 0.950 1_565 S
C954 C953 1.349 . S
C954 C966 1.349 . S
C955 C953 1.327 . S
C955 C971 1.429 . S
C955 H977 0.950 . S
C956 H952 0.949 . S
C956 C964 1.574 . S
C956 C972 1.368 . S
H957 C965 0.950 . S
H958 C963 0.950 . S
H959 C964 0.949 . S
H960 C966 0.950 . S
H961 C967 0.950 . S
H962 C968 0.949 . S
C963 H958 0.950 . S
C963 C965 1.327 . S
C963 C969 1.429 . S
C964 C956 1.574 . S
C964 H959 0.949 . S
C964 C970 1.368 . S
C965 C949 1.349 . S
C965 H957 0.950 . S
C965 C963 1.327 . S
C966 C954 1.349 . S
C966 H960 0.950 . S
C966 C967 1.327 . S
C967 H961 0.950 . S
C967 C966 1.327 . S
C967 C971 1.429 . S
C968 C951 1.574 . S
C968 H962 0.949 . S
C968 C972 1.368 . S
C969 C950 1.429 . S
C969 C963 1.429 . S
C969 C970 1.523 . S
C970 C951 1.368 . S
C970 C964 1.368 . S
C970 C969 1.523 . S
C971 C955 1.429 . S
C971 C967 1.429 . S
C971 C972 1.523 . S
C972 C956 1.368 . S
C972 C968 1.368 . S
C972 C971 1.523 . S
H973 C948 0.950 . S
H974 C950 0.950 . S
H975 C951 0.949 . S
H976 C953 0.950 1_545 S
H977 C955 0.950 . S
C978 C979 1.349 . S
C978 C980 1.327 . S
C978 H1003 0.950 . S
C979 C978 1.349 . S
C979 C995 1.349 . S
C980 C978 1.327 . S
C980 C999 1.429 . S
C980 H1004 0.950 . S
C981 C998 1.574 . S
C981 C1000 1.368 . S
C981 H1005 0.949 . S
H982 C986 0.949 . S
C983 C984 1.349 . S
C983 C985 1.327 . S
C983 H1006 0.950 . S
C984 C983 1.349 . S
C984 C996 1.349 . S
C985 C983 1.327 . S
C985 C1001 1.429 . S
C985 H1007 0.950 . S
C986 H982 0.949 . S
C986 C994 1.574 . S
C986 C1002 1.368 . S
H987 C995 0.950 . S
H988 C993 0.950 . S
H989 C994 0.949 . S
H990 C996 0.950 . S
H991 C997 0.950 . S
H992 C998 0.949 . S
C993 H988 0.950 . S
C993 C995 1.327 . S
C993 C999 1.429 . S
C994 C986 1.574 . S
C994 H989 0.949 . S
C994 C1000 1.368 . S
C995 C979 1.349 . S
C995 H987 0.950 . S
C995 C993 1.327 . S
C996 C984 1.349 . S
C996 H990 0.950 . S
C996 C997 1.327 . S
C997 H991 0.950 . S
C997 C996 1.327 . S
C997 C1001 1.429 . S
C998 C981 1.574 . S
C998 H992 0.949 . S
C998 C1002 1.368 . S
C999 C980 1.429 . S
C999 C993 1.429 . S
C999 C1000 1.523 . S
C1000 C981 1.368 . S
C1000 C994 1.368 . S
C1000 C999 1.523 . S
C1001 C985 1.429 . S
C1001 C997 1.429 . S
C1001 C1002 1.523 . S
C1002 C986 1.368 . S
C1002 C998 1.368 . S
C1002 C1001 1.523 . S
H1003 C978 0.950 . S
H1004 C980 0.950 . S
H1005 C981 0.949 . S
H1006 C983 0.950 . S
H1007 C985 0.950 . S
C1008 C1009 1.349 . S
C1008 C1010 1.327 . S
C1008 H1033 0.950 . S
C1009 C1008 1.349 . S
C1009 C1025 1.349 . S
C1010 C1008 1.327 . S
C1010 C1029 1.429 . S
C1010 H1034 0.950 . S
C1011 C1028 1.574 . S
C1011 C1030 1.368 . S
C1011 H1035 0.949 . S
H1012 C1016 0.949 . S
C1013 C1014 1.349 . S
C1013 C1015 1.327 . S
C1013 H1036 0.950 . S
C1014 C1013 1.349 . S
C1014 C1026 1.349 . S
C1015 C1013 1.327 . S
C1015 C1031 1.429 . S
C1015 H1037 0.950 . S
C1016 H1012 0.949 . S
C1016 C1024 1.574 . S
C1016 C1032 1.368 . S
H1017 C1025 0.950 . S
H1018 C1023 0.950 . S
H1019 C1024 0.949 . S
H1020 C1026 0.950 . S
H1021 C1027 0.950 . S
H1022 C1028 0.949 . S
C1023 H1018 0.950 . S
C1023 C1025 1.327 . S
C1023 C1029 1.429 . S
C1024 C1016 1.574 . S
C1024 H1019 0.949 . S
C1024 C1030 1.368 . S
C1025 C1009 1.349 . S
C1025 H1017 0.950 . S
C1025 C1023 1.327 . S
C1026 C1014 1.349 . S
C1026 H1020 0.950 . S
C1026 C1027 1.327 . S
C1027 H1021 0.950 . S
C1027 C1026 1.327 . S
C1027 C1031 1.429 . S
C1028 C1011 1.574 . S
C1028 H1022 0.949 . S
C1028 C1032 1.368 . S
C1029 C1010 1.429 . S
C1029 C1023 1.429 . S
C1029 C1030 1.523 . S
C1030 C1011 1.368 . S
C1030 C1024 1.368 . S
C1030 C1029 1.523 . S
C1031 C1015 1.429 . S
C1031 C1027 1.429 . S
C1031 C1032 1.523 . S
C1032 C1016 1.368 . S
C1032 C1028 1.368 . S
C1032 C1031 1.523 . S
H1033 C1008 0.950 . S
H1034 C1010 0.950 . S
H1035 C1011 0.949 . S
H1036 C1013 0.950 . S
H1037 C1015 0.950 . S
C1038 C1039 1.349 . S
C1038 C1040 1.327 . S
C1038 H1063 0.950 . S
C1039 C1038 1.349 . S
C1039 C1055 1.349 . S
C1040 C1038 1.327 . S
C1040 C1059 1.429 . S
C1040 H1064 0.950 . S
C1041 C1058 1.574 . S
C1041 C1060 1.368 . S
C1041 H1065 0.949 . S
H1042 C1046 0.949 . S
C1043 C1044 1.349 . S
C1043 C1045 1.327 . S
C1043 H1066 0.950 . S
C1044 C1043 1.349 . S
C1044 C1056 1.349 . S
C1045 C1043 1.327 . S
C1045 C1061 1.429 . S
C1045 H1067 0.950 . S
C1046 H1042 0.949 . S
C1046 C1054 1.574 . S
C1046 C1062 1.368 . S
H1047 C1055 0.950 . S
H1048 C1053 0.950 . S
H1049 C1054 0.949 . S
H1050 C1056 0.950 . S
H1051 C1057 0.950 . S
H1052 C1058 0.949 . S
C1053 H1048 0.950 . S
C1053 C1055 1.327 . S
C1053 C1059 1.429 . S
C1054 C1046 1.574 . S
C1054 H1049 0.949 . S
C1054 C1060 1.368 . S
C1055 C1039 1.349 . S
C1055 H1047 0.950 . S
C1055 C1053 1.327 . S
C1056 C1044 1.349 . S
C1056 H1050 0.950 . S
C1056 C1057 1.327 . S
C1057 H1051 0.950 . S
C1057 C1056 1.327 . S
C1057 C1061 1.429 . S
C1058 C1041 1.574 . S
C1058 H1052 0.949 . S
C1058 C1062 1.368 . S
C1059 C1040 1.429 . S
C1059 C1053 1.429 . S
C1059 C1060 1.523 . S
C1060 C1041 1.368 . S
C1060 C1054 1.368 . S
C1060 C1059 1.523 . S
C1061 C1045 1.429 . S
C1061 C1057 1.429 . S
C1061 C1062 1.523 . S
C1062 C1046 1.368 . S
C1062 C1058 1.368 . S
C1062 C1061 1.523 . S
H1063 C1038 0.950 . S
H1064 C1040 0.950 . S
H1065 C1041 0.949 . S
H1066 C1043 0.950 . S
H1067 C1045 0.950 . S
C1068 C1069 1.349 . S
C1068 C1070 1.327 . S
C1068 H1093 0.950 . S
C1069 C1068 1.349 . S
C1069 C1085 1.349 . S
C1070 C1068 1.327 . S
C1070 C1089 1.429 . S
C1070 H1094 0.950 . S
C1071 C1088 1.574 . S
C1071 C1090 1.368 . S
C1071 H1095 0.949 . S
H1072 C1076 0.949 . S
C1073 C1074 1.349 . S
C1073 C1075 1.327 . S
C1073 H1096 0.950 . S
C1074 C1073 1.349 . S
C1074 C1086 1.349 . S
C1075 C1073 1.327 . S
C1075 C1091 1.429 . S
C1075 H1097 0.950 . S
C1076 H1072 0.949 . S
C1076 C1084 1.574 . S
C1076 C1092 1.368 . S
H1077 C1085 0.950 . S
H1078 C1083 0.950 . S
H1079 C1084 0.949 . S
H1080 C1086 0.950 . S
H1081 C1087 0.950 . S
H1082 C1088 0.949 . S
C1083 H1078 0.950 . S
C1083 C1085 1.327 . S
C1083 C1089 1.429 . S
C1084 C1076 1.574 . S
C1084 H1079 0.949 . S
C1084 C1090 1.368 . S
C1085 C1069 1.349 . S
C1085 H1077 0.950 . S
C1085 C1083 1.327 . S
C1086 C1074 1.349 . S
C1086 H1080 0.950 . S
C1086 C1087 1.327 . S
C1087 H1081 0.950 . S
C1087 C1086 1.327 . S
C1087 C1091 1.429 . S
C1088 C1071 1.574 . S
C1088 H1082 0.949 . S
C1088 C1092 1.368 . S
C1089 C1070 1.429 . S
C1089 C1083 1.429 . S
C1089 C1090 1.523 . S
C1090 C1071 1.368 . S
C1090 C1084 1.368 . S
C1090 C1089 1.523 . S
C1091 C1075 1.429 . S
C1091 C1087 1.429 . S
C1091 C1092 1.523 . S
C1092 C1076 1.368 . S
C1092 C1088 1.368 . S
C1092 C1091 1.523 . S
H1093 C1068 0.950 . S
H1094 C1070 0.950 . S
H1095 C1071 0.949 . S
H1096 C1073 0.950 . S
H1097 C1075 0.950 . S
C1098 C1099 1.349 . S
C1098 C1100 1.327 . S
C1098 H1123 0.950 . S
C1099 C1098 1.349 . S
C1099 C1115 1.349 . S
C1100 C1098 1.327 . S
C1100 C1119 1.429 . S
C1100 H1124 0.950 . S
C1101 C1118 1.574 . S
C1101 C1120 1.368 . S
C1101 H1125 0.949 . S
H1102 C1106 0.949 . S
C1103 C1104 1.346 1_556 S
C1103 C1105 1.355 . S
C1103 H1126 0.926 1_556 S
C1104 C1103 1.346 1_554 S
C1104 C1116 1.333 1_554 S
C1105 C1103 1.355 . S
C1105 C1121 1.429 . S
C1105 H1127 0.950 . S
C1106 H1102 0.949 . S
C1106 C1114 1.574 . S
C1106 C1122 1.368 . S
H1107 C1115 0.950 . S
H1108 C1113 0.950 . S
H1109 C1114 0.949 . S
H1110 C1116 0.950 . S
H1111 C1117 0.950 . S
H1112 C1118 0.949 . S
C1113 H1108 0.950 . S
C1113 C1115 1.327 . S
C1113 C1119 1.429 . S
C1114 C1106 1.574 . S
C1114 H1109 0.949 . S
C1114 C1120 1.368 . S
C1115 C1099 1.349 . S
C1115 H1107 0.950 . S
C1115 C1113 1.327 . S
C1116 C1104 1.333 1_556 S
C1116 H1110 0.950 . S
C1116 C1117 1.327 . S
C1117 H1111 0.950 . S
C1117 C1116 1.327 . S
C1117 C1121 1.429 . S
C1118 C1101 1.574 . S
C1118 H1112 0.949 . S
C1118 C1122 1.368 . S
C1119 C1100 1.429 . S
C1119 C1113 1.429 . S
C1119 C1120 1.523 . S
C1120 C1101 1.368 . S
C1120 C1114 1.368 . S
C1120 C1119 1.523 . S
C1121 C1105 1.429 . S
C1121 C1117 1.429 . S
C1121 C1122 1.523 . S
C1122 C1106 1.368 . S
C1122 C1118 1.368 . S
C1122 C1121 1.523 . S
H1123 C1098 0.950 . S
H1124 C1100 0.950 . S
H1125 C1101 0.949 . S
H1126 C1103 0.926 1_554 S
H1127 C1105 0.950 . S
C1128 C1129 1.349 . S
C1128 C1130 1.327 . S
C1128 H1153 0.950 . S
C1129 C1128 1.349 . S
C1129 C1145 1.342 1_565 S
C1130 C1128 1.327 . S
C1130 C1149 1.429 . S
C1130 H1154 0.950 . S
C1131 C1148 1.574 . S
C1131 C1150 1.368 . S
C1131 H1155 0.949 . S
H1132 C1136 0.949 . S
C1133 C1134 1.349 . S
C1133 C1135 1.327 . S
C1133 H1156 0.950 . S
C1134 C1133 1.349 . S
C1134 C1146 1.349 . S
C1135 C1133 1.327 . S
C1135 C1151 1.429 . S
C1135 H1157 0.950 . S
C1136 H1132 0.949 . S
C1136 C1144 1.574 . S
C1136 C1152 1.368 . S
H1137 C1145 0.965 . S
H1138 C1143 0.950 . S
H1139 C1144 0.949 . S
H1140 C1146 0.950 . S
H1141 C1147 0.950 . S
H1142 C1148 0.949 . S
C1143 H1138 0.950 . S
C1143 C1145 1.319 1_565 S
C1143 C1149 1.429 . S
C1144 C1136 1.574 . S
C1144 H1139 0.949 . S
C1144 C1150 1.368 . S
C1145 C1129 1.342 1_545 S
C1145 H1137 0.965 . S
C1145 C1143 1.319 1_545 S
C1146 C1134 1.349 . S
C1146 H1140 0.950 . S
C1146 C1147 1.327 . S
C1147 H1141 0.950 . S
C1147 C1146 1.327 . S
C1147 C1151 1.429 . S
C1148 C1131 1.574 . S
C1148 H1142 0.949 . S
C1148 C1152 1.368 . S
C1149 C1130 1.429 . S
C1149 C1143 1.429 . S
C1149 C1150 1.523 . S
C1150 C1131 1.368 . S
C1150 C1144 1.368 . S
C1150 C1149 1.523 . S
C1151 C1135 1.429 . S
C1151 C1147 1.429 . S
C1151 C1152 1.523 . S
C1152 C1136 1.368 . S
C1152 C1148 1.368 . S
C1152 C1151 1.523 . S
H1153 C1128 0.950 . S
H1154 C1130 0.950 . S
H1155 C1131 0.949 . S
H1156 C1133 0.950 . S
H1157 C1135 0.950 . S
C1158 C1159 1.349 . S
C1158 C1160 1.327 . S
C1158 H1183 0.950 . S
C1159 C1158 1.349 . S
C1159 C1175 1.349 . S
C1160 C1158 1.327 . S
C1160 C1179 1.429 . S
C1160 H1184 0.950 . S
C1161 C1178 1.574 . S
C1161 C1180 1.368 . S
C1161 H1185 0.949 . S
H1162 C1166 0.949 . S
C1163 C1164 1.349 . S
C1163 C1165 1.327 . S
C1163 H1186 0.950 . S
C1164 C1163 1.349 . S
C1164 C1176 1.349 . S
C1165 C1163 1.327 . S
C1165 C1181 1.429 . S
C1165 H1187 0.950 . S
C1166 H1162 0.949 . S
C1166 C1174 1.574 . S
C1166 C1182 1.368 . S
H1167 C1175 0.950 . S
H1168 C1173 0.950 . S
H1169 C1174 0.949 . S
H1170 C1176 0.950 . S
H1171 C1177 0.950 . S
H1172 C1178 0.949 . S
C1173 H1168 0.950 . S
C1173 C1175 1.327 . S
C1173 C1179 1.429 . S
C1174 C1166 1.574 . S
C1174 H1169 0.949 . S
C1174 C1180 1.368 . S
C1175 C1159 1.349 . S
C1175 H1167 0.950 . S
C1175 C1173 1.327 . S
C1176 C1164 1.349 . S
C1176 H1170 0.950 . S
C1176 C1177 1.327 . S
C1177 H1171 0.950 . S
C1177 C1176 1.327 . S
C1177 C1181 1.429 . S
C1178 C1161 1.574 . S
C1178 H1172 0.949 . S
C1178 C1182 1.368 . S
C1179 C1160 1.429 . S
C1179 C1173 1.429 . S
C1179 C1180 1.523 . S
C1180 C1161 1.368 . S
C1180 C1174 1.368 . S
C1180 C1179 1.523 . S
C1181 C1165 1.429 . S
C1181 C1177 1.429 . S
C1181 C1182 1.523 . S
C1182 C1166 1.368 . S
C1182 C1178 1.368 . S
C1182 C1181 1.523 . S
H1183 C1158 0.950 . S
H1184 C1160 0.950 . S
H1185 C1161 0.949 . S
H1186 C1163 0.950 . S
H1187 C1165 0.950 . S
C1188 C1189 1.349 . S
C1188 C1190 1.327 . S
C1188 H1213 0.950 . S
C1189 C1188 1.349 . S
C1189 C1205 1.349 . S
C1190 C1188 1.327 . S
C1190 C1209 1.429 . S
C1190 H1214 0.950 . S
C1191 C1208 1.574 . S
C1191 C1210 1.368 . S
C1191 H1215 0.949 . S
H1192 C1196 0.949 . S
C1193 C1194 1.349 . S
C1193 C1195 1.327 . S
C1193 H1216 0.950 . S
C1194 C1193 1.349 . S
C1194 C1206 1.349 . S
C1195 C1193 1.327 . S
C1195 C1211 1.429 . S
C1195 H1217 0.950 . S
C1196 H1192 0.949 . S
C1196 C1204 1.574 . S
C1196 C1212 1.368 . S
H1197 C1205 0.950 . S
H1198 C1203 0.950 . S
H1199 C1204 0.949 . S
H1200 C1206 0.950 . S
H1201 C1207 0.950 . S
H1202 C1208 0.949 . S
C1203 H1198 0.950 . S
C1203 C1205 1.327 . S
C1203 C1209 1.429 . S
C1204 C1196 1.574 . S
C1204 H1199 0.949 . S
C1204 C1210 1.368 . S
C1205 C1189 1.349 . S
C1205 H1197 0.950 . S
C1205 C1203 1.327 . S
C1206 C1194 1.349 . S
C1206 H1200 0.950 . S
C1206 C1207 1.327 . S
C1207 H1201 0.950 . S
C1207 C1206 1.327 . S
C1207 C1211 1.429 . S
C1208 C1191 1.574 . S
C1208 H1202 0.949 . S
C1208 C1212 1.368 . S
C1209 C1190 1.429 . S
C1209 C1203 1.429 . S
C1209 C1210 1.523 . S
C1210 C1191 1.368 . S
C1210 C1204 1.368 . S
C1210 C1209 1.523 . S
C1211 C1195 1.429 . S
C1211 C1207 1.429 . S
C1211 C1212 1.523 . S
C1212 C1196 1.368 . S
C1212 C1208 1.368 . S
C1212 C1211 1.523 . S
H1213 C1188 0.950 . S
H1214 C1190 0.950 . S
H1215 C1191 0.949 . S
H1216 C1193 0.950 . S
H1217 C1195 0.950 . S
C1218 C1219 1.349 . S
C1218 C1220 1.327 . S
C1218 H1243 0.950 . S
C1219 C1218 1.349 . S
C1219 C1235 1.349 . S
C1220 C1218 1.327 . S
C1220 C1239 1.429 . S
C1220 H1244 0.950 . S
C1221 C1238 1.574 . S
C1221 C1240 1.368 . S
C1221 H1245 0.949 . S
H1222 C1226 0.949 . S
C1223 C1224 1.335 1_565 S
C1223 C1225 1.310 1_565 S
C1223 H1246 0.982 . S
C1224 C1223 1.335 1_545 S
C1224 C1236 1.349 . S
C1225 C1223 1.310 1_545 S
C1225 C1241 1.429 . S
C1225 H1247 0.950 . S
C1226 H1222 0.949 . S
C1226 C1234 1.574 . S
C1226 C1242 1.368 . S
H1227 C1235 0.950 . S
H1228 C1233 0.950 . S
H1229 C1234 0.949 . S
H1230 C1236 0.950 . S
H1231 C1237 0.950 . S
H1232 C1238 0.949 . S
C1233 H1228 0.950 . S
C1233 C1235 1.327 . S
C1233 C1239 1.429 . S
C1234 C1226 1.574 . S
C1234 H1229 0.949 . S
C1234 C1240 1.368 . S
C1235 C1219 1.349 . S
C1235 H1227 0.950 . S
C1235 C1233 1.327 . S
C1236 C1224 1.349 . S
C1236 H1230 0.950 . S
C1236 C1237 1.327 . S
C1237 H1231 0.950 . S
C1237 C1236 1.327 . S
C1237 C1241 1.429 . S
C1238 C1221 1.574 . S
C1238 H1232 0.949 . S
C1238 C1242 1.368 . S
C1239 C1220 1.429 . S
C1239 C1233 1.429 . S
C1239 C1240 1.523 . S
C1240 C1221 1.368 . S
C1240 C1234 1.368 . S
C1240 C1239 1.523 . S
C1241 C1225 1.429 . S
C1241 C1237 1.429 . S
C1241 C1242 1.523 . S
C1242 C1226 1.368 . S
C1242 C1238 1.368 . S
C1242 C1241 1.523 . S
H1243 C1218 0.950 . S
H1244 C1220 0.950 . S
H1245 C1221 0.949 . S
H1246 C1223 0.982 . S
H1247 C1225 0.950 . S
C1248 C1249 1.349 . S
C1248 C1250 1.327 . S
C1248 H1273 0.950 . S
C1249 C1248 1.349 . S
C1249 C1265 1.349 . S
C1250 C1248 1.327 . S
C1250 C1269 1.429 . S
C1250 H1274 0.950 . S
C1251 C1268 1.574 . S
C1251 C1270 1.368 . S
C1251 H1275 0.949 . S
H1252 C1256 0.949 . S
C1253 C1254 1.349 . S
C1253 C1255 1.327 . S
C1253 H1276 0.950 . S
C1254 C1253 1.349 . S
C1254 C1266 1.349 . S
C1255 C1253 1.327 . S
C1255 C1271 1.429 . S
C1255 H1277 0.950 . S
C1256 H1252 0.949 . S
C1256 C1264 1.574 . S
C1256 C1272 1.368 . S
H1257 C1265 0.950 . S
H1258 C1263 0.950 . S
H1259 C1264 0.949 . S
H1260 C1266 0.950 . S
H1261 C1267 0.950 . S
H1262 C1268 0.949 . S
C1263 H1258 0.950 . S
C1263 C1265 1.327 . S
C1263 C1269 1.429 . S
C1264 C1256 1.574 . S
C1264 H1259 0.949 . S
C1264 C1270 1.368 . S
C1265 C1249 1.349 . S
C1265 H1257 0.950 . S
C1265 C1263 1.327 . S
C1266 C1254 1.349 . S
C1266 H1260 0.950 . S
C1266 C1267 1.327 . S
C1267 H1261 0.950 . S
C1267 C1266 1.327 . S
C1267 C1271 1.429 . S
C1268 C1251 1.574 . S
C1268 H1262 0.949 . S
C1268 C1272 1.368 . S
C1269 C1250 1.429 . S
C1269 C1263 1.429 . S
C1269 C1270 1.523 . S
C1270 C1251 1.368 . S
C1270 C1264 1.368 . S
C1270 C1269 1.523 . S
C1271 C1255 1.429 . S
C1271 C1267 1.429 . S
C1271 C1272 1.523 . S
C1272 C1256 1.368 . S
C1272 C1268 1.368 . S
C1272 C1271 1.523 . S
H1273 C1248 0.950 . S
H1274 C1250 0.950 . S
H1275 C1251 0.949 . S
H1276 C1253 0.950 . S
H1277 C1255 0.950 . S
C1278 C1279 1.349 . S
C1278 C1280 1.327 . S
C1278 H1303 0.950 . S
C1279 C1278 1.349 . S
C1279 C1295 1.349 . S
C1280 C1278 1.327 . S
C1280 C1299 1.429 . S
C1280 H1304 0.950 . S
C1281 C1298 1.574 . S
C1281 C1300 1.368 . S
C1281 H1305 0.949 . S
H1282 C1286 0.949 . S
C1283 C1284 1.349 . S
C1283 C1285 1.327 . S
C1283 H1306 0.950 . S
C1284 C1283 1.349 . S
C1284 C1296 1.349 . S
C1285 C1283 1.327 . S
C1285 C1301 1.429 . S
C1285 H1307 0.950 . S
C1286 H1282 0.949 . S
C1286 C1294 1.574 . S
C1286 C1302 1.368 . S
H1287 C1295 0.950 . S
H1288 C1293 0.950 . S
H1289 C1294 0.949 . S
H1290 C1296 0.950 . S
H1291 C1297 0.950 . S
H1292 C1298 0.949 . S
C1293 H1288 0.950 . S
C1293 C1295 1.327 . S
C1293 C1299 1.429 . S
C1294 C1286 1.574 . S
C1294 H1289 0.949 . S
C1294 C1300 1.368 . S
C1295 C1279 1.349 . S
C1295 H1287 0.950 . S
C1295 C1293 1.327 . S
C1296 C1284 1.349 . S
C1296 H1290 0.950 . S
C1296 C1297 1.327 . S
C1297 H1291 0.950 . S
C1297 C1296 1.327 . S
C1297 C1301 1.429 . S
C1298 C1281 1.574 . S
C1298 H1292 0.949 . S
C1298 C1302 1.368 . S
C1299 C1280 1.429 . S
C1299 C1293 1.429 . S
C1299 C1300 1.523 . S
C1300 C1281 1.368 . S
C1300 C1294 1.368 . S
C1300 C1299 1.523 . S
C1301 C1285 1.429 . S
C1301 C1297 1.429 . S
C1301 C1302 1.523 . S
C1302 C1286 1.368 . S
C1302 C1298 1.368 . S
C1302 C1301 1.523 . S
H1303 C1278 0.950 . S
H1304 C1280 0.950 . S
H1305 C1281 0.949 . S
H1306 C1283 0.950 . S
H1307 C1285 0.950 . S
C1308 C1309 1.349 . S
C1308 C1310 1.327 . S
C1308 H1333 0.950 . S
C1309 C1308 1.349 . S
C1309 C1325 1.349 . S
C1310 C1308 1.327 . S
C1310 C1329 1.429 . S
C1310 H1334 0.950 . S
C1311 C1328 1.574 . S
C1311 C1330 1.368 . S
C1311 H1335 0.949 . S
H1312 C1316 0.949 . S
C1313 C1314 1.349 . S
C1313 C1315 1.327 . S
C1313 H1336 0.950 . S
C1314 C1313 1.349 . S
C1314 C1326 1.349 . S
C1315 C1313 1.327 . S
C1315 C1331 1.429 . S
C1315 H1337 0.950 . S
C1316 H1312 0.949 . S
C1316 C1324 1.574 . S
C1316 C1332 1.368 . S
H1317 C1325 0.950 . S
H1318 C1323 0.950 . S
H1319 C1324 0.949 . S
H1320 C1326 0.950 . S
H1321 C1327 0.950 . S
H1322 C1328 0.949 . S
C1323 H1318 0.950 . S
C1323 C1325 1.327 . S
C1323 C1329 1.429 . S
C1324 C1316 1.574 . S
C1324 H1319 0.949 . S
C1324 C1330 1.368 . S
C1325 C1309 1.349 . S
C1325 H1317 0.950 . S
C1325 C1323 1.327 . S
C1326 C1314 1.349 . S
C1326 H1320 0.950 . S
C1326 C1327 1.327 . S
C1327 H1321 0.950 . S
C1327 C1326 1.327 . S
C1327 C1331 1.429 . S
C1328 C1311 1.574 . S
C1328 H1322 0.949 . S
C1328 C1332 1.368 . S
C1329 C1310 1.429 . S
C1329 C1323 1.429 . S
C1329 C1330 1.523 . S
C1330 C1311 1.368 . S
C1330 C1324 1.368 . S
C1330 C1329 1.523 . S
C1331 C1315 1.429 . S
C1331 C1327 1.429 . S
C1331 C1332 1.523 . S
C1332 C1316 1.368 . S
C1332 C1328 1.368 . S
C1332 C1331 1.523 . S
H1333 C1308 0.950 . S
H1334 C1310 0.950 . S
H1335 C1311 0.949 . S
H1336 C1313 0.950 . S
H1337 C1315 0.950 . S
C1338 C1339 1.349 . S
C1338 C1340 1.327 . S
C1338 H1363 0.950 . S
C1339 C1338 1.349 . S
C1339 C1355 1.349 . S
C1340 C1338 1.327 . S
C1340 C1359 1.429 . S
C1340 H1364 0.950 . S
C1341 C1358 1.574 . S
C1341 C1360 1.368 . S
C1341 H1365 0.949 . S
H1342 C1346 0.949 . S
C1343 C1344 1.349 . S
C1343 C1345 1.327 . S
C1343 H1366 0.950 . S
C1344 C1343 1.349 . S
C1344 C1356 1.349 . S
C1345 C1343 1.327 . S
C1345 C1361 1.429 . S
C1345 H1367 0.950 . S
C1346 H1342 0.949 . S
C1346 C1354 1.574 . S
C1346 C1362 1.368 . S
H1347 C1355 0.950 . S
H1348 C1353 0.950 . S
H1349 C1354 0.949 . S
H1350 C1356 0.950 . S
H1351 C1357 0.950 . S
H1352 C1358 0.949 . S
C1353 H1348 0.950 . S
C1353 C1355 1.327 . S
C1353 C1359 1.429 . S
C1354 C1346 1.574 . S
C1354 H1349 0.949 . S
C1354 C1360 1.368 . S
C1355 C1339 1.349 . S
C1355 H1347 0.950 . S
C1355 C1353 1.327 . S
C1356 C1344 1.349 . S
C1356 H1350 0.950 . S
C1356 C1357 1.327 . S
C1357 H1351 0.950 . S
C1357 C1356 1.327 . S
C1357 C1361 1.429 . S
C1358 C1341 1.574 . S
C1358 H1352 0.949 . S
C1358 C1362 1.368 . S
C1359 C1340 1.429 . S
C1359 C1353 1.429 . S
C1359 C1360 1.523 . S
C1360 C1341 1.368 . S
C1360 C1354 1.368 . S
C1360 C1359 1.523 . S
C1361 C1345 1.429 . S
C1361 C1357 1.429 . S
C1361 C1362 1.523 . S
C1362 C1346 1.368 . S
C1362 C1358 1.368 . S
C1362 C1361 1.523 . S
H1363 C1338 0.950 . S
H1364 C1340 0.950 . S
H1365 C1341 0.949 . S
H1366 C1343 0.950 . S
H1367 C1345 0.950 . S
C1368 C1369 1.349 . S
C1368 C1370 1.327 . S
C1368 H1393 0.950 . S
C1369 C1368 1.349 . S
C1369 C1385 1.349 . S
C1370 C1368 1.327 . S
C1370 C1389 1.429 . S
C1370 H1394 0.950 . S
C1371 C1388 1.574 . S
C1371 C1390 1.368 . S
C1371 H1395 0.949 . S
H1372 C1376 0.949 . S
C1373 C1374 1.349 . S
C1373 C1375 1.327 . S
C1373 H1396 0.950 . S
C1374 C1373 1.349 . S
C1374 C1386 1.349 . S
C1375 C1373 1.327 . S
C1375 C1391 1.429 . S
C1375 H1397 0.950 . S
C1376 H1372 0.949 . S
C1376 C1384 1.574 . S
C1376 C1392 1.368 . S
H1377 C1385 0.950 . S
H1378 C1383 0.950 . S
H1379 C1384 0.949 . S
H1380 C1386 0.950 . S
H1381 C1387 0.950 . S
H1382 C1388 0.949 . S
C1383 H1378 0.950 . S
C1383 C1385 1.327 . S
C1383 C1389 1.429 . S
C1384 C1376 1.574 . S
C1384 H1379 0.949 . S
C1384 C1390 1.368 . S
C1385 C1369 1.349 . S
C1385 H1377 0.950 . S
C1385 C1383 1.327 . S
C1386 C1374 1.349 . S
C1386 H1380 0.950 . S
C1386 C1387 1.327 . S
C1387 H1381 0.950 . S
C1387 C1386 1.327 . S
C1387 C1391 1.429 . S
C1388 C1371 1.574 . S
C1388 H1382 0.949 . S
C1388 C1392 1.368 . S
C1389 C1370 1.429 . S
C1389 C1383 1.429 . S
C1389 C1390 1.523 . S
C1390 C1371 1.368 . S
C1390 C1384 1.368 . S
C1390 C1389 1.523 . S
C1391 C1375 1.429 . S
C1391 C1387 1.429 . S
C1391 C1392 1.523 . S
C1392 C1376 1.368 . S
C1392 C1388 1.368 . S
C1392 C1391 1.523 . S
H1393 C1368 0.950 . S
H1394 C1370 0.950 . S
H1395 C1371 0.949 . S
H1396 C1373 0.950 . S
H1397 C1375 0.950 . S
C1398 C1399 1.349 . S
C1398 C1400 1.327 . S
C1398 H1423 0.950 . S
C1399 C1398 1.349 . S
C1399 C1415 1.349 . S
C1400 C1398 1.327 . S
C1400 C1419 1.429 . S
C1400 H1424 0.950 . S
C1401 C1418 1.574 . S
C1401 C1420 1.368 . S
C1401 H1425 0.949 . S
H1402 C1406 0.949 . S
C1403 C1404 1.349 . S
C1403 C1405 1.327 . S
C1403 H1426 0.950 . S
C1404 C1403 1.349 . S
C1404 C1416 1.349 . S
C1405 C1403 1.327 . S
C1405 C1421 1.429 . S
C1405 H1427 0.950 . S
C1406 H1402 0.949 . S
C1406 C1414 1.574 . S
C1406 C1422 1.368 . S
H1407 C1415 0.950 . S
H1408 C1413 0.950 . S
H1409 C1414 0.949 . S
H1410 C1416 0.950 . S
H1411 C1417 0.950 . S
H1412 C1418 0.949 . S
C1413 H1408 0.950 . S
C1413 C1415 1.327 . S
C1413 C1419 1.429 . S
C1414 C1406 1.574 . S
C1414 H1409 0.949 . S
C1414 C1420 1.368 . S
C1415 C1399 1.349 . S
C1415 H1407 0.950 . S
C1415 C1413 1.327 . S
C1416 C1404 1.349 . S
C1416 H1410 0.950 . S
C1416 C1417 1.327 . S
C1417 H1411 0.950 . S
C1417 C1416 1.327 . S
C1417 C1421 1.429 . S
C1418 C1401 1.574 . S
C1418 H1412 0.949 . S
C1418 C1422 1.368 . S
C1419 C1400 1.429 . S
C1419 C1413 1.429 . S
C1419 C1420 1.523 . S
C1420 C1401 1.368 . S
C1420 C1414 1.368 . S
C1420 C1419 1.523 . S
C1421 C1405 1.429 . S
C1421 C1417 1.429 . S
C1421 C1422 1.523 . S
C1422 C1406 1.368 . S
C1422 C1418 1.368 . S
C1422 C1421 1.523 . S
H1423 C1398 0.950 . S
H1424 C1400 0.950 . S
H1425 C1401 0.949 . S
H1426 C1403 0.950 . S
H1427 C1405 0.950 . S
C709 C477 1.477 . S
C714 C5 1.477 . S
C739 C64 1.477 . S
C744 C536 1.477 . S
C769 C123 1.478 . S
C774 C595 1.478 . S
C799 C182 1.477 . S
C804 C654 1.477 . S
C829 C359 1.477 . S
C834 C241 1.477 . S
C859 C300 1.477 . S
C864 C418 1.477 . S
C889 C3 1.616 . S
C894 C328 1.641 . S
C919 C62 1.616 . S
C924 C33 1.624 1_655 S
C949 C121 1.616 . S
C954 C92 1.624 1_565 S
C979 C151 1.624 . S
C984 C180 1.616 . S
C1009 C210 1.624 1_455 S
C1014 C239 1.616 . S
C1039 C269 1.624 1_545 S
C1044 C298 1.616 . S
C1069 C446 1.624 . S
C1074 C357 1.616 . S
C1099 C416 1.616 . S
C1104 C505 1.641 1_655 S
C1129 C564 1.624 1_565 S
C1134 C475 1.616 . S
C1159 C534 1.616 . S
C1164 C623 1.624 . S
C1189 C593 1.616 . S
C1194 C682 1.624 1_455 S
C1219 C652 1.616 . S
C1224 C387 1.624 1_545 S
C1249 C642 1.453 . S
C1254 C52 1.453 . S
C1279 C701 1.453 . S
C1284 C111 1.453 . S
C1309 C406 1.453 . S
C1314 C170 1.453 . S
C1339 C229 1.453 . S
C1344 C465 1.453 . S
C1369 C288 1.453 . S
C1374 C524 1.451 1_556 S
C1399 C583 1.453 . S
C1404 C347 1.451 1_554 S
