# Generated by pormake.
# Topology wje, (4)-cn, num edge types: 1
# Building blocks:
#     Node 0, Type 0, BuildingBlock: ICAMEG_clean_sbu_1, # of connection points: 4
#     Node 1, Type 0, BuildingBlock: ICAMEG_clean_sbu_1, # of connection points: 4
#     Node 2, Type 0, BuildingBlock: ICAMEG_clean_sbu_1, # of connection points: 4
#     Node 3, Type 0, BuildingBlock: ICAMEG_clean_sbu_1, # of connection points: 4
#     Node 4, Type 0, BuildingBlock: ICAMEG_clean_sbu_1, # of connection points: 4
#     Node 5, Type 0, BuildingBlock: ICAMEG_clean_sbu_1, # of connection points: 4
#     Node 6, Type 0, BuildingBlock: ICAMEG_clean_sbu_1, # of connection points: 4
#     Node 7, Type 0, BuildingBlock: ICAMEG_clean_sbu_1, # of connection points: 4
#     Node 8, Type 0, BuildingBlock: ICAMEG_clean_sbu_1, # of connection points: 4
#     Node 9, Type 0, BuildingBlock: ICAMEG_clean_sbu_1, # of connection points: 4
#     Node 10, Type 0, BuildingBlock: ICAMEG_clean_sbu_1, # of connection points: 4
#     Node 11, Type 0, BuildingBlock: ICAMEG_clean_sbu_1, # of connection points: 4
#     Edge 12, Type (0, 0), BuildingBlock: CIFDUS_clean_linker_0, # of connection points: 2
#     Edge 13, Type (0, 0), BuildingBlock: CIFDUS_clean_linker_0, # of connection points: 2
#     Edge 14, Type (0, 0), BuildingBlock: CIFDUS_clean_linker_0, # of connection points: 2
#     Edge 15, Type (0, 0), BuildingBlock: CIFDUS_clean_linker_0, # of connection points: 2
#     Edge 16, Type (0, 0), BuildingBlock: CIFDUS_clean_linker_0, # of connection points: 2
#     Edge 17, Type (0, 0), BuildingBlock: CIFDUS_clean_linker_0, # of connection points: 2
#     Edge 18, Type (0, 0), BuildingBlock: CIFDUS_clean_linker_0, # of connection points: 2
#     Edge 19, Type (0, 0), BuildingBlock: CIFDUS_clean_linker_0, # of connection points: 2
#     Edge 20, Type (0, 0), BuildingBlock: CIFDUS_clean_linker_0, # of connection points: 2
#     Edge 21, Type (0, 0), BuildingBlock: CIFDUS_clean_linker_0, # of connection points: 2
#     Edge 22, Type (0, 0), BuildingBlock: CIFDUS_clean_linker_0, # of connection points: 2
#     Edge 23, Type (0, 0), BuildingBlock: CIFDUS_clean_linker_0, # of connection points: 2
#     Edge 24, Type (0, 0), BuildingBlock: CIFDUS_clean_linker_0, # of connection points: 2
#     Edge 25, Type (0, 0), BuildingBlock: CIFDUS_clean_linker_0, # of connection points: 2
#     Edge 26, Type (0, 0), BuildingBlock: CIFDUS_clean_linker_0, # of connection points: 2
#     Edge 27, Type (0, 0), BuildingBlock: CIFDUS_clean_linker_0, # of connection points: 2
#     Edge 28, Type (0, 0), BuildingBlock: CIFDUS_clean_linker_0, # of connection points: 2
#     Edge 29, Type (0, 0), BuildingBlock: CIFDUS_clean_linker_0, # of connection points: 2
#     Edge 30, Type (0, 0), BuildingBlock: CIFDUS_clean_linker_0, # of connection points: 2
#     Edge 31, Type (0, 0), BuildingBlock: CIFDUS_clean_linker_0, # of connection points: 2
#     Edge 32, Type (0, 0), BuildingBlock: CIFDUS_clean_linker_0, # of connection points: 2
#     Edge 33, Type (0, 0), BuildingBlock: CIFDUS_clean_linker_0, # of connection points: 2
#     Edge 34, Type (0, 0), BuildingBlock: CIFDUS_clean_linker_0, # of connection points: 2
#     Edge 35, Type (0, 0), BuildingBlock: CIFDUS_clean_linker_0, # of connection points: 2
# Relax obj value: 0.123
# Max RMSD: 0.099
# Mean RMSD: 0.099
data_MOF--net-wje--node1-ICAMEG_clean_sbu_1--edge1-CIFDUS_clean_linker_0
_symmetry_space_group_name_H-M    P1
_symmetry_Int_Tables_number       1
_symmetry_cell_setting            triclinic
loop_
_symmetry_equiv_pos_as_xyz
'x, y, z'
_cell_length_a     37.429666
_cell_length_b     37.368117
_cell_length_c     35.879198
_cell_angle_alpha  90.003532
_cell_angle_beta   90.065425
_cell_angle_gamma 120.06951
loop_
_atom_site_label
_atom_site_type_symbol
_atom_site_fract_x
_atom_site_fract_y
_atom_site_fract_z
_atom_type_partial_charge
Co0 Co 0.32878 0.97546 0.32355 0.0
Co1 Co 0.3141 0.05867 0.33431 0.0
O2 O 0.33949 0.03048 0.30854 0.0
C3 C 0.42007 0.02231 0.32235 0.0
O4 O 0.41845 0.05274 0.33903 0.0
C5 C 0.29752 0.0661 0.25426 0.0
O6 O 0.28645 0.02698 0.25005 0.0
O7 O 0.25751 0.00996 0.32708 0.0
O8 O 0.27066 0.95833 0.33674 0.0
H9 H 0.21835 0.06976 0.42562 0.0
H10 H 0.3656 0.00746 0.24949 0.0
O11 O 0.38697 0.99035 0.31183 0.0
H12 H 0.23318 0.88053 0.22411 0.0
H13 H 0.33683 0.84546 0.31059 0.0
H14 H 0.2847 0.91934 0.38681 0.0
H15 H 0.25551 0.90343 0.28872 0.0
H16 H 0.35056 0.91483 0.29227 0.0
O17 O 0.30948 0.0833 0.286 0.0
H18 H 0.25046 0.03487 0.39312 0.0
H19 H 0.32397 0.14289 0.329 0.0
H20 H 0.26985 0.84983 0.40589 0.0
H21 H 0.34466 0.98547 0.18439 0.0
H22 H 0.29591 0.81235 0.36762 0.0
H23 H 0.27795 0.92164 0.17141 0.0
O24 O 0.34578 0.99478 0.37561 0.0
H25 H 0.45672 0.16619 0.29414 0.0
H26 H 0.35977 0.11111 0.39978 0.0
H27 H 0.42994 0.17002 0.40991 0.0
H28 H 0.47893 0.19802 0.35683 0.0
H29 H 0.38636 0.10702 0.28533 0.0
H30 H 0.29229 0.1788 0.36051 0.0
H31 H 0.23922 0.14226 0.40934 0.0
O32 O 0.31814 0.0355 0.38356 0.0
C33 C 0.24594 0.97233 0.33449 0.0
C34 C 0.24153 0.08606 0.40447 0.0
C35 C 0.28299 0.14723 0.36789 0.0
N36 N 0.28931 0.0869 0.35941 0.0
C37 C 0.25993 0.0665 0.38606 0.0
C38 C 0.30075 0.1267 0.35008 0.0
C39 C 0.25323 0.12672 0.3953 0.0
C40 C 0.33674 0.97943 0.24401 0.0
N41 N 0.31191 0.95667 0.27281 0.0
C42 C 0.32495 0.96723 0.20712 0.0
C43 C 0.28748 0.93144 0.19985 0.0
C44 C 0.26234 0.90838 0.22941 0.0
C45 C 0.27509 0.92157 0.26593 0.0
C46 C 0.32522 0.86143 0.32745 0.0
C47 C 0.29602 0.90319 0.36991 0.0
C48 C 0.33299 0.90077 0.31728 0.0
N49 N 0.31819 0.92102 0.33829 0.0
C50 C 0.28759 0.86386 0.38091 0.0
C51 C 0.30226 0.84287 0.35945 0.0
C52 C 0.33424 0.01485 0.39626 0.0
C53 C 0.43562 0.15435 0.31746 0.0
C54 C 0.38095 0.123 0.37657 0.0
C55 C 0.42062 0.15644 0.38246 0.0
C56 C 0.44808 0.17215 0.35266 0.0
N57 N 0.36893 0.10577 0.34194 0.0
C58 C 0.39569 0.12097 0.3126 0.0
Co59 Co 0.34935 0.32627 0.66587 0.0
Co60 Co 0.25445 0.31974 0.67852 0.0
O61 O 0.30812 0.34208 0.65328 0.0
C62 C 0.39787 0.41788 0.67116 0.0
O63 O 0.36602 0.41666 0.68773 0.0
C64 C 0.23205 0.30375 0.59841 0.0
O65 O 0.25867 0.29074 0.5958 0.0
O66 O 0.24212 0.26155 0.67205 0.0
O67 O 0.30505 0.26764 0.6728 0.0
H68 H 0.14342 0.22955 0.76943 0.0
H69 H 0.359 0.37277 0.59627 0.0
O70 O 0.39567 0.38468 0.65945 0.0
H71 H 0.34665 0.24075 0.55625 0.0
H72 H 0.48344 0.32689 0.65061 0.0
H73 H 0.35457 0.27171 0.72298 0.0
H74 H 0.3454 0.25586 0.62298 0.0
H75 H 0.43183 0.34731 0.63543 0.0
O76 O 0.22664 0.31668 0.62958 0.0
H77 H 0.21049 0.2573 0.73758 0.0
H78 H 0.1842 0.33569 0.67163 0.0
H79 H 0.40513 0.2501 0.73881 0.0
H80 H 0.36083 0.35912 0.52919 0.0
H81 H 0.47007 0.27769 0.70244 0.0
H82 H 0.35446 0.29263 0.50882 0.0
O83 O 0.34632 0.33753 0.71975 0.0
H84 H 0.29997 0.46478 0.63704 0.0
H85 H 0.25149 0.36819 0.74334 0.0
H86 H 0.26811 0.4403 0.75282 0.0
H87 H 0.29248 0.48912 0.6994 0.0
H88 H 0.28336 0.39249 0.62888 0.0
H89 H 0.11662 0.30846 0.70246 0.0
H90 H 0.09594 0.25516 0.75189 0.0
O91 O 0.28044 0.32199 0.7279 0.0
C92 C 0.2658 0.24621 0.67313 0.0
C93 C 0.15214 0.25289 0.74804 0.0
C94 C 0.13708 0.29713 0.71041 0.0
N95 N 0.20144 0.29836 0.70305 0.0
C96 C 0.19015 0.26882 0.73 0.0
C97 C 0.17535 0.31236 0.693 0.0
C98 C 0.1255 0.26723 0.73815 0.0
C99 C 0.35666 0.34397 0.58759 0.0
N100 N 0.35226 0.31524 0.61348 0.0
C101 C 0.35754 0.33633 0.54959 0.0
C102 C 0.35389 0.29899 0.53818 0.0
C103 C 0.34948 0.26986 0.56477 0.0
C104 C 0.34869 0.27854 0.60252 0.0
C105 C 0.45522 0.3146 0.66661 0.0
C106 C 0.3827 0.28374 0.70694 0.0
C107 C 0.42594 0.32615 0.65823 0.0
N108 N 0.3901 0.31051 0.67815 0.0
C109 C 0.41125 0.27146 0.71609 0.0
C110 C 0.4477 0.28698 0.6957 0.0
C111 C 0.31598 0.33119 0.74042 0.0
C112 C 0.28926 0.44376 0.6605 0.0
C113 C 0.2622 0.38928 0.71999 0.0
C114 C 0.27147 0.43005 0.7255 0.0
C115 C 0.28511 0.45742 0.69551 0.0
N116 N 0.26627 0.37611 0.68554 0.0
C117 C 0.27964 0.40276 0.65601 0.0
Co118 Co 0.03002 0.34392 0.99506 0.0
Co119 Co 0.94446 0.24872 0.01191 0.0
O120 O 0.97233 0.3017 0.98492 0.0
C121 C 0.98745 0.39246 1.00063 0.0
O122 O 0.95794 0.36129 0.01899 0.0
C123 C 0.92554 0.22152 0.93234 0.0
O124 O 0.96406 0.24805 0.9238 0.0
O125 O 0.98922 0.23695 0.99845 0.0
O126 O 0.04508 0.30029 1.00369 0.0
H127 H 0.93732 0.14088 0.10012 0.0
H128 H 0.99051 0.35004 0.9258 0.0
O129 O 0.0175 0.38972 0.98732 0.0
H130 H 0.10833 0.33568 0.88443 0.0
H131 H 0.16267 0.47749 0.9727 0.0
H132 H 0.09231 0.35259 0.05103 0.0
H133 H 0.09454 0.33754 0.95138 0.0
H134 H 0.08999 0.42493 0.96074 0.0
O135 O 0.91301 0.21896 0.96576 0.0
H136 H 0.97148 0.20708 0.06609 0.0
H137 H 0.85801 0.17768 0.014 0.0
H138 H 0.16518 0.40409 0.06362 0.0
H139 H 1.00342 0.34875 0.85848 0.0
H140 H 0.20086 0.46704 0.02426 0.0
H141 H 0.06263 0.34139 0.83745 0.0
O142 O 0.01779 0.34364 0.04898 0.0
H143 H 0.83962 0.29189 0.98558 0.0
H144 H 0.90181 0.24691 0.08283 0.0
H145 H 0.84774 0.26315 0.10004 0.0
H146 H 0.81619 0.28574 0.05121 0.0
H147 H 0.89414 0.27575 0.96966 0.0
H148 H 0.82271 0.11095 0.04717 0.0
H149 H 0.86239 0.09226 0.09074 0.0
O150 O 0.97433 0.27609 0.05929 0.0
C151 C 0.02806 0.26114 1.00106 0.0
C152 C 0.91967 0.14871 0.08129 0.0
C153 C 0.85536 0.13189 0.05153 0.0
N154 N 0.91673 0.19637 0.03826 0.0
C155 C 0.93882 0.18621 0.06201 0.0
C156 C 0.87555 0.16967 0.03275 0.0
C157 C 0.87764 0.12143 0.07598 0.0
C158 C 0.01656 0.34725 0.9168 0.0
N159 N 0.04182 0.34406 0.94244 0.0
C160 C 0.02363 0.34637 0.87868 0.0
C161 C 0.05682 0.34217 0.8669 0.0
C162 C 0.08246 0.33894 0.89324 0.0
C163 C 0.07442 0.3399 0.93112 0.0
C164 C 0.14748 0.45014 0.99 0.0
C165 C 0.10765 0.37983 0.03368 0.0
C166 C 0.10628 0.42034 0.98344 0.0
N167 N 0.08699 0.38557 1.005 0.0
C168 C 0.1489 0.40893 0.04101 0.0
C169 C 0.16889 0.44426 0.01893 0.0
C170 C 0.99819 0.31293 0.07074 0.0
C171 C 0.85305 0.28197 0.00709 0.0
C172 C 0.88838 0.2569 0.06144 0.0
C173 C 0.85768 0.26593 0.07134 0.0
C174 C 0.83997 0.27857 0.04393 0.0
N175 N 0.90101 0.26026 0.02523 0.0
C176 C 0.88379 0.27262 0.99821 0.0
Co177 Co 0.7028 0.02753 0.33113 0.0
Co178 Co 0.71511 0.94276 0.33229 0.0
O179 O 0.68844 0.97257 0.31228 0.0
C180 C 0.61109 0.98327 0.33187 0.0
O181 O 0.61148 0.95112 0.34616 0.0
C182 C 0.72124 0.93488 0.25017 0.0
O183 O 0.73308 0.97429 0.24706 0.0
O184 O 0.7707 0.99037 0.32005 0.0
O185 O 0.76136 0.04208 0.33973 0.0
H186 H 0.82025 0.92828 0.40797 0.0
H187 H 0.66107 1.00046 0.25796 0.0
O188 O 0.64481 0.01557 0.32333 0.0
H189 H 0.79392 0.12648 0.23187 0.0
H190 H 0.70079 0.16134 0.33129 0.0
H191 H 0.7529 0.07941 0.39465 0.0
H192 H 0.77515 0.10026 0.29608 0.0
H193 H 0.68243 0.09206 0.30811 0.0
O194 O 0.7123 0.91762 0.28206 0.0
H195 H 0.78577 0.96476 0.38309 0.0
H196 H 0.70157 0.85751 0.32253 0.0
H197 H 0.77236 0.14872 0.41849 0.0
H198 H 0.67841 0.02589 0.1933 0.0
H199 H 0.74636 0.19025 0.38667 0.0
H200 H 0.74533 0.08926 0.17993 0.0
O201 O 0.68864 1.00538 0.38276 0.0
H202 H 0.56687 0.83839 0.30542 0.0
H203 H 0.67741 0.89086 0.40002 0.0
H204 H 0.60819 0.83336 0.41596 0.0
H205 H 0.55237 0.80668 0.36844 0.0
H206 H 0.63647 0.89616 0.29079 0.0
H207 H 0.7354 0.82 0.34646 0.0
H208 H 0.79508 0.85537 0.38964 0.0
O209 O 0.71878 0.96644 0.38346 0.0
C210 C 0.7845 0.02764 0.3304 0.0
C211 C 0.7942 0.9125 0.38926 0.0
C212 C 0.74661 0.85175 0.3547 0.0
N213 N 0.74152 0.91323 0.35158 0.0
C214 C 0.77447 0.93297 0.37515 0.0
C215 C 0.72765 0.87319 0.34116 0.0
C216 C 0.78009 0.8716 0.37893 0.0
C217 C 0.69005 0.02829 0.25237 0.0
N218 N 0.71696 0.04891 0.28076 0.0
C219 C 0.69978 0.04245 0.2157 0.0
C220 C 0.73737 0.07797 0.20821 0.0
C221 C 0.76466 0.09884 0.23733 0.0
C222 C 0.7539 0.08377 0.27364 0.0
C223 C 0.71237 0.14356 0.34536 0.0
C224 C 0.74148 0.09728 0.38059 0.0
C225 C 0.70195 0.10424 0.33244 0.0
N226 N 0.71674 0.08175 0.34988 0.0
C227 C 0.75257 0.1365 0.39427 0.0
C228 C 0.73794 0.15977 0.37643 0.0
C229 C 0.70332 0.9858 0.40005 0.0
C230 C 0.59097 0.84966 0.32633 0.0
C231 C 0.65324 0.87955 0.37924 0.0
C232 C 0.61413 0.8469 0.3884 0.0
C233 C 0.58284 0.83193 0.36171 0.0
N234 N 0.66098 0.89674 0.34445 0.0
C235 C 0.63047 0.88223 0.31815 0.0
Co236 Co 0.67554 0.70165 0.65803 0.0
Co237 Co 0.7729 0.71418 0.66147 0.0
O238 O 0.71638 0.6868 0.64125 0.0
C239 C 0.62846 0.61004 0.66439 0.0
O240 O 0.66151 0.61188 0.67899 0.0
C241 C 0.78744 0.71934 0.57949 0.0
O242 O 0.75974 0.73086 0.5759 0.0
O243 O 0.78134 0.76973 0.64812 0.0
O244 O 0.7194 0.7608 0.66399 0.0
H245 H 0.89239 0.8209 0.73656 0.0
H246 H 0.66044 0.65511 0.58754 0.0
O247 O 0.62955 0.64287 0.6531 0.0
H248 H 0.66683 0.78579 0.55243 0.0
H249 H 0.53927 0.69822 0.65452 0.0
H250 H 0.67392 0.75563 0.71792 0.0
H251 H 0.67474 0.7714 0.61806 0.0
H252 H 0.59028 0.67893 0.63408 0.0
O253 O 0.7955 0.7106 0.6116 0.0
H254 H 0.82155 0.78596 0.71131 0.0
H255 H 0.84446 0.70044 0.65321 0.0
H256 H 0.62404 0.77616 0.73889 0.0
H257 H 0.65193 0.66805 0.52155 0.0
H258 H 0.55617 0.74743 0.70709 0.0
H259 H 0.65524 0.73386 0.50366 0.0
O260 O 0.6838 0.69095 0.71072 0.0
H261 H 0.72886 0.56529 0.63738 0.0
H262 H 0.7864 0.67766 0.73038 0.0
H263 H 0.77432 0.60862 0.7478 0.0
H264 H 0.74543 0.55188 0.7011 0.0
H265 H 0.74105 0.63473 0.62126 0.0
H266 H 0.91568 0.73472 0.67753 0.0
H267 H 0.94001 0.7953 0.71967 0.0
O268 O 0.75269 0.71887 0.71219 0.0
C269 C 0.75746 0.78371 0.65611 0.0
C270 C 0.88211 0.79446 0.71832 0.0
C271 C 0.8952 0.74612 0.68515 0.0
N272 N 0.82876 0.74101 0.68104 0.0
C273 C 0.84199 0.77447 0.70402 0.0
C274 C 0.85486 0.7269 0.67139 0.0
C275 C 0.90883 0.7801 0.7088 0.0
C276 C 0.66149 0.68362 0.57996 0.0
N277 N 0.66787 0.71235 0.6066 0.0
C278 C 0.65683 0.69086 0.54256 0.0
C279 C 0.65876 0.72782 0.53253 0.0
C280 C 0.66529 0.75699 0.55988 0.0
C281 C 0.66986 0.7487 0.59699 0.0
C282 C 0.56877 0.71099 0.66856 0.0
C283 C 0.64452 0.74308 0.70383 0.0
C284 C 0.59772 0.70007 0.65721 0.0
N285 N 0.63517 0.71632 0.67463 0.0
C286 C 0.61636 0.75476 0.71589 0.0
C287 C 0.57827 0.73862 0.69805 0.0
C288 C 0.71784 0.70523 0.72833 0.0
C289 C 0.74157 0.58979 0.65794 0.0
C290 C 0.77366 0.65308 0.70994 0.0
C291 C 0.767 0.61409 0.71994 0.0
C292 C 0.75082 0.58227 0.69372 0.0
N293 N 0.76457 0.66022 0.67478 0.0
C294 C 0.7487 0.6292 0.64892 0.0
Co295 Co 0.98188 0.66955 0.99017 0.0
Co296 Co 0.06541 0.76814 0.99762 0.0
O297 O 0.03833 0.71192 0.97638 0.0
C298 C 0.02755 0.6237 0.99947 0.0
O299 O 0.05824 0.6567 0.01486 0.0
C300 C 0.07759 0.78497 0.91635 0.0
O301 O 0.03863 0.75672 0.91178 0.0
O302 O 0.01828 0.77552 0.98239 0.0
O303 O 0.96462 0.71205 0.99352 0.0
H304 H 0.07168 0.88458 0.07293 0.0
H305 H 0.01965 0.65774 0.92233 0.0
O306 O 0.99618 0.62465 0.98711 0.0
H307 H 0.89524 0.65883 0.87857 0.0
H308 H 0.85144 0.53108 0.98094 0.0
H309 H 0.92166 0.6653 0.04617 0.0
H310 H 0.91277 0.66603 0.94543 0.0
H311 H 0.92247 0.58391 0.96394 0.0
O312 O 0.09355 0.79239 0.9488 0.0
H313 H 0.03843 0.8142 0.04652 0.0
H314 H 0.15023 0.84148 0.99254 0.0
H315 H 0.85043 0.61353 0.06371 0.0
H316 H 1.00303 0.64997 0.85517 0.0
H317 H 0.81479 0.5459 0.03092 0.0
H318 H 0.9405 0.65064 0.83292 0.0
O319 O 0.99715 0.67731 0.04397 0.0
H320 H 0.17388 0.72847 0.97783 0.0
H321 H 0.11237 0.78121 0.06846 0.0
H322 H 0.16954 0.77061 0.08816 0.0
H323 H 0.20076 0.74414 0.04266 0.0
H324 H 0.11635 0.73915 0.95941 0.0
H325 H 0.18457 0.9123 0.01808 0.0
H326 H 0.14527 0.9342 0.05872 0.0
O327 O 0.03836 0.74629 0.04714 0.0
C328 C 0.97986 0.75037 0.98662 0.0
C329 C 0.08917 0.87537 0.05535 0.0
C330 C 0.15251 0.89094 0.02453 0.0
N331 N 0.09242 0.82363 0.01823 0.0
C332 C 0.07053 0.83551 0.0404 0.0
C333 C 0.13286 0.85083 0.01008 0.0
C334 C 0.13045 0.9032 0.04734 0.0
C335 C 0.99219 0.65765 0.91285 0.0
N336 N 0.96718 0.66221 0.93775 0.0
C337 C 0.98301 0.65341 0.8748 0.0
C338 C 0.94795 0.65385 0.86233 0.0
C339 C 0.92256 0.65846 0.88792 0.0
C340 C 0.93272 0.66264 0.92574 0.0
C341 C 0.86661 0.56047 0.99538 0.0
C342 C 0.90634 0.63598 0.0317 0.0
C343 C 0.9069 0.59046 0.98597 0.0
N344 N 0.92615 0.62777 1.0039 0.0
C345 C 0.86603 0.60676 0.04181 0.0
C346 C 0.84606 0.5688 0.02342 0.0
C347 C 0.01626 0.71099 0.06229 0.0
C348 C 0.16061 0.74013 0.99788 0.0
C349 C 0.12567 0.76952 0.04854 0.0
C350 C 0.15812 0.76368 0.05983 0.0
C351 C 0.17563 0.74887 0.03427 0.0
N352 N 0.11116 0.76093 0.01277 0.0
C353 C 0.12816 0.74638 0.98757 0.0
Co354 Co 0.03416 0.69128 0.35934 0.0
Co355 Co 0.94726 0.70017 0.34421 0.0
O356 O 0.97697 0.67636 0.37015 0.0
C357 C 0.98982 0.59989 0.3508 0.0
O358 O 0.95986 0.60219 0.33398 0.0
C359 C 0.9399 0.71604 0.42422 0.0
O360 O 0.97919 0.72777 0.42765 0.0
O361 O 0.99411 0.75797 0.35102 0.0
O362 O 0.05002 0.75043 0.35429 0.0
H363 H 0.93077 0.79217 0.25201 0.0
H364 H 0.99319 0.64237 0.4268 0.0
O365 O 0.0206 0.6323 0.364 0.0
H366 H 0.11377 0.77029 0.47295 0.0
H367 H 0.16525 0.68659 0.37761 0.0
H368 H 0.09694 0.7476 0.30515 0.0
H369 H 0.10017 0.7584 0.4055 0.0
H370 H 0.09299 0.66697 0.39055 0.0
O371 O 0.92217 0.70392 0.39267 0.0
H372 H 0.96812 0.76274 0.28476 0.0
H373 H 0.86188 0.68673 0.34978 0.0
H374 H 0.16943 0.7685 0.29163 0.0
H375 H 1.00582 0.65276 0.49454 0.0
H376 H 0.20409 0.73799 0.32806 0.0
H377 H 0.0664 0.7172 0.51799 0.0
O378 O 0.02208 0.6825 0.30488 0.0
H379 H 0.8443 0.55589 0.38492 0.0
H380 H 0.8961 0.6527 0.27884 0.0
H381 H 0.8394 0.58122 0.26889 0.0
H382 H 0.81309 0.53229 0.32219 0.0
H383 H 0.9012 0.62755 0.39356 0.0
H384 H 0.82347 0.71564 0.31804 0.0
H385 H 0.85788 0.76861 0.26863 0.0
O386 O 0.97129 0.69713 0.29534 0.0
C387 C 0.03304 0.77259 0.35249 0.0
C388 C 0.91539 0.76902 0.27341 0.0
C389 C 0.85519 0.72611 0.3105 0.0
N390 N 0.91715 0.72284 0.31893 0.0
C391 C 0.93636 0.75216 0.29196 0.0
C392 C 0.87714 0.70993 0.32844 0.0
C393 C 0.87451 0.75581 0.28277 0.0
C394 C 0.01981 0.67029 0.43684 0.0
N395 N 0.04591 0.69971 0.41228 0.0
C396 C 0.02673 0.67608 0.4752 0.0
C397 C 0.06069 0.71227 0.48833 0.0
C398 C 0.08726 0.74209 0.46309 0.0
C399 C 0.07933 0.73525 0.42493 0.0
C400 C 0.15051 0.70016 0.36159 0.0
C401 C 0.11186 0.73429 0.32121 0.0
C402 C 0.10955 0.68907 0.36871 0.0
N403 N 0.09085 0.70633 0.34879 0.0
C404 C 0.15288 0.74617 0.31337 0.0
C405 C 0.17229 0.72901 0.33379 0.0
C406 C 0.99821 0.68841 0.28356 0.0
C407 C 0.85541 0.57695 0.36151 0.0
C408 C 0.8849 0.63155 0.30216 0.0
C409 C 0.85273 0.59115 0.29637 0.0
C410 C 0.83796 0.56372 0.32629 0.0
N411 N 0.90179 0.64433 0.3368 0.0
C412 C 0.8875 0.61761 0.36627 0.0
Co413 Co 0.34828 0.03661 0.68726 0.0
Co414 Co 0.24931 0.95452 0.68323 0.0
O415 O 0.30514 0.9822 0.70499 0.0
C416 C 0.3928 0.98941 0.68621 0.0
O417 O 0.35982 0.958 0.67156 0.0
C418 C 0.23203 0.94606 0.76502 0.0
O419 O 0.26054 0.98504 0.76921 0.0
O420 O 0.24318 1.00374 0.69393 0.0
O421 O 0.30658 0.0538 0.67753 0.0
H422 H 0.13464 0.94533 0.60323 0.0
H423 H 0.35897 0.00683 0.76052 0.0
O424 O 0.39228 0.02192 0.6958 0.0
H425 H 0.35792 0.13577 0.78718 0.0
H426 H 0.48771 0.16624 0.69057 0.0
H427 H 0.35492 0.09066 0.62385 0.0
H428 H 0.35121 0.1104 0.72266 0.0
H429 H 0.43346 0.0979 0.71266 0.0
O430 O 0.22439 0.92958 0.73281 0.0
H431 H 0.20457 0.97937 0.63039 0.0
H432 H 0.17513 0.8705 0.69121 0.0
H433 H 0.40815 0.15909 0.60107 0.0
H434 H 0.36617 0.03129 0.82549 0.0
H435 H 0.47511 0.19741 0.63454 0.0
H436 H 0.36555 0.09615 0.83913 0.0
O437 O 0.34098 0.01533 0.63529 0.0
H438 H 0.28606 0.84563 0.71359 0.0
H439 H 0.23567 0.90226 0.61584 0.0
H440 H 0.24487 0.84287 0.60134 0.0
H441 H 0.27013 0.81409 0.65044 0.0
H442 H 0.27683 0.9053 0.72678 0.0
H443 H 0.10472 0.83543 0.66502 0.0
H444 H 0.08412 0.87283 0.62054 0.0
O445 O 0.27183 0.97785 0.63274 0.0
C446 C 0.26861 0.0408 0.68414 0.0
C447 C 0.14327 0.92866 0.62249 0.0
C448 C 0.12647 0.867 0.65721 0.0
N449 N 0.19407 0.9269 0.66216 0.0
C450 C 0.18289 0.94775 0.63788 0.0
C451 C 0.16636 0.88708 0.67203 0.0
C452 C 0.11494 0.888 0.63224 0.0
C453 C 0.35908 0.03528 0.76626 0.0
N454 N 0.35488 0.05725 0.73786 0.0
C455 C 0.363 0.04889 0.80309 0.0
C456 C 0.36258 0.08526 0.81072 0.0
C457 C 0.35826 0.10749 0.78159 0.0
C458 C 0.35437 0.0929 0.74512 0.0
C459 C 0.45863 0.14988 0.67579 0.0
C460 C 0.3839 0.10716 0.63867 0.0
C461 C 0.42783 0.11111 0.6881 0.0
N462 N 0.39093 0.09036 0.6697 0.0
C463 C 0.41397 0.14589 0.62558 0.0
C464 C 0.45154 0.16736 0.64435 0.0
C465 C 0.30718 0.99685 0.61712 0.0
C466 C 0.27492 0.85782 0.69199 0.0
C467 C 0.24686 0.89004 0.63732 0.0
C468 C 0.25189 0.85633 0.62897 0.0
C469 C 0.26603 0.84017 0.65654 0.0
N470 N 0.25554 0.90711 0.67219 0.0
C471 C 0.26947 0.89148 0.69934 0.0
Co472 Co 0.31431 0.34111 0.03443 0.0
Co473 Co 0.29917 0.24258 0.02397 0.0
O474 O 0.32822 0.29821 0.04638 0.0
C475 C 0.40528 0.38586 0.02285 0.0
O476 O 0.40151 0.35272 1.00647 0.0
C477 C 0.2946 0.22441 0.10502 0.0
O478 O 0.28421 0.25279 0.11023 0.0
O479 O 0.24438 0.23474 0.03886 0.0
O480 O 0.2544 0.29892 0.03187 0.0
H481 H 0.18994 0.12817 0.94605 0.0
H482 H 0.36572 0.35158 0.10075 0.0
O483 O 0.37383 0.38553 0.03667 0.0
H484 H 0.24177 0.35028 0.14909 0.0
H485 H 0.32416 0.48004 0.04772 0.0
H486 H 0.25698 0.34677 0.98084 0.0
H487 H 0.25018 0.34413 0.08167 0.0
H488 H 0.34219 0.4265 0.0623 0.0
O489 O 0.30255 0.21715 0.0723 0.0
H490 H 0.22676 0.19784 0.97396 0.0
H491 H 0.31049 0.1691 0.02763 0.0
H492 H 0.2376 0.39923 0.96578 0.0
H493 H 0.35879 0.35826 0.16844 0.0
H494 H 0.27126 0.46641 0.99936 0.0
H495 H 0.29638 0.35748 0.19299 0.0
O496 O 0.32031 0.33435 0.98013 0.0
H497 H 0.44711 0.28172 0.04468 0.0
H498 H 0.33389 0.23141 0.95291 0.0
H499 H 0.4019 0.24258 0.93345 0.0
H500 H 0.45907 0.26783 0.97953 0.0
H501 H 0.37869 0.27051 0.06286 0.0
H502 H 0.27433 0.09898 1.00058 0.0
H503 H 0.21368 0.07817 0.95934 0.0
O504 O 0.2946 0.26576 0.97499 0.0
C505 C 0.23123 0.26019 0.03672 0.0
C506 C 0.2164 0.1369 0.96389 0.0
C507 C 0.26373 0.1205 0.99453 0.0
N508 N 0.27091 0.18764 1.00219 0.0
C509 C 0.23745 0.17636 0.97969 0.0
C510 C 0.28402 0.16023 0.00984 0.0
C511 C 0.22971 0.10886 0.97139 0.0
C512 C 0.33868 0.35163 0.11125 0.0
N513 N 0.30848 0.34761 0.08731 0.0
C514 C 0.33484 0.35525 0.14958 0.0
C515 C 0.29979 0.35475 0.16335 0.0
C516 C 0.26913 0.35069 0.13874 0.0
C517 C 0.27401 0.34711 0.10059 0.0
C518 C 0.30923 0.45086 0.03293 0.0
C519 C 0.27166 0.37587 0.99569 0.0
C520 C 0.31942 0.42048 0.04098 0.0
N521 N 0.30048 0.38343 0.0226 0.0
C522 C 0.26062 0.40549 0.98697 0.0
C523 C 0.27954 0.44319 1.00581 0.0
C524 C 0.3068 0.30139 0.9609 0.0
C525 C 0.42241 0.27059 0.02438 0.0
C526 C 0.35865 0.24256 0.97309 0.0
C527 C 0.39707 0.24872 0.96193 0.0
C528 C 0.42912 0.26285 0.9878 0.0
N529 N 0.35231 0.25016 0.00904 0.0
C530 C 0.38357 0.26403 0.03455 0.0
Co531 Co 0.98361 0.31606 0.3624 0.0
Co532 Co 0.06968 0.30507 0.35851 0.0
O533 O 0.04 0.33214 0.37812 0.0
C534 C 0.02775 0.40741 0.35253 0.0
O535 O 0.05893 0.40534 0.3382 0.0
C536 C 0.07894 0.30116 0.44053 0.0
O537 O 0.03964 0.28949 0.44369 0.0
O538 O 0.02322 0.24943 0.37228 0.0
O539 O 0.96831 0.25668 0.35978 0.0
H540 H 0.08403 0.19841 0.28508 0.0
H541 H 0.01796 0.36673 0.43048 0.0
O542 O 0.99625 0.3749 0.36457 0.0
H543 H 0.89482 0.23863 0.47235 0.0
H544 H 0.85068 0.3193 0.36626 0.0
H545 H 0.92599 0.25839 0.30551 0.0
H546 H 0.91442 0.2491 0.40598 0.0
H547 H 0.9217 0.33991 0.38557 0.0
O548 O 0.09597 0.30961 0.40854 0.0
H549 H 0.04737 0.23284 0.30957 0.0
H550 H 0.15543 0.32015 0.36723 0.0
H551 H 0.85484 0.23653 0.28567 0.0
H552 H 0.99921 0.35776 0.49714 0.0
H553 H 0.81665 0.26698 0.31619 0.0
H554 H 0.93732 0.29324 0.51845 0.0
O555 O 1.00047 0.32367 0.30907 0.0
H556 H 0.17322 0.4547 0.38126 0.0
H557 H 0.11928 0.34122 0.28941 0.0
H558 H 0.17559 0.41037 0.2714 0.0
H559 H 0.20299 0.46767 0.31752 0.0
H560 H 0.11663 0.38513 0.39797 0.0
H561 H 0.19315 0.28641 0.34368 0.0
H562 H 0.15746 0.22519 0.30214 0.0
O563 O 0.04455 0.29934 0.30788 0.0
C564 C 0.9847 0.23473 0.36703 0.0
C565 C 0.09996 0.22515 0.30305 0.0
C566 C 0.16118 0.2745 0.33598 0.0
N567 N 0.09931 0.27867 0.33954 0.0
C568 C 0.07939 0.24485 0.31691 0.0
C569 C 0.13963 0.29342 0.34929 0.0
C570 C 0.14115 0.24016 0.31267 0.0
C571 C 0.99076 0.33878 0.43954 0.0
N572 N 0.96726 0.30857 0.41439 0.0
C573 C 0.98039 0.33379 0.47731 0.0
C574 C 0.94569 0.29756 0.48925 0.0
C575 C 0.92184 0.26689 0.46341 0.0
C576 C 0.93317 0.27295 0.42588 0.0
C577 C 0.86697 0.30575 0.3528 0.0
C578 C 0.90954 0.2717 0.31901 0.0
C579 C 0.90725 0.3174 0.36353 0.0
N580 N 0.9279 0.30018 0.34685 0.0
C581 C 0.86928 0.25926 0.3076 0.0
C582 C 0.84789 0.27639 0.32471 0.0
C583 C 0.02155 0.31079 0.29169 0.0
C584 C 0.16163 0.42995 0.36095 0.0
C585 C 0.13092 0.36603 0.30959 0.0
C586 C 0.16289 0.4051 0.29926 0.0
C587 C 0.17827 0.43723 0.32517 0.0
N588 N 0.11481 0.35914 0.34477 0.0
C589 C 0.12972 0.39047 0.37031 0.0
Co590 Co 0.66967 0.98309 0.69885 0.0
Co591 Co 0.765 0.06767 0.67728 0.0
O592 O 0.71246 0.04142 0.70497 0.0
C593 C 0.62236 0.02621 0.68577 0.0
O594 O 0.65384 0.05417 0.66655 0.0
C595 C 0.7928 0.08794 0.75645 0.0
O596 O 0.76538 0.04981 0.76549 0.0
O597 O 0.77634 0.02255 0.69117 0.0
O598 O 0.71274 0.96685 0.69583 0.0
H599 H 0.87009 0.07093 0.58816 0.0
H600 H 0.66449 0.03089 0.76225 0.0
O601 O 0.62449 0.99696 0.70178 0.0
H602 H 0.67391 0.91572 0.81907 0.0
H603 H 0.53471 0.85406 0.7271 0.0
H604 H 0.66106 0.91477 0.65063 0.0
H605 H 0.67302 0.92232 0.75074 0.0
H606 H 0.58782 0.92754 0.73412 0.0
O607 O 0.79585 0.09994 0.72275 0.0
H608 H 0.80471 0.03836 0.62329 0.0
H609 H 0.83675 0.15364 0.67334 0.0
H610 H 0.60904 0.84096 0.64317 0.0
H611 H 0.66488 0.02527 0.83079 0.0
H612 H 0.54532 0.81017 0.68156 0.0
H613 H 0.66977 0.96742 0.8596 0.0
O614 O 0.67047 0.98935 0.64358 0.0
H615 H 0.7245 0.17492 0.70194 0.0
H616 H 0.76597 0.10877 0.60561 0.0
H617 H 0.75033 0.16311 0.58747 0.0
H618 H 0.72949 0.19664 0.63582 0.0
H619 H 0.74006 0.12015 0.71881 0.0
H620 H 0.9027 0.18739 0.63906 0.0
H621 H 0.91963 0.146 0.59596 0.0
O622 O 0.7364 0.03676 0.63097 0.0
C623 C 0.75189 0.98381 0.6949 0.0
C624 C 0.86302 0.08933 0.60678 0.0
C625 C 0.88134 0.15468 0.63538 0.0
N626 N 0.81676 0.09411 0.65012 0.0
C627 C 0.82598 0.07107 0.62666 0.0
C628 C 0.84399 0.13537 0.65479 0.0
C629 C 0.89081 0.13144 0.61119 0.0
C630 C 0.66626 1.00545 0.77464 0.0
N631 N 0.66866 0.97695 0.75257 0.0
C632 C 0.66661 1.0025 0.81343 0.0
C633 C 0.66941 0.97007 0.82958 0.0
C634 C 0.67177 0.94106 0.80686 0.0
C635 C 0.67137 0.94503 0.76818 0.0
C636 C 0.56238 0.86711 0.71024 0.0
C637 C 0.6335 0.90154 0.66758 0.0
C638 C 0.59249 0.90875 0.71398 0.0
N639 N 0.62764 0.92539 0.69296 0.0
C640 C 0.60411 0.85976 0.66315 0.0
C641 C 0.56835 0.8425 0.68469 0.0
C642 C 0.70005 0.00967 0.62087 0.0
C643 C 0.73367 0.16064 0.68063 0.0
C644 C 0.7568 0.12311 0.62681 0.0
C645 C 0.74808 0.15394 0.61637 0.0
C646 C 0.73642 0.17276 0.64352 0.0
N647 N 0.7541 0.11144 0.66328 0.0
C648 C 0.74269 0.12974 0.69005 0.0
Co649 Co 0.69174 0.66203 0.02199 0.0
Co650 Co 0.7016 0.75837 0.01257 0.0
O651 O 0.67697 0.70367 0.03637 0.0
C652 C 0.60036 0.61479 0.0186 0.0
O653 O 0.60194 0.64714 1.00259 0.0
C654 C 0.71379 0.77849 0.09322 0.0
O655 O 0.72618 0.75137 0.0962 0.0
O656 O 0.75837 0.76887 0.02281 0.0
O657 O 0.75044 0.70583 0.01349 0.0
H658 H 0.79945 0.87186 0.92717 0.0
H659 H 0.64793 0.65174 0.09327 0.0
O660 O 0.6334 0.61619 0.02956 0.0
H661 H 0.78063 0.66268 0.12779 0.0
H662 H 0.68978 0.52672 0.03358 0.0
H663 H 0.74341 0.65636 0.96224 0.0
H664 H 0.76336 0.66508 0.06185 0.0
H665 H 0.67074 0.57886 0.05096 0.0
O666 O 0.70208 0.78466 0.06171 0.0
H667 H 0.768 0.80327 0.95704 0.0
H668 H 0.68752 0.82997 0.01903 0.0
H669 H 0.76361 0.60527 0.94418 0.0
H670 H 0.66377 0.64875 0.15961 0.0
H671 H 0.73685 0.53996 0.98005 0.0
H672 H 0.73061 0.65439 0.17721 0.0
O673 O 0.67864 0.66598 0.96906 0.0
H674 H 0.55508 0.71469 0.04604 0.0
H675 H 0.6585 0.76544 0.9453 0.0
H676 H 0.58786 0.75107 0.93201 0.0
H677 H 0.53561 0.72559 0.98261 0.0
H678 H 0.62601 0.72906 0.05802 0.0
H679 H 0.7184 0.89903 0.99013 0.0
H680 H 0.77465 0.92029 0.9437 0.0
O681 O 0.70201 0.73403 0.9626 0.0
C682 C 0.77277 0.74479 0.01771 0.0
C683 C 0.77487 0.86291 0.94727 0.0
C684 C 0.72942 0.87817 0.98264 0.0
N685 N 0.72574 0.81249 0.98951 0.0
C686 C 0.75685 0.82406 0.96419 0.0
C687 C 0.71212 0.83907 0.99898 0.0
C688 C 0.76097 0.89008 0.95659 0.0
C689 C 0.67687 0.65375 0.10074 0.0
N690 N 0.70458 0.65839 0.07375 0.0
C691 C 0.68575 0.65223 0.13833 0.0
C692 C 0.7233 0.65547 0.14819 0.0
C693 C 0.75139 0.66015 0.12048 0.0
C694 C 0.74147 0.6616 0.08318 0.0
C695 C 0.70173 0.55511 0.01779 0.0
C696 C 0.73171 0.62807 0.97805 0.0
C697 C 0.69095 0.58469 0.02743 0.0
N698 N 0.7062 0.62077 0.00781 0.0
C699 C 0.74319 0.59921 0.96764 0.0
C700 C 0.72813 0.56255 0.98776 0.0
C701 C 0.68896 0.6979 0.94912 0.0
C702 C 0.57761 0.7259 0.02379 0.0
C703 C 0.6359 0.75419 0.96744 0.0
C704 C 0.59597 0.74622 0.95976 0.0
C705 C 0.56668 0.73195 0.98818 0.0
N706 N 0.64638 0.74821 1.00245 0.0
C707 C 0.61784 0.73425 0.03045 0.0
H708 H 0.3007 0.14052 0.25632 0.0
H709 H 0.2919 0.04714 0.18 0.0
H710 H 0.29131 0.08829 0.12723 0.0
H711 H 0.29317 0.15078 0.10271 0.0
H712 H 0.29889 0.24262 0.17925 0.0
H713 H 0.30089 0.20212 0.23192 0.0
C714 C 0.29873 0.12915 0.22815 0.0
C715 C 0.29649 0.09077 0.22219 0.0
C716 C 0.29788 0.15275 0.19794 0.0
C717 C 0.29355 0.07644 0.18546 0.0
C718 C 0.29331 0.10004 0.15524 0.0
C719 C 0.29502 0.16205 0.13091 0.0
C720 C 0.29608 0.19986 0.13696 0.0
C721 C 0.29548 0.13824 0.16113 0.0
C722 C 0.29798 0.21367 0.17374 0.0
C723 C 0.29917 0.19052 0.2039 0.0
H724 H 0.16131 0.30787 0.59667 0.0
H725 H 0.24925 0.29896 0.52526 0.0
H726 H 0.2105 0.29878 0.47031 0.0
H727 H 0.15132 0.30047 0.44242 0.0
H728 H 0.0613 0.30569 0.51375 0.0
H729 H 0.10117 0.30805 0.56874 0.0
C730 C 0.17208 0.30601 0.56907 0.0
C731 C 0.20826 0.30354 0.56514 0.0
C732 C 0.14924 0.30524 0.53754 0.0
C733 C 0.22148 0.30074 0.52916 0.0
C734 C 0.19937 0.30073 0.49768 0.0
C735 C 0.14049 0.30234 0.46998 0.0
C736 C 0.10342 0.30312 0.4739 0.0
C737 C 0.16318 0.3029 0.50152 0.0
C738 C 0.08965 0.305 0.50989 0.0
C739 C 0.11248 0.30639 0.54137 0.0
H740 H 0.78545 0.08169 0.83231 0.0
H741 H 0.86476 0.16029 0.74464 0.0
H742 H 0.9129 0.20815 0.79081 0.0
H743 H 0.93308 0.22785 0.85639 0.0
H744 H 0.85219 0.15069 0.94394 0.0
H745 H 0.80445 0.10255 0.89777 0.0
C746 C 0.81328 0.10926 0.82331 0.0
C747 C 0.82142 0.11717 0.78499 0.0
C748 C 0.84073 0.13712 0.85009 0.0
C749 C 0.85753 0.15335 0.7739 0.0
C750 C 0.88522 0.18079 0.80033 0.0
C751 C 0.90503 0.20049 0.86535 0.0
C752 C 0.89644 0.19298 0.90367 0.0
C753 C 0.87723 0.17301 0.83854 0.0
C754 C 0.85967 0.15747 0.9147 0.0
C755 C 0.83229 0.12976 0.88827 0.0
H756 H 0.71275 0.851 0.09438 0.0
H757 H 0.71621 0.76036 0.16652 0.0
H758 H 0.71771 0.80011 0.2212 0.0
H759 H 0.71884 0.8609 0.24861 0.0
H760 H 0.71898 0.95352 0.1767 0.0
H761 H 0.71532 0.91276 0.12192 0.0
C762 C 0.71365 0.83984 0.12208 0.0
C763 C 0.7142 0.8026 0.12631 0.0
C764 C 0.71526 0.86328 0.15346 0.0
C765 C 0.71585 0.7889 0.16241 0.0
C766 C 0.71665 0.81161 0.19372 0.0
C767 C 0.71791 0.87215 0.22097 0.0
C768 C 0.719 0.9102 0.21684 0.0
C769 C 0.71648 0.84888 0.18959 0.0
C770 C 0.71825 0.92444 0.18074 0.0
C771 C 0.71609 0.90108 0.14938 0.0
H772 H 0.86568 0.71347 0.42462 0.0
H773 H 0.96032 0.71983 0.49778 0.0
H774 H 0.92106 0.72019 0.55201 0.0
H775 H 0.86012 0.71917 0.57882 0.0
H776 H 0.767 0.71627 0.50583 0.0
H777 H 0.80534 0.71406 0.4515 0.0
C778 C 0.87769 0.71484 0.45244 0.0
C779 C 0.91593 0.71651 0.45705 0.0
C780 C 0.8552 0.71567 0.48358 0.0
C781 C 0.93112 0.71866 0.49333 0.0
C782 C 0.90862 0.71877 0.52441 0.0
C783 C 0.84807 0.71786 0.55104 0.0
C784 C 0.81055 0.71767 0.54647 0.0
C785 C 0.87065 0.71733 0.51989 0.0
C786 C 0.79576 0.7165 0.5102 0.0
C787 C 0.81767 0.71519 0.4791 0.0
H788 H 0.16136 0.87117 0.76397 0.0
H789 H 0.24879 0.96384 0.8393 0.0
H790 H 0.20956 0.92159 0.89261 0.0
H791 H 0.15005 0.85854 0.91785 0.0
H792 H 0.06125 0.76745 0.84226 0.0
H793 H 0.10152 0.80885 0.78907 0.0
C794 C 0.17199 0.88217 0.79203 0.0
C795 C 0.20814 0.92068 0.79754 0.0
C796 C 0.14901 0.85794 0.82254 0.0
C797 C 0.22109 0.93445 0.83418 0.0
C798 C 0.19869 0.91023 0.8647 0.0
C799 C 0.1396 0.8476 0.88974 0.0
C800 C 0.10269 0.80976 0.88411 0.0
C801 C 0.16259 0.87193 0.85922 0.0
C802 C 0.08944 0.79639 0.84745 0.0
C803 C 0.11249 0.82006 0.817 0.0
H804 H 0.43051 0.95555 0.31938 0.0
H805 H 0.49829 0.08893 0.32213 0.0
H806 H 0.56349 0.08848 0.32329 0.0
H807 H 0.60093 0.05012 0.3262 0.0
H808 H 0.53287 0.9167 0.32817 0.0
H809 H 0.46794 0.9172 0.32251 0.0
C810 C 0.45956 0.98456 0.31975 0.0
C811 C 0.45959 0.02229 0.32034 0.0
C812 C 0.4968 0.984 0.32155 0.0
C813 C 0.49747 0.05954 0.32157 0.0
C814 C 0.53471 0.05926 0.32229 0.0
C815 C 0.57192 0.02111 0.3251 0.0
C816 C 0.57176 0.98337 0.32745 0.0
C817 C 0.53472 0.02167 0.32269 0.0
C818 C 0.53385 0.94612 0.32649 0.0
C819 C 0.49673 0.94641 0.3232 0.0
H820 H 0.55114 0.59935 0.66384 0.0
H821 H 0.61663 0.53169 0.66362 0.0
H822 H 0.55093 0.46626 0.66372 0.0
H823 H 0.47494 0.42838 0.66548 0.0
H824 H 0.40972 0.49619 0.67055 0.0
H825 H 0.47527 0.56153 0.66688 0.0
C826 C 0.55105 0.57028 0.66351 0.0
C827 C 0.58875 0.57037 0.66343 0.0
C828 C 0.51321 0.53285 0.66456 0.0
C829 C 0.58807 0.53245 0.66367 0.0
C830 C 0.55052 0.49505 0.6637 0.0
C831 C 0.47505 0.45746 0.6655 0.0
C832 C 0.43746 0.45744 0.66803 0.0
C833 C 0.5129 0.49489 0.66436 0.0
C834 C 0.43819 0.49538 0.66865 0.0
C835 C 0.47566 0.53272 0.66651 0.0
H836 H 0.96091 0.5465 0.99756 0.0
H837 H 0.09405 0.61181 0.9994 0.0
H838 H 0.09331 0.54584 0.99761 0.0
H839 H 0.0546 0.46954 0.99676 0.0
H840 H 0.92151 0.40467 1.00017 0.0
H841 H 0.92237 0.4706 0.99846 0.0
C842 C 0.98981 0.54635 0.99732 0.0
C843 C 0.02754 0.58403 0.9983 0.0
C844 C 0.98908 0.50838 0.99723 0.0
C845 C 0.06465 0.58325 0.99867 0.0
C846 C 0.06421 0.54555 0.99757 0.0
C847 C 0.02579 0.46987 0.99679 0.0
C848 C 0.98797 0.43228 0.99821 0.0
C849 C 0.02659 0.50792 0.99696 0.0
C850 C 0.95094 0.43317 0.999 0.0
C851 C 0.95144 0.47084 0.99803 0.0
H852 H 0.05623 0.58911 0.35464 0.0
H853 H 0.92317 0.52164 0.34949 0.0
H854 H 0.92326 0.45614 0.35104 0.0
H855 H 0.96124 0.4182 0.35293 0.0
H856 H 0.09443 0.4857 0.35327 0.0
H857 H 0.09427 0.55117 0.35451 0.0
C858 C 0.02722 0.56005 0.35412 0.0
C859 C 0.98968 0.56019 0.3523 0.0
C860 C 0.0276 0.52261 0.35403 0.0
C861 C 0.95242 0.52233 0.35093 0.0
C862 C 0.95249 0.48491 0.35184 0.0
C863 C 0.99025 0.44724 0.35347 0.0
C864 C 0.02784 0.44711 0.3533 0.0
C865 C 0.98989 0.48469 0.35328 0.0
C866 C 0.06513 0.48499 0.35338 0.0
C867 C 0.06503 0.52239 0.35415 0.0
H868 H 0.54519 0.96039 0.69399 0.0
H869 H 0.61124 0.09277 0.67925 0.0
H870 H 0.54596 0.09309 0.6801 0.0
H871 H 0.47021 0.05557 0.68367 0.0
H872 H 0.40371 0.9226 0.69313 0.0
H873 H 0.46916 0.92259 0.69575 0.0
C874 C 0.5453 0.98935 0.69124 0.0
C875 C 0.58301 0.02661 0.68689 0.0
C876 C 0.50761 0.98911 0.69071 0.0
C877 C 0.58263 0.06376 0.68265 0.0
C878 C 0.54534 0.06393 0.68317 0.0
C879 C 0.47002 0.02659 0.68662 0.0
C880 C 0.43216 0.98912 0.68859 0.0
C881 C 0.50766 0.02678 0.68703 0.0
C882 C 0.43243 0.9518 0.69163 0.0
C883 C 0.46983 0.95182 0.69315 0.0
H884 H 0.41808 0.46386 0.02695 0.0
H885 H 0.48269 0.39563 0.01908 0.0
H886 H 0.54893 0.46057 0.01917 0.0
H887 H 0.5883 0.53681 0.02017 0.0
H888 H 0.52312 0.60473 0.02298 0.0
H889 H 0.45718 0.5398 0.02632 0.0
C890 C 0.44667 0.46317 0.02551 0.0
C891 C 0.44551 0.42495 0.02332 0.0
C892 C 0.48447 0.50057 0.02461 0.0
C893 C 0.48278 0.42462 0.0208 0.0
C894 C 0.52063 0.46173 0.02089 0.0
C895 C 0.55965 0.53737 0.02181 0.0
C896 C 0.56056 0.57553 0.02165 0.0
C897 C 0.52183 0.49989 0.02265 0.0
C898 C 0.5232 0.57578 0.02309 0.0
C899 C 0.48553 0.53867 0.02501 0.0
H900 H 0.09142 0.82089 0.40159 0.0
H901 H 0.03961 0.82325 0.29515 0.0
H902 H 0.10008 0.89086 0.2814 0.0
H903 H 0.17341 0.94289 0.29556 0.0
H904 H 0.22457 0.93749 0.40168 0.0
H905 H 0.15887 0.87804 0.41998 0.0
C906 C 0.09288 0.83696 0.37595 0.0
C907 C 0.06137 0.81744 0.34944 0.0
C908 C 0.12806 0.87507 0.36799 0.0
C909 C 0.06338 0.83816 0.31618 0.0
C910 C 0.09822 0.87653 0.30813 0.0
C911 C 0.16949 0.92941 0.32307 0.0
C912 C 0.20355 0.94415 0.34725 0.0
C913 C 0.1316 0.89446 0.33318 0.0
C914 C 0.19859 0.92633 0.38269 0.0
C915 C 0.16114 0.89229 0.39311 0.0
H916 H 0.26583 0.19405 0.62186 0.0
H917 H 0.22973 0.19971 0.73451 0.0
H918 H 0.22027 0.13099 0.74731 0.0
H919 H 0.23462 0.07515 0.72901 0.0
H920 H 0.27268 0.07194 0.61636 0.0
H921 H 0.26826 0.13305 0.6006 0.0
C922 C 0.25439 0.17941 0.64873 0.0
C923 C 0.24807 0.20135 0.67712 0.0
C924 C 0.24987 0.14045 0.65595 0.0
C925 C 0.23399 0.18278 0.7121 0.0
C926 C 0.22909 0.14374 0.71951 0.0
C927 C 0.24031 0.08705 0.70076 0.0
C928 C 0.25387 0.06928 0.67381 0.0
C929 C 0.23858 0.12299 0.69207 0.0
C930 C 0.26203 0.08523 0.63741 0.0
C931 C 0.25979 0.12031 0.62845 0.0
H932 H 0.17553 0.22997 0.98097 0.0
H933 H 0.1899 0.26162 0.09754 0.0
H934 H 0.12277 0.25801 0.098 0.0
H935 H 0.06644 0.25777 0.06257 0.0
H936 H 0.05331 0.22971 0.94531 0.0
H937 H 0.11302 0.21922 0.94749 0.0
C938 C 0.16295 0.23431 1.0067 0.0
C939 C 0.18691 0.24535 0.03935 0.0
C940 C 0.12493 0.2334 1.00635 0.0
C941 C 0.17135 0.25231 0.07237 0.0
C942 C 0.13326 0.25068 0.0725 0.0
C943 C 0.07594 0.24791 0.03788 0.0
C944 C 0.05565 0.244 1.00394 0.0
C945 C 0.11065 0.24294 0.03932 0.0
C946 C 0.0683 0.2321 0.9718 0.0
C947 C 0.10261 0.22655 0.97303 0.0
H948 H 0.96156 0.17878 0.31153 0.0
H949 H 0.94198 0.19277 0.42759 0.0
H950 H 0.87962 0.12451 0.42779 0.0
H951 H 0.82496 0.0672 0.39211 0.0
H952 H 0.8425 0.05343 0.27554 0.0
H953 H 0.91184 0.11478 0.27816 0.0
C954 C 0.94443 0.16591 0.33711 0.0
C955 C 0.95627 0.19009 0.36967 0.0
C956 C 0.90808 0.12707 0.33666 0.0
C957 C 0.93355 0.17409 0.40252 0.0
C958 C 0.89776 0.13535 0.40248 0.0
C959 C 0.84467 0.07697 0.36765 0.0
C960 C 0.82913 0.05616 0.33372 0.0
C961 C 0.88387 0.11243 0.36936 0.0
C962 C 0.85434 0.0689 0.302 0.0
C963 C 0.89369 0.10416 0.30346 0.0
H964 H 0.75845 0.82339 0.71807 0.0
H965 H 0.79077 0.84271 0.60181 0.0
H966 H 0.8001 0.9126 0.60543 0.0
H967 H 0.7864 0.96233 0.63947 0.0
H968 H 0.75032 0.93992 0.75489 0.0
H969 H 0.7559 0.87751 0.75436 0.0
C970 C 0.76886 0.84358 0.6939 0.0
C971 C 0.77405 0.82843 0.65978 0.0
C972 C 0.77313 0.88296 0.69613 0.0
C973 C 0.78713 0.85423 0.62841 0.0
C974 C 0.79203 0.89392 0.63046 0.0
C975 C 0.78156 0.94461 0.6648 0.0
C976 C 0.76837 0.95559 0.69731 0.0
C977 C 0.78348 0.90794 0.66383 0.0
C978 C 0.76091 0.93203 0.72977 0.0
C979 C 0.76374 0.89622 0.72935 0.0
H980 H 0.81608 0.74847 0.95709 0.0
H981 H 0.82817 0.77649 0.07436 0.0
H982 H 0.89891 0.78838 0.07381 0.0
H983 H 0.95218 0.77908 0.04168 0.0
H984 H 0.93878 0.74942 0.92469 0.0
H985 H 0.87408 0.75075 0.92283 0.0
C986 C 0.83488 0.75853 0.98215 0.0
C987 C 0.81754 0.7619 0.01567 0.0
C988 C 0.87509 0.76476 0.98157 0.0
C989 C 0.84146 0.77433 0.04824 0.0
C990 C 0.88165 0.78075 0.04793 0.0
C991 C 0.93584 0.77473 0.01556 0.0
C992 C 0.95013 0.76479 0.98321 0.0
C993 C 0.89821 0.77458 0.01502 0.0
C994 C 0.92845 0.7579 0.94965 0.0
C995 C 0.8913 0.75818 0.94872 0.0
H996 H 0.28179 0.01602 0.44667 0.0
H997 H 0.39116 1.00585 0.4373 0.0
H998 H 0.39381 1.00089 0.50541 0.0
H999 H 0.36412 0.99905 0.56787 0.0
H1000 H 0.25167 1.0042 0.57475 0.0
H1001 H 0.25121 0.01171 0.50744 0.0
C1002 C 0.30643 0.01305 0.45952 0.0
C1003 C 0.33653 0.01183 0.43714 0.0
C1004 C 0.30709 0.00921 0.49828 0.0
C1005 C 0.3677 0.00697 0.45408 0.0
C1006 C 0.36922 1.00419 0.49296 0.0
C1007 C 0.33966 1.00189 0.55448 0.0
C1008 C 0.30797 1.00104 0.57619 0.0
C1009 C 0.339 1.00523 0.51539 0.0
C1010 C 0.27619 1.00437 0.55861 0.0
C1011 C 0.27596 0.00883 0.52013 0.0
H1012 H 0.36358 0.35563 0.91174 0.0
H1013 H 0.24009 0.25129 0.91947 0.0
H1014 H 0.23144 0.25263 0.85208 0.0
H1015 H 0.25929 0.28233 0.79098 0.0
H1016 H 0.38481 0.38237 0.78128 0.0
H1017 H 0.39267 0.3839 0.8493 0.0
C1018 C 0.33481 0.33345 0.89849 0.0
C1019 C 0.30239 0.30356 0.92031 0.0
C1020 C 0.33055 0.33355 0.85949 0.0
C1021 C 0.26542 0.27447 0.90306 0.0
C1022 C 0.26046 0.27526 0.8646 0.0
C1023 C 0.28827 0.30468 0.80378 0.0
C1024 C 0.32127 0.33251 0.7813 0.0
C1025 C 0.29284 0.3045 0.84256 0.0
C1026 C 0.35897 0.36068 0.79813 0.0
C1027 C 0.36342 0.36159 0.83696 0.0
H1028 H 0.01778 0.3633 0.24113 0.0
H1029 H 0.01593 0.24737 0.25095 0.0
H1030 H 1.00774 0.23744 0.18357 0.0
H1031 H 1.00084 0.2614 0.12188 0.0
H1032 H 1.00847 0.37985 0.11043 0.0
H1033 H 0.01492 0.38939 0.17826 0.0
C1034 C 0.01552 0.33593 0.22836 0.0
C1035 C 0.01725 0.30601 0.25084 0.0
C1036 C 0.01197 0.33096 0.18937 0.0
C1037 C 0.01487 0.27089 0.23411 0.0
C1038 C 0.01007 0.26513 0.19563 0.0
C1039 C 1.00386 0.28927 0.13429 0.0
C1040 C 1.00381 0.31972 0.11138 0.0
C1041 C 1.00856 0.29491 0.17301 0.0
C1042 C 1.0085 0.35603 0.12763 0.0
C1043 C 0.01204 0.3614 0.16635 0.0
H1044 H 0.64757 0.98318 0.45075 0.0
H1045 H 0.76868 0.99695 0.44086 0.0
H1046 H 0.77827 1.00554 0.50818 0.0
H1047 H 0.75298 0.01025 0.56971 0.0
H1048 H 0.63016 0.99143 0.5816 0.0
H1049 H 0.62016 0.98323 0.51383 0.0
C1050 C 0.67593 0.98799 0.46351 0.0
C1051 C 0.70743 0.98955 0.44099 0.0
C1052 C 0.68086 0.99187 0.50252 0.0
C1053 C 0.74391 0.99535 0.45771 0.0
C1054 C 0.74949 1.0004 0.49616 0.0
C1055 C 0.724 1.0043 0.55745 0.0
C1056 C 0.69249 1.00181 0.58046 0.0
C1057 C 0.71827 0.99885 0.5188 0.0
C1058 C 0.65482 0.99338 0.56436 0.0
C1059 C 0.6492 0.98889 0.52565 0.0
H1060 H 0.74356 0.75134 0.89916 0.0
H1061 H 0.63141 0.63355 0.90767 0.0
H1062 H 0.62931 0.62577 0.83971 0.0
H1063 H 0.66005 0.65254 0.77769 0.0
H1064 H 0.77555 0.76751 0.77057 0.0
H1065 H 0.77579 0.77637 0.838 0.0
C1066 C 0.71855 0.72411 0.88605 0.0
C1067 C 0.68745 0.69326 0.90819 0.0
C1068 C 0.7183 0.7193 0.84722 0.0
C1069 C 0.65565 0.6577 0.89106 0.0
C1070 C 0.65444 0.65329 0.85226 0.0
C1071 C 0.68518 0.67948 0.79103 0.0
C1072 C 0.7177 0.70934 0.76927 0.0
C1073 C 0.68567 0.68386 0.83003 0.0
C1074 C 0.75035 0.74393 0.7868 0.0
C1075 C 0.75043 0.74912 0.82532 0.0
H1076 H 0.98843 0.73467 0.23127 0.0
H1077 H 0.01818 0.6379 0.24458 0.0
H1078 H 0.02422 0.6344 0.17674 0.0
H1079 H 0.02162 0.65979 0.11334 0.0
H1080 H 0.99801 0.76095 0.10189 0.0
H1081 H 0.98871 0.76175 0.16921 0.0
C1082 C 0.99602 0.71266 0.21931 0.0
C1083 C 1.00247 0.68632 0.24278 0.0
C1084 C 1.00051 0.71166 0.18059 0.0
C1085 C 0.0131 0.65851 0.22699 0.0
C1086 C 0.01645 0.65644 0.18825 0.0
C1087 C 0.01424 0.68176 0.12577 0.0
C1088 C 0.01024 0.71012 0.10292 0.0
C1089 C 0.01026 0.68293 0.16473 0.0
C1090 C 1.00131 0.73895 0.11911 0.0
C1091 C 0.99595 0.73938 0.15752 0.0
loop_
_geom_bond_atom_site_label_1
_geom_bond_atom_site_label_2
_geom_bond_distance
_geom_bond_site_symmetry_2
_ccdc_geom_bond_type
Co0 O2 2.143 1_565 S
Co0 O8 2.074 . S
Co0 O11 2.093 . S
Co0 O24 2.097 1_565 S
Co0 N41 2.151 . S
Co0 N49 2.214 . S
Co1 O2 2.160 . S
Co1 O7 2.058 1_545 S
Co1 O17 2.057 . S
Co1 O32 2.037 . S
Co1 N36 2.145 . S
Co1 N57 2.257 . S
O2 Co0 2.143 1_545 S
O2 Co1 2.160 . S
C3 O4 1.278 . S
C3 O11 1.224 1_545 S
O4 C3 1.278 . S
C5 O6 1.245 . S
C5 O17 1.232 . S
O6 C5 1.245 . S
O7 Co1 2.058 1_565 S
O7 C33 1.269 . S
O8 Co0 2.074 . S
O8 C33 1.257 . S
H9 C34 0.930 . S
H10 C40 0.930 . S
O11 Co0 2.093 . S
O11 C3 1.224 1_565 S
H12 C44 0.929 . S
H13 C46 0.930 . S
H14 C47 0.930 . S
H15 C45 0.929 . S
H16 C48 0.928 . S
O17 Co1 2.057 . S
O17 C5 1.232 . S
H18 C37 0.929 . S
H19 C38 0.929 . S
H20 C50 0.931 . S
H21 C42 0.929 . S
H22 C51 0.930 . S
H23 C43 0.931 . S
O24 Co0 2.097 1_545 S
O24 C52 1.214 . S
H25 C53 0.929 . S
H26 C54 0.929 . S
H27 C55 0.930 . S
H28 C56 0.929 . S
H29 C58 0.930 . S
H30 C35 0.930 . S
H31 C39 0.930 . S
O32 Co1 2.037 . S
O32 C52 1.234 . S
C33 O7 1.269 . S
C33 O8 1.257 . S
C34 H9 0.930 . S
C34 C37 1.388 . S
C34 C39 1.418 . S
C35 H30 0.930 . S
C35 C38 1.404 . S
C35 C39 1.353 . S
N36 Co1 2.145 . S
N36 C37 1.397 . S
N36 C38 1.334 . S
C37 H18 0.929 . S
C37 C34 1.388 . S
C37 N36 1.397 . S
C38 H19 0.929 . S
C38 C35 1.404 . S
C38 N36 1.334 . S
C39 H31 0.930 . S
C39 C34 1.418 . S
C39 C35 1.353 . S
C40 H10 0.930 . S
C40 N41 1.330 . S
C40 C42 1.446 . S
N41 Co0 2.151 . S
N41 C40 1.330 . S
N41 C45 1.418 . S
C42 H21 0.929 . S
C42 C40 1.446 . S
C42 C43 1.332 . S
C43 H23 0.931 . S
C43 C42 1.332 . S
C43 C44 1.267 . S
C44 H12 0.929 . S
C44 C43 1.267 . S
C44 C45 1.251 . S
C45 H15 0.929 . S
C45 N41 1.418 . S
C45 C44 1.251 . S
C46 H13 0.930 . S
C46 C48 1.406 . S
C46 C51 1.261 . S
C47 H14 0.930 . S
C47 N49 1.325 . S
C47 C50 1.357 . S
C48 H16 0.928 . S
C48 C46 1.406 . S
C48 N49 1.261 . S
N49 Co0 2.214 . S
N49 C47 1.325 . S
N49 C48 1.261 . S
C50 H20 0.931 . S
C50 C47 1.357 . S
C50 C51 1.312 . S
C51 H22 0.930 . S
C51 C46 1.261 . S
C51 C50 1.312 . S
C52 O24 1.214 . S
C52 O32 1.234 . S
C53 H25 0.929 . S
C53 C56 1.391 . S
C53 C58 1.391 . S
C54 H26 0.929 . S
C54 C55 1.390 . S
C54 N57 1.391 . S
C55 H27 0.930 . S
C55 C54 1.390 . S
C55 C56 1.392 . S
C56 H28 0.929 . S
C56 C53 1.391 . S
C56 C55 1.392 . S
N57 Co1 2.257 . S
N57 C54 1.391 . S
N57 C58 1.388 . S
C58 H29 0.930 . S
C58 C53 1.391 . S
C58 N57 1.388 . S
Co59 O61 2.143 . S
Co59 O67 2.074 . S
Co59 O70 2.093 . S
Co59 O83 2.097 . S
Co59 N100 2.151 . S
Co59 N108 2.214 . S
Co60 O61 2.160 . S
Co60 O66 2.058 . S
Co60 O76 2.057 . S
Co60 O91 2.037 . S
Co60 N95 2.145 . S
Co60 N116 2.257 . S
O61 Co59 2.143 . S
O61 Co60 2.160 . S
C62 O63 1.278 . S
C62 O70 1.224 . S
O63 C62 1.278 . S
C64 O65 1.245 . S
C64 O76 1.232 . S
O65 C64 1.245 . S
O66 Co60 2.058 . S
O66 C92 1.269 . S
O67 Co59 2.074 . S
O67 C92 1.257 . S
H68 C93 0.930 . S
H69 C99 0.930 . S
O70 Co59 2.093 . S
O70 C62 1.224 . S
H71 C103 0.929 . S
H72 C105 0.930 . S
H73 C106 0.930 . S
H74 C104 0.929 . S
H75 C107 0.928 . S
O76 Co60 2.057 . S
O76 C64 1.232 . S
H77 C96 0.929 . S
H78 C97 0.929 . S
H79 C109 0.931 . S
H80 C101 0.929 . S
H81 C110 0.930 . S
H82 C102 0.931 . S
O83 Co59 2.097 . S
O83 C111 1.214 . S
H84 C112 0.929 . S
H85 C113 0.929 . S
H86 C114 0.930 . S
H87 C115 0.929 . S
H88 C117 0.930 . S
H89 C94 0.930 . S
H90 C98 0.930 . S
O91 Co60 2.037 . S
O91 C111 1.234 . S
C92 O66 1.269 . S
C92 O67 1.257 . S
C93 H68 0.930 . S
C93 C96 1.388 . S
C93 C98 1.418 . S
C94 H89 0.930 . S
C94 C97 1.404 . S
C94 C98 1.353 . S
N95 Co60 2.145 . S
N95 C96 1.397 . S
N95 C97 1.334 . S
C96 H77 0.929 . S
C96 C93 1.388 . S
C96 N95 1.397 . S
C97 H78 0.929 . S
C97 C94 1.404 . S
C97 N95 1.334 . S
C98 H90 0.930 . S
C98 C93 1.418 . S
C98 C94 1.353 . S
C99 H69 0.930 . S
C99 N100 1.330 . S
C99 C101 1.446 . S
N100 Co59 2.151 . S
N100 C99 1.330 . S
N100 C104 1.418 . S
C101 H80 0.929 . S
C101 C99 1.446 . S
C101 C102 1.332 . S
C102 H82 0.931 . S
C102 C101 1.332 . S
C102 C103 1.267 . S
C103 H71 0.929 . S
C103 C102 1.267 . S
C103 C104 1.251 . S
C104 H74 0.929 . S
C104 N100 1.418 . S
C104 C103 1.251 . S
C105 H72 0.930 . S
C105 C107 1.406 . S
C105 C110 1.261 . S
C106 H73 0.930 . S
C106 N108 1.325 . S
C106 C109 1.357 . S
C107 H75 0.928 . S
C107 C105 1.406 . S
C107 N108 1.261 . S
N108 Co59 2.214 . S
N108 C106 1.325 . S
N108 C107 1.261 . S
C109 H79 0.931 . S
C109 C106 1.357 . S
C109 C110 1.312 . S
C110 H81 0.930 . S
C110 C105 1.261 . S
C110 C109 1.312 . S
C111 O83 1.214 . S
C111 O91 1.234 . S
C112 H84 0.929 . S
C112 C115 1.391 . S
C112 C117 1.391 . S
C113 H85 0.929 . S
C113 C114 1.390 . S
C113 N116 1.391 . S
C114 H86 0.930 . S
C114 C113 1.390 . S
C114 C115 1.392 . S
C115 H87 0.929 . S
C115 C112 1.391 . S
C115 C114 1.392 . S
N116 Co60 2.257 . S
N116 C113 1.391 . S
N116 C117 1.388 . S
C117 H88 0.930 . S
C117 C112 1.391 . S
C117 N116 1.388 . S
Co118 O120 2.143 1_454 S
Co118 O126 2.074 . S
Co118 O129 2.093 . S
Co118 O142 2.097 1_455 S
Co118 N159 2.151 1_554 S
Co118 N167 2.214 . S
Co119 O120 2.166 . S
Co119 O125 2.063 1_655 S
Co119 O135 2.073 . S
Co119 O150 2.020 1_556 S
Co119 N154 2.139 1_556 S
Co119 N175 2.252 1_556 S
O120 Co118 2.143 1_656 S
O120 Co119 2.166 . S
C121 O122 1.278 . S
C121 O129 1.219 1_656 S
O122 C121 1.278 . S
C123 O124 1.245 . S
C123 O135 1.232 . S
O124 C123 1.245 . S
O125 Co119 2.063 1_455 S
O125 C151 1.269 . S
O126 Co118 2.074 . S
O126 C151 1.257 1_554 S
H127 C152 0.930 . S
H128 C158 0.930 . S
O129 Co118 2.093 . S
O129 C121 1.219 1_454 S
H130 C162 0.929 . S
H131 C164 0.930 . S
H132 C165 0.930 . S
H133 C163 0.929 . S
H134 C166 0.928 . S
O135 Co119 2.073 . S
O135 C123 1.232 . S
H136 C155 0.929 . S
H137 C156 0.942 . S
H138 C168 0.931 . S
H139 C160 0.929 . S
H140 C169 0.930 . S
H141 C161 0.931 . S
O142 Co118 2.097 1_655 S
O142 C170 1.214 . S
H143 C171 0.929 1_556 S
H144 C172 0.929 . S
H145 C173 0.930 . S
H146 C174 0.929 . S
H147 C176 0.930 . S
H148 C153 0.930 1_556 S
H149 C157 0.930 . S
O150 Co119 2.020 1_554 S
O150 C170 1.234 . S
C151 O125 1.269 . S
C151 O126 1.257 1_556 S
C152 H127 0.930 . S
C152 C155 1.388 . S
C152 C157 1.418 . S
C153 H148 0.930 1_554 S
C153 C156 1.399 1_554 S
C153 C157 1.353 . S
N154 Co119 2.139 1_554 S
N154 C155 1.397 . S
N154 C156 1.326 1_554 S
C155 H136 0.929 . S
C155 C152 1.388 . S
C155 N154 1.397 . S
C156 H137 0.942 . S
C156 C153 1.399 1_556 S
C156 N154 1.326 1_556 S
C157 H149 0.930 . S
C157 C152 1.418 . S
C157 C153 1.353 . S
C158 H128 0.930 . S
C158 N159 1.330 . S
C158 C160 1.446 . S
N159 Co118 2.151 1_556 S
N159 C158 1.330 . S
N159 C163 1.418 . S
C160 H139 0.929 . S
C160 C158 1.446 . S
C160 C161 1.332 . S
C161 H141 0.931 . S
C161 C160 1.332 . S
C161 C162 1.267 . S
C162 H130 0.929 . S
C162 C161 1.267 . S
C162 C163 1.251 . S
C163 H133 0.929 . S
C163 N159 1.418 . S
C163 C162 1.251 . S
C164 H131 0.930 . S
C164 C166 1.406 . S
C164 C169 1.261 . S
C165 H132 0.930 . S
C165 N167 1.325 . S
C165 C168 1.357 . S
C166 H134 0.928 . S
C166 C164 1.406 . S
C166 N167 1.261 . S
N167 Co118 2.214 . S
N167 C165 1.325 . S
N167 C166 1.261 . S
C168 H138 0.931 . S
C168 C165 1.357 . S
C168 C169 1.312 . S
C169 H140 0.930 . S
C169 C164 1.261 . S
C169 C168 1.312 . S
C170 O142 1.214 . S
C170 O150 1.234 . S
C171 H143 0.929 1_554 S
C171 C174 1.391 . S
C171 C176 1.391 1_554 S
C172 H144 0.929 . S
C172 C173 1.390 . S
C172 N175 1.391 . S
C173 H145 0.930 . S
C173 C172 1.390 . S
C173 C174 1.392 . S
C174 H146 0.929 . S
C174 C171 1.391 . S
C174 C173 1.392 . S
N175 Co119 2.252 1_554 S
N175 C172 1.391 . S
N175 C176 1.388 1_554 S
C176 H147 0.930 . S
C176 C171 1.391 1_556 S
C176 N175 1.388 1_556 S
Co177 O179 2.143 1_545 S
Co177 O185 2.074 . S
Co177 O188 2.093 . S
Co177 O201 2.097 1_545 S
Co177 N218 2.151 . S
Co177 N226 2.214 . S
Co178 O179 2.160 . S
Co178 O184 2.058 1_565 S
Co178 O194 2.057 . S
Co178 O209 2.037 . S
Co178 N213 2.145 . S
Co178 N234 2.257 . S
O179 Co177 2.143 1_565 S
O179 Co178 2.160 . S
C180 O181 1.278 . S
C180 O188 1.224 1_565 S
O181 C180 1.278 . S
C182 O183 1.245 . S
C182 O194 1.232 . S
O183 C182 1.245 . S
O184 Co178 2.058 1_545 S
O184 C210 1.269 . S
O185 Co177 2.074 . S
O185 C210 1.257 . S
H186 C211 0.930 . S
H187 C217 0.930 . S
O188 Co177 2.093 . S
O188 C180 1.224 1_545 S
H189 C221 0.929 . S
H190 C223 0.930 . S
H191 C224 0.930 . S
H192 C222 0.929 . S
H193 C225 0.928 . S
O194 Co178 2.057 . S
O194 C182 1.232 . S
H195 C214 0.929 . S
H196 C215 0.929 . S
H197 C227 0.931 . S
H198 C219 0.929 . S
H199 C228 0.930 . S
H200 C220 0.931 . S
O201 Co177 2.097 1_565 S
O201 C229 1.214 . S
H202 C230 0.929 . S
H203 C231 0.929 . S
H204 C232 0.930 . S
H205 C233 0.929 . S
H206 C235 0.930 . S
H207 C212 0.930 . S
H208 C216 0.930 . S
O209 Co178 2.037 . S
O209 C229 1.234 . S
C210 O184 1.269 . S
C210 O185 1.257 . S
C211 H186 0.930 . S
C211 C214 1.388 . S
C211 C216 1.418 . S
C212 H207 0.930 . S
C212 C215 1.404 . S
C212 C216 1.353 . S
N213 Co178 2.145 . S
N213 C214 1.397 . S
N213 C215 1.334 . S
C214 H195 0.929 . S
C214 C211 1.388 . S
C214 N213 1.397 . S
C215 H196 0.929 . S
C215 C212 1.404 . S
C215 N213 1.334 . S
C216 H208 0.930 . S
C216 C211 1.418 . S
C216 C212 1.353 . S
C217 H187 0.930 . S
C217 N218 1.330 . S
C217 C219 1.446 . S
N218 Co177 2.151 . S
N218 C217 1.330 . S
N218 C222 1.418 . S
C219 H198 0.929 . S
C219 C217 1.446 . S
C219 C220 1.332 . S
C220 H200 0.931 . S
C220 C219 1.332 . S
C220 C221 1.267 . S
C221 H189 0.929 . S
C221 C220 1.267 . S
C221 C222 1.251 . S
C222 H192 0.929 . S
C222 N218 1.418 . S
C222 C221 1.251 . S
C223 H190 0.930 . S
C223 C225 1.406 . S
C223 C228 1.261 . S
C224 H191 0.930 . S
C224 N226 1.325 . S
C224 C227 1.357 . S
C225 H193 0.928 . S
C225 C223 1.406 . S
C225 N226 1.261 . S
N226 Co177 2.214 . S
N226 C224 1.325 . S
N226 C225 1.261 . S
C227 H197 0.931 . S
C227 C224 1.357 . S
C227 C228 1.312 . S
C228 H199 0.930 . S
C228 C223 1.261 . S
C228 C227 1.312 . S
C229 O201 1.214 . S
C229 O209 1.234 . S
C230 H202 0.929 . S
C230 C233 1.391 . S
C230 C235 1.391 . S
C231 H203 0.929 . S
C231 C232 1.390 . S
C231 N234 1.391 . S
C232 H204 0.930 . S
C232 C231 1.390 . S
C232 C233 1.392 . S
C233 H205 0.929 . S
C233 C230 1.391 . S
C233 C232 1.392 . S
N234 Co178 2.257 . S
N234 C231 1.391 . S
N234 C235 1.388 . S
C235 H206 0.930 . S
C235 C230 1.391 . S
C235 N234 1.388 . S
Co236 O238 2.143 . S
Co236 O244 2.074 . S
Co236 O247 2.093 . S
Co236 O260 2.097 . S
Co236 N277 2.151 . S
Co236 N285 2.214 . S
Co237 O238 2.160 . S
Co237 O243 2.058 . S
Co237 O253 2.057 . S
Co237 O268 2.037 . S
Co237 N272 2.145 . S
Co237 N293 2.257 . S
O238 Co236 2.143 . S
O238 Co237 2.160 . S
C239 O240 1.278 . S
C239 O247 1.224 . S
O240 C239 1.278 . S
C241 O242 1.245 . S
C241 O253 1.232 . S
O242 C241 1.245 . S
O243 Co237 2.058 . S
O243 C269 1.269 . S
O244 Co236 2.074 . S
O244 C269 1.257 . S
H245 C270 0.930 . S
H246 C276 0.930 . S
O247 Co236 2.093 . S
O247 C239 1.224 . S
H248 C280 0.929 . S
H249 C282 0.930 . S
H250 C283 0.930 . S
H251 C281 0.929 . S
H252 C284 0.928 . S
O253 Co237 2.057 . S
O253 C241 1.232 . S
H254 C273 0.929 . S
H255 C274 0.929 . S
H256 C286 0.931 . S
H257 C278 0.929 . S
H258 C287 0.930 . S
H259 C279 0.931 . S
O260 Co236 2.097 . S
O260 C288 1.214 . S
H261 C289 0.929 . S
H262 C290 0.929 . S
H263 C291 0.930 . S
H264 C292 0.929 . S
H265 C294 0.930 . S
H266 C271 0.930 . S
H267 C275 0.930 . S
O268 Co237 2.037 . S
O268 C288 1.234 . S
C269 O243 1.269 . S
C269 O244 1.257 . S
C270 H245 0.930 . S
C270 C273 1.388 . S
C270 C275 1.418 . S
C271 H266 0.930 . S
C271 C274 1.404 . S
C271 C275 1.353 . S
N272 Co237 2.145 . S
N272 C273 1.397 . S
N272 C274 1.334 . S
C273 H254 0.929 . S
C273 C270 1.388 . S
C273 N272 1.397 . S
C274 H255 0.929 . S
C274 C271 1.404 . S
C274 N272 1.334 . S
C275 H267 0.930 . S
C275 C270 1.418 . S
C275 C271 1.353 . S
C276 H246 0.930 . S
C276 N277 1.330 . S
C276 C278 1.446 . S
N277 Co236 2.151 . S
N277 C276 1.330 . S
N277 C281 1.418 . S
C278 H257 0.929 . S
C278 C276 1.446 . S
C278 C279 1.332 . S
C279 H259 0.931 . S
C279 C278 1.332 . S
C279 C280 1.267 . S
C280 H248 0.929 . S
C280 C279 1.267 . S
C280 C281 1.251 . S
C281 H251 0.929 . S
C281 N277 1.418 . S
C281 C280 1.251 . S
C282 H249 0.930 . S
C282 C284 1.406 . S
C282 C287 1.261 . S
C283 H250 0.930 . S
C283 N285 1.325 . S
C283 C286 1.357 . S
C284 H252 0.928 . S
C284 C282 1.406 . S
C284 N285 1.261 . S
N285 Co236 2.214 . S
N285 C283 1.325 . S
N285 C284 1.261 . S
C286 H256 0.931 . S
C286 C283 1.357 . S
C286 C287 1.312 . S
C287 H258 0.930 . S
C287 C282 1.261 . S
C287 C286 1.312 . S
C288 O260 1.214 . S
C288 O268 1.234 . S
C289 H261 0.929 . S
C289 C292 1.391 . S
C289 C294 1.391 . S
C290 H262 0.929 . S
C290 C291 1.390 . S
C290 N293 1.391 . S
C291 H263 0.930 . S
C291 C290 1.390 . S
C291 C292 1.392 . S
C292 H264 0.929 . S
C292 C289 1.391 . S
C292 C291 1.392 . S
N293 Co237 2.257 . S
N293 C290 1.391 . S
N293 C294 1.388 . S
C294 H265 0.930 . S
C294 C289 1.391 . S
C294 N293 1.388 . S
Co295 O297 2.143 1_654 S
Co295 O303 2.074 . S
Co295 O306 2.093 . S
Co295 O319 2.097 1_655 S
Co295 N336 2.151 1_554 S
Co295 N344 2.214 . S
Co296 O297 2.166 . S
Co296 O302 2.063 1_455 S
Co296 O312 2.073 . S
Co296 O327 2.020 1_556 S
Co296 N331 2.139 1_556 S
Co296 N352 2.252 1_556 S
O297 Co295 2.143 1_456 S
O297 Co296 2.166 . S
C298 O299 1.278 . S
C298 O306 1.219 1_456 S
O299 C298 1.278 . S
C300 O301 1.245 . S
C300 O312 1.232 . S
O301 C300 1.245 . S
O302 Co296 2.063 1_655 S
O302 C328 1.269 . S
O303 Co295 2.074 . S
O303 C328 1.257 1_554 S
H304 C329 0.930 . S
H305 C335 0.930 . S
O306 Co295 2.093 . S
O306 C298 1.219 1_654 S
H307 C339 0.929 . S
H308 C341 0.930 . S
H309 C342 0.930 . S
H310 C340 0.929 . S
H311 C343 0.928 . S
O312 Co296 2.073 . S
O312 C300 1.232 . S
H313 C332 0.929 . S
H314 C333 0.942 . S
H315 C345 0.931 . S
H316 C337 0.929 . S
H317 C346 0.930 . S
H318 C338 0.931 . S
O319 Co295 2.097 1_455 S
O319 C347 1.214 . S
H320 C348 0.929 1_556 S
H321 C349 0.929 . S
H322 C350 0.930 . S
H323 C351 0.929 . S
H324 C353 0.930 . S
H325 C330 0.930 1_556 S
H326 C334 0.930 . S
O327 Co296 2.020 1_554 S
O327 C347 1.234 . S
C328 O302 1.269 . S
C328 O303 1.257 1_556 S
C329 H304 0.930 . S
C329 C332 1.388 . S
C329 C334 1.418 . S
C330 H325 0.930 1_554 S
C330 C333 1.399 1_554 S
C330 C334 1.353 . S
N331 Co296 2.139 1_554 S
N331 C332 1.397 . S
N331 C333 1.326 1_554 S
C332 H313 0.929 . S
C332 C329 1.388 . S
C332 N331 1.397 . S
C333 H314 0.942 . S
C333 C330 1.399 1_556 S
C333 N331 1.326 1_556 S
C334 H326 0.930 . S
C334 C329 1.418 . S
C334 C330 1.353 . S
C335 H305 0.930 . S
C335 N336 1.330 . S
C335 C337 1.446 . S
N336 Co295 2.151 1_556 S
N336 C335 1.330 . S
N336 C340 1.418 . S
C337 H316 0.929 . S
C337 C335 1.446 . S
C337 C338 1.332 . S
C338 H318 0.931 . S
C338 C337 1.332 . S
C338 C339 1.267 . S
C339 H307 0.929 . S
C339 C338 1.267 . S
C339 C340 1.251 . S
C340 H310 0.929 . S
C340 N336 1.418 . S
C340 C339 1.251 . S
C341 H308 0.930 . S
C341 C343 1.406 . S
C341 C346 1.261 . S
C342 H309 0.930 . S
C342 N344 1.325 . S
C342 C345 1.357 . S
C343 H311 0.928 . S
C343 C341 1.406 . S
C343 N344 1.261 . S
N344 Co295 2.214 . S
N344 C342 1.325 . S
N344 C343 1.261 . S
C345 H315 0.931 . S
C345 C342 1.357 . S
C345 C346 1.312 . S
C346 H317 0.930 . S
C346 C341 1.261 . S
C346 C345 1.312 . S
C347 O319 1.214 . S
C347 O327 1.234 . S
C348 H320 0.929 1_554 S
C348 C351 1.391 . S
C348 C353 1.391 1_554 S
C349 H321 0.929 . S
C349 C350 1.390 . S
C349 N352 1.391 . S
C350 H322 0.930 . S
C350 C349 1.390 . S
C350 C351 1.392 . S
C351 H323 0.929 . S
C351 C348 1.391 . S
C351 C350 1.392 . S
N352 Co296 2.252 1_554 S
N352 C349 1.391 . S
N352 C353 1.388 1_554 S
C353 H324 0.930 . S
C353 C348 1.391 1_556 S
C353 N352 1.388 1_556 S
Co354 O356 2.143 1_455 S
Co354 O362 2.074 . S
Co354 O365 2.093 . S
Co354 O378 2.097 1_455 S
Co354 N395 2.151 . S
Co354 N403 2.214 . S
Co355 O356 2.160 . S
Co355 O361 2.058 1_655 S
Co355 O371 2.057 . S
Co355 O386 2.037 . S
Co355 N390 2.145 . S
Co355 N411 2.257 . S
O356 Co354 2.143 1_655 S
O356 Co355 2.160 . S
C357 O358 1.278 . S
C357 O365 1.224 1_655 S
O358 C357 1.278 . S
C359 O360 1.245 . S
C359 O371 1.232 . S
O360 C359 1.245 . S
O361 Co355 2.058 1_455 S
O361 C387 1.269 . S
O362 Co354 2.074 . S
O362 C387 1.257 . S
H363 C388 0.930 . S
H364 C394 0.930 . S
O365 Co354 2.093 . S
O365 C357 1.224 1_455 S
H366 C398 0.929 . S
H367 C400 0.930 . S
H368 C401 0.930 . S
H369 C399 0.929 . S
H370 C402 0.928 . S
O371 Co355 2.057 . S
O371 C359 1.232 . S
H372 C391 0.929 . S
H373 C392 0.929 . S
H374 C404 0.931 . S
H375 C396 0.929 . S
H376 C405 0.930 . S
H377 C397 0.931 . S
O378 Co354 2.097 1_655 S
O378 C406 1.214 . S
H379 C407 0.929 . S
H380 C408 0.929 . S
H381 C409 0.930 . S
H382 C410 0.929 . S
H383 C412 0.930 . S
H384 C389 0.930 . S
H385 C393 0.930 . S
O386 Co355 2.037 . S
O386 C406 1.234 . S
C387 O361 1.269 . S
C387 O362 1.257 . S
C388 H363 0.930 . S
C388 C391 1.388 . S
C388 C393 1.418 . S
C389 H384 0.930 . S
C389 C392 1.404 . S
C389 C393 1.353 . S
N390 Co355 2.145 . S
N390 C391 1.397 . S
N390 C392 1.334 . S
C391 H372 0.929 . S
C391 C388 1.388 . S
C391 N390 1.397 . S
C392 H373 0.929 . S
C392 C389 1.404 . S
C392 N390 1.334 . S
C393 H385 0.930 . S
C393 C388 1.418 . S
C393 C389 1.353 . S
C394 H364 0.930 . S
C394 N395 1.330 . S
C394 C396 1.446 . S
N395 Co354 2.151 . S
N395 C394 1.330 . S
N395 C399 1.418 . S
C396 H375 0.929 . S
C396 C394 1.446 . S
C396 C397 1.332 . S
C397 H377 0.931 . S
C397 C396 1.332 . S
C397 C398 1.267 . S
C398 H366 0.929 . S
C398 C397 1.267 . S
C398 C399 1.251 . S
C399 H369 0.929 . S
C399 N395 1.418 . S
C399 C398 1.251 . S
C400 H367 0.930 . S
C400 C402 1.406 . S
C400 C405 1.261 . S
C401 H368 0.930 . S
C401 N403 1.325 . S
C401 C404 1.357 . S
C402 H370 0.928 . S
C402 C400 1.406 . S
C402 N403 1.261 . S
N403 Co354 2.214 . S
N403 C401 1.325 . S
N403 C402 1.261 . S
C404 H374 0.931 . S
C404 C401 1.357 . S
C404 C405 1.312 . S
C405 H376 0.930 . S
C405 C400 1.261 . S
C405 C404 1.312 . S
C406 O378 1.214 . S
C406 O386 1.234 . S
C407 H379 0.929 . S
C407 C410 1.391 . S
C407 C412 1.391 . S
C408 H380 0.929 . S
C408 C409 1.390 . S
C408 N411 1.391 . S
C409 H381 0.930 . S
C409 C408 1.390 . S
C409 C410 1.392 . S
C410 H382 0.929 . S
C410 C407 1.391 . S
C410 C409 1.392 . S
N411 Co355 2.257 . S
N411 C408 1.391 . S
N411 C412 1.388 . S
C412 H383 0.930 . S
C412 C407 1.391 . S
C412 N411 1.388 . S
Co413 O415 2.143 1_545 S
Co413 O421 2.074 . S
Co413 O424 2.093 . S
Co413 O437 2.097 1_545 S
Co413 N454 2.151 . S
Co413 N462 2.214 . S
Co414 O415 2.160 . S
Co414 O420 2.058 1_565 S
Co414 O430 2.057 . S
Co414 O445 2.037 . S
Co414 N449 2.145 . S
Co414 N470 2.257 . S
O415 Co413 2.143 1_565 S
O415 Co414 2.160 . S
C416 O417 1.278 . S
C416 O424 1.224 1_565 S
O417 C416 1.278 . S
C418 O419 1.245 . S
C418 O430 1.232 . S
O419 C418 1.245 . S
O420 Co414 2.058 1_545 S
O420 C446 1.269 . S
O421 Co413 2.074 . S
O421 C446 1.257 . S
H422 C447 0.930 . S
H423 C453 0.930 . S
O424 Co413 2.093 . S
O424 C416 1.224 1_545 S
H425 C457 0.929 . S
H426 C459 0.930 . S
H427 C460 0.930 . S
H428 C458 0.929 . S
H429 C461 0.928 . S
O430 Co414 2.057 . S
O430 C418 1.232 . S
H431 C450 0.929 . S
H432 C451 0.929 . S
H433 C463 0.931 . S
H434 C455 0.929 . S
H435 C464 0.930 . S
H436 C456 0.931 . S
O437 Co413 2.097 1_565 S
O437 C465 1.214 . S
H438 C466 0.929 . S
H439 C467 0.929 . S
H440 C468 0.930 . S
H441 C469 0.929 . S
H442 C471 0.930 . S
H443 C448 0.930 . S
H444 C452 0.930 . S
O445 Co414 2.037 . S
O445 C465 1.234 . S
C446 O420 1.269 . S
C446 O421 1.257 . S
C447 H422 0.930 . S
C447 C450 1.388 . S
C447 C452 1.418 . S
C448 H443 0.930 . S
C448 C451 1.404 . S
C448 C452 1.353 . S
N449 Co414 2.145 . S
N449 C450 1.397 . S
N449 C451 1.334 . S
C450 H431 0.929 . S
C450 C447 1.388 . S
C450 N449 1.397 . S
C451 H432 0.929 . S
C451 C448 1.404 . S
C451 N449 1.334 . S
C452 H444 0.930 . S
C452 C447 1.418 . S
C452 C448 1.353 . S
C453 H423 0.930 . S
C453 N454 1.330 . S
C453 C455 1.446 . S
N454 Co413 2.151 . S
N454 C453 1.330 . S
N454 C458 1.418 . S
C455 H434 0.929 . S
C455 C453 1.446 . S
C455 C456 1.332 . S
C456 H436 0.931 . S
C456 C455 1.332 . S
C456 C457 1.267 . S
C457 H425 0.929 . S
C457 C456 1.267 . S
C457 C458 1.251 . S
C458 H428 0.929 . S
C458 N454 1.418 . S
C458 C457 1.251 . S
C459 H426 0.930 . S
C459 C461 1.406 . S
C459 C464 1.261 . S
C460 H427 0.930 . S
C460 N462 1.325 . S
C460 C463 1.357 . S
C461 H429 0.928 . S
C461 C459 1.406 . S
C461 N462 1.261 . S
N462 Co413 2.214 . S
N462 C460 1.325 . S
N462 C461 1.261 . S
C463 H433 0.931 . S
C463 C460 1.357 . S
C463 C464 1.312 . S
C464 H435 0.930 . S
C464 C459 1.261 . S
C464 C463 1.312 . S
C465 O437 1.214 . S
C465 O445 1.234 . S
C466 H438 0.929 . S
C466 C469 1.391 . S
C466 C471 1.391 . S
C467 H439 0.929 . S
C467 C468 1.390 . S
C467 N470 1.391 . S
C468 H440 0.930 . S
C468 C467 1.390 . S
C468 C469 1.392 . S
C469 H441 0.929 . S
C469 C466 1.391 . S
C469 C468 1.392 . S
N470 Co414 2.257 . S
N470 C467 1.391 . S
N470 C471 1.388 . S
C471 H442 0.930 . S
C471 C466 1.391 . S
C471 N470 1.388 . S
Co472 O474 2.143 . S
Co472 O480 2.074 . S
Co472 O483 2.093 . S
Co472 O496 2.097 1_554 S
Co472 N513 2.151 . S
Co472 N521 2.214 1_554 S
Co473 O474 2.160 . S
Co473 O479 2.058 . S
Co473 O489 2.057 . S
Co473 O504 2.037 1_554 S
Co473 N508 2.145 1_554 S
Co473 N529 2.257 1_554 S
O474 Co472 2.143 . S
O474 Co473 2.160 . S
C475 O476 1.278 . S
C475 O483 1.224 . S
O476 C475 1.278 . S
C477 O478 1.245 . S
C477 O489 1.232 . S
O478 C477 1.245 . S
O479 Co473 2.058 . S
O479 C505 1.269 . S
O480 Co472 2.074 . S
O480 C505 1.257 . S
H481 C506 0.930 . S
H482 C512 0.930 . S
O483 Co472 2.093 . S
O483 C475 1.224 . S
H484 C516 0.929 . S
H485 C518 0.930 . S
H486 C519 0.930 . S
H487 C517 0.929 . S
H488 C520 0.919 1_554 S
O489 Co473 2.057 . S
O489 C477 1.232 . S
H490 C509 0.929 . S
H491 C510 0.929 . S
H492 C522 0.931 . S
H493 C514 0.929 . S
H494 C523 0.930 . S
H495 C515 0.931 . S
O496 Co472 2.097 1_556 S
O496 C524 1.214 . S
H497 C525 0.929 . S
H498 C526 0.929 . S
H499 C527 0.930 . S
H500 C528 0.929 . S
H501 C530 0.930 . S
H502 C507 0.930 1_554 S
H503 C511 0.930 . S
O504 Co473 2.037 1_556 S
O504 C524 1.234 . S
C505 O479 1.269 . S
C505 O480 1.257 . S
C506 H481 0.930 . S
C506 C509 1.388 . S
C506 C511 1.418 . S
C507 H502 0.930 1_556 S
C507 C510 1.404 1_556 S
C507 C511 1.353 . S
N508 Co473 2.145 1_556 S
N508 C509 1.397 . S
N508 C510 1.334 1_556 S
C509 H490 0.929 . S
C509 C506 1.388 . S
C509 N508 1.397 . S
C510 H491 0.929 . S
C510 C507 1.404 1_554 S
C510 N508 1.334 1_554 S
C511 H503 0.930 . S
C511 C506 1.418 . S
C511 C507 1.353 . S
C512 H482 0.930 . S
C512 N513 1.330 . S
C512 C514 1.446 . S
N513 Co472 2.151 . S
N513 C512 1.330 . S
N513 C517 1.418 . S
C514 H493 0.929 . S
C514 C512 1.446 . S
C514 C515 1.332 . S
C515 H495 0.931 . S
C515 C514 1.332 . S
C515 C516 1.267 . S
C516 H484 0.929 . S
C516 C515 1.267 . S
C516 C517 1.251 . S
C517 H487 0.929 . S
C517 N513 1.418 . S
C517 C516 1.251 . S
C518 H485 0.930 . S
C518 C520 1.406 . S
C518 C523 1.261 . S
C519 H486 0.930 . S
C519 N521 1.325 . S
C519 C522 1.357 . S
C520 H488 0.919 1_556 S
C520 C518 1.406 . S
C520 N521 1.261 . S
N521 Co472 2.214 1_556 S
N521 C519 1.325 . S
N521 C520 1.261 . S
C522 H492 0.931 . S
C522 C519 1.357 . S
C522 C523 1.312 . S
C523 H494 0.930 . S
C523 C518 1.261 . S
C523 C522 1.312 . S
C524 O496 1.214 . S
C524 O504 1.234 . S
C525 H497 0.929 . S
C525 C528 1.391 1_554 S
C525 C530 1.391 . S
C526 H498 0.929 . S
C526 C527 1.390 . S
C526 N529 1.391 . S
C527 H499 0.930 . S
C527 C526 1.390 . S
C527 C528 1.392 . S
C528 H500 0.929 . S
C528 C525 1.391 1_556 S
C528 C527 1.392 . S
N529 Co473 2.257 1_556 S
N529 C526 1.391 . S
N529 C530 1.388 1_556 S
C530 H501 0.930 . S
C530 C525 1.391 . S
C530 N529 1.388 1_554 S
Co531 O533 2.143 1_655 S
Co531 O539 2.074 . S
Co531 O542 2.093 . S
Co531 O555 2.097 1_655 S
Co531 N572 2.151 . S
Co531 N580 2.214 . S
Co532 O533 2.160 . S
Co532 O538 2.058 1_455 S
Co532 O548 2.057 . S
Co532 O563 2.037 . S
Co532 N567 2.145 . S
Co532 N588 2.257 . S
O533 Co531 2.143 1_455 S
O533 Co532 2.160 . S
C534 O535 1.278 . S
C534 O542 1.224 1_455 S
O535 C534 1.278 . S
C536 O537 1.245 . S
C536 O548 1.232 . S
O537 C536 1.245 . S
O538 Co532 2.058 1_655 S
O538 C564 1.269 . S
O539 Co531 2.074 . S
O539 C564 1.257 . S
H540 C565 0.930 . S
H541 C571 0.930 . S
O542 Co531 2.093 . S
O542 C534 1.224 1_655 S
H543 C575 0.929 . S
H544 C577 0.930 . S
H545 C578 0.930 . S
H546 C576 0.929 . S
H547 C579 0.928 . S
O548 Co532 2.057 . S
O548 C536 1.232 . S
H549 C568 0.929 . S
H550 C569 0.929 . S
H551 C581 0.931 . S
H552 C573 0.929 . S
H553 C582 0.930 . S
H554 C574 0.931 . S
O555 Co531 2.097 1_455 S
O555 C583 1.214 . S
H556 C584 0.929 . S
H557 C585 0.929 . S
H558 C586 0.930 . S
H559 C587 0.929 . S
H560 C589 0.930 . S
H561 C566 0.930 . S
H562 C570 0.930 . S
O563 Co532 2.037 . S
O563 C583 1.234 . S
C564 O538 1.269 . S
C564 O539 1.257 . S
C565 H540 0.930 . S
C565 C568 1.388 . S
C565 C570 1.418 . S
C566 H561 0.930 . S
C566 C569 1.404 . S
C566 C570 1.353 . S
N567 Co532 2.145 . S
N567 C568 1.397 . S
N567 C569 1.334 . S
C568 H549 0.929 . S
C568 C565 1.388 . S
C568 N567 1.397 . S
C569 H550 0.929 . S
C569 C566 1.404 . S
C569 N567 1.334 . S
C570 H562 0.930 . S
C570 C565 1.418 . S
C570 C566 1.353 . S
C571 H541 0.930 . S
C571 N572 1.330 . S
C571 C573 1.446 . S
N572 Co531 2.151 . S
N572 C571 1.330 . S
N572 C576 1.418 . S
C573 H552 0.929 . S
C573 C571 1.446 . S
C573 C574 1.332 . S
C574 H554 0.931 . S
C574 C573 1.332 . S
C574 C575 1.267 . S
C575 H543 0.929 . S
C575 C574 1.267 . S
C575 C576 1.251 . S
C576 H546 0.929 . S
C576 N572 1.418 . S
C576 C575 1.251 . S
C577 H544 0.930 . S
C577 C579 1.406 . S
C577 C582 1.261 . S
C578 H545 0.930 . S
C578 N580 1.325 . S
C578 C581 1.357 . S
C579 H547 0.928 . S
C579 C577 1.406 . S
C579 N580 1.261 . S
N580 Co531 2.214 . S
N580 C578 1.325 . S
N580 C579 1.261 . S
C581 H551 0.931 . S
C581 C578 1.357 . S
C581 C582 1.312 . S
C582 H553 0.930 . S
C582 C577 1.261 . S
C582 C581 1.312 . S
C583 O555 1.214 . S
C583 O563 1.234 . S
C584 H556 0.929 . S
C584 C587 1.391 . S
C584 C589 1.391 . S
C585 H557 0.929 . S
C585 C586 1.390 . S
C585 N588 1.391 . S
C586 H558 0.930 . S
C586 C585 1.390 . S
C586 C587 1.392 . S
C587 H559 0.929 . S
C587 C584 1.391 . S
C587 C586 1.392 . S
N588 Co532 2.257 . S
N588 C585 1.391 . S
N588 C589 1.388 . S
C589 H560 0.930 . S
C589 C584 1.391 . S
C589 N588 1.388 . S
Co590 O592 2.143 1_565 S
Co590 O598 2.074 . S
Co590 O601 2.093 . S
Co590 O614 2.097 1_565 S
Co590 N631 2.151 . S
Co590 N639 2.214 . S
Co591 O592 2.160 . S
Co591 O597 2.058 1_545 S
Co591 O607 2.057 . S
Co591 O622 2.037 . S
Co591 N626 2.145 . S
Co591 N647 2.257 . S
O592 Co590 2.143 1_545 S
O592 Co591 2.160 . S
C593 O594 1.278 . S
C593 O601 1.224 1_545 S
O594 C593 1.278 . S
C595 O596 1.245 . S
C595 O607 1.232 . S
O596 C595 1.245 . S
O597 Co591 2.058 1_565 S
O597 C623 1.269 . S
O598 Co590 2.074 . S
O598 C623 1.257 . S
H599 C624 0.930 . S
H600 C630 0.930 . S
O601 Co590 2.093 . S
O601 C593 1.224 1_565 S
H602 C634 0.929 . S
H603 C636 0.930 . S
H604 C637 0.930 . S
H605 C635 0.929 . S
H606 C638 0.928 . S
O607 Co591 2.057 . S
O607 C595 1.232 . S
H608 C627 0.929 . S
H609 C628 0.929 . S
H610 C640 0.931 . S
H611 C632 0.929 . S
H612 C641 0.930 . S
H613 C633 0.931 . S
O614 Co590 2.097 1_545 S
O614 C642 1.214 . S
H615 C643 0.929 . S
H616 C644 0.929 . S
H617 C645 0.930 . S
H618 C646 0.929 . S
H619 C648 0.930 . S
H620 C625 0.930 . S
H621 C629 0.930 . S
O622 Co591 2.037 . S
O622 C642 1.234 . S
C623 O597 1.269 . S
C623 O598 1.257 . S
C624 H599 0.930 . S
C624 C627 1.388 . S
C624 C629 1.418 . S
C625 H620 0.930 . S
C625 C628 1.404 . S
C625 C629 1.353 . S
N626 Co591 2.145 . S
N626 C627 1.397 . S
N626 C628 1.334 . S
C627 H608 0.929 . S
C627 C624 1.388 . S
C627 N626 1.397 . S
C628 H609 0.929 . S
C628 C625 1.404 . S
C628 N626 1.334 . S
C629 H621 0.930 . S
C629 C624 1.418 . S
C629 C625 1.353 . S
C630 H600 0.930 . S
C630 N631 1.330 . S
C630 C632 1.446 . S
N631 Co590 2.151 . S
N631 C630 1.330 . S
N631 C635 1.418 . S
C632 H611 0.929 . S
C632 C630 1.446 . S
C632 C633 1.332 . S
C633 H613 0.931 . S
C633 C632 1.332 . S
C633 C634 1.267 . S
C634 H602 0.929 . S
C634 C633 1.267 . S
C634 C635 1.251 . S
C635 H605 0.929 . S
C635 N631 1.418 . S
C635 C634 1.251 . S
C636 H603 0.930 . S
C636 C638 1.406 . S
C636 C641 1.261 . S
C637 H604 0.930 . S
C637 N639 1.325 . S
C637 C640 1.357 . S
C638 H606 0.928 . S
C638 C636 1.406 . S
C638 N639 1.261 . S
N639 Co590 2.214 . S
N639 C637 1.325 . S
N639 C638 1.261 . S
C640 H610 0.931 . S
C640 C637 1.357 . S
C640 C641 1.312 . S
C641 H612 0.930 . S
C641 C636 1.261 . S
C641 C640 1.312 . S
C642 O614 1.214 . S
C642 O622 1.234 . S
C643 H615 0.929 . S
C643 C646 1.391 . S
C643 C648 1.391 . S
C644 H616 0.929 . S
C644 C645 1.390 . S
C644 N647 1.391 . S
C645 H617 0.930 . S
C645 C644 1.390 . S
C645 C646 1.392 . S
C646 H618 0.929 . S
C646 C643 1.391 . S
C646 C645 1.392 . S
N647 Co591 2.257 . S
N647 C644 1.391 . S
N647 C648 1.388 . S
C648 H619 0.930 . S
C648 C643 1.391 . S
C648 N647 1.388 . S
Co649 O651 2.143 . S
Co649 O657 2.074 . S
Co649 O660 2.093 . S
Co649 O673 2.097 1_554 S
Co649 N690 2.151 . S
Co649 N698 2.214 1_554 S
Co650 O651 2.160 . S
Co650 O656 2.058 . S
Co650 O666 2.057 . S
Co650 O681 2.037 1_554 S
Co650 N685 2.145 1_554 S
Co650 N706 2.257 1_554 S
O651 Co649 2.143 . S
O651 Co650 2.160 . S
C652 O653 1.278 . S
C652 O660 1.224 . S
O653 C652 1.278 . S
C654 O655 1.245 . S
C654 O666 1.232 . S
O655 C654 1.245 . S
O656 Co650 2.058 . S
O656 C682 1.269 . S
O657 Co649 2.074 . S
O657 C682 1.257 . S
H658 C683 0.930 . S
H659 C689 0.930 . S
O660 Co649 2.093 . S
O660 C652 1.224 . S
H661 C693 0.929 . S
H662 C695 0.930 . S
H663 C696 0.930 . S
H664 C694 0.929 . S
H665 C697 0.919 1_554 S
O666 Co650 2.057 . S
O666 C654 1.232 . S
H667 C686 0.929 . S
H668 C687 0.929 . S
H669 C699 0.931 . S
H670 C691 0.929 . S
H671 C700 0.930 . S
H672 C692 0.931 . S
O673 Co649 2.097 1_556 S
O673 C701 1.214 . S
H674 C702 0.929 . S
H675 C703 0.929 . S
H676 C704 0.930 . S
H677 C705 0.929 . S
H678 C707 0.930 . S
H679 C684 0.930 1_554 S
H680 C688 0.930 . S
O681 Co650 2.037 1_556 S
O681 C701 1.234 . S
C682 O656 1.269 . S
C682 O657 1.257 . S
C683 H658 0.930 . S
C683 C686 1.388 . S
C683 C688 1.418 . S
C684 H679 0.930 1_556 S
C684 C687 1.404 1_556 S
C684 C688 1.353 . S
N685 Co650 2.145 1_556 S
N685 C686 1.397 . S
N685 C687 1.334 1_556 S
C686 H667 0.929 . S
C686 C683 1.388 . S
C686 N685 1.397 . S
C687 H668 0.929 . S
C687 C684 1.404 1_554 S
C687 N685 1.334 1_554 S
C688 H680 0.930 . S
C688 C683 1.418 . S
C688 C684 1.353 . S
C689 H659 0.930 . S
C689 N690 1.330 . S
C689 C691 1.446 . S
N690 Co649 2.151 . S
N690 C689 1.330 . S
N690 C694 1.418 . S
C691 H670 0.929 . S
C691 C689 1.446 . S
C691 C692 1.332 . S
C692 H672 0.931 . S
C692 C691 1.332 . S
C692 C693 1.267 . S
C693 H661 0.929 . S
C693 C692 1.267 . S
C693 C694 1.251 . S
C694 H664 0.929 . S
C694 N690 1.418 . S
C694 C693 1.251 . S
C695 H662 0.930 . S
C695 C697 1.406 . S
C695 C700 1.261 . S
C696 H663 0.930 . S
C696 N698 1.325 . S
C696 C699 1.357 . S
C697 H665 0.919 1_556 S
C697 C695 1.406 . S
C697 N698 1.261 . S
N698 Co649 2.214 1_556 S
N698 C696 1.325 . S
N698 C697 1.261 . S
C699 H669 0.931 . S
C699 C696 1.357 . S
C699 C700 1.312 . S
C700 H671 0.930 . S
C700 C695 1.261 . S
C700 C699 1.312 . S
C701 O673 1.214 . S
C701 O681 1.234 . S
C702 H674 0.929 . S
C702 C705 1.391 1_554 S
C702 C707 1.391 . S
C703 H675 0.929 . S
C703 C704 1.390 . S
C703 N706 1.391 . S
C704 H676 0.930 . S
C704 C703 1.390 . S
C704 C705 1.392 . S
C705 H677 0.929 . S
C705 C702 1.391 1_556 S
C705 C704 1.392 . S
N706 Co650 2.257 1_556 S
N706 C703 1.391 . S
N706 C707 1.388 1_556 S
C707 H678 0.930 . S
C707 C702 1.391 . S
C707 N706 1.388 1_554 S
H708 C714 0.930 . S
H709 C717 0.930 . S
H710 C718 0.930 . S
H711 C719 0.930 . S
H712 C722 0.930 . S
H713 C723 0.930 . S
C714 H708 0.930 . S
C714 C715 1.355 . S
C714 C716 1.415 . S
C715 C714 1.355 . S
C715 C717 1.419 . S
C716 C714 1.415 . S
C716 C721 1.425 . S
C716 C723 1.409 . S
C717 H709 0.930 . S
C717 C715 1.419 . S
C717 C718 1.362 . S
C718 H710 0.930 . S
C718 C717 1.362 . S
C718 C721 1.409 . S
C719 H711 0.930 . S
C719 C720 1.355 . S
C719 C721 1.415 . S
C720 C719 1.355 . S
C720 C722 1.419 . S
C721 C716 1.425 . S
C721 C718 1.409 . S
C721 C719 1.415 . S
C722 H712 0.930 . S
C722 C720 1.419 . S
C722 C723 1.362 . S
C723 H713 0.930 . S
C723 C716 1.409 . S
C723 C722 1.362 . S
H724 C730 0.930 . S
H725 C733 0.930 . S
H726 C734 0.930 . S
H727 C735 0.930 . S
H728 C738 0.930 . S
H729 C739 0.930 . S
C730 H724 0.930 . S
C730 C731 1.355 . S
C730 C732 1.415 . S
C731 C730 1.355 . S
C731 C733 1.419 . S
C732 C730 1.415 . S
C732 C737 1.425 . S
C732 C739 1.409 . S
C733 H725 0.930 . S
C733 C731 1.419 . S
C733 C734 1.362 . S
C734 H726 0.930 . S
C734 C733 1.362 . S
C734 C737 1.409 . S
C735 H727 0.930 . S
C735 C736 1.355 . S
C735 C737 1.415 . S
C736 C735 1.355 . S
C736 C738 1.419 . S
C737 C732 1.425 . S
C737 C734 1.409 . S
C737 C735 1.415 . S
C738 H728 0.930 . S
C738 C736 1.419 . S
C738 C739 1.362 . S
C739 H729 0.930 . S
C739 C732 1.409 . S
C739 C738 1.362 . S
H740 C746 0.930 . S
H741 C749 0.930 . S
H742 C750 0.930 . S
H743 C751 0.930 . S
H744 C754 0.930 . S
H745 C755 0.930 . S
C746 H740 0.930 . S
C746 C747 1.355 . S
C746 C748 1.415 . S
C747 C746 1.355 . S
C747 C749 1.419 . S
C748 C746 1.415 . S
C748 C753 1.425 . S
C748 C755 1.409 . S
C749 H741 0.930 . S
C749 C747 1.419 . S
C749 C750 1.362 . S
C750 H742 0.930 . S
C750 C749 1.362 . S
C750 C753 1.409 . S
C751 H743 0.930 . S
C751 C752 1.355 . S
C751 C753 1.415 . S
C752 C751 1.355 . S
C752 C754 1.419 . S
C753 C748 1.425 . S
C753 C750 1.409 . S
C753 C751 1.415 . S
C754 H744 0.930 . S
C754 C752 1.419 . S
C754 C755 1.362 . S
C755 H745 0.930 . S
C755 C748 1.409 . S
C755 C754 1.362 . S
H756 C762 0.930 . S
H757 C765 0.930 . S
H758 C766 0.930 . S
H759 C767 0.930 . S
H760 C770 0.930 . S
H761 C771 0.930 . S
C762 H756 0.930 . S
C762 C763 1.355 . S
C762 C764 1.415 . S
C763 C762 1.355 . S
C763 C765 1.419 . S
C764 C762 1.415 . S
C764 C769 1.425 . S
C764 C771 1.409 . S
C765 H757 0.930 . S
C765 C763 1.419 . S
C765 C766 1.362 . S
C766 H758 0.930 . S
C766 C765 1.362 . S
C766 C769 1.409 . S
C767 H759 0.930 . S
C767 C768 1.355 . S
C767 C769 1.415 . S
C768 C767 1.355 . S
C768 C770 1.419 . S
C769 C764 1.425 . S
C769 C766 1.409 . S
C769 C767 1.415 . S
C770 H760 0.930 . S
C770 C768 1.419 . S
C770 C771 1.362 . S
C771 H761 0.930 . S
C771 C764 1.409 . S
C771 C770 1.362 . S
H772 C778 0.930 . S
H773 C781 0.930 . S
H774 C782 0.930 . S
H775 C783 0.930 . S
H776 C786 0.930 . S
H777 C787 0.930 . S
C778 H772 0.930 . S
C778 C779 1.355 . S
C778 C780 1.415 . S
C779 C778 1.355 . S
C779 C781 1.419 . S
C780 C778 1.415 . S
C780 C785 1.425 . S
C780 C787 1.409 . S
C781 H773 0.930 . S
C781 C779 1.419 . S
C781 C782 1.362 . S
C782 H774 0.930 . S
C782 C781 1.362 . S
C782 C785 1.409 . S
C783 H775 0.930 . S
C783 C784 1.355 . S
C783 C785 1.415 . S
C784 C783 1.355 . S
C784 C786 1.419 . S
C785 C780 1.425 . S
C785 C782 1.409 . S
C785 C783 1.415 . S
C786 H776 0.930 . S
C786 C784 1.419 . S
C786 C787 1.362 . S
C787 H777 0.930 . S
C787 C780 1.409 . S
C787 C786 1.362 . S
H788 C794 0.930 . S
H789 C797 0.930 . S
H790 C798 0.930 . S
H791 C799 0.930 . S
H792 C802 0.930 . S
H793 C803 0.930 . S
C794 H788 0.930 . S
C794 C795 1.355 . S
C794 C796 1.415 . S
C795 C794 1.355 . S
C795 C797 1.419 . S
C796 C794 1.415 . S
C796 C801 1.425 . S
C796 C803 1.409 . S
C797 H789 0.930 . S
C797 C795 1.419 . S
C797 C798 1.362 . S
C798 H790 0.930 . S
C798 C797 1.362 . S
C798 C801 1.409 . S
C799 H791 0.930 . S
C799 C800 1.355 . S
C799 C801 1.415 . S
C800 C799 1.355 . S
C800 C802 1.419 . S
C801 C796 1.425 . S
C801 C798 1.409 . S
C801 C799 1.415 . S
C802 H792 0.930 . S
C802 C800 1.419 . S
C802 C803 1.362 . S
C803 H793 0.930 . S
C803 C796 1.409 . S
C803 C802 1.362 . S
H804 C810 0.930 . S
H805 C813 0.930 . S
H806 C814 0.930 . S
H807 C815 0.930 . S
H808 C818 0.930 . S
H809 C819 0.930 . S
C810 H804 0.930 . S
C810 C811 1.355 1_565 S
C810 C812 1.415 . S
C811 C810 1.355 1_545 S
C811 C813 1.419 . S
C812 C810 1.415 . S
C812 C817 1.425 1_565 S
C812 C819 1.409 . S
C813 H805 0.930 . S
C813 C811 1.419 . S
C813 C814 1.362 . S
C814 H806 0.930 . S
C814 C813 1.362 . S
C814 C817 1.409 . S
C815 H807 0.930 . S
C815 C816 1.355 1_545 S
C815 C817 1.415 . S
C816 C815 1.355 1_565 S
C816 C818 1.419 . S
C817 C812 1.425 1_545 S
C817 C814 1.409 . S
C817 C815 1.415 . S
C818 H808 0.930 . S
C818 C816 1.419 . S
C818 C819 1.362 . S
C819 H809 0.930 . S
C819 C812 1.409 . S
C819 C818 1.362 . S
H820 C826 0.930 . S
H821 C829 0.930 . S
H822 C830 0.930 . S
H823 C831 0.930 . S
H824 C834 0.930 . S
H825 C835 0.930 . S
C826 H820 0.930 . S
C826 C827 1.355 . S
C826 C828 1.415 . S
C827 C826 1.355 . S
C827 C829 1.419 . S
C828 C826 1.415 . S
C828 C833 1.425 . S
C828 C835 1.409 . S
C829 H821 0.930 . S
C829 C827 1.419 . S
C829 C830 1.362 . S
C830 H822 0.930 . S
C830 C829 1.362 . S
C830 C833 1.409 . S
C831 H823 0.930 . S
C831 C832 1.355 . S
C831 C833 1.415 . S
C832 C831 1.355 . S
C832 C834 1.419 . S
C833 C828 1.425 . S
C833 C830 1.409 . S
C833 C831 1.415 . S
C834 H824 0.930 . S
C834 C832 1.419 . S
C834 C835 1.362 . S
C835 H825 0.930 . S
C835 C828 1.409 . S
C835 C834 1.362 . S
H836 C842 0.930 . S
H837 C845 0.930 . S
H838 C846 0.930 . S
H839 C847 0.930 . S
H840 C850 0.930 . S
H841 C851 0.930 . S
C842 H836 0.930 . S
C842 C843 1.355 1_554 S
C842 C844 1.415 . S
C843 C842 1.355 1_556 S
C843 C845 1.419 . S
C844 C842 1.415 . S
C844 C849 1.425 1_454 S
C844 C851 1.409 . S
C845 H837 0.930 . S
C845 C843 1.419 . S
C845 C846 1.362 1_455 S
C846 H838 0.930 . S
C846 C845 1.362 1_655 S
C846 C849 1.409 . S
C847 H839 0.930 . S
C847 C848 1.355 . S
C847 C849 1.415 . S
C848 C847 1.355 . S
C848 C850 1.419 1_556 S
C849 C844 1.425 1_656 S
C849 C846 1.409 . S
C849 C847 1.415 . S
C850 H840 0.930 . S
C850 C848 1.419 1_554 S
C850 C851 1.362 1_655 S
C851 H841 0.930 . S
C851 C844 1.409 . S
C851 C850 1.362 1_455 S
H852 C858 0.930 . S
H853 C861 0.930 . S
H854 C862 0.930 . S
H855 C863 0.930 . S
H856 C866 0.930 . S
H857 C867 0.930 . S
C858 H852 0.930 . S
C858 C859 1.355 1_455 S
C858 C860 1.415 . S
C859 C858 1.355 1_655 S
C859 C861 1.419 . S
C860 C858 1.415 . S
C860 C865 1.425 1_455 S
C860 C867 1.409 . S
C861 H853 0.930 . S
C861 C859 1.419 . S
C861 C862 1.362 . S
C862 H854 0.930 . S
C862 C861 1.362 . S
C862 C865 1.409 . S
C863 H855 0.930 . S
C863 C864 1.355 1_655 S
C863 C865 1.415 . S
C864 C863 1.355 1_455 S
C864 C866 1.419 . S
C865 C860 1.425 1_655 S
C865 C862 1.409 . S
C865 C863 1.415 . S
C866 H856 0.930 . S
C866 C864 1.419 . S
C866 C867 1.362 . S
C867 H857 0.930 . S
C867 C860 1.409 . S
C867 C866 1.362 . S
H868 C874 0.930 . S
H869 C877 0.930 . S
H870 C878 0.930 . S
H871 C879 0.930 . S
H872 C882 0.930 . S
H873 C883 0.930 . S
C874 H868 0.930 . S
C874 C875 1.355 1_565 S
C874 C876 1.415 . S
C875 C874 1.355 1_545 S
C875 C877 1.419 . S
C876 C874 1.415 . S
C876 C881 1.425 1_565 S
C876 C883 1.409 . S
C877 H869 0.930 . S
C877 C875 1.419 . S
C877 C878 1.362 . S
C878 H870 0.930 . S
C878 C877 1.362 . S
C878 C881 1.409 . S
C879 H871 0.930 . S
C879 C880 1.355 1_545 S
C879 C881 1.415 . S
C880 C879 1.355 1_565 S
C880 C882 1.419 . S
C881 C876 1.425 1_545 S
C881 C878 1.409 . S
C881 C879 1.415 . S
C882 H872 0.930 . S
C882 C880 1.419 . S
C882 C883 1.362 . S
C883 H873 0.930 . S
C883 C876 1.409 . S
C883 C882 1.362 . S
H884 C890 0.930 1_556 S
H885 C893 0.930 . S
H886 C894 0.930 . S
H887 C895 0.930 . S
H888 C898 0.930 . S
H889 C899 0.930 . S
C890 H884 0.930 1_554 S
C890 C891 1.355 . S
C890 C892 1.415 . S
C891 C890 1.355 . S
C891 C893 1.419 . S
C892 C890 1.415 . S
C892 C897 1.425 . S
C892 C899 1.409 1_554 S
C893 H885 0.930 . S
C893 C891 1.419 . S
C893 C894 1.362 . S
C894 H886 0.930 . S
C894 C893 1.362 . S
C894 C897 1.409 . S
C895 H887 0.930 . S
C895 C896 1.355 . S
C895 C897 1.415 . S
C896 C895 1.355 . S
C896 C898 1.419 1_554 S
C897 C892 1.425 . S
C897 C894 1.409 . S
C897 C895 1.415 . S
C898 H888 0.930 . S
C898 C896 1.419 1_556 S
C898 C899 1.362 . S
C899 H889 0.930 . S
C899 C892 1.409 1_556 S
C899 C898 1.362 . S
H900 C906 0.930 . S
H901 C909 0.930 . S
H902 C910 0.930 . S
H903 C911 0.930 . S
H904 C914 0.930 . S
H905 C915 0.930 . S
C906 H900 0.930 . S
C906 C907 1.355 . S
C906 C908 1.415 . S
C907 C906 1.355 . S
C907 C909 1.419 . S
C908 C906 1.415 . S
C908 C913 1.425 . S
C908 C915 1.409 . S
C909 H901 0.930 . S
C909 C907 1.419 . S
C909 C910 1.362 . S
C910 H902 0.930 . S
C910 C909 1.362 . S
C910 C913 1.409 . S
C911 H903 0.930 . S
C911 C912 1.355 . S
C911 C913 1.415 . S
C912 C911 1.355 . S
C912 C914 1.419 . S
C913 C908 1.425 . S
C913 C910 1.409 . S
C913 C911 1.415 . S
C914 H904 0.930 . S
C914 C912 1.419 . S
C914 C915 1.362 . S
C915 H905 0.930 . S
C915 C908 1.409 . S
C915 C914 1.362 . S
H916 C922 0.930 . S
H917 C925 0.930 . S
H918 C926 0.930 . S
H919 C927 0.930 . S
H920 C930 0.930 . S
H921 C931 0.930 . S
C922 H916 0.930 . S
C922 C923 1.355 . S
C922 C924 1.415 . S
C923 C922 1.355 . S
C923 C925 1.419 . S
C924 C922 1.415 . S
C924 C929 1.425 . S
C924 C931 1.409 . S
C925 H917 0.930 . S
C925 C923 1.419 . S
C925 C926 1.362 . S
C926 H918 0.930 . S
C926 C925 1.362 . S
C926 C929 1.409 . S
C927 H919 0.930 . S
C927 C928 1.355 . S
C927 C929 1.415 . S
C928 C927 1.355 . S
C928 C930 1.419 . S
C929 C924 1.425 . S
C929 C926 1.409 . S
C929 C927 1.415 . S
C930 H920 0.930 . S
C930 C928 1.419 . S
C930 C931 1.362 . S
C931 H921 0.930 . S
C931 C924 1.409 . S
C931 C930 1.362 . S
H932 C938 0.930 . S
H933 C941 0.930 . S
H934 C942 0.930 . S
H935 C943 0.930 . S
H936 C946 0.930 . S
H937 C947 0.930 . S
C938 H932 0.930 . S
C938 C939 1.355 1_556 S
C938 C940 1.415 . S
C939 C938 1.355 1_554 S
C939 C941 1.419 . S
C940 C938 1.415 . S
C940 C945 1.425 1_556 S
C940 C947 1.409 . S
C941 H933 0.930 . S
C941 C939 1.419 . S
C941 C942 1.362 . S
C942 H934 0.930 . S
C942 C941 1.362 . S
C942 C945 1.409 . S
C943 H935 0.930 . S
C943 C944 1.355 1_554 S
C943 C945 1.415 . S
C944 C943 1.355 1_556 S
C944 C946 1.419 . S
C945 C940 1.425 1_554 S
C945 C942 1.409 . S
C945 C943 1.415 . S
C946 H936 0.930 . S
C946 C944 1.419 . S
C946 C947 1.362 . S
C947 H937 0.930 . S
C947 C940 1.409 . S
C947 C946 1.362 . S
H948 C954 0.930 . S
H949 C957 0.930 . S
H950 C958 0.930 . S
H951 C959 0.930 . S
H952 C962 0.930 . S
H953 C963 0.930 . S
C954 H948 0.930 . S
C954 C955 1.355 . S
C954 C956 1.415 . S
C955 C954 1.355 . S
C955 C957 1.419 . S
C956 C954 1.415 . S
C956 C961 1.425 . S
C956 C963 1.409 . S
C957 H949 0.930 . S
C957 C955 1.419 . S
C957 C958 1.362 . S
C958 H950 0.930 . S
C958 C957 1.362 . S
C958 C961 1.409 . S
C959 H951 0.930 . S
C959 C960 1.355 . S
C959 C961 1.415 . S
C960 C959 1.355 . S
C960 C962 1.419 . S
C961 C956 1.425 . S
C961 C958 1.409 . S
C961 C959 1.415 . S
C962 H952 0.930 . S
C962 C960 1.419 . S
C962 C963 1.362 . S
C963 H953 0.930 . S
C963 C956 1.409 . S
C963 C962 1.362 . S
H964 C970 0.930 . S
H965 C973 0.930 . S
H966 C974 0.930 . S
H967 C975 0.930 . S
H968 C978 0.930 . S
H969 C979 0.930 . S
C970 H964 0.930 . S
C970 C971 1.355 . S
C970 C972 1.415 . S
C971 C970 1.355 . S
C971 C973 1.419 . S
C972 C970 1.415 . S
C972 C977 1.425 . S
C972 C979 1.409 . S
C973 H965 0.930 . S
C973 C971 1.419 . S
C973 C974 1.362 . S
C974 H966 0.930 . S
C974 C973 1.362 . S
C974 C977 1.409 . S
C975 H967 0.930 . S
C975 C976 1.355 . S
C975 C977 1.415 . S
C976 C975 1.355 . S
C976 C978 1.419 . S
C977 C972 1.425 . S
C977 C974 1.409 . S
C977 C975 1.415 . S
C978 H968 0.930 . S
C978 C976 1.419 . S
C978 C979 1.362 . S
C979 H969 0.930 . S
C979 C972 1.409 . S
C979 C978 1.362 . S
H980 C986 0.930 . S
H981 C989 0.930 . S
H982 C990 0.930 . S
H983 C991 0.930 . S
H984 C994 0.930 . S
H985 C995 0.930 . S
C986 H980 0.930 . S
C986 C987 1.355 1_556 S
C986 C988 1.415 . S
C987 C986 1.355 1_554 S
C987 C989 1.419 . S
C988 C986 1.415 . S
C988 C993 1.425 1_556 S
C988 C995 1.409 . S
C989 H981 0.930 . S
C989 C987 1.419 . S
C989 C990 1.362 . S
C990 H982 0.930 . S
C990 C989 1.362 . S
C990 C993 1.409 . S
C991 H983 0.930 . S
C991 C992 1.355 1_554 S
C991 C993 1.415 . S
C992 C991 1.355 1_556 S
C992 C994 1.419 . S
C993 C988 1.425 1_554 S
C993 C990 1.409 . S
C993 C991 1.415 . S
C994 H984 0.930 . S
C994 C992 1.419 . S
C994 C995 1.362 . S
C995 H985 0.930 . S
C995 C988 1.409 . S
C995 C994 1.362 . S
H996 C1002 0.930 . S
H997 C1005 0.930 . S
H998 C1006 0.930 . S
H999 C1007 0.930 . S
H1000 C1010 0.930 . S
H1001 C1011 0.930 . S
C1002 H996 0.930 . S
C1002 C1003 1.355 . S
C1002 C1004 1.415 . S
C1003 C1002 1.355 . S
C1003 C1005 1.419 1_545 S
C1004 C1002 1.415 . S
C1004 C1009 1.425 1_545 S
C1004 C1011 1.409 . S
C1005 H997 0.930 . S
C1005 C1003 1.419 1_565 S
C1005 C1006 1.362 . S
C1006 H998 0.930 . S
C1006 C1005 1.362 . S
C1006 C1009 1.409 . S
C1007 H999 0.930 . S
C1007 C1008 1.355 . S
C1007 C1009 1.415 . S
C1008 C1007 1.355 . S
C1008 C1010 1.419 1_565 S
C1009 C1004 1.425 1_565 S
C1009 C1006 1.409 . S
C1009 C1007 1.415 . S
C1010 H1000 0.930 . S
C1010 C1008 1.419 1_545 S
C1010 C1011 1.362 . S
C1011 H1001 0.930 . S
C1011 C1004 1.409 . S
C1011 C1010 1.362 . S
H1012 C1018 0.930 . S
H1013 C1021 0.930 . S
H1014 C1022 0.930 . S
H1015 C1023 0.930 . S
H1016 C1026 0.930 . S
H1017 C1027 0.930 . S
C1018 H1012 0.930 . S
C1018 C1019 1.355 . S
C1018 C1020 1.415 . S
C1019 C1018 1.355 . S
C1019 C1021 1.419 . S
C1020 C1018 1.415 . S
C1020 C1025 1.425 . S
C1020 C1027 1.409 . S
C1021 H1013 0.930 . S
C1021 C1019 1.419 . S
C1021 C1022 1.362 . S
C1022 H1014 0.930 . S
C1022 C1021 1.362 . S
C1022 C1025 1.409 . S
C1023 H1015 0.930 . S
C1023 C1024 1.355 . S
C1023 C1025 1.415 . S
C1024 C1023 1.355 . S
C1024 C1026 1.419 . S
C1025 C1020 1.425 . S
C1025 C1022 1.409 . S
C1025 C1023 1.415 . S
C1026 H1016 0.930 . S
C1026 C1024 1.419 . S
C1026 C1027 1.362 . S
C1027 H1017 0.930 . S
C1027 C1020 1.409 . S
C1027 C1026 1.362 . S
H1028 C1034 0.930 . S
H1029 C1037 0.930 . S
H1030 C1038 0.930 . S
H1031 C1039 0.930 . S
H1032 C1042 0.930 . S
H1033 C1043 0.930 . S
C1034 H1028 0.930 . S
C1034 C1035 1.355 . S
C1034 C1036 1.415 . S
C1035 C1034 1.355 . S
C1035 C1037 1.419 . S
C1036 C1034 1.415 . S
C1036 C1041 1.425 1_455 S
C1036 C1043 1.409 . S
C1037 H1029 0.930 . S
C1037 C1035 1.419 . S
C1037 C1038 1.362 1_455 S
C1038 H1030 0.930 . S
C1038 C1037 1.362 1_655 S
C1038 C1041 1.409 . S
C1039 H1031 0.930 . S
C1039 C1040 1.355 . S
C1039 C1041 1.415 . S
C1040 C1039 1.355 . S
C1040 C1042 1.419 . S
C1041 C1036 1.425 1_655 S
C1041 C1038 1.409 . S
C1041 C1039 1.415 . S
C1042 H1032 0.930 . S
C1042 C1040 1.419 . S
C1042 C1043 1.362 1_655 S
C1043 H1033 0.930 . S
C1043 C1036 1.409 . S
C1043 C1042 1.362 1_455 S
H1044 C1050 0.930 . S
H1045 C1053 0.930 . S
H1046 C1054 0.930 . S
H1047 C1055 0.930 . S
H1048 C1058 0.930 . S
H1049 C1059 0.930 . S
C1050 H1044 0.930 . S
C1050 C1051 1.355 . S
C1050 C1052 1.415 . S
C1051 C1050 1.355 . S
C1051 C1053 1.419 1_565 S
C1052 C1050 1.415 . S
C1052 C1057 1.425 1_565 S
C1052 C1059 1.409 . S
C1053 H1045 0.930 . S
C1053 C1051 1.419 1_545 S
C1053 C1054 1.362 . S
C1054 H1046 0.930 . S
C1054 C1053 1.362 . S
C1054 C1057 1.409 . S
C1055 H1047 0.930 . S
C1055 C1056 1.355 . S
C1055 C1057 1.415 . S
C1056 C1055 1.355 . S
C1056 C1058 1.419 1_545 S
C1057 C1052 1.425 1_545 S
C1057 C1054 1.409 . S
C1057 C1055 1.415 . S
C1058 H1048 0.930 . S
C1058 C1056 1.419 1_565 S
C1058 C1059 1.362 . S
C1059 H1049 0.930 . S
C1059 C1052 1.409 . S
C1059 C1058 1.362 . S
H1060 C1066 0.930 . S
H1061 C1069 0.930 . S
H1062 C1070 0.930 . S
H1063 C1071 0.930 . S
H1064 C1074 0.930 . S
H1065 C1075 0.930 . S
C1066 H1060 0.930 . S
C1066 C1067 1.355 . S
C1066 C1068 1.415 . S
C1067 C1066 1.355 . S
C1067 C1069 1.419 . S
C1068 C1066 1.415 . S
C1068 C1073 1.425 . S
C1068 C1075 1.409 . S
C1069 H1061 0.930 . S
C1069 C1067 1.419 . S
C1069 C1070 1.362 . S
C1070 H1062 0.930 . S
C1070 C1069 1.362 . S
C1070 C1073 1.409 . S
C1071 H1063 0.930 . S
C1071 C1072 1.355 . S
C1071 C1073 1.415 . S
C1072 C1071 1.355 . S
C1072 C1074 1.419 . S
C1073 C1068 1.425 . S
C1073 C1070 1.409 . S
C1073 C1071 1.415 . S
C1074 H1064 0.930 . S
C1074 C1072 1.419 . S
C1074 C1075 1.362 . S
C1075 H1065 0.930 . S
C1075 C1068 1.409 . S
C1075 C1074 1.362 . S
H1076 C1082 0.930 . S
H1077 C1085 0.930 . S
H1078 C1086 0.930 . S
H1079 C1087 0.930 . S
H1080 C1090 0.930 . S
H1081 C1091 0.930 . S
C1082 H1076 0.930 . S
C1082 C1083 1.355 1_455 S
C1082 C1084 1.415 . S
C1083 C1082 1.355 1_655 S
C1083 C1085 1.419 . S
C1084 C1082 1.415 . S
C1084 C1089 1.425 1_455 S
C1084 C1091 1.409 . S
C1085 H1077 0.930 . S
C1085 C1083 1.419 . S
C1085 C1086 1.362 . S
C1086 H1078 0.930 . S
C1086 C1085 1.362 . S
C1086 C1089 1.409 . S
C1087 H1079 0.930 . S
C1087 C1088 1.355 1_655 S
C1087 C1089 1.415 . S
C1088 C1087 1.355 1_455 S
C1088 C1090 1.419 . S
C1089 C1084 1.425 1_655 S
C1089 C1086 1.409 . S
C1089 C1087 1.415 . S
C1090 H1080 0.930 . S
C1090 C1088 1.419 . S
C1090 C1091 1.362 . S
C1091 H1081 0.930 . S
C1091 C1084 1.409 . S
C1091 C1090 1.362 . S
C715 C5 1.646 . S
C720 C477 1.649 . S
C731 C64 1.649 . S
C736 C536 1.646 . S
C747 C595 1.650 . S
C752 C123 1.643 . S
C763 C654 1.647 . S
C768 C182 1.649 . S
C779 C359 1.646 . S
C784 C241 1.650 . S
C795 C418 1.643 . S
C800 C300 1.650 . S
C811 C3 1.761 . S
C816 C180 1.793 . S
C827 C239 1.781 . S
C832 C62 1.799 . S
C843 C298 1.788 . S
C848 C121 1.754 . S
C859 C357 1.792 . S
C864 C534 1.795 . S
C875 C593 1.796 . S
C880 C416 1.792 . S
C891 C475 1.798 . S
C896 C652 1.786 . S
C907 C387 1.205 . S
C912 C33 1.170 . S
C923 C92 1.209 . S
C928 C446 1.175 . S
C939 C505 1.187 . S
C944 C151 1.214 . S
C955 C564 1.173 . S
C960 C210 1.208 . S
C971 C269 1.211 . S
C976 C623 1.200 . S
C987 C682 1.213 . S
C992 C328 1.197 . S
C1003 C52 1.238 . S
C1008 C465 1.253 . S
C1019 C524 1.249 . S
C1024 C111 1.239 . S
C1035 C583 1.255 . S
C1040 C170 1.238 . S
C1051 C229 1.240 . S
C1056 C642 1.246 . S
C1067 C701 1.258 . S
C1072 C288 1.257 . S
C1083 C406 1.252 . S
C1088 C347 1.261 . S
