# Generated by pormake.
# Topology xfu, (5)-cn, num edge types: 1
# Building blocks:
#     Node 0, Type 0, BuildingBlock: XOMCOT_clean_sbu_1, # of connection points: 5
#     Node 1, Type 0, BuildingBlock: XOMCOT_clean_sbu_1, # of connection points: 5
#     Node 2, Type 0, BuildingBlock: XOMCOT_clean_sbu_1, # of connection points: 5
#     Node 3, Type 0, BuildingBlock: XOMCOT_clean_sbu_1, # of connection points: 5
#     Node 4, Type 0, BuildingBlock: XOMCOT_clean_sbu_1, # of connection points: 5
#     Node 5, Type 0, BuildingBlock: XOMCOT_clean_sbu_1, # of connection points: 5
#     Node 6, Type 0, BuildingBlock: XOMCOT_clean_sbu_1, # of connection points: 5
#     Node 7, Type 0, BuildingBlock: XOMCOT_clean_sbu_1, # of connection points: 5
#     Edge 8, Type (0, 0), BuildingBlock: AJUNOK_clean_linker_0, # of connection points: 2
#     Edge 9, Type (0, 0), BuildingBlock: AJUNOK_clean_linker_0, # of connection points: 2
#     Edge 10, Type (0, 0), BuildingBlock: AJUNOK_clean_linker_0, # of connection points: 2
#     Edge 11, Type (0, 0), BuildingBlock: AJUNOK_clean_linker_0, # of connection points: 2
#     Edge 12, Type (0, 0), BuildingBlock: AJUNOK_clean_linker_0, # of connection points: 2
#     Edge 13, Type (0, 0), BuildingBlock: AJUNOK_clean_linker_0, # of connection points: 2
#     Edge 14, Type (0, 0), BuildingBlock: AJUNOK_clean_linker_0, # of connection points: 2
#     Edge 15, Type (0, 0), BuildingBlock: AJUNOK_clean_linker_0, # of connection points: 2
#     Edge 16, Type (0, 0), BuildingBlock: AJUNOK_clean_linker_0, # of connection points: 2
#     Edge 17, Type (0, 0), BuildingBlock: AJUNOK_clean_linker_0, # of connection points: 2
#     Edge 18, Type (0, 0), BuildingBlock: AJUNOK_clean_linker_0, # of connection points: 2
#     Edge 19, Type (0, 0), BuildingBlock: AJUNOK_clean_linker_0, # of connection points: 2
#     Edge 20, Type (0, 0), BuildingBlock: AJUNOK_clean_linker_0, # of connection points: 2
#     Edge 21, Type (0, 0), BuildingBlock: AJUNOK_clean_linker_0, # of connection points: 2
#     Edge 22, Type (0, 0), BuildingBlock: AJUNOK_clean_linker_0, # of connection points: 2
#     Edge 23, Type (0, 0), BuildingBlock: AJUNOK_clean_linker_0, # of connection points: 2
#     Edge 24, Type (0, 0), BuildingBlock: AJUNOK_clean_linker_0, # of connection points: 2
#     Edge 25, Type (0, 0), BuildingBlock: AJUNOK_clean_linker_0, # of connection points: 2
#     Edge 26, Type (0, 0), BuildingBlock: AJUNOK_clean_linker_0, # of connection points: 2
#     Edge 27, Type (0, 0), BuildingBlock: AJUNOK_clean_linker_0, # of connection points: 2
# Relax obj value: 0.508
# Max RMSD: 0.276
# Mean RMSD: 0.276
data_MOF--net-xfu--node1-XOMCOT_clean_sbu_1--edge1-AJUNOK_clean_linker_0
_symmetry_space_group_name_H-M    P1
_symmetry_Int_Tables_number       1
_symmetry_cell_setting            triclinic
loop_
_symmetry_equiv_pos_as_xyz
'x, y, z'
_cell_length_a     21.000286
_cell_length_b     21.018877
_cell_length_c     42.722226
_cell_angle_alpha  89.76604
_cell_angle_beta   90.077846
_cell_angle_gamma 89.986369
loop_
_atom_site_label
_atom_site_type_symbol
_atom_site_fract_x
_atom_site_fract_y
_atom_site_fract_z
_atom_type_partial_charge
C0 C 0.96626 0.3421 0.6379 0.0
C1 C 0.96918 0.38718 0.66103 0.0
N2 N 0.02907 0.40985 0.66211 0.0
N3 N 0.0242 0.33637 0.62465 0.0
C4 C 0.06082 0.37965 0.63927 0.0
H5 H 0.92661 0.31049 0.63373 0.0
Co6 Co 0.05044 0.26746 0.60136 0.0
C7 C 0.16745 0.31093 0.56493 0.0
O8 O 0.14289 0.29108 0.53843 0.0
N9 N 0.0778 0.19717 0.57829 0.0
C10 C 0.13824 0.1179 0.56065 0.0
C11 C 0.1324 0.16406 0.58304 0.0
C12 C 0.05167 0.17024 0.5528 0.0
N13 N 0.0873 0.12232 0.54178 0.0
O14 O 0.99776 0.30027 0.56667 0.0
H15 H 0.16709 0.17377 0.60109 0.0
H16 H 1.00882 0.18653 0.54135 0.0
O17 O 0.13308 0.31011 0.58979 0.0
C18 C 0.94361 0.27188 0.57014 0.0
O19 O 0.94127 0.22395 0.58997 0.0
N20 N 0.08823 0.23344 0.63697 0.0
C21 C 0.12007 0.17928 0.69417 0.0
C22 C 0.15839 0.22704 0.681 0.0
C23 C 0.14169 0.25364 0.65218 0.0
C24 C 0.051 0.18672 0.6493 0.0
C25 C 0.06642 0.15838 0.67774 0.0
H26 H 0.17098 0.29112 0.64269 0.0
H27 H 1.00861 0.1718 0.63698 0.0
H28 H 0.11185 0.38286 0.6364 0.0
H29 H 0.93273 0.39642 0.67833 0.0
H30 H 0.17698 0.08432 0.55821 0.0
H31 H 0.20026 0.24438 0.6931 0.0
H32 H 0.03668 0.12036 0.68667 0.0
C33 C 0.78398 0.45052 0.13776 0.0
C34 C 0.73497 0.45565 0.15891 0.0
N35 N 0.71927 0.51759 0.16131 0.0
N36 N 0.799 0.50904 0.1271 0.0
C37 C 0.75829 0.54862 0.1415 0.0
H38 H 0.81001 0.40758 0.13238 0.0
Co39 Co 0.86943 0.53077 0.10391 0.0
C40 C 0.7938 0.6532 0.07394 0.0
O41 O 0.74093 0.63828 0.05925 0.0
N42 N 0.9403 0.55365 0.08021 0.0
C43 C 0.03222 0.59222 0.0625 0.0
C44 C 0.99657 0.57997 0.08875 0.0
C45 C 0.94295 0.55092 0.04875 0.0
N46 N 0.9981 0.57373 0.03758 0.0
O47 O 0.84037 0.47059 0.07161 0.0
H48 H 1.01147 0.59029 0.11236 0.0
H49 H 0.90509 0.53295 0.03405 0.0
O50 O 0.8265 0.60803 0.0865 0.0
C51 C 0.87327 0.41911 0.07465 0.0
O52 O 0.92354 0.42133 0.09297 0.0
N53 N 0.8998 0.57725 0.13757 0.0
C54 C 0.95996 0.62836 0.18944 0.0
C55 C 0.91724 0.66521 0.17178 0.0
C56 C 0.88751 0.63868 0.14577 0.0
C57 C 0.93738 0.53955 0.15584 0.0
C58 C 0.96872 0.56435 0.18173 0.0
H59 H 0.85428 0.66739 0.13285 0.0
H60 H 0.94489 0.4904 0.1494 0.0
H61 H 0.76154 0.59985 0.13997 0.0
H62 H 0.71586 0.41756 0.17321 0.0
H63 H 0.08005 0.61139 0.06177 0.0
H64 H 0.90698 0.71406 0.17797 0.0
H65 H 1.00084 0.53423 0.19501 0.0
C66 C 0.63724 0.26513 0.63243 0.0
C67 C 0.62436 0.21809 0.65392 0.0
N68 N 0.56075 0.21362 0.65704 0.0
N69 N 0.58189 0.29039 0.62232 0.0
C70 C 0.53619 0.25694 0.63717 0.0
H71 H 0.68384 0.28417 0.6272 0.0
Co72 Co 0.5746 0.36745 0.6018 0.0
C73 C 0.44044 0.37327 0.57365 0.0
O74 O 0.44378 0.43529 0.57654 0.0
N75 N 0.56919 0.44542 0.58097 0.0
C76 C 0.56253 0.54681 0.56649 0.0
C77 C 0.56795 0.50594 0.59156 0.0
C78 C 0.56615 0.4509 0.5496 0.0
N79 N 0.56065 0.51177 0.54023 0.0
O80 O 0.63278 0.33519 0.56895 0.0
H81 H 0.57003 0.52014 0.61577 0.0
H82 H 0.5674 0.41057 0.53398 0.0
O83 O 0.48923 0.33876 0.58168 0.0
C84 C 0.68713 0.36249 0.57364 0.0
O85 O 0.68963 0.40718 0.59502 0.0
N86 N 0.53191 0.40034 0.63666 0.0
C87 C 0.49338 0.45505 0.69265 0.0
C88 C 0.4494 0.42339 0.67357 0.0
C89 C 0.46966 0.39597 0.64567 0.0
C90 C 0.57588 0.42654 0.65624 0.0
C91 C 0.55763 0.45502 0.68416 0.0
H92 H 0.43529 0.36985 0.63234 0.0
H93 H 0.62552 0.42678 0.64958 0.0
H94 H 0.48623 0.26915 0.6365 0.0
H95 H 0.65886 0.19458 0.66887 0.0
H96 H 0.55897 0.59814 0.56753 0.0
H97 H 0.39981 0.41947 0.68026 0.0
H98 H 0.59322 0.47807 0.69856 0.0
C99 C 0.78645 0.12933 0.14176 0.0
C100 C 0.82037 0.13875 0.16884 0.0
N101 N 0.86428 0.0923 0.17113 0.0
N102 N 0.80862 0.07692 0.12735 0.0
C103 C 0.8563 0.05561 0.14564 0.0
H104 H 0.74619 0.15711 0.13379 0.0
Co105 Co 0.77203 0.04333 0.0921 0.0
C106 C 0.87422 0.92495 0.0848 0.0
O107 O 0.93617 0.93357 0.08423 0.0
N108 N 0.73519 1.01207 0.05611 0.0
C109 C 0.7246 0.97634 0.00758 0.0
C110 C 0.76617 0.98479 0.03189 0.0
C111 C 0.67558 1.02192 0.04549 0.0
N112 N 0.66792 0.99966 0.01631 0.0
O113 O 0.81759 0.10825 0.06754 0.0
H114 H 0.81672 0.97567 0.03091 0.0
H115 H 0.64021 0.05001 0.05751 0.0
O116 O 0.83957 0.97555 0.08775 0.0
C117 C 0.78198 0.15757 0.06361 0.0
O118 O 0.72143 0.15184 0.07075 0.0
N119 N 0.72361 0.98961 0.118 0.0
C120 C 0.65795 0.9505 0.17129 0.0
C121 C 0.71731 0.92428 0.16413 0.0
C122 C 0.74983 0.94508 0.13762 0.0
C123 C 0.66416 1.01284 0.12384 0.0
C124 C 0.62998 0.99321 0.15019 0.0
H125 H 0.79812 0.92919 0.13484 0.0
H126 H 0.64583 0.05184 0.11003 0.0
H127 H 0.88141 1.01145 0.14168 0.0
H128 H 0.8114 0.17487 0.18628 0.0
H129 H 0.73646 0.96026 -0.01575 0.0
H130 H 0.74033 0.89127 0.18008 0.0
H131 H 0.58462 1.0153 0.15539 0.0
C132 C 0.14957 0.81246 0.31694 0.0
C133 C 0.15087 0.77017 0.2926 0.0
N134 N 0.09539 0.73818 0.29255 0.0
N135 N 0.09352 0.80696 0.33207 0.0
C136 C 0.06237 0.75991 0.31725 0.0
H137 H 0.18467 0.8489 0.32139 0.0
Co138 Co 0.0643 0.86589 0.36043 0.0
C139 C 0.94667 0.8101 0.39251 0.0
O140 O 0.97196 0.82098 0.42011 0.0
N141 N 0.03493 0.92642 0.38883 0.0
C142 C 0.97471 0.99956 0.41198 0.0
C143 C 0.97923 0.95878 0.3871 0.0
C144 C 0.06274 0.94779 0.41514 0.0
N145 N 0.02775 0.99271 0.42924 0.0
O146 O 0.11711 0.82308 0.39218 0.0
H147 H 0.94377 0.95296 0.36897 0.0
H148 H 0.10692 0.93004 0.42461 0.0
O149 O 0.98129 0.81809 0.36793 0.0
C150 C 0.17101 0.85263 0.39054 0.0
O151 O 0.17251 0.90617 0.37453 0.0
N152 N 0.02593 0.9104 0.32786 0.0
C153 C 0.98275 0.98283 0.27808 0.0
C154 C 0.95622 0.92312 0.28405 0.0
C155 C 0.97932 0.88698 0.30888 0.0
C156 C 0.0535 0.96782 0.32169 0.0
C157 C 0.03227 1.00531 0.29682 0.0
H158 H 0.96023 0.84002 0.31242 0.0
H159 H 0.09226 0.98443 0.33622 0.0
H160 H 1.01351 0.74687 0.32203 0.0
H161 H 0.18668 0.76783 0.27443 0.0
H162 H 0.93595 0.03195 0.41692 0.0
H163 H 0.91869 0.90426 0.26932 0.0
H164 H 0.05413 0.05109 0.29225 0.0
C165 C 0.34922 0.65029 0.82919 0.0
C166 C 0.39647 0.64527 0.80715 0.0
N167 N 0.41059 0.58325 0.80371 0.0
N168 N 0.33366 0.59159 0.83946 0.0
C169 C 0.37304 0.55198 0.82408 0.0
H170 H 0.32303 0.69315 0.83447 0.0
Co171 Co 0.25905 0.5716 0.86004 0.0
C172 C 0.28871 0.45193 0.89903 0.0
O173 O 0.26319 0.47572 0.92445 0.0
N174 N 0.18198 0.55116 0.88063 0.0
C175 C 0.08754 0.50943 0.89296 0.0
C176 C 0.13534 0.51094 0.87114 0.0
C177 C 0.16142 0.57219 0.90865 0.0
N178 N 0.10399 0.54863 0.9163 0.0
O179 O 0.28888 0.62458 0.89518 0.0
H180 H 0.13561 0.48302 0.85001 0.0
H181 H 0.18915 0.60156 0.9242 0.0
O182 O 0.29459 0.48722 0.87455 0.0
C183 C 0.26116 0.67901 0.89143 0.0
O184 O 0.21503 0.68241 0.87067 0.0
N185 N 0.22922 0.53369 0.82367 0.0
C186 C 0.17042 0.49498 0.76887 0.0
C187 C 0.21235 0.45405 0.78472 0.0
C188 C 0.2415 0.47436 0.81226 0.0
C189 C 0.19169 0.5752 0.8075 0.0
C190 C 0.16141 0.55672 0.78007 0.0
H191 H 0.27329 0.44221 0.82421 0.0
H192 H 0.18384 0.62247 0.81659 0.0
H193 H 0.36855 0.50076 0.82454 0.0
H194 H 0.41316 0.68316 0.792 0.0
H195 H 0.04457 0.48106 0.89199 0.0
H196 H 0.22189 0.4066 0.77611 0.0
H197 H 0.12962 0.58968 0.76832 0.0
C198 C 0.47896 0.85976 0.32556 0.0
C199 C 0.48864 0.90125 0.30109 0.0
N200 N 0.54968 0.89621 0.292 0.0
N201 N 0.53361 0.8282 0.33174 0.0
C202 C 0.57615 0.85257 0.31123 0.0
H203 H 0.43321 0.84893 0.33575 0.0
Co204 Co 0.53954 0.75148 0.35391 0.0
C205 C 0.6697 0.75364 0.38962 0.0
O206 O 0.65976 0.69622 0.40055 0.0
N207 N 0.54285 0.67393 0.37544 0.0
C208 C 0.54684 0.57145 0.38843 0.0
C209 C 0.54807 0.6142 0.36403 0.0
C210 C 0.53585 0.66594 0.40655 0.0
N211 N 0.5394 0.60444 0.41506 0.0
O212 O 0.48153 0.78625 0.38617 0.0
H213 H 0.55302 0.60194 0.33963 0.0
H214 H 0.53104 0.70483 0.42291 0.0
O215 O 0.62546 0.78133 0.37319 0.0
C216 C 0.42705 0.75961 0.38091 0.0
O217 O 0.42465 0.71625 0.35885 0.0
N218 N 0.58241 0.7155 0.32027 0.0
C219 C 0.62137 0.65342 0.26651 0.0
C220 C 0.66501 0.66618 0.29052 0.0
C221 C 0.64457 0.69748 0.31739 0.0
C222 C 0.53975 0.70398 0.2969 0.0
C223 C 0.55822 0.67312 0.26971 0.0
H224 H 0.67857 0.70528 0.33571 0.0
H225 H 0.49051 0.71782 0.29984 0.0
H226 H 0.62317 0.8329 0.30767 0.0
H227 H 0.45233 0.92855 0.28903 0.0
H228 H 0.55327 0.52048 0.3868 0.0
H229 H 0.71429 0.65142 0.28864 0.0
H230 H 0.52309 0.66306 0.25182 0.0
C231 C 0.245 0.98379 0.83412 0.0
C232 C 0.19631 0.99642 0.81348 0.0
N233 N 0.19214 0.05987 0.80978 0.0
N234 N 0.27147 0.03922 0.84309 0.0
C235 C 0.23723 0.08458 0.82849 0.0
H236 H 0.26458 0.93728 0.8391 0.0
Co237 Co 0.35105 0.04822 0.8606 0.0
C238 C 0.35539 0.17968 0.89257 0.0
O239 O 0.4176 0.17547 0.89361 0.0
N240 N 0.43237 0.05545 0.8781 0.0
C241 C 0.53601 0.06934 0.8865 0.0
C242 C 0.4889 0.0686 0.86424 0.0
C243 C 0.4468 0.04717 0.90863 0.0
N244 N 0.50898 0.05608 0.91419 0.0
O245 O 0.32467 0.98903 0.89442 0.0
H246 H 0.49631 0.07732 0.83961 0.0
H247 H 0.41243 0.03585 0.92665 0.0
O248 O 0.32259 0.13226 0.88169 0.0
C249 C 0.3515 0.93484 0.88896 0.0
O250 O 0.39423 0.93272 0.86655 0.0
N251 N 0.37753 0.09232 0.8247 0.0
C252 C 0.42746 0.13402 0.76793 0.0
C253 C 0.40142 0.17749 0.78921 0.0
C254 C 0.37697 0.15573 0.81765 0.0
C255 C 0.39806 0.04921 0.80321 0.0
C256 C 0.42399 0.06898 0.77484 0.0
H257 H 0.35716 0.19013 0.83331 0.0
H258 H 0.39654 0.99901 0.80883 0.0
H259 H 0.25071 0.13422 0.82797 0.0
H260 H 0.17207 0.96173 0.79907 0.0
H261 H 0.58635 0.07724 0.88265 0.0
H262 H 0.40041 0.22797 0.78406 0.0
H263 H 0.44308 0.03376 0.75897 0.0
C264 C 0.99659 0.03664 0.47993 0.0
C265 C 0.04373 0.02516 0.45745 0.0
C266 C 1.01165 0.06721 0.50787 0.0
C267 C 0.07424 0.08702 0.51409 0.0
H268 H 0.94804 1.02127 0.47598 0.0
H269 H 0.97424 0.07553 0.52479 0.0
S270 S 0.21359 0.07265 0.46158 0.0
N271 N 0.15454 0.03884 0.44227 0.0
N272 N 0.18288 0.09618 0.49517 0.0
C273 C 0.12174 0.07619 0.49175 0.0
C274 C 0.10642 0.04531 0.46325 0.0
C275 C 1.01545 0.51222 -0.01007 0.0
C276 C 1.01952 0.57015 0.00601 0.0
C277 C 0.04126 0.506 0.96002 0.0
C278 C 0.07139 0.55774 0.94532 0.0
H279 H 0.99445 0.47095 0.00113 0.0
H280 H 0.03999 0.45985 0.94888 0.0
S281 S 0.08471 0.72196 0.97605 0.0
N282 N 0.04973 0.68141 0.00443 0.0
N283 N 0.097 0.67055 0.94754 0.0
C284 C 0.07243 0.61687 0.96057 0.0
C285 C 0.0468 0.62287 -0.00885 0.0
C286 C 0.58249 0.5921 0.49981 0.0
C287 C 0.55377 0.53455 0.50873 0.0
C288 C 0.57728 0.61479 0.46916 0.0
C289 C 0.5431 0.58067 0.44644 0.0
H290 H 0.6102 0.61914 0.5165 0.0
H291 H 0.60119 0.65873 0.46303 0.0
S292 S 0.45498 0.43009 0.45834 0.0
N293 N 0.48699 0.44563 0.49279 0.0
N294 N 0.47761 0.4886 0.435 0.0
C295 C 0.51343 0.52361 0.45506 0.0
C296 C 0.51861 0.50045 0.48629 0.0
C297 C 0.53827 0.98597 0.95763 0.0
C298 C 0.54131 0.04587 0.94305 0.0
C299 C 0.57766 0.97182 -0.01687 0.0
C300 C 0.61936 1.01785 -0.00508 0.0
H301 H 0.50811 0.94903 0.94806 0.0
H302 H 0.57771 0.92416 -0.00714 0.0
S303 S 0.63969 0.18328 0.96686 0.0
N304 N 0.58555 0.15245 0.94324 0.0
N305 N 0.65866 0.12625 -0.00806 0.0
C306 C 0.61981 0.07897 -0.01823 0.0
C307 C 0.58083 0.09294 0.95552 0.0
C308 C 0.21773 0.10097 0.75782 0.0
C309 C 0.17253 0.08981 0.78137 0.0
C310 C 0.20037 0.13049 0.72978 0.0
C311 C 0.13719 0.14987 0.72448 0.0
H312 H 0.26674 0.0863 0.7612 0.0
H313 H 0.23643 0.13726 0.71196 0.0
S314 S 1.00237 0.13371 0.78011 0.0
N315 N 0.06346 0.10106 0.79857 0.0
N316 N 0.02987 0.15785 0.74584 0.0
C317 C 0.09171 0.13941 0.74819 0.0
C318 C 0.10966 0.10903 0.77671 0.0
C319 C 0.03441 0.65075 0.26945 0.0
C320 C 0.06649 0.7088 0.26599 0.0
C321 C 1.00022 0.62467 0.24446 0.0
C322 C 0.99635 0.65656 0.21548 0.0
H323 H 0.03529 0.626 0.29173 0.0
H324 H 0.9756 0.57995 0.24804 0.0
S325 S 0.07029 0.81167 0.19533 0.0
N326 N 0.0907 0.79873 0.23213 0.0
N327 N 0.02779 0.74921 0.18482 0.0
C328 C 0.02833 0.71482 0.21185 0.0
C329 C 0.06315 0.74111 0.23722 0.0
C330 C 0.48535 0.51263 0.77661 0.0
C331 C 0.43392 0.55505 0.7756 0.0
C332 C 0.50476 0.48048 0.74957 0.0
C333 C 0.47234 0.48911 0.72097 0.0
H334 H 0.5101 0.50403 0.79848 0.0
H335 H 0.54457 0.44783 0.75117 0.0
S336 S 0.33238 0.59328 0.70711 0.0
N337 N 0.34935 0.60246 0.74456 0.0
N338 N 0.38607 0.5431 0.69353 0.0
C339 C 0.42044 0.53127 0.71992 0.0
C340 C 0.40111 0.56401 0.74732 0.0
C341 C 0.54052 0.90308 0.23457 0.0
C342 C 0.57499 0.91515 0.2622 0.0
C343 C 0.56723 0.91519 0.20507 0.0
C344 C 0.62932 0.93938 0.20239 0.0
H345 H 0.49342 0.88229 0.2358 0.0
H346 H 0.53985 0.90424 0.18427 0.0
S347 S 0.73553 0.98651 0.26768 0.0
N348 N 0.67169 0.95725 0.28512 0.0
N349 N 0.72212 0.98057 0.22971 0.0
C350 C 0.66326 0.95372 0.22987 0.0
C351 C 0.63606 0.94134 0.2598 0.0
C352 C 0.89981 0.05105 0.25435 0.0
C353 C 0.95882 1.02041 0.25174 0.0
C354 C 0.87085 0.0784 0.2281 0.0
C355 C 0.89984 0.07503 0.1985 0.0
H356 H 0.87486 0.05149 0.27653 0.0
H357 H 0.8238 0.09877 0.23063 0.0
S358 S 0.0571 1.00431 0.18044 0.0
N359 N 0.04745 0.99148 0.21832 0.0
N360 N 0.99291 0.04315 0.16866 0.0
C361 C 0.9604 0.0472 0.19604 0.0
C362 C 0.98999 1.01973 0.22281 0.0
C363 C 0.13142 0.50955 0.714 0.0
C364 C 0.13359 0.47279 0.74162 0.0
C365 C 0.09552 0.48969 0.68816 0.0
C366 C 0.0599 0.43339 0.68952 0.0
H367 H 0.15844 0.55332 0.71223 0.0
H368 H 0.09595 0.5179 0.6669 0.0
S369 S 0.05053 0.31976 0.75586 0.0
N370 N 0.09713 0.37739 0.7686 0.0
N371 N 0.03047 0.33994 0.71978 0.0
C372 C 0.06171 0.39626 0.71687 0.0
C373 C 0.0984 0.41605 0.74302 0.0
C374 C 0.67172 0.5581 0.24296 0.0
C375 C 0.64111 0.61694 0.23887 0.0
C376 C 0.69353 0.52362 0.21725 0.0
C377 C 0.68576 0.54708 0.18662 0.0
H378 H 0.67976 0.53911 0.26625 0.0
H379 H 0.71952 0.47996 0.22152 0.0
S380 S 0.60554 0.69719 0.16344 0.0
N381 N 0.6017 0.69625 0.20206 0.0
N382 N 0.64222 0.63075 0.1535 0.0
C383 C 0.65299 0.60469 0.18218 0.0
C384 C 0.63072 0.63982 0.20838 0.0
C385 C 0.44988 0.1258 0.71042 0.0
C386 C 0.46078 0.15607 0.73934 0.0
C387 C 0.48318 0.14428 0.68343 0.0
C388 C 0.52881 0.19278 0.68475 0.0
H389 H 0.4151 0.08794 0.7086 0.0
H390 H 0.47347 0.12068 0.66145 0.0
S391 S 0.57375 0.28865 0.7538 0.0
N392 N 0.52034 0.23774 0.76717 0.0
N393 N 0.58141 0.27288 0.71618 0.0
C394 C 0.53952 0.224 0.71318 0.0
C395 C 0.50585 0.20552 0.74057 0.0
C396 C 0.86623 0.36161 0.56033 0.0
C397 C 0.88067 0.2965 0.55858 0.0
C398 C 0.80245 0.38288 0.56152 0.0
C399 C 0.75013 0.3402 0.56103 0.0
H400 H 0.90408 0.39583 0.56392 0.0
H401 H 0.79424 0.43312 0.56543 0.0
S402 S 0.76234 0.16579 0.5507 0.0
N403 N 0.83709 0.19023 0.55159 0.0
N404 N 0.71811 0.23037 0.55423 0.0
C405 C 0.76395 0.2758 0.55586 0.0
C406 C 0.82889 0.25405 0.5546 0.0
C407 C 0.89305 0.3016 0.06775 0.0
C408 C 0.8514 0.35425 0.06417 0.0
C409 C 0.87185 0.23809 0.06515 0.0
C410 C 0.80779 0.22384 0.05871 0.0
H411 H 0.9423 0.30922 0.07429 0.0
H412 H 0.9052 0.20005 0.07012 0.0
S413 S 0.68087 0.34342 0.04231 0.0
N414 N 0.74419 0.38695 0.0504 0.0
N415 N 0.70432 0.26857 0.04486 0.0
C416 C 0.76669 0.27604 0.05253 0.0
C417 C 0.78838 0.34078 0.05536 0.0
C418 C 0.31122 0.73899 0.39175 0.0
C419 C 0.36414 0.78068 0.39412 0.0
C420 C 0.2478 0.76062 0.39445 0.0
C421 C 0.23431 0.82508 0.39974 0.0
H422 H 0.31859 0.68969 0.3854 0.0
H423 H 0.2094 0.72777 0.38947 0.0
S424 S 0.3546 0.95178 0.41392 0.0
N425 N 0.39786 0.88791 0.40658 0.0
N426 N 0.27951 0.92862 0.41214 0.0
C427 C 0.28676 0.86584 0.40555 0.0
C428 C 0.35136 0.84374 0.4027 0.0
C429 C 0.37231 0.81949 0.90097 0.0
C430 C 0.32959 0.87174 0.90171 0.0
C431 C 0.35095 0.75574 0.90193 0.0
C432 C 0.28572 0.7413 0.90355 0.0
H433 H 0.42256 0.82784 0.89699 0.0
H434 H 0.3852 0.718 0.89817 0.0
S435 S 0.15488 0.85934 0.91171 0.0
N436 N 0.21959 0.90357 0.90861 0.0
N437 N 0.17932 0.78469 0.91045 0.0
C438 C 0.24325 0.79292 0.9077 0.0
C439 C 0.26509 0.8578 0.90683 0.0
C440 C 0.34461 0.30602 0.5896 0.0
C441 C 0.3745 0.34723 0.56795 0.0
C442 C 0.27775 0.29549 0.58899 0.0
C443 C 0.23787 0.32484 0.56644 0.0
H444 H 0.37243 0.2841 0.60807 0.0
H445 H 0.25726 0.26374 0.60625 0.0
S446 S 0.29222 0.43442 0.50374 0.0
N447 N 0.35797 0.41661 0.52313 0.0
N448 N 0.2345 0.39431 0.52109 0.0
C449 C 0.26761 0.36383 0.54401 0.0
C450 C 0.33503 0.3757 0.54505 0.0
C451 C 0.87637 0.74103 0.08131 0.0
C452 C 0.81246 0.7227 0.07712 0.0
C453 C 0.89434 0.80569 0.08398 0.0
C454 C 0.84975 0.85648 0.0825 0.0
H455 H 0.91323 0.70502 0.08233 0.0
H456 H 0.94449 0.81566 0.0872 0.0
S457 S 0.6752 0.83423 0.07182 0.0
N458 N 0.70379 0.7611 0.07193 0.0
N459 N 0.7374 0.88122 0.07629 0.0
C460 C 0.78547 0.83848 0.07826 0.0
C461 C 0.76707 0.7724 0.07564 0.0
C462 C 0.77853 0.75303 0.41501 0.0
C463 C 0.73806 0.77661 0.39109 0.0
C464 C 0.84504 0.76356 0.41494 0.0
C465 C 0.8756 0.79717 0.39061 0.0
H466 H 0.7587 0.72494 0.43394 0.0
H467 H 0.87299 0.74418 0.43406 0.0
S468 S 0.79215 0.87304 0.32332 0.0
N469 N 0.73424 0.83799 0.34297 0.0
N470 N 0.85819 0.85829 0.34302 0.0
C471 C 0.83559 0.82253 0.36696 0.0
C472 C 0.76745 0.8123 0.36718 0.0
C473 C 0.28724 0.27446 0.87551 0.0
C474 C 0.32862 0.2456 0.89745 0.0
C475 C 0.2753 0.34102 0.87578 0.0
C476 C 0.30368 0.38172 0.89812 0.0
H477 H 0.26607 0.24606 0.85716 0.0
H478 H 0.24301 0.36055 0.85849 0.0
S479 S 0.41118 0.32979 0.96223 0.0
N480 N 0.39523 0.26354 0.9431 0.0
N481 N 0.37129 0.38672 0.94403 0.0
C482 C 0.34243 0.35292 0.92099 0.0
C483 C 0.35533 0.28569 0.92048 0.0
loop_
_geom_bond_atom_site_label_1
_geom_bond_atom_site_label_2
_geom_bond_distance
_geom_bond_site_symmetry_2
_ccdc_geom_bond_type
C0 C1 1.351 1_655 S
C0 N3 1.368 1_655 S
C0 H5 0.931 . S
C1 C0 1.351 1_455 S
C1 N2 1.373 . S
C1 H29 0.930 1_455 S
N2 C1 1.373 . S
N2 C4 1.340 . S
N3 C0 1.368 1_455 S
N3 C4 1.321 . S
N3 Co6 2.135 . S
C4 N2 1.340 . S
C4 N3 1.321 . S
C4 H28 0.930 . S
H5 C0 0.931 . S
Co6 N3 2.135 . S
Co6 N9 2.121 . S
Co6 O14 2.055 1_455 S
Co6 O17 2.039 . S
Co6 N20 2.140 . S
C7 O8 1.227 . S
C7 O17 1.265 . S
O8 C7 1.227 . S
N9 Co6 2.121 . S
N9 C11 1.375 . S
N9 C12 1.313 . S
C10 C11 1.338 . S
C10 N13 1.377 . S
C10 H30 0.930 . S
C11 N9 1.375 . S
C11 C10 1.338 . S
C11 H15 0.931 . S
C12 N9 1.313 . S
C12 N13 1.344 . S
C12 H16 0.930 1_455 S
N13 C10 1.377 . S
N13 C12 1.344 . S
O14 Co6 2.055 1_655 S
O14 C18 1.253 . S
H15 C11 0.931 . S
H16 C12 0.930 1_655 S
O17 Co6 2.039 . S
O17 C7 1.265 . S
C18 O14 1.253 . S
C18 O19 1.227 . S
O19 C18 1.227 . S
N20 Co6 2.140 . S
N20 C23 1.346 . S
N20 C24 1.345 . S
C21 C22 1.387 . S
C21 C25 1.391 . S
C22 C21 1.387 . S
C22 C23 1.369 . S
C22 H31 0.929 . S
C23 N20 1.346 . S
C23 C22 1.369 . S
C23 H26 0.928 . S
C24 N20 1.345 . S
C24 C25 1.371 . S
C24 H27 0.931 . S
C25 C21 1.391 . S
C25 C24 1.371 . S
C25 H32 0.930 . S
H26 C23 0.928 . S
H27 C24 0.931 . S
H28 C4 0.930 . S
H29 C1 0.930 1_655 S
H30 C10 0.930 . S
H31 C22 0.929 . S
H32 C25 0.930 . S
C33 C34 1.351 . S
C33 N36 1.368 . S
C33 H38 0.931 . S
C34 C33 1.351 . S
C34 N35 1.373 . S
C34 H62 0.930 . S
N35 C34 1.373 . S
N35 C37 1.340 . S
N36 C33 1.368 . S
N36 C37 1.321 . S
N36 Co39 2.135 . S
C37 N35 1.340 . S
C37 N36 1.321 . S
C37 H61 0.930 . S
H38 C33 0.931 . S
Co39 N36 2.135 . S
Co39 N42 2.121 . S
Co39 O47 2.055 . S
Co39 O50 2.039 . S
Co39 N53 2.140 . S
C40 O41 1.227 . S
C40 O50 1.265 . S
O41 C40 1.227 . S
N42 Co39 2.121 . S
N42 C44 1.375 . S
N42 C45 1.313 . S
C43 C44 1.338 . S
C43 N46 1.377 . S
C43 H63 0.930 . S
C44 N42 1.375 . S
C44 C43 1.338 . S
C44 H48 0.931 . S
C45 N42 1.313 . S
C45 N46 1.344 . S
C45 H49 0.930 . S
N46 C43 1.377 . S
N46 C45 1.344 . S
O47 Co39 2.055 . S
O47 C51 1.253 . S
H48 C44 0.931 . S
H49 C45 0.930 . S
O50 Co39 2.039 . S
O50 C40 1.265 . S
C51 O47 1.253 . S
C51 O52 1.227 . S
O52 C51 1.227 . S
N53 Co39 2.140 . S
N53 C56 1.346 . S
N53 C57 1.345 . S
C54 C55 1.387 . S
C54 C58 1.391 . S
C55 C54 1.387 . S
C55 C56 1.369 . S
C55 H64 0.929 . S
C56 N53 1.346 . S
C56 C55 1.369 . S
C56 H59 0.928 . S
C57 N53 1.345 . S
C57 C58 1.371 . S
C57 H60 0.931 . S
C58 C54 1.391 . S
C58 C57 1.371 . S
C58 H65 0.930 . S
H59 C56 0.928 . S
H60 C57 0.931 . S
H61 C37 0.930 . S
H62 C34 0.930 . S
H63 C43 0.930 . S
H64 C55 0.929 . S
H65 C58 0.930 . S
C66 C67 1.351 . S
C66 N69 1.368 . S
C66 H71 0.931 . S
C67 C66 1.351 . S
C67 N68 1.373 . S
C67 H95 0.930 . S
N68 C67 1.373 . S
N68 C70 1.340 . S
N69 C66 1.368 . S
N69 C70 1.321 . S
N69 Co72 2.135 . S
C70 N68 1.340 . S
C70 N69 1.321 . S
C70 H94 0.930 . S
H71 C66 0.931 . S
Co72 N69 2.135 . S
Co72 N75 2.121 . S
Co72 O80 2.055 . S
Co72 O83 2.039 . S
Co72 N86 2.140 . S
C73 O74 1.227 . S
C73 O83 1.265 . S
O74 C73 1.227 . S
N75 Co72 2.121 . S
N75 C77 1.375 . S
N75 C78 1.313 . S
C76 C77 1.338 . S
C76 N79 1.377 . S
C76 H96 0.930 . S
C77 N75 1.375 . S
C77 C76 1.338 . S
C77 H81 0.931 . S
C78 N75 1.313 . S
C78 N79 1.344 . S
C78 H82 0.930 . S
N79 C76 1.377 . S
N79 C78 1.344 . S
O80 Co72 2.055 . S
O80 C84 1.253 . S
H81 C77 0.931 . S
H82 C78 0.930 . S
O83 Co72 2.039 . S
O83 C73 1.265 . S
C84 O80 1.253 . S
C84 O85 1.227 . S
O85 C84 1.227 . S
N86 Co72 2.140 . S
N86 C89 1.346 . S
N86 C90 1.345 . S
C87 C88 1.387 . S
C87 C91 1.391 . S
C88 C87 1.387 . S
C88 C89 1.369 . S
C88 H97 0.929 . S
C89 N86 1.346 . S
C89 C88 1.369 . S
C89 H92 0.928 . S
C90 N86 1.345 . S
C90 C91 1.371 . S
C90 H93 0.931 . S
C91 C87 1.391 . S
C91 C90 1.371 . S
C91 H98 0.930 . S
H92 C89 0.928 . S
H93 C90 0.931 . S
H94 C70 0.930 . S
H95 C67 0.930 . S
H96 C76 0.930 . S
H97 C88 0.929 . S
H98 C91 0.930 . S
C99 C100 1.351 . S
C99 N102 1.368 . S
C99 H104 0.931 . S
C100 C99 1.351 . S
C100 N101 1.373 . S
C100 H128 0.930 . S
N101 C100 1.373 . S
N101 C103 1.340 1_545 S
N102 C99 1.368 . S
N102 C103 1.321 1_545 S
N102 Co105 2.135 . S
C103 N101 1.340 1_565 S
C103 N102 1.321 1_565 S
C103 H127 0.930 . S
H104 C99 0.931 . S
Co105 N102 2.135 . S
Co105 N108 2.121 . S
Co105 O113 2.055 . S
Co105 O116 2.039 1_545 S
Co105 N119 2.140 . S
C106 O107 1.227 . S
C106 O116 1.265 . S
O107 C106 1.227 . S
N108 Co105 2.121 . S
N108 C110 1.375 1_545 S
N108 C111 1.313 . S
C109 C110 1.338 . S
C109 N112 1.377 1_565 S
C109 H129 0.930 . S
C110 N108 1.375 1_565 S
C110 C109 1.338 . S
C110 H114 0.931 . S
C111 N108 1.313 . S
C111 N112 1.344 . S
C111 H115 0.930 . S
N112 C109 1.377 1_545 S
N112 C111 1.344 . S
O113 Co105 2.055 . S
O113 C117 1.253 . S
H114 C110 0.931 . S
H115 C111 0.930 . S
O116 Co105 2.039 1_565 S
O116 C106 1.265 . S
C117 O113 1.253 . S
C117 O118 1.227 . S
O118 C117 1.227 . S
N119 Co105 2.140 . S
N119 C122 1.346 1_545 S
N119 C123 1.345 . S
C120 C121 1.387 . S
C120 C124 1.391 1_565 S
C121 C120 1.387 . S
C121 C122 1.369 . S
C121 H130 0.929 . S
C122 N119 1.346 1_565 S
C122 C121 1.369 . S
C122 H125 0.928 . S
C123 N119 1.345 . S
C123 C124 1.371 . S
C123 H126 0.931 . S
C124 C120 1.391 1_545 S
C124 C123 1.371 . S
C124 H131 0.930 . S
H125 C122 0.928 . S
H126 C123 0.931 . S
H127 C103 0.930 . S
H128 C100 0.930 . S
H129 C109 0.930 . S
H130 C121 0.929 . S
H131 C124 0.930 . S
C132 C133 1.351 . S
C132 N135 1.368 . S
C132 H137 0.931 . S
C133 C132 1.351 . S
C133 N134 1.373 . S
C133 H161 0.930 . S
N134 C133 1.373 . S
N134 C136 1.340 1_455 S
N135 C132 1.368 . S
N135 C136 1.321 1_455 S
N135 Co138 2.135 . S
C136 N134 1.340 1_655 S
C136 N135 1.321 1_655 S
C136 H160 0.930 . S
H137 C132 0.931 . S
Co138 N135 2.135 . S
Co138 N141 2.121 . S
Co138 O146 2.055 . S
Co138 O149 2.039 1_455 S
Co138 N152 2.140 . S
C139 O140 1.227 . S
C139 O149 1.265 . S
O140 C139 1.227 . S
N141 Co138 2.121 . S
N141 C143 1.375 1_455 S
N141 C144 1.313 . S
C142 C143 1.338 . S
C142 N145 1.377 1_655 S
C142 H162 0.930 . S
C143 N141 1.375 1_655 S
C143 C142 1.338 . S
C143 H147 0.931 . S
C144 N141 1.313 . S
C144 N145 1.344 . S
C144 H148 0.930 . S
N145 C142 1.377 1_455 S
N145 C144 1.344 . S
O146 Co138 2.055 . S
O146 C150 1.253 . S
H147 C143 0.931 . S
H148 C144 0.930 . S
O149 Co138 2.039 1_655 S
O149 C139 1.265 . S
C150 O146 1.253 . S
C150 O151 1.227 . S
O151 C150 1.227 . S
N152 Co138 2.140 . S
N152 C155 1.346 1_455 S
N152 C156 1.345 . S
C153 C154 1.387 . S
C153 C157 1.391 1_655 S
C154 C153 1.387 . S
C154 C155 1.369 . S
C154 H163 0.929 . S
C155 N152 1.346 1_655 S
C155 C154 1.369 . S
C155 H158 0.928 . S
C156 N152 1.345 . S
C156 C157 1.371 . S
C156 H159 0.931 . S
C157 C153 1.391 1_455 S
C157 C156 1.371 . S
C157 H164 0.930 . S
H158 C155 0.928 . S
H159 C156 0.931 . S
H160 C136 0.930 . S
H161 C133 0.930 . S
H162 C142 0.930 . S
H163 C154 0.929 . S
H164 C157 0.930 . S
C165 C166 1.351 . S
C165 N168 1.368 . S
C165 H170 0.931 . S
C166 C165 1.351 . S
C166 N167 1.373 . S
C166 H194 0.930 . S
N167 C166 1.373 . S
N167 C169 1.340 . S
N168 C165 1.368 . S
N168 C169 1.321 . S
N168 Co171 2.135 . S
C169 N167 1.340 . S
C169 N168 1.321 . S
C169 H193 0.930 . S
H170 C165 0.931 . S
Co171 N168 2.135 . S
Co171 N174 2.121 . S
Co171 O179 2.055 . S
Co171 O182 2.039 . S
Co171 N185 2.140 . S
C172 O173 1.227 . S
C172 O182 1.265 . S
O173 C172 1.227 . S
N174 Co171 2.121 . S
N174 C176 1.375 . S
N174 C177 1.313 . S
C175 C176 1.338 . S
C175 N178 1.377 . S
C175 H195 0.930 . S
C176 N174 1.375 . S
C176 C175 1.338 . S
C176 H180 0.931 . S
C177 N174 1.313 . S
C177 N178 1.344 . S
C177 H181 0.930 . S
N178 C175 1.377 . S
N178 C177 1.344 . S
O179 Co171 2.055 . S
O179 C183 1.253 . S
H180 C176 0.931 . S
H181 C177 0.930 . S
O182 Co171 2.039 . S
O182 C172 1.265 . S
C183 O179 1.253 . S
C183 O184 1.227 . S
O184 C183 1.227 . S
N185 Co171 2.140 . S
N185 C188 1.346 . S
N185 C189 1.345 . S
C186 C187 1.387 . S
C186 C190 1.391 . S
C187 C186 1.387 . S
C187 C188 1.369 . S
C187 H196 0.929 . S
C188 N185 1.346 . S
C188 C187 1.369 . S
C188 H191 0.928 . S
C189 N185 1.345 . S
C189 C190 1.371 . S
C189 H192 0.931 . S
C190 C186 1.391 . S
C190 C189 1.371 . S
C190 H197 0.930 . S
H191 C188 0.928 . S
H192 C189 0.931 . S
H193 C169 0.930 . S
H194 C166 0.930 . S
H195 C175 0.930 . S
H196 C187 0.929 . S
H197 C190 0.930 . S
C198 C199 1.351 . S
C198 N201 1.368 . S
C198 H203 0.931 . S
C199 C198 1.351 . S
C199 N200 1.373 . S
C199 H227 0.930 . S
N200 C199 1.373 . S
N200 C202 1.340 . S
N201 C198 1.368 . S
N201 C202 1.321 . S
N201 Co204 2.135 . S
C202 N200 1.340 . S
C202 N201 1.321 . S
C202 H226 0.930 . S
H203 C198 0.931 . S
Co204 N201 2.135 . S
Co204 N207 2.121 . S
Co204 O212 2.055 . S
Co204 O215 2.039 . S
Co204 N218 2.140 . S
C205 O206 1.227 . S
C205 O215 1.265 . S
O206 C205 1.227 . S
N207 Co204 2.121 . S
N207 C209 1.375 . S
N207 C210 1.313 . S
C208 C209 1.338 . S
C208 N211 1.377 . S
C208 H228 0.930 . S
C209 N207 1.375 . S
C209 C208 1.338 . S
C209 H213 0.931 . S
C210 N207 1.313 . S
C210 N211 1.344 . S
C210 H214 0.930 . S
N211 C208 1.377 . S
N211 C210 1.344 . S
O212 Co204 2.055 . S
O212 C216 1.253 . S
H213 C209 0.931 . S
H214 C210 0.930 . S
O215 Co204 2.039 . S
O215 C205 1.265 . S
C216 O212 1.253 . S
C216 O217 1.227 . S
O217 C216 1.227 . S
N218 Co204 2.140 . S
N218 C221 1.346 . S
N218 C222 1.345 . S
C219 C220 1.387 . S
C219 C223 1.391 . S
C220 C219 1.387 . S
C220 C221 1.369 . S
C220 H229 0.929 . S
C221 N218 1.346 . S
C221 C220 1.369 . S
C221 H224 0.928 . S
C222 N218 1.345 . S
C222 C223 1.371 . S
C222 H225 0.931 . S
C223 C219 1.391 . S
C223 C222 1.371 . S
C223 H230 0.930 . S
H224 C221 0.928 . S
H225 C222 0.931 . S
H226 C202 0.930 . S
H227 C199 0.930 . S
H228 C208 0.930 . S
H229 C220 0.929 . S
H230 C223 0.930 . S
C231 C232 1.351 1_565 S
C231 N234 1.368 1_565 S
C231 H236 0.931 . S
C232 C231 1.351 1_545 S
C232 N233 1.373 . S
C232 H260 0.930 1_545 S
N233 C232 1.373 . S
N233 C235 1.340 . S
N234 C231 1.368 1_545 S
N234 C235 1.321 . S
N234 Co237 2.135 . S
C235 N233 1.340 . S
C235 N234 1.321 . S
C235 H259 0.930 . S
H236 C231 0.931 . S
Co237 N234 2.135 . S
Co237 N240 2.121 . S
Co237 O245 2.055 1_545 S
Co237 O248 2.039 . S
Co237 N251 2.140 . S
C238 O239 1.227 . S
C238 O248 1.265 . S
O239 C238 1.227 . S
N240 Co237 2.121 . S
N240 C242 1.375 . S
N240 C243 1.313 . S
C241 C242 1.338 . S
C241 N244 1.377 . S
C241 H261 0.930 . S
C242 N240 1.375 . S
C242 C241 1.338 . S
C242 H246 0.931 . S
C243 N240 1.313 . S
C243 N244 1.344 . S
C243 H247 0.930 1_545 S
N244 C241 1.377 . S
N244 C243 1.344 . S
O245 Co237 2.055 1_565 S
O245 C249 1.253 . S
H246 C242 0.931 . S
H247 C243 0.930 1_565 S
O248 Co237 2.039 . S
O248 C238 1.265 . S
C249 O245 1.253 . S
C249 O250 1.227 . S
O250 C249 1.227 . S
N251 Co237 2.140 . S
N251 C254 1.346 . S
N251 C255 1.345 . S
C252 C253 1.387 . S
C252 C256 1.391 . S
C253 C252 1.387 . S
C253 C254 1.369 . S
C253 H262 0.929 . S
C254 N251 1.346 . S
C254 C253 1.369 . S
C254 H257 0.928 . S
C255 N251 1.345 . S
C255 C256 1.371 . S
C255 H258 0.931 . S
C256 C252 1.391 . S
C256 C255 1.371 . S
C256 H263 0.930 . S
H257 C254 0.928 . S
H258 C255 0.931 . S
H259 C235 0.930 . S
H260 C232 0.930 1_565 S
H261 C241 0.930 . S
H262 C253 0.929 . S
H263 C256 0.930 . S
C264 C265 1.369 1_655 S
C264 C266 1.419 1_565 S
C264 H268 0.930 . S
C265 C264 1.369 1_455 S
C265 C274 1.429 1_565 S
C266 C264 1.419 1_545 S
C266 C267 1.363 1_655 S
C266 H269 0.929 . S
C267 C266 1.363 1_455 S
C267 C273 1.428 . S
H268 C264 0.930 . S
H269 C266 0.929 . S
S270 N271 1.613 . S
S270 N272 1.610 . S
N271 S270 1.613 . S
N271 C274 1.350 . S
N272 S270 1.610 . S
N272 C273 1.351 . S
C273 C267 1.428 . S
C273 N272 1.351 . S
C273 C274 1.434 . S
C274 C265 1.429 1_545 S
C274 N271 1.350 . S
C274 C273 1.434 . S
C275 C276 1.369 1_455 S
C275 C277 1.419 . S
C275 H279 0.930 . S
C276 C275 1.369 1_655 S
C276 C285 1.429 1_554 S
C277 C275 1.419 . S
C277 C278 1.363 1_554 S
C277 H280 0.929 . S
C278 C277 1.363 1_556 S
C278 C284 1.428 . S
H279 C275 0.930 . S
H280 C277 0.929 . S
S281 N282 1.613 . S
S281 N283 1.610 1_655 S
N282 S281 1.613 . S
N282 C285 1.350 . S
N283 S281 1.610 1_455 S
N283 C284 1.351 . S
C284 C278 1.428 . S
C284 N283 1.351 . S
C284 C285 1.434 1_455 S
C285 C276 1.429 1_556 S
C285 N282 1.350 . S
C285 C284 1.434 1_655 S
C286 C287 1.369 . S
C286 C288 1.419 . S
C286 H290 0.930 . S
C287 C286 1.369 . S
C287 C296 1.429 . S
C288 C286 1.419 . S
C288 C289 1.363 . S
C288 H291 0.929 . S
C289 C288 1.363 . S
C289 C295 1.428 . S
H290 C286 0.930 . S
H291 C288 0.929 . S
S292 N293 1.613 . S
S292 N294 1.610 . S
N293 S292 1.613 . S
N293 C296 1.350 . S
N294 S292 1.610 . S
N294 C295 1.351 . S
C295 C289 1.428 . S
C295 N294 1.351 . S
C295 C296 1.434 . S
C296 C287 1.429 . S
C296 N293 1.350 . S
C296 C295 1.434 . S
C297 C298 1.369 1_564 S
C297 C299 1.419 1_565 S
C297 H301 0.930 . S
C298 C297 1.369 1_546 S
C298 C307 1.429 . S
C299 C297 1.419 1_545 S
C299 C300 1.363 . S
C299 H302 0.929 1_545 S
C300 C299 1.363 . S
C300 C306 1.428 1_554 S
H301 C297 0.930 . S
H302 C299 0.929 1_565 S
S303 N304 1.613 . S
S303 N305 1.610 . S
N304 S303 1.613 . S
N304 C307 1.350 . S
N305 S303 1.610 . S
N305 C306 1.351 . S
C306 C300 1.428 1_556 S
C306 N305 1.351 . S
C306 C307 1.434 . S
C307 C298 1.429 . S
C307 N304 1.350 . S
C307 C306 1.434 . S
C308 C309 1.369 . S
C308 C310 1.419 . S
C308 H312 0.930 . S
C309 C308 1.369 . S
C309 C318 1.429 . S
C310 C308 1.419 . S
C310 C311 1.363 . S
C310 H313 0.929 . S
C311 C310 1.363 . S
C311 C317 1.428 . S
H312 C308 0.930 . S
H313 C310 0.929 . S
S314 N315 1.613 1_655 S
S314 N316 1.610 . S
N315 S314 1.613 1_455 S
N315 C318 1.350 . S
N316 S314 1.610 . S
N316 C317 1.351 1_655 S
C317 C311 1.428 . S
C317 N316 1.351 1_455 S
C317 C318 1.434 . S
C318 C309 1.429 . S
C318 N315 1.350 . S
C318 C317 1.434 . S
C319 C320 1.369 . S
C319 C321 1.419 . S
C319 H323 0.930 1_655 S
C320 C319 1.369 . S
C320 C329 1.429 . S
C321 C319 1.419 . S
C321 C322 1.363 . S
C321 H324 0.929 . S
C322 C321 1.363 . S
C322 C328 1.428 . S
H323 C319 0.930 1_455 S
H324 C321 0.929 . S
S325 N326 1.613 . S
S325 N327 1.610 . S
N326 S325 1.613 . S
N326 C329 1.350 . S
N327 S325 1.610 . S
N327 C328 1.351 . S
C328 C322 1.428 . S
C328 N327 1.351 . S
C328 C329 1.434 . S
C329 C320 1.429 . S
C329 N326 1.350 . S
C329 C328 1.434 . S
C330 C331 1.369 . S
C330 C332 1.419 . S
C330 H334 0.930 . S
C331 C330 1.369 . S
C331 C340 1.429 . S
C332 C330 1.419 . S
C332 C333 1.363 . S
C332 H335 0.929 . S
C333 C332 1.363 . S
C333 C339 1.428 . S
H334 C330 0.930 . S
H335 C332 0.929 . S
S336 N337 1.613 . S
S336 N338 1.610 . S
N337 S336 1.613 . S
N337 C340 1.350 . S
N338 S336 1.610 . S
N338 C339 1.351 . S
C339 C333 1.428 . S
C339 N338 1.351 . S
C339 C340 1.434 . S
C340 C331 1.429 . S
C340 N337 1.350 . S
C340 C339 1.434 . S
C341 C342 1.369 . S
C341 C343 1.419 . S
C341 H345 0.930 . S
C342 C341 1.369 . S
C342 C351 1.429 . S
C343 C341 1.419 . S
C343 C344 1.363 . S
C343 H346 0.929 . S
C344 C343 1.363 . S
C344 C350 1.428 1_565 S
H345 C341 0.930 . S
H346 C343 0.929 . S
S347 N348 1.613 . S
S347 N349 1.610 . S
N348 S347 1.613 . S
N348 C351 1.350 1_545 S
N349 S347 1.610 . S
N349 C350 1.351 . S
C350 C344 1.428 1_545 S
C350 N349 1.351 . S
C350 C351 1.434 1_545 S
C351 C342 1.429 . S
C351 N348 1.350 1_565 S
C351 C350 1.434 1_565 S
C352 C353 1.369 . S
C352 C354 1.419 . S
C352 H356 0.930 . S
C353 C352 1.369 . S
C353 C362 1.429 1_565 S
C354 C352 1.419 . S
C354 C355 1.363 . S
C354 H357 0.929 . S
C355 C354 1.363 . S
C355 C361 1.428 1_565 S
H356 C352 0.930 . S
H357 C354 0.929 . S
S358 N359 1.613 . S
S358 N360 1.610 . S
N359 S358 1.613 . S
N359 C362 1.350 1_455 S
N360 S358 1.610 . S
N360 C361 1.351 1_455 S
C361 C355 1.428 1_545 S
C361 N360 1.351 1_655 S
C361 C362 1.434 . S
C362 C353 1.429 1_545 S
C362 N359 1.350 1_655 S
C362 C361 1.434 . S
C363 C364 1.369 . S
C363 C365 1.419 . S
C363 H367 0.930 . S
C364 C363 1.369 . S
C364 C373 1.429 . S
C365 C363 1.419 . S
C365 C366 1.363 . S
C365 H368 0.929 . S
C366 C365 1.363 . S
C366 C372 1.428 . S
H367 C363 0.930 . S
H368 C365 0.929 . S
S369 N370 1.613 1_655 S
S369 N371 1.610 . S
N370 S369 1.613 1_455 S
N370 C373 1.350 . S
N371 S369 1.610 . S
N371 C372 1.351 1_655 S
C372 C366 1.428 . S
C372 N371 1.351 1_455 S
C372 C373 1.434 . S
C373 C364 1.429 . S
C373 N370 1.350 . S
C373 C372 1.434 . S
C374 C375 1.369 . S
C374 C376 1.419 . S
C374 H378 0.930 . S
C375 C374 1.369 . S
C375 C384 1.429 . S
C376 C374 1.419 . S
C376 C377 1.363 . S
C376 H379 0.929 . S
C377 C376 1.363 . S
C377 C383 1.428 . S
H378 C374 0.930 . S
H379 C376 0.929 . S
S380 N381 1.613 . S
S380 N382 1.610 . S
N381 S380 1.613 . S
N381 C384 1.350 . S
N382 S380 1.610 . S
N382 C383 1.351 . S
C383 C377 1.428 . S
C383 N382 1.351 . S
C383 C384 1.434 . S
C384 C375 1.429 . S
C384 N381 1.350 . S
C384 C383 1.434 . S
C385 C386 1.369 . S
C385 C387 1.419 . S
C385 H389 0.930 . S
C386 C385 1.369 . S
C386 C395 1.429 . S
C387 C385 1.419 . S
C387 C388 1.363 . S
C387 H390 0.929 . S
C388 C387 1.363 . S
C388 C394 1.428 . S
H389 C385 0.930 . S
H390 C387 0.929 . S
S391 N392 1.613 . S
S391 N393 1.610 . S
N392 S391 1.613 . S
N392 C395 1.350 . S
N393 S391 1.610 . S
N393 C394 1.351 . S
C394 C388 1.428 . S
C394 N393 1.351 . S
C394 C395 1.434 . S
C395 C386 1.429 . S
C395 N392 1.350 . S
C395 C394 1.434 . S
C396 C397 1.369 . S
C396 C398 1.419 . S
C396 H400 0.930 . S
C397 C396 1.369 . S
C397 C406 1.429 . S
C398 C396 1.419 . S
C398 C399 1.363 . S
C398 H401 0.929 . S
C399 C398 1.363 . S
C399 C405 1.428 . S
H400 C396 0.930 . S
H401 C398 0.929 . S
S402 N403 1.613 . S
S402 N404 1.610 . S
N403 S402 1.613 . S
N403 C406 1.350 . S
N404 S402 1.610 . S
N404 C405 1.351 . S
C405 C399 1.428 . S
C405 N404 1.351 . S
C405 C406 1.434 . S
C406 C397 1.429 . S
C406 N403 1.350 . S
C406 C405 1.434 . S
C407 C408 1.369 . S
C407 C409 1.419 . S
C407 H411 0.930 . S
C408 C407 1.369 . S
C408 C417 1.429 . S
C409 C407 1.419 . S
C409 C410 1.363 . S
C409 H412 0.929 . S
C410 C409 1.363 . S
C410 C416 1.428 . S
H411 C407 0.930 . S
H412 C409 0.929 . S
S413 N414 1.613 . S
S413 N415 1.610 . S
N414 S413 1.613 . S
N414 C417 1.350 . S
N415 S413 1.610 . S
N415 C416 1.351 . S
C416 C410 1.428 . S
C416 N415 1.351 . S
C416 C417 1.434 . S
C417 C408 1.429 . S
C417 N414 1.350 . S
C417 C416 1.434 . S
C418 C419 1.369 . S
C418 C420 1.419 . S
C418 H422 0.930 . S
C419 C418 1.369 . S
C419 C428 1.429 . S
C420 C418 1.419 . S
C420 C421 1.363 . S
C420 H423 0.929 . S
C421 C420 1.363 . S
C421 C427 1.428 . S
H422 C418 0.930 . S
H423 C420 0.929 . S
S424 N425 1.613 . S
S424 N426 1.610 . S
N425 S424 1.613 . S
N425 C428 1.350 . S
N426 S424 1.610 . S
N426 C427 1.351 . S
C427 C421 1.428 . S
C427 N426 1.351 . S
C427 C428 1.434 . S
C428 C419 1.429 . S
C428 N425 1.350 . S
C428 C427 1.434 . S
C429 C430 1.369 . S
C429 C431 1.419 . S
C429 H433 0.930 . S
C430 C429 1.369 . S
C430 C439 1.429 . S
C431 C429 1.419 . S
C431 C432 1.363 . S
C431 H434 0.929 . S
C432 C431 1.363 . S
C432 C438 1.428 . S
H433 C429 0.930 . S
H434 C431 0.929 . S
S435 N436 1.613 . S
S435 N437 1.610 . S
N436 S435 1.613 . S
N436 C439 1.350 . S
N437 S435 1.610 . S
N437 C438 1.351 . S
C438 C432 1.428 . S
C438 N437 1.351 . S
C438 C439 1.434 . S
C439 C430 1.429 . S
C439 N436 1.350 . S
C439 C438 1.434 . S
C440 C441 1.369 . S
C440 C442 1.419 . S
C440 H444 0.930 . S
C441 C440 1.369 . S
C441 C450 1.429 . S
C442 C440 1.419 . S
C442 C443 1.363 . S
C442 H445 0.929 . S
C443 C442 1.363 . S
C443 C449 1.428 . S
H444 C440 0.930 . S
H445 C442 0.929 . S
S446 N447 1.613 . S
S446 N448 1.610 . S
N447 S446 1.613 . S
N447 C450 1.350 . S
N448 S446 1.610 . S
N448 C449 1.351 . S
C449 C443 1.428 . S
C449 N448 1.351 . S
C449 C450 1.434 . S
C450 C441 1.429 . S
C450 N447 1.350 . S
C450 C449 1.434 . S
C451 C452 1.369 . S
C451 C453 1.419 . S
C451 H455 0.930 . S
C452 C451 1.369 . S
C452 C461 1.429 . S
C453 C451 1.419 . S
C453 C454 1.363 . S
C453 H456 0.929 . S
C454 C453 1.363 . S
C454 C460 1.428 . S
H455 C451 0.930 . S
H456 C453 0.929 . S
S457 N458 1.613 . S
S457 N459 1.610 . S
N458 S457 1.613 . S
N458 C461 1.350 . S
N459 S457 1.610 . S
N459 C460 1.351 . S
C460 C454 1.428 . S
C460 N459 1.351 . S
C460 C461 1.434 . S
C461 C452 1.429 . S
C461 N458 1.350 . S
C461 C460 1.434 . S
C462 C463 1.369 . S
C462 C464 1.419 . S
C462 H466 0.930 . S
C463 C462 1.369 . S
C463 C472 1.429 . S
C464 C462 1.419 . S
C464 C465 1.363 . S
C464 H467 0.929 . S
C465 C464 1.363 . S
C465 C471 1.428 . S
H466 C462 0.930 . S
H467 C464 0.929 . S
S468 N469 1.613 . S
S468 N470 1.610 . S
N469 S468 1.613 . S
N469 C472 1.350 . S
N470 S468 1.610 . S
N470 C471 1.351 . S
C471 C465 1.428 . S
C471 N470 1.351 . S
C471 C472 1.434 . S
C472 C463 1.429 . S
C472 N469 1.350 . S
C472 C471 1.434 . S
C473 C474 1.369 . S
C473 C475 1.419 . S
C473 H477 0.930 . S
C474 C473 1.369 . S
C474 C483 1.429 . S
C475 C473 1.419 . S
C475 C476 1.363 . S
C475 H478 0.929 . S
C476 C475 1.363 . S
C476 C482 1.428 . S
H477 C473 0.930 . S
H478 C475 0.929 . S
S479 N480 1.613 . S
S479 N481 1.610 . S
N480 S479 1.613 . S
N480 C483 1.350 . S
N481 S479 1.610 . S
N481 C482 1.351 . S
C482 C476 1.428 . S
C482 N481 1.351 . S
C482 C483 1.434 . S
C483 C474 1.429 . S
C483 N480 1.350 . S
C483 C482 1.434 . S
C265 N145 1.624 . S
C267 N13 1.613 . S
C276 N46 1.617 . S
C278 N178 1.619 . S
C287 N79 1.624 . S
C289 N211 1.614 . S
C298 N244 1.615 . S
C300 N112 1.621 . S
C309 N233 0.992 . S
C311 C21 1.007 . S
C320 N134 0.988 1_655 S
C322 C54 1.002 . S
C331 N167 0.992 . S
C333 C87 1.000 . S
C342 N200 0.996 . S
C344 C120 1.003 . S
C353 C153 1.013 . S
C355 N101 0.986 1_565 S
C364 C186 1.010 . S
C366 N2 0.982 . S
C375 C219 0.998 . S
C377 N35 0.994 . S
C386 C252 1.004 . S
C388 N68 0.985 . S
C397 C18 1.607 . S
C399 C84 1.608 . S
C408 C51 1.606 . S
C410 C117 1.603 . S
C419 C216 1.609 . S
C421 C150 1.605 . S
C430 C249 1.607 . S
C432 C183 1.607 . S
C441 C73 1.441 . S
C443 C7 1.451 . S
C452 C40 1.451 . S
C454 C106 1.442 . S
C463 C205 1.444 . S
C465 C139 1.440 . S
C474 C238 1.446 . S
C476 C172 1.453 . S
