# Generated by pormake.
# Topology ske, (6)-cn, num edge types: 1
# Building blocks:
#     Node 0, Type 0, BuildingBlock: INOVEN_clean_sbu_0, # of connection points: 6
#     Node 1, Type 0, BuildingBlock: INOVEN_clean_sbu_0, # of connection points: 6
#     Node 2, Type 0, BuildingBlock: INOVEN_clean_sbu_0, # of connection points: 6
#     Node 3, Type 0, BuildingBlock: INOVEN_clean_sbu_0, # of connection points: 6
#     Node 4, Type 0, BuildingBlock: INOVEN_clean_sbu_0, # of connection points: 6
#     Node 5, Type 0, BuildingBlock: INOVEN_clean_sbu_0, # of connection points: 6
#     Node 6, Type 0, BuildingBlock: INOVEN_clean_sbu_0, # of connection points: 6
#     Node 7, Type 0, BuildingBlock: INOVEN_clean_sbu_0, # of connection points: 6
#     Edge 8, Type (0, 0), BuildingBlock: EYOCIG_clean_linker_4, # of connection points: 2
#     Edge 9, Type (0, 0), BuildingBlock: EYOCIG_clean_linker_4, # of connection points: 2
#     Edge 10, Type (0, 0), BuildingBlock: EYOCIG_clean_linker_4, # of connection points: 2
#     Edge 11, Type (0, 0), BuildingBlock: EYOCIG_clean_linker_4, # of connection points: 2
#     Edge 12, Type (0, 0), BuildingBlock: EYOCIG_clean_linker_4, # of connection points: 2
#     Edge 13, Type (0, 0), BuildingBlock: EYOCIG_clean_linker_4, # of connection points: 2
#     Edge 14, Type (0, 0), BuildingBlock: EYOCIG_clean_linker_4, # of connection points: 2
#     Edge 15, Type (0, 0), BuildingBlock: EYOCIG_clean_linker_4, # of connection points: 2
#     Edge 16, Type (0, 0), BuildingBlock: EYOCIG_clean_linker_4, # of connection points: 2
#     Edge 17, Type (0, 0), BuildingBlock: EYOCIG_clean_linker_4, # of connection points: 2
#     Edge 18, Type (0, 0), BuildingBlock: EYOCIG_clean_linker_4, # of connection points: 2
#     Edge 19, Type (0, 0), BuildingBlock: EYOCIG_clean_linker_4, # of connection points: 2
#     Edge 20, Type (0, 0), BuildingBlock: EYOCIG_clean_linker_4, # of connection points: 2
#     Edge 21, Type (0, 0), BuildingBlock: EYOCIG_clean_linker_4, # of connection points: 2
#     Edge 22, Type (0, 0), BuildingBlock: EYOCIG_clean_linker_4, # of connection points: 2
#     Edge 23, Type (0, 0), BuildingBlock: EYOCIG_clean_linker_4, # of connection points: 2
#     Edge 24, Type (0, 0), BuildingBlock: EYOCIG_clean_linker_4, # of connection points: 2
#     Edge 25, Type (0, 0), BuildingBlock: EYOCIG_clean_linker_4, # of connection points: 2
#     Edge 26, Type (0, 0), BuildingBlock: EYOCIG_clean_linker_4, # of connection points: 2
#     Edge 27, Type (0, 0), BuildingBlock: EYOCIG_clean_linker_4, # of connection points: 2
#     Edge 28, Type (0, 0), BuildingBlock: EYOCIG_clean_linker_4, # of connection points: 2
#     Edge 29, Type (0, 0), BuildingBlock: EYOCIG_clean_linker_4, # of connection points: 2
#     Edge 30, Type (0, 0), BuildingBlock: EYOCIG_clean_linker_4, # of connection points: 2
#     Edge 31, Type (0, 0), BuildingBlock: EYOCIG_clean_linker_4, # of connection points: 2
# Relax obj value: 0.199
# Max RMSD: 0.213
# Mean RMSD: 0.206
data_MOF--net-ske--node1-INOVEN_clean_sbu_0--edge1-EYOCIG_clean_linker_4
_symmetry_space_group_name_H-M    P1
_symmetry_Int_Tables_number       1
_symmetry_cell_setting            triclinic
loop_
_symmetry_equiv_pos_as_xyz
'x, y, z'
_cell_length_a     88.186969
_cell_length_b     22.805499
_cell_length_c     12.306419
_cell_angle_alpha  90.018424
_cell_angle_beta   89.981636
_cell_angle_gamma 82.009654
loop_
_atom_site_label
_atom_site_type_symbol
_atom_site_fract_x
_atom_site_fract_y
_atom_site_fract_z
_atom_type_partial_charge
Gd0 Gd 0.17622 0.25146 0.4603 0.0
Gd1 Gd 0.14235 0.26356 0.45141 0.0
C2 C 0.15724 0.25846 0.68542 0.0
C3 C 0.20467 0.26289 0.49456 0.0
C4 C 0.21776 0.25709 0.57091 0.0
C5 C 0.2285 0.20529 0.57098 0.0
C6 C 0.22119 0.30699 0.62842 0.0
C7 C 0.24649 0.25614 0.67047 0.0
C8 C 0.23547 0.30645 0.67802 0.0
C9 C 0.24277 0.20486 0.62062 0.0
C10 C 0.1653 0.1452 0.4574 0.0
C11 C 0.16179 0.25913 0.22642 0.0
C12 C 0.1139 0.25248 0.41303 0.0
C13 C 0.10043 0.25916 0.33855 0.0
C14 C 0.08994 0.31176 0.33935 0.0
C15 C 0.09625 0.20939 0.28428 0.0
C16 C 0.07068 0.26159 0.25099 0.0
C17 C 0.08149 0.21064 0.24077 0.0
C18 C 0.0752 0.31288 0.29604 0.0
C19 C 0.15304 0.36785 0.4774 0.0
O20 O 0.16998 0.26753 0.63633 0.0
O21 O 0.14515 0.2464 0.63075 0.0
O22 O 0.20024 0.21475 0.4555 0.0
O23 O 0.19335 0.30552 0.5103 0.0
O24 O 0.17736 0.15624 0.40581 0.0
O25 O 0.15961 0.19061 0.50945 0.0
O26 O 0.1489 0.25132 0.27465 0.0
O27 O 0.17404 0.26776 0.28153 0.0
O28 O 0.11833 0.30005 0.4546 0.0
O29 O 0.12524 0.20991 0.39631 0.0
O30 O 0.14068 0.35477 0.522 0.0
O31 O 0.15883 0.32684 0.41398 0.0
H32 H 0.22629 0.16625 0.52689 0.0
H33 H 0.21323 0.3477 0.62931 0.0
H34 H 0.23821 0.34637 0.71672 0.0
H35 H 0.25119 0.16558 0.61461 0.0
H36 H 0.09269 0.35094 0.38042 0.0
H37 H 0.10399 0.16812 0.28227 0.0
H38 H 0.07823 0.17059 0.20586 0.0
H39 H 0.06702 0.35274 0.30436 0.0
Gd40 Gd 0.88967 0.26829 0.46061 0.0
Gd41 Gd 0.92353 0.25584 0.45162 0.0
C42 C 0.90865 0.26134 0.6857 0.0
C43 C 0.86119 0.25735 0.49476 0.0
C44 C 0.84807 0.26344 0.57098 0.0
C45 C 0.8374 0.31545 0.57107 0.0
C46 C 0.84455 0.21366 0.62836 0.0
C47 C 0.81931 0.26508 0.67048 0.0
C48 C 0.83025 0.21454 0.67793 0.0
C49 C 0.82312 0.31621 0.62068 0.0
C50 C 0.90067 0.37439 0.45779 0.0
C51 C 0.9041 0.26077 0.22671 0.0
C52 C 0.95201 0.26656 0.41309 0.0
C53 C 0.96547 0.25979 0.33848 0.0
C54 C 0.97594 0.20716 0.33919 0.0
C55 C 0.96965 0.30952 0.28417 0.0
C56 C 0.99521 0.25724 0.2508 0.0
C57 C 0.98441 0.30821 0.24061 0.0
C58 C 0.99068 0.20598 0.29583 0.0
C59 C 0.91277 0.15166 0.47741 0.0
O60 O 0.8959 0.2523 0.63667 0.0
O61 O 0.92074 0.27321 0.63092 0.0
O62 O 0.86568 0.30535 0.4557 0.0
O63 O 0.87247 0.21456 0.51062 0.0
O64 O 0.88861 0.36344 0.40609 0.0
O65 O 0.90632 0.32896 0.5098 0.0
O66 O 0.91699 0.26843 0.27497 0.0
O67 O 0.89185 0.25209 0.28179 0.0
O68 O 0.94753 0.21904 0.45453 0.0
O69 O 0.94069 0.30927 0.39662 0.0
O70 O 0.92513 0.16466 0.52213 0.0
O71 O 0.90701 0.19271 0.41405 0.0
H72 H 0.83968 0.3544 0.52706 0.0
H73 H 0.85245 0.1728 0.62921 0.0
H74 H 0.82745 0.17471 0.71657 0.0
H75 H 0.81475 0.35566 0.61471 0.0
H76 H 0.97318 0.16801 0.38028 0.0
H77 H 0.96193 0.35081 0.28221 0.0
H78 H 0.98769 0.34824 0.20572 0.0
H79 H 0.99885 0.16609 0.30411 0.0
Gd80 Gd 0.14157 0.76703 0.61525 0.0
Gd81 Gd 0.17751 0.7515 0.60376 0.0
C82 C 0.16155 0.75953 0.83977 0.0
C83 C 0.11308 0.75766 0.65217 0.0
C84 C 0.09986 0.7622 0.72806 0.0
C85 C 0.08924 0.81435 0.72991 0.0
C86 C 0.09601 0.71145 0.78069 0.0
C87 C 0.07044 0.76218 0.81803 0.0
C88 C 0.08138 0.71151 0.82552 0.0
C89 C 0.07464 0.81425 0.77435 0.0
C90 C 0.15378 0.8673 0.57961 0.0
C91 C 0.15758 0.75489 0.38289 0.0
C92 C 0.20513 0.77326 0.57662 0.0
C93 C 0.21829 0.76305 0.50123 0.0
C94 C 0.22853 0.70985 0.50259 0.0
C95 C 0.22192 0.81071 0.43852 0.0
C96 C 0.24671 0.75614 0.3959 0.0
C97 C 0.23605 0.80727 0.38615 0.0
C98 C 0.2427 0.70651 0.44999 0.0
C99 C 0.16769 0.64394 0.57774 0.0
O100 O 0.148 0.76333 0.79259 0.0
O101 O 0.17457 0.75677 0.78543 0.0
O102 O 0.11786 0.8066 0.6199 0.0
O103 O 0.1241 0.71292 0.66028 0.0
O104 O 0.14093 0.85648 0.53871 0.0
O105 O 0.1593 0.82605 0.64365 0.0
O106 O 0.1703 0.76649 0.42966 0.0
O107 O 0.14539 0.74418 0.4384 0.0
O108 O 0.20177 0.72863 0.635 0.0
O109 O 0.19306 0.80884 0.54322 0.0
O110 O 0.18194 0.65155 0.57702 0.0
O111 O 0.15973 0.69345 0.59313 0.0
H112 H 0.09175 0.85415 0.6898 0.0
H113 H 0.10387 0.6705 0.78048 0.0
H114 H 0.07831 0.67086 0.8592 0.0
H115 H 0.06632 0.85382 0.76794 0.0
H116 H 0.22603 0.67211 0.54933 0.0
H117 H 0.21425 0.85214 0.43569 0.0
H118 H 0.23899 0.84585 0.34393 0.0
H119 H 0.25085 0.6665 0.45717 0.0
Gd120 Gd 0.92422 0.75277 0.61524 0.0
Gd121 Gd 0.88827 0.76795 0.60371 0.0
C122 C 0.90422 0.7599 0.83979 0.0
C123 C 0.95264 0.76325 0.65237 0.0
C124 C 0.96589 0.75794 0.728 0.0
C125 C 0.97644 0.70556 0.72921 0.0
C126 C 0.96984 0.80839 0.78116 0.0
C127 C 0.99535 0.75697 0.81782 0.0
C128 C 0.98449 0.80785 0.82589 0.0
C129 C 0.99105 0.70517 0.77359 0.0
C130 C 0.91211 0.6522 0.58071 0.0
C131 C 0.9082 0.7643 0.38293 0.0
C132 C 0.86065 0.74614 0.57676 0.0
C133 C 0.84749 0.75642 0.50147 0.0
C134 C 0.83728 0.80971 0.50285 0.0
C135 C 0.84382 0.70877 0.43888 0.0
C136 C 0.81905 0.76351 0.39656 0.0
C137 C 0.82968 0.71229 0.38672 0.0
C138 C 0.8231 0.81314 0.45044 0.0
C139 C 0.89806 0.87554 0.57688 0.0
O140 O 0.91778 0.75591 0.79263 0.0
O141 O 0.8912 0.76288 0.78542 0.0
O142 O 0.94805 0.71465 0.61642 0.0
O143 O 0.94146 0.80714 0.66393 0.0
O144 O 0.92501 0.66285 0.54029 0.0
O145 O 0.90652 0.69368 0.64411 0.0
O146 O 0.89551 0.7524 0.4298 0.0
O147 O 0.92035 0.7755 0.4384 0.0
O148 O 0.86401 0.79074 0.63526 0.0
O149 O 0.87272 0.71059 0.54317 0.0
O150 O 0.88381 0.86787 0.57628 0.0
O151 O 0.90601 0.82608 0.59257 0.0
H152 H 0.97384 0.66596 0.68872 0.0
H153 H 0.96204 0.8495 0.7814 0.0
H154 H 0.98763 0.84829 0.85997 0.0
H155 H 0.99931 0.66545 0.76674 0.0
H156 H 0.83981 0.84745 0.54948 0.0
H157 H 0.85147 0.66728 0.43602 0.0
H158 H 0.82671 0.67371 0.34463 0.0
H159 H 0.81498 0.85321 0.45766 0.0
Gd160 Gd 0.67698 0.75213 1.02897 0.0
Gd161 Gd 0.64268 0.76328 1.02116 0.0
C162 C 0.65777 0.75726 0.25452 0.0
C163 C 0.70529 0.764 0.06573 0.0
C164 C 0.71799 0.75739 0.14541 0.0
C165 C 0.72853 0.705 0.14778 0.0
C166 C 0.72135 0.80696 0.20416 0.0
C167 C 0.74639 0.75508 0.24988 0.0
C168 C 0.73548 0.80574 0.25618 0.0
C169 C 0.74265 0.70392 0.19979 0.0
C170 C 0.6661 0.64798 1.01575 0.0
C171 C 0.66213 0.75725 0.79584 0.0
C172 C 0.61411 0.75326 0.98704 0.0
C173 C 0.60047 0.75968 0.91462 0.0
C174 C 0.58997 0.81221 0.91649 0.0
C175 C 0.59623 0.70976 0.86142 0.0
C176 C 0.57063 0.76183 0.83008 0.0
C177 C 0.58141 0.71087 0.81938 0.0
C178 C 0.57517 0.81319 0.87461 0.0
C179 C 0.65386 0.86695 0.03591 0.0
O180 O 0.67051 0.76638 0.20544 0.0
O181 O 0.64559 0.74619 0.20013 0.0
O182 O 0.70098 0.71598 1.02503 0.0
O183 O 0.69393 0.80684 0.07977 0.0
O184 O 0.67844 0.65895 0.96786 0.0
O185 O 0.66039 0.69113 0.07337 0.0
O186 O 0.64933 0.74846 0.84481 0.0
O187 O 0.67428 0.76842 0.85018 0.0
O188 O 0.61877 0.80106 1.02578 0.0
O189 O 0.62529 0.71006 0.97024 0.0
O190 O 0.64157 0.85613 0.08462 0.0
O191 O 0.65929 0.82407 0.97691 0.0
H192 H 0.72634 0.66606 0.1033 0.0
H193 H 0.71352 0.84799 0.2038 0.0
H194 H 0.73823 0.84553 0.2953 0.0
H195 H 0.75099 0.66432 0.19493 0.0
H196 H 0.59278 0.85142 0.95715 0.0
H197 H 0.60397 0.66853 0.85898 0.0
H198 H 0.5781 0.67076 0.78508 0.0
H199 H 0.56698 0.85301 0.88343 0.0
Gd200 Gd 0.389 0.76669 1.02986 0.0
Gd201 Gd 0.42328 0.75611 1.0221 0.0
C202 C 0.40818 0.76188 0.25536 0.0
C203 C 0.36067 0.75507 0.06637 0.0
C204 C 0.34789 0.76184 0.14553 0.0
C205 C 0.33736 0.81427 0.14745 0.0
C206 C 0.34445 0.71234 0.20409 0.0
C207 C 0.31939 0.76436 0.24892 0.0
C208 C 0.33028 0.71366 0.25558 0.0
C209 C 0.32319 0.81545 0.1989 0.0
C210 C 0.39979 0.87108 1.01587 0.0
C211 C 0.40387 0.76071 0.79674 0.0
C212 C 0.45181 0.76677 0.98737 0.0
C213 C 0.46543 0.75998 0.91469 0.0
C214 C 0.47587 0.70727 0.91636 0.0
C215 C 0.46973 0.80975 0.86137 0.0
C216 C 0.49528 0.75722 0.82979 0.0
C217 C 0.48455 0.80834 0.81916 0.0
C218 C 0.49067 0.70598 0.8743 0.0
C219 C 0.41228 0.65218 0.03807 0.0
O220 O 0.39547 0.75238 0.20624 0.0
O221 O 0.42032 0.77345 0.201 0.0
O222 O 0.36502 0.803 1.0257 0.0
O223 O 0.372 0.71221 0.0808 0.0
O224 O 0.38752 0.85967 0.96765 0.0
O225 O 0.4055 0.82816 0.07394 0.0
O226 O 0.41664 0.76998 0.84555 0.0
O227 O 0.39174 0.74954 0.8513 0.0
O228 O 0.44724 0.71918 1.02772 0.0
O229 O 0.44055 0.80953 0.96949 0.0
O230 O 0.42455 0.66341 0.08634 0.0
O231 O 0.40678 0.69476 0.97863 0.0
H232 H 0.3396 0.85315 0.10307 0.0
H233 H 0.35227 0.67127 0.20402 0.0
H234 H 0.32748 0.67393 0.29462 0.0
H235 H 0.31486 0.85508 0.19376 0.0
H236 H 0.47301 0.66814 0.95703 0.0
H237 H 0.46204 0.8511 0.85905 0.0
H238 H 0.48791 0.84835 0.78484 0.0
H239 H 0.49881 0.66604 0.88305 0.0
Gd240 Gd 0.64251 0.26306 0.04166 0.0
Gd241 Gd 0.6768 0.25265 0.03361 0.0
C242 C 0.66196 0.25763 0.26683 0.0
C243 C 0.61397 0.25257 0.07662 0.0
C244 C 0.60038 0.25918 0.14962 0.0
C245 C 0.58989 0.31174 0.14795 0.0
C246 C 0.59616 0.20939 0.20335 0.0
C247 C 0.57058 0.26158 0.23535 0.0
C248 C 0.58137 0.21062 0.24598 0.0
C249 C 0.57511 0.31285 0.19041 0.0
C250 C 0.65344 0.36712 1.02655 0.0
C251 C 0.65758 0.25716 0.80821 0.0
C252 C 0.70513 0.26451 0.99717 0.0
C253 C 0.71794 0.25823 0.9182 0.0
C254 C 0.72854 0.20601 0.91631 0.0
C255 C 0.72134 0.30792 0.85999 0.0
C256 C 0.74649 0.25637 0.81549 0.0
C257 C 0.73554 0.30694 0.80885 0.0
C258 C 0.74273 0.20516 0.86521 0.0
C259 C 0.666 0.14823 0.04741 0.0
O260 O 0.64919 0.24846 0.21794 0.0
O261 O 0.67408 0.26911 0.2124 0.0
O262 O 0.61857 0.30028 0.03695 0.0
O263 O 0.62521 0.20962 0.09364 0.0
O264 O 0.64118 0.35586 0.97814 0.0
O265 O 0.65903 0.32441 0.08539 0.0
O266 O 0.67029 0.26681 0.85721 0.0
O267 O 0.64545 0.24566 0.86274 0.0
O268 O 0.70079 0.21633 0.03686 0.0
O269 O 0.69379 0.30743 0.98351 0.0
O270 O 0.67826 0.15962 0.09579 0.0
O271 O 0.66033 0.19119 0.9893 0.0
H272 H 0.59268 0.35088 0.10697 0.0
H273 H 0.6039 0.16814 0.20572 0.0
H274 H 0.57807 0.17058 0.28063 0.0
H275 H 0.56693 0.35267 0.18166 0.0
H276 H 0.72633 0.167 0.96045 0.0
H277 H 0.71346 0.34884 0.86002 0.0
H278 H 0.7383 0.34678 0.77 0.0
H279 H 0.75108 0.16563 0.87034 0.0
Gd280 Gd 0.42326 0.25624 0.04218 0.0
Gd281 Gd 0.38895 0.26681 0.03425 0.0
C282 C 0.4038 0.26165 0.26739 0.0
C283 C 0.4518 0.26669 0.07711 0.0
C284 C 0.4654 0.25996 0.14992 0.0
C285 C 0.47587 0.20731 0.14819 0.0
C286 C 0.46967 0.30973 0.20351 0.0
C287 C 0.49522 0.25729 0.23537 0.0
C288 C 0.48448 0.30836 0.246 0.0
C289 C 0.49065 0.20606 0.19052 0.0
C290 C 0.41229 0.15225 1.02669 0.0
C291 C 0.40818 0.26261 0.80876 0.0
C292 C 0.36064 0.25477 0.99736 0.0
C293 C 0.34785 0.26164 0.9183 0.0
C294 C 0.33736 0.31417 0.91651 0.0
C295 C 0.34436 0.2122 0.85973 0.0
C296 C 0.31931 0.26457 0.81513 0.0
C297 C 0.33016 0.21371 0.80837 0.0
C298 C 0.32318 0.31555 0.86517 0.0
C299 C 0.39979 0.37112 0.04865 0.0
O300 O 0.41657 0.27079 0.21849 0.0
O301 O 0.39168 0.25017 0.21296 0.0
O302 O 0.44721 0.21905 0.03711 0.0
O303 O 0.44056 0.30959 0.09455 0.0
O304 O 0.42457 0.16347 0.97841 0.0
O305 O 0.40671 0.19495 0.08568 0.0
O306 O 0.39546 0.2531 0.85771 0.0
O307 O 0.42033 0.27383 0.86332 0.0
O308 O 0.36493 0.30264 0.03885 0.0
O309 O 0.37203 0.21216 0.9823 0.0
O310 O 0.38747 0.35988 0.09648 0.0
O311 O 0.40545 0.32819 0.99037 0.0
H312 H 0.47304 0.16819 0.10729 0.0
H313 H 0.46196 0.35105 0.20589 0.0
H314 H 0.48781 0.34837 0.28057 0.0
H315 H 0.4988 0.16616 0.18175 0.0
H316 H 0.33964 0.35302 0.96087 0.0
H317 H 0.35215 0.17106 0.85969 0.0
H318 H 0.32733 0.17405 0.76928 0.0
H319 H 0.3149 0.35529 0.8704 0.0
C320 C 0.27514 0.26023 0.72924 0.0
C321 C 0.26204 0.25901 0.70284 0.0
C322 C 0.29063 0.26164 0.7559 0.0
C323 C 0.30373 0.26244 0.78258 0.0
C324 C 0.77515 0.26005 0.75632 0.0
C325 C 0.76205 0.25899 0.78293 0.0
C326 C 0.79064 0.26153 0.72953 0.0
C327 C 0.80374 0.26258 0.70295 0.0
C328 C 0.29078 0.76024 0.30823 0.0
C329 C 0.30384 0.76178 0.28139 0.0
C330 C 0.27535 0.75821 0.33531 0.0
C331 C 0.26229 0.75733 0.36289 0.0
C332 C 0.77496 0.75948 0.30957 0.0
C333 C 0.76192 0.75782 0.28256 0.0
C334 C 0.79039 0.76157 0.33657 0.0
C335 C 0.80345 0.76242 0.36389 0.0
C336 C 0.16105 0.97494 0.54548 0.0
C337 C 0.15893 0.92468 0.56715 0.0
C338 C 0.16226 0.0347 0.51563 0.0
C339 C 0.16344 0.08543 0.49031 0.0
C340 C 0.90367 0.48483 0.51658 0.0
C341 C 0.90251 0.43412 0.49103 0.0
C342 C 0.90484 0.54458 0.54661 0.0
C343 C 0.90694 0.59486 0.56826 0.0
C344 C 0.90521 0.98227 0.53295 0.0
C345 C 0.90327 0.93178 0.55386 0.0
C346 C 0.90645 0.04236 0.50658 0.0
C347 C 0.90825 0.09318 0.48725 0.0
C348 C 0.16056 0.53721 0.53372 0.0
C349 C 0.16248 0.58771 0.55468 0.0
C350 C 0.15933 0.47713 0.50715 0.0
C351 C 0.15755 0.42632 0.48756 0.0
C352 C 0.66086 0.5376 0.03374 0.0
C353 C 0.66268 0.58886 1.02879 0.0
C354 C 0.6593 0.47698 0.03625 0.0
C355 C 0.65725 0.42591 0.03543 0.0
C356 C 0.40487 0.98171 0.03346 0.0
C357 C 0.40311 0.93037 1.02863 0.0
C358 C 0.4064 0.04237 0.03602 0.0
C359 C 0.40846 0.09345 0.03539 0.0
C360 C 0.40492 0.48165 1.03114 0.0
C361 C 0.40315 0.43034 0.03587 0.0
C362 C 0.40643 0.54231 1.02863 0.0
C363 C 0.40847 0.59339 1.02926 0.0
C364 C 0.66116 0.03746 1.02793 0.0
C365 C 0.6628 0.08888 0.03351 0.0
C366 C 0.65975 0.97671 1.02514 0.0
C367 C 0.65773 0.92561 1.02617 0.0
C368 C 0.16085 0.25945 1.01247 0.0
C369 C 0.16205 0.2598 0.10996 0.0
C370 C 0.15864 0.25866 0.89902 0.0
C371 C 0.15722 0.25792 0.80174 0.0
C372 C 0.90503 0.26086 1.01277 0.0
C373 C 0.90384 0.26033 0.11026 0.0
C374 C 0.90723 0.26161 0.89931 0.0
C375 C 0.90866 0.26212 0.80201 0.0
C376 C 0.15858 0.7558 0.16844 0.0
C377 C 0.15729 0.75464 0.26609 0.0
C378 C 0.16066 0.75752 0.05445 0.0
C379 C 0.16185 0.75827 0.95668 0.0
C380 C 0.90509 0.76169 0.05449 0.0
C381 C 0.9039 0.76105 0.95671 0.0
C382 C 0.90718 0.76334 0.16847 0.0
C383 C 0.90847 0.76455 0.26612 0.0
C384 C 0.65905 0.75651 0.46836 0.0
C385 C 0.65775 0.75628 0.37095 0.0
C386 C 0.66112 0.75705 0.58197 0.0
C387 C 0.66228 0.75768 0.67946 0.0
C388 C 0.40487 0.76068 0.58285 0.0
C389 C 0.40371 0.76013 0.68034 0.0
C390 C 0.40693 0.76162 0.46923 0.0
C391 C 0.40823 0.76234 0.37181 0.0
C392 C 0.66095 0.25712 0.48073 0.0
C393 C 0.66212 0.25792 0.38324 0.0
C394 C 0.65887 0.2564 0.59434 0.0
C395 C 0.65756 0.25614 0.69177 0.0
C396 C 0.40479 0.26246 0.48129 0.0
C397 C 0.40362 0.26151 0.38381 0.0
C398 C 0.40689 0.26334 0.59489 0.0
C399 C 0.40822 0.26362 0.69231 0.0
C400 C 0.04102 0.25933 0.21475 0.0
C401 C 0.05459 0.25903 0.23043 0.0
C402 C 1.02489 0.25945 0.2147 0.0
C403 C 1.01131 0.25977 0.23033 0.0
C404 C 1.02486 0.75952 0.85588 0.0
C405 C 1.01133 0.75997 0.83949 0.0
C406 C 0.04094 0.75906 0.85596 0.0
C407 C 0.05447 0.75877 0.83969 0.0
C408 C 0.54101 0.75937 0.79473 0.0
C409 C 0.55456 0.75925 0.81008 0.0
C410 C 0.52492 0.75931 0.79465 0.0
C411 C 0.51136 0.75955 0.80994 0.0
C412 C 0.52486 0.25935 0.27113 0.0
C413 C 0.5113 0.25965 0.2556 0.0
C414 C 0.54095 0.25928 0.27116 0.0
C415 C 0.55451 0.25904 0.25564 0.0
loop_
_geom_bond_atom_site_label_1
_geom_bond_atom_site_label_2
_geom_bond_distance
_geom_bond_site_symmetry_2
_ccdc_geom_bond_type
Gd0 C3 2.818 . S
Gd0 O20 2.377 . S
Gd0 O22 2.448 . S
Gd0 O23 2.506 . S
Gd0 O24 2.435 . S
Gd0 O25 2.717 . S
Gd0 O27 2.395 . S
Gd0 O31 2.327 . S
Gd1 C12 2.818 . S
Gd1 O21 2.395 . S
Gd1 O25 2.327 . S
Gd1 O26 2.377 . S
Gd1 O28 2.448 . S
Gd1 O29 2.506 . S
Gd1 O30 2.435 . S
Gd1 O31 2.717 . S
C2 O20 1.240 . S
C2 O21 1.240 . S
C3 Gd0 2.818 . S
C3 C4 1.510 . S
C3 O22 1.249 . S
C3 O23 1.252 . S
C4 C3 1.510 . S
C4 C5 1.404 . S
C4 C6 1.352 . S
C5 C4 1.404 . S
C5 C9 1.389 . S
C5 H32 0.930 . S
C6 C4 1.352 . S
C6 C8 1.374 . S
C6 H33 0.931 . S
C7 C8 1.359 . S
C7 C9 1.364 . S
C8 C6 1.374 . S
C8 C7 1.359 . S
C8 H34 0.931 . S
C9 C5 1.389 . S
C9 C7 1.364 . S
C9 H35 0.931 . S
C10 O24 1.256 . S
C10 O25 1.257 . S
C11 O26 1.240 . S
C11 O27 1.240 . S
C12 Gd1 2.818 . S
C12 C13 1.510 . S
C12 O28 1.249 . S
C12 O29 1.252 . S
C13 C12 1.510 . S
C13 C14 1.404 . S
C13 C15 1.352 . S
C14 C13 1.404 . S
C14 C18 1.389 . S
C14 H36 0.930 . S
C15 C13 1.352 . S
C15 C17 1.374 . S
C15 H37 0.931 . S
C16 C17 1.359 . S
C16 C18 1.364 . S
C17 C15 1.374 . S
C17 C16 1.359 . S
C17 H38 0.931 . S
C18 C14 1.389 . S
C18 C16 1.364 . S
C18 H39 0.931 . S
C19 O30 1.256 . S
C19 O31 1.257 . S
O20 Gd0 2.377 . S
O20 C2 1.240 . S
O21 Gd1 2.395 . S
O21 C2 1.240 . S
O22 Gd0 2.448 . S
O22 C3 1.249 . S
O23 Gd0 2.506 . S
O23 C3 1.252 . S
O24 Gd0 2.435 . S
O24 C10 1.256 . S
O25 Gd0 2.717 . S
O25 Gd1 2.327 . S
O25 C10 1.257 . S
O26 Gd1 2.377 . S
O26 C11 1.240 . S
O27 Gd0 2.395 . S
O27 C11 1.240 . S
O28 Gd1 2.448 . S
O28 C12 1.249 . S
O29 Gd1 2.506 . S
O29 C12 1.252 . S
O30 Gd1 2.435 . S
O30 C19 1.256 . S
O31 Gd0 2.327 . S
O31 Gd1 2.717 . S
O31 C19 1.257 . S
H32 C5 0.930 . S
H33 C6 0.931 . S
H34 C8 0.931 . S
H35 C9 0.931 . S
H36 C14 0.930 . S
H37 C15 0.931 . S
H38 C17 0.931 . S
H39 C18 0.931 . S
Gd40 C43 2.818 . S
Gd40 O60 2.377 . S
Gd40 O62 2.448 . S
Gd40 O63 2.506 . S
Gd40 O64 2.435 . S
Gd40 O65 2.717 . S
Gd40 O67 2.395 . S
Gd40 O71 2.327 . S
Gd41 C52 2.818 . S
Gd41 O61 2.395 . S
Gd41 O65 2.327 . S
Gd41 O66 2.377 . S
Gd41 O68 2.448 . S
Gd41 O69 2.506 . S
Gd41 O70 2.435 . S
Gd41 O71 2.717 . S
C42 O60 1.240 . S
C42 O61 1.240 . S
C43 Gd40 2.818 . S
C43 C44 1.510 . S
C43 O62 1.249 . S
C43 O63 1.252 . S
C44 C43 1.510 . S
C44 C45 1.404 . S
C44 C46 1.352 . S
C45 C44 1.404 . S
C45 C49 1.389 . S
C45 H72 0.930 . S
C46 C44 1.352 . S
C46 C48 1.374 . S
C46 H73 0.931 . S
C47 C48 1.359 . S
C47 C49 1.364 . S
C48 C46 1.374 . S
C48 C47 1.359 . S
C48 H74 0.931 . S
C49 C45 1.389 . S
C49 C47 1.364 . S
C49 H75 0.931 . S
C50 O64 1.256 . S
C50 O65 1.257 . S
C51 O66 1.240 . S
C51 O67 1.240 . S
C52 Gd41 2.818 . S
C52 C53 1.510 . S
C52 O68 1.249 . S
C52 O69 1.252 . S
C53 C52 1.510 . S
C53 C54 1.404 . S
C53 C55 1.352 . S
C54 C53 1.404 . S
C54 C58 1.389 . S
C54 H76 0.930 . S
C55 C53 1.352 . S
C55 C57 1.374 . S
C55 H77 0.931 . S
C56 C57 1.359 . S
C56 C58 1.364 . S
C57 C55 1.374 . S
C57 C56 1.359 . S
C57 H78 0.931 . S
C58 C54 1.389 . S
C58 C56 1.364 . S
C58 H79 0.931 . S
C59 O70 1.256 . S
C59 O71 1.257 . S
O60 Gd40 2.377 . S
O60 C42 1.240 . S
O61 Gd41 2.395 . S
O61 C42 1.240 . S
O62 Gd40 2.448 . S
O62 C43 1.249 . S
O63 Gd40 2.506 . S
O63 C43 1.252 . S
O64 Gd40 2.435 . S
O64 C50 1.256 . S
O65 Gd40 2.717 . S
O65 Gd41 2.327 . S
O65 C50 1.257 . S
O66 Gd41 2.377 . S
O66 C51 1.240 . S
O67 Gd40 2.395 . S
O67 C51 1.240 . S
O68 Gd41 2.448 . S
O68 C52 1.249 . S
O69 Gd41 2.506 . S
O69 C52 1.252 . S
O70 Gd41 2.435 . S
O70 C59 1.256 . S
O71 Gd40 2.327 . S
O71 Gd41 2.717 . S
O71 C59 1.257 . S
H72 C45 0.930 . S
H73 C46 0.931 . S
H74 C48 0.931 . S
H75 C49 0.931 . S
H76 C54 0.930 . S
H77 C55 0.931 . S
H78 C57 0.931 . S
H79 C58 0.931 . S
Gd80 C83 2.818 . S
Gd80 O100 2.377 . S
Gd80 O102 2.448 . S
Gd80 O103 2.506 . S
Gd80 O104 2.435 . S
Gd80 O105 2.717 . S
Gd80 O107 2.395 . S
Gd80 O111 2.327 . S
Gd81 C92 2.818 . S
Gd81 O101 2.395 . S
Gd81 O105 2.327 . S
Gd81 O106 2.377 . S
Gd81 O108 2.448 . S
Gd81 O109 2.506 . S
Gd81 O110 2.435 . S
Gd81 O111 2.717 . S
C82 O100 1.240 . S
C82 O101 1.240 . S
C83 Gd80 2.818 . S
C83 C84 1.510 . S
C83 O102 1.249 . S
C83 O103 1.252 . S
C84 C83 1.510 . S
C84 C85 1.404 . S
C84 C86 1.352 . S
C85 C84 1.404 . S
C85 C89 1.389 . S
C85 H112 0.930 . S
C86 C84 1.352 . S
C86 C88 1.374 . S
C86 H113 0.931 . S
C87 C88 1.359 . S
C87 C89 1.364 . S
C88 C86 1.374 . S
C88 C87 1.359 . S
C88 H114 0.931 . S
C89 C85 1.389 . S
C89 C87 1.364 . S
C89 H115 0.931 . S
C90 O104 1.256 . S
C90 O105 1.257 . S
C91 O106 1.240 . S
C91 O107 1.240 . S
C92 Gd81 2.818 . S
C92 C93 1.510 . S
C92 O108 1.249 . S
C92 O109 1.252 . S
C93 C92 1.510 . S
C93 C94 1.404 . S
C93 C95 1.352 . S
C94 C93 1.404 . S
C94 C98 1.389 . S
C94 H116 0.930 . S
C95 C93 1.352 . S
C95 C97 1.374 . S
C95 H117 0.931 . S
C96 C97 1.359 . S
C96 C98 1.364 . S
C97 C95 1.374 . S
C97 C96 1.359 . S
C97 H118 0.931 . S
C98 C94 1.389 . S
C98 C96 1.364 . S
C98 H119 0.931 . S
C99 O110 1.256 . S
C99 O111 1.257 . S
O100 Gd80 2.377 . S
O100 C82 1.240 . S
O101 Gd81 2.395 . S
O101 C82 1.240 . S
O102 Gd80 2.448 . S
O102 C83 1.249 . S
O103 Gd80 2.506 . S
O103 C83 1.252 . S
O104 Gd80 2.435 . S
O104 C90 1.256 . S
O105 Gd80 2.717 . S
O105 Gd81 2.327 . S
O105 C90 1.257 . S
O106 Gd81 2.377 . S
O106 C91 1.240 . S
O107 Gd80 2.395 . S
O107 C91 1.240 . S
O108 Gd81 2.448 . S
O108 C92 1.249 . S
O109 Gd81 2.506 . S
O109 C92 1.252 . S
O110 Gd81 2.435 . S
O110 C99 1.256 . S
O111 Gd80 2.327 . S
O111 Gd81 2.717 . S
O111 C99 1.257 . S
H112 C85 0.930 . S
H113 C86 0.931 . S
H114 C88 0.931 . S
H115 C89 0.931 . S
H116 C94 0.930 . S
H117 C95 0.931 . S
H118 C97 0.931 . S
H119 C98 0.931 . S
Gd120 C123 2.818 . S
Gd120 O140 2.377 . S
Gd120 O142 2.448 . S
Gd120 O143 2.506 . S
Gd120 O144 2.435 . S
Gd120 O145 2.717 . S
Gd120 O147 2.395 . S
Gd120 O151 2.327 . S
Gd121 C132 2.818 . S
Gd121 O141 2.395 . S
Gd121 O145 2.327 . S
Gd121 O146 2.377 . S
Gd121 O148 2.448 . S
Gd121 O149 2.506 . S
Gd121 O150 2.435 . S
Gd121 O151 2.717 . S
C122 O140 1.240 . S
C122 O141 1.240 . S
C123 Gd120 2.818 . S
C123 C124 1.510 . S
C123 O142 1.249 . S
C123 O143 1.252 . S
C124 C123 1.510 . S
C124 C125 1.404 . S
C124 C126 1.352 . S
C125 C124 1.404 . S
C125 C129 1.389 . S
C125 H152 0.930 . S
C126 C124 1.352 . S
C126 C128 1.374 . S
C126 H153 0.931 . S
C127 C128 1.359 . S
C127 C129 1.364 . S
C128 C126 1.374 . S
C128 C127 1.359 . S
C128 H154 0.931 . S
C129 C125 1.389 . S
C129 C127 1.364 . S
C129 H155 0.931 . S
C130 O144 1.256 . S
C130 O145 1.257 . S
C131 O146 1.240 . S
C131 O147 1.240 . S
C132 Gd121 2.818 . S
C132 C133 1.510 . S
C132 O148 1.249 . S
C132 O149 1.252 . S
C133 C132 1.510 . S
C133 C134 1.404 . S
C133 C135 1.352 . S
C134 C133 1.404 . S
C134 C138 1.389 . S
C134 H156 0.930 . S
C135 C133 1.352 . S
C135 C137 1.374 . S
C135 H157 0.931 . S
C136 C137 1.359 . S
C136 C138 1.364 . S
C137 C135 1.374 . S
C137 C136 1.359 . S
C137 H158 0.931 . S
C138 C134 1.389 . S
C138 C136 1.364 . S
C138 H159 0.931 . S
C139 O150 1.256 . S
C139 O151 1.257 . S
O140 Gd120 2.377 . S
O140 C122 1.240 . S
O141 Gd121 2.395 . S
O141 C122 1.240 . S
O142 Gd120 2.448 . S
O142 C123 1.249 . S
O143 Gd120 2.506 . S
O143 C123 1.252 . S
O144 Gd120 2.435 . S
O144 C130 1.256 . S
O145 Gd120 2.717 . S
O145 Gd121 2.327 . S
O145 C130 1.257 . S
O146 Gd121 2.377 . S
O146 C131 1.240 . S
O147 Gd120 2.395 . S
O147 C131 1.240 . S
O148 Gd121 2.448 . S
O148 C132 1.249 . S
O149 Gd121 2.506 . S
O149 C132 1.252 . S
O150 Gd121 2.435 . S
O150 C139 1.256 . S
O151 Gd120 2.327 . S
O151 Gd121 2.717 . S
O151 C139 1.257 . S
H152 C125 0.930 . S
H153 C126 0.931 . S
H154 C128 0.931 . S
H155 C129 0.931 . S
H156 C134 0.930 . S
H157 C135 0.931 . S
H158 C137 0.931 . S
H159 C138 0.931 . S
Gd160 C163 2.818 1_556 S
Gd160 O180 2.377 1_556 S
Gd160 O182 2.448 1_556 S
Gd160 O183 2.506 1_556 S
Gd160 O184 2.435 . S
Gd160 O185 2.717 . S
Gd160 O187 2.395 . S
Gd160 O191 2.327 1_556 S
Gd161 C172 2.818 1_554 S
Gd161 O181 2.395 . S
Gd161 O185 2.327 1_554 S
Gd161 O186 2.377 1_554 S
Gd161 O188 2.448 1_554 S
Gd161 O189 2.506 1_554 S
Gd161 O190 2.435 . S
Gd161 O191 2.717 . S
C162 O180 1.240 . S
C162 O181 1.240 . S
C163 Gd160 2.818 1_554 S
C163 C164 1.510 . S
C163 O182 1.249 . S
C163 O183 1.252 . S
C164 C163 1.510 . S
C164 C165 1.404 . S
C164 C166 1.352 . S
C165 C164 1.404 . S
C165 C169 1.389 . S
C165 H192 0.930 . S
C166 C164 1.352 . S
C166 C168 1.374 . S
C166 H193 0.931 . S
C167 C168 1.359 . S
C167 C169 1.364 . S
C168 C166 1.374 . S
C168 C167 1.359 . S
C168 H194 0.931 . S
C169 C165 1.389 . S
C169 C167 1.364 . S
C169 H195 0.931 . S
C170 O184 1.256 . S
C170 O185 1.257 . S
C171 O186 1.240 . S
C171 O187 1.240 . S
C172 Gd161 2.818 1_556 S
C172 C173 1.510 . S
C172 O188 1.249 . S
C172 O189 1.252 . S
C173 C172 1.510 . S
C173 C174 1.404 . S
C173 C175 1.352 . S
C174 C173 1.404 . S
C174 C178 1.389 . S
C174 H196 0.930 . S
C175 C173 1.352 . S
C175 C177 1.374 . S
C175 H197 0.931 . S
C176 C177 1.359 . S
C176 C178 1.364 . S
C177 C175 1.374 . S
C177 C176 1.359 . S
C177 H198 0.931 . S
C178 C174 1.389 . S
C178 C176 1.364 . S
C178 H199 0.931 . S
C179 O190 1.256 . S
C179 O191 1.257 . S
O180 Gd160 2.377 1_554 S
O180 C162 1.240 . S
O181 Gd161 2.395 . S
O181 C162 1.240 . S
O182 Gd160 2.448 1_554 S
O182 C163 1.249 . S
O183 Gd160 2.506 1_554 S
O183 C163 1.252 . S
O184 Gd160 2.435 . S
O184 C170 1.256 . S
O185 Gd160 2.717 . S
O185 Gd161 2.327 1_556 S
O185 C170 1.257 . S
O186 Gd161 2.377 1_556 S
O186 C171 1.240 . S
O187 Gd160 2.395 . S
O187 C171 1.240 . S
O188 Gd161 2.448 1_556 S
O188 C172 1.249 . S
O189 Gd161 2.506 1_556 S
O189 C172 1.252 . S
O190 Gd161 2.435 . S
O190 C179 1.256 . S
O191 Gd160 2.327 1_554 S
O191 Gd161 2.717 . S
O191 C179 1.257 . S
H192 C165 0.930 . S
H193 C166 0.931 . S
H194 C168 0.931 . S
H195 C169 0.931 . S
H196 C174 0.930 . S
H197 C175 0.931 . S
H198 C177 0.931 . S
H199 C178 0.931 . S
Gd200 C203 2.818 1_556 S
Gd200 O220 2.377 1_556 S
Gd200 O222 2.448 1_556 S
Gd200 O223 2.506 1_556 S
Gd200 O224 2.435 . S
Gd200 O225 2.717 . S
Gd200 O227 2.395 . S
Gd200 O231 2.327 1_556 S
Gd201 C212 2.818 1_554 S
Gd201 O221 2.395 . S
Gd201 O225 2.327 1_554 S
Gd201 O226 2.377 1_554 S
Gd201 O228 2.448 1_554 S
Gd201 O229 2.506 1_554 S
Gd201 O230 2.435 . S
Gd201 O231 2.717 . S
C202 O220 1.240 . S
C202 O221 1.240 . S
C203 Gd200 2.818 1_554 S
C203 C204 1.510 . S
C203 O222 1.249 . S
C203 O223 1.252 . S
C204 C203 1.510 . S
C204 C205 1.404 . S
C204 C206 1.352 . S
C205 C204 1.404 . S
C205 C209 1.389 . S
C205 H232 0.930 . S
C206 C204 1.352 . S
C206 C208 1.374 . S
C206 H233 0.931 . S
C207 C208 1.359 . S
C207 C209 1.364 . S
C208 C206 1.374 . S
C208 C207 1.359 . S
C208 H234 0.931 . S
C209 C205 1.389 . S
C209 C207 1.364 . S
C209 H235 0.931 . S
C210 O224 1.256 . S
C210 O225 1.257 . S
C211 O226 1.240 . S
C211 O227 1.240 . S
C212 Gd201 2.818 1_556 S
C212 C213 1.510 . S
C212 O228 1.249 . S
C212 O229 1.252 . S
C213 C212 1.510 . S
C213 C214 1.404 . S
C213 C215 1.352 . S
C214 C213 1.404 . S
C214 C218 1.389 . S
C214 H236 0.930 . S
C215 C213 1.352 . S
C215 C217 1.374 . S
C215 H237 0.931 . S
C216 C217 1.359 . S
C216 C218 1.364 . S
C217 C215 1.374 . S
C217 C216 1.359 . S
C217 H238 0.931 . S
C218 C214 1.389 . S
C218 C216 1.364 . S
C218 H239 0.931 . S
C219 O230 1.256 . S
C219 O231 1.257 . S
O220 Gd200 2.377 1_554 S
O220 C202 1.240 . S
O221 Gd201 2.395 . S
O221 C202 1.240 . S
O222 Gd200 2.448 1_554 S
O222 C203 1.249 . S
O223 Gd200 2.506 1_554 S
O223 C203 1.252 . S
O224 Gd200 2.435 . S
O224 C210 1.256 . S
O225 Gd200 2.717 . S
O225 Gd201 2.327 1_556 S
O225 C210 1.257 . S
O226 Gd201 2.377 1_556 S
O226 C211 1.240 . S
O227 Gd200 2.395 . S
O227 C211 1.240 . S
O228 Gd201 2.448 1_556 S
O228 C212 1.249 . S
O229 Gd201 2.506 1_556 S
O229 C212 1.252 . S
O230 Gd201 2.435 . S
O230 C219 1.256 . S
O231 Gd200 2.327 1_554 S
O231 Gd201 2.717 . S
O231 C219 1.257 . S
H232 C205 0.930 . S
H233 C206 0.931 . S
H234 C208 0.931 . S
H235 C209 0.931 . S
H236 C214 0.930 . S
H237 C215 0.931 . S
H238 C217 0.931 . S
H239 C218 0.931 . S
Gd240 C243 2.818 1_556 S
Gd240 O260 2.377 1_556 S
Gd240 O262 2.448 1_556 S
Gd240 O263 2.506 1_556 S
Gd240 O264 2.435 . S
Gd240 O265 2.717 . S
Gd240 O267 2.395 . S
Gd240 O271 2.327 1_556 S
Gd241 C252 2.818 1_554 S
Gd241 O261 2.395 . S
Gd241 O265 2.327 1_554 S
Gd241 O266 2.377 1_554 S
Gd241 O268 2.448 1_554 S
Gd241 O269 2.506 1_554 S
Gd241 O270 2.435 . S
Gd241 O271 2.717 . S
C242 O260 1.240 . S
C242 O261 1.240 . S
C243 Gd240 2.818 1_554 S
C243 C244 1.510 . S
C243 O262 1.249 . S
C243 O263 1.252 . S
C244 C243 1.510 . S
C244 C245 1.404 . S
C244 C246 1.352 . S
C245 C244 1.404 . S
C245 C249 1.389 . S
C245 H272 0.930 . S
C246 C244 1.352 . S
C246 C248 1.374 . S
C246 H273 0.931 . S
C247 C248 1.359 . S
C247 C249 1.364 . S
C248 C246 1.374 . S
C248 C247 1.359 . S
C248 H274 0.931 . S
C249 C245 1.389 . S
C249 C247 1.364 . S
C249 H275 0.931 . S
C250 O264 1.256 . S
C250 O265 1.257 . S
C251 O266 1.240 . S
C251 O267 1.240 . S
C252 Gd241 2.818 1_556 S
C252 C253 1.510 . S
C252 O268 1.249 . S
C252 O269 1.252 . S
C253 C252 1.510 . S
C253 C254 1.404 . S
C253 C255 1.352 . S
C254 C253 1.404 . S
C254 C258 1.389 . S
C254 H276 0.930 . S
C255 C253 1.352 . S
C255 C257 1.374 . S
C255 H277 0.931 . S
C256 C257 1.359 . S
C256 C258 1.364 . S
C257 C255 1.374 . S
C257 C256 1.359 . S
C257 H278 0.931 . S
C258 C254 1.389 . S
C258 C256 1.364 . S
C258 H279 0.931 . S
C259 O270 1.256 . S
C259 O271 1.257 . S
O260 Gd240 2.377 1_554 S
O260 C242 1.240 . S
O261 Gd241 2.395 . S
O261 C242 1.240 . S
O262 Gd240 2.448 1_554 S
O262 C243 1.249 . S
O263 Gd240 2.506 1_554 S
O263 C243 1.252 . S
O264 Gd240 2.435 . S
O264 C250 1.256 . S
O265 Gd240 2.717 . S
O265 Gd241 2.327 1_556 S
O265 C250 1.257 . S
O266 Gd241 2.377 1_556 S
O266 C251 1.240 . S
O267 Gd240 2.395 . S
O267 C251 1.240 . S
O268 Gd241 2.448 1_556 S
O268 C252 1.249 . S
O269 Gd241 2.506 1_556 S
O269 C252 1.252 . S
O270 Gd241 2.435 . S
O270 C259 1.256 . S
O271 Gd240 2.327 1_554 S
O271 Gd241 2.717 . S
O271 C259 1.257 . S
H272 C245 0.930 . S
H273 C246 0.931 . S
H274 C248 0.931 . S
H275 C249 0.931 . S
H276 C254 0.930 . S
H277 C255 0.931 . S
H278 C257 0.931 . S
H279 C258 0.931 . S
Gd280 C283 2.818 1_556 S
Gd280 O300 2.377 1_556 S
Gd280 O302 2.448 1_556 S
Gd280 O303 2.506 1_556 S
Gd280 O304 2.435 . S
Gd280 O305 2.717 . S
Gd280 O307 2.395 . S
Gd280 O311 2.327 1_556 S
Gd281 C292 2.818 1_554 S
Gd281 O301 2.395 . S
Gd281 O305 2.327 1_554 S
Gd281 O306 2.377 1_554 S
Gd281 O308 2.448 1_554 S
Gd281 O309 2.506 1_554 S
Gd281 O310 2.435 . S
Gd281 O311 2.717 . S
C282 O300 1.240 . S
C282 O301 1.240 . S
C283 Gd280 2.818 1_554 S
C283 C284 1.510 . S
C283 O302 1.249 . S
C283 O303 1.252 . S
C284 C283 1.510 . S
C284 C285 1.404 . S
C284 C286 1.352 . S
C285 C284 1.404 . S
C285 C289 1.389 . S
C285 H312 0.930 . S
C286 C284 1.352 . S
C286 C288 1.374 . S
C286 H313 0.931 . S
C287 C288 1.359 . S
C287 C289 1.364 . S
C288 C286 1.374 . S
C288 C287 1.359 . S
C288 H314 0.931 . S
C289 C285 1.389 . S
C289 C287 1.364 . S
C289 H315 0.931 . S
C290 O304 1.256 . S
C290 O305 1.257 . S
C291 O306 1.240 . S
C291 O307 1.240 . S
C292 Gd281 2.818 1_556 S
C292 C293 1.510 . S
C292 O308 1.249 . S
C292 O309 1.252 . S
C293 C292 1.510 . S
C293 C294 1.404 . S
C293 C295 1.352 . S
C294 C293 1.404 . S
C294 C298 1.389 . S
C294 H316 0.930 . S
C295 C293 1.352 . S
C295 C297 1.374 . S
C295 H317 0.931 . S
C296 C297 1.359 . S
C296 C298 1.364 . S
C297 C295 1.374 . S
C297 C296 1.359 . S
C297 H318 0.931 . S
C298 C294 1.389 . S
C298 C296 1.364 . S
C298 H319 0.931 . S
C299 O310 1.256 . S
C299 O311 1.257 . S
O300 Gd280 2.377 1_554 S
O300 C282 1.240 . S
O301 Gd281 2.395 . S
O301 C282 1.240 . S
O302 Gd280 2.448 1_554 S
O302 C283 1.249 . S
O303 Gd280 2.506 1_554 S
O303 C283 1.252 . S
O304 Gd280 2.435 . S
O304 C290 1.256 . S
O305 Gd280 2.717 . S
O305 Gd281 2.327 1_556 S
O305 C290 1.257 . S
O306 Gd281 2.377 1_556 S
O306 C291 1.240 . S
O307 Gd280 2.395 . S
O307 C291 1.240 . S
O308 Gd281 2.448 1_556 S
O308 C292 1.249 . S
O309 Gd281 2.506 1_556 S
O309 C292 1.252 . S
O310 Gd281 2.435 . S
O310 C299 1.256 . S
O311 Gd280 2.327 1_554 S
O311 Gd281 2.717 . S
O311 C299 1.257 . S
H312 C285 0.930 . S
H313 C286 0.931 . S
H314 C288 0.931 . S
H315 C289 0.931 . S
H316 C294 0.930 . S
H317 C295 0.931 . S
H318 C297 0.931 . S
H319 C298 0.931 . S
C320 C321 1.170 . S
C320 C322 1.380 . S
C321 C320 1.170 . S
C322 C320 1.380 . S
C322 C323 1.170 . S
C323 C322 1.170 . S
C324 C325 1.170 . S
C324 C326 1.380 . S
C325 C324 1.170 . S
C326 C324 1.380 . S
C326 C327 1.170 . S
C327 C326 1.170 . S
C328 C329 1.170 . S
C328 C330 1.380 . S
C329 C328 1.170 . S
C330 C328 1.380 . S
C330 C331 1.170 . S
C331 C330 1.170 . S
C332 C333 1.170 . S
C332 C334 1.380 . S
C333 C332 1.170 . S
C334 C332 1.380 . S
C334 C335 1.170 . S
C335 C334 1.170 . S
C336 C337 1.170 . S
C336 C338 1.380 1_565 S
C337 C336 1.170 . S
C338 C336 1.380 1_545 S
C338 C339 1.170 . S
C339 C338 1.170 . S
C340 C341 1.170 . S
C340 C342 1.380 . S
C341 C340 1.170 . S
C342 C340 1.380 . S
C342 C343 1.170 . S
C343 C342 1.170 . S
C344 C345 1.170 . S
C344 C346 1.380 1_565 S
C345 C344 1.170 . S
C346 C344 1.380 1_545 S
C346 C347 1.170 . S
C347 C346 1.170 . S
C348 C349 1.170 . S
C348 C350 1.380 . S
C349 C348 1.170 . S
C350 C348 1.380 . S
C350 C351 1.170 . S
C351 C350 1.170 . S
C352 C353 1.170 . S
C352 C354 1.380 . S
C353 C352 1.170 . S
C354 C352 1.380 . S
C354 C355 1.170 . S
C355 C354 1.170 . S
C356 C357 1.170 . S
C356 C358 1.380 1_565 S
C357 C356 1.170 . S
C358 C356 1.380 1_545 S
C358 C359 1.170 . S
C359 C358 1.170 . S
C360 C361 1.170 . S
C360 C362 1.380 . S
C361 C360 1.170 . S
C362 C360 1.380 . S
C362 C363 1.170 . S
C363 C362 1.170 . S
C364 C365 1.170 1_556 S
C364 C366 1.380 1_545 S
C365 C364 1.170 1_554 S
C366 C364 1.380 1_565 S
C366 C367 1.170 1_556 S
C367 C366 1.170 1_554 S
C368 C369 1.170 1_556 S
C368 C370 1.380 . S
C369 C368 1.170 1_554 S
C370 C368 1.380 . S
C370 C371 1.170 . S
C371 C370 1.170 . S
C372 C373 1.170 1_556 S
C372 C374 1.380 . S
C373 C372 1.170 1_554 S
C374 C372 1.380 . S
C374 C375 1.170 . S
C375 C374 1.170 . S
C376 C377 1.170 . S
C376 C378 1.380 . S
C377 C376 1.170 . S
C378 C376 1.380 . S
C378 C379 1.170 1_554 S
C379 C378 1.170 1_556 S
C380 C381 1.170 1_554 S
C380 C382 1.380 . S
C381 C380 1.170 1_556 S
C382 C380 1.380 . S
C382 C383 1.170 . S
C383 C382 1.170 . S
C384 C385 1.170 . S
C384 C386 1.380 . S
C385 C384 1.170 . S
C386 C384 1.380 . S
C386 C387 1.170 . S
C387 C386 1.170 . S
C388 C389 1.170 . S
C388 C390 1.380 . S
C389 C388 1.170 . S
C390 C388 1.380 . S
C390 C391 1.170 . S
C391 C390 1.170 . S
C392 C393 1.170 . S
C392 C394 1.380 . S
C393 C392 1.170 . S
C394 C392 1.380 . S
C394 C395 1.170 . S
C395 C394 1.170 . S
C396 C397 1.170 . S
C396 C398 1.380 . S
C397 C396 1.170 . S
C398 C396 1.380 . S
C398 C399 1.170 . S
C399 C398 1.170 . S
C400 C401 1.170 . S
C400 C402 1.380 1_455 S
C401 C400 1.170 . S
C402 C400 1.380 1_655 S
C402 C403 1.170 . S
C403 C402 1.170 . S
C404 C405 1.170 . S
C404 C406 1.380 1_655 S
C405 C404 1.170 . S
C406 C404 1.380 1_455 S
C406 C407 1.170 . S
C407 C406 1.170 . S
C408 C409 1.170 . S
C408 C410 1.380 . S
C409 C408 1.170 . S
C410 C408 1.380 . S
C410 C411 1.170 . S
C411 C410 1.170 . S
C412 C413 1.170 . S
C412 C414 1.380 . S
C413 C412 1.170 . S
C414 C412 1.380 . S
C414 C415 1.170 . S
C415 C414 1.170 . S
C321 C7 1.696 . S
C323 C296 1.685 . S
C325 C256 1.675 . S
C327 C47 1.695 . S
C329 C207 1.685 . S
C331 C96 1.682 . S
C333 C167 1.690 . S
C335 C136 1.677 . S
C337 C90 1.611 . S
C339 C10 1.602 . S
C341 C50 1.631 . S
C343 C130 1.602 . S
C345 C139 1.634 . S
C347 C59 1.588 . S
C349 C99 1.635 . S
C351 C19 1.590 . S
C353 C170 1.431 . S
C355 C250 1.462 . S
C357 C210 1.430 . S
C359 C290 1.462 . S
C361 C299 1.430 . S
C363 C219 1.461 . S
C365 C259 1.440 . S
C367 C179 1.439 . S
C369 C11 2.068 . S
C371 C2 2.096 . S
C373 C51 2.083 . S
C375 C42 2.088 . S
C377 C91 2.079 . S
C379 C82 2.091 . S
C381 C122 2.071 . S
C383 C131 2.096 . S
C385 C162 2.070 . S
C387 C171 2.095 . S
C389 C211 2.083 . S
C391 C202 2.069 . S
C393 C242 2.088 . S
C395 C251 2.066 . S
C397 C282 2.088 . S
C399 C291 2.066 . S
C401 C16 2.266 . S
C403 C56 2.269 . S
C405 C127 2.267 . S
C407 C87 2.269 . S
C409 C176 2.249 . S
C411 C216 2.253 . S
C413 C287 2.268 . S
C415 C247 2.270 . S
