# Generated by pormake.
# Topology yfx, (5)-cn, num edge types: 1
# Building blocks:
#     Node 0, Type 0, BuildingBlock: BEQFEK_clean_sbu_0, # of connection points: 5
#     Node 1, Type 0, BuildingBlock: BEQFEK_clean_sbu_0, # of connection points: 5
#     Node 2, Type 0, BuildingBlock: BEQFEK_clean_sbu_0, # of connection points: 5
#     Node 3, Type 0, BuildingBlock: BEQFEK_clean_sbu_0, # of connection points: 5
#     Node 4, Type 0, BuildingBlock: BEQFEK_clean_sbu_0, # of connection points: 5
#     Node 5, Type 0, BuildingBlock: BEQFEK_clean_sbu_0, # of connection points: 5
#     Node 6, Type 0, BuildingBlock: BEQFEK_clean_sbu_0, # of connection points: 5
#     Node 7, Type 0, BuildingBlock: BEQFEK_clean_sbu_0, # of connection points: 5
#     Edge 8, Type (0, 0), BuildingBlock: OJICUG_clean_linker_0, # of connection points: 2
#     Edge 9, Type (0, 0), BuildingBlock: OJICUG_clean_linker_0, # of connection points: 2
#     Edge 10, Type (0, 0), BuildingBlock: OJICUG_clean_linker_0, # of connection points: 2
#     Edge 11, Type (0, 0), BuildingBlock: OJICUG_clean_linker_0, # of connection points: 2
#     Edge 12, Type (0, 0), BuildingBlock: OJICUG_clean_linker_0, # of connection points: 2
#     Edge 13, Type (0, 0), BuildingBlock: OJICUG_clean_linker_0, # of connection points: 2
#     Edge 14, Type (0, 0), BuildingBlock: OJICUG_clean_linker_0, # of connection points: 2
#     Edge 15, Type (0, 0), BuildingBlock: OJICUG_clean_linker_0, # of connection points: 2
#     Edge 16, Type (0, 0), BuildingBlock: OJICUG_clean_linker_0, # of connection points: 2
#     Edge 17, Type (0, 0), BuildingBlock: OJICUG_clean_linker_0, # of connection points: 2
#     Edge 18, Type (0, 0), BuildingBlock: OJICUG_clean_linker_0, # of connection points: 2
#     Edge 19, Type (0, 0), BuildingBlock: OJICUG_clean_linker_0, # of connection points: 2
#     Edge 20, Type (0, 0), BuildingBlock: OJICUG_clean_linker_0, # of connection points: 2
#     Edge 21, Type (0, 0), BuildingBlock: OJICUG_clean_linker_0, # of connection points: 2
#     Edge 22, Type (0, 0), BuildingBlock: OJICUG_clean_linker_0, # of connection points: 2
#     Edge 23, Type (0, 0), BuildingBlock: OJICUG_clean_linker_0, # of connection points: 2
#     Edge 24, Type (0, 0), BuildingBlock: OJICUG_clean_linker_0, # of connection points: 2
#     Edge 25, Type (0, 0), BuildingBlock: OJICUG_clean_linker_0, # of connection points: 2
#     Edge 26, Type (0, 0), BuildingBlock: OJICUG_clean_linker_0, # of connection points: 2
#     Edge 27, Type (0, 0), BuildingBlock: OJICUG_clean_linker_0, # of connection points: 2
# Relax obj value: 0.147
# Max RMSD: 0.151
# Mean RMSD: 0.151
data_MOF--net-yfx--node1-BEQFEK_clean_sbu_0--edge1-OJICUG_clean_linker_0
_symmetry_space_group_name_H-M    P1
_symmetry_Int_Tables_number       1
_symmetry_cell_setting            triclinic
loop_
_symmetry_equiv_pos_as_xyz
'x, y, z'
_cell_length_a     30.44808
_cell_length_b     30.173989
_cell_length_c     16.722848
_cell_angle_alpha  89.919354
_cell_angle_beta   90.134092
_cell_angle_gamma 89.761949
loop_
_atom_site_label
_atom_site_type_symbol
_atom_site_fract_x
_atom_site_fract_y
_atom_site_fract_z
_atom_type_partial_charge
Co0 Co 0.30624 0.36696 0.12202 0.0
Co1 Co 0.20358 0.38422 0.12458 0.0
C2 C 0.24172 0.31446 0.02218 0.0
O3 O 0.27729 0.32391 0.0567 0.0
O4 O 0.20696 0.33748 0.03526 0.0
C5 C 0.37454 0.34671 0.02207 0.0
O6 O 0.34294 0.3525 0.96943 0.0
C7 C 0.11448 0.42864 0.08544 0.0
C8 C 0.0886 0.43741 0.20703 0.0
C9 C 0.07949 0.44764 0.12794 0.0
N10 N 0.14299 0.4089 0.13744 0.0
N11 N 0.12635 0.4139 0.20984 0.0
C12 C 0.1204 0.42954 -0.00319 0.0
H13 H 0.15457 0.42028 0.98061 0.0
H14 H 0.11181 0.46278 0.97274 0.0
H15 H 0.09757 0.40533 0.96936 0.0
C16 C 0.30927 0.45877 0.07462 0.0
N17 N 0.28634 0.42347 0.09925 0.0
N18 N 0.24401 0.43274 0.101 0.0
C19 C 0.23917 0.47558 0.07808 0.0
C20 C 0.28011 0.4929 0.05928 0.0
C21 C 0.35757 0.45744 0.05748 0.0
H22 H 0.37497 0.43966 0.10626 0.0
H23 H 0.36309 0.43935 0.00073 0.0
H24 H 0.37209 0.49075 0.05111 0.0
O25 O 0.29691 0.35158 0.23051 0.0
O26 O 0.22375 0.35037 0.22823 0.0
H27 H 0.1754 0.49015 0.12603 0.0
H28 H 0.20313 0.53702 0.08279 0.0
C29 C 0.19693 0.50095 0.07657 0.0
H30 H 0.18045 0.49576 0.01835 0.0
H31 H 0.14183 0.40294 0.26202 0.0
O32 O 0.3678 0.35643 0.09492 0.0
C33 C 0.26076 0.34124 0.26251 0.0
Co34 Co 0.65777 0.30466 0.85364 0.0
Co35 Co 0.64758 0.19954 0.86108 0.0
C36 C 0.685 0.25225 0.71617 0.0
O37 O 0.6777 0.28891 0.7506 0.0
O38 O 0.67561 0.21491 0.7499 0.0
C39 C 0.69929 0.38383 0.87177 0.0
O40 O 0.73113 0.35984 0.84098 0.0
C41 C 0.59318 0.115 0.83789 0.0
C42 C 0.61135 0.0796 0.9485 0.0
C43 C 0.58219 0.07802 0.88487 0.0
N44 N 0.62643 0.13756 0.87362 0.0
N45 N 0.63755 0.1151 0.93864 0.0
C46 C 0.56933 0.13113 0.76521 0.0
H47 H 0.5732 0.16751 0.75853 0.0
H48 H 0.53401 0.12227 0.76798 0.0
H49 H 0.58382 0.11489 0.71192 0.0
C50 C 0.56668 0.30316 0.89129 0.0
N51 N 0.60354 0.28128 0.87312 0.0
N52 N 0.59822 0.23835 0.88356 0.0
C53 C 0.55715 0.23208 0.91239 0.0
C54 C 0.5363 0.27289 0.9169 0.0
C55 C 0.5618 0.35253 0.88881 0.0
H56 H 0.57837 0.36698 0.94183 0.0
H57 H 0.57774 0.36579 0.83426 0.0
H58 H 0.52671 0.36267 0.88937 0.0
O59 O 0.69897 0.28378 0.93125 0.0
O60 O 0.69573 0.211 0.94499 0.0
H61 H 0.51378 0.19581 -0.00973 0.0
H62 H 0.52475 0.17012 0.896 0.0
C63 C 0.53973 0.1895 0.94511 0.0
H64 H 0.5665 0.17001 0.97323 0.0
H65 H 0.66105 0.12577 0.97975 0.0
O66 O 0.66061 0.36827 0.87308 0.0
C67 C 0.71225 0.24854 0.96406 0.0
Co68 Co 0.71398 0.65996 0.12264 0.0
Co69 Co 0.8174 0.64278 0.13209 0.0
C70 C 0.77619 0.70698 0.01397 0.0
O71 O 0.73973 0.69705 0.04453 0.0
O72 O 0.81196 0.68862 0.03875 0.0
C73 C 0.6417 0.71042 0.10709 0.0
O74 O 0.67266 0.73933 0.12296 0.0
C75 C 0.90497 0.59594 0.09094 0.0
C76 C 0.93392 0.58995 0.21123 0.0
C77 C 0.94078 0.57756 0.13254 0.0
N78 N 0.87809 0.61749 0.14311 0.0
N79 N 0.89648 0.61401 0.21463 0.0
C80 C 0.89685 0.59306 0.00297 0.0
H81 H 0.86204 0.60099 -0.01113 0.0
H82 H 0.90577 0.55962 0.98046 0.0
H83 H 0.91815 0.61742 0.97214 0.0
C84 C 0.71223 0.56864 0.07699 0.0
N85 N 0.73422 0.60331 0.1065 0.0
N86 N 0.77634 0.59381 0.11377 0.0
C87 C 0.78161 0.55071 0.09324 0.0
C88 C 0.74147 0.53391 0.06759 0.0
C89 C 0.66602 0.57207 0.04628 0.0
H90 H 0.64302 0.57148 0.09763 0.0
H91 H 0.66153 0.60403 0.01444 0.0
H92 H 0.65758 0.545 0.0044 0.0
O93 O 0.72748 0.68166 0.22591 0.0
O94 O 0.80009 0.67727 0.23579 0.0
H95 H 0.84322 0.53755 0.1519 0.0
H96 H 0.81561 0.48917 0.11384 0.0
C97 C 0.82316 0.52454 0.10196 0.0
H98 H 0.84194 0.52591 0.04553 0.0
H99 H 0.88248 0.62655 0.26685 0.0
O100 O 0.65097 0.66928 0.10769 0.0
C101 C 0.76254 0.6895 0.26362 0.0
Co102 Co 0.3692 0.72177 0.85391 0.0
Co103 Co 0.37415 0.82692 0.86332 0.0
C104 C 0.33783 0.7724 0.71852 0.0
O105 O 0.3486 0.73578 0.7501 0.0
O106 O 0.34554 0.80959 0.75381 0.0
C107 C 0.33002 0.64144 0.86596 0.0
O108 O 0.29941 0.6643 0.82857 0.0
C109 C 0.43035 0.90997 0.84099 0.0
C110 C 0.39927 0.95463 0.92828 0.0
C111 C 0.43548 0.95145 0.8783 0.0
N112 N 0.39361 0.88986 0.86929 0.0
N113 N 0.37502 0.91757 0.92031 0.0
C114 C 0.46196 0.88803 0.78516 0.0
H115 H 0.45502 0.85208 0.78024 0.0
H116 H 0.49627 0.89327 0.80551 0.0
H117 H 0.45834 0.90311 0.72499 0.0
C118 C 0.45842 0.72726 0.90377 0.0
N119 N 0.42243 0.74755 0.87568 0.0
N120 N 0.42394 0.79022 0.89126 0.0
C121 C 0.46061 0.79796 0.9347 0.0
C122 C 0.48357 0.75826 0.94358 0.0
C123 C 0.46672 0.67852 0.89578 0.0
H124 H 0.45014 0.66076 0.94532 0.0
H125 H 0.45289 0.66636 0.83845 0.0
H126 H 0.50242 0.67102 0.89802 0.0
O127 O 0.3264 0.74162 0.93125 0.0
O128 O 0.32676 0.81457 0.94634 0.0
H129 H 0.438 0.85775 -0.00822 0.0
H130 H 0.48551 0.83255 0.03803 0.0
C131 C 0.46914 0.83982 0.98009 0.0
H132 H 0.49132 0.86132 0.94489 0.0
H133 H 0.34705 0.91013 0.95346 0.0
O134 O 0.36795 0.65818 0.87449 0.0
C135 C 0.31169 0.77623 0.96441 0.0
Co136 Co 0.80721 0.86868 0.62519 0.0
Co137 Co 0.70407 0.88489 0.6269 0.0
C138 C 0.74336 0.81767 0.52043 0.0
O139 O 0.77881 0.82769 0.55486 0.0
O140 O 0.70788 0.83897 0.53617 0.0
C141 C 0.87507 0.85494 0.52243 0.0
O142 O 0.84361 0.86642 0.47251 0.0
C143 C 0.61449 0.92812 0.58663 0.0
C144 C 0.59039 0.94143 0.70814 0.0
C145 C 0.58029 0.94898 0.62847 0.0
N146 N 0.6435 0.90984 0.63947 0.0
N147 N 0.62789 0.91753 0.71189 0.0
C148 C 0.61957 0.92653 0.49786 0.0
H149 H 0.65341 0.91622 0.48143 0.0
H150 H 0.61139 0.95926 0.4712 0.0
H151 H 0.59603 0.90208 0.47325 0.0
C152 C 0.80969 0.96187 0.58673 0.0
N153 N 0.78699 0.92567 0.60769 0.0
N154 N 0.74445 0.93394 0.60588 0.0
C155 C 0.73922 0.97671 0.58287 0.0
C156 C 0.78018 0.99525 0.56855 0.0
C157 C 0.85851 0.96238 0.57548 0.0
H158 H 0.87453 0.93978 0.61896 0.0
H159 H 0.8664 0.95141 0.51388 0.0
H160 H 0.8724 0.99584 0.58384 0.0
O161 O 0.79711 0.8499 0.73145 0.0
O162 O 0.72389 0.85019 0.73033 0.0
H163 H 0.67438 0.99154 0.62489 0.0
H164 H 0.70115 0.03696 0.57525 0.0
C165 C 0.69631 1.00051 0.57483 0.0
H166 H 0.68093 0.99153 0.51717 0.0
H167 H 0.64405 0.90833 0.7645 0.0
O168 O 0.86864 0.85867 0.59712 0.0
C169 C 0.7609 0.83999 0.76371 0.0
Co170 Co 0.15576 0.80676 0.35313 0.0
Co171 Co 0.14477 0.70194 0.36194 0.0
C172 C 0.18564 0.75313 0.21885 0.0
O173 O 0.17831 0.78994 0.25268 0.0
O174 O 0.17498 0.71601 0.25206 0.0
C175 C 0.19796 0.88508 0.36991 0.0
O176 O 0.22951 0.86011 0.34068 0.0
C177 C 0.09067 0.61748 0.33671 0.0
C178 C 0.10574 0.58292 0.44968 0.0
C179 C 0.07848 0.58085 0.38342 0.0
N180 N 0.12295 0.64027 0.37478 0.0
N181 N 0.13222 0.61835 0.44132 0.0
C182 C 0.06877 0.63301 0.26166 0.0
H183 H 0.07251 0.6694 0.25475 0.0
H184 H 0.0335 0.62382 0.26133 0.0
H185 H 0.08491 0.61665 0.21008 0.0
C186 C 0.06328 0.8061 0.37907 0.0
N187 N 0.10077 0.78396 0.36711 0.0
N188 N 0.0951 0.74125 0.37946 0.0
C189 C 0.05322 0.73552 0.4045 0.0
C190 C 0.03197 0.77628 0.40292 0.0
C191 C 0.05928 0.85557 0.37653 0.0
H192 H 0.07522 0.86965 0.4305 0.0
H193 H 0.0765 0.86854 0.32305 0.0
H194 H 0.02446 0.86651 0.37513 0.0
O195 O 0.19477 0.78645 0.43514 0.0
O196 O 0.19149 0.71366 0.44837 0.0
H197 H 0.06079 0.67431 0.4689 0.0
H198 H 1.0077 0.7004 0.48009 0.0
C199 C 0.03482 0.69345 0.43764 0.0
H200 H 0.02113 0.67339 0.38818 0.0
H201 H 0.15459 0.62932 0.48422 0.0
O202 O 0.15891 0.87047 0.37034 0.0
C203 C 0.20743 0.75123 0.46879 0.0
Co204 Co 0.21454 0.16074 0.61872 0.0
Co205 Co 0.31791 0.14334 0.62999 0.0
C206 C 0.27691 0.20754 0.51093 0.0
O207 O 0.24029 0.19747 0.54058 0.0
O208 O 0.31262 0.18954 0.53687 0.0
C209 C 0.14253 0.21164 0.60527 0.0
O210 O 0.17386 0.2403 0.62012 0.0
C211 C 0.4051 0.09603 0.58794 0.0
C212 C 0.43518 0.09134 0.70747 0.0
C213 C 0.44135 0.07818 0.62899 0.0
N214 N 0.37863 0.11801 0.64024 0.0
N215 N 0.39768 0.11528 0.71129 0.0
C216 C 0.39628 0.09245 0.50027 0.0
H217 H 0.36133 0.10014 0.48691 0.0
H218 H 0.40516 0.05888 0.47836 0.0
H219 H 0.41723 0.11666 0.46827 0.0
C220 C 0.21269 0.06943 0.57387 0.0
N221 N 0.23471 0.10411 0.60316 0.0
N222 N 0.27676 0.09445 0.61124 0.0
C223 C 0.2819 0.05121 0.59157 0.0
C224 C 0.24178 0.0345 0.56563 0.0
C225 C 0.16664 0.07291 0.54237 0.0
H226 H 0.14333 0.07112 0.59316 0.0
H227 H 0.16196 0.10533 0.51218 0.0
H228 H 0.15882 0.04645 0.49884 0.0
O229 O 0.22817 0.18249 0.72148 0.0
O230 O 0.30054 0.17722 0.73451 0.0
H231 H 0.34329 0.03834 0.65127 0.0
H232 H 0.31527 0.98969 0.61529 0.0
C233 C 0.3232 0.0248 0.60182 0.0
H234 H 0.34211 0.02513 0.54549 0.0
H235 H 0.38415 0.12834 0.76351 0.0
O236 O 0.15152 0.17043 0.60492 0.0
C237 C 0.26277 0.18978 0.76081 0.0
Co238 Co 0.86997 0.2214 0.35485 0.0
Co239 Co 0.87386 0.32665 0.36202 0.0
C240 C 0.84056 0.27034 0.21668 0.0
O241 O 0.85114 0.23397 0.24941 0.0
O242 O 0.84729 0.30778 0.25179 0.0
C243 C 0.83163 0.14054 0.36852 0.0
O244 O 0.80135 0.1622 0.32807 0.0
C245 C 0.92996 0.40966 0.3388 0.0
C246 C 0.89578 0.45637 0.41841 0.0
C247 C 0.93349 0.45238 0.37233 0.0
N248 N 0.89272 0.38985 0.36563 0.0
N249 N 0.87234 0.4187 0.41207 0.0
C250 C 0.96291 0.38659 0.28717 0.0
H251 H 0.95565 0.35068 0.28302 0.0
H252 H 0.99662 0.39158 0.3108 0.0
H253 H 0.96132 0.40085 0.2261 0.0
C254 C 0.95843 0.22814 0.4082 0.0
N255 N 0.92253 0.24792 0.37868 0.0
N256 N 0.92346 0.29068 0.39358 0.0
C257 C 0.95963 0.29901 0.43804 0.0
C258 C 0.98287 0.2596 0.44827 0.0
C259 C 0.96748 0.17951 0.40065 0.0
H260 H 0.95113 0.16162 0.4503 0.0
H261 H 0.95392 0.16698 0.34337 0.0
H262 H 1.00328 0.17257 0.40309 0.0
O263 O 0.82572 0.24178 0.4289 0.0
O264 O 0.82532 0.31477 0.44323 0.0
H265 H 0.93627 0.35963 0.49133 0.0
H266 H 0.98248 0.33435 0.54194 0.0
C267 C 0.96747 0.34127 0.48264 0.0
H268 H 0.9907 0.3622 0.44858 0.0
H269 H 0.84348 0.41186 0.44303 0.0
O270 O 0.86909 0.15808 0.37836 0.0
C271 C 0.81021 0.27638 0.4609 0.0
C272 C 0.45608 0.28021 0.90286 0.0
C273 C 0.4936 0.28404 0.95055 0.0
H274 H 0.38857 0.29795 0.88802 0.0
C275 C 0.4917 0.30667 0.02353 0.0
H276 H 0.45753 0.26342 0.84568 0.0
C277 C 0.45266 0.32668 0.04766 0.0
C278 C 0.41544 0.32478 -0.00178 0.0
H279 H 0.52091 0.31046 0.05999 0.0
H280 H 0.45203 0.3448 0.10352 0.0
C281 C 0.41712 0.30061 0.92646 0.0
C282 C 0.68367 0.43342 -0.01299 0.0
C283 C 0.71014 0.42249 0.92118 0.0
H284 H 0.67441 0.47609 0.08781 0.0
C285 C 0.74893 0.44626 0.90764 0.0
H286 H 0.65417 0.41484 0.00013 0.0
C287 C 0.76019 0.48156 0.95742 0.0
C288 C 0.73324 0.49294 0.02228 0.0
H289 H 0.77014 0.43805 0.85785 0.0
H290 H 0.78909 0.50084 0.94344 0.0
C291 C 0.69547 0.468 0.03772 0.0
C292 C 0.56196 0.69983 0.0832 0.0
C293 C 0.59963 0.72578 0.07469 0.0
H294 H 0.49453 0.69153 0.05196 0.0
C295 C 0.59779 0.76493 0.02917 0.0
H296 H 0.5626 0.66985 0.11896 0.0
C297 C 0.5594 0.77643 -0.0116 0.0
C298 C 0.52233 0.74929 -0.00616 0.0
H299 H 0.62666 0.78537 0.02152 0.0
H300 H 0.5593 0.8054 0.95005 0.0
C301 C 0.52331 0.71197 0.04417 0.0
C302 C 0.32323 0.5619 0.03894 0.0
C303 C 0.28975 0.53343 0.01365 0.0
H304 H 0.36357 0.61745 0.01005 0.0
C305 C 0.2688 0.54113 0.94006 0.0
H306 H 0.33912 0.55703 0.09634 0.0
C307 C 0.28219 0.5761 0.89122 0.0
C308 C 0.31728 0.60315 0.91473 0.0
H309 H 0.24304 0.51931 0.91924 0.0
H310 H 0.26568 0.58154 0.83458 0.0
C311 C 0.33741 0.59607 -0.01067 0.0
C312 C 0.98425 0.79552 0.51679 0.0
C313 C 0.98905 0.78853 0.43457 0.0
H314 H 0.94431 0.82295 0.60944 0.0
C315 C 0.95614 0.80226 0.3815 0.0
H316 H 1.01012 0.78597 0.55804 0.0
C317 C 0.919 0.82397 0.41023 0.0
C318 C 0.91456 0.83244 0.49243 0.0
H319 H 0.96012 0.79789 0.31761 0.0
H320 H 0.89419 0.83474 0.36785 0.0
C321 C 0.94711 0.8173 0.5457 0.0
C322 C 0.26042 0.98149 0.45652 0.0
C323 C 0.2334 0.99337 0.52098 0.0
H324 H 0.26991 0.93785 0.35699 0.0
C325 C 0.19517 0.96907 0.53605 0.0
H326 H 0.28967 1.00029 0.44284 0.0
C327 C 0.18291 0.93477 0.48515 0.0
C328 C 0.20937 0.92346 0.41953 0.0
H329 H 0.17405 0.97758 0.58583 0.0
H330 H 0.15303 0.91674 0.49788 0.0
C331 C 0.24869 0.94644 0.40656 0.0
C332 C 0.09763 0.26676 0.5307 0.0
C333 C 0.10003 0.22741 0.57559 0.0
H334 H 0.05821 0.3074 0.4534 0.0
C335 C 0.06238 0.20164 0.58595 0.0
H336 H 0.12645 0.28711 0.52181 0.0
C337 C 0.02325 0.21397 0.54879 0.0
C338 C 0.02175 0.25127 0.49848 0.0
H339 H 0.06344 0.17155 0.62138 0.0
H340 H 0.99456 0.19349 0.55746 0.0
C341 C 0.05872 0.27846 0.49178 0.0
C342 C 0.83666 0.0984 0.49593 0.0
C343 C 0.8186 0.10304 0.419 0.0
H344 H 0.83609 0.06226 0.6062 0.0
C345 C 0.78507 0.07436 0.39436 0.0
H346 H 0.86149 0.12112 0.51739 0.0
C347 C 0.77125 0.0402 0.44463 0.0
C348 C 0.79008 0.035 0.52081 0.0
H349 H 0.77015 0.07791 0.33581 0.0
H350 H 0.7468 0.0171 0.42309 0.0
C351 C 0.82198 0.06504 0.54687 0.0
C352 C 0.31041 0.26836 0.42597 0.0
C353 C 0.27466 0.24178 0.44674 0.0
H354 H 0.33358 0.322 0.35388 0.0
C355 C 0.23346 0.25067 0.41032 0.0
H356 H 0.34221 0.26306 0.4536 0.0
C357 C 0.22812 0.2847 0.35448 0.0
C358 C 0.26387 0.31089 0.33257 0.0
H359 H 0.20483 0.231 0.42462 0.0
H360 H 0.19632 0.28937 0.32647 0.0
C361 C 0.30504 0.30259 0.36967 0.0
C362 C 0.77221 0.21774 0.05253 0.0
C363 C 0.74727 0.25373 0.02532 0.0
H364 H 0.8227 0.19517 0.13129 0.0
C365 C 0.75677 0.29645 0.05562 0.0
H366 H 0.76633 0.18472 0.02966 0.0
C367 C 0.78904 0.30272 0.11412 0.0
C368 C 0.81294 0.2665 0.14354 0.0
H369 H 0.73841 0.32526 0.03564 0.0
H370 H 0.79393 0.33559 0.13847 0.0
C371 C 0.80488 0.2241 0.11036 0.0
C372 C 0.7156 0.73522 0.356 0.0
C373 C 0.75769 0.7184 0.33533 0.0
H374 H 0.6778 0.77977 0.42911 0.0
C375 C 0.79403 0.73289 0.37902 0.0
H376 H 0.68649 0.72493 0.32379 0.0
C377 C 0.78866 0.76412 0.44003 0.0
C378 C 0.74683 0.7823 0.45855 0.0
H379 H 0.82672 0.72096 0.36499 0.0
H380 H 0.81789 0.7747 0.47153 0.0
C381 C 0.7103 0.76692 0.4164 0.0
C382 C 0.25021 0.80492 0.05008 0.0
C383 C 0.27685 0.76977 0.02527 0.0
H384 H 0.19889 0.82648 0.12711 0.0
C385 C 0.26945 0.72715 0.05807 0.0
H386 H 0.25438 0.83778 0.0251 0.0
C387 C 0.2377 0.72042 0.11741 0.0
C388 C 0.21235 0.75609 0.1447 0.0
H389 H 0.2892 0.69901 0.03971 0.0
H390 H 0.23451 0.68792 0.14432 0.0
C391 C 0.21811 0.79808 0.10827 0.0
C392 C 0.7274 0.78566 0.85947 0.0
C393 C 0.7639 0.80969 0.83396 0.0
H394 H 0.70304 0.73405 0.93351 0.0
C395 C 0.80539 0.7997 0.86855 0.0
H396 H 0.69526 0.79176 0.83371 0.0
C397 C 0.81031 0.76584 0.9256 0.0
C398 C 0.77381 0.74133 0.94993 0.0
H399 H 0.83452 0.81746 0.85019 0.0
H400 H 0.84245 0.75911 0.95084 0.0
C401 C 0.73227 0.75203 0.91636 0.0
C402 C 0.25061 0.7987 0.56331 0.0
C403 C 0.24204 0.75627 0.53087 0.0
H404 H 0.28787 0.83754 0.64664 0.0
C405 C 0.2683 0.7206 0.55515 0.0
H406 H 0.23119 0.82724 0.54553 0.0
C407 C 0.30159 0.72696 0.61177 0.0
C408 C 0.30905 0.76903 0.64673 0.0
H409 H 0.26321 0.68785 0.53043 0.0
H410 H 0.32059 0.69825 0.63013 0.0
C411 C 0.28356 0.80497 0.62067 0.0
C412 C 0.2157 0.23851 0.84749 0.0
C413 C 0.25697 0.21796 0.83317 0.0
H414 H 0.17824 0.28493 0.91722 0.0
C415 C 0.29161 0.22701 0.88544 0.0
H416 H 0.18789 0.23249 0.80856 0.0
C417 C 0.28549 0.25665 0.9488 0.0
C418 C 0.24482 0.27885 0.96075 0.0
H419 H 0.32356 0.21186 0.87671 0.0
H420 H 0.31344 0.26306 -0.01283 0.0
C421 C 0.20979 0.26871 0.91006 0.0
C422 C 0.71654 0.29771 0.60517 0.0
C423 C 0.71089 0.25556 0.64107 0.0
H424 H 0.7527 0.33777 0.52228 0.0
C425 C 0.73592 0.21996 0.61261 0.0
H426 H 0.69755 0.32607 0.62493 0.0
C427 C 0.76743 0.2269 0.55297 0.0
C428 C 0.77494 0.26969 0.52095 0.0
H429 H 0.73281 0.18732 0.63901 0.0
H430 H 0.78704 0.19879 0.53404 0.0
C431 C 0.74844 0.30477 0.54659 0.0
C432 C 0.02007 0.55796 0.10488 0.0
C433 C 0.97567 0.54521 0.10665 0.0
H434 H 0.08783 0.53707 0.10679 0.0
C435 C 0.9662 0.49968 0.10007 0.0
H436 H 0.02853 0.59263 0.11051 0.0
C437 C 1.00027 0.4677 0.09805 0.0
C438 C 0.0447 0.48037 0.10255 0.0
H439 H 0.93245 0.48857 0.10277 0.0
H440 H 0.99178 0.4329 0.09941 0.0
C441 C 0.0541 0.52606 0.10204 0.0
C442 C 0.5178 0.03921 0.94853 0.0
C443 C 0.54351 0.04719 0.88021 0.0
H444 H 0.46409 1.0039 0.00108 0.0
C445 C 0.53346 0.02331 0.81056 0.0
H446 H 0.52457 0.05678 0.00362 0.0
C447 C 0.49906 0.99192 0.80941 0.0
C448 C 0.47316 0.98403 0.87761 0.0
H449 H 0.55328 0.02807 0.75802 0.0
H450 H 0.49255 0.97404 0.75512 0.0
C451 C 0.48295 1.00871 0.94696 0.0
C452 C 0.52066 0.05878 0.6013 0.0
C453 C 0.47629 0.04588 0.60302 0.0
H454 H 0.58846 0.03813 0.60434 0.0
C455 C 0.467 1.00029 0.59684 0.0
H456 H 0.52901 0.09349 0.6067 0.0
C457 C 0.50119 0.96839 0.59603 0.0
C458 C 0.54555 0.98126 0.60106 0.0
H459 H 0.43328 0.98907 0.59943 0.0
H460 H 0.49281 0.93358 0.59824 0.0
C461 C 0.55479 0.02697 0.59935 0.0
C462 C 1.00931 0.54698 0.43862 0.0
C463 C 0.03989 0.55019 0.37603 0.0
H464 H 0.95241 0.5148 0.48599 0.0
C465 C 0.03516 0.52122 0.31101 0.0
H466 H 0.01207 0.56852 0.49015 0.0
C467 C 1.00114 0.48942 0.30906 0.0
C468 C 0.97044 0.48598 0.37174 0.0
H469 H 0.05889 0.52227 0.26325 0.0
H470 H 0.999 0.46762 0.25847 0.0
C471 C 0.97497 0.51592 0.43608 0.0
loop_
_geom_bond_atom_site_label_1
_geom_bond_atom_site_label_2
_geom_bond_distance
_geom_bond_site_symmetry_2
_ccdc_geom_bond_type
Co0 O3 1.970 1_554 S
Co0 N17 1.989 . S
Co0 O25 1.967 . S
Co0 O32 1.920 . S
Co1 O4 1.966 1_554 S
Co1 N10 2.022 . S
Co1 N18 1.993 . S
Co1 O26 1.941 . S
C2 O3 1.258 . S
C2 O4 1.263 . S
O3 Co0 1.970 1_556 S
O3 C2 1.258 . S
O4 Co1 1.966 1_556 S
O4 C2 1.263 . S
C5 O6 1.235 . S
C5 O32 1.289 1_556 S
O6 C5 1.235 . S
C7 C9 1.400 . S
C7 N10 1.351 1_556 S
C7 C12 1.501 . S
C8 C9 1.387 1_554 S
C8 N11 1.341 . S
C9 C7 1.400 . S
C9 C8 1.387 1_556 S
N10 Co1 2.022 . S
N10 C7 1.351 1_554 S
N10 N11 1.365 . S
N11 C8 1.341 . S
N11 N10 1.365 . S
N11 H31 0.862 . S
C12 C7 1.501 . S
C12 H13 0.961 . S
C12 H14 0.961 . S
C12 H15 0.960 . S
H13 C12 0.961 . S
H14 C12 0.961 . S
H15 C12 0.960 . S
C16 N17 1.342 . S
C16 C20 1.401 . S
C16 C21 1.499 . S
N17 Co0 1.989 . S
N17 C16 1.342 . S
N17 N18 1.388 . S
N18 Co1 1.993 . S
N18 N17 1.388 . S
N18 C19 1.346 . S
C19 N18 1.346 . S
C19 C20 1.396 . S
C19 C29 1.510 . S
C20 C16 1.401 . S
C20 C19 1.396 . S
C21 C16 1.499 . S
C21 H22 0.959 . S
C21 H23 0.960 1_554 S
C21 H24 0.961 . S
H22 C21 0.959 . S
H23 C21 0.960 1_556 S
H24 C21 0.961 . S
O25 Co0 1.967 . S
O25 C33 1.258 . S
O26 Co1 1.941 . S
O26 C33 1.266 . S
H27 C29 0.959 . S
H28 C29 0.961 1_556 S
C29 C19 1.510 . S
C29 H27 0.959 . S
C29 H28 0.961 1_554 S
C29 H30 0.960 . S
H30 C29 0.960 . S
H31 N11 0.862 . S
O32 Co0 1.920 . S
O32 C5 1.289 1_554 S
C33 O25 1.258 . S
C33 O26 1.266 . S
Co34 O37 1.970 1_554 S
Co34 N51 1.989 . S
Co34 O59 1.967 . S
Co34 O66 1.920 . S
Co35 O38 1.966 1_554 S
Co35 N44 2.022 . S
Co35 N52 1.993 . S
Co35 O60 1.941 . S
C36 O37 1.258 . S
C36 O38 1.263 . S
O37 Co34 1.970 1_556 S
O37 C36 1.258 . S
O38 Co35 1.966 1_556 S
O38 C36 1.263 . S
C39 O40 1.235 . S
C39 O66 1.289 1_556 S
O40 C39 1.235 . S
C41 C43 1.400 . S
C41 N44 1.351 1_556 S
C41 C46 1.501 . S
C42 C43 1.387 1_554 S
C42 N45 1.341 . S
C43 C41 1.400 . S
C43 C42 1.387 1_556 S
N44 Co35 2.022 . S
N44 C41 1.351 1_554 S
N44 N45 1.365 . S
N45 C42 1.341 . S
N45 N44 1.365 . S
N45 H65 0.862 . S
C46 C41 1.501 . S
C46 H47 0.961 . S
C46 H48 0.961 . S
C46 H49 0.960 . S
H47 C46 0.961 . S
H48 C46 0.961 . S
H49 C46 0.960 . S
C50 N51 1.342 . S
C50 C54 1.401 . S
C50 C55 1.499 . S
N51 Co34 1.989 . S
N51 C50 1.342 . S
N51 N52 1.388 . S
N52 Co35 1.993 . S
N52 N51 1.388 . S
N52 C53 1.346 . S
C53 N52 1.346 . S
C53 C54 1.396 . S
C53 C63 1.510 . S
C54 C50 1.401 . S
C54 C53 1.396 . S
C55 C50 1.499 . S
C55 H56 0.959 . S
C55 H57 0.960 1_554 S
C55 H58 0.961 . S
H56 C55 0.959 . S
H57 C55 0.960 1_556 S
H58 C55 0.961 . S
O59 Co34 1.967 . S
O59 C67 1.258 . S
O60 Co35 1.941 . S
O60 C67 1.266 . S
H61 C63 0.959 . S
H62 C63 0.961 1_556 S
C63 C53 1.510 . S
C63 H61 0.959 . S
C63 H62 0.961 1_554 S
C63 H64 0.960 . S
H64 C63 0.960 . S
H65 N45 0.862 . S
O66 Co34 1.920 . S
O66 C39 1.289 1_554 S
C67 O59 1.258 . S
C67 O60 1.266 . S
Co68 O71 1.970 1_554 S
Co68 N85 1.989 . S
Co68 O93 1.967 . S
Co68 O100 1.920 . S
Co69 O72 1.966 1_554 S
Co69 N78 2.022 . S
Co69 N86 1.993 . S
Co69 O94 1.941 . S
C70 O71 1.258 . S
C70 O72 1.263 . S
O71 Co68 1.970 1_556 S
O71 C70 1.258 . S
O72 Co69 1.966 1_556 S
O72 C70 1.263 . S
C73 O74 1.235 . S
C73 O100 1.289 1_556 S
O74 C73 1.235 . S
C75 C77 1.400 . S
C75 N78 1.351 1_556 S
C75 C80 1.501 . S
C76 C77 1.387 1_554 S
C76 N79 1.341 . S
C77 C75 1.400 . S
C77 C76 1.387 1_556 S
N78 Co69 2.022 . S
N78 C75 1.351 1_554 S
N78 N79 1.365 . S
N79 C76 1.341 . S
N79 N78 1.365 . S
N79 H99 0.862 . S
C80 C75 1.501 . S
C80 H81 0.961 . S
C80 H82 0.961 . S
C80 H83 0.960 . S
H81 C80 0.961 . S
H82 C80 0.961 . S
H83 C80 0.960 . S
C84 N85 1.342 . S
C84 C88 1.401 . S
C84 C89 1.499 . S
N85 Co68 1.989 . S
N85 C84 1.342 . S
N85 N86 1.388 . S
N86 Co69 1.993 . S
N86 N85 1.388 . S
N86 C87 1.346 . S
C87 N86 1.346 . S
C87 C88 1.396 . S
C87 C97 1.510 . S
C88 C84 1.401 . S
C88 C87 1.396 . S
C89 C84 1.499 . S
C89 H90 0.959 . S
C89 H91 0.960 1_554 S
C89 H92 0.961 . S
H90 C89 0.959 . S
H91 C89 0.960 1_556 S
H92 C89 0.961 . S
O93 Co68 1.967 . S
O93 C101 1.258 . S
O94 Co69 1.941 . S
O94 C101 1.266 . S
H95 C97 0.959 . S
H96 C97 0.961 1_556 S
C97 C87 1.510 . S
C97 H95 0.959 . S
C97 H96 0.961 1_554 S
C97 H98 0.960 . S
H98 C97 0.960 . S
H99 N79 0.862 . S
O100 Co68 1.920 . S
O100 C73 1.289 1_554 S
C101 O93 1.258 . S
C101 O94 1.266 . S
Co102 O105 1.970 1_554 S
Co102 N119 1.989 . S
Co102 O127 1.967 . S
Co102 O134 1.920 . S
Co103 O106 1.966 1_554 S
Co103 N112 2.022 . S
Co103 N120 1.993 . S
Co103 O128 1.941 . S
C104 O105 1.258 . S
C104 O106 1.263 . S
O105 Co102 1.970 1_556 S
O105 C104 1.258 . S
O106 Co103 1.966 1_556 S
O106 C104 1.263 . S
C107 O108 1.235 . S
C107 O134 1.289 1_556 S
O108 C107 1.235 . S
C109 C111 1.400 . S
C109 N112 1.351 1_556 S
C109 C114 1.501 . S
C110 C111 1.387 1_554 S
C110 N113 1.341 . S
C111 C109 1.400 . S
C111 C110 1.387 1_556 S
N112 Co103 2.022 . S
N112 C109 1.351 1_554 S
N112 N113 1.365 . S
N113 C110 1.341 . S
N113 N112 1.365 . S
N113 H133 0.862 . S
C114 C109 1.501 . S
C114 H115 0.961 . S
C114 H116 0.961 . S
C114 H117 0.960 . S
H115 C114 0.961 . S
H116 C114 0.961 . S
H117 C114 0.960 . S
C118 N119 1.342 . S
C118 C122 1.401 . S
C118 C123 1.499 . S
N119 Co102 1.989 . S
N119 C118 1.342 . S
N119 N120 1.388 . S
N120 Co103 1.993 . S
N120 N119 1.388 . S
N120 C121 1.346 . S
C121 N120 1.346 . S
C121 C122 1.396 . S
C121 C131 1.510 . S
C122 C118 1.401 . S
C122 C121 1.396 . S
C123 C118 1.499 . S
C123 H124 0.959 . S
C123 H125 0.960 1_554 S
C123 H126 0.961 . S
H124 C123 0.959 . S
H125 C123 0.960 1_556 S
H126 C123 0.961 . S
O127 Co102 1.967 . S
O127 C135 1.258 . S
O128 Co103 1.941 . S
O128 C135 1.266 . S
H129 C131 0.959 . S
H130 C131 0.961 1_556 S
C131 C121 1.510 . S
C131 H129 0.959 . S
C131 H130 0.961 1_554 S
C131 H132 0.960 . S
H132 C131 0.960 . S
H133 N113 0.862 . S
O134 Co102 1.920 . S
O134 C107 1.289 1_554 S
C135 O127 1.258 . S
C135 O128 1.266 . S
Co136 O139 1.970 . S
Co136 N153 1.989 . S
Co136 O161 1.967 . S
Co136 O168 1.920 . S
Co137 O140 1.966 . S
Co137 N146 2.022 . S
Co137 N154 1.993 . S
Co137 O162 1.941 . S
C138 O139 1.258 . S
C138 O140 1.263 . S
O139 Co136 1.970 . S
O139 C138 1.258 . S
O140 Co137 1.966 . S
O140 C138 1.263 . S
C141 O142 1.235 . S
C141 O168 1.289 . S
O142 C141 1.235 . S
C143 C145 1.400 . S
C143 N146 1.351 . S
C143 C148 1.501 . S
C144 C145 1.387 . S
C144 N147 1.341 . S
C145 C143 1.400 . S
C145 C144 1.387 . S
N146 Co137 2.022 . S
N146 C143 1.351 . S
N146 N147 1.365 . S
N147 C144 1.341 . S
N147 N146 1.365 . S
N147 H167 0.862 . S
C148 C143 1.501 . S
C148 H149 0.961 . S
C148 H150 0.961 . S
C148 H151 0.960 . S
H149 C148 0.961 . S
H150 C148 0.961 . S
H151 C148 0.960 . S
C152 N153 1.342 . S
C152 C156 1.401 . S
C152 C157 1.499 . S
N153 Co136 1.989 . S
N153 C152 1.342 . S
N153 N154 1.388 . S
N154 Co137 1.993 . S
N154 N153 1.388 . S
N154 C155 1.346 . S
C155 N154 1.346 . S
C155 C156 1.396 . S
C155 C165 1.510 . S
C156 C152 1.401 . S
C156 C155 1.396 . S
C157 C152 1.499 . S
C157 H158 0.959 . S
C157 H159 0.960 . S
C157 H160 0.961 . S
H158 C157 0.959 . S
H159 C157 0.960 . S
H160 C157 0.961 . S
O161 Co136 1.967 . S
O161 C169 1.258 . S
O162 Co137 1.941 . S
O162 C169 1.266 . S
H163 C165 0.959 1_545 S
H164 C165 0.961 1_545 S
C165 C155 1.510 . S
C165 H163 0.959 1_565 S
C165 H164 0.961 1_565 S
C165 H166 0.960 . S
H166 C165 0.960 . S
H167 N147 0.862 . S
O168 Co136 1.920 . S
O168 C141 1.289 . S
C169 O161 1.258 . S
C169 O162 1.266 . S
Co170 O173 1.970 . S
Co170 N187 1.989 . S
Co170 O195 1.967 . S
Co170 O202 1.920 . S
Co171 O174 1.966 . S
Co171 N180 2.022 . S
Co171 N188 1.993 . S
Co171 O196 1.941 . S
C172 O173 1.258 . S
C172 O174 1.263 . S
O173 Co170 1.970 . S
O173 C172 1.258 . S
O174 Co171 1.966 . S
O174 C172 1.263 . S
C175 O176 1.235 . S
C175 O202 1.289 . S
O176 C175 1.235 . S
C177 C179 1.400 . S
C177 N180 1.351 . S
C177 C182 1.501 . S
C178 C179 1.387 . S
C178 N181 1.341 . S
C179 C177 1.400 . S
C179 C178 1.387 . S
N180 Co171 2.022 . S
N180 C177 1.351 . S
N180 N181 1.365 . S
N181 C178 1.341 . S
N181 N180 1.365 . S
N181 H201 0.862 . S
C182 C177 1.501 . S
C182 H183 0.961 . S
C182 H184 0.961 . S
C182 H185 0.960 . S
H183 C182 0.961 . S
H184 C182 0.961 . S
H185 C182 0.960 . S
C186 N187 1.342 . S
C186 C190 1.401 . S
C186 C191 1.499 . S
N187 Co170 1.989 . S
N187 C186 1.342 . S
N187 N188 1.388 . S
N188 Co171 1.993 . S
N188 N187 1.388 . S
N188 C189 1.346 . S
C189 N188 1.346 . S
C189 C190 1.396 . S
C189 C199 1.510 . S
C190 C186 1.401 . S
C190 C189 1.396 . S
C191 C186 1.499 . S
C191 H192 0.959 . S
C191 H193 0.960 . S
C191 H194 0.961 . S
H192 C191 0.959 . S
H193 C191 0.960 . S
H194 C191 0.961 . S
O195 Co170 1.967 . S
O195 C203 1.258 . S
O196 Co171 1.941 . S
O196 C203 1.266 . S
H197 C199 0.959 1_655 S
H198 C199 0.961 1_655 S
C199 C189 1.510 . S
C199 H197 0.959 1_455 S
C199 H198 0.961 1_455 S
C199 H200 0.960 . S
H200 C199 0.960 . S
H201 N181 0.862 . S
O202 Co170 1.920 . S
O202 C175 1.289 . S
C203 O195 1.258 . S
C203 O196 1.266 . S
Co204 O207 1.970 . S
Co204 N221 1.989 . S
Co204 O229 1.967 . S
Co204 O236 1.920 . S
Co205 O208 1.966 . S
Co205 N214 2.022 . S
Co205 N222 1.993 . S
Co205 O230 1.941 . S
C206 O207 1.258 . S
C206 O208 1.263 . S
O207 Co204 1.970 . S
O207 C206 1.258 . S
O208 Co205 1.966 . S
O208 C206 1.263 . S
C209 O210 1.235 . S
C209 O236 1.289 . S
O210 C209 1.235 . S
C211 C213 1.400 . S
C211 N214 1.351 . S
C211 C216 1.501 . S
C212 C213 1.387 . S
C212 N215 1.341 . S
C213 C211 1.400 . S
C213 C212 1.387 . S
N214 Co205 2.022 . S
N214 C211 1.351 . S
N214 N215 1.365 . S
N215 C212 1.341 . S
N215 N214 1.365 . S
N215 H235 0.862 . S
C216 C211 1.501 . S
C216 H217 0.961 . S
C216 H218 0.961 . S
C216 H219 0.960 . S
H217 C216 0.961 . S
H218 C216 0.961 . S
H219 C216 0.960 . S
C220 N221 1.342 . S
C220 C224 1.401 . S
C220 C225 1.499 . S
N221 Co204 1.989 . S
N221 C220 1.342 . S
N221 N222 1.388 . S
N222 Co205 1.993 . S
N222 N221 1.388 . S
N222 C223 1.346 . S
C223 N222 1.346 . S
C223 C224 1.396 . S
C223 C233 1.510 . S
C224 C220 1.401 . S
C224 C223 1.396 . S
C225 C220 1.499 . S
C225 H226 0.959 . S
C225 H227 0.960 . S
C225 H228 0.961 . S
H226 C225 0.959 . S
H227 C225 0.960 . S
H228 C225 0.961 . S
O229 Co204 1.967 . S
O229 C237 1.258 . S
O230 Co205 1.941 . S
O230 C237 1.266 . S
H231 C233 0.959 1_565 S
H232 C233 0.961 1_565 S
C233 C223 1.510 . S
C233 H231 0.959 1_545 S
C233 H232 0.961 1_545 S
C233 H234 0.960 . S
H234 C233 0.960 . S
H235 N215 0.862 . S
O236 Co204 1.920 . S
O236 C209 1.289 . S
C237 O229 1.258 . S
C237 O230 1.266 . S
Co238 O241 1.970 . S
Co238 N255 1.989 . S
Co238 O263 1.967 . S
Co238 O270 1.920 . S
Co239 O242 1.966 . S
Co239 N248 2.022 . S
Co239 N256 1.993 . S
Co239 O264 1.941 . S
C240 O241 1.258 . S
C240 O242 1.263 . S
O241 Co238 1.970 . S
O241 C240 1.258 . S
O242 Co239 1.966 . S
O242 C240 1.263 . S
C243 O244 1.235 . S
C243 O270 1.289 . S
O244 C243 1.235 . S
C245 C247 1.400 . S
C245 N248 1.351 . S
C245 C250 1.501 . S
C246 C247 1.387 . S
C246 N249 1.341 . S
C247 C245 1.400 . S
C247 C246 1.387 . S
N248 Co239 2.022 . S
N248 C245 1.351 . S
N248 N249 1.365 . S
N249 C246 1.341 . S
N249 N248 1.365 . S
N249 H269 0.862 . S
C250 C245 1.501 . S
C250 H251 0.961 . S
C250 H252 0.961 . S
C250 H253 0.960 . S
H251 C250 0.961 . S
H252 C250 0.961 . S
H253 C250 0.960 . S
C254 N255 1.342 . S
C254 C258 1.401 . S
C254 C259 1.499 . S
N255 Co238 1.989 . S
N255 C254 1.342 . S
N255 N256 1.388 . S
N256 Co239 1.993 . S
N256 N255 1.388 . S
N256 C257 1.346 . S
C257 N256 1.346 . S
C257 C258 1.396 . S
C257 C267 1.510 . S
C258 C254 1.401 . S
C258 C257 1.396 . S
C259 C254 1.499 . S
C259 H260 0.959 . S
C259 H261 0.960 . S
C259 H262 0.961 . S
H260 C259 0.959 . S
H261 C259 0.960 . S
H262 C259 0.961 . S
O263 Co238 1.967 . S
O263 C271 1.258 . S
O264 Co239 1.941 . S
O264 C271 1.266 . S
H265 C267 0.959 1_455 S
H266 C267 0.961 1_455 S
C267 C257 1.510 . S
C267 H265 0.959 1_655 S
C267 H266 0.961 1_655 S
C267 H268 0.960 . S
H268 C267 0.960 . S
H269 N249 0.862 . S
O270 Co238 1.920 . S
O270 C243 1.289 . S
C271 O263 1.258 . S
C271 O264 1.266 . S
C272 C273 1.387 1_556 S
C272 H276 0.950 . S
C272 C281 1.390 . S
C273 C272 1.387 1_554 S
C273 C275 1.387 . S
H274 C281 0.950 . S
C275 C273 1.387 . S
C275 C277 1.390 . S
C275 H279 0.950 . S
H276 C272 0.950 . S
C277 C275 1.390 . S
C277 C278 1.387 1_554 S
C277 H280 0.950 . S
C278 C277 1.387 1_556 S
C278 C281 1.387 . S
H279 C275 0.950 . S
H280 C277 0.950 . S
C281 C272 1.390 . S
C281 H274 0.950 . S
C281 C278 1.387 . S
C282 C283 1.387 1_554 S
C282 H286 0.950 . S
C282 C291 1.390 . S
C283 C282 1.387 1_556 S
C283 C285 1.387 . S
H284 C291 0.950 . S
C285 C283 1.387 . S
C285 C287 1.390 . S
C285 H289 0.950 . S
H286 C282 0.950 . S
C287 C285 1.390 . S
C287 C288 1.387 1_556 S
C287 H290 0.950 . S
C288 C287 1.387 1_554 S
C288 C291 1.387 . S
H289 C285 0.950 . S
H290 C287 0.950 . S
C291 C282 1.390 . S
C291 H284 0.950 . S
C291 C288 1.387 . S
C292 C293 1.387 1_554 S
C292 H296 0.950 . S
C292 C301 1.390 . S
C293 C292 1.387 1_556 S
C293 C295 1.387 . S
H294 C301 0.950 . S
C295 C293 1.387 . S
C295 C297 1.390 . S
C295 H299 0.950 . S
H296 C292 0.950 . S
C297 C295 1.390 . S
C297 C298 1.387 1_556 S
C297 H300 0.950 . S
C298 C297 1.387 1_554 S
C298 C301 1.387 . S
H299 C295 0.950 . S
H300 C297 0.950 . S
C301 C292 1.390 . S
C301 H294 0.950 . S
C301 C298 1.387 . S
C302 C303 1.387 . S
C302 H306 0.950 . S
C302 C311 1.390 . S
C303 C302 1.387 . S
C303 C305 1.387 1_554 S
H304 C311 0.950 . S
C305 C303 1.387 1_556 S
C305 C307 1.390 . S
C305 H309 0.950 . S
H306 C302 0.950 . S
C307 C305 1.390 . S
C307 C308 1.387 . S
C307 H310 0.950 . S
C308 C307 1.387 . S
C308 C311 1.387 1_556 S
H309 C305 0.950 . S
H310 C307 0.950 . S
C311 C302 1.390 . S
C311 H304 0.950 . S
C311 C308 1.387 1_554 S
C312 C313 1.387 . S
C312 H316 0.950 . S
C312 C321 1.390 . S
C313 C312 1.387 . S
C313 C315 1.387 . S
H314 C321 0.950 . S
C315 C313 1.387 . S
C315 C317 1.390 . S
C315 H319 0.950 1_655 S
H316 C312 0.950 . S
C317 C315 1.390 . S
C317 C318 1.387 . S
C317 H320 0.950 . S
C318 C317 1.387 . S
C318 C321 1.387 . S
H319 C315 0.950 1_455 S
H320 C317 0.950 . S
C321 C312 1.390 . S
C321 H314 0.950 . S
C321 C318 1.387 . S
C322 C323 1.387 . S
C322 H326 0.950 . S
C322 C331 1.390 . S
C323 C322 1.387 . S
C323 C325 1.387 . S
H324 C331 0.950 . S
C325 C323 1.387 . S
C325 C327 1.390 . S
C325 H329 0.950 . S
H326 C322 0.950 . S
C327 C325 1.390 . S
C327 C328 1.387 . S
C327 H330 0.950 . S
C328 C327 1.387 . S
C328 C331 1.387 . S
H329 C325 0.950 . S
H330 C327 0.950 . S
C331 C322 1.390 . S
C331 H324 0.950 . S
C331 C328 1.387 . S
C332 C333 1.387 . S
C332 H336 0.950 . S
C332 C341 1.390 . S
C333 C332 1.387 . S
C333 C335 1.387 . S
H334 C341 0.950 . S
C335 C333 1.387 . S
C335 C337 1.390 . S
C335 H339 0.950 . S
H336 C332 0.950 . S
C337 C335 1.390 . S
C337 C338 1.387 . S
C337 H340 0.950 . S
C338 C337 1.387 . S
C338 C341 1.387 . S
H339 C335 0.950 . S
H340 C337 0.950 . S
C341 C332 1.390 . S
C341 H334 0.950 . S
C341 C338 1.387 . S
C342 C343 1.387 . S
C342 H346 0.950 . S
C342 C351 1.390 . S
C343 C342 1.387 . S
C343 C345 1.387 . S
H344 C351 0.950 . S
C345 C343 1.387 . S
C345 C347 1.390 . S
C345 H349 0.950 . S
H346 C342 0.950 . S
C347 C345 1.390 . S
C347 C348 1.387 . S
C347 H350 0.950 1_545 S
C348 C347 1.387 . S
C348 C351 1.387 . S
H349 C345 0.950 . S
H350 C347 0.950 1_565 S
C351 C342 1.390 . S
C351 H344 0.950 . S
C351 C348 1.387 . S
C352 C353 1.387 . S
C352 H356 0.950 . S
C352 C361 1.390 . S
C353 C352 1.387 . S
C353 C355 1.387 . S
H354 C361 0.950 . S
C355 C353 1.387 . S
C355 C357 1.390 . S
C355 H359 0.950 . S
H356 C352 0.950 . S
C357 C355 1.390 . S
C357 C358 1.387 . S
C357 H360 0.950 . S
C358 C357 1.387 . S
C358 C361 1.387 . S
H359 C355 0.950 . S
H360 C357 0.950 . S
C361 C352 1.390 . S
C361 H354 0.950 . S
C361 C358 1.387 . S
C362 C363 1.387 . S
C362 H366 0.950 . S
C362 C371 1.390 . S
C363 C362 1.387 . S
C363 C365 1.387 . S
H364 C371 0.950 . S
C365 C363 1.387 . S
C365 C367 1.390 . S
C365 H369 0.950 . S
H366 C362 0.950 . S
C367 C365 1.390 . S
C367 C368 1.387 . S
C367 H370 0.950 . S
C368 C367 1.387 . S
C368 C371 1.387 . S
H369 C365 0.950 . S
H370 C367 0.950 . S
C371 C362 1.390 . S
C371 H364 0.950 . S
C371 C368 1.387 . S
C372 C373 1.387 . S
C372 H376 0.950 . S
C372 C381 1.390 . S
C373 C372 1.387 . S
C373 C375 1.387 . S
H374 C381 0.950 . S
C375 C373 1.387 . S
C375 C377 1.390 . S
C375 H379 0.950 . S
H376 C372 0.950 . S
C377 C375 1.390 . S
C377 C378 1.387 . S
C377 H380 0.950 . S
C378 C377 1.387 . S
C378 C381 1.387 . S
H379 C375 0.950 . S
H380 C377 0.950 . S
C381 C372 1.390 . S
C381 H374 0.950 . S
C381 C378 1.387 . S
C382 C383 1.387 . S
C382 H386 0.950 . S
C382 C391 1.390 . S
C383 C382 1.387 . S
C383 C385 1.387 . S
H384 C391 0.950 . S
C385 C383 1.387 . S
C385 C387 1.390 . S
C385 H389 0.950 . S
H386 C382 0.950 . S
C387 C385 1.390 . S
C387 C388 1.387 . S
C387 H390 0.950 . S
C388 C387 1.387 . S
C388 C391 1.387 . S
H389 C385 0.950 . S
H390 C387 0.950 . S
C391 C382 1.390 . S
C391 H384 0.950 . S
C391 C388 1.387 . S
C392 C393 1.387 . S
C392 H396 0.950 . S
C392 C401 1.390 . S
C393 C392 1.387 . S
C393 C395 1.387 . S
H394 C401 0.950 . S
C395 C393 1.387 . S
C395 C397 1.390 . S
C395 H399 0.950 . S
H396 C392 0.950 . S
C397 C395 1.390 . S
C397 C398 1.387 . S
C397 H400 0.950 . S
C398 C397 1.387 . S
C398 C401 1.387 . S
H399 C395 0.950 . S
H400 C397 0.950 . S
C401 C392 1.390 . S
C401 H394 0.950 . S
C401 C398 1.387 . S
C402 C403 1.387 . S
C402 H406 0.950 . S
C402 C411 1.390 . S
C403 C402 1.387 . S
C403 C405 1.387 . S
H404 C411 0.950 . S
C405 C403 1.387 . S
C405 C407 1.390 . S
C405 H409 0.950 . S
H406 C402 0.950 . S
C407 C405 1.390 . S
C407 C408 1.387 . S
C407 H410 0.950 . S
C408 C407 1.387 . S
C408 C411 1.387 . S
H409 C405 0.950 . S
H410 C407 0.950 . S
C411 C402 1.390 . S
C411 H404 0.950 . S
C411 C408 1.387 . S
C412 C413 1.387 . S
C412 H416 0.950 . S
C412 C421 1.390 . S
C413 C412 1.387 . S
C413 C415 1.387 . S
H414 C421 0.950 . S
C415 C413 1.387 . S
C415 C417 1.390 . S
C415 H419 0.950 . S
H416 C412 0.950 . S
C417 C415 1.390 . S
C417 C418 1.387 . S
C417 H420 0.950 . S
C418 C417 1.387 . S
C418 C421 1.387 . S
H419 C415 0.950 . S
H420 C417 0.950 . S
C421 C412 1.390 . S
C421 H414 0.950 . S
C421 C418 1.387 . S
C422 C423 1.387 . S
C422 H426 0.950 . S
C422 C431 1.390 . S
C423 C422 1.387 . S
C423 C425 1.387 . S
H424 C431 0.950 . S
C425 C423 1.387 . S
C425 C427 1.390 . S
C425 H429 0.950 . S
H426 C422 0.950 . S
C427 C425 1.390 . S
C427 C428 1.387 . S
C427 H430 0.950 . S
C428 C427 1.387 . S
C428 C431 1.387 . S
H429 C425 0.950 . S
H430 C427 0.950 . S
C431 C422 1.390 . S
C431 H424 0.950 . S
C431 C428 1.387 . S
C432 C433 1.387 1_554 S
C432 H436 0.950 . S
C432 C441 1.390 1_655 S
C433 C432 1.387 1_556 S
C433 C435 1.387 . S
H434 C441 0.950 . S
C435 C433 1.387 . S
C435 C437 1.390 1_655 S
C435 H439 0.950 . S
H436 C432 0.950 . S
C437 C435 1.390 1_455 S
C437 C438 1.387 . S
C437 H440 0.950 . S
C438 C437 1.387 . S
C438 C441 1.387 1_556 S
H439 C435 0.950 . S
H440 C437 0.950 . S
C441 C432 1.390 1_455 S
C441 H434 0.950 . S
C441 C438 1.387 1_554 S
C442 C443 1.387 1_554 S
C442 H446 0.950 . S
C442 C451 1.390 1_545 S
C443 C442 1.387 1_556 S
C443 C445 1.387 . S
H444 C451 0.950 . S
C445 C443 1.387 . S
C445 C447 1.390 1_545 S
C445 H449 0.950 . S
H446 C442 0.950 . S
C447 C445 1.390 1_565 S
C447 C448 1.387 . S
C447 H450 0.950 . S
C448 C447 1.387 . S
C448 C451 1.387 1_556 S
H449 C445 0.950 . S
H450 C447 0.950 . S
C451 C442 1.390 1_565 S
C451 H444 0.950 . S
C451 C448 1.387 1_554 S
C452 C453 1.387 . S
C452 H456 0.950 . S
C452 C461 1.390 1_545 S
C453 C452 1.387 . S
C453 C455 1.387 . S
H454 C461 0.950 . S
C455 C453 1.387 . S
C455 C457 1.390 1_545 S
C455 H459 0.950 . S
H456 C452 0.950 . S
C457 C455 1.390 1_565 S
C457 C458 1.387 . S
C457 H460 0.950 . S
C458 C457 1.387 . S
C458 C461 1.387 . S
H459 C455 0.950 . S
H460 C457 0.950 . S
C461 C452 1.390 1_565 S
C461 H454 0.950 . S
C461 C458 1.387 . S
C462 C463 1.387 . S
C462 H466 0.950 . S
C462 C471 1.390 1_455 S
C463 C462 1.387 . S
C463 C465 1.387 . S
H464 C471 0.950 . S
C465 C463 1.387 . S
C465 C467 1.390 1_455 S
C465 H469 0.950 . S
H466 C462 0.950 . S
C467 C465 1.390 1_655 S
C467 C468 1.387 . S
C467 H470 0.950 . S
C468 C467 1.387 . S
C468 C471 1.387 . S
H469 C465 0.950 . S
H470 C467 0.950 . S
C471 C462 1.390 1_655 S
C471 H464 0.950 . S
C471 C468 1.387 . S
C273 C54 0.954 . S
C278 C5 0.988 . S
C283 C39 0.990 . S
C288 C88 0.956 . S
C293 C73 0.991 . S
C298 C122 0.959 . S
C303 C20 0.957 . S
C308 C107 0.990 . S
C313 C190 0.954 1_655 S
C318 C141 0.988 . S
C323 C224 0.954 1_565 S
C328 C175 0.988 . S
C333 C209 0.988 . S
C338 C258 0.954 1_455 S
C343 C243 0.990 . S
C348 C156 0.958 1_545 S
C353 C206 1.565 . S
C358 C33 1.595 . S
C363 C67 1.597 . S
C368 C240 1.564 . S
C373 C101 1.597 . S
C378 C138 1.566 . S
C383 C135 1.597 . S
C388 C172 1.564 . S
C393 C169 1.597 . S
C398 C70 1.567 . S
C403 C203 1.596 . S
C408 C104 1.567 . S
C413 C237 1.596 . S
C418 C2 1.567 . S
C423 C36 1.566 . S
C428 C271 1.598 . S
C433 C77 1.913 . S
C438 C9 1.913 . S
C443 C43 1.913 . S
C448 C111 1.913 . S
C453 C213 1.912 . S
C458 C145 1.912 . S
C463 C179 1.913 . S
C468 C247 1.913 . S
